# Generated by pormake.
# Topology pyr, (3,6)-cn, num edge types: 1
# Building blocks:
#     Node 0, Type 0, BuildingBlock: CUQRIR_clean_linker_1, # of connection points: 3
#     Node 1, Type 0, BuildingBlock: CUQRIR_clean_linker_1, # of connection points: 3
#     Node 2, Type 0, BuildingBlock: CUQRIR_clean_linker_1, # of connection points: 3
#     Node 3, Type 0, BuildingBlock: CUQRIR_clean_linker_1, # of connection points: 3
#     Node 4, Type 0, BuildingBlock: CUQRIR_clean_linker_1, # of connection points: 3
#     Node 5, Type 0, BuildingBlock: CUQRIR_clean_linker_1, # of connection points: 3
#     Node 6, Type 0, BuildingBlock: CUQRIR_clean_linker_1, # of connection points: 3
#     Node 7, Type 0, BuildingBlock: CUQRIR_clean_linker_1, # of connection points: 3
#     Node 8, Type 1, BuildingBlock: GEDQOX_clean_sbu_0, # of connection points: 6
#     Node 9, Type 1, BuildingBlock: GEDQOX_clean_sbu_0, # of connection points: 6
#     Node 10, Type 1, BuildingBlock: GEDQOX_clean_sbu_0, # of connection points: 6
#     Node 11, Type 1, BuildingBlock: GEDQOX_clean_sbu_0, # of connection points: 6
#     Edge 12, Type (0, 1), BuildingBlock: OJICUG_clean_linker_0, # of connection points: 2
#     Edge 13, Type (0, 1), BuildingBlock: OJICUG_clean_linker_0, # of connection points: 2
#     Edge 14, Type (0, 1), BuildingBlock: OJICUG_clean_linker_0, # of connection points: 2
#     Edge 15, Type (0, 1), BuildingBlock: OJICUG_clean_linker_0, # of connection points: 2
#     Edge 16, Type (0, 1), BuildingBlock: OJICUG_clean_linker_0, # of connection points: 2
#     Edge 17, Type (0, 1), BuildingBlock: OJICUG_clean_linker_0, # of connection points: 2
#     Edge 18, Type (0, 1), BuildingBlock: OJICUG_clean_linker_0, # of connection points: 2
#     Edge 19, Type (0, 1), BuildingBlock: OJICUG_clean_linker_0, # of connection points: 2
#     Edge 20, Type (0, 1), BuildingBlock: OJICUG_clean_linker_0, # of connection points: 2
#     Edge 21, Type (0, 1), BuildingBlock: OJICUG_clean_linker_0, # of connection points: 2
#     Edge 22, Type (0, 1), BuildingBlock: OJICUG_clean_linker_0, # of connection points: 2
#     Edge 23, Type (0, 1), BuildingBlock: OJICUG_clean_linker_0, # of connection points: 2
#     Edge 24, Type (0, 1), BuildingBlock: OJICUG_clean_linker_0, # of connection points: 2
#     Edge 25, Type (0, 1), BuildingBlock: OJICUG_clean_linker_0, # of connection points: 2
#     Edge 26, Type (0, 1), BuildingBlock: OJICUG_clean_linker_0, # of connection points: 2
#     Edge 27, Type (0, 1), BuildingBlock: OJICUG_clean_linker_0, # of connection points: 2
#     Edge 28, Type (0, 1), BuildingBlock: OJICUG_clean_linker_0, # of connection points: 2
#     Edge 29, Type (0, 1), BuildingBlock: OJICUG_clean_linker_0, # of connection points: 2
#     Edge 30, Type (0, 1), BuildingBlock: OJICUG_clean_linker_0, # of connection points: 2
#     Edge 31, Type (0, 1), BuildingBlock: OJICUG_clean_linker_0, # of connection points: 2
#     Edge 32, Type (0, 1), BuildingBlock: OJICUG_clean_linker_0, # of connection points: 2
#     Edge 33, Type (0, 1), BuildingBlock: OJICUG_clean_linker_0, # of connection points: 2
#     Edge 34, Type (0, 1), BuildingBlock: OJICUG_clean_linker_0, # of connection points: 2
#     Edge 35, Type (0, 1), BuildingBlock: OJICUG_clean_linker_0, # of connection points: 2
# Relax obj value: 0.277
# Max RMSD: 0.239
# Mean RMSD: 0.174
data_MOF--net-pyr--node1-GEDQOX_clean_sbu_0--node2-CUQRIR_clean_linker_1--edge1-OJICUG_clean_linker_0
_symmetry_space_group_name_H-M    P1
_symmetry_Int_Tables_number       1
_symmetry_cell_setting            triclinic
loop_
_symmetry_equiv_pos_as_xyz
'x, y, z'
_cell_length_a     26.027676
_cell_length_b     26.400209
_cell_length_c     22.144312
_cell_angle_alpha  85.782238
_cell_angle_beta   90.756545
_cell_angle_gamma 86.786536
loop_
_atom_site_label
_atom_site_type_symbol
_atom_site_fract_x
_atom_site_fract_y
_atom_site_fract_z
_atom_type_partial_charge
C0 C 0.2233 0.2113 0.20981 0.0
N1 N 0.25897 0.17148 0.22322 0.0
N2 N 0.23875 0.24565 0.1654 0.0
C3 C 0.17077 0.21438 0.23766 0.0
C4 C 0.28582 0.22377 0.15089 0.0
N5 N 0.29903 0.17891 0.1856 0.0
C6 C 0.31786 0.24578 0.10029 0.0
H7 H 0.14204 0.23494 0.206 0.0
H8 H 0.17275 0.23479 0.2796 0.0
H9 H 0.15743 0.17585 0.24996 0.0
H10 H 0.31473 0.28795 0.09824 0.0
H11 H 0.30311 0.23347 0.05683 0.0
H12 H 0.35896 0.23323 0.1042 0.0
C13 C 0.45254 0.7445 0.83337 0.0
N14 N 0.44025 0.78906 0.85817 0.0
N15 N 0.50419 0.73409 0.83457 0.0
C16 C 0.4148 0.71722 0.79652 0.0
C17 C 0.52286 0.77386 0.8615 0.0
N18 N 0.4842 0.80709 0.87565 0.0
C19 C 0.57905 0.78189 0.8702 0.0
H20 H 0.38135 0.70745 0.82469 0.0
H21 H 0.43129 0.68176 0.77931 0.0
H22 H 0.40038 0.74275 0.75714 0.0
H23 H 0.59156 0.80891 0.83326 0.0
H24 H 0.6024 0.74549 0.86905 0.0
H25 H 0.58576 0.79877 0.91387 0.0
C26 C 0.80894 0.40127 0.76173 0.0
N27 N 0.83815 0.39899 0.81309 0.0
N28 N 0.82041 0.44138 0.72369 0.0
C29 C 0.76425 0.36845 0.75168 0.0
C30 C 0.85735 0.46377 0.75407 0.0
N31 N 0.86775 0.43852 0.80896 0.0
C32 C 0.8844 0.50927 0.72855 0.0
H33 H 0.77417 0.34285 0.71552 0.0
H34 H 0.72957 0.39257 0.73635 0.0
H35 H 0.75425 0.34471 0.79261 0.0
H36 H 0.86526 0.54443 0.74417 0.0
H37 H 0.8826 0.51187 0.6783 0.0
H38 H 0.92524 0.50699 0.74405 0.0
C39 C 0.8214 0.91596 0.2683 0.0
N40 N 0.87336 0.91087 0.26913 0.0
N41 N 0.80412 0.9557 0.29975 0.0
C42 C 0.78757 0.87633 0.24605 0.0
C43 C 0.8484 0.97739 0.31369 0.0
N44 N 0.89046 0.94894 0.29818 0.0
C45 C 0.85067 1.02277 0.35092 0.0
H46 H 0.75312 0.89492 0.222 0.0
H47 H 0.77477 0.8518 0.28523 0.0
H48 H 0.80822 0.85196 0.21442 0.0
H49 H 0.86536 1.01069 0.39729 0.0
H50 H 0.8121 0.04258 0.35365 0.0
H51 H 0.87804 0.04948 0.33024 0.0
C52 C 0.89868 0.86202 0.93695 0.0
N53 N 0.93992 0.85087 0.90052 0.0
N54 N 0.87206 0.9067 0.91844 0.0
C55 C 0.88429 0.82914 0.99198 0.0
C56 C 0.89963 0.92301 0.86908 0.0
N57 N 0.94142 0.89045 0.85807 0.0
C58 C 0.88532 0.97145 0.83095 0.0
H59 H 0.85628 0.80175 0.97835 0.0
H60 H 0.86579 0.85218 1.02634 0.0
H61 H 0.91859 0.80765 1.01312 0.0
H62 H 0.90674 1.00275 0.84809 0.0
H63 H 0.84372 0.98226 0.83334 0.0
H64 H 0.89553 0.96757 0.78294 0.0
C65 C 0.74019 0.3425 0.30253 0.0
N66 N 0.75359 0.29679 0.2815 0.0
N67 N 0.69116 0.3578 0.28569 0.0
C68 C 0.77182 0.36871 0.34718 0.0
C69 C 0.67515 0.3194 0.25413 0.0
N70 N 0.71297 0.28242 0.25177 0.0
C71 C 0.6218 0.31663 0.22831 0.0
H72 H 0.74815 0.37782 0.3867 0.0
H73 H 0.78393 0.40512 0.32516 0.0
H74 H 0.80671 0.34552 0.36356 0.0
H75 H 0.60181 0.35496 0.22234 0.0
H76 H 0.59945 0.29194 0.25964 0.0
H77 H 0.62345 0.29931 0.18415 0.0
C78 C 0.27561 0.65403 0.33325 0.0
N79 N 0.31371 0.67909 0.3578 0.0
N80 N 0.2575 0.67903 0.28094 0.0
C81 C 0.25683 0.60433 0.35929 0.0
C82 C 0.28535 0.72073 0.27512 0.0
N83 N 0.31929 0.72087 0.32182 0.0
C84 C 0.28587 0.75612 0.21863 0.0
H85 H 0.27859 0.57231 0.33975 0.0
H86 H 0.21546 0.60178 0.3478 0.0
H87 H 0.26262 0.60041 0.4092 0.0
H88 H 0.24598 0.76847 0.20392 0.0
H89 H 0.30402 0.73554 0.18175 0.0
H90 H 0.3075 0.79028 0.22578 0.0
C91 C 0.29955 0.14126 0.82765 0.0
N92 N 0.31546 0.12938 0.77217 0.0
N93 N 0.32634 0.17908 0.84845 0.0
C94 C 0.25427 0.11989 0.86015 0.0
C95 C 0.36357 0.18485 0.80665 0.0
N96 N 0.35578 0.15662 0.75885 0.0
C97 C 0.39988 0.22761 0.80577 0.0
H98 H 0.21942 0.14546 0.85036 0.0
H99 H 0.26157 0.11792 0.9098 0.0
H100 H 0.24702 0.08142 0.84601 0.0
H101 H 0.43846 0.21438 0.79073 0.0
H102 H 0.40457 0.24178 0.85125 0.0
H103 H 0.38484 0.25949 0.77373 0.0
Nd104 Nd 0.14841 0.96269 0.53193 0.0
Nd105 Nd 0.09011 0.04862 0.54231 0.0
C106 C 0.19061 0.8699 0.53977 0.0
C107 C 0.21791 0.84717 0.59476 0.0
C108 C 0.19637 0.85313 0.6521 0.0
C109 C 0.2276 0.849 0.70421 0.0
C110 C 0.28079 0.83923 0.69969 0.0
C111 C 0.30148 0.82865 0.64327 0.0
C112 C 0.27028 0.83249 0.59125 0.0
C113 C 0.20029 1.02662 0.60113 0.0
C114 C 1.06747 0.9635 0.64884 0.0
C115 C 1.04133 0.13939 0.5392 0.0
C116 C 1.00408 0.16512 0.49509 0.0
C117 C 0.96003 0.19068 0.51611 0.0
C118 C 0.92026 0.20842 0.47584 0.0
C119 C 0.92401 0.20113 0.41377 0.0
C120 C 0.96894 0.17714 0.39232 0.0
C121 C 1.00853 0.15876 0.4328 0.0
C122 C 1.04218 0.98269 0.4705 0.0
C123 C 0.17565 0.05165 0.43159 0.0
O124 O 0.14092 0.87902 0.54375 0.0
O125 O 0.21316 0.90828 0.51338 0.0
O126 O 0.22109 1.0008 0.55984 0.0
O127 O 0.15339 1.01819 0.60658 0.0
O128 O 0.08793 0.93527 0.60694 0.0
O129 O 0.07159 1.01317 0.6394 0.0
O130 O 0.08866 0.13235 0.52148 0.0
O131 O 1.02487 0.09925 0.56886 0.0
O132 O 1.02108 1.00363 0.51539 0.0
O133 O 0.08771 0.9951 0.46539 0.0
O134 O 0.15339 0.07829 0.47377 0.0
O135 O 0.17161 1.00167 0.43765 0.0
H136 H 0.15612 0.86465 0.65645 0.0
H137 H 0.21067 0.85652 0.74731 0.0
H138 H 0.34229 0.81939 0.63898 0.0
H139 H 0.28784 0.82805 0.54771 0.0
H140 H 0.95565 0.19539 0.56401 0.0
H141 H 0.88625 0.22748 0.4933 0.0
H142 H 0.97261 0.17105 0.34468 0.0
H143 H 1.0418 0.13822 0.41569 0.0
Nd144 Nd 0.59068 1.01188 0.1186 0.0
Nd145 Nd 0.59469 0.07364 1.02534 0.0
C146 C 0.60064 0.94356 0.21229 0.0
C147 C 0.56377 0.91099 0.2433 0.0
C148 C 0.57753 0.85957 0.25886 0.0
C149 C 0.54108 0.8272 0.28281 0.0
C150 C 0.48989 0.84555 0.29007 0.0
C151 C 0.47668 0.89746 0.27577 0.0
C152 C 0.51327 0.92986 0.25273 0.0
C153 C 0.49281 0.06637 0.11353 0.0
C154 C 0.53553 0.97711 1.00177 0.0
C155 C 0.60015 0.157 0.95171 0.0
C156 C 0.64203 0.19234 0.94472 0.0
C157 C 0.63086 0.24376 0.92673 0.0
C158 C 0.67035 0.27767 0.92212 0.0
C159 C 0.72189 0.26089 0.93582 0.0
C160 C 0.73269 0.20937 0.95497 0.0
C161 C 0.6932 0.17548 0.95936 0.0
C162 C 0.67448 0.99882 1.01008 0.0
C163 C 0.65666 0.10683 0.13965 0.0
O164 O 0.61124 0.93313 0.15705 0.0
O165 O 0.59367 0.99229 0.21765 0.0
O166 O 0.50043 1.01736 0.11975 0.0
O167 O 0.5367 0.08508 0.10408 0.0
O168 O 0.56508 0.95984 0.04771 0.0
O169 O 0.53202 1.02625 0.98698 0.0
O170 O 0.57687 0.15643 1.00337 0.0
O171 O 0.60991 0.11132 0.93473 0.0
O172 O 0.63858 1.014 0.97066 0.0
O173 O 0.66444 1.01967 0.05981 0.0
O174 O 0.6549 0.11094 0.0806 0.0
O175 O 0.63112 0.07165 0.16837 0.0
H176 H 0.61623 0.84424 0.25136 0.0
H177 H 0.55266 0.78756 0.29412 0.0
H178 H 0.43746 0.91274 0.27948 0.0
H179 H 0.50143 0.96926 0.24017 0.0
H180 H 0.59163 0.25763 0.91579 0.0
H181 H 0.66058 0.31677 0.90591 0.0
H182 H 0.77173 0.19513 0.9662 0.0
H183 H 0.70272 0.13601 0.97415 0.0
Nd184 Nd 0.54519 0.51789 0.55976 0.0
Nd185 Nd 0.59988 0.6055 0.50509 0.0
C186 C 0.47874 0.45531 0.6086 0.0
C187 C 0.45685 0.40592 0.60136 0.0
C188 C 0.40782 0.39796 0.62388 0.0
C189 C 0.38856 0.34966 0.62603 0.0
C190 C 0.41794 0.30802 0.60548 0.0
C191 C 0.46598 0.31691 0.57934 0.0
C192 C 0.48531 0.36554 0.57729 0.0
C193 C 0.65019 0.50549 0.57301 0.0
C194 C 0.56363 0.61699 0.64004 0.0
C195 C 0.65688 0.6734 0.4493 0.0
C196 C 0.66472 0.72835 0.44696 0.0
C197 C 0.7142 0.74381 0.45819 0.0
C198 C 0.72473 0.79492 0.45013 0.0
C199 C 0.68592 0.83216 0.43056 0.0
C200 C 0.63559 0.81686 0.42189 0.0
C201 C 0.62503 0.76534 0.43008 0.0
C202 C 0.49458 0.61671 0.49457 0.0
C203 C 0.59448 0.50171 0.43226 0.0
O204 O 0.52712 0.45452 0.62537 0.0
O205 O 0.46534 0.4927 0.56847 0.0
O206 O 0.62102 0.46913 0.56056 0.0
O207 O 0.62355 0.54608 0.5795 0.0
O208 O 0.53613 0.57722 0.63195 0.0
O209 O 0.59599 0.63366 0.5991 0.0
O210 O 0.61387 0.65922 0.42649 0.0
O211 O 0.67202 0.64629 0.49885 0.0
O212 O 0.52321 0.6524 0.51004 0.0
O213 O 0.52178 0.57714 0.48538 0.0
O214 O 0.62153 0.54088 0.44371 0.0
O215 O 0.55583 0.48859 0.46662 0.0
H216 H 0.38536 0.42865 0.64269 0.0
H217 H 0.35201 0.34457 0.64777 0.0
H218 H 0.48947 0.28594 0.56269 0.0
H219 H 0.52322 0.37112 0.55919 0.0
H220 H 0.74543 0.71601 0.47087 0.0
H221 H 0.76434 0.80451 0.45564 0.0
H222 H 0.60481 0.84439 0.40687 0.0
H223 H 0.58628 0.75441 0.42138 0.0
Nd224 Nd 1.05427 0.54534 0.07227 0.0
Nd225 Nd 0.12131 0.55065 0.97841 0.0
C226 C 0.9782 0.56362 0.14661 0.0
C227 C 0.95999 0.61336 0.16814 0.0
C228 C 0.93925 0.65297 0.12749 0.0
C229 C 0.92979 0.70201 0.14636 0.0
C230 C 0.9411 0.71286 0.20626 0.0
C231 C 0.96061 0.67287 0.24721 0.0
C232 C 0.96973 0.62374 0.22843 0.0
C233 C 0.14593 0.58099 0.10727 0.0
C234 C 1.0488 0.65233 0.97606 0.0
C235 C 0.20146 0.53393 0.91104 0.0
C236 C 0.21975 0.48249 0.89682 0.0
C237 C 0.27167 0.46597 0.90556 0.0
C238 C 0.28684 0.41434 0.90362 0.0
C239 C 0.25018 0.37862 0.8931 0.0
C240 C 0.1984 0.39556 0.88383 0.0
C241 C 0.18336 0.44674 0.88583 0.0
C242 C 1.02922 0.51385 0.94428 0.0
C243 C 0.12974 0.44306 0.07241 0.0
O244 O 0.97046 0.55668 0.08939 0.0
O245 O 1.02423 0.54722 0.1654 0.0
O246 O 0.12379 0.54409 0.13565 0.0
O247 O 0.12097 0.59697 0.05984 0.0
O248 O 1.02326 0.62063 1.01271 0.0
O249 O 0.09562 0.63675 0.96072 0.0
O250 O 0.206 0.54224 0.96826 0.0
O251 O 0.15655 0.55028 0.88774 0.0
O252 O 1.05202 0.54944 0.91369 0.0
O253 O 1.05405 0.49863 0.99204 0.0
O254 O 0.1521 0.47263 1.03062 0.0
O255 O 0.08508 0.46026 0.09362 0.0
H256 H 0.93146 0.64655 0.08058 0.0
H257 H 0.91358 0.73141 0.11382 0.0
H258 H 0.97018 0.6797 0.29353 0.0
H259 H 0.98621 0.59418 0.26062 0.0
H260 H 0.30012 0.49269 0.91571 0.0
H261 H 0.32715 0.40242 0.91012 0.0
H262 H 0.16909 0.36897 0.87664 0.0
H263 H 0.14271 0.45789 0.88118 0.0
C264 C 0.24902 0.15352 0.33505 0.0
C265 C 0.25335 0.13485 0.27675 0.0
H266 H 0.22149 0.14426 0.42658 0.0
C267 C 0.23429 0.08602 0.27142 0.0
H268 H 0.26088 0.19145 0.34145 0.0
C269 C 0.21154 0.05812 0.32138 0.0
C270 C 0.20486 0.07841 0.37869 0.0
H271 H 0.23417 0.07057 0.22749 0.0
H272 H 0.1966 1.02158 0.314 0.0
C273 C 0.22515 0.12651 0.38417 0.0
C274 C 0.5138 0.89461 0.87333 0.0
C275 C 0.48911 0.85426 0.90334 0.0
H276 H 0.54615 0.96711 0.88093 0.0
C277 C 0.47341 0.8583 0.96309 0.0
H278 H 0.52629 0.89185 0.82719 0.0
C279 C 0.48553 0.90048 0.99404 0.0
C280 C 0.51204 0.94002 0.96498 0.0
H281 H 0.4546 0.82732 0.9868 0.0
H282 H 0.4762 0.90121 1.04154 0.0
C283 C 0.52465 0.93761 0.90378 0.0
C284 C 0.77297 0.43387 0.62814 0.0
C285 C 0.78796 0.46367 0.67456 0.0
H286 H 0.71649 0.42374 0.55933 0.0
C287 C 0.76292 0.51166 0.67933 0.0
H288 H 0.79222 0.39699 0.62339 0.0
C289 C 0.72047 0.52746 0.64212 0.0
C290 C 0.70184 0.49496 0.60049 0.0
H291 H 0.77332 0.535 0.71527 0.0
H292 H 0.69977 0.56316 0.64957 0.0
C293 C 0.72976 0.44912 0.59176 0.0
C294 C 0.8972 0.82155 0.30027 0.0
C295 C 0.90191 0.86405 0.25927 0.0
H296 H 0.90466 0.74064 0.31548 0.0
C297 C 0.92405 0.85741 0.20292 0.0
H298 H 0.87873 0.82595 0.34325 0.0
C299 C 0.93889 0.80852 0.18652 0.0
C300 C 0.93134 0.76535 0.22614 0.0
H301 H 0.9269 0.88974 0.17033 0.0
H302 H 0.95476 0.80449 0.14205 0.0
C303 C 0.91173 0.77273 0.28397 0.0
C304 C 0.3969 0.16644 0.18382 0.0
C305 C 0.34745 0.14651 0.17837 0.0
H306 H 0.4789 0.15993 0.16686 0.0
C307 C 0.34748 0.0987 0.15307 0.0
H308 H 0.39966 0.20309 0.2022 0.0
C309 C 0.39386 0.07314 0.13336 0.0
C310 C 0.44288 0.09447 0.13589 0.0
H311 H 0.31116 0.0817 0.14631 0.0
H312 H 0.39095 0.03684 0.11418 0.0
C313 C 0.44293 0.14171 0.16244 0.0
C314 C 0.3465 0.80293 0.85039 0.0
C315 C 0.39554 0.8204 0.83807 0.0
H316 H 0.27101 0.79386 0.81411 0.0
C317 C 0.40125 0.85595 0.78874 0.0
H318 H 0.34144 0.77563 0.88848 0.0
C319 C 0.36156 0.86601 0.74609 0.0
C320 C 0.31554 0.84102 0.75272 0.0
H321 H 0.43869 0.86984 0.77829 0.0
H322 H 0.36863 0.88949 0.70516 0.0
C323 C 0.3066 0.81275 0.80742 0.0
C324 C 0.94255 0.42051 0.87903 0.0
C325 C 0.90213 0.4538 0.85505 0.0
H326 H 1.01514 0.4136 0.92771 0.0
C327 C 0.90022 0.50477 0.86953 0.0
H328 H 0.94478 0.38109 0.86834 0.0
C329 C 0.94079 0.52358 0.90125 0.0
C330 C 0.983 0.49127 0.92146 0.0
H331 H 0.86869 0.53078 0.85298 0.0
H332 H 0.94006 0.56384 0.90816 0.0
C333 C 0.98271 0.43911 0.91259 0.0
C334 C 0.77478 0.93587 0.40317 0.0
C335 C 0.76251 0.94986 0.34181 0.0
H336 H 0.75721 0.88925 0.48207 0.0
C337 C 0.71316 0.94086 0.32033 0.0
H338 H 0.81197 0.94271 0.42222 0.0
C339 C 0.68285 0.90725 0.35394 0.0
C340 C 0.70105 0.88414 0.41002 0.0
H341 H 0.70177 0.95314 0.27415 0.0
H342 H 0.64903 0.8945 0.33253 0.0
C343 C 0.74366 0.90404 0.4374 0.0
C344 C 0.18442 0.32748 0.18024 0.0
C345 C 0.21144 0.29485 0.14159 0.0
H346 H 0.13725 0.3966 0.19014 0.0
C347 C 0.21002 0.31223 0.07927 0.0
H348 H 0.18484 0.3177 0.22851 0.0
C349 C 0.18427 0.3595 0.0575 0.0
C350 C 0.15647 0.3913 0.09609 0.0
H351 H 0.2283 0.28912 0.04651 0.0
H352 H 0.18533 0.37075 1.00963 0.0
C353 C 0.15696 0.37369 0.15804 0.0
C354 C 0.84031 0.31455 0.86509 0.0
C355 C 0.82806 0.36688 0.86627 0.0
H356 H 0.81553 0.23951 0.88534 0.0
C357 C 0.78905 0.38325 0.90462 0.0
H358 H 0.86982 0.30127 0.83506 0.0
C359 C 0.75714 0.34807 0.93296 0.0
C360 C 0.7642 0.29596 0.92361 0.0
H361 H 0.77874 0.42349 0.90565 0.0
H362 H 0.72427 0.36211 0.95756 0.0
C363 C 0.80854 0.27926 0.89334 0.0
C364 C 0.93641 0.92094 0.39244 0.0
C365 C 0.93694 0.94575 0.3342 0.0
H366 H 0.96941 0.91427 0.482 0.0
C367 C 0.97726 0.97688 0.31838 0.0
H368 H 0.90479 0.8978 0.40563 0.0
C369 C 1.0149 0.98558 0.36169 0.0
C370 C 1.01137 0.96433 0.4215 0.0
H371 H 0.97744 0.99713 0.27406 0.0
H372 H 1.04408 1.01211 0.34985 0.0
C373 C 0.97289 0.93076 0.43606 0.0
C374 C 0.52569 0.64985 0.79762 0.0
C375 C 0.53087 0.70263 0.79336 0.0
H376 H 0.53046 0.58122 0.75121 0.0
C377 C 0.55306 0.72558 0.74166 0.0
H378 H 0.50837 0.63168 0.83715 0.0
C379 C 0.56625 0.69698 0.69305 0.0
C380 C 0.55647 0.64508 0.69485 0.0
H381 H 0.55671 0.76634 0.7372 0.0
H382 H 0.58103 0.71627 0.6526 0.0
C383 C 0.53759 0.62135 0.74828 0.0
C384 C 1.00377 0.94985 0.80818 0.0
C385 C 0.98078 0.90222 0.81119 0.0
H386 H 1.04655 1.006 0.75759 0.0
C387 C 0.98976 0.87307 0.7606 0.0
H388 H 0.99834 0.9741 0.84518 0.0
C389 C 1.01892 0.89148 0.70946 0.0
C390 C 1.03956 0.94049 0.70554 0.0
H391 H 0.97244 0.83683 0.75927 0.0
H392 H 1.02356 0.86788 0.67173 0.0
C393 C 1.03161 0.96858 0.75698 0.0
C394 C 0.72405 0.22584 0.16936 0.0
C395 C 0.70798 0.23377 0.22814 0.0
H396 H 0.7209 0.17858 0.09504 0.0
C397 C 0.68093 0.19657 0.26051 0.0
H398 H 0.74461 0.25462 0.14386 0.0
C399 C 0.66774 0.15289 0.23325 0.0
C400 C 0.68058 0.14639 0.17271 0.0
H401 H 0.66793 0.20266 0.3058 0.0
H402 H 0.64464 0.12597 0.25831 0.0
C403 C 0.71034 0.18251 0.14167 0.0
C404 C 0.37853 0.61143 0.39278 0.0
C405 C 0.35211 0.6581 0.40144 0.0
H406 H 0.44394 0.561 0.41691 0.0
C407 C 0.36935 0.68783 0.44676 0.0
H408 H 0.36696 0.58858 0.35691 0.0
C409 C 0.41448 0.67297 0.47981 0.0
C410 C 0.44248 0.62771 0.46857 0.0
H411 H 0.34942 0.72391 0.45404 0.0
H412 H 0.42866 0.69793 0.51217 0.0
C413 C 0.42297 0.596 0.42665 0.0
C414 C 0.31971 0.24788 0.91865 0.0
C415 C 0.30012 0.22362 0.86973 0.0
H416 H 0.31921 0.31674 0.9648 0.0
C417 C 0.26115 0.24897 0.83262 0.0
H418 H 0.35027 0.22917 0.94717 0.0
C419 C 0.24416 0.2985 0.84173 0.0
C420 C 0.26559 0.32418 0.88834 0.0
H421 H 0.24654 0.23162 0.79352 0.0
H422 H 0.2162 0.3176 0.80992 0.0
C423 C 0.30261 0.29804 0.92788 0.0
C424 C 0.82005 0.94789 1.00155 0.0
C425 C 0.82329 0.92932 0.94288 0.0
H426 H 0.773 0.98329 0.06921 0.0
C427 C 0.77674 0.93302 0.90882 0.0
H428 H 0.85441 0.94628 1.02985 0.0
C429 C 0.72992 0.95449 0.93142 0.0
C430 C 0.72629 0.97348 0.98976 0.0
H431 H 0.77646 0.91908 0.86406 0.0
H432 H 0.69597 0.95632 0.90237 0.0
C433 C 0.7728 0.96933 1.02445 0.0
C434 C 0.84622 0.27326 0.28652 0.0
C435 C 0.79601 0.26366 0.30442 0.0
H436 H 0.92686 0.26034 0.30743 0.0
C437 C 0.78832 0.22875 0.35372 0.0
H438 H 0.85248 0.30089 0.24913 0.0
C439 C 0.83028 0.20631 0.38748 0.0
C440 C 0.88059 0.21839 0.3722 0.0
H441 H 0.74972 0.22184 0.36863 0.0
H442 H 0.82335 0.18125 0.42715 0.0
C443 C 0.88842 0.25041 0.31999 0.0
C444 C 0.18696 0.68154 0.20514 0.0
C445 C 0.23146 0.6571 0.23257 0.0
H446 H 0.12521 0.67673 0.14086 0.0
C447 C 0.25125 0.61117 0.2117 0.0
H448 H 0.17136 0.71705 0.22072 0.0
C449 C 0.22497 0.58809 0.16699 0.0
C450 C 0.17949 0.61147 0.14116 0.0
H451 H 0.28644 0.59263 0.23109 0.0
H452 H 0.23908 0.55106 0.15416 0.0
C453 C 0.16115 0.65892 0.15926 0.0
C454 C 0.42145 0.17697 0.68397 0.0
C455 C 0.36929 0.17478 0.69849 0.0
H456 H 0.4787 0.2227 0.64355 0.0
C457 C 0.33296 0.20651 0.66426 0.0
H458 H 0.44999 0.15238 0.70946 0.0
C459 C 0.34907 0.24628 0.62529 0.0
C460 C 0.40171 0.25543 0.62123 0.0
H461 H 0.29243 0.20544 0.67429 0.0
H462 H 0.32018 0.27341 0.60446 0.0
C463 C 0.43779 0.21763 0.64626 0.0
C464 C 0.94514 0.75518 0.91225 0.0
C465 C 0.97066 0.80138 0.9066 0.0
H466 H 0.94773 0.67489 0.93978 0.0
C467 C 1.02412 0.79706 0.92044 0.0
H468 H 0.90429 0.7559 0.9022 0.0
C469 C 1.04993 0.74914 0.94063 0.0
C470 C 1.02315 0.70375 0.95002 0.0
H471 H 1.04563 0.83104 0.91819 0.0
H472 H 0.09066 0.74816 0.95156 0.0
C473 C 0.97024 0.70817 0.93449 0.0
C474 C 0.36473 0.79545 0.34781 0.0
C475 C 0.36445 0.74942 0.32047 0.0
H476 H 0.40607 0.86146 0.36188 0.0
C477 C 0.40722 0.73257 0.28836 0.0
H478 H 0.33175 0.80846 0.37294 0.0
C479 C 0.44922 0.76275 0.28101 0.0
C480 C 0.44908 0.8102 0.3061 0.0
H481 H 0.407 0.69694 0.26706 0.0
H482 H 0.48048 0.75001 0.25303 0.0
C483 C 0.40699 0.82555 0.34112 0.0
C484 C 0.31156 0.068 0.69372 0.0
C485 C 0.2866 0.10345 0.72906 0.0
H486 H 0.30359 1.01566 0.62504 0.0
C487 C 0.23345 0.11479 0.7203 0.0
H488 H 0.35261 0.05941 0.69913 0.0
C489 C 0.20529 0.08927 0.67926 0.0
C490 C 0.23007 0.05322 0.64465 0.0
H491 H 0.21374 0.14397 0.74453 0.0
H492 H 0.1643 0.09839 0.67378 0.0
C493 C 0.28355 0.04319 0.65156 0.0
C494 C 0.67533 0.44679 0.3097 0.0
C495 C 0.65999 0.39663 0.31238 0.0
H496 H 0.66631 0.51986 0.3454 0.0
C497 C 0.61857 0.38316 0.34895 0.0
H498 H 0.70714 0.4578 0.28157 0.0
C499 C 0.59482 0.41849 0.38505 0.0
C500 C 0.61263 0.46775 0.3858 0.0
H501 H 0.60678 0.3444 0.35251 0.0
H502 H 0.56469 0.40614 0.41504 0.0
C503 C 0.65199 0.48208 0.34625 0.0
loop_
_geom_bond_atom_site_label_1
_geom_bond_atom_site_label_2
_geom_bond_distance
_geom_bond_site_symmetry_2
_ccdc_geom_bond_type
C0 N1 1.317 . S
C0 N2 1.348 . S
C0 C3 1.485 . S
N1 C0 1.317 . S
N1 N5 1.370 . S
N2 C0 1.348 . S
N2 C4 1.346 . S
C3 C0 1.485 . S
C3 H7 0.960 . S
C3 H8 0.961 . S
C3 H9 0.960 . S
C4 N2 1.346 . S
C4 N5 1.307 . S
C4 C6 1.486 . S
N5 N1 1.370 . S
N5 C4 1.307 . S
C6 C4 1.486 . S
C6 H10 0.960 . S
C6 H11 0.960 . S
C6 H12 0.959 . S
H7 C3 0.960 . S
H8 C3 0.961 . S
H9 C3 0.960 . S
H10 C6 0.960 . S
H11 C6 0.960 . S
H12 C6 0.959 . S
C13 N14 1.317 . S
C13 N15 1.348 . S
C13 C16 1.485 . S
N14 C13 1.317 . S
N14 N18 1.370 . S
N15 C13 1.348 . S
N15 C17 1.346 . S
C16 C13 1.485 . S
C16 H20 0.960 . S
C16 H21 0.961 . S
C16 H22 0.960 . S
C17 N15 1.346 . S
C17 N18 1.307 . S
C17 C19 1.486 . S
N18 N14 1.370 . S
N18 C17 1.307 . S
C19 C17 1.486 . S
C19 H23 0.960 . S
C19 H24 0.960 . S
C19 H25 0.959 . S
H20 C16 0.960 . S
H21 C16 0.961 . S
H22 C16 0.960 . S
H23 C19 0.960 . S
H24 C19 0.960 . S
H25 C19 0.959 . S
C26 N27 1.317 . S
C26 N28 1.348 . S
C26 C29 1.485 . S
N27 C26 1.317 . S
N27 N31 1.370 . S
N28 C26 1.348 . S
N28 C30 1.346 . S
C29 C26 1.485 . S
C29 H33 0.960 . S
C29 H34 0.961 . S
C29 H35 0.960 . S
C30 N28 1.346 . S
C30 N31 1.307 . S
C30 C32 1.486 . S
N31 N27 1.370 . S
N31 C30 1.307 . S
C32 C30 1.486 . S
C32 H36 0.960 . S
C32 H37 0.960 . S
C32 H38 0.959 . S
H33 C29 0.960 . S
H34 C29 0.961 . S
H35 C29 0.960 . S
H36 C32 0.960 . S
H37 C32 0.960 . S
H38 C32 0.959 . S
C39 N40 1.317 . S
C39 N41 1.348 . S
C39 C42 1.485 . S
N40 C39 1.317 . S
N40 N44 1.370 . S
N41 C39 1.348 . S
N41 C43 1.346 . S
C42 C39 1.485 . S
C42 H46 0.960 . S
C42 H47 0.961 . S
C42 H48 0.960 . S
C43 N41 1.346 . S
C43 N44 1.307 . S
C43 C45 1.486 . S
N44 N40 1.370 . S
N44 C43 1.307 . S
C45 C43 1.486 . S
C45 H49 0.960 . S
C45 H50 0.960 . S
C45 H51 0.959 . S
H46 C42 0.960 . S
H47 C42 0.961 . S
H48 C42 0.960 . S
H49 C45 0.960 . S
H50 C45 0.960 . S
H51 C45 0.959 . S
C52 N53 1.317 . S
C52 N54 1.348 . S
C52 C55 1.485 . S
N53 C52 1.317 . S
N53 N57 1.370 . S
N54 C52 1.348 . S
N54 C56 1.346 . S
C55 C52 1.485 . S
C55 H59 0.960 . S
C55 H60 0.961 . S
C55 H61 0.960 . S
C56 N54 1.346 . S
C56 N57 1.307 . S
C56 C58 1.486 . S
N57 N53 1.370 . S
N57 C56 1.307 . S
C58 C56 1.486 . S
C58 H62 0.960 . S
C58 H63 0.960 . S
C58 H64 0.959 . S
H59 C55 0.960 . S
H60 C55 0.961 . S
H61 C55 0.960 . S
H62 C58 0.960 . S
H63 C58 0.960 . S
H64 C58 0.959 . S
C65 N66 1.317 . S
C65 N67 1.348 . S
C65 C68 1.485 . S
N66 C65 1.317 . S
N66 N70 1.370 . S
N67 C65 1.348 . S
N67 C69 1.346 . S
C68 C65 1.485 . S
C68 H72 0.960 . S
C68 H73 0.961 . S
C68 H74 0.960 . S
C69 N67 1.346 . S
C69 N70 1.307 . S
C69 C71 1.486 . S
N70 N66 1.370 . S
N70 C69 1.307 . S
C71 C69 1.486 . S
C71 H75 0.960 . S
C71 H76 0.960 . S
C71 H77 0.959 . S
H72 C68 0.960 . S
H73 C68 0.961 . S
H74 C68 0.960 . S
H75 C71 0.960 . S
H76 C71 0.960 . S
H77 C71 0.959 . S
C78 N79 1.317 . S
C78 N80 1.348 . S
C78 C81 1.485 . S
N79 C78 1.317 . S
N79 N83 1.370 . S
N80 C78 1.348 . S
N80 C82 1.346 . S
C81 C78 1.485 . S
C81 H85 0.960 . S
C81 H86 0.961 . S
C81 H87 0.960 . S
C82 N80 1.346 . S
C82 N83 1.307 . S
C82 C84 1.486 . S
N83 N79 1.370 . S
N83 C82 1.307 . S
C84 C82 1.486 . S
C84 H88 0.960 . S
C84 H89 0.960 . S
C84 H90 0.959 . S
H85 C81 0.960 . S
H86 C81 0.961 . S
H87 C81 0.960 . S
H88 C84 0.960 . S
H89 C84 0.960 . S
H90 C84 0.959 . S
C91 N92 1.317 . S
C91 N93 1.348 . S
C91 C94 1.485 . S
N92 C91 1.317 . S
N92 N96 1.370 . S
N93 C91 1.348 . S
N93 C95 1.346 . S
C94 C91 1.485 . S
C94 H98 0.960 . S
C94 H99 0.961 . S
C94 H100 0.960 . S
C95 N93 1.346 . S
C95 N96 1.307 . S
C95 C97 1.486 . S
N96 N92 1.370 . S
N96 C95 1.307 . S
C97 C95 1.486 . S
C97 H101 0.960 . S
C97 H102 0.960 . S
C97 H103 0.959 . S
H98 C94 0.960 . S
H99 C94 0.961 . S
H100 C94 0.960 . S
H101 C97 0.960 . S
H102 C97 0.960 . S
H103 C97 0.959 . S
Nd104 C106 2.836 . S
Nd104 O124 2.500 . S
Nd104 O125 2.492 . S
Nd104 O126 2.487 1_565 S
Nd104 O127 2.682 1_565 S
Nd104 O128 2.410 . S
Nd104 O133 2.414 . S
Nd104 O135 2.424 1_565 S
Nd105 C115 2.836 . S
Nd105 O127 2.414 1_655 S
Nd105 O129 2.424 1_545 S
Nd105 O130 2.500 . S
Nd105 O131 2.492 . S
Nd105 O132 2.487 1_545 S
Nd105 O133 2.682 1_645 S
Nd105 O134 2.410 1_655 S
C106 Nd104 2.836 . S
C106 C107 1.498 . S
C106 O124 1.258 . S
C106 O125 1.239 . S
C107 C106 1.498 . S
C107 C108 1.366 . S
C107 C112 1.407 . S
C108 C107 1.366 . S
C108 C109 1.392 . S
C108 H136 0.930 . S
C109 C108 1.392 . S
C109 C110 1.398 . S
C109 H137 0.929 . S
C110 C109 1.398 . S
C110 C111 1.352 . S
C111 C110 1.352 . S
C111 C112 1.384 . S
C111 H138 0.930 . S
C112 C107 1.407 . S
C112 C111 1.384 . S
C112 H139 0.929 . S
C113 O126 1.241 . S
C113 O127 1.273 . S
C114 O128 1.251 . S
C114 O129 1.268 1_455 S
C115 Nd105 2.836 . S
C115 C116 1.498 . S
C115 O130 1.258 . S
C115 O131 1.239 . S
C116 C115 1.498 . S
C116 C117 1.366 . S
C116 C121 1.407 . S
C117 C116 1.366 . S
C117 C118 1.392 . S
C117 H140 0.930 . S
C118 C117 1.392 . S
C118 C119 1.398 . S
C118 H141 0.929 . S
C119 C118 1.398 . S
C119 C120 1.352 . S
C120 C119 1.352 . S
C120 C121 1.384 . S
C120 H142 0.930 . S
C121 C116 1.407 . S
C121 C120 1.384 . S
C121 H143 0.929 . S
C122 O132 1.241 . S
C122 O133 1.273 1_655 S
C123 O134 1.251 . S
C123 O135 1.268 . S
O124 Nd104 2.500 . S
O124 C106 1.258 . S
O125 Nd104 2.492 . S
O125 C106 1.239 . S
O126 Nd104 2.487 1_545 S
O126 C113 1.241 . S
O127 Nd104 2.682 1_545 S
O127 Nd105 2.414 1_455 S
O127 C113 1.273 . S
O128 Nd104 2.410 . S
O128 C114 1.251 . S
O129 Nd105 2.424 1_565 S
O129 C114 1.268 1_655 S
O130 Nd105 2.500 . S
O130 C115 1.258 . S
O131 Nd105 2.492 . S
O131 C115 1.239 . S
O132 Nd105 2.487 1_565 S
O132 C122 1.241 . S
O133 Nd104 2.414 . S
O133 Nd105 2.682 1_465 S
O133 C122 1.273 1_455 S
O134 Nd105 2.410 1_455 S
O134 C123 1.251 . S
O135 Nd104 2.424 1_545 S
O135 C123 1.268 . S
H136 C108 0.930 . S
H137 C109 0.929 . S
H138 C111 0.930 . S
H139 C112 0.929 . S
H140 C117 0.930 . S
H141 C118 0.929 . S
H142 C120 0.930 . S
H143 C121 0.929 . S
Nd144 C146 2.836 . S
Nd144 O164 2.500 . S
Nd144 O165 2.492 . S
Nd144 O166 2.487 1_565 S
Nd144 O167 2.682 1_565 S
Nd144 O168 2.410 . S
Nd144 O173 2.414 . S
Nd144 O175 2.424 1_565 S
Nd145 C155 2.836 . S
Nd145 O167 2.414 1_556 S
Nd145 O169 2.424 1_545 S
Nd145 O170 2.500 . S
Nd145 O171 2.492 . S
Nd145 O172 2.487 . S
Nd145 O173 2.682 1_546 S
Nd145 O174 2.410 1_556 S
C146 Nd144 2.836 . S
C146 C147 1.498 . S
C146 O164 1.258 . S
C146 O165 1.239 . S
C147 C146 1.498 . S
C147 C148 1.366 . S
C147 C152 1.407 . S
C148 C147 1.366 . S
C148 C149 1.392 . S
C148 H176 0.930 . S
C149 C148 1.392 . S
C149 C150 1.398 . S
C149 H177 0.929 . S
C150 C149 1.398 . S
C150 C151 1.352 . S
C151 C150 1.352 . S
C151 C152 1.384 . S
C151 H178 0.930 . S
C152 C147 1.407 . S
C152 C151 1.384 . S
C152 H179 0.929 . S
C153 O166 1.241 . S
C153 O167 1.273 . S
C154 O168 1.251 1_556 S
C154 O169 1.268 . S
C155 Nd145 2.836 . S
C155 C156 1.498 . S
C155 O170 1.258 . S
C155 O171 1.239 . S
C156 C155 1.498 . S
C156 C157 1.366 . S
C156 C161 1.407 . S
C157 C156 1.366 . S
C157 C158 1.392 . S
C157 H180 0.930 . S
C158 C157 1.392 . S
C158 C159 1.398 . S
C158 H181 0.929 . S
C159 C158 1.398 . S
C159 C160 1.352 . S
C160 C159 1.352 . S
C160 C161 1.384 . S
C160 H182 0.930 . S
C161 C156 1.407 . S
C161 C160 1.384 . S
C161 H183 0.929 . S
C162 O172 1.241 1_564 S
C162 O173 1.273 . S
C163 O174 1.251 . S
C163 O175 1.268 . S
O164 Nd144 2.500 . S
O164 C146 1.258 . S
O165 Nd144 2.492 . S
O165 C146 1.239 . S
O166 Nd144 2.487 1_545 S
O166 C153 1.241 . S
O167 Nd144 2.682 1_545 S
O167 Nd145 2.414 1_554 S
O167 C153 1.273 . S
O168 Nd144 2.410 . S
O168 C154 1.251 1_554 S
O169 Nd145 2.424 1_565 S
O169 C154 1.268 . S
O170 Nd145 2.500 . S
O170 C155 1.258 . S
O171 Nd145 2.492 . S
O171 C155 1.239 . S
O172 Nd145 2.487 . S
O172 C162 1.241 1_546 S
O173 Nd144 2.414 . S
O173 Nd145 2.682 1_564 S
O173 C162 1.273 . S
O174 Nd145 2.410 1_554 S
O174 C163 1.251 . S
O175 Nd144 2.424 1_545 S
O175 C163 1.268 . S
H176 C148 0.930 . S
H177 C149 0.929 . S
H178 C151 0.930 . S
H179 C152 0.929 . S
H180 C157 0.930 . S
H181 C158 0.929 . S
H182 C160 0.930 . S
H183 C161 0.929 . S
Nd184 C186 2.836 . S
Nd184 O204 2.500 . S
Nd184 O205 2.492 . S
Nd184 O206 2.487 . S
Nd184 O207 2.682 . S
Nd184 O208 2.410 . S
Nd184 O213 2.414 . S
Nd184 O215 2.424 . S
Nd185 C195 2.836 . S
Nd185 O207 2.414 . S
Nd185 O209 2.424 . S
Nd185 O210 2.500 . S
Nd185 O211 2.492 . S
Nd185 O212 2.487 . S
Nd185 O213 2.682 . S
Nd185 O214 2.410 . S
C186 Nd184 2.836 . S
C186 C187 1.498 . S
C186 O204 1.258 . S
C186 O205 1.239 . S
C187 C186 1.498 . S
C187 C188 1.366 . S
C187 C192 1.407 . S
C188 C187 1.366 . S
C188 C189 1.392 . S
C188 H216 0.930 . S
C189 C188 1.392 . S
C189 C190 1.398 . S
C189 H217 0.929 . S
C190 C189 1.398 . S
C190 C191 1.352 . S
C191 C190 1.352 . S
C191 C192 1.384 . S
C191 H218 0.930 . S
C192 C187 1.407 . S
C192 C191 1.384 . S
C192 H219 0.929 . S
C193 O206 1.241 . S
C193 O207 1.273 . S
C194 O208 1.251 . S
C194 O209 1.268 . S
C195 Nd185 2.836 . S
C195 C196 1.498 . S
C195 O210 1.258 . S
C195 O211 1.239 . S
C196 C195 1.498 . S
C196 C197 1.366 . S
C196 C201 1.407 . S
C197 C196 1.366 . S
C197 C198 1.392 . S
C197 H220 0.930 . S
C198 C197 1.392 . S
C198 C199 1.398 . S
C198 H221 0.929 . S
C199 C198 1.398 . S
C199 C200 1.352 . S
C200 C199 1.352 . S
C200 C201 1.384 . S
C200 H222 0.930 . S
C201 C196 1.407 . S
C201 C200 1.384 . S
C201 H223 0.929 . S
C202 O212 1.241 . S
C202 O213 1.273 . S
C203 O214 1.251 . S
C203 O215 1.268 . S
O204 Nd184 2.500 . S
O204 C186 1.258 . S
O205 Nd184 2.492 . S
O205 C186 1.239 . S
O206 Nd184 2.487 . S
O206 C193 1.241 . S
O207 Nd184 2.682 . S
O207 Nd185 2.414 . S
O207 C193 1.273 . S
O208 Nd184 2.410 . S
O208 C194 1.251 . S
O209 Nd185 2.424 . S
O209 C194 1.268 . S
O210 Nd185 2.500 . S
O210 C195 1.258 . S
O211 Nd185 2.492 . S
O211 C195 1.239 . S
O212 Nd185 2.487 . S
O212 C202 1.241 . S
O213 Nd184 2.414 . S
O213 Nd185 2.682 . S
O213 C202 1.273 . S
O214 Nd185 2.410 . S
O214 C203 1.251 . S
O215 Nd184 2.424 . S
O215 C203 1.268 . S
H216 C188 0.930 . S
H217 C189 0.929 . S
H218 C191 0.930 . S
H219 C192 0.929 . S
H220 C197 0.930 . S
H221 C198 0.929 . S
H222 C200 0.930 . S
H223 C201 0.929 . S
Nd224 C226 2.836 . S
Nd224 O244 2.500 . S
Nd224 O245 2.492 . S
Nd224 O246 2.487 1_655 S
Nd224 O247 2.682 1_655 S
Nd224 O248 2.410 . S
Nd224 O253 2.414 1_554 S
Nd224 O255 2.424 1_655 S
Nd225 C235 2.836 . S
Nd225 O247 2.414 1_556 S
Nd225 O249 2.424 1_455 S
Nd225 O250 2.500 . S
Nd225 O251 2.492 . S
Nd225 O252 2.487 1_455 S
Nd225 O253 2.682 1_455 S
Nd225 O254 2.410 . S
C226 Nd224 2.836 . S
C226 C227 1.498 . S
C226 O244 1.258 . S
C226 O245 1.239 . S
C227 C226 1.498 . S
C227 C228 1.366 . S
C227 C232 1.407 . S
C228 C227 1.366 . S
C228 C229 1.392 . S
C228 H256 0.930 . S
C229 C228 1.392 . S
C229 C230 1.398 . S
C229 H257 0.929 . S
C230 C229 1.398 . S
C230 C231 1.352 . S
C231 C230 1.352 . S
C231 C232 1.384 . S
C231 H258 0.930 . S
C232 C227 1.407 . S
C232 C231 1.384 . S
C232 H259 0.929 . S
C233 O246 1.241 . S
C233 O247 1.273 . S
C234 O248 1.251 1_556 S
C234 O249 1.268 . S
C235 Nd225 2.836 . S
C235 C236 1.498 . S
C235 O250 1.258 . S
C235 O251 1.239 . S
C236 C235 1.498 . S
C236 C237 1.366 . S
C236 C241 1.407 . S
C237 C236 1.366 . S
C237 C238 1.392 . S
C237 H260 0.930 . S
C238 C237 1.392 . S
C238 C239 1.398 . S
C238 H261 0.929 . S
C239 C238 1.398 . S
C239 C240 1.352 . S
C240 C239 1.352 . S
C240 C241 1.384 . S
C240 H262 0.930 . S
C241 C236 1.407 . S
C241 C240 1.384 . S
C241 H263 0.929 . S
C242 O252 1.241 . S
C242 O253 1.273 . S
C243 O254 1.251 1_554 S
C243 O255 1.268 . S
O244 Nd224 2.500 . S
O244 C226 1.258 . S
O245 Nd224 2.492 . S
O245 C226 1.239 . S
O246 Nd224 2.487 1_455 S
O246 C233 1.241 . S
O247 Nd224 2.682 1_455 S
O247 Nd225 2.414 1_554 S
O247 C233 1.273 . S
O248 Nd224 2.410 . S
O248 C234 1.251 1_554 S
O249 Nd225 2.424 1_655 S
O249 C234 1.268 . S
O250 Nd225 2.500 . S
O250 C235 1.258 . S
O251 Nd225 2.492 . S
O251 C235 1.239 . S
O252 Nd225 2.487 1_655 S
O252 C242 1.241 . S
O253 Nd224 2.414 1_556 S
O253 Nd225 2.682 1_655 S
O253 C242 1.273 . S
O254 Nd225 2.410 . S
O254 C243 1.251 1_556 S
O255 Nd224 2.424 1_455 S
O255 C243 1.268 . S
H256 C228 0.930 . S
H257 C229 0.929 . S
H258 C231 0.930 . S
H259 C232 0.929 . S
H260 C237 0.930 . S
H261 C238 0.929 . S
H262 C240 0.930 . S
H263 C241 0.929 . S
C264 C265 1.387 . S
C264 H268 0.950 . S
C264 C273 1.390 . S
C265 C264 1.387 . S
C265 C267 1.387 . S
H266 C273 0.950 . S
C267 C265 1.387 . S
C267 C269 1.390 . S
C267 H271 0.950 . S
H268 C264 0.950 . S
C269 C267 1.390 . S
C269 C270 1.387 . S
C269 H272 0.950 . S
C270 C269 1.387 . S
C270 C273 1.387 . S
H271 C267 0.950 . S
H272 C269 0.950 . S
C273 C264 1.390 . S
C273 H266 0.950 . S
C273 C270 1.387 . S
C274 C275 1.387 . S
C274 H278 0.950 . S
C274 C283 1.390 . S
C275 C274 1.387 . S
C275 C277 1.387 . S
H276 C283 0.950 . S
C277 C275 1.387 . S
C277 C279 1.390 . S
C277 H281 0.950 . S
H278 C274 0.950 . S
C279 C277 1.390 . S
C279 C280 1.387 . S
C279 H282 0.950 . S
C280 C279 1.387 . S
C280 C283 1.387 . S
H281 C277 0.950 . S
H282 C279 0.950 . S
C283 C274 1.390 . S
C283 H276 0.950 . S
C283 C280 1.387 . S
C284 C285 1.387 . S
C284 H288 0.950 . S
C284 C293 1.390 . S
C285 C284 1.387 . S
C285 C287 1.387 . S
H286 C293 0.950 . S
C287 C285 1.387 . S
C287 C289 1.390 . S
C287 H291 0.950 . S
H288 C284 0.950 . S
C289 C287 1.390 . S
C289 C290 1.387 . S
C289 H292 0.950 . S
C290 C289 1.387 . S
C290 C293 1.387 . S
H291 C287 0.950 . S
H292 C289 0.950 . S
C293 C284 1.390 . S
C293 H286 0.950 . S
C293 C290 1.387 . S
C294 C295 1.387 . S
C294 H298 0.950 . S
C294 C303 1.390 . S
C295 C294 1.387 . S
C295 C297 1.387 . S
H296 C303 0.950 . S
C297 C295 1.387 . S
C297 C299 1.390 . S
C297 H301 0.950 . S
H298 C294 0.950 . S
C299 C297 1.390 . S
C299 C300 1.387 . S
C299 H302 0.950 . S
C300 C299 1.387 . S
C300 C303 1.387 . S
H301 C297 0.950 . S
H302 C299 0.950 . S
C303 C294 1.390 . S
C303 H296 0.950 . S
C303 C300 1.387 . S
C304 C305 1.387 . S
C304 H308 0.950 . S
C304 C313 1.390 . S
C305 C304 1.387 . S
C305 C307 1.387 . S
H306 C313 0.950 . S
C307 C305 1.387 . S
C307 C309 1.390 . S
C307 H311 0.950 . S
H308 C304 0.950 . S
C309 C307 1.390 . S
C309 C310 1.387 . S
C309 H312 0.950 . S
C310 C309 1.387 . S
C310 C313 1.387 . S
H311 C307 0.950 . S
H312 C309 0.950 . S
C313 C304 1.390 . S
C313 H306 0.950 . S
C313 C310 1.387 . S
C314 C315 1.387 . S
C314 H318 0.950 . S
C314 C323 1.390 . S
C315 C314 1.387 . S
C315 C317 1.387 . S
H316 C323 0.950 . S
C317 C315 1.387 . S
C317 C319 1.390 . S
C317 H321 0.950 . S
H318 C314 0.950 . S
C319 C317 1.390 . S
C319 C320 1.387 . S
C319 H322 0.950 . S
C320 C319 1.387 . S
C320 C323 1.387 . S
H321 C317 0.950 . S
H322 C319 0.950 . S
C323 C314 1.390 . S
C323 H316 0.950 . S
C323 C320 1.387 . S
C324 C325 1.387 . S
C324 H328 0.950 . S
C324 C333 1.390 . S
C325 C324 1.387 . S
C325 C327 1.387 . S
H326 C333 0.950 . S
C327 C325 1.387 . S
C327 C329 1.390 . S
C327 H331 0.950 . S
H328 C324 0.950 . S
C329 C327 1.390 . S
C329 C330 1.387 . S
C329 H332 0.950 . S
C330 C329 1.387 . S
C330 C333 1.387 . S
H331 C327 0.950 . S
H332 C329 0.950 . S
C333 C324 1.390 . S
C333 H326 0.950 . S
C333 C330 1.387 . S
C334 C335 1.387 . S
C334 H338 0.950 . S
C334 C343 1.390 . S
C335 C334 1.387 . S
C335 C337 1.387 . S
H336 C343 0.950 . S
C337 C335 1.387 . S
C337 C339 1.390 . S
C337 H341 0.950 . S
H338 C334 0.950 . S
C339 C337 1.390 . S
C339 C340 1.387 . S
C339 H342 0.950 . S
C340 C339 1.387 . S
C340 C343 1.387 . S
H341 C337 0.950 . S
H342 C339 0.950 . S
C343 C334 1.390 . S
C343 H336 0.950 . S
C343 C340 1.387 . S
C344 C345 1.387 . S
C344 H348 0.950 . S
C344 C353 1.390 . S
C345 C344 1.387 . S
C345 C347 1.387 . S
H346 C353 0.950 . S
C347 C345 1.387 . S
C347 C349 1.390 . S
C347 H351 0.950 1_554 S
H348 C344 0.950 . S
C349 C347 1.390 . S
C349 C350 1.387 . S
C349 H352 0.950 1_554 S
C350 C349 1.387 . S
C350 C353 1.387 . S
H351 C347 0.950 1_556 S
H352 C349 0.950 1_556 S
C353 C344 1.390 . S
C353 H346 0.950 . S
C353 C350 1.387 . S
C354 C355 1.387 . S
C354 H358 0.950 . S
C354 C363 1.390 . S
C355 C354 1.387 . S
C355 C357 1.387 . S
H356 C363 0.950 . S
C357 C355 1.387 . S
C357 C359 1.390 . S
C357 H361 0.950 . S
H358 C354 0.950 . S
C359 C357 1.390 . S
C359 C360 1.387 . S
C359 H362 0.950 . S
C360 C359 1.387 . S
C360 C363 1.387 . S
H361 C357 0.950 . S
H362 C359 0.950 . S
C363 C354 1.390 . S
C363 H356 0.950 . S
C363 C360 1.387 . S
C364 C365 1.387 . S
C364 H368 0.950 . S
C364 C373 1.390 . S
C365 C364 1.387 . S
C365 C367 1.387 . S
H366 C373 0.950 . S
C367 C365 1.387 . S
C367 C369 1.390 . S
C367 H371 0.950 . S
H368 C364 0.950 . S
C369 C367 1.390 . S
C369 C370 1.387 . S
C369 H372 0.950 . S
C370 C369 1.387 . S
C370 C373 1.387 . S
H371 C367 0.950 . S
H372 C369 0.950 . S
C373 C364 1.390 . S
C373 H366 0.950 . S
C373 C370 1.387 . S
C374 C375 1.387 . S
C374 H378 0.950 . S
C374 C383 1.390 . S
C375 C374 1.387 . S
C375 C377 1.387 . S
H376 C383 0.950 . S
C377 C375 1.387 . S
C377 C379 1.390 . S
C377 H381 0.950 . S
H378 C374 0.950 . S
C379 C377 1.390 . S
C379 C380 1.387 . S
C379 H382 0.950 . S
C380 C379 1.387 . S
C380 C383 1.387 . S
H381 C377 0.950 . S
H382 C379 0.950 . S
C383 C374 1.390 . S
C383 H376 0.950 . S
C383 C380 1.387 . S
C384 C385 1.387 . S
C384 H388 0.950 . S
C384 C393 1.390 . S
C385 C384 1.387 . S
C385 C387 1.387 . S
H386 C393 0.950 1_455 S
C387 C385 1.387 . S
C387 C389 1.390 . S
C387 H391 0.950 . S
H388 C384 0.950 . S
C389 C387 1.390 . S
C389 C390 1.387 . S
C389 H392 0.950 . S
C390 C389 1.387 . S
C390 C393 1.387 . S
H391 C387 0.950 . S
H392 C389 0.950 . S
C393 C384 1.390 . S
C393 H386 0.950 1_655 S
C393 C390 1.387 . S
C394 C395 1.387 . S
C394 H398 0.950 . S
C394 C403 1.390 . S
C395 C394 1.387 . S
C395 C397 1.387 . S
H396 C403 0.950 . S
C397 C395 1.387 . S
C397 C399 1.390 . S
C397 H401 0.950 . S
H398 C394 0.950 . S
C399 C397 1.390 . S
C399 C400 1.387 . S
C399 H402 0.950 . S
C400 C399 1.387 . S
C400 C403 1.387 . S
H401 C397 0.950 . S
H402 C399 0.950 . S
C403 C394 1.390 . S
C403 H396 0.950 . S
C403 C400 1.387 . S
C404 C405 1.387 . S
C404 H408 0.950 . S
C404 C413 1.390 . S
C405 C404 1.387 . S
C405 C407 1.387 . S
H406 C413 0.950 . S
C407 C405 1.387 . S
C407 C409 1.390 . S
C407 H411 0.950 . S
H408 C404 0.950 . S
C409 C407 1.390 . S
C409 C410 1.387 . S
C409 H412 0.950 . S
C410 C409 1.387 . S
C410 C413 1.387 . S
H411 C407 0.950 . S
H412 C409 0.950 . S
C413 C404 1.390 . S
C413 H406 0.950 . S
C413 C410 1.387 . S
C414 C415 1.387 . S
C414 H418 0.950 . S
C414 C423 1.390 . S
C415 C414 1.387 . S
C415 C417 1.387 . S
H416 C423 0.950 . S
C417 C415 1.387 . S
C417 C419 1.390 . S
C417 H421 0.950 . S
H418 C414 0.950 . S
C419 C417 1.390 . S
C419 C420 1.387 . S
C419 H422 0.950 . S
C420 C419 1.387 . S
C420 C423 1.387 . S
H421 C417 0.950 . S
H422 C419 0.950 . S
C423 C414 1.390 . S
C423 H416 0.950 . S
C423 C420 1.387 . S
C424 C425 1.387 . S
C424 H428 0.950 . S
C424 C433 1.390 . S
C425 C424 1.387 . S
C425 C427 1.387 . S
H426 C433 0.950 . S
C427 C425 1.387 . S
C427 C429 1.390 1_556 S
C427 H431 0.950 1_556 S
H428 C424 0.950 . S
C429 C427 1.390 1_554 S
C429 C430 1.387 1_554 S
C429 H432 0.950 . S
C430 C429 1.387 1_556 S
C430 C433 1.387 . S
H431 C427 0.950 1_554 S
H432 C429 0.950 . S
C433 C424 1.390 . S
C433 H426 0.950 . S
C433 C430 1.387 . S
C434 C435 1.387 . S
C434 H438 0.950 . S
C434 C443 1.390 . S
C435 C434 1.387 . S
C435 C437 1.387 . S
H436 C443 0.950 . S
C437 C435 1.387 . S
C437 C439 1.390 . S
C437 H441 0.950 . S
H438 C434 0.950 . S
C439 C437 1.390 . S
C439 C440 1.387 . S
C439 H442 0.950 . S
C440 C439 1.387 . S
C440 C443 1.387 . S
H441 C437 0.950 . S
H442 C439 0.950 . S
C443 C434 1.390 . S
C443 H436 0.950 . S
C443 C440 1.387 . S
C444 C445 1.387 . S
C444 H448 0.950 . S
C444 C453 1.390 . S
C445 C444 1.387 . S
C445 C447 1.387 . S
H446 C453 0.950 . S
C447 C445 1.387 . S
C447 C449 1.390 . S
C447 H451 0.950 . S
H448 C444 0.950 . S
C449 C447 1.390 . S
C449 C450 1.387 . S
C449 H452 0.950 . S
C450 C449 1.387 . S
C450 C453 1.387 . S
H451 C447 0.950 . S
H452 C449 0.950 . S
C453 C444 1.390 . S
C453 H446 0.950 . S
C453 C450 1.387 . S
C454 C455 1.387 . S
C454 H458 0.950 . S
C454 C463 1.390 . S
C455 C454 1.387 . S
C455 C457 1.387 . S
H456 C463 0.950 . S
C457 C455 1.387 . S
C457 C459 1.390 . S
C457 H461 0.950 . S
H458 C454 0.950 . S
C459 C457 1.390 . S
C459 C460 1.387 . S
C459 H462 0.950 . S
C460 C459 1.387 . S
C460 C463 1.387 . S
H461 C457 0.950 . S
H462 C459 0.950 . S
C463 C454 1.390 . S
C463 H456 0.950 . S
C463 C460 1.387 . S
C464 C465 1.387 . S
C464 H468 0.950 . S
C464 C473 1.390 . S
C465 C464 1.387 . S
C465 C467 1.387 . S
H466 C473 0.950 . S
C467 C465 1.387 . S
C467 C469 1.390 . S
C467 H471 0.950 . S
H468 C464 0.950 . S
C469 C467 1.390 . S
C469 C470 1.387 . S
C469 H472 0.950 1_655 S
C470 C469 1.387 . S
C470 C473 1.387 . S
H471 C467 0.950 . S
H472 C469 0.950 1_455 S
C473 C464 1.390 . S
C473 H466 0.950 . S
C473 C470 1.387 . S
C474 C475 1.387 . S
C474 H478 0.950 . S
C474 C483 1.390 . S
C475 C474 1.387 . S
C475 C477 1.387 . S
H476 C483 0.950 . S
C477 C475 1.387 . S
C477 C479 1.390 . S
C477 H481 0.950 . S
H478 C474 0.950 . S
C479 C477 1.390 . S
C479 C480 1.387 . S
C479 H482 0.950 . S
C480 C479 1.387 . S
C480 C483 1.387 . S
H481 C477 0.950 . S
H482 C479 0.950 . S
C483 C474 1.390 . S
C483 H476 0.950 . S
C483 C480 1.387 . S
C484 C485 1.387 . S
C484 H488 0.950 . S
C484 C493 1.390 . S
C485 C484 1.387 . S
C485 C487 1.387 . S
H486 C493 0.950 . S
C487 C485 1.387 . S
C487 C489 1.390 . S
C487 H491 0.950 . S
H488 C484 0.950 . S
C489 C487 1.390 . S
C489 C490 1.387 . S
C489 H492 0.950 . S
C490 C489 1.387 . S
C490 C493 1.387 . S
H491 C487 0.950 . S
H492 C489 0.950 . S
C493 C484 1.390 . S
C493 H486 0.950 . S
C493 C490 1.387 . S
C494 C495 1.387 . S
C494 H498 0.950 . S
C494 C503 1.390 . S
C495 C494 1.387 . S
C495 C497 1.387 . S
H496 C503 0.950 . S
C497 C495 1.387 . S
C497 C499 1.390 . S
C497 H501 0.950 . S
H498 C494 0.950 . S
C499 C497 1.390 . S
C499 C500 1.387 . S
C499 H502 0.950 . S
C500 C499 1.387 . S
C500 C503 1.387 . S
H501 C497 0.950 . S
H502 C499 0.950 . S
C503 C494 1.390 . S
C503 H496 0.950 . S
C503 C500 1.387 . S
C265 N1 2.742 . S
C270 C123 2.794 . S
C275 N18 2.301 . S
C280 C154 2.371 . S
C290 C193 1.055 . S
C285 N28 1.069 . S
C295 N40 0.847 . S
C300 C230 0.884 . S
C310 C153 3.043 . S
C305 N5 3.112 . S
C320 C110 1.285 . S
C315 N14 1.291 . S
C330 C242 1.511 . S
C325 N31 1.598 . S
C340 C199 0.998 . S
C335 N41 0.986 . S
C345 N2 2.265 . S
C350 C243 2.284 . S
C360 C159 1.425 . S
C355 N27 1.395 . S
C365 N44 0.634 . S
C370 C122 0.695 . S
C375 N15 2.017 . S
C380 C194 2.041 . S
C390 C114 3.158 1_655 S
C385 N57 3.186 . S
C395 N70 1.929 . S
C400 C163 2.012 . S
C405 N79 1.318 . S
C410 C202 1.284 . S
C415 N93 0.625 . S
C420 C239 0.616 . S
C425 N54 2.861 . S
C430 C162 2.711 1_556 S
C440 C119 1.590 . S
C435 N66 1.673 . S
C450 C233 1.060 . S
C445 N80 1.078 . S
C460 C190 1.268 . S
C455 N96 1.179 . S
C465 N53 2.297 . S
C470 C234 2.323 . S
C480 C150 1.510 . S
C475 N83 1.581 . S
C490 C113 0.531 . S
C485 N92 0.497 . S
C495 N67 2.062 . S
C500 C203 2.097 . S
