# Generated by pormake.
# Topology ctn, (3,4)-cn, num edge types: 1
# Building blocks:
#     Node 0, Type 0, BuildingBlock: BETDAH_clean_linker_0, # of connection points: 3
#     Node 1, Type 0, BuildingBlock: BETDAH_clean_linker_0, # of connection points: 3
#     Node 2, Type 0, BuildingBlock: BETDAH_clean_linker_0, # of connection points: 3
#     Node 3, Type 0, BuildingBlock: BETDAH_clean_linker_0, # of connection points: 3
#     Node 4, Type 0, BuildingBlock: BETDAH_clean_linker_0, # of connection points: 3
#     Node 5, Type 0, BuildingBlock: BETDAH_clean_linker_0, # of connection points: 3
#     Node 6, Type 0, BuildingBlock: BETDAH_clean_linker_0, # of connection points: 3
#     Node 7, Type 0, BuildingBlock: BETDAH_clean_linker_0, # of connection points: 3
#     Node 8, Type 0, BuildingBlock: BETDAH_clean_linker_0, # of connection points: 3
#     Node 9, Type 0, BuildingBlock: BETDAH_clean_linker_0, # of connection points: 3
#     Node 10, Type 0, BuildingBlock: BETDAH_clean_linker_0, # of connection points: 3
#     Node 11, Type 0, BuildingBlock: BETDAH_clean_linker_0, # of connection points: 3
#     Node 12, Type 0, BuildingBlock: BETDAH_clean_linker_0, # of connection points: 3
#     Node 13, Type 0, BuildingBlock: BETDAH_clean_linker_0, # of connection points: 3
#     Node 14, Type 0, BuildingBlock: BETDAH_clean_linker_0, # of connection points: 3
#     Node 15, Type 0, BuildingBlock: BETDAH_clean_linker_0, # of connection points: 3
#     Node 16, Type 1, BuildingBlock: QUQFOY_clean_sbu_1, # of connection points: 4
#     Node 17, Type 1, BuildingBlock: QUQFOY_clean_sbu_1, # of connection points: 4
#     Node 18, Type 1, BuildingBlock: QUQFOY_clean_sbu_1, # of connection points: 4
#     Node 19, Type 1, BuildingBlock: QUQFOY_clean_sbu_1, # of connection points: 4
#     Node 20, Type 1, BuildingBlock: QUQFOY_clean_sbu_1, # of connection points: 4
#     Node 21, Type 1, BuildingBlock: QUQFOY_clean_sbu_1, # of connection points: 4
#     Node 22, Type 1, BuildingBlock: QUQFOY_clean_sbu_1, # of connection points: 4
#     Node 23, Type 1, BuildingBlock: QUQFOY_clean_sbu_1, # of connection points: 4
#     Node 24, Type 1, BuildingBlock: QUQFOY_clean_sbu_1, # of connection points: 4
#     Node 25, Type 1, BuildingBlock: QUQFOY_clean_sbu_1, # of connection points: 4
#     Node 26, Type 1, BuildingBlock: QUQFOY_clean_sbu_1, # of connection points: 4
#     Node 27, Type 1, BuildingBlock: QUQFOY_clean_sbu_1, # of connection points: 4
#     Edge 28, Type (0, 1), BuildingBlock: CIFDUS_clean_linker_0, # of connection points: 2
#     Edge 29, Type (0, 1), BuildingBlock: CIFDUS_clean_linker_0, # of connection points: 2
#     Edge 30, Type (0, 1), BuildingBlock: CIFDUS_clean_linker_0, # of connection points: 2
#     Edge 31, Type (0, 1), BuildingBlock: CIFDUS_clean_linker_0, # of connection points: 2
#     Edge 32, Type (0, 1), BuildingBlock: CIFDUS_clean_linker_0, # of connection points: 2
#     Edge 33, Type (0, 1), BuildingBlock: CIFDUS_clean_linker_0, # of connection points: 2
#     Edge 34, Type (0, 1), BuildingBlock: CIFDUS_clean_linker_0, # of connection points: 2
#     Edge 35, Type (0, 1), BuildingBlock: CIFDUS_clean_linker_0, # of connection points: 2
#     Edge 36, Type (0, 1), BuildingBlock: CIFDUS_clean_linker_0, # of connection points: 2
#     Edge 37, Type (0, 1), BuildingBlock: CIFDUS_clean_linker_0, # of connection points: 2
#     Edge 38, Type (0, 1), BuildingBlock: CIFDUS_clean_linker_0, # of connection points: 2
#     Edge 39, Type (0, 1), BuildingBlock: CIFDUS_clean_linker_0, # of connection points: 2
#     Edge 40, Type (0, 1), BuildingBlock: CIFDUS_clean_linker_0, # of connection points: 2
#     Edge 41, Type (0, 1), BuildingBlock: CIFDUS_clean_linker_0, # of connection points: 2
#     Edge 42, Type (0, 1), BuildingBlock: CIFDUS_clean_linker_0, # of connection points: 2
#     Edge 43, Type (0, 1), BuildingBlock: CIFDUS_clean_linker_0, # of connection points: 2
#     Edge 44, Type (0, 1), BuildingBlock: CIFDUS_clean_linker_0, # of connection points: 2
#     Edge 45, Type (0, 1), BuildingBlock: CIFDUS_clean_linker_0, # of connection points: 2
#     Edge 46, Type (0, 1), BuildingBlock: CIFDUS_clean_linker_0, # of connection points: 2
#     Edge 47, Type (0, 1), BuildingBlock: CIFDUS_clean_linker_0, # of connection points: 2
#     Edge 48, Type (0, 1), BuildingBlock: CIFDUS_clean_linker_0, # of connection points: 2
#     Edge 49, Type (0, 1), BuildingBlock: CIFDUS_clean_linker_0, # of connection points: 2
#     Edge 50, Type (0, 1), BuildingBlock: CIFDUS_clean_linker_0, # of connection points: 2
#     Edge 51, Type (0, 1), BuildingBlock: CIFDUS_clean_linker_0, # of connection points: 2
#     Edge 52, Type (0, 1), BuildingBlock: CIFDUS_clean_linker_0, # of connection points: 2
#     Edge 53, Type (0, 1), BuildingBlock: CIFDUS_clean_linker_0, # of connection points: 2
#     Edge 54, Type (0, 1), BuildingBlock: CIFDUS_clean_linker_0, # of connection points: 2
#     Edge 55, Type (0, 1), BuildingBlock: CIFDUS_clean_linker_0, # of connection points: 2
#     Edge 56, Type (0, 1), BuildingBlock: CIFDUS_clean_linker_0, # of connection points: 2
#     Edge 57, Type (0, 1), BuildingBlock: CIFDUS_clean_linker_0, # of connection points: 2
#     Edge 58, Type (0, 1), BuildingBlock: CIFDUS_clean_linker_0, # of connection points: 2
#     Edge 59, Type (0, 1), BuildingBlock: CIFDUS_clean_linker_0, # of connection points: 2
#     Edge 60, Type (0, 1), BuildingBlock: CIFDUS_clean_linker_0, # of connection points: 2
#     Edge 61, Type (0, 1), BuildingBlock: CIFDUS_clean_linker_0, # of connection points: 2
#     Edge 62, Type (0, 1), BuildingBlock: CIFDUS_clean_linker_0, # of connection points: 2
#     Edge 63, Type (0, 1), BuildingBlock: CIFDUS_clean_linker_0, # of connection points: 2
#     Edge 64, Type (0, 1), BuildingBlock: CIFDUS_clean_linker_0, # of connection points: 2
#     Edge 65, Type (0, 1), BuildingBlock: CIFDUS_clean_linker_0, # of connection points: 2
#     Edge 66, Type (0, 1), BuildingBlock: CIFDUS_clean_linker_0, # of connection points: 2
#     Edge 67, Type (0, 1), BuildingBlock: CIFDUS_clean_linker_0, # of connection points: 2
#     Edge 68, Type (0, 1), BuildingBlock: CIFDUS_clean_linker_0, # of connection points: 2
#     Edge 69, Type (0, 1), BuildingBlock: CIFDUS_clean_linker_0, # of connection points: 2
#     Edge 70, Type (0, 1), BuildingBlock: CIFDUS_clean_linker_0, # of connection points: 2
#     Edge 71, Type (0, 1), BuildingBlock: CIFDUS_clean_linker_0, # of connection points: 2
#     Edge 72, Type (0, 1), BuildingBlock: CIFDUS_clean_linker_0, # of connection points: 2
#     Edge 73, Type (0, 1), BuildingBlock: CIFDUS_clean_linker_0, # of connection points: 2
#     Edge 74, Type (0, 1), BuildingBlock: CIFDUS_clean_linker_0, # of connection points: 2
#     Edge 75, Type (0, 1), BuildingBlock: CIFDUS_clean_linker_0, # of connection points: 2
# Relax obj value: 0.075
# Max RMSD: 0.181
# Mean RMSD: 0.119
data_MOF--net-ctn--node1-QUQFOY_clean_sbu_1--node2-BETDAH_clean_linker_0--edge1-CIFDUS_clean_linker_0
_symmetry_space_group_name_H-M    P1
_symmetry_Int_Tables_number       1
_symmetry_cell_setting            triclinic
loop_
_symmetry_equiv_pos_as_xyz
'x, y, z'
_cell_length_a     47.28147
_cell_length_b     47.092942
_cell_length_c     48.314058
_cell_angle_alpha  102.49654
_cell_angle_beta   90.093248
_cell_angle_gamma 100.14905
loop_
_atom_site_label
_atom_site_type_symbol
_atom_site_fract_x
_atom_site_fract_y
_atom_site_fract_z
_atom_type_partial_charge
H0 H 0.03975 0.03291 0.11848 0.0
H1 H 0.06971 0.09494 0.06643 0.0
H2 H 0.01133 0.11665 0.13192 0.0
C3 C 0.03985 0.05395 0.11282 0.0
C4 C 0.02348 0.07381 0.12826 0.0
C5 C 0.05656 0.06113 0.0903 0.0
C6 C 0.05645 0.08861 0.08313 0.0
C7 C 0.04023 0.10857 0.09838 0.0
C8 C 0.02402 0.10109 0.12073 0.0
N9 N 0.04037 0.1369 0.09264 0.0
C10 C 0.04706 0.14463 0.06694 0.0
H11 H 0.31437 0.7557 0.29792 0.0
H12 H 0.35371 0.8274 0.26073 0.0
H13 H 0.27 0.77838 0.23043 0.0
C14 C 0.31417 0.76911 0.28234 0.0
C15 C 0.29013 0.7635 0.26353 0.0
C16 C 0.33765 0.79168 0.28145 0.0
C17 C 0.33589 0.80997 0.26228 0.0
C18 C 0.31144 0.80585 0.2444 0.0
C19 C 0.28857 0.78233 0.24481 0.0
N20 N 0.31111 0.82583 0.22628 0.0
C21 C 0.28975 0.82428 0.20592 0.0
H22 H 0.02474 0.46626 0.08634 0.0
H23 H 0.97206 0.52734 0.12777 0.0
H24 H 0.94275 0.46803 0.04859 0.0
C25 C 0.00581 0.47631 0.08644 0.0
C26 C 0.98496 0.46522 0.06415 0.0
C27 C 0.00177 0.49891 0.10954 0.0
C28 C 0.97601 0.51004 0.11022 0.0
C29 C 0.95489 0.49913 0.08835 0.0
C30 C 0.95941 0.47686 0.06517 0.0
N31 N 0.92793 0.50826 0.09205 0.0
C32 C 0.91529 0.52123 0.07318 0.0
H33 H 0.79403 0.78046 0.21011 0.0
H34 H 0.72535 0.71263 0.22337 0.0
H35 H 0.74752 0.79304 0.28722 0.0
C36 C 0.77775 0.77229 0.22366 0.0
C37 C 0.77342 0.79008 0.25016 0.0
C38 C 0.76051 0.74449 0.21382 0.0
C39 C 0.73876 0.73419 0.23076 0.0
C40 C 0.73371 0.75167 0.25698 0.0
C41 C 0.75098 0.77975 0.26666 0.0
N42 N 0.71144 0.74 0.2732 0.0
C43 C 0.69653 0.75716 0.29296 0.0
H44 H 0.08505 0.02154 0.4391 0.0
H45 H 0.12714 0.97187 0.48572 0.0
H46 H 0.03538 0.95065 0.47143 0.0
C47 C 0.08385 0.00414 0.45076 0.0
C48 C 0.05705 0.98661 0.45346 0.0
C49 C 0.10925 0.99894 0.4621 0.0
C50 C 0.1077 0.9762 0.4768 0.0
C51 C 0.08124 0.95933 0.48091 0.0
C52 C 0.05574 0.96456 0.46933 0.0
N53 N 0.08167 0.93631 0.49547 0.0
C54 C 0.05919 0.92424 0.51024 0.0
H55 H 0.27024 0.74802 0.83867 0.0
H56 H 0.22113 0.79976 0.80099 0.0
H57 H 0.26056 0.73332 0.74796 0.0
C58 C 0.26154 0.75329 0.82004 0.0
C59 C 0.26747 0.73779 0.79305 0.0
C60 C 0.24514 0.77594 0.82336 0.0
C61 C 0.23349 0.78217 0.79896 0.0
C62 C 0.23919 0.76675 0.77176 0.0
C63 C 0.25643 0.74505 0.76902 0.0
N64 N 0.22881 0.77317 0.74665 0.0
C65 C 0.20377 0.78438 0.74472 0.0
H66 H 0.92853 0.55977 0.54915 0.0
H67 H 0.00916 0.57767 0.50937 0.0
H68 H 0.96241 0.48855 0.4965 0.0
C69 C 0.94514 0.55198 0.53566 0.0
C70 C 0.94229 0.52178 0.52311 0.0
C71 C 0.96926 0.57224 0.531 0.0
C72 C 0.99045 0.56217 0.51298 0.0
C73 C 0.98807 0.5318 0.50085 0.0
C74 C 0.96425 0.51183 0.50631 0.0
N75 N 0.00944 0.52038 0.48352 0.0
C76 C 0.02759 0.53636 0.46752 0.0
H77 H 0.84257 0.77543 0.83172 0.0
H78 H 0.80408 0.84233 0.80569 0.0
H79 H 0.75877 0.78938 0.85944 0.0
C80 C 0.82487 0.78734 0.83217 0.0
C81 C 0.80076 0.77987 0.84777 0.0
C82 C 0.82627 0.80975 0.81685 0.0
C83 C 0.80322 0.82513 0.81751 0.0
C84 C 0.77893 0.81787 0.83314 0.0
C85 C 0.77779 0.79516 0.84789 0.0
N86 N 0.75484 0.83221 0.83388 0.0
C87 C 0.75579 0.86052 0.82934 0.0
H88 H 0.35224 0.29231 0.29912 0.0
H89 H 0.30915 0.34299 0.25348 0.0
H90 H 0.26566 0.30358 0.31743 0.0
C91 C 0.33373 0.30182 0.29534 0.0
C92 C 0.30948 0.29703 0.31155 0.0
C93 C 0.33408 0.31835 0.27418 0.0
C94 C 0.30948 0.33024 0.26958 0.0
C95 C 0.28478 0.32465 0.28513 0.0
C96 C 0.28494 0.30801 0.3058 0.0
N97 N 0.25871 0.33356 0.27928 0.0
C98 C 0.25675 0.36049 0.27275 0.0
H99 H 0.54021 -0.00013 0.58729 0.0
H100 H 0.53394 0.09214 0.6062 0.0
H101 H 0.50059 0.03664 0.5263 0.0
C102 C 0.53339 0.01861 0.58138 0.0
C103 C 0.52029 0.01502 0.5544 0.0
C104 C 0.53827 0.04624 0.60049 0.0
C105 C 0.52972 0.07039 0.5922 0.0
C106 C 0.51559 0.06697 0.56593 0.0
C107 C 0.51092 0.03924 0.54695 0.0
N108 N 0.50715 0.09215 0.55907 0.0
C109 C 0.48471 0.09091 0.54 0.0
H110 H 0.2867 0.34389 0.66786 0.0
H111 H 0.25382 0.26065 0.68862 0.0
H112 H 0.25753 0.34109 0.75194 0.0
C113 C 0.27716 0.33173 0.6832 0.0
C114 C 0.27309 0.3467 0.711 0.0
C115 C 0.26989 0.30091 0.67487 0.0
C116 C 0.25939 0.28455 0.69486 0.0
C117 C 0.25458 0.2989 0.72254 0.0
C118 C 0.26124 0.33002 0.73054 0.0
N119 N 0.24309 0.28137 0.74177 0.0
C120 C 0.22748 0.2916 0.76501 0.0
H121 H 0.85076 0.23826 0.79423 0.0
H122 H 0.87178 0.32277 0.77143 0.0
H123 H 0.78754 0.27089 0.75149 0.0
C124 C 0.84484 0.25512 0.78449 0.0
C125 C 0.81679 0.25108 0.77269 0.0
C126 C 0.86506 0.28086 0.78436 0.0
C127 C 0.85671 0.30277 0.77212 0.0
C128 C 0.82908 0.29903 0.76001 0.0
C129 C 0.80919 0.27314 0.7601 0.0
N130 N 0.82146 0.32244 0.7492 0.0
C131 C 0.80523 0.31797 0.72418 0.0
H132 H 0.56374 0.52663 0.5898 0.0
H133 H 0.56822 0.54311 0.5056 0.0
H134 H 0.5037 0.57381 0.56034 0.0
C135 C 0.55579 0.53589 0.57331 0.0
C136 C 0.53159 0.54978 0.57815 0.0
C137 C 0.56944 0.53335 0.5473 0.0
C138 C 0.55897 0.54578 0.5263 0.0
C139 C 0.53621 0.56132 0.53134 0.0
C140 C 0.52249 0.56342 0.5573 0.0
N141 N 0.52557 0.57159 0.50862 0.0
C142 C 0.51925 0.59971 0.51101 0.0
H143 H 0.55656 0.54075 0.93882 0.0
H144 H 0.55057 0.49047 0.00393 0.0
H145 H 0.47385 0.50583 0.96652 0.0
C146 C 0.54367 0.52764 0.95171 0.0
C147 C 0.5136 0.52434 0.94984 0.0
C148 C 0.55723 0.51578 0.97137 0.0
C149 C 0.54031 0.49957 0.98864 0.0
C150 C 0.51018 0.49607 0.98684 0.0
C151 C 0.49711 0.50872 0.96773 0.0
N152 N 0.49229 0.481 0.00461 0.0
C153 C 0.49998 0.45976 0.01767 0.0
H154 H 0.76917 0.20744 0.36336 0.0
H155 H 0.7191 0.23803 0.30523 0.0
H156 H 0.76069 0.16382 0.27497 0.0
C157 C 0.76029 0.20527 0.34216 0.0
C158 C 0.76668 0.18278 0.32003 0.0
C159 C 0.74321 0.22542 0.33707 0.0
C160 C 0.7326 0.22293 0.30929 0.0
C161 C 0.73921 0.20094 0.28681 0.0
C162 C 0.75625 0.1811 0.29232 0.0
N163 N 0.72892 0.19804 0.25848 0.0
C164 C 0.70898 0.21383 0.25093 0.0
H165 H 0.417 0.07812 0.03932 0.0
H166 H 0.49472 0.08101 0.99289 0.0
H167 H 0.41995 0.01546 0.96063 0.0
C168 C 0.42883 0.06919 0.02126 0.0
C169 C 0.41499 0.04546 0.00018 0.0
C170 C 0.45747 0.08229 0.01857 0.0
C171 C 0.47258 0.071 0.99486 0.0
C172 C 0.45905 0.04651 0.97409 0.0
C173 C 0.4303 0.03421 0.97677 0.0
N174 N 0.47347 0.03331 0.95033 0.0
C175 C 0.50147 0.04345 0.94373 0.0
O176 O 0.22368 0.86937 0.99196 0.0
Cd177 Cd 0.233 0.89307 0.03333 0.0
Cd178 Cd 0.20251 0.92958 0.00949 0.0
O179 O 0.19477 0.89426 0.97506 0.0
O180 O 0.25625 0.86667 0.04652 0.0
O181 O 0.21779 0.87861 0.06829 0.0
C182 C 0.2392 0.86483 0.06697 0.0
C183 C 0.16559 0.9521 0.03116 0.0
C184 C 0.20787 0.8725 0.97187 0.0
C185 C 0.26433 0.95313 0.02742 0.0
O186 O 0.24287 0.95572 0.01289 0.0
O187 O 0.26337 0.93122 0.03898 0.0
O188 O 0.17438 0.95591 0.00673 0.0
O189 O 0.17724 0.93457 0.04297 0.0
O190 O 0.20237 0.59331 0.29407 0.0
Cd191 Cd 0.18209 0.55516 0.30566 0.0
Cd192 Cd 0.13416 0.5803 0.2889 0.0
O193 O 0.16636 0.61436 0.28445 0.0
O194 O 0.21512 0.53823 0.31678 0.0
O195 O 0.18471 0.51503 0.28105 0.0
C196 C 0.20702 0.51531 0.29665 0.0
C197 C 0.10048 0.56116 0.2516 0.0
C198 C 0.19316 0.61452 0.28669 0.0
C199 C 0.1338 0.56563 0.34665 0.0
O200 O 0.12135 0.57572 0.32858 0.0
O201 O 0.15757 0.55689 0.34135 0.0
O202 O 0.09872 0.58523 0.26971 0.0
O203 O 0.12161 0.54784 0.25452 0.0
O204 O 0.76889 0.67012 0.97525 0.0
Cd205 Cd 0.75824 0.64156 0.00233 0.0
Cd206 Cd 0.78224 0.60597 0.95849 0.0
O207 O 0.78981 0.64291 0.94114 0.0
O208 O 0.73705 0.66537 0.03141 0.0
O209 O 0.77685 0.65095 0.04195 0.0
C210 C 0.75576 0.66432 0.05028 0.0
C211 C 0.81836 0.58805 0.9784 0.0
C212 C 0.78153 0.66708 0.95184 0.0
C213 C 0.72233 0.5833 0.96924 0.0
O214 O 0.74191 0.57982 0.95152 0.0
O215 O 0.72608 0.60506 0.99043 0.0
O216 O 0.81276 0.58118 0.95132 0.0
O217 O 0.80391 0.60594 0.99401 0.0
O218 O 0.93987 0.00113 0.31948 0.0
Cd219 Cd 0.91013 0.99664 0.28709 0.0
Cd220 Cd 0.87914 0.01722 0.33261 0.0
O221 O 0.91585 0.01793 0.35683 0.0
O222 O 0.93178 0.98426 0.25235 0.0
O223 O 0.91597 0.02658 0.26227 0.0
C224 C 0.92974 0.00885 0.24571 0.0
C225 C 0.86177 0.05935 0.32774 0.0
C226 C 0.93848 0.00973 0.34617 0.0
C227 C 0.85509 0.95738 0.2985 0.0
O228 O 0.85176 0.97706 0.3202 0.0
O229 O 0.87618 0.96162 0.28268 0.0
O230 O 0.85655 0.04823 0.34983 0.0
O231 O 0.87791 0.04709 0.30891 0.0
O232 O 0.30159 0.19963 0.44132 0.0
Cd233 Cd 0.28775 0.17954 0.47397 0.0
Cd234 Cd 0.31024 0.13462 0.44125 0.0
O235 O 0.3157 0.16197 0.41255 0.0
O236 O 0.27475 0.21151 0.50252 0.0
O237 O 0.30872 0.18799 0.51212 0.0
C238 C 0.29263 0.20733 0.52071 0.0
C239 C 0.34946 0.12841 0.46693 0.0
C240 C 0.3112 0.18845 0.41765 0.0
C241 C 0.24875 0.11997 0.45458 0.0
O242 O 0.27008 0.10935 0.44349 0.0
O243 O 0.25162 0.1472 0.46646 0.0
O244 O 0.34231 0.11194 0.44197 0.0
O245 O 0.3343 0.14831 0.47693 0.0
O246 O 0.44048 0.55097 0.79329 0.0
Cd247 Cd 0.41405 0.54793 0.75795 0.0
Cd248 Cd 0.38088 0.57109 0.80134 0.0
O249 O 0.41681 0.57554 0.82683 0.0
O250 O 0.43834 0.53256 0.7265 0.0
O251 O 0.42447 0.57551 0.73091 0.0
C252 C 0.43844 0.55612 0.7171 0.0
C253 C 0.35539 0.60971 0.80406 0.0
C254 C 0.43836 0.56346 0.81915 0.0
C255 C 0.35843 0.51016 0.76835 0.0
O256 O 0.35702 0.52913 0.7911 0.0
O257 O 0.37787 0.51479 0.7509 0.0
O258 O 0.35466 0.59502 0.82375 0.0
O259 O 0.37154 0.60308 0.78293 0.0
O260 O 0.73827 0.33672 0.5047 0.0
Cd261 Cd 0.75284 0.36901 0.54034 0.0
Cd262 Cd 0.72368 0.40144 0.51116 0.0
O263 O 0.71961 0.36331 0.47943 0.0
O264 O 0.76969 0.34639 0.56444 0.0
O265 O 0.73442 0.37062 0.57826 0.0
C266 C 0.75223 0.35448 0.58373 0.0
C267 C 0.68435 0.42496 0.52279 0.0
C268 C 0.72653 0.339 0.4818 0.0
C269 C 0.78642 0.42483 0.52721 0.0
O270 O 0.76307 0.42907 0.51719 0.0
O271 O 0.78711 0.40177 0.53664 0.0
O272 O 0.69798 0.4267 0.49997 0.0
O273 O 0.69241 0.40886 0.53877 0.0
O274 O 0.71766 0.09293 0.82227 0.0
Cd275 Cd 0.69011 0.05523 0.82749 0.0
Cd276 Cd 0.65608 0.06939 0.78561 0.0
O277 O 0.69176 0.10196 0.78817 0.0
O278 O 0.71308 0.02964 0.84234 0.0
O279 O 0.69003 0.01634 0.8003 0.0
C280 C 0.70601 0.01006 0.81907 0.0
C281 C 0.63177 0.05612 0.74118 0.0
C282 C 0.71417 0.10841 0.8044 0.0
C283 C 0.63167 0.06615 0.84391 0.0
O284 O 0.62901 0.07032 0.819 0.0
O285 O 0.65478 0.0597 0.85221 0.0
O286 O 0.63097 0.08084 0.7585 0.0
O287 O 0.64667 0.03848 0.74891 0.0
O288 O 0.02395 0.31263 0.95028 0.0
Cd289 Cd 0.02836 0.27196 0.92514 0.0
Cd290 Cd 0.0634 0.30951 0.89922 0.0
O291 O 0.06124 0.34029 0.93603 0.0
O292 O 0.00614 0.24334 0.94553 0.0
O293 O 0.05277 0.24647 0.9398 0.0
C294 C 0.02957 0.23433 0.94987 0.0
C295 C 0.10692 0.3039 0.87794 0.0
C296 C 0.04061 0.33747 0.95261 0.0
C297 C 0.00834 0.27717 0.86873 0.0
O298 O 0.02778 0.30008 0.872 0.0
O299 O 0.00716 0.26002 0.88583 0.0
O300 O 0.09534 0.32666 0.87761 0.0
O301 O 0.09422 0.28467 0.89144 0.0
O302 O 0.49904 0.82639 0.46847 0.0
Cd303 Cd 0.49394 0.78477 0.44163 0.0
Cd304 Cd 0.52741 0.81575 0.40828 0.0
O305 O 0.52829 0.85056 0.44227 0.0
O306 O 0.48227 0.75426 0.46479 0.0
O307 O 0.52328 0.75908 0.4429 0.0
C308 C 0.50631 0.74546 0.45866 0.0
C309 C 0.56959 0.80167 0.38967 0.0
C310 C 0.5141 0.85031 0.46456 0.0
C311 C 0.46777 0.78789 0.38573 0.0
O312 O 0.49076 0.80524 0.38259 0.0
O313 O 0.46511 0.77592 0.40703 0.0
O314 O 0.56102 0.82461 0.38444 0.0
O315 O 0.55434 0.78707 0.4059 0.0
O316 O 0.9637 0.79737 0.70788 0.0
Cd317 Cd 0.99631 0.77931 0.68655 0.0
Cd318 Cd 0.96942 0.7936 0.64155 0.0
O319 O 0.93901 0.80329 0.67137 0.0
O320 O 0.01958 0.7714 0.71757 0.0
O321 O 0.03765 0.80064 0.68947 0.0
C322 C 0.04151 0.78796 0.71 0.0
C323 C 0.99204 0.82978 0.61888 0.0
C324 C 0.94171 0.8044 0.69781 0.0
C325 C 0.97668 0.73076 0.6343 0.0
O326 O 0.96968 0.75001 0.62212 0.0
O327 O 0.98615 0.73795 0.65995 0.0
O328 O 0.96638 0.81557 0.61102 0.0
O329 O 0.00466 0.82371 0.64011 0.0
O330 O 0.4994 0.29412 0.20188 0.0
Cd331 Cd 0.52992 0.27374 0.17881 0.0
Cd332 Cd 0.50883 0.30665 0.13715 0.0
O333 O 0.47955 0.3114 0.16893 0.0
O334 O 0.54294 0.25142 0.20569 0.0
O335 O 0.57271 0.28478 0.18913 0.0
C336 C 0.56877 0.26517 0.20441 0.0
C337 C 0.51584 0.34494 0.11229 0.0
C338 C 0.48004 0.30653 0.19379 0.0
C339 C 0.51091 0.24106 0.11829 0.0
O340 O 0.50903 0.26541 0.11181 0.0
O341 O 0.5168 0.24 0.14368 0.0
O342 O 0.49262 0.3255 0.10913 0.0
O343 O 0.53553 0.34299 0.12997 0.0
H344 H 0.19786 0.79884 0.84485 0.0
H345 H 0.28518 0.794 0.86726 0.0
H346 H 0.27985 0.82039 0.91534 0.0
H347 H 0.25143 0.84592 0.95095 0.0
H348 H 0.16625 0.8567 0.92869 0.0
H349 H 0.16978 0.82716 0.88063 0.0
C350 C 0.2158 0.80378 0.86015 0.0
C351 C 0.24166 0.79367 0.85236 0.0
C352 C 0.21298 0.81999 0.88788 0.0
C353 C 0.26465 0.80043 0.87266 0.0
C354 C 0.26176 0.81582 0.90023 0.0
C355 C 0.23343 0.84149 0.93573 0.0
C356 C 0.20843 0.85303 0.94347 0.0
C357 C 0.23606 0.82559 0.90809 0.0
C358 C 0.18563 0.8478 0.92326 0.0
C359 C 0.18771 0.83102 0.89579 0.0
H360 H 0.08151 0.52899 0.45664 0.0
H361 H 0.01358 0.57059 0.43363 0.0
H362 H 0.04176 0.58563 0.39492 0.0
H363 H 0.08387 0.58301 0.36538 0.0
H364 H 0.15146 0.54028 0.38797 0.0
H365 H 0.12547 0.52986 0.42925 0.0
C366 C 0.07325 0.54185 0.4434 0.0
C367 C 0.0458 0.54892 0.44775 0.0
C368 C 0.08938 0.54993 0.42104 0.0
C369 C 0.03488 0.56522 0.43054 0.0
C370 C 0.0509 0.57362 0.4084 0.0
C371 C 0.09309 0.57168 0.37946 0.0
C372 C 0.11948 0.5622 0.37334 0.0
C373 C 0.07791 0.56551 0.40307 0.0
C374 C 0.13115 0.54773 0.39201 0.0
C375 C 0.11627 0.54169 0.41564 0.0
H376 H 0.78325 0.78058 0.90149 0.0
H377 H 0.81575 0.72551 0.82985 0.0
H378 H 0.81397 0.68629 0.85602 0.0
H379 H 0.80203 0.66711 0.89891 0.0
H380 H 0.76901 0.72231 0.97028 0.0
H381 H 0.7721 0.7618 0.94455 0.0
C382 C 0.78975 0.75991 0.89154 0.0
C383 C 0.79955 0.75599 0.86374 0.0
C384 C 0.78862 0.73742 0.90668 0.0
C385 C 0.80835 0.72923 0.85132 0.0
C386 C 0.80723 0.70673 0.86623 0.0
C387 C 0.79568 0.68783 0.90892 0.0
C388 C 0.78524 0.69158 0.93652 0.0
C389 C 0.79733 0.71054 0.89392 0.0
C390 C 0.77707 0.71865 0.94907 0.0
C391 C 0.77877 0.74132 0.93435 0.0
H392 H 0.05442 0.99485 0.4 0.0
H393 H 0.00167 0.9866 0.47156 0.0
H394 H 0.96028 0.99471 0.44542 0.0
H395 H 0.93922 0.00398 0.4016 0.0
H396 H 0.9937 0.01236 0.33108 0.0
H397 H 0.03451 0.00542 0.35789 0.0
C398 C 0.03401 0.99527 0.41016 0.0
C399 C 0.03129 0.99049 0.43786 0.0
C400 C 0.01065 0.00028 0.39525 0.0
C401 C 0.00436 0.99013 0.45023 0.0
C402 C 0.98076 0.99498 0.43536 0.0
C403 C 0.96013 0.00469 0.39234 0.0
C404 C 0.96337 0.0087 0.36435 0.0
C405 C 0.98367 0.00018 0.40782 0.0
C406 C 0.99054 0.0092 0.3525 0.0
C407 C 0.01392 0.00516 0.36778 0.0
H408 H 0.29825 0.2558 0.65366 0.0
H409 H 0.24658 0.31379 0.62902 0.0
H410 H 0.24996 0.29067 0.57906 0.0
H411 H 0.26679 0.25361 0.54256 0.0
H412 H 0.31962 0.19607 0.56632 0.0
H413 H 0.31693 0.21957 0.61642 0.0
C414 C 0.28771 0.26319 0.63725 0.0
C415 C 0.27211 0.2863 0.64484 0.0
C416 C 0.2901 0.25005 0.60851 0.0
C417 C 0.25877 0.29606 0.62354 0.0
C418 C 0.26068 0.28286 0.59503 0.0
C419 C 0.27786 0.24628 0.55866 0.0
C420 C 0.29327 0.22307 0.55075 0.0
C421 C 0.27623 0.25984 0.58729 0.0
C422 C 0.30765 0.21397 0.57187 0.0
C423 C 0.306 0.22729 0.60052 0.0
H424 H 0.50529 0.59164 0.61226 0.0
H425 H 0.51852 0.50144 0.60103 0.0
H426 H 0.49138 0.49592 0.6427 0.0
H427 H 0.46399 0.51609 0.68229 0.0
H428 H 0.44861 0.60545 0.69407 0.0
H429 H 0.47607 0.61171 0.65207 0.0
C430 C 0.5021 0.57076 0.61889 0.0
C431 C 0.51449 0.5472 0.6037 0.0
C432 C 0.48598 0.56749 0.64292 0.0
C433 C 0.51004 0.52027 0.61264 0.0
C434 C 0.49425 0.51695 0.63639 0.0
C435 C 0.46658 0.537 0.67576 0.0
C436 C 0.45432 0.56029 0.69139 0.0
C437 C 0.48225 0.54038 0.65172 0.0
C438 C 0.45781 0.58714 0.68242 0.0
C439 C 0.47356 0.59073 0.65842 0.0
H440 H 0.76685 0.34982 0.71222 0.0
H441 H 0.81609 0.28349 0.67506 0.0
H442 H 0.80143 0.28688 0.62738 0.0
H443 H 0.77902 0.31258 0.59678 0.0
H444 H 0.73017 0.3796 0.63358 0.0
H445 H 0.73982 0.37186 0.68094 0.0
C446 C 0.77374 0.33571 0.69358 0.0
C447 C 0.79235 0.31639 0.69675 0.0
C448 C 0.76553 0.33814 0.66632 0.0
C449 C 0.80156 0.29834 0.67279 0.0
C450 C 0.79333 0.30041 0.64564 0.0
C451 C 0.77018 0.32525 0.61512 0.0
C452 C 0.75423 0.34692 0.61174 0.0
C453 C 0.77601 0.32084 0.64219 0.0
C454 C 0.74259 0.36287 0.63565 0.0
C455 C 0.74821 0.35854 0.66274 0.0
H456 H 0.58207 0.02019 0.61479 0.0
H457 H 0.52592 0.08059 0.65068 0.0
H458 H 0.54993 0.08869 0.69702 0.0
H459 H 0.58711 0.07941 0.72725 0.0
H460 H 0.64132 0.01672 0.6929 0.0
H461 H 0.61711 0.00801 0.6461 0.0
C462 C 0.5747 0.03476 0.63278 0.0
C463 C 0.55235 0.05001 0.62899 0.0
C464 C 0.58814 0.0388 0.65966 0.0
C465 C 0.5435 0.06911 0.65265 0.0
C466 C 0.55704 0.07358 0.67928 0.0
C467 C 0.5936 0.06376 0.70954 0.0
C468 C 0.61611 0.04891 0.71339 0.0
C469 C 0.57949 0.05873 0.68296 0.0
C470 C 0.62402 0.0284 0.6904 0.0
C471 C 0.61027 0.02352 0.66367 0.0
H472 H 0.89807 0.239 0.78727 0.0
H473 H 0.89838 0.33296 0.81281 0.0
H474 H 0.94487 0.34011 0.83713 0.0
H475 H 0.98328 0.31953 0.8552 0.0
H476 H 0.97938 0.22516 0.83657 0.0
H477 H 0.93612 0.21824 0.80601 0.0
C478 C 0.90798 0.26105 0.79841 0.0
C479 C 0.89434 0.28532 0.79804 0.0
C480 C 0.9341 0.26492 0.8138 0.0
C481 C 0.9083 0.31379 0.81203 0.0
C482 C 0.93488 0.31795 0.82631 0.0
C483 C 0.97321 0.2975 0.84401 0.0
C484 C 0.98451 0.27288 0.84776 0.0
C485 C 0.9477 0.29365 0.82775 0.0
C486 C 0.97101 0.24439 0.83379 0.0
C487 C 0.94629 0.24046 0.81644 0.0
H488 H 0.50283 0.95957 0.56344 0.0
H489 H 0.53371 0.00641 0.49877 0.0
H490 H 0.5349 0.95958 0.4655 0.0
H491 H 0.52884 0.90561 0.45532 0.0
H492 H 0.49745 0.85833 0.51955 0.0
H493 H 0.49533 0.90516 0.55269 0.0
C494 C 0.50981 0.95948 0.54204 0.0
C495 C 0.51823 0.98642 0.53359 0.0
C496 C 0.5107 0.93248 0.52311 0.0
C497 C 0.5268 0.98598 0.50569 0.0
C498 C 0.52775 0.95923 0.48675 0.0
C499 C 0.52171 0.90551 0.47664 0.0
C500 C 0.51362 0.87853 0.48506 0.0
C501 C 0.52009 0.9324 0.49535 0.0
C502 C 0.50394 0.8788 0.51259 0.0
C503 C 0.50265 0.90555 0.53151 0.0
H504 H 0.20547 0.25923 0.80169 0.0
H505 H 0.20749 0.34268 0.77817 0.0
H506 H 0.17166 0.35514 0.81325 0.0
H507 H 0.13732 0.3405 0.84782 0.0
H508 H 0.13428 0.25634 0.87064 0.0
H509 H 0.17321 0.24602 0.83892 0.0
C510 C 0.19826 0.28028 0.80466 0.0
C511 C 0.20886 0.30014 0.78768 0.0
C512 C 0.17746 0.28703 0.82458 0.0
C513 C 0.1995 0.32725 0.79127 0.0
C514 C 0.17901 0.33428 0.8112 0.0
C515 C 0.14536 0.32003 0.84613 0.0
C516 C 0.13273 0.29913 0.86145 0.0
C517 C 0.16746 0.31409 0.82759 0.0
C518 C 0.14353 0.27278 0.85906 0.0
C519 C 0.16575 0.26681 0.84084 0.0
H520 H 0.5535 0.63647 0.48556 0.0
H521 H 0.4735 0.62563 0.52782 0.0
H522 H 0.46278 0.6711 0.51637 0.0
H523 H 0.47507 0.71211 0.49166 0.0
H524 H 0.55495 0.72184 0.4485 0.0
H525 H 0.5669 0.67873 0.46299 0.0
C526 C 0.53395 0.64443 0.49259 0.0
C527 C 0.51434 0.62817 0.5076 0.0
C528 C 0.52784 0.67018 0.48552 0.0
C529 C 0.48892 0.63817 0.51642 0.0
C530 C 0.48278 0.664 0.50974 0.0
C531 C 0.49517 0.70491 0.48556 0.0
C532 C 0.51398 0.72013 0.46883 0.0
C533 C 0.50187 0.67992 0.49386 0.0
C534 C 0.53999 0.71052 0.46123 0.0
C535 C 0.54687 0.68584 0.46952 0.0
H536 H 0.82629 0.81418 0.76154 0.0
H537 H 0.88282 0.81819 0.83298 0.0
H538 H 0.9241 0.81974 0.80271 0.0
H539 H 0.94327 0.81476 0.75532 0.0
H540 H 0.88703 0.80965 0.68327 0.0
H541 H 0.84663 0.81429 0.71445 0.0
C542 C 0.84775 0.81607 0.77054 0.0
C543 C 0.85149 0.81575 0.79937 0.0
C544 C 0.87139 0.81649 0.75287 0.0
C545 C 0.87938 0.818 0.81076 0.0
C546 C 0.90297 0.81888 0.79347 0.0
C547 C 0.92227 0.81498 0.7464 0.0
C548 C 0.91816 0.81145 0.71692 0.0
C549 C 0.8991 0.81725 0.76437 0.0
C550 C 0.89082 0.81219 0.70586 0.0
C551 C 0.86766 0.81472 0.72368 0.0
H552 H 0.07493 0.91807 0.56095 0.0
H553 H 0.00365 0.89645 0.49998 0.0
H554 H 0.97544 0.86633 0.52955 0.0
H555 H 0.97268 0.84372 0.57122 0.0
H556 H 0.04509 0.86446 0.63126 0.0
H557 H 0.07128 0.89752 0.60369 0.0
C558 C 0.05303 0.90705 0.55446 0.0
C559 C 0.04109 0.90937 0.52865 0.0
C560 C 0.03736 0.88952 0.57127 0.0
C561 C 0.01298 0.89496 0.52 0.0
C562 C 0.997 0.87771 0.53682 0.0
C563 C 0.99409 0.85567 0.57842 0.0
C564 C 0.00696 0.85147 0.60322 0.0
C565 C 0.00919 0.87443 0.56227 0.0
C566 C 0.03472 0.86715 0.61222 0.0
C567 C 0.04973 0.88607 0.59646 0.0
H568 H 0.15414 0.77112 0.7696 0.0
H569 H 0.19339 0.81534 0.70635 0.0
H570 H 0.14628 0.82322 0.69145 0.0
H571 H 0.09345 0.81312 0.69352 0.0
H572 H 0.05436 0.76738 0.75611 0.0
H573 H 0.10168 0.7648 0.77437 0.0
C574 C 0.15227 0.78296 0.75294 0.0
C575 C 0.17684 0.79279 0.73906 0.0
C576 C 0.12513 0.7869 0.74424 0.0
C577 C 0.17452 0.80783 0.71734 0.0
C578 C 0.14764 0.81218 0.70876 0.0
C579 C 0.09531 0.80301 0.71143 0.0
C580 C 0.07036 0.79024 0.72322 0.0
C581 C 0.12269 0.80118 0.72161 0.0
C582 C 0.07317 0.7772 0.74645 0.0
C583 C 0.10026 0.77565 0.75692 0.0
H584 H 0.96583 0.59343 0.58712 0.0
H585 H 0.97974 0.62123 0.50816 0.0
H586 H 0.98226 0.67299 0.53298 0.0
H587 H 0.9799 0.71017 0.57736 0.0
H588 H 0.96847 0.68177 0.6564 0.0
H589 H 0.96528 0.63036 0.63133 0.0
C590 C 0.96937 0.61088 0.57539 0.0
C591 C 0.97239 0.60367 0.54591 0.0
C592 C 0.97106 0.64039 0.5898 0.0
C593 C 0.97745 0.62638 0.53091 0.0
C594 C 0.97873 0.65588 0.54507 0.0
C595 C 0.97655 0.69266 0.589 0.0
C596 C 0.9742 0.69971 0.61865 0.0
C597 C 0.97541 0.66313 0.57451 0.0
C598 C 0.97034 0.6769 0.63358 0.0
C599 C 0.96852 0.6475 0.61928 0.0
H600 H 0.75879 0.84244 0.278 0.0
H601 H 0.83128 0.80341 0.24475 0.0
H602 H 0.86228 0.85172 0.25594 0.0
H603 H 0.86883 0.90504 0.27377 0.0
H604 H 0.79814 0.94467 0.31047 0.0
H605 H 0.76645 0.89607 0.29962 0.0
C606 C 0.78145 0.84444 0.27361 0.0
C607 C 0.7925 0.81932 0.26001 0.0
C608 C 0.79944 0.87239 0.28054 0.0
C609 C 0.82196 0.82242 0.25447 0.0
C610 C 0.8398 0.85003 0.26098 0.0
C611 C 0.84643 0.90307 0.27929 0.0
C612 C 0.83567 0.92837 0.29246 0.0
C613 C 0.82869 0.87518 0.2736 0.0
C614 C 0.80682 0.92545 0.30014 0.0
C615 C 0.78875 0.8977 0.29395 0.0
H616 H 0.80896 0.1597 0.28886 0.0
H617 H 0.76199 0.15575 0.36488 0.0
H618 H 0.78838 0.11877 0.37478 0.0
H619 H 0.8234 0.08608 0.36108 0.0
H620 H 0.86953 0.08864 0.28439 0.0
H621 H 0.84481 0.12743 0.27553 0.0
C622 C 0.80439 0.15064 0.30751 0.0
C623 C 0.78348 0.16062 0.32608 0.0
C624 C 0.81949 0.12906 0.31299 0.0
C625 C 0.7782 0.14887 0.35039 0.0
C626 C 0.79317 0.12755 0.35601 0.0
C627 C 0.82825 0.09525 0.34252 0.0
C628 C 0.84831 0.08438 0.32343 0.0
C629 C 0.81373 0.11734 0.33739 0.0
C630 C 0.8542 0.09653 0.29946 0.0
C631 C 0.84001 0.1187 0.29433 0.0
H632 H 0.39096 0.02494 0.04452 0.0
H633 H 0.37123 0.03612 0.96084 0.0
H634 H 0.32151 0.01141 0.96327 0.0
H635 H 0.28473 0.98348 0.98782 0.0
H636 H 0.30569 0.96874 0.06988 0.0
H637 H 0.35367 0.99834 0.06975 0.0
C638 C 0.3756 0.02224 0.02702 0.0
C639 C 0.38457 0.03219 0.00254 0.0
C640 C 0.34732 0.00737 0.0283 0.0
C641 C 0.36471 0.02836 0.9798 0.0
C642 C 0.33633 0.01432 0.98121 0.0
C643 C 0.29965 0.98723 0.00587 0.0
C644 C 0.29173 0.97408 0.02886 0.0
C645 C 0.32752 0.00332 0.00517 0.0
C646 C 0.31138 0.97865 0.05193 0.0
C647 C 0.33881 0.99548 0.05183 0.0
H648 H 0.2761 0.4142 0.30517 0.0
H649 H 0.21954 0.36751 0.23368 0.0
H650 H 0.19999 0.41236 0.23329 0.0
H651 H 0.196 0.46361 0.25631 0.0
H652 H 0.2524 0.50972 0.3285 0.0
H653 H 0.27505 0.46662 0.32554 0.0
C654 C 0.25998 0.4142 0.28914 0.0
C655 C 0.24934 0.38799 0.26932 0.0
C656 C 0.24855 0.43986 0.28944 0.0
C657 C 0.22817 0.38776 0.24889 0.0
C658 C 0.21687 0.41328 0.24883 0.0
C659 C 0.21343 0.46432 0.27119 0.0
C660 C 0.22223 0.48981 0.29276 0.0
C661 C 0.22639 0.43929 0.26947 0.0
C662 C 0.24501 0.49038 0.31178 0.0
C663 C 0.25803 0.4657 0.31014 0.0
H664 H 0.12172 0.05848 0.4687 0.0
H665 H 0.15991 0.98026 0.44728 0.0
H666 H 0.20634 0.01057 0.44182 0.0
H667 H 0.23629 0.0596 0.44407 0.0
H668 H 0.19743 0.1375 0.46602 0.0
H669 H 0.15103 0.10694 0.46976 0.0
C670 C 0.14012 0.04803 0.46252 0.0
C671 C 0.13738 0.0172 0.45842 0.0
C672 C 0.16665 0.06553 0.45942 0.0
C673 C 0.16156 0.00402 0.45089 0.0
C674 C 0.18806 0.0213 0.4476 0.0
C675 C 0.2176 0.06983 0.44941 0.0
C676 C 0.2204 0.10079 0.45479 0.0
C677 C 0.1909 0.05213 0.45193 0.0
C678 C 0.19598 0.11373 0.46189 0.0
C679 C 0.16938 0.09629 0.46407 0.0
H680 H 0.80999 0.22236 0.81637 0.0
H681 H 0.77534 0.21909 0.7327 0.0
H682 H 0.74046 0.17504 0.73543 0.0
H683 H 0.72021 0.13718 0.76122 0.0
H684 H 0.75699 0.13853 0.84345 0.0
H685 H 0.79139 0.18319 0.84112 0.0
C686 C 0.7952 0.21181 0.79845 0.0
C687 C 0.79546 0.22416 0.77431 0.0
C688 C 0.77572 0.18602 0.7998 0.0
C689 C 0.77546 0.21045 0.75172 0.0
C690 C 0.75564 0.18508 0.75315 0.0
C691 C 0.73577 0.14721 0.77866 0.0
C692 C 0.73594 0.13461 0.80255 0.0
C693 C 0.75561 0.17268 0.77707 0.0
C694 C 0.75643 0.14772 0.8248 0.0
C695 C 0.77603 0.17332 0.82352 0.0
H696 H 0.44996 0.12984 0.55377 0.0
H697 H 0.46602 0.05731 0.48816 0.0
H698 H 0.42515 0.06243 0.45921 0.0
H699 H 0.38499 0.08799 0.45286 0.0
H700 H 0.36948 0.16062 0.51921 0.0
H701 H 0.40995 0.15508 0.54759 0.0
C702 C 0.44437 0.11519 0.53311 0.0
C703 C 0.46063 0.09328 0.52288 0.0
C704 C 0.42102 0.11834 0.5168 0.0
C705 C 0.45354 0.07432 0.49624 0.0
C706 C 0.43026 0.07728 0.47978 0.0
C707 C 0.39048 0.1026 0.47351 0.0
C708 C 0.3742 0.12472 0.48383 0.0
C709 C 0.41386 0.09928 0.48985 0.0
C710 C 0.3816 0.14343 0.51069 0.0
C711 C 0.40477 0.14029 0.52699 0.0
H712 H 0.57693 0.48318 0.56455 0.0
H713 H 0.61704 0.54613 0.51687 0.0
H714 H 0.65513 0.51757 0.50442 0.0
H715 H 0.67701 0.47464 0.50655 0.0
H716 H 0.63966 0.41374 0.55718 0.0
H717 H 0.60081 0.44195 0.56944 0.0
C718 C 0.59422 0.49102 0.55184 0.0
C719 C 0.59374 0.51675 0.54145 0.0
C720 C 0.61656 0.47482 0.54523 0.0
C721 C 0.6163 0.52612 0.52466 0.0
C722 C 0.63828 0.5099 0.51766 0.0
C723 C 0.66031 0.46747 0.5202 0.0
C724 C 0.66097 0.44196 0.53068 0.0
C725 C 0.63849 0.48411 0.52761 0.0
C726 C 0.63952 0.43326 0.54878 0.0
C727 C 0.61733 0.44938 0.55577 0.0
H728 H 0.73085 0.22171 0.39147 0.0
H729 H 0.74131 0.28302 0.3359 0.0
H730 H 0.7332 0.32271 0.37508 0.0
H731 H 0.7272 0.34106 0.42602 0.0
H732 H 0.72082 0.28057 0.48217 0.0
H733 H 0.72335 0.23963 0.44196 0.0
C734 C 0.73153 0.24378 0.38791 0.0
C735 C 0.73687 0.24929 0.36072 0.0
C736 C 0.7276 0.26673 0.41071 0.0
C737 C 0.73697 0.27795 0.35647 0.0
C738 C 0.73252 0.30077 0.37894 0.0
C739 C 0.72582 0.31882 0.42935 0.0
C740 C 0.72379 0.31384 0.45701 0.0
C741 C 0.72825 0.29553 0.40624 0.0
C742 C 0.72244 0.28497 0.46107 0.0
C743 C 0.72399 0.26157 0.43811 0.0
H744 H 0.51272 0.07124 0.90159 0.0
H745 H 0.55161 0.03051 0.95977 0.0
H746 H 0.59702 0.03607 0.93516 0.0
H747 H 0.62397 0.04862 0.89431 0.0
H748 H 0.5835 0.08781 0.83542 0.0
H749 H 0.54058 0.08695 0.86307 0.0
C750 C 0.5314 0.06416 0.90911 0.0
C751 C 0.52925 0.05072 0.93234 0.0
C752 C 0.55701 0.06686 0.89452 0.0
C753 C 0.55316 0.04118 0.94194 0.0
C754 C 0.57897 0.04419 0.92778 0.0
C755 C 0.6059 0.05728 0.88774 0.0
C756 C 0.60693 0.06796 0.86263 0.0
C757 C 0.58094 0.05641 0.90362 0.0
C758 C 0.58327 0.07914 0.85445 0.0
C759 C 0.55864 0.07872 0.87027 0.0
H760 H 0.32816 0.24497 0.3099 0.0
H761 H 0.29113 0.31262 0.36504 0.0
H762 H 0.28974 0.28567 0.40299 0.0
H763 H 0.29762 0.2425 0.42004 0.0
H764 H 0.33368 0.17386 0.36512 0.0
H765 H 0.33727 0.20184 0.32769 0.0
C766 C 0.32006 0.2539 0.33033 0.0
C767 C 0.30963 0.28068 0.33461 0.0
C768 C 0.31917 0.23817 0.35207 0.0
C769 C 0.29891 0.29186 0.36109 0.0
C770 C 0.29824 0.27654 0.38284 0.0
C771 C 0.30649 0.23365 0.39999 0.0
C772 C 0.31534 0.20605 0.39546 0.0
C773 C 0.30809 0.2496 0.37849 0.0
C774 C 0.32667 0.19502 0.36922 0.0
C775 C 0.32868 0.21099 0.34777 0.0
H776 H 0.52566 0.52307 0.89453 0.0
H777 H 0.46941 0.55506 0.95961 0.0
H778 H 0.44314 0.57303 0.92541 0.0
H779 H 0.43376 0.57607 0.87641 0.0
H780 H 0.48898 0.54275 0.81082 0.0
H781 H 0.51849 0.52965 0.84599 0.0
C782 C 0.50794 0.53439 0.90131 0.0
C783 C 0.49929 0.5374 0.92949 0.0
C784 C 0.49276 0.54448 0.88146 0.0
C785 C 0.47615 0.55195 0.93791 0.0
C786 C 0.46121 0.56238 0.91841 0.0
C787 C 0.45253 0.56643 0.86982 0.0
C788 C 0.45898 0.56025 0.84094 0.0
C789 C 0.46897 0.55824 0.89001 0.0
C790 C 0.4834 0.54765 0.83286 0.0
C791 C 0.50023 0.54002 0.85295 0.0
H792 H 0.71973 0.72267 0.17193 0.0
H793 H 0.80982 0.72855 0.19128 0.0
H794 H 0.81639 0.70285 0.1425 0.0
H795 H 0.79655 0.6804 0.0937 0.0
H796 H 0.70682 0.67779 0.07446 0.0
H797 H 0.70002 0.70036 0.12372 0.0
C798 C 0.74069 0.71793 0.16549 0.0
C799 C 0.7642 0.72718 0.18504 0.0
C800 C 0.74438 0.70392 0.13737 0.0
C801 C 0.79142 0.72152 0.17645 0.0
C802 C 0.79516 0.70689 0.14862 0.0
C803 C 0.77553 0.68467 0.10039 0.0
C804 C 0.75227 0.67751 0.08045 0.0
C805 C 0.77184 0.69826 0.12878 0.0
C806 C 0.72515 0.68331 0.08934 0.0
C807 C 0.72119 0.69614 0.11754 0.0
H808 H 0.99328 0.01986 0.13292 0.0
H809 H 0.01429 0.11113 0.17824 0.0
H810 H 0.9848 0.09967 0.21697 0.0
H811 H 0.95437 0.06342 0.23914 0.0
H812 H 0.9378 0.97145 0.19629 0.0
H813 H 0.96441 0.98342 0.1557 0.0
C814 C 0.9918 0.03724 0.15138 0.0
C815 C 0.00597 0.0664 0.15232 0.0
C816 C 0.97548 0.03037 0.17413 0.0
C817 C 0.00321 0.08859 0.17641 0.0
C818 C 0.98647 0.08205 0.19879 0.0
C819 C 0.95634 0.04611 0.22074 0.0
C820 C 0.94397 0.01667 0.22052 0.0
C821 C 0.97255 0.05302 0.19793 0.0
C822 C 0.94711 0.99431 0.19685 0.0
C823 C 0.96237 0.00113 0.17369 0.0
H824 H 0.29627 0.80449 0.15081 0.0
H825 H 0.24455 0.8527 0.21015 0.0
H826 H 0.22095 0.86686 0.17119 0.0
H827 H 0.21979 0.87056 0.12088 0.0
H828 H 0.27389 0.82408 0.06243 0.0
H829 H 0.29148 0.80389 0.1001 0.0
C830 C 0.27927 0.81743 0.15499 0.0
C831 C 0.27185 0.82744 0.18299 0.0
C832 C 0.2665 0.82608 0.13263 0.0
C833 C 0.25024 0.84458 0.18853 0.0
C834 C 0.23696 0.85282 0.16631 0.0
C835 C 0.23497 0.85553 0.11632 0.0
C836 C 0.24573 0.8491 0.08896 0.0
C837 C 0.24557 0.84446 0.13834 0.0
C838 C 0.26548 0.82966 0.08338 0.0
C839 C 0.2756 0.81809 0.10492 0.0
H840 H 0.9934 0.51794 0.16617 0.0
H841 H 0.06056 0.50483 0.10662 0.0
H842 H 0.09661 0.52033 0.14548 0.0
H843 H 0.10943 0.53873 0.1965 0.0
H844 H 0.04297 0.55813 0.25479 0.0
H845 H 0.00633 0.53965 0.21621 0.0
C846 C 0.0159 0.51897 0.16142 0.0
C847 C 0.02396 0.50987 0.13328 0.0
C848 C 0.03673 0.52906 0.18374 0.0
C849 C 0.0534 0.51091 0.12801 0.0
C850 C 0.07417 0.52004 0.15024 0.0
C851 C 0.08688 0.53868 0.20064 0.0
C852 C 0.0787 0.54937 0.22831 0.0
C853 C 0.0661 0.52911 0.17819 0.0
C854 C 0.04959 0.54987 0.23355 0.0
C855 C 0.0287 0.53934 0.21154 0.0
H856 H 0.36007 0.74919 0.30065 0.0
H857 H 0.37481 0.84342 0.30514 0.0
H858 H 0.4175 0.84979 0.33558 0.0
H859 H 0.44972 0.8291 0.36264 0.0
H860 H 0.43092 0.73644 0.3638 0.0
H861 H 0.39005 0.72911 0.33012 0.0
C862 C 0.37209 0.77131 0.30865 0.0
C863 C 0.36386 0.79574 0.30032 0.0
C864 C 0.39587 0.77512 0.32736 0.0
C865 C 0.38065 0.82399 0.31046 0.0
C866 C 0.40501 0.82777 0.32821 0.0
C867 C 0.43671 0.80729 0.35534 0.0
C868 C 0.44334 0.78323 0.36531 0.0
C869 C 0.41272 0.80353 0.33689 0.0
C870 C 0.42613 0.7552 0.35627 0.0
C871 C 0.40285 0.75105 0.33704 0.0
H872 H 0.03364 0.45936 0.03552 0.0
H873 H 0.94692 0.41441 0.04173 0.0
H874 H 0.95667 0.37061 0.00813 0.0
H875 H 0.99053 0.34445 0.9786 0.0
H876 H 0.07722 0.38974 0.97242 0.0
H877 H 0.06697 0.43385 0.00495 0.0
C878 C 0.01685 0.43998 0.02944 0.0
C879 C 0.98963 0.44009 0.04116 0.0
C880 C 0.02274 0.41481 0.0105 0.0
C881 C 0.96795 0.41501 0.03278 0.0
C882 C 0.97362 0.38986 0.01382 0.0
C883 C 0.00725 0.3639 0.98453 0.0
C884 C 0.03471 0.36369 0.97332 0.0
C885 C 0.00107 0.38937 0.00288 0.0
C886 C 0.05596 0.38926 0.98083 0.0
C887 C 0.05009 0.41453 0.99936 0.0
H888 H 0.66805 0.73639 0.33413 0.0
H889 H 0.68185 0.80993 0.29307 0.0
H890 H 0.64451 0.8316 0.32104 0.0
H891 H 0.60563 0.82744 0.35457 0.0
H892 H 0.59138 0.75306 0.3949 0.0
H893 H 0.63131 0.73396 0.37003 0.0
C894 C 0.6631 0.75741 0.33176 0.0
C895 C 0.67747 0.77179 0.31189 0.0
C896 C 0.64142 0.76938 0.34758 0.0
C897 C 0.67098 0.79876 0.30853 0.0
C898 C 0.6496 0.811 0.32438 0.0
C899 C 0.61141 0.80719 0.35812 0.0
C900 C 0.59536 0.7916 0.37641 0.0
C901 C 0.63429 0.79619 0.34358 0.0
C902 C 0.60325 0.76545 0.38085 0.0
C903 C 0.62608 0.75447 0.36661 0.0
H904 H 0.00471 0.14605 0.03141 0.0
H905 H 0.09614 0.17179 0.04793 0.0
H906 H 0.09959 0.19997 0.01039 0.0
H907 H 0.0754 0.22134 0.97634 0.0
H908 H 0.9833 0.19692 0.96224 0.0
H909 H 0.98125 0.16401 0.99501 0.0
C910 C 0.02543 0.15734 0.02626 0.0
C911 C 0.05016 0.15687 0.04198 0.0
C912 C 0.02701 0.17398 0.00529 0.0
C913 C 0.0769 0.17178 0.03571 0.0
C914 C 0.0788 0.188 0.01443 0.0
C915 C 0.05499 0.20844 0.98013 0.0
C916 C 0.02952 0.2118 0.96705 0.0
C917 C 0.05386 0.18988 -0.00044 0.0
C918 C 0.0032 0.195 0.97224 0.0
C919 C 0.00197 0.17614 0.99099 0.0
H920 H 0.39096 0.32552 0.2899 0.0
H921 H 0.33456 0.31764 0.21716 0.0
H922 H 0.37539 0.31674 0.18646 0.0
H923 H 0.42625 0.31304 0.17943 0.0
H924 H 0.48142 0.31564 0.25153 0.0
H925 H 0.44183 0.32307 0.28313 0.0
C926 C 0.38745 0.32342 0.26732 0.0
C927 C 0.35948 0.32135 0.25598 0.0
C928 C 0.41084 0.3216 0.24954 0.0
C929 C 0.35574 0.3196 0.22671 0.0
C930 C 0.37909 0.31874 0.20901 0.0
C931 C 0.42971 0.31561 0.20211 0.0
C932 C 0.45674 0.3137 0.21309 0.0
C933 C 0.40661 0.31903 0.22009 0.0
C934 C 0.46078 0.31683 0.2425 0.0
C935 C 0.43816 0.3211 0.26059 0.0
H936 H 0.53757 0.45874 0.05973 0.0
H937 H 0.46699 0.40649 0.0044 0.0
H938 H 0.46643 0.36562 0.02826 0.0
H939 H 0.48413 0.34587 0.0662 0.0
H940 H 0.55499 0.39702 0.12197 0.0
H941 H 0.55758 0.43718 0.09655 0.0
C942 C 0.52239 0.4382 0.05283 0.0
C943 C 0.50234 0.4353 0.03047 0.0
C944 C 0.52216 0.4148 0.06679 0.0
C945 C 0.48262 0.4089 0.02157 0.0
C946 C 0.48224 0.38564 0.03524 0.0
C947 C 0.50024 0.36575 0.0728 0.0
C948 C 0.51915 0.3686 0.09611 0.0
C949 C 0.5016 0.38852 0.05811 0.0
C950 C 0.54013 0.39434 0.10411 0.0
C951 C 0.54157 0.41731 0.08963 0.0
H952 H 0.65441 0.20821 0.26631 0.0
H953 H 0.71532 0.25208 0.21617 0.0
H954 H 0.67751 0.27432 0.1988 0.0
H955 H 0.62626 0.2785 0.19567 0.0
H956 H 0.56538 0.23295 0.24502 0.0
H957 H 0.60389 0.21444 0.26512 0.0
C958 C 0.65931 0.22288 0.25178 0.0
C959 C 0.6873 0.22862 0.24238 0.0
C960 C 0.63744 0.23521 0.24173 0.0
C961 C 0.69373 0.2475 0.22358 0.0
C962 C 0.67214 0.26013 0.21366 0.0
C963 C 0.62153 0.26487 0.21111 0.0
C964 C 0.59295 0.25704 0.21872 0.0
C965 C 0.64379 0.2538 0.22227 0.0
C966 C 0.58715 0.2392 0.23865 0.0
C967 C 0.60916 0.22854 0.25016 0.0
H968 H 0.48025 0.13652 0.01037 0.0
H969 H 0.46363 0.08649 0.07529 0.0
H970 H 0.48092 0.13103 0.11201 0.0
H971 H 0.49749 0.18472 0.1257 0.0
H972 H 0.5109 0.23543 0.06084 0.0
H973 H 0.49826 0.19019 0.02406 0.0
C974 C 0.48092 0.13542 0.03255 0.0
C975 C 0.4709 0.10844 0.04026 0.0
C976 C 0.49004 0.16125 0.05352 0.0
C977 C 0.47132 0.10715 0.06902 0.0
C978 C 0.48112 0.13257 0.08995 0.0
C979 C 0.49795 0.18585 0.10351 0.0
C980 C 0.50506 0.21342 0.09605 0.0
C981 C 0.49002 0.15984 0.08248 0.0
C982 C 0.50532 0.21451 0.06719 0.0
C983 C 0.49813 0.18865 0.04612 0.0
H984 H 0.29663 0.37972 0.76229 0.0
H985 H 0.271 0.38793 0.67888 0.0
H986 H 0.29501 0.43937 0.68925 0.0
H987 H 0.32694 0.481 0.72058 0.0
H988 H 0.3477 0.47468 0.80564 0.0
H989 H 0.32131 0.42372 0.79628 0.0
C990 C 0.29552 0.39282 0.74657 0.0
C991 C 0.28276 0.37941 0.71946 0.0
C992 C 0.30867 0.42278 0.75292 0.0
C993 C 0.28168 0.39712 0.69953 0.0
C994 C 0.29523 0.42671 0.70548 0.0
C995 C 0.32527 0.46848 0.73709 0.0
C996 C 0.33937 0.48118 0.76358 0.0
C997 C 0.30951 0.43952 0.73179 0.0
C998 C 0.33691 0.46514 0.78506 0.0
C999 C 0.32195 0.43603 0.77969 0.0
H1000 H 0.26707 0.69713 0.82554 0.0
H1001 H 0.30864 0.72572 0.75424 0.0
H1002 H 0.33915 0.68838 0.75087 0.0
H1003 H 0.35495 0.64828 0.76908 0.0
H1004 H 0.31475 0.62233 0.84219 0.0
H1005 H 0.28346 0.65854 0.84435 0.0
C1006 C 0.28304 0.69556 0.80945 0.0
C1007 C 0.28552 0.71441 0.79027 0.0
C1008 C 0.30101 0.67461 0.80809 0.0
C1009 C 0.3059 0.71133 0.76911 0.0
C1010 C 0.32358 0.69013 0.76731 0.0
C1011 C 0.33939 0.65063 0.78551 0.0
C1012 C 0.33728 0.6326 0.80545 0.0
C1013 C 0.32145 0.67175 0.78681 0.0
C1014 C 0.31698 0.63595 0.82662 0.0
C1015 C 0.29897 0.65661 0.82785 0.0
H1016 H 0.88722 0.52918 0.51797 0.0
H1017 H 0.93825 0.46733 0.53573 0.0
H1018 H 0.89445 0.43214 0.53958 0.0
H1019 H 0.84165 0.41859 0.53666 0.0
H1020 H 0.791 0.4804 0.51767 0.0
H1021 H 0.83468 0.51609 0.51588 0.0
C1022 C 0.88873 0.50815 0.52304 0.0
C1023 C 0.91587 0.50087 0.52664 0.0
C1024 C 0.86355 0.48801 0.52495 0.0
C1025 C 0.91755 0.47332 0.53268 0.0
C1026 C 0.89255 0.45326 0.53496 0.0
C1027 C 0.84015 0.43993 0.5323 0.0
C1028 C 0.81306 0.44675 0.52727 0.0
C1029 C 0.86542 0.46029 0.53094 0.0
C1030 C 0.81155 0.47448 0.5215 0.0
C1031 C 0.83653 0.49495 0.52048 0.0
H1032 H 0.72387 0.87698 0.79158 0.0
H1033 H 0.78159 0.91032 0.86499 0.0
H1034 H 0.77245 0.96044 0.86749 0.0
H1035 H 0.74528 0.99386 0.85087 0.0
H1036 H 0.68722 0.96066 0.77744 0.0
H1037 H 0.69933 0.91149 0.77266 0.0
C1038 C 0.73477 0.89542 0.80774 0.0
C1039 C 0.75345 0.89034 0.82801 0.0
C1040 C 0.72912 0.92405 0.80917 0.0
C1041 C 0.76731 0.91403 0.8491 0.0
C1042 C 0.76195 0.94258 0.8506 0.0
C1043 C 0.7354 0.97593 0.83369 0.0
C1044 C 0.71515 0.9809 0.81471 0.0
C1045 C 0.74246 0.94773 0.8311 0.0
C1046 C 0.7028 0.95746 0.7924 0.0
C1047 C 0.70968 0.92929 0.78968 0.0
H1048 H 0.59764 0.51319 0.93108 0.0
H1049 H 0.58786 0.53562 0.02157 0.0
H1050 H 0.63917 0.55558 0.02898 0.0
H1051 H 0.68535 0.57195 0.00952 0.0
H1052 H 0.69583 0.55037 0.91916 0.0
H1053 H 0.64574 0.52453 0.91187 0.0
C1054 C 0.60688 0.52213 0.95241 0.0
C1055 C 0.58896 0.52317 0.97572 0.0
C1056 C 0.63641 0.53393 0.9565 0.0
C1057 C 0.60121 0.53439 0.00329 0.0
C1058 C 0.63051 0.54604 0.00754 0.0
C1059 C 0.67678 0.56125 0.98824 0.0
C1060 C 0.69405 0.56342 0.96487 0.0
C1061 C 0.64808 0.54671 0.98426 0.0
C1062 C 0.68289 0.54904 0.93748 0.0
C1063 C 0.65423 0.53445 0.93331 0.0
H1064 H 0.29815 0.70869 0.26544 0.0
H1065 H 0.23131 0.75946 0.26161 0.0
H1066 H 0.19491 0.71714 0.26708 0.0
H1067 H 0.18275 0.66682 0.2764 0.0
H1068 H 0.25097 0.61799 0.2825 0.0
H1069 H 0.28621 0.65876 0.27327 0.0
C1070 C 0.2756 0.71057 0.26589 0.0
C1071 C 0.26746 0.7373 0.26356 0.0
C1072 C 0.25509 0.68662 0.2698 0.0
C1073 C 0.23812 0.73911 0.26334 0.0
C1074 C 0.21736 0.71501 0.26671 0.0
C1075 C 0.20531 0.66507 0.27562 0.0
C1076 C 0.21415 0.63939 0.28039 0.0
C1077 C 0.22568 0.68883 0.27052 0.0
C1078 C 0.2435 0.63751 0.27919 0.0
C1079 C 0.26372 0.6608 0.27382 0.0
H1080 H 0.90356 0.51254 0.01671 0.0
H1081 H 0.89093 0.5664 0.09832 0.0
H1082 H 0.8607 0.59313 0.07615 0.0
H1083 H 0.8361 0.59962 0.03391 0.0
H1084 H 0.84835 0.5459 0.9519 0.0
H1085 H 0.88056 0.52092 0.97368 0.0
C1086 C 0.89432 0.53033 0.02943 0.0
C1087 C 0.89926 0.53768 0.05897 0.0
C1088 C 0.87686 0.54554 0.01649 0.0
C1089 C 0.88729 0.56057 0.07548 0.0
C1090 C 0.87 0.57578 0.06284 0.0
C1091 C 0.84596 0.5826 0.02074 0.0
C1092 C 0.83967 0.57459 0.99133 0.0
C1093 C 0.86437 0.56824 0.03341 0.0
C1094 C 0.85277 0.55253 0.97461 0.0
C1095 C 0.87116 0.53814 0.98706 0.0
H1096 H 0.08696 0.02579 0.11186 0.0
H1097 H 0.0669 0.04939 0.03347 0.0
H1098 H 0.09822 0.01737 0.00834 0.0
H1099 H 0.13227 0.98366 0.00871 0.0
H1100 H 0.15063 0.95822 0.08651 0.0
H1101 H 0.11826 0.98929 0.11153 0.0
C1102 C 0.08894 0.02359 0.08919 0.0
C1103 C 0.07462 0.04032 0.07474 0.0
C1104 C 0.10662 0.00468 0.07468 0.0
C1105 C 0.07804 0.03739 0.04537 0.0
C1106 C 0.0958 0.01886 0.03088 0.0
C1107 C 0.12906 0.98473 0.0311 0.0
C1108 C 0.14399 0.96874 0.04573 0.0
C1109 C 0.11039 0.00262 0.04536 0.0
C1110 C 0.1394 0.97025 0.0747 0.0
C1111 C 0.12097 0.98813 0.08907 0.0
loop_
_geom_bond_atom_site_label_1
_geom_bond_atom_site_label_2
_geom_bond_distance
_geom_bond_site_symmetry_2
_ccdc_geom_bond_type
H0 C3 0.929 . S
H1 C6 0.929 . S
H2 C8 0.930 . S
C3 H0 0.929 . S
C3 C4 1.398 . S
C3 C5 1.396 . S
C4 C3 1.398 . S
C4 C8 1.407 . S
C5 C3 1.396 . S
C5 C6 1.394 . S
C6 H1 0.929 . S
C6 C5 1.394 . S
C6 C7 1.382 . S
C7 C6 1.382 . S
C7 C8 1.392 . S
C7 N9 1.420 . S
C8 H2 0.930 . S
C8 C4 1.407 . S
C8 C7 1.392 . S
N9 C7 1.420 . S
N9 C10 1.244 . S
C10 N9 1.244 . S
H11 C14 0.929 . S
H12 C17 0.929 . S
H13 C19 0.930 . S
C14 H11 0.929 . S
C14 C15 1.398 . S
C14 C16 1.396 . S
C15 C14 1.398 . S
C15 C19 1.407 . S
C16 C14 1.396 . S
C16 C17 1.394 . S
C17 H12 0.929 . S
C17 C16 1.394 . S
C17 C18 1.382 . S
C18 C17 1.382 . S
C18 C19 1.392 . S
C18 N20 1.420 . S
C19 H13 0.930 . S
C19 C15 1.407 . S
C19 C18 1.392 . S
N20 C18 1.420 . S
N20 C21 1.244 . S
C21 N20 1.244 . S
H22 C25 0.929 . S
H23 C28 0.929 . S
H24 C30 0.930 . S
C25 H22 0.929 . S
C25 C26 1.398 . S
C25 C27 1.396 . S
C26 C25 1.398 . S
C26 C30 1.407 . S
C27 C25 1.396 . S
C27 C28 1.394 . S
C28 H23 0.929 . S
C28 C27 1.394 . S
C28 C29 1.382 . S
C29 C28 1.382 . S
C29 C30 1.392 . S
C29 N31 1.420 . S
C30 H24 0.930 . S
C30 C26 1.407 . S
C30 C29 1.392 . S
N31 C29 1.420 . S
N31 C32 1.244 . S
C32 N31 1.244 . S
H33 C36 0.929 . S
H34 C39 0.929 . S
H35 C41 0.930 . S
C36 H33 0.929 . S
C36 C37 1.398 . S
C36 C38 1.396 . S
C37 C36 1.398 . S
C37 C41 1.407 . S
C38 C36 1.396 . S
C38 C39 1.394 . S
C39 H34 0.929 . S
C39 C38 1.394 . S
C39 C40 1.382 . S
C40 C39 1.382 . S
C40 C41 1.392 . S
C40 N42 1.420 . S
C41 H35 0.930 . S
C41 C37 1.407 . S
C41 C40 1.392 . S
N42 C40 1.420 . S
N42 C43 1.244 . S
C43 N42 1.244 . S
H44 C47 0.905 1_545 S
H45 C50 0.929 . S
H46 C52 0.930 . S
C47 H44 0.905 1_565 S
C47 C48 1.398 . S
C47 C49 1.396 . S
C48 C47 1.398 . S
C48 C52 1.407 . S
C49 C47 1.396 . S
C49 C50 1.394 . S
C50 H45 0.929 . S
C50 C49 1.394 . S
C50 C51 1.382 . S
C51 C50 1.382 . S
C51 C52 1.392 . S
C51 N53 1.420 . S
C52 H46 0.930 . S
C52 C48 1.407 . S
C52 C51 1.392 . S
N53 C51 1.420 . S
N53 C54 1.244 . S
C54 N53 1.244 . S
H55 C58 0.929 . S
H56 C61 0.929 . S
H57 C63 0.930 . S
C58 H55 0.929 . S
C58 C59 1.398 . S
C58 C60 1.396 . S
C59 C58 1.398 . S
C59 C63 1.407 . S
C60 C58 1.396 . S
C60 C61 1.394 . S
C61 H56 0.929 . S
C61 C60 1.394 . S
C61 C62 1.382 . S
C62 C61 1.382 . S
C62 C63 1.392 . S
C62 N64 1.420 . S
C63 H57 0.930 . S
C63 C59 1.407 . S
C63 C62 1.392 . S
N64 C62 1.420 . S
N64 C65 1.244 . S
C65 N64 1.244 . S
H66 C69 0.929 . S
H67 C72 0.929 . S
H68 C74 0.930 . S
C69 H66 0.929 . S
C69 C70 1.398 . S
C69 C71 1.396 . S
C70 C69 1.398 . S
C70 C74 1.407 . S
C71 C69 1.396 . S
C71 C72 1.394 . S
C72 H67 0.929 . S
C72 C71 1.394 . S
C72 C73 1.382 . S
C73 C72 1.382 . S
C73 C74 1.392 . S
C73 N75 1.420 . S
C74 H68 0.930 . S
C74 C70 1.407 . S
C74 C73 1.392 . S
N75 C73 1.420 . S
N75 C76 1.244 . S
C76 N75 1.244 . S
H77 C80 0.929 . S
H78 C83 0.929 . S
H79 C85 0.930 . S
C80 H77 0.929 . S
C80 C81 1.398 . S
C80 C82 1.396 . S
C81 C80 1.398 . S
C81 C85 1.407 . S
C82 C80 1.396 . S
C82 C83 1.394 . S
C83 H78 0.929 . S
C83 C82 1.394 . S
C83 C84 1.382 . S
C84 C83 1.382 . S
C84 C85 1.392 . S
C84 N86 1.420 . S
C85 H79 0.930 . S
C85 C81 1.407 . S
C85 C84 1.392 . S
N86 C84 1.420 . S
N86 C87 1.244 . S
C87 N86 1.244 . S
H88 C91 0.929 . S
H89 C94 0.929 . S
H90 C96 0.930 . S
C91 H88 0.929 . S
C91 C92 1.398 . S
C91 C93 1.396 . S
C92 C91 1.398 . S
C92 C96 1.407 . S
C93 C91 1.396 . S
C93 C94 1.394 . S
C94 H89 0.929 . S
C94 C93 1.394 . S
C94 C95 1.382 . S
C95 C94 1.382 . S
C95 C96 1.392 . S
C95 N97 1.420 . S
C96 H90 0.930 . S
C96 C92 1.407 . S
C96 C95 1.392 . S
N97 C95 1.420 . S
N97 C98 1.244 . S
C98 N97 1.244 . S
H99 C102 0.929 . S
H100 C105 0.929 . S
H101 C107 0.930 . S
C102 H99 0.929 . S
C102 C103 1.398 . S
C102 C104 1.396 . S
C103 C102 1.398 . S
C103 C107 1.407 . S
C104 C102 1.396 . S
C104 C105 1.394 . S
C105 H100 0.929 . S
C105 C104 1.394 . S
C105 C106 1.382 . S
C106 C105 1.382 . S
C106 C107 1.392 . S
C106 N108 1.420 . S
C107 H101 0.930 . S
C107 C103 1.407 . S
C107 C106 1.392 . S
N108 C106 1.420 . S
N108 C109 1.244 . S
C109 N108 1.244 . S
H110 C113 0.929 . S
H111 C116 0.929 . S
H112 C118 0.930 . S
C113 H110 0.929 . S
C113 C114 1.398 . S
C113 C115 1.396 . S
C114 C113 1.398 . S
C114 C118 1.407 . S
C115 C113 1.396 . S
C115 C116 1.394 . S
C116 H111 0.929 . S
C116 C115 1.394 . S
C116 C117 1.382 . S
C117 C116 1.382 . S
C117 C118 1.392 . S
C117 N119 1.420 . S
C118 H112 0.930 . S
C118 C114 1.407 . S
C118 C117 1.392 . S
N119 C117 1.420 . S
N119 C120 1.244 . S
C120 N119 1.244 . S
H121 C124 0.929 . S
H122 C127 0.929 . S
H123 C129 0.930 . S
C124 H121 0.929 . S
C124 C125 1.398 . S
C124 C126 1.396 . S
C125 C124 1.398 . S
C125 C129 1.407 . S
C126 C124 1.396 . S
C126 C127 1.394 . S
C127 H122 0.929 . S
C127 C126 1.394 . S
C127 C128 1.382 . S
C128 C127 1.382 . S
C128 C129 1.392 . S
C128 N130 1.420 . S
C129 H123 0.930 . S
C129 C125 1.407 . S
C129 C128 1.392 . S
N130 C128 1.420 . S
N130 C131 1.244 . S
C131 N130 1.244 . S
H132 C135 0.929 . S
H133 C138 0.929 . S
H134 C140 0.930 . S
C135 H132 0.929 . S
C135 C136 1.398 . S
C135 C137 1.396 . S
C136 C135 1.398 . S
C136 C140 1.407 . S
C137 C135 1.396 . S
C137 C138 1.394 . S
C138 H133 0.929 . S
C138 C137 1.394 . S
C138 C139 1.382 . S
C139 C138 1.382 . S
C139 C140 1.392 . S
C139 N141 1.420 . S
C140 H134 0.930 . S
C140 C136 1.407 . S
C140 C139 1.392 . S
N141 C139 1.420 . S
N141 C142 1.244 . S
C142 N141 1.244 . S
H143 C146 0.929 . S
H144 C149 0.929 . S
H145 C151 0.930 . S
C146 H143 0.929 . S
C146 C147 1.398 . S
C146 C148 1.396 . S
C147 C146 1.398 . S
C147 C151 1.407 . S
C148 C146 1.396 . S
C148 C149 1.394 . S
C149 H144 0.929 . S
C149 C148 1.394 . S
C149 C150 1.382 . S
C150 C149 1.382 . S
C150 C151 1.392 . S
C150 N152 1.420 . S
C151 H145 0.930 . S
C151 C147 1.407 . S
C151 C150 1.392 . S
N152 C150 1.420 . S
N152 C153 1.244 . S
C153 N152 1.244 . S
H154 C157 0.929 . S
H155 C160 0.929 . S
H156 C162 0.930 . S
C157 H154 0.929 . S
C157 C158 1.398 . S
C157 C159 1.396 . S
C158 C157 1.398 . S
C158 C162 1.407 . S
C159 C157 1.396 . S
C159 C160 1.394 . S
C160 H155 0.929 . S
C160 C159 1.394 . S
C160 C161 1.382 . S
C161 C160 1.382 . S
C161 C162 1.392 . S
C161 N163 1.420 . S
C162 H156 0.930 . S
C162 C158 1.407 . S
C162 C161 1.392 . S
N163 C161 1.420 . S
N163 C164 1.244 . S
C164 N163 1.244 . S
H165 C168 0.929 . S
H166 C171 0.929 . S
H167 C173 0.930 . S
C168 H165 0.929 . S
C168 C169 1.398 . S
C168 C170 1.396 . S
C169 C168 1.398 . S
C169 C173 1.407 . S
C170 C168 1.396 . S
C170 C171 1.394 . S
C171 H166 0.929 . S
C171 C170 1.394 . S
C171 C172 1.382 . S
C172 C171 1.382 . S
C172 C173 1.392 . S
C172 N174 1.420 . S
C173 H167 0.930 . S
C173 C169 1.407 . S
C173 C172 1.392 . S
N174 C172 1.420 . S
N174 C175 1.244 . S
C175 N174 1.244 . S
O176 Cd177 2.223 . S
O176 C184 1.315 . S
Cd177 O176 2.223 . S
Cd177 O180 2.297 . S
Cd177 O181 2.439 . S
Cd177 O187 2.240 . S
Cd178 O179 2.240 . S
Cd178 O186 2.223 . S
Cd178 O188 2.297 1_565 S
Cd178 O189 2.439 . S
O179 Cd178 2.240 . S
O179 C184 1.279 . S
O180 Cd177 2.297 . S
O180 C182 1.247 . S
O181 Cd177 2.439 . S
O181 C182 1.208 . S
C182 O180 1.247 . S
C182 O181 1.208 . S
C183 O188 1.257 . S
C183 O189 1.181 1_545 S
C184 O176 1.315 . S
C184 O179 1.279 . S
C185 O186 1.315 . S
C185 O187 1.279 . S
O186 Cd178 2.223 . S
O186 C185 1.315 . S
O187 Cd177 2.240 . S
O187 C185 1.279 . S
O188 Cd178 2.297 1_545 S
O188 C183 1.257 . S
O189 Cd178 2.439 . S
O189 C183 1.181 1_565 S
O190 Cd191 2.223 . S
O190 C198 1.315 . S
Cd191 O190 2.223 . S
Cd191 O194 2.297 . S
Cd191 O195 2.439 . S
Cd191 O201 2.240 . S
Cd192 O193 2.240 . S
Cd192 O200 2.223 . S
Cd192 O202 2.297 . S
Cd192 O203 2.439 . S
O193 Cd192 2.240 . S
O193 C198 1.279 . S
O194 Cd191 2.297 . S
O194 C196 1.247 . S
O195 Cd191 2.439 . S
O195 C196 1.208 . S
C196 O194 1.247 . S
C196 O195 1.208 . S
C197 O202 1.247 . S
C197 O203 1.208 . S
C198 O190 1.315 . S
C198 O193 1.279 . S
C199 O200 1.315 . S
C199 O201 1.279 . S
O200 Cd192 2.223 . S
O200 C199 1.315 . S
O201 Cd191 2.240 . S
O201 C199 1.279 . S
O202 Cd192 2.297 . S
O202 C197 1.247 . S
O203 Cd192 2.439 . S
O203 C197 1.208 . S
O204 Cd205 2.223 1_556 S
O204 C212 1.315 . S
Cd205 O204 2.223 1_554 S
Cd205 O208 2.297 . S
Cd205 O209 2.439 . S
Cd205 O215 2.240 1_554 S
Cd206 O207 2.240 . S
Cd206 O214 2.223 . S
Cd206 O216 2.297 . S
Cd206 O217 2.439 1_556 S
O207 Cd206 2.240 . S
O207 C212 1.279 . S
O208 Cd205 2.297 . S
O208 C210 1.247 . S
O209 Cd205 2.439 . S
O209 C210 1.208 . S
C210 O208 1.247 . S
C210 O209 1.208 . S
C211 O216 1.247 1_554 S
C211 O217 1.208 . S
C212 O204 1.315 . S
C212 O207 1.279 . S
C213 O214 1.315 . S
C213 O215 1.279 . S
O214 Cd206 2.223 . S
O214 C213 1.315 . S
O215 Cd205 2.240 1_556 S
O215 C213 1.279 . S
O216 Cd206 2.297 . S
O216 C211 1.247 1_556 S
O217 Cd206 2.439 1_554 S
O217 C211 1.208 . S
O218 Cd219 2.223 . S
O218 C226 1.315 . S
Cd219 O218 2.223 . S
Cd219 O222 2.330 . S
Cd219 O223 2.439 . S
Cd219 O229 2.240 . S
Cd220 O221 2.240 . S
Cd220 O228 2.223 . S
Cd220 O230 2.297 . S
Cd220 O231 2.439 . S
O221 Cd220 2.240 . S
O221 C226 1.279 . S
O222 Cd219 2.330 . S
O222 C224 1.261 . S
O223 Cd219 2.439 . S
O223 C224 1.208 . S
C224 O222 1.261 . S
C224 O223 1.208 . S
C225 O230 1.247 . S
C225 O231 1.208 . S
C226 O218 1.315 . S
C226 O221 1.279 . S
C227 O228 1.315 . S
C227 O229 1.279 . S
O228 Cd220 2.223 . S
O228 C227 1.315 . S
O229 Cd219 2.240 . S
O229 C227 1.279 . S
O230 Cd220 2.297 . S
O230 C225 1.247 . S
O231 Cd220 2.439 . S
O231 C225 1.208 . S
O232 Cd233 2.223 . S
O232 C240 1.315 . S
Cd233 O232 2.223 . S
Cd233 O236 2.297 . S
Cd233 O237 2.439 . S
Cd233 O243 2.240 . S
Cd234 O235 2.240 . S
Cd234 O242 2.223 . S
Cd234 O244 2.297 . S
Cd234 O245 2.439 . S
O235 Cd234 2.240 . S
O235 C240 1.279 . S
O236 Cd233 2.297 . S
O236 C238 1.247 . S
O237 Cd233 2.439 . S
O237 C238 1.208 . S
C238 O236 1.247 . S
C238 O237 1.208 . S
C239 O244 1.247 . S
C239 O245 1.208 . S
C240 O232 1.315 . S
C240 O235 1.279 . S
C241 O242 1.315 . S
C241 O243 1.279 . S
O242 Cd234 2.223 . S
O242 C241 1.315 . S
O243 Cd233 2.240 . S
O243 C241 1.279 . S
O244 Cd234 2.297 . S
O244 C239 1.247 . S
O245 Cd234 2.439 . S
O245 C239 1.208 . S
O246 Cd247 2.223 . S
O246 C254 1.315 . S
Cd247 O246 2.223 . S
Cd247 O250 2.297 . S
Cd247 O251 2.439 . S
Cd247 O257 2.240 . S
Cd248 O249 2.240 . S
Cd248 O256 2.223 . S
Cd248 O258 2.297 . S
Cd248 O259 2.439 . S
O249 Cd248 2.240 . S
O249 C254 1.279 . S
O250 Cd247 2.297 . S
O250 C252 1.247 . S
O251 Cd247 2.439 . S
O251 C252 1.208 . S
C252 O250 1.247 . S
C252 O251 1.208 . S
C253 O258 1.247 . S
C253 O259 1.208 . S
C254 O246 1.315 . S
C254 O249 1.279 . S
C255 O256 1.315 . S
C255 O257 1.279 . S
O256 Cd248 2.223 . S
O256 C255 1.315 . S
O257 Cd247 2.240 . S
O257 C255 1.279 . S
O258 Cd248 2.297 . S
O258 C253 1.247 . S
O259 Cd248 2.439 . S
O259 C253 1.208 . S
O260 Cd261 2.223 . S
O260 C268 1.315 . S
Cd261 O260 2.223 . S
Cd261 O264 2.297 . S
Cd261 O265 2.439 . S
Cd261 O271 2.240 . S
Cd262 O263 2.240 . S
Cd262 O270 2.223 . S
Cd262 O272 2.297 . S
Cd262 O273 2.439 . S
O263 Cd262 2.240 . S
O263 C268 1.279 . S
O264 Cd261 2.297 . S
O264 C266 1.247 . S
O265 Cd261 2.439 . S
O265 C266 1.208 . S
C266 O264 1.247 . S
C266 O265 1.208 . S
C267 O272 1.247 . S
C267 O273 1.208 . S
C268 O260 1.315 . S
C268 O263 1.279 . S
C269 O270 1.315 . S
C269 O271 1.279 . S
O270 Cd262 2.223 . S
O270 C269 1.315 . S
O271 Cd261 2.240 . S
O271 C269 1.279 . S
O272 Cd262 2.297 . S
O272 C267 1.247 . S
O273 Cd262 2.439 . S
O273 C267 1.208 . S
O274 Cd275 2.223 1_545 S
O274 C282 1.315 . S
Cd275 O274 2.223 1_565 S
Cd275 O278 2.297 . S
Cd275 O279 2.439 . S
Cd275 O285 2.240 1_565 S
Cd276 O277 2.240 . S
Cd276 O284 2.223 . S
Cd276 O286 2.297 . S
Cd276 O287 2.439 1_545 S
O277 Cd276 2.240 . S
O277 C282 1.279 . S
O278 Cd275 2.297 . S
O278 C280 1.247 . S
O279 Cd275 2.439 . S
O279 C280 1.208 . S
C280 O278 1.247 . S
C280 O279 1.208 . S
C281 O286 1.247 1_565 S
C281 O287 1.208 . S
C282 O274 1.315 . S
C282 O277 1.279 . S
C283 O284 1.315 . S
C283 O285 1.279 . S
O284 Cd276 2.223 . S
O284 C283 1.315 . S
O285 Cd275 2.240 1_545 S
O285 C283 1.279 . S
O286 Cd276 2.297 . S
O286 C281 1.247 1_545 S
O287 Cd276 2.439 1_565 S
O287 C281 1.208 . S
O288 Cd289 2.223 . S
O288 C296 1.315 . S
Cd289 O288 2.223 . S
Cd289 O292 2.297 1_655 S
Cd289 O293 2.439 1_655 S
Cd289 O299 2.240 . S
Cd290 O291 2.240 . S
Cd290 O298 2.223 1_455 S
Cd290 O300 2.297 . S
Cd290 O301 2.439 . S
O291 Cd290 2.240 . S
O291 C296 1.279 1_455 S
O292 Cd289 2.297 1_455 S
O292 C294 1.247 . S
O293 Cd289 2.439 1_455 S
O293 C294 1.208 . S
C294 O292 1.247 . S
C294 O293 1.208 . S
C295 O300 1.247 . S
C295 O301 1.208 . S
C296 O288 1.315 . S
C296 O291 1.279 1_655 S
C297 O298 1.315 . S
C297 O299 1.279 . S
O298 Cd290 2.223 1_655 S
O298 C297 1.315 . S
O299 Cd289 2.240 . S
O299 C297 1.279 . S
O300 Cd290 2.297 . S
O300 C295 1.247 . S
O301 Cd290 2.439 . S
O301 C295 1.208 . S
O302 Cd303 2.223 . S
O302 C310 1.315 . S
Cd303 O302 2.223 . S
Cd303 O306 2.297 . S
Cd303 O307 2.439 . S
Cd303 O313 2.240 . S
Cd304 O305 2.240 . S
Cd304 O312 2.223 . S
Cd304 O314 2.297 . S
Cd304 O315 2.439 . S
O305 Cd304 2.240 . S
O305 C310 1.279 . S
O306 Cd303 2.297 . S
O306 C308 1.247 . S
O307 Cd303 2.439 . S
O307 C308 1.208 . S
C308 O306 1.247 . S
C308 O307 1.208 . S
C309 O314 1.247 . S
C309 O315 1.208 . S
C310 O302 1.315 . S
C310 O305 1.279 . S
C311 O312 1.315 . S
C311 O313 1.279 . S
O312 Cd304 2.223 . S
O312 C311 1.315 . S
O313 Cd303 2.240 . S
O313 C311 1.279 . S
O314 Cd304 2.297 . S
O314 C309 1.247 . S
O315 Cd304 2.439 . S
O315 C309 1.208 . S
O316 Cd317 2.223 1_655 S
O316 C324 1.315 . S
Cd317 O316 2.223 1_455 S
Cd317 O320 2.297 . S
Cd317 O321 2.439 . S
Cd317 O327 2.240 . S
Cd318 O319 2.240 . S
Cd318 O326 2.223 . S
Cd318 O328 2.297 1_655 S
Cd318 O329 2.439 1_655 S
O319 Cd318 2.240 . S
O319 C324 1.279 . S
O320 Cd317 2.297 . S
O320 C322 1.247 . S
O321 Cd317 2.439 . S
O321 C322 1.208 . S
C322 O320 1.247 . S
C322 O321 1.208 . S
C323 O328 1.247 . S
C323 O329 1.208 . S
C324 O316 1.315 . S
C324 O319 1.279 . S
C325 O326 1.315 . S
C325 O327 1.279 1_655 S
O326 Cd318 2.223 . S
O326 C325 1.315 . S
O327 Cd317 2.240 . S
O327 C325 1.279 1_455 S
O328 Cd318 2.297 1_455 S
O328 C323 1.247 . S
O329 Cd318 2.439 1_455 S
O329 C323 1.208 . S
O330 Cd331 2.223 . S
O330 C338 1.315 . S
Cd331 O330 2.223 . S
Cd331 O334 2.297 . S
Cd331 O335 2.439 . S
Cd331 O341 2.240 . S
Cd332 O333 2.240 . S
Cd332 O340 2.223 . S
Cd332 O342 2.297 . S
Cd332 O343 2.439 . S
O333 Cd332 2.240 . S
O333 C338 1.279 . S
O334 Cd331 2.297 . S
O334 C336 1.247 . S
O335 Cd331 2.439 . S
O335 C336 1.208 . S
C336 O334 1.247 . S
C336 O335 1.208 . S
C337 O342 1.247 . S
C337 O343 1.208 . S
C338 O330 1.315 . S
C338 O333 1.279 . S
C339 O340 1.315 . S
C339 O341 1.279 . S
O340 Cd332 2.223 . S
O340 C339 1.315 . S
O341 Cd331 2.240 . S
O341 C339 1.279 . S
O342 Cd332 2.297 . S
O342 C337 1.247 . S
O343 Cd332 2.439 . S
O343 C337 1.208 . S
H344 C350 0.930 . S
H345 C353 0.930 . S
H346 C354 0.930 . S
H347 C355 0.930 . S
H348 C358 0.917 1_554 S
H349 C359 0.930 . S
C350 H344 0.930 . S
C350 C351 1.355 . S
C350 C352 1.415 . S
C351 C350 1.355 . S
C351 C353 1.419 . S
C352 C350 1.415 . S
C352 C357 1.425 . S
C352 C359 1.409 . S
C353 H345 0.930 . S
C353 C351 1.419 . S
C353 C354 1.362 . S
C354 H346 0.930 . S
C354 C353 1.362 . S
C354 C357 1.409 . S
C355 H347 0.930 . S
C355 C356 1.355 1_556 S
C355 C357 1.415 . S
C356 C355 1.355 1_554 S
C356 C358 1.418 1_554 S
C357 C352 1.425 . S
C357 C354 1.409 . S
C357 C355 1.415 . S
C358 H348 0.917 1_556 S
C358 C356 1.418 1_556 S
C358 C359 1.376 . S
C359 H349 0.930 . S
C359 C352 1.409 . S
C359 C358 1.376 . S
H360 C366 0.930 . S
H361 C369 0.930 . S
H362 C370 0.930 . S
H363 C371 0.930 . S
H364 C374 0.930 . S
H365 C375 0.930 . S
C366 H360 0.930 . S
C366 C367 1.355 1_455 S
C366 C368 1.415 . S
C367 C366 1.355 1_655 S
C367 C369 1.419 . S
C368 C366 1.415 . S
C368 C373 1.425 . S
C368 C375 1.409 . S
C369 H361 0.930 . S
C369 C367 1.419 . S
C369 C370 1.362 . S
C370 H362 0.930 . S
C370 C369 1.362 . S
C370 C373 1.409 1_655 S
C371 H363 0.930 . S
C371 C372 1.355 . S
C371 C373 1.415 . S
C372 C371 1.355 . S
C372 C374 1.419 . S
C373 C368 1.425 . S
C373 C370 1.409 1_455 S
C373 C371 1.415 . S
C374 H364 0.930 . S
C374 C372 1.419 . S
C374 C375 1.362 . S
C375 H365 0.930 . S
C375 C368 1.409 . S
C375 C374 1.362 . S
H376 C382 0.930 . S
H377 C385 0.930 . S
H378 C386 0.930 . S
H379 C387 0.930 . S
H380 C390 0.930 . S
H381 C391 0.930 . S
C382 H376 0.930 . S
C382 C383 1.355 . S
C382 C384 1.415 . S
C383 C382 1.355 . S
C383 C385 1.419 . S
C384 C382 1.415 . S
C384 C389 1.425 . S
C384 C391 1.409 . S
C385 H377 0.930 . S
C385 C383 1.419 . S
C385 C386 1.362 . S
C386 H378 0.930 . S
C386 C385 1.362 . S
C386 C389 1.409 . S
C387 H379 0.930 . S
C387 C388 1.355 . S
C387 C389 1.415 . S
C388 C387 1.355 . S
C388 C390 1.419 . S
C389 C384 1.425 . S
C389 C386 1.409 . S
C389 C387 1.415 . S
C390 H380 0.930 . S
C390 C388 1.419 . S
C390 C391 1.362 . S
C391 H381 0.930 . S
C391 C384 1.409 . S
C391 C390 1.362 . S
H392 C398 0.930 . S
H393 C401 0.930 . S
H394 C402 0.930 . S
H395 C403 0.930 . S
H396 C406 0.930 1_565 S
H397 C407 0.930 . S
C398 H392 0.930 . S
C398 C399 1.355 . S
C398 C400 1.415 . S
C399 C398 1.355 . S
C399 C401 1.419 1_565 S
C400 C398 1.415 . S
C400 C405 1.425 1_565 S
C400 C407 1.409 1_455 S
C401 H393 0.930 . S
C401 C399 1.419 1_545 S
C401 C402 1.362 . S
C402 H394 0.930 . S
C402 C401 1.362 . S
C402 C405 1.409 . S
C403 H395 0.930 . S
C403 C404 1.355 1_455 S
C403 C405 1.415 . S
C404 C403 1.355 1_655 S
C404 C406 1.419 . S
C405 C400 1.425 1_545 S
C405 C402 1.409 . S
C405 C403 1.415 . S
C406 H396 0.930 1_545 S
C406 C404 1.419 . S
C406 C407 1.362 1_545 S
C407 H397 0.930 . S
C407 C400 1.409 1_655 S
C407 C406 1.362 1_565 S
H408 C414 0.930 . S
H409 C417 0.930 . S
H410 C418 0.930 . S
H411 C419 0.930 . S
H412 C422 0.930 . S
H413 C423 0.930 . S
C414 H408 0.930 . S
C414 C415 1.355 . S
C414 C416 1.415 . S
C415 C414 1.355 . S
C415 C417 1.419 . S
C416 C414 1.415 . S
C416 C421 1.425 . S
C416 C423 1.409 . S
C417 H409 0.930 . S
C417 C415 1.419 . S
C417 C418 1.362 . S
C418 H410 0.930 . S
C418 C417 1.362 . S
C418 C421 1.409 . S
C419 H411 0.930 . S
C419 C420 1.355 . S
C419 C421 1.415 . S
C420 C419 1.355 . S
C420 C422 1.419 . S
C421 C416 1.425 . S
C421 C418 1.409 . S
C421 C419 1.415 . S
C422 H412 0.930 . S
C422 C420 1.419 . S
C422 C423 1.362 . S
C423 H413 0.930 . S
C423 C416 1.409 . S
C423 C422 1.362 . S
H424 C430 0.930 . S
H425 C433 0.930 . S
H426 C434 0.930 . S
H427 C435 0.930 . S
H428 C438 0.930 . S
H429 C439 0.930 . S
C430 H424 0.930 . S
C430 C431 1.355 . S
C430 C432 1.415 . S
C431 C430 1.355 . S
C431 C433 1.419 . S
C432 C430 1.415 . S
C432 C437 1.425 . S
C432 C439 1.409 . S
C433 H425 0.930 . S
C433 C431 1.419 . S
C433 C434 1.362 . S
C434 H426 0.930 . S
C434 C433 1.362 . S
C434 C437 1.409 . S
C435 H427 0.930 . S
C435 C436 1.355 . S
C435 C437 1.415 . S
C436 C435 1.355 . S
C436 C438 1.419 . S
C437 C432 1.425 . S
C437 C434 1.409 . S
C437 C435 1.415 . S
C438 H428 0.930 . S
C438 C436 1.419 . S
C438 C439 1.362 . S
C439 H429 0.930 . S
C439 C432 1.409 . S
C439 C438 1.362 . S
H440 C446 0.930 . S
H441 C449 0.930 . S
H442 C450 0.930 . S
H443 C451 0.930 . S
H444 C454 0.930 . S
H445 C455 0.930 . S
C446 H440 0.930 . S
C446 C447 1.355 . S
C446 C448 1.415 . S
C447 C446 1.355 . S
C447 C449 1.419 . S
C448 C446 1.415 . S
C448 C453 1.425 . S
C448 C455 1.409 . S
C449 H441 0.930 . S
C449 C447 1.419 . S
C449 C450 1.362 . S
C450 H442 0.930 . S
C450 C449 1.362 . S
C450 C453 1.409 . S
C451 H443 0.930 . S
C451 C452 1.355 . S
C451 C453 1.415 . S
C452 C451 1.355 . S
C452 C454 1.419 . S
C453 C448 1.425 . S
C453 C450 1.409 . S
C453 C451 1.415 . S
C454 H444 0.930 . S
C454 C452 1.419 . S
C454 C455 1.362 . S
C455 H445 0.930 . S
C455 C448 1.409 . S
C455 C454 1.362 . S
H456 C462 0.930 . S
H457 C465 0.930 . S
H458 C466 0.930 . S
H459 C467 0.930 . S
H460 C470 0.930 . S
H461 C471 0.930 . S
C462 H456 0.930 . S
C462 C463 1.355 . S
C462 C464 1.415 . S
C463 C462 1.355 . S
C463 C465 1.419 . S
C464 C462 1.415 . S
C464 C469 1.425 . S
C464 C471 1.409 . S
C465 H457 0.930 . S
C465 C463 1.419 . S
C465 C466 1.362 . S
C466 H458 0.930 . S
C466 C465 1.362 . S
C466 C469 1.409 . S
C467 H459 0.930 . S
C467 C468 1.355 . S
C467 C469 1.415 . S
C468 C467 1.355 . S
C468 C470 1.419 . S
C469 C464 1.425 . S
C469 C466 1.409 . S
C469 C467 1.415 . S
C470 H460 0.930 . S
C470 C468 1.419 . S
C470 C471 1.362 . S
C471 H461 0.930 . S
C471 C464 1.409 . S
C471 C470 1.362 . S
H472 C478 0.930 . S
H473 C481 0.930 . S
H474 C482 0.930 . S
H475 C483 0.930 . S
H476 C486 0.930 . S
H477 C487 0.930 . S
C478 H472 0.930 . S
C478 C479 1.355 . S
C478 C480 1.415 . S
C479 C478 1.355 . S
C479 C481 1.419 . S
C480 C478 1.415 . S
C480 C485 1.425 . S
C480 C487 1.409 . S
C481 H473 0.930 . S
C481 C479 1.419 . S
C481 C482 1.362 . S
C482 H474 0.930 . S
C482 C481 1.362 . S
C482 C485 1.409 . S
C483 H475 0.930 . S
C483 C484 1.355 . S
C483 C485 1.415 . S
C484 C483 1.355 . S
C484 C486 1.419 . S
C485 C480 1.425 . S
C485 C482 1.409 . S
C485 C483 1.415 . S
C486 H476 0.930 . S
C486 C484 1.419 . S
C486 C487 1.362 . S
C487 H477 0.930 . S
C487 C480 1.409 . S
C487 C486 1.362 . S
H488 C494 0.930 . S
H489 C497 0.930 . S
H490 C498 0.930 . S
H491 C499 0.930 . S
H492 C502 0.930 . S
H493 C503 0.930 . S
C494 H488 0.930 . S
C494 C495 1.355 . S
C494 C496 1.415 . S
C495 C494 1.355 . S
C495 C497 1.419 . S
C496 C494 1.415 . S
C496 C501 1.425 . S
C496 C503 1.409 . S
C497 H489 0.930 . S
C497 C495 1.419 . S
C497 C498 1.362 . S
C498 H490 0.930 . S
C498 C497 1.362 . S
C498 C501 1.409 . S
C499 H491 0.930 . S
C499 C500 1.355 . S
C499 C501 1.415 . S
C500 C499 1.355 . S
C500 C502 1.419 . S
C501 C496 1.425 . S
C501 C498 1.409 . S
C501 C499 1.415 . S
C502 H492 0.930 . S
C502 C500 1.419 . S
C502 C503 1.362 . S
C503 H493 0.930 . S
C503 C496 1.409 . S
C503 C502 1.362 . S
H504 C510 0.930 . S
H505 C513 0.930 . S
H506 C514 0.930 . S
H507 C515 0.930 . S
H508 C518 0.930 . S
H509 C519 0.930 . S
C510 H504 0.930 . S
C510 C511 1.355 . S
C510 C512 1.415 . S
C511 C510 1.355 . S
C511 C513 1.419 . S
C512 C510 1.415 . S
C512 C517 1.425 . S
C512 C519 1.409 . S
C513 H505 0.930 . S
C513 C511 1.419 . S
C513 C514 1.362 . S
C514 H506 0.930 . S
C514 C513 1.362 . S
C514 C517 1.409 . S
C515 H507 0.930 . S
C515 C516 1.355 . S
C515 C517 1.415 . S
C516 C515 1.355 . S
C516 C518 1.419 . S
C517 C512 1.425 . S
C517 C514 1.409 . S
C517 C515 1.415 . S
C518 H508 0.930 . S
C518 C516 1.419 . S
C518 C519 1.362 . S
C519 H509 0.930 . S
C519 C512 1.409 . S
C519 C518 1.362 . S
H520 C526 0.930 . S
H521 C529 0.930 . S
H522 C530 0.930 . S
H523 C531 0.930 . S
H524 C534 0.930 . S
H525 C535 0.930 . S
C526 H520 0.930 . S
C526 C527 1.355 . S
C526 C528 1.415 . S
C527 C526 1.355 . S
C527 C529 1.419 . S
C528 C526 1.415 . S
C528 C533 1.425 . S
C528 C535 1.409 . S
C529 H521 0.930 . S
C529 C527 1.419 . S
C529 C530 1.362 . S
C530 H522 0.930 . S
C530 C529 1.362 . S
C530 C533 1.409 . S
C531 H523 0.930 . S
C531 C532 1.355 . S
C531 C533 1.415 . S
C532 C531 1.355 . S
C532 C534 1.419 . S
C533 C528 1.425 . S
C533 C530 1.409 . S
C533 C531 1.415 . S
C534 H524 0.930 . S
C534 C532 1.419 . S
C534 C535 1.362 . S
C535 H525 0.930 . S
C535 C528 1.409 . S
C535 C534 1.362 . S
H536 C542 0.930 . S
H537 C545 0.930 . S
H538 C546 0.930 . S
H539 C547 0.930 . S
H540 C550 0.930 . S
H541 C551 0.930 . S
C542 H536 0.930 . S
C542 C543 1.355 . S
C542 C544 1.415 . S
C543 C542 1.355 . S
C543 C545 1.419 . S
C544 C542 1.415 . S
C544 C549 1.425 . S
C544 C551 1.409 . S
C545 H537 0.930 . S
C545 C543 1.419 . S
C545 C546 1.362 . S
C546 H538 0.930 . S
C546 C545 1.362 . S
C546 C549 1.409 . S
C547 H539 0.930 . S
C547 C548 1.355 . S
C547 C549 1.415 . S
C548 C547 1.355 . S
C548 C550 1.419 . S
C549 C544 1.425 . S
C549 C546 1.409 . S
C549 C547 1.415 . S
C550 H540 0.930 . S
C550 C548 1.419 . S
C550 C551 1.362 . S
C551 H541 0.930 . S
C551 C544 1.409 . S
C551 C550 1.362 . S
H552 C558 0.930 . S
H553 C561 0.930 . S
H554 C562 0.930 . S
H555 C563 0.930 . S
H556 C566 0.930 . S
H557 C567 0.930 . S
C558 H552 0.930 . S
C558 C559 1.355 . S
C558 C560 1.415 . S
C559 C558 1.355 . S
C559 C561 1.419 . S
C560 C558 1.415 . S
C560 C565 1.425 . S
C560 C567 1.409 . S
C561 H553 0.930 . S
C561 C559 1.419 . S
C561 C562 1.362 . S
C562 H554 0.930 . S
C562 C561 1.362 . S
C562 C565 1.409 . S
C563 H555 0.930 . S
C563 C564 1.355 . S
C563 C565 1.415 . S
C564 C563 1.355 . S
C564 C566 1.419 . S
C565 C560 1.425 . S
C565 C562 1.409 . S
C565 C563 1.415 . S
C566 H556 0.930 . S
C566 C564 1.419 . S
C566 C567 1.362 . S
C567 H557 0.930 . S
C567 C560 1.409 . S
C567 C566 1.362 . S
H568 C574 0.930 . S
H569 C577 0.930 . S
H570 C578 0.930 . S
H571 C579 0.930 . S
H572 C582 0.930 . S
H573 C583 0.930 . S
C574 H568 0.930 . S
C574 C575 1.355 . S
C574 C576 1.415 . S
C575 C574 1.355 . S
C575 C577 1.419 . S
C576 C574 1.415 . S
C576 C581 1.425 . S
C576 C583 1.409 . S
C577 H569 0.930 . S
C577 C575 1.419 . S
C577 C578 1.362 . S
C578 H570 0.930 . S
C578 C577 1.362 . S
C578 C581 1.409 . S
C579 H571 0.930 . S
C579 C580 1.355 . S
C579 C581 1.415 . S
C580 C579 1.355 . S
C580 C582 1.419 . S
C581 C576 1.425 . S
C581 C578 1.409 . S
C581 C579 1.415 . S
C582 H572 0.930 . S
C582 C580 1.419 . S
C582 C583 1.362 . S
C583 H573 0.930 . S
C583 C576 1.409 . S
C583 C582 1.362 . S
H584 C590 0.930 . S
H585 C593 0.930 . S
H586 C594 0.930 . S
H587 C595 0.930 . S
H588 C598 0.930 . S
H589 C599 0.930 . S
C590 H584 0.930 . S
C590 C591 1.355 . S
C590 C592 1.415 . S
C591 C590 1.355 . S
C591 C593 1.419 . S
C592 C590 1.415 . S
C592 C597 1.425 . S
C592 C599 1.409 . S
C593 H585 0.930 . S
C593 C591 1.419 . S
C593 C594 1.362 . S
C594 H586 0.930 . S
C594 C593 1.362 . S
C594 C597 1.409 . S
C595 H587 0.930 . S
C595 C596 1.355 . S
C595 C597 1.415 . S
C596 C595 1.355 . S
C596 C598 1.419 . S
C597 C592 1.425 . S
C597 C594 1.409 . S
C597 C595 1.415 . S
C598 H588 0.930 . S
C598 C596 1.419 . S
C598 C599 1.362 . S
C599 H589 0.930 . S
C599 C592 1.409 . S
C599 C598 1.362 . S
H600 C606 0.930 . S
H601 C609 0.930 . S
H602 C610 0.930 . S
H603 C611 0.930 . S
H604 C614 0.930 . S
H605 C615 0.930 1_545 S
C606 H600 0.930 . S
C606 C607 1.355 . S
C606 C608 1.415 . S
C607 C606 1.355 . S
C607 C609 1.419 . S
C608 C606 1.415 . S
C608 C613 1.425 . S
C608 C615 1.409 . S
C609 H601 0.930 . S
C609 C607 1.419 . S
C609 C610 1.362 . S
C610 H602 0.930 . S
C610 C609 1.362 . S
C610 C613 1.409 . S
C611 H603 0.930 . S
C611 C612 1.355 1_565 S
C611 C613 1.415 . S
C612 C611 1.355 1_545 S
C612 C614 1.419 . S
C613 C608 1.425 . S
C613 C610 1.409 . S
C613 C611 1.415 . S
C614 H604 0.930 . S
C614 C612 1.419 . S
C614 C615 1.362 1_545 S
C615 H605 0.930 1_565 S
C615 C608 1.409 . S
C615 C614 1.362 1_565 S
H616 C622 0.930 . S
H617 C625 0.930 . S
H618 C626 0.930 . S
H619 C627 0.930 . S
H620 C630 0.930 . S
H621 C631 0.930 . S
C622 H616 0.930 . S
C622 C623 1.355 . S
C622 C624 1.415 . S
C623 C622 1.355 . S
C623 C625 1.419 . S
C624 C622 1.415 . S
C624 C629 1.425 . S
C624 C631 1.409 . S
C625 H617 0.930 . S
C625 C623 1.419 . S
C625 C626 1.362 . S
C626 H618 0.930 . S
C626 C625 1.362 . S
C626 C629 1.409 . S
C627 H619 0.930 . S
C627 C628 1.355 . S
C627 C629 1.415 . S
C628 C627 1.355 . S
C628 C630 1.419 . S
C629 C624 1.425 . S
C629 C626 1.409 . S
C629 C627 1.415 . S
C630 H620 0.930 . S
C630 C628 1.419 . S
C630 C631 1.362 . S
C631 H621 0.930 . S
C631 C624 1.409 . S
C631 C630 1.362 . S
H632 C638 0.930 . S
H633 C641 0.930 . S
H634 C642 0.930 . S
H635 C643 0.930 . S
H636 C646 0.930 . S
H637 C647 0.930 . S
C638 H632 0.930 . S
C638 C639 1.355 . S
C638 C640 1.415 1_556 S
C639 C638 1.355 . S
C639 C641 1.419 . S
C640 C638 1.415 1_554 S
C640 C645 1.425 . S
C640 C647 1.409 . S
C641 H633 0.930 . S
C641 C639 1.419 . S
C641 C642 1.362 . S
C642 H634 0.930 . S
C642 C641 1.362 . S
C642 C645 1.409 1_556 S
C643 H635 0.930 . S
C643 C644 1.355 1_545 S
C643 C645 1.415 . S
C644 C643 1.355 1_565 S
C644 C646 1.419 . S
C645 C640 1.425 . S
C645 C642 1.409 1_554 S
C645 C643 1.415 . S
C646 H636 0.930 . S
C646 C644 1.419 . S
C646 C647 1.362 1_565 S
C647 H637 0.930 . S
C647 C640 1.409 . S
C647 C646 1.362 1_545 S
H648 C654 0.930 . S
H649 C657 0.930 . S
H650 C658 0.930 . S
H651 C659 0.930 . S
H652 C662 0.930 . S
H653 C663 0.930 . S
C654 H648 0.930 . S
C654 C655 1.355 . S
C654 C656 1.415 . S
C655 C654 1.355 . S
C655 C657 1.419 . S
C656 C654 1.415 . S
C656 C661 1.425 . S
C656 C663 1.409 . S
C657 H649 0.930 . S
C657 C655 1.419 . S
C657 C658 1.362 . S
C658 H650 0.930 . S
C658 C657 1.362 . S
C658 C661 1.409 . S
C659 H651 0.930 . S
C659 C660 1.355 . S
C659 C661 1.415 . S
C660 C659 1.355 . S
C660 C662 1.419 . S
C661 C656 1.425 . S
C661 C658 1.409 . S
C661 C659 1.415 . S
C662 H652 0.930 . S
C662 C660 1.419 . S
C662 C663 1.362 . S
C663 H653 0.930 . S
C663 C656 1.409 . S
C663 C662 1.362 . S
H664 C670 0.930 . S
H665 C673 0.930 . S
H666 C674 0.930 . S
H667 C675 0.930 . S
H668 C678 0.930 . S
H669 C679 0.930 . S
C670 H664 0.930 . S
C670 C671 1.355 . S
C670 C672 1.415 . S
C671 C670 1.355 . S
C671 C673 1.419 1_545 S
C672 C670 1.415 . S
C672 C677 1.425 . S
C672 C679 1.409 . S
C673 H665 0.930 . S
C673 C671 1.419 1_565 S
C673 C674 1.362 1_565 S
C674 H666 0.930 . S
C674 C673 1.362 1_545 S
C674 C677 1.409 . S
C675 H667 0.930 . S
C675 C676 1.355 . S
C675 C677 1.415 . S
C676 C675 1.355 . S
C676 C678 1.419 . S
C677 C672 1.425 . S
C677 C674 1.409 . S
C677 C675 1.415 . S
C678 H668 0.930 . S
C678 C676 1.419 . S
C678 C679 1.362 . S
C679 H669 0.930 . S
C679 C672 1.409 . S
C679 C678 1.362 . S
H680 C686 0.930 . S
H681 C689 0.930 . S
H682 C690 0.930 . S
H683 C691 0.930 . S
H684 C694 0.930 . S
H685 C695 0.930 . S
C686 H680 0.930 . S
C686 C687 1.355 . S
C686 C688 1.415 . S
C687 C686 1.355 . S
C687 C689 1.419 . S
C688 C686 1.415 . S
C688 C693 1.425 . S
C688 C695 1.409 . S
C689 H681 0.930 . S
C689 C687 1.419 . S
C689 C690 1.362 . S
C690 H682 0.930 . S
C690 C689 1.362 . S
C690 C693 1.409 . S
C691 H683 0.930 . S
C691 C692 1.355 . S
C691 C693 1.415 . S
C692 C691 1.355 . S
C692 C694 1.419 . S
C693 C688 1.425 . S
C693 C690 1.409 . S
C693 C691 1.415 . S
C694 H684 0.930 . S
C694 C692 1.419 . S
C694 C695 1.362 . S
C695 H685 0.930 . S
C695 C688 1.409 . S
C695 C694 1.362 . S
H696 C702 0.930 . S
H697 C705 0.930 . S
H698 C706 0.930 . S
H699 C707 0.930 . S
H700 C710 0.930 . S
H701 C711 0.930 . S
C702 H696 0.930 . S
C702 C703 1.355 1_545 S
C702 C704 1.415 . S
C703 C702 1.355 1_565 S
C703 C705 1.419 . S
C704 C702 1.415 . S
C704 C709 1.425 . S
C704 C711 1.409 . S
C705 H697 0.930 . S
C705 C703 1.419 . S
C705 C706 1.362 1_565 S
C706 H698 0.930 . S
C706 C705 1.362 1_545 S
C706 C709 1.409 . S
C707 H699 0.930 . S
C707 C708 1.355 . S
C707 C709 1.415 . S
C708 C707 1.355 . S
C708 C710 1.419 . S
C709 C704 1.425 . S
C709 C706 1.409 . S
C709 C707 1.415 . S
C710 H700 0.930 . S
C710 C708 1.419 . S
C710 C711 1.362 . S
C711 H701 0.930 . S
C711 C704 1.409 . S
C711 C710 1.362 . S
H712 C718 0.930 . S
H713 C721 0.930 . S
H714 C722 0.930 . S
H715 C723 0.930 . S
H716 C726 0.930 . S
H717 C727 0.930 . S
C718 H712 0.930 . S
C718 C719 1.355 . S
C718 C720 1.415 . S
C719 C718 1.355 . S
C719 C721 1.419 . S
C720 C718 1.415 . S
C720 C725 1.425 . S
C720 C727 1.409 . S
C721 H713 0.930 . S
C721 C719 1.419 . S
C721 C722 1.362 . S
C722 H714 0.930 . S
C722 C721 1.362 . S
C722 C725 1.409 . S
C723 H715 0.930 . S
C723 C724 1.355 . S
C723 C725 1.415 . S
C724 C723 1.355 . S
C724 C726 1.419 . S
C725 C720 1.425 . S
C725 C722 1.409 . S
C725 C723 1.415 . S
C726 H716 0.930 . S
C726 C724 1.419 . S
C726 C727 1.362 . S
C727 H717 0.930 . S
C727 C720 1.409 . S
C727 C726 1.362 . S
H728 C734 0.930 . S
H729 C737 0.930 . S
H730 C738 0.930 . S
H731 C739 0.930 . S
H732 C742 0.930 . S
H733 C743 0.930 . S
C734 H728 0.930 . S
C734 C735 1.355 . S
C734 C736 1.415 . S
C735 C734 1.355 . S
C735 C737 1.419 . S
C736 C734 1.415 . S
C736 C741 1.425 . S
C736 C743 1.409 . S
C737 H729 0.930 . S
C737 C735 1.419 . S
C737 C738 1.362 . S
C738 H730 0.930 . S
C738 C737 1.362 . S
C738 C741 1.409 . S
C739 H731 0.930 . S
C739 C740 1.355 . S
C739 C741 1.415 . S
C740 C739 1.355 . S
C740 C742 1.419 . S
C741 C736 1.425 . S
C741 C738 1.409 . S
C741 C739 1.415 . S
C742 H732 0.930 . S
C742 C740 1.419 . S
C742 C743 1.362 . S
C743 H733 0.930 . S
C743 C736 1.409 . S
C743 C742 1.362 . S
H744 C750 0.930 . S
H745 C753 0.930 . S
H746 C754 0.930 . S
H747 C755 0.930 . S
H748 C758 0.930 . S
H749 C759 0.930 . S
C750 H744 0.930 . S
C750 C751 1.355 . S
C750 C752 1.415 . S
C751 C750 1.355 . S
C751 C753 1.419 . S
C752 C750 1.415 . S
C752 C757 1.425 . S
C752 C759 1.409 . S
C753 H745 0.930 . S
C753 C751 1.419 . S
C753 C754 1.362 . S
C754 H746 0.930 . S
C754 C753 1.362 . S
C754 C757 1.409 . S
C755 H747 0.930 . S
C755 C756 1.355 . S
C755 C757 1.415 . S
C756 C755 1.355 . S
C756 C758 1.419 . S
C757 C752 1.425 . S
C757 C754 1.409 . S
C757 C755 1.415 . S
C758 H748 0.930 . S
C758 C756 1.419 . S
C758 C759 1.362 . S
C759 H749 0.930 . S
C759 C752 1.409 . S
C759 C758 1.362 . S
H760 C766 0.930 . S
H761 C769 0.930 . S
H762 C770 0.930 . S
H763 C771 0.930 . S
H764 C774 0.930 . S
H765 C775 0.930 . S
C766 H760 0.930 . S
C766 C767 1.355 . S
C766 C768 1.415 . S
C767 C766 1.355 . S
C767 C769 1.419 . S
C768 C766 1.415 . S
C768 C773 1.425 . S
C768 C775 1.409 . S
C769 H761 0.930 . S
C769 C767 1.419 . S
C769 C770 1.362 . S
C770 H762 0.930 . S
C770 C769 1.362 . S
C770 C773 1.409 . S
C771 H763 0.930 . S
C771 C772 1.355 . S
C771 C773 1.415 . S
C772 C771 1.355 . S
C772 C774 1.419 . S
C773 C768 1.425 . S
C773 C770 1.409 . S
C773 C771 1.415 . S
C774 H764 0.930 . S
C774 C772 1.419 . S
C774 C775 1.362 . S
C775 H765 0.930 . S
C775 C768 1.409 . S
C775 C774 1.362 . S
H776 C782 0.930 . S
H777 C785 0.930 . S
H778 C786 0.930 . S
H779 C787 0.930 . S
H780 C790 0.930 . S
H781 C791 0.930 . S
C782 H776 0.930 . S
C782 C783 1.355 . S
C782 C784 1.415 . S
C783 C782 1.355 . S
C783 C785 1.419 . S
C784 C782 1.415 . S
C784 C789 1.425 . S
C784 C791 1.409 . S
C785 H777 0.930 . S
C785 C783 1.419 . S
C785 C786 1.362 . S
C786 H778 0.930 . S
C786 C785 1.362 . S
C786 C789 1.409 . S
C787 H779 0.930 . S
C787 C788 1.355 . S
C787 C789 1.415 . S
C788 C787 1.355 . S
C788 C790 1.419 . S
C789 C784 1.425 . S
C789 C786 1.409 . S
C789 C787 1.415 . S
C790 H780 0.930 . S
C790 C788 1.419 . S
C790 C791 1.362 . S
C791 H781 0.930 . S
C791 C784 1.409 . S
C791 C790 1.362 . S
H792 C798 0.930 . S
H793 C801 0.930 . S
H794 C802 0.930 . S
H795 C803 0.930 . S
H796 C806 0.930 . S
H797 C807 0.930 . S
C798 H792 0.930 . S
C798 C799 1.355 . S
C798 C800 1.415 . S
C799 C798 1.355 . S
C799 C801 1.419 . S
C800 C798 1.415 . S
C800 C805 1.425 . S
C800 C807 1.409 . S
C801 H793 0.930 . S
C801 C799 1.419 . S
C801 C802 1.362 . S
C802 H794 0.930 . S
C802 C801 1.362 . S
C802 C805 1.409 . S
C803 H795 0.930 . S
C803 C804 1.355 . S
C803 C805 1.415 . S
C804 C803 1.355 . S
C804 C806 1.419 . S
C805 C800 1.425 . S
C805 C802 1.409 . S
C805 C803 1.415 . S
C806 H796 0.930 . S
C806 C804 1.419 . S
C806 C807 1.362 . S
C807 H797 0.930 . S
C807 C800 1.409 . S
C807 C806 1.362 . S
H808 C814 0.930 . S
H809 C817 0.930 . S
H810 C818 0.930 . S
H811 C819 0.930 . S
H812 C822 0.930 . S
H813 C823 0.930 . S
C814 H808 0.930 . S
C814 C815 1.355 . S
C814 C816 1.415 . S
C815 C814 1.355 . S
C815 C817 1.419 . S
C816 C814 1.415 . S
C816 C821 1.425 . S
C816 C823 1.409 . S
C817 H809 0.930 . S
C817 C815 1.419 . S
C817 C818 1.362 . S
C818 H810 0.930 . S
C818 C817 1.362 . S
C818 C821 1.409 . S
C819 H811 0.930 . S
C819 C820 1.355 . S
C819 C821 1.415 . S
C820 C819 1.355 . S
C820 C822 1.419 . S
C821 C816 1.425 . S
C821 C818 1.409 . S
C821 C819 1.415 . S
C822 H812 0.930 . S
C822 C820 1.419 . S
C822 C823 1.362 . S
C823 H813 0.930 . S
C823 C816 1.409 . S
C823 C822 1.362 . S
H824 C830 0.930 . S
H825 C833 0.930 . S
H826 C834 0.930 . S
H827 C835 0.930 . S
H828 C838 0.930 . S
H829 C839 0.930 . S
C830 H824 0.930 . S
C830 C831 1.355 . S
C830 C832 1.415 . S
C831 C830 1.355 . S
C831 C833 1.419 . S
C832 C830 1.415 . S
C832 C837 1.425 . S
C832 C839 1.409 . S
C833 H825 0.930 . S
C833 C831 1.419 . S
C833 C834 1.362 . S
C834 H826 0.930 . S
C834 C833 1.362 . S
C834 C837 1.409 . S
C835 H827 0.930 . S
C835 C836 1.355 . S
C835 C837 1.415 . S
C836 C835 1.355 . S
C836 C838 1.419 . S
C837 C832 1.425 . S
C837 C834 1.409 . S
C837 C835 1.415 . S
C838 H828 0.930 . S
C838 C836 1.419 . S
C838 C839 1.362 . S
C839 H829 0.930 . S
C839 C832 1.409 . S
C839 C838 1.362 . S
H840 C846 0.930 . S
H841 C849 0.930 . S
H842 C850 0.943 . S
H843 C851 0.930 . S
H844 C854 0.930 . S
H845 C855 0.930 . S
C846 H840 0.930 . S
C846 C847 1.355 . S
C846 C848 1.415 . S
C847 C846 1.355 . S
C847 C849 1.419 . S
C848 C846 1.415 . S
C848 C853 1.425 1_655 S
C848 C855 1.409 . S
C849 H841 0.930 . S
C849 C847 1.419 . S
C849 C850 1.348 1_655 S
C850 H842 0.943 . S
C850 C849 1.348 1_455 S
C850 C853 1.410 . S
C851 H843 0.930 . S
C851 C852 1.355 . S
C851 C853 1.415 . S
C852 C851 1.355 . S
C852 C854 1.419 . S
C853 C848 1.425 1_455 S
C853 C850 1.410 . S
C853 C851 1.415 . S
C854 H844 0.930 . S
C854 C852 1.419 . S
C854 C855 1.362 1_455 S
C855 H845 0.930 . S
C855 C848 1.409 . S
C855 C854 1.362 1_655 S
H856 C862 0.930 . S
H857 C865 0.930 . S
H858 C866 0.930 . S
H859 C867 0.930 . S
H860 C870 0.930 . S
H861 C871 0.930 . S
C862 H856 0.930 . S
C862 C863 1.355 . S
C862 C864 1.415 . S
C863 C862 1.355 . S
C863 C865 1.419 . S
C864 C862 1.415 . S
C864 C869 1.425 . S
C864 C871 1.409 . S
C865 H857 0.930 . S
C865 C863 1.419 . S
C865 C866 1.362 . S
C866 H858 0.930 . S
C866 C865 1.362 . S
C866 C869 1.409 . S
C867 H859 0.930 . S
C867 C868 1.355 . S
C867 C869 1.415 . S
C868 C867 1.355 . S
C868 C870 1.419 . S
C869 C864 1.425 . S
C869 C866 1.409 . S
C869 C867 1.415 . S
C870 H860 0.930 . S
C870 C868 1.419 . S
C870 C871 1.362 . S
C871 H861 0.930 . S
C871 C864 1.409 . S
C871 C870 1.362 . S
H872 C878 0.930 . S
H873 C881 0.930 . S
H874 C882 0.930 . S
H875 C883 0.930 . S
H876 C886 0.930 1_455 S
H877 C887 0.930 . S
C878 H872 0.930 . S
C878 C879 1.355 . S
C878 C880 1.415 1_554 S
C879 C878 1.355 . S
C879 C881 1.419 . S
C880 C878 1.415 1_556 S
C880 C885 1.425 . S
C880 C887 1.409 . S
C881 H873 0.930 . S
C881 C879 1.419 . S
C881 C882 1.362 . S
C882 H874 0.930 . S
C882 C881 1.362 . S
C882 C885 1.409 1_554 S
C883 H875 0.930 . S
C883 C884 1.355 . S
C883 C885 1.415 . S
C884 C883 1.355 . S
C884 C886 1.419 . S
C885 C880 1.425 . S
C885 C882 1.409 1_556 S
C885 C883 1.415 . S
C886 H876 0.930 1_655 S
C886 C884 1.419 . S
C886 C887 1.362 . S
C887 H877 0.930 . S
C887 C880 1.409 . S
C887 C886 1.362 . S
H888 C894 0.930 . S
H889 C897 0.930 . S
H890 C898 0.930 . S
H891 C899 0.930 . S
H892 C902 0.930 . S
H893 C903 0.930 . S
C894 H888 0.930 . S
C894 C895 1.355 . S
C894 C896 1.415 . S
C895 C894 1.355 . S
C895 C897 1.419 . S
C896 C894 1.415 . S
C896 C901 1.425 . S
C896 C903 1.409 . S
C897 H889 0.930 . S
C897 C895 1.419 . S
C897 C898 1.362 . S
C898 H890 0.930 . S
C898 C897 1.362 . S
C898 C901 1.409 . S
C899 H891 0.930 . S
C899 C900 1.355 . S
C899 C901 1.415 . S
C900 C899 1.355 . S
C900 C902 1.419 . S
C901 C896 1.425 . S
C901 C898 1.409 . S
C901 C899 1.415 . S
C902 H892 0.930 . S
C902 C900 1.419 . S
C902 C903 1.362 . S
C903 H893 0.930 . S
C903 C896 1.409 . S
C903 C902 1.362 . S
H904 C910 0.930 . S
H905 C913 0.930 . S
H906 C914 0.930 1_556 S
H907 C915 0.930 . S
H908 C918 0.930 . S
H909 C919 0.930 . S
C910 H904 0.930 . S
C910 C911 1.355 . S
C910 C912 1.415 . S
C911 C910 1.355 . S
C911 C913 1.419 . S
C912 C910 1.415 . S
C912 C917 1.425 . S
C912 C919 1.409 . S
C913 H905 0.930 . S
C913 C911 1.419 . S
C913 C914 1.362 . S
C914 H906 0.930 1_554 S
C914 C913 1.362 . S
C914 C917 1.409 . S
C915 H907 0.930 . S
C915 C916 1.355 . S
C915 C917 1.415 1_556 S
C916 C915 1.355 . S
C916 C918 1.419 1_556 S
C917 C912 1.425 . S
C917 C914 1.409 . S
C917 C915 1.415 1_554 S
C918 H908 0.930 . S
C918 C916 1.419 1_554 S
C918 C919 1.362 . S
C919 H909 0.930 . S
C919 C912 1.409 . S
C919 C918 1.362 . S
H920 C926 0.930 . S
H921 C929 0.930 . S
H922 C930 0.930 . S
H923 C931 0.930 . S
H924 C934 0.930 . S
H925 C935 0.930 . S
C926 H920 0.930 . S
C926 C927 1.355 . S
C926 C928 1.415 . S
C927 C926 1.355 . S
C927 C929 1.419 . S
C928 C926 1.415 . S
C928 C933 1.425 . S
C928 C935 1.409 . S
C929 H921 0.930 . S
C929 C927 1.419 . S
C929 C930 1.362 . S
C930 H922 0.930 . S
C930 C929 1.362 . S
C930 C933 1.409 . S
C931 H923 0.930 . S
C931 C932 1.355 . S
C931 C933 1.415 . S
C932 C931 1.355 . S
C932 C934 1.419 . S
C933 C928 1.425 . S
C933 C930 1.409 . S
C933 C931 1.415 . S
C934 H924 0.930 . S
C934 C932 1.419 . S
C934 C935 1.362 . S
C935 H925 0.930 . S
C935 C928 1.409 . S
C935 C934 1.362 . S
H936 C942 0.930 . S
H937 C945 0.930 . S
H938 C946 0.930 . S
H939 C947 0.930 . S
H940 C950 0.930 . S
H941 C951 0.930 . S
C942 H936 0.930 . S
C942 C943 1.355 . S
C942 C944 1.415 1_556 S
C943 C942 1.355 . S
C943 C945 1.419 1_556 S
C944 C942 1.415 1_554 S
C944 C949 1.425 . S
C944 C951 1.409 . S
C945 H937 0.930 . S
C945 C943 1.419 1_554 S
C945 C946 1.362 . S
C946 H938 0.930 . S
C946 C945 1.362 . S
C946 C949 1.409 . S
C947 H939 0.930 . S
C947 C948 1.355 . S
C947 C949 1.415 . S
C948 C947 1.355 . S
C948 C950 1.419 . S
C949 C944 1.425 . S
C949 C946 1.409 . S
C949 C947 1.415 . S
C950 H940 0.930 . S
C950 C948 1.419 . S
C950 C951 1.362 . S
C951 H941 0.930 . S
C951 C944 1.409 . S
C951 C950 1.362 . S
H952 C958 0.930 . S
H953 C961 0.930 . S
H954 C962 0.930 . S
H955 C963 0.930 . S
H956 C966 0.930 . S
H957 C967 0.930 . S
C958 H952 0.930 . S
C958 C959 1.355 . S
C958 C960 1.415 . S
C959 C958 1.355 . S
C959 C961 1.419 . S
C960 C958 1.415 . S
C960 C965 1.425 . S
C960 C967 1.409 . S
C961 H953 0.930 . S
C961 C959 1.419 . S
C961 C962 1.362 . S
C962 H954 0.930 . S
C962 C961 1.362 . S
C962 C965 1.409 . S
C963 H955 0.930 . S
C963 C964 1.355 . S
C963 C965 1.415 . S
C964 C963 1.355 . S
C964 C966 1.419 . S
C965 C960 1.425 . S
C965 C962 1.409 . S
C965 C963 1.415 . S
C966 H956 0.930 . S
C966 C964 1.419 . S
C966 C967 1.362 . S
C967 H957 0.930 . S
C967 C960 1.409 . S
C967 C966 1.362 . S
H968 C974 0.930 . S
H969 C977 0.930 . S
H970 C978 0.930 . S
H971 C979 0.930 . S
H972 C982 0.930 . S
H973 C983 0.930 . S
C974 H968 0.930 . S
C974 C975 1.355 . S
C974 C976 1.415 1_556 S
C975 C974 1.355 . S
C975 C977 1.419 1_556 S
C976 C974 1.415 1_554 S
C976 C981 1.425 . S
C976 C983 1.409 . S
C977 H969 0.930 . S
C977 C975 1.419 1_554 S
C977 C978 1.362 . S
C978 H970 0.930 . S
C978 C977 1.362 . S
C978 C981 1.409 . S
C979 H971 0.930 . S
C979 C980 1.355 . S
C979 C981 1.415 . S
C980 C979 1.355 . S
C980 C982 1.419 . S
C981 C976 1.425 . S
C981 C978 1.409 . S
C981 C979 1.415 . S
C982 H972 0.930 . S
C982 C980 1.419 . S
C982 C983 1.362 . S
C983 H973 0.930 . S
C983 C976 1.409 . S
C983 C982 1.362 . S
H984 C990 0.930 . S
H985 C993 0.930 . S
H986 C994 0.930 . S
H987 C995 0.930 . S
H988 C998 0.930 . S
H989 C999 0.930 . S
C990 H984 0.930 . S
C990 C991 1.355 . S
C990 C992 1.415 . S
C991 C990 1.355 . S
C991 C993 1.419 . S
C992 C990 1.415 . S
C992 C997 1.425 . S
C992 C999 1.409 . S
C993 H985 0.930 . S
C993 C991 1.419 . S
C993 C994 1.362 . S
C994 H986 0.930 . S
C994 C993 1.362 . S
C994 C997 1.409 . S
C995 H987 0.930 . S
C995 C996 1.355 . S
C995 C997 1.415 . S
C996 C995 1.355 . S
C996 C998 1.419 . S
C997 C992 1.425 . S
C997 C994 1.409 . S
C997 C995 1.415 . S
C998 H988 0.930 . S
C998 C996 1.419 . S
C998 C999 1.362 . S
C999 H989 0.930 . S
C999 C992 1.409 . S
C999 C998 1.362 . S
H1000 C1006 0.930 . S
H1001 C1009 0.930 . S
H1002 C1010 0.930 . S
H1003 C1011 0.930 . S
H1004 C1014 0.930 . S
H1005 C1015 0.930 . S
C1006 H1000 0.930 . S
C1006 C1007 1.355 . S
C1006 C1008 1.415 . S
C1007 C1006 1.355 . S
C1007 C1009 1.419 . S
C1008 C1006 1.415 . S
C1008 C1013 1.425 . S
C1008 C1015 1.409 . S
C1009 H1001 0.930 . S
C1009 C1007 1.419 . S
C1009 C1010 1.362 . S
C1010 H1002 0.930 . S
C1010 C1009 1.362 . S
C1010 C1013 1.409 . S
C1011 H1003 0.930 . S
C1011 C1012 1.355 . S
C1011 C1013 1.415 . S
C1012 C1011 1.355 . S
C1012 C1014 1.419 . S
C1013 C1008 1.425 . S
C1013 C1010 1.409 . S
C1013 C1011 1.415 . S
C1014 H1004 0.930 . S
C1014 C1012 1.419 . S
C1014 C1015 1.362 . S
C1015 H1005 0.930 . S
C1015 C1008 1.409 . S
C1015 C1014 1.362 . S
H1016 C1022 0.930 . S
H1017 C1025 0.930 . S
H1018 C1026 0.930 . S
H1019 C1027 0.930 . S
H1020 C1030 0.930 . S
H1021 C1031 0.930 . S
C1022 H1016 0.930 . S
C1022 C1023 1.355 . S
C1022 C1024 1.415 . S
C1023 C1022 1.355 . S
C1023 C1025 1.419 . S
C1024 C1022 1.415 . S
C1024 C1029 1.425 . S
C1024 C1031 1.409 . S
C1025 H1017 0.930 . S
C1025 C1023 1.419 . S
C1025 C1026 1.362 . S
C1026 H1018 0.930 . S
C1026 C1025 1.362 . S
C1026 C1029 1.409 . S
C1027 H1019 0.930 . S
C1027 C1028 1.355 . S
C1027 C1029 1.415 . S
C1028 C1027 1.355 . S
C1028 C1030 1.419 . S
C1029 C1024 1.425 . S
C1029 C1026 1.409 . S
C1029 C1027 1.415 . S
C1030 H1020 0.930 . S
C1030 C1028 1.419 . S
C1030 C1031 1.362 . S
C1031 H1021 0.930 . S
C1031 C1024 1.409 . S
C1031 C1030 1.362 . S
H1032 C1038 0.930 . S
H1033 C1041 0.930 . S
H1034 C1042 0.930 . S
H1035 C1043 0.930 . S
H1036 C1046 0.930 . S
H1037 C1047 0.930 . S
C1038 H1032 0.930 . S
C1038 C1039 1.355 . S
C1038 C1040 1.415 . S
C1039 C1038 1.355 . S
C1039 C1041 1.419 . S
C1040 C1038 1.415 . S
C1040 C1045 1.425 . S
C1040 C1047 1.409 . S
C1041 H1033 0.930 . S
C1041 C1039 1.419 . S
C1041 C1042 1.362 . S
C1042 H1034 0.930 . S
C1042 C1041 1.362 . S
C1042 C1045 1.409 . S
C1043 H1035 0.930 . S
C1043 C1044 1.355 . S
C1043 C1045 1.415 . S
C1044 C1043 1.355 . S
C1044 C1046 1.419 . S
C1045 C1040 1.425 . S
C1045 C1042 1.409 . S
C1045 C1043 1.415 . S
C1046 H1036 0.930 . S
C1046 C1044 1.419 . S
C1046 C1047 1.362 . S
C1047 H1037 0.930 . S
C1047 C1040 1.409 . S
C1047 C1046 1.362 . S
H1048 C1054 0.930 . S
H1049 C1057 0.930 . S
H1050 C1058 0.930 . S
H1051 C1059 0.930 . S
H1052 C1062 0.930 . S
H1053 C1063 0.930 . S
C1054 H1048 0.930 . S
C1054 C1055 1.355 . S
C1054 C1056 1.415 . S
C1055 C1054 1.355 . S
C1055 C1057 1.419 . S
C1056 C1054 1.415 . S
C1056 C1061 1.425 . S
C1056 C1063 1.409 . S
C1057 H1049 0.930 . S
C1057 C1055 1.419 . S
C1057 C1058 1.362 . S
C1058 H1050 0.930 . S
C1058 C1057 1.362 . S
C1058 C1061 1.409 . S
C1059 H1051 0.930 . S
C1059 C1060 1.355 . S
C1059 C1061 1.415 . S
C1060 C1059 1.355 . S
C1060 C1062 1.419 . S
C1061 C1056 1.425 . S
C1061 C1058 1.409 . S
C1061 C1059 1.415 . S
C1062 H1052 0.930 . S
C1062 C1060 1.419 . S
C1062 C1063 1.362 . S
C1063 H1053 0.930 . S
C1063 C1056 1.409 . S
C1063 C1062 1.362 . S
H1064 C1070 0.930 . S
H1065 C1073 0.930 . S
H1066 C1074 0.930 . S
H1067 C1075 0.930 . S
H1068 C1078 0.930 . S
H1069 C1079 0.930 . S
C1070 H1064 0.930 . S
C1070 C1071 1.355 . S
C1070 C1072 1.415 . S
C1071 C1070 1.355 . S
C1071 C1073 1.419 . S
C1072 C1070 1.415 . S
C1072 C1077 1.425 . S
C1072 C1079 1.409 . S
C1073 H1065 0.930 . S
C1073 C1071 1.419 . S
C1073 C1074 1.362 . S
C1074 H1066 0.930 . S
C1074 C1073 1.362 . S
C1074 C1077 1.409 . S
C1075 H1067 0.930 . S
C1075 C1076 1.355 . S
C1075 C1077 1.415 . S
C1076 C1075 1.355 . S
C1076 C1078 1.419 . S
C1077 C1072 1.425 . S
C1077 C1074 1.409 . S
C1077 C1075 1.415 . S
C1078 H1068 0.930 . S
C1078 C1076 1.419 . S
C1078 C1079 1.362 . S
C1079 H1069 0.930 . S
C1079 C1072 1.409 . S
C1079 C1078 1.362 . S
H1080 C1086 0.930 . S
H1081 C1089 0.930 . S
H1082 C1090 0.930 . S
H1083 C1091 0.930 . S
H1084 C1094 0.930 . S
H1085 C1095 0.930 . S
C1086 H1080 0.930 . S
C1086 C1087 1.355 . S
C1086 C1088 1.415 . S
C1087 C1086 1.355 . S
C1087 C1089 1.419 . S
C1088 C1086 1.415 . S
C1088 C1093 1.425 . S
C1088 C1095 1.409 . S
C1089 H1081 0.930 . S
C1089 C1087 1.419 . S
C1089 C1090 1.362 . S
C1090 H1082 0.930 . S
C1090 C1089 1.362 . S
C1090 C1093 1.409 . S
C1091 H1083 0.930 . S
C1091 C1092 1.355 . S
C1091 C1093 1.415 . S
C1092 C1091 1.355 . S
C1092 C1094 1.419 . S
C1093 C1088 1.425 . S
C1093 C1090 1.409 . S
C1093 C1091 1.415 . S
C1094 H1084 0.930 . S
C1094 C1092 1.419 . S
C1094 C1095 1.362 . S
C1095 H1085 0.930 . S
C1095 C1088 1.409 . S
C1095 C1094 1.362 . S
H1096 C1102 0.930 . S
H1097 C1105 0.930 . S
H1098 C1106 0.930 . S
H1099 C1107 0.930 . S
H1100 C1110 0.930 . S
H1101 C1111 0.930 . S
C1102 H1096 0.930 . S
C1102 C1103 1.355 . S
C1102 C1104 1.415 . S
C1103 C1102 1.355 . S
C1103 C1105 1.419 . S
C1104 C1102 1.415 . S
C1104 C1109 1.425 . S
C1104 C1111 1.409 . S
C1105 H1097 0.930 . S
C1105 C1103 1.419 . S
C1105 C1106 1.362 . S
C1106 H1098 0.930 . S
C1106 C1105 1.362 . S
C1106 C1109 1.409 . S
C1107 H1099 0.930 . S
C1107 C1108 1.355 . S
C1107 C1109 1.415 . S
C1108 C1107 1.355 . S
C1108 C1110 1.419 . S
C1109 C1104 1.425 . S
C1109 C1106 1.409 . S
C1109 C1107 1.415 . S
C1110 H1100 0.930 . S
C1110 C1108 1.419 . S
C1110 C1111 1.362 . S
C1111 H1101 0.930 . S
C1111 C1104 1.409 . S
C1111 C1110 1.362 . S
C356 C184 1.709 . S
C351 C60 1.696 . S
C372 C199 1.593 . S
C367 C76 1.606 . S
C383 C81 1.788 . S
C388 C212 1.765 . S
C404 C226 1.542 . S
C399 C48 1.547 . S
C420 C238 1.689 . S
C415 C115 1.765 . S
C436 C252 1.429 . S
C431 C136 1.388 . S
C447 C131 1.561 . S
C452 C266 1.515 . S
C468 C281 1.402 . S
C463 C104 1.455 . S
C479 C126 1.623 . S
C484 C297 1.605 . S
C500 C310 1.404 . S
C495 C103 1.370 . S
C511 C120 1.510 . S
C516 C295 1.450 . S
C532 C308 1.576 . S
C527 C142 1.559 . S
C543 C82 1.815 . S
C548 C324 1.833 . S
C559 C54 1.738 . S
C564 C323 1.732 . S
C575 C65 1.610 . S
C580 C322 1.538 . S
C591 C71 1.379 . S
C596 C325 1.382 . S
C607 C37 1.711 . S
C612 C227 1.695 . S
C623 C158 1.791 . S
C628 C225 1.774 . S
C644 C185 1.444 . S
C639 C169 1.455 . S
C660 C196 1.515 . S
C655 C98 1.556 . S
C671 C49 1.710 1_545 S
C676 C241 1.702 . S
C692 C282 1.836 . S
C687 C125 1.838 . S
C708 C239 1.547 . S
C703 C109 1.548 . S
C724 C267 1.616 . S
C719 C137 1.683 . S
C740 C268 1.691 . S
C735 C159 1.713 . S
C751 C175 1.555 . S
C756 C283 1.530 . S
C767 C92 1.790 . S
C772 C240 1.793 . S
C788 C254 1.544 . S
C783 C147 1.549 . S
C799 C38 1.731 . S
C804 C210 1.610 . S
C820 C224 1.390 1_455 S
C815 C4 1.408 . S
C836 C182 1.530 . S
C831 C21 1.555 . S
C852 C197 1.404 . S
C847 C27 1.391 . S
C863 C16 1.622 . S
C868 C311 1.591 . S
C879 C26 1.421 . S
C884 C296 1.419 . S
C895 C43 1.518 . S
C900 C309 1.470 . S
C911 C10 1.515 . S
C916 C294 1.543 . S
C932 C338 1.810 . S
C927 C93 1.835 . S
C948 C337 1.737 . S
C943 C153 1.742 . S
C964 C336 1.540 . S
C959 C164 1.611 . S
C975 C170 1.304 . S
C980 C339 1.313 . S
C991 C114 1.729 . S
C996 C255 1.714 . S
C1012 C253 1.744 . S
C1007 C59 1.780 . S
C1028 C269 1.369 . S
C1023 C70 1.396 . S
C1044 C280 1.533 . S
C1039 C87 1.536 . S
C1055 C148 1.684 . S
C1060 C213 1.689 . S
C1076 C198 1.834 . S
C1071 C15 1.841 . S
C1087 C32 1.541 . S
C1092 C211 1.526 . S
C1108 C183 1.697 . S
C1103 C5 1.677 . S
