# Generated by pormake.
# Topology ptr, (4,4)-cn, num edge types: 1
# Building blocks:
#     Node 0, Type 0, BuildingBlock: AZAVOO_clean_sbu_0, # of connection points: 4
#     Node 1, Type 0, BuildingBlock: AZAVOO_clean_sbu_0, # of connection points: 4
#     Node 2, Type 0, BuildingBlock: AZAVOO_clean_sbu_0, # of connection points: 4
#     Node 3, Type 0, BuildingBlock: AZAVOO_clean_sbu_0, # of connection points: 4
#     Node 4, Type 0, BuildingBlock: AZAVOO_clean_sbu_0, # of connection points: 4
#     Node 5, Type 0, BuildingBlock: AZAVOO_clean_sbu_0, # of connection points: 4
#     Node 6, Type 0, BuildingBlock: AZAVOO_clean_sbu_0, # of connection points: 4
#     Node 7, Type 0, BuildingBlock: AZAVOO_clean_sbu_0, # of connection points: 4
#     Node 8, Type 0, BuildingBlock: AZAVOO_clean_sbu_0, # of connection points: 4
#     Node 9, Type 0, BuildingBlock: AZAVOO_clean_sbu_0, # of connection points: 4
#     Node 10, Type 0, BuildingBlock: AZAVOO_clean_sbu_0, # of connection points: 4
#     Node 11, Type 0, BuildingBlock: AZAVOO_clean_sbu_0, # of connection points: 4
#     Node 12, Type 0, BuildingBlock: AZAVOO_clean_sbu_0, # of connection points: 4
#     Node 13, Type 0, BuildingBlock: AZAVOO_clean_sbu_0, # of connection points: 4
#     Node 14, Type 0, BuildingBlock: AZAVOO_clean_sbu_0, # of connection points: 4
#     Node 15, Type 0, BuildingBlock: AZAVOO_clean_sbu_0, # of connection points: 4
#     Node 16, Type 0, BuildingBlock: AZAVOO_clean_sbu_0, # of connection points: 4
#     Node 17, Type 0, BuildingBlock: AZAVOO_clean_sbu_0, # of connection points: 4
#     Node 18, Type 1, BuildingBlock: NAHDIM_clean_linker_0, # of connection points: 4
#     Node 19, Type 1, BuildingBlock: NAHDIM_clean_linker_0, # of connection points: 4
#     Node 20, Type 1, BuildingBlock: NAHDIM_clean_linker_0, # of connection points: 4
#     Node 21, Type 1, BuildingBlock: NAHDIM_clean_linker_0, # of connection points: 4
#     Node 22, Type 1, BuildingBlock: NAHDIM_clean_linker_0, # of connection points: 4
#     Node 23, Type 1, BuildingBlock: NAHDIM_clean_linker_0, # of connection points: 4
#     Node 24, Type 1, BuildingBlock: NAHDIM_clean_linker_0, # of connection points: 4
#     Node 25, Type 1, BuildingBlock: NAHDIM_clean_linker_0, # of connection points: 4
#     Node 26, Type 1, BuildingBlock: NAHDIM_clean_linker_0, # of connection points: 4
#     Node 27, Type 1, BuildingBlock: NAHDIM_clean_linker_0, # of connection points: 4
#     Node 28, Type 1, BuildingBlock: NAHDIM_clean_linker_0, # of connection points: 4
#     Node 29, Type 1, BuildingBlock: NAHDIM_clean_linker_0, # of connection points: 4
#     Node 30, Type 1, BuildingBlock: NAHDIM_clean_linker_0, # of connection points: 4
#     Node 31, Type 1, BuildingBlock: NAHDIM_clean_linker_0, # of connection points: 4
#     Node 32, Type 1, BuildingBlock: NAHDIM_clean_linker_0, # of connection points: 4
#     Node 33, Type 1, BuildingBlock: NAHDIM_clean_linker_0, # of connection points: 4
#     Node 34, Type 1, BuildingBlock: NAHDIM_clean_linker_0, # of connection points: 4
#     Node 35, Type 1, BuildingBlock: NAHDIM_clean_linker_0, # of connection points: 4
#     Edge 36, Type (0, 1), BuildingBlock: AJUNOK_clean_linker_0, # of connection points: 2
#     Edge 37, Type (0, 1), BuildingBlock: AJUNOK_clean_linker_0, # of connection points: 2
#     Edge 38, Type (0, 1), BuildingBlock: AJUNOK_clean_linker_0, # of connection points: 2
#     Edge 39, Type (0, 1), BuildingBlock: AJUNOK_clean_linker_0, # of connection points: 2
#     Edge 40, Type (0, 1), BuildingBlock: AJUNOK_clean_linker_0, # of connection points: 2
#     Edge 41, Type (0, 1), BuildingBlock: AJUNOK_clean_linker_0, # of connection points: 2
#     Edge 42, Type (0, 1), BuildingBlock: AJUNOK_clean_linker_0, # of connection points: 2
#     Edge 43, Type (0, 1), BuildingBlock: AJUNOK_clean_linker_0, # of connection points: 2
#     Edge 44, Type (0, 1), BuildingBlock: AJUNOK_clean_linker_0, # of connection points: 2
#     Edge 45, Type (0, 1), BuildingBlock: AJUNOK_clean_linker_0, # of connection points: 2
#     Edge 46, Type (0, 1), BuildingBlock: AJUNOK_clean_linker_0, # of connection points: 2
#     Edge 47, Type (0, 1), BuildingBlock: AJUNOK_clean_linker_0, # of connection points: 2
#     Edge 48, Type (0, 1), BuildingBlock: AJUNOK_clean_linker_0, # of connection points: 2
#     Edge 49, Type (0, 1), BuildingBlock: AJUNOK_clean_linker_0, # of connection points: 2
#     Edge 50, Type (0, 1), BuildingBlock: AJUNOK_clean_linker_0, # of connection points: 2
#     Edge 51, Type (0, 1), BuildingBlock: AJUNOK_clean_linker_0, # of connection points: 2
#     Edge 52, Type (0, 1), BuildingBlock: AJUNOK_clean_linker_0, # of connection points: 2
#     Edge 53, Type (0, 1), BuildingBlock: AJUNOK_clean_linker_0, # of connection points: 2
#     Edge 54, Type (0, 1), BuildingBlock: AJUNOK_clean_linker_0, # of connection points: 2
#     Edge 55, Type (0, 1), BuildingBlock: AJUNOK_clean_linker_0, # of connection points: 2
#     Edge 56, Type (0, 1), BuildingBlock: AJUNOK_clean_linker_0, # of connection points: 2
#     Edge 57, Type (0, 1), BuildingBlock: AJUNOK_clean_linker_0, # of connection points: 2
#     Edge 58, Type (0, 1), BuildingBlock: AJUNOK_clean_linker_0, # of connection points: 2
#     Edge 59, Type (0, 1), BuildingBlock: AJUNOK_clean_linker_0, # of connection points: 2
#     Edge 60, Type (0, 1), BuildingBlock: AJUNOK_clean_linker_0, # of connection points: 2
#     Edge 61, Type (0, 1), BuildingBlock: AJUNOK_clean_linker_0, # of connection points: 2
#     Edge 62, Type (0, 1), BuildingBlock: AJUNOK_clean_linker_0, # of connection points: 2
#     Edge 63, Type (0, 1), BuildingBlock: AJUNOK_clean_linker_0, # of connection points: 2
#     Edge 64, Type (0, 1), BuildingBlock: AJUNOK_clean_linker_0, # of connection points: 2
#     Edge 65, Type (0, 1), BuildingBlock: AJUNOK_clean_linker_0, # of connection points: 2
#     Edge 66, Type (0, 1), BuildingBlock: AJUNOK_clean_linker_0, # of connection points: 2
#     Edge 67, Type (0, 1), BuildingBlock: AJUNOK_clean_linker_0, # of connection points: 2
#     Edge 68, Type (0, 1), BuildingBlock: AJUNOK_clean_linker_0, # of connection points: 2
#     Edge 69, Type (0, 1), BuildingBlock: AJUNOK_clean_linker_0, # of connection points: 2
#     Edge 70, Type (0, 1), BuildingBlock: AJUNOK_clean_linker_0, # of connection points: 2
#     Edge 71, Type (0, 1), BuildingBlock: AJUNOK_clean_linker_0, # of connection points: 2
#     Edge 72, Type (0, 1), BuildingBlock: AJUNOK_clean_linker_0, # of connection points: 2
#     Edge 73, Type (0, 1), BuildingBlock: AJUNOK_clean_linker_0, # of connection points: 2
#     Edge 74, Type (0, 1), BuildingBlock: AJUNOK_clean_linker_0, # of connection points: 2
#     Edge 75, Type (0, 1), BuildingBlock: AJUNOK_clean_linker_0, # of connection points: 2
#     Edge 76, Type (0, 1), BuildingBlock: AJUNOK_clean_linker_0, # of connection points: 2
#     Edge 77, Type (0, 1), BuildingBlock: AJUNOK_clean_linker_0, # of connection points: 2
#     Edge 78, Type (0, 1), BuildingBlock: AJUNOK_clean_linker_0, # of connection points: 2
#     Edge 79, Type (0, 1), BuildingBlock: AJUNOK_clean_linker_0, # of connection points: 2
#     Edge 80, Type (0, 1), BuildingBlock: AJUNOK_clean_linker_0, # of connection points: 2
#     Edge 81, Type (0, 1), BuildingBlock: AJUNOK_clean_linker_0, # of connection points: 2
#     Edge 82, Type (0, 1), BuildingBlock: AJUNOK_clean_linker_0, # of connection points: 2
#     Edge 83, Type (0, 1), BuildingBlock: AJUNOK_clean_linker_0, # of connection points: 2
#     Edge 84, Type (0, 1), BuildingBlock: AJUNOK_clean_linker_0, # of connection points: 2
#     Edge 85, Type (0, 1), BuildingBlock: AJUNOK_clean_linker_0, # of connection points: 2
#     Edge 86, Type (0, 1), BuildingBlock: AJUNOK_clean_linker_0, # of connection points: 2
#     Edge 87, Type (0, 1), BuildingBlock: AJUNOK_clean_linker_0, # of connection points: 2
#     Edge 88, Type (0, 1), BuildingBlock: AJUNOK_clean_linker_0, # of connection points: 2
#     Edge 89, Type (0, 1), BuildingBlock: AJUNOK_clean_linker_0, # of connection points: 2
#     Edge 90, Type (0, 1), BuildingBlock: AJUNOK_clean_linker_0, # of connection points: 2
#     Edge 91, Type (0, 1), BuildingBlock: AJUNOK_clean_linker_0, # of connection points: 2
#     Edge 92, Type (0, 1), BuildingBlock: AJUNOK_clean_linker_0, # of connection points: 2
#     Edge 93, Type (0, 1), BuildingBlock: AJUNOK_clean_linker_0, # of connection points: 2
#     Edge 94, Type (0, 1), BuildingBlock: AJUNOK_clean_linker_0, # of connection points: 2
#     Edge 95, Type (0, 1), BuildingBlock: AJUNOK_clean_linker_0, # of connection points: 2
#     Edge 96, Type (0, 1), BuildingBlock: AJUNOK_clean_linker_0, # of connection points: 2
#     Edge 97, Type (0, 1), BuildingBlock: AJUNOK_clean_linker_0, # of connection points: 2
#     Edge 98, Type (0, 1), BuildingBlock: AJUNOK_clean_linker_0, # of connection points: 2
#     Edge 99, Type (0, 1), BuildingBlock: AJUNOK_clean_linker_0, # of connection points: 2
#     Edge 100, Type (0, 1), BuildingBlock: AJUNOK_clean_linker_0, # of connection points: 2
#     Edge 101, Type (0, 1), BuildingBlock: AJUNOK_clean_linker_0, # of connection points: 2
#     Edge 102, Type (0, 1), BuildingBlock: AJUNOK_clean_linker_0, # of connection points: 2
#     Edge 103, Type (0, 1), BuildingBlock: AJUNOK_clean_linker_0, # of connection points: 2
#     Edge 104, Type (0, 1), BuildingBlock: AJUNOK_clean_linker_0, # of connection points: 2
#     Edge 105, Type (0, 1), BuildingBlock: AJUNOK_clean_linker_0, # of connection points: 2
#     Edge 106, Type (0, 1), BuildingBlock: AJUNOK_clean_linker_0, # of connection points: 2
#     Edge 107, Type (0, 1), BuildingBlock: AJUNOK_clean_linker_0, # of connection points: 2
# Relax obj value: 0.102
# Max RMSD: 0.342
# Mean RMSD: 0.135
data_MOF--net-ptr--node1-AZAVOO_clean_sbu_0--node2-NAHDIM_clean_linker_0--edge1-AJUNOK_clean_linker_0
_symmetry_space_group_name_H-M    P1
_symmetry_Int_Tables_number       1
_symmetry_cell_setting            triclinic
loop_
_symmetry_equiv_pos_as_xyz
'x, y, z'
_cell_length_a     77.32574
_cell_length_b     75.64213
_cell_length_c     63.244739
_cell_angle_alpha  91.978859
_cell_angle_beta   91.464971
_cell_angle_gamma 120.27405
loop_
_atom_site_label
_atom_site_type_symbol
_atom_site_fract_x
_atom_site_fract_y
_atom_site_fract_z
_atom_type_partial_charge
Mg0 Mg 0.0155 0.33497 0.98514 0.0
O1 O 0.00235 0.34519 0.01191 0.0
O2 O 0.97574 0.34569 0.998 0.0
Mg3 Mg 0.97258 0.3369 0.96254 0.0
C4 C 0.98758 0.34816 0.01374 0.0
C5 C 0.03655 0.31336 0.00445 0.0
O6 O 0.03067 0.30417 0.98547 0.0
O7 O 0.98948 0.30232 0.98507 0.0
O8 O 0.96388 0.3037 0.96982 0.0
O9 O 0.03546 0.36745 0.97796 0.0
O10 O 0.00511 0.34782 0.96308 0.0
C11 C 0.97131 0.29361 0.97799 0.0
C12 C 0.02105 0.36569 0.9655 0.0
O13 O 0.03291 0.32754 0.00942 0.0
Mg14 Mg 0.66797 0.65066 0.03536 0.0
O15 O 0.63789 0.64038 0.01698 0.0
O16 O 0.61737 0.6407 0.04126 0.0
Mg17 Mg 0.63265 0.64766 0.07419 0.0
C18 C 0.62108 0.63819 0.02222 0.0
C19 C 0.69913 0.65419 0.00583 0.0
O20 O 0.69985 0.64349 0.02141 0.0
O21 O 0.674 0.68312 0.04001 0.0
O22 O 0.65352 0.6809 0.06535 0.0
O23 O 0.65895 0.61827 0.03957 0.0
O24 O 0.65266 0.63711 0.06204 0.0
C25 C 0.66726 0.69137 0.05273 0.0
C26 C 0.65067 0.61954 0.05667 0.0
O27 O 0.68568 0.65914 0.00568 0.0
Mg28 Mg 0.33179 0.98984 0.98119 0.0
O29 O 0.34991 0.99654 0.0125 0.0
O30 O 0.37821 0.02676 0.01138 0.0
Mg31 Mg 0.37879 0.03838 0.97827 0.0
C32 C 0.36646 0.01083 0.02108 0.0
C33 C 0.28708 0.96354 0.99067 0.0
O34 O 0.28621 0.97401 0.97494 0.0
O35 O 0.32407 0.01424 0.98983 0.0
O36 O 0.35253 0.04347 0.98561 0.0
O37 O 0.34627 0.97323 0.96802 0.0
O38 O 0.35822 0.00651 0.96577 0.0
C39 C 0.33398 0.03373 0.98973 0.0
C40 C 0.36033 0.99083 0.96229 0.0
O41 O 0.30401 0.96608 0.99671 0.0
Mg42 Mg 0.97921 0.65764 0.03967 0.0
O43 O 0.9944 0.64819 0.01468 0.0
O44 O 0.0194 0.64624 0.03061 0.0
Mg45 Mg 0.01983 0.65417 0.06602 0.0
C46 C 0.00893 0.64474 0.01398 0.0
C47 C 0.96225 0.6817 0.01839 0.0
O48 O 0.96506 0.68851 0.03831 0.0
O49 O 0.00555 0.68988 0.04192 0.0
O50 O 0.03011 0.68786 0.05887 0.0
O51 O 0.95836 0.62474 0.04552 0.0
O52 O 0.98751 0.6443 0.06293 0.0
C53 C 0.02332 0.69826 0.05008 0.0
C54 C 0.9717 0.6265 0.05961 0.0
O55 O 0.9653 0.66709 0.01352 0.0
Mg56 Mg 0.33702 0.35782 0.9885 0.0
O57 O 0.36273 0.36264 0.01117 0.0
O58 O 0.38731 0.36387 0.99252 0.0
Mg59 Mg 0.3772 0.36074 0.95745 0.0
C60 C 0.37995 0.36431 0.01023 0.0
C61 C 0.29863 0.33215 0.0111 0.0
O62 O 0.2932 0.32618 0.99106 0.0
O63 O 0.32886 0.32535 0.98101 0.0
O64 O 0.35298 0.32659 0.9613 0.0
O65 O 0.3499 0.3913 0.98709 0.0
O66 O 0.35657 0.3725 0.96491 0.0
C67 C 0.33644 0.31657 0.97043 0.0
C68 C 0.35938 0.39028 0.97087 0.0
O69 O 0.31626 0.34692 0.01571 0.0
Mg70 Mg 0.67959 0.03287 0.03893 0.0
O71 O 0.65554 0.01447 0.01251 0.0
O72 O 0.62744 0.99178 0.02718 0.0
Mg73 Mg 0.63358 0.99605 0.0632 0.0
C74 C 0.63728 -3e-05 0.01091 0.0
C75 C 0.70459 0.03134 0.00142 0.0
O76 O 0.68957 0.01235 0.99992 0.0
O77 O 0.68338 0.00568 0.04487 0.0
O78 O 0.65541 0.98363 0.06022 0.0
O79 O 0.66924 0.05554 0.04069 0.0
O80 O 0.65749 0.02812 0.05961 0.0
C81 C 0.67258 0.98864 0.05324 0.0
C82 C 0.65661 0.0439 0.05415 0.0
O83 O 0.70429 0.04385 0.01519 0.0
Mg84 Mg 0.68281 0.6795 0.32668 0.0
O85 O 0.65945 0.68243 0.34616 0.0
O86 O 0.63962 0.6867 0.32297 0.0
Mg87 Mg 0.64964 0.68606 0.28943 0.0
C88 C 0.64475 0.68512 0.34181 0.0
C89 C 0.70752 0.67792 0.36652 0.0
O90 O 0.71879 0.69749 0.3633 0.0
O91 O 0.6595 0.64688 0.31468 0.0
O92 O 0.64086 0.65215 0.29096 0.0
O93 O 0.70199 0.71367 0.3301 0.0
O94 O 0.68001 0.69704 0.30334 0.0
C95 C 0.6452 0.64024 0.3006 0.0
C96 C 0.6924 0.71419 0.31329 0.0
O97 O 0.69179 0.66691 0.35478 0.0
Mg98 Mg 0.33083 0.97865 0.37097 0.0
O99 O 0.30886 0.97666 0.34437 0.0
O100 O 0.28239 0.97468 0.36013 0.0
Mg101 Mg 0.28711 0.97515 0.39586 0.0
C102 C 0.29172 0.97541 0.34352 0.0
C103 C 0.35544 0.97565 0.33434 0.0
O104 O 0.33941 0.95729 0.33235 0.0
O105 O 0.33975 0.0117 0.37903 0.0
O106 O 0.31295 0.0086 0.39488 0.0
O107 O 0.31614 0.94486 0.36946 0.0
O108 O 0.3068 0.96248 0.39011 0.0
C109 C 0.33063 0.01958 0.38842 0.0
C110 C 0.30355 0.94501 0.38242 0.0
O111 O 0.35602 0.98852 0.34823 0.0
Mg112 Mg 0.00593 0.32131 0.31785 0.0
O113 O 0.02835 0.33488 0.34663 0.0
O114 O 0.05899 0.35327 0.33411 0.0
Mg115 Mg 0.0563 0.35031 0.29798 0.0
C116 C 0.04734 0.34657 0.34949 0.0
C117 C 0.96605 0.31703 0.3348 0.0
O118 O 0.96711 0.32735 0.31813 0.0
O119 O 0.01062 0.35315 0.31327 0.0
O120 O 0.04082 0.36939 0.29979 0.0
O121 O 0.00818 0.29316 0.3169 0.0
O122 O 0.02821 0.32117 0.3004 0.0
C123 C 0.02503 0.36908 0.30582 0.0
C124 C 0.02387 0.30323 0.30604 0.0
O125 O 0.9798 0.31295 0.33885 0.0
Mg126 Mg 0.64047 0.97326 0.35598 0.0
O127 O 0.66318 0.96981 0.33617 0.0
O128 O 0.68387 0.9663 0.35863 0.0
Mg129 Mg 0.67355 0.96607 0.39236 0.0
C130 C 0.67833 0.96766 0.33985 0.0
C131 C 0.62294 0.99591 0.33417 0.0
O132 O 0.61987 0.99706 0.35437 0.0
O133 O 0.66452 0.00545 0.36717 0.0
O134 O 0.68313 0.0003 0.39093 0.0
O135 O 0.6195 0.93932 0.35419 0.0
O136 O 0.64318 0.95621 0.37931 0.0
C137 C 0.67898 0.01228 0.38106 0.0
C138 C 0.62891 0.93893 0.37126 0.0
O139 O 0.63153 0.98607 0.32847 0.0
Mg140 Mg 0.00567 0.68772 0.32053 0.0
O141 O 0.03015 0.69672 0.34693 0.0
O142 O 0.05837 0.70404 0.33115 0.0
Mg143 Mg 0.05226 0.70119 0.29518 0.0
C144 C 0.04866 0.7019 0.34782 0.0
C145 C 0.96453 0.67187 0.33803 0.0
O146 O 0.96428 0.68161 0.32131 0.0
O147 O 0.00466 0.65763 0.31433 0.0
O148 O 0.03275 0.66604 0.29772 0.0
O149 O 0.01272 0.72005 0.31873 0.0
O150 O 0.02673 0.70607 0.2997 0.0
C151 C 0.01626 0.6527 0.30524 0.0
C152 C 0.02534 0.72196 0.30463 0.0
O153 O 0.98079 0.6726 0.34354 0.0
Mg154 Mg 0.32939 0.35731 0.37717 0.0
O155 O 0.30319 0.33784 0.35324 0.0
O156 O 0.27703 0.31559 0.37083 0.0
Mg157 Mg 0.28646 0.32195 0.40623 0.0
C158 C 0.28515 0.32302 0.35352 0.0
C159 C 0.36786 0.36796 0.35576 0.0
O160 O 0.3717 0.36605 0.37563 0.0
O161 O 0.33335 0.33031 0.38213 0.0
O162 O 0.30764 0.30889 0.40085 0.0
O163 O 0.32009 0.38057 0.38054 0.0
O164 O 0.30988 0.354 0.40053 0.0
C165 C 0.32386 0.31374 0.39163 0.0
C166 C 0.30931 0.37016 0.39583 0.0
O167 O 0.35109 0.36636 0.35072 0.0
Mg168 Mg 0.34925 0.01868 0.66268 0.0
O169 O 0.33428 0.02804 0.68827 0.0
O170 O 0.31317 0.03567 0.6716 0.0
Mg171 Mg 0.31508 0.03201 0.6359 0.0
C172 C 0.32121 0.03366 0.68856 0.0
C173 C 0.37183 0.99833 0.68188 0.0
O174 O 0.37161 0.99383 0.66158 0.0
O175 O 0.32 0.98773 0.65737 0.0
O176 O 0.30076 0.99749 0.64032 0.0
O177 O 0.37399 0.0509 0.66128 0.0
O178 O 0.34558 0.03784 0.64201 0.0
C179 C 0.30345 0.98366 0.64808 0.0
C180 C 0.36252 0.05364 0.64827 0.0
O181 O 0.36218 0.00698 0.68775 0.0
Mg182 Mg 0.00188 0.32841 0.70915 0.0
O183 O 0.97599 0.31417 0.68386 0.0
O184 O 0.94726 0.30045 0.70061 0.0
Mg185 Mg 0.95475 0.3043 0.73634 0.0
C186 C 0.95686 0.30486 0.68361 0.0
C187 C 0.02556 0.33713 0.66819 0.0
O188 O 0.01409 0.31714 0.6657 0.0
O189 O 0.99495 0.35393 0.71518 0.0
O190 O 0.967 0.33878 0.73305 0.0
O191 O 0.00288 0.29952 0.71035 0.0
O192 O 0.98363 0.3067 0.72984 0.0
C193 C 0.98101 0.35459 0.72489 0.0
C194 C 0.98903 0.2938 0.7239 0.0
O195 O 0.02403 0.34653 0.68441 0.0
Mg196 Mg 0.67064 0.65003 0.64769 0.0
O197 O 0.6955 0.66735 0.67385 0.0
O198 O 0.72236 0.69118 0.65817 0.0
Mg199 Mg 0.71531 0.68846 0.62263 0.0
C200 C 0.71354 0.6824 0.67471 0.0
C201 C 0.63075 0.63689 0.66821 0.0
O202 O 0.62885 0.64485 0.65079 0.0
O203 O 0.66703 0.67776 0.64608 0.0
O204 O 0.69384 0.70054 0.62958 0.0
O205 O 0.68044 0.62737 0.64218 0.0
O206 O 0.69192 0.65613 0.62556 0.0
C207 C 0.67736 0.69524 0.63841 0.0
C208 C 0.69262 0.63978 0.62888 0.0
O209 O 0.64682 0.6366 0.67206 0.0
Mg210 Mg 0.31626 0.32541 0.70693 0.0
O211 O 0.33097 0.31583 0.68149 0.0
O212 O 0.35308 0.30934 0.69744 0.0
Mg213 Mg 0.35185 0.31422 0.73327 0.0
C214 C 0.34423 0.31054 0.68068 0.0
C215 C 0.30317 0.3537 0.68798 0.0
O216 O 0.30657 0.35978 0.70814 0.0
O217 O 0.34465 0.35603 0.71221 0.0
O218 O 0.36601 0.34917 0.72934 0.0
O219 O 0.29233 0.29298 0.70949 0.0
O220 O 0.32078 0.30824 0.72891 0.0
C221 C 0.36171 0.36184 0.72128 0.0
C222 C 0.30388 0.29185 0.72394 0.0
O223 O 0.30522 0.3387 0.68191 0.0
Mg224 Mg 0.66994 0.01858 0.64342 0.0
O225 O 0.69592 0.02855 0.66776 0.0
O226 O 0.72295 0.0331 0.65146 0.0
Mg227 Mg 0.71391 0.02657 0.61589 0.0
C228 C 0.71424 0.03321 0.66831 0.0
C229 C 0.63147 0.99243 0.66796 0.0
O230 O 0.62579 0.98226 0.64945 0.0
O231 O 0.6662 0.98707 0.6393 0.0
O232 O 0.69254 0.9921 0.62109 0.0
O233 O 0.67895 0.05101 0.63932 0.0
O234 O 0.68969 0.03388 0.61999 0.0
C235 C 0.6762 0.98025 0.62988 0.0
C236 C 0.69008 0.05086 0.62442 0.0
O237 O 0.64872 0.00838 0.67029 0.0
Mg238 Mg 0.00125 0.69627 0.70282 0.0
O239 O 0.97861 0.68199 0.67439 0.0
O240 O 0.94837 0.66148 0.68653 0.0
Mg241 Mg 0.95157 0.6648 0.72289 0.0
C242 C 0.95992 0.66912 0.67122 0.0
C243 C 0.0262 0.69168 0.66698 0.0
O244 O 0.0092 0.67447 0.66282 0.0
O245 O 0.99852 0.66577 0.70808 0.0
O246 O 0.96866 0.64689 0.72178 0.0
O247 O 0.99716 0.72329 0.70482 0.0
O248 O 0.97941 0.69504 0.72186 0.0
C249 C 0.98534 0.64926 0.71578 0.0
C250 C 0.98306 0.71312 0.71765 0.0
O251 O 0.02735 0.70411 0.68176 0.0
C252 C 0.25259 0.26648 0.08353 0.0
C253 C 0.24548 0.28057 0.07506 0.0
C254 C 0.22783 0.29056 0.10008 0.0
C255 C 0.22881 0.30807 0.10934 0.0
C256 C 0.21205 0.30716 0.11836 0.0
C257 C 0.19399 0.28809 0.11849 0.0
C258 C 0.19295 0.27021 0.1094 0.0
C259 C 0.20993 0.2716 0.10031 0.0
C260 C 0.21366 0.32653 0.12792 0.0
C261 C 0.17398 0.24961 0.10962 0.0
C262 C 0.05505 0.27113 0.08246 0.0
C263 C 0.0707 0.28144 0.06578 0.0
C264 C 0.10248 0.29367 0.08665 0.0
C265 C 0.10044 0.2743 0.08916 0.0
C266 C 0.11456 0.27225 0.10163 0.0
C267 C 0.13109 0.28988 0.1117 0.0
C268 C 0.13343 0.30942 0.10884 0.0
C269 C 0.11907 0.31103 0.09634 0.0
C270 C 0.11171 0.2512 0.1043 0.0
C271 C 0.15098 0.32857 0.11921 0.0
C272 C 0.09047 0.28654 0.24198 0.0
C273 C 0.08974 0.26761 0.24028 0.0
C274 C 0.10559 0.26617 0.23174 0.0
C275 C 0.12258 0.28408 0.22522 0.0
C276 C 0.12365 0.30327 0.22776 0.0
C277 C 0.10738 0.30415 0.23578 0.0
C278 C 0.104 0.24548 0.22924 0.0
C279 C 0.14179 0.32281 0.22162 0.0
C280 C 0.25499 0.27199 0.26388 0.0
C281 C 0.24624 0.28542 0.27038 0.0
C282 C 0.2122 0.27585 0.25772 0.0
C283 C 0.19421 0.25837 0.25081 0.0
C284 C 0.18004 0.25977 0.23776 0.0
C285 C 0.18387 0.27924 0.23184 0.0
C286 C 0.20175 0.2971 0.23944 0.0
C287 C 0.21574 0.29523 0.25235 0.0
C288 C 0.16107 0.24043 0.23012 0.0
C289 C 0.20604 0.31812 0.23386 0.0
C290 C 0.17651 0.28676 0.12898 0.0
C291 C 0.16213 0.28828 0.1166 0.0
C292 C 0.14565 0.28784 0.1257 0.0
C293 C 0.14344 0.2859 0.14777 0.0
C294 C 0.12703 0.28536 0.15745 0.0
C295 C 0.12527 0.28398 0.17923 0.0
C296 C 0.13991 0.28321 0.19222 0.0
C297 C 0.13866 0.28264 0.21448 0.0
C298 C 0.1532 0.28144 0.22691 0.0
C299 C 0.16916 0.28086 0.2177 0.0
C300 C 0.17088 0.28181 0.19549 0.0
C301 C 0.18686 0.28151 0.1857 0.0
C302 C 0.18867 0.28298 0.16391 0.0
C303 C 0.17452 0.28471 0.15105 0.0
C304 C 0.15803 0.2845 0.1605 0.0
C305 C 0.15625 0.28312 0.18275 0.0
C306 C 0.04856 0.28375 0.27097 0.0
C307 C 0.05956 0.27457 0.26083 0.0
O308 O 0.24459 0.29257 0.09154 0.0
O309 O 0.22551 0.27338 0.26984 0.0
O310 O 0.07517 0.28851 0.24927 0.0
O311 O 0.08887 0.29641 0.07529 0.0
H312 H 0.23038 0.27074 0.06707 0.0
H313 H 0.24176 0.25603 0.09477 0.0
H314 H 0.26752 0.27548 0.09199 0.0
H315 H 0.25354 0.25701 0.07029 0.0
H316 H 0.24278 0.32256 0.10925 0.0
H317 H 0.20924 0.25782 0.09382 0.0
H318 H 0.2015 0.32863 0.12104 0.0
H319 H 0.22833 0.34034 0.12525 0.0
H320 H 0.21175 0.32523 0.14524 0.0
H321 H 0.17562 0.23711 0.10202 0.0
H322 H 0.16153 0.2502 0.10118 0.0
H323 H 0.16972 0.2459 0.12621 0.0
H324 H 0.07282 0.26962 0.05723 0.0
H325 H 0.05979 0.26323 0.09366 0.0
H326 H 0.04042 0.25949 0.07466 0.0
H327 H 0.05297 0.28262 0.09171 0.0
H328 H 0.08784 0.26065 0.08166 0.0
H329 H 0.12061 0.32592 0.09426 0.0
H330 H 0.11051 0.24791 0.12134 0.0
H331 H 0.12498 0.25073 0.09872 0.0
H332 H 0.09808 0.23896 0.0954 0.0
H333 H 0.15108 0.3427 0.11475 0.0
H334 H 0.16524 0.32965 0.11466 0.0
H335 H 0.15043 0.32777 0.1367 0.0
H336 H 0.04994 0.25946 0.2521 0.0
H337 H 0.07668 0.25388 0.2451 0.0
H338 H 0.10781 0.31869 0.23734 0.0
H339 H 0.10621 0.24238 0.21253 0.0
H340 H 0.08928 0.23286 0.23389 0.0
H341 H 0.11603 0.2455 0.23922 0.0
H342 H 0.14173 0.33666 0.22795 0.0
H343 H 0.14199 0.32313 0.2041 0.0
H344 H 0.15579 0.3235 0.2275 0.0
H345 H 0.2511 0.29741 0.25857 0.0
H346 H 0.27162 0.28131 0.26402 0.0
H347 H 0.24931 0.26515 0.24759 0.0
H348 H 0.25062 0.25936 0.2748 0.0
H349 H 0.19148 0.24353 0.25535 0.0
H350 H 0.22925 0.30892 0.25842 0.0
H351 H 0.15966 0.23948 0.21254 0.0
H352 H 0.14789 0.24082 0.23607 0.0
H353 H 0.16068 0.2264 0.23549 0.0
H354 H 0.22014 0.33055 0.24185 0.0
H355 H 0.19344 0.32033 0.23837 0.0
H356 H 0.20726 0.31947 0.21646 0.0
H357 H 0.16387 0.28999 0.09969 0.0
H358 H 0.11541 0.28611 0.14831 0.0
H359 H 0.11231 0.28365 0.18576 0.0
H360 H 0.15213 0.28103 0.24398 0.0
H361 H 0.19824 0.28031 0.19479 0.0
H362 H 0.20136 0.28281 0.15729 0.0
H363 H 0.03292 0.27489 0.26346 0.0
H364 H 0.05258 0.2982 0.26269 0.0
H365 H 0.05472 0.28377 0.30344 0.0
C366 C 0.71588 0.93523 0.03663 0.0
C367 C 0.70619 0.9346 0.05761 0.0
C368 C 0.71988 0.92994 0.09079 0.0
C369 C 0.70175 0.91645 0.09983 0.0
C370 C 0.70116 0.90346 0.11546 0.0
C371 C 0.71907 0.90411 0.12225 0.0
C372 C 0.73755 0.91883 0.11435 0.0
C373 C 0.73772 0.93173 0.09882 0.0
C374 C 0.68127 0.8883 0.12396 0.0
C375 C 0.75694 0.92009 0.1214 0.0
C376 C 0.70304 0.79043 0.04297 0.0
C377 C 0.70258 0.78019 0.06358 0.0
C378 C 0.69761 0.80054 0.0917 0.0
C379 C 0.71747 0.81703 0.09366 0.0
C380 C 0.72281 0.8338 0.10796 0.0
C381 C 0.70794 0.83432 0.12012 0.0
C382 C 0.68793 0.8178 0.11803 0.0
C383 C 0.68313 0.80102 0.10405 0.0
C384 C 0.7443 0.85117 0.10977 0.0
C385 C 0.67149 0.81809 0.13014 0.0
C386 C 0.71884 0.80682 0.25639 0.0
C387 C 0.73638 0.82036 0.24668 0.0
C388 C 0.73789 0.83721 0.23636 0.0
C389 C 0.72112 0.84002 0.23503 0.0
C390 C 0.70326 0.82618 0.2447 0.0
C391 C 0.70238 0.8098 0.25542 0.0
C392 C 0.75736 0.85187 0.22673 0.0
C393 C 0.68497 0.82846 0.24336 0.0
C394 C 0.73849 0.99407 0.2634 0.0
C395 C 0.72494 0.97124 0.26677 0.0
C396 C 0.73345 0.94456 0.25937 0.0
C397 C 0.74998 0.9423 0.25571 0.0
C398 C 0.74773 0.92479 0.24467 0.0
C399 C 0.72835 0.90899 0.23752 0.0
C400 C 0.71142 0.91071 0.24216 0.0
C401 C 0.71414 0.92852 0.25301 0.0
C402 C 0.76609 0.9234 0.24016 0.0
C403 C 0.69049 0.89387 0.23531 0.0
C404 C 0.71802 0.88738 0.13475 0.0
C405 C 0.71432 0.86959 0.12336 0.0
C406 C 0.71291 0.85289 0.13355 0.0
C407 C 0.71544 0.85389 0.15586 0.0
C408 C 0.71441 0.83746 0.16661 0.0
C409 C 0.71647 0.83842 0.18861 0.0
C410 C 0.7199 0.85596 0.20071 0.0
C411 C 0.72206 0.85709 0.2231 0.0
C412 C 0.72492 0.87459 0.2346 0.0
C413 C 0.72586 0.89113 0.22436 0.0
C414 C 0.72422 0.89047 0.20197 0.0
C415 C 0.72559 0.90705 0.19112 0.0
C416 C 0.72366 0.90614 0.1691 0.0
C417 C 0.72027 0.88862 0.1571 0.0
C418 C 0.71899 0.87178 0.16768 0.0
C419 C 0.7211 0.87276 0.19014 0.0
C420 C 0.71249 0.76703 0.29299 0.0
C421 C 0.71564 0.78739 0.28709 0.0
O422 O 0.72063 0.94107 0.07408 0.0
O423 O 0.73675 0.96237 0.26908 0.0
O424 O 0.71768 0.79034 0.26557 0.0
O425 O 0.69151 0.78397 0.07806 0.0
H426 H 0.69444 0.91828 0.05893 0.0
H427 H 0.72166 0.92444 0.03662 0.0
H428 H 0.72862 0.95084 0.03425 0.0
H429 H 0.70465 0.93052 0.02316 0.0
H430 H 0.68801 0.91573 0.09438 0.0
H431 H 0.75169 0.94253 0.09206 0.0
H432 H 0.67691 0.87258 0.11789 0.0
H433 H 0.66918 0.89144 0.11918 0.0
H434 H 0.68254 0.88868 0.14152 0.0
H435 H 0.7702 0.93346 0.11514 0.0
H436 H 0.7567 0.90588 0.1158 0.0
H437 H 0.75856 0.92117 0.13896 0.0
H438 H 0.71812 0.78627 0.07017 0.0
H439 H 0.71008 0.80725 0.04609 0.0
H440 H 0.68758 0.78435 0.03609 0.0
H441 H 0.71196 0.78763 0.03124 0.0
H442 H 0.72887 0.81713 0.08406 0.0
H443 H 0.66786 0.78826 0.10235 0.0
H444 H 0.74943 0.85562 0.12669 0.0
H445 H 0.74536 0.86474 0.10234 0.0
H446 H 0.75457 0.8471 0.10182 0.0
H447 H 0.65643 0.80494 0.12523 0.0
H448 H 0.67146 0.83256 0.12774 0.0
H449 H 0.67423 0.81749 0.14733 0.0
H450 H 0.72732 0.80088 0.29696 0.0
H451 H 0.74895 0.81778 0.24737 0.0
H452 H 0.68864 0.79903 0.26251 0.0
H453 H 0.75537 0.84988 0.2092 0.0
H454 H 0.76974 0.84928 0.23174 0.0
H455 H 0.76174 0.86797 0.23125 0.0
H456 H 0.67174 0.81545 0.25013 0.0
H457 H 0.68114 0.82954 0.22659 0.0
H458 H 0.68824 0.84287 0.25213 0.0
H459 H 0.71486 0.9646 0.25224 0.0
H460 H 0.72936 0.00151 0.26123 0.0
H461 H 0.74704 0.99604 0.24896 0.0
H462 H 0.74934 0.00188 0.27714 0.0
H463 H 0.76479 0.95464 0.261 0.0
H464 H 0.70119 0.92983 0.25653 0.0
H465 H 0.76702 0.92163 0.22279 0.0
H466 H 0.76488 0.90963 0.24727 0.0
H467 H 0.78014 0.93714 0.24653 0.0
H468 H 0.67881 0.89664 0.24184 0.0
H469 H 0.68799 0.8789 0.24048 0.0
H470 H 0.68871 0.89271 0.21776 0.0
H471 H 0.71229 0.86864 0.10622 0.0
H472 H 0.7119 0.82362 0.15812 0.0
H473 H 0.71531 0.82519 0.19602 0.0
H474 H 0.72634 0.8753 0.25177 0.0
H475 H 0.72815 0.92093 0.19954 0.0
H476 H 0.72476 0.91929 0.16157 0.0
H477 H 0.72629 0.77071 0.30296 0.0
H478 H 0.71653 0.76047 0.27897 0.0
H479 H 0.68379 0.75261 0.30482 0.0
C480 C 0.20578 0.8891 0.02738 0.0
C481 C 0.2169 0.91061 0.0383 0.0
C482 C 0.21066 0.90304 0.07524 0.0
C483 C 0.198 0.91077 0.07987 0.0
C484 C 0.18411 0.90245 0.09568 0.0
C485 C 0.18283 0.88601 0.10692 0.0
C486 C 0.19638 0.879 0.10308 0.0
C487 C 0.21038 0.88787 0.08743 0.0
C488 C 0.17024 0.91066 0.09978 0.0
C489 C 0.19539 0.86145 0.11471 0.0
C490 C 0.07301 0.79237 0.02114 0.0
C491 C 0.07586 0.78658 0.04338 0.0
C492 C 0.08424 0.80816 0.07596 0.0
C493 C 0.09601 0.80136 0.08616 0.0
C494 C 0.11008 0.81348 0.10253 0.0
C495 C 0.11233 0.83268 0.10883 0.0
C496 C 0.09924 0.83867 0.09988 0.0
C497 C 0.0852 0.82618 0.08362 0.0
C498 C 0.12342 0.80636 0.11219 0.0
C499 C 0.101 0.85888 0.1065 0.0
C500 C 0.08383 0.82071 0.2462 0.0
C501 C 0.09614 0.81323 0.23927 0.0
C502 C 0.11342 0.82564 0.22838 0.0
C503 C 0.11827 0.84585 0.22411 0.0
C504 C 0.10632 0.85369 0.2319 0.0
C505 C 0.08935 0.84104 0.24314 0.0
C506 C 0.12628 0.81705 0.22111 0.0
C507 C 0.11117 0.87523 0.22788 0.0
C508 C 0.26212 0.9785 0.24553 0.0
C509 C 0.24909 0.96344 0.26175 0.0
C510 C 0.2252 0.93009 0.24363 0.0
C511 C 0.22029 0.90964 0.24118 0.0
C512 C 0.20245 0.89485 0.23033 0.0
C513 C 0.18915 0.90073 0.22176 0.0
C514 C 0.19398 0.92142 0.22412 0.0
C515 C 0.21207 0.93595 0.23478 0.0
C516 C 0.19787 0.87297 0.22788 0.0
C517 C 0.18008 0.92818 0.2152 0.0
C518 C 0.16566 0.87442 0.12044 0.0
C519 C 0.14758 0.85982 0.11019 0.0
C520 C 0.13058 0.84793 0.12146 0.0
C521 C 0.13151 0.8506 0.14376 0.0
C522 C 0.11469 0.83891 0.15562 0.0
C523 C 0.11588 0.84158 0.17762 0.0
C524 C 0.13398 0.85595 0.18857 0.0
C525 C 0.13546 0.85852 0.21095 0.0
C526 C 0.15359 0.87317 0.22125 0.0
C527 C 0.17044 0.88537 0.20982 0.0
C528 C 0.16936 0.88283 0.18748 0.0
C529 C 0.18613 0.89465 0.17552 0.0
C530 C 0.18493 0.89205 0.15355 0.0
C531 C 0.16698 0.87741 0.14272 0.0
C532 C 0.14983 0.86538 0.15443 0.0
C533 C 0.15105 0.86807 0.17684 0.0
C534 C 0.03283 0.7882 0.24129 0.0
C535 C 0.05232 0.78883 0.24792 0.0
O536 O 0.22298 0.90964 0.05885 0.0
O537 O 0.24273 0.94351 0.25442 0.0
O538 O 0.0664 0.80851 0.25551 0.0
O539 O 0.0724 0.79816 0.05833 0.0
H540 H 0.20651 0.91673 0.03853 0.0
H541 H 0.19215 0.87904 0.03595 0.0
H542 H 0.21555 0.88223 0.0272 0.0
H543 H 0.20103 0.88973 0.01082 0.0
H544 H 0.19883 0.92316 0.07104 0.0
H545 H 0.22048 0.88228 0.08389 0.0
H546 H 0.1549 0.8993 0.09339 0.0
H547 H 0.17512 0.92537 0.09218 0.0
H548 H 0.16944 0.91301 0.11708 0.0
H549 H 0.20714 0.85795 0.11 0.0
H550 H 0.18046 0.8475 0.11147 0.0
H551 H 0.19721 0.86519 0.13204 0.0
H552 H 0.0918 0.79043 0.04477 0.0
H553 H 0.07539 0.78296 0.00897 0.0
H554 H 0.08413 0.80877 0.01916 0.0
H555 H 0.05779 0.79015 0.0184 0.0
H556 H 0.09466 0.78691 0.08097 0.0
H557 H 0.07571 0.83106 0.07597 0.0
H558 H 0.12426 0.80849 0.12972 0.0
H559 H 0.13883 0.81579 0.10667 0.0
H560 H 0.11802 0.78999 0.10776 0.0
H561 H 0.08832 0.86026 0.09985 0.0
H562 H 0.11521 0.8716 0.10095 0.0
H563 H 0.10154 0.86073 0.12404 0.0
H564 H 0.05738 0.78456 0.23324 0.0
H565 H 0.09216 0.79764 0.24232 0.0
H566 H 0.07985 0.84672 0.24885 0.0
H567 H 0.12474 0.81469 0.20359 0.0
H568 H 0.12196 0.80215 0.22802 0.0
H569 H 0.14231 0.82805 0.22551 0.0
H570 H 0.09978 0.87864 0.23403 0.0
H571 H 0.11217 0.87754 0.21061 0.0
H572 H 0.12601 0.88637 0.23559 0.0
H573 H 0.23596 0.96538 0.26419 0.0
H574 H 0.26742 0.99451 0.25145 0.0
H575 H 0.25325 0.97552 0.23039 0.0
H576 H 0.27531 0.97684 0.24235 0.0
H577 H 0.23055 0.90527 0.24789 0.0
H578 H 0.21584 0.9518 0.23589 0.0
H579 H 0.19534 0.86787 0.21083 0.0
H580 H 0.18387 0.86281 0.23585 0.0
H581 H 0.21015 0.87103 0.23473 0.0
H582 H 0.18514 0.94442 0.2199 0.0
H583 H 0.16471 0.91832 0.22067 0.0
H584 H 0.17923 0.92642 0.19764 0.0
H585 H 0.14675 0.85758 0.09305 0.0
H586 H 0.10045 0.82757 0.148 0.0
H587 H 0.10243 0.83219 0.18594 0.0
H588 H 0.15461 0.8751 0.23841 0.0
H589 H 0.20041 0.90605 0.18302 0.0
H590 H 0.19828 0.90158 0.14513 0.0
H591 H 0.02692 0.79305 0.25473 0.0
H592 H 0.02128 0.77246 0.23537 0.0
H593 H 0.03563 0.79875 0.22835 0.0
C594 C 0.28858 0.08784 0.00647 0.0
C595 C 0.29315 0.08072 0.98553 0.0
C596 C 0.30061 0.10523 0.95744 0.0
C597 C 0.28076 0.0994 0.95128 0.0
C598 C 0.27667 0.1082 0.93408 0.0
C599 C 0.29274 0.1235 0.92321 0.0
C600 C 0.31271 0.12941 0.92941 0.0
C601 C 0.31633 0.12005 0.94636 0.0
C602 C 0.25519 0.10166 0.92798 0.0
C603 C 0.33027 0.14612 0.91868 0.0
C604 C 0.27575 0.22435 0.99332 0.0
C605 C 0.2878 0.2279 0.97351 0.0
C606 C 0.27684 0.20722 0.94032 0.0
C607 C 0.29581 0.21155 0.93408 0.0
C608 C 0.29778 0.19807 0.91995 0.0
C609 C 0.28042 0.1799 0.91199 0.0
C610 C 0.26122 0.17637 0.91692 0.0
C611 C 0.25969 0.19029 0.93089 0.0
C612 C 0.31848 0.20262 0.91455 0.0
C613 C 0.24241 0.15725 0.90852 0.0
C614 C 0.27172 0.18882 0.77322 0.0
C615 C 0.29103 0.19619 0.78225 0.0
C616 C 0.29539 0.18361 0.79437 0.0
C617 C 0.27993 0.16342 0.79786 0.0
C618 C 0.26068 0.15567 0.78784 0.0
C619 C 0.2569 0.16846 0.77537 0.0
C620 C 0.3163 0.19212 0.80403 0.0
C621 C 0.24391 0.13416 0.791 0.0
C622 C 0.28542 0.02763 0.78291 0.0
C623 C 0.29072 0.04537 0.76853 0.0
C624 C 0.30049 0.07747 0.78919 0.0
C625 C 0.31643 0.09737 0.79377 0.0
C626 C 0.31338 0.11242 0.80363 0.0
C627 C 0.29384 0.10735 0.80905 0.0
C628 C 0.27767 0.08712 0.80493 0.0
C629 C 0.28119 0.0723 0.79529 0.0
C630 C 0.33101 0.13378 0.80811 0.0
C631 C 0.25665 0.08119 0.81062 0.0
C632 C 0.2888 0.13525 0.90741 0.0
C633 C 0.2856 0.15075 0.91529 0.0
C634 C 0.28255 0.16322 0.9018 0.0
C635 C 0.28246 0.16012 0.87966 0.0
C636 C 0.27925 0.17229 0.86563 0.0
C637 C 0.27929 0.16914 0.84383 0.0
C638 C 0.28295 0.15397 0.83525 0.0
C639 C 0.28346 0.15096 0.81311 0.0
C640 C 0.28715 0.13577 0.80516 0.0
C641 C 0.29024 0.1233 0.81872 0.0
C642 C 0.28974 0.12602 0.84089 0.0
C643 C 0.29272 0.11369 0.85498 0.0
C644 C 0.29218 0.1165 0.87678 0.0
C645 C 0.28893 0.13192 0.8853 0.0
C646 C 0.28578 0.14446 0.87138 0.0
C647 C 0.28615 0.14147 0.84915 0.0
C648 C 0.24786 0.21529 0.77788 0.0
C649 C 0.26874 0.21898 0.77328 0.0
O650 O 0.3055 0.09761 0.97424 0.0
O651 O 0.30444 0.06386 0.77898 0.0
O652 O 0.26692 0.20147 0.76332 0.0
O653 O 0.27466 0.21855 0.956 0.0
H654 H 0.27884 0.07055 0.97634 0.0
H655 H 0.28085 0.09656 0.0033 0.0
H656 H 0.30266 0.09793 0.0161 0.0
H657 H 0.27862 0.07444 0.01565 0.0
H658 H 0.26839 0.08847 0.96006 0.0
H659 H 0.33159 0.12456 0.95134 0.0
H660 H 0.25221 0.11405 0.93299 0.0
H661 H 0.2444 0.08743 0.93554 0.0
H662 H 0.2525 0.0991 0.91052 0.0
H663 H 0.3449 0.14945 0.92596 0.0
H664 H 0.32955 0.16042 0.91953 0.0
H665 H 0.32958 0.14155 0.90168 0.0
H666 H 0.29691 0.22046 0.97612 0.0
H667 H 0.28599 0.23197 0.00753 0.0
H668 H 0.26673 0.20765 0.99571 0.0
H669 H 0.26534 0.23038 0.99177 0.0
H670 H 0.30912 0.22512 0.94069 0.0
H671 H 0.2451 0.18733 0.93551 0.0
H672 H 0.31895 0.19964 0.89732 0.0
H673 H 0.32221 0.19232 0.92313 0.0
H674 H 0.33011 0.21874 0.91907 0.0
H675 H 0.22862 0.15745 0.91263 0.0
H676 H 0.24189 0.14361 0.9152 0.0
H677 H 0.24256 0.15555 0.89103 0.0
H678 H 0.27686 0.22222 0.78901 0.0
H679 H 0.30253 0.21192 0.7801 0.0
H680 H 0.24209 0.16295 0.76811 0.0
H681 H 0.31631 0.19515 0.82133 0.0
H682 H 0.32725 0.20667 0.79708 0.0
H683 H 0.32134 0.18082 0.80177 0.0
H684 H 0.2296 0.13073 0.78277 0.0
H685 H 0.24148 0.13193 0.80817 0.0
H686 H 0.24811 0.12297 0.78489 0.0
H687 H 0.27664 0.04528 0.76425 0.0
H688 H 0.27473 0.01279 0.77437 0.0
H689 H 0.2782 0.02941 0.79713 0.0
H690 H 0.299 0.02725 0.78826 0.0
H691 H 0.33131 0.10116 0.78929 0.0
H692 H 0.26878 0.05678 0.79268 0.0
H693 H 0.33194 0.13842 0.82515 0.0
H694 H 0.32883 0.14477 0.79884 0.0
H695 H 0.34543 0.13497 0.80401 0.0
H696 H 0.24553 0.06504 0.80553 0.0
H697 H 0.25215 0.09141 0.80311 0.0
H698 H 0.2562 0.0832 0.82803 0.0
H699 H 0.28582 0.15338 0.93232 0.0
H700 H 0.27658 0.18431 0.87138 0.0
H701 H 0.27654 0.17887 0.83381 0.0
H702 H 0.28753 0.13356 0.78817 0.0
H703 H 0.29548 0.10171 0.84932 0.0
H704 H 0.29448 0.10653 0.8869 0.0
H705 H 0.23814 0.21076 0.76314 0.0
H706 H 0.249 0.22937 0.78538 0.0
H707 H 0.24061 0.20276 0.78896 0.0
C708 C 0.78719 0.03845 0.97665 0.0
C709 C 0.78062 0.05163 0.96497 0.0
C710 C 0.79236 0.06232 0.93009 0.0
C711 C 0.79288 0.08106 0.92949 0.0
C712 C 0.80658 0.09661 0.91711 0.0
C713 C 0.82029 0.09342 0.9055 0.0
C714 C 0.81928 0.07418 0.90559 0.0
C715 C 0.80497 0.05869 0.91758 0.0
C716 C 0.80685 0.1167 0.91708 0.0
C717 C 0.83392 0.07029 0.89388 0.0
C718 C 0.92204 0.19835 0.0045 0.0
C719 C 0.9194 0.20474 0.9825 0.0
C720 C 0.91137 0.18284 0.94993 0.0
C721 C 0.91314 0.16659 0.94134 0.0
C722 C 0.90019 0.15369 0.92455 0.0
C723 C 0.88521 0.1573 0.91608 0.0
C724 C 0.8841 0.17445 0.92387 0.0
C725 C 0.89733 0.18718 0.94059 0.0
C726 C 0.90207 0.13581 0.91631 0.0
C727 C 0.86852 0.17895 0.91494 0.0
C728 C 0.92546 0.1999 0.78611 0.0
C729 C 0.92183 0.17974 0.78391 0.0
C730 C 0.90476 0.16344 0.79212 0.0
C731 C 0.89068 0.16726 0.80209 0.0
C732 C 0.8938 0.1874 0.80332 0.0
C733 C 0.91138 0.2035 0.79571 0.0
C734 C 0.90193 0.14218 0.79032 0.0
C735 C 0.87874 0.19202 0.81292 0.0
C736 C 0.7525 0.03164 0.76018 0.0
C737 C 0.75903 0.05212 0.7503 0.0
C738 C 0.79375 0.07611 0.76219 0.0
C739 C 0.81061 0.07449 0.76695 0.0
C740 C 0.8257 0.08836 0.78166 0.0
C741 C 0.82408 0.10457 0.79138 0.0
C742 C 0.80729 0.10663 0.78615 0.0
C743 C 0.79227 0.09234 0.7716 0.0
C744 C 0.84336 0.08566 0.78684 0.0
C745 C 0.80533 0.12401 0.79583 0.0
C746 C 0.83702 0.11086 0.89536 0.0
C747 C 0.85291 0.12545 0.90866 0.0
C748 C 0.86954 0.14212 0.90058 0.0
C749 C 0.87069 0.14415 0.87845 0.0
C750 C 0.88759 0.1602 0.86971 0.0
C751 C 0.88854 0.1621 0.84791 0.0
C752 C 0.87246 0.14825 0.83402 0.0
C753 C 0.87311 0.15035 0.81186 0.0
C754 C 0.857 0.13607 0.79852 0.0
C755 C 0.84018 0.11958 0.80666 0.0
C756 C 0.83915 0.11736 0.8288 0.0
C757 C 0.82239 0.10107 0.83757 0.0
C758 C 0.82155 0.09901 0.85937 0.0
C759 C 0.83754 0.113 0.87322 0.0
C760 C 0.85453 0.12964 0.86474 0.0
C761 C 0.85535 0.13178 0.8425 0.0
C762 C 0.972 0.21406 0.77886 0.0
C763 C 0.95613 0.21634 0.76599 0.0
O764 O 0.78037 0.04789 0.94332 0.0
O765 O 0.77956 0.06221 0.74792 0.0
O766 O 0.94243 0.21636 0.77971 0.0
O767 O 0.92331 0.19376 0.96724 0.0
H768 H 0.792 0.06792 0.9696 0.0
H769 H 0.80249 0.04242 0.97215 0.0
H770 H 0.77683 0.02189 0.97254 0.0
H771 H 0.78759 0.04131 0.99406 0.0
H772 H 0.78276 0.08358 0.93898 0.0
H773 H 0.80428 0.04405 0.91815 0.0
H774 H 0.81985 0.12841 0.92716 0.0
H775 H 0.79298 0.11537 0.92336 0.0
H776 H 0.80857 0.12222 0.90079 0.0
H777 H 0.83235 0.05525 0.89726 0.0
H778 H 0.84955 0.08257 0.8983 0.0
H779 H 0.83142 0.07055 0.87658 0.0
H780 H 0.90344 0.20074 0.98105 0.0
H781 H 0.91106 0.18182 0.00594 0.0
H782 H 0.9193 0.20727 0.01695 0.0
H783 H 0.93733 0.20077 0.00731 0.0
H784 H 0.92431 0.16362 0.94834 0.0
H785 H 0.89651 0.20036 0.94638 0.0
H786 H 0.90263 0.13574 0.89878 0.0
H787 H 0.88867 0.12126 0.92034 0.0
H788 H 0.91567 0.13623 0.92312 0.0
H789 H 0.86989 0.19315 0.92238 0.0
H790 H 0.8533 0.16591 0.91745 0.0
H791 H 0.86996 0.1806 0.8976 0.0
H792 H 0.94847 0.20325 0.75403 0.0
H793 H 0.93244 0.17662 0.77628 0.0
H794 H 0.91419 0.21906 0.79715 0.0
H795 H 0.89802 0.13493 0.80579 0.0
H796 H 0.91555 0.14226 0.78499 0.0
H797 H 0.88935 0.13254 0.77869 0.0
H798 H 0.88137 0.20733 0.80887 0.0
H799 H 0.87988 0.19179 0.83042 0.0
H800 H 0.86324 0.18021 0.80742 0.0
H801 H 0.75509 0.06125 0.76119 0.0
H802 H 0.7361 0.02333 0.76239 0.0
H803 H 0.76038 0.03437 0.77594 0.0
H804 H 0.75621 0.02188 0.74995 0.0
H805 H 0.81174 0.06207 0.75935 0.0
H806 H 0.77963 0.09415 0.76727 0.0
H807 H 0.84524 0.0852 0.80425 0.0
H808 H 0.85725 0.09897 0.78153 0.0
H809 H 0.84169 0.07144 0.7791 0.0
H810 H 0.79173 0.1239 0.78957 0.0
H811 H 0.81875 0.1389 0.79265 0.0
H812 H 0.80464 0.12292 0.81328 0.0
H813 H 0.85231 0.12383 0.92566 0.0
H814 H 0.90032 0.17141 0.87965 0.0
H815 H 0.90205 0.17466 0.84211 0.0
H816 H 0.85765 0.13772 0.78153 0.0
H817 H 0.8097 0.08976 0.82767 0.0
H818 H 0.80823 0.08626 0.86526 0.0
H819 H 0.98173 0.21148 0.76809 0.0
H820 H 0.9648 0.20069 0.78888 0.0
H821 H 0.98128 0.2279 0.78952 0.0
C822 C 0.78668 0.71226 0.97583 0.0
C823 C 0.77086 0.69908 0.95815 0.0
C824 C 0.79182 0.69313 0.93346 0.0
C825 C 0.80299 0.71334 0.92705 0.0
C826 C 0.81928 0.71914 0.91412 0.0
C827 C 0.82409 0.70428 0.90691 0.0
C828 C 0.8125 0.6838 0.91281 0.0
C829 C 0.79656 0.67854 0.92611 0.0
C830 C 0.83146 0.74119 0.90832 0.0
C831 C 0.81701 0.6675 0.90517 0.0
C832 C 0.97011 0.74707 0.9497 0.0
C833 C 0.94957 0.72974 0.95555 0.0
C834 C 0.9248 0.71963 0.92567 0.0
C835 C 0.91192 0.70302 0.91189 0.0
C836 C 0.89638 0.70304 0.90001 0.0
C837 C 0.89392 0.72034 0.90172 0.0
C838 C 0.90746 0.73762 0.9149 0.0
C839 C 0.92282 0.73713 0.92675 0.0
C840 C 0.88223 0.68432 0.8861 0.0
C841 C 0.90548 0.75645 0.9167 0.0
C842 C 0.9258 0.75606 0.76892 0.0
C843 C 0.91508 0.73521 0.77297 0.0
C844 C 0.89709 0.72698 0.78347 0.0
C845 C 0.89002 0.74008 0.79046 0.0
C846 C 0.9004 0.76098 0.78554 0.0
C847 C 0.91808 0.76864 0.77451 0.0
C848 C 0.88595 0.70444 0.78753 0.0
C849 C 0.89318 0.77534 0.79251 0.0
C850 C 0.74172 0.71279 0.77464 0.0
C851 C 0.75568 0.71275 0.75793 0.0
C852 C 0.78077 0.70557 0.77375 0.0
C853 C 0.78713 0.69126 0.77358 0.0
C854 C 0.80541 0.69585 0.78365 0.0
C855 C 0.81763 0.71533 0.79413 0.0
C856 C 0.8113 0.72991 0.79447 0.0
C857 C 0.79281 0.72481 0.78452 0.0
C858 C 0.81159 0.67985 0.78327 0.0
C859 C 0.82397 0.75081 0.80558 0.0
C860 C 0.84132 0.71023 0.89331 0.0
C861 C 0.85929 0.71354 0.90278 0.0
C862 C 0.87624 0.71956 0.891 0.0
C863 C 0.87558 0.72325 0.86932 0.0
C864 C 0.89269 0.73064 0.85733 0.0
C865 C 0.89176 0.73395 0.83591 0.0
C866 C 0.87355 0.72947 0.82555 0.0
C867 C 0.87226 0.73216 0.80363 0.0
C868 C 0.85388 0.72741 0.79388 0.0
C869 C 0.83666 0.72015 0.80545 0.0
C870 C 0.83766 0.71752 0.82738 0.0
C871 C 0.82059 0.7103 0.83947 0.0
C872 C 0.82175 0.70797 0.86107 0.0
C873 C 0.83997 0.71252 0.87136 0.0
C874 C 0.85726 0.71938 0.8594 0.0
C875 C 0.85616 0.72215 0.83743 0.0
C876 C 0.97864 0.78348 0.77135 0.0
C877 C 0.9596 0.76236 0.7687 0.0
O878 O 0.77657 0.687 0.94683 0.0
O879 O 0.76293 0.70005 0.76354 0.0
O880 O 0.94403 0.7645 0.76046 0.0
O881 O 0.93879 0.71799 0.93752 0.0
H882 H 0.76894 0.70924 0.94721 0.0
H883 H 0.7894 0.70249 0.98655 0.0
H884 H 0.78156 0.72127 0.98529 0.0
H885 H 0.80114 0.72325 0.9692 0.0
H886 H 0.79925 0.72474 0.93218 0.0
H887 H 0.78778 0.66296 0.93101 0.0
H888 H 0.84768 0.74707 0.91174 0.0
H889 H 0.82716 0.75128 0.91704 0.0
H890 H 0.82927 0.74216 0.89109 0.0
H891 H 0.80533 0.65192 0.90934 0.0
H892 H 0.83165 0.67082 0.9124 0.0
H893 H 0.81824 0.66762 0.88771 0.0
H894 H 0.9414 0.73663 0.96327 0.0
H895 H 0.97879 0.75654 0.96413 0.0
H896 H 0.96825 0.75714 0.93864 0.0
H897 H 0.97876 0.74082 0.94189 0.0
H898 H 0.91376 0.68973 0.91095 0.0
H899 H 0.93312 0.75041 0.93677 0.0
H900 H 0.88289 0.68854 0.86938 0.0
H901 H 0.86659 0.67831 0.89085 0.0
H902 H 0.88588 0.67191 0.88698 0.0
H903 H 0.91837 0.7694 0.92584 0.0
H904 H 0.89152 0.75272 0.92472 0.0
H905 H 0.90427 0.76141 0.90068 0.0
H906 H 0.95637 0.75679 0.78502 0.0
H907 H 0.92086 0.72541 0.76804 0.0
H908 H 0.92646 0.7847 0.77107 0.0
H909 H 0.8878 0.70244 0.80459 0.0
H910 H 0.89157 0.69584 0.77817 0.0
H911 H 0.86966 0.69765 0.78362 0.0
H912 H 0.90367 0.79142 0.78862 0.0
H913 H 0.89131 0.77487 0.80987 0.0
H914 H 0.87831 0.77029 0.78463 0.0
H915 H 0.76823 0.72874 0.75708 0.0
H916 H 0.7354 0.72247 0.76987 0.0
H917 H 0.75022 0.71918 0.79008 0.0
H918 H 0.72923 0.697 0.77684 0.0
H919 H 0.77768 0.6764 0.76544 0.0
H920 H 0.78786 0.73585 0.78551 0.0
H921 H 0.8142 0.67674 0.79973 0.0
H922 H 0.82592 0.6857 0.77522 0.0
H923 H 0.80013 0.66522 0.77495 0.0
H924 H 0.81781 0.76105 0.80285 0.0
H925 H 0.83949 0.75822 0.80005 0.0
H926 H 0.82484 0.74914 0.82289 0.0
H927 H 0.86 0.71109 0.91952 0.0
H928 H 0.90702 0.7341 0.86443 0.0
H929 H 0.90547 0.73986 0.82754 0.0
H930 H 0.85298 0.72941 0.77706 0.0
H931 H 0.80613 0.70644 0.8324 0.0
H932 H 0.80814 0.70241 0.86957 0.0
H933 H 0.99146 0.782 0.77738 0.0
H934 H 0.97633 0.79335 0.78298 0.0
H935 H 0.98244 0.79118 0.75613 0.0
C936 C 0.88186 0.59056 0.35241 0.0
C937 C 0.88649 0.60985 0.36572 0.0
C938 C 0.87644 0.61225 0.40122 0.0
C939 C 0.88018 0.63243 0.4019 0.0
C940 C 0.87083 0.63888 0.41648 0.0
C941 C 0.857 0.62464 0.43021 0.0
C942 C 0.85323 0.60422 0.42946 0.0
C943 C 0.86348 0.5985 0.41536 0.0
C944 C 0.87562 0.66086 0.41699 0.0
C945 C 0.83806 0.58822 0.44315 0.0
C946 C 0.73557 0.65431 0.38849 0.0
C947 C 0.74418 0.64404 0.40118 0.0
C948 C 0.77684 0.65122 0.41647 0.0
C949 C 0.77026 0.63141 0.42335 0.0
C950 C 0.78369 0.62677 0.43373 0.0
C951 C 0.80394 0.64235 0.43779 0.0
C952 C 0.81045 0.66237 0.43126 0.0
C953 C 0.79684 0.66647 0.42055 0.0
C954 C 0.77629 0.60521 0.44026 0.0
C955 C 0.83186 0.67945 0.43549 0.0
C956 C 0.7801 0.63552 0.5733 0.0
C957 C 0.78133 0.61781 0.56925 0.0
C958 C 0.79723 0.61876 0.5582 0.0
C959 C 0.81259 0.63793 0.55181 0.0
C960 C 0.81233 0.65601 0.5576 0.0
C961 C 0.79591 0.65451 0.56807 0.0
C962 C 0.7973 0.59919 0.55284 0.0
C963 C 0.82897 0.67679 0.55199 0.0
C964 C 0.94762 0.62718 0.57896 0.0
C965 C 0.93601 0.63831 0.58297 0.0
C966 C 0.90246 0.62807 0.56746 0.0
C967 C 0.88469 0.61101 0.5593 0.0
C968 C 0.87011 0.61322 0.54798 0.0
C969 C 0.87342 0.6331 0.54483 0.0
C970 C 0.89132 0.65048 0.5532 0.0
C971 C 0.90563 0.64781 0.56457 0.0
C972 C 0.85108 0.59431 0.53961 0.0
C973 C 0.89519 0.67188 0.55034 0.0
C974 C 0.84584 0.63076 0.44468 0.0
C975 C 0.83064 0.63348 0.43577 0.0
C976 C 0.81856 0.63781 0.44847 0.0
C977 C 0.82102 0.63847 0.47078 0.0
C978 C 0.8082 0.64122 0.48407 0.0
C979 C 0.81025 0.64103 0.50595 0.0
C980 C 0.82581 0.63904 0.51547 0.0
C981 C 0.82793 0.63868 0.5377 0.0
C982 C 0.84386 0.63728 0.54667 0.0
C983 C 0.85757 0.63562 0.534 0.0
C984 C 0.85534 0.63529 0.51167 0.0
C985 C 0.86851 0.6331 0.49836 0.0
C986 C 0.86559 0.63186 0.47641 0.0
C987 C 0.84951 0.63294 0.46693 0.0
C988 C 0.83667 0.6362 0.48002 0.0
C989 C 0.83938 0.63701 0.5024 0.0
C990 C 0.73424 0.60685 0.56377 0.0
C991 C 0.74541 0.61793 0.58492 0.0
O992 O 0.88492 0.60556 0.38693 0.0
O993 O 0.91582 0.62465 0.5783 0.0
O994 O 0.76387 0.63501 0.5817 0.0
O995 O 0.76465 0.65631 0.40567 0.0
H996 H 0.87485 0.61369 0.36084 0.0
H997 H 0.86644 0.57801 0.35518 0.0
H998 H 0.89256 0.58539 0.35671 0.0
H999 H 0.88275 0.59358 0.33528 0.0
H1000 H 0.89052 0.64318 0.39115 0.0
H1001 H 0.86078 0.58297 0.41468 0.0
H1002 H 0.86307 0.66155 0.40894 0.0
H1003 H 0.88954 0.67083 0.40877 0.0
H1004 H 0.87736 0.66708 0.43357 0.0
H1005 H 0.83378 0.57243 0.43737 0.0
H1006 H 0.82429 0.58932 0.44364 0.0
H1007 H 0.84454 0.59074 0.45957 0.0
H1008 H 0.73961 0.62822 0.39504 0.0
H1009 H 0.73011 0.64504 0.37296 0.0
H1010 H 0.74855 0.66795 0.38161 0.0
H1011 H 0.71627 0.65706 0.40906 0.0
H1012 H 0.75477 0.61945 0.42051 0.0
H1013 H 0.80177 0.68171 0.41529 0.0
H1014 H 0.78577 0.59939 0.43367 0.0
H1015 H 0.76043 0.59453 0.43484 0.0
H1016 H 0.77756 0.60518 0.45778 0.0
H1017 H 0.83419 0.69449 0.43078 0.0
H1018 H 0.842 0.6759 0.42655 0.0
H1019 H 0.8362 0.68072 0.45259 0.0
H1020 H 0.74768 0.60715 0.59452 0.0
H1021 H 0.76972 0.60313 0.57416 0.0
H1022 H 0.79508 0.66816 0.57173 0.0
H1023 H 0.79879 0.59761 0.53556 0.0
H1024 H 0.78346 0.58538 0.55752 0.0
H1025 H 0.81039 0.59976 0.56116 0.0
H1026 H 0.82824 0.68944 0.56058 0.0
H1027 H 0.82783 0.67845 0.53472 0.0
H1028 H 0.84381 0.67834 0.5557 0.0
H1029 H 0.94182 0.65108 0.57203 0.0
H1030 H 0.96396 0.63782 0.58216 0.0
H1031 H 0.94512 0.62133 0.56216 0.0
H1032 H 0.94256 0.61399 0.58925 0.0
H1033 H 0.88228 0.59584 0.56181 0.0
H1034 H 0.91901 0.66114 0.57144 0.0
H1035 H 0.84967 0.59441 0.52211 0.0
H1036 H 0.8379 0.59433 0.54614 0.0
H1037 H 0.85065 0.57994 0.54373 0.0
H1038 H 0.91045 0.68384 0.55639 0.0
H1039 H 0.88399 0.67408 0.55887 0.0
H1040 H 0.89338 0.67399 0.53329 0.0
H1041 H 0.82815 0.6322 0.41868 0.0
H1042 H 0.7961 0.64305 0.47769 0.0
H1043 H 0.79953 0.64261 0.51529 0.0
H1044 H 0.84527 0.6369 0.56374 0.0
H1045 H 0.88104 0.63204 0.50479 0.0
H1046 H 0.87608 0.62999 0.46693 0.0
H1047 H 0.71886 0.59426 0.56665 0.0
H1048 H 0.74197 0.59989 0.55544 0.0
H1049 H 0.73313 0.6176 0.55306 0.0
C1050 C 0.3679 0.26443 0.3629 0.0
C1051 C 0.35939 0.26168 0.38491 0.0
C1052 C 0.37405 0.25696 0.41746 0.0
C1053 C 0.35593 0.24343 0.42651 0.0
C1054 C 0.3555 0.23109 0.44278 0.0
C1055 C 0.37358 0.23254 0.45029 0.0
C1056 C 0.39202 0.24737 0.44243 0.0
C1057 C 0.392 0.2595 0.42614 0.0
C1058 C 0.33562 0.21573 0.45114 0.0
C1059 C 0.4116 0.24958 0.45039 0.0
C1060 C 0.37257 0.11888 0.38185 0.0
C1061 C 0.36822 0.10857 0.40303 0.0
C1062 C 0.35964 0.12977 0.42615 0.0
C1063 C 0.37918 0.14662 0.42965 0.0
C1064 C 0.38275 0.16389 0.44227 0.0
C1065 C 0.36645 0.16438 0.45135 0.0
C1066 C 0.34678 0.1475 0.44775 0.0
C1067 C 0.34369 0.13037 0.4353 0.0
C1068 C 0.40389 0.18169 0.44579 0.0
C1069 C 0.32898 0.14765 0.45682 0.0
C1070 C 0.36803 0.13606 0.58547 0.0
C1071 C 0.38653 0.15438 0.58459 0.0
C1072 C 0.38776 0.17133 0.57478 0.0
C1073 C 0.37013 0.17008 0.56603 0.0
C1074 C 0.35139 0.152 0.56779 0.0
C1075 C 0.35064 0.13515 0.57729 0.0
C1076 C 0.40799 0.1904 0.57326 0.0
C1077 C 0.33221 0.15027 0.5591 0.0
C1078 C 0.38452 0.3211 0.59068 0.0
C1079 C 0.37159 0.29943 0.59821 0.0
C1080 C 0.38044 0.27323 0.58881 0.0
C1081 C 0.39731 0.27175 0.5845 0.0
C1082 C 0.39553 0.25469 0.57297 0.0
C1083 C 0.37631 0.23853 0.56587 0.0
C1084 C 0.35908 0.23961 0.57075 0.0
C1085 C 0.36131 0.25693 0.58227 0.0
C1086 C 0.4142 0.25398 0.56821 0.0
C1087 C 0.33835 0.22245 0.56377 0.0
C1088 C 0.37288 0.21646 0.46359 0.0
C1089 C 0.37096 0.19903 0.45292 0.0
C1090 C 0.36979 0.18285 0.46393 0.0
C1091 C 0.3708 0.18404 0.4863 0.0
C1092 C 0.37015 0.16821 0.49785 0.0
C1093 C 0.3706 0.16925 0.51985 0.0
C1094 C 0.37158 0.18611 0.53117 0.0
C1095 C 0.3715 0.187 0.55354 0.0
C1096 C 0.37283 0.20413 0.56432 0.0
C1097 C 0.37428 0.22055 0.55334 0.0
C1098 C 0.37417 0.21982 0.53092 0.0
C1099 C 0.3755 0.23599 0.51932 0.0
C1100 C 0.37519 0.23501 0.49725 0.0
C1101 C 0.37354 0.21784 0.48598 0.0
C1102 C 0.37242 0.20149 0.49737 0.0
C1103 C 0.37273 0.20248 0.51984 0.0
C1104 C 0.37463 0.09706 0.61304 0.0
C1105 C 0.38152 0.11743 0.60413 0.0
O1106 O 0.37479 0.26736 0.4001 0.0
O1107 O 0.38331 0.29036 0.59974 0.0
O1108 O 0.36633 0.11892 0.59377 0.0
O1109 O 0.35527 0.11273 0.41399 0.0
H1110 H 0.34821 0.24505 0.38534 0.0
H1111 H 0.37422 0.25424 0.36036 0.0
H1112 H 0.38005 0.2805 0.3612 0.0
H1113 H 0.35587 0.26029 0.35046 0.0
H1114 H 0.34203 0.2421 0.42061 0.0
H1115 H 0.40596 0.27033 0.41938 0.0
H1116 H 0.33211 0.19998 0.44623 0.0
H1117 H 0.32318 0.21785 0.44519 0.0
H1118 H 0.33645 0.21702 0.46872 0.0
H1119 H 0.42475 0.26335 0.44452 0.0
H1120 H 0.41224 0.2358 0.44504 0.0
H1121 H 0.41262 0.25059 0.46798 0.0
H1122 H 0.38246 0.11433 0.41265 0.0
H1123 H 0.37971 0.13575 0.38455 0.0
H1124 H 0.35845 0.1132 0.37204 0.0
H1125 H 0.38298 0.11565 0.37298 0.0
H1126 H 0.39172 0.14654 0.42255 0.0
H1127 H 0.32868 0.11734 0.43245 0.0
H1128 H 0.40517 0.19525 0.43811 0.0
H1129 H 0.41513 0.17825 0.43921 0.0
H1130 H 0.40751 0.18584 0.46299 0.0
H1131 H 0.31453 0.13386 0.45139 0.0
H1132 H 0.32869 0.16153 0.45218 0.0
H1133 H 0.33033 0.14827 0.47437 0.0
H1134 H 0.39529 0.1232 0.59492 0.0
H1135 H 0.40011 0.15547 0.59113 0.0
H1136 H 0.33642 0.12106 0.57824 0.0
H1137 H 0.41084 0.19417 0.55642 0.0
H1138 H 0.42039 0.18867 0.58012 0.0
H1139 H 0.40809 0.20353 0.58177 0.0
H1140 H 0.31872 0.1365 0.56445 0.0
H1141 H 0.33183 0.14926 0.54153 0.0
H1142 H 0.33153 0.16413 0.56405 0.0
H1143 H 0.35908 0.29099 0.58611 0.0
H1144 H 0.37551 0.32872 0.58895 0.0
H1145 H 0.39038 0.32036 0.57501 0.0
H1146 H 0.39744 0.33048 0.60209 0.0
H1147 H 0.41197 0.28426 0.58992 0.0
H1148 H 0.34809 0.25748 0.58638 0.0
H1149 H 0.4151 0.25236 0.55082 0.0
H1150 H 0.41347 0.24036 0.57518 0.0
H1151 H 0.42808 0.26793 0.57458 0.0
H1152 H 0.32643 0.2254 0.56914 0.0
H1153 H 0.33581 0.20786 0.57012 0.0
H1154 H 0.33707 0.22039 0.54622 0.0
H1155 H 0.37008 0.19793 0.43573 0.0
H1156 H 0.36925 0.1548 0.48999 0.0
H1157 H 0.37006 0.15657 0.52785 0.0
H1158 H 0.37286 0.20476 0.58149 0.0
H1159 H 0.37672 0.24954 0.52716 0.0
H1160 H 0.37617 0.24782 0.48909 0.0
H1161 H 0.38267 0.09042 0.60415 0.0
H1162 H 0.35948 0.08612 0.60514 0.0
H1163 H 0.37904 0.10385 0.64572 0.0
C1164 C 0.8755 0.26301 0.363 0.0
C1165 C 0.89191 0.2764 0.38008 0.0
C1166 C 0.87946 0.25289 0.40929 0.0
C1167 C 0.86324 0.25556 0.41408 0.0
C1168 C 0.8489 0.24278 0.42803 0.0
C1169 C 0.85085 0.2271 0.43736 0.0
C1170 C 0.86741 0.2247 0.43294 0.0
C1171 C 0.88159 0.23778 0.41907 0.0
C1172 C 0.83149 0.24583 0.43261 0.0
C1173 C 0.86991 0.2081 0.44257 0.0
C1174 C 0.70946 0.10108 0.42635 0.0
C1175 C 0.72228 0.09933 0.40916 0.0
C1176 C 0.7562 0.12384 0.42465 0.0
C1177 C 0.77282 0.12503 0.43527 0.0
C1178 C 0.7885 0.14374 0.44405 0.0
C1179 C 0.78737 0.16174 0.44235 0.0
C1180 C 0.77091 0.16083 0.43099 0.0
C1181 C 0.75554 0.14189 0.42205 0.0
C1182 C 0.80608 0.14414 0.45551 0.0
C1183 C 0.76938 0.17979 0.42871 0.0
C1184 C 0.75514 0.15308 0.57436 0.0
C1185 C 0.76913 0.14728 0.56904 0.0
C1186 C 0.78698 0.16107 0.5598 0.0
C1187 C 0.7906 0.18087 0.55548 0.0
C1188 C 0.77705 0.18712 0.56209 0.0
C1189 C 0.75954 0.17314 0.57175 0.0
C1190 C 0.80152 0.15419 0.55382 0.0
C1191 C 0.78061 0.20822 0.55807 0.0
C1192 C 0.92389 0.3166 0.59263 0.0
C1193 C 0.91283 0.29634 0.60365 0.0
C1194 C 0.894 0.26746 0.57757 0.0
C1195 C 0.89201 0.24891 0.57007 0.0
C1196 C 0.87503 0.23454 0.55768 0.0
C1197 C 0.8598 0.23902 0.55247 0.0
C1198 C 0.86203 0.25807 0.55933 0.0
C1199 C 0.87914 0.27215 0.57175 0.0
C1200 C 0.8732 0.21441 0.55047 0.0
C1201 C 0.8462 0.26343 0.5537 0.0
C1202 C 0.83516 0.21274 0.45108 0.0
C1203 C 0.81865 0.19531 0.44131 0.0
C1204 C 0.80312 0.18124 0.45317 0.0
C1205 C 0.80365 0.18496 0.4753 0.0
C1206 C 0.7876 0.17191 0.48748 0.0
C1207 C 0.78857 0.17523 0.50934 0.0
C1208 C 0.80588 0.19137 0.51994 0.0
C1209 C 0.80742 0.19425 0.54227 0.0
C1210 C 0.82506 0.21001 0.55232 0.0
C1211 C 0.8412 0.2234 0.5406 0.0
C1212 C 0.83964 0.2213 0.51822 0.0
C1213 C 0.85522 0.23503 0.5059 0.0
C1214 C 0.85363 0.23256 0.48387 0.0
C1215 C 0.83664 0.21595 0.47338 0.0
C1216 C 0.82074 0.20203 0.4855 0.0
C1217 C 0.82206 0.20495 0.5079 0.0
C1218 C 0.70563 0.1206 0.56181 0.0
C1219 C 0.72419 0.12054 0.5707 0.0
O1220 O 0.89327 0.26429 0.39526 0.0
O1221 O 0.9104 0.28024 0.59032 0.0
O1222 O 0.73697 0.13931 0.58122 0.0
O1223 O 0.74122 0.10495 0.41752 0.0
H1224 H 0.88845 0.28761 0.38779 0.0
H1225 H 0.87862 0.25145 0.35553 0.0
H1226 H 0.86059 0.25484 0.36993 0.0
H1227 H 0.87474 0.27263 0.35054 0.0
H1228 H 0.86161 0.26745 0.40693 0.0
H1229 H 0.89424 0.23596 0.41539 0.0
H1230 H 0.81726 0.23198 0.42683 0.0
H1231 H 0.83263 0.25936 0.42496 0.0
H1232 H 0.83074 0.24782 0.44998 0.0
H1233 H 0.88353 0.20814 0.43735 0.0
H1234 H 0.85659 0.19287 0.43814 0.0
H1235 H 0.87091 0.21018 0.46011 0.0
H1236 H 0.72374 0.10945 0.39616 0.0
H1237 H 0.6941 0.09589 0.41969 0.0
H1238 H 0.71598 0.11716 0.43261 0.0
H1239 H 0.70841 0.09153 0.43977 0.0
H1240 H 0.77331 0.11107 0.43695 0.0
H1241 H 0.74303 0.14132 0.41335 0.0
H1242 H 0.80549 0.14678 0.47278 0.0
H1243 H 0.82042 0.15692 0.45027 0.0
H1244 H 0.80606 0.12954 0.45282 0.0
H1245 H 0.75517 0.17639 0.42026 0.0
H1246 H 0.78216 0.19109 0.41984 0.0
H1247 H 0.77034 0.18704 0.44461 0.0
H1248 H 0.73148 0.11813 0.55681 0.0
H1249 H 0.76585 0.13184 0.57173 0.0
H1250 H 0.74869 0.17747 0.57626 0.0
H1251 H 0.80053 0.15133 0.53638 0.0
H1252 H 0.79828 0.13987 0.5614 0.0
H1253 H 0.81714 0.16636 0.55844 0.0
H1254 H 0.7685 0.21062 0.56397 0.0
H1255 H 0.78168 0.2106 0.54081 0.0
H1256 H 0.79509 0.22 0.56597 0.0
H1257 H 0.89793 0.29396 0.60781 0.0
H1258 H 0.92617 0.32953 0.60351 0.0
H1259 H 0.93869 0.31954 0.58749 0.0
H1260 H 0.91493 0.31611 0.5784 0.0
H1261 H 0.90364 0.24552 0.57439 0.0
H1262 H 0.88074 0.28673 0.57678 0.0
H1263 H 0.87165 0.21259 0.53291 0.0
H1264 H 0.85947 0.20153 0.55665 0.0
H1265 H 0.88636 0.21325 0.55587 0.0
H1266 H 0.85066 0.27933 0.5592 0.0
H1267 H 0.83199 0.25265 0.561 0.0
H1268 H 0.84316 0.26169 0.53627 0.0
H1269 H 0.81807 0.19247 0.4243 0.0
H1270 H 0.77406 0.15902 0.48023 0.0
H1271 H 0.77569 0.16471 0.51783 0.0
H1272 H 0.82629 0.21183 0.56948 0.0
H1273 H 0.86878 0.24789 0.51317 0.0
H1274 H 0.86605 0.24362 0.47519 0.0
H1275 H 0.69772 0.12349 0.5747 0.0
H1276 H 0.69515 0.10565 0.55333 0.0
H1277 H 0.71017 0.13286 0.55041 0.0
C1278 C 0.04092 0.45872 0.33168 0.0
C1279 C 0.02861 0.44822 0.31109 0.0
C1280 C 0.0299 0.46358 0.27712 0.0
C1281 C 0.00937 0.45147 0.27121 0.0
C1282 C 0.00088 0.45702 0.25469 0.0
C1283 C 0.01322 0.47476 0.24372 0.0
C1284 C 0.03414 0.48592 0.24849 0.0
C1285 C 0.0422 0.48013 0.26514 0.0
C1286 C 0.97858 0.44455 0.24966 0.0
C1287 C 0.0478 0.50469 0.23682 0.0
C1288 C 0.98114 0.55785 0.32588 0.0
C1289 C 0.99078 0.56559 0.30478 0.0
C1290 C 0.98012 0.54464 0.2717 0.0
C1291 C 0.99897 0.5527 0.26294 0.0
C1292 C 0.00248 0.54126 0.24751 0.0
C1293 C 0.98682 0.52137 0.24078 0.0
C1294 C 0.96744 0.51387 0.24845 0.0
C1295 C 0.96429 0.52578 0.26368 0.0
C1296 C 0.02318 0.54998 0.23922 0.0
C1297 C 0.95037 0.49279 0.24153 0.0
C1298 C 0.95897 0.52791 0.10632 0.0
C1299 C 0.97936 0.53632 0.11185 0.0
C1300 C 0.98633 0.52452 0.12155 0.0
C1301 C 0.97246 0.50405 0.12618 0.0
C1302 C 0.95199 0.49526 0.11961 0.0
C1303 C 0.94554 0.5073 0.10946 0.0
C1304 C 0.00838 0.5342 0.12757 0.0
C1305 C 0.93681 0.47347 0.12415 0.0
C1306 C 0.98005 0.36967 0.11326 0.0
C1307 C 0.97775 0.38114 0.09491 0.0
C1308 C 0.99094 0.41687 0.10845 0.0
C1309 C 0.00659 0.43709 0.10724 0.0
C1310 C 0.00627 0.45345 0.11808 0.0
C1311 C 0.98976 0.44946 0.13033 0.0
C1312 C 0.97388 0.42904 0.13173 0.0
C1313 C 0.97475 0.41295 0.12104 0.0
C1314 C 0.02356 0.47498 0.11643 0.0
C1315 C 0.95588 0.42417 0.14445 0.0
C1316 C 0.00403 0.48365 0.23005 0.0
C1317 C 0.9993 0.49732 0.24 0.0
C1318 C 0.99149 0.50734 0.22852 0.0
C1319 C 0.98835 0.50378 0.20631 0.0
C1320 C 0.98097 0.51398 0.19419 0.0
C1321 C 0.97792 0.51033 0.17233 0.0
C1322 C 0.98209 0.4963 0.16175 0.0
C1323 C 0.97909 0.49254 0.13951 0.0
C1324 C 0.98225 0.47762 0.12969 0.0
C1325 C 0.98878 0.46656 0.14145 0.0
C1326 C 0.99303 0.471 0.16354 0.0
C1327 C 0.00077 0.46108 0.17568 0.0
C1328 C 0.00457 0.46531 0.19747 0.0
C1329 C 0.00051 0.47941 0.20794 0.0
C1330 C 0.99273 0.48962 0.196 0.0
C1331 C 0.98934 0.48568 0.17374 0.0
C1332 C 0.93366 0.55073 0.12003 0.0
C1333 C 0.9537 0.55658 0.11043 0.0
O1334 O 0.0384 0.46021 0.29443 0.0
O1335 O 0.99215 0.40182 0.09728 0.0
O1336 O 0.95192 0.53978 0.09887 0.0
O1337 O 0.97691 0.55432 0.28829 0.0
H1338 H 0.01386 0.44721 0.31282 0.0
H1339 H 0.04248 0.47408 0.3342 0.0
H1340 H 0.05616 0.46071 0.33107 0.0
H1341 H 0.03334 0.44951 0.34538 0.0
H1342 H -0.00017 0.438 0.2797 0.0
H1343 H 0.05809 0.48909 0.26951 0.0
H1344 H 0.97158 0.45368 0.25445 0.0
H1345 H 0.97138 0.43001 0.25799 0.0
H1346 H 0.97553 0.44091 0.23233 0.0
H1347 H 0.06389 0.51021 0.24063 0.0
H1348 H 0.04478 0.5172 0.24117 0.0
H1349 H 0.04476 0.50133 0.21945 0.0
H1350 H 0.00365 0.56289 0.30452 0.0
H1351 H 0.99189 0.56693 0.33933 0.0
H1352 H 0.97691 0.54154 0.327 0.0
H1353 H 0.96739 0.5589 0.32725 0.0
H1354 H 0.01105 0.56773 0.26848 0.0
H1355 H 0.9497 0.51989 0.27027 0.0
H1356 H 0.02224 0.54717 0.22176 0.0
H1357 H 0.03064 0.54218 0.24634 0.0
H1358 H 0.03264 0.56672 0.24316 0.0
H1359 H 0.93599 0.48958 0.24824 0.0
H1360 H 0.95393 0.48104 0.24665 0.0
H1361 H 0.94843 0.49124 0.22398 0.0
H1362 H 0.96485 0.56102 0.12399 0.0
H1363 H 0.98971 0.55223 0.10894 0.0
H1364 H 0.92983 0.50098 0.10491 0.0
H1365 H 0.01079 0.5376 0.14495 0.0
H1366 H 0.01753 0.54875 0.11963 0.0
H1367 H 0.01379 0.52349 0.12339 0.0
H1368 H 0.92134 0.46918 0.11873 0.0
H1369 H 0.93709 0.47139 0.14143 0.0
H1370 H 0.94077 0.46281 0.1161 0.0
H1371 H 0.96256 0.37926 0.09498 0.0
H1372 H 0.96868 0.35307 0.11126 0.0
H1373 H 0.97779 0.37571 0.12854 0.0
H1374 H 0.99526 0.37154 0.11402 0.0
H1375 H 0.01909 0.44003 0.09765 0.0
H1376 H 0.96268 0.39744 0.12268 0.0
H1377 H 0.02926 0.48247 0.1325 0.0
H1378 H 0.01831 0.48412 0.10789 0.0
H1379 H 0.0361 0.47535 0.10788 0.0
H1380 H 0.94379 0.40788 0.14199 0.0
H1381 H 0.94971 0.43409 0.14012 0.0
H1382 H 0.96049 0.42735 0.16156 0.0
H1383 H 0.0019 0.50034 0.25704 0.0
H1384 H 0.97751 0.52491 0.2015 0.0
H1385 H 0.97212 0.51858 0.16385 0.0
H1386 H 0.9793 0.47438 0.11272 0.0
H1387 H 0.00407 0.44999 0.16844 0.0
H1388 H 0.01055 0.45727 0.20607 0.0
H1389 H 0.93478 0.56408 0.12925 0.0
H1390 H 0.92959 0.53813 0.1309 0.0
H1391 H 0.92152 0.54543 0.10745 0.0
C1392 C 0.41482 0.35502 0.27769 0.0
C1393 C 0.42226 0.37591 0.28918 0.0
C1394 C 0.43879 0.40393 0.26502 0.0
C1395 C 0.43737 0.41986 0.25625 0.0
C1396 C 0.4534 0.43529 0.24589 0.0
C1397 C 0.47124 0.43458 0.24414 0.0
C1398 C 0.47273 0.41836 0.25272 0.0
C1399 C 0.45644 0.4031 0.26299 0.0
C1400 C 0.45128 0.4523 0.23675 0.0
C1401 C 0.4915 0.41709 0.25084 0.0
C1402 C 0.60352 0.58519 0.29761 0.0
C1403 C 0.59031 0.56261 0.29303 0.0
C1404 C 0.55949 0.53938 0.27165 0.0
C1405 C 0.56246 0.52249 0.27098 0.0
C1406 C 0.54913 0.50434 0.25906 0.0
C1407 C 0.53246 0.50301 0.24772 0.0
C1408 C 0.52927 0.51986 0.24869 0.0
C1409 C 0.54287 0.53783 0.2606 0.0
C1410 C 0.55293 0.48664 0.25838 0.0
C1411 C 0.51156 0.51895 0.23697 0.0
C1412 C 0.57436 0.52734 0.11844 0.0
C1413 C 0.57396 0.50872 0.12079 0.0
C1414 C 0.55738 0.49202 0.12914 0.0
C1415 C 0.54068 0.4938 0.13464 0.0
C1416 C 0.54051 0.51204 0.13092 0.0
C1417 C 0.55752 0.52869 0.12316 0.0
C1418 C 0.55794 0.47266 0.13263 0.0
C1419 C 0.52266 0.51423 0.13582 0.0
C1420 C 0.40952 0.3415 0.09545 0.0
C1421 C 0.41803 0.36419 0.09153 0.0
C1422 C 0.45162 0.39098 0.10469 0.0
C1423 C 0.46984 0.39311 0.11185 0.0
C1424 C 0.48358 0.4101 0.12492 0.0
C1425 C 0.47913 0.4256 0.13053 0.0
C1426 C 0.46095 0.42385 0.12279 0.0
C1427 C 0.44735 0.40652 0.10996 0.0
C1428 C 0.50283 0.41146 0.13277 0.0
C1429 C 0.45598 0.44035 0.12802 0.0
C1430 C 0.48812 0.45054 0.2328 0.0
C1431 C 0.50244 0.46823 0.24445 0.0
C1432 C 0.51844 0.48412 0.23462 0.0
C1433 C 0.52033 0.48227 0.21258 0.0
C1434 C 0.53643 0.49775 0.20225 0.0
C1435 C 0.5379 0.49603 0.1805 0.0
C1436 C 0.52318 0.47887 0.16817 0.0
C1437 C 0.52421 0.47732 0.14594 0.0
C1438 C 0.50955 0.45996 0.13418 0.0
C1439 C 0.49377 0.44385 0.14403 0.0
C1440 C 0.49237 0.44519 0.16625 0.0
C1441 C 0.4767 0.42934 0.17672 0.0
C1442 C 0.47531 0.43099 0.19853 0.0
C1443 C 0.48959 0.44853 0.21072 0.0
C1444 C 0.50571 0.46452 0.20056 0.0
C1445 C 0.50709 0.46285 0.17831 0.0
C1446 C 0.62215 0.54841 0.12487 0.0
C1447 C 0.60859 0.54666 0.10575 0.0
O1448 O 0.42271 0.38968 0.27501 0.0
O1449 O 0.43879 0.37394 0.09248 0.0
O1450 O 0.59069 0.54451 0.11219 0.0
O1451 O 0.5723 0.55745 0.28244 0.0
H1452 H 0.43754 0.38151 0.29635 0.0
H1453 H 0.41445 0.3439 0.28897 0.0
H1454 H 0.42507 0.35643 0.26504 0.0
H1455 H 0.39954 0.34899 0.27033 0.0
H1456 H 0.42362 0.42024 0.25772 0.0
H1457 H 0.45754 0.39051 0.2691 0.0
H1458 H 0.46324 0.46734 0.24383 0.0
H1459 H 0.43647 0.45073 0.23963 0.0
H1460 H 0.45318 0.45234 0.21941 0.0
H1461 H 0.49048 0.40371 0.25872 0.0
H1462 H 0.5046 0.43131 0.25802 0.0
H1463 H 0.49429 0.41591 0.23386 0.0
H1464 H 0.58831 0.55289 0.30666 0.0
H1465 H 0.60467 0.58729 0.3154 0.0
H1466 H 0.59385 0.59227 0.29538 0.0
H1467 H 0.62837 0.59262 0.27964 0.0
H1468 H 0.57518 0.52341 0.27963 0.0
H1469 H 0.54068 0.55091 0.26123 0.0
H1470 H 0.54006 0.47303 0.26482 0.0
H1471 H 0.56683 0.49022 0.26763 0.0
H1472 H 0.55416 0.48247 0.2417 0.0
H1473 H 0.51056 0.53292 0.24031 0.0
H1474 H 0.49744 0.50535 0.24145 0.0
H1475 H 0.51279 0.51723 0.21966 0.0
H1476 H 0.6055 0.53309 0.09538 0.0
H1477 H 0.58663 0.50718 0.11668 0.0
H1478 H 0.55786 0.54301 0.121 0.0
H1479 H 0.55479 0.46841 0.14931 0.0
H1480 H 0.57263 0.47427 0.12902 0.0
H1481 H 0.54609 0.4599 0.12231 0.0
H1482 H 0.52341 0.52774 0.12852 0.0
H1483 H 0.52213 0.51611 0.15323 0.0
H1484 H 0.50851 0.50024 0.13009 0.0
H1485 H 0.41278 0.37042 0.10448 0.0
H1486 H 0.39286 0.33335 0.09499 0.0
H1487 H 0.41494 0.33995 0.11133 0.0
H1488 H 0.41434 0.3341 0.08335 0.0
H1489 H 0.47311 0.38116 0.10745 0.0
H1490 H 0.43358 0.40533 0.10381 0.0
H1491 H 0.50472 0.41417 0.15026 0.0
H1492 H 0.51571 0.42467 0.12584 0.0
H1493 H 0.50329 0.39735 0.12845 0.0
H1494 H 0.44167 0.43718 0.12 0.0
H1495 H 0.46824 0.45539 0.12326 0.0
H1496 H 0.45479 0.44165 0.14539 0.0
H1497 H 0.50096 0.46976 0.26133 0.0
H1498 H 0.54809 0.51139 0.21086 0.0
H1499 H 0.55069 0.50844 0.17348 0.0
H1500 H 0.51051 0.4589 0.11714 0.0
H1501 H 0.46526 0.41553 0.16816 0.0
H1502 H 0.46284 0.41836 0.2057 0.0
H1503 H 0.63682 0.55114 0.11947 0.0
H1504 H 0.61525 0.53407 0.13347 0.0
H1505 H 0.62481 0.56113 0.13625 0.0
C1506 C 0.44139 0.98917 0.31039 0.0
C1507 C 0.43049 0.996 0.29508 0.0
C1508 C 0.44281 0.99217 0.26106 0.0
C1509 C 0.45643 0.01277 0.25746 0.0
C1510 C 0.47155 0.01796 0.24307 0.0
C1511 C 0.47307 0.00224 0.23207 0.0
C1512 C 0.45914 0.98146 0.23535 0.0
C1513 C 0.44399 0.9767 0.24964 0.0
C1514 C 0.48589 0.04027 0.23954 0.0
C1515 C 0.46033 0.96434 0.22384 0.0
C1516 C 0.62401 0.05945 0.26591 0.0
C1517 C 0.60452 0.04099 0.27248 0.0
C1518 C 0.57813 0.02668 0.24402 0.0
C1519 C 0.56543 0.0085 0.23214 0.0
C1520 C 0.54798 0.00557 0.22145 0.0
C1521 C 0.54336 0.02144 0.22242 0.0
C1522 C 0.55659 0.04024 0.23366 0.0
C1523 C 0.57389 0.04271 0.24429 0.0
C1524 C 0.53428 0.98537 0.20948 0.0
C1525 C 0.55229 0.05761 0.23466 0.0
C1526 C 0.56801 0.05369 0.09093 0.0
C1527 C 0.55777 0.03264 0.09395 0.0
C1528 C 0.53938 0.02336 0.10376 0.0
C1529 C 0.53148 0.03561 0.11116 0.0
C1530 C 0.54137 0.05672 0.10708 0.0
C1531 C 0.5595 0.06547 0.09677 0.0
C1532 C 0.52896 0.00071 0.10721 0.0
C1533 C 0.53331 0.07022 0.11454 0.0
C1534 C 0.36966 0.98631 0.11862 0.0
C1535 C 0.38852 0.9985 0.10621 0.0
C1536 C 0.41834 0.99467 0.10805 0.0
C1537 C 0.42439 0.98027 0.11043 0.0
C1538 C 0.44439 0.98638 0.11595 0.0
C1539 C 0.45863 0.0075 0.11945 0.0
C1540 C 0.45292 0.02223 0.11568 0.0
C1541 C 0.43288 0.01567 0.1097 0.0
C1542 C 0.45007 0.97023 0.119 0.0
C1543 C 0.46784 0.04488 0.11872 0.0
C1544 C 0.4893 0.00765 0.21717 0.0
C1545 C 0.50793 0.01165 0.22541 0.0
C1546 C 0.52422 0.018 0.21253 0.0
C1547 C 0.52202 0.02068 0.19081 0.0
C1548 C 0.53833 0.02802 0.17762 0.0
C1549 C 0.53593 0.03045 0.15624 0.0
C1550 C 0.51702 0.02514 0.14707 0.0
C1551 C 0.51429 0.02701 0.12519 0.0
C1552 C 0.49518 0.02114 0.11656 0.0
C1553 C 0.47871 0.01397 0.12936 0.0
C1554 C 0.48133 0.01275 0.15139 0.0
C1555 C 0.46529 0.00654 0.16489 0.0
C1556 C 0.46789 0.00503 0.18644 0.0
C1557 C 0.48657 0.00945 0.19534 0.0
C1558 C 0.50301 0.016 0.18211 0.0
C1559 C 0.50045 0.01793 0.16016 0.0
C1560 C 0.61563 0.08821 0.10455 0.0
C1561 C 0.60309 0.06577 0.09634 0.0
O1562 O 0.4282 0.98668 0.27511 0.0
O1563 O 0.39843 0.98755 0.10447 0.0
O1564 O 0.58681 0.06301 0.08389 0.0
O1565 O 0.59421 0.02807 0.2549 0.0
H1566 H 0.43961 0.01292 0.29449 0.0
H1567 H 0.45662 0.99403 0.30495 0.0
H1568 H 0.43304 0.97223 0.31123 0.0
H1569 H 0.44302 0.99633 0.32651 0.0
H1570 H 0.45512 0.02487 0.26549 0.0
H1571 H 0.43323 0.96085 0.25234 0.0
H1572 H 0.50139 0.04421 0.24433 0.0
H1573 H 0.4822 0.05066 0.24866 0.0
H1574 H 0.48563 0.04306 0.22244 0.0
H1575 H 0.44874 0.94898 0.22865 0.0
H1576 H 0.47537 0.9662 0.22699 0.0
H1577 H 0.45839 0.96509 0.2065 0.0
H1578 H 0.59544 0.04699 0.27974 0.0
H1579 H 0.63261 0.06952 0.28007 0.0
H1580 H 0.62056 0.06855 0.25497 0.0
H1581 H 0.63348 0.05448 0.25767 0.0
H1582 H 0.56899 0.99634 0.23174 0.0
H1583 H 0.584 0.05719 0.25272 0.0
H1584 H 0.533 0.98799 0.19249 0.0
H1585 H 0.51901 0.97836 0.21565 0.0
H1586 H 0.53974 0.97438 0.21073 0.0
H1587 H 0.56501 0.07194 0.2422 0.0
H1588 H 0.53883 0.05316 0.24394 0.0
H1589 H 0.54895 0.06071 0.21848 0.0
H1590 H 0.59782 0.05655 0.11065 0.0
H1591 H 0.56452 0.02367 0.08917 0.0
H1592 H 0.56762 0.08174 0.09423 0.0
H1593 H 0.53113 0.99842 0.1241 0.0
H1594 H 0.53496 0.99279 0.09731 0.0
H1595 H 0.51259 0.99346 0.10354 0.0
H1596 H 0.54303 0.08642 0.11051 0.0
H1597 H 0.53194 0.0697 0.13197 0.0
H1598 H 0.51809 0.06439 0.10715 0.0
H1599 H 0.39768 0.01307 0.11584 0.0
H1600 H 0.36108 0.99446 0.11954 0.0
H1601 H 0.37401 0.9847 0.13501 0.0
H1602 H 0.35983 0.9707 0.11115 0.0
H1603 H 0.41321 0.9641 0.10859 0.0
H1604 H 0.42873 0.02706 0.10669 0.0
H1605 H 0.45204 0.96886 0.1362 0.0
H1606 H 0.46452 0.97464 0.11172 0.0
H1607 H 0.4384 0.95498 0.11203 0.0
H1608 H 0.46088 0.0544 0.1159 0.0
H1609 H 0.48006 0.04913 0.10763 0.0
H1610 H 0.47473 0.04856 0.13507 0.0
H1611 H 0.50981 0.00994 0.24215 0.0
H1612 H 0.55316 0.0321 0.18373 0.0
H1613 H 0.5491 0.03634 0.14696 0.0
H1614 H 0.49313 0.02228 0.09973 0.0
H1615 H 0.45051 0.00283 0.15899 0.0
H1616 H 0.45499 0.00016 0.19602 0.0
H1617 H 0.62893 0.09064 0.11423 0.0
H1618 H 0.60648 0.09223 0.11473 0.0
H1619 H 0.62075 0.09869 0.09132 0.0
C1620 C 0.57998 0.95029 0.75128 0.0
C1621 C 0.57609 0.96397 0.73691 0.0
C1622 C 0.56411 0.98213 0.75999 0.0
C1623 C 0.56906 0.00141 0.76872 0.0
C1624 C 0.55569 0.00403 0.78114 0.0
C1625 C 0.53695 0.9868 0.7851 0.0
C1626 C 0.5317 0.96722 0.77619 0.0
C1627 C 0.54531 0.96506 0.76365 0.0
C1628 C 0.56169 0.02515 0.79029 0.0
C1629 C 0.51183 0.94855 0.78021 0.0
C1630 C 0.45529 0.01829 0.72274 0.0
C1631 C 0.43713 0.00021 0.73209 0.0
C1632 C 0.45049 0.00108 0.76711 0.0
C1633 C 0.44779 0.98162 0.76999 0.0
C1634 C 0.46176 0.97926 0.78235 0.0
C1635 C 0.47897 0.99685 0.79167 0.0
C1636 C 0.48143 0.01652 0.78917 0.0
C1637 C 0.46691 0.01834 0.77716 0.0
C1638 C 0.45838 0.95802 0.78497 0.0
C1639 C 0.49969 0.03563 0.79857 0.0
C1640 C 0.4605 0.00474 0.9232 0.0
C1641 C 0.456 0.98456 0.91865 0.0
C1642 C 0.4703 0.98061 0.91006 0.0
C1643 C 0.48942 0.99725 0.90601 0.0
C1644 C 0.49457 0.01748 0.91251 0.0
C1645 C 0.47997 0.02097 0.92119 0.0
C1646 C 0.46457 0.95881 0.90393 0.0
C1647 C 0.51499 0.03549 0.90886 0.0
C1648 C 0.60906 0.9569 0.91668 0.0
C1649 C 0.6018 0.97122 0.92472 0.0
C1650 C 0.56893 0.96762 0.91587 0.0
C1651 C 0.54926 0.95304 0.90931 0.0
C1652 C 0.53611 0.95888 0.90069 0.0
C1653 C 0.54284 0.97992 0.89876 0.0
C1654 C 0.56251 0.99486 0.90615 0.0
C1655 C 0.57537 0.98857 0.91474 0.0
C1656 C 0.51514 0.94253 0.89329 0.0
C1657 C 0.56998 0.01742 0.90466 0.0
C1658 C 0.52321 0.98916 0.7993 0.0
C1659 C 0.50831 0.99217 0.7902 0.0
C1660 C 0.49496 0.99467 0.80271 0.0
C1661 C 0.49676 0.99454 0.82503 0.0
C1662 C 0.48385 0.9973 0.83816 0.0
C1663 C 0.48589 0.99735 0.86008 0.0
C1664 C 0.50065 0.99415 0.86974 0.0
C1665 C 0.50263 0.99384 0.89201 0.0
C1666 C 0.51683 0.98975 0.90107 0.0
C1667 C 0.52939 0.98611 0.8884 0.0
C1668 C 0.52814 0.98711 0.86614 0.0
C1669 C 0.54093 0.98411 0.85298 0.0
C1670 C 0.53943 0.9849 0.83111 0.0
C1671 C 0.52495 0.98849 0.82151 0.0
C1672 C 0.5118 0.9914 0.83443 0.0
C1673 C 0.51359 0.99097 0.85679 0.0
C1674 C 0.43277 0.01885 0.89926 0.0
C1675 C 0.42887 0.00253 0.91514 0.0
O1676 O 0.57805 0.98081 0.74849 0.0
O1677 O 0.58102 0.96073 0.92323 0.0
O1678 O 0.44594 0.0089 0.92811 0.0
O1679 O 0.43781 0.00345 0.75389 0.0
H1680 H 0.56065 0.95485 0.72951 0.0
H1681 H 0.5688 0.94432 0.76367 0.0
H1682 H 0.59515 0.95897 0.75927 0.0
H1683 H 0.5787 0.93699 0.74183 0.0
H1684 H 0.58358 0.01447 0.76579 0.0
H1685 H 0.54122 0.94999 0.75709 0.0
H1686 H 0.54998 0.02896 0.78601 0.0
H1687 H 0.57626 0.03716 0.78461 0.0
H1688 H 0.56292 0.0254 0.80784 0.0
H1689 H 0.51015 0.9343 0.77253 0.0
H1690 H 0.49945 0.95067 0.77409 0.0
H1691 H 0.51025 0.94667 0.79751 0.0
H1692 H 0.4378 0.98606 0.72837 0.0
H1693 H 0.45472 0.01598 0.70523 0.0
H1694 H 0.46939 0.01956 0.72917 0.0
H1695 H 0.45562 0.03288 0.72674 0.0
H1696 H 0.43486 0.96833 0.76231 0.0
H1697 H 0.46876 0.03331 0.7748 0.0
H1698 H 0.46921 0.95596 0.77555 0.0
H1699 H 0.44297 0.9459 0.77955 0.0
H1700 H 0.46102 0.95597 0.80182 0.0
H1701 H 0.49992 0.04983 0.79413 0.0
H1702 H 0.51351 0.0362 0.79319 0.0
H1703 H 0.50002 0.03531 0.8161 0.0
H1704 H 0.42518 0.98835 0.90556 0.0
H1705 H 0.44103 0.972 0.92102 0.0
H1706 H 0.48332 0.03647 0.92514 0.0
H1707 H 0.46354 0.95662 0.88639 0.0
H1708 H 0.44994 0.94751 0.91012 0.0
H1709 H 0.4763 0.95566 0.91 0.0
H1710 H 0.51742 0.04988 0.91697 0.0
H1711 H 0.51656 0.03773 0.89161 0.0
H1712 H 0.52687 0.0324 0.91457 0.0
H1713 H 0.60798 0.98427 0.91411 0.0
H1714 H 0.62571 0.965 0.91749 0.0
H1715 H 0.60369 0.95176 0.89992 0.0
H1716 H 0.60324 0.94315 0.92624 0.0
H1717 H 0.54434 0.93694 0.91057 0.0
H1718 H 0.59033 4e-05 0.92058 0.0
H1719 H 0.513 0.94321 0.87597 0.0
H1720 H 0.50403 0.94536 0.90121 0.0
H1721 H 0.51197 0.92688 0.89662 0.0
H1722 H 0.58558 0.02717 0.91135 0.0
H1723 H 0.56003 0.02152 0.91324 0.0
H1724 H 0.56941 0.02087 0.88781 0.0
H1725 H 0.50701 0.99246 0.7731 0.0
H1726 H 0.47209 0.99961 0.83164 0.0
H1727 H 0.4756 0.99976 0.86933 0.0
H1728 H 0.51786 0.98901 0.91812 0.0
H1729 H 0.55231 0.98121 0.85945 0.0
H1730 H 0.54972 0.98252 0.82181 0.0
H1731 H 0.43779 0.03398 0.90751 0.0
H1732 H 0.41895 0.01425 0.88931 0.0
H1733 H 0.44468 0.02051 0.88867 0.0
C1734 C 0.00733 0.57885 0.69353 0.0
C1735 C 0.00019 0.58075 0.71539 0.0
C1736 C 0.01091 0.57271 0.74874 0.0
C1737 C 0.99217 0.56325 0.75794 0.0
C1738 C 0.98848 0.55035 0.77474 0.0
C1739 C 0.00389 0.54713 0.78263 0.0
C1740 C 0.02329 0.55819 0.77471 0.0
C1741 C 0.02655 0.57096 0.75789 0.0
C1742 C 0.96779 0.53923 0.78326 0.0
C1743 C 0.04019 0.55542 0.78301 0.0
C1744 C 0.95794 0.42089 0.69782 0.0
C1745 C 0.97035 0.42549 0.7186 0.0
C1746 C 0.96708 0.44182 0.75131 0.0
C1747 C 0.98759 0.45322 0.7575 0.0
C1748 C 0.99473 0.4694 0.773 0.0
C1749 C 0.98106 0.47399 0.78268 0.0
C1750 C 0.96027 0.46154 0.77759 0.0
C1751 C 0.95356 0.44554 0.762 0.0
C1752 C 0.01696 0.48217 0.77837 0.0
C1753 C 0.94526 0.4658 0.78787 0.0
C1754 C 0.01218 0.4536 0.91168 0.0
C1755 C 0.02816 0.46971 0.90174 0.0
C1756 C 0.02625 0.48562 0.89345 0.0
C1757 C 0.00801 0.48555 0.89511 0.0
C1758 C 0.99214 0.46985 0.90578 0.0
C1759 C 0.99447 0.45408 0.91397 0.0
C1760 C 0.04359 0.50221 0.8823 0.0
C1761 C 0.97256 0.46943 0.90788 0.0
C1762 C 0.04015 0.64302 0.92002 0.0
C1763 C 0.0262 0.62299 0.93032 0.0
C1764 C 0.02889 0.59278 0.92044 0.0
C1765 C 0.04337 0.58808 0.91418 0.0
C1766 C 0.03795 0.56964 0.90275 0.0
C1767 C 0.01745 0.55536 0.89785 0.0
C1768 C 0.00264 0.55965 0.90489 0.0
C1769 C 0.00851 0.57831 0.91618 0.0
C1770 C 0.05415 0.56552 0.89575 0.0
C1771 C 0.98062 0.54452 0.90041 0.0
C1772 C 0.99889 0.52952 0.79583 0.0
C1773 C 0.99216 0.51062 0.78502 0.0
C1774 C 0.98857 0.49337 0.79569 0.0
C1775 C 0.99209 0.49494 0.81788 0.0
C1776 C 0.98962 0.47813 0.82899 0.0
C1777 C 0.99387 0.4801 0.85074 0.0
C1778 C 0.00023 0.4988 0.86226 0.0
C1779 C 0.00531 0.50114 0.88421 0.0
C1780 C 0.01039 0.51952 0.89544 0.0
C1781 C 0.01151 0.53611 0.88508 0.0
C1782 C 0.00792 0.53453 0.86283 0.0
C1783 C 0.01044 0.55137 0.85161 0.0
C1784 C 0.00754 0.54982 0.82964 0.0
C1785 C 0.0016 0.53126 0.81814 0.0
C1786 C 0.99845 0.51394 0.82917 0.0
C1787 C 0.00201 0.5157 0.85147 0.0
C1788 C 0.02703 0.42488 0.89271 0.0
C1789 C 0.02816 0.43273 0.91572 0.0
O1790 O 0.01439 0.58315 0.73081 0.0
O1791 O 0.03522 0.61113 0.93099 0.0
O1792 O 0.01306 0.43725 0.91886 0.0
O1793 O 0.95973 0.42741 0.73499 0.0
H1794 H 0.98585 0.56611 0.71693 0.0
H1795 H 0.00888 0.56503 0.69239 0.0
H1796 H 0.0221 0.59243 0.69068 0.0
H1797 H 0.99624 0.5772 0.68093 0.0
H1798 H 0.98025 0.56545 0.75173 0.0
H1799 H 0.0411 0.57876 0.75104 0.0
H1800 H 0.96023 0.5228 0.7778 0.0
H1801 H 0.95839 0.54563 0.77784 0.0
H1802 H 0.96882 0.54004 0.80085 0.0
H1803 H 0.0548 0.56657 0.77667 0.0
H1804 H 0.0369 0.53967 0.77847 0.0
H1805 H 0.0415 0.5572 0.80057 0.0
H1806 H 0.98447 0.44025 0.71681 0.0
H1807 H 0.96617 0.41942 0.68435 0.0
H1808 H 0.95507 0.43361 0.69493 0.0
H1809 H 0.94329 0.40645 0.69843 0.0
H1810 H 0.99811 0.44981 0.75006 0.0
H1811 H 0.93773 0.43637 0.75743 0.0
H1812 H 0.01987 0.4835 0.7958 0.0
H1813 H 0.02269 0.4979 0.77295 0.0
H1814 H 0.02545 0.47561 0.77083 0.0
H1815 H 0.92955 0.45351 0.78382 0.0
H1816 H 0.94725 0.48053 0.78256 0.0
H1817 H 0.94787 0.4674 0.80535 0.0
H1818 H 0.04293 0.44682 0.91913 0.0
H1819 H 0.04212 0.46993 0.89998 0.0
H1820 H 0.98225 0.44174 0.92178 0.0
H1821 H 0.03944 0.50097 0.86516 0.0
H1822 H 0.05737 0.50117 0.88407 0.0
H1823 H 0.04699 0.51756 0.88863 0.0
H1824 H 0.96189 0.45656 0.91725 0.0
H1825 H 0.96552 0.46791 0.89189 0.0
H1826 H 0.97536 0.4841 0.91562 0.0
H1827 H 0.01211 0.61524 0.92016 0.0
H1828 H 0.0332 0.65277 0.91924 0.0
H1829 H 0.04288 0.63962 0.90362 0.0
H1830 H 0.05481 0.65168 0.92909 0.0
H1831 H 0.05904 0.59917 0.91792 0.0
H1832 H 0.99713 0.58135 0.92188 0.0
H1833 H 0.05226 0.56157 0.87844 0.0
H1834 H 0.05285 0.55217 0.90391 0.0
H1835 H 0.06943 0.57886 0.89936 0.0
H1836 H 0.97092 0.54952 0.90809 0.0
H1837 H 0.97688 0.52931 0.90605 0.0
H1838 H 0.97717 0.5426 0.88305 0.0
H1839 H 0.98989 0.50938 0.76789 0.0
H1840 H 0.98474 0.4634 0.82092 0.0
H1841 H 0.99202 0.46673 0.85845 0.0
H1842 H 0.01417 0.52117 0.9123 0.0
H1843 H 0.015 0.56604 0.85966 0.0
H1844 H 0.00993 0.56329 0.82174 0.0
H1845 H 0.03882 0.42079 0.89042 0.0
H1846 H 0.02945 0.43681 0.88154 0.0
H1847 H 0.01211 0.41114 0.88862 0.0
C1848 C 0.54481 0.58276 0.70702 0.0
C1849 C 0.56143 0.60068 0.72088 0.0
C1850 C 0.55119 0.58457 0.75475 0.0
C1851 C 0.53551 0.58847 0.7581 0.0
C1852 C 0.52083 0.57732 0.77246 0.0
C1853 C 0.52179 0.56186 0.78349 0.0
C1854 C 0.538 0.55845 0.78074 0.0
C1855 C 0.5527 0.57014 0.76661 0.0
C1856 C 0.50396 0.58162 0.77535 0.0
C1857 C 0.53937 0.54193 0.79208 0.0
C1858 C 0.41801 0.45665 0.69919 0.0
C1859 C 0.41924 0.44987 0.72143 0.0
C1860 C 0.42677 0.4731 0.75257 0.0
C1861 C 0.44028 0.46897 0.76349 0.0
C1862 C 0.45413 0.48313 0.77896 0.0
C1863 C 0.45427 0.50162 0.78373 0.0
C1864 C 0.43962 0.50502 0.77395 0.0
C1865 C 0.42593 0.49059 0.75855 0.0
C1866 C 0.46919 0.47878 0.78955 0.0
C1867 C 0.43907 0.52436 0.77902 0.0
C1868 C 0.41882 0.4895 0.9166 0.0
C1869 C 0.4319 0.48237 0.91164 0.0
C1870 C 0.45026 0.49526 0.90272 0.0
C1871 C 0.45532 0.51549 0.89829 0.0
C1872 C 0.44256 0.52297 0.9043 0.0
C1873 C 0.42457 0.5099 0.91374 0.0
C1874 C 0.46387 0.48703 0.89731 0.0
C1875 C 0.44755 0.5445 0.90005 0.0
C1876 C 0.59135 0.63131 0.97082 0.0
C1877 C 0.57481 0.62507 0.95438 0.0
C1878 C 0.55957 0.60109 0.92375 0.0
C1879 C 0.55929 0.58428 0.91355 0.0
C1880 C 0.54234 0.56956 0.90133 0.0
C1881 C 0.52564 0.57235 0.89845 0.0
C1882 C 0.52623 0.58987 0.90797 0.0
C1883 C 0.54307 0.6039 0.92075 0.0
C1884 C 0.54218 0.55087 0.89191 0.0
C1885 C 0.50897 0.59367 0.905 0.0
C1886 C 0.50493 0.54813 0.79641 0.0
C1887 C 0.488 0.53202 0.78572 0.0
C1888 C 0.47132 0.51846 0.79657 0.0
C1889 C 0.47143 0.52097 0.81882 0.0
C1890 C 0.45473 0.50793 0.8302 0.0
C1891 C 0.4551 0.51048 0.85214 0.0
C1892 C 0.47235 0.52589 0.86356 0.0
C1893 C 0.47307 0.52829 0.88591 0.0
C1894 C 0.49062 0.54342 0.89677 0.0
C1895 C 0.50744 0.55677 0.88585 0.0
C1896 C 0.50674 0.55512 0.86346 0.0
C1897 C 0.52296 0.56895 0.85191 0.0
C1898 C 0.52234 0.56685 0.82992 0.0
C1899 C 0.5055 0.55078 0.81867 0.0
C1900 C 0.48873 0.53703 0.82993 0.0
C1901 C 0.48928 0.53933 0.85234 0.0
C1902 C 0.36745 0.45593 0.90787 0.0
C1903 C 0.3873 0.45736 0.91449 0.0
O1904 O 0.56478 0.59393 0.73982 0.0
O1905 O 0.57557 0.6138 0.93701 0.0
O1906 O 0.40031 0.47681 0.92346 0.0
O1907 O 0.41463 0.46081 0.73601 0.0
H1908 H 0.5569 0.61226 0.72428 0.0
H1909 H 0.53029 0.57606 0.71479 0.0
H1910 H 0.54859 0.57054 0.70419 0.0
H1911 H 0.54281 0.58815 0.69152 0.0
H1912 H 0.53449 0.6 0.7494 0.0
H1913 H 0.56499 0.56742 0.76402 0.0
H1914 H 0.48987 0.56869 0.7679 0.0
H1915 H 0.50687 0.59595 0.76803 0.0
H1916 H 0.50159 0.58285 0.79246 0.0
H1917 H 0.55254 0.54072 0.78758 0.0
H1918 H 0.52555 0.52689 0.78842 0.0
H1919 H 0.54048 0.54522 0.80946 0.0
H1920 H 0.43501 0.45355 0.72404 0.0
H1921 H 0.4213 0.4478 0.68719 0.0
H1922 H 0.42924 0.47318 0.69824 0.0
H1923 H 0.40291 0.45442 0.69536 0.0
H1924 H 0.44027 0.4549 0.75971 0.0
H1925 H 0.41511 0.49338 0.75038 0.0
H1926 H 0.46917 0.48081 0.80702 0.0
H1927 H 0.48446 0.48989 0.78463 0.0
H1928 H 0.46607 0.46301 0.78543 0.0
H1929 H 0.42554 0.52375 0.77175 0.0
H1930 H 0.45258 0.53765 0.77303 0.0
H1931 H 0.4394 0.52702 0.79644 0.0
H1932 H 0.39334 0.45468 0.89968 0.0
H1933 H 0.42761 0.46667 0.9145 0.0
H1934 H 0.41441 0.51525 0.91794 0.0
H1935 H 0.46332 0.48436 0.87988 0.0
H1936 H 0.45939 0.47234 0.90478 0.0
H1937 H 0.47962 0.49836 0.9025 0.0
H1938 H 0.43546 0.54754 0.90454 0.0
H1939 H 0.45021 0.54726 0.88299 0.0
H1940 H 0.46156 0.55561 0.90919 0.0
H1941 H 0.57198 0.63754 0.94986 0.0
H1942 H 0.60009 0.64856 0.97117 0.0
H1943 H 0.6033 0.6294 0.96304 0.0
H1944 H 0.57639 0.61506 0.99703 0.0
H1945 H 0.57211 0.58226 0.91593 0.0
H1946 H 0.54325 0.61705 0.92833 0.0
H1947 H 0.54337 0.55191 0.8745 0.0
H1948 H 0.52788 0.53675 0.89492 0.0
H1949 H 0.55484 0.54938 0.89844 0.0
H1950 H 0.51338 0.60977 0.90958 0.0
H1951 H 0.49672 0.58344 0.9151 0.0
H1952 H 0.503 0.59017 0.88829 0.0
H1953 H 0.4878 0.52999 0.76861 0.0
H1954 H 0.44118 0.49566 0.82225 0.0
H1955 H 0.44172 0.50006 0.86002 0.0
H1956 H 0.49113 0.54492 0.91393 0.0
H1957 H 0.53636 0.58154 0.85973 0.0
H1958 H 0.53529 0.57787 0.82185 0.0
H1959 H 0.36062 0.45903 0.92171 0.0
H1960 H 0.35676 0.44043 0.9006 0.0
H1961 H 0.37009 0.46741 0.89598 0.0
C1962 C 0.64606 0.75931 0.6635 0.0
C1963 C 0.64474 0.7501 0.64121 0.0
C1964 C 0.6477 0.77038 0.61021 0.0
C1965 C 0.62733 0.76403 0.6065 0.0
C1966 C 0.62095 0.77027 0.58876 0.0
C1967 C 0.63525 0.78358 0.57482 0.0
C1968 C 0.65572 0.78982 0.57841 0.0
C1969 C 0.66161 0.78302 0.59602 0.0
C1970 C 0.59901 0.76345 0.58549 0.0
C1971 C 0.67151 0.80449 0.56427 0.0
C1972 C 0.63148 0.88214 0.64423 0.0
C1973 C 0.64072 0.89106 0.62329 0.0
C1974 C 0.62488 0.86974 0.59104 0.0
C1975 C 0.642 0.87313 0.58063 0.0
C1976 C 0.64118 0.85818 0.5662 0.0
C1977 C 0.62284 0.83955 0.56215 0.0
C1978 C 0.6052 0.83698 0.57115 0.0
C1979 C 0.60643 0.85227 0.58538 0.0
C1980 C 0.66019 0.86169 0.55646 0.0
C1981 C 0.58537 0.81744 0.56692 0.0
C1982 C 0.60092 0.83691 0.42282 0.0
C1983 C 0.62059 0.84418 0.43059 0.0
C1984 C 0.62518 0.83216 0.44336 0.0
C1985 C 0.6096 0.81268 0.4488 0.0
C1986 C 0.58986 0.805 0.4402 0.0
C1987 C 0.58581 0.81719 0.42705 0.0
C1988 C 0.64655 0.84053 0.45155 0.0
C1989 C 0.57293 0.78426 0.44551 0.0
C1990 C 0.63198 0.69465 0.39688 0.0
C1991 C 0.6227 0.69898 0.41534 0.0
C1992 C 0.63195 0.72904 0.43936 0.0
C1993 C 0.64787 0.74821 0.44651 0.0
C1994 C 0.6445 0.76264 0.45728 0.0
C1995 C 0.62463 0.75762 0.46121 0.0
C1996 C 0.60847 0.7379 0.45481 0.0
C1997 C 0.61228 0.72376 0.44397 0.0
C1998 C 0.66212 0.78349 0.4639 0.0
C1999 C 0.58714 0.73194 0.45904 0.0
C2000 C 0.62935 0.79369 0.55885 0.0
C2001 C 0.62756 0.81023 0.56624 0.0
C2002 C 0.62309 0.82154 0.55249 0.0
C2003 C 0.62009 0.81613 0.53056 0.0
C2004 C 0.61537 0.82703 0.51627 0.0
C2005 C 0.61288 0.82182 0.49463 0.0
C2006 C 0.61539 0.80574 0.48645 0.0
C2007 C 0.61373 0.80089 0.46441 0.0
C2008 C 0.61649 0.78495 0.45684 0.0
C2009 C 0.62076 0.77348 0.47069 0.0
C2010 C 0.62223 0.77791 0.4928 0.0
C2011 C 0.62622 0.76652 0.50724 0.0
C2012 C 0.62826 0.77144 0.52894 0.0
C2013 C 0.62654 0.78802 0.53696 0.0
C2014 C 0.62201 0.7994 0.52275 0.0
C2015 C 0.61978 0.79428 0.50066 0.0
C2016 C 0.57682 0.86252 0.42718 0.0
C2017 C 0.59766 0.86678 0.42151 0.0
O2018 O 0.65491 0.76572 0.62763 0.0
O2019 O 0.63621 0.71645 0.42756 0.0
O2020 O 0.59617 0.8492 0.41214 0.0
O2021 O 0.62588 0.88264 0.60711 0.0
H2022 H 0.62864 0.74055 0.63623 0.0
H2023 H 0.63893 0.7689 0.66327 0.0
H2024 H 0.66194 0.76908 0.66938 0.0
H2025 H 0.63805 0.74694 0.67459 0.0
H2026 H 0.61635 0.75492 0.61765 0.0
H2027 H 0.6773 0.78797 0.59913 0.0
H2028 H 0.59669 0.77637 0.59013 0.0
H2029 H 0.58941 0.75028 0.59513 0.0
H2030 H 0.59407 0.75904 0.56853 0.0
H2031 H 0.68684 0.80816 0.56952 0.0
H2032 H 0.67117 0.81899 0.56409 0.0
H2033 H 0.6683 0.79775 0.54779 0.0
H2034 H 0.65222 0.88658 0.62081 0.0
H2035 H 0.64303 0.88912 0.65749 0.0
H2036 H 0.62548 0.86533 0.64334 0.0
H2037 H 0.61896 0.88485 0.64764 0.0
H2038 H 0.65613 0.88714 0.5843 0.0
H2039 H 0.5932 0.85005 0.59317 0.0
H2040 H 0.65738 0.85721 0.53926 0.0
H2041 H 0.66528 0.85193 0.56397 0.0
H2042 H 0.67243 0.87794 0.55864 0.0
H2043 H 0.57266 0.81884 0.57278 0.0
H2044 H 0.58573 0.8048 0.57495 0.0
H2045 H 0.5827 0.81318 0.54968 0.0
H2046 H 0.60688 0.87119 0.4367 0.0
H2047 H 0.63222 0.85942 0.42692 0.0
H2048 H 0.57068 0.81177 0.42079 0.0
H2049 H 0.64788 0.84493 0.46869 0.0
H2050 H 0.65726 0.85426 0.44321 0.0
H2051 H 0.65088 0.82864 0.4497 0.0
H2052 H 0.55827 0.7809 0.43827 0.0
H2053 H 0.57181 0.78346 0.46296 0.0
H2054 H 0.57608 0.77218 0.43979 0.0
H2055 H 0.61339 0.6857 0.42507 0.0
H2056 H 0.63095 0.67959 0.4 0.0
H2057 H 0.64872 0.70401 0.40004 0.0
H2058 H 0.61735 0.6985 0.37053 0.0
H2059 H 0.663 0.75207 0.44303 0.0
H2060 H 0.59986 0.70876 0.43893 0.0
H2061 H 0.66269 0.78616 0.48134 0.0
H2062 H 0.66029 0.79559 0.4565 0.0
H2063 H 0.67662 0.78511 0.45935 0.0
H2064 H 0.57643 0.71546 0.4549 0.0
H2065 H 0.58273 0.74126 0.44959 0.0
H2066 H 0.58596 0.73526 0.47602 0.0
H2067 H 0.6301 0.81467 0.58306 0.0
H2068 H 0.61356 0.83972 0.5217 0.0
H2069 H 0.6092 0.83074 0.48438 0.0
H2070 H 0.61554 0.78159 0.43988 0.0
H2071 H 0.62789 0.75374 0.50189 0.0
H2072 H 0.63141 0.76224 0.53936 0.0
H2073 H 0.56643 0.85734 0.41292 0.0
H2074 H 0.57779 0.87656 0.43457 0.0
H2075 H 0.57048 0.85031 0.43871 0.0
C2076 C 0.0992 0.68685 0.62092 0.0
C2077 C 0.09893 0.70668 0.62594 0.0
C2078 C 0.11689 0.73365 0.6014 0.0
C2079 C 0.11429 0.74826 0.59121 0.0
C2080 C 0.13063 0.76559 0.58346 0.0
C2081 C 0.1499 0.7677 0.58493 0.0
C2082 C 0.15272 0.75315 0.59563 0.0
C2083 C 0.13618 0.73636 0.60402 0.0
C2084 C 0.12708 0.78126 0.5731 0.0
C2085 C 0.17303 0.75491 0.59748 0.0
C2086 C 0.26483 0.93181 0.62485 0.0
C2087 C 0.24672 0.9112 0.6203 0.0
C2088 C 0.23676 0.87637 0.60739 0.0
C2089 C 0.24331 0.86282 0.6014 0.0
C2090 C 0.22996 0.84333 0.59181 0.0
C2091 C 0.20964 0.83751 0.58756 0.0
C2092 C 0.20271 0.85075 0.59446 0.0
C2093 C 0.21623 0.86982 0.60464 0.0
C2094 C 0.23771 0.82924 0.58565 0.0
C2095 C 0.1811 0.84503 0.59058 0.0
C2096 C 0.23851 0.86473 0.45073 0.0
C2097 C 0.24017 0.84732 0.45341 0.0
C2098 C 0.22596 0.83095 0.46456 0.0
C2099 C 0.20969 0.83201 0.47293 0.0
C2100 C 0.20795 0.84954 0.47012 0.0
C2101 C 0.22268 0.8659 0.4594 0.0
C2102 C 0.22844 0.81263 0.46758 0.0
C2103 C 0.19058 0.85103 0.47846 0.0
C2104 C 0.07324 0.68364 0.4388 0.0
C2105 C 0.08364 0.70587 0.43239 0.0
C2106 C 0.11841 0.73017 0.4455 0.0
C2107 C 0.13639 0.7308 0.45069 0.0
C2108 C 0.1517 0.74716 0.46322 0.0
C2109 C 0.14897 0.76341 0.47058 0.0
C2110 C 0.131 0.76316 0.46496 0.0
C2111 C 0.11594 0.74661 0.45233 0.0
C2112 C 0.17077 0.74709 0.46867 0.0
C2113 C 0.12779 0.78045 0.47225 0.0
C2114 C 0.1665 0.78398 0.57346 0.0
C2115 C 0.18113 0.80162 0.58496 0.0
C2116 C 0.19588 0.81833 0.57468 0.0
C2117 C 0.19612 0.81736 0.55228 0.0
C2118 C 0.21043 0.83395 0.54132 0.0
C2119 C 0.21031 0.83299 0.51932 0.0
C2120 C 0.19549 0.81567 0.50734 0.0
C2121 C 0.19472 0.8149 0.48495 0.0
C2122 C 0.17951 0.79768 0.4735 0.0
C2123 C 0.16506 0.78089 0.48381 0.0
C2124 C 0.16585 0.78115 0.50619 0.0
C2125 C 0.15187 0.76432 0.51707 0.0
C2126 C 0.15243 0.76498 0.53908 0.0
C2127 C 0.16674 0.78265 0.55111 0.0
C2128 C 0.1814 0.7995 0.54049 0.0
C2129 C 0.18098 0.79873 0.518 0.0
C2130 C 0.27382 0.89906 0.41261 0.0
C2131 C 0.25892 0.879 0.42067 0.0
O2132 O 0.10036 0.71675 0.60764 0.0
O2133 O 0.1042 0.71372 0.43346 0.0
O2134 O 0.25221 0.8808 0.44028 0.0
O2135 O 0.25062 0.89557 0.6153 0.0
H2136 H 0.11199 0.71654 0.63711 0.0
H2137 H 0.11389 0.69043 0.61484 0.0
H2138 H 0.08739 0.67682 0.60872 0.0
H2139 H 0.09692 0.6783 0.6355 0.0
H2140 H 0.09933 0.74605 0.5894 0.0
H2141 H 0.13824 0.72503 0.61186 0.0
H2142 H 0.13956 0.79705 0.57736 0.0
H2143 H 0.11278 0.78005 0.57775 0.0
H2144 H 0.12629 0.77872 0.55564 0.0
H2145 H 0.17258 0.74189 0.60558 0.0
H2146 H 0.18377 0.7694 0.60651 0.0
H2147 H 0.17881 0.7555 0.58147 0.0
H2148 H 0.23558 0.91151 0.60897 0.0
H2149 H 0.27796 0.93079 0.61898 0.0
H2150 H 0.26242 0.93845 0.65658 0.0
H2151 H 0.2647 0.94145 0.61175 0.0
H2152 H 0.25904 0.86771 0.60395 0.0
H2153 H 0.21059 0.8796 0.61003 0.0
H2154 H 0.22705 0.81334 0.58991 0.0
H2155 H 0.25265 0.8343 0.59343 0.0
H2156 H 0.23911 0.82899 0.56824 0.0
H2157 H 0.17852 0.85781 0.59512 0.0
H2158 H 0.17135 0.83171 0.59993 0.0
H2159 H 0.17642 0.84044 0.57359 0.0
H2160 H 0.26309 0.86691 0.41932 0.0
H2161 H 0.25279 0.84668 0.44726 0.0
H2162 H 0.22169 0.87954 0.45734 0.0
H2163 H 0.22796 0.80948 0.48464 0.0
H2164 H 0.24274 0.81487 0.46155 0.0
H2165 H 0.21582 0.79889 0.45908 0.0
H2166 H 0.19007 0.86444 0.47261 0.0
H2167 H 0.19192 0.85249 0.49603 0.0
H2168 H 0.17619 0.83687 0.47375 0.0
H2169 H 0.07933 0.71422 0.44393 0.0
H2170 H 0.05671 0.67698 0.43829 0.0
H2171 H 0.07829 0.68305 0.45522 0.0
H2172 H 0.07689 0.67417 0.42805 0.0
H2173 H 0.13829 0.71822 0.44504 0.0
H2174 H 0.10252 0.74683 0.44759 0.0
H2175 H 0.17316 0.74787 0.48614 0.0
H2176 H 0.18375 0.76086 0.46259 0.0
H2177 H 0.17049 0.73319 0.4619 0.0
H2178 H 0.11293 0.77793 0.4667 0.0
H2179 H 0.13968 0.79508 0.46628 0.0
H2180 H 0.129 0.78214 0.48983 0.0
H2181 H 0.1806 0.80266 0.60206 0.0
H2182 H 0.22191 0.84792 0.54959 0.0
H2183 H 0.22182 0.84619 0.51183 0.0
H2184 H 0.17887 0.79736 0.45632 0.0
H2185 H 0.1403 0.75047 0.50867 0.0
H2186 H 0.1413 0.75151 0.54654 0.0
H2187 H 0.28801 0.89842 0.4115 0.0
H2188 H 0.27964 0.91051 0.42661 0.0
H2189 H 0.25876 0.90182 0.38607 0.0
C2190 C 0.07608 0.35892 0.64804 0.0
C2191 C 0.09512 0.3696 0.63684 0.0
C2192 C 0.11667 0.36132 0.61608 0.0
C2193 C 0.12967 0.38149 0.61041 0.0
C2194 C 0.14582 0.38599 0.59765 0.0
C2195 C 0.1489 0.36997 0.59021 0.0
C2196 C 0.13581 0.34966 0.59583 0.0
C2197 C 0.11989 0.34562 0.60876 0.0
C2198 C 0.15961 0.40785 0.59206 0.0
C2199 C 0.13862 0.33222 0.58809 0.0
C2200 C 0.29975 0.41587 0.62023 0.0
C2201 C 0.28116 0.39847 0.62965 0.0
C2202 C 0.25199 0.38523 0.60441 0.0
C2203 C 0.23781 0.3675 0.59283 0.0
C2204 C 0.22074 0.36624 0.58302 0.0
C2205 C 0.21803 0.38339 0.58452 0.0
C2206 C 0.23247 0.40155 0.59596 0.0
C2207 C 0.24933 0.40231 0.60583 0.0
C2208 C 0.20561 0.34655 0.57105 0.0
C2209 C 0.23016 0.4202 0.59754 0.0
C2210 C 0.24803 0.40815 0.45123 0.0
C2211 C 0.23653 0.38772 0.45667 0.0
C2212 C 0.21844 0.38094 0.46671 0.0
C2213 C 0.21209 0.39509 0.47186 0.0
C2214 C 0.22319 0.41545 0.46536 0.0
C2215 C 0.24093 0.42162 0.45478 0.0
C2216 C 0.20651 0.35886 0.47244 0.0
C2217 C 0.21676 0.43089 0.4703 0.0
C2218 C 0.07062 0.38192 0.44896 0.0
C2219 C 0.08384 0.37738 0.4348 0.0
C2220 C 0.10524 0.36785 0.4549 0.0
C2221 C 0.10939 0.35202 0.45698 0.0
C2222 C 0.1271 0.35552 0.46756 0.0
C2223 C 0.1409 0.37536 0.47637 0.0
C2224 C 0.13663 0.39139 0.47472 0.0
C2225 C 0.11875 0.38743 0.46419 0.0
C2226 C 0.13108 0.33803 0.46936 0.0
C2227 C 0.15096 0.41268 0.48416 0.0
C2228 C 0.16572 0.37449 0.57641 0.0
C2229 C 0.18362 0.37753 0.58588 0.0
C2230 C 0.20017 0.38227 0.57385 0.0
C2231 C 0.19915 0.38465 0.55187 0.0
C2232 C 0.21589 0.39058 0.53954 0.0
C2233 C 0.21459 0.39239 0.51783 0.0
C2234 C 0.19638 0.38794 0.50753 0.0
C2235 C 0.19471 0.38905 0.48533 0.0
C2236 C 0.17642 0.38465 0.47566 0.0
C2237 C 0.15968 0.37932 0.4876 0.0
C2238 C 0.16103 0.37811 0.50978 0.0
C2239 C 0.14445 0.37277 0.52224 0.0
C2240 C 0.14596 0.37169 0.54407 0.0
C2241 C 0.16405 0.3757 0.55426 0.0
C2242 C 0.18089 0.38095 0.54198 0.0
C2243 C 0.17943 0.38233 0.51974 0.0
C2244 C 0.30012 0.43242 0.45711 0.0
C2245 C 0.28097 0.41185 0.45181 0.0
O2246 O 0.10093 0.35631 0.62849 0.0
O2247 O 0.08805 0.36351 0.44399 0.0
O2248 O 0.26637 0.41538 0.44328 0.0
O2249 O 0.268 0.38516 0.61364 0.0
H2250 H 0.10758 0.38325 0.64581 0.0
H2251 H 0.07321 0.34307 0.65093 0.0
H2252 H 0.05631 0.36412 0.62977 0.0
H2253 H 0.08044 0.36467 0.6651 0.0
H2254 H 0.12732 0.3938 0.61589 0.0
H2255 H 0.10977 0.33012 0.61318 0.0
H2256 H 0.17539 0.41252 0.59648 0.0
H2257 H 0.15593 0.41874 0.60012 0.0
H2258 H 0.15852 0.40901 0.57468 0.0
H2259 H 0.12661 0.31715 0.59309 0.0
H2260 H 0.15331 0.33481 0.59435 0.0
H2261 H 0.13879 0.33168 0.57053 0.0
H2262 H 0.27377 0.40527 0.63908 0.0
H2263 H 0.31035 0.42647 0.6331 0.0
H2264 H 0.29539 0.42476 0.61 0.0
H2265 H 0.30752 0.40976 0.61049 0.0
H2266 H 0.24009 0.35449 0.59169 0.0
H2267 H 0.26043 0.41634 0.61432 0.0
H2268 H 0.2056 0.3492 0.5539 0.0
H2269 H 0.19031 0.34151 0.5764 0.0
H2270 H 0.20892 0.33402 0.57316 0.0
H2271 H 0.24325 0.43354 0.606 0.0
H2272 H 0.21647 0.41653 0.60609 0.0
H2273 H 0.22822 0.42454 0.58143 0.0
H2274 H 0.27629 0.40442 0.46717 0.0
H2275 H 0.24185 0.37718 0.45331 0.0
H2276 H 0.24986 0.4373 0.45021 0.0
H2277 H 0.20864 0.35793 0.4897 0.0
H2278 H 0.2113 0.3491 0.46387 0.0
H2279 H 0.19026 0.35259 0.4688 0.0
H2280 H 0.22772 0.44642 0.46529 0.0
H2281 H 0.21488 0.43185 0.48757 0.0
H2282 H 0.20203 0.42583 0.46206 0.0
H2283 H 0.09793 0.39215 0.4329 0.0
H2284 H 0.06677 0.39257 0.44127 0.0
H2285 H 0.07881 0.38931 0.46433 0.0
H2286 H 0.05657 0.36767 0.45223 0.0
H2287 H 0.09878 0.33691 0.45002 0.0
H2288 H 0.1154 0.39967 0.46348 0.0
H2289 H 0.13332 0.33592 0.4863 0.0
H2290 H 0.1451 0.34174 0.46146 0.0
H2291 H 0.11863 0.32338 0.46206 0.0
H2292 H 0.14589 0.42371 0.48073 0.0
H2293 H 0.16605 0.41841 0.47786 0.0
H2294 H 0.1525 0.41219 0.5016 0.0
H2295 H 0.18459 0.37596 0.60279 0.0
H2296 H 0.23023 0.39398 0.54656 0.0
H2297 H 0.22804 0.39716 0.50923 0.0
H2298 H 0.17524 0.38555 0.45865 0.0
H2299 H 0.1301 0.36939 0.51526 0.0
H2300 H 0.1327 0.36751 0.55283 0.0
H2301 H 0.3121 0.42993 0.46381 0.0
H2302 H 0.2971 0.44151 0.46907 0.0
H2303 H 0.30552 0.44144 0.44279 0.0
C2304 C 0.00104 0.3674 0.04891 0.0
C2305 C 0.98457 0.35561 0.03455 0.0
C2306 C 0.99876 0.37562 0.06816 0.0
C2307 C 0.97988 0.37223 0.0739 0.0
H2308 H 0.01592 0.37069 0.04507 0.0
H2309 H 0.01189 0.38479 0.07862 0.0
S2310 S 0.93169 0.34088 0.04271 0.0
N2311 N 0.94857 0.34005 0.02791 0.0
N2312 N 0.94422 0.35516 0.06418 0.0
C2313 C 0.9632 0.35994 0.05995 0.0
C2314 C 0.96556 0.35176 0.04027 0.0
C2315 C 0.63594 0.5821 0.06143 0.0
C2316 C 0.63933 0.60131 0.06925 0.0
C2317 C 0.62604 0.56467 0.07321 0.0
C2318 C 0.61897 0.56568 0.0932 0.0
H2319 H 0.64109 0.58047 0.04612 0.0
H2320 H 0.62395 0.55027 0.06661 0.0
S2321 S 0.62419 0.61223 0.12112 0.0
N2322 N 0.63524 0.62033 0.09863 0.0
N2323 N 0.61596 0.5874 0.12036 0.0
C2324 C 0.62213 0.58474 0.10119 0.0
C2325 C 0.63244 0.60257 0.08931 0.0
C2326 C 0.36575 0.98855 0.04959 0.0
C2327 C 0.3724 0.00835 0.04271 0.0
C2328 C 0.37123 0.98559 0.06985 0.0
C2329 C 0.38319 0.0023 0.08425 0.0
H2330 H 0.35648 0.97517 0.03913 0.0
H2331 H 0.36602 0.97006 0.07429 0.0
S2332 S 0.40437 0.0573 0.07408 0.0
N2333 N 0.39174 0.04499 0.05181 0.0
N2334 N 0.4016 0.0394 0.09016 0.0
C2335 C 0.38995 0.02221 0.07759 0.0
C2336 C 0.38465 0.02524 0.05678 0.0
C2337 C 0.39622 0.01161 0.95328 0.0
C2338 C 0.37802 0.99283 0.95176 0.0
C2339 C 0.41268 0.01437 0.94203 0.0
C2340 C 0.41145 0.99856 0.92853 0.0
H2341 H 0.39782 0.02435 0.96315 0.0
H2342 H 0.42637 0.02915 0.94356 0.0
S2343 S 0.36742 0.94607 0.91982 0.0
N2344 N 0.35998 0.95783 0.93655 0.0
N2345 N 0.3908 0.9631 0.91507 0.0
C2346 C 0.39351 0.97949 0.92736 0.0
C2347 C 0.37683 0.9766 0.93906 0.0
C2348 C 0.00601 0.38234 0.94394 0.0
C2349 C 0.02288 0.38354 0.95445 0.0
C2350 C 0.00765 0.39852 0.93229 0.0
C2351 C 0.02625 0.41655 0.93057 0.0
H2352 H 0.99143 0.36868 0.94436 0.0
H2353 H 0.99433 0.39669 0.92407 0.0
S2354 S 0.07509 0.42749 0.95493 0.0
N2355 N 0.05883 0.40447 0.96249 0.0
N2356 N 0.06192 0.43463 0.94032 0.0
C2357 C 0.04321 0.41806 0.94117 0.0
C2358 C 0.04152 0.40167 0.9532 0.0
C2359 C 0.59006 0.64391 0.00626 0.0
C2360 C 0.60466 0.6312 0.00629 0.0
C2361 C 0.5673 0.63375 0.98967 0.0
C2362 C 0.56298 0.61256 0.97024 0.0
H2363 H 0.59474 0.6574 0.01659 0.0
H2364 H 0.55931 0.64201 0.98824 0.0
S2365 S 0.59056 0.57719 0.97265 0.0
N2366 N 0.60554 0.59632 0.99059 0.0
N2367 N 0.57125 0.57946 0.963 0.0
C2368 C 0.57436 0.59623 0.97433 0.0
C2369 C 0.59648 0.60749 0.99107 0.0
C2370 C -0.00015 0.633 0.97565 0.0
C2371 C 0.0136 0.63872 0.99317 0.0
C2372 C 0.00387 0.62754 0.95575 0.0
C2373 C 0.02176 0.62749 0.95248 0.0
H2374 H 0.98583 0.63277 0.97724 0.0
H2375 H 0.99293 0.62353 0.94273 0.0
S2376 S 0.06316 0.64193 0.9927 0.0
N2377 N 0.04615 0.64436 0.00567 0.0
N2378 N 0.05367 0.63424 0.96822 0.0
C2379 C 0.03572 0.63327 0.96976 0.0
C2380 C 0.03162 0.63878 0.99009 0.0
C2381 C 0.37237 0.42721 0.96457 0.0
C2382 C 0.3704 0.4083 0.95788 0.0
C2383 C 0.3789 0.44335 0.95093 0.0
C2384 C 0.38379 0.44124 0.93008 0.0
H2385 H 0.36792 0.4293 0.98013 0.0
H2386 H 0.37925 0.45725 0.95642 0.0
S2387 S 0.38343 0.39583 0.90547 0.0
N2388 N 0.37563 0.38913 0.9295 0.0
N2389 N 0.38783 0.41946 0.90393 0.0
C2390 C 0.38308 0.42291 0.9236 0.0
C2391 C 0.37648 0.40648 0.9375 0.0
C2392 C 0.63595 0.00457 0.97196 0.0
C2393 C 0.62734 0.99254 0.98942 0.0
C2394 C 0.62726 0.99782 0.95142 0.0
C2395 C 0.6096 0.97879 0.94743 0.0
H2396 H 0.6496 0.01933 0.97411 0.0
H2397 H 0.63462 0.00747 0.93847 0.0
S2398 S 0.58138 0.94104 0.98734 0.0
N2399 N 0.60018 0.96041 0.00118 0.0
N2400 N 0.58405 0.94769 0.96253 0.0
C2401 C 0.60082 0.96655 0.96468 0.0
C2402 C 0.60959 0.97346 0.98566 0.0
C2403 C 0.63347 0.04017 0.08258 0.0
C2404 C 0.64188 0.04859 0.06339 0.0
C2405 C 0.62071 0.04546 0.09274 0.0
C2406 C 0.61559 0.05915 0.08397 0.0
H2407 H 0.63723 0.02986 0.09022 0.0
H2408 H 0.61509 0.03902 0.1078 0.0
S2409 S 0.63208 0.08398 0.03297 0.0
N2410 N 0.64331 0.07044 0.03534 0.0
N2411 N 0.61889 0.08 0.05423 0.0
C2412 C 0.62327 0.06708 0.06435 0.0
C2413 C 0.63651 0.0619 0.05412 0.0
C2414 C 0.9537 0.58878 0.06495 0.0
C2415 C 0.9687 0.6088 0.07174 0.0
C2416 C 0.94949 0.57197 0.07703 0.0
C2417 C 0.96004 0.57454 0.09644 0.0
H2418 H 0.9449 0.58607 0.05033 0.0
H2419 H 0.93753 0.5569 0.07142 0.0
S2420 S 0.00091 0.62372 0.12124 0.0
N2421 N 0.99434 0.63014 0.09905 0.0
N2422 N 0.98635 0.59863 0.12173 0.0
C2423 C 0.97532 0.59442 0.10321 0.0
C2424 C 0.9797 0.61151 0.09086 0.0
C2425 C 0.3842 0.36902 0.04983 0.0
C2426 C 0.39117 0.36599 0.03042 0.0
C2427 C 0.39343 0.36919 0.06924 0.0
C2428 C 0.4101 0.36644 0.07017 0.0
H2429 H 0.37123 0.37093 0.05013 0.0
H2430 H 0.38715 0.37102 0.08371 0.0
S2431 S 0.43451 0.35809 0.02418 0.0
N2432 N 0.41612 0.36045 0.01349 0.0
N2433 N 0.43333 0.36065 0.05004 0.0
C2434 C 0.41749 0.36372 0.05096 0.0
C2435 C 0.40811 0.36359 0.03111 0.0
C2436 C 0.6459 0.71666 0.36749 0.0
C2437 C 0.63531 0.6899 0.35904 0.0
C2438 C 0.63348 0.72439 0.38641 0.0
C2439 C 0.61217 0.7026 0.39921 0.0
H2440 H 0.65952 0.72817 0.36081 0.0
H2441 H 0.64026 0.74009 0.39265 0.0
S2442 S 0.58237 0.64096 0.37796 0.0
N2443 N 0.60226 0.65016 0.36247 0.0
N2444 N 0.58213 0.65954 0.3933 0.0
C2445 C 0.59824 0.6762 0.3866 0.0
C2446 C 0.61161 0.6703 0.36794 0.0
C2447 C 0.2674 0.92635 0.40426 0.0
C2448 C 0.28568 0.92581 0.38717 0.0
C2449 C 0.24581 0.90269 0.41149 0.0
C2450 C 0.24668 0.87901 0.40384 0.0
H2451 H 0.26949 0.94079 0.41053 0.0
H2452 H 0.23567 0.9027 0.42295 0.0
S2453 S 0.28415 0.87401 0.36087 0.0
N2454 N 0.29499 0.89976 0.36324 0.0
N2455 N 0.26311 0.86198 0.37444 0.0
C2456 C 0.26172 0.87803 0.38188 0.0
C2457 C 0.28233 0.90202 0.37568 0.0
C2458 C 0.07349 0.37307 0.37485 0.0
C2459 C 0.05618 0.35366 0.37129 0.0
C2460 C 0.08206 0.38057 0.39528 0.0
C2461 C 0.07387 0.36884 0.41298 0.0
H2462 H 0.08033 0.38275 0.36177 0.0
H2463 H 0.09528 0.39569 0.39719 0.0
S2464 S 0.02918 0.31654 0.41207 0.0
N2465 N 0.03132 0.32262 0.38706 0.0
N2466 N 0.04779 0.33648 0.42549 0.0
C2467 C 0.05669 0.34925 0.40961 0.0
C2468 C 0.04776 0.34173 0.38879 0.0
C2469 C 0.06316 0.31197 0.29756 0.0
C2470 C 0.0367 0.29472 0.30123 0.0
C2471 C 0.07911 0.30199 0.28989 0.0
C2472 C 0.06537 0.27397 0.28196 0.0
H2473 H 0.06961 0.32831 0.29994 0.0
H2474 H 0.09453 0.31209 0.28615 0.0
S2475 S 0.00618 0.23128 0.29373 0.0
N2476 N 0.00635 0.25309 0.30077 0.0
N2477 N 0.02896 0.23557 0.28727 0.0
C2478 C 0.04012 0.25592 0.29135 0.0
C2479 C 0.02573 0.26722 0.29896 0.0
C2480 C 0.70178 0.75404 0.3277 0.0
C2481 C 0.69325 0.73324 0.3076 0.0
C2482 C 0.70141 0.77719 0.32207 0.0
C2483 C 0.69591 0.77923 0.29354 0.0
H2484 H 0.70688 0.75254 0.34326 0.0
H2485 H 0.70793 0.79032 0.33327 0.0
S2486 S 0.67127 0.73172 0.24661 0.0
N2487 N 0.67645 0.71999 0.26592 0.0
N2488 N 0.67631 0.75545 0.2545 0.0
C2489 C 0.6821 0.75632 0.27488 0.0
C2490 C 0.68306 0.7343 0.28198 0.0
C2491 C 0.28611 0.96553 0.30468 0.0
C2492 C 0.28187 0.97395 0.32261 0.0
C2493 C 0.27572 0.96246 0.28514 0.0
C2494 C 0.26077 0.96779 0.28277 0.0
H2495 H 0.29712 0.96072 0.30586 0.0
H2496 H 0.27917 0.95554 0.27185 0.0
S2497 S 0.24576 0.99265 0.32424 0.0
N2498 N 0.26286 0.98911 0.33633 0.0
N2499 N 0.24353 0.98353 0.29961 0.0
C2500 C 0.25706 0.97708 0.30035 0.0
C2501 C 0.26751 0.98007 0.32026 0.0
C2502 C 0.68203 0.96441 0.30085 0.0
C2503 C 0.69009 0.96726 0.32175 0.0
C2504 C 0.69311 0.965 0.2834 0.0
C2505 C 0.71269 0.96842 0.28608 0.0
H2506 H 0.66709 0.96191 0.29785 0.0
H2507 H 0.68641 0.96317 0.26764 0.0
S2508 S 0.741 0.97709 0.33733 0.0
N2509 N 0.71906 0.97366 0.34403 0.0
N2510 N 0.73984 0.97495 0.31121 0.0
C2511 C 0.72093 0.97115 0.30685 0.0
C2512 C 0.70963 0.97046 0.32466 0.0
C2513 C 0.04259 0.73939 0.27243 0.0
C2514 C 0.03565 0.74066 0.29247 0.0
C2515 C 0.0488 0.75537 0.25865 0.0
C2516 C 0.04864 0.7734 0.26446 0.0
H2517 H 0.04217 0.72548 0.26679 0.0
H2518 H 0.05303 0.75323 0.24298 0.0
S2519 S 0.03481 0.78569 0.31639 0.0
N2520 N 0.03096 0.76227 0.3183 0.0
N2521 N 0.04312 0.79254 0.29252 0.0
C2522 C 0.04314 0.7755 0.28503 0.0
C2523 C 0.03655 0.75908 0.299 0.0
C2524 C 0.28055 0.32435 0.31435 0.0
C2525 C 0.27376 0.31367 0.33297 0.0
C2526 C 0.27112 0.31539 0.29449 0.0
C2527 C 0.25447 0.29539 0.29237 0.0
H2528 H 0.2935 0.33969 0.31502 0.0
H2529 H 0.27722 0.32404 0.28059 0.0
S2530 S 0.23077 0.26067 0.33602 0.0
N2531 N 0.24916 0.28188 0.34792 0.0
N2532 N 0.23162 0.26505 0.31057 0.0
C2533 C 0.24734 0.28458 0.31085 0.0
C2534 C 0.25687 0.29374 0.33113 0.0
C2535 C 0.29694 0.39462 0.40214 0.0
C2536 C 0.29865 0.37799 0.40885 0.0
C2537 C 0.29018 0.40472 0.41563 0.0
C2538 C 0.28503 0.39869 0.43641 0.0
H2539 H 0.30157 0.40041 0.38662 0.0
H2540 H 0.2898 0.4179 0.41006 0.0
S2541 S 0.28483 0.35477 0.46103 0.0
N2542 N 0.29298 0.35488 0.43714 0.0
N2543 N 0.28051 0.37402 0.46248 0.0
C2544 C 0.28559 0.38139 0.44292 0.0
C2545 C 0.29231 0.37098 0.42913 0.0
C2546 C 0.63009 0.921 0.40314 0.0
C2547 C 0.62261 0.91976 0.38228 0.0
C2548 C 0.62249 0.90373 0.41526 0.0
C2549 C 0.60726 0.88442 0.40696 0.0
H2550 H 0.64134 0.9356 0.4106 0.0
H2551 H 0.62819 0.90567 0.43151 0.0
S2552 S 0.58387 0.87239 0.35251 0.0
N2553 N 0.60001 0.89729 0.35333 0.0
N2554 N 0.5859 0.86473 0.3761 0.0
C2555 C 0.60031 0.88271 0.38579 0.0
C2556 C 0.60795 0.90038 0.37345 0.0
C2557 C 0.05153 0.70896 0.38718 0.0
C2558 C 0.05887 0.70444 0.36888 0.0
C2559 C 0.06011 0.71014 0.40738 0.0
C2560 C 0.07633 0.70679 0.41013 0.0
H2561 H 0.0389 0.71141 0.38595 0.0
H2562 H 0.05369 0.71326 0.42103 0.0
S2563 S 0.10064 0.69358 0.36744 0.0
N2564 N 0.08321 0.69628 0.35488 0.0
N2565 N 0.09902 0.69813 0.39281 0.0
C2566 C 0.08383 0.70225 0.39196 0.0
C2567 C 0.07524 0.70125 0.37137 0.0
C2568 C 0.2953 0.03535 0.70984 0.0
C2569 C 0.31425 0.03704 0.70913 0.0
C2570 C 0.28793 0.03795 0.72895 0.0
C2571 C 0.2993 0.04264 0.74818 0.0
H2572 H 0.28586 0.03167 0.69553 0.0
H2573 H 0.27316 0.03628 0.72862 0.0
S2574 S 0.35016 0.04942 0.755 0.0
N2575 N 0.34441 0.04395 0.72938 0.0
N2576 N 0.33068 0.04927 0.76532 0.0
C2577 C 0.31837 0.04457 0.74773 0.0
C2578 C 0.32581 0.04167 0.72824 0.0
C2579 C 0.99308 0.26675 0.74047 0.0
C2580 C 0.98032 0.27347 0.73278 0.0
C2581 C 0.98551 0.24835 0.75077 0.0
C2582 C 0.96476 0.23588 0.75377 0.0
H2583 H 0.00914 0.27611 0.7391 0.0
H2584 H 0.99626 0.24433 0.75661 0.0
S2585 S 0.92486 0.24498 0.7324 0.0
N2586 N 0.94598 0.26522 0.72609 0.0
N2587 N 0.93151 0.23044 0.74506 0.0
C2588 C 0.95181 0.24189 0.74464 0.0
C2589 C 0.95961 0.26076 0.73439 0.0
C2590 C 0.71884 0.67768 0.71289 0.0
C2591 C 0.72442 0.69039 0.69563 0.0
C2592 C 0.72895 0.68497 0.73279 0.0
C2593 C 0.74481 0.70533 0.73632 0.0
H2594 H 0.70675 0.6619 0.71097 0.0
H2595 H 0.72436 0.67454 0.74553 0.0
S2596 S 0.7647 0.7451 0.69657 0.0
N2597 N 0.7466 0.7245 0.6835 0.0
N2598 N 0.76535 0.7382 0.72092 0.0
C2599 C 0.75038 0.71826 0.71924 0.0
C2600 C 0.74026 0.71079 0.69893 0.0
C2601 C 0.7096 0.61925 0.62473 0.0
C2602 C 0.70694 0.63535 0.61815 0.0
C2603 C 0.72227 0.61402 0.61425 0.0
C2604 C 0.73291 0.62479 0.5969 0.0
H2605 H 0.70167 0.61043 0.63796 0.0
H2606 H 0.72357 0.60127 0.61963 0.0
S2607 S 0.73091 0.66789 0.57299 0.0
N2608 N 0.71566 0.66167 0.5927 0.0
N2609 N 0.73989 0.65221 0.57348 0.0
C2610 C 0.73052 0.64102 0.59025 0.0
C2611 C 0.71748 0.64623 0.60077 0.0
C2612 C 0.39521 0.09169 0.63871 0.0
C2613 C 0.36866 0.07443 0.64207 0.0
C2614 C 0.40442 0.11808 0.63242 0.0
C2615 C 0.3844 0.12418 0.6256 0.0
H2616 H 0.40565 0.08624 0.64056 0.0
H2617 H 0.41988 0.12801 0.62866 0.0
S2618 S 0.32389 0.08949 0.63892 0.0
N2619 N 0.33113 0.0723 0.64377 0.0
N2620 N 0.34311 0.11235 0.63259 0.0
C2621 C 0.35842 0.10884 0.63469 0.0
C2622 C 0.35085 0.08323 0.64076 0.0
C2623 C 0.9266 0.29954 0.66275 0.0
C2624 C 0.94545 0.30092 0.66309 0.0
C2625 C 0.91623 0.29787 0.64364 0.0
C2626 C 0.92411 0.29719 0.62401 0.0
H2627 H 0.92002 0.30044 0.67738 0.0
H2628 H 0.90201 0.29738 0.64425 0.0
S2629 S 0.9722 0.2986 0.6161 0.0
N2630 N 0.97118 0.30052 0.64207 0.0
N2631 N 0.95144 0.2969 0.60609 0.0
C2632 C 0.94265 0.29787 0.62409 0.0
C2633 C 0.95336 0.29984 0.64361 0.0
C2634 C 0.36783 0.30553 0.65816 0.0
C2635 C 0.35012 0.30641 0.65966 0.0
C2636 C 0.37442 0.30282 0.63851 0.0
C2637 C 0.36337 0.30042 0.61952 0.0
H2638 H 0.37704 0.3075 0.67223 0.0
H2639 H 0.38849 0.30296 0.63822 0.0
S2640 S 0.31593 0.30134 0.61448 0.0
N2641 N 0.32158 0.30453 0.6402 0.0
N2642 N 0.33394 0.29924 0.60338 0.0
C2643 C 0.34555 0.30105 0.62076 0.0
C2644 C 0.33891 0.30401 0.64075 0.0
C2645 C 0.70309 0.08788 0.61852 0.0
C2646 C 0.70153 0.06914 0.61191 0.0
C2647 C 0.71125 0.10464 0.60562 0.0
C2648 C 0.71817 0.10333 0.58559 0.0
H2649 H 0.69738 0.08946 0.63349 0.0
H2650 H 0.71149 0.11851 0.61102 0.0
S2651 S 0.71862 0.05821 0.56132 0.0
N2652 N 0.70856 0.05066 0.58437 0.0
N2653 N 0.72381 0.08215 0.56016 0.0
C2654 C 0.71744 0.08498 0.57913 0.0
C2655 C 0.7092 0.06791 0.5923 0.0
C2656 C 0.96212 0.67385 0.63218 0.0
C2657 C 0.95189 0.66179 0.64907 0.0
C2658 C 0.95619 0.66648 0.61105 0.0
C2659 C 0.93984 0.64671 0.60587 0.0
H2660 H 0.97512 0.68899 0.63528 0.0
H2661 H 0.96491 0.6761 0.59862 0.0
S2662 S 0.90814 0.6088 0.64417 0.0
N2663 N 0.92442 0.62906 0.65915 0.0
N2664 N 0.91361 0.61507 0.61949 0.0
C2665 C 0.92929 0.63456 0.6226 0.0
C2666 C 0.93518 0.64216 0.64415 0.0
C2667 C 0.97428 0.74064 0.72132 0.0
C2668 C 0.97354 0.7231 0.72916 0.0
C2669 C 0.96872 0.75256 0.73365 0.0
C2670 C 0.96277 0.74772 0.75452 0.0
H2671 H 0.97979 0.74556 0.70577 0.0
H2672 H 0.96988 0.76613 0.72711 0.0
S2673 S 0.95617 0.70212 0.78166 0.0
N2674 N 0.9644 0.70033 0.75832 0.0
N2675 N 0.95466 0.72312 0.78173 0.0
C2676 C 0.96088 0.72958 0.76209 0.0
C2677 C 0.96611 0.71719 0.74936 0.0
C2678 C 0.28037 0.25436 0.72731 0.0
C2679 C 0.29715 0.27282 0.73533 0.0
C2680 C 0.27193 0.23682 0.73913 0.0
C2681 C 0.27974 0.23715 0.75959 0.0
H2682 H 0.27333 0.25357 0.712 0.0
H2683 H 0.25875 0.22309 0.73252 0.0
S2684 S 0.32467 0.28104 0.78709 0.0
N2685 N 0.32221 0.28985 0.76437 0.0
N2686 N 0.30619 0.257 0.78665 0.0
C2687 C 0.29712 0.25519 0.76735 0.0
C2688 C 0.30585 0.27299 0.75522 0.0
C2689 C 0.74431 0.03968 0.69086 0.0
C2690 C 0.72563 0.03869 0.68915 0.0
C2691 C 0.7551 0.04426 0.7104 0.0
C2692 C 0.74787 0.04845 0.729 0.0
H2693 H 0.75055 0.03654 0.67706 0.0
H2694 H 0.76914 0.04432 0.71095 0.0
S2695 S 0.69976 0.04771 0.73341 0.0
N2696 N 0.70034 0.04219 0.70806 0.0
N2697 N 0.72072 0.05087 0.7446 0.0
C2698 C 0.72924 0.04749 0.72756 0.0
C2699 C 0.71815 0.04268 0.70772 0.0
C2700 C 0.04676 0.2883 0.01533 0.0
C2701 C 0.04624 0.30636 0.02003 0.0
C2702 C 0.05497 0.2807 0.02995 0.0
C2703 C 0.06324 0.29094 0.04981 0.0
H2704 H 0.04043 0.27967 0.00036 0.0
H2705 H 0.05461 0.26651 0.02574 0.0
S2706 S 0.06595 0.33901 0.06992 0.0
N2707 N 0.05498 0.33445 0.04603 0.0
N2708 N 0.07046 0.32015 0.07344 0.0
C2709 C 0.06301 0.30913 0.05468 0.0
C2710 C 0.05455 0.31685 0.03982 0.0
C2711 C 0.66454 0.72245 0.06018 0.0
C2712 C 0.67609 0.71387 0.05361 0.0
C2713 C 0.67287 0.7437 0.06268 0.0
C2714 C 0.69329 0.75724 0.05936 0.0
H2715 H 0.64891 0.71265 0.0635 0.0
H2716 H 0.66327 0.74948 0.06771 0.0
S2717 S 0.72963 0.74261 0.04049 0.0
N2718 N 0.70864 0.72056 0.04242 0.0
N2719 N 0.72445 0.76056 0.0477 0.0
C2720 C 0.7048 0.74887 0.05201 0.0
C2721 C 0.69621 0.7272 0.04907 0.0
C2722 C 0.26999 0.93778 0.0179 0.0
C2723 C 0.26889 0.94984 0.00203 0.0
C2724 C 0.25331 0.92526 0.02948 0.0
C2725 C 0.23493 0.92457 0.02595 0.0
H2726 H 0.28386 0.93796 0.02146 0.0
H2727 H 0.25486 0.91608 0.04133 0.0
S2728 S 0.22363 0.95211 0.98542 0.0
N2729 N 0.24747 0.95946 0.98273 0.0
N2730 N 0.21624 0.93607 0.0047 0.0
C2731 C 0.23346 0.93615 0.00982 0.0
C2732 C 0.2504 0.94879 0.99788 0.0
C2733 C 0.33423 0.06694 0.99239 0.0
C2734 C 0.32331 0.04537 0.99221 0.0
C2735 C 0.32451 0.07828 0.99126 0.0
C2736 C 0.30344 0.06849 0.98947 0.0
H2737 H 0.35046 0.07519 0.99272 0.0
H2738 H 0.33362 0.0948 0.99099 0.0
S2739 S 0.26781 0.01281 0.99237 0.0
N2740 N 0.29014 0.01493 0.99328 0.0
N2741 N 0.27198 0.03636 0.99076 0.0
C2742 C 0.29234 0.04713 0.99101 0.0
C2743 C 0.30223 0.03554 0.9924 0.0
C2744 C 0.93751 0.26188 0.97882 0.0
C2745 C 0.95851 0.27104 0.97891 0.0
C2746 C 0.92511 0.24061 0.97979 0.0
C2747 C 0.93317 0.2276 0.98056 0.0
H2748 H 0.93058 0.27125 0.97831 0.0
H2749 H 0.90905 0.2343 0.98004 0.0
S2750 S 0.98712 0.24367 0.98 0.0
N2751 N 0.98679 0.26529 0.97925 0.0
N2752 N 0.96344 0.22533 0.98062 0.0
C2753 C 0.95412 0.23649 0.98027 0.0
C2754 C 0.96677 0.25818 0.97957 0.0
C2755 C 0.71907 0.68036 0.97987 0.0
C2756 C 0.71576 0.66331 0.99119 0.0
C2757 C 0.73644 0.69128 0.9686 0.0
C2758 C 0.75104 0.68541 0.96798 0.0
H2759 H 0.70864 0.68594 0.98047 0.0
H2760 H 0.73877 0.70482 0.96088 0.0
S2761 S 0.74875 0.64082 0.99346 0.0
N2762 N 0.72791 0.64023 0.99985 0.0
N2763 N 0.76057 0.66081 0.97883 0.0
C2764 C 0.74751 0.66787 0.9785 0.0
C2765 C 0.72985 0.65678 0.98998 0.0
C2766 C 0.95291 0.70749 0.00793 0.0
C2767 C 0.9578 0.69252 0.00186 0.0
C2768 C 0.95009 0.71912 0.99294 0.0
C2769 C 0.95197 0.71625 0.9712 0.0
H2770 H 0.95148 0.71049 0.02447 0.0
H2771 H 0.94658 0.73063 0.99844 0.0
S2772 S 0.9652 0.67951 0.94691 0.0
N2773 N 0.9647 0.67568 0.97248 0.0
N2774 N 0.95955 0.69769 0.94436 0.0
C2775 C 0.95692 0.70138 0.96487 0.0
C2776 C 0.95971 0.68944 0.98014 0.0
C2777 C 0.3041 0.28386 0.96533 0.0
C2778 C 0.32506 0.29401 0.96864 0.0
C2779 C 0.29237 0.26256 0.96605 0.0
C2780 C 0.30112 0.25063 0.9706 0.0
H2781 H 0.29666 0.29251 0.96249 0.0
H2782 H 0.27626 0.25541 0.96365 0.0
S2783 S 0.35549 0.26991 0.98004 0.0
N2784 N 0.35424 0.29068 0.97584 0.0
N2785 N 0.33215 0.25055 0.97791 0.0
C2786 C 0.32215 0.26058 0.97346 0.0
C2787 C 0.33414 0.28229 0.97228 0.0
C2788 C 0.74066 0.05591 0.99527 0.0
C2789 C 0.72296 0.03726 0.98965 0.0
C2790 C 0.75891 0.0607 0.98658 0.0
C2791 C 0.7602 0.04719 0.97173 0.0
H2792 H 0.74067 0.0666 0.00712 0.0
H2793 H 0.77226 0.07486 0.99205 0.0
S2794 S 0.71802 0.99724 0.95018 0.0
N2795 N 0.70768 0.0058 0.96713 0.0
N2796 N 0.74203 0.01491 0.95083 0.0
C2797 C 0.74249 0.02891 0.96524 0.0
C2798 C 0.72387 0.02396 0.97414 0.0
C2799 C 0.70138 0.98241 0.05514 0.0
C2800 C 0.68054 0.97453 0.05512 0.0
C2801 C 0.70945 0.96956 0.05649 0.0
C2802 C 0.69703 0.94822 0.05751 0.0
H2803 H 0.71161 0.99872 0.0542 0.0
H2804 H 0.72558 0.97635 0.05646 0.0
S2805 S 0.64147 0.91976 0.05796 0.0
N2806 N 0.64762 0.94398 0.05649 0.0
N2807 N 0.66282 0.91975 0.0586 0.0
C2808 C 0.67617 0.94011 0.05765 0.0
C2809 C 0.66793 0.95326 0.05656 0.0
C2810 C 0.05733 0.72963 0.04932 0.0
C2811 C 0.03638 0.72075 0.04925 0.0
C2812 C 0.06988 0.75079 0.04761 0.0
C2813 C 0.06198 0.76391 0.04612 0.0
H2814 H 0.06409 0.72012 0.05022 0.0
H2815 H 0.0859 0.75691 0.0473 0.0
S2816 S 0.00823 0.74855 0.04676 0.0
N2817 N 0.00833 0.72687 0.04839 0.0
N2818 N 0.03196 0.76663 0.04569 0.0
C2819 C 0.04109 0.7553 0.04661 0.0
C2820 C 0.0283 0.73375 0.04804 0.0
C2821 C 0.26621 0.3031 0.02208 0.0
C2822 C 0.28522 0.32012 0.02786 0.0
C2823 C 0.25366 0.2905 0.03732 0.0
C2824 C 0.25951 0.29445 0.05898 0.0
H2825 H 0.261 0.29926 0.0056 0.0
H2826 H 0.23923 0.27752 0.03206 0.0
S2827 S 0.30779 0.3369 0.08262 0.0
N2828 N 0.30932 0.34018 0.05692 0.0
N2829 N 0.28564 0.31646 0.08553 0.0
C2830 C 0.27847 0.3114 0.06504 0.0
C2831 C 0.29129 0.32427 0.04952 0.0
C2832 C 0.69967 0.64083 0.38437 0.0
C2833 C 0.71367 0.66854 0.38283 0.0
C2834 C 0.7075 0.62843 0.40329 0.0
C2835 C 0.73258 0.6457 0.41706 0.0
H2836 H 0.68674 0.63159 0.37373 0.0
H2837 H 0.70043 0.61191 0.40305 0.0
S2838 S 0.76428 0.70969 0.41985 0.0
N2839 N 0.7464 0.70519 0.40109 0.0
N2840 N 0.76095 0.68799 0.4302 0.0
C2841 C 0.74367 0.67402 0.42 0.0
C2842 C 0.73483 0.68469 0.4009 0.0
C2843 C 0.3289 0.05148 0.39396 0.0
C2844 C 0.34061 0.04216 0.39173 0.0
C2845 C 0.33778 0.07274 0.39729 0.0
C2846 C 0.35879 0.08555 0.39916 0.0
H2847 H 0.31268 0.0423 0.39287 0.0
H2848 H 0.32806 0.07913 0.39855 0.0
S2849 S 0.39623 0.06897 0.39367 0.0
N2850 N 0.37436 0.04749 0.39079 0.0
N2851 N 0.39104 0.08748 0.39751 0.0
C2852 C 0.37067 0.07648 0.39656 0.0
C2853 C 0.36162 0.05482 0.39283 0.0
C2854 C 0.94249 0.28989 0.3577 0.0
C2855 C 0.94791 0.30797 0.3473 0.0
C2856 C 0.9247 0.27999 0.36839 0.0
C2857 C 0.91185 0.2881 0.36972 0.0
H2858 H 0.95173 0.28289 0.35701 0.0
H2859 H 0.9209 0.26569 0.37541 0.0
S2860 S 0.91947 0.3354 0.34561 0.0
N2861 N 0.93915 0.33373 0.33904 0.0
N2862 N 0.90588 0.31538 0.35972 0.0
C2863 C 0.91726 0.30636 0.35963 0.0
C2864 C 0.93525 0.31626 0.34837 0.0
C2865 C 0.04079 0.4061 0.29805 0.0
C2866 C 0.02437 0.38839 0.30549 0.0
C2867 C 0.04175 0.42506 0.29933 0.0
C2868 C 0.02619 0.42714 0.3078 0.0
H2869 H 0.05338 0.40555 0.29167 0.0
H2870 H 0.05503 0.43832 0.29408 0.0
S2871 S 0.97956 0.38571 0.32894 0.0
N2872 N 0.99189 0.37423 0.32128 0.0
N2873 N 0.99374 0.40998 0.32348 0.0
C2874 C 0.00947 0.40957 0.31488 0.0
C2875 C 0.0085 0.39019 0.31369 0.0
C2876 C 0.63867 0.60066 0.30882 0.0
C2877 C 0.63406 0.61828 0.2942 0.0
C2878 C 0.62602 0.57362 0.30059 0.0
C2879 C 0.60559 0.56546 0.2795 0.0
H2880 H 0.64908 0.60629 0.32248 0.0
H2881 H 0.62731 0.56271 0.31013 0.0
S2882 S 0.59664 0.60369 0.24025 0.0
N2883 N 0.61358 0.62143 0.25819 0.0
N2884 N 0.592 0.57982 0.24449 0.0
C2885 C 0.60487 0.58373 0.26105 0.0
C2886 C 0.61792 0.60986 0.27039 0.0
C2887 C 0.39015 0.00069 0.32416 0.0
C2888 C 0.3735 0.98064 0.32241 0.0
C2889 C 0.40812 0.00551 0.31481 0.0
C2890 C 0.41019 0.99055 0.30319 0.0
H2891 H 0.3895 0.01274 0.33323 0.0
H2892 H 0.42067 0.02104 0.31707 0.0
S2893 S 0.37112 0.93577 0.29355 0.0
N2894 N 0.36017 0.94572 0.30774 0.0
N2895 N 0.39406 0.95482 0.29039 0.0
C2896 C 0.39359 0.97049 0.30101 0.0
C2897 C 0.37522 0.96557 0.31047 0.0
C2898 C 0.62373 0.00831 0.29774 0.0
C2899 C 0.61743 0.00674 0.31862 0.0
C2900 C 0.61942 0.01918 0.28303 0.0
C2901 C 0.60872 0.02904 0.28862 0.0
H2902 H 0.63226 0.00127 0.29271 0.0
H2903 H 0.62458 0.01997 0.26715 0.0
S2904 S 0.58765 0.0285 0.34085 0.0
N2905 N 0.59901 0.01516 0.34381 0.0
N2906 N 0.59112 0.03572 0.31625 0.0
C2907 C 0.60198 0.02725 0.30932 0.0
C2908 C 0.60629 0.01611 0.32428 0.0
C2909 C 0.9899 0.61564 0.30324 0.0
C2910 C 0.01034 0.63077 0.30369 0.0
C2911 C 0.98377 0.59478 0.3029 0.0
C2912 C 0.99784 0.58819 0.30341 0.0
H2913 H 0.97849 0.61995 0.3032 0.0
H2914 H 0.96787 0.58369 0.30265 0.0
S2915 S 0.05319 0.62161 0.30443 0.0
N2916 N 0.04468 0.63771 0.30415 0.0
N2917 N 0.03316 0.59846 0.30402 0.0
C2918 C 0.01833 0.60313 0.30356 0.0
C2919 C 0.02458 0.62441 0.30357 0.0
C2920 C 0.3778 0.37248 0.31811 0.0
C2921 C 0.38214 0.3704 0.33932 0.0
C2922 C 0.39066 0.37413 0.30212 0.0
C2923 C 0.40853 0.37405 0.30672 0.0
H2924 H 0.36429 0.3727 0.31371 0.0
H2925 H 0.38658 0.37552 0.28601 0.0
S2926 S 0.4263 0.36766 0.35938 0.0
N2927 N 0.40526 0.36744 0.36386 0.0
N2928 N 0.42938 0.37062 0.33376 0.0
C2929 C 0.41288 0.37158 0.32776 0.0
C2930 C 0.39977 0.36985 0.34406 0.0
C2931 C 0.35317 0.30856 0.39093 0.0
C2932 C 0.33229 0.30002 0.39174 0.0
C2933 C 0.36172 0.29613 0.38941 0.0
C2934 C 0.34973 0.27463 0.38828 0.0
H2935 H 0.36303 0.32503 0.39132 0.0
H2936 H 0.37785 0.3034 0.38867 0.0
S2937 S 0.29428 0.24461 0.39006 0.0
N2938 N 0.29983 0.26877 0.39184 0.0
N2939 N 0.31589 0.24529 0.38846 0.0
C2940 C 0.32884 0.26586 0.38942 0.0
C2941 C 0.32013 0.27857 0.39131 0.0
C2942 C 0.70438 0.04195 0.4045 0.0
C2943 C 0.69072 0.03468 0.38679 0.0
C2944 C 0.71469 0.0627 0.41128 0.0
C2945 C 0.71213 0.07723 0.40043 0.0
H2946 H 0.70682 0.03148 0.41362 0.0
H2947 H 0.72454 0.06735 0.42539 0.0
S2948 S 0.6783 0.06647 0.35306 0.0
N2949 N 0.6753 0.04391 0.35841 0.0
N2950 N 0.69484 0.08295 0.37122 0.0
C2951 C 0.69868 0.07029 0.3826 0.0
C2952 C 0.68803 0.04907 0.37572 0.0
C2953 C 0.92764 0.65704 0.34072 0.0
C2954 C 0.94543 0.65784 0.34789 0.0
C2955 C 0.90893 0.64208 0.34726 0.0
C2956 C 0.90718 0.62739 0.3614 0.0
H2957 H 0.92803 0.6676 0.32935 0.0
H2958 H 0.89563 0.64163 0.34068 0.0
S2959 S 0.94909 0.62353 0.38614 0.0
N2960 N 0.96012 0.64322 0.37095 0.0
N2961 N 0.92484 0.61509 0.38321 0.0
C2962 C 0.92485 0.62848 0.36942 0.0
C2963 C 0.94398 0.64374 0.36274 0.0
C2964 C 0.39415 0.9844 0.69096 0.0
C2965 C 0.38594 0.99662 0.69691 0.0
C2966 C 0.40979 0.98486 0.70311 0.0
C2967 C 0.41794 0.99756 0.72174 0.0
H2968 H 0.38892 0.97488 0.67638 0.0
H2969 H 0.41614 0.97579 0.69739 0.0
S2970 S 0.40142 0.03214 0.74472 0.0
N2971 N 0.38662 0.02125 0.72325 0.0
N2972 N 0.41633 0.02243 0.74579 0.0
C2973 C 0.40948 0.00942 0.72826 0.0
C2974 C 0.39336 0.00879 0.71599 0.0
C2975 C 0.9625 0.37317 0.73226 0.0
C2976 C 0.97986 0.37364 0.72521 0.0
C2977 C 0.95986 0.39008 0.73073 0.0
C2978 C 0.97459 0.40833 0.72238 0.0
H2979 H 0.95044 0.3594 0.7384 0.0
H2980 H 0.9459 0.38864 0.73562 0.0
S2981 S 0.02325 0.41815 0.70263 0.0
N2982 N 0.01243 0.39439 0.71024 0.0
N2983 N 0.00737 0.42616 0.70746 0.0
C2984 C 0.99226 0.40929 0.7158 0.0
C2985 C 0.99495 0.39201 0.71725 0.0
C2986 C 0.60073 0.63556 0.6833 0.0
C2987 C 0.61416 0.62818 0.68278 0.0
C2988 C 0.58426 0.62701 0.69613 0.0
C2989 C 0.58051 0.61069 0.70888 0.0
H2990 H 0.60288 0.64799 0.67362 0.0
H2991 H 0.57413 0.63298 0.69578 0.0
S2992 S 0.61065 0.58504 0.71227 0.0
N2993 N 0.62251 0.60338 0.69573 0.0
N2994 N 0.59119 0.58685 0.71941 0.0
C2995 C 0.59377 0.60303 0.70835 0.0
C2996 C 0.61073 0.61196 0.6955 0.0
C2997 C 0.64899 0.70192 0.64072 0.0
C2998 C 0.66971 0.70962 0.63963 0.0
C2999 C 0.64119 0.71507 0.64145 0.0
C3000 C 0.65381 0.73643 0.64117 0.0
H3001 H 0.63861 0.68557 0.64065 0.0
H3002 H 0.62511 0.70843 0.642 0.0
S3003 S 0.70941 0.76448 0.6409 0.0
N3004 N 0.70288 0.74004 0.63986 0.0
N3005 N 0.68825 0.76481 0.64159 0.0
C3006 C 0.67466 0.7444 0.64096 0.0
C3007 C 0.68259 0.73098 0.63999 0.0
C3008 C 0.26168 0.95965 0.64081 0.0
C3009 C 0.28611 0.96275 0.64741 0.0
C3010 C 0.23928 0.93462 0.64007 0.0
C3011 C 0.24395 0.91278 0.64201 0.0
H3012 H 0.26041 0.97287 0.63733 0.0
H3013 H 0.22494 0.93239 0.63449 0.0
S3014 S 0.29762 0.9165 0.66232 0.0
N3015 N 0.30592 0.94166 0.65978 0.0
N3016 N 0.27259 0.90166 0.65766 0.0
C3017 C 0.26761 0.91601 0.6544 0.0
C3018 C 0.28877 0.94131 0.65475 0.0
C3019 C 0.05765 0.37582 0.65801 0.0
C3020 C 0.04106 0.34835 0.65321 0.0
C3021 C 0.07844 0.38993 0.64122 0.0
C3022 C 0.08339 0.37349 0.62246 0.0
H3023 H 0.05539 0.38378 0.67122 0.0
H3024 H 0.08949 0.40585 0.64508 0.0
S3025 S 0.04472 0.31159 0.60538 0.0
N3026 N 0.03263 0.31428 0.62598 0.0
N3027 N 0.06494 0.33395 0.59958 0.0
C3028 C 0.06366 0.34696 0.61356 0.0
C3029 C 0.04374 0.33451 0.63089 0.0
C3030 C 0.29255 0.37912 0.68025 0.0
C3031 C 0.29756 0.36462 0.67269 0.0
C3032 C 0.2874 0.38991 0.66633 0.0
C3033 C 0.28698 0.38664 0.64425 0.0
H3034 H 0.29252 0.38216 0.69711 0.0
H3035 H 0.28363 0.40088 0.67292 0.0
S3036 S 0.29993 0.35123 0.61619 0.0
N3037 N 0.30249 0.34812 0.64156 0.0
N3038 N 0.29287 0.36848 0.61541 0.0
C3039 C 0.29231 0.37246 0.63643 0.0
C3040 C 0.2975 0.36139 0.65062 0.0
C3041 C 0.64706 0.94453 0.62955 0.0
C3042 C 0.66785 0.95777 0.62816 0.0
C3043 C 0.6385 0.92322 0.62757 0.0
C3044 C 0.65038 0.91421 0.62452 0.0
H3045 H 0.63722 0.95066 0.63189 0.0
H3046 H 0.62242 0.9137 0.62855 0.0
S3047 S 0.70559 0.94195 0.61992 0.0
N3048 N 0.70012 0.96029 0.62339 0.0
N3049 N 0.68404 0.92016 0.62011 0.0
C3050 C 0.67119 0.92723 0.62308 0.0
C3051 C 0.67991 0.949 0.62481 0.0
C3052 C 0.06322 0.70645 0.66689 0.0
C3053 C 0.04434 0.69562 0.65604 0.0
C3054 C 0.08059 0.70961 0.65723 0.0
C3055 C 0.07978 0.70234 0.63624 0.0
H3056 H 0.06457 0.71221 0.68313 0.0
H3057 H 0.09479 0.71792 0.66625 0.0
S3058 S 0.03404 0.6742 0.60055 0.0
N3059 N 0.02581 0.67807 0.62308 0.0
N3060 N 0.05852 0.68462 0.60459 0.0
C3061 C 0.06097 0.69178 0.62509 0.0
C3062 C 0.04325 0.68827 0.63508 0.0
C3063 C 0.97354 0.61181 0.71706 0.0
C3064 C 0.98946 0.6322 0.71716 0.0
C3065 C 0.97713 0.59539 0.71681 0.0
C3066 C 0.99677 0.59877 0.71696 0.0
H3067 H 0.95815 0.60844 0.71656 0.0
H3068 H 0.96442 0.57991 0.71621 0.0
S3069 S 0.04376 0.6493 0.71879 0.0
N3070 N 0.0257 0.65488 0.7184 0.0
N3071 N 0.03237 0.62404 0.71823 0.0
C3072 C 0.01284 0.6191 0.71769 0.0
C3073 C 0.00921 0.63579 0.71773 0.0
C3074 C 0.37029 0.39837 0.72078 0.0
C3075 C 0.37676 0.38406 0.72248 0.0
C3076 C 0.38401 0.41943 0.72105 0.0
C3077 C 0.4048 0.42709 0.72276 0.0
H3078 H 0.35445 0.39329 0.71918 0.0
H3079 H 0.37832 0.42983 0.71957 0.0
S3080 S 0.4296 0.39622 0.72786 0.0
N3081 N 0.4054 0.37911 0.72633 0.0
N3082 N 0.43123 0.41876 0.72649 0.0
C3083 C 0.4115 0.41302 0.72473 0.0
C3084 C 0.39749 0.39151 0.7247 0.0
C3085 C 0.59792 0.96938 0.68228 0.0
C3086 C 0.61792 0.98535 0.68584 0.0
C3087 C 0.58467 0.96254 0.69878 0.0
C3088 C 0.59086 0.97142 0.71948 0.0
H3089 H 0.59233 0.96215 0.66659 0.0
H3090 H 0.56939 0.95027 0.69525 0.0
S3091 S 0.642 0.01276 0.73761 0.0
N3092 N 0.64353 0.00923 0.71198 0.0
N3093 N 0.61861 0.99632 0.74291 0.0
C3094 C 0.61096 0.98706 0.72339 0.0
C3095 C 0.62446 0.99407 0.70661 0.0
loop_
_geom_bond_atom_site_label_1
_geom_bond_atom_site_label_2
_geom_bond_distance
_geom_bond_site_symmetry_2
_ccdc_geom_bond_type
Mg0 O1 2.028 1_556 S
Mg0 O7 1.986 1_455 S
Mg0 O9 2.114 . S
Mg0 O10 2.251 . S
Mg0 O13 2.010 1_556 S
O1 Mg0 2.028 1_554 S
O1 C4 1.250 1_455 S
O2 Mg3 2.028 1_554 S
O2 C4 1.248 . S
Mg3 O2 2.028 1_556 S
Mg3 O8 2.032 . S
Mg3 O10 2.079 1_655 S
C4 O1 1.250 1_655 S
C4 O2 1.248 . S
C5 O6 1.264 . S
C5 O13 1.249 . S
O6 C5 1.264 . S
O7 Mg0 1.986 1_655 S
O7 C11 1.246 . S
O8 Mg3 2.032 . S
O8 C11 1.259 . S
O9 Mg0 2.114 . S
O9 C12 1.252 . S
O10 Mg0 2.251 . S
O10 Mg3 2.079 1_455 S
O10 C12 1.273 . S
C11 O7 1.246 . S
C11 O8 1.259 . S
C12 O9 1.252 . S
C12 O10 1.273 . S
O13 Mg0 2.010 1_554 S
O13 C5 1.249 . S
Mg14 O15 2.028 . S
Mg14 O21 1.986 . S
Mg14 O23 2.114 . S
Mg14 O24 2.251 . S
Mg14 O27 2.010 . S
O15 Mg14 2.028 . S
O15 C18 1.250 1_554 S
O16 Mg17 2.028 . S
O16 C18 1.248 1_554 S
Mg17 O16 2.028 . S
Mg17 O22 2.032 . S
Mg17 O24 2.079 . S
C18 O15 1.250 1_556 S
C18 O16 1.248 1_556 S
C19 O20 1.264 . S
C19 O27 1.249 . S
O20 C19 1.264 . S
O21 Mg14 1.986 . S
O21 C25 1.246 . S
O22 Mg17 2.032 . S
O22 C25 1.259 . S
O23 Mg14 2.114 . S
O23 C26 1.252 . S
O24 Mg14 2.251 . S
O24 Mg17 2.079 . S
O24 C26 1.273 . S
C25 O21 1.246 . S
C25 O22 1.259 . S
C26 O23 1.252 . S
C26 O24 1.273 . S
O27 Mg14 2.010 . S
O27 C19 1.249 . S
Mg28 O29 2.024 1_566 S
Mg28 O35 1.986 1_565 S
Mg28 O37 2.115 . S
Mg28 O38 2.255 1_565 S
Mg28 O41 2.008 1_556 S
O29 Mg28 2.024 1_544 S
O29 C32 1.250 . S
O30 Mg31 2.028 1_554 S
O30 C32 1.248 . S
Mg31 O30 2.028 1_556 S
Mg31 O36 2.032 . S
Mg31 O38 2.079 . S
C32 O29 1.250 . S
C32 O30 1.248 . S
C33 O34 1.264 . S
C33 O41 1.249 . S
O34 C33 1.264 . S
O35 Mg28 1.986 1_545 S
O35 C39 1.246 . S
O36 Mg31 2.032 . S
O36 C39 1.259 . S
O37 Mg28 2.115 . S
O37 C40 1.252 . S
O38 Mg28 2.255 1_545 S
O38 Mg31 2.079 . S
O38 C40 1.273 1_545 S
C39 O35 1.246 . S
C39 O36 1.259 . S
C40 O37 1.252 . S
C40 O38 1.273 1_565 S
O41 Mg28 2.008 1_554 S
O41 C33 1.249 . S
Mg42 O43 2.028 1_654 S
Mg42 O49 1.986 1_655 S
Mg42 O51 2.114 . S
Mg42 O52 2.251 1_655 S
Mg42 O55 2.010 . S
O43 Mg42 2.028 1_456 S
O43 C46 1.250 . S
O44 Mg45 2.028 . S
O44 C46 1.248 1_554 S
Mg45 O44 2.028 . S
Mg45 O50 2.032 . S
Mg45 O52 2.079 . S
C46 O43 1.250 . S
C46 O44 1.248 1_556 S
C47 O48 1.264 . S
C47 O55 1.249 . S
O48 C47 1.264 . S
O49 Mg42 1.986 1_455 S
O49 C53 1.246 . S
O50 Mg45 2.032 . S
O50 C53 1.259 . S
O51 Mg42 2.114 . S
O51 C54 1.252 . S
O52 Mg42 2.251 1_455 S
O52 Mg45 2.079 . S
O52 C54 1.273 1_455 S
C53 O49 1.246 . S
C53 O50 1.259 . S
C54 O51 1.252 . S
C54 O52 1.273 1_655 S
O55 Mg42 2.010 . S
O55 C47 1.249 . S
Mg56 O57 2.028 1_556 S
Mg56 O63 1.986 . S
Mg56 O65 2.114 . S
Mg56 O66 2.251 . S
Mg56 O69 2.010 1_556 S
O57 Mg56 2.028 1_554 S
O57 C60 1.250 . S
O58 Mg59 2.028 1_554 S
O58 C60 1.248 . S
Mg59 O58 2.028 1_556 S
Mg59 O64 2.032 . S
Mg59 O66 2.079 . S
C60 O57 1.250 . S
C60 O58 1.248 . S
C61 O62 1.264 . S
C61 O69 1.249 . S
O62 C61 1.264 . S
O63 Mg56 1.986 . S
O63 C67 1.246 . S
O64 Mg59 2.032 . S
O64 C67 1.259 . S
O65 Mg56 2.114 . S
O65 C68 1.252 . S
O66 Mg56 2.251 . S
O66 Mg59 2.079 . S
O66 C68 1.273 . S
C67 O63 1.246 . S
C67 O64 1.259 . S
C68 O65 1.252 . S
C68 O66 1.273 . S
O69 Mg56 2.010 1_554 S
O69 C61 1.249 . S
Mg70 O71 2.028 1_554 S
Mg70 O77 1.986 1_545 S
Mg70 O79 2.114 . S
Mg70 O80 2.250 . S
Mg70 O83 2.010 . S
O71 Mg70 2.028 1_556 S
O71 C74 1.250 1_545 S
O72 Mg73 2.028 . S
O72 C74 1.248 1_554 S
Mg73 O72 2.028 . S
Mg73 O78 2.032 . S
Mg73 O80 2.066 1_565 S
C74 O71 1.250 1_565 S
C74 O72 1.248 1_556 S
C75 O76 1.264 . S
C75 O83 1.249 . S
O76 C75 1.264 . S
O77 Mg70 1.986 1_565 S
O77 C81 1.246 . S
O78 Mg73 2.032 . S
O78 C81 1.259 . S
O79 Mg70 2.114 . S
O79 C82 1.252 . S
O80 Mg70 2.250 . S
O80 Mg73 2.066 1_545 S
O80 C82 1.291 . S
C81 O77 1.246 . S
C81 O78 1.259 . S
C82 O79 1.252 . S
C82 O80 1.291 . S
O83 Mg70 2.010 . S
O83 C75 1.249 . S
Mg84 O85 2.028 . S
Mg84 O91 1.986 . S
Mg84 O93 2.114 . S
Mg84 O94 2.251 . S
Mg84 O97 2.010 . S
O85 Mg84 2.028 . S
O85 C88 1.250 . S
O86 Mg87 2.028 . S
O86 C88 1.248 . S
Mg87 O86 2.028 . S
Mg87 O92 2.032 . S
Mg87 O94 2.079 . S
C88 O85 1.250 . S
C88 O86 1.248 . S
C89 O90 1.264 . S
C89 O97 1.249 . S
O90 C89 1.264 . S
O91 Mg84 1.986 . S
O91 C95 1.246 . S
O92 Mg87 2.032 . S
O92 C95 1.259 . S
O93 Mg84 2.114 . S
O93 C96 1.252 . S
O94 Mg84 2.251 . S
O94 Mg87 2.079 . S
O94 C96 1.273 . S
C95 O91 1.246 . S
C95 O92 1.259 . S
C96 O93 1.252 . S
C96 O94 1.273 . S
O97 Mg84 2.010 . S
O97 C89 1.249 . S
Mg98 O99 2.028 . S
Mg98 O105 1.986 1_565 S
Mg98 O107 2.114 . S
Mg98 O108 2.251 . S
Mg98 O111 2.010 . S
O99 Mg98 2.028 . S
O99 C102 1.250 . S
O100 Mg101 2.028 . S
O100 C102 1.248 . S
Mg101 O100 2.028 . S
Mg101 O106 2.032 1_565 S
Mg101 O108 2.079 . S
C102 O99 1.250 . S
C102 O100 1.248 . S
C103 O104 1.264 . S
C103 O111 1.249 . S
O104 C103 1.264 . S
O105 Mg98 1.986 1_545 S
O105 C109 1.246 . S
O106 Mg101 2.032 1_545 S
O106 C109 1.259 . S
O107 Mg98 2.114 . S
O107 C110 1.252 . S
O108 Mg98 2.251 . S
O108 Mg101 2.079 . S
O108 C110 1.273 . S
C109 O105 1.246 . S
C109 O106 1.259 . S
C110 O107 1.252 . S
C110 O108 1.273 . S
O111 Mg98 2.010 . S
O111 C103 1.249 . S
Mg112 O113 2.028 . S
Mg112 O119 1.986 . S
Mg112 O121 2.114 . S
Mg112 O122 2.251 . S
Mg112 O125 2.010 1_455 S
O113 Mg112 2.028 . S
O113 C116 1.250 . S
O114 Mg115 2.028 . S
O114 C116 1.248 . S
Mg115 O114 2.028 . S
Mg115 O120 2.032 . S
Mg115 O122 2.079 . S
C116 O113 1.250 . S
C116 O114 1.248 . S
C117 O118 1.264 . S
C117 O125 1.249 . S
O118 C117 1.264 . S
O119 Mg112 1.986 . S
O119 C123 1.246 . S
O120 Mg115 2.032 . S
O120 C123 1.259 . S
O121 Mg112 2.114 . S
O121 C124 1.252 . S
O122 Mg112 2.251 . S
O122 Mg115 2.079 . S
O122 C124 1.273 . S
C123 O119 1.246 . S
C123 O120 1.259 . S
C124 O121 1.252 . S
C124 O122 1.273 . S
O125 Mg112 2.010 1_655 S
O125 C117 1.249 . S
Mg126 O127 2.028 . S
Mg126 O133 1.986 1_565 S
Mg126 O135 2.114 . S
Mg126 O136 2.251 . S
Mg126 O139 2.010 . S
O127 Mg126 2.028 . S
O127 C130 1.250 . S
O128 Mg129 2.028 . S
O128 C130 1.248 . S
Mg129 O128 2.028 . S
Mg129 O134 2.032 1_565 S
Mg129 O136 2.079 . S
C130 O127 1.250 . S
C130 O128 1.248 . S
C131 O132 1.264 . S
C131 O139 1.249 . S
O132 C131 1.264 . S
O133 Mg126 1.986 1_545 S
O133 C137 1.246 . S
O134 Mg129 2.032 1_545 S
O134 C137 1.259 . S
O135 Mg126 2.114 . S
O135 C138 1.252 . S
O136 Mg126 2.251 . S
O136 Mg129 2.079 . S
O136 C138 1.273 . S
C137 O133 1.246 . S
C137 O134 1.259 . S
C138 O135 1.252 . S
C138 O136 1.273 . S
O139 Mg126 2.010 . S
O139 C131 1.249 . S
Mg140 O141 2.028 . S
Mg140 O147 1.986 . S
Mg140 O149 2.114 . S
Mg140 O150 2.251 . S
Mg140 O153 2.010 1_455 S
O141 Mg140 2.028 . S
O141 C144 1.250 . S
O142 Mg143 2.028 . S
O142 C144 1.248 . S
Mg143 O142 2.028 . S
Mg143 O148 2.032 . S
Mg143 O150 2.079 . S
C144 O141 1.250 . S
C144 O142 1.248 . S
C145 O146 1.264 . S
C145 O153 1.249 . S
O146 C145 1.264 . S
O147 Mg140 1.986 . S
O147 C151 1.246 . S
O148 Mg143 2.032 . S
O148 C151 1.259 . S
O149 Mg140 2.114 . S
O149 C152 1.252 . S
O150 Mg140 2.251 . S
O150 Mg143 2.079 . S
O150 C152 1.273 . S
C151 O147 1.246 . S
C151 O148 1.259 . S
C152 O149 1.252 . S
C152 O150 1.273 . S
O153 Mg140 2.010 1_655 S
O153 C145 1.249 . S
Mg154 O155 2.028 . S
Mg154 O161 1.986 . S
Mg154 O163 2.114 . S
Mg154 O164 2.251 . S
Mg154 O167 2.010 . S
O155 Mg154 2.028 . S
O155 C158 1.250 . S
O156 Mg157 2.028 . S
O156 C158 1.248 . S
Mg157 O156 2.028 . S
Mg157 O162 2.032 . S
Mg157 O164 2.079 . S
C158 O155 1.250 . S
C158 O156 1.248 . S
C159 O160 1.264 . S
C159 O167 1.249 . S
O160 C159 1.264 . S
O161 Mg154 1.986 . S
O161 C165 1.246 . S
O162 Mg157 2.032 . S
O162 C165 1.259 . S
O163 Mg154 2.114 . S
O163 C166 1.252 . S
O164 Mg154 2.251 . S
O164 Mg157 2.079 . S
O164 C166 1.273 . S
C165 O161 1.246 . S
C165 O162 1.259 . S
C166 O163 1.252 . S
C166 O164 1.273 . S
O167 Mg154 2.010 . S
O167 C159 1.249 . S
Mg168 O169 2.028 . S
Mg168 O175 1.986 1_545 S
Mg168 O177 2.114 . S
Mg168 O178 2.251 . S
Mg168 O181 2.010 . S
O169 Mg168 2.028 . S
O169 C172 1.250 . S
O170 Mg171 2.028 . S
O170 C172 1.248 . S
Mg171 O170 2.028 . S
Mg171 O176 2.032 1_545 S
Mg171 O178 2.079 . S
C172 O169 1.250 . S
C172 O170 1.248 . S
C173 O174 1.264 . S
C173 O181 1.249 . S
O174 C173 1.264 . S
O175 Mg168 1.986 1_565 S
O175 C179 1.246 . S
O176 Mg171 2.032 1_565 S
O176 C179 1.259 . S
O177 Mg168 2.114 . S
O177 C180 1.252 . S
O178 Mg168 2.251 . S
O178 Mg171 2.079 . S
O178 C180 1.273 . S
C179 O175 1.246 . S
C179 O176 1.259 . S
C180 O177 1.252 . S
C180 O178 1.273 . S
O181 Mg168 2.010 . S
O181 C173 1.249 . S
Mg182 O183 2.028 . S
Mg182 O189 1.986 . S
Mg182 O191 2.114 . S
Mg182 O192 2.251 . S
Mg182 O195 2.010 1_655 S
O183 Mg182 2.028 . S
O183 C186 1.250 . S
O184 Mg185 2.028 . S
O184 C186 1.248 . S
Mg185 O184 2.028 . S
Mg185 O190 2.032 . S
Mg185 O192 2.079 . S
C186 O183 1.250 . S
C186 O184 1.248 . S
C187 O188 1.264 . S
C187 O195 1.249 . S
O188 C187 1.264 . S
O189 Mg182 1.986 . S
O189 C193 1.246 . S
O190 Mg185 2.032 . S
O190 C193 1.259 . S
O191 Mg182 2.114 . S
O191 C194 1.252 . S
O192 Mg182 2.251 . S
O192 Mg185 2.079 . S
O192 C194 1.273 . S
C193 O189 1.246 . S
C193 O190 1.259 . S
C194 O191 1.252 . S
C194 O192 1.273 . S
O195 Mg182 2.010 1_455 S
O195 C187 1.249 . S
Mg196 O197 2.028 . S
Mg196 O203 1.986 . S
Mg196 O205 2.114 . S
Mg196 O206 2.251 . S
Mg196 O209 2.010 . S
O197 Mg196 2.028 . S
O197 C200 1.250 . S
O198 Mg199 2.028 . S
O198 C200 1.248 . S
Mg199 O198 2.028 . S
Mg199 O204 2.032 . S
Mg199 O206 2.079 . S
C200 O197 1.250 . S
C200 O198 1.248 . S
C201 O202 1.264 . S
C201 O209 1.249 . S
O202 C201 1.264 . S
O203 Mg196 1.986 . S
O203 C207 1.246 . S
O204 Mg199 2.032 . S
O204 C207 1.259 . S
O205 Mg196 2.114 . S
O205 C208 1.252 . S
O206 Mg196 2.251 . S
O206 Mg199 2.079 . S
O206 C208 1.273 . S
C207 O203 1.246 . S
C207 O204 1.259 . S
C208 O205 1.252 . S
C208 O206 1.273 . S
O209 Mg196 2.010 . S
O209 C201 1.249 . S
Mg210 O211 2.028 . S
Mg210 O217 1.986 . S
Mg210 O219 2.114 . S
Mg210 O220 2.251 . S
Mg210 O223 2.010 . S
O211 Mg210 2.028 . S
O211 C214 1.250 . S
O212 Mg213 2.028 . S
O212 C214 1.248 . S
Mg213 O212 2.028 . S
Mg213 O218 2.032 . S
Mg213 O220 2.079 . S
C214 O211 1.250 . S
C214 O212 1.248 . S
C215 O216 1.264 . S
C215 O223 1.249 . S
O216 C215 1.264 . S
O217 Mg210 1.986 . S
O217 C221 1.246 . S
O218 Mg213 2.032 . S
O218 C221 1.259 . S
O219 Mg210 2.114 . S
O219 C222 1.252 . S
O220 Mg210 2.251 . S
O220 Mg213 2.079 . S
O220 C222 1.273 . S
C221 O217 1.246 . S
C221 O218 1.259 . S
C222 O219 1.252 . S
C222 O220 1.273 . S
O223 Mg210 2.010 . S
O223 C215 1.249 . S
Mg224 O225 2.028 . S
Mg224 O231 1.986 1_545 S
Mg224 O233 2.114 . S
Mg224 O234 2.251 . S
Mg224 O237 2.010 . S
O225 Mg224 2.028 . S
O225 C228 1.250 . S
O226 Mg227 2.028 . S
O226 C228 1.248 . S
Mg227 O226 2.028 . S
Mg227 O232 2.032 1_545 S
Mg227 O234 2.079 . S
C228 O225 1.250 . S
C228 O226 1.248 . S
C229 O230 1.264 . S
C229 O237 1.249 . S
O230 C229 1.264 . S
O231 Mg224 1.986 1_565 S
O231 C235 1.246 . S
O232 Mg227 2.032 1_565 S
O232 C235 1.259 . S
O233 Mg224 2.114 . S
O233 C236 1.252 . S
O234 Mg224 2.251 . S
O234 Mg227 2.079 . S
O234 C236 1.273 . S
C235 O231 1.246 . S
C235 O232 1.259 . S
C236 O233 1.252 . S
C236 O234 1.273 . S
O237 Mg224 2.010 . S
O237 C229 1.249 . S
Mg238 O239 2.028 . S
Mg238 O245 1.986 . S
Mg238 O247 2.114 . S
Mg238 O248 2.251 . S
Mg238 O251 2.010 1_655 S
O239 Mg238 2.028 . S
O239 C242 1.250 . S
O240 Mg241 2.028 . S
O240 C242 1.248 . S
Mg241 O240 2.028 . S
Mg241 O246 2.032 . S
Mg241 O248 2.079 . S
C242 O239 1.250 . S
C242 O240 1.248 . S
C243 O244 1.264 . S
C243 O251 1.249 . S
O244 C243 1.264 . S
O245 Mg238 1.986 . S
O245 C249 1.246 . S
O246 Mg241 2.032 . S
O246 C249 1.259 . S
O247 Mg238 2.114 . S
O247 C250 1.252 . S
O248 Mg238 2.251 . S
O248 Mg241 2.079 . S
O248 C250 1.273 . S
C249 O245 1.246 . S
C249 O246 1.259 . S
C250 O247 1.252 . S
C250 O248 1.273 . S
O251 Mg238 2.010 1_455 S
O251 C243 1.249 . S
C252 C253 1.560 . S
C252 H313 0.959 . S
C252 H314 0.959 . S
C252 H315 0.960 . S
C253 C252 1.560 . S
C253 O308 1.426 . S
C253 H312 0.980 . S
C254 C255 1.407 . S
C254 C259 1.418 . S
C254 O308 1.334 . S
C255 C254 1.407 . S
C255 C256 1.360 . S
C255 H316 0.929 . S
C256 C255 1.360 . S
C256 C257 1.401 . S
C256 C260 1.527 . S
C257 C256 1.401 . S
C257 C258 1.405 . S
C257 C290 1.587 . S
C258 C257 1.405 . S
C258 C259 1.332 . S
C258 C261 1.496 . S
C259 C254 1.418 . S
C259 C258 1.332 . S
C259 H317 0.929 . S
C260 C256 1.527 . S
C260 H318 0.959 . S
C260 H319 0.961 . S
C260 H320 0.961 . S
C261 C258 1.496 . S
C261 H321 0.960 . S
C261 H322 0.960 . S
C261 H323 0.961 . S
C262 C263 1.517 . S
C262 H325 0.961 . S
C262 H326 0.960 . S
C262 H327 0.959 . S
C263 C262 1.517 . S
C263 O311 1.468 . S
C263 H324 0.980 . S
C264 C265 1.349 . S
C264 C269 1.367 . S
C264 O311 1.408 . S
C265 C264 1.349 . S
C265 C266 1.407 . S
C265 H328 0.930 . S
C266 C265 1.407 . S
C266 C267 1.449 . S
C266 C270 1.535 . S
C267 C266 1.449 . S
C267 C268 1.384 . S
C267 C292 1.553 . S
C268 C267 1.384 . S
C268 C269 1.364 . S
C268 C271 1.450 . S
C269 C264 1.367 . S
C269 C268 1.364 . S
C269 H329 0.931 . S
C270 C266 1.535 . S
C270 H330 0.959 . S
C270 H331 0.961 . S
C270 H332 0.959 . S
C271 C268 1.450 . S
C271 H333 0.960 . S
C271 H334 0.960 . S
C271 H335 0.960 . S
C272 C273 1.309 . S
C272 C277 1.304 . S
C272 O310 1.435 . S
C273 C272 1.309 . S
C273 C274 1.476 . S
C273 H337 0.930 . S
C274 C273 1.476 . S
C274 C275 1.400 . S
C274 C278 1.567 . S
C275 C274 1.400 . S
C275 C276 1.373 . S
C275 C297 1.432 . S
C276 C275 1.373 . S
C276 C277 1.339 . S
C276 C279 1.530 . S
C277 C272 1.304 . S
C277 C276 1.339 . S
C277 H338 0.930 . S
C278 C274 1.567 . S
C278 H339 0.961 . S
C278 H340 0.960 . S
C278 H341 0.958 . S
C279 C276 1.530 . S
C279 H342 0.961 . S
C279 H343 0.960 . S
C279 H344 0.960 . S
C280 C281 1.530 . S
C280 H346 0.961 . S
C280 H347 0.961 . S
C280 H348 0.959 . S
C281 C280 1.530 . S
C281 O309 1.412 . S
C281 H345 0.980 . S
C282 C283 1.288 . S
C282 C287 1.377 . S
C282 O309 1.393 . S
C283 C282 1.288 . S
C283 C284 1.369 . S
C283 H349 0.932 . S
C284 C283 1.369 . S
C284 C285 1.398 . S
C284 C288 1.527 . S
C285 C284 1.398 . S
C285 C286 1.380 . S
C285 C299 1.497 . S
C286 C285 1.380 . S
C286 C287 1.383 . S
C286 C289 1.603 . S
C287 C282 1.377 . S
C287 C286 1.383 . S
C287 H350 0.929 . S
C288 C284 1.527 . S
C288 H351 0.961 . S
C288 H352 0.959 . S
C288 H353 0.959 . S
C289 C286 1.603 . S
C289 H354 0.960 . S
C289 H355 0.962 . S
C289 H356 0.961 . S
C290 C257 1.587 . S
C290 C291 1.360 . S
C290 C303 1.412 . S
C291 C290 1.360 . S
C291 C292 1.365 . S
C291 H357 0.929 . S
C292 C267 1.553 . S
C292 C291 1.365 . S
C292 C293 1.404 . S
C293 C292 1.404 . S
C293 C294 1.395 . S
C293 C304 1.451 . S
C294 C293 1.395 . S
C294 C295 1.322 . S
C294 H358 0.930 . S
C295 C294 1.322 . S
C295 C296 1.459 . S
C295 H359 0.929 . S
C296 C295 1.459 . S
C296 C297 1.445 . S
C296 C305 1.395 . S
C297 C275 1.432 . S
C297 C296 1.445 . S
C297 C298 1.370 . S
C298 C297 1.370 . S
C298 C299 1.438 . S
C298 H360 0.930 . S
C299 C285 1.497 . S
C299 C298 1.438 . S
C299 C300 1.360 . S
C300 C299 1.360 . S
C300 C301 1.401 . S
C300 C305 1.446 . S
C301 C300 1.401 . S
C301 C302 1.347 . S
C301 H361 0.929 . S
C302 C301 1.347 . S
C302 C303 1.455 . S
C302 H362 0.930 . S
C303 C290 1.412 . S
C303 C302 1.455 . S
C303 C304 1.331 . S
C304 C293 1.451 . S
C304 C303 1.331 . S
C304 C305 1.497 . S
C305 C296 1.395 . S
C305 C300 1.446 . S
C305 C304 1.497 . S
C306 C307 1.582 . S
C306 H363 0.962 . S
C306 H364 0.959 . S
C306 H365 0.958 . S
C307 C306 1.582 . S
C307 O310 1.458 . S
C307 H336 0.980 . S
O308 C253 1.426 . S
O308 C254 1.334 . S
O309 C281 1.412 . S
O309 C282 1.393 . S
O310 C272 1.435 . S
O310 C307 1.458 . S
O311 C263 1.468 . S
O311 C264 1.408 . S
H312 C253 0.980 . S
H313 C252 0.959 . S
H314 C252 0.959 . S
H315 C252 0.960 . S
H316 C255 0.929 . S
H317 C259 0.929 . S
H318 C260 0.959 . S
H319 C260 0.961 . S
H320 C260 0.961 . S
H321 C261 0.960 . S
H322 C261 0.960 . S
H323 C261 0.961 . S
H324 C263 0.980 . S
H325 C262 0.961 . S
H326 C262 0.960 . S
H327 C262 0.959 . S
H328 C265 0.930 . S
H329 C269 0.931 . S
H330 C270 0.959 . S
H331 C270 0.961 . S
H332 C270 0.959 . S
H333 C271 0.960 . S
H334 C271 0.960 . S
H335 C271 0.960 . S
H336 C307 0.980 . S
H337 C273 0.930 . S
H338 C277 0.930 . S
H339 C278 0.961 . S
H340 C278 0.960 . S
H341 C278 0.958 . S
H342 C279 0.961 . S
H343 C279 0.960 . S
H344 C279 0.960 . S
H345 C281 0.980 . S
H346 C280 0.961 . S
H347 C280 0.961 . S
H348 C280 0.959 . S
H349 C283 0.932 . S
H350 C287 0.929 . S
H351 C288 0.961 . S
H352 C288 0.959 . S
H353 C288 0.959 . S
H354 C289 0.960 . S
H355 C289 0.962 . S
H356 C289 0.961 . S
H357 C291 0.929 . S
H358 C294 0.930 . S
H359 C295 0.929 . S
H360 C298 0.930 . S
H361 C301 0.929 . S
H362 C302 0.930 . S
H363 C306 0.962 . S
H364 C306 0.959 . S
H365 C306 0.958 . S
C366 C367 1.560 . S
C366 H427 0.959 . S
C366 H428 0.959 . S
C366 H429 0.960 . S
C367 C366 1.560 . S
C367 O422 1.426 . S
C367 H426 0.980 . S
C368 C369 1.407 . S
C368 C373 1.418 . S
C368 O422 1.334 . S
C369 C368 1.407 . S
C369 C370 1.360 . S
C369 H430 0.929 . S
C370 C369 1.360 . S
C370 C371 1.401 . S
C370 C374 1.527 . S
C371 C370 1.401 . S
C371 C372 1.405 . S
C371 C404 1.587 . S
C372 C371 1.405 . S
C372 C373 1.332 . S
C372 C375 1.496 . S
C373 C368 1.418 . S
C373 C372 1.332 . S
C373 H431 0.929 . S
C374 C370 1.527 . S
C374 H432 0.959 . S
C374 H433 0.961 . S
C374 H434 0.961 . S
C375 C372 1.496 . S
C375 H435 0.960 . S
C375 H436 0.960 . S
C375 H437 0.961 . S
C376 C377 1.517 . S
C376 H439 0.961 . S
C376 H440 0.960 . S
C376 H441 0.959 . S
C377 C376 1.517 . S
C377 O425 1.468 . S
C377 H438 0.980 . S
C378 C379 1.349 . S
C378 C383 1.367 . S
C378 O425 1.408 . S
C379 C378 1.349 . S
C379 C380 1.407 . S
C379 H442 0.930 . S
C380 C379 1.407 . S
C380 C381 1.449 . S
C380 C384 1.535 . S
C381 C380 1.449 . S
C381 C382 1.384 . S
C381 C406 1.553 . S
C382 C381 1.384 . S
C382 C383 1.364 . S
C382 C385 1.450 . S
C383 C378 1.367 . S
C383 C382 1.364 . S
C383 H443 0.931 . S
C384 C380 1.535 . S
C384 H444 0.959 . S
C384 H445 0.961 . S
C384 H446 0.959 . S
C385 C382 1.450 . S
C385 H447 0.960 . S
C385 H448 0.960 . S
C385 H449 0.960 . S
C386 C387 1.309 . S
C386 C391 1.304 . S
C386 O424 1.435 . S
C387 C386 1.309 . S
C387 C388 1.476 . S
C387 H451 0.930 . S
C388 C387 1.476 . S
C388 C389 1.400 . S
C388 C392 1.567 . S
C389 C388 1.400 . S
C389 C390 1.373 . S
C389 C411 1.432 . S
C390 C389 1.373 . S
C390 C391 1.339 . S
C390 C393 1.530 . S
C391 C386 1.304 . S
C391 C390 1.339 . S
C391 H452 0.930 . S
C392 C388 1.567 . S
C392 H453 0.961 . S
C392 H454 0.960 . S
C392 H455 0.958 . S
C393 C390 1.530 . S
C393 H456 0.961 . S
C393 H457 0.960 . S
C393 H458 0.960 . S
C394 C395 1.530 . S
C394 H460 0.961 . S
C394 H461 0.961 . S
C394 H462 0.959 . S
C395 C394 1.530 . S
C395 O423 1.412 . S
C395 H459 0.980 . S
C396 C397 1.288 . S
C396 C401 1.377 . S
C396 O423 1.393 . S
C397 C396 1.288 . S
C397 C398 1.369 . S
C397 H463 0.932 . S
C398 C397 1.369 . S
C398 C399 1.398 . S
C398 C402 1.527 . S
C399 C398 1.398 . S
C399 C400 1.380 . S
C399 C413 1.497 . S
C400 C399 1.380 . S
C400 C401 1.383 . S
C400 C403 1.603 . S
C401 C396 1.377 . S
C401 C400 1.383 . S
C401 H464 0.929 . S
C402 C398 1.527 . S
C402 H465 0.961 . S
C402 H466 0.959 . S
C402 H467 0.959 . S
C403 C400 1.603 . S
C403 H468 0.960 . S
C403 H469 0.962 . S
C403 H470 0.961 . S
C404 C371 1.587 . S
C404 C405 1.360 . S
C404 C417 1.412 . S
C405 C404 1.360 . S
C405 C406 1.365 . S
C405 H471 0.929 . S
C406 C381 1.553 . S
C406 C405 1.365 . S
C406 C407 1.404 . S
C407 C406 1.404 . S
C407 C408 1.395 . S
C407 C418 1.451 . S
C408 C407 1.395 . S
C408 C409 1.322 . S
C408 H472 0.930 . S
C409 C408 1.322 . S
C409 C410 1.459 . S
C409 H473 0.929 . S
C410 C409 1.459 . S
C410 C411 1.445 . S
C410 C419 1.395 . S
C411 C389 1.432 . S
C411 C410 1.445 . S
C411 C412 1.370 . S
C412 C411 1.370 . S
C412 C413 1.438 . S
C412 H474 0.930 . S
C413 C399 1.497 . S
C413 C412 1.438 . S
C413 C414 1.360 . S
C414 C413 1.360 . S
C414 C415 1.401 . S
C414 C419 1.446 . S
C415 C414 1.401 . S
C415 C416 1.347 . S
C415 H475 0.929 . S
C416 C415 1.347 . S
C416 C417 1.455 . S
C416 H476 0.930 . S
C417 C404 1.412 . S
C417 C416 1.455 . S
C417 C418 1.331 . S
C418 C407 1.451 . S
C418 C417 1.331 . S
C418 C419 1.497 . S
C419 C410 1.395 . S
C419 C414 1.446 . S
C419 C418 1.497 . S
C420 C421 1.582 . S
C420 H477 0.962 . S
C420 H478 0.959 . S
C420 H479 0.958 . S
C421 C420 1.582 . S
C421 O424 1.458 . S
C421 H450 0.980 . S
O422 C367 1.426 . S
O422 C368 1.334 . S
O423 C395 1.412 . S
O423 C396 1.393 . S
O424 C386 1.435 . S
O424 C421 1.458 . S
O425 C377 1.468 . S
O425 C378 1.408 . S
H426 C367 0.980 . S
H427 C366 0.959 . S
H428 C366 0.959 . S
H429 C366 0.960 . S
H430 C369 0.929 . S
H431 C373 0.929 . S
H432 C374 0.959 . S
H433 C374 0.961 . S
H434 C374 0.961 . S
H435 C375 0.960 . S
H436 C375 0.960 . S
H437 C375 0.961 . S
H438 C377 0.980 . S
H439 C376 0.961 . S
H440 C376 0.960 . S
H441 C376 0.959 . S
H442 C379 0.930 . S
H443 C383 0.931 . S
H444 C384 0.959 . S
H445 C384 0.961 . S
H446 C384 0.959 . S
H447 C385 0.960 . S
H448 C385 0.960 . S
H449 C385 0.960 . S
H450 C421 0.980 . S
H451 C387 0.930 . S
H452 C391 0.930 . S
H453 C392 0.961 . S
H454 C392 0.960 . S
H455 C392 0.958 . S
H456 C393 0.961 . S
H457 C393 0.960 . S
H458 C393 0.960 . S
H459 C395 0.980 . S
H460 C394 0.961 . S
H461 C394 0.961 . S
H462 C394 0.959 . S
H463 C397 0.932 . S
H464 C401 0.929 . S
H465 C402 0.961 . S
H466 C402 0.959 . S
H467 C402 0.959 . S
H468 C403 0.960 . S
H469 C403 0.962 . S
H470 C403 0.961 . S
H471 C405 0.929 . S
H472 C408 0.930 . S
H473 C409 0.929 . S
H474 C412 0.930 . S
H475 C415 0.929 . S
H476 C416 0.930 . S
H477 C420 0.962 . S
H478 C420 0.959 . S
H479 C420 0.958 . S
C480 C481 1.560 . S
C480 H541 0.959 . S
C480 H542 0.959 . S
C480 H543 0.960 . S
C481 C480 1.560 . S
C481 O536 1.426 . S
C481 H540 0.980 . S
C482 C483 1.407 . S
C482 C487 1.418 . S
C482 O536 1.334 . S
C483 C482 1.407 . S
C483 C484 1.360 . S
C483 H544 0.929 . S
C484 C483 1.360 . S
C484 C485 1.401 . S
C484 C488 1.527 . S
C485 C484 1.401 . S
C485 C486 1.405 . S
C485 C518 1.587 . S
C486 C485 1.405 . S
C486 C487 1.332 . S
C486 C489 1.496 . S
C487 C482 1.418 . S
C487 C486 1.332 . S
C487 H545 0.929 . S
C488 C484 1.527 . S
C488 H546 0.959 . S
C488 H547 0.961 . S
C488 H548 0.961 . S
C489 C486 1.496 . S
C489 H549 0.960 . S
C489 H550 0.960 . S
C489 H551 0.961 . S
C490 C491 1.517 . S
C490 H553 0.961 . S
C490 H554 0.960 . S
C490 H555 0.959 . S
C491 C490 1.517 . S
C491 O539 1.468 . S
C491 H552 0.980 . S
C492 C493 1.349 . S
C492 C497 1.367 . S
C492 O539 1.408 . S
C493 C492 1.349 . S
C493 C494 1.407 . S
C493 H556 0.930 . S
C494 C493 1.407 . S
C494 C495 1.449 . S
C494 C498 1.535 . S
C495 C494 1.449 . S
C495 C496 1.384 . S
C495 C520 1.553 . S
C496 C495 1.384 . S
C496 C497 1.364 . S
C496 C499 1.450 . S
C497 C492 1.367 . S
C497 C496 1.364 . S
C497 H557 0.931 . S
C498 C494 1.535 . S
C498 H558 0.959 . S
C498 H559 0.961 . S
C498 H560 0.959 . S
C499 C496 1.450 . S
C499 H561 0.960 . S
C499 H562 0.960 . S
C499 H563 0.960 . S
C500 C501 1.309 . S
C500 C505 1.304 . S
C500 O538 1.435 . S
C501 C500 1.309 . S
C501 C502 1.476 . S
C501 H565 0.930 . S
C502 C501 1.476 . S
C502 C503 1.400 . S
C502 C506 1.567 . S
C503 C502 1.400 . S
C503 C504 1.373 . S
C503 C525 1.432 . S
C504 C503 1.373 . S
C504 C505 1.339 . S
C504 C507 1.530 . S
C505 C500 1.304 . S
C505 C504 1.339 . S
C505 H566 0.930 . S
C506 C502 1.567 . S
C506 H567 0.961 . S
C506 H568 0.960 . S
C506 H569 0.958 . S
C507 C504 1.530 . S
C507 H570 0.961 . S
C507 H571 0.960 . S
C507 H572 0.960 . S
C508 C509 1.530 . S
C508 H574 0.961 . S
C508 H575 0.961 . S
C508 H576 0.959 . S
C509 C508 1.530 . S
C509 O537 1.412 . S
C509 H573 0.980 . S
C510 C511 1.288 . S
C510 C515 1.377 . S
C510 O537 1.393 . S
C511 C510 1.288 . S
C511 C512 1.369 . S
C511 H577 0.932 . S
C512 C511 1.369 . S
C512 C513 1.398 . S
C512 C516 1.527 . S
C513 C512 1.398 . S
C513 C514 1.380 . S
C513 C527 1.497 . S
C514 C513 1.380 . S
C514 C515 1.383 . S
C514 C517 1.603 . S
C515 C510 1.377 . S
C515 C514 1.383 . S
C515 H578 0.929 . S
C516 C512 1.527 . S
C516 H579 0.961 . S
C516 H580 0.959 . S
C516 H581 0.959 . S
C517 C514 1.603 . S
C517 H582 0.960 . S
C517 H583 0.962 . S
C517 H584 0.961 . S
C518 C485 1.587 . S
C518 C519 1.360 . S
C518 C531 1.412 . S
C519 C518 1.360 . S
C519 C520 1.365 . S
C519 H585 0.929 . S
C520 C495 1.553 . S
C520 C519 1.365 . S
C520 C521 1.404 . S
C521 C520 1.404 . S
C521 C522 1.395 . S
C521 C532 1.451 . S
C522 C521 1.395 . S
C522 C523 1.322 . S
C522 H586 0.930 . S
C523 C522 1.322 . S
C523 C524 1.459 . S
C523 H587 0.929 . S
C524 C523 1.459 . S
C524 C525 1.445 . S
C524 C533 1.395 . S
C525 C503 1.432 . S
C525 C524 1.445 . S
C525 C526 1.370 . S
C526 C525 1.370 . S
C526 C527 1.438 . S
C526 H588 0.930 . S
C527 C513 1.497 . S
C527 C526 1.438 . S
C527 C528 1.360 . S
C528 C527 1.360 . S
C528 C529 1.401 . S
C528 C533 1.446 . S
C529 C528 1.401 . S
C529 C530 1.347 . S
C529 H589 0.929 . S
C530 C529 1.347 . S
C530 C531 1.455 . S
C530 H590 0.930 . S
C531 C518 1.412 . S
C531 C530 1.455 . S
C531 C532 1.331 . S
C532 C521 1.451 . S
C532 C531 1.331 . S
C532 C533 1.497 . S
C533 C524 1.395 . S
C533 C528 1.446 . S
C533 C532 1.497 . S
C534 C535 1.582 . S
C534 H591 0.962 . S
C534 H592 0.959 . S
C534 H593 0.958 . S
C535 C534 1.582 . S
C535 O538 1.458 . S
C535 H564 0.980 . S
O536 C481 1.426 . S
O536 C482 1.334 . S
O537 C509 1.412 . S
O537 C510 1.393 . S
O538 C500 1.435 . S
O538 C535 1.458 . S
O539 C491 1.468 . S
O539 C492 1.408 . S
H540 C481 0.980 . S
H541 C480 0.959 . S
H542 C480 0.959 . S
H543 C480 0.960 . S
H544 C483 0.929 . S
H545 C487 0.929 . S
H546 C488 0.959 . S
H547 C488 0.961 . S
H548 C488 0.961 . S
H549 C489 0.960 . S
H550 C489 0.960 . S
H551 C489 0.961 . S
H552 C491 0.980 . S
H553 C490 0.961 . S
H554 C490 0.960 . S
H555 C490 0.959 . S
H556 C493 0.930 . S
H557 C497 0.931 . S
H558 C498 0.959 . S
H559 C498 0.961 . S
H560 C498 0.959 . S
H561 C499 0.960 . S
H562 C499 0.960 . S
H563 C499 0.960 . S
H564 C535 0.980 . S
H565 C501 0.930 . S
H566 C505 0.930 . S
H567 C506 0.961 . S
H568 C506 0.960 . S
H569 C506 0.958 . S
H570 C507 0.961 . S
H571 C507 0.960 . S
H572 C507 0.960 . S
H573 C509 0.980 . S
H574 C508 0.961 . S
H575 C508 0.961 . S
H576 C508 0.959 . S
H577 C511 0.932 . S
H578 C515 0.929 . S
H579 C516 0.961 . S
H580 C516 0.959 . S
H581 C516 0.959 . S
H582 C517 0.960 . S
H583 C517 0.962 . S
H584 C517 0.961 . S
H585 C519 0.929 . S
H586 C522 0.930 . S
H587 C523 0.929 . S
H588 C526 0.930 . S
H589 C529 0.929 . S
H590 C530 0.930 . S
H591 C534 0.962 . S
H592 C534 0.959 . S
H593 C534 0.958 . S
C594 C595 1.560 . S
C594 H655 0.959 . S
C594 H656 0.959 . S
C594 H657 0.960 . S
C595 C594 1.560 . S
C595 O650 1.426 . S
C595 H654 0.980 . S
C596 C597 1.407 . S
C596 C601 1.418 . S
C596 O650 1.334 . S
C597 C596 1.407 . S
C597 C598 1.360 . S
C597 H658 0.929 . S
C598 C597 1.360 . S
C598 C599 1.401 . S
C598 C602 1.527 . S
C599 C598 1.401 . S
C599 C600 1.405 . S
C599 C632 1.587 . S
C600 C599 1.405 . S
C600 C601 1.332 . S
C600 C603 1.496 . S
C601 C596 1.418 . S
C601 C600 1.332 . S
C601 H659 0.929 . S
C602 C598 1.527 . S
C602 H660 0.959 . S
C602 H661 0.961 . S
C602 H662 0.961 . S
C603 C600 1.496 . S
C603 H663 0.960 . S
C603 H664 0.960 . S
C603 H665 0.961 . S
C604 C605 1.517 . S
C604 H667 0.961 . S
C604 H668 0.960 . S
C604 H669 0.959 . S
C605 C604 1.517 . S
C605 O653 1.468 . S
C605 H666 0.980 . S
C606 C607 1.349 . S
C606 C611 1.367 . S
C606 O653 1.408 . S
C607 C606 1.349 . S
C607 C608 1.407 . S
C607 H670 0.930 . S
C608 C607 1.407 . S
C608 C609 1.449 . S
C608 C612 1.535 . S
C609 C608 1.449 . S
C609 C610 1.384 . S
C609 C634 1.553 . S
C610 C609 1.384 . S
C610 C611 1.364 . S
C610 C613 1.450 . S
C611 C606 1.367 . S
C611 C610 1.364 . S
C611 H671 0.931 . S
C612 C608 1.535 . S
C612 H672 0.959 . S
C612 H673 0.961 . S
C612 H674 0.959 . S
C613 C610 1.450 . S
C613 H675 0.960 . S
C613 H676 0.960 . S
C613 H677 0.960 . S
C614 C615 1.309 . S
C614 C619 1.304 . S
C614 O652 1.435 . S
C615 C614 1.309 . S
C615 C616 1.476 . S
C615 H679 0.930 . S
C616 C615 1.476 . S
C616 C617 1.400 . S
C616 C620 1.567 . S
C617 C616 1.400 . S
C617 C618 1.373 . S
C617 C639 1.432 . S
C618 C617 1.373 . S
C618 C619 1.339 . S
C618 C621 1.530 . S
C619 C614 1.304 . S
C619 C618 1.339 . S
C619 H680 0.930 . S
C620 C616 1.567 . S
C620 H681 0.961 . S
C620 H682 0.960 . S
C620 H683 0.958 . S
C621 C618 1.530 . S
C621 H684 0.961 . S
C621 H685 0.960 . S
C621 H686 0.960 . S
C622 C623 1.530 . S
C622 H688 0.961 . S
C622 H689 0.961 . S
C622 H690 0.959 . S
C623 C622 1.530 . S
C623 O651 1.412 . S
C623 H687 0.980 . S
C624 C625 1.288 . S
C624 C629 1.377 . S
C624 O651 1.393 . S
C625 C624 1.288 . S
C625 C626 1.369 . S
C625 H691 0.932 . S
C626 C625 1.369 . S
C626 C627 1.398 . S
C626 C630 1.527 . S
C627 C626 1.398 . S
C627 C628 1.380 . S
C627 C641 1.497 . S
C628 C627 1.380 . S
C628 C629 1.383 . S
C628 C631 1.603 . S
C629 C624 1.377 . S
C629 C628 1.383 . S
C629 H692 0.929 . S
C630 C626 1.527 . S
C630 H693 0.961 . S
C630 H694 0.959 . S
C630 H695 0.959 . S
C631 C628 1.603 . S
C631 H696 0.960 . S
C631 H697 0.962 . S
C631 H698 0.961 . S
C632 C599 1.587 . S
C632 C633 1.360 . S
C632 C645 1.412 . S
C633 C632 1.360 . S
C633 C634 1.365 . S
C633 H699 0.929 . S
C634 C609 1.553 . S
C634 C633 1.365 . S
C634 C635 1.404 . S
C635 C634 1.404 . S
C635 C636 1.395 . S
C635 C646 1.451 . S
C636 C635 1.395 . S
C636 C637 1.322 . S
C636 H700 0.930 . S
C637 C636 1.322 . S
C637 C638 1.459 . S
C637 H701 0.929 . S
C638 C637 1.459 . S
C638 C639 1.445 . S
C638 C647 1.395 . S
C639 C617 1.432 . S
C639 C638 1.445 . S
C639 C640 1.370 . S
C640 C639 1.370 . S
C640 C641 1.438 . S
C640 H702 0.930 . S
C641 C627 1.497 . S
C641 C640 1.438 . S
C641 C642 1.360 . S
C642 C641 1.360 . S
C642 C643 1.401 . S
C642 C647 1.446 . S
C643 C642 1.401 . S
C643 C644 1.347 . S
C643 H703 0.929 . S
C644 C643 1.347 . S
C644 C645 1.455 . S
C644 H704 0.930 . S
C645 C632 1.412 . S
C645 C644 1.455 . S
C645 C646 1.331 . S
C646 C635 1.451 . S
C646 C645 1.331 . S
C646 C647 1.497 . S
C647 C638 1.395 . S
C647 C642 1.446 . S
C647 C646 1.497 . S
C648 C649 1.582 . S
C648 H705 0.962 . S
C648 H706 0.959 . S
C648 H707 0.958 . S
C649 C648 1.582 . S
C649 O652 1.458 . S
C649 H678 0.980 . S
O650 C595 1.426 . S
O650 C596 1.334 . S
O651 C623 1.412 . S
O651 C624 1.393 . S
O652 C614 1.435 . S
O652 C649 1.458 . S
O653 C605 1.468 . S
O653 C606 1.408 . S
H654 C595 0.980 . S
H655 C594 0.959 . S
H656 C594 0.959 . S
H657 C594 0.960 . S
H658 C597 0.929 . S
H659 C601 0.929 . S
H660 C602 0.959 . S
H661 C602 0.961 . S
H662 C602 0.961 . S
H663 C603 0.960 . S
H664 C603 0.960 . S
H665 C603 0.961 . S
H666 C605 0.980 . S
H667 C604 0.961 . S
H668 C604 0.960 . S
H669 C604 0.959 . S
H670 C607 0.930 . S
H671 C611 0.931 . S
H672 C612 0.959 . S
H673 C612 0.961 . S
H674 C612 0.959 . S
H675 C613 0.960 . S
H676 C613 0.960 . S
H677 C613 0.960 . S
H678 C649 0.980 . S
H679 C615 0.930 . S
H680 C619 0.930 . S
H681 C620 0.961 . S
H682 C620 0.960 . S
H683 C620 0.958 . S
H684 C621 0.961 . S
H685 C621 0.960 . S
H686 C621 0.960 . S
H687 C623 0.980 . S
H688 C622 0.961 . S
H689 C622 0.961 . S
H690 C622 0.959 . S
H691 C625 0.932 . S
H692 C629 0.929 . S
H693 C630 0.961 . S
H694 C630 0.959 . S
H695 C630 0.959 . S
H696 C631 0.960 . S
H697 C631 0.962 . S
H698 C631 0.961 . S
H699 C633 0.929 . S
H700 C636 0.930 . S
H701 C637 0.929 . S
H702 C640 0.930 . S
H703 C643 0.929 . S
H704 C644 0.930 . S
H705 C648 0.962 . S
H706 C648 0.959 . S
H707 C648 0.958 . S
C708 C709 1.560 . S
C708 H769 0.959 . S
C708 H770 0.959 . S
C708 H771 0.960 . S
C709 C708 1.560 . S
C709 O764 1.426 . S
C709 H768 0.980 . S
C710 C711 1.407 . S
C710 C715 1.418 . S
C710 O764 1.334 . S
C711 C710 1.407 . S
C711 C712 1.360 . S
C711 H772 0.929 . S
C712 C711 1.360 . S
C712 C713 1.401 . S
C712 C716 1.527 . S
C713 C712 1.401 . S
C713 C714 1.405 . S
C713 C746 1.587 . S
C714 C713 1.405 . S
C714 C715 1.332 . S
C714 C717 1.496 . S
C715 C710 1.418 . S
C715 C714 1.332 . S
C715 H773 0.929 . S
C716 C712 1.527 . S
C716 H774 0.959 . S
C716 H775 0.961 . S
C716 H776 0.961 . S
C717 C714 1.496 . S
C717 H777 0.960 . S
C717 H778 0.960 . S
C717 H779 0.961 . S
C718 C719 1.517 . S
C718 H781 0.961 . S
C718 H782 0.960 . S
C718 H783 0.959 . S
C719 C718 1.517 . S
C719 O767 1.468 . S
C719 H780 0.980 . S
C720 C721 1.349 . S
C720 C725 1.367 . S
C720 O767 1.408 . S
C721 C720 1.349 . S
C721 C722 1.407 . S
C721 H784 0.930 . S
C722 C721 1.407 . S
C722 C723 1.449 . S
C722 C726 1.535 . S
C723 C722 1.449 . S
C723 C724 1.384 . S
C723 C748 1.553 . S
C724 C723 1.384 . S
C724 C725 1.364 . S
C724 C727 1.450 . S
C725 C720 1.367 . S
C725 C724 1.364 . S
C725 H785 0.931 . S
C726 C722 1.535 . S
C726 H786 0.959 . S
C726 H787 0.961 . S
C726 H788 0.959 . S
C727 C724 1.450 . S
C727 H789 0.960 . S
C727 H790 0.960 . S
C727 H791 0.960 . S
C728 C729 1.309 . S
C728 C733 1.304 . S
C728 O766 1.435 . S
C729 C728 1.309 . S
C729 C730 1.476 . S
C729 H793 0.930 . S
C730 C729 1.476 . S
C730 C731 1.400 . S
C730 C734 1.567 . S
C731 C730 1.400 . S
C731 C732 1.373 . S
C731 C753 1.432 . S
C732 C731 1.373 . S
C732 C733 1.339 . S
C732 C735 1.530 . S
C733 C728 1.304 . S
C733 C732 1.339 . S
C733 H794 0.930 . S
C734 C730 1.567 . S
C734 H795 0.961 . S
C734 H796 0.960 . S
C734 H797 0.958 . S
C735 C732 1.530 . S
C735 H798 0.961 . S
C735 H799 0.960 . S
C735 H800 0.960 . S
C736 C737 1.530 . S
C736 H802 0.961 . S
C736 H803 0.961 . S
C736 H804 0.959 . S
C737 C736 1.530 . S
C737 O765 1.412 . S
C737 H801 0.980 . S
C738 C739 1.288 . S
C738 C743 1.377 . S
C738 O765 1.393 . S
C739 C738 1.288 . S
C739 C740 1.369 . S
C739 H805 0.932 . S
C740 C739 1.369 . S
C740 C741 1.398 . S
C740 C744 1.527 . S
C741 C740 1.398 . S
C741 C742 1.380 . S
C741 C755 1.497 . S
C742 C741 1.380 . S
C742 C743 1.383 . S
C742 C745 1.603 . S
C743 C738 1.377 . S
C743 C742 1.383 . S
C743 H806 0.929 . S
C744 C740 1.527 . S
C744 H807 0.961 . S
C744 H808 0.959 . S
C744 H809 0.959 . S
C745 C742 1.603 . S
C745 H810 0.960 . S
C745 H811 0.962 . S
C745 H812 0.961 . S
C746 C713 1.587 . S
C746 C747 1.360 . S
C746 C759 1.412 . S
C747 C746 1.360 . S
C747 C748 1.365 . S
C747 H813 0.929 . S
C748 C723 1.553 . S
C748 C747 1.365 . S
C748 C749 1.404 . S
C749 C748 1.404 . S
C749 C750 1.395 . S
C749 C760 1.451 . S
C750 C749 1.395 . S
C750 C751 1.322 . S
C750 H814 0.930 . S
C751 C750 1.322 . S
C751 C752 1.459 . S
C751 H815 0.929 . S
C752 C751 1.459 . S
C752 C753 1.445 . S
C752 C761 1.395 . S
C753 C731 1.432 . S
C753 C752 1.445 . S
C753 C754 1.370 . S
C754 C753 1.370 . S
C754 C755 1.438 . S
C754 H816 0.930 . S
C755 C741 1.497 . S
C755 C754 1.438 . S
C755 C756 1.360 . S
C756 C755 1.360 . S
C756 C757 1.401 . S
C756 C761 1.446 . S
C757 C756 1.401 . S
C757 C758 1.347 . S
C757 H817 0.929 . S
C758 C757 1.347 . S
C758 C759 1.455 . S
C758 H818 0.930 . S
C759 C746 1.412 . S
C759 C758 1.455 . S
C759 C760 1.331 . S
C760 C749 1.451 . S
C760 C759 1.331 . S
C760 C761 1.497 . S
C761 C752 1.395 . S
C761 C756 1.446 . S
C761 C760 1.497 . S
C762 C763 1.582 . S
C762 H819 0.962 . S
C762 H820 0.959 . S
C762 H821 0.958 . S
C763 C762 1.582 . S
C763 O766 1.458 . S
C763 H792 0.980 . S
O764 C709 1.426 . S
O764 C710 1.334 . S
O765 C737 1.412 . S
O765 C738 1.393 . S
O766 C728 1.435 . S
O766 C763 1.458 . S
O767 C719 1.468 . S
O767 C720 1.408 . S
H768 C709 0.980 . S
H769 C708 0.959 . S
H770 C708 0.959 . S
H771 C708 0.960 . S
H772 C711 0.929 . S
H773 C715 0.929 . S
H774 C716 0.959 . S
H775 C716 0.961 . S
H776 C716 0.961 . S
H777 C717 0.960 . S
H778 C717 0.960 . S
H779 C717 0.961 . S
H780 C719 0.980 . S
H781 C718 0.961 . S
H782 C718 0.960 . S
H783 C718 0.959 . S
H784 C721 0.930 . S
H785 C725 0.931 . S
H786 C726 0.959 . S
H787 C726 0.961 . S
H788 C726 0.959 . S
H789 C727 0.960 . S
H790 C727 0.960 . S
H791 C727 0.960 . S
H792 C763 0.980 . S
H793 C729 0.930 . S
H794 C733 0.930 . S
H795 C734 0.961 . S
H796 C734 0.960 . S
H797 C734 0.958 . S
H798 C735 0.961 . S
H799 C735 0.960 . S
H800 C735 0.960 . S
H801 C737 0.980 . S
H802 C736 0.961 . S
H803 C736 0.961 . S
H804 C736 0.959 . S
H805 C739 0.932 . S
H806 C743 0.929 . S
H807 C744 0.961 . S
H808 C744 0.959 . S
H809 C744 0.959 . S
H810 C745 0.960 . S
H811 C745 0.962 . S
H812 C745 0.961 . S
H813 C747 0.929 . S
H814 C750 0.930 . S
H815 C751 0.929 . S
H816 C754 0.930 . S
H817 C757 0.929 . S
H818 C758 0.930 . S
H819 C762 0.962 . S
H820 C762 0.959 . S
H821 C762 0.958 . S
C822 C823 1.560 . S
C822 H883 0.959 . S
C822 H884 0.959 . S
C822 H885 0.960 . S
C823 C822 1.560 . S
C823 O878 1.426 . S
C823 H882 0.980 . S
C824 C825 1.407 . S
C824 C829 1.418 . S
C824 O878 1.334 . S
C825 C824 1.407 . S
C825 C826 1.360 . S
C825 H886 0.929 . S
C826 C825 1.360 . S
C826 C827 1.401 . S
C826 C830 1.527 . S
C827 C826 1.401 . S
C827 C828 1.405 . S
C827 C860 1.587 . S
C828 C827 1.405 . S
C828 C829 1.332 . S
C828 C831 1.496 . S
C829 C824 1.418 . S
C829 C828 1.332 . S
C829 H887 0.929 . S
C830 C826 1.527 . S
C830 H888 0.959 . S
C830 H889 0.961 . S
C830 H890 0.961 . S
C831 C828 1.496 . S
C831 H891 0.960 . S
C831 H892 0.960 . S
C831 H893 0.961 . S
C832 C833 1.517 . S
C832 H895 0.961 . S
C832 H896 0.960 . S
C832 H897 0.959 . S
C833 C832 1.517 . S
C833 O881 1.468 . S
C833 H894 0.980 . S
C834 C835 1.349 . S
C834 C839 1.367 . S
C834 O881 1.408 . S
C835 C834 1.349 . S
C835 C836 1.407 . S
C835 H898 0.930 . S
C836 C835 1.407 . S
C836 C837 1.449 . S
C836 C840 1.535 . S
C837 C836 1.449 . S
C837 C838 1.384 . S
C837 C862 1.553 . S
C838 C837 1.384 . S
C838 C839 1.364 . S
C838 C841 1.450 . S
C839 C834 1.367 . S
C839 C838 1.364 . S
C839 H899 0.931 . S
C840 C836 1.535 . S
C840 H900 0.959 . S
C840 H901 0.961 . S
C840 H902 0.959 . S
C841 C838 1.450 . S
C841 H903 0.960 . S
C841 H904 0.960 . S
C841 H905 0.960 . S
C842 C843 1.309 . S
C842 C847 1.304 . S
C842 O880 1.435 . S
C843 C842 1.309 . S
C843 C844 1.476 . S
C843 H907 0.930 . S
C844 C843 1.476 . S
C844 C845 1.400 . S
C844 C848 1.567 . S
C845 C844 1.400 . S
C845 C846 1.373 . S
C845 C867 1.432 . S
C846 C845 1.373 . S
C846 C847 1.339 . S
C846 C849 1.530 . S
C847 C842 1.304 . S
C847 C846 1.339 . S
C847 H908 0.930 . S
C848 C844 1.567 . S
C848 H909 0.961 . S
C848 H910 0.960 . S
C848 H911 0.958 . S
C849 C846 1.530 . S
C849 H912 0.961 . S
C849 H913 0.960 . S
C849 H914 0.960 . S
C850 C851 1.530 . S
C850 H916 0.961 . S
C850 H917 0.961 . S
C850 H918 0.959 . S
C851 C850 1.530 . S
C851 O879 1.412 . S
C851 H915 0.980 . S
C852 C853 1.288 . S
C852 C857 1.377 . S
C852 O879 1.393 . S
C853 C852 1.288 . S
C853 C854 1.369 . S
C853 H919 0.932 . S
C854 C853 1.369 . S
C854 C855 1.398 . S
C854 C858 1.527 . S
C855 C854 1.398 . S
C855 C856 1.380 . S
C855 C869 1.497 . S
C856 C855 1.380 . S
C856 C857 1.383 . S
C856 C859 1.603 . S
C857 C852 1.377 . S
C857 C856 1.383 . S
C857 H920 0.929 . S
C858 C854 1.527 . S
C858 H921 0.961 . S
C858 H922 0.959 . S
C858 H923 0.959 . S
C859 C856 1.603 . S
C859 H924 0.960 . S
C859 H925 0.962 . S
C859 H926 0.961 . S
C860 C827 1.587 . S
C860 C861 1.360 . S
C860 C873 1.412 . S
C861 C860 1.360 . S
C861 C862 1.365 . S
C861 H927 0.929 . S
C862 C837 1.553 . S
C862 C861 1.365 . S
C862 C863 1.404 . S
C863 C862 1.404 . S
C863 C864 1.395 . S
C863 C874 1.451 . S
C864 C863 1.395 . S
C864 C865 1.322 . S
C864 H928 0.930 . S
C865 C864 1.322 . S
C865 C866 1.459 . S
C865 H929 0.929 . S
C866 C865 1.459 . S
C866 C867 1.445 . S
C866 C875 1.395 . S
C867 C845 1.432 . S
C867 C866 1.445 . S
C867 C868 1.370 . S
C868 C867 1.370 . S
C868 C869 1.438 . S
C868 H930 0.930 . S
C869 C855 1.497 . S
C869 C868 1.438 . S
C869 C870 1.360 . S
C870 C869 1.360 . S
C870 C871 1.401 . S
C870 C875 1.446 . S
C871 C870 1.401 . S
C871 C872 1.347 . S
C871 H931 0.929 . S
C872 C871 1.347 . S
C872 C873 1.455 . S
C872 H932 0.930 . S
C873 C860 1.412 . S
C873 C872 1.455 . S
C873 C874 1.331 . S
C874 C863 1.451 . S
C874 C873 1.331 . S
C874 C875 1.497 . S
C875 C866 1.395 . S
C875 C870 1.446 . S
C875 C874 1.497 . S
C876 C877 1.582 . S
C876 H933 0.962 . S
C876 H934 0.959 . S
C876 H935 0.958 . S
C877 C876 1.582 . S
C877 O880 1.458 . S
C877 H906 0.980 . S
O878 C823 1.426 . S
O878 C824 1.334 . S
O879 C851 1.412 . S
O879 C852 1.393 . S
O880 C842 1.435 . S
O880 C877 1.458 . S
O881 C833 1.468 . S
O881 C834 1.408 . S
H882 C823 0.980 . S
H883 C822 0.959 . S
H884 C822 0.959 . S
H885 C822 0.960 . S
H886 C825 0.929 . S
H887 C829 0.929 . S
H888 C830 0.959 . S
H889 C830 0.961 . S
H890 C830 0.961 . S
H891 C831 0.960 . S
H892 C831 0.960 . S
H893 C831 0.961 . S
H894 C833 0.980 . S
H895 C832 0.961 . S
H896 C832 0.960 . S
H897 C832 0.959 . S
H898 C835 0.930 . S
H899 C839 0.931 . S
H900 C840 0.959 . S
H901 C840 0.961 . S
H902 C840 0.959 . S
H903 C841 0.960 . S
H904 C841 0.960 . S
H905 C841 0.960 . S
H906 C877 0.980 . S
H907 C843 0.930 . S
H908 C847 0.930 . S
H909 C848 0.961 . S
H910 C848 0.960 . S
H911 C848 0.958 . S
H912 C849 0.961 . S
H913 C849 0.960 . S
H914 C849 0.960 . S
H915 C851 0.980 . S
H916 C850 0.961 . S
H917 C850 0.961 . S
H918 C850 0.959 . S
H919 C853 0.932 . S
H920 C857 0.929 . S
H921 C858 0.961 . S
H922 C858 0.959 . S
H923 C858 0.959 . S
H924 C859 0.960 . S
H925 C859 0.962 . S
H926 C859 0.961 . S
H927 C861 0.929 . S
H928 C864 0.930 . S
H929 C865 0.929 . S
H930 C868 0.930 . S
H931 C871 0.929 . S
H932 C872 0.930 . S
H933 C876 0.962 . S
H934 C876 0.959 . S
H935 C876 0.958 . S
C936 C937 1.560 . S
C936 H997 0.959 . S
C936 H998 0.959 . S
C936 H999 0.960 . S
C937 C936 1.560 . S
C937 O992 1.426 . S
C937 H996 0.980 . S
C938 C939 1.407 . S
C938 C943 1.418 . S
C938 O992 1.334 . S
C939 C938 1.407 . S
C939 C940 1.360 . S
C939 H1000 0.929 . S
C940 C939 1.360 . S
C940 C941 1.401 . S
C940 C944 1.527 . S
C941 C940 1.401 . S
C941 C942 1.405 . S
C941 C974 1.587 . S
C942 C941 1.405 . S
C942 C943 1.332 . S
C942 C945 1.496 . S
C943 C938 1.418 . S
C943 C942 1.332 . S
C943 H1001 0.929 . S
C944 C940 1.527 . S
C944 H1002 0.959 . S
C944 H1003 0.961 . S
C944 H1004 0.961 . S
C945 C942 1.496 . S
C945 H1005 0.960 . S
C945 H1006 0.960 . S
C945 H1007 0.961 . S
C946 C947 1.517 . S
C946 H1009 0.961 . S
C946 H1010 0.960 . S
C946 H1011 0.959 . S
C947 C946 1.517 . S
C947 O995 1.468 . S
C947 H1008 0.980 . S
C948 C949 1.349 . S
C948 C953 1.367 . S
C948 O995 1.408 . S
C949 C948 1.349 . S
C949 C950 1.407 . S
C949 H1012 0.930 . S
C950 C949 1.407 . S
C950 C951 1.449 . S
C950 C954 1.535 . S
C951 C950 1.449 . S
C951 C952 1.384 . S
C951 C976 1.553 . S
C952 C951 1.384 . S
C952 C953 1.364 . S
C952 C955 1.450 . S
C953 C948 1.367 . S
C953 C952 1.364 . S
C953 H1013 0.931 . S
C954 C950 1.535 . S
C954 H1014 0.959 . S
C954 H1015 0.961 . S
C954 H1016 0.959 . S
C955 C952 1.450 . S
C955 H1017 0.960 . S
C955 H1018 0.960 . S
C955 H1019 0.960 . S
C956 C957 1.309 . S
C956 C961 1.304 . S
C956 O994 1.435 . S
C957 C956 1.309 . S
C957 C958 1.476 . S
C957 H1021 0.930 . S
C958 C957 1.476 . S
C958 C959 1.400 . S
C958 C962 1.567 . S
C959 C958 1.400 . S
C959 C960 1.373 . S
C959 C981 1.432 . S
C960 C959 1.373 . S
C960 C961 1.339 . S
C960 C963 1.530 . S
C961 C956 1.304 . S
C961 C960 1.339 . S
C961 H1022 0.930 . S
C962 C958 1.567 . S
C962 H1023 0.961 . S
C962 H1024 0.960 . S
C962 H1025 0.958 . S
C963 C960 1.530 . S
C963 H1026 0.961 . S
C963 H1027 0.960 . S
C963 H1028 0.960 . S
C964 C965 1.530 . S
C964 H1030 0.961 . S
C964 H1031 0.961 . S
C964 H1032 0.959 . S
C965 C964 1.530 . S
C965 O993 1.412 . S
C965 H1029 0.980 . S
C966 C967 1.288 . S
C966 C971 1.377 . S
C966 O993 1.393 . S
C967 C966 1.288 . S
C967 C968 1.369 . S
C967 H1033 0.932 . S
C968 C967 1.369 . S
C968 C969 1.398 . S
C968 C972 1.527 . S
C969 C968 1.398 . S
C969 C970 1.380 . S
C969 C983 1.497 . S
C970 C969 1.380 . S
C970 C971 1.383 . S
C970 C973 1.603 . S
C971 C966 1.377 . S
C971 C970 1.383 . S
C971 H1034 0.929 . S
C972 C968 1.527 . S
C972 H1035 0.961 . S
C972 H1036 0.959 . S
C972 H1037 0.959 . S
C973 C970 1.603 . S
C973 H1038 0.960 . S
C973 H1039 0.962 . S
C973 H1040 0.961 . S
C974 C941 1.587 . S
C974 C975 1.360 . S
C974 C987 1.412 . S
C975 C974 1.360 . S
C975 C976 1.365 . S
C975 H1041 0.929 . S
C976 C951 1.553 . S
C976 C975 1.365 . S
C976 C977 1.404 . S
C977 C976 1.404 . S
C977 C978 1.395 . S
C977 C988 1.451 . S
C978 C977 1.395 . S
C978 C979 1.322 . S
C978 H1042 0.930 . S
C979 C978 1.322 . S
C979 C980 1.459 . S
C979 H1043 0.929 . S
C980 C979 1.459 . S
C980 C981 1.445 . S
C980 C989 1.395 . S
C981 C959 1.432 . S
C981 C980 1.445 . S
C981 C982 1.370 . S
C982 C981 1.370 . S
C982 C983 1.438 . S
C982 H1044 0.930 . S
C983 C969 1.497 . S
C983 C982 1.438 . S
C983 C984 1.360 . S
C984 C983 1.360 . S
C984 C985 1.401 . S
C984 C989 1.446 . S
C985 C984 1.401 . S
C985 C986 1.347 . S
C985 H1045 0.929 . S
C986 C985 1.347 . S
C986 C987 1.455 . S
C986 H1046 0.930 . S
C987 C974 1.412 . S
C987 C986 1.455 . S
C987 C988 1.331 . S
C988 C977 1.451 . S
C988 C987 1.331 . S
C988 C989 1.497 . S
C989 C980 1.395 . S
C989 C984 1.446 . S
C989 C988 1.497 . S
C990 C991 1.582 . S
C990 H1047 0.962 . S
C990 H1048 0.959 . S
C990 H1049 0.958 . S
C991 C990 1.582 . S
C991 O994 1.458 . S
C991 H1020 0.980 . S
O992 C937 1.426 . S
O992 C938 1.334 . S
O993 C965 1.412 . S
O993 C966 1.393 . S
O994 C956 1.435 . S
O994 C991 1.458 . S
O995 C947 1.468 . S
O995 C948 1.408 . S
H996 C937 0.980 . S
H997 C936 0.959 . S
H998 C936 0.959 . S
H999 C936 0.960 . S
H1000 C939 0.929 . S
H1001 C943 0.929 . S
H1002 C944 0.959 . S
H1003 C944 0.961 . S
H1004 C944 0.961 . S
H1005 C945 0.960 . S
H1006 C945 0.960 . S
H1007 C945 0.961 . S
H1008 C947 0.980 . S
H1009 C946 0.961 . S
H1010 C946 0.960 . S
H1011 C946 0.959 . S
H1012 C949 0.930 . S
H1013 C953 0.931 . S
H1014 C954 0.959 . S
H1015 C954 0.961 . S
H1016 C954 0.959 . S
H1017 C955 0.960 . S
H1018 C955 0.960 . S
H1019 C955 0.960 . S
H1020 C991 0.980 . S
H1021 C957 0.930 . S
H1022 C961 0.930 . S
H1023 C962 0.961 . S
H1024 C962 0.960 . S
H1025 C962 0.958 . S
H1026 C963 0.961 . S
H1027 C963 0.960 . S
H1028 C963 0.960 . S
H1029 C965 0.980 . S
H1030 C964 0.961 . S
H1031 C964 0.961 . S
H1032 C964 0.959 . S
H1033 C967 0.932 . S
H1034 C971 0.929 . S
H1035 C972 0.961 . S
H1036 C972 0.959 . S
H1037 C972 0.959 . S
H1038 C973 0.960 . S
H1039 C973 0.962 . S
H1040 C973 0.961 . S
H1041 C975 0.929 . S
H1042 C978 0.930 . S
H1043 C979 0.929 . S
H1044 C982 0.930 . S
H1045 C985 0.929 . S
H1046 C986 0.930 . S
H1047 C990 0.962 . S
H1048 C990 0.959 . S
H1049 C990 0.958 . S
C1050 C1051 1.560 . S
C1050 H1111 0.959 . S
C1050 H1112 0.959 . S
C1050 H1113 0.960 . S
C1051 C1050 1.560 . S
C1051 O1106 1.426 . S
C1051 H1110 0.980 . S
C1052 C1053 1.407 . S
C1052 C1057 1.418 . S
C1052 O1106 1.334 . S
C1053 C1052 1.407 . S
C1053 C1054 1.360 . S
C1053 H1114 0.929 . S
C1054 C1053 1.360 . S
C1054 C1055 1.401 . S
C1054 C1058 1.527 . S
C1055 C1054 1.401 . S
C1055 C1056 1.405 . S
C1055 C1088 1.587 . S
C1056 C1055 1.405 . S
C1056 C1057 1.332 . S
C1056 C1059 1.496 . S
C1057 C1052 1.418 . S
C1057 C1056 1.332 . S
C1057 H1115 0.929 . S
C1058 C1054 1.527 . S
C1058 H1116 0.959 . S
C1058 H1117 0.961 . S
C1058 H1118 0.961 . S
C1059 C1056 1.496 . S
C1059 H1119 0.960 . S
C1059 H1120 0.960 . S
C1059 H1121 0.961 . S
C1060 C1061 1.517 . S
C1060 H1123 0.961 . S
C1060 H1124 0.960 . S
C1060 H1125 0.959 . S
C1061 C1060 1.517 . S
C1061 O1109 1.468 . S
C1061 H1122 0.980 . S
C1062 C1063 1.349 . S
C1062 C1067 1.367 . S
C1062 O1109 1.408 . S
C1063 C1062 1.349 . S
C1063 C1064 1.407 . S
C1063 H1126 0.930 . S
C1064 C1063 1.407 . S
C1064 C1065 1.449 . S
C1064 C1068 1.535 . S
C1065 C1064 1.449 . S
C1065 C1066 1.384 . S
C1065 C1090 1.553 . S
C1066 C1065 1.384 . S
C1066 C1067 1.364 . S
C1066 C1069 1.450 . S
C1067 C1062 1.367 . S
C1067 C1066 1.364 . S
C1067 H1127 0.931 . S
C1068 C1064 1.535 . S
C1068 H1128 0.959 . S
C1068 H1129 0.961 . S
C1068 H1130 0.959 . S
C1069 C1066 1.450 . S
C1069 H1131 0.960 . S
C1069 H1132 0.960 . S
C1069 H1133 0.960 . S
C1070 C1071 1.309 . S
C1070 C1075 1.304 . S
C1070 O1108 1.435 . S
C1071 C1070 1.309 . S
C1071 C1072 1.476 . S
C1071 H1135 0.930 . S
C1072 C1071 1.476 . S
C1072 C1073 1.400 . S
C1072 C1076 1.567 . S
C1073 C1072 1.400 . S
C1073 C1074 1.373 . S
C1073 C1095 1.432 . S
C1074 C1073 1.373 . S
C1074 C1075 1.339 . S
C1074 C1077 1.530 . S
C1075 C1070 1.304 . S
C1075 C1074 1.339 . S
C1075 H1136 0.930 . S
C1076 C1072 1.567 . S
C1076 H1137 0.961 . S
C1076 H1138 0.960 . S
C1076 H1139 0.958 . S
C1077 C1074 1.530 . S
C1077 H1140 0.961 . S
C1077 H1141 0.960 . S
C1077 H1142 0.960 . S
C1078 C1079 1.530 . S
C1078 H1144 0.961 . S
C1078 H1145 0.961 . S
C1078 H1146 0.959 . S
C1079 C1078 1.530 . S
C1079 O1107 1.412 . S
C1079 H1143 0.980 . S
C1080 C1081 1.288 . S
C1080 C1085 1.377 . S
C1080 O1107 1.393 . S
C1081 C1080 1.288 . S
C1081 C1082 1.369 . S
C1081 H1147 0.932 . S
C1082 C1081 1.369 . S
C1082 C1083 1.398 . S
C1082 C1086 1.527 . S
C1083 C1082 1.398 . S
C1083 C1084 1.380 . S
C1083 C1097 1.497 . S
C1084 C1083 1.380 . S
C1084 C1085 1.383 . S
C1084 C1087 1.603 . S
C1085 C1080 1.377 . S
C1085 C1084 1.383 . S
C1085 H1148 0.929 . S
C1086 C1082 1.527 . S
C1086 H1149 0.961 . S
C1086 H1150 0.959 . S
C1086 H1151 0.959 . S
C1087 C1084 1.603 . S
C1087 H1152 0.960 . S
C1087 H1153 0.962 . S
C1087 H1154 0.961 . S
C1088 C1055 1.587 . S
C1088 C1089 1.360 . S
C1088 C1101 1.412 . S
C1089 C1088 1.360 . S
C1089 C1090 1.365 . S
C1089 H1155 0.929 . S
C1090 C1065 1.553 . S
C1090 C1089 1.365 . S
C1090 C1091 1.404 . S
C1091 C1090 1.404 . S
C1091 C1092 1.395 . S
C1091 C1102 1.451 . S
C1092 C1091 1.395 . S
C1092 C1093 1.322 . S
C1092 H1156 0.930 . S
C1093 C1092 1.322 . S
C1093 C1094 1.459 . S
C1093 H1157 0.929 . S
C1094 C1093 1.459 . S
C1094 C1095 1.445 . S
C1094 C1103 1.395 . S
C1095 C1073 1.432 . S
C1095 C1094 1.445 . S
C1095 C1096 1.370 . S
C1096 C1095 1.370 . S
C1096 C1097 1.438 . S
C1096 H1158 0.930 . S
C1097 C1083 1.497 . S
C1097 C1096 1.438 . S
C1097 C1098 1.360 . S
C1098 C1097 1.360 . S
C1098 C1099 1.401 . S
C1098 C1103 1.446 . S
C1099 C1098 1.401 . S
C1099 C1100 1.347 . S
C1099 H1159 0.929 . S
C1100 C1099 1.347 . S
C1100 C1101 1.455 . S
C1100 H1160 0.930 . S
C1101 C1088 1.412 . S
C1101 C1100 1.455 . S
C1101 C1102 1.331 . S
C1102 C1091 1.451 . S
C1102 C1101 1.331 . S
C1102 C1103 1.497 . S
C1103 C1094 1.395 . S
C1103 C1098 1.446 . S
C1103 C1102 1.497 . S
C1104 C1105 1.582 . S
C1104 H1161 0.962 . S
C1104 H1162 0.959 . S
C1104 H1163 0.958 . S
C1105 C1104 1.582 . S
C1105 O1108 1.458 . S
C1105 H1134 0.980 . S
O1106 C1051 1.426 . S
O1106 C1052 1.334 . S
O1107 C1079 1.412 . S
O1107 C1080 1.393 . S
O1108 C1070 1.435 . S
O1108 C1105 1.458 . S
O1109 C1061 1.468 . S
O1109 C1062 1.408 . S
H1110 C1051 0.980 . S
H1111 C1050 0.959 . S
H1112 C1050 0.959 . S
H1113 C1050 0.960 . S
H1114 C1053 0.929 . S
H1115 C1057 0.929 . S
H1116 C1058 0.959 . S
H1117 C1058 0.961 . S
H1118 C1058 0.961 . S
H1119 C1059 0.960 . S
H1120 C1059 0.960 . S
H1121 C1059 0.961 . S
H1122 C1061 0.980 . S
H1123 C1060 0.961 . S
H1124 C1060 0.960 . S
H1125 C1060 0.959 . S
H1126 C1063 0.930 . S
H1127 C1067 0.931 . S
H1128 C1068 0.959 . S
H1129 C1068 0.961 . S
H1130 C1068 0.959 . S
H1131 C1069 0.960 . S
H1132 C1069 0.960 . S
H1133 C1069 0.960 . S
H1134 C1105 0.980 . S
H1135 C1071 0.930 . S
H1136 C1075 0.930 . S
H1137 C1076 0.961 . S
H1138 C1076 0.960 . S
H1139 C1076 0.958 . S
H1140 C1077 0.961 . S
H1141 C1077 0.960 . S
H1142 C1077 0.960 . S
H1143 C1079 0.980 . S
H1144 C1078 0.961 . S
H1145 C1078 0.961 . S
H1146 C1078 0.959 . S
H1147 C1081 0.932 . S
H1148 C1085 0.929 . S
H1149 C1086 0.961 . S
H1150 C1086 0.959 . S
H1151 C1086 0.959 . S
H1152 C1087 0.960 . S
H1153 C1087 0.962 . S
H1154 C1087 0.961 . S
H1155 C1089 0.929 . S
H1156 C1092 0.930 . S
H1157 C1093 0.929 . S
H1158 C1096 0.930 . S
H1159 C1099 0.929 . S
H1160 C1100 0.930 . S
H1161 C1104 0.962 . S
H1162 C1104 0.959 . S
H1163 C1104 0.958 . S
C1164 C1165 1.560 . S
C1164 H1225 0.959 . S
C1164 H1226 0.959 . S
C1164 H1227 0.960 . S
C1165 C1164 1.560 . S
C1165 O1220 1.426 . S
C1165 H1224 0.980 . S
C1166 C1167 1.407 . S
C1166 C1171 1.418 . S
C1166 O1220 1.334 . S
C1167 C1166 1.407 . S
C1167 C1168 1.360 . S
C1167 H1228 0.929 . S
C1168 C1167 1.360 . S
C1168 C1169 1.401 . S
C1168 C1172 1.527 . S
C1169 C1168 1.401 . S
C1169 C1170 1.405 . S
C1169 C1202 1.587 . S
C1170 C1169 1.405 . S
C1170 C1171 1.332 . S
C1170 C1173 1.496 . S
C1171 C1166 1.418 . S
C1171 C1170 1.332 . S
C1171 H1229 0.929 . S
C1172 C1168 1.527 . S
C1172 H1230 0.959 . S
C1172 H1231 0.961 . S
C1172 H1232 0.961 . S
C1173 C1170 1.496 . S
C1173 H1233 0.960 . S
C1173 H1234 0.960 . S
C1173 H1235 0.961 . S
C1174 C1175 1.517 . S
C1174 H1237 0.961 . S
C1174 H1238 0.960 . S
C1174 H1239 0.959 . S
C1175 C1174 1.517 . S
C1175 O1223 1.468 . S
C1175 H1236 0.980 . S
C1176 C1177 1.349 . S
C1176 C1181 1.367 . S
C1176 O1223 1.408 . S
C1177 C1176 1.349 . S
C1177 C1178 1.407 . S
C1177 H1240 0.930 . S
C1178 C1177 1.407 . S
C1178 C1179 1.449 . S
C1178 C1182 1.535 . S
C1179 C1178 1.449 . S
C1179 C1180 1.384 . S
C1179 C1204 1.553 . S
C1180 C1179 1.384 . S
C1180 C1181 1.364 . S
C1180 C1183 1.450 . S
C1181 C1176 1.367 . S
C1181 C1180 1.364 . S
C1181 H1241 0.931 . S
C1182 C1178 1.535 . S
C1182 H1242 0.959 . S
C1182 H1243 0.961 . S
C1182 H1244 0.959 . S
C1183 C1180 1.450 . S
C1183 H1245 0.960 . S
C1183 H1246 0.960 . S
C1183 H1247 0.960 . S
C1184 C1185 1.309 . S
C1184 C1189 1.304 . S
C1184 O1222 1.435 . S
C1185 C1184 1.309 . S
C1185 C1186 1.476 . S
C1185 H1249 0.930 . S
C1186 C1185 1.476 . S
C1186 C1187 1.400 . S
C1186 C1190 1.567 . S
C1187 C1186 1.400 . S
C1187 C1188 1.373 . S
C1187 C1209 1.432 . S
C1188 C1187 1.373 . S
C1188 C1189 1.339 . S
C1188 C1191 1.530 . S
C1189 C1184 1.304 . S
C1189 C1188 1.339 . S
C1189 H1250 0.930 . S
C1190 C1186 1.567 . S
C1190 H1251 0.961 . S
C1190 H1252 0.960 . S
C1190 H1253 0.958 . S
C1191 C1188 1.530 . S
C1191 H1254 0.961 . S
C1191 H1255 0.960 . S
C1191 H1256 0.960 . S
C1192 C1193 1.530 . S
C1192 H1258 0.961 . S
C1192 H1259 0.961 . S
C1192 H1260 0.959 . S
C1193 C1192 1.530 . S
C1193 O1221 1.412 . S
C1193 H1257 0.980 . S
C1194 C1195 1.288 . S
C1194 C1199 1.377 . S
C1194 O1221 1.393 . S
C1195 C1194 1.288 . S
C1195 C1196 1.369 . S
C1195 H1261 0.932 . S
C1196 C1195 1.369 . S
C1196 C1197 1.398 . S
C1196 C1200 1.527 . S
C1197 C1196 1.398 . S
C1197 C1198 1.380 . S
C1197 C1211 1.497 . S
C1198 C1197 1.380 . S
C1198 C1199 1.383 . S
C1198 C1201 1.603 . S
C1199 C1194 1.377 . S
C1199 C1198 1.383 . S
C1199 H1262 0.929 . S
C1200 C1196 1.527 . S
C1200 H1263 0.961 . S
C1200 H1264 0.959 . S
C1200 H1265 0.959 . S
C1201 C1198 1.603 . S
C1201 H1266 0.960 . S
C1201 H1267 0.962 . S
C1201 H1268 0.961 . S
C1202 C1169 1.587 . S
C1202 C1203 1.360 . S
C1202 C1215 1.412 . S
C1203 C1202 1.360 . S
C1203 C1204 1.365 . S
C1203 H1269 0.929 . S
C1204 C1179 1.553 . S
C1204 C1203 1.365 . S
C1204 C1205 1.404 . S
C1205 C1204 1.404 . S
C1205 C1206 1.395 . S
C1205 C1216 1.451 . S
C1206 C1205 1.395 . S
C1206 C1207 1.322 . S
C1206 H1270 0.930 . S
C1207 C1206 1.322 . S
C1207 C1208 1.459 . S
C1207 H1271 0.929 . S
C1208 C1207 1.459 . S
C1208 C1209 1.445 . S
C1208 C1217 1.395 . S
C1209 C1187 1.432 . S
C1209 C1208 1.445 . S
C1209 C1210 1.370 . S
C1210 C1209 1.370 . S
C1210 C1211 1.438 . S
C1210 H1272 0.930 . S
C1211 C1197 1.497 . S
C1211 C1210 1.438 . S
C1211 C1212 1.360 . S
C1212 C1211 1.360 . S
C1212 C1213 1.401 . S
C1212 C1217 1.446 . S
C1213 C1212 1.401 . S
C1213 C1214 1.347 . S
C1213 H1273 0.929 . S
C1214 C1213 1.347 . S
C1214 C1215 1.455 . S
C1214 H1274 0.930 . S
C1215 C1202 1.412 . S
C1215 C1214 1.455 . S
C1215 C1216 1.331 . S
C1216 C1205 1.451 . S
C1216 C1215 1.331 . S
C1216 C1217 1.497 . S
C1217 C1208 1.395 . S
C1217 C1212 1.446 . S
C1217 C1216 1.497 . S
C1218 C1219 1.582 . S
C1218 H1275 0.962 . S
C1218 H1276 0.959 . S
C1218 H1277 0.958 . S
C1219 C1218 1.582 . S
C1219 O1222 1.458 . S
C1219 H1248 0.980 . S
O1220 C1165 1.426 . S
O1220 C1166 1.334 . S
O1221 C1193 1.412 . S
O1221 C1194 1.393 . S
O1222 C1184 1.435 . S
O1222 C1219 1.458 . S
O1223 C1175 1.468 . S
O1223 C1176 1.408 . S
H1224 C1165 0.980 . S
H1225 C1164 0.959 . S
H1226 C1164 0.959 . S
H1227 C1164 0.960 . S
H1228 C1167 0.929 . S
H1229 C1171 0.929 . S
H1230 C1172 0.959 . S
H1231 C1172 0.961 . S
H1232 C1172 0.961 . S
H1233 C1173 0.960 . S
H1234 C1173 0.960 . S
H1235 C1173 0.961 . S
H1236 C1175 0.980 . S
H1237 C1174 0.961 . S
H1238 C1174 0.960 . S
H1239 C1174 0.959 . S
H1240 C1177 0.930 . S
H1241 C1181 0.931 . S
H1242 C1182 0.959 . S
H1243 C1182 0.961 . S
H1244 C1182 0.959 . S
H1245 C1183 0.960 . S
H1246 C1183 0.960 . S
H1247 C1183 0.960 . S
H1248 C1219 0.980 . S
H1249 C1185 0.930 . S
H1250 C1189 0.930 . S
H1251 C1190 0.961 . S
H1252 C1190 0.960 . S
H1253 C1190 0.958 . S
H1254 C1191 0.961 . S
H1255 C1191 0.960 . S
H1256 C1191 0.960 . S
H1257 C1193 0.980 . S
H1258 C1192 0.961 . S
H1259 C1192 0.961 . S
H1260 C1192 0.959 . S
H1261 C1195 0.932 . S
H1262 C1199 0.929 . S
H1263 C1200 0.961 . S
H1264 C1200 0.959 . S
H1265 C1200 0.959 . S
H1266 C1201 0.960 . S
H1267 C1201 0.962 . S
H1268 C1201 0.961 . S
H1269 C1203 0.929 . S
H1270 C1206 0.930 . S
H1271 C1207 0.929 . S
H1272 C1210 0.930 . S
H1273 C1213 0.929 . S
H1274 C1214 0.930 . S
H1275 C1218 0.962 . S
H1276 C1218 0.959 . S
H1277 C1218 0.958 . S
C1278 C1279 1.560 . S
C1278 H1339 0.959 . S
C1278 H1340 0.959 . S
C1278 H1341 0.960 . S
C1279 C1278 1.560 . S
C1279 O1334 1.426 . S
C1279 H1338 0.980 . S
C1280 C1281 1.407 1_455 S
C1280 C1285 1.418 . S
C1280 O1334 1.334 . S
C1281 C1280 1.407 1_655 S
C1281 C1282 1.360 . S
C1281 H1342 0.929 . S
C1282 C1281 1.360 . S
C1282 C1283 1.401 1_655 S
C1282 C1286 1.527 . S
C1283 C1282 1.401 1_455 S
C1283 C1284 1.405 . S
C1283 C1316 1.587 1_455 S
C1284 C1283 1.405 . S
C1284 C1285 1.332 . S
C1284 C1287 1.496 . S
C1285 C1280 1.418 . S
C1285 C1284 1.332 . S
C1285 H1343 0.929 . S
C1286 C1282 1.527 . S
C1286 H1344 0.959 . S
C1286 H1345 0.961 . S
C1286 H1346 0.961 . S
C1287 C1284 1.496 . S
C1287 H1347 0.960 . S
C1287 H1348 0.960 . S
C1287 H1349 0.961 . S
C1288 C1289 1.517 . S
C1288 H1351 0.961 . S
C1288 H1352 0.960 . S
C1288 H1353 0.959 . S
C1289 C1288 1.517 . S
C1289 O1337 1.468 . S
C1289 H1350 0.980 1_655 S
C1290 C1291 1.349 . S
C1290 C1295 1.367 . S
C1290 O1337 1.408 . S
C1291 C1290 1.349 . S
C1291 C1292 1.394 1_655 S
C1291 H1354 0.930 1_655 S
C1292 C1291 1.394 1_455 S
C1292 C1293 1.438 1_455 S
C1292 C1296 1.557 . S
C1293 C1292 1.438 1_655 S
C1293 C1294 1.384 . S
C1293 C1318 1.553 . S
C1294 C1293 1.384 . S
C1294 C1295 1.364 . S
C1294 C1297 1.450 . S
C1295 C1290 1.367 . S
C1295 C1294 1.364 . S
C1295 H1355 0.931 . S
C1296 C1292 1.557 . S
C1296 H1356 0.959 . S
C1296 H1357 0.961 . S
C1296 H1358 0.959 . S
C1297 C1294 1.450 . S
C1297 H1359 0.960 . S
C1297 H1360 0.960 . S
C1297 H1361 0.960 . S
C1298 C1299 1.309 . S
C1298 C1303 1.304 . S
C1298 O1336 1.435 . S
C1299 C1298 1.309 . S
C1299 C1300 1.455 1_655 S
C1299 H1363 0.930 1_655 S
C1300 C1299 1.455 1_455 S
C1300 C1301 1.387 1_455 S
C1300 C1304 1.600 . S
C1301 C1300 1.387 1_655 S
C1301 C1302 1.373 . S
C1301 C1323 1.432 . S
C1302 C1301 1.373 . S
C1302 C1303 1.339 . S
C1302 C1305 1.530 . S
C1303 C1298 1.304 . S
C1303 C1302 1.339 . S
C1303 H1364 0.930 . S
C1304 C1300 1.600 . S
C1304 H1365 0.961 . S
C1304 H1366 0.960 . S
C1304 H1367 0.958 . S
C1305 C1302 1.530 . S
C1305 H1368 0.961 . S
C1305 H1369 0.960 . S
C1305 H1370 0.960 . S
C1306 C1307 1.576 . S
C1306 H1372 0.961 . S
C1306 H1373 0.961 . S
C1306 H1374 0.959 . S
C1307 C1306 1.576 . S
C1307 O1335 1.422 . S
C1307 H1371 0.967 1_455 S
C1308 C1309 1.288 . S
C1308 C1313 1.377 1_455 S
C1308 O1335 1.393 . S
C1309 C1308 1.288 . S
C1309 C1310 1.369 . S
C1309 H1375 0.932 . S
C1310 C1309 1.369 . S
C1310 C1311 1.398 1_455 S
C1310 C1314 1.527 . S
C1311 C1310 1.398 1_655 S
C1311 C1312 1.380 . S
C1311 C1325 1.497 . S
C1312 C1311 1.380 . S
C1312 C1313 1.383 . S
C1312 C1315 1.603 . S
C1313 C1308 1.377 1_655 S
C1313 C1312 1.383 . S
C1313 H1376 0.929 . S
C1314 C1310 1.527 . S
C1314 H1377 0.961 . S
C1314 H1378 0.959 . S
C1314 H1379 0.959 . S
C1315 C1312 1.603 . S
C1315 H1380 0.960 . S
C1315 H1381 0.962 . S
C1315 H1382 0.961 . S
C1316 C1283 1.587 1_655 S
C1316 C1317 1.360 . S
C1316 C1329 1.412 . S
C1317 C1316 1.360 . S
C1317 C1318 1.365 . S
C1317 H1383 0.929 . S
C1318 C1293 1.553 . S
C1318 C1317 1.365 . S
C1318 C1319 1.404 . S
C1319 C1318 1.404 . S
C1319 C1320 1.395 . S
C1319 C1330 1.451 . S
C1320 C1319 1.395 . S
C1320 C1321 1.322 . S
C1320 H1384 0.930 . S
C1321 C1320 1.322 . S
C1321 C1322 1.459 . S
C1321 H1385 0.929 . S
C1322 C1321 1.459 . S
C1322 C1323 1.445 . S
C1322 C1331 1.395 . S
C1323 C1301 1.432 . S
C1323 C1322 1.445 . S
C1323 C1324 1.370 . S
C1324 C1323 1.370 . S
C1324 C1325 1.438 . S
C1324 H1386 0.930 . S
C1325 C1311 1.497 . S
C1325 C1324 1.438 . S
C1325 C1326 1.360 . S
C1326 C1325 1.360 . S
C1326 C1327 1.401 . S
C1326 C1331 1.446 . S
C1327 C1326 1.401 . S
C1327 C1328 1.347 . S
C1327 H1387 0.929 . S
C1328 C1327 1.347 . S
C1328 C1329 1.455 . S
C1328 H1388 0.930 . S
C1329 C1316 1.412 . S
C1329 C1328 1.455 . S
C1329 C1330 1.331 . S
C1330 C1319 1.451 . S
C1330 C1329 1.331 . S
C1330 C1331 1.497 . S
C1331 C1322 1.395 . S
C1331 C1326 1.446 . S
C1331 C1330 1.497 . S
C1332 C1333 1.582 . S
C1332 H1389 0.962 . S
C1332 H1390 0.959 . S
C1332 H1391 0.958 . S
C1333 C1332 1.582 . S
C1333 O1336 1.458 . S
C1333 H1362 0.980 . S
O1334 C1279 1.426 . S
O1334 C1280 1.334 . S
O1335 C1307 1.422 . S
O1335 C1308 1.393 . S
O1336 C1298 1.435 . S
O1336 C1333 1.458 . S
O1337 C1289 1.468 . S
O1337 C1290 1.408 . S
H1338 C1279 0.980 . S
H1339 C1278 0.959 . S
H1340 C1278 0.959 . S
H1341 C1278 0.960 . S
H1342 C1281 0.929 . S
H1343 C1285 0.929 . S
H1344 C1286 0.959 . S
H1345 C1286 0.961 . S
H1346 C1286 0.961 . S
H1347 C1287 0.960 . S
H1348 C1287 0.960 . S
H1349 C1287 0.961 . S
H1350 C1289 0.980 1_455 S
H1351 C1288 0.961 . S
H1352 C1288 0.960 . S
H1353 C1288 0.959 . S
H1354 C1291 0.930 1_455 S
H1355 C1295 0.931 . S
H1356 C1296 0.959 . S
H1357 C1296 0.961 . S
H1358 C1296 0.959 . S
H1359 C1297 0.960 . S
H1360 C1297 0.960 . S
H1361 C1297 0.960 . S
H1362 C1333 0.980 . S
H1363 C1299 0.930 1_455 S
H1364 C1303 0.930 . S
H1365 C1304 0.961 . S
H1366 C1304 0.960 . S
H1367 C1304 0.958 . S
H1368 C1305 0.961 . S
H1369 C1305 0.960 . S
H1370 C1305 0.960 . S
H1371 C1307 0.967 1_655 S
H1372 C1306 0.961 . S
H1373 C1306 0.961 . S
H1374 C1306 0.959 . S
H1375 C1309 0.932 . S
H1376 C1313 0.929 . S
H1377 C1314 0.961 . S
H1378 C1314 0.959 . S
H1379 C1314 0.959 . S
H1380 C1315 0.960 . S
H1381 C1315 0.962 . S
H1382 C1315 0.961 . S
H1383 C1317 0.929 . S
H1384 C1320 0.930 . S
H1385 C1321 0.929 . S
H1386 C1324 0.930 . S
H1387 C1327 0.929 . S
H1388 C1328 0.930 . S
H1389 C1332 0.962 . S
H1390 C1332 0.959 . S
H1391 C1332 0.958 . S
C1392 C1393 1.560 . S
C1392 H1453 0.959 . S
C1392 H1454 0.959 . S
C1392 H1455 0.960 . S
C1393 C1392 1.560 . S
C1393 O1448 1.426 . S
C1393 H1452 0.980 . S
C1394 C1395 1.407 . S
C1394 C1399 1.418 . S
C1394 O1448 1.334 . S
C1395 C1394 1.407 . S
C1395 C1396 1.360 . S
C1395 H1456 0.929 . S
C1396 C1395 1.360 . S
C1396 C1397 1.401 . S
C1396 C1400 1.527 . S
C1397 C1396 1.401 . S
C1397 C1398 1.405 . S
C1397 C1430 1.587 . S
C1398 C1397 1.405 . S
C1398 C1399 1.332 . S
C1398 C1401 1.496 . S
C1399 C1394 1.418 . S
C1399 C1398 1.332 . S
C1399 H1457 0.929 . S
C1400 C1396 1.527 . S
C1400 H1458 0.959 . S
C1400 H1459 0.961 . S
C1400 H1460 0.961 . S
C1401 C1398 1.496 . S
C1401 H1461 0.960 . S
C1401 H1462 0.960 . S
C1401 H1463 0.961 . S
C1402 C1403 1.517 . S
C1402 H1465 0.961 . S
C1402 H1466 0.960 . S
C1402 H1467 0.959 . S
C1403 C1402 1.517 . S
C1403 O1451 1.468 . S
C1403 H1464 0.980 . S
C1404 C1405 1.349 . S
C1404 C1409 1.367 . S
C1404 O1451 1.408 . S
C1405 C1404 1.349 . S
C1405 C1406 1.407 . S
C1405 H1468 0.930 . S
C1406 C1405 1.407 . S
C1406 C1407 1.449 . S
C1406 C1410 1.535 . S
C1407 C1406 1.449 . S
C1407 C1408 1.384 . S
C1407 C1432 1.553 . S
C1408 C1407 1.384 . S
C1408 C1409 1.364 . S
C1408 C1411 1.450 . S
C1409 C1404 1.367 . S
C1409 C1408 1.364 . S
C1409 H1469 0.931 . S
C1410 C1406 1.535 . S
C1410 H1470 0.959 . S
C1410 H1471 0.961 . S
C1410 H1472 0.959 . S
C1411 C1408 1.450 . S
C1411 H1473 0.960 . S
C1411 H1474 0.960 . S
C1411 H1475 0.960 . S
C1412 C1413 1.309 . S
C1412 C1417 1.304 . S
C1412 O1450 1.435 . S
C1413 C1412 1.309 . S
C1413 C1414 1.476 . S
C1413 H1477 0.930 . S
C1414 C1413 1.476 . S
C1414 C1415 1.400 . S
C1414 C1418 1.567 . S
C1415 C1414 1.400 . S
C1415 C1416 1.373 . S
C1415 C1437 1.432 . S
C1416 C1415 1.373 . S
C1416 C1417 1.339 . S
C1416 C1419 1.530 . S
C1417 C1412 1.304 . S
C1417 C1416 1.339 . S
C1417 H1478 0.930 . S
C1418 C1414 1.567 . S
C1418 H1479 0.961 . S
C1418 H1480 0.960 . S
C1418 H1481 0.958 . S
C1419 C1416 1.530 . S
C1419 H1482 0.961 . S
C1419 H1483 0.960 . S
C1419 H1484 0.960 . S
C1420 C1421 1.530 . S
C1420 H1486 0.961 . S
C1420 H1487 0.961 . S
C1420 H1488 0.959 . S
C1421 C1420 1.530 . S
C1421 O1449 1.412 . S
C1421 H1485 0.980 . S
C1422 C1423 1.288 . S
C1422 C1427 1.377 . S
C1422 O1449 1.393 . S
C1423 C1422 1.288 . S
C1423 C1424 1.369 . S
C1423 H1489 0.932 . S
C1424 C1423 1.369 . S
C1424 C1425 1.398 . S
C1424 C1428 1.527 . S
C1425 C1424 1.398 . S
C1425 C1426 1.380 . S
C1425 C1439 1.497 . S
C1426 C1425 1.380 . S
C1426 C1427 1.383 . S
C1426 C1429 1.603 . S
C1427 C1422 1.377 . S
C1427 C1426 1.383 . S
C1427 H1490 0.929 . S
C1428 C1424 1.527 . S
C1428 H1491 0.961 . S
C1428 H1492 0.959 . S
C1428 H1493 0.959 . S
C1429 C1426 1.603 . S
C1429 H1494 0.960 . S
C1429 H1495 0.962 . S
C1429 H1496 0.961 . S
C1430 C1397 1.587 . S
C1430 C1431 1.360 . S
C1430 C1443 1.412 . S
C1431 C1430 1.360 . S
C1431 C1432 1.365 . S
C1431 H1497 0.929 . S
C1432 C1407 1.553 . S
C1432 C1431 1.365 . S
C1432 C1433 1.404 . S
C1433 C1432 1.404 . S
C1433 C1434 1.395 . S
C1433 C1444 1.451 . S
C1434 C1433 1.395 . S
C1434 C1435 1.322 . S
C1434 H1498 0.930 . S
C1435 C1434 1.322 . S
C1435 C1436 1.459 . S
C1435 H1499 0.929 . S
C1436 C1435 1.459 . S
C1436 C1437 1.445 . S
C1436 C1445 1.395 . S
C1437 C1415 1.432 . S
C1437 C1436 1.445 . S
C1437 C1438 1.370 . S
C1438 C1437 1.370 . S
C1438 C1439 1.438 . S
C1438 H1500 0.930 . S
C1439 C1425 1.497 . S
C1439 C1438 1.438 . S
C1439 C1440 1.360 . S
C1440 C1439 1.360 . S
C1440 C1441 1.401 . S
C1440 C1445 1.446 . S
C1441 C1440 1.401 . S
C1441 C1442 1.347 . S
C1441 H1501 0.929 . S
C1442 C1441 1.347 . S
C1442 C1443 1.455 . S
C1442 H1502 0.930 . S
C1443 C1430 1.412 . S
C1443 C1442 1.455 . S
C1443 C1444 1.331 . S
C1444 C1433 1.451 . S
C1444 C1443 1.331 . S
C1444 C1445 1.497 . S
C1445 C1436 1.395 . S
C1445 C1440 1.446 . S
C1445 C1444 1.497 . S
C1446 C1447 1.582 . S
C1446 H1503 0.962 . S
C1446 H1504 0.959 . S
C1446 H1505 0.958 . S
C1447 C1446 1.582 . S
C1447 O1450 1.458 . S
C1447 H1476 0.980 . S
O1448 C1393 1.426 . S
O1448 C1394 1.334 . S
O1449 C1421 1.412 . S
O1449 C1422 1.393 . S
O1450 C1412 1.435 . S
O1450 C1447 1.458 . S
O1451 C1403 1.468 . S
O1451 C1404 1.408 . S
H1452 C1393 0.980 . S
H1453 C1392 0.959 . S
H1454 C1392 0.959 . S
H1455 C1392 0.960 . S
H1456 C1395 0.929 . S
H1457 C1399 0.929 . S
H1458 C1400 0.959 . S
H1459 C1400 0.961 . S
H1460 C1400 0.961 . S
H1461 C1401 0.960 . S
H1462 C1401 0.960 . S
H1463 C1401 0.961 . S
H1464 C1403 0.980 . S
H1465 C1402 0.961 . S
H1466 C1402 0.960 . S
H1467 C1402 0.959 . S
H1468 C1405 0.930 . S
H1469 C1409 0.931 . S
H1470 C1410 0.959 . S
H1471 C1410 0.961 . S
H1472 C1410 0.959 . S
H1473 C1411 0.960 . S
H1474 C1411 0.960 . S
H1475 C1411 0.960 . S
H1476 C1447 0.980 . S
H1477 C1413 0.930 . S
H1478 C1417 0.930 . S
H1479 C1418 0.961 . S
H1480 C1418 0.960 . S
H1481 C1418 0.958 . S
H1482 C1419 0.961 . S
H1483 C1419 0.960 . S
H1484 C1419 0.960 . S
H1485 C1421 0.980 . S
H1486 C1420 0.961 . S
H1487 C1420 0.961 . S
H1488 C1420 0.959 . S
H1489 C1423 0.932 . S
H1490 C1427 0.929 . S
H1491 C1428 0.961 . S
H1492 C1428 0.959 . S
H1493 C1428 0.959 . S
H1494 C1429 0.960 . S
H1495 C1429 0.962 . S
H1496 C1429 0.961 . S
H1497 C1431 0.929 . S
H1498 C1434 0.930 . S
H1499 C1435 0.929 . S
H1500 C1438 0.930 . S
H1501 C1441 0.929 . S
H1502 C1442 0.930 . S
H1503 C1446 0.962 . S
H1504 C1446 0.959 . S
H1505 C1446 0.958 . S
C1506 C1507 1.560 . S
C1506 H1567 0.959 . S
C1506 H1568 0.959 . S
C1506 H1569 0.960 . S
C1507 C1506 1.560 . S
C1507 O1562 1.426 . S
C1507 H1566 0.980 . S
C1508 C1509 1.407 1_565 S
C1508 C1513 1.418 . S
C1508 O1562 1.334 . S
C1509 C1508 1.407 1_545 S
C1509 C1510 1.360 . S
C1509 H1570 0.929 . S
C1510 C1509 1.360 . S
C1510 C1511 1.401 1_545 S
C1510 C1514 1.527 . S
C1511 C1510 1.401 1_565 S
C1511 C1512 1.405 . S
C1511 C1544 1.587 1_565 S
C1512 C1511 1.405 . S
C1512 C1513 1.332 . S
C1512 C1515 1.496 . S
C1513 C1508 1.418 . S
C1513 C1512 1.332 . S
C1513 H1571 0.929 . S
C1514 C1510 1.527 . S
C1514 H1572 0.959 . S
C1514 H1573 0.961 . S
C1514 H1574 0.961 . S
C1515 C1512 1.496 . S
C1515 H1575 0.960 . S
C1515 H1576 0.960 . S
C1515 H1577 0.961 . S
C1516 C1517 1.517 . S
C1516 H1579 0.908 1_545 S
C1516 H1580 0.960 . S
C1516 H1581 0.959 . S
C1517 C1516 1.517 . S
C1517 O1565 1.468 . S
C1517 H1578 0.980 1_545 S
C1518 C1519 1.349 . S
C1518 C1523 1.367 . S
C1518 O1565 1.408 . S
C1519 C1518 1.349 . S
C1519 C1520 1.407 1_545 S
C1519 H1582 0.930 1_545 S
C1520 C1519 1.407 1_565 S
C1520 C1521 1.449 1_565 S
C1520 C1524 1.535 . S
C1521 C1520 1.449 1_545 S
C1521 C1522 1.384 . S
C1521 C1546 1.553 . S
C1522 C1521 1.384 . S
C1522 C1523 1.364 . S
C1522 C1525 1.450 . S
C1523 C1518 1.367 . S
C1523 C1522 1.364 . S
C1523 H1583 0.931 . S
C1524 C1520 1.535 . S
C1524 H1584 0.959 . S
C1524 H1585 0.961 . S
C1524 H1586 0.959 . S
C1525 C1522 1.450 . S
C1525 H1587 0.960 . S
C1525 H1588 0.960 . S
C1525 H1589 0.960 . S
C1526 C1527 1.309 . S
C1526 C1531 1.304 . S
C1526 O1564 1.435 . S
C1527 C1526 1.309 . S
C1527 C1528 1.481 1_545 S
C1527 H1591 0.930 1_545 S
C1528 C1527 1.481 1_565 S
C1528 C1529 1.382 1_565 S
C1528 C1532 1.580 . S
C1529 C1528 1.382 1_545 S
C1529 C1530 1.373 . S
C1529 C1551 1.432 . S
C1530 C1529 1.373 . S
C1530 C1531 1.339 . S
C1530 C1533 1.530 . S
C1531 C1526 1.304 . S
C1531 C1530 1.339 . S
C1531 H1592 0.930 . S
C1532 C1528 1.580 . S
C1532 H1593 0.961 . S
C1532 H1594 0.960 . S
C1532 H1595 0.958 . S
C1533 C1530 1.530 . S
C1533 H1596 0.961 . S
C1533 H1597 0.960 . S
C1533 H1598 0.960 . S
C1534 C1535 1.530 1_565 S
C1534 H1600 0.961 . S
C1534 H1601 0.961 . S
C1534 H1602 0.959 . S
C1535 C1534 1.530 1_545 S
C1535 O1563 1.412 1_545 S
C1535 H1599 0.980 . S
C1536 C1537 1.288 . S
C1536 C1541 1.377 1_565 S
C1536 O1563 1.393 . S
C1537 C1536 1.288 . S
C1537 C1538 1.369 . S
C1537 H1603 0.932 . S
C1538 C1537 1.369 . S
C1538 C1539 1.398 1_565 S
C1538 C1542 1.527 . S
C1539 C1538 1.398 1_545 S
C1539 C1540 1.380 . S
C1539 C1553 1.497 . S
C1540 C1539 1.380 . S
C1540 C1541 1.383 . S
C1540 C1543 1.603 . S
C1541 C1536 1.377 1_545 S
C1541 C1540 1.383 . S
C1541 H1604 0.929 . S
C1542 C1538 1.527 . S
C1542 H1605 0.961 . S
C1542 H1606 0.959 . S
C1542 H1607 0.959 . S
C1543 C1540 1.603 . S
C1543 H1608 0.960 . S
C1543 H1609 0.962 . S
C1543 H1610 0.961 . S
C1544 C1511 1.587 1_545 S
C1544 C1545 1.360 . S
C1544 C1557 1.412 . S
C1545 C1544 1.360 . S
C1545 C1546 1.365 . S
C1545 H1611 0.929 . S
C1546 C1521 1.553 . S
C1546 C1545 1.365 . S
C1546 C1547 1.404 . S
C1547 C1546 1.404 . S
C1547 C1548 1.395 . S
C1547 C1558 1.451 . S
C1548 C1547 1.395 . S
C1548 C1549 1.322 . S
C1548 H1612 0.930 . S
C1549 C1548 1.322 . S
C1549 C1550 1.459 . S
C1549 H1613 0.929 . S
C1550 C1549 1.459 . S
C1550 C1551 1.445 . S
C1550 C1559 1.395 . S
C1551 C1529 1.432 . S
C1551 C1550 1.445 . S
C1551 C1552 1.370 . S
C1552 C1551 1.370 . S
C1552 C1553 1.438 . S
C1552 H1614 0.930 . S
C1553 C1539 1.497 . S
C1553 C1552 1.438 . S
C1553 C1554 1.360 . S
C1554 C1553 1.360 . S
C1554 C1555 1.401 . S
C1554 C1559 1.446 . S
C1555 C1554 1.401 . S
C1555 C1556 1.347 . S
C1555 H1615 0.929 . S
C1556 C1555 1.347 . S
C1556 C1557 1.455 . S
C1556 H1616 0.930 . S
C1557 C1544 1.412 . S
C1557 C1556 1.455 . S
C1557 C1558 1.331 . S
C1558 C1547 1.451 . S
C1558 C1557 1.331 . S
C1558 C1559 1.497 . S
C1559 C1550 1.395 . S
C1559 C1554 1.446 . S
C1559 C1558 1.497 . S
C1560 C1561 1.582 . S
C1560 H1617 0.962 . S
C1560 H1618 0.959 . S
C1560 H1619 0.958 . S
C1561 C1560 1.582 . S
C1561 O1564 1.458 . S
C1561 H1590 0.980 . S
O1562 C1507 1.426 . S
O1562 C1508 1.334 . S
O1563 C1535 1.412 1_565 S
O1563 C1536 1.393 . S
O1564 C1526 1.435 . S
O1564 C1561 1.458 . S
O1565 C1517 1.468 . S
O1565 C1518 1.408 . S
H1566 C1507 0.980 . S
H1567 C1506 0.959 . S
H1568 C1506 0.959 . S
H1569 C1506 0.960 . S
H1570 C1509 0.929 . S
H1571 C1513 0.929 . S
H1572 C1514 0.959 . S
H1573 C1514 0.961 . S
H1574 C1514 0.961 . S
H1575 C1515 0.960 . S
H1576 C1515 0.960 . S
H1577 C1515 0.961 . S
H1578 C1517 0.980 1_565 S
H1579 C1516 0.908 1_565 S
H1580 C1516 0.960 . S
H1581 C1516 0.959 . S
H1582 C1519 0.930 1_565 S
H1583 C1523 0.931 . S
H1584 C1524 0.959 . S
H1585 C1524 0.961 . S
H1586 C1524 0.959 . S
H1587 C1525 0.960 . S
H1588 C1525 0.960 . S
H1589 C1525 0.960 . S
H1590 C1561 0.980 . S
H1591 C1527 0.930 1_565 S
H1592 C1531 0.930 . S
H1593 C1532 0.961 . S
H1594 C1532 0.960 . S
H1595 C1532 0.958 . S
H1596 C1533 0.961 . S
H1597 C1533 0.960 . S
H1598 C1533 0.960 . S
H1599 C1535 0.980 . S
H1600 C1534 0.961 . S
H1601 C1534 0.961 . S
H1602 C1534 0.959 . S
H1603 C1537 0.932 . S
H1604 C1541 0.929 . S
H1605 C1542 0.961 . S
H1606 C1542 0.959 . S
H1607 C1542 0.959 . S
H1608 C1543 0.960 . S
H1609 C1543 0.962 . S
H1610 C1543 0.961 . S
H1611 C1545 0.929 . S
H1612 C1548 0.930 . S
H1613 C1549 0.929 . S
H1614 C1552 0.930 . S
H1615 C1555 0.929 . S
H1616 C1556 0.930 . S
H1617 C1560 0.962 . S
H1618 C1560 0.959 . S
H1619 C1560 0.958 . S
C1620 C1621 1.560 . S
C1620 H1681 0.959 . S
C1620 H1682 0.959 . S
C1620 H1683 0.960 . S
C1621 C1620 1.560 . S
C1621 O1676 1.426 . S
C1621 H1680 0.980 1_565 S
C1622 C1623 1.407 1_565 S
C1622 C1627 1.418 . S
C1622 O1676 1.334 . S
C1623 C1622 1.407 1_545 S
C1623 C1624 1.360 . S
C1623 H1684 0.929 . S
C1624 C1623 1.360 . S
C1624 C1625 1.401 . S
C1624 C1628 1.527 . S
C1625 C1624 1.401 . S
C1625 C1626 1.405 1_545 S
C1625 C1658 1.587 . S
C1626 C1625 1.405 1_565 S
C1626 C1627 1.332 . S
C1626 C1629 1.496 . S
C1627 C1622 1.418 . S
C1627 C1626 1.332 . S
C1627 H1685 0.929 . S
C1628 C1624 1.527 . S
C1628 H1686 0.959 . S
C1628 H1687 0.961 . S
C1628 H1688 0.961 . S
C1629 C1626 1.496 . S
C1629 H1689 0.960 . S
C1629 H1690 0.960 . S
C1629 H1691 0.961 . S
C1630 C1631 1.517 . S
C1630 H1693 0.961 . S
C1630 H1694 0.960 . S
C1630 H1695 0.959 . S
C1631 C1630 1.517 . S
C1631 O1679 1.468 . S
C1631 H1692 0.980 . S
C1632 C1633 1.349 . S
C1632 C1637 1.367 . S
C1632 O1679 1.408 . S
C1633 C1632 1.349 . S
C1633 C1634 1.407 . S
C1633 H1696 0.912 1_545 S
C1634 C1633 1.407 . S
C1634 C1635 1.449 . S
C1634 C1638 1.535 1_545 S
C1635 C1634 1.449 . S
C1635 C1636 1.384 . S
C1635 C1660 1.553 . S
C1636 C1635 1.384 . S
C1636 C1637 1.364 . S
C1636 C1639 1.450 . S
C1637 C1632 1.367 . S
C1637 C1636 1.364 . S
C1637 H1697 0.931 . S
C1638 C1634 1.535 1_565 S
C1638 H1698 0.959 . S
C1638 H1699 0.961 . S
C1638 H1700 0.959 . S
C1639 C1636 1.450 . S
C1639 H1701 0.960 . S
C1639 H1702 0.960 . S
C1639 H1703 0.960 . S
C1640 C1641 1.309 1_545 S
C1640 C1645 1.304 . S
C1640 O1678 1.435 . S
C1641 C1640 1.309 1_565 S
C1641 C1642 1.476 . S
C1641 H1705 0.930 . S
C1642 C1641 1.476 . S
C1642 C1643 1.400 1_565 S
C1642 C1646 1.567 . S
C1643 C1642 1.400 1_545 S
C1643 C1644 1.373 . S
C1643 C1665 1.432 . S
C1644 C1643 1.373 . S
C1644 C1645 1.339 . S
C1644 C1647 1.530 . S
C1645 C1640 1.304 . S
C1645 C1644 1.339 . S
C1645 H1706 0.930 . S
C1646 C1642 1.567 . S
C1646 H1707 0.961 . S
C1646 H1708 0.960 . S
C1646 H1709 0.958 . S
C1647 C1644 1.530 . S
C1647 H1710 0.961 . S
C1647 H1711 0.960 . S
C1647 H1712 0.960 . S
C1648 C1649 1.530 . S
C1648 H1714 0.961 . S
C1648 H1715 0.961 . S
C1648 H1716 0.959 . S
C1649 C1648 1.530 . S
C1649 O1677 1.412 . S
C1649 H1713 0.978 . S
C1650 C1651 1.288 . S
C1650 C1655 1.377 1_565 S
C1650 O1677 1.393 . S
C1651 C1650 1.288 . S
C1651 C1652 1.369 . S
C1651 H1717 0.932 . S
C1652 C1651 1.369 . S
C1652 C1653 1.398 . S
C1652 C1656 1.527 . S
C1653 C1652 1.398 . S
C1653 C1654 1.380 1_565 S
C1653 C1667 1.497 1_565 S
C1654 C1653 1.380 1_545 S
C1654 C1655 1.383 . S
C1654 C1657 1.603 . S
C1655 C1650 1.377 1_545 S
C1655 C1654 1.383 . S
C1655 H1718 0.929 . S
C1656 C1652 1.527 . S
C1656 H1719 0.961 . S
C1656 H1720 0.959 . S
C1656 H1721 0.959 . S
C1657 C1654 1.603 . S
C1657 H1722 0.960 . S
C1657 H1723 0.962 . S
C1657 H1724 0.961 . S
C1658 C1625 1.587 . S
C1658 C1659 1.360 . S
C1658 C1671 1.412 . S
C1659 C1658 1.360 . S
C1659 C1660 1.365 . S
C1659 H1725 0.929 . S
C1660 C1635 1.553 . S
C1660 C1659 1.365 . S
C1660 C1661 1.404 . S
C1661 C1660 1.404 . S
C1661 C1662 1.395 . S
C1661 C1672 1.451 . S
C1662 C1661 1.395 . S
C1662 C1663 1.322 . S
C1662 H1726 0.930 . S
C1663 C1662 1.322 . S
C1663 C1664 1.459 . S
C1663 H1727 0.929 . S
C1664 C1663 1.459 . S
C1664 C1665 1.445 . S
C1664 C1673 1.395 . S
C1665 C1643 1.432 . S
C1665 C1664 1.445 . S
C1665 C1666 1.370 . S
C1666 C1665 1.370 . S
C1666 C1667 1.438 . S
C1666 H1728 0.930 . S
C1667 C1653 1.497 1_545 S
C1667 C1666 1.438 . S
C1667 C1668 1.360 . S
C1668 C1667 1.360 . S
C1668 C1669 1.401 . S
C1668 C1673 1.446 . S
C1669 C1668 1.401 . S
C1669 C1670 1.347 . S
C1669 H1729 0.929 . S
C1670 C1669 1.347 . S
C1670 C1671 1.455 . S
C1670 H1730 0.930 . S
C1671 C1658 1.412 . S
C1671 C1670 1.455 . S
C1671 C1672 1.331 . S
C1672 C1661 1.451 . S
C1672 C1671 1.331 . S
C1672 C1673 1.497 . S
C1673 C1664 1.395 . S
C1673 C1668 1.446 . S
C1673 C1672 1.497 . S
C1674 C1675 1.620 . S
C1674 H1731 0.962 . S
C1674 H1732 0.959 . S
C1674 H1733 0.958 . S
C1675 C1674 1.620 . S
C1675 O1678 1.474 . S
C1675 H1704 0.981 1_545 S
O1676 C1621 1.426 . S
O1676 C1622 1.334 . S
O1677 C1649 1.412 . S
O1677 C1650 1.393 . S
O1678 C1640 1.435 . S
O1678 C1675 1.474 . S
O1679 C1631 1.468 . S
O1679 C1632 1.408 . S
H1680 C1621 0.980 1_545 S
H1681 C1620 0.959 . S
H1682 C1620 0.959 . S
H1683 C1620 0.960 . S
H1684 C1623 0.929 . S
H1685 C1627 0.929 . S
H1686 C1628 0.959 . S
H1687 C1628 0.961 . S
H1688 C1628 0.961 . S
H1689 C1629 0.960 . S
H1690 C1629 0.960 . S
H1691 C1629 0.961 . S
H1692 C1631 0.980 . S
H1693 C1630 0.961 . S
H1694 C1630 0.960 . S
H1695 C1630 0.959 . S
H1696 C1633 0.912 1_565 S
H1697 C1637 0.931 . S
H1698 C1638 0.959 . S
H1699 C1638 0.961 . S
H1700 C1638 0.959 . S
H1701 C1639 0.960 . S
H1702 C1639 0.960 . S
H1703 C1639 0.960 . S
H1704 C1675 0.981 1_565 S
H1705 C1641 0.930 . S
H1706 C1645 0.930 . S
H1707 C1646 0.961 . S
H1708 C1646 0.960 . S
H1709 C1646 0.958 . S
H1710 C1647 0.961 . S
H1711 C1647 0.960 . S
H1712 C1647 0.960 . S
H1713 C1649 0.978 . S
H1714 C1648 0.961 . S
H1715 C1648 0.961 . S
H1716 C1648 0.959 . S
H1717 C1651 0.932 . S
H1718 C1655 0.929 . S
H1719 C1656 0.961 . S
H1720 C1656 0.959 . S
H1721 C1656 0.959 . S
H1722 C1657 0.960 . S
H1723 C1657 0.962 . S
H1724 C1657 0.961 . S
H1725 C1659 0.929 . S
H1726 C1662 0.930 . S
H1727 C1663 0.929 . S
H1728 C1666 0.930 . S
H1729 C1669 0.929 . S
H1730 C1670 0.930 . S
H1731 C1674 0.962 . S
H1732 C1674 0.959 . S
H1733 C1674 0.958 . S
C1734 C1735 1.560 . S
C1734 H1795 0.959 . S
C1734 H1796 0.959 . S
C1734 H1797 0.960 . S
C1735 C1734 1.560 . S
C1735 O1790 1.426 . S
C1735 H1794 0.980 1_455 S
C1736 C1737 1.407 1_455 S
C1736 C1741 1.418 . S
C1736 O1790 1.334 . S
C1737 C1736 1.407 1_655 S
C1737 C1738 1.360 . S
C1737 H1798 0.929 . S
C1738 C1737 1.360 . S
C1738 C1739 1.401 . S
C1738 C1742 1.527 . S
C1739 C1738 1.401 . S
C1739 C1740 1.405 1_655 S
C1739 C1772 1.587 . S
C1740 C1739 1.405 1_455 S
C1740 C1741 1.332 . S
C1740 C1743 1.496 . S
C1741 C1736 1.418 . S
C1741 C1740 1.332 . S
C1741 H1799 0.929 . S
C1742 C1738 1.527 . S
C1742 H1800 0.959 . S
C1742 H1801 0.961 . S
C1742 H1802 0.961 . S
C1743 C1740 1.496 . S
C1743 H1803 0.960 . S
C1743 H1804 0.960 . S
C1743 H1805 0.961 . S
C1744 C1745 1.517 . S
C1744 H1807 0.961 . S
C1744 H1808 0.960 . S
C1744 H1809 0.959 . S
C1745 C1744 1.517 . S
C1745 O1793 1.468 . S
C1745 H1806 0.980 . S
C1746 C1747 1.349 . S
C1746 C1751 1.367 . S
C1746 O1793 1.408 . S
C1747 C1746 1.349 . S
C1747 C1748 1.407 . S
C1747 H1810 0.898 1_655 S
C1748 C1747 1.407 . S
C1748 C1749 1.449 . S
C1748 C1752 1.535 1_655 S
C1749 C1748 1.449 . S
C1749 C1750 1.384 . S
C1749 C1774 1.553 . S
C1750 C1749 1.384 . S
C1750 C1751 1.364 . S
C1750 C1753 1.450 . S
C1751 C1746 1.367 . S
C1751 C1750 1.364 . S
C1751 H1811 0.931 . S
C1752 C1748 1.535 1_455 S
C1752 H1812 0.959 . S
C1752 H1813 0.961 . S
C1752 H1814 0.959 . S
C1753 C1750 1.450 . S
C1753 H1815 0.960 . S
C1753 H1816 0.960 . S
C1753 H1817 0.960 . S
C1754 C1755 1.309 1_655 S
C1754 C1759 1.304 . S
C1754 O1792 1.435 . S
C1755 C1754 1.309 1_455 S
C1755 C1756 1.476 . S
C1755 H1819 0.930 . S
C1756 C1755 1.476 . S
C1756 C1757 1.400 1_455 S
C1756 C1760 1.567 . S
C1757 C1756 1.400 1_655 S
C1757 C1758 1.373 . S
C1757 C1779 1.432 . S
C1758 C1757 1.373 . S
C1758 C1759 1.339 . S
C1758 C1761 1.530 . S
C1759 C1754 1.304 . S
C1759 C1758 1.339 . S
C1759 H1820 0.930 . S
C1760 C1756 1.567 . S
C1760 H1821 0.961 . S
C1760 H1822 0.960 . S
C1760 H1823 0.958 . S
C1761 C1758 1.530 . S
C1761 H1824 0.961 . S
C1761 H1825 0.960 . S
C1761 H1826 0.960 . S
C1762 C1763 1.530 . S
C1762 H1828 0.961 . S
C1762 H1829 0.961 . S
C1762 H1830 0.959 . S
C1763 C1762 1.530 . S
C1763 O1791 1.412 . S
C1763 H1827 0.977 1_455 S
C1764 C1765 1.288 . S
C1764 C1769 1.377 1_455 S
C1764 O1791 1.393 . S
C1765 C1764 1.288 . S
C1765 C1766 1.369 . S
C1765 H1831 0.932 . S
C1766 C1765 1.369 . S
C1766 C1767 1.398 . S
C1766 C1770 1.527 . S
C1767 C1766 1.398 . S
C1767 C1768 1.380 1_455 S
C1767 C1781 1.497 1_455 S
C1768 C1767 1.380 1_655 S
C1768 C1769 1.383 . S
C1768 C1771 1.603 . S
C1769 C1764 1.377 1_655 S
C1769 C1768 1.383 . S
C1769 H1832 0.929 . S
C1770 C1766 1.527 . S
C1770 H1833 0.961 . S
C1770 H1834 0.959 . S
C1770 H1835 0.959 . S
C1771 C1768 1.603 . S
C1771 H1836 0.960 . S
C1771 H1837 0.962 . S
C1771 H1838 0.961 . S
C1772 C1739 1.587 . S
C1772 C1773 1.360 . S
C1772 C1785 1.412 . S
C1773 C1772 1.360 . S
C1773 C1774 1.365 . S
C1773 H1839 0.929 . S
C1774 C1749 1.553 . S
C1774 C1773 1.365 . S
C1774 C1775 1.404 . S
C1775 C1774 1.404 . S
C1775 C1776 1.395 . S
C1775 C1786 1.451 . S
C1776 C1775 1.395 . S
C1776 C1777 1.322 . S
C1776 H1840 0.930 . S
C1777 C1776 1.322 . S
C1777 C1778 1.459 . S
C1777 H1841 0.929 . S
C1778 C1777 1.459 . S
C1778 C1779 1.445 . S
C1778 C1787 1.395 . S
C1779 C1757 1.432 . S
C1779 C1778 1.445 . S
C1779 C1780 1.370 . S
C1780 C1779 1.370 . S
C1780 C1781 1.438 . S
C1780 H1842 0.930 . S
C1781 C1767 1.497 1_655 S
C1781 C1780 1.438 . S
C1781 C1782 1.360 . S
C1782 C1781 1.360 . S
C1782 C1783 1.401 . S
C1782 C1787 1.446 . S
C1783 C1782 1.401 . S
C1783 C1784 1.347 . S
C1783 H1843 0.929 . S
C1784 C1783 1.347 . S
C1784 C1785 1.455 . S
C1784 H1844 0.930 . S
C1785 C1772 1.412 . S
C1785 C1784 1.455 . S
C1785 C1786 1.331 . S
C1786 C1775 1.451 . S
C1786 C1785 1.331 . S
C1786 C1787 1.497 . S
C1787 C1778 1.395 . S
C1787 C1782 1.446 . S
C1787 C1786 1.497 . S
C1788 C1789 1.582 1_655 S
C1788 H1845 0.957 1_655 S
C1788 H1846 0.959 . S
C1788 H1847 0.958 . S
C1789 C1788 1.582 1_455 S
C1789 O1792 1.458 1_455 S
C1789 H1818 0.980 . S
O1790 C1735 1.426 . S
O1790 C1736 1.334 . S
O1791 C1763 1.412 . S
O1791 C1764 1.393 . S
O1792 C1754 1.435 . S
O1792 C1789 1.458 1_655 S
O1793 C1745 1.468 . S
O1793 C1746 1.408 . S
H1794 C1735 0.980 1_655 S
H1795 C1734 0.959 . S
H1796 C1734 0.959 . S
H1797 C1734 0.960 . S
H1798 C1737 0.929 . S
H1799 C1741 0.929 . S
H1800 C1742 0.959 . S
H1801 C1742 0.961 . S
H1802 C1742 0.961 . S
H1803 C1743 0.960 . S
H1804 C1743 0.960 . S
H1805 C1743 0.961 . S
H1806 C1745 0.980 . S
H1807 C1744 0.961 . S
H1808 C1744 0.960 . S
H1809 C1744 0.959 . S
H1810 C1747 0.898 1_455 S
H1811 C1751 0.931 . S
H1812 C1752 0.959 . S
H1813 C1752 0.961 . S
H1814 C1752 0.959 . S
H1815 C1753 0.960 . S
H1816 C1753 0.960 . S
H1817 C1753 0.960 . S
H1818 C1789 0.980 . S
H1819 C1755 0.930 . S
H1820 C1759 0.930 . S
H1821 C1760 0.961 . S
H1822 C1760 0.960 . S
H1823 C1760 0.958 . S
H1824 C1761 0.961 . S
H1825 C1761 0.960 . S
H1826 C1761 0.960 . S
H1827 C1763 0.977 1_655 S
H1828 C1762 0.961 . S
H1829 C1762 0.961 . S
H1830 C1762 0.959 . S
H1831 C1765 0.932 . S
H1832 C1769 0.929 . S
H1833 C1770 0.961 . S
H1834 C1770 0.959 . S
H1835 C1770 0.959 . S
H1836 C1771 0.960 . S
H1837 C1771 0.962 . S
H1838 C1771 0.961 . S
H1839 C1773 0.929 . S
H1840 C1776 0.930 . S
H1841 C1777 0.929 . S
H1842 C1780 0.930 . S
H1843 C1783 0.929 . S
H1844 C1784 0.930 . S
H1845 C1788 0.957 1_455 S
H1846 C1788 0.959 . S
H1847 C1788 0.958 . S
C1848 C1849 1.560 . S
C1848 H1909 0.959 . S
C1848 H1910 0.959 . S
C1848 H1911 0.960 . S
C1849 C1848 1.560 . S
C1849 O1904 1.426 . S
C1849 H1908 0.980 . S
C1850 C1851 1.407 . S
C1850 C1855 1.418 . S
C1850 O1904 1.334 . S
C1851 C1850 1.407 . S
C1851 C1852 1.360 . S
C1851 H1912 0.929 . S
C1852 C1851 1.360 . S
C1852 C1853 1.401 . S
C1852 C1856 1.527 . S
C1853 C1852 1.401 . S
C1853 C1854 1.405 . S
C1853 C1886 1.587 . S
C1854 C1853 1.405 . S
C1854 C1855 1.332 . S
C1854 C1857 1.496 . S
C1855 C1850 1.418 . S
C1855 C1854 1.332 . S
C1855 H1913 0.929 . S
C1856 C1852 1.527 . S
C1856 H1914 0.959 . S
C1856 H1915 0.961 . S
C1856 H1916 0.961 . S
C1857 C1854 1.496 . S
C1857 H1917 0.960 . S
C1857 H1918 0.960 . S
C1857 H1919 0.961 . S
C1858 C1859 1.517 . S
C1858 H1921 0.961 . S
C1858 H1922 0.960 . S
C1858 H1923 0.959 . S
C1859 C1858 1.517 . S
C1859 O1907 1.468 . S
C1859 H1920 0.980 . S
C1860 C1861 1.349 . S
C1860 C1865 1.367 . S
C1860 O1907 1.408 . S
C1861 C1860 1.349 . S
C1861 C1862 1.407 . S
C1861 H1924 0.930 . S
C1862 C1861 1.407 . S
C1862 C1863 1.449 . S
C1862 C1866 1.535 . S
C1863 C1862 1.449 . S
C1863 C1864 1.384 . S
C1863 C1888 1.553 . S
C1864 C1863 1.384 . S
C1864 C1865 1.364 . S
C1864 C1867 1.450 . S
C1865 C1860 1.367 . S
C1865 C1864 1.364 . S
C1865 H1925 0.931 . S
C1866 C1862 1.535 . S
C1866 H1926 0.959 . S
C1866 H1927 0.961 . S
C1866 H1928 0.959 . S
C1867 C1864 1.450 . S
C1867 H1929 0.960 . S
C1867 H1930 0.960 . S
C1867 H1931 0.960 . S
C1868 C1869 1.309 . S
C1868 C1873 1.304 . S
C1868 O1906 1.435 . S
C1869 C1868 1.309 . S
C1869 C1870 1.476 . S
C1869 H1933 0.930 . S
C1870 C1869 1.476 . S
C1870 C1871 1.400 . S
C1870 C1874 1.567 . S
C1871 C1870 1.400 . S
C1871 C1872 1.373 . S
C1871 C1893 1.432 . S
C1872 C1871 1.373 . S
C1872 C1873 1.339 . S
C1872 C1875 1.530 . S
C1873 C1868 1.304 . S
C1873 C1872 1.339 . S
C1873 H1934 0.930 . S
C1874 C1870 1.567 . S
C1874 H1935 0.961 . S
C1874 H1936 0.960 . S
C1874 H1937 0.958 . S
C1875 C1872 1.530 . S
C1875 H1938 0.961 . S
C1875 H1939 0.960 . S
C1875 H1940 0.960 . S
C1876 C1877 1.530 . S
C1876 H1942 0.961 . S
C1876 H1943 0.961 . S
C1876 H1944 0.959 . S
C1877 C1876 1.530 . S
C1877 O1905 1.412 . S
C1877 H1941 0.980 . S
C1878 C1879 1.288 . S
C1878 C1883 1.377 . S
C1878 O1905 1.393 . S
C1879 C1878 1.288 . S
C1879 C1880 1.369 . S
C1879 H1945 0.932 . S
C1880 C1879 1.369 . S
C1880 C1881 1.398 . S
C1880 C1884 1.527 . S
C1881 C1880 1.398 . S
C1881 C1882 1.380 . S
C1881 C1895 1.497 . S
C1882 C1881 1.380 . S
C1882 C1883 1.383 . S
C1882 C1885 1.603 . S
C1883 C1878 1.377 . S
C1883 C1882 1.383 . S
C1883 H1946 0.929 . S
C1884 C1880 1.527 . S
C1884 H1947 0.961 . S
C1884 H1948 0.959 . S
C1884 H1949 0.959 . S
C1885 C1882 1.603 . S
C1885 H1950 0.960 . S
C1885 H1951 0.962 . S
C1885 H1952 0.961 . S
C1886 C1853 1.587 . S
C1886 C1887 1.360 . S
C1886 C1899 1.412 . S
C1887 C1886 1.360 . S
C1887 C1888 1.365 . S
C1887 H1953 0.929 . S
C1888 C1863 1.553 . S
C1888 C1887 1.365 . S
C1888 C1889 1.404 . S
C1889 C1888 1.404 . S
C1889 C1890 1.395 . S
C1889 C1900 1.451 . S
C1890 C1889 1.395 . S
C1890 C1891 1.322 . S
C1890 H1954 0.930 . S
C1891 C1890 1.322 . S
C1891 C1892 1.459 . S
C1891 H1955 0.929 . S
C1892 C1891 1.459 . S
C1892 C1893 1.445 . S
C1892 C1901 1.395 . S
C1893 C1871 1.432 . S
C1893 C1892 1.445 . S
C1893 C1894 1.370 . S
C1894 C1893 1.370 . S
C1894 C1895 1.438 . S
C1894 H1956 0.930 . S
C1895 C1881 1.497 . S
C1895 C1894 1.438 . S
C1895 C1896 1.360 . S
C1896 C1895 1.360 . S
C1896 C1897 1.401 . S
C1896 C1901 1.446 . S
C1897 C1896 1.401 . S
C1897 C1898 1.347 . S
C1897 H1957 0.929 . S
C1898 C1897 1.347 . S
C1898 C1899 1.455 . S
C1898 H1958 0.930 . S
C1899 C1886 1.412 . S
C1899 C1898 1.455 . S
C1899 C1900 1.331 . S
C1900 C1889 1.451 . S
C1900 C1899 1.331 . S
C1900 C1901 1.497 . S
C1901 C1892 1.395 . S
C1901 C1896 1.446 . S
C1901 C1900 1.497 . S
C1902 C1903 1.582 . S
C1902 H1959 0.962 . S
C1902 H1960 0.959 . S
C1902 H1961 0.958 . S
C1903 C1902 1.582 . S
C1903 O1906 1.458 . S
C1903 H1932 0.980 . S
O1904 C1849 1.426 . S
O1904 C1850 1.334 . S
O1905 C1877 1.412 . S
O1905 C1878 1.393 . S
O1906 C1868 1.435 . S
O1906 C1903 1.458 . S
O1907 C1859 1.468 . S
O1907 C1860 1.408 . S
H1908 C1849 0.980 . S
H1909 C1848 0.959 . S
H1910 C1848 0.959 . S
H1911 C1848 0.960 . S
H1912 C1851 0.929 . S
H1913 C1855 0.929 . S
H1914 C1856 0.959 . S
H1915 C1856 0.961 . S
H1916 C1856 0.961 . S
H1917 C1857 0.960 . S
H1918 C1857 0.960 . S
H1919 C1857 0.961 . S
H1920 C1859 0.980 . S
H1921 C1858 0.961 . S
H1922 C1858 0.960 . S
H1923 C1858 0.959 . S
H1924 C1861 0.930 . S
H1925 C1865 0.931 . S
H1926 C1866 0.959 . S
H1927 C1866 0.961 . S
H1928 C1866 0.959 . S
H1929 C1867 0.960 . S
H1930 C1867 0.960 . S
H1931 C1867 0.960 . S
H1932 C1903 0.980 . S
H1933 C1869 0.930 . S
H1934 C1873 0.930 . S
H1935 C1874 0.961 . S
H1936 C1874 0.960 . S
H1937 C1874 0.958 . S
H1938 C1875 0.961 . S
H1939 C1875 0.960 . S
H1940 C1875 0.960 . S
H1941 C1877 0.980 . S
H1942 C1876 0.961 . S
H1943 C1876 0.961 . S
H1944 C1876 0.959 . S
H1945 C1879 0.932 . S
H1946 C1883 0.929 . S
H1947 C1884 0.961 . S
H1948 C1884 0.959 . S
H1949 C1884 0.959 . S
H1950 C1885 0.960 . S
H1951 C1885 0.962 . S
H1952 C1885 0.961 . S
H1953 C1887 0.929 . S
H1954 C1890 0.930 . S
H1955 C1891 0.929 . S
H1956 C1894 0.930 . S
H1957 C1897 0.929 . S
H1958 C1898 0.930 . S
H1959 C1902 0.962 . S
H1960 C1902 0.959 . S
H1961 C1902 0.958 . S
C1962 C1963 1.560 . S
C1962 H2023 0.959 . S
C1962 H2024 0.959 . S
C1962 H2025 0.960 . S
C1963 C1962 1.560 . S
C1963 O2018 1.426 . S
C1963 H2022 0.980 . S
C1964 C1965 1.407 . S
C1964 C1969 1.418 . S
C1964 O2018 1.334 . S
C1965 C1964 1.407 . S
C1965 C1966 1.360 . S
C1965 H2026 0.929 . S
C1966 C1965 1.360 . S
C1966 C1967 1.401 . S
C1966 C1970 1.527 . S
C1967 C1966 1.401 . S
C1967 C1968 1.405 . S
C1967 C2000 1.587 . S
C1968 C1967 1.405 . S
C1968 C1969 1.332 . S
C1968 C1971 1.496 . S
C1969 C1964 1.418 . S
C1969 C1968 1.332 . S
C1969 H2027 0.929 . S
C1970 C1966 1.527 . S
C1970 H2028 0.959 . S
C1970 H2029 0.961 . S
C1970 H2030 0.961 . S
C1971 C1968 1.496 . S
C1971 H2031 0.960 . S
C1971 H2032 0.960 . S
C1971 H2033 0.961 . S
C1972 C1973 1.517 . S
C1972 H2035 0.961 . S
C1972 H2036 0.960 . S
C1972 H2037 0.959 . S
C1973 C1972 1.517 . S
C1973 O2021 1.468 . S
C1973 H2034 0.980 . S
C1974 C1975 1.349 . S
C1974 C1979 1.367 . S
C1974 O2021 1.408 . S
C1975 C1974 1.349 . S
C1975 C1976 1.407 . S
C1975 H2038 0.930 . S
C1976 C1975 1.407 . S
C1976 C1977 1.449 . S
C1976 C1980 1.535 . S
C1977 C1976 1.449 . S
C1977 C1978 1.384 . S
C1977 C2002 1.553 . S
C1978 C1977 1.384 . S
C1978 C1979 1.364 . S
C1978 C1981 1.450 . S
C1979 C1974 1.367 . S
C1979 C1978 1.364 . S
C1979 H2039 0.931 . S
C1980 C1976 1.535 . S
C1980 H2040 0.959 . S
C1980 H2041 0.961 . S
C1980 H2042 0.959 . S
C1981 C1978 1.450 . S
C1981 H2043 0.960 . S
C1981 H2044 0.960 . S
C1981 H2045 0.960 . S
C1982 C1983 1.309 . S
C1982 C1987 1.304 . S
C1982 O2020 1.435 . S
C1983 C1982 1.309 . S
C1983 C1984 1.476 . S
C1983 H2047 0.930 . S
C1984 C1983 1.476 . S
C1984 C1985 1.400 . S
C1984 C1988 1.567 . S
C1985 C1984 1.400 . S
C1985 C1986 1.373 . S
C1985 C2007 1.432 . S
C1986 C1985 1.373 . S
C1986 C1987 1.339 . S
C1986 C1989 1.530 . S
C1987 C1982 1.304 . S
C1987 C1986 1.339 . S
C1987 H2048 0.930 . S
C1988 C1984 1.567 . S
C1988 H2049 0.961 . S
C1988 H2050 0.960 . S
C1988 H2051 0.958 . S
C1989 C1986 1.530 . S
C1989 H2052 0.961 . S
C1989 H2053 0.960 . S
C1989 H2054 0.960 . S
C1990 C1991 1.530 . S
C1990 H2056 0.961 . S
C1990 H2057 0.961 . S
C1990 H2058 0.959 . S
C1991 C1990 1.530 . S
C1991 O2019 1.412 . S
C1991 H2055 0.980 . S
C1992 C1993 1.288 . S
C1992 C1997 1.377 . S
C1992 O2019 1.393 . S
C1993 C1992 1.288 . S
C1993 C1994 1.369 . S
C1993 H2059 0.932 . S
C1994 C1993 1.369 . S
C1994 C1995 1.398 . S
C1994 C1998 1.527 . S
C1995 C1994 1.398 . S
C1995 C1996 1.380 . S
C1995 C2009 1.497 . S
C1996 C1995 1.380 . S
C1996 C1997 1.383 . S
C1996 C1999 1.603 . S
C1997 C1992 1.377 . S
C1997 C1996 1.383 . S
C1997 H2060 0.929 . S
C1998 C1994 1.527 . S
C1998 H2061 0.961 . S
C1998 H2062 0.959 . S
C1998 H2063 0.959 . S
C1999 C1996 1.603 . S
C1999 H2064 0.960 . S
C1999 H2065 0.962 . S
C1999 H2066 0.961 . S
C2000 C1967 1.587 . S
C2000 C2001 1.360 . S
C2000 C2013 1.412 . S
C2001 C2000 1.360 . S
C2001 C2002 1.365 . S
C2001 H2067 0.929 . S
C2002 C1977 1.553 . S
C2002 C2001 1.365 . S
C2002 C2003 1.404 . S
C2003 C2002 1.404 . S
C2003 C2004 1.395 . S
C2003 C2014 1.451 . S
C2004 C2003 1.395 . S
C2004 C2005 1.322 . S
C2004 H2068 0.930 . S
C2005 C2004 1.322 . S
C2005 C2006 1.459 . S
C2005 H2069 0.929 . S
C2006 C2005 1.459 . S
C2006 C2007 1.445 . S
C2006 C2015 1.395 . S
C2007 C1985 1.432 . S
C2007 C2006 1.445 . S
C2007 C2008 1.370 . S
C2008 C2007 1.370 . S
C2008 C2009 1.438 . S
C2008 H2070 0.930 . S
C2009 C1995 1.497 . S
C2009 C2008 1.438 . S
C2009 C2010 1.360 . S
C2010 C2009 1.360 . S
C2010 C2011 1.401 . S
C2010 C2015 1.446 . S
C2011 C2010 1.401 . S
C2011 C2012 1.347 . S
C2011 H2071 0.929 . S
C2012 C2011 1.347 . S
C2012 C2013 1.455 . S
C2012 H2072 0.930 . S
C2013 C2000 1.412 . S
C2013 C2012 1.455 . S
C2013 C2014 1.331 . S
C2014 C2003 1.451 . S
C2014 C2013 1.331 . S
C2014 C2015 1.497 . S
C2015 C2006 1.395 . S
C2015 C2010 1.446 . S
C2015 C2014 1.497 . S
C2016 C2017 1.582 . S
C2016 H2073 0.962 . S
C2016 H2074 0.959 . S
C2016 H2075 0.958 . S
C2017 C2016 1.582 . S
C2017 O2020 1.458 . S
C2017 H2046 0.980 . S
O2018 C1963 1.426 . S
O2018 C1964 1.334 . S
O2019 C1991 1.412 . S
O2019 C1992 1.393 . S
O2020 C1982 1.435 . S
O2020 C2017 1.458 . S
O2021 C1973 1.468 . S
O2021 C1974 1.408 . S
H2022 C1963 0.980 . S
H2023 C1962 0.959 . S
H2024 C1962 0.959 . S
H2025 C1962 0.960 . S
H2026 C1965 0.929 . S
H2027 C1969 0.929 . S
H2028 C1970 0.959 . S
H2029 C1970 0.961 . S
H2030 C1970 0.961 . S
H2031 C1971 0.960 . S
H2032 C1971 0.960 . S
H2033 C1971 0.961 . S
H2034 C1973 0.980 . S
H2035 C1972 0.961 . S
H2036 C1972 0.960 . S
H2037 C1972 0.959 . S
H2038 C1975 0.930 . S
H2039 C1979 0.931 . S
H2040 C1980 0.959 . S
H2041 C1980 0.961 . S
H2042 C1980 0.959 . S
H2043 C1981 0.960 . S
H2044 C1981 0.960 . S
H2045 C1981 0.960 . S
H2046 C2017 0.980 . S
H2047 C1983 0.930 . S
H2048 C1987 0.930 . S
H2049 C1988 0.961 . S
H2050 C1988 0.960 . S
H2051 C1988 0.958 . S
H2052 C1989 0.961 . S
H2053 C1989 0.960 . S
H2054 C1989 0.960 . S
H2055 C1991 0.980 . S
H2056 C1990 0.961 . S
H2057 C1990 0.961 . S
H2058 C1990 0.959 . S
H2059 C1993 0.932 . S
H2060 C1997 0.929 . S
H2061 C1998 0.961 . S
H2062 C1998 0.959 . S
H2063 C1998 0.959 . S
H2064 C1999 0.960 . S
H2065 C1999 0.962 . S
H2066 C1999 0.961 . S
H2067 C2001 0.929 . S
H2068 C2004 0.930 . S
H2069 C2005 0.929 . S
H2070 C2008 0.930 . S
H2071 C2011 0.929 . S
H2072 C2012 0.930 . S
H2073 C2016 0.962 . S
H2074 C2016 0.959 . S
H2075 C2016 0.958 . S
C2076 C2077 1.560 . S
C2076 H2137 0.959 . S
C2076 H2138 0.959 . S
C2076 H2139 0.960 . S
C2077 C2076 1.560 . S
C2077 O2132 1.426 . S
C2077 H2136 0.980 . S
C2078 C2079 1.407 . S
C2078 C2083 1.418 . S
C2078 O2132 1.334 . S
C2079 C2078 1.407 . S
C2079 C2080 1.360 . S
C2079 H2140 0.929 . S
C2080 C2079 1.360 . S
C2080 C2081 1.401 . S
C2080 C2084 1.527 . S
C2081 C2080 1.401 . S
C2081 C2082 1.405 . S
C2081 C2114 1.587 . S
C2082 C2081 1.405 . S
C2082 C2083 1.332 . S
C2082 C2085 1.496 . S
C2083 C2078 1.418 . S
C2083 C2082 1.332 . S
C2083 H2141 0.929 . S
C2084 C2080 1.527 . S
C2084 H2142 0.959 . S
C2084 H2143 0.961 . S
C2084 H2144 0.961 . S
C2085 C2082 1.496 . S
C2085 H2145 0.960 . S
C2085 H2146 0.960 . S
C2085 H2147 0.961 . S
C2086 C2087 1.517 . S
C2086 H2149 0.961 . S
C2086 H2150 0.960 . S
C2086 H2151 0.959 . S
C2087 C2086 1.517 . S
C2087 O2135 1.468 . S
C2087 H2148 0.980 . S
C2088 C2089 1.349 . S
C2088 C2093 1.367 . S
C2088 O2135 1.408 . S
C2089 C2088 1.349 . S
C2089 C2090 1.407 . S
C2089 H2152 0.930 . S
C2090 C2089 1.407 . S
C2090 C2091 1.449 . S
C2090 C2094 1.535 . S
C2091 C2090 1.449 . S
C2091 C2092 1.384 . S
C2091 C2116 1.553 . S
C2092 C2091 1.384 . S
C2092 C2093 1.364 . S
C2092 C2095 1.450 . S
C2093 C2088 1.367 . S
C2093 C2092 1.364 . S
C2093 H2153 0.931 . S
C2094 C2090 1.535 . S
C2094 H2154 0.959 . S
C2094 H2155 0.961 . S
C2094 H2156 0.959 . S
C2095 C2092 1.450 . S
C2095 H2157 0.960 . S
C2095 H2158 0.960 . S
C2095 H2159 0.960 . S
C2096 C2097 1.309 . S
C2096 C2101 1.304 . S
C2096 O2134 1.435 . S
C2097 C2096 1.309 . S
C2097 C2098 1.476 . S
C2097 H2161 0.930 . S
C2098 C2097 1.476 . S
C2098 C2099 1.400 . S
C2098 C2102 1.567 . S
C2099 C2098 1.400 . S
C2099 C2100 1.373 . S
C2099 C2121 1.432 . S
C2100 C2099 1.373 . S
C2100 C2101 1.339 . S
C2100 C2103 1.530 . S
C2101 C2096 1.304 . S
C2101 C2100 1.339 . S
C2101 H2162 0.930 . S
C2102 C2098 1.567 . S
C2102 H2163 0.961 . S
C2102 H2164 0.960 . S
C2102 H2165 0.958 . S
C2103 C2100 1.530 . S
C2103 H2166 0.961 . S
C2103 H2167 0.960 . S
C2103 H2168 0.960 . S
C2104 C2105 1.530 . S
C2104 H2170 0.961 . S
C2104 H2171 0.961 . S
C2104 H2172 0.959 . S
C2105 C2104 1.530 . S
C2105 O2133 1.412 . S
C2105 H2169 0.980 . S
C2106 C2107 1.288 . S
C2106 C2111 1.377 . S
C2106 O2133 1.393 . S
C2107 C2106 1.288 . S
C2107 C2108 1.369 . S
C2107 H2173 0.932 . S
C2108 C2107 1.369 . S
C2108 C2109 1.398 . S
C2108 C2112 1.527 . S
C2109 C2108 1.398 . S
C2109 C2110 1.380 . S
C2109 C2123 1.497 . S
C2110 C2109 1.380 . S
C2110 C2111 1.383 . S
C2110 C2113 1.603 . S
C2111 C2106 1.377 . S
C2111 C2110 1.383 . S
C2111 H2174 0.929 . S
C2112 C2108 1.527 . S
C2112 H2175 0.961 . S
C2112 H2176 0.959 . S
C2112 H2177 0.959 . S
C2113 C2110 1.603 . S
C2113 H2178 0.960 . S
C2113 H2179 0.962 . S
C2113 H2180 0.961 . S
C2114 C2081 1.587 . S
C2114 C2115 1.360 . S
C2114 C2127 1.412 . S
C2115 C2114 1.360 . S
C2115 C2116 1.365 . S
C2115 H2181 0.929 . S
C2116 C2091 1.553 . S
C2116 C2115 1.365 . S
C2116 C2117 1.404 . S
C2117 C2116 1.404 . S
C2117 C2118 1.395 . S
C2117 C2128 1.451 . S
C2118 C2117 1.395 . S
C2118 C2119 1.322 . S
C2118 H2182 0.930 . S
C2119 C2118 1.322 . S
C2119 C2120 1.459 . S
C2119 H2183 0.929 . S
C2120 C2119 1.459 . S
C2120 C2121 1.445 . S
C2120 C2129 1.395 . S
C2121 C2099 1.432 . S
C2121 C2120 1.445 . S
C2121 C2122 1.370 . S
C2122 C2121 1.370 . S
C2122 C2123 1.438 . S
C2122 H2184 0.930 . S
C2123 C2109 1.497 . S
C2123 C2122 1.438 . S
C2123 C2124 1.360 . S
C2124 C2123 1.360 . S
C2124 C2125 1.401 . S
C2124 C2129 1.446 . S
C2125 C2124 1.401 . S
C2125 C2126 1.347 . S
C2125 H2185 0.929 . S
C2126 C2125 1.347 . S
C2126 C2127 1.455 . S
C2126 H2186 0.930 . S
C2127 C2114 1.412 . S
C2127 C2126 1.455 . S
C2127 C2128 1.331 . S
C2128 C2117 1.451 . S
C2128 C2127 1.331 . S
C2128 C2129 1.497 . S
C2129 C2120 1.395 . S
C2129 C2124 1.446 . S
C2129 C2128 1.497 . S
C2130 C2131 1.582 . S
C2130 H2187 0.962 . S
C2130 H2188 0.959 . S
C2130 H2189 0.958 . S
C2131 C2130 1.582 . S
C2131 O2134 1.458 . S
C2131 H2160 0.980 . S
O2132 C2077 1.426 . S
O2132 C2078 1.334 . S
O2133 C2105 1.412 . S
O2133 C2106 1.393 . S
O2134 C2096 1.435 . S
O2134 C2131 1.458 . S
O2135 C2087 1.468 . S
O2135 C2088 1.408 . S
H2136 C2077 0.980 . S
H2137 C2076 0.959 . S
H2138 C2076 0.959 . S
H2139 C2076 0.960 . S
H2140 C2079 0.929 . S
H2141 C2083 0.929 . S
H2142 C2084 0.959 . S
H2143 C2084 0.961 . S
H2144 C2084 0.961 . S
H2145 C2085 0.960 . S
H2146 C2085 0.960 . S
H2147 C2085 0.961 . S
H2148 C2087 0.980 . S
H2149 C2086 0.961 . S
H2150 C2086 0.960 . S
H2151 C2086 0.959 . S
H2152 C2089 0.930 . S
H2153 C2093 0.931 . S
H2154 C2094 0.959 . S
H2155 C2094 0.961 . S
H2156 C2094 0.959 . S
H2157 C2095 0.960 . S
H2158 C2095 0.960 . S
H2159 C2095 0.960 . S
H2160 C2131 0.980 . S
H2161 C2097 0.930 . S
H2162 C2101 0.930 . S
H2163 C2102 0.961 . S
H2164 C2102 0.960 . S
H2165 C2102 0.958 . S
H2166 C2103 0.961 . S
H2167 C2103 0.960 . S
H2168 C2103 0.960 . S
H2169 C2105 0.980 . S
H2170 C2104 0.961 . S
H2171 C2104 0.961 . S
H2172 C2104 0.959 . S
H2173 C2107 0.932 . S
H2174 C2111 0.929 . S
H2175 C2112 0.961 . S
H2176 C2112 0.959 . S
H2177 C2112 0.959 . S
H2178 C2113 0.960 . S
H2179 C2113 0.962 . S
H2180 C2113 0.961 . S
H2181 C2115 0.929 . S
H2182 C2118 0.930 . S
H2183 C2119 0.929 . S
H2184 C2122 0.930 . S
H2185 C2125 0.929 . S
H2186 C2126 0.930 . S
H2187 C2130 0.962 . S
H2188 C2130 0.959 . S
H2189 C2130 0.958 . S
C2190 C2191 1.560 . S
C2190 H2251 0.959 . S
C2190 H2252 0.959 . S
C2190 H2253 0.960 . S
C2191 C2190 1.560 . S
C2191 O2246 1.426 . S
C2191 H2250 0.980 . S
C2192 C2193 1.407 . S
C2192 C2197 1.418 . S
C2192 O2246 1.334 . S
C2193 C2192 1.407 . S
C2193 C2194 1.360 . S
C2193 H2254 0.929 . S
C2194 C2193 1.360 . S
C2194 C2195 1.401 . S
C2194 C2198 1.527 . S
C2195 C2194 1.401 . S
C2195 C2196 1.405 . S
C2195 C2228 1.587 . S
C2196 C2195 1.405 . S
C2196 C2197 1.332 . S
C2196 C2199 1.496 . S
C2197 C2192 1.418 . S
C2197 C2196 1.332 . S
C2197 H2255 0.929 . S
C2198 C2194 1.527 . S
C2198 H2256 0.959 . S
C2198 H2257 0.961 . S
C2198 H2258 0.961 . S
C2199 C2196 1.496 . S
C2199 H2259 0.960 . S
C2199 H2260 0.960 . S
C2199 H2261 0.961 . S
C2200 C2201 1.517 . S
C2200 H2263 0.961 . S
C2200 H2264 0.960 . S
C2200 H2265 0.959 . S
C2201 C2200 1.517 . S
C2201 O2249 1.468 . S
C2201 H2262 0.980 . S
C2202 C2203 1.349 . S
C2202 C2207 1.367 . S
C2202 O2249 1.408 . S
C2203 C2202 1.349 . S
C2203 C2204 1.407 . S
C2203 H2266 0.930 . S
C2204 C2203 1.407 . S
C2204 C2205 1.449 . S
C2204 C2208 1.535 . S
C2205 C2204 1.449 . S
C2205 C2206 1.384 . S
C2205 C2230 1.553 . S
C2206 C2205 1.384 . S
C2206 C2207 1.364 . S
C2206 C2209 1.450 . S
C2207 C2202 1.367 . S
C2207 C2206 1.364 . S
C2207 H2267 0.931 . S
C2208 C2204 1.535 . S
C2208 H2268 0.959 . S
C2208 H2269 0.961 . S
C2208 H2270 0.959 . S
C2209 C2206 1.450 . S
C2209 H2271 0.960 . S
C2209 H2272 0.960 . S
C2209 H2273 0.960 . S
C2210 C2211 1.309 . S
C2210 C2215 1.304 . S
C2210 O2248 1.435 . S
C2211 C2210 1.309 . S
C2211 C2212 1.476 . S
C2211 H2275 0.930 . S
C2212 C2211 1.476 . S
C2212 C2213 1.400 . S
C2212 C2216 1.567 . S
C2213 C2212 1.400 . S
C2213 C2214 1.373 . S
C2213 C2235 1.432 . S
C2214 C2213 1.373 . S
C2214 C2215 1.339 . S
C2214 C2217 1.530 . S
C2215 C2210 1.304 . S
C2215 C2214 1.339 . S
C2215 H2276 0.930 . S
C2216 C2212 1.567 . S
C2216 H2277 0.961 . S
C2216 H2278 0.960 . S
C2216 H2279 0.958 . S
C2217 C2214 1.530 . S
C2217 H2280 0.961 . S
C2217 H2281 0.960 . S
C2217 H2282 0.960 . S
C2218 C2219 1.530 . S
C2218 H2284 0.961 . S
C2218 H2285 0.961 . S
C2218 H2286 0.959 . S
C2219 C2218 1.530 . S
C2219 O2247 1.412 . S
C2219 H2283 0.980 . S
C2220 C2221 1.288 . S
C2220 C2225 1.377 . S
C2220 O2247 1.393 . S
C2221 C2220 1.288 . S
C2221 C2222 1.369 . S
C2221 H2287 0.932 . S
C2222 C2221 1.369 . S
C2222 C2223 1.398 . S
C2222 C2226 1.527 . S
C2223 C2222 1.398 . S
C2223 C2224 1.380 . S
C2223 C2237 1.497 . S
C2224 C2223 1.380 . S
C2224 C2225 1.383 . S
C2224 C2227 1.603 . S
C2225 C2220 1.377 . S
C2225 C2224 1.383 . S
C2225 H2288 0.929 . S
C2226 C2222 1.527 . S
C2226 H2289 0.961 . S
C2226 H2290 0.959 . S
C2226 H2291 0.959 . S
C2227 C2224 1.603 . S
C2227 H2292 0.960 . S
C2227 H2293 0.962 . S
C2227 H2294 0.961 . S
C2228 C2195 1.587 . S
C2228 C2229 1.360 . S
C2228 C2241 1.412 . S
C2229 C2228 1.360 . S
C2229 C2230 1.365 . S
C2229 H2295 0.929 . S
C2230 C2205 1.553 . S
C2230 C2229 1.365 . S
C2230 C2231 1.404 . S
C2231 C2230 1.404 . S
C2231 C2232 1.395 . S
C2231 C2242 1.451 . S
C2232 C2231 1.395 . S
C2232 C2233 1.322 . S
C2232 H2296 0.930 . S
C2233 C2232 1.322 . S
C2233 C2234 1.459 . S
C2233 H2297 0.929 . S
C2234 C2233 1.459 . S
C2234 C2235 1.445 . S
C2234 C2243 1.395 . S
C2235 C2213 1.432 . S
C2235 C2234 1.445 . S
C2235 C2236 1.370 . S
C2236 C2235 1.370 . S
C2236 C2237 1.438 . S
C2236 H2298 0.930 . S
C2237 C2223 1.497 . S
C2237 C2236 1.438 . S
C2237 C2238 1.360 . S
C2238 C2237 1.360 . S
C2238 C2239 1.401 . S
C2238 C2243 1.446 . S
C2239 C2238 1.401 . S
C2239 C2240 1.347 . S
C2239 H2299 0.929 . S
C2240 C2239 1.347 . S
C2240 C2241 1.455 . S
C2240 H2300 0.930 . S
C2241 C2228 1.412 . S
C2241 C2240 1.455 . S
C2241 C2242 1.331 . S
C2242 C2231 1.451 . S
C2242 C2241 1.331 . S
C2242 C2243 1.497 . S
C2243 C2234 1.395 . S
C2243 C2238 1.446 . S
C2243 C2242 1.497 . S
C2244 C2245 1.582 . S
C2244 H2301 0.962 . S
C2244 H2302 0.959 . S
C2244 H2303 0.958 . S
C2245 C2244 1.582 . S
C2245 O2248 1.458 . S
C2245 H2274 0.980 . S
O2246 C2191 1.426 . S
O2246 C2192 1.334 . S
O2247 C2219 1.412 . S
O2247 C2220 1.393 . S
O2248 C2210 1.435 . S
O2248 C2245 1.458 . S
O2249 C2201 1.468 . S
O2249 C2202 1.408 . S
H2250 C2191 0.980 . S
H2251 C2190 0.959 . S
H2252 C2190 0.959 . S
H2253 C2190 0.960 . S
H2254 C2193 0.929 . S
H2255 C2197 0.929 . S
H2256 C2198 0.959 . S
H2257 C2198 0.961 . S
H2258 C2198 0.961 . S
H2259 C2199 0.960 . S
H2260 C2199 0.960 . S
H2261 C2199 0.961 . S
H2262 C2201 0.980 . S
H2263 C2200 0.961 . S
H2264 C2200 0.960 . S
H2265 C2200 0.959 . S
H2266 C2203 0.930 . S
H2267 C2207 0.931 . S
H2268 C2208 0.959 . S
H2269 C2208 0.961 . S
H2270 C2208 0.959 . S
H2271 C2209 0.960 . S
H2272 C2209 0.960 . S
H2273 C2209 0.960 . S
H2274 C2245 0.980 . S
H2275 C2211 0.930 . S
H2276 C2215 0.930 . S
H2277 C2216 0.961 . S
H2278 C2216 0.960 . S
H2279 C2216 0.958 . S
H2280 C2217 0.961 . S
H2281 C2217 0.960 . S
H2282 C2217 0.960 . S
H2283 C2219 0.980 . S
H2284 C2218 0.961 . S
H2285 C2218 0.961 . S
H2286 C2218 0.959 . S
H2287 C2221 0.932 . S
H2288 C2225 0.929 . S
H2289 C2226 0.961 . S
H2290 C2226 0.959 . S
H2291 C2226 0.959 . S
H2292 C2227 0.960 . S
H2293 C2227 0.962 . S
H2294 C2227 0.961 . S
H2295 C2229 0.929 . S
H2296 C2232 0.930 . S
H2297 C2233 0.929 . S
H2298 C2236 0.930 . S
H2299 C2239 0.929 . S
H2300 C2240 0.930 . S
H2301 C2244 0.962 . S
H2302 C2244 0.959 . S
H2303 C2244 0.958 . S
C2304 C2305 1.369 1_455 S
C2304 C2306 1.419 . S
C2304 H2308 0.930 . S
C2305 C2304 1.369 1_655 S
C2305 C2314 1.429 . S
C2306 C2304 1.419 . S
C2306 C2307 1.363 1_455 S
C2306 H2309 0.929 . S
C2307 C2306 1.363 1_655 S
C2307 C2313 1.428 . S
H2308 C2304 0.930 . S
H2309 C2306 0.929 . S
S2310 N2311 1.613 . S
S2310 N2312 1.610 . S
N2311 S2310 1.613 . S
N2311 C2314 1.350 . S
N2312 S2310 1.610 . S
N2312 C2313 1.351 . S
C2313 C2307 1.428 . S
C2313 N2312 1.351 . S
C2313 C2314 1.434 . S
C2314 C2305 1.429 . S
C2314 N2311 1.350 . S
C2314 C2313 1.434 . S
C2315 C2316 1.369 . S
C2315 C2317 1.419 . S
C2315 H2319 0.930 . S
C2316 C2315 1.369 . S
C2316 C2325 1.429 . S
C2317 C2315 1.419 . S
C2317 C2318 1.363 . S
C2317 H2320 0.929 . S
C2318 C2317 1.363 . S
C2318 C2324 1.428 . S
H2319 C2315 0.930 . S
H2320 C2317 0.929 . S
S2321 N2322 1.613 . S
S2321 N2323 1.610 . S
N2322 S2321 1.613 . S
N2322 C2325 1.350 . S
N2323 S2321 1.610 . S
N2323 C2324 1.351 . S
C2324 C2318 1.428 . S
C2324 N2323 1.351 . S
C2324 C2325 1.434 . S
C2325 C2316 1.429 . S
C2325 N2322 1.350 . S
C2325 C2324 1.434 . S
C2326 C2327 1.369 . S
C2326 C2328 1.388 1_545 S
C2326 H2330 0.930 1_545 S
C2327 C2326 1.369 . S
C2327 C2336 1.429 . S
C2328 C2326 1.388 1_565 S
C2328 C2329 1.342 1_565 S
C2328 H2331 0.986 . S
C2329 C2328 1.342 1_545 S
C2329 C2335 1.428 . S
H2330 C2326 0.930 1_565 S
H2331 C2328 0.986 . S
S2332 N2333 1.613 . S
S2332 N2334 1.610 . S
N2333 S2332 1.613 . S
N2333 C2336 1.350 . S
N2334 S2332 1.610 . S
N2334 C2335 1.351 . S
C2335 C2329 1.428 . S
C2335 N2334 1.351 . S
C2335 C2336 1.434 . S
C2336 C2327 1.429 . S
C2336 N2333 1.350 . S
C2336 C2335 1.434 . S
C2337 C2338 1.369 . S
C2337 C2339 1.419 . S
C2337 H2341 0.930 . S
C2338 C2337 1.369 . S
C2338 C2347 1.429 . S
C2339 C2337 1.419 . S
C2339 C2340 1.363 . S
C2339 H2342 0.929 . S
C2340 C2339 1.363 . S
C2340 C2346 1.428 . S
H2341 C2337 0.930 . S
H2342 C2339 0.929 . S
S2343 N2344 1.613 . S
S2343 N2345 1.610 . S
N2344 S2343 1.613 . S
N2344 C2347 1.350 . S
N2345 S2343 1.610 . S
N2345 C2346 1.351 . S
C2346 C2340 1.428 . S
C2346 N2345 1.351 . S
C2346 C2347 1.434 . S
C2347 C2338 1.429 . S
C2347 N2344 1.350 . S
C2347 C2346 1.434 . S
C2348 C2349 1.369 . S
C2348 C2350 1.411 1_455 S
C2348 H2352 0.930 1_455 S
C2349 C2348 1.369 . S
C2349 C2358 1.429 . S
C2350 C2348 1.411 1_655 S
C2350 C2351 1.358 1_655 S
C2350 H2353 0.942 . S
C2351 C2350 1.358 1_455 S
C2351 C2357 1.428 . S
H2352 C2348 0.930 1_655 S
H2353 C2350 0.942 . S
S2354 N2355 1.613 . S
S2354 N2356 1.610 . S
N2355 S2354 1.613 . S
N2355 C2358 1.350 . S
N2356 S2354 1.610 . S
N2356 C2357 1.351 . S
C2357 C2351 1.428 . S
C2357 N2356 1.351 . S
C2357 C2358 1.434 . S
C2358 C2349 1.429 . S
C2358 N2355 1.350 . S
C2358 C2357 1.434 . S
C2359 C2360 1.369 . S
C2359 C2361 1.419 . S
C2359 H2363 0.930 . S
C2360 C2359 1.369 . S
C2360 C2369 1.429 . S
C2361 C2359 1.419 . S
C2361 C2362 1.363 . S
C2361 H2364 0.929 . S
C2362 C2361 1.363 . S
C2362 C2368 1.428 . S
H2363 C2359 0.930 . S
H2364 C2361 0.929 . S
S2365 N2366 1.613 . S
S2365 N2367 1.610 . S
N2366 S2365 1.613 . S
N2366 C2369 1.350 . S
N2367 S2365 1.610 . S
N2367 C2368 1.351 . S
C2368 C2362 1.428 . S
C2368 N2367 1.351 . S
C2368 C2369 1.434 . S
C2369 C2360 1.429 . S
C2369 N2366 1.350 . S
C2369 C2368 1.434 . S
C2370 C2371 1.366 . S
C2370 C2372 1.417 1_455 S
C2370 H2374 0.935 1_455 S
C2371 C2370 1.366 . S
C2371 C2380 1.429 . S
C2372 C2370 1.417 1_655 S
C2372 C2373 1.363 1_655 S
C2372 H2375 0.929 . S
C2373 C2372 1.363 1_455 S
C2373 C2379 1.428 . S
H2374 C2370 0.935 1_655 S
H2375 C2372 0.929 . S
S2376 N2377 1.613 . S
S2376 N2378 1.610 . S
N2377 S2376 1.613 . S
N2377 C2380 1.350 . S
N2378 S2376 1.610 . S
N2378 C2379 1.351 . S
C2379 C2373 1.428 . S
C2379 N2378 1.351 . S
C2379 C2380 1.434 . S
C2380 C2371 1.429 . S
C2380 N2377 1.350 . S
C2380 C2379 1.434 . S
C2381 C2382 1.369 . S
C2381 C2383 1.419 . S
C2381 H2385 0.930 . S
C2382 C2381 1.369 . S
C2382 C2391 1.429 . S
C2383 C2381 1.419 . S
C2383 C2384 1.363 . S
C2383 H2386 0.929 . S
C2384 C2383 1.363 . S
C2384 C2390 1.428 . S
H2385 C2381 0.930 . S
H2386 C2383 0.929 . S
S2387 N2388 1.613 . S
S2387 N2389 1.610 . S
N2388 S2387 1.613 . S
N2388 C2391 1.350 . S
N2389 S2387 1.610 . S
N2389 C2390 1.351 . S
C2390 C2384 1.428 . S
C2390 N2389 1.351 . S
C2390 C2391 1.434 . S
C2391 C2382 1.429 . S
C2391 N2388 1.350 . S
C2391 C2390 1.434 . S
C2392 C2393 1.369 . S
C2392 C2394 1.395 1_565 S
C2392 H2396 0.930 1_565 S
C2393 C2392 1.369 . S
C2393 C2402 1.429 . S
C2394 C2392 1.395 1_545 S
C2394 C2395 1.378 1_545 S
C2394 H2397 0.940 . S
C2395 C2394 1.378 1_565 S
C2395 C2401 1.428 . S
H2396 C2392 0.930 1_545 S
H2397 C2394 0.940 . S
S2398 N2399 1.613 . S
S2398 N2400 1.610 1_554 S
N2399 S2398 1.613 . S
N2399 C2402 1.350 1_554 S
N2400 S2398 1.610 1_556 S
N2400 C2401 1.351 . S
C2401 C2395 1.428 . S
C2401 N2400 1.351 . S
C2401 C2402 1.434 . S
C2402 C2393 1.429 . S
C2402 N2399 1.350 1_556 S
C2402 C2401 1.434 . S
C2403 C2404 1.369 . S
C2403 C2405 1.419 1_545 S
C2403 H2407 0.930 1_545 S
C2404 C2403 1.369 . S
C2404 C2413 1.429 . S
C2405 C2403 1.419 1_565 S
C2405 C2406 1.363 1_565 S
C2405 H2408 0.929 . S
C2406 C2405 1.363 1_545 S
C2406 C2412 1.428 . S
H2407 C2403 0.930 1_565 S
H2408 C2405 0.929 . S
S2409 N2410 1.613 . S
S2409 N2411 1.610 . S
N2410 S2409 1.613 . S
N2410 C2413 1.350 . S
N2411 S2409 1.610 . S
N2411 C2412 1.351 . S
C2412 C2406 1.428 . S
C2412 N2411 1.351 . S
C2412 C2413 1.434 . S
C2413 C2404 1.429 . S
C2413 N2410 1.350 . S
C2413 C2412 1.434 . S
C2414 C2415 1.369 . S
C2414 C2416 1.419 . S
C2414 H2418 0.930 . S
C2415 C2414 1.369 . S
C2415 C2424 1.429 1_655 S
C2416 C2414 1.419 . S
C2416 C2417 1.363 . S
C2416 H2419 0.929 . S
C2417 C2416 1.363 . S
C2417 C2423 1.428 1_655 S
H2418 C2414 0.930 . S
H2419 C2416 0.929 . S
S2420 N2421 1.613 . S
S2420 N2422 1.610 . S
N2421 S2420 1.613 . S
N2421 C2424 1.350 . S
N2422 S2420 1.610 . S
N2422 C2423 1.351 . S
C2423 C2417 1.428 1_455 S
C2423 N2422 1.351 . S
C2423 C2424 1.434 . S
C2424 C2415 1.429 1_455 S
C2424 N2421 1.350 . S
C2424 C2423 1.434 . S
C2425 C2426 1.369 . S
C2425 C2427 1.419 . S
C2425 H2429 0.930 . S
C2426 C2425 1.369 . S
C2426 C2435 1.429 . S
C2427 C2425 1.419 . S
C2427 C2428 1.363 . S
C2427 H2430 0.929 . S
C2428 C2427 1.363 . S
C2428 C2434 1.428 . S
H2429 C2425 0.930 . S
H2430 C2427 0.929 . S
S2431 N2432 1.613 . S
S2431 N2433 1.610 . S
N2432 S2431 1.613 . S
N2432 C2435 1.350 . S
N2433 S2431 1.610 . S
N2433 C2434 1.351 . S
C2434 C2428 1.428 . S
C2434 N2433 1.351 . S
C2434 C2435 1.434 . S
C2435 C2426 1.429 . S
C2435 N2432 1.350 . S
C2435 C2434 1.434 . S
C2436 C2437 1.369 . S
C2436 C2438 1.419 . S
C2436 H2440 0.930 . S
C2437 C2436 1.369 . S
C2437 C2446 1.429 . S
C2438 C2436 1.419 . S
C2438 C2439 1.363 . S
C2438 H2441 0.929 . S
C2439 C2438 1.363 . S
C2439 C2445 1.428 . S
H2440 C2436 0.930 . S
H2441 C2438 0.929 . S
S2442 N2443 1.613 . S
S2442 N2444 1.610 . S
N2443 S2442 1.613 . S
N2443 C2446 1.350 . S
N2444 S2442 1.610 . S
N2444 C2445 1.351 . S
C2445 C2439 1.428 . S
C2445 N2444 1.351 . S
C2445 C2446 1.434 . S
C2446 C2437 1.429 . S
C2446 N2443 1.350 . S
C2446 C2445 1.434 . S
C2447 C2448 1.369 . S
C2447 C2449 1.419 . S
C2447 H2451 0.930 . S
C2448 C2447 1.369 . S
C2448 C2457 1.429 . S
C2449 C2447 1.419 . S
C2449 C2450 1.363 . S
C2449 H2452 0.929 . S
C2450 C2449 1.363 . S
C2450 C2456 1.428 . S
H2451 C2447 0.930 . S
H2452 C2449 0.929 . S
S2453 N2454 1.613 . S
S2453 N2455 1.610 . S
N2454 S2453 1.613 . S
N2454 C2457 1.350 . S
N2455 S2453 1.610 . S
N2455 C2456 1.351 . S
C2456 C2450 1.428 . S
C2456 N2455 1.351 . S
C2456 C2457 1.434 . S
C2457 C2448 1.429 . S
C2457 N2454 1.350 . S
C2457 C2456 1.434 . S
C2458 C2459 1.369 . S
C2458 C2460 1.419 . S
C2458 H2462 0.930 . S
C2459 C2458 1.369 . S
C2459 C2468 1.429 . S
C2460 C2458 1.419 . S
C2460 C2461 1.363 . S
C2460 H2463 0.929 . S
C2461 C2460 1.363 . S
C2461 C2467 1.428 . S
H2462 C2458 0.930 . S
H2463 C2460 0.929 . S
S2464 N2465 1.613 . S
S2464 N2466 1.610 . S
N2465 S2464 1.613 . S
N2465 C2468 1.350 . S
N2466 S2464 1.610 . S
N2466 C2467 1.351 . S
C2467 C2461 1.428 . S
C2467 N2466 1.351 . S
C2467 C2468 1.434 . S
C2468 C2459 1.429 . S
C2468 N2465 1.350 . S
C2468 C2467 1.434 . S
C2469 C2470 1.369 . S
C2469 C2471 1.419 . S
C2469 H2473 0.930 . S
C2470 C2469 1.369 . S
C2470 C2479 1.429 . S
C2471 C2469 1.419 . S
C2471 C2472 1.363 . S
C2471 H2474 0.929 . S
C2472 C2471 1.363 . S
C2472 C2478 1.428 . S
H2473 C2469 0.930 . S
H2474 C2471 0.929 . S
S2475 N2476 1.613 . S
S2475 N2477 1.610 . S
N2476 S2475 1.613 . S
N2476 C2479 1.350 . S
N2477 S2475 1.610 . S
N2477 C2478 1.351 . S
C2478 C2472 1.428 . S
C2478 N2477 1.351 . S
C2478 C2479 1.434 . S
C2479 C2470 1.429 . S
C2479 N2476 1.350 . S
C2479 C2478 1.434 . S
C2480 C2481 1.369 . S
C2480 C2482 1.419 . S
C2480 H2484 0.930 . S
C2481 C2480 1.369 . S
C2481 C2490 1.429 . S
C2482 C2480 1.419 . S
C2482 C2483 1.363 . S
C2482 H2485 0.929 . S
C2483 C2482 1.363 . S
C2483 C2489 1.428 . S
H2484 C2480 0.930 . S
H2485 C2482 0.929 . S
S2486 N2487 1.613 . S
S2486 N2488 1.610 . S
N2487 S2486 1.613 . S
N2487 C2490 1.350 . S
N2488 S2486 1.610 . S
N2488 C2489 1.351 . S
C2489 C2483 1.428 . S
C2489 N2488 1.351 . S
C2489 C2490 1.434 . S
C2490 C2481 1.429 . S
C2490 N2487 1.350 . S
C2490 C2489 1.434 . S
C2491 C2492 1.369 . S
C2491 C2493 1.419 . S
C2491 H2495 0.930 . S
C2492 C2491 1.369 . S
C2492 C2501 1.429 . S
C2493 C2491 1.419 . S
C2493 C2494 1.363 . S
C2493 H2496 0.929 . S
C2494 C2493 1.363 . S
C2494 C2500 1.428 . S
H2495 C2491 0.930 . S
H2496 C2493 0.929 . S
S2497 N2498 1.613 . S
S2497 N2499 1.610 . S
N2498 S2497 1.613 . S
N2498 C2501 1.350 . S
N2499 S2497 1.610 . S
N2499 C2500 1.351 . S
C2500 C2494 1.428 . S
C2500 N2499 1.351 . S
C2500 C2501 1.434 . S
C2501 C2492 1.429 . S
C2501 N2498 1.350 . S
C2501 C2500 1.434 . S
C2502 C2503 1.369 . S
C2502 C2504 1.419 . S
C2502 H2506 0.930 . S
C2503 C2502 1.369 . S
C2503 C2512 1.429 . S
C2504 C2502 1.419 . S
C2504 C2505 1.363 . S
C2504 H2507 0.929 . S
C2505 C2504 1.363 . S
C2505 C2511 1.428 . S
H2506 C2502 0.930 . S
H2507 C2504 0.929 . S
S2508 N2509 1.613 . S
S2508 N2510 1.610 . S
N2509 S2508 1.613 . S
N2509 C2512 1.350 . S
N2510 S2508 1.610 . S
N2510 C2511 1.351 . S
C2511 C2505 1.428 . S
C2511 N2510 1.351 . S
C2511 C2512 1.434 . S
C2512 C2503 1.429 . S
C2512 N2509 1.350 . S
C2512 C2511 1.434 . S
C2513 C2514 1.369 . S
C2513 C2515 1.419 . S
C2513 H2517 0.930 . S
C2514 C2513 1.369 . S
C2514 C2523 1.429 . S
C2515 C2513 1.419 . S
C2515 C2516 1.363 . S
C2515 H2518 0.929 . S
C2516 C2515 1.363 . S
C2516 C2522 1.428 . S
H2517 C2513 0.930 . S
H2518 C2515 0.929 . S
S2519 N2520 1.613 . S
S2519 N2521 1.610 . S
N2520 S2519 1.613 . S
N2520 C2523 1.350 . S
N2521 S2519 1.610 . S
N2521 C2522 1.351 . S
C2522 C2516 1.428 . S
C2522 N2521 1.351 . S
C2522 C2523 1.434 . S
C2523 C2514 1.429 . S
C2523 N2520 1.350 . S
C2523 C2522 1.434 . S
C2524 C2525 1.369 . S
C2524 C2526 1.419 . S
C2524 H2528 0.930 . S
C2525 C2524 1.369 . S
C2525 C2534 1.429 . S
C2526 C2524 1.419 . S
C2526 C2527 1.363 . S
C2526 H2529 0.929 . S
C2527 C2526 1.363 . S
C2527 C2533 1.428 . S
H2528 C2524 0.930 . S
H2529 C2526 0.929 . S
S2530 N2531 1.613 . S
S2530 N2532 1.610 . S
N2531 S2530 1.613 . S
N2531 C2534 1.350 . S
N2532 S2530 1.610 . S
N2532 C2533 1.351 . S
C2533 C2527 1.428 . S
C2533 N2532 1.351 . S
C2533 C2534 1.434 . S
C2534 C2525 1.429 . S
C2534 N2531 1.350 . S
C2534 C2533 1.434 . S
C2535 C2536 1.369 . S
C2535 C2537 1.419 . S
C2535 H2539 0.930 . S
C2536 C2535 1.369 . S
C2536 C2545 1.429 . S
C2537 C2535 1.419 . S
C2537 C2538 1.363 . S
C2537 H2540 0.929 . S
C2538 C2537 1.363 . S
C2538 C2544 1.428 . S
H2539 C2535 0.930 . S
H2540 C2537 0.929 . S
S2541 N2542 1.613 . S
S2541 N2543 1.610 . S
N2542 S2541 1.613 . S
N2542 C2545 1.350 . S
N2543 S2541 1.610 . S
N2543 C2544 1.351 . S
C2544 C2538 1.428 . S
C2544 N2543 1.351 . S
C2544 C2545 1.434 . S
C2545 C2536 1.429 . S
C2545 N2542 1.350 . S
C2545 C2544 1.434 . S
C2546 C2547 1.369 . S
C2546 C2548 1.419 . S
C2546 H2550 0.930 . S
C2547 C2546 1.369 . S
C2547 C2556 1.429 . S
C2548 C2546 1.419 . S
C2548 C2549 1.363 . S
C2548 H2551 0.929 . S
C2549 C2548 1.363 . S
C2549 C2555 1.428 . S
H2550 C2546 0.930 . S
H2551 C2548 0.929 . S
S2552 N2553 1.613 . S
S2552 N2554 1.610 . S
N2553 S2552 1.613 . S
N2553 C2556 1.350 . S
N2554 S2552 1.610 . S
N2554 C2555 1.351 . S
C2555 C2549 1.428 . S
C2555 N2554 1.351 . S
C2555 C2556 1.434 . S
C2556 C2547 1.429 . S
C2556 N2553 1.350 . S
C2556 C2555 1.434 . S
C2557 C2558 1.369 . S
C2557 C2559 1.419 . S
C2557 H2561 0.930 . S
C2558 C2557 1.369 . S
C2558 C2567 1.429 . S
C2559 C2557 1.419 . S
C2559 C2560 1.363 . S
C2559 H2562 0.929 . S
C2560 C2559 1.363 . S
C2560 C2566 1.428 . S
H2561 C2557 0.930 . S
H2562 C2559 0.929 . S
S2563 N2564 1.613 . S
S2563 N2565 1.610 . S
N2564 S2563 1.613 . S
N2564 C2567 1.350 . S
N2565 S2563 1.610 . S
N2565 C2566 1.351 . S
C2566 C2560 1.428 . S
C2566 N2565 1.351 . S
C2566 C2567 1.434 . S
C2567 C2558 1.429 . S
C2567 N2564 1.350 . S
C2567 C2566 1.434 . S
C2568 C2569 1.369 . S
C2568 C2570 1.419 . S
C2568 H2572 0.930 . S
C2569 C2568 1.369 . S
C2569 C2578 1.429 . S
C2570 C2568 1.419 . S
C2570 C2571 1.363 . S
C2570 H2573 0.929 . S
C2571 C2570 1.363 . S
C2571 C2577 1.428 . S
H2572 C2568 0.930 . S
H2573 C2570 0.929 . S
S2574 N2575 1.613 . S
S2574 N2576 1.610 . S
N2575 S2574 1.613 . S
N2575 C2578 1.350 . S
N2576 S2574 1.610 . S
N2576 C2577 1.351 . S
C2577 C2571 1.428 . S
C2577 N2576 1.351 . S
C2577 C2578 1.434 . S
C2578 C2569 1.429 . S
C2578 N2575 1.350 . S
C2578 C2577 1.434 . S
C2579 C2580 1.369 . S
C2579 C2581 1.419 . S
C2579 H2583 0.930 . S
C2580 C2579 1.369 . S
C2580 C2589 1.429 . S
C2581 C2579 1.419 . S
C2581 C2582 1.363 . S
C2581 H2584 0.929 . S
C2582 C2581 1.363 . S
C2582 C2588 1.428 . S
H2583 C2579 0.930 . S
H2584 C2581 0.929 . S
S2585 N2586 1.613 . S
S2585 N2587 1.610 . S
N2586 S2585 1.613 . S
N2586 C2589 1.350 . S
N2587 S2585 1.610 . S
N2587 C2588 1.351 . S
C2588 C2582 1.428 . S
C2588 N2587 1.351 . S
C2588 C2589 1.434 . S
C2589 C2580 1.429 . S
C2589 N2586 1.350 . S
C2589 C2588 1.434 . S
C2590 C2591 1.369 . S
C2590 C2592 1.419 . S
C2590 H2594 0.930 . S
C2591 C2590 1.369 . S
C2591 C2600 1.429 . S
C2592 C2590 1.419 . S
C2592 C2593 1.363 . S
C2592 H2595 0.929 . S
C2593 C2592 1.363 . S
C2593 C2599 1.428 . S
H2594 C2590 0.930 . S
H2595 C2592 0.929 . S
S2596 N2597 1.613 . S
S2596 N2598 1.610 . S
N2597 S2596 1.613 . S
N2597 C2600 1.350 . S
N2598 S2596 1.610 . S
N2598 C2599 1.351 . S
C2599 C2593 1.428 . S
C2599 N2598 1.351 . S
C2599 C2600 1.434 . S
C2600 C2591 1.429 . S
C2600 N2597 1.350 . S
C2600 C2599 1.434 . S
C2601 C2602 1.369 . S
C2601 C2603 1.419 . S
C2601 H2605 0.930 . S
C2602 C2601 1.369 . S
C2602 C2611 1.429 . S
C2603 C2601 1.419 . S
C2603 C2604 1.363 . S
C2603 H2606 0.929 . S
C2604 C2603 1.363 . S
C2604 C2610 1.428 . S
H2605 C2601 0.930 . S
H2606 C2603 0.929 . S
S2607 N2608 1.613 . S
S2607 N2609 1.610 . S
N2608 S2607 1.613 . S
N2608 C2611 1.350 . S
N2609 S2607 1.610 . S
N2609 C2610 1.351 . S
C2610 C2604 1.428 . S
C2610 N2609 1.351 . S
C2610 C2611 1.434 . S
C2611 C2602 1.429 . S
C2611 N2608 1.350 . S
C2611 C2610 1.434 . S
C2612 C2613 1.369 . S
C2612 C2614 1.419 . S
C2612 H2616 0.930 . S
C2613 C2612 1.369 . S
C2613 C2622 1.429 . S
C2614 C2612 1.419 . S
C2614 C2615 1.363 . S
C2614 H2617 0.929 . S
C2615 C2614 1.363 . S
C2615 C2621 1.428 . S
H2616 C2612 0.930 . S
H2617 C2614 0.929 . S
S2618 N2619 1.613 . S
S2618 N2620 1.610 . S
N2619 S2618 1.613 . S
N2619 C2622 1.350 . S
N2620 S2618 1.610 . S
N2620 C2621 1.351 . S
C2621 C2615 1.428 . S
C2621 N2620 1.351 . S
C2621 C2622 1.434 . S
C2622 C2613 1.429 . S
C2622 N2619 1.350 . S
C2622 C2621 1.434 . S
C2623 C2624 1.369 . S
C2623 C2625 1.419 . S
C2623 H2627 0.930 . S
C2624 C2623 1.369 . S
C2624 C2633 1.429 . S
C2625 C2623 1.419 . S
C2625 C2626 1.363 . S
C2625 H2628 0.929 . S
C2626 C2625 1.363 . S
C2626 C2632 1.428 . S
H2627 C2623 0.930 . S
H2628 C2625 0.929 . S
S2629 N2630 1.613 . S
S2629 N2631 1.610 . S
N2630 S2629 1.613 . S
N2630 C2633 1.350 . S
N2631 S2629 1.610 . S
N2631 C2632 1.351 . S
C2632 C2626 1.428 . S
C2632 N2631 1.351 . S
C2632 C2633 1.434 . S
C2633 C2624 1.429 . S
C2633 N2630 1.350 . S
C2633 C2632 1.434 . S
C2634 C2635 1.369 . S
C2634 C2636 1.419 . S
C2634 H2638 0.930 . S
C2635 C2634 1.369 . S
C2635 C2644 1.429 . S
C2636 C2634 1.419 . S
C2636 C2637 1.363 . S
C2636 H2639 0.929 . S
C2637 C2636 1.363 . S
C2637 C2643 1.428 . S
H2638 C2634 0.930 . S
H2639 C2636 0.929 . S
S2640 N2641 1.613 . S
S2640 N2642 1.610 . S
N2641 S2640 1.613 . S
N2641 C2644 1.350 . S
N2642 S2640 1.610 . S
N2642 C2643 1.351 . S
C2643 C2637 1.428 . S
C2643 N2642 1.351 . S
C2643 C2644 1.434 . S
C2644 C2635 1.429 . S
C2644 N2641 1.350 . S
C2644 C2643 1.434 . S
C2645 C2646 1.369 . S
C2645 C2647 1.419 . S
C2645 H2649 0.930 . S
C2646 C2645 1.369 . S
C2646 C2655 1.429 . S
C2647 C2645 1.419 . S
C2647 C2648 1.363 . S
C2647 H2650 0.929 . S
C2648 C2647 1.363 . S
C2648 C2654 1.428 . S
H2649 C2645 0.930 . S
H2650 C2647 0.929 . S
S2651 N2652 1.613 . S
S2651 N2653 1.610 . S
N2652 S2651 1.613 . S
N2652 C2655 1.350 . S
N2653 S2651 1.610 . S
N2653 C2654 1.351 . S
C2654 C2648 1.428 . S
C2654 N2653 1.351 . S
C2654 C2655 1.434 . S
C2655 C2646 1.429 . S
C2655 N2652 1.350 . S
C2655 C2654 1.434 . S
C2656 C2657 1.369 . S
C2656 C2658 1.419 . S
C2656 H2660 0.930 . S
C2657 C2656 1.369 . S
C2657 C2666 1.429 . S
C2658 C2656 1.419 . S
C2658 C2659 1.363 . S
C2658 H2661 0.929 . S
C2659 C2658 1.363 . S
C2659 C2665 1.428 . S
H2660 C2656 0.930 . S
H2661 C2658 0.929 . S
S2662 N2663 1.613 . S
S2662 N2664 1.610 . S
N2663 S2662 1.613 . S
N2663 C2666 1.350 . S
N2664 S2662 1.610 . S
N2664 C2665 1.351 . S
C2665 C2659 1.428 . S
C2665 N2664 1.351 . S
C2665 C2666 1.434 . S
C2666 C2657 1.429 . S
C2666 N2663 1.350 . S
C2666 C2665 1.434 . S
C2667 C2668 1.369 . S
C2667 C2669 1.419 . S
C2667 H2671 0.930 . S
C2668 C2667 1.369 . S
C2668 C2677 1.429 . S
C2669 C2667 1.419 . S
C2669 C2670 1.363 . S
C2669 H2672 0.929 . S
C2670 C2669 1.363 . S
C2670 C2676 1.428 . S
H2671 C2667 0.930 . S
H2672 C2669 0.929 . S
S2673 N2674 1.613 . S
S2673 N2675 1.610 . S
N2674 S2673 1.613 . S
N2674 C2677 1.350 . S
N2675 S2673 1.610 . S
N2675 C2676 1.351 . S
C2676 C2670 1.428 . S
C2676 N2675 1.351 . S
C2676 C2677 1.434 . S
C2677 C2668 1.429 . S
C2677 N2674 1.350 . S
C2677 C2676 1.434 . S
C2678 C2679 1.369 . S
C2678 C2680 1.419 . S
C2678 H2682 0.930 . S
C2679 C2678 1.369 . S
C2679 C2688 1.429 . S
C2680 C2678 1.419 . S
C2680 C2681 1.363 . S
C2680 H2683 0.929 . S
C2681 C2680 1.363 . S
C2681 C2687 1.428 . S
H2682 C2678 0.930 . S
H2683 C2680 0.929 . S
S2684 N2685 1.613 . S
S2684 N2686 1.610 . S
N2685 S2684 1.613 . S
N2685 C2688 1.350 . S
N2686 S2684 1.610 . S
N2686 C2687 1.351 . S
C2687 C2681 1.428 . S
C2687 N2686 1.351 . S
C2687 C2688 1.434 . S
C2688 C2679 1.429 . S
C2688 N2685 1.350 . S
C2688 C2687 1.434 . S
C2689 C2690 1.369 . S
C2689 C2691 1.419 . S
C2689 H2693 0.930 . S
C2690 C2689 1.369 . S
C2690 C2699 1.429 . S
C2691 C2689 1.419 . S
C2691 C2692 1.363 . S
C2691 H2694 0.929 . S
C2692 C2691 1.363 . S
C2692 C2698 1.428 . S
H2693 C2689 0.930 . S
H2694 C2691 0.929 . S
S2695 N2696 1.613 . S
S2695 N2697 1.610 . S
N2696 S2695 1.613 . S
N2696 C2699 1.350 . S
N2697 S2695 1.610 . S
N2697 C2698 1.351 . S
C2698 C2692 1.428 . S
C2698 N2697 1.351 . S
C2698 C2699 1.434 . S
C2699 C2690 1.429 . S
C2699 N2696 1.350 . S
C2699 C2698 1.434 . S
C2700 C2701 1.369 . S
C2700 C2702 1.419 . S
C2700 H2704 0.930 . S
C2701 C2700 1.369 . S
C2701 C2710 1.429 . S
C2702 C2700 1.419 . S
C2702 C2703 1.363 . S
C2702 H2705 0.929 . S
C2703 C2702 1.363 . S
C2703 C2709 1.428 . S
H2704 C2700 0.930 . S
H2705 C2702 0.929 . S
S2706 N2707 1.613 . S
S2706 N2708 1.610 . S
N2707 S2706 1.613 . S
N2707 C2710 1.350 . S
N2708 S2706 1.610 . S
N2708 C2709 1.351 . S
C2709 C2703 1.428 . S
C2709 N2708 1.351 . S
C2709 C2710 1.434 . S
C2710 C2701 1.429 . S
C2710 N2707 1.350 . S
C2710 C2709 1.434 . S
C2711 C2712 1.369 . S
C2711 C2713 1.419 . S
C2711 H2715 0.930 . S
C2712 C2711 1.369 . S
C2712 C2721 1.429 . S
C2713 C2711 1.419 . S
C2713 C2714 1.363 . S
C2713 H2716 0.929 . S
C2714 C2713 1.363 . S
C2714 C2720 1.428 . S
H2715 C2711 0.930 . S
H2716 C2713 0.929 . S
S2717 N2718 1.613 . S
S2717 N2719 1.610 . S
N2718 S2717 1.613 . S
N2718 C2721 1.350 . S
N2719 S2717 1.610 . S
N2719 C2720 1.351 . S
C2720 C2714 1.428 . S
C2720 N2719 1.351 . S
C2720 C2721 1.434 . S
C2721 C2712 1.429 . S
C2721 N2718 1.350 . S
C2721 C2720 1.434 . S
C2722 C2723 1.369 . S
C2722 C2724 1.419 . S
C2722 H2726 0.930 . S
C2723 C2722 1.369 . S
C2723 C2732 1.429 . S
C2724 C2722 1.419 . S
C2724 C2725 1.363 . S
C2724 H2727 0.929 . S
C2725 C2724 1.363 . S
C2725 C2731 1.428 . S
H2726 C2722 0.930 . S
H2727 C2724 0.929 . S
S2728 N2729 1.613 . S
S2728 N2730 1.610 . S
N2729 S2728 1.613 . S
N2729 C2732 1.350 . S
N2730 S2728 1.610 . S
N2730 C2731 1.351 . S
C2731 C2725 1.428 . S
C2731 N2730 1.351 . S
C2731 C2732 1.434 . S
C2732 C2723 1.429 . S
C2732 N2729 1.350 . S
C2732 C2731 1.434 . S
C2733 C2734 1.369 . S
C2733 C2735 1.419 . S
C2733 H2737 0.930 . S
C2734 C2733 1.369 . S
C2734 C2743 1.429 . S
C2735 C2733 1.419 . S
C2735 C2736 1.363 . S
C2735 H2738 0.929 . S
C2736 C2735 1.363 . S
C2736 C2742 1.428 . S
H2737 C2733 0.930 . S
H2738 C2735 0.929 . S
S2739 N2740 1.613 1_565 S
S2739 N2741 1.610 1_565 S
N2740 S2739 1.613 1_545 S
N2740 C2743 1.350 . S
N2741 S2739 1.610 1_545 S
N2741 C2742 1.351 . S
C2742 C2736 1.428 . S
C2742 N2741 1.351 . S
C2742 C2743 1.434 . S
C2743 C2734 1.429 . S
C2743 N2740 1.350 . S
C2743 C2742 1.434 . S
C2744 C2745 1.369 . S
C2744 C2746 1.419 . S
C2744 H2748 0.930 . S
C2745 C2744 1.369 . S
C2745 C2754 1.429 . S
C2746 C2744 1.419 . S
C2746 C2747 1.363 . S
C2746 H2749 0.929 . S
C2747 C2746 1.363 . S
C2747 C2753 1.428 . S
H2748 C2744 0.930 . S
H2749 C2746 0.929 . S
S2750 N2751 1.633 . S
S2750 N2752 1.614 . S
N2751 S2750 1.633 . S
N2751 C2754 1.350 . S
N2752 S2750 1.614 . S
N2752 C2753 1.351 . S
C2753 C2747 1.428 . S
C2753 N2752 1.351 . S
C2753 C2754 1.434 . S
C2754 C2745 1.429 . S
C2754 N2751 1.350 . S
C2754 C2753 1.434 . S
C2755 C2756 1.369 . S
C2755 C2757 1.419 . S
C2755 H2759 0.930 . S
C2756 C2755 1.369 . S
C2756 C2765 1.429 . S
C2757 C2755 1.419 . S
C2757 C2758 1.363 . S
C2757 H2760 0.929 . S
C2758 C2757 1.363 . S
C2758 C2764 1.428 . S
H2759 C2755 0.930 . S
H2760 C2757 0.929 . S
S2761 N2762 1.613 . S
S2761 N2763 1.610 . S
N2762 S2761 1.613 . S
N2762 C2765 1.350 . S
N2763 S2761 1.610 . S
N2763 C2764 1.351 . S
C2764 C2758 1.428 . S
C2764 N2763 1.351 . S
C2764 C2765 1.434 . S
C2765 C2756 1.429 . S
C2765 N2762 1.350 . S
C2765 C2764 1.434 . S
C2766 C2767 1.369 . S
C2766 C2768 1.419 . S
C2766 H2770 0.930 . S
C2767 C2766 1.369 . S
C2767 C2776 1.429 . S
C2768 C2766 1.419 . S
C2768 C2769 1.363 . S
C2768 H2771 0.929 . S
C2769 C2768 1.363 . S
C2769 C2775 1.428 . S
H2770 C2766 0.930 . S
H2771 C2768 0.929 . S
S2772 N2773 1.613 1_455 S
S2772 N2774 1.610 1_455 S
N2773 S2772 1.613 1_655 S
N2773 C2776 1.350 . S
N2774 S2772 1.610 1_655 S
N2774 C2775 1.351 . S
C2775 C2769 1.428 . S
C2775 N2774 1.351 . S
C2775 C2776 1.434 . S
C2776 C2767 1.429 . S
C2776 N2773 1.350 . S
C2776 C2775 1.434 . S
C2777 C2778 1.369 . S
C2777 C2779 1.419 . S
C2777 H2781 0.930 . S
C2778 C2777 1.369 . S
C2778 C2787 1.429 . S
C2779 C2777 1.419 . S
C2779 C2780 1.363 . S
C2779 H2782 0.929 . S
C2780 C2779 1.363 . S
C2780 C2786 1.428 . S
H2781 C2777 0.930 . S
H2782 C2779 0.929 . S
S2783 N2784 1.613 1_554 S
S2783 N2785 1.610 1_554 S
N2784 S2783 1.613 1_556 S
N2784 C2787 1.350 . S
N2785 S2783 1.610 1_556 S
N2785 C2786 1.351 . S
C2786 C2780 1.428 . S
C2786 N2785 1.351 . S
C2786 C2787 1.434 . S
C2787 C2778 1.429 . S
C2787 N2784 1.350 . S
C2787 C2786 1.434 . S
C2788 C2789 1.369 . S
C2788 C2790 1.419 . S
C2788 H2792 0.930 1_556 S
C2789 C2788 1.369 . S
C2789 C2798 1.429 . S
C2790 C2788 1.419 . S
C2790 C2791 1.363 . S
C2790 H2793 0.929 . S
C2791 C2790 1.363 . S
C2791 C2797 1.428 . S
H2792 C2788 0.930 1_554 S
H2793 C2790 0.929 . S
S2794 N2795 1.613 . S
S2794 N2796 1.610 . S
N2795 S2794 1.613 . S
N2795 C2798 1.350 . S
N2796 S2794 1.610 . S
N2796 C2797 1.351 . S
C2797 C2791 1.428 . S
C2797 N2796 1.351 . S
C2797 C2798 1.434 . S
C2798 C2789 1.429 . S
C2798 N2795 1.350 . S
C2798 C2797 1.434 . S
C2799 C2800 1.369 . S
C2799 C2801 1.419 . S
C2799 H2803 0.930 . S
C2800 C2799 1.369 . S
C2800 C2809 1.429 . S
C2801 C2799 1.419 . S
C2801 C2802 1.363 . S
C2801 H2804 0.929 . S
C2802 C2801 1.363 . S
C2802 C2808 1.428 . S
H2803 C2799 0.930 . S
H2804 C2801 0.929 . S
S2805 N2806 1.613 . S
S2805 N2807 1.610 . S
N2806 S2805 1.613 . S
N2806 C2809 1.350 . S
N2807 S2805 1.610 . S
N2807 C2808 1.351 . S
C2808 C2802 1.428 . S
C2808 N2807 1.351 . S
C2808 C2809 1.434 . S
C2809 C2800 1.429 . S
C2809 N2806 1.350 . S
C2809 C2808 1.434 . S
C2810 C2811 1.369 . S
C2810 C2812 1.419 . S
C2810 H2814 0.930 . S
C2811 C2810 1.369 . S
C2811 C2820 1.429 . S
C2812 C2810 1.419 . S
C2812 C2813 1.363 . S
C2812 H2815 0.929 . S
C2813 C2812 1.363 . S
C2813 C2819 1.428 . S
H2814 C2810 0.930 . S
H2815 C2812 0.929 . S
S2816 N2817 1.613 . S
S2816 N2818 1.610 . S
N2817 S2816 1.613 . S
N2817 C2820 1.350 . S
N2818 S2816 1.610 . S
N2818 C2819 1.351 . S
C2819 C2813 1.428 . S
C2819 N2818 1.351 . S
C2819 C2820 1.434 . S
C2820 C2811 1.429 . S
C2820 N2817 1.350 . S
C2820 C2819 1.434 . S
C2821 C2822 1.369 . S
C2821 C2823 1.419 . S
C2821 H2825 0.930 . S
C2822 C2821 1.369 . S
C2822 C2831 1.429 . S
C2823 C2821 1.419 . S
C2823 C2824 1.363 . S
C2823 H2826 0.929 . S
C2824 C2823 1.363 . S
C2824 C2830 1.428 . S
H2825 C2821 0.930 . S
H2826 C2823 0.929 . S
S2827 N2828 1.613 . S
S2827 N2829 1.610 . S
N2828 S2827 1.613 . S
N2828 C2831 1.350 . S
N2829 S2827 1.610 . S
N2829 C2830 1.351 . S
C2830 C2824 1.428 . S
C2830 N2829 1.351 . S
C2830 C2831 1.434 . S
C2831 C2822 1.429 . S
C2831 N2828 1.350 . S
C2831 C2830 1.434 . S
C2832 C2833 1.369 . S
C2832 C2834 1.419 . S
C2832 H2836 0.930 . S
C2833 C2832 1.369 . S
C2833 C2842 1.429 . S
C2834 C2832 1.419 . S
C2834 C2835 1.363 . S
C2834 H2837 0.929 . S
C2835 C2834 1.363 . S
C2835 C2841 1.428 . S
H2836 C2832 0.930 . S
H2837 C2834 0.929 . S
S2838 N2839 1.613 . S
S2838 N2840 1.610 . S
N2839 S2838 1.613 . S
N2839 C2842 1.350 . S
N2840 S2838 1.610 . S
N2840 C2841 1.351 . S
C2841 C2835 1.428 . S
C2841 N2840 1.351 . S
C2841 C2842 1.434 . S
C2842 C2833 1.429 . S
C2842 N2839 1.350 . S
C2842 C2841 1.434 . S
C2843 C2844 1.369 . S
C2843 C2845 1.419 . S
C2843 H2847 0.930 . S
C2844 C2843 1.369 . S
C2844 C2853 1.429 . S
C2845 C2843 1.419 . S
C2845 C2846 1.363 . S
C2845 H2848 0.929 . S
C2846 C2845 1.363 . S
C2846 C2852 1.428 . S
H2847 C2843 0.930 . S
H2848 C2845 0.929 . S
S2849 N2850 1.613 . S
S2849 N2851 1.610 . S
N2850 S2849 1.613 . S
N2850 C2853 1.350 . S
N2851 S2849 1.610 . S
N2851 C2852 1.351 . S
C2852 C2846 1.428 . S
C2852 N2851 1.351 . S
C2852 C2853 1.434 . S
C2853 C2844 1.429 . S
C2853 N2850 1.350 . S
C2853 C2852 1.434 . S
C2854 C2855 1.369 . S
C2854 C2856 1.419 . S
C2854 H2858 0.930 . S
C2855 C2854 1.369 . S
C2855 C2864 1.429 . S
C2856 C2854 1.419 . S
C2856 C2857 1.363 . S
C2856 H2859 0.929 . S
C2857 C2856 1.363 . S
C2857 C2863 1.428 . S
H2858 C2854 0.930 . S
H2859 C2856 0.929 . S
S2860 N2861 1.613 . S
S2860 N2862 1.610 . S
N2861 S2860 1.613 . S
N2861 C2864 1.350 . S
N2862 S2860 1.610 . S
N2862 C2863 1.351 . S
C2863 C2857 1.428 . S
C2863 N2862 1.351 . S
C2863 C2864 1.434 . S
C2864 C2855 1.429 . S
C2864 N2861 1.350 . S
C2864 C2863 1.434 . S
C2865 C2866 1.369 . S
C2865 C2867 1.419 . S
C2865 H2869 0.930 . S
C2866 C2865 1.369 . S
C2866 C2875 1.429 . S
C2867 C2865 1.419 . S
C2867 C2868 1.363 . S
C2867 H2870 0.929 . S
C2868 C2867 1.363 . S
C2868 C2874 1.428 . S
H2869 C2865 0.930 . S
H2870 C2867 0.929 . S
S2871 N2872 1.613 . S
S2871 N2873 1.610 . S
N2872 S2871 1.613 . S
N2872 C2875 1.350 . S
N2873 S2871 1.610 . S
N2873 C2874 1.351 . S
C2874 C2868 1.428 . S
C2874 N2873 1.351 . S
C2874 C2875 1.434 . S
C2875 C2866 1.429 . S
C2875 N2872 1.350 . S
C2875 C2874 1.434 . S
C2876 C2877 1.369 . S
C2876 C2878 1.419 . S
C2876 H2880 0.930 . S
C2877 C2876 1.369 . S
C2877 C2886 1.429 . S
C2878 C2876 1.419 . S
C2878 C2879 1.363 . S
C2878 H2881 0.929 . S
C2879 C2878 1.363 . S
C2879 C2885 1.428 . S
H2880 C2876 0.930 . S
H2881 C2878 0.929 . S
S2882 N2883 1.613 . S
S2882 N2884 1.610 . S
N2883 S2882 1.613 . S
N2883 C2886 1.350 . S
N2884 S2882 1.610 . S
N2884 C2885 1.351 . S
C2885 C2879 1.428 . S
C2885 N2884 1.351 . S
C2885 C2886 1.434 . S
C2886 C2877 1.429 . S
C2886 N2883 1.350 . S
C2886 C2885 1.434 . S
C2887 C2888 1.369 1_545 S
C2887 C2889 1.419 . S
C2887 H2891 0.930 . S
C2888 C2887 1.369 1_565 S
C2888 C2897 1.429 . S
C2889 C2887 1.419 . S
C2889 C2890 1.363 1_545 S
C2889 H2892 0.929 . S
C2890 C2889 1.363 1_565 S
C2890 C2896 1.428 . S
H2891 C2887 0.930 . S
H2892 C2889 0.929 . S
S2893 N2894 1.613 . S
S2893 N2895 1.610 . S
N2894 S2893 1.613 . S
N2894 C2897 1.350 . S
N2895 S2893 1.610 . S
N2895 C2896 1.351 . S
C2896 C2890 1.428 . S
C2896 N2895 1.351 . S
C2896 C2897 1.434 . S
C2897 C2888 1.429 . S
C2897 N2894 1.350 . S
C2897 C2896 1.434 . S
C2898 C2899 1.397 . S
C2898 C2900 1.390 1_565 S
C2898 H2902 0.933 1_565 S
C2899 C2898 1.397 . S
C2899 C2908 1.429 . S
C2900 C2898 1.390 1_545 S
C2900 C2901 1.363 1_545 S
C2900 H2903 0.929 . S
C2901 C2900 1.363 1_565 S
C2901 C2907 1.428 . S
H2902 C2898 0.933 1_545 S
H2903 C2900 0.929 . S
S2904 N2905 1.613 . S
S2904 N2906 1.610 . S
N2905 S2904 1.613 . S
N2905 C2908 1.350 . S
N2906 S2904 1.610 . S
N2906 C2907 1.351 . S
C2907 C2901 1.428 . S
C2907 N2906 1.351 . S
C2907 C2908 1.434 . S
C2908 C2899 1.429 . S
C2908 N2905 1.350 . S
C2908 C2907 1.434 . S
C2909 C2910 1.369 . S
C2909 C2911 1.419 1_455 S
C2909 H2913 0.930 1_455 S
C2910 C2909 1.369 . S
C2910 C2919 1.429 . S
C2911 C2909 1.419 1_655 S
C2911 C2912 1.363 1_655 S
C2911 H2914 0.929 . S
C2912 C2911 1.363 1_455 S
C2912 C2918 1.428 . S
H2913 C2909 0.930 1_655 S
H2914 C2911 0.929 . S
S2915 N2916 1.613 . S
S2915 N2917 1.610 . S
N2916 S2915 1.613 . S
N2916 C2919 1.350 . S
N2917 S2915 1.610 . S
N2917 C2918 1.351 . S
C2918 C2912 1.428 . S
C2918 N2917 1.351 . S
C2918 C2919 1.434 . S
C2919 C2910 1.429 . S
C2919 N2916 1.350 . S
C2919 C2918 1.434 . S
C2920 C2921 1.369 . S
C2920 C2922 1.419 . S
C2920 H2924 0.930 . S
C2921 C2920 1.369 . S
C2921 C2930 1.429 . S
C2922 C2920 1.419 . S
C2922 C2923 1.363 . S
C2922 H2925 0.929 . S
C2923 C2922 1.363 . S
C2923 C2929 1.428 . S
H2924 C2920 0.930 . S
H2925 C2922 0.929 . S
S2926 N2927 1.613 . S
S2926 N2928 1.610 . S
N2927 S2926 1.613 . S
N2927 C2930 1.350 . S
N2928 S2926 1.610 . S
N2928 C2929 1.351 . S
C2929 C2923 1.428 . S
C2929 N2928 1.351 . S
C2929 C2930 1.434 . S
C2930 C2921 1.429 . S
C2930 N2927 1.350 . S
C2930 C2929 1.434 . S
C2931 C2932 1.369 . S
C2931 C2933 1.419 . S
C2931 H2935 0.930 . S
C2932 C2931 1.369 . S
C2932 C2941 1.429 . S
C2933 C2931 1.419 . S
C2933 C2934 1.363 . S
C2933 H2936 0.929 . S
C2934 C2933 1.363 . S
C2934 C2940 1.428 . S
H2935 C2931 0.930 . S
H2936 C2933 0.929 . S
S2937 N2938 1.613 . S
S2937 N2939 1.610 . S
N2938 S2937 1.613 . S
N2938 C2941 1.350 . S
N2939 S2937 1.610 . S
N2939 C2940 1.351 . S
C2940 C2934 1.428 . S
C2940 N2939 1.351 . S
C2940 C2941 1.434 . S
C2941 C2932 1.429 . S
C2941 N2938 1.350 . S
C2941 C2940 1.434 . S
C2942 C2943 1.369 . S
C2942 C2944 1.419 . S
C2942 H2946 0.930 . S
C2943 C2942 1.369 . S
C2943 C2952 1.429 . S
C2944 C2942 1.419 . S
C2944 C2945 1.363 . S
C2944 H2947 0.929 . S
C2945 C2944 1.363 . S
C2945 C2951 1.428 . S
H2946 C2942 0.930 . S
H2947 C2944 0.929 . S
S2948 N2949 1.613 . S
S2948 N2950 1.610 . S
N2949 S2948 1.613 . S
N2949 C2952 1.350 . S
N2950 S2948 1.610 . S
N2950 C2951 1.351 . S
C2951 C2945 1.428 . S
C2951 N2950 1.351 . S
C2951 C2952 1.434 . S
C2952 C2943 1.429 . S
C2952 N2949 1.350 . S
C2952 C2951 1.434 . S
C2953 C2954 1.369 . S
C2953 C2955 1.419 . S
C2953 H2957 0.930 . S
C2954 C2953 1.369 . S
C2954 C2963 1.429 . S
C2955 C2953 1.419 . S
C2955 C2956 1.363 . S
C2955 H2958 0.929 . S
C2956 C2955 1.363 . S
C2956 C2962 1.428 . S
H2957 C2953 0.930 . S
H2958 C2955 0.929 . S
S2959 N2960 1.613 . S
S2959 N2961 1.610 . S
N2960 S2959 1.613 . S
N2960 C2963 1.350 . S
N2961 S2959 1.610 . S
N2961 C2962 1.351 . S
C2962 C2956 1.428 . S
C2962 N2961 1.351 . S
C2962 C2963 1.434 . S
C2963 C2954 1.429 . S
C2963 N2960 1.350 . S
C2963 C2962 1.434 . S
C2964 C2965 1.369 . S
C2964 C2966 1.419 . S
C2964 H2968 0.930 1_545 S
C2965 C2964 1.369 . S
C2965 C2974 1.429 . S
C2966 C2964 1.419 . S
C2966 C2967 1.363 . S
C2966 H2969 0.929 1_545 S
C2967 C2966 1.363 . S
C2967 C2973 1.428 . S
H2968 C2964 0.930 1_565 S
H2969 C2966 0.929 1_565 S
S2970 N2971 1.613 . S
S2970 N2972 1.610 . S
N2971 S2970 1.613 . S
N2971 C2974 1.350 . S
N2972 S2970 1.610 . S
N2972 C2973 1.351 . S
C2973 C2967 1.428 . S
C2973 N2972 1.351 . S
C2973 C2974 1.434 . S
C2974 C2965 1.429 . S
C2974 N2971 1.350 . S
C2974 C2973 1.434 . S
C2975 C2976 1.369 . S
C2975 C2977 1.419 . S
C2975 H2979 0.930 . S
C2976 C2975 1.369 . S
C2976 C2985 1.429 1_655 S
C2977 C2975 1.419 . S
C2977 C2978 1.363 . S
C2977 H2980 0.929 . S
C2978 C2977 1.363 . S
C2978 C2984 1.428 1_655 S
H2979 C2975 0.930 . S
H2980 C2977 0.929 . S
S2981 N2982 1.613 . S
S2981 N2983 1.610 . S
N2982 S2981 1.613 . S
N2982 C2985 1.350 . S
N2983 S2981 1.610 . S
N2983 C2984 1.351 . S
C2984 C2978 1.428 1_455 S
C2984 N2983 1.351 . S
C2984 C2985 1.434 . S
C2985 C2976 1.429 1_455 S
C2985 N2982 1.350 . S
C2985 C2984 1.434 . S
C2986 C2987 1.369 . S
C2986 C2988 1.419 . S
C2986 H2990 0.930 . S
C2987 C2986 1.369 . S
C2987 C2996 1.429 . S
C2988 C2986 1.419 . S
C2988 C2989 1.363 . S
C2988 H2991 0.929 . S
C2989 C2988 1.363 . S
C2989 C2995 1.428 . S
H2990 C2986 0.930 . S
H2991 C2988 0.929 . S
S2992 N2993 1.613 . S
S2992 N2994 1.610 . S
N2993 S2992 1.613 . S
N2993 C2996 1.350 . S
N2994 S2992 1.610 . S
N2994 C2995 1.351 . S
C2995 C2989 1.428 . S
C2995 N2994 1.351 . S
C2995 C2996 1.434 . S
C2996 C2987 1.429 . S
C2996 N2993 1.350 . S
C2996 C2995 1.434 . S
C2997 C2998 1.369 . S
C2997 C2999 1.419 . S
C2997 H3001 0.930 . S
C2998 C2997 1.369 . S
C2998 C3007 1.429 . S
C2999 C2997 1.419 . S
C2999 C3000 1.363 . S
C2999 H3002 0.929 . S
C3000 C2999 1.363 . S
C3000 C3006 1.428 . S
H3001 C2997 0.930 . S
H3002 C2999 0.929 . S
S3003 N3004 1.613 . S
S3003 N3005 1.610 . S
N3004 S3003 1.613 . S
N3004 C3007 1.350 . S
N3005 S3003 1.610 . S
N3005 C3006 1.351 . S
C3006 C3000 1.428 . S
C3006 N3005 1.351 . S
C3006 C3007 1.434 . S
C3007 C2998 1.429 . S
C3007 N3004 1.350 . S
C3007 C3006 1.434 . S
C3008 C3009 1.369 . S
C3008 C3010 1.419 . S
C3008 H3012 0.930 . S
C3009 C3008 1.369 . S
C3009 C3018 1.429 . S
C3010 C3008 1.419 . S
C3010 C3011 1.363 . S
C3010 H3013 0.929 . S
C3011 C3010 1.363 . S
C3011 C3017 1.428 . S
H3012 C3008 0.930 . S
H3013 C3010 0.929 . S
S3014 N3015 1.613 . S
S3014 N3016 1.610 . S
N3015 S3014 1.613 . S
N3015 C3018 1.350 . S
N3016 S3014 1.610 . S
N3016 C3017 1.351 . S
C3017 C3011 1.428 . S
C3017 N3016 1.351 . S
C3017 C3018 1.434 . S
C3018 C3009 1.429 . S
C3018 N3015 1.350 . S
C3018 C3017 1.434 . S
C3019 C3020 1.369 . S
C3019 C3021 1.419 . S
C3019 H3023 0.930 . S
C3020 C3019 1.369 . S
C3020 C3029 1.429 . S
C3021 C3019 1.419 . S
C3021 C3022 1.363 . S
C3021 H3024 0.929 . S
C3022 C3021 1.363 . S
C3022 C3028 1.428 . S
H3023 C3019 0.930 . S
H3024 C3021 0.929 . S
S3025 N3026 1.613 . S
S3025 N3027 1.610 . S
N3026 S3025 1.613 . S
N3026 C3029 1.350 . S
N3027 S3025 1.610 . S
N3027 C3028 1.351 . S
C3028 C3022 1.428 . S
C3028 N3027 1.351 . S
C3028 C3029 1.434 . S
C3029 C3020 1.429 . S
C3029 N3026 1.350 . S
C3029 C3028 1.434 . S
C3030 C3031 1.369 . S
C3030 C3032 1.419 . S
C3030 H3034 0.930 . S
C3031 C3030 1.369 . S
C3031 C3040 1.429 . S
C3032 C3030 1.419 . S
C3032 C3033 1.363 . S
C3032 H3035 0.929 . S
C3033 C3032 1.363 . S
C3033 C3039 1.428 . S
H3034 C3030 0.930 . S
H3035 C3032 0.929 . S
S3036 N3037 1.613 . S
S3036 N3038 1.610 . S
N3037 S3036 1.613 . S
N3037 C3040 1.350 . S
N3038 S3036 1.610 . S
N3038 C3039 1.351 . S
C3039 C3033 1.428 . S
C3039 N3038 1.351 . S
C3039 C3040 1.434 . S
C3040 C3031 1.429 . S
C3040 N3037 1.350 . S
C3040 C3039 1.434 . S
C3041 C3042 1.369 . S
C3041 C3043 1.419 . S
C3041 H3045 0.930 . S
C3042 C3041 1.369 . S
C3042 C3051 1.429 . S
C3043 C3041 1.419 . S
C3043 C3044 1.363 . S
C3043 H3046 0.929 . S
C3044 C3043 1.363 . S
C3044 C3050 1.428 . S
H3045 C3041 0.930 . S
H3046 C3043 0.929 . S
S3047 N3048 1.613 . S
S3047 N3049 1.610 . S
N3048 S3047 1.613 . S
N3048 C3051 1.350 . S
N3049 S3047 1.610 . S
N3049 C3050 1.351 . S
C3050 C3044 1.428 . S
C3050 N3049 1.351 . S
C3050 C3051 1.434 . S
C3051 C3042 1.429 . S
C3051 N3048 1.350 . S
C3051 C3050 1.434 . S
C3052 C3053 1.369 . S
C3052 C3054 1.419 . S
C3052 H3056 0.930 . S
C3053 C3052 1.369 . S
C3053 C3062 1.429 . S
C3054 C3052 1.419 . S
C3054 C3055 1.363 . S
C3054 H3057 0.929 . S
C3055 C3054 1.363 . S
C3055 C3061 1.428 . S
H3056 C3052 0.930 . S
H3057 C3054 0.929 . S
S3058 N3059 1.613 . S
S3058 N3060 1.610 . S
N3059 S3058 1.613 . S
N3059 C3062 1.350 . S
N3060 S3058 1.610 . S
N3060 C3061 1.351 . S
C3061 C3055 1.428 . S
C3061 N3060 1.351 . S
C3061 C3062 1.434 . S
C3062 C3053 1.429 . S
C3062 N3059 1.350 . S
C3062 C3061 1.434 . S
C3063 C3064 1.369 . S
C3063 C3065 1.395 1_655 S
C3063 H3067 0.921 1_655 S
C3064 C3063 1.369 . S
C3064 C3073 1.429 . S
C3065 C3063 1.395 1_455 S
C3065 C3066 1.355 1_455 S
C3065 H3068 0.964 . S
C3066 C3065 1.355 1_655 S
C3066 C3072 1.428 . S
H3067 C3063 0.921 1_455 S
H3068 C3065 0.964 . S
S3069 N3070 1.613 . S
S3069 N3071 1.610 . S
N3070 S3069 1.613 . S
N3070 C3073 1.350 . S
N3071 S3069 1.610 . S
N3071 C3072 1.351 . S
C3072 C3066 1.428 . S
C3072 N3071 1.351 . S
C3072 C3073 1.434 . S
C3073 C3064 1.429 . S
C3073 N3070 1.350 . S
C3073 C3072 1.434 . S
C3074 C3075 1.369 . S
C3074 C3076 1.419 . S
C3074 H3078 0.930 . S
C3075 C3074 1.369 . S
C3075 C3084 1.429 . S
C3076 C3074 1.419 . S
C3076 C3077 1.363 . S
C3076 H3079 0.929 . S
C3077 C3076 1.363 . S
C3077 C3083 1.428 . S
H3078 C3074 0.930 . S
H3079 C3076 0.929 . S
S3080 N3081 1.613 . S
S3080 N3082 1.610 . S
N3081 S3080 1.613 . S
N3081 C3084 1.350 . S
N3082 S3080 1.610 . S
N3082 C3083 1.351 . S
C3083 C3077 1.428 . S
C3083 N3082 1.351 . S
C3083 C3084 1.434 . S
C3084 C3075 1.429 . S
C3084 N3081 1.350 . S
C3084 C3083 1.434 . S
C3085 C3086 1.369 . S
C3085 C3087 1.425 1_545 S
C3085 H3089 0.930 . S
C3086 C3085 1.369 . S
C3086 C3095 1.429 . S
C3087 C3085 1.425 1_565 S
C3087 C3088 1.360 1_565 S
C3087 H3090 0.928 . S
C3088 C3087 1.360 1_545 S
C3088 C3094 1.428 . S
H3089 C3085 0.930 . S
H3090 C3087 0.928 . S
S3091 N3092 1.613 . S
S3091 N3093 1.610 . S
N3092 S3091 1.613 . S
N3092 C3095 1.350 . S
N3093 S3091 1.610 . S
N3093 C3094 1.351 . S
C3094 C3088 1.428 . S
C3094 N3093 1.351 . S
C3094 C3095 1.434 . S
C3095 C3086 1.429 . S
C3095 N3092 1.350 . S
C3095 C3094 1.434 . S
C2305 C4 1.332 . S
C2307 C1307 1.083 1_655 S
C2316 C26 1.735 . S
C2318 C1447 0.998 . S
C2329 C1535 1.110 . S
C2327 C32 1.309 . S
C2338 C40 1.380 . S
C2340 C1675 1.038 1_565 S
C2349 C12 1.412 . S
C2351 C1789 1.128 . S
C2360 C18 1.630 . S
C2362 C1877 1.163 . S
C2371 C46 1.331 . S
C2373 C1763 1.049 . S
C2384 C1903 1.341 . S
C2382 C68 1.611 . S
C2395 C1649 1.076 . S
C2393 C74 1.326 . S
C2404 C82 1.408 . S
C2406 C1561 0.945 . S
C2417 C1333 1.009 . S
C2415 C54 1.426 . S
C2426 C60 1.510 . S
C2428 C1421 1.407 . S
C2437 C88 1.774 . S
C2439 C1991 1.282 . S
C2448 C110 1.858 . S
C2450 C2131 1.107 . S
C2461 C2219 1.240 . S
C2459 C116 1.758 . S
C2470 C124 1.688 . S
C2472 C307 1.011 . S
C2481 C96 1.750 . S
C2483 C421 1.045 . S
C2492 C102 1.747 . S
C2494 C509 1.247 . S
C2503 C130 1.532 . S
C2505 C395 1.466 . S
C2514 C152 1.726 . S
C2516 C535 1.510 . S
C2527 C281 1.544 . S
C2525 C158 1.636 . S
C2538 C2245 1.450 . S
C2536 C166 1.687 . S
C2549 C2017 1.369 . S
C2547 C138 1.598 . S
C2560 C2105 1.574 . S
C2558 C144 1.639 . S
C2569 C172 1.677 . S
C2571 C623 1.161 . S
C2580 C194 1.868 . S
C2582 C763 1.080 . S
C2591 C200 1.773 . S
C2593 C851 1.255 . S
C2602 C208 1.793 . S
C2604 C991 1.089 . S
C2615 C1105 1.022 . S
C2613 C180 1.725 . S
C2626 C1193 1.269 . S
C2624 C186 1.758 . S
C2637 C1079 1.576 . S
C2635 C214 1.659 . S
C2648 C1219 1.510 . S
C2646 C236 1.721 . S
C2657 C242 1.604 . S
C2659 C965 1.535 . S
C2670 C877 1.343 . S
C2668 C250 1.567 . S
C2679 C222 1.643 . S
C2681 C649 1.381 . S
C2692 C737 1.552 . S
C2690 C228 1.629 . S
C2703 C263 0.965 . S
C2701 C5 1.700 . S
C2712 C25 1.783 . S
C2714 C377 0.939 . S
C2725 C481 1.277 . S
C2723 C33 1.631 . S
C2736 C595 1.148 . S
C2734 C39 1.696 . S
C2747 C719 0.959 . S
C2745 C11 1.869 . S
C2758 C823 1.167 . S
C2756 C19 1.448 1_556 S
C2767 C47 1.811 1_556 S
C2769 C833 1.733 . S
C2778 C67 1.945 . S
C2780 C605 1.641 . S
C2789 C75 1.815 1_556 S
C2791 C709 1.938 . S
C2800 C81 1.865 . S
C2802 C367 1.709 . S
C2813 C491 1.703 . S
C2811 C53 2.034 . S
C2822 C61 1.573 . S
C2824 C253 1.723 . S
C2835 C947 0.925 . S
C2833 C89 1.527 . S
C2844 C109 1.842 . S
C2846 C1061 1.016 . S
C2855 C117 1.499 . S
C2857 C1165 1.288 . S
C2868 C1279 0.947 . S
C2866 C123 1.160 . S
C2877 C95 1.684 . S
C2879 C1403 0.856 . S
C2888 C103 1.128 . S
C2890 C1507 0.992 . S
C2899 C131 1.210 . S
C2901 C1517 0.909 1_565 S
C2910 C151 1.304 . S
C2912 C1289 0.942 1_455 S
C2923 C1393 1.706 . S
C2921 C159 1.552 . S
C2932 C165 1.798 . S
C2934 C1051 1.651 . S
C2943 C137 1.961 . S
C2945 C1175 1.625 . S
C2956 C937 1.761 . S
C2954 C145 1.605 . S
C2967 C1631 0.791 . S
C2965 C173 1.213 . S
C2976 C193 1.214 . S
C2978 C1745 0.816 . S
C2987 C201 1.430 . S
C2989 C1849 1.158 . S
C3000 C1963 1.134 . S
C2998 C207 1.631 . S
C3011 C2087 1.001 . S
C3009 C179 1.831 . S
C3020 C187 1.488 . S
C3022 C2191 1.240 . S
C3031 C215 1.670 . S
C3033 C2201 1.661 . S
C3042 C235 1.998 . S
C3044 C1973 1.663 . S
C3055 C2077 1.843 . S
C3053 C243 1.639 . S
C3066 C1735 1.008 1_655 S
C3064 C249 1.156 . S
C3077 C1859 1.498 . S
C3075 C221 1.839 . S
C3086 C229 1.147 . S
C3088 C1621 1.070 1_545 S
