# Generated by pormake.
# Topology pyr, (3,6)-cn, num edge types: 1
# Building blocks:
#     Node 0, Type 0, BuildingBlock: KAKCAD_clean_linker_0, # of connection points: 3
#     Node 1, Type 0, BuildingBlock: KAKCAD_clean_linker_0, # of connection points: 3
#     Node 2, Type 0, BuildingBlock: KAKCAD_clean_linker_0, # of connection points: 3
#     Node 3, Type 0, BuildingBlock: KAKCAD_clean_linker_0, # of connection points: 3
#     Node 4, Type 0, BuildingBlock: KAKCAD_clean_linker_0, # of connection points: 3
#     Node 5, Type 0, BuildingBlock: KAKCAD_clean_linker_0, # of connection points: 3
#     Node 6, Type 0, BuildingBlock: KAKCAD_clean_linker_0, # of connection points: 3
#     Node 7, Type 0, BuildingBlock: KAKCAD_clean_linker_0, # of connection points: 3
#     Node 8, Type 1, BuildingBlock: MIFKUJ_clean_sbu_0, # of connection points: 6
#     Node 9, Type 1, BuildingBlock: MIFKUJ_clean_sbu_0, # of connection points: 6
#     Node 10, Type 1, BuildingBlock: MIFKUJ_clean_sbu_0, # of connection points: 6
#     Node 11, Type 1, BuildingBlock: MIFKUJ_clean_sbu_0, # of connection points: 6
#     Edge 12, Type (0, 1), BuildingBlock: XIVTED_clean_linker_0, # of connection points: 2
#     Edge 13, Type (0, 1), BuildingBlock: XIVTED_clean_linker_0, # of connection points: 2
#     Edge 14, Type (0, 1), BuildingBlock: XIVTED_clean_linker_0, # of connection points: 2
#     Edge 15, Type (0, 1), BuildingBlock: XIVTED_clean_linker_0, # of connection points: 2
#     Edge 16, Type (0, 1), BuildingBlock: XIVTED_clean_linker_0, # of connection points: 2
#     Edge 17, Type (0, 1), BuildingBlock: XIVTED_clean_linker_0, # of connection points: 2
#     Edge 18, Type (0, 1), BuildingBlock: XIVTED_clean_linker_0, # of connection points: 2
#     Edge 19, Type (0, 1), BuildingBlock: XIVTED_clean_linker_0, # of connection points: 2
#     Edge 20, Type (0, 1), BuildingBlock: XIVTED_clean_linker_0, # of connection points: 2
#     Edge 21, Type (0, 1), BuildingBlock: XIVTED_clean_linker_0, # of connection points: 2
#     Edge 22, Type (0, 1), BuildingBlock: XIVTED_clean_linker_0, # of connection points: 2
#     Edge 23, Type (0, 1), BuildingBlock: XIVTED_clean_linker_0, # of connection points: 2
#     Edge 24, Type (0, 1), BuildingBlock: XIVTED_clean_linker_0, # of connection points: 2
#     Edge 25, Type (0, 1), BuildingBlock: XIVTED_clean_linker_0, # of connection points: 2
#     Edge 26, Type (0, 1), BuildingBlock: XIVTED_clean_linker_0, # of connection points: 2
#     Edge 27, Type (0, 1), BuildingBlock: XIVTED_clean_linker_0, # of connection points: 2
#     Edge 28, Type (0, 1), BuildingBlock: XIVTED_clean_linker_0, # of connection points: 2
#     Edge 29, Type (0, 1), BuildingBlock: XIVTED_clean_linker_0, # of connection points: 2
#     Edge 30, Type (0, 1), BuildingBlock: XIVTED_clean_linker_0, # of connection points: 2
#     Edge 31, Type (0, 1), BuildingBlock: XIVTED_clean_linker_0, # of connection points: 2
#     Edge 32, Type (0, 1), BuildingBlock: XIVTED_clean_linker_0, # of connection points: 2
#     Edge 33, Type (0, 1), BuildingBlock: XIVTED_clean_linker_0, # of connection points: 2
#     Edge 34, Type (0, 1), BuildingBlock: XIVTED_clean_linker_0, # of connection points: 2
#     Edge 35, Type (0, 1), BuildingBlock: XIVTED_clean_linker_0, # of connection points: 2
# Relax obj value: 0.027
# Max RMSD: 0.079
# Mean RMSD: 0.047
data_MOF--net-pyr--node1-MIFKUJ_clean_sbu_0--node2-KAKCAD_clean_linker_0--edge1-XIVTED_clean_linker_0
_symmetry_space_group_name_H-M    P1
_symmetry_Int_Tables_number       1
_symmetry_cell_setting            triclinic
loop_
_symmetry_equiv_pos_as_xyz
'x, y, z'
_cell_length_a     48.452671
_cell_length_b     43.416427
_cell_length_c     46.881546
_cell_angle_alpha  86.431845
_cell_angle_beta   88.42978
_cell_angle_gamma 95.971769
loop_
_atom_site_label
_atom_site_type_symbol
_atom_site_fract_x
_atom_site_fract_y
_atom_site_fract_z
_atom_type_partial_charge
C0 C 0.13047 0.12133 0.27747 0.0
C1 C 0.14563 0.10916 0.29987 0.0
C2 C 0.14401 0.13909 0.25444 0.0
C3 C 0.17307 0.14546 0.25333 0.0
C4 C 0.18831 0.13333 0.27571 0.0
C5 C 0.17473 0.11535 0.29872 0.0
C6 C 0.18726 0.16434 0.22863 0.0
C7 C 0.1754 0.18999 0.21638 0.0
C8 C 0.18736 0.20659 0.19168 0.0
C9 C 0.21199 0.19786 0.17963 0.0
C10 C 0.22436 0.17249 0.19176 0.0
C11 C 0.21189 0.15591 0.21629 0.0
C12 C 0.24933 0.16204 0.1779 0.0
C13 C 0.25094 0.1599 0.14812 0.0
C14 C 0.27119 0.15288 0.19443 0.0
C15 C 0.2939 0.14122 0.18152 0.0
C16 C 0.2952 0.13836 0.15181 0.0
C17 C 0.17325 0.23192 0.17765 0.0
C18 C 0.14436 0.22812 0.17447 0.0
C19 C 0.1885 0.25961 0.16667 0.0
C20 C 0.17516 0.28286 0.15253 0.0
C21 C 0.14629 0.27886 0.14903 0.0
C22 C 0.13103 0.25132 0.16034 0.0
C23 C 0.27361 0.14818 0.13523 0.0
H24 H 0.10801 0.11748 0.27783 0.0
H25 H 0.13164 0.14762 0.23736 0.0
H26 H 0.21071 0.13797 0.27558 0.0
H27 H 0.18707 0.10611 0.31549 0.0
H28 H 0.15672 0.19709 0.22608 0.0
H29 H 0.22069 0.13552 0.22498 0.0
H30 H 0.22123 0.21038 0.1604 0.0
H31 H 0.23423 0.16634 0.13487 0.0
H32 H 0.27067 0.15466 0.21738 0.0
H33 H 0.31041 0.13437 0.19484 0.0
H34 H 0.13209 0.20683 0.18228 0.0
H35 H 0.21074 0.26335 0.16911 0.0
H36 H 0.27376 0.14587 0.11236 0.0
H37 H 0.10885 0.2473 0.1576 0.0
H38 H 0.18744 0.30402 0.14443 0.0
C39 C 0.36498 0.88834 0.77608 0.0
C40 C 0.39378 0.89255 0.77951 0.0
C41 C 0.35426 0.87836 0.7504 0.0
C42 C 0.37219 0.8728 0.72756 0.0
C43 C 0.40103 0.87842 0.73075 0.0
C44 C 0.41168 0.88793 0.75649 0.0
C45 C 0.36105 0.85989 0.70099 0.0
C46 C 0.33653 0.86924 0.6894 0.0
C47 C 0.3258 0.8565 0.66461 0.0
C48 C 0.3399 0.83422 0.65141 0.0
C49 C 0.36452 0.82491 0.66249 0.0
C50 C 0.37486 0.83768 0.68729 0.0
C51 C 0.37946 0.80169 0.64826 0.0
C52 C 0.36508 0.77393 0.64035 0.0
C53 C 0.40825 0.80713 0.64265 0.0
C54 C 0.42241 0.7852 0.62934 0.0
C55 C 0.40808 0.75726 0.62174 0.0
C56 C 0.3 0.86655 0.65231 0.0
C57 C 0.27708 0.87081 0.67012 0.0
C58 C 0.29804 0.87166 0.62256 0.0
C59 C 0.27369 0.88064 0.61087 0.0
C60 C 0.25075 0.88482 0.62866 0.0
C61 C 0.25272 0.87988 0.65842 0.0
C62 C 0.37928 0.75183 0.62736 0.0
H63 H 0.35077 0.8916 0.79361 0.0
H64 H 0.33196 0.874 0.74883 0.0
H65 H 0.41547 0.8752 0.71342 0.0
H66 H 0.43399 0.8915 0.7585 0.0
H67 H 0.32613 0.88697 0.69928 0.0
H68 H 0.39335 0.82957 0.69633 0.0
H69 H 0.33176 0.82411 0.6324 0.0
H70 H 0.34291 0.7691 0.64459 0.0
H71 H 0.41978 0.82846 0.64838 0.0
H72 H 0.44463 0.78986 0.62541 0.0
H73 H 0.2778 0.86664 0.6931 0.0
H74 H 0.31549 0.8691 0.60827 0.0
H75 H 0.3677 0.73058 0.62152 0.0
H76 H 0.23528 0.88255 0.67267 0.0
H77 H 0.273 0.8848 0.58789 0.0
C78 C 0.75669 0.42304 0.85963 0.0
C79 C 0.77727 0.40378 0.86737 0.0
C80 C 0.73232 0.41085 0.84706 0.0
C81 C 0.72787 0.37907 0.84243 0.0
C82 C 0.74851 0.3599 0.85008 0.0
C83 C 0.77296 0.37212 0.86225 0.0
C84 C 0.70153 0.36542 0.83051 0.0
C85 C 0.69077 0.37886 0.80563 0.0
C86 C 0.66676 0.36455 0.79363 0.0
C87 C 0.65322 0.33708 0.80725 0.0
C88 C 0.66323 0.32375 0.83249 0.0
C89 C 0.68746 0.33814 0.84386 0.0
C90 C 0.64854 0.29471 0.84681 0.0
C91 C 0.61936 0.28961 0.84788 0.0
C92 C 0.66359 0.27179 0.85954 0.0
C93 C 0.64986 0.24463 0.87306 0.0
C94 C 0.62068 0.23943 0.87399 0.0
C95 C 0.65573 0.37764 0.76665 0.0
C96 C 0.65214 0.40933 0.76281 0.0
C97 C 0.64744 0.358 0.74502 0.0
C98 C 0.63504 0.36948 0.72057 0.0
C99 C 0.6304 0.40094 0.7171 0.0
C100 C 0.63953 0.42084 0.73835 0.0
C101 C 0.60563 0.2623 0.86115 0.0
H102 H 0.75953 0.44759 0.86309 0.0
H103 H 0.71672 0.42613 0.84149 0.0
H104 H 0.74576 0.33535 0.84659 0.0
H105 H 0.78831 0.35664 0.86812 0.0
H106 H 0.70164 0.39972 0.79504 0.0
H107 H 0.69524 0.32841 0.86353 0.0
H108 H 0.6348 0.32598 0.798 0.0
H109 H 0.60701 0.30686 0.83866 0.0
H110 H 0.68607 0.27463 0.85886 0.0
H111 H 0.66223 0.22786 0.88304 0.0
H112 H 0.65818 0.425 0.77918 0.0
H113 H 0.65042 0.33358 0.74708 0.0
H114 H 0.58317 0.25904 0.86107 0.0
H115 H 0.63614 0.44513 0.73657 0.0
H116 H 0.62902 0.35358 0.70439 0.0
C117 C 0.85647 0.60317 0.21634 0.0
C118 C 0.88555 0.60624 0.21332 0.0
C119 C 0.84337 0.61456 0.23982 0.0
C120 C 0.85905 0.62894 0.26111 0.0
C121 C 0.8882 0.6321 0.25795 0.0
C122 C 0.90129 0.62104 0.23425 0.0
C123 C 0.84503 0.64008 0.28668 0.0
C124 C 0.82078 0.62321 0.29906 0.0
C125 C 0.80747 0.63334 0.32317 0.0
C126 C 0.81865 0.66047 0.33513 0.0
C127 C 0.84255 0.67801 0.323 0.0
C128 C 0.8557 0.6676 0.29881 0.0
C129 C 0.85325 0.70737 0.33562 0.0
C130 C 0.83461 0.72734 0.34559 0.0
C131 C 0.88184 0.71511 0.33889 0.0
C132 C 0.89146 0.74179 0.3525 0.0
C133 C 0.87269 0.76129 0.36318 0.0
C134 C 0.78133 0.6163 0.33555 0.0
C135 C 0.75928 0.60768 0.31789 0.0
C136 C 0.77769 0.61018 0.36527 0.0
C137 C 0.75232 0.59629 0.37714 0.0
C138 C 0.7299 0.58844 0.3596 0.0
C139 C 0.73381 0.59402 0.32978 0.0
C140 C 0.84416 0.75378 0.35933 0.0
H141 H 0.8438 0.5923 0.2003 0.0
H142 H 0.8209 0.61229 0.24111 0.0
H143 H 0.901 0.64257 0.27407 0.0
H144 H 0.92376 0.62347 0.2326 0.0
H145 H 0.81247 0.60176 0.29037 0.0
H146 H 0.87376 0.68142 0.28896 0.0
H147 H 0.80842 0.66815 0.35385 0.0
H148 H 0.81248 0.72243 0.343 0.0
H149 H 0.89675 0.70016 0.33155 0.0
H150 H 0.91361 0.74707 0.35471 0.0
H151 H 0.76143 0.61248 0.29494 0.0
H152 H 0.79448 0.61626 0.37935 0.0
H153 H 0.82899 0.76791 0.36753 0.0
H154 H 0.71694 0.58869 0.31561 0.0
H155 H 0.75031 0.59172 0.40012 0.0
C156 C 0.83223 0.82132 0.67904 0.0
C157 C 0.83624 0.85343 0.67182 0.0
C158 C 0.81914 0.80988 0.70506 0.0
C159 C 0.80969 0.8303 0.72435 0.0
C160 C 0.81239 0.86225 0.71648 0.0
C161 C 0.82555 0.87369 0.69053 0.0
C162 C 0.7991 0.81871 0.75346 0.0
C163 C 0.81338 0.79746 0.76956 0.0
C164 C 0.80522 0.78839 0.79807 0.0
C165 C 0.78215 0.80039 0.81028 0.0
C166 C 0.76764 0.82169 0.79457 0.0
C167 C 0.77617 0.83062 0.7661 0.0
C168 C 0.74476 0.83602 0.80859 0.0
C169 C 0.72511 0.81801 0.82695 0.0
C170 C 0.7433 0.86816 0.80483 0.0
C171 C 0.72297 0.88208 0.81953 0.0
C172 C 0.70361 0.86417 0.8383 0.0
C173 C 0.82179 0.76792 0.81562 0.0
C174 C 0.83205 0.74202 0.80417 0.0
C175 C 0.82793 0.77457 0.84386 0.0
C176 C 0.84379 0.75566 0.86035 0.0
C177 C 0.85397 0.72971 0.84897 0.0
C178 C 0.848 0.72312 0.82067 0.0
C179 C 0.70475 0.83193 0.84165 0.0
H180 H 0.83981 0.80504 0.66489 0.0
H181 H 0.81695 0.78508 0.71038 0.0
H182 H 0.80562 0.87861 0.73102 0.0
H183 H 0.82862 0.89858 0.68589 0.0
H184 H 0.8318 0.78923 0.76036 0.0
H185 H 0.76502 0.84695 0.75378 0.0
H186 H 0.77591 0.79374 0.83237 0.0
H187 H 0.7255 0.79312 0.82999 0.0
H188 H 0.75843 0.88275 0.79121 0.0
H189 H 0.72293 0.90703 0.81678 0.0
H190 H 0.82747 0.73615 0.78256 0.0
H191 H 0.82086 0.79472 0.85312 0.0
H192 H 0.68985 0.81743 0.85559 0.0
H193 H 0.85526 0.70306 0.81143 0.0
H194 H 0.84842 0.76165 0.88192 0.0
C195 C 0.64742 0.09721 0.23786 0.0
C196 C 0.63529 0.11713 0.2182 0.0
C197 C 0.65776 0.10806 0.26339 0.0
C198 C 0.65615 0.13905 0.2698 0.0
C199 C 0.64441 0.15903 0.24993 0.0
C200 C 0.63405 0.1482 0.22452 0.0
C201 C 0.66629 0.15062 0.29723 0.0
C202 C 0.69124 0.14214 0.30835 0.0
C203 C 0.7012 0.15394 0.33378 0.0
C204 C 0.68602 0.17451 0.34809 0.0
C205 C 0.66074 0.18286 0.33759 0.0
C206 C 0.65102 0.17059 0.31224 0.0
C207 C 0.6444 0.20429 0.35298 0.0
C208 C 0.64252 0.20273 0.38304 0.0
C209 C 0.63031 0.22636 0.33765 0.0
C210 C 0.6146 0.24617 0.35196 0.0
C211 C 0.61283 0.24477 0.38202 0.0
C212 C 0.72731 0.14445 0.34563 0.0
C213 C 0.73172 0.11295 0.34822 0.0
C214 C 0.74771 0.16667 0.35493 0.0
C215 C 0.77201 0.15752 0.36674 0.0
C216 C 0.77616 0.12595 0.3698 0.0
C217 C 0.75582 0.10378 0.36033 0.0
C218 C 0.62703 0.2228 0.39738 0.0
H219 H 0.64895 0.07322 0.23354 0.0
H220 H 0.66652 0.09202 0.27832 0.0
H221 H 0.64321 0.18314 0.25401 0.0
H222 H 0.62452 0.16411 0.21011 0.0
H223 H 0.70333 0.12696 0.29685 0.0
H224 H 0.63118 0.1761 0.30439 0.0
H225 H 0.69388 0.18387 0.36754 0.0
H226 H 0.65278 0.18578 0.39557 0.0
H227 H 0.63155 0.22856 0.31451 0.0
H228 H 0.60366 0.26243 0.33935 0.0
H229 H 0.71625 0.09534 0.34137 0.0
H230 H 0.7449 0.19113 0.35298 0.0
H231 H 0.62649 0.22129 0.42053 0.0
H232 H 0.75862 0.07931 0.3622 0.0
H233 H 0.78729 0.17507 0.37399 0.0
C234 C 0.23568 0.60265 0.17568 0.0
C235 C 0.23313 0.59953 0.14608 0.0
C236 C 0.26125 0.61301 0.18691 0.0
C237 C 0.28482 0.62088 0.1688 0.0
C238 C 0.28243 0.61745 0.13932 0.0
C239 C 0.25699 0.60677 0.12813 0.0
C240 C 0.31159 0.63394 0.18024 0.0
C241 C 0.32278 0.6199 0.20457 0.0
C242 C 0.3484 0.63221 0.21492 0.0
C243 C 0.36243 0.6592 0.20077 0.0
C244 C 0.35147 0.67367 0.17656 0.0
C245 C 0.32603 0.66079 0.16655 0.0
C246 C 0.36647 0.70224 0.16172 0.0
C247 C 0.38037 0.72544 0.17735 0.0
C248 C 0.36674 0.70672 0.13171 0.0
C249 C 0.38009 0.73383 0.11777 0.0
C250 C 0.39379 0.75704 0.13342 0.0
C251 C 0.36081 0.61708 0.24033 0.0
C252 C 0.34418 0.6046 0.26424 0.0
C253 C 0.3897 0.61579 0.24117 0.0
C254 C 0.4017 0.60341 0.26551 0.0
C255 C 0.38518 0.59164 0.28963 0.0
C256 C 0.35622 0.59194 0.28857 0.0
C257 C 0.39399 0.75244 0.16334 0.0
H258 H 0.21778 0.59779 0.19021 0.0
H259 H 0.2624 0.61575 0.20967 0.0
H260 H 0.30034 0.62296 0.12487 0.0
H261 H 0.25615 0.604 0.10537 0.0
H262 H 0.31192 0.59889 0.21487 0.0
H263 H 0.31697 0.67213 0.14837 0.0
H264 H 0.38203 0.66899 0.20861 0.0
H265 H 0.38028 0.72309 0.20048 0.0
H266 H 0.35678 0.68914 0.11889 0.0
H267 H 0.37993 0.7365 0.09464 0.0
H268 H 0.32191 0.60541 0.26452 0.0
H269 H 0.40315 0.62438 0.22296 0.0
H270 H 0.40412 0.77007 0.176 0.0
H271 H 0.34292 0.58323 0.30688 0.0
H272 H 0.42402 0.60297 0.2654 0.0
C273 C 0.14574 0.24982 0.65576 0.0
C274 C 0.11746 0.248 0.64957 0.0
C275 C 0.15818 0.27473 0.66981 0.0
C276 C 0.14272 0.29865 0.67782 0.0
C277 C 0.11412 0.29625 0.67268 0.0
C278 C 0.10157 0.27105 0.65873 0.0
C279 C 0.15694 0.32641 0.69041 0.0
C280 C 0.18325 0.33909 0.67948 0.0
C281 C 0.19793 0.36431 0.69169 0.0
C282 C 0.1856 0.37736 0.71494 0.0
C283 C 0.15897 0.36554 0.72575 0.0
C284 C 0.14475 0.34007 0.71335 0.0
C285 C 0.14617 0.37961 0.75025 0.0
C286 C 0.16156 0.3862 0.77452 0.0
C287 C 0.11852 0.38665 0.7495 0.0
C288 C 0.10657 0.40018 0.77248 0.0
C289 C 0.12191 0.40658 0.79683 0.0
C290 C 0.22601 0.37687 0.67992 0.0
C291 C 0.24474 0.3567 0.67037 0.0
C292 C 0.23411 0.40901 0.67744 0.0
C293 C 0.26012 0.42068 0.66537 0.0
C294 C 0.2785 0.40049 0.65529 0.0
C295 C 0.27059 0.36838 0.65805 0.0
C296 C 0.14952 0.39939 0.79762 0.0
H297 H 0.15837 0.23202 0.64949 0.0
H298 H 0.18008 0.27539 0.67414 0.0
H299 H 0.10165 0.31434 0.67851 0.0
H300 H 0.07972 0.2702 0.65417 0.0
H301 H 0.19217 0.32954 0.66096 0.0
H302 H 0.12459 0.3303 0.72215 0.0
H303 H 0.19671 0.39676 0.72467 0.0
H304 H 0.18285 0.38082 0.77577 0.0
H305 H 0.10624 0.38199 0.73099 0.0
H306 H 0.08518 0.40523 0.77138 0.0
H307 H 0.23949 0.33178 0.6725 0.0
H308 H 0.22012 0.42526 0.68419 0.0
H309 H 0.16191 0.40425 0.81602 0.0
H310 H 0.28451 0.35225 0.65091 0.0
H311 H 0.26559 0.44557 0.66329 0.0
Zn312 Zn 0.03603 0.99939 0.53657 0.0
Zn313 Zn 0.97026 0.99735 0.48881 0.0
C314 C 0.05433 0.06042 0.54598 0.0
O315 O 0.07216 0.05313 0.52654 0.0
C316 C 0.93164 0.94603 0.47426 0.0
O317 O 0.9135 0.96575 0.47903 0.0
O318 O 0.0698 0.98238 0.55238 0.0
O319 O 0.00373 0.96835 0.54876 0.0
O320 O 0.97524 0.99926 0.53059 0.0
C321 C 0.08069 0.95997 0.54201 0.0
O322 O 0.06974 0.94718 0.51969 0.0
O323 O 0.03436 0.04029 0.55446 0.0
C324 C 0.94355 0.04296 0.45374 0.0
O325 O 0.96666 0.04548 0.43807 0.0
O326 O 0.94125 0.02503 0.47637 0.0
O327 O 0.00599 0.00984 0.46625 0.0
O328 O 0.04271 0.0082 0.49383 0.0
O329 O 0.95714 0.9538 0.47856 0.0
C330 C 0.9791 0.97392 0.54397 0.0
C331 C 0.03213 0.01246 0.46949 0.0
Zn332 Zn 0.52637 0.98132 0.99221 0.0
Zn333 Zn 0.48518 0.01815 0.01887 0.0
C334 C 0.49079 0.9451 0.95825 0.0
O335 O 0.50329 0.92386 0.97252 0.0
C336 C 0.52432 0.05265 0.05158 0.0
O337 O 0.51472 0.07534 0.03627 0.0
O338 O 0.55796 0.95995 0.97679 0.0
O339 O 0.54048 0.02675 0.98913 0.0
O340 O 0.49907 0.04108 0.98154 0.0
C341 C 0.56564 0.96888 0.95119 0.0
O342 O 0.55348 0.99119 0.9381 0.0
O343 O 0.49643 0.97337 0.9636 0.0
C344 C 0.445 0.03156 0.05941 0.0
O345 O 0.45627 0.00929 0.07363 0.0
O346 O 0.45377 0.03977 0.034 0.0
O347 O 0.47111 0.9726 0.02058 0.0
O348 O 0.51249 0.95927 0.03002 0.0
O349 O 0.51507 0.0248 0.04769 0.0
C350 C 0.52528 0.04597 0.97784 0.0
C351 C 0.48622 0.95362 0.03246 0.0
Zn352 Zn 0.50827 0.46644 0.49097 0.0
Zn353 Zn 0.49777 0.52243 0.52083 0.0
C354 C 0.54685 0.49484 0.44846 0.0
O355 O 0.52941 0.47862 0.43275 0.0
C356 C 0.46025 0.49394 0.56393 0.0
O357 O 0.47832 0.51009 0.57902 0.0
O358 O 0.51304 0.42641 0.47271 0.0
O359 O 0.51243 0.45879 0.53373 0.0
O360 O 0.53226 0.50616 0.53672 0.0
C361 C 0.51753 0.40097 0.48579 0.0
O362 O 0.51682 0.39866 0.51387 0.0
O363 O 0.54182 0.49453 0.47525 0.0
C364 C 0.49516 0.58946 0.52664 0.0
O365 O 0.50267 0.59348 0.49942 0.0
O366 O 0.49316 0.5624 0.53898 0.0
O367 O 0.49382 0.53055 0.47825 0.0
O368 O 0.47408 0.48328 0.47441 0.0
O369 O 0.46439 0.49422 0.537 0.0
C370 C 0.52927 0.47781 0.54592 0.0
C371 C 0.47731 0.51174 0.46549 0.0
Zn372 Zn 0.98939 0.53549 0.98162 0.0
Zn373 Zn 0.01763 0.48678 0.02503 0.0
C374 C 0.95454 0.49578 0.94898 0.0
O375 O 0.97405 0.50665 0.92988 0.0
C376 C 0.05238 0.51915 0.06247 0.0
O377 O 0.03399 0.50264 0.07987 0.0
O378 O 0.97844 0.57343 0.95998 0.0
O379 O 0.99032 0.5462 0.02302 0.0
O380 O 0.98143 0.49834 0.04153 0.0
C381 C 0.95616 0.58309 0.96912 0.0
O382 O 0.94346 0.56911 0.99226 0.0
O383 O 0.95692 0.50342 0.97466 0.0
C384 C 0.05099 0.44067 0.03947 0.0
O385 O 0.06559 0.45768 0.01907 0.0
O386 O 0.02706 0.44787 0.04647 0.0
O387 O 0.02107 0.47698 0.98364 0.0
O388 O 0.02409 0.52384 0.96209 0.0
O389 O 0.04913 0.51843 0.03563 0.0
C390 C 0.97951 0.52717 0.0429 0.0
C391 C 0.02928 0.49574 0.96252 0.0
H392 H 0.09995 0.06623 0.29916 0.0
H393 H 0.08761 0.0331 0.46884 0.0
H394 H 0.15769 0.10978 0.35681 0.0
H395 H 0.0192 0.01496 0.41296 0.0
H396 H 0.11712 0.05325 0.42729 0.0
H397 H 0.07368 0.03943 0.34019 0.0
C398 C 0.10713 0.0702 0.32042 0.0
C399 C 0.1309 0.09067 0.3245 0.0
C400 C 0.09568 0.0447 0.42417 0.0
C401 C 0.10113 0.05956 0.37154 0.0
C402 C 0.07883 0.03309 0.44784 0.0
C403 C 0.05079 0.02254 0.44441 0.0
C404 C 0.08451 0.04546 0.39687 0.0
C405 C 0.04061 0.02309 0.41666 0.0
C406 C 0.09218 0.05475 0.34382 0.0
C407 C 0.13961 0.09413 0.35257 0.0
N408 N 0.05745 0.03442 0.39397 0.0
N409 N 0.12464 0.07885 0.37504 0.0
H410 H 0.38191 0.93922 0.81332 0.0
H411 H 0.48176 0.88831 0.93652 0.0
H412 H 0.43173 0.86281 0.80905 0.0
H413 H 0.45912 0.98182 0.92558 0.0
H414 H 0.45564 0.87487 0.89458 0.0
H415 H 0.40285 0.95167 0.85904 0.0
C416 C 0.39712 0.92502 0.82213 0.0
C417 C 0.40534 0.90014 0.8074 0.0
C418 C 0.45627 0.8983 0.90142 0.0
C419 C 0.42894 0.9139 0.85943 0.0
C420 C 0.47109 0.90599 0.92546 0.0
C421 C 0.47284 0.93633 0.93444 0.0
C422 C 0.44286 0.921 0.88631 0.0
C423 C 0.45847 0.9582 0.91925 0.0
C424 C 0.40909 0.93218 0.84804 0.0
C425 C 0.42513 0.88243 0.81958 0.0
N426 N 0.44409 0.95013 0.89582 0.0
N427 N 0.43619 0.8896 0.8449 0.0
H428 H 0.58629 0.37105 0.69075 0.0
H429 H 0.56918 0.51123 0.57533 0.0
H430 H 0.6398 0.45732 0.68579 0.0
H431 H 0.52432 0.4201 0.57401 0.0
H432 H 0.59392 0.49303 0.61693 0.0
H433 H 0.56224 0.38966 0.64919 0.0
C434 C 0.5932 0.39384 0.68082 0.0
C435 C 0.61537 0.41248 0.69182 0.0
C436 C 0.57869 0.47702 0.60751 0.0
C437 C 0.58734 0.43427 0.64419 0.0
C438 C 0.56451 0.48739 0.58375 0.0
C439 C 0.54461 0.46717 0.57107 0.0
C440 C 0.57285 0.44622 0.61883 0.0
C441 C 0.53949 0.43653 0.58298 0.0
C442 C 0.57927 0.40454 0.65712 0.0
C443 C 0.62273 0.44217 0.67832 0.0
N444 N 0.55345 0.42706 0.60615 0.0
N445 N 0.60878 0.45211 0.65524 0.0
H446 H 0.87423 0.54954 0.19126 0.0
H447 H 0.98069 0.58725 0.05766 0.0
H448 H 0.92831 0.63502 0.17876 0.0
H449 H 0.94703 0.4939 0.0855 0.0
H450 H 0.95808 0.60633 0.09927 0.0
H451 H 0.8971 0.5299 0.14986 0.0
C452 C 0.89086 0.5642 0.17973 0.0
C453 C 0.8994 0.59396 0.18843 0.0
C454 C 0.95569 0.58167 0.09631 0.0
C455 C 0.92557 0.57169 0.14108 0.0
C456 C 0.96851 0.57074 0.0725 0.0
C457 C 0.96579 0.53888 0.06807 0.0
C458 C 0.93968 0.56069 0.11572 0.0
C459 C 0.94977 0.51862 0.08809 0.0
C460 C 0.904 0.55291 0.15623 0.0
C461 C 0.92124 0.61186 0.17291 0.0
N462 N 0.9372 0.52988 0.11098 0.0
N463 N 0.93346 0.60052 0.14989 0.0
H464 H 0.32292 0.15578 0.10048 0.0
H465 H 0.42085 0.01829 0.11269 0.0
H466 H 0.32012 0.08802 0.17221 0.0
H467 H 0.41935 0.0809 0.03763 0.0
H468 H 0.38519 0.04499 0.13552 0.0
H469 H 0.35955 0.13012 0.0778 0.0
C470 C 0.32997 0.13549 0.11145 0.0
C471 C 0.31838 0.12403 0.1383 0.0
C472 C 0.39262 0.0529 0.11404 0.0
C473 C 0.36043 0.09468 0.11253 0.0
C474 C 0.413 0.03764 0.10097 0.0
C475 C 0.42307 0.04733 0.07318 0.0
C476 C 0.38224 0.07813 0.09926 0.0
C477 C 0.41213 0.07259 0.05906 0.0
C478 C 0.35095 0.12092 0.09853 0.0
C479 C 0.32866 0.09795 0.15169 0.0
N480 N 0.39231 0.08714 0.07228 0.0
N481 N 0.34903 0.08414 0.13865 0.0
H482 H 0.22478 0.86435 0.58105 0.0
H483 H 0.10691 0.97997 0.58944 0.0
H484 H 0.21805 0.92766 0.64771 0.0
H485 H 0.11067 0.91373 0.52481 0.0
H486 H 0.14763 0.96094 0.61098 0.0
H487 H 0.1831 0.88202 0.56002 0.0
C488 C 0.21458 0.88204 0.59122 0.0
C489 C 0.22498 0.89462 0.61614 0.0
C490 C 0.13956 0.95052 0.59211 0.0
C491 C 0.17715 0.91481 0.59228 0.0
C492 C 0.11629 0.9614 0.57975 0.0
C493 C 0.10535 0.94846 0.55522 0.0
C494 C 0.15211 0.92653 0.57986 0.0
C495 C 0.1184 0.92441 0.54368 0.0
C496 C 0.1907 0.892 0.57928 0.0
C497 C 0.21064 0.9171 0.62866 0.0
N498 N 0.14113 0.91426 0.55608 0.0
N499 N 0.18753 0.92654 0.61654 0.0
H500 H 0.78291 0.44322 0.91097 0.0
H501 H 0.94843 0.4634 0.90123 0.0
H502 H 0.83072 0.39306 0.85428 0.0
H503 H 0.90222 0.48901 0.97446 0.0
H504 H 0.90531 0.43965 0.88247 0.0
H505 H 0.82605 0.46317 0.9329 0.0
C506 C 0.80249 0.43652 0.90306 0.0
C507 C 0.80321 0.41646 0.88073 0.0
C508 C 0.90458 0.45019 0.90277 0.0
C509 C 0.85259 0.43913 0.90574 0.0
C510 C 0.92921 0.46376 0.91352 0.0
C511 C 0.92893 0.47819 0.93947 0.0
C512 C 0.8793 0.4515 0.91779 0.0
C513 C 0.9034 0.47795 0.95446 0.0
C514 C 0.82706 0.44769 0.91574 0.0
C515 C 0.82915 0.40826 0.87157 0.0
N516 N 0.87954 0.46514 0.94324 0.0
N517 N 0.85276 0.41976 0.88396 0.0
H518 H 0.6929 0.54338 0.33911 0.0
H519 H 0.5863 0.53371 0.47325 0.0
H520 H 0.70411 0.60292 0.40927 0.0
H521 H 0.56705 0.49232 0.39382 0.0
H522 H 0.63063 0.55741 0.45149 0.0
H523 H 0.64773 0.52233 0.36015 0.0
C524 C 0.68585 0.5522 0.35884 0.0
C525 C 0.70246 0.57502 0.37238 0.0
C526 C 0.61661 0.54327 0.43881 0.0
C527 C 0.65079 0.55056 0.39687 0.0
C528 C 0.59132 0.52973 0.45122 0.0
C529 C 0.57296 0.51095 0.43536 0.0
C530 C 0.62368 0.53771 0.41045 0.0
C531 C 0.58053 0.50662 0.40688 0.0
C532 C 0.66006 0.54005 0.37091 0.0
C533 C 0.69232 0.58502 0.39825 0.0
N534 N 0.60536 0.51972 0.39541 0.0
N535 N 0.6672 0.57268 0.40967 0.0
H536 H 0.16453 0.31269 0.09966 0.0
H537 H 0.02996 0.40479 0.08708 0.0
H538 H 0.09587 0.29948 0.16139 0.0
H539 H 0.10054 0.41896 0.02772 0.0
H540 H 0.05278 0.36496 0.11397 0.0
H541 H 0.14075 0.35125 0.07276 0.0
C542 C 0.14454 0.31809 0.1077 0.0
C543 C 0.13222 0.30287 0.13288 0.0
C544 C 0.06319 0.37675 0.095 0.0
C545 C 0.1046 0.34675 0.10188 0.0
C546 C 0.05014 0.39939 0.07961 0.0
C547 C 0.06339 0.41526 0.05516 0.0
C548 C 0.08963 0.36996 0.08583 0.0
C549 C 0.08957 0.40741 0.04648 0.0
C550 C 0.13085 0.33996 0.0922 0.0
C551 C 0.10601 0.3104 0.14193 0.0
N552 N 0.10182 0.3854 0.06183 0.0
N553 N 0.09307 0.33183 0.12645 0.0
H554 H 0.63673 0.18038 0.87529 0.0
H555 H 0.50167 0.0991 0.96238 0.0
H556 H 0.57112 0.23169 0.9053 0.0
H557 H 0.5785 0.05741 0.95609 0.0
H558 H 0.52428 0.14612 0.93629 0.0
H559 H 0.61323 0.13335 0.89992 0.0
C560 C 0.61749 0.18191 0.88717 0.0
C561 C 0.60609 0.21031 0.88828 0.0
C562 C 0.53614 0.12664 0.94063 0.0
C563 C 0.57869 0.1561 0.91608 0.0
C564 C 0.52323 0.09977 0.95541 0.0
C565 C 0.53824 0.07432 0.96149 0.0
C566 C 0.56413 0.1279 0.93154 0.0
C567 C 0.56617 0.07653 0.95202 0.0
C568 C 0.604 0.15493 0.9011 0.0
C569 C 0.58063 0.2104 0.90345 0.0
N570 N 0.57816 0.10278 0.93745 0.0
N571 N 0.5678 0.18375 0.91671 0.0
H572 H 0.85224 0.81804 0.3617 0.0
H573 H 0.96179 0.89693 0.46588 0.0
H574 H 0.91552 0.76793 0.4006 0.0
H575 H 0.882 0.92949 0.4503 0.0
H576 H 0.94812 0.85155 0.43878 0.0
H577 H 0.86622 0.86173 0.39014 0.0
C578 C 0.86901 0.81609 0.37629 0.0
C579 C 0.88248 0.78896 0.3789 0.0
C580 C 0.9336 0.86857 0.4415 0.0
C581 C 0.89895 0.83941 0.41125 0.0
C582 C 0.94135 0.89444 0.45696 0.0
C583 C 0.92302 0.91707 0.46033 0.0
C584 C 0.90752 0.86561 0.429 0.0
C585 C 0.8968 0.91264 0.44832 0.0
C586 C 0.87702 0.84115 0.39248 0.0
C587 C 0.90465 0.78837 0.39762 0.0
N588 N 0.88995 0.8876 0.433 0.0
N589 N 0.91219 0.81321 0.41309 0.0
H590 H 0.44664 0.76587 0.57731 0.0
H591 H 0.47225 0.58674 0.58073 0.0
H592 H 0.4038 0.69494 0.63576 0.0
H593 H 0.4965 0.65099 0.50816 0.0
H594 H 0.45307 0.62829 0.60475 0.0
H595 H 0.47065 0.72596 0.55507 0.0
C596 C 0.44243 0.74192 0.58554 0.0
C597 C 0.42313 0.73361 0.6083 0.0
C598 C 0.46269 0.63335 0.58362 0.0
C599 C 0.45048 0.68804 0.58312 0.0
C600 C 0.47378 0.60966 0.5699 0.0
C601 C 0.48586 0.61532 0.54225 0.0
C602 C 0.46379 0.66305 0.56975 0.0
C603 C 0.48725 0.64555 0.52939 0.0
C604 C 0.45601 0.71919 0.57278 0.0
C605 C 0.41827 0.70226 0.61803 0.0
N606 N 0.47625 0.66831 0.54322 0.0
N607 N 0.43189 0.68064 0.60543 0.0
H608 H 0.88426 0.83299 0.65191 0.0
H609 H 0.92362 0.98203 0.54445 0.0
H610 H 0.82889 0.90307 0.63427 0.0
H611 H 0.98066 0.91645 0.57065 0.0
H612 H 0.88585 0.94859 0.56998 0.0
H613 H 0.91645 0.85814 0.61474 0.0
C614 C 0.87856 0.85332 0.63984 0.0
C615 C 0.85389 0.86608 0.64648 0.0
C616 C 0.90659 0.9414 0.56987 0.0
C617 C 0.89114 0.89551 0.6042 0.0
C618 C 0.92815 0.96045 0.55529 0.0
C619 C 0.95543 0.9523 0.5559 0.0
C620 C 0.91239 0.91402 0.58505 0.0
C621 C 0.96004 0.92391 0.56999 0.0
C622 C 0.89712 0.86786 0.61874 0.0
C623 C 0.84792 0.89277 0.63028 0.0
N624 N 0.93881 0.90598 0.58422 0.0
N625 N 0.86655 0.9068 0.6101 0.0
H626 H 0.63728 0.14697 0.16471 0.0
H627 H 0.53974 0.01349 0.0951 0.0
H628 H 0.60544 0.06091 0.21094 0.0
H629 H 0.55432 0.10805 0.05939 0.0
H630 H 0.5702 0.02726 0.13426 0.0
H631 H 0.6133 0.12969 0.12252 0.0
C632 C 0.62528 0.12441 0.16602 0.0
C633 C 0.6231 0.10556 0.1916 0.0
C634 C 0.56683 0.04491 0.11773 0.0
C635 C 0.59587 0.08546 0.14315 0.0
C636 C 0.54954 0.03706 0.09535 0.0
C637 C 0.54431 0.05974 0.0741 0.0
C638 C 0.57914 0.07556 0.11868 0.0
C639 C 0.55756 0.0899 0.07546 0.0
C640 C 0.61169 0.11452 0.14186 0.0
C641 C 0.60785 0.07619 0.1917 0.0
N642 N 0.5743 0.09694 0.09741 0.0
N643 N 0.59466 0.06712 0.1679 0.0
H644 H 0.43124 0.61788 0.31504 0.0
H645 H 0.43628 0.48007 0.43593 0.0
H646 H 0.36913 0.53887 0.32432 0.0
H647 H 0.48532 0.56889 0.43663 0.0
H648 H 0.4132 0.49928 0.39347 0.0
H649 H 0.45321 0.59832 0.35779 0.0
C650 C 0.42228 0.5963 0.32601 0.0
C651 C 0.39835 0.57994 0.31597 0.0
C652 C 0.42896 0.51455 0.40299 0.0
C653 C 0.42342 0.55738 0.3652 0.0
C654 C 0.4422 0.50359 0.42719 0.0
C655 C 0.4628 0.52288 0.43993 0.0
C656 C 0.43655 0.54493 0.39123 0.0
C657 C 0.46956 0.55317 0.42764 0.0
C658 C 0.43475 0.58524 0.35055 0.0
C659 C 0.38744 0.55234 0.33138 0.0
N660 N 0.45658 0.56316 0.40398 0.0
N661 N 0.40014 0.54184 0.35513 0.0
H662 H 0.12438 0.38898 0.85366 0.0
H663 H 0.03907 0.52344 0.90833 0.0
H664 H 0.0903 0.45549 0.79612 0.0
H665 H 0.05284 0.44139 0.9606 0.0
H666 H 0.06229 0.5025 0.86779 0.0
H667 H 0.10286 0.41165 0.89407 0.0
C668 C 0.11249 0.40848 0.84956 0.0
C669 C 0.10909 0.42035 0.8215 0.0
C670 C 0.06022 0.48915 0.88817 0.0
C671 C 0.08437 0.44641 0.86763 0.0
C672 C 0.04709 0.50114 0.91134 0.0
C673 C 0.04397 0.48413 0.93791 0.0
C674 C 0.07059 0.46016 0.89171 0.0
C675 C 0.05466 0.45527 0.94052 0.0
C676 C 0.10008 0.42129 0.8726 0.0
C677 C 0.0932 0.44545 0.8174 0.0
N678 N 0.06754 0.44427 0.91776 0.0
N679 N 0.0815 0.45773 0.84023 0.0
H680 H 0.67348 0.91108 0.81968 0.0
H681 H 0.59382 0.92032 0.97044 0.0
H682 H 0.68627 0.85173 0.89445 0.0
H683 H 0.58524 0.98225 0.89626 0.0
H684 H 0.62734 0.89433 0.94312 0.0
H685 H 0.64047 0.93681 0.84752 0.0
C686 C 0.66942 0.90352 0.84199 0.0
C687 C 0.68274 0.87925 0.85475 0.0
C688 C 0.61814 0.91366 0.93288 0.0
C689 C 0.64473 0.90849 0.88677 0.0
C690 C 0.59905 0.92852 0.94847 0.0
C691 C 0.5867 0.95349 0.93561 0.0
C692 C 0.62486 0.92382 0.90424 0.0
C693 C 0.59421 0.9631 0.90707 0.0
C694 C 0.65047 0.91814 0.85787 0.0
C695 C 0.67626 0.87009 0.88364 0.0
N696 N 0.61274 0.94823 0.89236 0.0
N697 N 0.65775 0.88476 0.89869 0.0
H698 H 0.83031 0.1501 0.35924 0.0
H699 H 0.89025 0.03437 0.47578 0.0
H700 H 0.77933 0.07932 0.41105 0.0
H701 H 0.94156 0.08601 0.40864 0.0
H702 H 0.84978 0.05648 0.45664 0.0
H703 H 0.8717 0.13236 0.38128 0.0
C704 C 0.82785 0.13096 0.37537 0.0
C705 C 0.80141 0.11602 0.38324 0.0
C706 C 0.86991 0.06308 0.44616 0.0
C707 C 0.84849 0.09574 0.40854 0.0
C708 C 0.89308 0.05058 0.45716 0.0
C709 C 0.91935 0.05823 0.4437 0.0
C710 C 0.87299 0.08357 0.42165 0.0
C711 C 0.92168 0.07935 0.41961 0.0
C712 C 0.85144 0.12077 0.38782 0.0
C713 C 0.79936 0.09121 0.40411 0.0
N714 N 0.89878 0.09126 0.40931 0.0
N715 N 0.82257 0.08189 0.41606 0.0
H716 H 0.19155 0.55682 0.17 0.0
H717 H 0.09601 0.55526 0.03377 0.0
H718 H 0.21198 0.61769 0.09427 0.0
H719 H 0.06749 0.51763 0.1181 0.0
H720 H 0.13972 0.57632 0.05406 0.0
H721 H 0.14709 0.53986 0.14991 0.0
C722 C 0.1867 0.56687 0.14926 0.0
C723 C 0.20578 0.58885 0.13395 0.0
C724 C 0.12376 0.56363 0.06809 0.0
C725 C 0.15476 0.56886 0.11044 0.0
C726 C 0.09881 0.55164 0.05653 0.0
C727 C 0.07802 0.53459 0.07421 0.0
C728 C 0.12805 0.55818 0.09744 0.0
C729 C 0.08285 0.53058 0.10357 0.0
C730 C 0.16128 0.557 0.13771 0.0
C731 C 0.1983 0.60034 0.10678 0.0
N732 N 0.10736 0.54204 0.11416 0.0
N733 N 0.17348 0.59014 0.09588 0.0
H734 H 0.3027 0.38355 0.60597 0.0
H735 H 0.44225 0.49655 0.61929 0.0
H736 H 0.31635 0.44549 0.67385 0.0
H737 H 0.41955 0.45505 0.54077 0.0
H738 H 0.39861 0.47272 0.64179 0.0
H739 H 0.34773 0.40453 0.5839 0.0
C740 C 0.31525 0.40145 0.61629 0.0
C741 C 0.30578 0.41285 0.64176 0.0
C742 C 0.40317 0.46877 0.61966 0.0
C743 C 0.35723 0.43688 0.61668 0.0
C744 C 0.42817 0.48226 0.60679 0.0
C745 C 0.43454 0.4779 0.57802 0.0
C746 C 0.38441 0.45053 0.60378 0.0
C747 C 0.41543 0.45913 0.56295 0.0
C748 C 0.34085 0.41351 0.60361 0.0
C749 C 0.32274 0.43627 0.65408 0.0
N750 N 0.39119 0.44611 0.57602 0.0
N751 N 0.34767 0.44743 0.64147 0.0
H752 H 0.90102 0.7039 0.83327 0.0
H753 H 0.91091 0.6113 0.98494 0.0
H754 H 0.84455 0.7094 0.90515 0.0
H755 H 0.97143 0.61021 0.91577 0.0
H756 H 0.88715 0.64839 0.95619 0.0
H757 H 0.92753 0.67008 0.86304 0.0
C758 C 0.89416 0.69792 0.85528 0.0
C759 C 0.87051 0.70946 0.86673 0.0
C760 C 0.90571 0.64021 0.94732 0.0
C761 C 0.90085 0.67102 0.90096 0.0
C762 C 0.91932 0.61902 0.96375 0.0
C763 C 0.94313 0.60753 0.9527 0.0
C764 C 0.91585 0.64991 0.91951 0.0
C765 C 0.95313 0.61847 0.92513 0.0
C766 C 0.9094 0.67879 0.87232 0.0
C767 C 0.8628 0.70132 0.89551 0.0
N768 N 0.93932 0.63891 0.90939 0.0
N769 N 0.87786 0.68254 0.91158 0.0
H770 H 0.37334 0.79303 0.09066 0.0
H771 H 0.51101 0.91161 0.06674 0.0
H772 H 0.44518 0.7873 0.14231 0.0
H773 H 0.43174 0.92955 0.03321 0.0
H774 H 0.48876 0.86373 0.09165 0.0
H775 H 0.396 0.84077 0.0662 0.0
C776 C 0.39396 0.80176 0.09675 0.0
C777 C 0.40741 0.78614 0.11853 0.0
C778 C 0.47626 0.87822 0.07889 0.0
C779 C 0.43348 0.84087 0.09064 0.0
C780 C 0.48896 0.9055 0.0646 0.0
C781 C 0.47322 0.92466 0.04787 0.0
C782 C 0.4477 0.86985 0.07615 0.0
C783 C 0.44469 0.91558 0.04592 0.0
C784 C 0.40681 0.82912 0.08291 0.0
C785 C 0.43398 0.79874 0.1258 0.0
N786 N 0.4329 0.8888 0.05977 0.0
N787 N 0.44621 0.82529 0.11179 0.0
H788 H 0.13879 0.22878 0.60035 0.0
H789 H 0.02714 0.08075 0.5926 0.0
H790 H 0.06848 0.21009 0.65958 0.0
H791 H 0.0933 0.10843 0.52976 0.0
H792 H 0.0398 0.12873 0.61653 0.0
H793 H 0.12065 0.18542 0.57345 0.0
C794 C 0.11947 0.21545 0.60768 0.0
C795 C 0.10528 0.22277 0.6324 0.0
C796 C 0.05133 0.12435 0.59735 0.0
C797 C 0.0842 0.17292 0.6016 0.0
C798 C 0.0441 0.09703 0.58367 0.0
C799 C 0.05936 0.09042 0.5593 0.0
C800 C 0.07398 0.14506 0.58656 0.0
C801 C 0.0811 0.11233 0.54864 0.0
C802 C 0.10901 0.19076 0.59223 0.0
C803 C 0.08005 0.20513 0.64062 0.0
N804 N 0.08784 0.13847 0.56243 0.0
N805 N 0.07041 0.18076 0.6254 0.0
H806 H 0.58121 0.23324 0.43209 0.0
H807 H 0.53066 0.40279 0.42858 0.0
H808 H 0.60712 0.30585 0.36671 0.0
H809 H 0.52735 0.34238 0.50562 0.0
H810 H 0.55174 0.36362 0.4028 0.0
H811 H 0.55545 0.26973 0.4569 0.0
C812 C 0.58162 0.25681 0.42295 0.0
C813 C 0.59651 0.26639 0.3972 0.0
C814 C 0.54626 0.35886 0.42531 0.0
C815 C 0.56647 0.30801 0.42525 0.0
C816 C 0.53406 0.38114 0.44005 0.0
C817 C 0.52738 0.37595 0.4694 0.0
C818 C 0.55165 0.33103 0.43991 0.0
C819 C 0.53231 0.34742 0.48305 0.0
C820 C 0.56674 0.27755 0.43707 0.0
C821 C 0.59566 0.29713 0.38619 0.0
N822 N 0.54424 0.32604 0.46821 0.0
N823 N 0.58091 0.31676 0.40025 0.0
loop_
_geom_bond_atom_site_label_1
_geom_bond_atom_site_label_2
_geom_bond_distance
_geom_bond_site_symmetry_2
_ccdc_geom_bond_type
C0 C1 1.386 . S
C0 C2 1.397 . S
C0 H24 0.931 . S
C1 C0 1.386 . S
C1 C5 1.397 . S
C2 C0 1.397 . S
C2 C3 1.384 . S
C2 H25 0.930 . S
C3 C2 1.384 . S
C3 C4 1.377 . S
C3 C6 1.481 . S
C4 C3 1.377 . S
C4 C5 1.389 . S
C4 H26 0.929 . S
C5 C1 1.397 . S
C5 C4 1.389 . S
C5 H27 0.931 . S
C6 C3 1.481 . S
C6 C7 1.387 . S
C6 C11 1.390 . S
C7 C6 1.387 . S
C7 C8 1.401 . S
C7 H28 0.930 . S
C8 C7 1.401 . S
C8 C9 1.376 . S
C8 C17 1.511 . S
C9 C8 1.376 . S
C9 C10 1.392 . S
C9 H30 0.931 . S
C10 C9 1.392 . S
C10 C11 1.361 . S
C10 C12 1.500 . S
C11 C6 1.390 . S
C11 C10 1.361 . S
C11 H29 0.931 . S
C12 C10 1.500 . S
C12 C13 1.371 . S
C12 C14 1.365 . S
C13 C12 1.371 . S
C13 C23 1.386 . S
C13 H31 0.931 . S
C14 C12 1.365 . S
C14 C15 1.409 . S
C14 H32 0.929 . S
C15 C14 1.409 . S
C15 C16 1.380 . S
C15 H33 0.930 . S
C16 C15 1.380 . S
C16 C23 1.357 . S
C17 C8 1.511 . S
C17 C18 1.341 . S
C17 C19 1.371 . S
C18 C17 1.341 . S
C18 C22 1.394 . S
C18 H34 0.930 . S
C19 C17 1.371 . S
C19 C20 1.392 . S
C19 H35 0.931 . S
C20 C19 1.392 . S
C20 C21 1.331 . S
C20 H38 0.932 . S
C21 C20 1.331 . S
C21 C22 1.336 . S
C22 C18 1.394 . S
C22 C21 1.336 . S
C22 H37 0.929 . S
C23 C13 1.386 . S
C23 C16 1.357 . S
C23 H36 0.928 . S
H24 C0 0.931 . S
H25 C2 0.930 . S
H26 C4 0.929 . S
H27 C5 0.931 . S
H28 C7 0.930 . S
H29 C11 0.931 . S
H30 C9 0.931 . S
H31 C13 0.931 . S
H32 C14 0.929 . S
H33 C15 0.930 . S
H34 C18 0.930 . S
H35 C19 0.931 . S
H36 C23 0.928 . S
H37 C22 0.929 . S
H38 C20 0.932 . S
C39 C40 1.386 . S
C39 C41 1.397 . S
C39 H63 0.931 . S
C40 C39 1.386 . S
C40 C44 1.397 . S
C41 C39 1.397 . S
C41 C42 1.384 . S
C41 H64 0.930 . S
C42 C41 1.384 . S
C42 C43 1.377 . S
C42 C45 1.481 . S
C43 C42 1.377 . S
C43 C44 1.389 . S
C43 H65 0.929 . S
C44 C40 1.397 . S
C44 C43 1.389 . S
C44 H66 0.931 . S
C45 C42 1.481 . S
C45 C46 1.387 . S
C45 C50 1.390 . S
C46 C45 1.387 . S
C46 C47 1.401 . S
C46 H67 0.930 . S
C47 C46 1.401 . S
C47 C48 1.376 . S
C47 C56 1.511 . S
C48 C47 1.376 . S
C48 C49 1.392 . S
C48 H69 0.931 . S
C49 C48 1.392 . S
C49 C50 1.361 . S
C49 C51 1.500 . S
C50 C45 1.390 . S
C50 C49 1.361 . S
C50 H68 0.931 . S
C51 C49 1.500 . S
C51 C52 1.371 . S
C51 C53 1.365 . S
C52 C51 1.371 . S
C52 C62 1.386 . S
C52 H70 0.931 . S
C53 C51 1.365 . S
C53 C54 1.409 . S
C53 H71 0.929 . S
C54 C53 1.409 . S
C54 C55 1.380 . S
C54 H72 0.930 . S
C55 C54 1.380 . S
C55 C62 1.357 . S
C56 C47 1.511 . S
C56 C57 1.341 . S
C56 C58 1.371 . S
C57 C56 1.341 . S
C57 C61 1.394 . S
C57 H73 0.930 . S
C58 C56 1.371 . S
C58 C59 1.392 . S
C58 H74 0.931 . S
C59 C58 1.392 . S
C59 C60 1.331 . S
C59 H77 0.932 . S
C60 C59 1.331 . S
C60 C61 1.336 . S
C61 C57 1.394 . S
C61 C60 1.336 . S
C61 H76 0.929 . S
C62 C52 1.386 . S
C62 C55 1.357 . S
C62 H75 0.928 . S
H63 C39 0.931 . S
H64 C41 0.930 . S
H65 C43 0.929 . S
H66 C44 0.931 . S
H67 C46 0.930 . S
H68 C50 0.931 . S
H69 C48 0.931 . S
H70 C52 0.931 . S
H71 C53 0.929 . S
H72 C54 0.930 . S
H73 C57 0.930 . S
H74 C58 0.931 . S
H75 C62 0.928 . S
H76 C61 0.929 . S
H77 C59 0.932 . S
C78 C79 1.386 . S
C78 C80 1.397 . S
C78 H102 0.931 . S
C79 C78 1.386 . S
C79 C83 1.397 . S
C80 C78 1.397 . S
C80 C81 1.384 . S
C80 H103 0.930 . S
C81 C80 1.384 . S
C81 C82 1.377 . S
C81 C84 1.481 . S
C82 C81 1.377 . S
C82 C83 1.389 . S
C82 H104 0.929 . S
C83 C79 1.397 . S
C83 C82 1.389 . S
C83 H105 0.931 . S
C84 C81 1.481 . S
C84 C85 1.387 . S
C84 C89 1.390 . S
C85 C84 1.387 . S
C85 C86 1.401 . S
C85 H106 0.930 . S
C86 C85 1.401 . S
C86 C87 1.376 . S
C86 C95 1.511 . S
C87 C86 1.376 . S
C87 C88 1.392 . S
C87 H108 0.931 . S
C88 C87 1.392 . S
C88 C89 1.361 . S
C88 C90 1.500 . S
C89 C84 1.390 . S
C89 C88 1.361 . S
C89 H107 0.931 . S
C90 C88 1.500 . S
C90 C91 1.371 . S
C90 C92 1.365 . S
C91 C90 1.371 . S
C91 C101 1.386 . S
C91 H109 0.931 . S
C92 C90 1.365 . S
C92 C93 1.409 . S
C92 H110 0.929 . S
C93 C92 1.409 . S
C93 C94 1.380 . S
C93 H111 0.930 . S
C94 C93 1.380 . S
C94 C101 1.357 . S
C95 C86 1.511 . S
C95 C96 1.341 . S
C95 C97 1.371 . S
C96 C95 1.341 . S
C96 C100 1.394 . S
C96 H112 0.930 . S
C97 C95 1.371 . S
C97 C98 1.392 . S
C97 H113 0.931 . S
C98 C97 1.392 . S
C98 C99 1.331 . S
C98 H116 0.932 . S
C99 C98 1.331 . S
C99 C100 1.336 . S
C100 C96 1.394 . S
C100 C99 1.336 . S
C100 H115 0.929 . S
C101 C91 1.386 . S
C101 C94 1.357 . S
C101 H114 0.928 . S
H102 C78 0.931 . S
H103 C80 0.930 . S
H104 C82 0.929 . S
H105 C83 0.931 . S
H106 C85 0.930 . S
H107 C89 0.931 . S
H108 C87 0.931 . S
H109 C91 0.931 . S
H110 C92 0.929 . S
H111 C93 0.930 . S
H112 C96 0.930 . S
H113 C97 0.931 . S
H114 C101 0.928 . S
H115 C100 0.929 . S
H116 C98 0.932 . S
C117 C118 1.386 . S
C117 C119 1.397 . S
C117 H141 0.931 . S
C118 C117 1.386 . S
C118 C122 1.397 . S
C119 C117 1.397 . S
C119 C120 1.384 . S
C119 H142 0.930 . S
C120 C119 1.384 . S
C120 C121 1.377 . S
C120 C123 1.481 . S
C121 C120 1.377 . S
C121 C122 1.389 . S
C121 H143 0.929 . S
C122 C118 1.397 . S
C122 C121 1.389 . S
C122 H144 0.931 . S
C123 C120 1.481 . S
C123 C124 1.387 . S
C123 C128 1.390 . S
C124 C123 1.387 . S
C124 C125 1.401 . S
C124 H145 0.930 . S
C125 C124 1.401 . S
C125 C126 1.376 . S
C125 C134 1.511 . S
C126 C125 1.376 . S
C126 C127 1.392 . S
C126 H147 0.931 . S
C127 C126 1.392 . S
C127 C128 1.361 . S
C127 C129 1.500 . S
C128 C123 1.390 . S
C128 C127 1.361 . S
C128 H146 0.931 . S
C129 C127 1.500 . S
C129 C130 1.371 . S
C129 C131 1.365 . S
C130 C129 1.371 . S
C130 C140 1.386 . S
C130 H148 0.931 . S
C131 C129 1.365 . S
C131 C132 1.409 . S
C131 H149 0.929 . S
C132 C131 1.409 . S
C132 C133 1.380 . S
C132 H150 0.930 . S
C133 C132 1.380 . S
C133 C140 1.357 . S
C134 C125 1.511 . S
C134 C135 1.341 . S
C134 C136 1.371 . S
C135 C134 1.341 . S
C135 C139 1.394 . S
C135 H151 0.930 . S
C136 C134 1.371 . S
C136 C137 1.392 . S
C136 H152 0.931 . S
C137 C136 1.392 . S
C137 C138 1.331 . S
C137 H155 0.932 . S
C138 C137 1.331 . S
C138 C139 1.336 . S
C139 C135 1.394 . S
C139 C138 1.336 . S
C139 H154 0.929 . S
C140 C130 1.386 . S
C140 C133 1.357 . S
C140 H153 0.928 . S
H141 C117 0.931 . S
H142 C119 0.930 . S
H143 C121 0.929 . S
H144 C122 0.931 . S
H145 C124 0.930 . S
H146 C128 0.931 . S
H147 C126 0.931 . S
H148 C130 0.931 . S
H149 C131 0.929 . S
H150 C132 0.930 . S
H151 C135 0.930 . S
H152 C136 0.931 . S
H153 C140 0.928 . S
H154 C139 0.929 . S
H155 C137 0.932 . S
C156 C157 1.386 . S
C156 C158 1.397 . S
C156 H180 0.931 . S
C157 C156 1.386 . S
C157 C161 1.397 . S
C158 C156 1.397 . S
C158 C159 1.384 . S
C158 H181 0.930 . S
C159 C158 1.384 . S
C159 C160 1.377 . S
C159 C162 1.481 . S
C160 C159 1.377 . S
C160 C161 1.389 . S
C160 H182 0.929 . S
C161 C157 1.397 . S
C161 C160 1.389 . S
C161 H183 0.931 . S
C162 C159 1.481 . S
C162 C163 1.387 . S
C162 C167 1.390 . S
C163 C162 1.387 . S
C163 C164 1.401 . S
C163 H184 0.930 . S
C164 C163 1.401 . S
C164 C165 1.376 . S
C164 C173 1.511 . S
C165 C164 1.376 . S
C165 C166 1.392 . S
C165 H186 0.931 . S
C166 C165 1.392 . S
C166 C167 1.361 . S
C166 C168 1.500 . S
C167 C162 1.390 . S
C167 C166 1.361 . S
C167 H185 0.931 . S
C168 C166 1.500 . S
C168 C169 1.371 . S
C168 C170 1.365 . S
C169 C168 1.371 . S
C169 C179 1.386 . S
C169 H187 0.931 . S
C170 C168 1.365 . S
C170 C171 1.409 . S
C170 H188 0.929 . S
C171 C170 1.409 . S
C171 C172 1.380 . S
C171 H189 0.930 . S
C172 C171 1.380 . S
C172 C179 1.357 . S
C173 C164 1.511 . S
C173 C174 1.341 . S
C173 C175 1.371 . S
C174 C173 1.341 . S
C174 C178 1.394 . S
C174 H190 0.930 . S
C175 C173 1.371 . S
C175 C176 1.392 . S
C175 H191 0.931 . S
C176 C175 1.392 . S
C176 C177 1.331 . S
C176 H194 0.932 . S
C177 C176 1.331 . S
C177 C178 1.336 . S
C178 C174 1.394 . S
C178 C177 1.336 . S
C178 H193 0.929 . S
C179 C169 1.386 . S
C179 C172 1.357 . S
C179 H192 0.928 . S
H180 C156 0.931 . S
H181 C158 0.930 . S
H182 C160 0.929 . S
H183 C161 0.931 . S
H184 C163 0.930 . S
H185 C167 0.931 . S
H186 C165 0.931 . S
H187 C169 0.931 . S
H188 C170 0.929 . S
H189 C171 0.930 . S
H190 C174 0.930 . S
H191 C175 0.931 . S
H192 C179 0.928 . S
H193 C178 0.929 . S
H194 C176 0.932 . S
C195 C196 1.386 . S
C195 C197 1.397 . S
C195 H219 0.931 . S
C196 C195 1.386 . S
C196 C200 1.397 . S
C197 C195 1.397 . S
C197 C198 1.384 . S
C197 H220 0.930 . S
C198 C197 1.384 . S
C198 C199 1.377 . S
C198 C201 1.481 . S
C199 C198 1.377 . S
C199 C200 1.389 . S
C199 H221 0.929 . S
C200 C196 1.397 . S
C200 C199 1.389 . S
C200 H222 0.931 . S
C201 C198 1.481 . S
C201 C202 1.387 . S
C201 C206 1.390 . S
C202 C201 1.387 . S
C202 C203 1.401 . S
C202 H223 0.930 . S
C203 C202 1.401 . S
C203 C204 1.376 . S
C203 C212 1.511 . S
C204 C203 1.376 . S
C204 C205 1.392 . S
C204 H225 0.931 . S
C205 C204 1.392 . S
C205 C206 1.361 . S
C205 C207 1.500 . S
C206 C201 1.390 . S
C206 C205 1.361 . S
C206 H224 0.931 . S
C207 C205 1.500 . S
C207 C208 1.371 . S
C207 C209 1.365 . S
C208 C207 1.371 . S
C208 C218 1.386 . S
C208 H226 0.931 . S
C209 C207 1.365 . S
C209 C210 1.409 . S
C209 H227 0.929 . S
C210 C209 1.409 . S
C210 C211 1.380 . S
C210 H228 0.930 . S
C211 C210 1.380 . S
C211 C218 1.357 . S
C212 C203 1.511 . S
C212 C213 1.341 . S
C212 C214 1.371 . S
C213 C212 1.341 . S
C213 C217 1.394 . S
C213 H229 0.930 . S
C214 C212 1.371 . S
C214 C215 1.392 . S
C214 H230 0.931 . S
C215 C214 1.392 . S
C215 C216 1.331 . S
C215 H233 0.932 . S
C216 C215 1.331 . S
C216 C217 1.336 . S
C217 C213 1.394 . S
C217 C216 1.336 . S
C217 H232 0.929 . S
C218 C208 1.386 . S
C218 C211 1.357 . S
C218 H231 0.928 . S
H219 C195 0.931 . S
H220 C197 0.930 . S
H221 C199 0.929 . S
H222 C200 0.931 . S
H223 C202 0.930 . S
H224 C206 0.931 . S
H225 C204 0.931 . S
H226 C208 0.931 . S
H227 C209 0.929 . S
H228 C210 0.930 . S
H229 C213 0.930 . S
H230 C214 0.931 . S
H231 C218 0.928 . S
H232 C217 0.929 . S
H233 C215 0.932 . S
C234 C235 1.386 . S
C234 C236 1.397 . S
C234 H258 0.931 . S
C235 C234 1.386 . S
C235 C239 1.397 . S
C236 C234 1.397 . S
C236 C237 1.384 . S
C236 H259 0.930 . S
C237 C236 1.384 . S
C237 C238 1.377 . S
C237 C240 1.481 . S
C238 C237 1.377 . S
C238 C239 1.389 . S
C238 H260 0.929 . S
C239 C235 1.397 . S
C239 C238 1.389 . S
C239 H261 0.931 . S
C240 C237 1.481 . S
C240 C241 1.387 . S
C240 C245 1.390 . S
C241 C240 1.387 . S
C241 C242 1.401 . S
C241 H262 0.930 . S
C242 C241 1.401 . S
C242 C243 1.376 . S
C242 C251 1.511 . S
C243 C242 1.376 . S
C243 C244 1.392 . S
C243 H264 0.931 . S
C244 C243 1.392 . S
C244 C245 1.361 . S
C244 C246 1.500 . S
C245 C240 1.390 . S
C245 C244 1.361 . S
C245 H263 0.931 . S
C246 C244 1.500 . S
C246 C247 1.371 . S
C246 C248 1.365 . S
C247 C246 1.371 . S
C247 C257 1.386 . S
C247 H265 0.931 . S
C248 C246 1.365 . S
C248 C249 1.409 . S
C248 H266 0.929 . S
C249 C248 1.409 . S
C249 C250 1.380 . S
C249 H267 0.930 . S
C250 C249 1.380 . S
C250 C257 1.357 . S
C251 C242 1.511 . S
C251 C252 1.341 . S
C251 C253 1.371 . S
C252 C251 1.341 . S
C252 C256 1.394 . S
C252 H268 0.930 . S
C253 C251 1.371 . S
C253 C254 1.392 . S
C253 H269 0.931 . S
C254 C253 1.392 . S
C254 C255 1.331 . S
C254 H272 0.932 . S
C255 C254 1.331 . S
C255 C256 1.336 . S
C256 C252 1.394 . S
C256 C255 1.336 . S
C256 H271 0.929 . S
C257 C247 1.386 . S
C257 C250 1.357 . S
C257 H270 0.928 . S
H258 C234 0.931 . S
H259 C236 0.930 . S
H260 C238 0.929 . S
H261 C239 0.931 . S
H262 C241 0.930 . S
H263 C245 0.931 . S
H264 C243 0.931 . S
H265 C247 0.931 . S
H266 C248 0.929 . S
H267 C249 0.930 . S
H268 C252 0.930 . S
H269 C253 0.931 . S
H270 C257 0.928 . S
H271 C256 0.929 . S
H272 C254 0.932 . S
C273 C274 1.386 . S
C273 C275 1.397 . S
C273 H297 0.931 . S
C274 C273 1.386 . S
C274 C278 1.397 . S
C275 C273 1.397 . S
C275 C276 1.384 . S
C275 H298 0.930 . S
C276 C275 1.384 . S
C276 C277 1.377 . S
C276 C279 1.481 . S
C277 C276 1.377 . S
C277 C278 1.389 . S
C277 H299 0.929 . S
C278 C274 1.397 . S
C278 C277 1.389 . S
C278 H300 0.931 . S
C279 C276 1.481 . S
C279 C280 1.387 . S
C279 C284 1.390 . S
C280 C279 1.387 . S
C280 C281 1.401 . S
C280 H301 0.930 . S
C281 C280 1.401 . S
C281 C282 1.376 . S
C281 C290 1.511 . S
C282 C281 1.376 . S
C282 C283 1.392 . S
C282 H303 0.931 . S
C283 C282 1.392 . S
C283 C284 1.361 . S
C283 C285 1.500 . S
C284 C279 1.390 . S
C284 C283 1.361 . S
C284 H302 0.931 . S
C285 C283 1.500 . S
C285 C286 1.371 . S
C285 C287 1.365 . S
C286 C285 1.371 . S
C286 C296 1.386 . S
C286 H304 0.931 . S
C287 C285 1.365 . S
C287 C288 1.409 . S
C287 H305 0.929 . S
C288 C287 1.409 . S
C288 C289 1.380 . S
C288 H306 0.930 . S
C289 C288 1.380 . S
C289 C296 1.357 . S
C290 C281 1.511 . S
C290 C291 1.341 . S
C290 C292 1.371 . S
C291 C290 1.341 . S
C291 C295 1.394 . S
C291 H307 0.930 . S
C292 C290 1.371 . S
C292 C293 1.392 . S
C292 H308 0.931 . S
C293 C292 1.392 . S
C293 C294 1.331 . S
C293 H311 0.932 . S
C294 C293 1.331 . S
C294 C295 1.336 . S
C295 C291 1.394 . S
C295 C294 1.336 . S
C295 H310 0.929 . S
C296 C286 1.386 . S
C296 C289 1.357 . S
C296 H309 0.928 . S
H297 C273 0.931 . S
H298 C275 0.930 . S
H299 C277 0.929 . S
H300 C278 0.931 . S
H301 C280 0.930 . S
H302 C284 0.931 . S
H303 C282 0.931 . S
H304 C286 0.931 . S
H305 C287 0.929 . S
H306 C288 0.930 . S
H307 C291 0.930 . S
H308 C292 0.931 . S
H309 C296 0.928 . S
H310 C295 0.929 . S
H311 C293 0.932 . S
Zn312 O318 1.969 1_545 S
Zn312 O319 1.965 1_545 S
Zn312 O323 2.024 . S
Zn312 O328 1.969 . S
Zn313 O320 1.969 . S
Zn313 O326 1.969 1_565 S
Zn313 O327 1.933 1_665 S
Zn313 O329 2.024 . S
C314 O315 1.229 . S
C314 O323 1.058 . S
O315 C314 1.229 . S
C316 O317 1.229 . S
C316 O329 1.058 . S
O317 C316 1.229 . S
O318 Zn312 1.969 1_565 S
O318 C321 1.267 . S
O319 Zn312 1.965 1_565 S
O319 C330 1.260 1_455 S
O320 Zn313 1.969 . S
O320 C330 1.258 . S
C321 O318 1.267 . S
C321 O322 1.228 . S
O322 C321 1.228 . S
O323 Zn312 2.024 . S
O323 C314 1.058 . S
C324 O325 1.228 . S
C324 O326 1.267 . S
O325 C324 1.228 . S
O326 Zn313 1.969 1_545 S
O326 C324 1.267 . S
O327 Zn313 1.933 1_445 S
O327 C331 1.301 . S
O328 Zn312 1.969 . S
O328 C331 1.258 . S
O329 Zn313 2.024 . S
O329 C316 1.058 . S
C330 O319 1.260 1_655 S
C330 O320 1.258 . S
C331 O327 1.301 . S
C331 O328 1.258 . S
Zn332 O338 1.969 . S
Zn332 O339 1.965 1_565 S
Zn332 O343 2.024 . S
Zn332 O348 1.993 . S
Zn333 O340 1.969 . S
Zn333 O346 1.969 . S
Zn333 O347 1.965 1_545 S
Zn333 O349 2.024 . S
C334 O335 1.229 . S
C334 O343 1.058 . S
O335 C334 1.229 . S
C336 O337 1.229 . S
C336 O349 1.058 . S
O337 C336 1.229 . S
O338 Zn332 1.969 . S
O338 C341 1.267 . S
O339 Zn332 1.965 1_545 S
O339 C350 1.260 . S
O340 Zn333 1.969 . S
O340 C350 1.258 1_554 S
C341 O338 1.267 . S
C341 O342 1.228 . S
O342 C341 1.228 . S
O343 Zn332 2.024 . S
O343 C334 1.058 . S
C344 O345 1.228 . S
C344 O346 1.267 . S
O345 C344 1.228 . S
O346 Zn333 1.969 . S
O346 C344 1.267 . S
O347 Zn333 1.965 1_565 S
O347 C351 1.260 . S
O348 Zn332 1.993 . S
O348 C351 1.233 1_556 S
O349 Zn333 2.024 . S
O349 C336 1.058 . S
C350 O339 1.260 . S
C350 O340 1.258 1_556 S
C351 O347 1.260 . S
C351 O348 1.233 1_554 S
Zn352 O358 1.969 . S
Zn352 O359 1.965 . S
Zn352 O363 2.024 . S
Zn352 O368 1.969 . S
Zn353 O360 1.969 . S
Zn353 O366 1.969 . S
Zn353 O367 1.965 . S
Zn353 O369 2.024 . S
C354 O355 1.229 . S
C354 O363 1.058 . S
O355 C354 1.229 . S
C356 O357 1.229 . S
C356 O369 1.058 . S
O357 C356 1.229 . S
O358 Zn352 1.969 . S
O358 C361 1.267 . S
O359 Zn352 1.965 . S
O359 C370 1.260 . S
O360 Zn353 1.969 . S
O360 C370 1.258 . S
C361 O358 1.267 . S
C361 O362 1.228 . S
O362 C361 1.228 . S
O363 Zn352 2.024 . S
O363 C354 1.058 . S
C364 O365 1.228 . S
C364 O366 1.267 . S
O365 C364 1.228 . S
O366 Zn353 1.969 . S
O366 C364 1.267 . S
O367 Zn353 1.965 . S
O367 C371 1.260 . S
O368 Zn352 1.969 . S
O368 C371 1.258 . S
O369 Zn353 2.024 . S
O369 C356 1.058 . S
C370 O359 1.260 . S
C370 O360 1.258 . S
C371 O367 1.260 . S
C371 O368 1.258 . S
Zn372 O378 1.969 . S
Zn372 O379 1.965 1_556 S
Zn372 O383 2.024 . S
Zn372 O388 1.969 1_655 S
Zn373 O380 1.969 . S
Zn373 O386 1.969 . S
Zn373 O387 1.965 1_554 S
Zn373 O389 2.024 . S
C374 O375 1.229 . S
C374 O383 1.058 . S
O375 C374 1.229 . S
C376 O377 1.229 . S
C376 O389 1.058 . S
O377 C376 1.229 . S
O378 Zn372 1.969 . S
O378 C381 1.267 . S
O379 Zn372 1.965 1_554 S
O379 C390 1.260 . S
O380 Zn373 1.969 . S
O380 C390 1.258 1_455 S
C381 O378 1.267 . S
C381 O382 1.228 . S
O382 C381 1.228 . S
O383 Zn372 2.024 . S
O383 C374 1.058 . S
C384 O385 1.228 . S
C384 O386 1.267 . S
O385 C384 1.228 . S
O386 Zn373 1.969 . S
O386 C384 1.267 . S
O387 Zn373 1.965 1_556 S
O387 C391 1.260 . S
O388 Zn372 1.969 1_455 S
O388 C391 1.258 . S
O389 Zn373 2.024 . S
O389 C376 1.058 . S
C390 O379 1.260 . S
C390 O380 1.258 1_655 S
C391 O387 1.260 . S
C391 O388 1.258 . S
H392 C398 0.930 . S
H393 C402 0.930 . S
H394 C407 0.929 . S
H395 C405 0.929 . S
H396 C400 0.929 . S
H397 C406 0.929 . S
C398 H392 0.930 . S
C398 C399 1.367 . S
C398 C406 1.378 . S
C399 C398 1.367 . S
C399 C407 1.433 . S
C400 H396 0.929 . S
C400 C402 1.378 . S
C400 C404 1.350 . S
C401 C404 1.463 . S
C401 C406 1.350 . S
C401 N409 1.427 . S
C402 H393 0.930 . S
C402 C400 1.378 . S
C402 C403 1.367 . S
C403 C402 1.367 . S
C403 C405 1.433 . S
C404 C400 1.350 . S
C404 C401 1.463 . S
C404 N408 1.427 . S
C405 H395 0.929 . S
C405 C403 1.433 . S
C405 N408 1.384 . S
C406 H397 0.929 . S
C406 C398 1.378 . S
C406 C401 1.350 . S
C407 H394 0.929 . S
C407 C399 1.433 . S
C407 N409 1.384 . S
N408 C404 1.427 . S
N408 C405 1.384 . S
N409 C401 1.427 . S
N409 C407 1.384 . S
H410 C416 0.930 . S
H411 C420 0.930 . S
H412 C425 0.929 . S
H413 C423 0.929 . S
H414 C418 0.929 . S
H415 C424 0.929 . S
C416 H410 0.930 . S
C416 C417 1.367 . S
C416 C424 1.378 . S
C417 C416 1.367 . S
C417 C425 1.433 . S
C418 H414 0.929 . S
C418 C420 1.378 . S
C418 C422 1.350 . S
C419 C422 1.463 . S
C419 C424 1.350 . S
C419 N427 1.427 . S
C420 H411 0.930 . S
C420 C418 1.378 . S
C420 C421 1.367 . S
C421 C420 1.367 . S
C421 C423 1.433 . S
C422 C418 1.350 . S
C422 C419 1.463 . S
C422 N426 1.427 . S
C423 H413 0.929 . S
C423 C421 1.433 . S
C423 N426 1.384 . S
C424 H415 0.929 . S
C424 C416 1.378 . S
C424 C419 1.350 . S
C425 H412 0.929 . S
C425 C417 1.433 . S
C425 N427 1.384 . S
N426 C422 1.427 . S
N426 C423 1.384 . S
N427 C419 1.427 . S
N427 C425 1.384 . S
H428 C434 0.930 . S
H429 C438 0.930 . S
H430 C443 0.929 . S
H431 C441 0.929 . S
H432 C436 0.929 . S
H433 C442 0.929 . S
C434 H428 0.930 . S
C434 C435 1.367 . S
C434 C442 1.378 . S
C435 C434 1.367 . S
C435 C443 1.433 . S
C436 H432 0.929 . S
C436 C438 1.378 . S
C436 C440 1.350 . S
C437 C440 1.463 . S
C437 C442 1.350 . S
C437 N445 1.427 . S
C438 H429 0.930 . S
C438 C436 1.378 . S
C438 C439 1.367 . S
C439 C438 1.367 . S
C439 C441 1.433 . S
C440 C436 1.350 . S
C440 C437 1.463 . S
C440 N444 1.427 . S
C441 H431 0.929 . S
C441 C439 1.433 . S
C441 N444 1.384 . S
C442 H433 0.929 . S
C442 C434 1.378 . S
C442 C437 1.350 . S
C443 H430 0.929 . S
C443 C435 1.433 . S
C443 N445 1.384 . S
N444 C440 1.427 . S
N444 C441 1.384 . S
N445 C437 1.427 . S
N445 C443 1.384 . S
H446 C452 0.930 . S
H447 C456 0.930 . S
H448 C461 0.929 . S
H449 C459 0.929 . S
H450 C454 0.929 . S
H451 C460 0.929 . S
C452 H446 0.930 . S
C452 C453 1.367 . S
C452 C460 1.378 . S
C453 C452 1.367 . S
C453 C461 1.433 . S
C454 H450 0.929 . S
C454 C456 1.378 . S
C454 C458 1.350 . S
C455 C458 1.463 . S
C455 C460 1.350 . S
C455 N463 1.427 . S
C456 H447 0.930 . S
C456 C454 1.378 . S
C456 C457 1.367 . S
C457 C456 1.367 . S
C457 C459 1.433 . S
C458 C454 1.350 . S
C458 C455 1.463 . S
C458 N462 1.427 . S
C459 H449 0.929 . S
C459 C457 1.433 . S
C459 N462 1.384 . S
C460 H451 0.929 . S
C460 C452 1.378 . S
C460 C455 1.350 . S
C461 H448 0.929 . S
C461 C453 1.433 . S
C461 N463 1.384 . S
N462 C458 1.427 . S
N462 C459 1.384 . S
N463 C455 1.427 . S
N463 C461 1.384 . S
H464 C470 0.930 . S
H465 C474 0.930 . S
H466 C479 0.929 . S
H467 C477 0.929 . S
H468 C472 0.929 . S
H469 C478 0.929 . S
C470 H464 0.930 . S
C470 C471 1.367 . S
C470 C478 1.378 . S
C471 C470 1.367 . S
C471 C479 1.433 . S
C472 H468 0.929 . S
C472 C474 1.378 . S
C472 C476 1.350 . S
C473 C476 1.463 . S
C473 C478 1.350 . S
C473 N481 1.427 . S
C474 H465 0.930 . S
C474 C472 1.378 . S
C474 C475 1.367 . S
C475 C474 1.367 . S
C475 C477 1.433 . S
C476 C472 1.350 . S
C476 C473 1.463 . S
C476 N480 1.427 . S
C477 H467 0.929 . S
C477 C475 1.433 . S
C477 N480 1.384 . S
C478 H469 0.929 . S
C478 C470 1.378 . S
C478 C473 1.350 . S
C479 H466 0.929 . S
C479 C471 1.433 . S
C479 N481 1.384 . S
N480 C476 1.427 . S
N480 C477 1.384 . S
N481 C473 1.427 . S
N481 C479 1.384 . S
H482 C488 0.930 . S
H483 C492 0.930 . S
H484 C497 0.929 . S
H485 C495 0.929 . S
H486 C490 0.929 . S
H487 C496 0.929 . S
C488 H482 0.930 . S
C488 C489 1.367 . S
C488 C496 1.378 . S
C489 C488 1.367 . S
C489 C497 1.433 . S
C490 H486 0.929 . S
C490 C492 1.378 . S
C490 C494 1.350 . S
C491 C494 1.463 . S
C491 C496 1.350 . S
C491 N499 1.427 . S
C492 H483 0.930 . S
C492 C490 1.378 . S
C492 C493 1.367 . S
C493 C492 1.367 . S
C493 C495 1.433 . S
C494 C490 1.350 . S
C494 C491 1.463 . S
C494 N498 1.427 . S
C495 H485 0.929 . S
C495 C493 1.433 . S
C495 N498 1.384 . S
C496 H487 0.929 . S
C496 C488 1.378 . S
C496 C491 1.350 . S
C497 H484 0.929 . S
C497 C489 1.433 . S
C497 N499 1.384 . S
N498 C494 1.427 . S
N498 C495 1.384 . S
N499 C491 1.427 . S
N499 C497 1.384 . S
H500 C506 0.930 . S
H501 C510 0.930 . S
H502 C515 0.929 . S
H503 C513 0.929 . S
H504 C508 0.929 . S
H505 C514 0.929 . S
C506 H500 0.930 . S
C506 C507 1.367 . S
C506 C514 1.378 . S
C507 C506 1.367 . S
C507 C515 1.433 . S
C508 H504 0.929 . S
C508 C510 1.378 . S
C508 C512 1.350 . S
C509 C512 1.463 . S
C509 C514 1.350 . S
C509 N517 1.427 . S
C510 H501 0.930 . S
C510 C508 1.378 . S
C510 C511 1.367 . S
C511 C510 1.367 . S
C511 C513 1.433 . S
C512 C508 1.350 . S
C512 C509 1.463 . S
C512 N516 1.427 . S
C513 H503 0.929 . S
C513 C511 1.433 . S
C513 N516 1.384 . S
C514 H505 0.929 . S
C514 C506 1.378 . S
C514 C509 1.350 . S
C515 H502 0.929 . S
C515 C507 1.433 . S
C515 N517 1.384 . S
N516 C512 1.427 . S
N516 C513 1.384 . S
N517 C509 1.427 . S
N517 C515 1.384 . S
H518 C524 0.930 . S
H519 C528 0.930 . S
H520 C533 0.929 . S
H521 C531 0.929 . S
H522 C526 0.929 . S
H523 C532 0.929 . S
C524 H518 0.930 . S
C524 C525 1.367 . S
C524 C532 1.378 . S
C525 C524 1.367 . S
C525 C533 1.433 . S
C526 H522 0.929 . S
C526 C528 1.378 . S
C526 C530 1.350 . S
C527 C530 1.463 . S
C527 C532 1.350 . S
C527 N535 1.427 . S
C528 H519 0.930 . S
C528 C526 1.378 . S
C528 C529 1.367 . S
C529 C528 1.367 . S
C529 C531 1.433 . S
C530 C526 1.350 . S
C530 C527 1.463 . S
C530 N534 1.427 . S
C531 H521 0.929 . S
C531 C529 1.433 . S
C531 N534 1.384 . S
C532 H523 0.929 . S
C532 C524 1.378 . S
C532 C527 1.350 . S
C533 H520 0.929 . S
C533 C525 1.433 . S
C533 N535 1.384 . S
N534 C530 1.427 . S
N534 C531 1.384 . S
N535 C527 1.427 . S
N535 C533 1.384 . S
H536 C542 0.930 . S
H537 C546 0.930 . S
H538 C551 0.929 . S
H539 C549 0.929 . S
H540 C544 0.929 . S
H541 C550 0.929 . S
C542 H536 0.930 . S
C542 C543 1.367 . S
C542 C550 1.378 . S
C543 C542 1.367 . S
C543 C551 1.433 . S
C544 H540 0.929 . S
C544 C546 1.378 . S
C544 C548 1.350 . S
C545 C548 1.463 . S
C545 C550 1.350 . S
C545 N553 1.427 . S
C546 H537 0.930 . S
C546 C544 1.378 . S
C546 C547 1.367 . S
C547 C546 1.367 . S
C547 C549 1.433 . S
C548 C544 1.350 . S
C548 C545 1.463 . S
C548 N552 1.427 . S
C549 H539 0.929 . S
C549 C547 1.433 . S
C549 N552 1.384 . S
C550 H541 0.929 . S
C550 C542 1.378 . S
C550 C545 1.350 . S
C551 H538 0.929 . S
C551 C543 1.433 . S
C551 N553 1.384 . S
N552 C548 1.427 . S
N552 C549 1.384 . S
N553 C545 1.427 . S
N553 C551 1.384 . S
H554 C560 0.930 . S
H555 C564 0.930 . S
H556 C569 0.929 . S
H557 C567 0.929 . S
H558 C562 0.929 . S
H559 C568 0.929 . S
C560 H554 0.930 . S
C560 C561 1.367 . S
C560 C568 1.378 . S
C561 C560 1.367 . S
C561 C569 1.433 . S
C562 H558 0.929 . S
C562 C564 1.378 . S
C562 C566 1.350 . S
C563 C566 1.463 . S
C563 C568 1.350 . S
C563 N571 1.427 . S
C564 H555 0.930 . S
C564 C562 1.378 . S
C564 C565 1.367 . S
C565 C564 1.367 . S
C565 C567 1.433 . S
C566 C562 1.350 . S
C566 C563 1.463 . S
C566 N570 1.427 . S
C567 H557 0.929 . S
C567 C565 1.433 . S
C567 N570 1.384 . S
C568 H559 0.929 . S
C568 C560 1.378 . S
C568 C563 1.350 . S
C569 H556 0.929 . S
C569 C561 1.433 . S
C569 N571 1.384 . S
N570 C566 1.427 . S
N570 C567 1.384 . S
N571 C563 1.427 . S
N571 C569 1.384 . S
H572 C578 0.930 . S
H573 C582 0.930 . S
H574 C587 0.929 . S
H575 C585 0.929 . S
H576 C580 0.929 . S
H577 C586 0.929 . S
C578 H572 0.930 . S
C578 C579 1.367 . S
C578 C586 1.378 . S
C579 C578 1.367 . S
C579 C587 1.433 . S
C580 H576 0.929 . S
C580 C582 1.378 . S
C580 C584 1.350 . S
C581 C584 1.463 . S
C581 C586 1.350 . S
C581 N589 1.427 . S
C582 H573 0.930 . S
C582 C580 1.378 . S
C582 C583 1.367 . S
C583 C582 1.367 . S
C583 C585 1.433 . S
C584 C580 1.350 . S
C584 C581 1.463 . S
C584 N588 1.427 . S
C585 H575 0.929 . S
C585 C583 1.433 . S
C585 N588 1.384 . S
C586 H577 0.929 . S
C586 C578 1.378 . S
C586 C581 1.350 . S
C587 H574 0.929 . S
C587 C579 1.433 . S
C587 N589 1.384 . S
N588 C584 1.427 . S
N588 C585 1.384 . S
N589 C581 1.427 . S
N589 C587 1.384 . S
H590 C596 0.930 . S
H591 C600 0.930 . S
H592 C605 0.929 . S
H593 C603 0.929 . S
H594 C598 0.929 . S
H595 C604 0.929 . S
C596 H590 0.930 . S
C596 C597 1.367 . S
C596 C604 1.378 . S
C597 C596 1.367 . S
C597 C605 1.433 . S
C598 H594 0.929 . S
C598 C600 1.378 . S
C598 C602 1.350 . S
C599 C602 1.463 . S
C599 C604 1.350 . S
C599 N607 1.427 . S
C600 H591 0.930 . S
C600 C598 1.378 . S
C600 C601 1.367 . S
C601 C600 1.367 . S
C601 C603 1.433 . S
C602 C598 1.350 . S
C602 C599 1.463 . S
C602 N606 1.427 . S
C603 H593 0.929 . S
C603 C601 1.433 . S
C603 N606 1.384 . S
C604 H595 0.929 . S
C604 C596 1.378 . S
C604 C599 1.350 . S
C605 H592 0.929 . S
C605 C597 1.433 . S
C605 N607 1.384 . S
N606 C602 1.427 . S
N606 C603 1.384 . S
N607 C599 1.427 . S
N607 C605 1.384 . S
H608 C614 0.930 . S
H609 C618 0.930 . S
H610 C623 0.929 . S
H611 C621 0.929 . S
H612 C616 0.929 . S
H613 C622 0.929 . S
C614 H608 0.930 . S
C614 C615 1.367 . S
C614 C622 1.378 . S
C615 C614 1.367 . S
C615 C623 1.433 . S
C616 H612 0.929 . S
C616 C618 1.378 . S
C616 C620 1.350 . S
C617 C620 1.463 . S
C617 C622 1.350 . S
C617 N625 1.427 . S
C618 H609 0.930 . S
C618 C616 1.378 . S
C618 C619 1.367 . S
C619 C618 1.367 . S
C619 C621 1.433 . S
C620 C616 1.350 . S
C620 C617 1.463 . S
C620 N624 1.427 . S
C621 H611 0.929 . S
C621 C619 1.433 . S
C621 N624 1.384 . S
C622 H613 0.929 . S
C622 C614 1.378 . S
C622 C617 1.350 . S
C623 H610 0.929 . S
C623 C615 1.433 . S
C623 N625 1.384 . S
N624 C620 1.427 . S
N624 C621 1.384 . S
N625 C617 1.427 . S
N625 C623 1.384 . S
H626 C632 0.930 . S
H627 C636 0.930 . S
H628 C641 0.929 . S
H629 C639 0.929 . S
H630 C634 0.929 . S
H631 C640 0.929 . S
C632 H626 0.930 . S
C632 C633 1.367 . S
C632 C640 1.378 . S
C633 C632 1.367 . S
C633 C641 1.433 . S
C634 H630 0.929 . S
C634 C636 1.378 . S
C634 C638 1.350 . S
C635 C638 1.463 . S
C635 C640 1.350 . S
C635 N643 1.427 . S
C636 H627 0.930 . S
C636 C634 1.378 . S
C636 C637 1.367 . S
C637 C636 1.367 . S
C637 C639 1.433 . S
C638 C634 1.350 . S
C638 C635 1.463 . S
C638 N642 1.427 . S
C639 H629 0.929 . S
C639 C637 1.433 . S
C639 N642 1.384 . S
C640 H631 0.929 . S
C640 C632 1.378 . S
C640 C635 1.350 . S
C641 H628 0.929 . S
C641 C633 1.433 . S
C641 N643 1.384 . S
N642 C638 1.427 . S
N642 C639 1.384 . S
N643 C635 1.427 . S
N643 C641 1.384 . S
H644 C650 0.930 . S
H645 C654 0.930 . S
H646 C659 0.929 . S
H647 C657 0.929 . S
H648 C652 0.929 . S
H649 C658 0.929 . S
C650 H644 0.930 . S
C650 C651 1.367 . S
C650 C658 1.378 . S
C651 C650 1.367 . S
C651 C659 1.433 . S
C652 H648 0.929 . S
C652 C654 1.378 . S
C652 C656 1.350 . S
C653 C656 1.463 . S
C653 C658 1.350 . S
C653 N661 1.427 . S
C654 H645 0.930 . S
C654 C652 1.378 . S
C654 C655 1.367 . S
C655 C654 1.367 . S
C655 C657 1.433 . S
C656 C652 1.350 . S
C656 C653 1.463 . S
C656 N660 1.427 . S
C657 H647 0.929 . S
C657 C655 1.433 . S
C657 N660 1.384 . S
C658 H649 0.929 . S
C658 C650 1.378 . S
C658 C653 1.350 . S
C659 H646 0.929 . S
C659 C651 1.433 . S
C659 N661 1.384 . S
N660 C656 1.427 . S
N660 C657 1.384 . S
N661 C653 1.427 . S
N661 C659 1.384 . S
H662 C668 0.930 . S
H663 C672 0.930 . S
H664 C677 0.929 . S
H665 C675 0.929 . S
H666 C670 0.929 . S
H667 C676 0.929 . S
C668 H662 0.930 . S
C668 C669 1.367 . S
C668 C676 1.378 . S
C669 C668 1.367 . S
C669 C677 1.433 . S
C670 H666 0.929 . S
C670 C672 1.378 . S
C670 C674 1.350 . S
C671 C674 1.463 . S
C671 C676 1.350 . S
C671 N679 1.427 . S
C672 H663 0.930 . S
C672 C670 1.378 . S
C672 C673 1.367 . S
C673 C672 1.367 . S
C673 C675 1.433 . S
C674 C670 1.350 . S
C674 C671 1.463 . S
C674 N678 1.427 . S
C675 H665 0.929 . S
C675 C673 1.433 . S
C675 N678 1.384 . S
C676 H667 0.929 . S
C676 C668 1.378 . S
C676 C671 1.350 . S
C677 H664 0.929 . S
C677 C669 1.433 . S
C677 N679 1.384 . S
N678 C674 1.427 . S
N678 C675 1.384 . S
N679 C671 1.427 . S
N679 C677 1.384 . S
H680 C686 0.930 . S
H681 C690 0.930 . S
H682 C695 0.929 . S
H683 C693 0.929 . S
H684 C688 0.929 . S
H685 C694 0.929 . S
C686 H680 0.930 . S
C686 C687 1.367 . S
C686 C694 1.378 . S
C687 C686 1.367 . S
C687 C695 1.433 . S
C688 H684 0.929 . S
C688 C690 1.378 . S
C688 C692 1.350 . S
C689 C692 1.463 . S
C689 C694 1.350 . S
C689 N697 1.427 . S
C690 H681 0.930 . S
C690 C688 1.378 . S
C690 C691 1.367 . S
C691 C690 1.367 . S
C691 C693 1.433 . S
C692 C688 1.350 . S
C692 C689 1.463 . S
C692 N696 1.427 . S
C693 H683 0.929 . S
C693 C691 1.433 . S
C693 N696 1.384 . S
C694 H685 0.929 . S
C694 C686 1.378 . S
C694 C689 1.350 . S
C695 H682 0.929 . S
C695 C687 1.433 . S
C695 N697 1.384 . S
N696 C692 1.427 . S
N696 C693 1.384 . S
N697 C689 1.427 . S
N697 C695 1.384 . S
H698 C704 0.930 . S
H699 C708 0.930 . S
H700 C713 0.929 . S
H701 C711 0.929 . S
H702 C706 0.929 . S
H703 C712 0.929 . S
C704 H698 0.930 . S
C704 C705 1.367 . S
C704 C712 1.378 . S
C705 C704 1.367 . S
C705 C713 1.433 . S
C706 H702 0.929 . S
C706 C708 1.378 . S
C706 C710 1.350 . S
C707 C710 1.463 . S
C707 C712 1.350 . S
C707 N715 1.427 . S
C708 H699 0.930 . S
C708 C706 1.378 . S
C708 C709 1.367 . S
C709 C708 1.367 . S
C709 C711 1.433 . S
C710 C706 1.350 . S
C710 C707 1.463 . S
C710 N714 1.427 . S
C711 H701 0.929 . S
C711 C709 1.433 . S
C711 N714 1.384 . S
C712 H703 0.929 . S
C712 C704 1.378 . S
C712 C707 1.350 . S
C713 H700 0.929 . S
C713 C705 1.433 . S
C713 N715 1.384 . S
N714 C710 1.427 . S
N714 C711 1.384 . S
N715 C707 1.427 . S
N715 C713 1.384 . S
H716 C722 0.930 . S
H717 C726 0.930 . S
H718 C731 0.929 . S
H719 C729 0.929 . S
H720 C724 0.929 . S
H721 C730 0.929 . S
C722 H716 0.930 . S
C722 C723 1.367 . S
C722 C730 1.378 . S
C723 C722 1.367 . S
C723 C731 1.433 . S
C724 H720 0.929 . S
C724 C726 1.378 . S
C724 C728 1.350 . S
C725 C728 1.463 . S
C725 C730 1.350 . S
C725 N733 1.427 . S
C726 H717 0.930 . S
C726 C724 1.378 . S
C726 C727 1.367 . S
C727 C726 1.367 . S
C727 C729 1.433 . S
C728 C724 1.350 . S
C728 C725 1.463 . S
C728 N732 1.427 . S
C729 H719 0.929 . S
C729 C727 1.433 . S
C729 N732 1.384 . S
C730 H721 0.929 . S
C730 C722 1.378 . S
C730 C725 1.350 . S
C731 H718 0.929 . S
C731 C723 1.433 . S
C731 N733 1.384 . S
N732 C728 1.427 . S
N732 C729 1.384 . S
N733 C725 1.427 . S
N733 C731 1.384 . S
H734 C740 0.930 . S
H735 C744 0.930 . S
H736 C749 0.929 . S
H737 C747 0.929 . S
H738 C742 0.929 . S
H739 C748 0.929 . S
C740 H734 0.930 . S
C740 C741 1.367 . S
C740 C748 1.378 . S
C741 C740 1.367 . S
C741 C749 1.433 . S
C742 H738 0.929 . S
C742 C744 1.378 . S
C742 C746 1.350 . S
C743 C746 1.463 . S
C743 C748 1.350 . S
C743 N751 1.427 . S
C744 H735 0.930 . S
C744 C742 1.378 . S
C744 C745 1.367 . S
C745 C744 1.367 . S
C745 C747 1.433 . S
C746 C742 1.350 . S
C746 C743 1.463 . S
C746 N750 1.427 . S
C747 H737 0.929 . S
C747 C745 1.433 . S
C747 N750 1.384 . S
C748 H739 0.929 . S
C748 C740 1.378 . S
C748 C743 1.350 . S
C749 H736 0.929 . S
C749 C741 1.433 . S
C749 N751 1.384 . S
N750 C746 1.427 . S
N750 C747 1.384 . S
N751 C743 1.427 . S
N751 C749 1.384 . S
H752 C758 0.930 . S
H753 C762 0.930 . S
H754 C767 0.929 . S
H755 C765 0.929 . S
H756 C760 0.929 . S
H757 C766 0.929 . S
C758 H752 0.930 . S
C758 C759 1.367 . S
C758 C766 1.378 . S
C759 C758 1.367 . S
C759 C767 1.433 . S
C760 H756 0.929 . S
C760 C762 1.378 . S
C760 C764 1.350 . S
C761 C764 1.463 . S
C761 C766 1.350 . S
C761 N769 1.427 . S
C762 H753 0.930 . S
C762 C760 1.378 . S
C762 C763 1.367 . S
C763 C762 1.367 . S
C763 C765 1.433 . S
C764 C760 1.350 . S
C764 C761 1.463 . S
C764 N768 1.427 . S
C765 H755 0.929 . S
C765 C763 1.433 . S
C765 N768 1.384 . S
C766 H757 0.929 . S
C766 C758 1.378 . S
C766 C761 1.350 . S
C767 H754 0.929 . S
C767 C759 1.433 . S
C767 N769 1.384 . S
N768 C764 1.427 . S
N768 C765 1.384 . S
N769 C761 1.427 . S
N769 C767 1.384 . S
H770 C776 0.930 . S
H771 C780 0.930 . S
H772 C785 0.929 . S
H773 C783 0.929 . S
H774 C778 0.929 . S
H775 C784 0.929 . S
C776 H770 0.930 . S
C776 C777 1.367 . S
C776 C784 1.378 . S
C777 C776 1.367 . S
C777 C785 1.433 . S
C778 H774 0.929 . S
C778 C780 1.378 . S
C778 C782 1.350 . S
C779 C782 1.463 . S
C779 C784 1.350 . S
C779 N787 1.427 . S
C780 H771 0.930 . S
C780 C778 1.378 . S
C780 C781 1.367 . S
C781 C780 1.367 . S
C781 C783 1.433 . S
C782 C778 1.350 . S
C782 C779 1.463 . S
C782 N786 1.427 . S
C783 H773 0.929 . S
C783 C781 1.433 . S
C783 N786 1.384 . S
C784 H775 0.929 . S
C784 C776 1.378 . S
C784 C779 1.350 . S
C785 H772 0.929 . S
C785 C777 1.433 . S
C785 N787 1.384 . S
N786 C782 1.427 . S
N786 C783 1.384 . S
N787 C779 1.427 . S
N787 C785 1.384 . S
H788 C794 0.930 . S
H789 C798 0.930 . S
H790 C803 0.929 . S
H791 C801 0.929 . S
H792 C796 0.929 . S
H793 C802 0.929 . S
C794 H788 0.930 . S
C794 C795 1.367 . S
C794 C802 1.378 . S
C795 C794 1.367 . S
C795 C803 1.433 . S
C796 H792 0.929 . S
C796 C798 1.378 . S
C796 C800 1.350 . S
C797 C800 1.463 . S
C797 C802 1.350 . S
C797 N805 1.427 . S
C798 H789 0.930 . S
C798 C796 1.378 . S
C798 C799 1.367 . S
C799 C798 1.367 . S
C799 C801 1.433 . S
C800 C796 1.350 . S
C800 C797 1.463 . S
C800 N804 1.427 . S
C801 H791 0.929 . S
C801 C799 1.433 . S
C801 N804 1.384 . S
C802 H793 0.929 . S
C802 C794 1.378 . S
C802 C797 1.350 . S
C803 H790 0.929 . S
C803 C795 1.433 . S
C803 N805 1.384 . S
N804 C800 1.427 . S
N804 C801 1.384 . S
N805 C797 1.427 . S
N805 C803 1.384 . S
H806 C812 0.930 . S
H807 C816 0.930 . S
H808 C821 0.929 . S
H809 C819 0.929 . S
H810 C814 0.929 . S
H811 C820 0.929 . S
C812 H806 0.930 . S
C812 C813 1.367 . S
C812 C820 1.378 . S
C813 C812 1.367 . S
C813 C821 1.433 . S
C814 H810 0.929 . S
C814 C816 1.378 . S
C814 C818 1.350 . S
C815 C818 1.463 . S
C815 C820 1.350 . S
C815 N823 1.427 . S
C816 H807 0.930 . S
C816 C814 1.378 . S
C816 C817 1.367 . S
C817 C816 1.367 . S
C817 C819 1.433 . S
C818 C814 1.350 . S
C818 C815 1.463 . S
C818 N822 1.427 . S
C819 H809 0.929 . S
C819 C817 1.433 . S
C819 N822 1.384 . S
C820 H811 0.929 . S
C820 C812 1.378 . S
C820 C815 1.350 . S
C821 H808 0.929 . S
C821 C813 1.433 . S
C821 N823 1.384 . S
N822 C818 1.427 . S
N822 C819 1.384 . S
N823 C815 1.427 . S
N823 C821 1.384 . S
C399 C1 1.522 . S
C403 C331 1.492 . S
C417 C40 1.303 . S
C421 C334 1.247 . S
C439 C370 1.759 . S
C435 C99 1.774 . S
C453 C118 1.662 . S
C457 C390 1.638 . S
C475 C344 1.698 . S
C471 C16 1.736 . S
C493 C321 1.506 . S
C489 C60 1.535 . S
C511 C374 1.562 . S
C507 C79 1.683 . S
C529 C354 1.385 . S
C525 C138 1.461 . S
C543 C21 1.366 . S
C547 C384 1.320 . S
C565 C350 1.623 . S
C561 C94 1.646 . S
C579 C133 1.644 . S
C583 C316 1.592 . S
C597 C55 1.340 . S
C601 C364 1.307 . S
C619 C330 1.504 . S
C615 C157 1.535 . S
C633 C196 1.304 . S
C637 C336 1.256 . S
C651 C255 1.776 . S
C655 C371 1.753 . S
C669 C289 1.660 . S
C673 C391 1.636 . S
C687 C172 1.735 . S
C691 C341 1.705 . S
C709 C324 1.509 . S
C705 C216 1.536 . S
C727 C376 1.568 . S
C723 C235 1.688 . S
C745 C356 1.362 . S
C741 C294 1.459 . S
C759 C177 1.374 . S
C763 C381 1.313 . S
C781 C351 1.628 . S
C777 C250 1.647 . S
C799 C314 1.589 . S
C795 C274 1.644 . S
C813 C211 1.336 . S
C817 C361 1.304 . S
