# Generated by pormake.
# Topology ptr, (4,4)-cn, num edge types: 1
# Building blocks:
#     Node 0, Type 0, BuildingBlock: CEKHIL_clean_sbu_0, # of connection points: 4
#     Node 1, Type 0, BuildingBlock: CEKHIL_clean_sbu_0, # of connection points: 4
#     Node 2, Type 0, BuildingBlock: CEKHIL_clean_sbu_0, # of connection points: 4
#     Node 3, Type 0, BuildingBlock: CEKHIL_clean_sbu_0, # of connection points: 4
#     Node 4, Type 0, BuildingBlock: CEKHIL_clean_sbu_0, # of connection points: 4
#     Node 5, Type 0, BuildingBlock: CEKHIL_clean_sbu_0, # of connection points: 4
#     Node 6, Type 0, BuildingBlock: CEKHIL_clean_sbu_0, # of connection points: 4
#     Node 7, Type 0, BuildingBlock: CEKHIL_clean_sbu_0, # of connection points: 4
#     Node 8, Type 0, BuildingBlock: CEKHIL_clean_sbu_0, # of connection points: 4
#     Node 9, Type 0, BuildingBlock: CEKHIL_clean_sbu_0, # of connection points: 4
#     Node 10, Type 0, BuildingBlock: CEKHIL_clean_sbu_0, # of connection points: 4
#     Node 11, Type 0, BuildingBlock: CEKHIL_clean_sbu_0, # of connection points: 4
#     Node 12, Type 0, BuildingBlock: CEKHIL_clean_sbu_0, # of connection points: 4
#     Node 13, Type 0, BuildingBlock: CEKHIL_clean_sbu_0, # of connection points: 4
#     Node 14, Type 0, BuildingBlock: CEKHIL_clean_sbu_0, # of connection points: 4
#     Node 15, Type 0, BuildingBlock: CEKHIL_clean_sbu_0, # of connection points: 4
#     Node 16, Type 0, BuildingBlock: CEKHIL_clean_sbu_0, # of connection points: 4
#     Node 17, Type 0, BuildingBlock: CEKHIL_clean_sbu_0, # of connection points: 4
#     Node 18, Type 1, BuildingBlock: MIFKUJ_clean_linker_1, # of connection points: 4
#     Node 19, Type 1, BuildingBlock: MIFKUJ_clean_linker_1, # of connection points: 4
#     Node 20, Type 1, BuildingBlock: MIFKUJ_clean_linker_1, # of connection points: 4
#     Node 21, Type 1, BuildingBlock: MIFKUJ_clean_linker_1, # of connection points: 4
#     Node 22, Type 1, BuildingBlock: MIFKUJ_clean_linker_1, # of connection points: 4
#     Node 23, Type 1, BuildingBlock: MIFKUJ_clean_linker_1, # of connection points: 4
#     Node 24, Type 1, BuildingBlock: MIFKUJ_clean_linker_1, # of connection points: 4
#     Node 25, Type 1, BuildingBlock: MIFKUJ_clean_linker_1, # of connection points: 4
#     Node 26, Type 1, BuildingBlock: MIFKUJ_clean_linker_1, # of connection points: 4
#     Node 27, Type 1, BuildingBlock: MIFKUJ_clean_linker_1, # of connection points: 4
#     Node 28, Type 1, BuildingBlock: MIFKUJ_clean_linker_1, # of connection points: 4
#     Node 29, Type 1, BuildingBlock: MIFKUJ_clean_linker_1, # of connection points: 4
#     Node 30, Type 1, BuildingBlock: MIFKUJ_clean_linker_1, # of connection points: 4
#     Node 31, Type 1, BuildingBlock: MIFKUJ_clean_linker_1, # of connection points: 4
#     Node 32, Type 1, BuildingBlock: MIFKUJ_clean_linker_1, # of connection points: 4
#     Node 33, Type 1, BuildingBlock: MIFKUJ_clean_linker_1, # of connection points: 4
#     Node 34, Type 1, BuildingBlock: MIFKUJ_clean_linker_1, # of connection points: 4
#     Node 35, Type 1, BuildingBlock: MIFKUJ_clean_linker_1, # of connection points: 4
#     Edge 36, Type (0, 1), BuildingBlock: MIFKUJ_clean_linker_0, # of connection points: 2
#     Edge 37, Type (0, 1), BuildingBlock: MIFKUJ_clean_linker_0, # of connection points: 2
#     Edge 38, Type (0, 1), BuildingBlock: MIFKUJ_clean_linker_0, # of connection points: 2
#     Edge 39, Type (0, 1), BuildingBlock: MIFKUJ_clean_linker_0, # of connection points: 2
#     Edge 40, Type (0, 1), BuildingBlock: MIFKUJ_clean_linker_0, # of connection points: 2
#     Edge 41, Type (0, 1), BuildingBlock: MIFKUJ_clean_linker_0, # of connection points: 2
#     Edge 42, Type (0, 1), BuildingBlock: MIFKUJ_clean_linker_0, # of connection points: 2
#     Edge 43, Type (0, 1), BuildingBlock: MIFKUJ_clean_linker_0, # of connection points: 2
#     Edge 44, Type (0, 1), BuildingBlock: MIFKUJ_clean_linker_0, # of connection points: 2
#     Edge 45, Type (0, 1), BuildingBlock: MIFKUJ_clean_linker_0, # of connection points: 2
#     Edge 46, Type (0, 1), BuildingBlock: MIFKUJ_clean_linker_0, # of connection points: 2
#     Edge 47, Type (0, 1), BuildingBlock: MIFKUJ_clean_linker_0, # of connection points: 2
#     Edge 48, Type (0, 1), BuildingBlock: MIFKUJ_clean_linker_0, # of connection points: 2
#     Edge 49, Type (0, 1), BuildingBlock: MIFKUJ_clean_linker_0, # of connection points: 2
#     Edge 50, Type (0, 1), BuildingBlock: MIFKUJ_clean_linker_0, # of connection points: 2
#     Edge 51, Type (0, 1), BuildingBlock: MIFKUJ_clean_linker_0, # of connection points: 2
#     Edge 52, Type (0, 1), BuildingBlock: MIFKUJ_clean_linker_0, # of connection points: 2
#     Edge 53, Type (0, 1), BuildingBlock: MIFKUJ_clean_linker_0, # of connection points: 2
#     Edge 54, Type (0, 1), BuildingBlock: MIFKUJ_clean_linker_0, # of connection points: 2
#     Edge 55, Type (0, 1), BuildingBlock: MIFKUJ_clean_linker_0, # of connection points: 2
#     Edge 56, Type (0, 1), BuildingBlock: MIFKUJ_clean_linker_0, # of connection points: 2
#     Edge 57, Type (0, 1), BuildingBlock: MIFKUJ_clean_linker_0, # of connection points: 2
#     Edge 58, Type (0, 1), BuildingBlock: MIFKUJ_clean_linker_0, # of connection points: 2
#     Edge 59, Type (0, 1), BuildingBlock: MIFKUJ_clean_linker_0, # of connection points: 2
#     Edge 60, Type (0, 1), BuildingBlock: MIFKUJ_clean_linker_0, # of connection points: 2
#     Edge 61, Type (0, 1), BuildingBlock: MIFKUJ_clean_linker_0, # of connection points: 2
#     Edge 62, Type (0, 1), BuildingBlock: MIFKUJ_clean_linker_0, # of connection points: 2
#     Edge 63, Type (0, 1), BuildingBlock: MIFKUJ_clean_linker_0, # of connection points: 2
#     Edge 64, Type (0, 1), BuildingBlock: MIFKUJ_clean_linker_0, # of connection points: 2
#     Edge 65, Type (0, 1), BuildingBlock: MIFKUJ_clean_linker_0, # of connection points: 2
#     Edge 66, Type (0, 1), BuildingBlock: MIFKUJ_clean_linker_0, # of connection points: 2
#     Edge 67, Type (0, 1), BuildingBlock: MIFKUJ_clean_linker_0, # of connection points: 2
#     Edge 68, Type (0, 1), BuildingBlock: MIFKUJ_clean_linker_0, # of connection points: 2
#     Edge 69, Type (0, 1), BuildingBlock: MIFKUJ_clean_linker_0, # of connection points: 2
#     Edge 70, Type (0, 1), BuildingBlock: MIFKUJ_clean_linker_0, # of connection points: 2
#     Edge 71, Type (0, 1), BuildingBlock: MIFKUJ_clean_linker_0, # of connection points: 2
#     Edge 72, Type (0, 1), BuildingBlock: MIFKUJ_clean_linker_0, # of connection points: 2
#     Edge 73, Type (0, 1), BuildingBlock: MIFKUJ_clean_linker_0, # of connection points: 2
#     Edge 74, Type (0, 1), BuildingBlock: MIFKUJ_clean_linker_0, # of connection points: 2
#     Edge 75, Type (0, 1), BuildingBlock: MIFKUJ_clean_linker_0, # of connection points: 2
#     Edge 76, Type (0, 1), BuildingBlock: MIFKUJ_clean_linker_0, # of connection points: 2
#     Edge 77, Type (0, 1), BuildingBlock: MIFKUJ_clean_linker_0, # of connection points: 2
#     Edge 78, Type (0, 1), BuildingBlock: MIFKUJ_clean_linker_0, # of connection points: 2
#     Edge 79, Type (0, 1), BuildingBlock: MIFKUJ_clean_linker_0, # of connection points: 2
#     Edge 80, Type (0, 1), BuildingBlock: MIFKUJ_clean_linker_0, # of connection points: 2
#     Edge 81, Type (0, 1), BuildingBlock: MIFKUJ_clean_linker_0, # of connection points: 2
#     Edge 82, Type (0, 1), BuildingBlock: MIFKUJ_clean_linker_0, # of connection points: 2
#     Edge 83, Type (0, 1), BuildingBlock: MIFKUJ_clean_linker_0, # of connection points: 2
#     Edge 84, Type (0, 1), BuildingBlock: MIFKUJ_clean_linker_0, # of connection points: 2
#     Edge 85, Type (0, 1), BuildingBlock: MIFKUJ_clean_linker_0, # of connection points: 2
#     Edge 86, Type (0, 1), BuildingBlock: MIFKUJ_clean_linker_0, # of connection points: 2
#     Edge 87, Type (0, 1), BuildingBlock: MIFKUJ_clean_linker_0, # of connection points: 2
#     Edge 88, Type (0, 1), BuildingBlock: MIFKUJ_clean_linker_0, # of connection points: 2
#     Edge 89, Type (0, 1), BuildingBlock: MIFKUJ_clean_linker_0, # of connection points: 2
#     Edge 90, Type (0, 1), BuildingBlock: MIFKUJ_clean_linker_0, # of connection points: 2
#     Edge 91, Type (0, 1), BuildingBlock: MIFKUJ_clean_linker_0, # of connection points: 2
#     Edge 92, Type (0, 1), BuildingBlock: MIFKUJ_clean_linker_0, # of connection points: 2
#     Edge 93, Type (0, 1), BuildingBlock: MIFKUJ_clean_linker_0, # of connection points: 2
#     Edge 94, Type (0, 1), BuildingBlock: MIFKUJ_clean_linker_0, # of connection points: 2
#     Edge 95, Type (0, 1), BuildingBlock: MIFKUJ_clean_linker_0, # of connection points: 2
#     Edge 96, Type (0, 1), BuildingBlock: MIFKUJ_clean_linker_0, # of connection points: 2
#     Edge 97, Type (0, 1), BuildingBlock: MIFKUJ_clean_linker_0, # of connection points: 2
#     Edge 98, Type (0, 1), BuildingBlock: MIFKUJ_clean_linker_0, # of connection points: 2
#     Edge 99, Type (0, 1), BuildingBlock: MIFKUJ_clean_linker_0, # of connection points: 2
#     Edge 100, Type (0, 1), BuildingBlock: MIFKUJ_clean_linker_0, # of connection points: 2
#     Edge 101, Type (0, 1), BuildingBlock: MIFKUJ_clean_linker_0, # of connection points: 2
#     Edge 102, Type (0, 1), BuildingBlock: MIFKUJ_clean_linker_0, # of connection points: 2
#     Edge 103, Type (0, 1), BuildingBlock: MIFKUJ_clean_linker_0, # of connection points: 2
#     Edge 104, Type (0, 1), BuildingBlock: MIFKUJ_clean_linker_0, # of connection points: 2
#     Edge 105, Type (0, 1), BuildingBlock: MIFKUJ_clean_linker_0, # of connection points: 2
#     Edge 106, Type (0, 1), BuildingBlock: MIFKUJ_clean_linker_0, # of connection points: 2
#     Edge 107, Type (0, 1), BuildingBlock: MIFKUJ_clean_linker_0, # of connection points: 2
# Relax obj value: 0.037
# Max RMSD: 0.118
# Mean RMSD: 0.059
data_MOF--net-ptr--node1-CEKHIL_clean_sbu_0--node2-MIFKUJ_clean_linker_1--edge1-MIFKUJ_clean_linker_0
_symmetry_space_group_name_H-M    P1
_symmetry_Int_Tables_number       1
_symmetry_cell_setting            triclinic
loop_
_symmetry_equiv_pos_as_xyz
'x, y, z'
_cell_length_a     112.17956
_cell_length_b     111.00842
_cell_length_c     77.747248
_cell_angle_alpha  90.849498
_cell_angle_beta   89.505665
_cell_angle_gamma 120.89528
loop_
_atom_site_label
_atom_site_type_symbol
_atom_site_fract_x
_atom_site_fract_y
_atom_site_fract_z
_atom_type_partial_charge
Co0 Co 0.00577 0.34581 0.0117 0.0
O1 O 0.01126 0.33668 0.02788 0.0
O2 O 0.02578 0.35657 0.01486 0.0
C3 C 0.99138 0.3263 0.99636 0.0
O4 O 0.00379 0.35794 0.99375 0.0
Co5 Co 0.97488 0.3378 0.00997 0.0
O6 O 0.98104 0.34907 0.98867 0.0
C7 C 0.99254 0.35577 0.03842 0.0
C8 C 0.02394 0.34684 0.02555 0.0
C9 C 0.9938 0.35759 0.98522 0.0
O10 O 0.00327 0.35668 0.03099 0.0
O11 O 0.98014 0.34781 0.03284 0.0
O12 O 0.00467 0.33301 0.99338 0.0
O13 O 0.98751 0.33083 0.00936 0.0
Co14 Co 0.65919 0.65824 0.01137 0.0
O15 O 0.67281 0.66743 0.99362 0.0
O16 O 0.66862 0.64801 0.00664 0.0
C17 C 0.66501 0.6778 0.02686 0.0
O18 O 0.64629 0.64614 0.03063 0.0
Co19 Co 0.63602 0.66539 0.017 0.0
O20 O 0.63238 0.65438 0.0383 0.0
C21 C 0.63467 0.64801 0.98717 0.0
C22 C 0.67579 0.65767 0.99535 0.0
C23 C 0.6371 0.64624 0.0406 0.0
O24 O 0.64462 0.64687 0.99344 0.0
O25 O 0.63066 0.65599 0.99377 0.0
O26 O 0.67198 0.67148 0.02861 0.0
O27 O 0.65574 0.67285 0.01489 0.0
Co28 Co 0.34595 0.00442 0.01183 0.0
O29 O 0.33669 0.00865 0.99428 0.0
O30 O 0.35586 0.02443 0.00773 0.0
C31 C 0.32665 0.99003 0.02701 0.0
O32 O 0.35818 0.00408 0.03092 0.0
Co33 Co 0.33967 0.97403 0.01676 0.0
O34 O 0.34973 0.98171 0.03879 0.0
C35 C 0.35746 0.9908 0.98784 0.0
C36 C 0.3463 0.02172 0.9964 0.0
C37 C 0.35792 0.99486 0.04106 0.0
O38 O 0.3573 0.00163 0.99369 0.0
O39 O 0.35037 0.97862 0.99455 0.0
O40 O 0.33278 0.00355 0.02908 0.0
O41 O 0.33163 0.98576 0.01492 0.0
Co42 Co 0.99646 0.65831 0.01163 0.0
O43 O 0.99013 0.66651 0.9952 0.0
O44 O 0.97635 0.64731 0.01006 0.0
C45 C 0.0113 0.67843 0.02555 0.0
O46 O 0.99949 0.64707 0.02986 0.0
Co47 Co 0.02752 0.66679 0.01117 0.0
O48 O 0.02245 0.65574 0.03261 0.0
C49 C 0.00864 0.64771 0.98434 0.0
C50 C 0.97767 0.65638 0.99865 0.0
C51 C 0.00992 0.64745 0.03728 0.0
O52 O 0.99824 0.64674 0.99268 0.0
O53 O 0.02129 0.65613 0.98875 0.0
O54 O 0.99816 0.67173 0.02938 0.0
O55 O 0.01473 0.67355 0.01247 0.0
Co56 Co 0.34484 0.34673 0.01024 0.0
O57 O 0.33201 0.33793 0.02893 0.0
O58 O 0.33573 0.3571 0.01564 0.0
C59 C 0.33835 0.32695 0.99489 0.0
O60 O 0.35684 0.35859 0.99021 0.0
Co61 Co 0.36784 0.33971 0.0022 0.0
O62 O 0.37039 0.35036 0.98092 0.0
C63 C 0.3712 0.35835 0.03164 0.0
C64 C 0.32905 0.34773 0.02736 0.0
C65 C 0.3656 0.35851 0.97943 0.0
O66 O 0.36017 0.35836 0.02723 0.0
O67 O 0.37542 0.35093 0.02399 0.0
O68 O 0.33125 0.33319 0.99393 0.0
O69 O 0.34822 0.33208 0.00612 0.0
Co70 Co 0.65824 1.00056 0.01041 0.0
O71 O 0.66764 0.99674 0.02822 0.0
O72 O 0.64838 0.98067 0.01523 0.0
C73 C 0.67752 0.01467 0.99499 0.0
O74 O 0.64578 1.00031 0.99121 0.0
Co75 Co 0.66428 0.0306 0.0034 0.0
O76 O 0.65471 0.02221 0.98127 0.0
C77 C 0.64617 0.01458 0.03266 0.0
C78 C 0.65804 0.98362 0.02651 0.0
C79 C 0.64632 0.00903 0.98006 0.0
O80 O 0.64696 0.00378 0.02825 0.0
O81 O 0.6528 0.02637 0.02493 0.0
O82 O 0.67135 0.00111 0.99326 0.0
O83 O 0.6725 0.01917 0.00673 0.0
Co84 Co 0.67425 0.68194 0.34205 0.0
O85 O 0.67733 0.67244 0.36051 0.0
O86 O 0.69382 0.69135 0.34742 0.0
C87 C 0.65993 0.66244 0.32664 0.0
O88 O 0.67534 0.69445 0.32234 0.0
Co89 Co 0.64502 0.67697 0.33376 0.0
O90 O 0.65392 0.68693 0.31218 0.0
C91 C 0.66081 0.69497 0.36348 0.0
C92 C 0.69044 0.68178 0.35899 0.0
C93 C 0.66708 0.69474 0.31116 0.0
O94 O 0.67142 0.69402 0.35929 0.0
O95 O 0.64917 0.68839 0.35553 0.0
O96 O 0.67331 0.66804 0.3255 0.0
O97 O 0.65569 0.66807 0.3379 0.0
Co98 Co 0.32548 0.98994 0.34656 0.0
O99 O 0.33896 0.99768 0.32828 0.0
O100 O 0.33338 0.97826 0.34234 0.0
C101 C 0.33293 0.01032 0.36107 0.0
O102 O 0.31263 0.97897 0.36643 0.0
Co103 Co 0.30391 0.99916 0.35281 0.0
O104 O 0.29972 0.98829 0.3743 0.0
C105 C 0.30028 0.98024 0.32358 0.0
C106 C 0.34085 0.9872 0.33052 0.0
C107 C 0.30386 0.97967 0.37657 0.0
O108 O 0.31027 0.97884 0.32921 0.0
O109 O 0.297 0.98871 0.3304 0.0
O110 O 0.33912 0.00324 0.36311 0.0
O111 O 0.32335 0.00549 0.34948 0.0
Co112 Co 0.01382 0.33823 0.34476 0.0
O113 O 0.00513 0.344 0.32824 0.0
O114 O 0.02518 0.35828 0.34112 0.0
C115 C 0.99437 0.32464 0.36017 0.0
O116 O 0.02565 0.33627 0.36305 0.0
Co117 Co 0.00493 0.30689 0.34815 0.0
O118 O 0.01679 0.31347 0.369 0.0
C119 C 0.02247 0.3232 0.3189 0.0
C120 C 0.01561 0.35666 0.33039 0.0
C121 C 0.02539 0.32644 0.37196 0.0
O122 O 0.02398 0.33455 0.32573 0.0
O123 O 0.01435 0.31101 0.32512 0.0
O124 O 1.00154 0.33813 0.36289 0.0
O125 O 0.99852 0.32007 0.3475 0.0
Co126 Co 0.66386 0.98964 0.34591 0.0
O127 O 0.6585 0.99793 0.32831 0.0
O128 O 0.64405 0.9783 0.3419 0.0
C129 C 0.67736 0.00974 0.36078 0.0
O130 O 0.66538 0.97808 0.36505 0.0
Co131 Co 0.69474 0.99843 0.35117 0.0
O132 O 0.68776 0.98709 0.3723 0.0
C133 C 0.67879 0.97961 0.32215 0.0
C134 C 0.64591 0.98751 0.33041 0.0
C135 C 0.67486 0.97844 0.37468 0.0
O136 O 0.66755 0.97876 0.32776 0.0
O137 O 0.69071 0.98755 0.32903 0.0
O138 O 0.66399 0.00274 0.36319 0.0
O139 O 0.68188 0.00499 0.34875 0.0
Co140 Co 0.01267 0.68109 0.34472 0.0
O141 O 0.99866 0.67203 0.36217 0.0
O142 O 0.0034 0.69152 0.34882 0.0
C143 C 0.00696 0.66156 0.32936 0.0
O144 O 0.02594 0.69326 0.32577 0.0
Co145 Co 0.0358 0.67393 0.33929 0.0
O146 O 0.04017 0.68539 0.31832 0.0
C147 C 0.03774 0.69229 0.36841 0.0
C148 C 0.996 0.68199 0.36011 0.0
C149 C 0.03543 0.69351 0.31608 0.0
O150 O 0.0269 0.69229 0.36308 0.0
O151 O 0.04237 0.68502 0.3613 0.0
O152 O 1.00023 0.66805 0.32711 0.0
O153 O 0.01602 0.6663 0.34157 0.0
Co154 Co 0.3248 0.3337 0.34239 0.0
O155 O 0.33507 0.33137 0.36048 0.0
O156 O 0.31547 0.31427 0.34921 0.0
C157 C 0.34343 0.34708 0.32565 0.0
O158 O 0.31153 0.33171 0.32318 0.0
Co159 Co 0.32959 0.36272 0.33193 0.0
O160 O 0.32 0.35261 0.31048 0.0
C161 C 0.31274 0.34861 0.36282 0.0
C162 C 0.32562 0.31812 0.36002 0.0
C163 C 0.31172 0.33939 0.3108 0.0
O164 O 0.31389 0.3378 0.35985 0.0
O165 O 0.31861 0.35969 0.35364 0.0
O166 O 0.33761 0.3335 0.32534 0.0
O167 O 0.33847 0.35212 0.33677 0.0
Co168 Co 0.34082 0.01528 0.67516 0.0
O169 O 0.34554 0.00664 0.69309 0.0
O170 O 0.36053 0.02621 0.67974 0.0
C171 C 0.32731 0.99544 0.65984 0.0
O172 O 0.3401 0.02718 0.65591 0.0
Co173 Co 0.31035 0.00745 0.66869 0.0
O174 O 0.31804 0.01856 0.64744 0.0
C175 C 0.32574 0.02515 0.69874 0.0
C176 C 0.35828 0.01687 0.69122 0.0
C177 C 0.33105 0.02702 0.64568 0.0
O178 O 0.33708 0.02632 0.69298 0.0
O179 O 0.31389 0.0172 0.69167 0.0
O180 O 0.34074 0.00207 0.65811 0.0
O181 O 0.32269 1.0003 0.67161 0.0
Co182 Co 0.9927 0.32431 0.67585 0.0
O183 O 0.00739 0.33458 0.6596 0.0
O184 O 0.00316 0.31502 0.67227 0.0
C185 C 0.99626 0.34302 0.69167 0.0
O186 O 0.9789 0.31125 0.69378 0.0
Co187 Co 0.96792 0.32944 0.67813 0.0
O188 O 0.96269 0.31712 0.6985 0.0
C189 C 0.9704 0.31419 0.64851 0.0
C190 C 0.01076 0.32513 0.6617 0.0
C191 C 0.96825 0.3099 0.70198 0.0
O192 O 0.97966 0.31291 0.65655 0.0
O193 O 0.96557 0.32175 0.65405 0.0
O194 O 0.00388 0.3375 0.69419 0.0
O195 O 0.98788 0.33799 0.67876 0.0
Co196 Co 0.67868 0.66886 0.67563 0.0
O197 O 0.66855 0.67312 0.65942 0.0
O198 O 0.68872 0.68882 0.67096 0.0
C199 C 0.66018 0.6549 0.69232 0.0
O200 O 0.69181 0.66851 0.69342 0.0
Co201 Co 0.67186 0.63818 0.67991 0.0
O202 O 0.68514 0.64611 0.69931 0.0
C203 C 0.68794 0.65431 0.64975 0.0
C204 C 0.67847 0.68613 0.66078 0.0
C205 C 0.69296 0.65927 0.70192 0.0
O206 O 0.68875 0.66548 0.65617 0.0
O207 O 0.68072 0.64221 0.65658 0.0
O208 O 0.66668 0.66846 0.69433 0.0
O209 O 0.66431 0.6504 0.67955 0.0
Co210 Co 0.33257 0.32398 0.67766 0.0
O211 O 0.32916 0.33384 0.66005 0.0
O212 O 0.31307 0.31387 0.67158 0.0
C213 C 0.34582 0.34318 0.69413 0.0
O214 O 0.33197 0.31105 0.69654 0.0
Co215 Co 0.36231 0.33056 0.68629 0.0
O216 O 0.35338 0.32025 0.70769 0.0
C217 C 0.34771 0.31313 0.65562 0.0
C218 C 0.3162 0.32397 0.66086 0.0
C219 C 0.34035 0.31151 0.70812 0.0
O220 O 0.33663 0.3133 0.65963 0.0
O221 O 0.35909 0.31989 0.66407 0.0
O222 O 0.33236 0.33671 0.6952 0.0
O223 O 0.35071 0.33845 0.68252 0.0
Co224 Co 0.67804 0.01381 0.6751 0.0
O225 O 0.66406 0.00497 0.69262 0.0
O226 O 0.66984 0.02511 0.68025 0.0
C227 C 0.67124 0.99421 0.65919 0.0
O228 O 0.69139 0.02585 0.65619 0.0
Co229 Co 0.70008 0.00531 0.66825 0.0
O230 O 0.70319 0.01575 0.64653 0.0
C231 C 0.70287 0.02298 0.69858 0.0
C232 C 0.6621 0.01547 0.69126 0.0
C233 C 0.69952 0.02482 0.64526 0.0
O234 O 0.69272 0.0242 0.69319 0.0
O235 O 0.70667 0.0151 0.69117 0.0
O236 O 0.66494 0.00123 0.65757 0.0
O237 O 0.68052 0.99862 0.67111 0.0
Co238 Co 0.98969 0.66588 0.6763 0.0
O239 O 0.99879 0.66117 0.69355 0.0
O240 O 0.97899 0.64595 0.68082 0.0
C241 C 0.00904 0.6796 0.66077 0.0
O242 O 0.97747 0.66657 0.6575 0.0
Co243 Co 0.9972 0.69659 0.67046 0.0
O244 O 0.98686 0.68881 0.64859 0.0
C245 C 0.97982 0.68094 0.70031 0.0
C246 C 0.98866 0.64828 0.69179 0.0
C247 C 0.97814 0.67572 0.64691 0.0
O248 O 0.97909 0.66961 0.69466 0.0
O249 O 0.98731 0.69289 0.69318 0.0
O250 O 0.00236 0.66603 0.65868 0.0
O251 O 0.00444 0.68422 0.67287 0.0
H252 H 0.156 0.34273 0.19582 0.0
H253 H 0.13747 0.34288 0.21228 0.0
H254 H 0.107 0.31106 0.17812 0.0
H255 H 0.12559 0.31047 0.16223 0.0
H256 H 0.16181 0.32269 0.19087 0.0
H257 H 0.15055 0.35028 0.15325 0.0
H258 H 0.1346 0.35434 0.13639 0.0
H259 H 0.12277 0.31671 0.10657 0.0
H260 H 0.13869 0.31268 0.12352 0.0
H261 H 0.17637 0.31333 0.12145 0.0
H262 H 0.19658 0.31626 0.10543 0.0
H263 H 0.22382 0.34701 0.14292 0.0
H264 H 0.20366 0.34448 0.15857 0.0
H265 H 0.16769 0.33042 0.12795 0.0
H266 H 0.18367 0.30627 0.16275 0.0
H267 H 0.20073 0.30379 0.17942 0.0
H268 H 0.20361 0.33487 0.21587 0.0
H269 H 0.18708 0.33782 0.19886 0.0
C270 C 0.14222 0.32668 0.1777 0.0
C271 C 0.14533 0.33575 0.19191 0.0
C272 C 0.13471 0.33594 0.20119 0.0
C273 C 0.12072 0.32706 0.19646 0.0
C274 C 0.11764 0.31796 0.1822 0.0
C275 C 0.12827 0.31772 0.17298 0.0
C276 C 0.15364 0.32656 0.16802 0.0
C277 C 0.16322 0.32453 0.17714 0.0
C278 C 0.15519 0.32849 0.15003 0.0
C279 C 0.14571 0.33111 0.13971 0.0
C280 C 0.14451 0.34291 0.14309 0.0
C281 C 0.13547 0.34526 0.13339 0.0
C282 C 0.12743 0.33582 0.12019 0.0
C283 C 0.12874 0.32408 0.11677 0.0
C284 C 0.13787 0.32181 0.12636 0.0
C285 C 0.18846 0.32851 0.14138 0.0
C286 C 0.18669 0.32075 0.12619 0.0
C287 C 0.19822 0.32242 0.11706 0.0
C288 C 0.21172 0.33179 0.12303 0.0
C289 C 0.21351 0.33957 0.13819 0.0
C290 C 0.20199 0.33808 0.14716 0.0
C291 C 0.17616 0.32692 0.15085 0.0
C292 C 0.16633 0.32851 0.14168 0.0
C293 C 0.17446 0.32463 0.16884 0.0
C294 C 0.18421 0.32241 0.17936 0.0
C295 C 0.18806 0.31266 0.17423 0.0
C296 C 0.19776 0.3112 0.18378 0.0
C297 C 0.20347 0.31915 0.19891 0.0
C298 C 0.19928 0.32854 0.20433 0.0
C299 C 0.18982 0.33021 0.19461 0.0
H300 H 0.70481 0.87711 0.18252 0.0
H301 H 0.70409 0.89576 0.19875 0.0
H302 H 0.66027 0.87631 0.18739 0.0
H303 H 0.6613 0.85812 0.17059 0.0
H304 H 0.68814 0.84735 0.18882 0.0
H305 H 0.69831 0.88029 0.14337 0.0
H306 H 0.69458 0.89666 0.12686 0.0
H307 H 0.65366 0.86278 0.11271 0.0
H308 H 0.65739 0.84647 0.12947 0.0
H309 H 0.65961 0.81002 0.13256 0.0
H310 H 0.65814 0.78952 0.1183 0.0
H311 H 0.70103 0.80488 0.13145 0.0
H312 H 0.70225 0.82512 0.14606 0.0
H313 H 0.67703 0.83866 0.12654 0.0
H314 H 0.66471 0.80694 0.17386 0.0
H315 H 0.66625 0.78974 0.19132 0.0
H316 H 0.70954 0.81998 0.20145 0.0
H317 H 0.70765 0.83734 0.18448 0.0
C318 C 0.68313 0.86631 0.17535 0.0
C319 C 0.6951 0.87697 0.18347 0.0
C320 C 0.69462 0.88756 0.19282 0.0
C321 C 0.68209 0.88753 0.19449 0.0
C322 C 0.67015 0.87684 0.18617 0.0
C323 C 0.67069 0.86637 0.17665 0.0
C324 C 0.68348 0.85484 0.16589 0.0
C325 C 0.68601 0.84561 0.17513 0.0
C326 C 0.68025 0.85236 0.14817 0.0
C327 C 0.67809 0.86218 0.13775 0.0
C328 C 0.68852 0.8764 0.13675 0.0
C329 C 0.68642 0.88571 0.1272 0.0
C330 C 0.67382 0.88101 0.11849 0.0
C331 C 0.66342 0.86674 0.11942 0.0
C332 C 0.66557 0.8574 0.12888 0.0
C333 C 0.68101 0.81903 0.14039 0.0
C334 C 0.66869 0.80896 0.1323 0.0
C335 C 0.66789 0.79727 0.12413 0.0
C336 C 0.67947 0.79554 0.12373 0.0
C337 C 0.69184 0.80574 0.13177 0.0
C338 C 0.69259 0.81737 0.14003 0.0
C339 C 0.68172 0.8312 0.14946 0.0
C340 C 0.67935 0.84052 0.14017 0.0
C341 C 0.68496 0.8337 0.16717 0.0
C342 C 0.68608 0.82338 0.17784 0.0
C343 C 0.67453 0.80984 0.17986 0.0
C344 C 0.67548 0.79998 0.18975 0.0
C345 C 0.68807 0.80337 0.19774 0.0
C346 C 0.69963 0.81701 0.1957 0.0
C347 C 0.69861 0.82694 0.18595 0.0
H348 H 0.12963 0.83705 0.1882 0.0
H349 H 0.11221 0.81807 0.20604 0.0
H350 H 0.12112 0.78882 0.18022 0.0
H351 H 0.13877 0.8079 0.16281 0.0
H352 H 0.15745 0.84656 0.18726 0.0
H353 H 0.1195 0.82659 0.146 0.0
H354 H 0.10099 0.80685 0.12982 0.0
H355 H 0.13132 0.79846 0.10697 0.0
H356 H 0.14974 0.81835 0.12291 0.0
H357 H 0.18453 0.85426 0.12087 0.0
H358 H 0.20441 0.87263 0.10516 0.0
H359 H 0.20145 0.90432 0.13449 0.0
H360 H 0.18122 0.88593 0.14979 0.0
H361 H 0.1588 0.84626 0.12349 0.0
H362 H 0.19658 0.86494 0.16304 0.0
H363 H 0.21578 0.88232 0.18073 0.0
H364 H 0.18717 0.89026 0.20924 0.0
H365 H 0.16824 0.87356 0.1908 0.0
C366 C 0.13543 0.82388 0.1741 0.0
C367 C 0.12775 0.82652 0.18633 0.0
C368 C 0.11772 0.81565 0.19641 0.0
C369 C 0.11528 0.80194 0.19455 0.0
C370 C 0.12284 0.79929 0.18208 0.0
C371 C 0.13284 0.81016 0.172 0.0
C372 C 0.14668 0.83559 0.16419 0.0
C373 C 0.15764 0.84669 0.17331 0.0
C374 C 0.14716 0.83541 0.14602 0.0
C375 C 0.13597 0.82388 0.13571 0.0
C376 C 0.12213 0.8205 0.13746 0.0
C377 C 0.11157 0.80918 0.12826 0.0
C378 C 0.11466 0.80104 0.11712 0.0
C379 C 0.12859 0.80462 0.11522 0.0
C380 C 0.13913 0.81596 0.12436 0.0
C381 C 0.18145 0.86867 0.13669 0.0
C382 C 0.18802 0.86515 0.12379 0.0
C383 C 0.19939 0.87564 0.11483 0.0
C384 C 0.20448 0.88987 0.11869 0.0
C385 C 0.19781 0.89342 0.13142 0.0
C386 C 0.18629 0.88292 0.14019 0.0
C387 C 0.16965 0.8574 0.14656 0.0
C388 C 0.15859 0.84633 0.13744 0.0
C389 C 0.16923 0.85746 0.16479 0.0
C390 C 0.18099 0.8681 0.1754 0.0
C391 C 0.1945 0.87063 0.17289 0.0
C392 C 0.20545 0.88045 0.18318 0.0
C393 C 0.20307 0.88775 0.19642 0.0
C394 C 0.18948 0.88508 0.19896 0.0
C395 C 0.17859 0.8754 0.18854 0.0
H396 H 0.29955 0.16815 0.83277 0.0
H397 H 0.29887 0.18595 0.81532 0.0
H398 H 0.33944 0.21714 0.8345 0.0
H399 H 0.3398 0.19938 0.85225 0.0
H400 H 0.31868 0.15923 0.83267 0.0
H401 H 0.30257 0.18187 0.87047 0.0
H402 H 0.30359 0.20218 0.88428 0.0
H403 H 0.34031 0.21031 0.91208 0.0
H404 H 0.33995 0.19079 0.89693 0.0
H405 H 0.3447 0.15765 0.89427 0.0
H406 H 0.34829 0.14121 0.91065 0.0
H407 H 0.30797 0.10725 0.89438 0.0
H408 H 0.30475 0.12376 0.87748 0.0
H409 H 0.32392 0.16436 0.8961 0.0
H410 H 0.34126 0.14337 0.85675 0.0
H411 H 0.34215 0.125 0.84025 0.0
H412 H 0.30357 0.11436 0.81528 0.0
H413 H 0.30226 0.13203 0.83276 0.0
C414 C 0.31966 0.18248 0.84391 0.0
C415 C 0.30828 0.17884 0.83318 0.0
C416 C 0.30794 0.18903 0.82317 0.0
C417 C 0.31907 0.20304 0.82353 0.0
C418 C 0.33054 0.20656 0.83416 0.0
C419 C 0.33082 0.1964 0.84424 0.0
C420 C 0.31994 0.17173 0.85475 0.0
C421 C 0.31957 0.1602 0.84658 0.0
C422 C 0.3214 0.17322 0.87286 0.0
C423 C 0.32137 0.18496 0.8823 0.0
C424 C 0.31099 0.18818 0.8793 0.0
C425 C 0.31146 0.19971 0.88748 0.0
C426 C 0.32211 0.20805 0.89927 0.0
C427 C 0.33217 0.20442 0.90276 0.0
C428 C 0.33186 0.19309 0.89428 0.0
C429 C 0.3245 0.14192 0.88459 0.0
C430 C 0.33661 0.14667 0.89432 0.0
C431 C 0.33862 0.13723 0.90375 0.0
C432 C 0.32844 0.12284 0.90388 0.0
C433 C 0.31616 0.11818 0.89435 0.0
C434 C 0.31424 0.12762 0.88477 0.0
C435 C 0.3228 0.15194 0.87398 0.0
C436 C 0.32288 0.16332 0.88221 0.0
C437 C 0.3211 0.15034 0.85591 0.0
C438 C 0.32156 0.13894 0.84624 0.0
C439 C 0.33281 0.13684 0.84805 0.0
C440 C 0.33341 0.12645 0.83837 0.0
C441 C 0.32294 0.11815 0.82638 0.0
C442 C 0.3117 0.12032 0.82461 0.0
C443 C 0.311 0.13055 0.83447 0.0
H444 H 0.83498 0.12977 0.83153 0.0
H445 H 0.81597 0.11238 0.81356 0.0
H446 H 0.78774 0.12243 0.83921 0.0
H447 H 0.80693 0.1403 0.8564 0.0
H448 H 0.84595 0.15743 0.8329 0.0
H449 H 0.82487 0.12037 0.87523 0.0
H450 H 0.80491 0.102 0.8908 0.0
H451 H 0.79531 0.13292 0.9097 0.0
H452 H 0.81561 0.15123 0.89467 0.0
H453 H 0.85321 0.18899 0.89421 0.0
H454 H 0.87161 0.20937 0.90949 0.0
H455 H 0.90152 0.19857 0.89119 0.0
H456 H 0.88309 0.17853 0.87539 0.0
H457 H 0.84379 0.16038 0.8965 0.0
H458 H 0.86374 0.19702 0.85561 0.0
H459 H 0.88139 0.21587 0.83805 0.0
H460 H 0.89108 0.18658 0.81395 0.0
H461 H 0.87371 0.16783 0.83212 0.0
C462 C 0.82236 0.13622 0.84547 0.0
C463 C 0.82469 0.1282 0.83328 0.0
C464 C 0.81377 0.11817 0.82312 0.0
C465 C 0.8003 0.11597 0.82496 0.0
C466 C 0.798 0.12394 0.83731 0.0
C467 C 0.80894 0.13404 0.84734 0.0
C468 C 0.83408 0.14735 0.85566 0.0
C469 C 0.84565 0.15789 0.84684 0.0
C470 C 0.83346 0.1482 0.87379 0.0
C471 C 0.8217 0.13715 0.88379 0.0
C472 C 0.81849 0.12316 0.88284 0.0
C473 C 0.80699 0.11266 0.89165 0.0
C474 C 0.7984 0.11591 0.90151 0.0
C475 C 0.80178 0.13001 0.90253 0.0
C476 C 0.81337 0.14051 0.89388 0.0
C477 C 0.86681 0.1823 0.88365 0.0
C478 C 0.86374 0.191 0.89359 0.0
C479 C 0.87428 0.20263 0.90237 0.0
C480 C 0.8881 0.20567 0.90161 0.0
C481 C 0.89107 0.19674 0.89183 0.0
C482 C 0.88054 0.18521 0.88289 0.0
C483 C 0.85569 0.17038 0.87372 0.0
C484 C 0.84424 0.15975 0.88259 0.0
C485 C 0.85638 0.16949 0.8556 0.0
C486 C 0.86752 0.18104 0.84536 0.0
C487 C 0.86984 0.1947 0.8468 0.0
C488 C 0.87983 0.20544 0.83658 0.0
C489 C 0.88762 0.20273 0.82453 0.0
C490 C 0.88538 0.18906 0.82323 0.0
C491 C 0.87539 0.17831 0.83351 0.0
H492 H 0.81195 0.66066 0.82812 0.0
H493 H 0.7951 0.66211 0.8101 0.0
H494 H 0.80579 0.70169 0.83448 0.0
H495 H 0.82234 0.69983 0.85298 0.0
H496 H 0.83981 0.67834 0.83029 0.0
H497 H 0.80025 0.66109 0.8656 0.0
H498 H 0.78099 0.65975 0.8822 0.0
H499 H 0.8101 0.69302 0.91574 0.0
H500 H 0.82949 0.695 0.89854 0.0
H501 H 0.86497 0.69382 0.89835 0.0
H502 H 0.88114 0.6908 0.91614 0.0
H503 H 0.87173 0.65365 0.8867 0.0
H504 H 0.85536 0.6565 0.86924 0.0
H505 H 0.83789 0.67776 0.89402 0.0
H506 H 0.87755 0.69549 0.85433 0.0
H507 H 0.8953 0.69459 0.83682 0.0
H508 H 0.86354 0.65567 0.8135 0.0
H509 H 0.84589 0.657 0.83056 0.0
C510 C 0.81839 0.68012 0.84189 0.0
C511 C 0.81067 0.66966 0.82957 0.0
C512 C 0.80109 0.67057 0.81918 0.0
C513 C 0.79916 0.68212 0.82064 0.0
C514 C 0.80689 0.69258 0.83308 0.0
C515 C 0.8164 0.69158 0.84363 0.0
C516 C 0.8287 0.67907 0.85262 0.0
C517 C 0.83934 0.67816 0.84423 0.0
C518 C 0.82813 0.67891 0.87083 0.0
C519 C 0.81638 0.67839 0.88052 0.0
C520 C 0.80256 0.66841 0.87617 0.0
C521 C 0.79155 0.66754 0.88574 0.0
C522 C 0.79418 0.67632 0.9001 0.0
C523 C 0.80792 0.68618 0.90464 0.0
C524 C 0.81895 0.68728 0.89485 0.0
C525 C 0.85912 0.67555 0.88223 0.0
C526 C 0.86637 0.68501 0.89574 0.0
C527 C 0.87558 0.68326 0.90592 0.0
C528 C 0.87775 0.67203 0.90274 0.0
C529 C 0.87044 0.66253 0.88927 0.0
C530 C 0.86112 0.6642 0.87923 0.0
C531 C 0.8491 0.67727 0.87168 0.0
C532 C 0.83848 0.67823 0.88009 0.0
C533 C 0.84951 0.67722 0.85349 0.0
C534 C 0.86042 0.67633 0.84369 0.0
C535 C 0.87447 0.68674 0.8455 0.0
C536 C 0.8846 0.68615 0.83554 0.0
C537 C 0.88088 0.67508 0.82365 0.0
C538 C 0.86679 0.6645 0.82223 0.0
C539 C 0.85667 0.66519 0.83204 0.0
H540 H 0.82114 0.67306 0.52912 0.0
H541 H 0.80245 0.67275 0.54576 0.0
H542 H 0.77219 0.64081 0.51162 0.0
H543 H 0.79101 0.64102 0.49505 0.0
H544 H 0.82772 0.65381 0.52275 0.0
H545 H 0.81164 0.67901 0.48998 0.0
H546 H 0.79439 0.68179 0.47422 0.0
H547 H 0.79103 0.65143 0.43634 0.0
H548 H 0.80764 0.64796 0.45263 0.0
H549 H 0.84323 0.6479 0.45281 0.0
H550 H 0.86371 0.65195 0.43649 0.0
H551 H 0.89029 0.68272 0.47439 0.0
H552 H 0.8698 0.679 0.49041 0.0
H553 H 0.83362 0.66428 0.46047 0.0
H554 H 0.85234 0.64125 0.49338 0.0
H555 H 0.87006 0.63982 0.51005 0.0
H556 H 0.86938 0.66803 0.54826 0.0
H557 H 0.85238 0.67016 0.53123 0.0
C558 C 0.8075 0.65713 0.51077 0.0
C559 C 0.81049 0.66588 0.5253 0.0
C560 C 0.79979 0.66569 0.5348 0.0
C561 C 0.78586 0.65676 0.52999 0.0
C562 C 0.78284 0.64791 0.51551 0.0
C563 C 0.79357 0.648 0.50607 0.0
C564 C 0.81911 0.6579 0.50053 0.0
C565 C 0.82911 0.65621 0.50915 0.0
C566 C 0.82066 0.66069 0.48267 0.0
C567 C 0.81071 0.66299 0.47276 0.0
C568 C 0.80702 0.67273 0.47848 0.0
C569 C 0.79725 0.6744 0.46944 0.0
C570 C 0.7914 0.66675 0.45419 0.0
C571 C 0.79543 0.65741 0.4481 0.0
C572 C 0.80493 0.65547 0.45737 0.0
C573 C 0.85495 0.66298 0.47299 0.0
C574 C 0.85346 0.65558 0.45757 0.0
C575 C 0.86515 0.6579 0.44825 0.0
C576 C 0.87856 0.66759 0.45424 0.0
C577 C 0.88006 0.67506 0.46961 0.0
C578 C 0.86836 0.67291 0.47878 0.0
C579 C 0.84245 0.6605 0.48277 0.0
C580 C 0.83223 0.66177 0.47404 0.0
C581 C 0.8408 0.65753 0.50061 0.0
C582 C 0.85112 0.656 0.51086 0.0
C583 C 0.85613 0.6473 0.50521 0.0
C584 C 0.86617 0.6464 0.51477 0.0
C585 C 0.87099 0.65379 0.53041 0.0
C586 C 0.86572 0.66215 0.53629 0.0
C587 C 0.85598 0.66333 0.52656 0.0
H588 H 0.37321 0.20942 0.51684 0.0
H589 H 0.37265 0.22777 0.53388 0.0
H590 H 0.32996 0.21129 0.51865 0.0
H591 H 0.33085 0.19332 0.5011 0.0
H592 H 0.35563 0.18004 0.52058 0.0
H593 H 0.36722 0.21582 0.47913 0.0
H594 H 0.36357 0.2327 0.464 0.0
H595 H 0.32645 0.19855 0.44069 0.0
H596 H 0.32963 0.18177 0.45693 0.0
H597 H 0.33015 0.14527 0.46155 0.0
H598 H 0.32925 0.12512 0.44708 0.0
H599 H 0.37144 0.13996 0.46316 0.0
H600 H 0.37207 0.15984 0.47796 0.0
H601 H 0.34822 0.17447 0.45741 0.0
H602 H 0.33201 0.14132 0.50468 0.0
H603 H 0.33182 0.12338 0.52254 0.0
H604 H 0.37577 0.1509 0.53234 0.0
H605 H 0.37554 0.16909 0.51521 0.0
C606 C 0.3521 0.20007 0.5077 0.0
C607 C 0.36377 0.20983 0.51714 0.0
C608 C 0.36338 0.22027 0.52695 0.0
C609 C 0.35122 0.22099 0.52776 0.0
C610 C 0.33956 0.21121 0.51815 0.0
C611 C 0.34002 0.20086 0.50818 0.0
C612 C 0.35245 0.1888 0.49772 0.0
C613 C 0.35427 0.179 0.50673 0.0
C614 C 0.35023 0.18721 0.4797 0.0
C615 C 0.34854 0.19749 0.4695 0.0
C616 C 0.35817 0.21196 0.47096 0.0
C617 C 0.35618 0.22162 0.46205 0.0
C618 C 0.34466 0.21706 0.45111 0.0
C619 C 0.33527 0.20252 0.44925 0.0
C620 C 0.33717 0.19287 0.45838 0.0
C621 C 0.35114 0.15399 0.47088 0.0
C622 C 0.33921 0.14419 0.46186 0.0
C623 C 0.33874 0.1327 0.45356 0.0
C624 C 0.35028 0.13088 0.45396 0.0
C625 C 0.36228 0.14087 0.46284 0.0
C626 C 0.3627 0.15229 0.47122 0.0
C627 C 0.35143 0.16582 0.48032 0.0
C628 C 0.34972 0.17568 0.47123 0.0
C629 C 0.35356 0.16743 0.49827 0.0
C630 C 0.35378 0.15649 0.50867 0.0
C631 C 0.34158 0.14345 0.51071 0.0
C632 C 0.34155 0.13314 0.52083 0.0
C633 C 0.3538 0.13557 0.52892 0.0
C634 C 0.36607 0.14867 0.52662 0.0
C635 C 0.36601 0.15908 0.51673 0.0
H636 H 0.79731 0.16845 0.51845 0.0
H637 H 0.77923 0.14929 0.5354 0.0
H638 H 0.791 0.12093 0.51314 0.0
H639 H 0.80861 0.14003 0.4958 0.0
H640 H 0.82659 0.17821 0.51862 0.0
H641 H 0.78802 0.15934 0.47864 0.0
H642 H 0.76862 0.13959 0.46359 0.0
H643 H 0.79724 0.12928 0.43961 0.0
H644 H 0.81657 0.14922 0.45443 0.0
H645 H 0.85415 0.18669 0.4533 0.0
H646 H 0.87418 0.20561 0.43846 0.0
H647 H 0.86717 0.23609 0.46459 0.0
H648 H 0.84732 0.2171 0.47963 0.0
H649 H 0.82657 0.17789 0.45477 0.0
H650 H 0.86509 0.19644 0.49267 0.0
H651 H 0.88488 0.21383 0.50972 0.0
H652 H 0.85746 0.22248 0.53967 0.0
H653 H 0.83773 0.20537 0.52229 0.0
C654 C 0.80422 0.15562 0.50583 0.0
C655 C 0.7959 0.15807 0.5172 0.0
C656 C 0.78563 0.1471 0.52695 0.0
C657 C 0.78362 0.13351 0.52571 0.0
C658 C 0.79202 0.13115 0.51423 0.0
C659 C 0.80217 0.14208 0.50437 0.0
C660 C 0.81531 0.1673 0.49579 0.0
C661 C 0.82648 0.17833 0.50467 0.0
C662 C 0.81535 0.16711 0.47761 0.0
C663 C 0.80371 0.15568 0.46771 0.0
C664 C 0.79009 0.15284 0.47007 0.0
C665 C 0.77901 0.14151 0.46153 0.0
C666 C 0.78135 0.1328 0.45044 0.0
C667 C 0.79507 0.13588 0.44785 0.0
C668 C 0.80614 0.14725 0.45635 0.0
C669 C 0.84931 0.20049 0.46767 0.0
C670 C 0.85686 0.19745 0.45569 0.0
C671 C 0.8683 0.20829 0.4472 0.0
C672 C 0.87235 0.22241 0.45039 0.0
C673 C 0.86452 0.22538 0.46207 0.0
C674 C 0.85311 0.21453 0.4706 0.0
C675 C 0.83784 0.18903 0.47762 0.0
C676 C 0.82663 0.17795 0.46872 0.0
C677 C 0.83787 0.18909 0.49584 0.0
C678 C 0.84994 0.19975 0.50601 0.0
C679 C 0.86336 0.20226 0.50269 0.0
C680 C 0.87465 0.21215 0.51246 0.0
C681 C 0.87268 0.21948 0.52598 0.0
C682 C 0.85924 0.21688 0.5294 0.0
C683 C 0.84798 0.20713 0.51948 0.0
H684 H 0.9836 0.51002 0.16455 0.0
H685 H 0.98207 0.52688 0.14619 0.0
H686 H 0.02056 0.56029 0.16767 0.0
H687 H 0.02238 0.54331 0.18526 0.0
H688 H 0.00253 0.5023 0.16493 0.0
H689 H 0.98416 0.52009 0.20918 0.0
H690 H 0.98349 0.53934 0.22425 0.0
H691 H 0.02699 0.5584 0.23663 0.0
H692 H 0.02753 0.53894 0.22191 0.0
H693 H 0.02814 0.50059 0.22901 0.0
H694 H 0.03025 0.48362 0.24638 0.0
H695 H 0.99237 0.45002 0.22383 0.0
H696 H 0.9899 0.46711 0.20738 0.0
H697 H 0.00959 0.50837 0.2281 0.0
H698 H 0.02574 0.48671 0.18711 0.0
H699 H 0.02517 0.46716 0.17136 0.0
H700 H 0.9849 0.45544 0.1508 0.0
H701 H 0.98534 0.47466 0.167 0.0
C702 C 0.00303 0.52539 0.17644 0.0
C703 C 0.99171 0.52098 0.16529 0.0
C704 C 0.99077 0.53067 0.15492 0.0
C705 C 1.00118 0.54497 0.15545 0.0
C706 C 0.01244 0.54935 0.16677 0.0
C707 C 0.0134 0.53966 0.17703 0.0
C708 C 0.00427 0.51503 0.18701 0.0
C709 C 0.00388 0.50351 0.17877 0.0
C710 C 0.00635 0.51675 0.20499 0.0
C711 C 0.0059 0.52815 0.21447 0.0
C712 C 0.99351 0.52838 0.21524 0.0
C713 C 0.99314 0.53933 0.22382 0.0
C714 C 0.0052 0.55031 0.23148 0.0
C715 C 0.01759 0.55007 0.23069 0.0
C716 C 0.01789 0.53896 0.22242 0.0
C717 C 0.00897 0.48514 0.21668 0.0
C718 C 0.02023 0.48957 0.22793 0.0
C719 C 0.0215 0.47982 0.23773 0.0
C720 C 0.01153 0.46539 0.23647 0.0
C721 C 1.00017 0.46103 0.22532 0.0
C722 C 0.99884 0.47079 0.21569 0.0
C723 C 0.00778 0.49551 0.20604 0.0
C724 C 0.00823 0.5071 0.21426 0.0
C725 C 0.00567 0.49377 0.18801 0.0
C726 C 0.00552 0.48206 0.17836 0.0
C727 C 0.01674 0.47984 0.17934 0.0
C728 C 0.01645 0.46873 0.17023 0.0
C729 C 0.00495 0.45969 0.15991 0.0
C730 C 0.99379 0.46204 0.15887 0.0
C731 C 0.99409 0.47312 0.16798 0.0
H732 H 0.50139 0.46224 0.1689 0.0
H733 H 0.48238 0.44464 0.15118 0.0
H734 H 0.45639 0.4607 0.1687 0.0
H735 H 0.47529 0.47776 0.18708 0.0
H736 H 0.51333 0.49243 0.16748 0.0
H737 H 0.48942 0.4537 0.20535 0.0
H738 H 0.46855 0.43528 0.21913 0.0
H739 H 0.46436 0.46678 0.24739 0.0
H740 H 0.4847 0.48518 0.23249 0.0
H741 H 0.52052 0.51969 0.23404 0.0
H742 H 0.53885 0.53938 0.25018 0.0
H743 H 0.56969 0.53444 0.22238 0.0
H744 H 0.55122 0.51403 0.20736 0.0
H745 H 0.5111 0.49326 0.23122 0.0
H746 H 0.53271 0.53167 0.19176 0.0
H747 H 0.55088 0.55037 0.17438 0.0
H748 H 0.55859 0.5201 0.14908 0.0
H749 H 0.54047 0.50145 0.1666 0.0
C750 C 0.48969 0.47123 0.17928 0.0
C751 C 0.49155 0.46189 0.16893 0.0
C752 C 0.48068 0.4519 0.15873 0.0
C753 C 0.46781 0.45126 0.15836 0.0
C754 C 0.46603 0.46069 0.16882 0.0
C755 C 0.47685 0.47053 0.17925 0.0
C756 C 0.5013 0.48192 0.18989 0.0
C757 C 0.51299 0.49253 0.18144 0.0
C758 C 0.50057 0.48211 0.20804 0.0
C759 C 0.48849 0.47087 0.21756 0.0
C760 C 0.4839 0.45666 0.21433 0.0
C761 C 0.47203 0.44609 0.22246 0.0
C762 C 0.46463 0.44947 0.23436 0.0
C763 C 0.46956 0.46373 0.23803 0.0
C764 C 0.48132 0.4743 0.22968 0.0
C765 C 0.53446 0.51549 0.21924 0.0
C766 C 0.53122 0.5227 0.23163 0.0
C767 C 0.54177 0.53412 0.24068 0.0
C768 C 0.55583 0.53873 0.23743 0.0
C769 C 0.55902 0.5312 0.22537 0.0
C770 C 0.54844 0.5196 0.21656 0.0
C771 C 0.52322 0.50398 0.20881 0.0
C772 C 0.51155 0.49317 0.21728 0.0
C773 C 0.52388 0.50367 0.1906 0.0
C774 C 0.53531 0.51517 0.1806 0.0
C775 C 0.53846 0.52909 0.18267 0.0
C776 C 0.54887 0.53978 0.17275 0.0
C777 C 0.55619 0.53671 0.16038 0.0
C778 C 0.55306 0.52277 0.1584 0.0
C779 C 0.54272 0.51211 0.16841 0.0
H780 H 0.53144 0.0227 0.17108 0.0
H781 H 0.55079 0.02496 0.15384 0.0
H782 H 0.53622 0.98105 0.16182 0.0
H783 H 0.51722 0.97906 0.17954 0.0
H784 H 0.50315 0.00525 0.16536 0.0
H785 H 0.53611 0.01411 0.20926 0.0
H786 H 0.55314 0.01131 0.22525 0.0
H787 H 0.52161 0.9685 0.23667 0.0
H788 H 0.50455 0.97148 0.2208 0.0
H789 H 0.46694 0.9717 0.22024 0.0
H790 H 0.447 0.96898 0.23661 0.0
H791 H 0.46077 0.01262 0.22796 0.0
H792 H 0.48045 0.01511 0.21131 0.0
H793 H 0.49507 0.98935 0.22592 0.0
H794 H 0.46283 0.98009 0.17947 0.0
H795 H 0.44628 0.98288 0.16242 0.0
H796 H 0.47668 0.02705 0.15677 0.0
H797 H 0.49336 0.02391 0.17318 0.0
C798 C 0.52294 0.00074 0.17664 0.0
C799 C 0.53248 0.01359 0.16915 0.0
C800 C 0.54349 0.01483 0.15922 0.0
C801 C 0.54507 0.00317 0.15634 0.0
C802 C 0.5355 0.99031 0.16396 0.0
C803 C 0.52457 0.98913 0.17404 0.0
C804 C 0.51105 0.99934 0.18679 0.0
C805 C 0.5015 0.00197 0.17868 0.0
C806 C 0.50875 0.99478 0.20404 0.0
C807 C 0.51909 0.99295 0.21367 0.0
C808 C 0.53289 0.00407 0.21507 0.0
C809 C 0.54263 0.00244 0.2242 0.0
C810 C 0.53878 0.98964 0.23217 0.0
C811 C 0.52491 0.97854 0.23084 0.0
C812 C 0.51515 0.9802 0.22172 0.0
C813 C 0.47508 0.99356 0.21441 0.0
C814 C 0.46563 0.98065 0.22188 0.0
C815 C 0.45427 0.97915 0.23131 0.0
C816 C 0.45223 0.99057 0.23359 0.0
C817 C 0.46184 0.00352 0.2262 0.0
C818 C 0.47313 0.00499 0.21671 0.0
C819 C 0.48714 0.99518 0.20445 0.0
C820 C 0.49674 0.99261 0.2126 0.0
C821 C 0.48953 0.99985 0.18725 0.0
C822 C 0.4793 0.0018 0.1776 0.0
C823 C 0.46588 0.99038 0.1746 0.0
C824 C 0.45639 0.99204 0.16493 0.0
C825 C 0.46006 0.00522 0.15817 0.0
C826 C 0.47351 0.01669 0.16146 0.0
C827 C 0.48306 0.01496 0.17094 0.0
H828 H 0.49516 0.02177 0.86404 0.0
H829 H 0.47625 0.02032 0.88146 0.0
H830 H 0.44635 0.98693 0.84849 0.0
H831 H 0.46536 0.98831 0.83115 0.0
H832 H 0.50267 0.00317 0.85828 0.0
H833 H 0.48492 0.02621 0.82441 0.0
H834 H 0.46747 0.02841 0.80828 0.0
H835 H 0.46418 0.99724 0.77173 0.0
H836 H 0.48101 0.9944 0.78836 0.0
H837 H 0.51532 0.99156 0.79056 0.0
H838 H 0.53503 0.99362 0.77421 0.0
H839 H 0.56323 0.02899 0.80611 0.0
H840 H 0.54346 0.02698 0.82228 0.0
H841 H 0.50667 0.01048 0.79525 0.0
H842 H 0.52376 0.98699 0.82954 0.0
H843 H 0.5406 0.98417 0.84613 0.0
H844 H 0.54547 0.01685 0.88132 0.0
H845 H 0.52891 0.0199 0.8645 0.0
C846 C 0.48169 0.00522 0.84621 0.0
C847 C 0.48453 0.01409 0.86058 0.0
C848 C 0.47373 0.01324 0.87055 0.0
C849 C 0.45982 0.0035 0.86635 0.0
C850 C 0.45696 0.99464 0.85192 0.0
C851 C 0.4678 0.99542 0.84201 0.0
C852 C 0.49335 0.00617 0.83589 0.0
C853 C 0.50363 0.00495 0.84452 0.0
C854 C 0.49437 0.00812 0.81784 0.0
C855 C 0.48411 0.00991 0.80786 0.0
C856 C 0.48027 0.01963 0.81313 0.0
C857 C 0.47038 0.02097 0.80387 0.0
C858 C 0.46451 0.01296 0.78884 0.0
C859 C 0.46862 0.00355 0.78327 0.0
C860 C 0.47824 0.00196 0.79275 0.0
C861 C 0.52794 0.00904 0.8077 0.0
C862 C 0.52575 0.99978 0.79398 0.0
C863 C 0.53701 0.00091 0.78475 0.0
C864 C 0.55067 0.01143 0.78894 0.0
C865 C 0.55282 0.02084 0.80252 0.0
C866 C 0.54155 0.01964 0.81183 0.0
C867 C 0.51596 0.00759 0.81769 0.0
C868 C 0.50565 0.0087 0.80901 0.0
C869 C 0.51489 0.00556 0.83569 0.0
C870 C 0.52517 0.00379 0.84562 0.0
C871 C 0.5286 0.99371 0.84067 0.0
C872 C 0.53819 0.99206 0.85019 0.0
C873 C 0.54432 1.00027 0.86504 0.0
C874 C 0.54079 0.01027 0.87005 0.0
C875 C 0.53134 0.01203 0.86042 0.0
H876 H 0.01993 0.53165 0.85728 0.0
H877 H 0.01868 0.54983 0.87397 0.0
H878 H 0.97809 0.53582 0.85271 0.0
H879 H 0.97931 0.5175 0.83623 0.0
H880 H 0.00281 0.50299 0.85826 0.0
H881 H 0.01636 0.54015 0.81817 0.0
H882 H 0.01369 0.55737 0.80229 0.0
H883 H 0.97791 0.52374 0.77615 0.0
H884 H 0.98013 0.5066 0.79296 0.0
H885 H 0.98333 0.47353 0.79273 0.0
H886 H 0.98377 0.45511 0.77595 0.0
H887 H 0.02055 0.463 0.80336 0.0
H888 H 0.0207 0.48225 0.81904 0.0
H889 H 0.99937 0.5 0.79463 0.0
H890 H 0.98535 0.4627 0.83503 0.0
H891 H 0.987 0.44547 0.85233 0.0
H892 H 0.02271 0.47906 0.87864 0.0
H893 H 0.02155 0.49612 0.86044 0.0
C894 C 0.99976 0.52331 0.84546 0.0
C895 C 0.01076 0.53249 0.85625 0.0
C896 C 0.01008 0.54293 0.86565 0.0
C897 C 0.99832 0.54429 0.86456 0.0
C898 C 0.98724 0.53498 0.85387 0.0
C899 C 0.98796 0.52457 0.84438 0.0
C900 C 1.00065 0.51237 0.83539 0.0
C901 C 0.00224 0.50239 0.84432 0.0
C902 C 0.99957 0.51151 0.81724 0.0
C903 C 0.9983 0.52204 0.80702 0.0
C904 C 0.00781 0.53647 0.80921 0.0
C905 C 0.00637 0.54634 0.79991 0.0
C906 C 0.99555 0.542 0.7879 0.0
C907 C 0.98621 0.52752 0.78549 0.0
C908 C 0.98756 0.51767 0.79496 0.0
C909 C 0.00186 0.47919 0.80736 0.0
C910 C 0.99159 0.47141 0.795 0.0
C911 C 0.99175 0.46071 0.78555 0.0
C912 C 0.00209 0.45737 0.78839 0.0
C913 C 0.01249 0.4653 0.80065 0.0
C914 C 0.01247 0.47621 0.80986 0.0
C915 C 1.00142 0.49042 0.81749 0.0
C916 C 0.99994 0.50052 0.80857 0.0
C917 C 0.00252 0.49133 0.83569 0.0
C918 C 0.00345 0.48073 0.8462 0.0
C919 C 0.99369 0.46634 0.8443 0.0
C920 C 0.99454 0.45649 0.85442 0.0
C921 C 0.00499 0.46081 0.86698 0.0
C922 C 0.01467 0.47526 0.86893 0.0
C923 C 0.01393 0.48508 0.85864 0.0
H924 H 0.4635 0.50399 0.85559 0.0
H925 H 0.4459 0.48528 0.87348 0.0
H926 H 0.45226 0.455 0.84567 0.0
H927 H 0.47048 0.47382 0.82881 0.0
H928 H 0.49023 0.51335 0.85372 0.0
H929 H 0.45339 0.49441 0.81102 0.0
H930 H 0.43432 0.47456 0.79569 0.0
H931 H 0.46299 0.46237 0.77652 0.0
H932 H 0.48201 0.48255 0.7913 0.0
H933 H 0.52089 0.51908 0.79263 0.0
H934 H 0.54171 0.53705 0.77799 0.0
H935 H 0.53352 0.5689 0.79711 0.0
H936 H 0.513 0.55088 0.81219 0.0
H937 H 0.49283 0.51131 0.79006 0.0
H938 H 0.52875 0.52814 0.83267 0.0
H939 H 0.54803 0.5455 0.85043 0.0
H940 H 0.52157 0.5598 0.87142 0.0
H941 H 0.50238 0.54255 0.85341 0.0
C942 C 0.46822 0.49033 0.84068 0.0
C943 C 0.46107 0.4933 0.85335 0.0
C944 C 0.45089 0.48256 0.86346 0.0
C945 C 0.44762 0.46859 0.86106 0.0
C946 C 0.45462 0.46563 0.84809 0.0
C947 C 0.46491 0.47639 0.83819 0.0
C948 C 0.47968 0.50185 0.83072 0.0
C949 C 0.49061 0.51306 0.83978 0.0
C950 C 0.48045 0.5013 0.81255 0.0
C951 C 0.46908 0.48991 0.80231 0.0
C952 C 0.45554 0.48752 0.80335 0.0
C953 C 0.44464 0.47609 0.79469 0.0
C954 C 0.44706 0.46677 0.78492 0.0
C955 C 0.46074 0.46942 0.78366 0.0
C956 C 0.47164 0.48094 0.79215 0.0
C957 C 0.51545 0.53366 0.80352 0.0
C958 C 0.52357 0.52994 0.79357 0.0
C959 C 0.53546 0.54024 0.78516 0.0
C960 C 0.53936 0.55448 0.78635 0.0
C961 C 0.53102 0.55811 0.79615 0.0
C962 C 0.51922 0.54781 0.80468 0.0
C963 C 0.50326 0.5228 0.81311 0.0
C964 C 0.49226 0.51173 0.80398 0.0
C965 C 0.50244 0.52341 0.83122 0.0
C966 C 0.51419 0.53417 0.84164 0.0
C967 C 0.52716 0.53513 0.84096 0.0
C968 C 0.53812 0.54496 0.8512 0.0
C969 C 0.5363 0.554 0.86229 0.0
C970 C 0.52332 0.55308 0.86284 0.0
C971 C 0.51233 0.54318 0.85267 0.0
H972 H 0.63261 0.83447 0.49875 0.0
H973 H 0.63317 0.85251 0.48049 0.0
H974 H 0.67051 0.88402 0.5063 0.0
H975 H 0.67035 0.86587 0.52365 0.0
H976 H 0.65062 0.82584 0.5005 0.0
H977 H 0.63233 0.84497 0.54237 0.0
H978 H 0.63282 0.8649 0.55691 0.0
H979 H 0.67401 0.8785 0.57598 0.0
H980 H 0.67318 0.8583 0.56192 0.0
H981 H 0.67522 0.82367 0.56466 0.0
H982 H 0.67895 0.80721 0.58082 0.0
H983 H 0.64301 0.7725 0.55628 0.0
H984 H 0.63886 0.78903 0.54103 0.0
H985 H 0.65566 0.82965 0.564 0.0
H986 H 0.67513 0.81242 0.52134 0.0
H987 H 0.67733 0.79558 0.50297 0.0
H988 H 0.63573 0.77978 0.48386 0.0
H989 H 0.63376 0.79686 0.50196 0.0
C990 C 0.65133 0.8488 0.51274 0.0
C991 C 0.6409 0.84528 0.50046 0.0
C992 C 0.64117 0.85564 0.49014 0.0
C993 C 0.65189 0.86976 0.49189 0.0
C994 C 0.66219 0.87326 0.5044 0.0
C995 C 0.662 0.86289 0.51455 0.0
C996 C 0.65151 0.83772 0.52309 0.0
C997 C 0.65141 0.8265 0.51442 0.0
C998 C 0.6529 0.83875 0.54121 0.0
C999 C 0.65273 0.8502 0.55105 0.0
C1000 C 0.64139 0.8522 0.54984 0.0
C1001 C 0.64175 0.86367 0.55805 0.0
C1002 C 0.65349 0.8734 0.56756 0.0
C1003 C 0.6647 0.87114 0.56902 0.0
C1004 C 0.66427 0.8596 0.56095 0.0
C1005 C 0.65686 0.80763 0.55144 0.0
C1006 C 0.66806 0.81251 0.5629 0.0
C1007 C 0.67027 0.80306 0.57199 0.0
C1008 C 0.66136 0.78847 0.56978 0.0
C1009 C 0.65002 0.78363 0.55847 0.0
C1010 C 0.64773 0.79309 0.54953 0.0
C1011 C 0.65486 0.81777 0.54138 0.0
C1012 C 0.65462 0.82883 0.55011 0.0
C1013 C 0.65323 0.81663 0.52328 0.0
C1014 C 0.65427 0.80585 0.51302 0.0
C1015 C 0.66644 0.80522 0.51331 0.0
C1016 C 0.66766 0.79555 0.50285 0.0
C1017 C 0.65672 0.78636 0.49187 0.0
C1018 C 0.64444 0.78686 0.49192 0.0
C1019 C 0.64326 0.79657 0.50231 0.0
H1020 H 0.16628 0.79644 0.50535 0.0
H1021 H 0.14695 0.77881 0.48802 0.0
H1022 H 0.12095 0.79419 0.5077 0.0
H1023 H 0.14023 0.81138 0.52554 0.0
H1024 H 0.17764 0.82693 0.50413 0.0
H1025 H 0.15805 0.78829 0.54537 0.0
H1026 H 0.13785 0.76938 0.55998 0.0
H1027 H 0.12763 0.79953 0.58007 0.0
H1028 H 0.14819 0.81839 0.56598 0.0
H1029 H 0.18846 0.8538 0.57168 0.0
H1030 H 0.20822 0.87313 0.58682 0.0
H1031 H 0.23636 0.86572 0.55659 0.0
H1032 H 0.21657 0.84618 0.54176 0.0
H1033 H 0.17763 0.82672 0.56797 0.0
H1034 H 0.19845 0.86584 0.53076 0.0
H1035 H 0.21646 0.8852 0.51416 0.0
H1036 H 0.22159 0.85562 0.48291 0.0
H1037 H 0.20413 0.83638 0.50026 0.0
C1038 C 0.15464 0.80516 0.51669 0.0
C1039 C 0.15637 0.79593 0.50596 0.0
C1040 C 0.14532 0.78592 0.49598 0.0
C1041 C 0.13238 0.78513 0.4963 0.0
C1042 C 0.13068 0.79435 0.50726 0.0
C1043 C 0.14171 0.80425 0.5174 0.0
C1044 C 0.1665 0.81601 0.52684 0.0
C1045 C 0.17782 0.82682 0.51807 0.0
C1046 C 0.16637 0.81603 0.54499 0.0
C1047 C 0.15459 0.80472 0.55464 0.0
C1048 C 0.1515 0.7908 0.55307 0.0
C1049 C 0.13986 0.77998 0.56132 0.0
C1050 C 0.13101 0.78286 0.57118 0.0
C1051 C 0.13429 0.7969 0.57285 0.0
C1052 C 0.14602 0.80772 0.56476 0.0
C1053 C 0.20102 0.84866 0.55539 0.0
C1054 C 0.19886 0.85618 0.56849 0.0
C1055 C 0.21015 0.86722 0.57713 0.0
C1056 C 0.22381 0.87098 0.57277 0.0
C1057 C 0.22595 0.86317 0.56003 0.0
C1058 C 0.21465 0.85202 0.55155 0.0
C1059 C 0.18909 0.83771 0.54527 0.0
C1060 C 0.17765 0.82688 0.55402 0.0
C1061 C 0.18902 0.83782 0.52702 0.0
C1062 C 0.20005 0.84964 0.51694 0.0
C1063 C 0.20362 0.86354 0.52053 0.0
C1064 C 0.21382 0.87461 0.51086 0.0
C1065 C 0.2205 0.87201 0.49715 0.0
C1066 C 0.21685 0.85806 0.49354 0.0
C1067 C 0.20675 0.84701 0.50334 0.0
H1068 H 0.14849 0.32784 0.49337 0.0
H1069 H 0.13104 0.3286 0.47569 0.0
H1070 H 0.13708 0.36494 0.50445 0.0
H1071 H 0.15451 0.36403 0.52226 0.0
H1072 H 0.17531 0.34639 0.49693 0.0
H1073 H 0.13599 0.32397 0.53448 0.0
H1074 H 0.11606 0.32117 0.55095 0.0
H1075 H 0.14323 0.35899 0.57987 0.0
H1076 H 0.16313 0.36182 0.56317 0.0
H1077 H 0.20342 0.36196 0.56142 0.0
H1078 H 0.22043 0.35895 0.57722 0.0
H1079 H 0.20431 0.31801 0.55335 0.0
H1080 H 0.18794 0.32155 0.53693 0.0
H1081 H 0.17309 0.34345 0.56057 0.0
H1082 H 0.2134 0.36154 0.52439 0.0
H1083 H 0.23187 0.36179 0.50706 0.0
H1084 H 0.20103 0.32922 0.47416 0.0
H1085 H 0.18256 0.32843 0.49196 0.0
C1086 C 0.15279 0.34584 0.50918 0.0
C1087 C 0.14608 0.33599 0.49586 0.0
C1088 C 0.13614 0.33648 0.48571 0.0
C1089 C 0.13273 0.3469 0.48855 0.0
C1090 C 0.13937 0.3567 0.50201 0.0
C1091 C 0.14934 0.3562 0.5122 0.0
C1092 C 0.16365 0.3454 0.51952 0.0
C1093 C 0.17475 0.34558 0.51083 0.0
C1094 C 0.16308 0.34469 0.53768 0.0
C1095 C 0.15101 0.34318 0.54749 0.0
C1096 C 0.13763 0.33171 0.54427 0.0
C1097 C 0.12628 0.33006 0.55379 0.0
C1098 C 0.12809 0.33986 0.5667 0.0
C1099 C 0.1415 0.35135 0.56988 0.0
C1100 C 0.15287 0.35294 0.56043 0.0
C1101 C 0.19453 0.34203 0.54795 0.0
C1102 C 0.2036 0.35236 0.55964 0.0
C1103 C 0.21326 0.35055 0.56874 0.0
C1104 C 0.21383 0.33822 0.56663 0.0
C1105 C 0.20446 0.32778 0.5551 0.0
C1106 C 0.19499 0.32971 0.54578 0.0
C1107 C 0.18457 0.3441 0.53791 0.0
C1108 C 0.17369 0.34432 0.54667 0.0
C1109 C 0.18519 0.34483 0.51974 0.0
C1110 C 0.19653 0.34483 0.50966 0.0
C1111 C 0.21057 0.35418 0.51375 0.0
C1112 C 0.22112 0.35439 0.50379 0.0
C1113 C 0.21782 0.34553 0.48932 0.0
C1114 C 0.20382 0.3362 0.48523 0.0
C1115 C 0.19328 0.33578 0.49536 0.0
H1116 H 0.01694 0.37824 0.05028 0.0
H1117 H 0.01981 0.39483 0.07318 0.0
H1118 H 0.97583 0.37067 0.08374 0.0
H1119 H 0.9728 0.35425 0.06064 0.0
H1120 H 0.98391 0.39723 0.08056 0.0
H1121 H 1.0005 0.37169 0.11158 0.0
H1122 H 0.01507 0.36136 0.11653 0.0
H1123 H 0.05179 0.40232 0.11462 0.0
H1124 H 0.03744 0.41287 0.10941 0.0
H1125 H 0.98301 0.43293 0.15549 0.0
H1126 H 0.98185 0.4144 0.13694 0.0
H1127 H 0.02496 0.44133 0.12333 0.0
H1128 H 0.02617 0.46002 0.14173 0.0
H1129 H 0.01782 0.41353 0.12851 0.0
H1130 H 1.00121 0.43881 0.09672 0.0
H1131 H 0.98667 0.44916 0.09177 0.0
H1132 H 0.94987 0.40835 0.09508 0.0
H1133 H 0.9642 0.39779 0.10032 0.0
C1134 C 0.0079 0.37634 0.05762 0.0
C1135 C 0.99462 0.36495 0.05352 0.0
C1136 C 0.00957 0.38582 0.07077 0.0
C1137 C 0.99804 0.38397 0.08025 0.0
C1138 C 0.98487 0.37234 0.07657 0.0
C1139 C 0.98316 0.36294 0.06335 0.0
C1140 C 0.99948 0.39464 0.09314 0.0
C1141 C 0.99117 0.4006 0.09121 0.0
C1142 C 0.00925 0.39937 0.10674 0.0
C1143 C 0.0179 0.39305 0.10994 0.0
C1144 C 0.01169 0.37848 0.11208 0.0
C1145 C 0.0199 0.37259 0.11495 0.0
C1146 C 0.03435 0.38117 0.11584 0.0
C1147 C 0.0406 0.39568 0.1139 0.0
C1148 C 0.03243 0.40162 0.11101 0.0
C1149 C 0.99225 0.43492 0.14855 0.0
C1150 C 0.00463 0.44802 0.14991 0.0
C1151 C 0.99159 0.4243 0.13804 0.0
C1152 C 0.00328 0.42657 0.12861 0.0
C1153 C 0.01583 0.43938 0.13052 0.0
C1154 C 0.0165 0.45004 0.14105 0.0
C1155 C 0.00211 0.41589 0.11599 0.0
C1156 C 0.01052 0.41004 0.1179 0.0
C1157 C 0.99242 0.41121 0.10235 0.0
C1158 C 0.98378 0.41753 0.09908 0.0
C1159 C 0.99002 0.43206 0.09653 0.0
C1160 C 0.98181 0.43796 0.09365 0.0
C1161 C 0.96735 0.42942 0.09315 0.0
C1162 C 0.96107 0.41496 0.09549 0.0
C1163 C 0.96923 0.409 0.09841 0.0
H1164 H 0.96101 0.43401 0.09092 0.0
H1165 H 0.04069 0.37659 0.11807 0.0
H1166 H 0.61914 0.6447 0.06565 0.0
H1167 H 0.60753 0.62672 0.08738 0.0
H1168 H 0.62939 0.60634 0.06954 0.0
H1169 H 0.64122 0.62442 0.04769 0.0
H1170 H 0.59 0.59936 0.08176 0.0
H1171 H 0.63281 0.58897 0.1044 0.0
H1172 H 0.65828 0.60174 0.10794 0.0
H1173 H 0.6589 0.64055 0.11431 0.0
H1174 H 0.63343 0.62799 0.11105 0.0
H1175 H 0.55927 0.53523 0.12568 0.0
H1176 H 0.57511 0.5541 0.10658 0.0
H1177 H 0.59212 0.58243 0.15006 0.0
H1178 H 0.57642 0.5635 0.16935 0.0
H1179 H 0.6125 0.58582 0.12595 0.0
H1180 H 0.56836 0.58337 0.12748 0.0
H1181 H 0.54286 0.57147 0.12514 0.0
H1182 H 0.54503 0.5605 0.07249 0.0
H1183 H 0.57055 0.57217 0.07461 0.0
C1184 C 0.62161 0.63648 0.06637 0.0
C1185 C 0.63106 0.63597 0.05478 0.0
C1186 C 0.61493 0.62619 0.07882 0.0
C1187 C 0.61756 0.61517 0.08008 0.0
C1188 C 0.62729 0.61482 0.0689 0.0
C1189 C 0.63401 0.62515 0.05639 0.0
C1190 C 0.60951 0.60371 0.09246 0.0
C1191 C 0.59496 0.59641 0.09139 0.0
C1192 C 0.61594 0.5999 0.10512 0.0
C1193 C 0.63123 0.60755 0.10729 0.0
C1194 C 0.63838 0.60022 0.10661 0.0
C1195 C 0.65282 0.60742 0.10856 0.0
C1196 C 0.66021 0.62195 0.11128 0.0
C1197 C 0.65317 0.6293 0.11213 0.0
C1198 C 0.63874 0.62215 0.1102 0.0
C1199 C 0.56656 0.5454 0.13123 0.0
C1200 C 0.56655 0.5479 0.14901 0.0
C1201 C 0.57555 0.55618 0.12029 0.0
C1202 C 0.5847 0.56968 0.1269 0.0
C1203 C 0.58513 0.57209 0.14471 0.0
C1204 C 0.57608 0.56131 0.15568 0.0
C1205 C 0.59307 0.58147 0.11509 0.0
C1206 C 0.60762 0.58878 0.11625 0.0
C1207 C 0.58667 0.58544 0.10261 0.0
C1208 C 0.57134 0.57852 0.10126 0.0
C1209 C 0.56339 0.57833 0.11545 0.0
C1210 C 0.54894 0.57164 0.11415 0.0
C1211 C 0.54233 0.5652 0.09868 0.0
C1212 C 0.55016 0.56547 0.08447 0.0
C1213 C 0.56462 0.57213 0.0857 0.0
H1214 H 0.53114 0.56003 0.09771 0.0
H1215 H 0.67138 0.6275 0.11278 0.0
H1216 H 0.35553 0.98132 0.07099 0.0
H1217 H 0.37367 0.987 0.09223 0.0
H1218 H 0.40208 0.02392 0.06375 0.0
H1219 H 0.38385 0.01842 0.04252 0.0
H1220 H 0.41175 0.00504 0.07091 0.0
H1221 H 0.39246 0.02921 0.10063 0.0
H1222 H 0.37376 0.03189 0.11342 0.0
H1223 H 0.36383 0.99832 0.14823 0.0
H1224 H 0.38235 0.99529 0.13548 0.0
H1225 H 0.46565 0.02218 0.13011 0.0
H1226 H 0.44919 0.02412 0.11187 0.0
H1227 H 0.41521 0.99324 0.14249 0.0
H1228 H 0.43166 0.99204 0.16161 0.0
H1229 H 0.40953 0.01201 0.13377 0.0
H1230 H 0.42566 0.98531 0.10274 0.0
H1231 H 0.44302 0.98062 0.0897 0.0
H1232 H 0.45728 0.01639 0.05715 0.0
H1233 H 0.44011 0.0214 0.07016 0.0
C1234 C 0.36556 0.99079 0.0694 0.0
C1235 C 0.36828 0.99941 0.05506 0.0
C1236 C 0.3759 0.99404 0.08158 0.0
C1237 C 0.38921 0.00588 0.07956 0.0
C1238 C 0.39186 0.01475 0.06554 0.0
C1239 C 0.38142 0.01164 0.05349 0.0
C1240 C 0.40055 0.00822 0.09134 0.0
C1241 C 0.41146 0.00688 0.08462 0.0
C1242 C 0.39987 0.01014 0.10926 0.0
C1243 C 0.38874 0.01195 0.11699 0.0
C1244 C 0.38622 0.02231 0.11091 0.0
C1245 C 0.37566 0.02392 0.11818 0.0
C1246 C 0.36759 0.01527 0.1316 0.0
C1247 C 0.37009 0.00501 0.13782 0.0
C1248 C 0.38062 0.00336 0.13059 0.0
C1249 C 0.45471 0.01601 0.13325 0.0
C1250 C 0.45004 0.00685 0.14734 0.0
C1251 C 0.44527 0.01699 0.12261 0.0
C1252 C 0.4309 0.00859 0.12552 0.0
C1253 C 0.42623 0.99977 0.13986 0.0
C1254 C 0.43567 0.99895 0.15068 0.0
C1255 C 0.42071 0.00865 0.1134 0.0
C1256 C 0.40998 0.01038 0.12005 0.0
C1257 C 0.42139 0.00681 0.09541 0.0
C1258 C 0.43171 0.00382 0.08756 0.0
C1259 C 0.43257 0.99223 0.09289 0.0
C1260 C 0.44236 0.98951 0.08549 0.0
C1261 C 0.45128 0.99823 0.07264 0.0
C1262 C 0.45039 0.00966 0.06713 0.0
C1263 C 0.44062 0.01245 0.0745 0.0
H1264 H 0.45885 0.9961 0.06692 0.0
H1265 H 0.35943 0.01652 0.13721 0.0
H1266 H 0.37229 0.01401 0.96765 0.0
H1267 H 0.38816 0.01708 0.94408 0.0
H1268 H 0.37964 0.97492 0.95131 0.0
H1269 H 0.36358 0.97163 0.97454 0.0
H1270 H 0.41141 0.01723 0.94417 0.0
H1271 H 0.38257 0.96074 0.91443 0.0
H1272 H 0.3585 0.94154 0.90916 0.0
H1273 H 0.34467 0.97113 0.90958 0.0
H1274 H 0.36867 0.99053 0.91461 0.0
H1275 H 0.45828 0.00326 0.90138 0.0
H1276 H 0.43984 0.00221 0.91939 0.0
H1277 H 0.41714 1.00052 0.874 0.0
H1278 H 0.43556 0.0014 0.85585 0.0
H1279 H 0.39996 0.98261 0.89672 0.0
H1280 H 0.43487 0.03091 0.89804 0.0
H1281 H 0.45844 0.05153 0.90142 0.0
H1282 H 0.45906 0.04109 0.95423 0.0
H1283 H 0.43556 0.02028 0.95111 0.0
C1284 C 0.3737 0.00534 0.96414 0.0
C1285 C 0.36663 0.99256 0.97302 0.0
C1286 C 0.38279 0.00713 0.95066 0.0
C1287 C 0.385 0.99619 0.94578 0.0
C1288 C 0.37791 0.98342 0.95457 0.0
C1289 C 0.36876 0.98158 0.96795 0.0
C1290 C 0.39523 0.99829 0.93214 0.0
C1291 C 0.40888 0.0097 0.93374 0.0
C1292 C 0.39188 0.98868 0.91826 0.0
C1293 C 0.37742 0.97708 0.91503 0.0
C1294 C 0.37441 0.96316 0.91331 0.0
C1295 C 0.36077 0.95224 0.91038 0.0
C1296 C 0.35006 0.95511 0.90908 0.0
C1297 C 0.35296 0.96891 0.91065 0.0
C1298 C 0.36658 0.97987 0.91357 0.0
C1299 C 0.4494 0.00276 0.89523 0.0
C1300 C 0.44841 0.00252 0.8772 0.0
C1301 C 0.43887 0.00217 0.90554 0.0
C1302 C 0.42721 0.00154 0.89806 0.0
C1303 C 0.42606 0.00105 0.88005 0.0
C1304 C 0.43656 0.00152 0.86971 0.0
C1305 C 0.41622 0.00126 0.90914 0.0
C1306 C 0.40245 0.99021 0.90705 0.0
C1307 C 0.41937 0.01141 0.92231 0.0
C1308 C 0.43348 0.02397 0.9243 0.0
C1309 C 0.44007 0.03296 0.91035 0.0
C1310 C 0.45341 0.04469 0.91222 0.0
C1311 C 0.46025 0.04761 0.92802 0.0
C1312 C 0.45375 0.03881 0.94199 0.0
C1313 C 0.44041 0.02705 0.94019 0.0
H1314 H 0.47058 0.0567 0.92944 0.0
H1315 H 0.33951 0.94664 0.90683 0.0
H1316 H 0.01927 0.38004 0.97592 0.0
H1317 H 0.02392 0.39788 0.95443 0.0
H1318 H 0.98028 0.37654 0.94209 0.0
H1319 H 0.97558 0.35864 0.96311 0.0
H1320 H 0.99527 0.38508 0.91361 0.0
H1321 H 0.99595 0.40565 0.96927 0.0
H1322 H 0.00431 0.41356 0.99889 0.0
H1323 H 0.04544 0.44156 0.97981 0.0
H1324 H 0.03735 0.43367 0.95007 0.0
H1325 H 0.98321 0.43661 0.88023 0.0
H1326 H 0.98418 0.41949 0.89855 0.0
H1327 H 0.02891 0.4443 0.89852 0.0
H1328 H 0.02813 0.46127 0.87953 0.0
H1329 H 0.01688 0.43502 0.93178 0.0
H1330 H 0.01554 0.41628 0.876 0.0
H1331 H 0.00712 0.40876 0.84646 0.0
H1332 H 0.96719 0.3774 0.86569 0.0
H1333 H 0.97534 0.38494 0.89548 0.0
C1334 C 0.01069 0.37907 0.96851 0.0
C1335 C 0.99703 0.36793 0.97139 0.0
C1336 C 0.01336 0.38933 0.95629 0.0
C1337 C 0.00242 0.38867 0.9468 0.0
C1338 C 0.98889 0.37731 0.94926 0.0
C1339 C 0.98622 0.36709 0.96139 0.0
C1340 C 0.0048 0.39987 0.93457 0.0
C1341 C 0.99992 0.39598 0.91764 0.0
C1342 C 0.01124 0.41419 0.93963 0.0
C1343 C 0.01609 0.41895 0.95748 0.0
C1344 C 0.0068 0.41341 0.97141 0.0
C1345 C 0.01148 0.41791 0.98821 0.0
C1346 C 0.0254 0.42802 0.99123 0.0
C1347 C 0.03466 0.4337 0.97745 0.0
C1348 C 0.03004 0.42923 0.96062 0.0
C1349 C 0.99329 0.43837 0.88381 0.0
C1350 C 0.00559 0.45035 0.87824 0.0
C1351 C 0.99381 0.4286 0.89442 0.0
C1352 C 0.00661 0.43061 0.89983 0.0
C1353 C 0.01892 0.44259 0.89453 0.0
C1354 C 0.01843 0.45231 0.88372 0.0
C1355 C 0.00701 0.42011 0.91104 0.0
C1356 C 0.0124 0.42415 0.92773 0.0
C1357 C 1.00101 0.40592 0.90581 0.0
C1358 C 0.99602 0.40127 0.88796 0.0
C1359 C 0.00493 0.40786 0.87394 0.0
C1360 C 1.0002 0.40357 0.85714 0.0
C1361 C 0.98661 0.39261 0.85415 0.0
C1362 C 0.97772 0.3859 0.86801 0.0
C1363 C 0.98239 0.39017 0.88487 0.0
H1364 H 0.98298 0.3893 0.84111 0.0
H1365 H 0.02901 0.43149 0.00425 0.0
H1366 H 0.63159 0.62288 0.97677 0.0
H1367 H 0.61636 0.60717 0.95402 0.0
H1368 H 0.60525 0.63777 0.9407 0.0
H1369 H 0.61998 0.6532 0.9638 0.0
H1370 H 0.583 0.61359 0.94392 0.0
H1371 H 0.62702 0.62961 0.91511 0.0
H1372 H 0.6506 0.6335 0.91149 0.0
H1373 H 0.63444 0.58922 0.91561 0.0
H1374 H 0.6108 0.58509 0.91954 0.0
H1375 H 0.5449 0.58159 0.86838 0.0
H1376 H 0.56308 0.59791 0.88816 0.0
H1377 H 0.57162 0.56551 0.90169 0.0
H1378 H 0.55355 0.5492 0.88176 0.0
H1379 H 0.59521 0.58999 0.8984 0.0
H1380 H 0.55201 0.5736 0.92787 0.0
H1381 H 0.52806 0.56864 0.93165 0.0
H1382 H 0.54241 0.61254 0.92723 0.0
H1383 H 0.56643 0.61774 0.92317 0.0
C1384 C 0.62605 0.62632 0.96881 0.0
C1385 C 0.6269 0.63923 0.97214 0.0
C1386 C 0.61738 0.61736 0.95576 0.0
C1387 C 0.60968 0.62131 0.94555 0.0
C1388 C 0.611 0.63445 0.94845 0.0
C1389 C 0.61945 0.64328 0.96165 0.0
C1390 C 0.59947 0.61144 0.9327 0.0
C1391 C 0.58577 0.60863 0.9338 0.0
C1392 C 0.60288 0.6045 0.91989 0.0
C1393 C 0.61715 0.60706 0.91776 0.0
C1394 C 0.62851 0.62072 0.91541 0.0
C1395 C 0.64189 0.62297 0.91327 0.0
C1396 C 0.64401 0.61161 0.91333 0.0
C1397 C 0.63278 0.598 0.91558 0.0
C1398 C 0.61939 0.5957 0.91775 0.0
C1399 C 0.55066 0.57796 0.87559 0.0
C1400 C 0.54776 0.5641 0.87362 0.0
C1401 C 0.56104 0.58728 0.88687 0.0
C1402 C 0.56856 0.58285 0.8966 0.0
C1403 C 0.56594 0.56914 0.89431 0.0
C1404 C 0.55563 0.55984 0.88292 0.0
C1405 C 0.5789 0.59242 0.90948 0.0
C1406 C 0.59253 0.59506 0.90848 0.0
C1407 C 0.57543 0.59913 0.92251 0.0
C1408 C 0.561 0.59604 0.92505 0.0
C1409 C 0.55004 0.58218 0.92758 0.0
C1410 C 0.53645 0.57933 0.92979 0.0
C1411 C 0.53371 0.59026 0.92963 0.0
C1412 C 0.54455 0.60408 0.92732 0.0
C1413 C 0.55815 0.60699 0.92508 0.0
H1414 H 0.52318 0.58803 0.93135 0.0
H1415 H 0.65433 0.61331 0.91156 0.0
H1416 H 0.98403 0.62417 0.97546 0.0
H1417 H 0.98016 0.60695 0.9529 0.0
H1418 H 0.02302 0.632 0.93731 0.0
H1419 H 0.02705 0.64926 0.95986 0.0
H1420 H 0.00416 0.62041 0.90939 0.0
H1421 H 0.0149 0.60616 0.96261 0.0
H1422 H 0.01179 0.60018 0.99338 0.0
H1423 H 0.97009 0.56656 0.98357 0.0
H1424 H 0.9729 0.57248 0.95275 0.0
H1425 H 0.01859 0.57179 0.86872 0.0
H1426 H 0.01792 0.58956 0.88695 0.0
H1427 H 0.97575 0.55948 0.90157 0.0
H1428 H 0.97645 0.54156 0.88355 0.0
H1429 H 0.99185 0.57308 0.92922 0.0
H1430 H 0.98196 0.58575 0.87528 0.0
H1431 H 0.9852 0.59169 0.84451 0.0
H1432 H 0.02505 0.62809 0.85532 0.0
H1433 H 0.02216 0.62225 0.88614 0.0
C1434 C 0.9926 0.62613 0.9671 0.0
C1435 C 0.0059 0.63804 0.96958 0.0
C1436 C 0.99036 0.61627 0.95424 0.0
C1437 C 1.00134 0.61817 0.94358 0.0
C1438 C 0.01443 0.63036 0.94544 0.0
C1439 C 0.01672 0.64016 0.9584 0.0
C1440 C 0.99945 0.60703 0.93128 0.0
C1441 C 1.00156 0.61008 0.91368 0.0
C1442 C 0.99574 0.59349 0.93692 0.0
C1443 C 0.99405 0.58987 0.95542 0.0
C1444 C 0.00502 0.59757 0.96704 0.0
C1445 C 0.00333 0.59418 0.98449 0.0
C1446 C 0.99073 0.58302 0.99044 0.0
C1447 C 0.97983 0.57521 0.97895 0.0
C1448 C 0.98147 0.57858 0.96149 0.0
C1449 C 0.00917 0.56898 0.8758 0.0
C1450 C 0.99759 0.55528 0.87476 0.0
C1451 C 0.00875 0.57917 0.88608 0.0
C1452 C 0.99674 0.57587 0.89549 0.0
C1453 C 0.9851 0.56225 0.89434 0.0
C1454 C 0.98549 0.55206 0.88398 0.0
C1455 C 0.99667 0.58645 0.90727 0.0
C1456 C 0.99426 0.58333 0.92482 0.0
C1457 C 1.00009 0.59991 0.90156 0.0
C1458 C 0.00189 0.60349 0.88302 0.0
C1459 C 0.99147 0.59495 0.87109 0.0
C1460 C 0.99324 0.59832 0.85363 0.0
C1461 C 0.00534 0.61024 0.84796 0.0
C1462 C 0.01569 0.61885 0.85973 0.0
C1463 C 0.01398 0.61553 0.8772 0.0
H1464 H 0.00668 0.61283 0.83444 0.0
H1465 H 0.98944 0.58041 0.00395 0.0
H1466 H 0.35917 0.37869 0.97175 0.0
H1467 H 0.37094 0.39771 0.95094 0.0
H1468 H 0.397 0.38145 0.93528 0.0
H1469 H 0.38534 0.36245 0.95572 0.0
H1470 H 0.41156 0.41015 0.94543 0.0
H1471 H 0.37293 0.37774 0.90913 0.0
H1472 H 0.34809 0.3629 0.90192 0.0
H1473 H 0.34344 0.39894 0.90484 0.0
H1474 H 0.36823 0.41397 0.91232 0.0
H1475 H 0.44916 0.44654 0.8737 0.0
H1476 H 0.43311 0.42831 0.89303 0.0
H1477 H 0.40757 0.44698 0.89504 0.0
H1478 H 0.42323 0.46491 0.87471 0.0
H1479 H 0.39159 0.41913 0.89392 0.0
H1480 H 0.42972 0.45197 0.9281 0.0
H1481 H 0.45428 0.46752 0.93617 0.0
H1482 H 0.45953 0.43191 0.93911 0.0
H1483 H 0.43504 0.41617 0.93081 0.0
C1484 C 0.36726 0.37904 0.9637 0.0
C1485 C 0.37137 0.36908 0.96556 0.0
C1486 C 0.37396 0.38991 0.95182 0.0
C1487 C 0.38488 0.391 0.94168 0.0
C1488 C 0.38864 0.38082 0.94307 0.0
C1489 C 0.38192 0.36993 0.95478 0.0
C1490 C 0.39309 0.40317 0.93036 0.0
C1491 C 0.40723 0.41206 0.93409 0.0
C1492 C 0.38727 0.40598 0.91601 0.0
C1493 C 0.37239 0.39694 0.91149 0.0
C1494 C 0.36658 0.38248 0.90841 0.0
C1495 C 0.35252 0.37404 0.90423 0.0
C1496 C 0.34418 0.37996 0.90298 0.0
C1497 C 0.3499 0.39435 0.90585 0.0
C1498 C 0.36396 0.40284 0.91005 0.0
C1499 C 0.44001 0.44668 0.87792 0.0
C1500 C 0.43753 0.45726 0.87259 0.0
C1501 C 0.43091 0.43632 0.88921 0.0
C1502 C 0.41928 0.43643 0.89579 0.0
C1503 C 0.41655 0.44675 0.89023 0.0
C1504 C 0.42559 0.45708 0.87875 0.0
C1505 C 0.41021 0.42585 0.90866 0.0
C1506 C 0.39591 0.41732 0.90534 0.0
C1507 C 0.41582 0.42348 0.92359 0.0
C1508 C 0.43055 0.4329 0.92871 0.0
C1509 C 0.43613 0.44747 0.93036 0.0
C1510 C 0.45004 0.45631 0.93499 0.0
C1511 C 0.45846 0.45071 0.93812 0.0
C1512 C 0.45299 0.43624 0.93667 0.0
C1513 C 0.43909 0.42735 0.93202 0.0
H1514 H 0.46923 0.45757 0.9417 0.0
H1515 H 0.33329 0.37341 0.89975 0.0
H1516 H 0.61859 0.9963 0.98471 0.0
H1517 H 0.60112 0.99184 0.96306 0.0
H1518 H 0.6325 0.00569 0.92336 0.0
H1519 H 0.65018 0.01132 0.94541 0.0
H1520 H 0.61906 0.01672 0.91709 0.0
H1521 H 0.60339 0.96908 0.92944 0.0
H1522 H 0.59616 0.94813 0.94706 0.0
H1523 H 0.5618 0.95087 0.96699 0.0
H1524 H 0.56892 0.97194 0.94967 0.0
H1525 H 0.56635 0.9982 0.85353 0.0
H1526 H 0.58349 0.99635 0.8709 0.0
H1527 H 0.562 0.99636 0.91716 0.0
H1528 H 0.54484 0.99815 0.89991 0.0
H1529 H 0.5707 0.97623 0.91682 0.0
H1530 H 0.5894 0.026 0.90511 0.0
H1531 H 0.59669 0.0458 0.88538 0.0
H1532 H 0.62585 0.03675 0.86126 0.0
H1533 H 0.61861 0.01678 0.88074 0.0
C1534 C 0.62164 0.9981 0.9713 0.0
C1535 C 0.63562 0.004 0.96661 0.0
C1536 C 0.61164 0.99546 0.95886 0.0
C1537 C 0.61532 0.99814 0.94137 0.0
C1538 C 0.6293 0.00352 0.93669 0.0
C1539 C 0.63939 0.00663 0.94923 0.0
C1540 C 0.60491 0.99657 0.92831 0.0
C1541 C 0.60861 0.00766 0.91685 0.0
C1542 C 0.59112 0.98487 0.92791 0.0
C1543 C 0.58676 0.97216 0.93832 0.0
C1544 C 0.59435 0.96527 0.93766 0.0
C1545 C 0.59026 0.95336 0.94759 0.0
C1546 C 0.57855 0.94819 0.95816 0.0
C1547 C 0.57088 0.95489 0.9588 0.0
C1548 C 0.57492 0.9668 0.9489 0.0
C1549 C 0.5652 0.99764 0.86739 0.0
C1550 C 0.55432 0.99842 0.87538 0.0
C1551 C 0.57501 0.99663 0.87729 0.0
C1552 C 0.57404 0.99629 0.89531 0.0
C1553 C 0.56293 0.9966 0.90327 0.0
C1554 C 0.55321 0.99774 0.89341 0.0
C1555 C 0.58495 0.99637 0.90602 0.0
C1556 C 0.58129 0.98507 0.917 0.0
C1557 C 0.59885 0.00766 0.9057 0.0
C1558 C 0.60337 0.01983 0.89426 0.0
C1559 C 0.59731 0.02819 0.89554 0.0
C1560 C 0.60145 0.03945 0.88441 0.0
C1561 C 0.61171 0.04251 0.87205 0.0
C1562 C 0.6179 0.03436 0.87083 0.0
C1563 C 0.61379 0.02308 0.88192 0.0
H1564 H 0.61488 0.05122 0.86343 0.0
H1565 H 0.5754 0.93897 0.96584 0.0
H1566 H 0.63435 0.03042 0.03847 0.0
H1567 H 0.61834 0.028 0.06132 0.0
H1568 H 0.62087 0.99363 0.08242 0.0
H1569 H 0.63649 0.9956 0.05896 0.0
H1570 H 0.59544 0.9873 0.08355 0.0
H1571 H 0.63758 0.02772 0.1015 0.0
H1572 H 0.65893 0.05091 0.09888 0.0
H1573 H 0.63453 0.06966 0.08828 0.0
H1574 H 0.61304 0.04654 0.0906 0.0
H1575 H 0.56054 0.99055 0.16019 0.0
H1576 H 0.57862 0.99196 0.141 0.0
H1577 H 0.57373 0.02006 0.10813 0.0
H1578 H 0.55534 0.01835 0.12678 0.0
H1579 H 0.60172 0.029 0.11599 0.0
H1580 H 0.55961 0.98713 0.09635 0.0
H1581 H 0.5388 0.96371 0.10025 0.0
H1582 H 0.56441 0.94757 0.11634 0.0
H1583 H 0.58537 0.97097 0.11275 0.0
C1584 C 0.63159 0.0224 0.04803 0.0
C1585 C 0.63679 0.01327 0.04697 0.0
C1586 C 0.62247 0.02107 0.06118 0.0
C1587 C 0.61861 0.01085 0.07389 0.0
C1588 C 0.62373 0.00166 0.07283 0.0
C1589 C 0.63268 0.00281 0.05944 0.0
C1590 C 0.6089 0.00956 0.08789 0.0
C1591 C 0.59699 0.99639 0.09086 0.0
C1592 C 0.61079 0.02141 0.09742 0.0
C1593 C 0.6237 0.03537 0.09611 0.0
C1594 C 0.63677 0.03677 0.0985 0.0
C1595 C 0.6489 0.04991 0.09708 0.0
C1596 C 0.64809 0.06174 0.09338 0.0
C1597 C 0.63514 0.06048 0.09114 0.0
C1598 C 0.62298 0.04736 0.09253 0.0
C1599 C 0.56319 0.99692 0.14879 0.0
C1600 C 0.55643 0.00433 0.14507 0.0
C1601 C 0.57358 0.99777 0.1379 0.0
C1602 C 0.57747 0.00609 0.12315 0.0
C1603 C 0.57093 0.01365 0.11952 0.0
C1604 C 0.56046 0.01271 0.13028 0.0
C1605 C 0.58825 0.00686 0.11129 0.0
C1606 C 0.60034 0.01993 0.10878 0.0
C1607 C 0.58664 0.9949 0.10243 0.0
C1608 C 0.57404 0.98083 0.10447 0.0
C1609 C 0.56079 0.97862 0.10086 0.0
C1610 C 0.54897 0.96534 0.10299 0.0
C1611 C 0.55027 0.95417 0.10859 0.0
C1612 C 0.56341 0.95624 0.11203 0.0
C1613 C 0.57527 0.9695 0.10994 0.0
H1614 H 0.54111 0.9439 0.11023 0.0
H1615 H 0.65749 0.0719 0.09228 0.0
H1616 H 0.98495 0.62724 0.05121 0.0
H1617 H 0.98122 0.60916 0.07196 0.0
H1618 H 0.02543 0.62633 0.07486 0.0
H1619 H 0.0293 0.64433 0.05438 0.0
H1620 H 0.01067 0.59771 0.06843 0.0
H1621 H 0.00897 0.63133 0.10729 0.0
H1622 H 0.99984 0.64609 0.11792 0.0
H1623 H 0.9594 0.60943 0.12411 0.0
H1624 H 0.96824 0.59446 0.11328 0.0
H1625 H 0.0227 0.56665 0.13822 0.0
H1626 H 0.02185 0.58325 0.11889 0.0
H1627 H 0.97752 0.56287 0.1262 0.0
H1628 H 0.97836 0.54651 0.14626 0.0
H1629 H 0.9891 0.59091 0.12617 0.0
H1630 H 0.99066 0.55701 0.0896 0.0
H1631 H 0.99918 0.54181 0.07869 0.0
H1632 H 0.03879 0.57814 0.06723 0.0
H1633 H 0.03057 0.59356 0.07832 0.0
C1634 C 0.99389 0.62726 0.05641 0.0
C1635 C 0.00743 0.63723 0.05101 0.0
C1636 C 0.99173 0.61693 0.06828 0.0
C1637 C 0.00306 0.61638 0.07489 0.0
C1638 C 0.01655 0.62651 0.06984 0.0
C1639 C 0.01872 0.63684 0.05814 0.0
C1640 C 1.00104 0.60499 0.0865 0.0
C1641 C 0.00605 0.59629 0.08111 0.0
C1642 C 0.99453 0.60281 0.10276 0.0
C1643 C 0.98922 0.6118 0.10927 0.0
C1644 C 0.9981 0.62643 0.11076 0.0
C1645 C 0.99298 0.63483 0.11685 0.0
C1646 C 0.97904 0.6287 0.12163 0.0
C1647 C 0.97019 0.61416 0.12037 0.0
C1648 C 0.97525 0.60571 0.11426 0.0
C1649 C 0.01277 0.56578 0.13595 0.0
C1650 C 1.00059 0.5552 0.14382 0.0
C1651 C 0.01228 0.5752 0.12471 0.0
C1652 C 0.99958 0.57417 0.12085 0.0
C1653 C 0.98742 0.56382 0.1289 0.0
C1654 C 0.98791 0.55439 0.14024 0.0
C1655 C 0.99913 0.5839 0.10828 0.0
C1656 C 0.9936 0.59223 0.11343 0.0
C1657 C 0.00505 0.58568 0.09168 0.0
C1658 C 0.01002 0.57644 0.08492 0.0
C1659 C 1.00122 0.56176 0.08487 0.0
C1660 C 0.00599 0.5531 0.07864 0.0
C1661 C 0.01952 0.55901 0.0723 0.0
C1662 C 0.02831 0.57358 0.07215 0.0
C1663 C 0.02359 0.58229 0.07839 0.0
H1664 H 0.02319 0.55229 0.06748 0.0
H1665 H 0.9751 0.63522 0.12636 0.0
H1666 H 0.39873 0.36897 0.03709 0.0
H1667 H 0.41289 0.38379 0.06082 0.0
H1668 H 0.3771 0.38308 0.08291 0.0
H1669 H 0.3629 0.36862 0.0586 0.0
H1670 H 0.39849 0.4082 0.08618 0.0
H1671 H 0.39035 0.36316 0.09979 0.0
H1672 H 0.38883 0.3404 0.09505 0.0
H1673 H 0.43269 0.3616 0.08517 0.0
H1674 H 0.43445 0.3845 0.08961 0.0
H1675 H 0.43957 0.43695 0.16425 0.0
H1676 H 0.4211 0.42053 0.14481 0.0
H1677 H 0.45177 0.42544 0.10733 0.0
H1678 H 0.47024 0.44239 0.12611 0.0
H1679 H 0.43011 0.3964 0.11589 0.0
H1680 H 0.43645 0.4417 0.09984 0.0
H1681 H 0.43698 0.4638 0.10617 0.0
H1682 H 0.39464 0.44052 0.12351 0.0
H1683 H 0.39394 0.41826 0.1175 0.0
C1684 C 0.39384 0.37192 0.04701 0.0
C1685 C 0.37967 0.36751 0.04606 0.0
C1686 C 0.40194 0.38034 0.06065 0.0
C1687 C 0.396 0.38425 0.07394 0.0
C1688 C 0.3819 0.38011 0.07289 0.0
C1689 C 0.3738 0.37184 0.05901 0.0
C1690 C 0.40472 0.39287 0.08866 0.0
C1691 C 0.40518 0.40545 0.09291 0.0
C1692 C 0.41348 0.38932 0.09752 0.0
C1693 C 0.41251 0.37556 0.09493 0.0
C1694 C 0.39966 0.36297 0.0965 0.0
C1695 C 0.39876 0.35004 0.09388 0.0
C1696 C 0.41065 0.34955 0.08978 0.0
C1697 C 0.42348 0.36199 0.08834 0.0
C1698 C 0.42444 0.37496 0.09093 0.0
C1699 C 0.44242 0.43472 0.15178 0.0
C1700 C 0.45646 0.44103 0.14682 0.0
C1701 C 0.43184 0.42525 0.14076 0.0
C1702 C 0.43513 0.42179 0.12471 0.0
C1703 C 0.44907 0.42793 0.11976 0.0
C1704 C 0.45962 0.43755 0.1306 0.0
C1705 C 0.42411 0.4118 0.1129 0.0
C1706 C 0.42322 0.39896 0.1093 0.0
C1707 C 0.41479 0.41496 0.10493 0.0
C1708 C 0.4152 0.42833 0.10843 0.0
C1709 C 0.4273 0.4413 0.10516 0.0
C1710 C 0.42762 0.45385 0.10865 0.0
C1711 C 0.41587 0.45357 0.11529 0.0
C1712 C 0.40375 0.44072 0.1184 0.0
C1713 C 0.40338 0.42814 0.11494 0.0
H1714 H 0.41613 0.4633 0.11798 0.0
H1715 H 0.40993 0.33953 0.08775 0.0
H1716 H 0.646 0.70792 0.36839 0.0
H1717 H 0.64813 0.72375 0.39187 0.0
H1718 H 0.68035 0.71911 0.41488 0.0
H1719 H 0.67852 0.70339 0.39107 0.0
H1720 H 0.65613 0.71596 0.43764 0.0
H1721 H 0.69262 0.74713 0.39971 0.0
H1722 H 0.70303 0.75748 0.3717 0.0
H1723 H 0.6736 0.77089 0.36562 0.0
H1724 H 0.66287 0.76042 0.3935 0.0
H1725 H 0.66918 0.771 0.49793 0.0
H1726 H 0.67233 0.75579 0.47762 0.0
H1727 H 0.65068 0.76442 0.43861 0.0
H1728 H 0.64807 0.78008 0.45849 0.0
H1729 H 0.67304 0.76597 0.42542 0.0
H1730 H 0.63508 0.73313 0.46119 0.0
H1731 H 0.62353 0.72212 0.48849 0.0
H1732 H 0.6545 0.71132 0.49821 0.0
H1733 H 0.66633 0.72241 0.47102 0.0
C1734 C 0.65352 0.71021 0.37845 0.0
C1735 C 0.6621 0.70441 0.37789 0.0
C1736 C 0.65474 0.71928 0.39182 0.0
C1737 C 0.66439 0.72256 0.40503 0.0
C1738 C 0.67284 0.71665 0.40475 0.0
C1739 C 0.67182 0.70776 0.39114 0.0
C1740 C 0.6656 0.73236 0.41891 0.0
C1741 C 0.66011 0.72698 0.43517 0.0
C1742 C 0.6705 0.74661 0.41544 0.0
C1743 C 0.67688 0.75289 0.39864 0.0
C1744 C 0.68828 0.75216 0.39233 0.0
C1745 C 0.69426 0.75808 0.3765 0.0
C1746 C 0.68898 0.76484 0.3669 0.0
C1747 C 0.67769 0.76567 0.37309 0.0
C1748 C 0.67166 0.75975 0.38892 0.0
C1749 C 0.66518 0.76974 0.48498 0.0
C1750 C 0.65831 0.77673 0.47987 0.0
C1751 C 0.66688 0.76093 0.47344 0.0
C1752 C 0.66163 0.75886 0.45663 0.0
C1753 C 0.65481 0.76584 0.45151 0.0
C1754 C 0.65318 0.77468 0.46298 0.0
C1755 C 0.66329 0.74955 0.44418 0.0
C1756 C 0.66928 0.75502 0.4281 0.0
C1757 C 0.65874 0.73536 0.44782 0.0
C1758 C 0.65167 0.72873 0.46417 0.0
C1759 C 0.63949 0.72851 0.46922 0.0
C1760 C 0.63288 0.72224 0.48465 0.0
C1761 C 0.6383 0.71605 0.49509 0.0
C1762 C 0.65033 0.71613 0.49011 0.0
C1763 C 0.65699 0.72239 0.47469 0.0
H1764 H 0.63313 0.71115 0.50699 0.0
H1765 H 0.69366 0.76946 0.35469 0.0
H1766 H 0.28427 0.97714 0.39983 0.0
H1767 H 0.27288 0.95954 0.422 0.0
H1768 H 0.29794 0.94165 0.40831 0.0
H1769 H 0.30928 0.95912 0.38574 0.0
H1770 H 0.2716 0.92163 0.41131 0.0
H1771 H 0.30338 0.96021 0.44621 0.0
H1772 H 0.31582 0.98451 0.45747 0.0
H1773 H 0.27731 0.97976 0.47529 0.0
H1774 H 0.2646 0.95548 0.46392 0.0
H1775 H 0.24463 0.87543 0.48314 0.0
H1776 H 0.26105 0.89416 0.46425 0.0
H1777 H 0.23668 0.91403 0.46808 0.0
H1778 H 0.22001 0.89519 0.48653 0.0
H1779 H 0.2652 0.93295 0.4714 0.0
H1780 H 0.23359 0.895 0.43357 0.0
H1781 H 0.22151 0.87064 0.42249 0.0
H1782 H 0.26072 0.87436 0.41067 0.0
H1783 H 0.27305 0.89871 0.42192 0.0
C1784 C 0.2875 0.96957 0.40158 0.0
C1785 C 0.29771 0.96957 0.39093 0.0
C1786 C 0.281 0.95953 0.41437 0.0
C1787 C 0.28465 0.94935 0.41698 0.0
C1788 C 0.29498 0.94942 0.40656 0.0
C1789 C 0.30147 0.95945 0.39368 0.0
C1790 C 0.27711 0.93822 0.42997 0.0
C1791 C 0.27046 0.92412 0.42454 0.0
C1792 C 0.27542 0.94144 0.44719 0.0
C1793 C 0.28302 0.95604 0.45408 0.0
C1794 C 0.29754 0.96438 0.45241 0.0
C1795 C 0.30465 0.97815 0.45883 0.0
C1796 C 0.29736 0.98368 0.46706 0.0
C1797 C 0.28295 0.97545 0.46891 0.0
C1798 C 0.27579 0.96168 0.46249 0.0
C1799 C 0.24269 0.88372 0.47988 0.0
C1800 C 0.23093 0.88373 0.48633 0.0
C1801 C 0.25214 0.89446 0.46916 0.0
C1802 C 0.25004 0.90544 0.46471 0.0
C1803 C 0.23853 0.90568 0.47144 0.0
C1804 C 0.22903 0.89492 0.48205 0.0
C1805 C 0.25956 0.91647 0.45261 0.0
C1806 C 0.26655 0.93052 0.45822 0.0
C1807 C 0.26164 0.91321 0.4356 0.0
C1808 C 0.25424 0.89861 0.42877 0.0
C1809 C 0.23964 0.89058 0.42874 0.0
C1810 C 0.23275 0.87679 0.42241 0.0
C1811 C 0.24034 0.87094 0.41593 0.0
C1812 C 0.25485 0.8789 0.41572 0.0
C1813 C 0.2618 0.89269 0.42207 0.0
H1814 H 0.23499 0.86026 0.41102 0.0
H1815 H 0.30288 0.99435 0.47203 0.0
H1816 H 0.04388 0.35262 0.38528 0.0
H1817 H 0.06189 0.3586 0.40691 0.0
H1818 H 0.04902 0.31483 0.4108 0.0
H1819 H 0.03083 0.30875 0.38973 0.0
H1820 H 0.05459 0.32591 0.44129 0.0
H1821 H 0.07776 0.33901 0.38602 0.0
H1822 H 0.08461 0.35173 0.35857 0.0
H1823 H 0.10389 0.39111 0.38603 0.0
H1824 H 0.097 0.3786 0.41365 0.0
H1825 H 0.1297 0.34292 0.4537 0.0
H1826 H 0.11156 0.34197 0.43564 0.0
H1827 H 0.0944 0.35188 0.47971 0.0
H1828 H 0.11224 0.3523 0.49806 0.0
H1829 H 0.10382 0.35983 0.42676 0.0
H1830 H 0.05899 0.33396 0.47566 0.0
H1831 H 0.05242 0.31919 0.50149 0.0
H1832 H 0.07689 0.3018 0.48386 0.0
H1833 H 0.08345 0.31632 0.45785 0.0
C1834 C 0.04483 0.34426 0.39083 0.0
C1835 C 0.03593 0.33021 0.38566 0.0
C1836 C 0.05517 0.3477 0.40316 0.0
C1837 C 0.05695 0.33719 0.41035 0.0
C1838 C 0.04786 0.32314 0.4055 0.0
C1839 C 0.03746 0.31969 0.39336 0.0
C1840 C 0.06848 0.34065 0.42253 0.0
C1841 C 0.06534 0.33343 0.43815 0.0
C1842 C 0.08255 0.35037 0.41846 0.0
C1843 C 0.08673 0.35788 0.40187 0.0
C1844 C 0.08337 0.35038 0.38619 0.0
C1845 C 0.08728 0.35755 0.37061 0.0
C1846 C 0.09464 0.37222 0.37055 0.0
C1847 C 0.09816 0.37975 0.38609 0.0
C1848 C 0.09426 0.37263 0.40171 0.0
C1849 C 0.12202 0.34482 0.4596 0.0
C1850 C 0.12231 0.34748 0.47739 0.0
C1851 C 0.11175 0.34444 0.44921 0.0
C1852 C 0.10151 0.3467 0.45633 0.0
C1853 C 0.10208 0.34993 0.47396 0.0
C1854 C 0.11235 0.35026 0.48441 0.0
C1855 C 0.08991 0.34493 0.44536 0.0
C1856 C 0.09304 0.3525 0.43001 0.0
C1857 C 0.07585 0.33527 0.44946 0.0
C1858 C 0.07183 0.32635 0.46494 0.0
C1859 C 0.06293 0.32695 0.47729 0.0
C1860 C 0.05922 0.31863 0.49196 0.0
C1861 C 0.06428 0.30961 0.49435 0.0
C1862 C 0.07302 0.30884 0.48203 0.0
C1863 C 0.07675 0.31712 0.46734 0.0
H1864 H 0.06141 0.30319 0.50572 0.0
H1865 H 0.09766 0.37775 0.35847 0.0
H1866 H 0.0446 0.34685 0.30507 0.0
H1867 H 0.06013 0.34794 0.28208 0.0
H1868 H 0.03533 0.30297 0.27544 0.0
H1869 H 0.01994 0.30174 0.29851 0.0
H1870 H 0.06191 0.3112 0.27835 0.0
H1871 H 0.03547 0.32574 0.24549 0.0
H1872 H 0.0253 0.34028 0.23902 0.0
H1873 H 0.06608 0.37704 0.23715 0.0
H1874 H 0.07649 0.36275 0.24384 0.0
H1875 H 0.09547 0.30444 0.20537 0.0
H1876 H 0.07761 0.30429 0.22367 0.0
H1877 H 0.10274 0.34927 0.22983 0.0
H1878 H 0.12038 0.3496 0.21082 0.0
H1879 H 0.07594 0.3413 0.22678 0.0
H1880 H 0.10232 0.32724 0.26053 0.0
H1881 H 0.11281 0.31307 0.26748 0.0
H1882 H 0.07235 0.2758 0.26833 0.0
H1883 H 0.06164 0.28972 0.26115 0.0
C1884 C 0.04233 0.33721 0.29857 0.0
C1885 C 0.03106 0.3242 0.30376 0.0
C1886 C 0.05121 0.33786 0.28537 0.0
C1887 C 0.04888 0.32553 0.27699 0.0
C1888 C 0.03737 0.31261 0.28177 0.0
C1889 C 0.02856 0.31194 0.29498 0.0
C1890 C 0.05888 0.3259 0.26406 0.0
C1891 C 0.06479 0.31761 0.26693 0.0
C1892 C 0.06298 0.33459 0.24943 0.0
C1893 C 0.05675 0.34319 0.24533 0.0
C1894 C 0.04226 0.33694 0.24383 0.0
C1895 C 0.03646 0.34513 0.2401 0.0
C1896 C 0.04504 0.35958 0.23772 0.0
C1897 C 0.05945 0.36585 0.23902 0.0
C1898 C 0.0653 0.35771 0.24276 0.0
C1899 C 0.09711 0.31434 0.21032 0.0
C1900 C 0.10945 0.32703 0.20673 0.0
C1901 C 0.08693 0.31422 0.22094 0.0
C1902 C 0.08896 0.32674 0.22839 0.0
C1903 C 0.101 0.33947 0.22432 0.0
C1904 C 0.11114 0.33962 0.2136 0.0
C1905 C 0.07881 0.32648 0.24101 0.0
C1906 C 0.07296 0.33483 0.23815 0.0
C1907 C 0.07478 0.31789 0.25573 0.0
C1908 C 0.0812 0.3095 0.26014 0.0
C1909 C 0.09567 0.31601 0.26208 0.0
C1910 C 0.10166 0.30802 0.26607 0.0
C1911 C 0.09325 0.29354 0.2683 0.0
C1912 C 0.07885 0.28701 0.26658 0.0
C1913 C 0.07282 0.29495 0.26256 0.0
H1914 H 0.0979 0.28738 0.27139 0.0
H1915 H 0.04052 0.3659 0.23483 0.0
H1916 H 0.69121 0.72028 0.31195 0.0
H1917 H 0.69854 0.73949 0.29155 0.0
H1918 H 0.6632 0.71283 0.2595 0.0
H1919 H 0.65567 0.69368 0.27994 0.0
H1920 H 0.68903 0.7307 0.24102 0.0
H1921 H 0.65967 0.73248 0.28617 0.0
H1922 H 0.65345 0.73383 0.31634 0.0
H1923 H 0.69182 0.77294 0.32318 0.0
H1924 H 0.69841 0.77164 0.29316 0.0
H1925 H 0.67526 0.77492 0.19204 0.0
H1926 H 0.6752 0.75739 0.21048 0.0
H1927 H 0.70358 0.79007 0.2453 0.0
H1928 H 0.70286 0.80764 0.22755 0.0
H1929 H 0.68462 0.77042 0.26307 0.0
H1930 H 0.71341 0.77064 0.21777 0.0
H1931 H 0.72049 0.76986 0.18786 0.0
H1932 H 0.6852 0.72828 0.18133 0.0
H1933 H 0.6778 0.72887 0.21114 0.0
C1934 C 0.68517 0.71842 0.30038 0.0
C1935 C 0.67281 0.70551 0.2976 0.0
C1936 C 0.68935 0.72941 0.28877 0.0
C1937 C 0.68135 0.72758 0.2741 0.0
C1938 C 0.66951 0.71443 0.27075 0.0
C1939 C 0.6652 0.70353 0.28247 0.0
C1940 C 0.6845 0.73963 0.26305 0.0
C1941 C 0.68804 0.73939 0.24576 0.0
C1942 C 0.68359 0.75113 0.26943 0.0
C1943 C 0.67963 0.75186 0.2875 0.0
C1944 C 0.66686 0.74127 0.29417 0.0
C1945 C 0.66325 0.74204 0.31124 0.0
C1946 C 0.67226 0.75342 0.32171 0.0
C1947 C 0.68488 0.76408 0.31511 0.0
C1948 C 0.68856 0.76333 0.29807 0.0
C1949 C 0.68142 0.77843 0.20368 0.0
C1950 C 0.68898 0.79276 0.20831 0.0
C1951 C 0.68157 0.76836 0.2141 0.0
C1952 C 0.68957 0.77237 0.22919 0.0
C1953 C 0.69736 0.78668 0.23369 0.0
C1954 C 0.69705 0.79676 0.2234 0.0
C1955 C 0.68905 0.76154 0.2408 0.0
C1956 C 0.68592 0.76194 0.25826 0.0
C1957 C 0.69054 0.7503 0.23459 0.0
C1958 C 0.695 0.74985 0.21667 0.0
C1959 C 0.70711 0.76136 0.20993 0.0
C1960 C 0.71119 0.76095 0.19299 0.0
C1961 C 0.70329 0.74904 0.18269 0.0
C1962 C 0.69131 0.7375 0.18932 0.0
C1963 C 0.68718 0.73786 0.20625 0.0
H1964 H 0.70646 0.74874 0.16958 0.0
H1965 H 0.66942 0.75401 0.3349 0.0
H1966 H 0.30306 0.96043 0.30515 0.0
H1967 H 0.28791 0.94496 0.28213 0.0
H1968 H 0.26319 0.96447 0.28588 0.0
H1969 H 0.27807 0.97981 0.30881 0.0
H1970 H 0.24715 0.9366 0.28604 0.0
H1971 H 0.28509 0.97113 0.25294 0.0
H1972 H 0.30928 0.98582 0.24305 0.0
H1973 H 0.31018 0.94886 0.22828 0.0
H1974 H 0.28613 0.93394 0.23853 0.0
H1975 H 0.20746 0.91271 0.20979 0.0
H1976 H 0.2252 0.92825 0.23043 0.0
H1977 H 0.24283 0.9017 0.22914 0.0
H1978 H 0.22478 0.88571 0.20901 0.0
H1979 H 0.26277 0.93198 0.2277 0.0
H1980 H 0.22404 0.8977 0.26112 0.0
H1981 H 0.19935 0.8839 0.26945 0.0
H1982 H 0.19973 0.92186 0.28223 0.0
H1983 H 0.22438 0.9359 0.27371 0.0
C1984 C 0.29445 0.96149 0.301 0.0
C1985 C 0.29176 0.97134 0.30893 0.0
C1986 C 0.28584 0.95266 0.2878 0.0
C1987 C 0.27443 0.95357 0.28229 0.0
C1988 C 0.27189 0.96354 0.28998 0.0
C1989 C 0.28046 0.97234 0.3031 0.0
C1990 C 0.26473 0.94382 0.26902 0.0
C1991 C 0.25058 0.9357 0.27325 0.0
C1992 C 0.26923 0.94244 0.25242 0.0
C1993 C 0.28386 0.9514 0.24674 0.0
C1994 C 0.29052 0.96612 0.24784 0.0
C1995 C 0.30421 0.9745 0.24214 0.0
C1996 C 0.3113 0.96829 0.23512 0.0
C1997 C 0.30472 0.95368 0.23381 0.0
C1998 C 0.29107 0.94525 0.23959 0.0
C1999 C 0.21503 0.91008 0.21395 0.0
C2000 C 0.21456 0.89784 0.20785 0.0
C2001 C 0.22523 0.91905 0.22564 0.0
C2002 C 0.23523 0.91604 0.23135 0.0
C2003 C 0.23519 0.90419 0.22482 0.0
C2004 C 0.22489 0.8951 0.21326 0.0
C2005 C 0.24529 0.92496 0.24477 0.0
C2006 C 0.25945 0.93286 0.24057 0.0
C2007 C 0.24081 0.92628 0.26135 0.0
C2008 C 0.22602 0.91786 0.26663 0.0
C2009 C 0.21883 0.90311 0.26557 0.0
C2010 C 0.20485 0.89524 0.27035 0.0
C2011 C 0.19796 0.902 0.27632 0.0
C2012 C 0.20507 0.91664 0.27758 0.0
C2013 C 0.21905 0.92456 0.27279 0.0
H2014 H 0.18714 0.89589 0.28002 0.0
H2015 H 0.32187 0.97481 0.23061 0.0
H2016 H 0.65931 0.96859 0.29639 0.0
H2017 H 0.65875 0.95437 0.27161 0.0
H2018 H 0.69568 0.956 0.29031 0.0
H2019 H 0.69663 0.97062 0.31448 0.0
H2020 H 0.69821 0.95992 0.25792 0.0
H2021 H 0.66115 0.92635 0.29469 0.0
H2022 H 0.63926 0.9169 0.31103 0.0
H2023 H 0.61751 0.91464 0.26478 0.0
H2024 H 0.63932 0.92421 0.24819 0.0
H2025 H 0.69555 0.89915 0.2249 0.0
H2026 H 0.69403 0.91636 0.24311 0.0
H2027 H 0.66488 0.91695 0.20788 0.0
H2028 H 0.66679 0.90014 0.18903 0.0
H2029 H 0.6569 0.91342 0.24427 0.0
H2030 H 0.69453 0.94391 0.20729 0.0
H2031 H 0.71673 0.95231 0.19203 0.0
H2032 H 0.73782 0.95934 0.24026 0.0
H2033 H 0.7157 0.95078 0.25582 0.0
C2034 C 0.66728 0.96588 0.29517 0.0
C2035 C 0.67803 0.97074 0.30734 0.0
C2036 C 0.66693 0.95773 0.28104 0.0
C2037 C 0.67711 0.954 0.27914 0.0
C2038 C 0.68777 0.9588 0.29139 0.0
C2039 C 0.68827 0.96714 0.30525 0.0
C2040 C 0.67688 0.94512 0.2645 0.0
C2041 C 0.68918 0.94973 0.25503 0.0
C2042 C 0.66499 0.93198 0.26031 0.0
C2043 C 0.65188 0.92615 0.27025 0.0
C2044 C 0.65171 0.92392 0.28803 0.0
C2045 C 0.63932 0.91853 0.29733 0.0
C2046 C 0.62701 0.91522 0.28896 0.0
C2047 C 0.62706 0.91724 0.27125 0.0
C2048 C 0.63943 0.92263 0.26189 0.0
C2049 C 0.68902 0.90311 0.22076 0.0
C2050 C 0.68135 0.89827 0.2054 0.0
C2051 C 0.68809 0.91287 0.23129 0.0
C2052 C 0.67938 0.91792 0.22678 0.0
C2053 C 0.67163 0.91312 0.21156 0.0
C2054 C 0.67269 0.90346 0.20087 0.0
C2055 C 0.67833 0.92807 0.23827 0.0
C2056 C 0.66582 0.92372 0.24704 0.0
C2057 C 0.69008 0.94135 0.24203 0.0
C2058 C 0.70343 0.94661 0.23272 0.0
C2059 C 0.70388 0.94715 0.21465 0.0
C2060 C 0.71646 0.95195 0.20594 0.0
C2061 C 0.72868 0.95633 0.21517 0.0
C2062 C 0.72835 0.95594 0.23313 0.0
C2063 C 0.7158 0.95113 0.2419 0.0
H2064 H 0.7384 0.96005 0.2084 0.0
H2065 H 0.61743 0.91105 0.29618 0.0
H2066 H 0.0264 0.71048 0.30342 0.0
H2067 H 0.03809 0.72917 0.28216 0.0
H2068 H 0.07071 0.71967 0.27704 0.0
H2069 H 0.05916 0.70101 0.298 0.0
H2070 H 0.08026 0.74831 0.28315 0.0
H2071 H 0.04803 0.70987 0.24632 0.0
H2072 H 0.02478 0.69109 0.23697 0.0
H2073 H 0.01229 0.72139 0.23043 0.0
H2074 H 0.03543 0.74034 0.23999 0.0
H2075 H 0.11908 0.7824 0.2104 0.0
H2076 H 0.10358 0.76442 0.23057 0.0
H2077 H 0.07402 0.77804 0.22588 0.0
H2078 H 0.08942 0.79596 0.20528 0.0
H2079 H 0.06131 0.74903 0.22598 0.0
H2080 H 0.09355 0.78768 0.26043 0.0
H2081 H 0.11653 0.80683 0.27 0.0
H2082 H 0.12852 0.77686 0.28188 0.0
H2083 H 0.10568 0.75753 0.27212 0.0
C2084 C 0.03601 0.71231 0.29767 0.0
C2085 C 0.04184 0.70425 0.30246 0.0
C2086 C 0.04264 0.72296 0.28551 0.0
C2087 C 0.05526 0.72579 0.27808 0.0
C2088 C 0.061 0.71767 0.28267 0.0
C2089 C 0.05432 0.70695 0.29462 0.0
C2090 C 0.06287 0.7375 0.26592 0.0
C2091 C 0.07616 0.74843 0.2706 0.0
C2092 C 0.05729 0.73788 0.24982 0.0
C2093 C 0.04339 0.7265 0.24408 0.0
C2094 C 0.04028 0.71251 0.24306 0.0
C2095 C 0.02714 0.70184 0.23768 0.0
C2096 C 0.01705 0.70504 0.23316 0.0
C2097 C 0.02011 0.71893 0.23397 0.0
C2098 C 0.03323 0.72964 0.23936 0.0
C2099 C 0.1092 0.78146 0.21344 0.0
C2100 C 0.10549 0.79062 0.20624 0.0
C2101 C 0.1004 0.77125 0.22509 0.0
C2102 C 0.08773 0.77001 0.22989 0.0
C2103 C 0.08378 0.77887 0.2224 0.0
C2104 C 0.09263 0.78915 0.21074 0.0
C2105 C 0.07887 0.75963 0.24303 0.0
C2106 C 0.06534 0.749 0.2386 0.0
C2107 C 0.08417 0.75958 0.25946 0.0
C2108 C 0.09793 0.77116 0.26541 0.0
C2109 C 0.10113 0.78518 0.26495 0.0
C2110 C 0.11412 0.79606 0.27043 0.0
C2111 C 0.12399 0.79307 0.27651 0.0
C2112 C 0.12087 0.77917 0.27715 0.0
C2113 C 0.10789 0.76824 0.27166 0.0
H2114 H 0.13405 0.80151 0.28075 0.0
H2115 H 0.00688 0.69676 0.229 0.0
H2116 H 0.31499 0.34261 0.27617 0.0
H2117 H 0.29668 0.33532 0.25462 0.0
H2118 H 0.26561 0.31627 0.29448 0.0
H2119 H 0.28394 0.32255 0.31572 0.0
H2120 H 0.25517 0.30192 0.26749 0.0
H2121 H 0.27946 0.35186 0.27858 0.0
H2122 H 0.30014 0.37567 0.2806 0.0
H2123 H 0.30854 0.37392 0.22692 0.0
H2124 H 0.28797 0.35004 0.22463 0.0
H2125 H 0.2037 0.31504 0.23338 0.0
H2126 H 0.22212 0.31499 0.25011 0.0
H2127 H 0.24574 0.32112 0.20365 0.0
H2128 H 0.22724 0.32096 0.18681 0.0
H2129 H 0.26031 0.34079 0.23136 0.0
H2130 H 0.23277 0.29107 0.22091 0.0
H2131 H 0.2112 0.2679 0.22059 0.0
H2132 H 0.20764 0.27028 0.27541 0.0
H2133 H 0.22909 0.29357 0.27602 0.0
C2134 C 0.30422 0.33655 0.28018 0.0
C2135 C 0.30082 0.33316 0.29754 0.0
C2136 C 0.29376 0.33252 0.26792 0.0
C2137 C 0.27971 0.32567 0.27296 0.0
C2138 C 0.27633 0.32161 0.29021 0.0
C2139 C 0.28679 0.3252 0.30236 0.0
C2140 C 0.26867 0.32361 0.26064 0.0
C2141 C 0.25629 0.31048 0.25971 0.0
C2142 C 0.27009 0.33467 0.25022 0.0
C2143 C 0.28227 0.34913 0.25148 0.0
C2144 C 0.28575 0.35655 0.26723 0.0
C2145 C 0.29745 0.37005 0.26842 0.0
C2146 C 0.30567 0.37629 0.25391 0.0
C2147 C 0.30217 0.36907 0.23815 0.0
C2148 C 0.29049 0.35556 0.23689 0.0
C2149 C 0.21276 0.31623 0.22674 0.0
C2150 C 0.21407 0.31801 0.20883 0.0
C2151 C 0.22323 0.31613 0.23628 0.0
C2152 C 0.23525 0.318 0.22809 0.0
C2153 C 0.23651 0.3196 0.21017 0.0
C2154 C 0.22593 0.31946 0.20059 0.0
C2155 C 0.24687 0.31922 0.23843 0.0
C2156 C 0.25931 0.33223 0.23902 0.0
C2157 C 0.24535 0.30816 0.24881 0.0
C2158 C 0.23248 0.29413 0.24849 0.0
C2159 C 0.22732 0.28671 0.23288 0.0
C2160 C 0.21513 0.27354 0.23265 0.0
C2161 C 0.20804 0.26764 0.24797 0.0
C2162 C 0.21314 0.27488 0.26355 0.0
C2163 C 0.22533 0.28805 0.26385 0.0
H2164 H 0.1986 0.25744 0.24776 0.0
H2165 H 0.31474 0.38672 0.25486 0.0
H2166 H 0.29644 0.36005 0.36396 0.0
H2167 H 0.28188 0.35968 0.3876 0.0
H2168 H 0.29511 0.33657 0.41836 0.0
H2169 H 0.30904 0.33613 0.39411 0.0
H2170 H 0.26973 0.32662 0.42435 0.0
H2171 H 0.30763 0.37348 0.42449 0.0
H2172 H 0.3249 0.39653 0.41277 0.0
H2173 H 0.29224 0.40367 0.39809 0.0
H2174 H 0.27475 0.38058 0.40951 0.0
H2175 H 0.24006 0.34322 0.49832 0.0
H2176 H 0.25803 0.34409 0.47907 0.0
H2177 H 0.23854 0.35105 0.43587 0.0
H2178 H 0.22045 0.34987 0.45491 0.0
H2179 H 0.26956 0.37002 0.44012 0.0
H2180 H 0.23203 0.32066 0.4387 0.0
H2181 H 0.21612 0.2982 0.45282 0.0
H2182 H 0.25095 0.2972 0.47358 0.0
H2183 H 0.26706 0.31977 0.45977 0.0
C2184 C 0.29626 0.35491 0.37578 0.0
C2185 C 0.30395 0.34823 0.37729 0.0
C2186 C 0.28802 0.3548 0.38937 0.0
C2187 C 0.28769 0.34848 0.40505 0.0
C2188 C 0.29524 0.34161 0.40648 0.0
C2189 C 0.30321 0.34137 0.39265 0.0
C2190 C 0.27917 0.34881 0.41965 0.0
C2191 C 0.26994 0.3362 0.42798 0.0
C2192 C 0.27938 0.36128 0.42457 0.0
C2193 C 0.28987 0.37524 0.41777 0.0
C2194 C 0.30412 0.37992 0.41867 0.0
C2195 C 0.31395 0.393 0.41209 0.0
C2196 C 0.30967 0.40155 0.40467 0.0
C2197 C 0.29555 0.39704 0.40384 0.0
C2198 C 0.28567 0.38397 0.4104 0.0
C2199 C 0.23968 0.34497 0.48471 0.0
C2200 C 0.22889 0.34641 0.47802 0.0
C2201 C 0.24989 0.34544 0.47378 0.0
C2202 C 0.24955 0.34762 0.4561 0.0
C2203 C 0.23895 0.34937 0.44949 0.0
C2204 C 0.22862 0.34862 0.46033 0.0
C2205 C 0.26004 0.34785 0.44427 0.0
C2206 C 0.26961 0.36056 0.43656 0.0
C2207 C 0.26042 0.3356 0.44027 0.0
C2208 C 0.25073 0.32197 0.44838 0.0
C2209 C 0.23629 0.31571 0.4464 0.0
C2210 C 0.22724 0.30295 0.45432 0.0
C2211 C 0.23252 0.2963 0.46414 0.0
C2212 C 0.24687 0.30237 0.466 0.0
C2213 C 0.25596 0.31514 0.45812 0.0
H2214 H 0.2255 0.28642 0.47026 0.0
H2215 H 0.3173 0.41167 0.39957 0.0
H2216 H 0.64857 0.95798 0.38471 0.0
H2217 H 0.64242 0.93901 0.40514 0.0
H2218 H 0.68585 0.95549 0.41539 0.0
H2219 H 0.6921 0.9744 0.39524 0.0
H2220 H 0.67131 0.92701 0.40674 0.0
H2221 H 0.66645 0.95935 0.44461 0.0
H2222 H 0.65672 0.97399 0.45343 0.0
H2223 H 0.61565 0.93758 0.45344 0.0
H2224 H 0.62513 0.92275 0.44438 0.0
H2225 H 0.67518 0.89174 0.47764 0.0
H2226 H 0.6767 0.90953 0.45837 0.0
H2227 H 0.63212 0.89018 0.45946 0.0
H2228 H 0.63053 0.87265 0.47962 0.0
H2229 H 0.64415 0.91808 0.46062 0.0
H2230 H 0.64831 0.88534 0.42487 0.0
H2231 H 0.6572 0.87008 0.41548 0.0
H2232 H 0.69815 0.90614 0.41004 0.0
H2233 H 0.68956 0.9216 0.41964 0.0
C2234 C 0.65681 0.95766 0.39147 0.0
C2235 C 0.67084 0.96771 0.38822 0.0
C2236 C 0.65326 0.94683 0.40315 0.0
C2237 C 0.66369 0.94583 0.41172 0.0
C2238 C 0.67765 0.95603 0.40884 0.0
C2239 C 0.68119 0.96688 0.39732 0.0
C2240 C 0.66027 0.93385 0.42307 0.0
C2241 C 0.66547 0.92512 0.41859 0.0
C2242 C 0.65217 0.93106 0.43816 0.0
C2243 C 0.64648 0.93997 0.44361 0.0
C2244 C 0.65533 0.95449 0.44633 0.0
C2245 C 0.64987 0.96282 0.45141 0.0
C2246 C 0.63557 0.95673 0.45394 0.0
C2247 C 0.62672 0.94229 0.45144 0.0
C2248 C 0.63213 0.93392 0.44634 0.0
C2249 C 0.66568 0.89135 0.47407 0.0
C2250 C 0.65272 0.88071 0.48024 0.0
C2251 C 0.66656 0.90145 0.46282 0.0
C2252 C 0.65451 0.90106 0.45719 0.0
C2253 C 0.64155 0.89064 0.46354 0.0
C2254 C 0.64066 0.88055 0.47493 0.0
C2255 C 0.65558 0.91149 0.44455 0.0
C2256 C 0.64988 0.91987 0.44869 0.0
C2257 C 0.66308 0.91388 0.42899 0.0
C2258 C 0.6683 0.90462 0.4231 0.0
C2259 C 0.65923 0.89001 0.42179 0.0
C2260 C 0.66422 0.88132 0.41641 0.0
C2261 C 0.67823 0.88713 0.4122 0.0
C2262 C 0.68729 0.90165 0.41332 0.0
C2263 C 0.68237 0.91038 0.4187 0.0
H2264 H 0.68207 0.88039 0.40804 0.0
H2265 H 0.63136 0.96319 0.45788 0.0
H2266 H 0.02809 0.70093 0.39566 0.0
H2267 H 0.04156 0.71551 0.42034 0.0
H2268 H 0.0788 0.7194 0.39818 0.0
H2269 H 0.06535 0.70437 0.37419 0.0
H2270 H 0.07865 0.71465 0.42992 0.0
H2271 H 0.06971 0.7463 0.39762 0.0
H2272 H 0.05485 0.75382 0.38398 0.0
H2273 H 0.0355 0.7517 0.43265 0.0
H2274 H 0.05015 0.74401 0.44653 0.0
H2275 H 0.13433 0.77728 0.46334 0.0
H2276 H 0.11567 0.76027 0.44481 0.0
H2277 H 0.08558 0.75348 0.48412 0.0
H2278 H 0.1043 0.7701 0.50321 0.0
H2279 H 0.07907 0.75783 0.44838 0.0
H2280 H 0.09137 0.72924 0.48069 0.0
H2281 H 0.10767 0.72309 0.49317 0.0
H2282 H 0.12216 0.7208 0.44262 0.0
H2283 H 0.10609 0.72714 0.42985 0.0
C2284 C 0.03916 0.70494 0.39612 0.0
C2285 C 0.04567 0.70147 0.38307 0.0
C2286 C 0.04686 0.71332 0.41017 0.0
C2287 C 0.06125 0.71867 0.4111 0.0
C2288 C 0.06771 0.71532 0.39789 0.0
C2289 C 0.06001 0.70674 0.38413 0.0
C2290 C 0.06977 0.7276 0.42579 0.0
C2291 C 0.07875 0.72412 0.43384 0.0
C2292 C 0.06965 0.73976 0.43139 0.0
C2293 C 0.0609 0.74442 0.42306 0.0
C2294 C 0.06221 0.74734 0.40538 0.0
C2295 C 0.05384 0.75165 0.39761 0.0
C2296 C 0.0442 0.75319 0.40743 0.0
C2297 C 0.04295 0.75047 0.42505 0.0
C2298 C 0.05129 0.74615 0.43288 0.0
C2299 C 0.12379 0.77205 0.46823 0.0
C2300 C 0.12088 0.77499 0.48489 0.0
C2301 C 0.11313 0.76242 0.45754 0.0
C2302 C 0.0993 0.75561 0.46316 0.0
C2303 C 0.09622 0.75869 0.47957 0.0
C2304 C 0.10693 0.76823 0.49041 0.0
C2305 C 0.08821 0.74508 0.45182 0.0
C2306 C 0.07875 0.74823 0.44454 0.0
C2307 C 0.08802 0.73273 0.44669 0.0
C2308 C 0.09758 0.72876 0.45433 0.0
C2309 C 0.0981 0.72752 0.47224 0.0
C2310 C 0.10729 0.72399 0.47937 0.0
C2311 C 0.11596 0.72158 0.4687 0.0
C2312 C 0.11544 0.72267 0.45087 0.0
C2313 C 0.10628 0.72622 0.44368 0.0
H2314 H 0.12307 0.71885 0.47424 0.0
H2315 H 0.03773 0.75652 0.40139 0.0
H2316 H 0.30394 0.02385 0.71634 0.0
H2317 H 0.30475 0.03919 0.73955 0.0
H2318 H 0.34953 0.0615 0.73864 0.0
H2319 H 0.34887 0.046 0.7154 0.0
H2320 H 0.33922 0.05762 0.7717 0.0
H2321 H 0.33328 0.07497 0.71877 0.0
H2322 H 0.32269 0.07354 0.69061 0.0
H2323 H 0.28385 0.06171 0.71525 0.0
H2324 H 0.29412 0.06272 0.74356 0.0
H2325 H 0.34635 0.12009 0.81209 0.0
H2326 H 0.34771 0.10342 0.79252 0.0
H2327 H 0.30325 0.07615 0.79511 0.0
H2328 H 0.30178 0.09238 0.81533 0.0
H2329 H 0.31477 0.08348 0.76103 0.0
H2330 H 0.32127 0.06587 0.81418 0.0
H2331 H 0.33245 0.06765 0.84201 0.0
H2332 H 0.37132 0.08129 0.81638 0.0
H2333 H 0.36041 0.07981 0.78839 0.0
C2334 C 0.31399 0.03194 0.72109 0.0
C2335 C 0.32635 0.0338 0.71381 0.0
C2336 C 0.31443 0.04071 0.73438 0.0
C2337 C 0.3272 0.05163 0.74059 0.0
C2338 C 0.33957 0.05316 0.73395 0.0
C2339 C 0.33916 0.04432 0.72064 0.0
C2340 C 0.3275 0.06179 0.75341 0.0
C2341 C 0.33405 0.06343 0.76929 0.0
C2342 C 0.32063 0.06926 0.75029 0.0
C2343 C 0.31444 0.06879 0.73329 0.0
C2344 C 0.32245 0.07195 0.71819 0.0
C2345 C 0.31651 0.07123 0.70219 0.0
C2346 C 0.30261 0.06754 0.70114 0.0
C2347 C 0.29462 0.06456 0.71609 0.0
C2348 C 0.30049 0.0652 0.73212 0.0
C2349 C 0.33687 0.1104 0.80887 0.0
C2350 C 0.32393 0.10765 0.81528 0.0
C2351 C 0.33768 0.10093 0.79758 0.0
C2352 C 0.32558 0.0886 0.79239 0.0
C2353 C 0.3127 0.08567 0.79893 0.0
C2354 C 0.31188 0.09503 0.8104 0.0
C2355 C 0.32626 0.07911 0.7794 0.0
C2356 C 0.31995 0.07767 0.76342 0.0
C2357 C 0.33347 0.07198 0.78239 0.0
C2358 C 0.34006 0.07289 0.7992 0.0
C2359 C 0.33223 0.0694 0.81449 0.0
C2360 C 0.33852 0.07032 0.83029 0.0
C2361 C 0.3526 0.07462 0.83097 0.0
C2362 C 0.36042 0.07798 0.81583 0.0
C2363 C 0.35419 0.0771 0.79999 0.0
H2364 H 0.35744 0.07532 0.84322 0.0
H2365 H 0.29803 0.067 0.68874 0.0
H2366 H 0.94414 0.302 0.71943 0.0
H2367 H 0.93323 0.28433 0.74156 0.0
H2368 H 0.96674 0.27598 0.73826 0.0
H2369 H 0.97769 0.29356 0.71565 0.0
H2370 H 0.94228 0.252 0.73974 0.0
H2371 H 0.9643 0.2944 0.77263 0.0
H2372 H 0.97095 0.31862 0.7807 0.0
H2373 H 0.92813 0.30537 0.78963 0.0
H2374 H 0.92119 0.2811 0.78138 0.0
H2375 H 0.91361 0.20859 0.81447 0.0
H2376 H 0.92978 0.2271 0.79505 0.0
H2377 H 0.90039 0.24081 0.78899 0.0
H2378 H 0.8842 0.22236 0.80819 0.0
H2379 H 0.92632 0.26274 0.79443 0.0
H2380 H 0.90455 0.22087 0.75817 0.0
H2381 H 0.89817 0.19671 0.7501 0.0
H2382 H 0.94129 0.20926 0.74811 0.0
H2383 H 0.94792 0.23346 0.75639 0.0
C2384 C 0.94929 0.2965 0.72341 0.0
C2385 C 0.96187 0.2993 0.71577 0.0
C2386 C 0.94304 0.28641 0.73616 0.0
C2387 C 0.94928 0.27898 0.74182 0.0
C2388 C 0.96177 0.28163 0.73417 0.0
C2389 C 0.96803 0.29171 0.72127 0.0
C2390 C 0.94244 0.26826 0.75542 0.0
C2391 C 0.93904 0.25441 0.75186 0.0
C2392 C 0.93809 0.27135 0.77118 0.0
C2393 C 0.94222 0.28593 0.77628 0.0
C2394 C 0.95629 0.29666 0.77621 0.0
C2395 C 0.96011 0.3104 0.78083 0.0
C2396 C 0.94997 0.31354 0.78565 0.0
C2397 C 0.93598 0.30293 0.7859 0.0
C2398 C 0.9321 0.28917 0.78127 0.0
C2399 C 0.91057 0.2155 0.80891 0.0
C2400 C 0.89762 0.21401 0.81293 0.0
C2401 C 0.91983 0.22608 0.79784 0.0
C2402 C 0.91627 0.2353 0.79051 0.0
C2403 C 0.9034 0.23387 0.79458 0.0
C2404 C 0.89417 0.22334 0.80562 0.0
C2405 C 0.92581 0.24645 0.77851 0.0
C2406 C 0.92975 0.26039 0.78242 0.0
C2407 C 0.93071 0.24345 0.76315 0.0
C2408 C 0.92672 0.22893 0.75809 0.0
C2409 C 0.91266 0.21845 0.75614 0.0
C2410 C 0.909 0.20475 0.75151 0.0
C2411 C 0.91931 0.20144 0.74865 0.0
C2412 C 0.93331 0.21183 0.75036 0.0
C2413 C 0.93703 0.22554 0.75502 0.0
H2414 H 0.91646 0.19083 0.74506 0.0
H2415 H 0.95295 0.32418 0.78922 0.0
H2416 H 0.70461 0.683 0.72244 0.0
H2417 H 0.72249 0.68971 0.7446 0.0
H2418 H 0.72486 0.65302 0.73174 0.0
H2419 H 0.70661 0.64597 0.71047 0.0
H2420 H 0.72484 0.65478 0.76384 0.0
H2421 H 0.75012 0.68887 0.71948 0.0
H2422 H 0.75492 0.70808 0.69978 0.0
H2423 H 0.75822 0.73434 0.74279 0.0
H2424 H 0.75328 0.71521 0.76273 0.0
H2425 H 0.79371 0.67436 0.78666 0.0
H2426 H 0.77561 0.67361 0.76871 0.0
H2427 H 0.76409 0.69198 0.80996 0.0
H2428 H 0.78175 0.69213 0.82848 0.0
H2429 H 0.76792 0.70157 0.76746 0.0
H2430 H 0.74257 0.66557 0.81154 0.0
H2431 H 0.73984 0.64607 0.82931 0.0
H2432 H 0.73859 0.62312 0.78372 0.0
H2433 H 0.74154 0.64261 0.76571 0.0
C2434 C 0.709 0.67643 0.72438 0.0
C2435 C 0.70416 0.66393 0.71481 0.0
C2436 C 0.71927 0.68029 0.73698 0.0
C2437 C 0.72516 0.67194 0.73984 0.0
C2438 C 0.72044 0.6596 0.72999 0.0
C2439 C 0.71001 0.65559 0.71777 0.0
C2440 C 0.73598 0.67563 0.75324 0.0
C2441 C 0.73421 0.66505 0.76454 0.0
C2442 C 0.7482 0.68908 0.75454 0.0
C2443 C 0.75116 0.70056 0.74257 0.0
C2444 C 0.75176 0.6987 0.72472 0.0
C2445 C 0.75453 0.70958 0.71351 0.0
C2446 C 0.75682 0.7224 0.72003 0.0
C2447 C 0.7564 0.72439 0.73776 0.0
C2448 C 0.75363 0.71354 0.74902 0.0
C2449 C 0.78731 0.67818 0.79204 0.0
C2450 C 0.78908 0.68308 0.80918 0.0
C2451 C 0.77709 0.6779 0.78165 0.0
C2452 C 0.76856 0.68273 0.78805 0.0
C2453 C 0.77066 0.68828 0.80481 0.0
C2454 C 0.78079 0.68838 0.81534 0.0
C2455 C 0.7567 0.68067 0.77757 0.0
C2456 C 0.75834 0.69147 0.76686 0.0
C2457 C 0.74444 0.66738 0.77654 0.0
C2458 C 0.7424 0.65557 0.78732 0.0
C2459 C 0.74183 0.65641 0.80533 0.0
C2460 C 0.74022 0.64535 0.81544 0.0
C2461 C 0.73908 0.63338 0.80765 0.0
C2462 C 0.73949 0.63241 0.78974 0.0
C2463 C 0.74112 0.64345 0.77958 0.0
H2464 H 0.73784 0.62483 0.8155 0.0
H2465 H 0.75897 0.73081 0.71133 0.0
H2466 H 0.70363 0.67744 0.62955 0.0
H2467 H 0.71855 0.6794 0.60525 0.0
H2468 H 0.70657 0.63603 0.61124 0.0
H2469 H 0.69146 0.63386 0.63502 0.0
H2470 H 0.74055 0.6774 0.60443 0.0
H2471 H 0.70771 0.62101 0.57472 0.0
H2472 H 0.68307 0.60339 0.56943 0.0
H2473 H 0.67304 0.63588 0.56994 0.0
H2474 H 0.69765 0.65372 0.57499 0.0
H2475 H 0.78319 0.65654 0.56488 0.0
H2476 H 0.76538 0.65779 0.58171 0.0
H2477 H 0.74531 0.65845 0.53493 0.0
H2478 H 0.76311 0.65706 0.51796 0.0
H2479 H 0.7265 0.6419 0.55749 0.0
H2480 H 0.76467 0.68857 0.55849 0.0
H2481 H 0.78905 0.70758 0.562 0.0
H2482 H 0.78773 0.69738 0.6153 0.0
H2483 H 0.76339 0.67816 0.61207 0.0
C2484 C 0.70403 0.66827 0.62553 0.0
C2485 C 0.6963 0.65548 0.63427 0.0
C2486 C 0.71259 0.66941 0.61165 0.0
C2487 C 0.71357 0.65781 0.60624 0.0
C2488 C 0.70576 0.64504 0.61485 0.0
C2489 C 0.69715 0.64385 0.62858 0.0
C2490 C 0.72342 0.65916 0.59243 0.0
C2491 C 0.73744 0.66971 0.59408 0.0
C2492 C 0.71935 0.64936 0.57863 0.0
C2493 C 0.70453 0.6387 0.57534 0.0
C2494 C 0.70027 0.62441 0.5736 0.0
C2495 C 0.6863 0.61438 0.57067 0.0
C2496 C 0.67649 0.61851 0.56939 0.0
C2497 C 0.68064 0.63269 0.57099 0.0
C2498 C 0.6946 0.64276 0.57391 0.0
C2499 C 0.77501 0.65701 0.55817 0.0
C2500 C 0.7746 0.65682 0.5401 0.0
C2501 C 0.76485 0.65775 0.5678 0.0
C2502 C 0.75416 0.65851 0.55959 0.0
C2503 C 0.7535 0.65795 0.54154 0.0
C2504 C 0.76364 0.65711 0.53187 0.0
C2505 C 0.74367 0.65975 0.56999 0.0
C2506 C 0.72955 0.64971 0.56769 0.0
C2507 C 0.7476 0.67024 0.58292 0.0
C2508 C 0.76222 0.68186 0.585 0.0
C2509 C 0.7696 0.69032 0.57094 0.0
C2510 C 0.78341 0.70114 0.57288 0.0
C2511 C 0.78994 0.70368 0.58886 0.0
C2512 C 0.78266 0.69541 0.60293 0.0
C2513 C 0.76885 0.68456 0.60106 0.0
H2514 H 0.80064 0.71206 0.59033 0.0
H2515 H 0.66567 0.61073 0.56714 0.0
H2516 H 0.35536 0.0524 0.64441 0.0
H2517 H 0.36176 0.07122 0.62372 0.0
H2518 H 0.3238 0.0449 0.59577 0.0
H2519 H 0.31722 0.02611 0.61647 0.0
H2520 H 0.34832 0.06048 0.5746 0.0
H2521 H 0.32406 0.06728 0.6226 0.0
H2522 H 0.32068 0.07084 0.65324 0.0
H2523 H 0.36111 0.10814 0.65489 0.0
H2524 H 0.36481 0.10467 0.62432 0.0
H2525 H 0.33831 0.10685 0.52475 0.0
H2526 H 0.33673 0.08902 0.54395 0.0
H2527 H 0.36813 0.12125 0.57667 0.0
H2528 H 0.36885 0.13924 0.55837 0.0
H2529 H 0.34948 0.10342 0.5959 0.0
H2530 H 0.37391 0.09874 0.5485 0.0
H2531 H 0.37874 0.09594 0.51817 0.0
H2532 H 0.3409 0.05587 0.51557 0.0
H2533 H 0.33571 0.05855 0.54574 0.0
C2534 C 0.34847 0.05054 0.63372 0.0
C2535 C 0.33574 0.03778 0.63213 0.0
C2536 C 0.35212 0.06132 0.62196 0.0
C2537 C 0.3432 0.05946 0.60831 0.0
C2538 C 0.33082 0.04653 0.60623 0.0
C2539 C 0.32706 0.03583 0.61811 0.0
C2540 C 0.34634 0.0712 0.59671 0.0
C2541 C 0.34851 0.06986 0.57917 0.0
C2542 C 0.34703 0.0836 0.60285 0.0
C2543 C 0.34478 0.08563 0.62123 0.0
C2544 C 0.33228 0.07616 0.62954 0.0
C2545 C 0.3303 0.07818 0.64689 0.0
C2546 C 0.34069 0.08969 0.65601 0.0
C2547 C 0.35308 0.09921 0.64781 0.0
C2548 C 0.35513 0.09723 0.63048 0.0
C2549 C 0.34478 0.11023 0.53612 0.0
C2550 C 0.35366 0.12459 0.53996 0.0
C2551 C 0.34405 0.09995 0.54697 0.0
C2552 C 0.3525 0.10371 0.56166 0.0
C2553 C 0.36154 0.11803 0.56539 0.0
C2554 C 0.36206 0.12833 0.55474 0.0
C2555 C 0.35137 0.09276 0.57355 0.0
C2556 C 0.34952 0.09419 0.59121 0.0
C2557 C 0.35126 0.08057 0.56755 0.0
C2558 C 0.35437 0.0789 0.54937 0.0
C2559 C 0.36657 0.08938 0.54142 0.0
C2560 C 0.36937 0.08781 0.52424 0.0
C2561 C 0.36012 0.07576 0.51492 0.0
C2562 C 0.34806 0.06523 0.52276 0.0
C2563 C 0.34518 0.06676 0.53991 0.0
H2564 H 0.36234 0.07457 0.50163 0.0
H2565 H 0.33913 0.09127 0.66942 0.0
H2566 H 0.9645 0.32253 0.61872 0.0
H2567 H 0.95116 0.30764 0.59431 0.0
H2568 H 0.94769 0.27157 0.61957 0.0
H2569 H 0.96193 0.28669 0.64334 0.0
H2570 H 0.94846 0.2676 0.58757 0.0
H2571 H 0.92186 0.28176 0.6224 0.0
H2572 H 0.91675 0.29856 0.63681 0.0
H2573 H 0.91709 0.31638 0.58802 0.0
H2574 H 0.92236 0.29977 0.57335 0.0
H2575 H 0.8739 0.22139 0.56095 0.0
H2576 H 0.89331 0.23851 0.5788 0.0
H2577 H 0.91748 0.25771 0.53321 0.0
H2578 H 0.89816 0.24046 0.51523 0.0
H2579 H 0.90719 0.27077 0.57291 0.0
H2580 H 0.93822 0.25637 0.54034 0.0
H2581 H 0.94065 0.23685 0.52895 0.0
H2582 H 0.92815 0.21641 0.57783 0.0
H2583 H 0.92547 0.23575 0.58936 0.0
C2584 C 0.96111 0.31146 0.61882 0.0
C2585 C 0.9641 0.30568 0.63288 0.0
C2586 C 0.95341 0.30294 0.60496 0.0
C2587 C 0.948 0.28837 0.60532 0.0
C2588 C 0.95166 0.28274 0.61898 0.0
C2589 C 0.95977 0.29136 0.63258 0.0
C2590 C 0.93775 0.27888 0.59223 0.0
C2591 C 0.93952 0.26843 0.58433 0.0
C2592 C 0.92591 0.27972 0.58802 0.0
C2593 C 0.92265 0.28964 0.59681 0.0
C2594 C 0.92092 0.28932 0.61476 0.0
C2595 C 0.91799 0.2988 0.62297 0.0
C2596 C 0.91664 0.30856 0.61334 0.0
C2597 C 0.91817 0.30883 0.59547 0.0
C2598 C 0.92112 0.29938 0.5872 0.0
C2599 C 0.88337 0.22924 0.55474 0.0
C2600 C 0.88455 0.22963 0.53673 0.0
C2601 C 0.89444 0.23893 0.56493 0.0
C2602 C 0.90683 0.24919 0.55728 0.0
C2603 C 0.90808 0.24965 0.53931 0.0
C2604 C 0.89704 0.23985 0.52909 0.0
C2605 C 0.91812 0.25983 0.56824 0.0
C2606 C 0.91638 0.27032 0.57589 0.0
C2607 C 0.92978 0.25886 0.57248 0.0
C2608 C 0.93152 0.24737 0.56561 0.0
C2609 C 0.93589 0.24765 0.54858 0.0
C2610 C 0.93733 0.23664 0.54211 0.0
C2611 C 0.93452 0.22537 0.55264 0.0
C2612 C 0.93029 0.22512 0.56967 0.0
C2613 C 0.92881 0.23609 0.57617 0.0
H2614 H 0.93564 0.21686 0.54763 0.0
H2615 H 0.91437 0.31589 0.61972 0.0
H2616 H 0.36386 0.30171 0.65054 0.0
H2617 H 0.36359 0.28747 0.62633 0.0
H2618 H 0.33081 0.29086 0.60258 0.0
H2619 H 0.3306 0.30471 0.62738 0.0
H2620 H 0.32563 0.26548 0.59839 0.0
H2621 H 0.36553 0.31006 0.58803 0.0
H2622 H 0.38752 0.33194 0.59464 0.0
H2623 H 0.40709 0.30824 0.6051 0.0
H2624 H 0.38517 0.28619 0.59879 0.0
H2625 H 0.33798 0.23563 0.52168 0.0
H2626 H 0.33652 0.25254 0.54086 0.0
H2627 H 0.36181 0.24757 0.57822 0.0
H2628 H 0.3629 0.23033 0.55956 0.0
H2629 H 0.37013 0.27596 0.57133 0.0
H2630 H 0.32836 0.23126 0.58439 0.0
H2631 H 0.30623 0.20994 0.57657 0.0
H2632 H 0.29026 0.23535 0.5587 0.0
H2633 H 0.31239 0.25683 0.56621 0.0
C2634 C 0.35662 0.2995 0.64015 0.0
C2635 C 0.34735 0.30446 0.64078 0.0
C2636 C 0.35653 0.2914 0.62623 0.0
C2637 C 0.34745 0.2884 0.61235 0.0
C2638 C 0.33799 0.29314 0.61306 0.0
C2639 C 0.33789 0.30105 0.62721 0.0
C2640 C 0.34775 0.28004 0.59742 0.0
C2641 C 0.33534 0.26797 0.59224 0.0
C2642 C 0.3604 0.28321 0.58934 0.0
C2643 C 0.37366 0.29646 0.59302 0.0
C2644 C 0.3745 0.3095 0.59183 0.0
C2645 C 0.38695 0.32194 0.59552 0.0
C2646 C 0.39869 0.32147 0.60031 0.0
C2647 C 0.398 0.30858 0.60139 0.0
C2648 C 0.38556 0.29611 0.59773 0.0
C2649 C 0.34312 0.23802 0.53404 0.0
C2650 C 0.35058 0.2316 0.53904 0.0
C2651 C 0.34234 0.24774 0.54493 0.0
C2652 C 0.34906 0.25127 0.56092 0.0
C2653 C 0.35664 0.24504 0.56585 0.0
C2654 C 0.35731 0.23524 0.5551 0.0
C2655 C 0.34814 0.2613 0.5728 0.0
C2656 C 0.36044 0.27369 0.57733 0.0
C2657 C 0.33539 0.25854 0.58003 0.0
C2658 C 0.32207 0.24564 0.57567 0.0
C2659 C 0.32017 0.2323 0.57866 0.0
C2660 C 0.30762 0.22019 0.57431 0.0
C2661 C 0.29686 0.22129 0.56709 0.0
C2662 C 0.29861 0.23451 0.56426 0.0
C2663 C 0.31115 0.24665 0.56857 0.0
H2664 H 0.28715 0.21191 0.56373 0.0
H2665 H 0.40832 0.33111 0.60317 0.0
H2666 H 0.70621 0.02073 0.61278 0.0
H2667 H 0.7181 0.03836 0.59054 0.0
H2668 H 0.71963 0.07017 0.62469 0.0
H2669 H 0.70691 0.05235 0.64648 0.0
H2670 H 0.7159 0.07593 0.59463 0.0
H2671 H 0.74812 0.06417 0.6179 0.0
H2672 H 0.75654 0.04844 0.62612 0.0
H2673 H 0.75431 0.03527 0.57343 0.0
H2674 H 0.74572 0.05081 0.56493 0.0
H2675 H 0.77642 0.13517 0.55915 0.0
H2676 H 0.75989 0.11607 0.57742 0.0
H2677 H 0.751 0.08642 0.53598 0.0
H2678 H 0.76706 0.10552 0.51729 0.0
H2679 H 0.75781 0.07915 0.56808 0.0
H2680 H 0.72732 0.09365 0.54553 0.0
H2681 H 0.72036 0.11083 0.5389 0.0
H2682 H 0.72136 0.12077 0.59266 0.0
H2683 H 0.72853 0.10379 0.59959 0.0
C2684 C 0.70896 0.03147 0.61543 0.0
C2685 C 0.70574 0.03522 0.63137 0.0
C2686 C 0.71585 0.04157 0.60277 0.0
C2687 C 0.72016 0.05572 0.60605 0.0
C2688 C 0.7165 0.05936 0.6218 0.0
C2689 C 0.70924 0.04917 0.63428 0.0
C2690 C 0.72886 0.06681 0.5934 0.0
C2691 C 0.72514 0.07669 0.58899 0.0
C2692 C 0.74085 0.06778 0.58576 0.0
C2693 C 0.74615 0.05854 0.59082 0.0
C2694 C 0.74936 0.05786 0.60809 0.0
C2695 C 0.75416 0.04898 0.61279 0.0
C2696 C 0.75592 0.04083 0.60031 0.0
C2697 C 0.75292 0.04158 0.58309 0.0
C2698 C 0.7481 0.05042 0.57832 0.0
C2699 C 0.77075 0.12466 0.55374 0.0
C2700 C 0.77313 0.12194 0.53669 0.0
C2701 C 0.76135 0.11373 0.56426 0.0
C2702 C 0.75421 0.09986 0.55802 0.0
C2703 C 0.75645 0.09707 0.54104 0.0
C2704 C 0.76572 0.10801 0.53042 0.0
C2705 C 0.74486 0.08821 0.5695 0.0
C2706 C 0.74851 0.07828 0.57369 0.0
C2707 C 0.73301 0.0874 0.5772 0.0
C2708 C 0.72858 0.09753 0.57306 0.0
C2709 C 0.72617 0.09958 0.55593 0.0
C2710 C 0.72216 0.10927 0.55212 0.0
C2711 C 0.72045 0.11691 0.56535 0.0
C2712 C 0.7227 0.11485 0.58242 0.0
C2713 C 0.72672 0.10518 0.5863 0.0
H2714 H 0.71735 0.12441 0.56237 0.0
H2715 H 0.75963 0.03396 0.60398 0.0
H2716 H 0.98167 0.68702 0.61509 0.0
H2717 H 0.96398 0.68096 0.59309 0.0
H2718 H 0.93325 0.64861 0.62578 0.0
H2719 H 0.95117 0.65411 0.64735 0.0
H2720 H 0.92721 0.63975 0.59492 0.0
H2721 H 0.93794 0.68288 0.62255 0.0
H2722 H 0.95275 0.70721 0.63315 0.0
H2723 H 0.96572 0.72121 0.58146 0.0
H2724 H 0.95112 0.69692 0.57058 0.0
H2725 H 0.86937 0.64583 0.56369 0.0
H2726 H 0.88803 0.64701 0.5813 0.0
H2727 H 0.91575 0.66234 0.53774 0.0
H2728 H 0.89696 0.66076 0.51993 0.0
H2729 H 0.92335 0.67926 0.5726 0.0
H2730 H 0.90965 0.63421 0.54607 0.0
H2731 H 0.89264 0.60971 0.53791 0.0
H2732 H 0.88253 0.59934 0.59111 0.0
H2733 H 0.89934 0.62385 0.59957 0.0
C2734 C 0.97117 0.6785 0.61746 0.0
C2735 C 0.96776 0.67112 0.63298 0.0
C2736 C 0.96103 0.6751 0.60494 0.0
C2737 C 0.94714 0.6646 0.60793 0.0
C2738 C 0.94385 0.6568 0.62314 0.0
C2739 C 0.95409 0.65996 0.63549 0.0
C2740 C 0.93599 0.66219 0.59561 0.0
C2741 C 0.92635 0.64841 0.59017 0.0
C2742 C 0.93478 0.67344 0.58928 0.0
C2743 C 0.94356 0.68807 0.59577 0.0
C2744 C 0.94403 0.69114 0.61346 0.0
C2745 C 0.95238 0.70492 0.61951 0.0
C2746 C 0.96021 0.71574 0.60799 0.0
C2747 C 0.95967 0.71281 0.59038 0.0
C2748 C 0.95136 0.69904 0.58425 0.0
C2749 C 0.87939 0.64921 0.55784 0.0
C2750 C 0.88178 0.65318 0.5405 0.0
C2751 C 0.88999 0.64986 0.56786 0.0
C2752 C 0.90321 0.65472 0.56076 0.0
C2753 C 0.90557 0.65848 0.54337 0.0
C2754 C 0.89487 0.65754 0.53324 0.0
C2755 C 0.9148 0.65694 0.57192 0.0
C2756 C 0.9244 0.67068 0.57725 0.0
C2757 C 0.9157 0.64564 0.57849 0.0
C2758 C 0.90565 0.6309 0.57343 0.0
C2759 C 0.9037 0.62674 0.55601 0.0
C2760 C 0.89412 0.61285 0.55134 0.0
C2761 C 0.88648 0.60298 0.56398 0.0
C2762 C 0.88844 0.60699 0.58133 0.0
C2763 C 0.898 0.62088 0.58607 0.0
H2764 H 0.87907 0.59223 0.56034 0.0
H2765 H 0.96666 0.72641 0.6127 0.0
H2766 H 0.98001 0.7027 0.7175 0.0
H2767 H 0.96455 0.70146 0.74046 0.0
H2768 H 0.94419 0.65628 0.73988 0.0
H2769 H 0.95982 0.6574 0.71697 0.0
H2770 H 0.9376 0.69034 0.73892 0.0
H2771 H 0.93063 0.64421 0.78082 0.0
H2772 H 0.94412 0.63354 0.78997 0.0
H2773 H 0.98215 0.67255 0.78167 0.0
H2774 H 0.9689 0.68355 0.77285 0.0
H2775 H 0.87811 0.66676 0.78982 0.0
H2776 H 0.89561 0.66698 0.77089 0.0
H2777 H 0.92553 0.68382 0.81213 0.0
H2778 H 0.90779 0.68287 0.83155 0.0
H2779 H 0.9285 0.66503 0.794 0.0
H2780 H 0.92504 0.70521 0.78087 0.0
H2781 H 0.91297 0.71774 0.77329 0.0
H2782 H 0.8989 0.69407 0.72605 0.0
H2783 H 0.91074 0.68127 0.73346 0.0
C2784 C 0.97235 0.69247 0.72231 0.0
C2785 C 0.97113 0.68014 0.71526 0.0
C2786 C 0.96349 0.6918 0.73546 0.0
C2787 C 0.95321 0.67879 0.74191 0.0
C2788 C 0.95215 0.66645 0.73524 0.0
C2789 C 0.96107 0.66711 0.72209 0.0
C2790 C 0.94311 0.67821 0.75484 0.0
C2791 C 0.93564 0.6848 0.75096 0.0
C2792 C 0.94065 0.67115 0.77067 0.0
C2793 C 0.94875 0.66465 0.77597 0.0
C2794 C 0.94187 0.65052 0.78098 0.0
C2795 C 0.94948 0.64442 0.78612 0.0
C2796 C 0.96398 0.65234 0.78631 0.0
C2797 C 0.97091 0.6664 0.78143 0.0
C2798 C 0.96336 0.67258 0.77636 0.0
C2799 C 0.88831 0.67025 0.79504 0.0
C2800 C 0.89151 0.67484 0.81226 0.0
C2801 C 0.89837 0.67053 0.7841 0.0
C2802 C 0.91196 0.67565 0.78999 0.0
C2803 C 0.91513 0.67989 0.80727 0.0
C2804 C 0.90501 0.67949 0.8183 0.0
C2805 C 0.92292 0.67701 0.77793 0.0
C2806 C 0.9305 0.67055 0.78195 0.0
C2807 C 0.92571 0.68444 0.76235 0.0
C2808 C 0.91869 0.69221 0.75779 0.0
C2809 C 0.91931 0.70262 0.76891 0.0
C2810 C 0.91251 0.70978 0.76464 0.0
C2811 C 0.90515 0.70668 0.74921 0.0
C2812 C 0.9046 0.69645 0.738 0.0
C2813 C 0.91136 0.68925 0.74222 0.0
H2814 H 0.8999 0.71222 0.74593 0.0
H2815 H 0.96985 0.64759 0.79032 0.0
H2816 H 0.31953 0.28406 0.70551 0.0
H2817 H 0.31359 0.26552 0.72637 0.0
H2818 H 0.34315 0.29623 0.76221 0.0
H2819 H 0.34965 0.31459 0.74098 0.0
H2820 H 0.34738 0.27619 0.76086 0.0
H2821 H 0.30573 0.27773 0.76748 0.0
H2822 H 0.28457 0.27737 0.75823 0.0
H2823 H 0.2682 0.23583 0.73722 0.0
H2824 H 0.28934 0.23601 0.74614 0.0
H2825 H 0.3287 0.23066 0.83179 0.0
H2826 H 0.33003 0.24887 0.81323 0.0
H2827 H 0.30994 0.21836 0.77243 0.0
H2828 H 0.30898 0.20011 0.79067 0.0
H2829 H 0.30019 0.23788 0.77698 0.0
H2830 H 0.34294 0.23753 0.7702 0.0
H2831 H 0.36392 0.23823 0.7809 0.0
H2832 H 0.37793 0.27867 0.80412 0.0
H2833 H 0.35691 0.2781 0.79377 0.0
C2834 C 0.32455 0.28686 0.71798 0.0
C2835 C 0.33508 0.30074 0.72163 0.0
C2836 C 0.32111 0.27625 0.72995 0.0
C2837 C 0.32784 0.27942 0.746 0.0
C2838 C 0.33786 0.29345 0.74992 0.0
C2839 C 0.34154 0.30396 0.73781 0.0
C2840 C 0.32539 0.26807 0.75811 0.0
C2841 C 0.33702 0.268 0.76459 0.0
C2842 C 0.31191 0.25709 0.76273 0.0
C2843 C 0.29918 0.25694 0.75734 0.0
C2844 C 0.29766 0.26856 0.76077 0.0
C2845 C 0.28566 0.26838 0.75561 0.0
C2846 C 0.27506 0.2566 0.7471 0.0
C2847 C 0.27642 0.24496 0.74379 0.0
C2848 C 0.28841 0.24509 0.74891 0.0
C2849 C 0.32462 0.22779 0.81885 0.0
C2850 C 0.31888 0.21391 0.81269 0.0
C2851 C 0.32528 0.23821 0.80831 0.0
C2852 C 0.32015 0.23496 0.79144 0.0
C2853 C 0.3139 0.22105 0.78545 0.0
C2854 C 0.31334 0.21063 0.79593 0.0
C2855 C 0.32214 0.24627 0.77973 0.0
C2856 C 0.31048 0.24622 0.77328 0.0
C2857 C 0.33558 0.25729 0.7753 0.0
C2858 C 0.34829 0.2577 0.78136 0.0
C2859 C 0.35044 0.24652 0.7777 0.0
C2860 C 0.36235 0.2469 0.78369 0.0
C2861 C 0.37223 0.25847 0.79323 0.0
C2862 C 0.37025 0.2697 0.79675 0.0
C2863 C 0.35835 0.26936 0.79082 0.0
H2864 H 0.38145 0.25875 0.79785 0.0
H2865 H 0.26578 0.25648 0.74312 0.0
H2866 H 0.70154 0.04438 0.71482 0.0
H2867 H 0.71626 0.05953 0.73825 0.0
H2868 H 0.73729 0.03617 0.73982 0.0
H2869 H 0.72265 0.02096 0.7165 0.0
H2870 H 0.73161 0.04257 0.77234 0.0
H2871 H 0.75179 0.06617 0.7188 0.0
H2872 H 0.75157 0.07622 0.69082 0.0
H2873 H 0.74149 0.10455 0.71602 0.0
H2874 H 0.74145 0.09451 0.74415 0.0
H2875 H 0.79487 0.09004 0.81389 0.0
H2876 H 0.77667 0.07383 0.79417 0.0
H2877 H 0.76114 0.10215 0.79125 0.0
H2878 H 0.77975 0.11875 0.81023 0.0
H2879 H 0.76251 0.09328 0.76044 0.0
H2880 H 0.74396 0.07111 0.81428 0.0
H2881 H 0.744 0.06112 0.84238 0.0
H2882 H 0.7505 0.03024 0.81727 0.0
H2883 H 0.7507 0.04017 0.78902 0.0
C2884 C 0.7092 0.04237 0.72024 0.0
C2885 C 0.71098 0.03152 0.71365 0.0
C2886 C 0.71762 0.05106 0.73361 0.0
C2887 C 0.72795 0.04904 0.74063 0.0
C2888 C 0.72939 0.0379 0.73456 0.0
C2889 C 0.72104 0.02926 0.72115 0.0
C2890 C 0.73771 0.0589 0.75374 0.0
C2891 C 0.73845 0.05364 0.76974 0.0
C2892 C 0.74637 0.07339 0.75044 0.0
C2893 C 0.74646 0.07948 0.73355 0.0
C2894 C 0.74941 0.07446 0.71836 0.0
C2895 C 0.74935 0.08017 0.70248 0.0
C2896 C 0.74647 0.09099 0.70164 0.0
C2897 C 0.74369 0.09615 0.71669 0.0
C2898 C 0.74371 0.09046 0.7326 0.0
C2899 C 0.78764 0.09287 0.80898 0.0
C2900 C 0.78879 0.10572 0.81367 0.0
C2901 C 0.77712 0.0835 0.79787 0.0
C2902 C 0.76741 0.08667 0.79141 0.0
C2903 C 0.76847 0.09944 0.79615 0.0
C2904 C 0.77905 0.10886 0.80715 0.0
C2905 C 0.75652 0.07697 0.77912 0.0
C2906 C 0.75558 0.08225 0.76321 0.0
C2907 C 0.74764 0.06251 0.78256 0.0
C2908 C 0.74746 0.05647 0.79953 0.0
C2909 C 0.7455 0.06225 0.81475 0.0
C2910 C 0.74547 0.05659 0.83071 0.0
C2911 C 0.74729 0.04507 0.83161 0.0
C2912 C 0.74911 0.03917 0.81655 0.0
C2913 C 0.74917 0.0448 0.80056 0.0
H2914 H 0.74725 0.04071 0.84398 0.0
H2915 H 0.74644 0.0954 0.68933 0.0
H2916 H 0.05137 0.36799 0.0271 0.0
H2917 H 0.07014 0.36801 0.04313 0.0
H2918 H 0.04137 0.32599 0.06042 0.0
H2919 H 0.02266 0.32607 0.04493 0.0
H2920 H 0.05645 0.341 0.0862 0.0
H2921 H 0.06573 0.33332 0.02776 0.0
H2922 H 0.07054 0.33866 0.99693 0.0
H2923 H 0.10763 0.37761 0.00956 0.0
H2924 H 0.10294 0.37257 0.0405 0.0
H2925 H 0.10055 0.31656 0.11192 0.0
H2926 H 0.08416 0.32034 0.09571 0.0
H2927 H 0.11555 0.36396 0.08962 0.0
H2928 H 0.13205 0.36023 0.10582 0.0
H2929 H 0.10062 0.35066 0.05897 0.0
H2930 H 0.09156 0.35655 0.11804 0.0
H2931 H 0.08653 0.3498 0.14848 0.0
H2932 H 0.04841 0.31255 0.13401 0.0
H2933 H 0.05332 0.31898 0.10343 0.0
C2934 C 0.04909 0.35877 0.03431 0.0
C2935 C 0.03554 0.34704 0.03475 0.0
C2936 C 0.05982 0.35876 0.04341 0.0
C2937 C 0.0572 0.34695 0.05291 0.0
C2938 C 0.04367 0.33525 0.05328 0.0
C2939 C 0.03297 0.3353 0.04434 0.0
C2940 C 0.06838 0.34666 0.06272 0.0
C2941 C 0.06605 0.34301 0.08017 0.0
C2942 C 0.08108 0.34958 0.05502 0.0
C2943 C 0.08389 0.35265 0.03644 0.0
C2944 C 0.07485 0.34308 0.02397 0.0
C2945 C 0.07756 0.34604 0.00647 0.0
C2946 C 0.08936 0.35849 0.00129 0.0
C2947 C 0.09848 0.36799 0.01359 0.0
C2948 C 0.0958 0.36508 0.03111 0.0
C2949 C 0.10399 0.32693 0.10703 0.0
C2950 C 0.11757 0.33811 0.11016 0.0
C2951 C 0.0946 0.32909 0.09786 0.0
C2952 C 0.09863 0.34245 0.09158 0.0
C2953 C 0.11225 0.35358 0.0944 0.0
C2954 C 0.12161 0.35146 0.10374 0.0
C2955 C 0.08849 0.34474 0.08225 0.0
C2956 C 0.09105 0.34879 0.06497 0.0
C2957 C 0.07592 0.34202 0.09002 0.0
C2958 C 0.07287 0.33819 0.10843 0.0
C2959 C 0.08216 0.34687 0.12133 0.0
C2960 C 0.07932 0.34311 0.13862 0.0
C2961 C 0.06717 0.33074 0.14317 0.0
C2962 C 0.05782 0.32213 0.13046 0.0
C2963 C 0.06062 0.32583 0.11315 0.0
H2964 H 0.06499 0.32784 0.15656 0.0
H2965 H 0.09145 0.36076 0.98774 0.0
H2966 H 0.68185 0.68868 0.05512 0.0
H2967 H 0.68567 0.70877 0.07301 0.0
H2968 H 0.65711 0.71373 0.04137 0.0
H2969 H 0.65323 0.69375 0.02354 0.0
H2970 H 0.68197 0.73868 0.04726 0.0
H2971 H 0.64703 0.69897 0.07951 0.0
H2972 H 0.63786 0.67661 0.09479 0.0
H2973 H 0.67192 0.6962 0.13035 0.0
H2974 H 0.68142 0.71865 0.11508 0.0
H2975 H 0.66634 0.78326 0.09341 0.0
H2976 H 0.66516 0.76323 0.07852 0.0
H2977 H 0.69025 0.76031 0.11812 0.0
H2978 H 0.69085 0.77995 0.13364 0.0
H2979 H 0.66988 0.73493 0.10927 0.0
H2980 H 0.70431 0.77475 0.0789 0.0
H2981 H 0.71445 0.79724 0.06365 0.0
H2982 H 0.68296 0.77785 0.02477 0.0
H2983 H 0.6725 0.75528 0.03992 0.0
C2984 C 0.67637 0.69405 0.05203 0.0
C2985 C 0.66725 0.68967 0.03795 0.0
C2986 C 0.67854 0.70548 0.06226 0.0
C2987 C 0.67164 0.71268 0.0585 0.0
C2988 C 0.66255 0.70831 0.04444 0.0
C2989 C 0.66031 0.69687 0.03431 0.0
C2990 C 0.67393 0.72492 0.06898 0.0
C2991 C 0.67923 0.73786 0.06079 0.0
C2992 C 0.67081 0.7239 0.08675 0.0
C2993 C 0.66502 0.71045 0.09603 0.0
C2994 C 0.65263 0.69849 0.09049 0.0
C2995 C 0.64736 0.6858 0.09917 0.0
C2996 C 0.65433 0.68497 0.1135 0.0
C2997 C 0.66655 0.69685 0.11922 0.0
C2998 C 0.67188 0.70956 0.11056 0.0
C2999 C 0.67145 0.77827 0.09912 0.0
C3000 C 0.67872 0.78326 0.11472 0.0
C3001 C 0.67092 0.76691 0.09046 0.0
C3002 C 0.67784 0.76043 0.09704 0.0
C3003 C 0.68492 0.76522 0.11274 0.0
C3004 C 0.68537 0.77653 0.12151 0.0
C3005 C 0.67761 0.74866 0.08744 0.0
C3006 C 0.67275 0.73582 0.09579 0.0
C3007 C 0.68128 0.74979 0.06982 0.0
C3008 C 0.68756 0.76334 0.06063 0.0
C3009 C 0.69949 0.7753 0.06716 0.0
C3010 C 0.7053 0.78806 0.05853 0.0
C3011 C 0.69934 0.78898 0.04327 0.0
C3012 C 0.68756 0.77712 0.0366 0.0
C3013 C 0.6817 0.76434 0.04519 0.0
H3014 H 0.70385 0.79887 0.03661 0.0
H3015 H 0.65023 0.67514 0.1202 0.0
H3016 H 0.31415 0.9615 0.02773 0.0
H3017 H 0.2936 0.94505 0.04422 0.0
H3018 H 0.29149 0.97967 0.06664 0.0
H3019 H 0.31209 0.99623 0.05022 0.0
H3020 H 0.28826 0.94211 0.07936 0.0
H3021 H 0.25647 0.9688 0.06906 0.0
H3022 H 0.25461 0.98435 0.04827 0.0
H3023 H 0.26947 0.96856 0.00792 0.0
H3024 H 0.27123 0.95279 0.02841 0.0
H3025 H 0.22766 0.91213 0.13284 0.0
H3026 H 0.24865 0.92975 0.11784 0.0
H3027 H 0.23021 0.91018 0.06917 0.0
H3028 H 0.20925 0.89246 0.08411 0.0
H3029 H 0.24363 0.94019 0.06958 0.0
H3030 H 0.25213 0.90319 0.08446 0.0
H3031 H 0.2537 0.88697 0.10436 0.0
H3032 H 0.28498 0.92195 0.13358 0.0
H3033 H 0.28344 0.93839 0.11399 0.0
C3034 C 0.30936 0.96562 0.03624 0.0
C3035 C 0.31468 0.98015 0.03763 0.0
C3036 C 0.29766 0.95621 0.04569 0.0
C3037 C 0.29098 0.96114 0.05654 0.0
C3038 C 0.29644 0.97566 0.05823 0.0
C3039 C 0.30821 0.98509 0.04887 0.0
C3040 C 0.27806 0.95104 0.06566 0.0
C3041 C 0.27852 0.94174 0.07729 0.0
C3042 C 0.26534 0.95047 0.06282 0.0
C3043 C 0.26412 0.95974 0.05032 0.0
C3044 C 0.25929 0.96862 0.05574 0.0
C3045 C 0.25826 0.97747 0.04401 0.0
C3046 C 0.26197 0.97748 0.0268 0.0
C3047 C 0.26666 0.96859 0.02127 0.0
C3048 C 0.26769 0.95971 0.03294 0.0
C3049 C 0.22806 0.91168 0.11894 0.0
C3050 C 0.21687 0.90093 0.10961 0.0
C3051 C 0.24004 0.9217 0.11041 0.0
C3052 C 0.24096 0.92121 0.09243 0.0
C3053 C 0.22967 0.91072 0.08306 0.0
C3054 C 0.21777 0.90058 0.09159 0.0
C3055 C 0.25387 0.93137 0.08338 0.0
C3056 C 0.25341 0.94067 0.07177 0.0
C3057 C 0.26657 0.93187 0.08614 0.0
C3058 C 0.26756 0.92201 0.09787 0.0
C3059 C 0.25926 0.90742 0.09522 0.0
C3060 C 0.26016 0.89819 0.10642 0.0
C3061 C 0.26941 0.90342 0.12025 0.0
C3062 C 0.27781 0.91791 0.12288 0.0
C3063 C 0.27693 0.92719 0.11172 0.0
H3064 H 0.2701 0.89626 0.12891 0.0
H3065 H 0.26117 0.98435 0.01775 0.0
H3066 H 0.33111 0.01855 0.96779 0.0
H3067 H 0.32964 0.03671 0.95222 0.0
H3068 H 0.35903 0.06823 0.98734 0.0
H3069 H 0.3607 0.05006 0.00294 0.0
H3070 H 0.33432 0.06927 0.98159 0.0
H3071 H 0.37003 0.06739 0.94922 0.0
H3072 H 0.38027 0.05565 0.93295 0.0
H3073 H 0.34745 0.04058 0.89575 0.0
H3074 H 0.33688 0.05204 0.91195 0.0
H3075 H 0.34144 0.12703 0.93509 0.0
H3076 H 0.34583 0.11078 0.95062 0.0
H3077 H 0.32432 0.07923 0.9112 0.0
H3078 H 0.32072 0.09573 0.89498 0.0
H3079 H 0.34629 0.07894 0.91977 0.0
H3080 H 0.30952 0.07875 0.95171 0.0
H3081 H 0.29767 0.08892 0.96784 0.0
H3082 H 0.33028 0.10604 0.00548 0.0
H3083 H 0.34242 0.09613 0.98945 0.0
C3084 C 0.33734 0.02936 0.97215 0.0
C3085 C 0.34603 0.03289 0.98658 0.0
C3086 C 0.33651 0.03972 0.96321 0.0
C3087 C 0.34426 0.05381 0.9686 0.0
C3088 C 0.35298 0.0574 0.98299 0.0
C3089 C 0.35396 0.04704 0.99182 0.0
C3090 C 0.34292 0.06465 0.95938 0.0
C3091 C 0.33716 0.0716 0.96815 0.0
C3092 C 0.34621 0.0673 0.94172 0.0
C3093 C 0.3526 0.06047 0.93189 0.0
C3094 C 0.36493 0.06147 0.93765 0.0
C3095 C 0.37081 0.05489 0.92843 0.0
C3096 C 0.3645 0.04735 0.91335 0.0
C3097 C 0.35232 0.04641 0.90744 0.0
C3098 C 0.34639 0.05296 0.91663 0.0
C3099 C 0.33778 0.1167 0.92957 0.0
C3100 C 0.3307 0.11274 0.91373 0.0
C3101 C 0.34014 0.10733 0.93862 0.0
C3102 C 0.33522 0.09366 0.93225 0.0
C3103 C 0.32818 0.08968 0.91644 0.0
C3104 C 0.32597 0.0991 0.90727 0.0
C3105 C 0.33757 0.08357 0.94192 0.0
C3106 C 0.34351 0.07673 0.93324 0.0
C3107 C 0.33422 0.08084 0.95961 0.0
C3108 C 0.32695 0.08683 0.96928 0.0
C3109 C 0.31422 0.08478 0.96335 0.0
C3110 C 0.30744 0.09048 0.97249 0.0
C3111 C 0.31324 0.09816 0.98765 0.0
C3112 C 0.32581 0.10012 0.99372 0.0
C3113 C 0.33264 0.09445 0.98463 0.0
H3114 H 0.30797 0.10256 0.99471 0.0
H3115 H 0.36907 0.04226 0.90623 0.0
H3116 H 0.99639 0.31579 0.9669 0.0
H3117 H 0.97955 0.29536 0.94987 0.0
H3118 H 0.94689 0.28927 0.98485 0.0
H3119 H 0.9636 0.3096 0.00187 0.0
H3120 H 0.94693 0.2648 0.97781 0.0
H3121 H 0.94937 0.30333 0.94659 0.0
H3122 H 0.96144 0.32572 0.93103 0.0
H3123 H 0.97613 0.30751 0.89358 0.0
H3124 H 0.96432 0.28506 0.90909 0.0
H3125 H 0.88665 0.21629 0.93314 0.0
H3126 H 0.90485 0.23692 0.94808 0.0
H3127 H 0.9335 0.24348 0.90688 0.0
H3128 H 0.91506 0.22337 0.89124 0.0
H3129 H 0.93686 0.26754 0.91645 0.0
H3130 H 0.93432 0.22903 0.94641 0.0
H3131 H 0.92307 0.2066 0.96189 0.0
H3132 H 0.90971 0.22445 0.00148 0.0
H3133 H 0.92072 0.24695 0.98611 0.0
C3134 C 0.98561 0.31011 0.9709 0.0
C3135 C 0.9813 0.31428 0.98571 0.0
C3136 C 0.97601 0.29848 0.96116 0.0
C3137 C 0.96198 0.29085 0.96609 0.0
C3138 C 0.95768 0.29501 0.98085 0.0
C3139 C 0.96723 0.30666 0.99052 0.0
C3140 C 0.95174 0.27836 0.95609 0.0
C3141 C 0.94461 0.2654 0.96444 0.0
C3142 C 0.94908 0.2791 0.93851 0.0
C3143 C 0.95608 0.29256 0.92911 0.0
C3144 C 0.95527 0.30413 0.93512 0.0
C3145 C 0.96205 0.31683 0.92629 0.0
C3146 C 0.96958 0.31805 0.91135 0.0
C3147 C 0.97031 0.30656 0.90517 0.0
C3148 C 0.96357 0.29385 0.91397 0.0
C3149 C 0.89675 0.22219 0.9271 0.0
C3150 C 0.89934 0.21809 0.91095 0.0
C3151 C 0.90723 0.23391 0.9358 0.0
C3152 C 0.92065 0.24162 0.92878 0.0
C3153 C 0.92327 0.23764 0.91262 0.0
C3154 C 0.91273 0.22602 0.90378 0.0
C3155 C 0.93185 0.25394 0.93823 0.0
C3156 C 0.9392 0.26687 0.92979 0.0
C3157 C 0.93484 0.25315 0.9557 0.0
C3158 C 0.92825 0.23965 0.96503 0.0
C3159 C 0.9289 0.22815 0.95836 0.0
C3160 C 0.92258 0.21542 0.96712 0.0
C3161 C 0.91565 0.21409 0.98264 0.0
C3162 C 0.91506 0.2255 0.98945 0.0
C3163 C 0.92136 0.23824 0.98073 0.0
H3164 H 0.91076 0.20423 0.98941 0.0
H3165 H 0.97482 0.32789 0.90453 0.0
H3166 H 0.68828 0.67313 0.96694 0.0
H3167 H 0.70809 0.67511 0.95114 0.0
H3168 H 0.7092 0.64538 0.98518 0.0
H3169 H 0.68917 0.64323 0.00108 0.0
H3170 H 0.73551 0.67092 0.97985 0.0
H3171 H 0.69735 0.63471 0.94655 0.0
H3172 H 0.67561 0.62462 0.92998 0.0
H3173 H 0.69518 0.65844 0.89408 0.0
H3174 H 0.71698 0.66887 0.91062 0.0
H3175 H 0.78646 0.66492 0.93177 0.0
H3176 H 0.76613 0.66093 0.94847 0.0
H3177 H 0.75575 0.68083 0.90877 0.0
H3178 H 0.77566 0.68407 0.89172 0.0
H3179 H 0.73364 0.65913 0.91777 0.0
H3180 H 0.77032 0.69676 0.94963 0.0
H3181 H 0.79239 0.7095 0.96561 0.0
H3182 H 0.77651 0.67694 0.0033 0.0
H3183 H 0.75439 0.6639 0.98741 0.0
C3184 C 0.69265 0.66692 0.97101 0.0
C3185 C 0.68717 0.65801 0.98525 0.0
C3186 C 0.70396 0.66805 0.96194 0.0
C3187 C 0.71006 0.66036 0.96697 0.0
C3188 C 0.7046 0.65139 0.98112 0.0
C3189 C 0.69314 0.65011 0.99011 0.0
C3190 C 0.72238 0.66205 0.95762 0.0
C3191 C 0.73511 0.66812 0.96634 0.0
C3192 C 0.72189 0.65893 0.93986 0.0
C3193 C 0.70877 0.65263 0.92991 0.0
C3194 C 0.69698 0.64006 0.93521 0.0
C3195 C 0.68465 0.63427 0.9258 0.0
C3196 C 0.68401 0.6409 0.91098 0.0
C3197 C 0.69569 0.65332 0.90555 0.0
C3198 C 0.70804 0.65917 0.91494 0.0
C3199 C 0.77983 0.66849 0.92676 0.0
C3200 C 0.78253 0.67484 0.9106 0.0
C3201 C 0.76828 0.6663 0.93631 0.0
C3202 C 0.75947 0.67076 0.93003 0.0
C3203 C 0.76235 0.67727 0.91391 0.0
C3204 C 0.77373 0.67919 0.90421 0.0
C3205 C 0.74695 0.66815 0.9399 0.0
C3206 C 0.73414 0.6619 0.93129 0.0
C3207 C 0.74745 0.6715 0.95765 0.0
C3208 C 0.76076 0.67928 0.96722 0.0
C3209 C 0.77158 0.69226 0.96124 0.0
C3210 C 0.78409 0.69954 0.9703 0.0
C3211 C 0.78587 0.69401 0.98543 0.0
C3212 C 0.77512 0.6812 0.99156 0.0
C3213 C 0.76259 0.67386 0.98254 0.0
H3214 H 0.79556 0.69967 0.99243 0.0
H3215 H 0.67449 0.63641 0.90365 0.0
H3216 H 0.97512 0.65784 0.96445 0.0
H3217 H 0.95693 0.6592 0.94917 0.0
H3218 H 0.93591 0.65551 0.99734 0.0
H3219 H 0.9537 0.65307 0.01248 0.0
H3220 H 0.91738 0.64305 0.97435 0.0
H3221 H 0.95823 0.68839 0.97665 0.0
H3222 H 0.98308 0.70613 0.97322 0.0
H3223 H 0.97992 0.69834 0.91871 0.0
H3224 H 0.9551 0.68043 0.92184 0.0
H3225 H 0.88016 0.67353 0.93782 0.0
H3226 H 0.89631 0.67022 0.95535 0.0
H3227 H 0.91364 0.66306 0.90932 0.0
H3228 H 0.89758 0.66641 0.89174 0.0
H3229 H 0.93365 0.68208 0.933 0.0
H3230 H 0.8917 0.63591 0.93267 0.0
H3231 H 0.86671 0.61963 0.93778 0.0
H3232 H 0.87203 0.63142 0.99126 0.0
H3233 H 0.89703 0.64792 0.98641 0.0
C3234 C 0.96646 0.65707 0.97169 0.0
C3235 C 0.96576 0.65541 0.98958 0.0
C3236 C 0.95615 0.65801 0.96301 0.0
C3237 C 0.94527 0.65799 0.97214 0.0
C3238 C 0.94424 0.65569 0.98999 0.0
C3239 C 0.95437 0.65428 0.99864 0.0
C3240 C 0.93532 0.6608 0.96306 0.0
C3241 C 0.92098 0.65172 0.96552 0.0
C3242 C 0.93992 0.67211 0.95147 0.0
C3243 C 0.95483 0.68299 0.9495 0.0
C3244 C 0.96286 0.69041 0.96394 0.0
C3245 C 0.97693 0.7005 0.96205 0.0
C3246 C 0.98308 0.70334 0.94576 0.0
C3247 C 0.97515 0.69613 0.93132 0.0
C3248 C 0.96107 0.68601 0.93314 0.0
C3249 C 0.88746 0.67132 0.93146 0.0
C3250 C 0.88759 0.67019 0.91342 0.0
C3251 C 0.89661 0.66934 0.94148 0.0
C3252 C 0.90609 0.66629 0.93362 0.0
C3253 C 0.90637 0.66536 0.91562 0.0
C3254 C 0.89714 0.6672 0.90561 0.0
C3255 C 0.91584 0.66419 0.94408 0.0
C3256 C 0.93013 0.67346 0.94191 0.0
C3257 C 0.91119 0.6533 0.95621 0.0
C3258 C 0.8962 0.64324 0.95914 0.0
C3259 C 0.88752 0.63511 0.94549 0.0
C3260 C 0.87336 0.62583 0.94834 0.0
C3261 C 0.86778 0.62452 0.96482 0.0
C3262 C 0.87636 0.63245 0.9785 0.0
C3263 C 0.89053 0.64176 0.97571 0.0
H3264 H 0.85681 0.61733 0.967 0.0
H3265 H 0.99398 0.71115 0.94433 0.0
H3266 H 0.35575 0.3172 0.98805 0.0
H3267 H 0.35137 0.29738 0.96947 0.0
H3268 H 0.31058 0.28986 0.95775 0.0
H3269 H 0.31503 0.31 0.97605 0.0
H3270 H 0.31303 0.2654 0.96932 0.0
H3271 H 0.33072 0.30247 0.9278 0.0
H3272 H 0.34755 0.32606 0.91708 0.0
H3273 H 0.37989 0.31623 0.91823 0.0
H3274 H 0.3633 0.29265 0.92925 0.0
H3275 H 0.30044 0.21153 0.90943 0.0
H3276 H 0.30175 0.23206 0.92304 0.0
H3277 H 0.3465 0.25299 0.92339 0.0
H3278 H 0.34535 0.23307 0.90834 0.0
H3279 H 0.34006 0.27106 0.91608 0.0
H3280 H 0.32474 0.23608 0.96004 0.0
H3281 H 0.3096 0.21302 0.9733 0.0
H3282 H 0.27486 0.21914 0.97025 0.0
H3283 H 0.28977 0.24218 0.95678 0.0
C3284 C 0.34588 0.31139 0.98146 0.0
C3285 C 0.33573 0.31513 0.98346 0.0
C3286 C 0.34341 0.3001 0.97085 0.0
C3287 C 0.33068 0.29224 0.96226 0.0
C3288 C 0.32047 0.29586 0.96429 0.0
C3289 C 0.32304 0.30735 0.97467 0.0
C3290 C 0.32807 0.28006 0.95148 0.0
C3291 C 0.3187 0.26657 0.95748 0.0
C3292 C 0.33583 0.28172 0.93639 0.0
C3293 C 0.34578 0.29582 0.92949 0.0
C3294 C 0.34145 0.30537 0.9259 0.0
C3295 C 0.35094 0.31874 0.91975 0.0
C3296 C 0.36479 0.32265 0.91701 0.0
C3297 C 0.36916 0.31319 0.92037 0.0
C3298 C 0.35971 0.29981 0.92655 0.0
C3299 C 0.31059 0.22057 0.91208 0.0
C3300 C 0.32279 0.22051 0.90782 0.0
C3301 C 0.31131 0.23226 0.92014 0.0
C3302 C 0.32422 0.244 0.92461 0.0
C3303 C 0.3364 0.24405 0.92018 0.0
C3304 C 0.33571 0.23251 0.91178 0.0
C3305 C 0.32512 0.25621 0.93401 0.0
C3306 C 0.3342 0.26977 0.92778 0.0
C3307 C 0.31731 0.25462 0.94913 0.0
C3308 C 0.30833 0.24077 0.95722 0.0
C3309 C 0.31385 0.23246 0.96208 0.0
C3310 C 0.30532 0.2194 0.96965 0.0
C3311 C 0.29127 0.2146 0.97256 0.0
C3312 C 0.28574 0.22286 0.96796 0.0
C3313 C 0.29422 0.23592 0.96036 0.0
H3314 H 0.28468 0.20449 0.97843 0.0
H3315 H 0.37213 0.33301 0.91226 0.0
H3316 H 0.68822 0.00839 0.96677 0.0
H3317 H 0.70824 0.02471 0.94936 0.0
H3318 H 0.71393 0.05918 0.98177 0.0
H3319 H 0.69372 0.04302 0.9988 0.0
H3320 H 0.71729 0.06689 0.94996 0.0
H3321 H 0.73449 0.04385 0.98509 0.0
H3322 H 0.73495 0.02367 0.99714 0.0
H3323 H 0.74019 0.01116 0.94645 0.0
H3324 H 0.73958 0.03117 0.93407 0.0
H3325 H 0.78783 0.1175 0.93291 0.0
H3326 H 0.76674 0.09945 0.94696 0.0
H3327 H 0.75972 0.07059 0.9052 0.0
H3328 H 0.78048 0.08876 0.89057 0.0
H3329 H 0.75665 0.05926 0.93957 0.0
H3330 H 0.74078 0.0839 0.90516 0.0
H3331 H 0.74123 0.10488 0.89432 0.0
H3332 H 0.7344 0.11522 0.94548 0.0
H3333 H 0.73413 0.09439 0.95667 0.0
C3334 C 0.69373 0.01945 0.97013 0.0
C3335 C 0.68944 0.02442 0.98418 0.0
C3336 C 0.70522 0.02877 0.96023 0.0
C3337 C 0.71274 0.04318 0.96438 0.0
C3338 C 0.70831 0.04813 0.97829 0.0
C3339 C 0.69677 0.03887 0.98805 0.0
C3340 C 0.72523 0.05316 0.95434 0.0
C3341 C 0.72593 0.06526 0.94786 0.0
C3342 C 0.73644 0.05094 0.95123 0.0
C3343 C 0.73682 0.03891 0.95864 0.0
C3344 C 0.73563 0.03673 0.9765 0.0
C3345 C 0.73594 0.02533 0.98339 0.0
C3346 C 0.73756 0.01611 0.97256 0.0
C3347 C 0.73891 0.01829 0.95482 0.0
C3348 C 0.73859 0.02966 0.94786 0.0
C3349 C 0.78175 0.1074 0.92655 0.0
C3350 C 0.78588 0.10468 0.9105 0.0
C3351 C 0.76975 0.09705 0.93468 0.0
C3352 C 0.76166 0.08373 0.92706 0.0
C3353 C 0.76587 0.08081 0.9113 0.0
C3354 C 0.77779 0.09121 0.90302 0.0
C3355 C 0.7487 0.07298 0.93549 0.0
C3356 C 0.74793 0.06078 0.94162 0.0
C3357 C 0.7375 0.07517 0.93848 0.0
C3358 C 0.73757 0.08765 0.93177 0.0
C3359 C 0.7395 0.09071 0.91412 0.0
C3360 C 0.73969 0.10256 0.90791 0.0
C3361 C 0.73788 0.1114 0.91921 0.0
C3362 C 0.73582 0.10837 0.93674 0.0
C3363 C 0.73563 0.09654 0.94302 0.0
H3364 H 0.73803 0.12057 0.91438 0.0
H3365 H 0.7378 0.00729 0.97792 0.0
H3366 H 0.67547 0.98737 0.05294 0.0
H3367 H 0.6772 0.9694 0.06856 0.0
H3368 H 0.64343 0.93706 0.03859 0.0
H3369 H 0.64164 0.95505 0.02283 0.0
H3370 H 0.6591 0.94768 0.0886 0.0
H3371 H 0.65112 0.91095 0.03088 0.0
H3372 H 0.65447 0.9122 0.99939 0.0
H3373 H 0.68706 0.95537 0.00411 0.0
H3374 H 0.68404 0.95431 0.03561 0.0
H3375 H 0.65067 0.88331 0.11823 0.0
H3376 H 0.64719 0.9002 0.10245 0.0
H3377 H 0.68831 0.91822 0.0808 0.0
H3378 H 0.69179 0.90126 0.09636 0.0
H3379 H 0.66907 0.9148 0.05662 0.0
H3380 H 0.68317 0.93447 0.11341 0.0
H3381 H 0.6819 0.9344 0.14509 0.0
H3382 H 0.64073 0.92779 0.14266 0.0
H3383 H 0.64168 0.92762 0.11093 0.0
C3384 C 0.66835 0.97643 0.04972 0.0
C3385 C 0.65845 0.97263 0.03659 0.0
C3386 C 0.66932 0.96617 0.05871 0.0
C3387 C 0.66053 0.9519 0.05466 0.0
C3388 C 0.65042 0.94803 0.04181 0.0
C3389 C 0.64937 0.95831 0.03286 0.0
C3390 C 0.66226 0.94116 0.06359 0.0
C3391 C 0.66118 0.94043 0.0816 0.0
C3392 C 0.66523 0.93186 0.05449 0.0
C3393 C 0.66723 0.93258 0.03557 0.0
C3394 C 0.65902 0.92069 0.02519 0.0
C3395 C 0.66086 0.92137 0.00734 0.0
C3396 C 0.67093 0.93387 0.99975 0.0
C3397 C 0.67922 0.94571 0.01 0.0
C3398 C 0.67744 0.94508 0.02784 0.0
C3399 C 0.65892 0.89079 0.10997 0.0
C3400 C 0.67153 0.89099 0.10858 0.0
C3401 C 0.65695 0.90048 0.10105 0.0
C3402 C 0.66753 0.91053 0.09054 0.0
C3403 C 0.68001 0.91056 0.08884 0.0
C3404 C 0.68203 0.90094 0.09785 0.0
C3405 C 0.66572 0.92121 0.0816 0.0
C3406 C 0.66681 0.92194 0.0636 0.0
C3407 C 0.663 0.93067 0.09073 0.0
C3408 C 0.66244 0.93089 0.1098 0.0
C3409 C 0.67381 0.93289 0.11963 0.0
C3410 C 0.67315 0.93291 0.13759 0.0
C3411 C 0.66123 0.93105 0.14588 0.0
C3412 C 0.64995 0.92921 0.13622 0.0
C3413 C 0.65054 0.92916 0.11824 0.0
H3414 H 0.66074 0.93107 0.15979 0.0
H3415 H 0.67234 0.93438 0.98594 0.0
H3416 H 0.00781 0.68786 0.05673 0.0
H3417 H 0.02501 0.7085 0.07297 0.0
H3418 H 0.05519 0.71772 0.03277 0.0
H3419 H 0.0382 0.6968 0.01683 0.0
H3420 H 0.06711 0.72154 0.06226 0.0
H3421 H 0.03718 0.73589 0.03796 0.0
H3422 H 0.01487 0.73428 0.03185 0.0
H3423 H 0.00823 0.73695 0.0859 0.0
H3424 H 0.03043 0.73839 0.09235 0.0
H3425 H 0.11505 0.79255 0.08397 0.0
H3426 H 0.09706 0.77154 0.06915 0.0
H3427 H 0.07076 0.76071 0.11397 0.0
H3428 H 0.08883 0.78155 0.12907 0.0
H3429 H 0.05668 0.7576 0.08318 0.0
H3430 H 0.08754 0.74403 0.1068 0.0
H3431 H 0.11031 0.74641 0.11199 0.0
H3432 H 0.11563 0.7431 0.05771 0.0
H3433 H 0.09297 0.74091 0.05217 0.0
C3434 C 0.01812 0.69429 0.05138 0.0
C3435 C 0.02166 0.69078 0.03549 0.0
C3436 C 0.02792 0.70613 0.06063 0.0
C3437 C 0.04134 0.71482 0.05396 0.0
C3438 C 0.04491 0.7112 0.03817 0.0
C3439 C 0.03519 0.69926 0.02905 0.0
C3440 C 0.05172 0.72765 0.06344 0.0
C3441 C 0.06486 0.72949 0.06663 0.0
C3442 C 0.04873 0.73792 0.06949 0.0
C3443 C 0.0354 0.7371 0.06564 0.0
C3444 C 0.03092 0.73603 0.04855 0.0
C3445 C 0.0183 0.73516 0.04503 0.0
C3446 C 0.01012 0.73547 0.05848 0.0
C3447 C 0.01456 0.73669 0.07549 0.0
C3448 C 0.02717 0.73754 0.07909 0.0
C3449 C 0.10549 0.78566 0.09074 0.0
C3450 C 0.10343 0.78869 0.10776 0.0
C3451 C 0.0952 0.77369 0.08222 0.0
C3452 C 0.08266 0.76451 0.09054 0.0
C3453 C 0.08038 0.76768 0.10734 0.0
C3454 C 0.0907 0.77963 0.11591 0.0
C3455 C 0.07203 0.75148 0.08179 0.0
C3456 C 0.05887 0.7496 0.07879 0.0
C3457 C 0.07504 0.74125 0.07575 0.0
C3458 C 0.08861 0.74243 0.07906 0.0
C3459 C 0.09361 0.74392 0.09596 0.0
C3460 C 0.10649 0.74521 0.09896 0.0
C3461 C 0.11443 0.74494 0.08518 0.0
C3462 C 0.10948 0.74332 0.06837 0.0
C3463 C 0.09661 0.74204 0.06529 0.0
H3464 H 0.1244 0.74594 0.08753 0.0
H3465 H 1.00035 0.7348 0.05573 0.0
H3466 H 0.32108 0.33747 0.0596 0.0
H3467 H 0.3018 0.3358 0.07643 0.0
H3468 H 0.29239 0.35533 0.0353 0.0
H3469 H 0.31228 0.35783 0.01894 0.0
H3470 H 0.28803 0.36425 0.06325 0.0
H3471 H 0.27393 0.31811 0.04263 0.0
H3472 H 0.27555 0.297 0.03763 0.0
H3473 H 0.27516 0.29103 0.09212 0.0
H3474 H 0.27372 0.31221 0.09746 0.0
H3475 H 0.21707 0.33679 0.08878 0.0
H3476 H 0.23754 0.34019 0.07286 0.0
H3477 H 0.25424 0.33409 0.11947 0.0
H3478 H 0.23387 0.33086 0.13551 0.0
H3479 H 0.25437 0.31824 0.08873 0.0
H3480 H 0.26777 0.36536 0.10772 0.0
H3481 H 0.26435 0.38554 0.11051 0.0
H3482 H 0.26372 0.38819 0.05551 0.0
H3483 H 0.26694 0.36788 0.0524 0.0
C3484 C 0.31496 0.34153 0.05425 0.0
C3485 C 0.31808 0.3477 0.03796 0.0
C3486 C 0.30387 0.34046 0.0638 0.0
C3487 C 0.29533 0.34505 0.05696 0.0
C3488 C 0.29874 0.35163 0.04086 0.0
C3489 C 0.3101 0.35306 0.03151 0.0
C3490 C 0.28277 0.34279 0.06644 0.0
C3491 C 0.28061 0.35412 0.0686 0.0
C3492 C 0.27305 0.32961 0.0736 0.0
C3493 C 0.27385 0.31682 0.07044 0.0
C3494 C 0.27428 0.31234 0.05355 0.0
C3495 C 0.27515 0.30036 0.05065 0.0
C3496 C 0.27549 0.2927 0.06455 0.0
C3497 C 0.27491 0.29698 0.08137 0.0
C3498 C 0.27405 0.30897 0.08434 0.0
C3499 C 0.22509 0.33612 0.09558 0.0
C3500 C 0.22394 0.33359 0.11335 0.0
C3501 C 0.23677 0.33812 0.08652 0.0
C3502 C 0.24738 0.33744 0.09504 0.0
C3503 C 0.24614 0.33467 0.11271 0.0
C3504 C 0.23457 0.3329 0.12185 0.0
C3505 C 0.2598 0.33968 0.0855 0.0
C3506 C 0.26187 0.32833 0.08333 0.0
C3507 C 0.26922 0.35271 0.07797 0.0
C3508 C 0.26747 0.36503 0.07984 0.0
C3509 C 0.26679 0.37018 0.09623 0.0
C3510 C 0.26491 0.38165 0.09786 0.0
C3511 C 0.26378 0.38812 0.08319 0.0
C3512 C 0.26458 0.38316 0.06686 0.0
C3513 C 0.26645 0.37168 0.06515 0.0
H3514 H 0.26232 0.397 0.08449 0.0
H3515 H 0.27617 0.28343 0.06228 0.0
H3516 H 0.7184 0.69487 0.3532 0.0
H3517 H 0.73562 0.69265 0.36984 0.0
H3518 H 0.70366 0.66531 0.40535 0.0
H3519 H 0.68633 0.66726 0.38861 0.0
H3520 H 0.72958 0.68742 0.42089 0.0
H3521 H 0.71248 0.6502 0.37812 0.0
H3522 H 0.70697 0.6406 0.34854 0.0
H3523 H 0.74981 0.66666 0.33418 0.0
H3524 H 0.75554 0.67658 0.36363 0.0
H3525 H 0.76603 0.66108 0.46535 0.0
H3526 H 0.74875 0.66369 0.44946 0.0
H3527 H 0.77669 0.67971 0.40602 0.0
H3528 H 0.79357 0.67622 0.4216 0.0
H3529 H 0.7526 0.66366 0.39437 0.0
H3530 H 0.77043 0.70117 0.43601 0.0
H3531 H 0.77672 0.71193 0.46499 0.0
H3532 H 0.73406 0.68747 0.48081 0.0
H3533 H 0.72755 0.67642 0.45198 0.0
C3534 C 0.71506 0.68846 0.36462 0.0
C3535 C 0.70101 0.6812 0.36958 0.0
C3536 C 0.72489 0.68718 0.37407 0.0
C3537 C 0.72088 0.67877 0.38876 0.0
C3538 C 0.70695 0.67185 0.39405 0.0
C3539 C 0.69707 0.67294 0.38444 0.0
C3540 C 0.73114 0.67686 0.39834 0.0
C3541 C 0.73454 0.68211 0.41521 0.0
C3542 C 0.73782 0.67025 0.3907 0.0
C3543 C 0.73441 0.66424 0.37302 0.0
C3544 C 0.7207 0.65398 0.36861 0.0
C3545 C 0.71755 0.64846 0.35188 0.0
C3546 C 0.72803 0.65305 0.33948 0.0
C3547 C 0.7417 0.66313 0.34379 0.0
C3548 C 0.74491 0.6687 0.3605 0.0
C3549 C 0.76841 0.66515 0.4524 0.0
C3550 C 0.78108 0.66852 0.44466 0.0
C3551 C 0.7586 0.66675 0.44336 0.0
C3552 C 0.76149 0.67221 0.42662 0.0
C3553 C 0.77418 0.6755 0.4189 0.0
C3554 C 0.78384 0.67356 0.42779 0.0
C3555 C 0.75124 0.67432 0.41707 0.0
C3556 C 0.74777 0.66906 0.40014 0.0
C3557 C 0.74466 0.68114 0.42459 0.0
C3558 C 0.74853 0.68788 0.44188 0.0
C3559 C 0.76241 0.69803 0.4457 0.0
C3560 C 0.76601 0.70418 0.46209 0.0
C3561 C 0.7558 0.70036 0.47474 0.0
C3562 C 0.74196 0.69041 0.471 0.0
C3563 C 0.7383 0.68421 0.45463 0.0
H3564 H 0.75861 0.70513 0.48743 0.0
H3565 H 0.72557 0.64876 0.32653 0.0
H3566 H 0.32303 0.02782 0.35661 0.0
H3567 H 0.32834 0.04868 0.37348 0.0
H3568 H 0.35532 0.0421 0.40614 0.0
H3569 H 0.35007 0.02108 0.38917 0.0
H3570 H 0.33724 0.0483 0.4243 0.0
H3571 H 0.36998 0.06731 0.37836 0.0
H3572 H 0.37783 0.07066 0.34817 0.0
H3573 H 0.35159 0.08713 0.3366 0.0
H3574 H 0.34342 0.08368 0.36668 0.0
H3575 H 0.36124 0.11513 0.46482 0.0
H3576 H 0.36058 0.09522 0.45002 0.0
H3577 H 0.33703 0.0986 0.40874 0.0
H3578 H 0.3383 0.11895 0.42296 0.0
H3579 H 0.35631 0.09442 0.39606 0.0
H3580 H 0.32255 0.07409 0.44187 0.0
H3581 H 0.31435 0.07011 0.47193 0.0
H3582 H 0.34196 0.05531 0.48362 0.0
H3583 H 0.35067 0.05967 0.45384 0.0
C3584 C 0.33011 0.03079 0.36737 0.0
C3585 C 0.33618 0.02285 0.37154 0.0
C3586 C 0.33317 0.04274 0.37696 0.0
C3587 C 0.34234 0.04701 0.39093 0.0
C3588 C 0.34826 0.03899 0.39535 0.0
C3589 C 0.34528 0.02704 0.38563 0.0
C3590 C 0.34552 0.0598 0.40089 0.0
C3591 C 0.34166 0.05847 0.41826 0.0
C3592 C 0.35107 0.07296 0.39286 0.0
C3593 C 0.35601 0.07514 0.37476 0.0
C3594 C 0.3658 0.07154 0.36935 0.0
C3595 C 0.37032 0.07348 0.35226 0.0
C3596 C 0.36519 0.07908 0.34047 0.0
C3597 C 0.35555 0.08279 0.34575 0.0
C3598 C 0.35098 0.08086 0.36283 0.0
C3599 C 0.35607 0.11175 0.45249 0.0
C3600 C 0.34979 0.11865 0.44512 0.0
C3601 C 0.35557 0.10026 0.44413 0.0
C3602 C 0.3486 0.09528 0.42837 0.0
C3603 C 0.34243 0.10221 0.42093 0.0
C3604 C 0.34303 0.11377 0.42918 0.0
C3605 C 0.34771 0.08292 0.41946 0.0
C3606 C 0.35203 0.08432 0.40223 0.0
C3607 C 0.34256 0.06982 0.42765 0.0
C3608 C 0.33742 0.06741 0.44566 0.0
C3609 C 0.32702 0.07019 0.45091 0.0
C3610 C 0.32228 0.06787 0.46792 0.0
C3611 C 0.32771 0.06257 0.47974 0.0
C3612 C 0.33786 0.05955 0.47455 0.0
C3613 C 0.34272 0.06197 0.4576 0.0
H3614 H 0.324 0.06074 0.49289 0.0
H3615 H 0.36871 0.08057 0.32724 0.0
H3616 H 0.98603 0.33004 0.39113 0.0
H3617 H 0.96533 0.31387 0.40786 0.0
H3618 H 0.95429 0.28164 0.36913 0.0
H3619 H 0.97497 0.29756 0.35257 0.0
H3620 H 0.93213 0.28602 0.37964 0.0
H3621 H 0.96779 0.27898 0.40367 0.0
H3622 H 0.99033 0.28687 0.41762 0.0
H3623 H 0.97799 0.30229 0.46107 0.0
H3624 H 0.95545 0.29469 0.44724 0.0
H3625 H 0.88093 0.22317 0.41708 0.0
H3626 H 0.9017 0.24181 0.40319 0.0
H3627 H 0.91252 0.26675 0.44983 0.0
H3628 H 0.89209 0.24782 0.46412 0.0
H3629 H 0.93483 0.2682 0.43676 0.0
H3630 H 0.89897 0.27436 0.41463 0.0
H3631 H 0.87655 0.2676 0.40111 0.0
H3632 H 0.88908 0.25545 0.35488 0.0
H3633 H 0.91151 0.26194 0.36821 0.0
C3634 C 0.97919 0.31949 0.38624 0.0
C3635 C 0.9821 0.31504 0.37056 0.0
C3636 C 0.96741 0.31028 0.3958 0.0
C3637 C 0.95831 0.29659 0.38969 0.0
C3638 C 0.96117 0.29219 0.37402 0.0
C3639 C 0.97302 0.30128 0.36462 0.0
C3640 C 0.94572 0.28674 0.39952 0.0
C3641 C 0.93269 0.28202 0.39207 0.0
C3642 C 0.9465 0.28194 0.41597 0.0
C3643 C 0.96001 0.28643 0.42433 0.0
C3644 C 0.96994 0.28418 0.41613 0.0
C3645 C 0.9827 0.28857 0.42402 0.0
C3646 C 0.98561 0.29512 0.4402 0.0
C3647 C 0.97574 0.29724 0.44853 0.0
C3648 C 0.96296 0.29289 0.44067 0.0
C3649 C 0.88777 0.23256 0.42446 0.0
C3650 C 0.8848 0.23398 0.44173 0.0
C3651 C 0.89957 0.2433 0.41642 0.0
C3652 C 0.90858 0.2558 0.42537 0.0
C3653 C 0.90569 0.25724 0.44263 0.0
C3654 C 0.89392 0.24646 0.45072 0.0
C3655 C 0.92113 0.2672 0.41675 0.0
C3656 C 0.93419 0.27226 0.42441 0.0
C3657 C 0.92037 0.27247 0.40057 0.0
C3658 C 0.90688 0.26853 0.39248 0.0
C3659 C 0.8969 0.27014 0.40163 0.0
C3660 C 0.8842 0.26638 0.39399 0.0
C3661 C 0.88138 0.26107 0.37716 0.0
C3662 C 0.89128 0.25955 0.36792 0.0
C3663 C 0.90399 0.26328 0.37551 0.0
H3664 H 0.87154 0.25817 0.37127 0.0
H3665 H 0.9955 0.29851 0.44629 0.0
H3666 H 0.03853 0.38249 0.32405 0.0
H3667 H 0.03942 0.40173 0.30787 0.0
H3668 H 0.99501 0.37698 0.30044 0.0
H3669 H 0.99424 0.3576 0.31576 0.0
H3670 H 0.0058 0.38867 0.27226 0.0
H3671 H 0.01228 0.40577 0.33079 0.0
H3672 H 0.02357 0.41252 0.35925 0.0
H3673 H 0.06185 0.44332 0.33575 0.0
H3674 H 0.05083 0.43663 0.30712 0.0
H3675 H 0.9909 0.44153 0.2518 0.0
H3676 H 0.99317 0.42388 0.26738 0.0
H3677 H 0.03759 0.44795 0.26058 0.0
H3678 H 0.03543 0.46546 0.24438 0.0
H3679 H 0.02869 0.43759 0.29473 0.0
H3680 H 0.02061 0.42084 0.23608 0.0
H3681 H 0.00813 0.41423 0.2084 0.0
H3682 H 0.9712 0.38257 0.2335 0.0
H3683 H 0.9834 0.38913 0.26139 0.0
C3684 C 0.02898 0.38121 0.31897 0.0
C3685 C 0.01632 0.36856 0.32115 0.0
C3686 C 0.02947 0.39224 0.3098 0.0
C3687 C 0.01724 0.39093 0.30307 0.0
C3688 C 0.00461 0.37828 0.3054 0.0
C3689 C 0.00416 0.3672 0.31422 0.0
C3690 C 0.01748 0.40252 0.29332 0.0
C3691 C 0.01068 0.39932 0.27734 0.0
C3692 C 0.02414 0.41655 0.29962 0.0
C3693 C 0.03078 0.42059 0.31681 0.0
C3694 C 0.02314 0.41391 0.33169 0.0
C3695 C 0.02948 0.41774 0.34784 0.0
C3696 C 0.04343 0.42831 0.3493 0.0
C3697 C 0.05106 0.43511 0.3346 0.0
C3698 C 0.04476 0.43131 0.31841 0.0
C3699 C 1.00116 0.44304 0.2534 0.0
C3700 C 0.01297 0.45492 0.24666 0.0
C3701 C 0.00243 0.43297 0.26243 0.0
C3702 C 0.01554 0.43458 0.26503 0.0
C3703 C 0.02739 0.44655 0.25874 0.0
C3704 C 0.02612 0.45657 0.24954 0.0
C3705 C 0.01676 0.42357 0.27402 0.0
C3706 C 0.02387 0.42692 0.28975 0.0
C3707 C 0.01021 0.40962 0.26765 0.0
C3708 C 0.0029 0.40556 0.25085 0.0
C3709 C 0.0098 0.41254 0.23572 0.0
C3710 C 0.00278 0.40879 0.21999 0.0
C3711 C 0.98887 0.39801 0.2192 0.0
C3712 C 0.98197 0.39093 0.23413 0.0
C3713 C 0.98894 0.39465 0.2499 0.0
H3714 H 0.98346 0.39512 0.20701 0.0
H3715 H 0.04833 0.43127 0.36182 0.0
H3716 H 0.6329 0.65374 0.32008 0.0
H3717 H 0.61611 0.63294 0.30392 0.0
H3718 H 0.64766 0.62253 0.29355 0.0
H3719 H 0.66472 0.6438 0.3091 0.0
H3720 H 0.63225 0.61661 0.26643 0.0
H3721 H 0.62249 0.60605 0.32593 0.0
H3722 H 0.61766 0.60959 0.35599 0.0
H3723 H 0.58032 0.60806 0.34015 0.0
H3724 H 0.58502 0.60469 0.30994 0.0
H3725 H 0.58136 0.54381 0.24829 0.0
H3726 H 0.59987 0.56504 0.26223 0.0
H3727 H 0.57425 0.58356 0.26137 0.0
H3728 H 0.55598 0.56279 0.24661 0.0
H3729 H 0.58712 0.58438 0.29449 0.0
H3730 H 0.59809 0.59511 0.23422 0.0
H3731 H 0.60323 0.59036 0.20484 0.0
H3732 H 0.6389 0.5899 0.22353 0.0
H3733 H 0.63383 0.59442 0.25309 0.0
C3734 C 0.63629 0.64707 0.31426 0.0
C3735 C 0.65008 0.65031 0.31596 0.0
C3736 C 0.62666 0.63513 0.30511 0.0
C3737 C 0.6305 0.62593 0.29789 0.0
C3738 C 0.64441 0.6294 0.29909 0.0
C3739 C 0.65414 0.64153 0.30799 0.0
C3740 C 0.61992 0.61262 0.28941 0.0
C3741 C 0.62248 0.60947 0.2727 0.0
C3742 C 0.60709 0.60329 0.29748 0.0
C3743 C 0.60417 0.60524 0.31565 0.0
C3744 C 0.61329 0.60656 0.32884 0.0
C3745 C 0.61057 0.60852 0.34591 0.0
C3746 C 0.59871 0.60908 0.34997 0.0
C3747 C 0.58952 0.60764 0.33698 0.0
C3748 C 0.5922 0.60568 0.31988 0.0
C3749 C 0.57969 0.55245 0.25079 0.0
C3750 C 0.56709 0.55149 0.24629 0.0
C3751 C 0.59027 0.56454 0.25887 0.0
C3752 C 0.58839 0.57582 0.26279 0.0
C3753 C 0.57584 0.57491 0.25851 0.0
C3754 C 0.56536 0.56294 0.25019 0.0
C3755 C 0.59943 0.58857 0.27156 0.0
C3756 C 0.59694 0.59153 0.28833 0.0
C3757 C 0.61238 0.59756 0.26367 0.0
C3758 C 0.61549 0.59494 0.24589 0.0
C3759 C 0.60695 0.59386 0.23209 0.0
C3760 C 0.60987 0.59124 0.21541 0.0
C3761 C 0.62136 0.58979 0.21233 0.0
C3762 C 0.62999 0.591 0.22594 0.0
C3763 C 0.6271 0.5936 0.24266 0.0
H3764 H 0.62361 0.58776 0.1994 0.0
H3765 H 0.59662 0.61061 0.36319 0.0
H3766 H 0.35429 0.00148 0.30164 0.0
H3767 H 0.37218 0.99995 0.28529 0.0
H3768 H 0.36906 0.96847 0.31995 0.0
H3769 H 0.35101 0.96986 0.33635 0.0
H3770 H 0.39653 0.99019 0.31378 0.0
H3771 H 0.35608 0.95824 0.2815 0.0
H3772 H 0.33441 0.95011 0.26527 0.0
H3773 H 0.35645 0.98282 0.22851 0.0
H3774 H 0.37823 0.99129 0.24465 0.0
H3775 H 0.44092 0.97563 0.26316 0.0
H3776 H 0.42118 0.97323 0.27961 0.0
H3777 H 0.41692 1.00012 0.24383 0.0
H3778 H 0.43615 0.00197 0.22682 0.0
H3779 H 0.39238 0.97882 0.25136 0.0
H3780 H 0.43235 0.0119 0.28421 0.0
H3781 H 0.45428 0.02038 0.3 0.0
H3782 H 0.43348 0.98644 0.33553 0.0
H3783 H 0.41146 0.97765 0.3198 0.0
C3784 C 0.35734 0.99417 0.30574 0.0
C3785 C 0.35124 0.98579 0.32028 0.0
C3786 C 0.36753 0.99327 0.29635 0.0
C3787 C 0.37189 0.98405 0.30136 0.0
C3788 C 0.36582 0.97564 0.31587 0.0
C3789 C 0.35549 0.97641 0.32517 0.0
C3790 C 0.38308 0.98355 0.29169 0.0
C3791 C 0.39556 0.98747 0.30019 0.0
C3792 C 0.3819 0.98033 0.27389 0.0
C3793 C 0.36877 0.97547 0.26437 0.0
C3794 C 0.35628 0.9638 0.27006 0.0
C3795 C 0.34399 0.95911 0.26086 0.0
C3796 C 0.34407 0.96595 0.24588 0.0
C3797 C 0.35642 0.97754 0.24012 0.0
C3798 C 0.36874 0.98228 0.24928 0.0
C3799 C 0.43568 0.98089 0.25865 0.0
C3800 C 0.44019 0.98905 0.24367 0.0
C3801 C 0.42449 0.97965 0.2682 0.0
C3802 C 0.41768 0.98667 0.26312 0.0
C3803 C 0.42204 0.99466 0.24806 0.0
C3804 C 0.43315 0.99582 0.23844 0.0
C3805 C 0.40596 0.98567 0.27336 0.0
C3806 C 0.39336 0.98147 0.26497 0.0
C3807 C 0.40707 0.98875 0.29123 0.0
C3808 C 0.4203 0.99403 0.30071 0.0
C3809 C 0.43248 0.00618 0.2953 0.0
C3810 C 0.44492 0.01106 0.30426 0.0
C3811 C 0.44528 0.00393 0.31873 0.0
C3812 C 0.43319 0.99193 0.3243 0.0
C3813 C 0.42072 0.987 0.31538 0.0
H3814 H 0.45492 0.00772 0.32564 0.0
H3815 H 0.3346 0.96222 0.23869 0.0
H3816 H 0.61797 0.9714 0.3368 0.0
H3817 H 0.59906 0.97061 0.32031 0.0
H3818 H 0.62887 0.99988 0.28406 0.0
H3819 H 0.64775 0.00114 0.30085 0.0
H3820 H 0.6115 0.00756 0.29127 0.0
H3821 H 0.60673 0.96331 0.27542 0.0
H3822 H 0.60389 0.94009 0.28047 0.0
H3823 H 0.56497 0.92666 0.30588 0.0
H3824 H 0.56768 0.94988 0.30118 0.0
H3825 H 0.56601 0.99945 0.22384 0.0
H3826 H 0.58343 0.99792 0.24075 0.0
H3827 H 0.55264 0.97443 0.27946 0.0
H3828 H 0.53516 0.97612 0.26278 0.0
H3829 H 0.56964 0.96344 0.27181 0.0
H3830 H 0.57482 0.00823 0.28642 0.0
H3831 H 0.57802 0.03142 0.28011 0.0
H3832 H 0.61692 0.04368 0.25532 0.0
H3833 H 0.61386 0.02049 0.26128 0.0
C3834 C 0.62045 0.9776 0.32526 0.0
C3835 C 0.63433 0.98635 0.32013 0.0
C3836 C 0.60963 0.97709 0.31579 0.0
C3837 C 0.61249 0.98508 0.3008 0.0
C3838 C 0.62637 0.99366 0.29559 0.0
C3839 C 0.63716 0.99435 0.30519 0.0
C3840 C 0.60116 0.98496 0.2908 0.0
C3841 C 0.60245 0.99789 0.28684 0.0
C3842 C 0.58915 0.97236 0.28532 0.0
C3843 C 0.58748 0.95838 0.2881 0.0
C3844 C 0.59762 0.95544 0.28219 0.0
C3845 C 0.59602 0.94228 0.28497 0.0
C3846 C 0.58428 0.93192 0.29353 0.0
C3847 C 0.57408 0.9347 0.29928 0.0
C3848 C 0.57563 0.94786 0.29655 0.0
C3849 C 0.56294 0.99403 0.236 0.0
C3850 C 0.5492 0.98802 0.24201 0.0
C3851 C 0.5729 0.99311 0.24561 0.0
C3852 C 0.56936 0.98619 0.26145 0.0
C3853 C 0.55558 0.9798 0.26726 0.0
C3854 C 0.5456 0.98075 0.25768 0.0
C3855 C 0.58017 0.98601 0.27214 0.0
C3856 C 0.57873 0.97306 0.27627 0.0
C3857 C 0.59214 0.99858 0.27762 0.0
C3858 C 0.59405 0.01258 0.27417 0.0
C3859 C 0.58401 0.01584 0.27952 0.0
C3860 C 0.5858 0.02899 0.27602 0.0
C3861 C 0.59765 0.03901 0.26728 0.0
C3862 C 0.60774 0.03591 0.26207 0.0
C3863 C 0.60599 0.02277 0.26552 0.0
H3864 H 0.59901 0.04918 0.26459 0.0
H3865 H 0.58306 0.92174 0.29567 0.0
H3866 H 0.01185 0.66242 0.29502 0.0
H3867 H 0.01123 0.64377 0.27704 0.0
H3868 H 0.99678 0.61605 0.32066 0.0
H3869 H 0.99855 0.6351 0.33879 0.0
H3870 H 0.01462 0.61281 0.30637 0.0
H3871 H 0.97556 0.61382 0.28354 0.0
H3872 H 0.96305 0.6244 0.27078 0.0
H3873 H 0.98991 0.63677 0.22667 0.0
H3874 H 0.00269 0.62641 0.23927 0.0
H3875 H 0.9881 0.5485 0.25759 0.0
H3876 H 0.98801 0.56792 0.27302 0.0
H3877 H 0.02111 0.59768 0.24048 0.0
H3878 H 0.02151 0.57829 0.22532 0.0
H3879 H 0.99415 0.59985 0.24789 0.0
H3880 H 0.03299 0.59806 0.2731 0.0
H3881 H 0.04329 0.58551 0.28651 0.0
H3882 H 0.01332 0.57218 0.3274 0.0
H3883 H 0.0027 0.58448 0.31405 0.0
C3884 C 0.00841 0.65225 0.3006 0.0
C3885 C 0.00513 0.65002 0.31813 0.0
C3886 C 0.00796 0.64157 0.29034 0.0
C3887 C 0.00373 0.62833 0.29735 0.0
C3888 C 1.00013 0.62612 0.31488 0.0
C3889 C 1.00104 0.63694 0.32522 0.0
C3890 C 0.0037 0.61701 0.2868 0.0
C3891 C 0.00994 0.60993 0.29369 0.0
C3892 C 0.99786 0.61327 0.27006 0.0
C3893 C 0.99016 0.61946 0.26243 0.0
C3894 C 0.97885 0.61888 0.27117 0.0
C3895 C 0.97171 0.62483 0.26396 0.0
C3896 C 0.97571 0.63129 0.24795 0.0
C3897 C 0.98684 0.63178 0.23908 0.0
C3898 C 0.99402 0.62586 0.24624 0.0
C3899 C 0.9953 0.55919 0.25372 0.0
C3900 C 0.00485 0.56197 0.24037 0.0
C3901 C 0.99523 0.57023 0.26249 0.0
C3902 C 0.00454 0.58416 0.25781 0.0
C3903 C 0.01385 0.58696 0.24419 0.0
C3904 C 0.01412 0.57593 0.23565 0.0
C3905 C 0.00488 0.5958 0.26766 0.0
C3906 C 0.99875 0.60287 0.2606 0.0
C3907 C 0.0105 0.59933 0.28439 0.0
C3908 C 0.01696 0.59204 0.29248 0.0
C3909 C 0.02851 0.59233 0.28485 0.0
C3910 C 0.03443 0.58529 0.29246 0.0
C3911 C 0.02894 0.57801 0.30777 0.0
C3912 C 0.01755 0.5778 0.31553 0.0
C3913 C 0.01158 0.58481 0.30795 0.0
H3914 H 0.03354 0.57258 0.31365 0.0
H3915 H 0.97016 0.63589 0.24239 0.0
H3916 H 0.35233 0.37423 0.31788 0.0
H3917 H 0.37225 0.3901 0.30014 0.0
H3918 H 0.38084 0.35699 0.29003 0.0
H3919 H 0.36066 0.34089 0.30754 0.0
H3920 H 0.40416 0.384 0.30256 0.0
H3921 H 0.36874 0.3649 0.25887 0.0
H3922 H 0.34588 0.35839 0.24695 0.0
H3923 H 0.35682 0.40156 0.24907 0.0
H3924 H 0.37968 0.4083 0.26128 0.0
H3925 H 0.45909 0.42349 0.24476 0.0
H3926 H 0.43795 0.40492 0.25794 0.0
H3927 H 0.4202 0.43139 0.25738 0.0
H3928 H 0.44091 0.44965 0.243 0.0
H3929 H 0.40105 0.40629 0.24928 0.0
H3930 H 0.43448 0.42586 0.29463 0.0
H3931 H 0.45673 0.43368 0.3093 0.0
H3932 H 0.4492 0.39166 0.30697 0.0
H3933 H 0.42697 0.38361 0.29206 0.0
C3934 C 0.35837 0.37027 0.31175 0.0
C3935 C 0.35495 0.35632 0.31408 0.0
C3936 C 0.36972 0.37934 0.3016 0.0
C3937 C 0.37797 0.37468 0.29378 0.0
C3938 C 0.37456 0.36074 0.29597 0.0
C3939 C 0.36302 0.35157 0.3059 0.0
C3940 C 0.39046 0.38463 0.2839 0.0
C3941 C 0.40354 0.38869 0.29071 0.0
C3942 C 0.38952 0.39108 0.26885 0.0
C3943 C 0.3759 0.38709 0.26113 0.0
C3944 C 0.36625 0.373 0.25691 0.0
C3945 C 0.35329 0.36926 0.25008 0.0
C3946 C 0.34988 0.37955 0.24729 0.0
C3947 C 0.35947 0.3936 0.25125 0.0
C3948 C 0.37244 0.39739 0.25811 0.0
C3949 C 0.45064 0.42534 0.24716 0.0
C3950 C 0.45181 0.43817 0.24281 0.0
C3951 C 0.43858 0.41473 0.25495 0.0
C3952 C 0.42753 0.41681 0.25897 0.0
C3953 C 0.42859 0.42953 0.2545 0.0
C3954 C 0.44056 0.44007 0.24647 0.0
C3955 C 0.41491 0.40577 0.26792 0.0
C3956 C 0.40176 0.40153 0.26101 0.0
C3957 C 0.41576 0.39936 0.28313 0.0
C3958 C 0.42914 0.40417 0.29205 0.0
C3959 C 0.43762 0.41831 0.29711 0.0
C3960 C 0.45022 0.42278 0.3055 0.0
C3961 C 0.45439 0.41318 0.30902 0.0
C3962 C 0.44596 0.39909 0.3042 0.0
C3963 C 0.43336 0.39456 0.2958 0.0
H3964 H 0.46415 0.41667 0.31552 0.0
H3965 H 0.33983 0.37664 0.24204 0.0
H3966 H 0.3485 0.32203 0.37702 0.0
H3967 H 0.35107 0.30463 0.39293 0.0
H3968 H 0.30813 0.27365 0.38311 0.0
H3969 H 0.30553 0.29096 0.36684 0.0
H3970 H 0.31848 0.27562 0.41902 0.0
H3971 H 0.32894 0.27072 0.35963 0.0
H3972 H 0.34115 0.27971 0.33205 0.0
H3973 H 0.38037 0.29489 0.35714 0.0
H3974 H 0.36839 0.28618 0.38494 0.0
H3975 H 0.31989 0.21538 0.44386 0.0
H3976 H 0.31625 0.23223 0.42861 0.0
H3977 H 0.36056 0.25954 0.4231 0.0
H3978 H 0.36427 0.24227 0.4372 0.0
H3979 H 0.34916 0.25958 0.39486 0.0
H3980 H 0.34041 0.26546 0.45362 0.0
H3981 H 0.3297 0.25824 0.48231 0.0
H3982 H 0.28942 0.24355 0.46051 0.0
H3983 H 0.29987 0.2505 0.43163 0.0
C3984 C 0.33957 0.31155 0.37835 0.0
C3985 C 0.32682 0.30784 0.37064 0.0
C3986 C 0.34106 0.30162 0.38741 0.0
C3987 C 0.3298 0.28787 0.38911 0.0
C3988 C 0.31693 0.28423 0.38193 0.0
C3989 C 0.31548 0.2941 0.3726 0.0
C3990 C 0.33167 0.27719 0.39788 0.0
C3991 C 0.32502 0.27193 0.41368 0.0
C3992 C 0.34057 0.27279 0.39112 0.0
C3993 C 0.34778 0.27793 0.37439 0.0
C3994 C 0.34017 0.27609 0.3593 0.0
C3995 C 0.34705 0.28111 0.34362 0.0
C3996 C 0.36153 0.2879 0.34285 0.0
C3997 C 0.36916 0.28965 0.35775 0.0
C3998 C 0.36233 0.28466 0.37347 0.0
C3999 C 0.32888 0.22485 0.43918 0.0
C4000 C 0.3424 0.22741 0.44185 0.0
C4001 C 0.32678 0.23462 0.43068 0.0
C4002 C 0.33813 0.24733 0.42496 0.0
C4003 C 0.35162 0.24986 0.42745 0.0
C4004 C 0.35373 0.24002 0.43573 0.0
C4005 C 0.33596 0.25789 0.41617 0.0
C4006 C 0.34258 0.26318 0.40031 0.0
C4007 C 0.32724 0.26253 0.42308 0.0
C4008 C 0.32091 0.25837 0.44043 0.0
C4009 C 0.32926 0.26059 0.45492 0.0
C4010 C 0.32323 0.25656 0.47122 0.0
C4011 C 0.30888 0.25041 0.47322 0.0
C4012 C 0.30053 0.2483 0.45893 0.0
C4013 C 0.3065 0.25229 0.44259 0.0
H4014 H 0.30424 0.2473 0.48585 0.0
H4015 H 0.36684 0.29178 0.3307 0.0
H4016 H 0.6722 0.01904 0.39126 0.0
H4017 H 0.68873 0.03961 0.40837 0.0
H4018 H 0.72053 0.04923 0.37028 0.0
H4019 H 0.70432 0.02853 0.35364 0.0
H4020 H 0.73112 0.05205 0.40015 0.0
H4021 H 0.70223 0.06745 0.37452 0.0
H4022 H 0.68019 0.0663 0.36798 0.0
H4023 H 0.67306 0.06894 0.42189 0.0
H4024 H 0.69499 0.06993 0.42876 0.0
H4025 H 0.78023 0.12307 0.41755 0.0
H4026 H 0.76137 0.10184 0.40413 0.0
H4027 H 0.73675 0.09329 0.45018 0.0
H4028 H 0.75571 0.11435 0.46393 0.0
H4029 H 0.72168 0.08919 0.4193 0.0
H4030 H 0.75211 0.07561 0.44405 0.0
H4031 H 0.77475 0.07774 0.44944 0.0
H4032 H 0.77944 0.07253 0.39544 0.0
H4033 H 0.75691 0.07057 0.38969 0.0
C4034 C 0.68273 0.02558 0.38659 0.0
C4035 C 0.68699 0.0222 0.37114 0.0
C4036 C 0.69214 0.03736 0.39631 0.0
C4037 C 0.70587 0.04608 0.39054 0.0
C4038 C 0.71005 0.04267 0.37506 0.0
C4039 C 0.70074 0.03083 0.36553 0.0
C4040 C 0.71608 0.05865 0.40058 0.0
C4041 C 0.72906 0.06021 0.40417 0.0
C4042 C 0.71333 0.06917 0.40627 0.0
C4043 C 0.70016 0.0686 0.40216 0.0
C4044 C 0.69591 0.06767 0.38498 0.0
C4045 C 0.68345 0.06707 0.38122 0.0
C4046 C 0.67521 0.0675 0.39452 0.0
C4047 C 0.67944 0.06858 0.41161 0.0
C4048 C 0.69188 0.06917 0.41544 0.0
C4049 C 0.77085 0.11665 0.42489 0.0
C4050 C 0.76954 0.12037 0.44187 0.0
C4051 C 0.76005 0.10456 0.41716 0.0
C4052 C 0.74773 0.09595 0.42624 0.0
C4053 C 0.74618 0.09983 0.44297 0.0
C4054 C 0.75701 0.11189 0.45077 0.0
C4055 C 0.73672 0.08265 0.41838 0.0
C4056 C 0.72363 0.08095 0.41532 0.0
C4057 C 0.73939 0.07205 0.41298 0.0
C4058 C 0.75287 0.07305 0.41643 0.0
C4059 C 0.75801 0.07501 0.43331 0.0
C4060 C 0.77082 0.07618 0.43643 0.0
C4061 C 0.77854 0.0753 0.42279 0.0
C4062 C 0.77345 0.07321 0.406 0.0
C4063 C 0.76065 0.07206 0.4028 0.0
H4064 H 0.78846 0.07621 0.42523 0.0
H4065 H 0.66556 0.06703 0.39158 0.0
H4066 H 0.97921 0.69169 0.35006 0.0
H4067 H 0.95941 0.68998 0.36578 0.0
H4068 H 0.96843 0.67165 0.40869 0.0
H4069 H 0.98756 0.67245 0.39245 0.0
H4070 H 0.9429 0.65784 0.40452 0.0
H4071 H 0.97499 0.70752 0.40744 0.0
H4072 H 0.9911 0.73116 0.39623 0.0
H4073 H 0.9581 0.72945 0.36667 0.0
H4074 H 0.94182 0.70572 0.37754 0.0
H4075 H 0.90135 0.66782 0.46663 0.0
H4076 H 0.92163 0.67111 0.45036 0.0
H4077 H 0.90402 0.67591 0.40371 0.0
H4078 H 0.88365 0.67249 0.41989 0.0
H4079 H 0.93333 0.69669 0.40961 0.0
H4080 H 0.90144 0.64644 0.40846 0.0
H4081 H 0.88602 0.62344 0.42171 0.0
H4082 H 0.92025 0.62749 0.45088 0.0
H4083 H 0.93585 0.65062 0.43798 0.0
C4084 C 0.97699 0.68741 0.3629 0.0
C4085 C 0.98487 0.6822 0.37008 0.0
C4086 C 0.96572 0.6865 0.37195 0.0
C4087 C 0.96246 0.68086 0.3886 0.0
C4088 C 0.97062 0.67598 0.39587 0.0
C4089 C 0.98159 0.67649 0.38662 0.0
C4090 C 0.95024 0.67943 0.39822 0.0
C4091 C 0.941 0.66646 0.40582 0.0
C4092 C 0.94746 0.69051 0.39969 0.0
C4093 C 0.95722 0.70479 0.39317 0.0
C4094 C 0.97119 0.71214 0.39846 0.0
C4095 C 0.98035 0.72557 0.39218 0.0
C4096 C 0.97564 0.73179 0.38071 0.0
C4097 C 0.96174 0.72461 0.37553 0.0
C4098 C 0.95254 0.71118 0.38176 0.0
C4099 C 0.90186 0.66966 0.45292 0.0
C4100 C 0.89094 0.66988 0.44449 0.0
C4101 C 0.91339 0.67148 0.44365 0.0
C4102 C 0.91427 0.67371 0.42585 0.0
C4103 C 0.90352 0.6742 0.41745 0.0
C4104 C 0.89188 0.67217 0.42667 0.0
C4105 C 0.92631 0.67526 0.41596 0.0
C4106 C 0.9354 0.68818 0.40829 0.0
C4107 C 0.92913 0.66426 0.41471 0.0
C4108 C 0.91978 0.65032 0.42238 0.0
C4109 C 0.90566 0.64248 0.41781 0.0
C4110 C 0.89689 0.62941 0.42524 0.0
C4111 C 0.90214 0.62403 0.43716 0.0
C4112 C 0.91619 0.63168 0.44166 0.0
C4113 C 0.925 0.64476 0.43428 0.0
H4114 H 0.89534 0.61391 0.4429 0.0
H4115 H 0.98274 0.74218 0.37586 0.0
H4116 H 0.35617 0.00409 0.72169 0.0
H4117 H 0.37497 0.00485 0.73842 0.0
H4118 H 0.40476 0.0317 0.70055 0.0
H4119 H 0.38605 0.03132 0.68394 0.0
H4120 H 0.4048 0.00541 0.71164 0.0
H4121 H 0.40636 0.0474 0.73327 0.0
H4122 H 0.39589 0.06033 0.74594 0.0
H4123 H 0.3833 0.03395 0.79032 0.0
H4124 H 0.39351 0.02072 0.77777 0.0
H4125 H 0.46572 0.01979 0.75516 0.0
H4126 H 0.44832 0.02176 0.73867 0.0
H4127 H 0.4221 0.01047 0.78372 0.0
H4128 H 0.43992 0.00932 0.80042 0.0
H4129 H 0.42016 0.02929 0.76848 0.0
H4130 H 0.41678 0.98674 0.74871 0.0
H4131 H 0.42495 0.97147 0.73696 0.0
H4132 H 0.43805 0.99547 0.69057 0.0
H4133 H 0.43012 0.01101 0.70214 0.0
C4134 C 0.36674 0.01022 0.71697 0.0
C4135 C 0.36967 0.01766 0.70152 0.0
C4136 C 0.37744 0.01065 0.72655 0.0
C4137 C 0.39121 0.01833 0.72069 0.0
C4138 C 0.39418 0.02573 0.70525 0.0
C4139 C 0.38351 0.02554 0.69584 0.0
C4140 C 0.40244 0.01836 0.73056 0.0
C4141 C 0.40836 0.0108 0.72394 0.0
C4142 C 0.40661 0.02494 0.74688 0.0
C4143 C 0.40058 0.03297 0.7545 0.0
C4144 C 0.40125 0.04427 0.74565 0.0
C4145 C 0.39538 0.05167 0.75283 0.0
C4146 C 0.3889 0.04794 0.7689 0.0
C4147 C 0.38831 0.03682 0.77786 0.0
C4148 C 0.39414 0.02937 0.77073 0.0
C4149 C 0.45624 0.01778 0.76149 0.0
C4150 C 0.45408 0.01435 0.77898 0.0
C4151 C 0.44625 0.01881 0.75206 0.0
C4152 C 0.43369 0.01595 0.7598 0.0
C4153 C 0.43165 0.01271 0.7774 0.0
C4154 C 0.4418 0.01202 0.78693 0.0
C4155 C 0.42271 0.01633 0.74959 0.0
C4156 C 0.41674 0.02392 0.75615 0.0
C4157 C 0.41822 0.00945 0.73337 0.0
C4158 C 0.42299 1.00013 0.72637 0.0
C4159 C 0.4215 0.98883 0.73605 0.0
C4160 C 0.42607 0.98011 0.72942 0.0
C4161 C 0.43205 0.98252 0.71305 0.0
C4162 C 0.43343 0.99363 0.70326 0.0
C4163 C 0.4289 0.00239 0.70984 0.0
H4164 H 0.43558 0.97576 0.70793 0.0
H4165 H 0.38436 0.05368 0.77444 0.0
H4166 H 0.97621 0.34952 0.69681 0.0
H4167 H 0.9778 0.3689 0.71386 0.0
H4168 H 0.02 0.38197 0.7276 0.0
H4169 H 0.01812 0.36199 0.7113 0.0
H4170 H 0.00832 0.38538 0.7539 0.0
H4171 H 0.01127 0.39865 0.69525 0.0
H4172 H 0.00429 0.39607 0.6648 0.0
H4173 H 0.96593 0.39315 0.67955 0.0
H4174 H 0.9726 0.39553 0.71012 0.0
H4175 H 0.02442 0.45553 0.77687 0.0
H4176 H 0.02398 0.43607 0.76117 0.0
H4177 H 0.97923 0.41347 0.76121 0.0
H4178 H 0.97945 0.43241 0.77778 0.0
H4179 H 0.99355 0.4161 0.72755 0.0
H4180 H 0.99159 0.40242 0.78686 0.0
H4181 H 1.00004 0.40639 0.81667 0.0
H4182 H 0.03899 0.41193 0.79932 0.0
H4183 H 0.03082 0.40827 0.76926 0.0
C4184 C 0.9858 0.35648 0.70354 0.0
C4185 C 0.99709 0.35435 0.70265 0.0
C4186 C 0.98674 0.36764 0.71319 0.0
C4187 C 0.99916 0.37718 0.72164 0.0
C4188 C 0.01034 0.37482 0.72111 0.0
C4189 C 0.00927 0.36343 0.7118 0.0
C4190 C 1.00044 0.38958 0.73095 0.0
C4191 C 0.0053 0.39221 0.74799 0.0
C4192 C 0.9964 0.39849 0.72337 0.0
C4193 C 0.99239 0.39715 0.70499 0.0
C4194 C 1.00131 0.39737 0.69201 0.0
C4195 C 0.99741 0.39595 0.67472 0.0
C4196 C 0.98466 0.39441 0.67025 0.0
C4197 C 0.9758 0.39433 0.68304 0.0
C4198 C 0.97964 0.39573 0.70035 0.0
C4199 C 0.01445 0.44635 0.77383 0.0
C4200 C 0.00196 0.44562 0.77865 0.0
C4201 C 0.01425 0.4353 0.76472 0.0
C4202 C 1.00157 0.42341 0.76003 0.0
C4203 C 0.98911 0.42264 0.76463 0.0
C4204 C 0.98928 0.43355 0.774 0.0
C4205 C 1.00127 0.41169 0.75037 0.0
C4206 C 0.99664 0.40927 0.7333 0.0
C4207 C 0.00577 0.40317 0.75777 0.0
C4208 C 0.01066 0.40524 0.77581 0.0
C4209 C 0.00201 0.40462 0.78938 0.0
C4210 C 0.00674 0.40679 0.80634 0.0
C4211 C 0.02007 0.40944 0.80992 0.0
C4212 C 0.02868 0.4099 0.79653 0.0
C4213 C 0.024 0.40778 0.77952 0.0
H4214 H 0.02374 0.41111 0.82307 0.0
H4215 H 0.98166 0.39331 0.65686 0.0
H4216 H 0.65084 0.66103 0.72196 0.0
H4217 H 0.63065 0.64479 0.73934 0.0
H4218 H 0.62284 0.61076 0.70478 0.0
H4219 H 0.64298 0.6268 0.68752 0.0
H4220 H 0.59931 0.61286 0.7117 0.0
H4221 H 0.63652 0.61255 0.74236 0.0
H4222 H 0.6588 0.62359 0.75795 0.0
H4223 H 0.64271 0.64001 0.79595 0.0
H4224 H 0.62039 0.62924 0.78043 0.0
H4225 H 0.54946 0.55267 0.75475 0.0
H4226 H 0.57032 0.57052 0.74029 0.0
H4227 H 0.57855 0.59937 0.78255 0.0
H4228 H 0.55813 0.58123 0.79766 0.0
H4229 H 0.60181 0.60162 0.7726 0.0
H4230 H 0.5647 0.60185 0.74363 0.0
H4231 H 0.54239 0.59194 0.7283 0.0
H4232 H 0.558 0.5773 0.68752 0.0
H4233 H 0.58035 0.58695 0.70272 0.0
C4234 C 0.64486 0.65006 0.71816 0.0
C4235 C 0.64847 0.64518 0.70338 0.0
C4236 C 0.63336 0.64082 0.72809 0.0
C4237 C 0.62527 0.62659 0.72332 0.0
C4238 C 0.62893 0.6217 0.70865 0.0
C4239 C 0.64047 0.63088 0.69884 0.0
C4240 C 0.61276 0.61676 0.73328 0.0
C4241 C 0.59985 0.61028 0.72497 0.0
C4242 C 0.61345 0.61382 0.75076 0.0
C4243 C 0.62684 0.62023 0.76013 0.0
C4244 C 0.63778 0.61862 0.75396 0.0
C4245 C 0.6504 0.62481 0.7628 0.0
C4246 C 0.65219 0.63253 0.7779 0.0
C4247 C 0.64132 0.63405 0.78423 0.0
C4248 C 0.62868 0.6279 0.77542 0.0
C4249 C 0.55578 0.56273 0.76113 0.0
C4250 C 0.55203 0.56547 0.7774 0.0
C4251 C 0.56763 0.57302 0.7527 0.0
C4252 C 0.57589 0.58641 0.76016 0.0
C4253 C 0.5723 0.58916 0.77648 0.0
C4254 C 0.56051 0.57881 0.78501 0.0
C4255 C 0.5883 0.59746 0.75094 0.0
C4256 C 0.6012 0.60423 0.75938 0.0
C4257 C 0.58758 0.60083 0.73362 0.0
C4258 C 0.57416 0.59503 0.7244 0.0
C4259 C 0.56334 0.59643 0.73146 0.0
C4260 C 0.55069 0.59087 0.72278 0.0
C4261 C 0.54877 0.58397 0.70696 0.0
C4262 C 0.5595 0.58264 0.69978 0.0
C4263 C 0.57217 0.58816 0.70841 0.0
H4264 H 0.53897 0.57967 0.70026 0.0
H4265 H 0.66197 0.63731 0.78473 0.0
H4266 H 0.69962 0.71294 0.65398 0.0
H4267 H 0.69811 0.73096 0.63791 0.0
H4268 H 0.65408 0.70247 0.631 0.0
H4269 H 0.65569 0.68435 0.64626 0.0
H4270 H 0.66388 0.7149 0.60273 0.0
H4271 H 0.6689 0.73107 0.6615 0.0
H4272 H 0.68008 0.73848 0.68996 0.0
H4273 H 0.71676 0.77216 0.66675 0.0
H4274 H 0.70585 0.76484 0.6381 0.0
H4275 H 0.64214 0.76308 0.58359 0.0
H4276 H 0.64641 0.74635 0.59825 0.0
H4277 H 0.69056 0.7743 0.59252 0.0
H4278 H 0.68643 0.79093 0.57727 0.0
H4279 H 0.68231 0.76311 0.62601 0.0
H4280 H 0.67556 0.74704 0.56708 0.0
H4281 H 0.66305 0.73959 0.53942 0.0
H4282 H 0.6279 0.70534 0.5643 0.0
H4283 H 0.64012 0.7127 0.59216 0.0
C4284 C 0.68964 0.71057 0.64902 0.0
C4285 C 0.67778 0.69725 0.65138 0.0
C4286 C 0.68876 0.72089 0.63991 0.0
C4287 C 0.67593 0.71818 0.63339 0.0
C4288 C 0.66411 0.70486 0.6358 0.0
C4289 C 0.66504 0.69449 0.64459 0.0
C4290 C 0.67469 0.72907 0.6239 0.0
C4291 C 0.66779 0.72538 0.60797 0.0
C4292 C 0.68005 0.7429 0.63044 0.0
C4293 C 0.68662 0.74731 0.64765 0.0
C4294 C 0.67939 0.73999 0.66245 0.0
C4295 C 0.68567 0.74418 0.67862 0.0
C4296 C 0.69914 0.75575 0.68016 0.0
C4297 C 0.70634 0.76318 0.66553 0.0
C4298 C 0.70011 0.75902 0.64933 0.0
C4299 C 0.65277 0.76564 0.58521 0.0
C4300 C 0.66393 0.77838 0.57914 0.0
C4301 C 0.65518 0.75608 0.5937 0.0
C4302 C 0.66879 0.75906 0.59638 0.0
C4303 C 0.67997 0.77183 0.59062 0.0
C4304 C 0.67758 0.78135 0.58198 0.0
C4305 C 0.67131 0.74878 0.60513 0.0
C4306 C 0.67847 0.75262 0.62083 0.0
C4307 C 0.66602 0.73503 0.59852 0.0
C4308 C 0.65872 0.7305 0.58174 0.0
C4309 C 0.66512 0.73798 0.56668 0.0
C4310 C 0.65809 0.73377 0.55096 0.0
C4311 C 0.64468 0.72203 0.55012 0.0
C4312 C 0.63829 0.71444 0.56498 0.0
C4313 C 0.64527 0.71862 0.58073 0.0
H4314 H 0.63925 0.71879 0.53795 0.0
H4315 H 0.70399 0.75898 0.69269 0.0
H4316 H 0.29932 0.98344 0.65703 0.0
H4317 H 0.28324 0.96254 0.64044 0.0
H4318 H 0.31747 0.95872 0.62175 0.0
H4319 H 0.33375 0.97983 0.63828 0.0
H4320 H 0.28152 0.95638 0.60528 0.0
H4321 H 0.30477 0.92238 0.6215 0.0
H4322 H 0.31917 0.92048 0.64389 0.0
H4323 H 0.30415 0.93844 0.68124 0.0
H4324 H 0.28953 0.94026 0.65914 0.0
H4325 H 0.2467 0.8922 0.55711 0.0
H4326 H 0.2658 0.91339 0.57055 0.0
H4327 H 0.24699 0.89895 0.62038 0.0
H4328 H 0.22786 0.87772 0.60701 0.0
H4329 H 0.27618 0.91051 0.62013 0.0
H4330 H 0.24191 0.92165 0.60151 0.0
H4331 H 0.22669 0.92329 0.58017 0.0
H4332 H 0.26226 0.95088 0.54964 0.0
H4333 H 0.27769 0.94923 0.5707 0.0
C4334 C 0.30347 0.97823 0.6493 0.0
C4335 C 0.3178 0.98324 0.649 0.0
C4336 C 0.29426 0.96632 0.63977 0.0
C4337 C 0.29916 0.95906 0.62995 0.0
C4338 C 0.3135 0.96416 0.62934 0.0
C4339 C 0.32276 0.97621 0.63874 0.0
C4340 C 0.28911 0.94588 0.62093 0.0
C4341 C 0.28044 0.94637 0.6084 0.0
C4342 C 0.28761 0.93282 0.62515 0.0
C4343 C 0.2962 0.93161 0.63862 0.0
C4344 C 0.30452 0.92589 0.6345 0.0
C4345 C 0.31272 0.92483 0.64714 0.0
C4346 C 0.31262 0.92939 0.66396 0.0
C4347 C 0.30427 0.93497 0.6682 0.0
C4348 C 0.29604 0.93603 0.65561 0.0
C4349 C 0.24675 0.89346 0.57095 0.0
C4350 C 0.23579 0.88335 0.58103 0.0
C4351 C 0.25762 0.90558 0.57859 0.0
C4352 C 0.25775 0.90773 0.59643 0.0
C4353 C 0.24706 0.89745 0.60659 0.0
C4354 C 0.23611 0.8854 0.59894 0.0
C4355 C 0.26864 0.92103 0.60445 0.0
C4356 C 0.27743 0.92055 0.6168 0.0
C4357 C 0.27018 0.9341 0.60017 0.0
C4358 C 0.26093 0.93519 0.58758 0.0
C4359 C 0.24647 0.92797 0.59018 0.0
C4360 C 0.23781 0.92892 0.57815 0.0
C4361 C 0.2435 0.93715 0.56353 0.0
C4362 C 0.25787 0.94449 0.56095 0.0
C4363 C 0.26658 0.94355 0.57294 0.0
H4364 H 0.23678 0.93788 0.55423 0.0
H4365 H 0.31898 0.92857 0.67372 0.0
H4366 H 0.03099 0.34755 0.64448 0.0
H4367 H 0.05069 0.34926 0.62881 0.0
H4368 H 0.03729 0.30647 0.64181 0.0
H4369 H 0.0177 0.30486 0.65812 0.0
H4370 H 0.06443 0.32216 0.64479 0.0
H4371 H 0.03186 0.31558 0.60106 0.0
H4372 H 0.01563 0.32024 0.58543 0.0
H4373 H 0.04891 0.36192 0.57419 0.0
H4374 H 0.06531 0.35758 0.58996 0.0
H4375 H 0.1074 0.31579 0.58119 0.0
H4376 H 0.08734 0.31272 0.59768 0.0
H4377 H 0.10152 0.35664 0.5918 0.0
H4378 H 0.12153 0.35976 0.57514 0.0
H4379 H 0.07347 0.33922 0.58473 0.0
H4380 H 0.10583 0.34545 0.62926 0.0
H4381 H 0.12178 0.34023 0.64456 0.0
H4382 H 0.08832 0.29816 0.65355 0.0
H4383 H 0.07219 0.30308 0.63808 0.0
C4384 C 0.03221 0.33848 0.64402 0.0
C4385 C 0.02274 0.32603 0.65243 0.0
C4386 C 0.04346 0.33946 0.63497 0.0
C4387 C 0.04532 0.3279 0.6338 0.0
C4388 C 0.03602 0.3155 0.64246 0.0
C4389 C 0.02483 0.31458 0.65174 0.0
C4390 C 0.05705 0.32887 0.6236 0.0
C4391 C 0.06626 0.32567 0.63156 0.0
C4392 C 0.05961 0.33367 0.60642 0.0
C4393 C 0.04979 0.33629 0.59682 0.0
C4394 C 0.0357 0.32577 0.59535 0.0
C4395 C 0.02647 0.32835 0.58646 0.0
C4396 C 0.03123 0.34138 0.57886 0.0
C4397 C 0.04524 0.35184 0.5801 0.0
C4398 C 0.0545 0.34932 0.589 0.0
C4399 C 0.1062 0.32478 0.58336 0.0
C4400 C 0.11603 0.33802 0.57688 0.0
C4401 C 0.0948 0.32302 0.59288 0.0
C4402 C 0.09301 0.33447 0.59606 0.0
C4403 C 0.10275 0.34768 0.58952 0.0
C4404 C 0.1142 0.34947 0.58011 0.0
C4405 C 0.08085 0.33264 0.60598 0.0
C4406 C 0.07156 0.33565 0.59793 0.0
C4407 C 0.07816 0.32755 0.623 0.0
C4408 C 0.08784 0.32459 0.63236 0.0
C4409 C 0.10189 0.33505 0.63437 0.0
C4410 C 0.11097 0.33215 0.6431 0.0
C4411 C 0.10608 0.31886 0.64998 0.0
C4412 C 0.0921 0.30845 0.64819 0.0
C4413 C 0.08298 0.31129 0.63946 0.0
H4414 H 0.11312 0.31664 0.65674 0.0
H4415 H 0.02407 0.34335 0.57198 0.0
H4416 H 0.31958 0.34591 0.64189 0.0
H4417 H 0.30197 0.34778 0.62602 0.0
H4418 H 0.27122 0.30542 0.64003 0.0
H4419 H 0.28878 0.30366 0.65651 0.0
H4420 H 0.287 0.33559 0.59963 0.0
H4421 H 0.23951 0.30208 0.64374 0.0
H4422 H 0.2345 0.2957 0.67433 0.0
H4423 H 0.27212 0.33344 0.68895 0.0
H4424 H 0.27725 0.34013 0.65849 0.0
H4425 H 0.22747 0.32472 0.55589 0.0
H4426 H 0.24404 0.32131 0.57187 0.0
H4427 H 0.24116 0.34478 0.61478 0.0
H4428 H 0.22366 0.3472 0.59948 0.0
H4429 H 0.24237 0.3244 0.62688 0.0
H4430 H 0.26927 0.35901 0.58486 0.0
H4431 H 0.27581 0.36907 0.55583 0.0
H4432 H 0.2823 0.33567 0.53983 0.0
H4433 H 0.27562 0.32531 0.56872 0.0
C4434 C 0.30907 0.33696 0.64158 0.0
C4435 C 0.30555 0.32465 0.65053 0.0
C4436 C 0.29901 0.33804 0.63244 0.0
C4437 C 0.28521 0.32681 0.63194 0.0
C4438 C 0.28173 0.31434 0.64049 0.0
C4439 C 0.29179 0.31331 0.64983 0.0
C4440 C 0.27452 0.32832 0.62261 0.0
C4441 C 0.27723 0.3331 0.60559 0.0
C4442 C 0.26188 0.3254 0.63045 0.0
C4443 C 0.25884 0.32151 0.64882 0.0
C4444 C 0.24669 0.30903 0.65349 0.0
C4445 C 0.24383 0.30536 0.6708 0.0
C4446 C 0.25301 0.31413 0.68357 0.0
C4447 C 0.26505 0.32663 0.67905 0.0
C4448 C 0.26794 0.33035 0.66176 0.0
C4449 C 0.23012 0.32895 0.56884 0.0
C4450 C 0.22416 0.33628 0.57631 0.0
C4451 C 0.23982 0.32717 0.57789 0.0
C4452 C 0.2441 0.33301 0.59444 0.0
C4453 C 0.23809 0.34021 0.602 0.0
C4454 C 0.2282 0.34177 0.5931 0.0
C4455 C 0.25484 0.33164 0.60388 0.0
C4456 C 0.25212 0.32684 0.62089 0.0
C4457 C 0.26772 0.33507 0.59626 0.0
C4458 C 0.27181 0.34131 0.5789 0.0
C4459 C 0.272 0.35376 0.57512 0.0
C4460 C 0.27575 0.35952 0.5587 0.0
C4461 C 0.27943 0.35299 0.54598 0.0
C4462 C 0.27942 0.34071 0.54969 0.0
C4463 C 0.27567 0.33489 0.56608 0.0
H4464 H 0.28232 0.35747 0.53328 0.0
H4465 H 0.25079 0.31127 0.69696 0.0
H4466 H 0.68156 0.97703 0.66251 0.0
H4467 H 0.6776 0.95748 0.64396 0.0
H4468 H 0.6512 0.96496 0.61132 0.0
H4469 H 0.6549 0.98452 0.63025 0.0
H4470 H 0.64007 0.93741 0.61655 0.0
H4471 H 0.68378 0.97451 0.5983 0.0
H4472 H 0.70764 0.99469 0.60133 0.0
H4473 H 0.72045 0.96812 0.62407 0.0
H4474 H 0.6966 0.94782 0.62148 0.0
H4475 H 0.64369 0.88966 0.55484 0.0
H4476 H 0.64555 0.91076 0.56789 0.0
H4477 H 0.66731 0.9072 0.61112 0.0
H4478 H 0.66502 0.88582 0.5986 0.0
H4479 H 0.68045 0.93441 0.5958 0.0
H4480 H 0.63511 0.89801 0.61637 0.0
H4481 H 0.61106 0.87835 0.61248 0.0
H4482 H 0.60151 0.90466 0.58286 0.0
H4483 H 0.62558 0.92444 0.58638 0.0
C4484 C 0.67493 0.97456 0.65138 0.0
C4485 C 0.6686 0.98236 0.64777 0.0
C4486 C 0.67272 0.96341 0.64073 0.0
C4487 C 0.66433 0.95993 0.62606 0.0
C4488 C 0.65779 0.96754 0.62252 0.0
C4489 C 0.65992 0.9787 0.63331 0.0
C4490 C 0.6624 0.9482 0.6147 0.0
C4491 C 0.64889 0.93689 0.61169 0.0
C4492 C 0.67391 0.9475 0.60839 0.0
C4493 C 0.68835 0.95964 0.60978 0.0
C4494 C 0.69166 0.97298 0.60405 0.0
C4495 C 0.70519 0.98444 0.60568 0.0
C4496 C 0.71555 0.98269 0.61291 0.0
C4497 C 0.71241 0.96946 0.61848 0.0
C4498 C 0.69889 0.95797 0.61691 0.0
C4499 C 0.64865 0.8932 0.56727 0.0
C4500 C 0.65422 0.88601 0.57564 0.0
C4501 C 0.64979 0.90532 0.57463 0.0
C4502 C 0.65659 0.91052 0.59042 0.0
C4503 C 0.66211 0.90338 0.59885 0.0
C4504 C 0.66085 0.8912 0.59161 0.0
C4505 C 0.65819 0.92351 0.5982 0.0
C4506 C 0.67165 0.93507 0.60044 0.0
C4507 C 0.64664 0.92452 0.60353 0.0
C4508 C 0.63218 0.91264 0.60145 0.0
C4509 C 0.62792 0.89956 0.60889 0.0
C4510 C 0.61428 0.88841 0.60678 0.0
C4511 C 0.60477 0.89024 0.59738 0.0
C4512 C 0.60889 0.90325 0.59011 0.0
C4513 C 0.62252 0.91443 0.59216 0.0
H4514 H 0.59422 0.88159 0.59576 0.0
H4515 H 0.72602 0.99158 0.61416 0.0
H4516 H 0.01938 0.67342 0.63201 0.0
H4517 H 0.03949 0.68983 0.61469 0.0
H4518 H 0.04598 0.72393 0.64837 0.0
H4519 H 0.02578 0.70775 0.66529 0.0
H4520 H 0.04905 0.73216 0.61682 0.0
H4521 H 0.06594 0.70784 0.65035 0.0
H4522 H 0.06613 0.68715 0.66113 0.0
H4523 H 0.07124 0.67605 0.60959 0.0
H4524 H 0.07089 0.69659 0.59848 0.0
H4525 H 0.11968 0.78324 0.60251 0.0
H4526 H 0.09831 0.76462 0.61542 0.0
H4527 H 0.09235 0.73739 0.57213 0.0
H4528 H 0.11341 0.75614 0.55868 0.0
H4529 H 0.08836 0.72461 0.60553 0.0
H4530 H 0.0733 0.75073 0.57283 0.0
H4531 H 0.074 0.77215 0.56323 0.0
H4532 H 0.06623 0.78055 0.61491 0.0
H4533 H 0.06571 0.75929 0.62487 0.0
C4534 C 0.0251 0.68442 0.63566 0.0
C4535 C 0.02103 0.68929 0.65002 0.0
C4536 C 0.03662 0.69378 0.62581 0.0
C4537 C 0.04437 0.70812 0.63033 0.0
C4538 C 0.04018 0.71295 0.64459 0.0
C4539 C 0.02864 0.70366 0.65429 0.0
C4540 C 0.05685 0.71821 0.62035 0.0
C4541 C 0.05767 0.73053 0.6145 0.0
C4542 C 0.06801 0.71598 0.61692 0.0
C4543 C 0.06822 0.70365 0.62357 0.0
C4544 C 0.06699 0.70092 0.6413 0.0
C4545 C 0.06715 0.68924 0.64748 0.0
C4546 C 0.06865 0.68027 0.63605 0.0
C4547 C 0.07004 0.68299 0.61843 0.0
C4548 C 0.06987 0.69465 0.61219 0.0
C4549 C 0.11378 0.77338 0.59558 0.0
C4550 C 0.11829 0.77129 0.57946 0.0
C4551 C 0.10161 0.76271 0.60306 0.0
C4552 C 0.09374 0.74968 0.59468 0.0
C4553 C 0.09833 0.74737 0.57882 0.0
C4554 C 0.11042 0.75811 0.57121 0.0
C4555 C 0.08058 0.73859 0.60241 0.0
C4556 C 0.07965 0.72612 0.60777 0.0
C4557 C 0.06937 0.74073 0.60559 0.0
C4558 C 0.06959 0.75348 0.59962 0.0
C4559 C 0.07186 0.75721 0.58217 0.0
C4560 C 0.0722 0.76931 0.57666 0.0
C4561 C 0.07019 0.77773 0.58846 0.0
C4562 C 0.0678 0.77403 0.60579 0.0
C4563 C 0.06747 0.76195 0.61137 0.0
H4564 H 0.07046 0.78709 0.58417 0.0
H4565 H 0.06877 0.67123 0.64085 0.0
H4566 H 0.9667 0.62162 0.69696 0.0
H4567 H 0.96674 0.6028 0.71319 0.0
H4568 H 0.01023 0.63026 0.72448 0.0
H4569 H 0.01023 0.64912 0.70864 0.0
H4570 H 0.00257 0.60262 0.71156 0.0
H4571 H 0.98912 0.62535 0.75457 0.0
H4572 H 0.9744 0.63414 0.76604 0.0
H4573 H 0.93875 0.59241 0.76403 0.0
H4574 H 0.95323 0.58341 0.7522 0.0
H4575 H 0.01628 0.56703 0.77494 0.0
H4576 H 0.01393 0.58431 0.75877 0.0
H4577 H 0.9693 0.55795 0.76084 0.0
H4578 H 0.97154 0.54099 0.77804 0.0
H4579 H 0.976 0.58389 0.76572 0.0
H4580 H 0.98842 0.5605 0.7238 0.0
H4581 H 0.00206 0.55096 0.71086 0.0
H4582 H 0.03806 0.59243 0.70903 0.0
H4583 H 0.02469 0.6022 0.72219 0.0
C4584 C 0.97625 0.62363 0.70294 0.0
C4585 C 0.98846 0.63684 0.70157 0.0
C4586 C 0.97625 0.6129 0.71221 0.0
C4587 C 0.98849 0.61517 0.72002 0.0
C4588 C 1.00069 0.62831 0.71852 0.0
C4589 C 1.00065 0.63908 0.70953 0.0
C4590 C 0.9887 0.6039 0.72975 0.0
C4591 C 0.99687 0.59859 0.72349 0.0
C4592 C 0.98089 0.59837 0.74499 0.0
C4593 C 0.97222 0.60374 0.7523 0.0
C4594 C 0.97812 0.61807 0.75642 0.0
C4595 C 0.96982 0.62308 0.76302 0.0
C4596 C 0.95564 0.61384 0.76573 0.0
C4597 C 0.94974 0.59956 0.7619 0.0
C4598 C 0.95798 0.5945 0.75524 0.0
C4599 C 0.00594 0.56495 0.77221 0.0
C4600 C 0.9941 0.55253 0.77782 0.0
C4601 C 0.00461 0.57479 0.76271 0.0
C4602 C 0.99143 0.57234 0.75825 0.0
C4603 C 0.97958 0.56006 0.764 0.0
C4604 C 0.9809 0.55027 0.77369 0.0
C4605 C 0.99006 0.58265 0.74768 0.0
C4606 C 0.98164 0.58779 0.75374 0.0
C4607 C 0.99749 0.58789 0.73208 0.0
C4608 C 0.00558 0.58207 0.72413 0.0
C4609 C 0.99927 0.56757 0.72076 0.0
C4610 C 0.00695 0.56213 0.71336 0.0
C4611 C 0.02092 0.57108 0.70916 0.0
C4612 C 0.02724 0.58551 0.71231 0.0
C4613 C 0.01961 0.59101 0.71972 0.0
H4614 H 0.02685 0.56684 0.70343 0.0
H4615 H 0.94923 0.61774 0.77081 0.0
H4616 H 0.33888 0.35396 0.72186 0.0
H4617 H 0.35467 0.37434 0.73974 0.0
H4618 H 0.38941 0.38004 0.70906 0.0
H4619 H 0.37385 0.35956 0.69162 0.0
H4620 H 0.39634 0.38347 0.74121 0.0
H4621 H 0.37393 0.40034 0.70412 0.0
H4622 H 0.35403 0.40059 0.69131 0.0
H4623 H 0.34154 0.40698 0.74134 0.0
H4624 H 0.36128 0.40658 0.75448 0.0
H4625 H 0.44713 0.45496 0.75368 0.0
H4626 H 0.42848 0.43329 0.74084 0.0
H4627 H 0.40166 0.4285 0.7835 0.0
H4628 H 0.42045 0.44984 0.79694 0.0
H4629 H 0.38936 0.4239 0.7488 0.0
H4630 H 0.41394 0.40913 0.78497 0.0
H4631 H 0.43482 0.40995 0.79628 0.0
H4632 H 0.44412 0.40057 0.74591 0.0
H4633 H 0.42341 0.39991 0.73423 0.0
C4634 C 0.3499 0.35955 0.71901 0.0
C4635 C 0.35513 0.3552 0.70533 0.0
C4636 C 0.3589 0.37122 0.72917 0.0
C4637 C 0.37322 0.37883 0.72562 0.0
C4638 C 0.37842 0.37434 0.71209 0.0
C4639 C 0.36949 0.36264 0.70209 0.0
C4640 C 0.38293 0.39154 0.73579 0.0
C4641 C 0.39482 0.39233 0.74275 0.0
C4642 C 0.38084 0.40301 0.73817 0.0
C4643 C 0.36898 0.40325 0.7303 0.0
C4644 C 0.36687 0.40168 0.7124 0.0
C4645 C 0.35563 0.40187 0.70508 0.0
C4646 C 0.3465 0.40375 0.71551 0.0
C4647 C 0.34861 0.40549 0.73328 0.0
C4648 C 0.35982 0.40529 0.74067 0.0
C4649 C 0.43733 0.44927 0.76047 0.0
C4650 C 0.43538 0.45414 0.77645 0.0
C4651 C 0.42666 0.43694 0.75302 0.0
C4652 C 0.41376 0.4293 0.7613 0.0
C4653 C 0.41155 0.43431 0.77693 0.0
C4654 C 0.4223 0.44656 0.78452 0.0
C4655 C 0.4028 0.41585 0.75378 0.0
C4656 C 0.39072 0.41494 0.74738 0.0
C4657 C 0.40479 0.40433 0.75169 0.0
C4658 C 0.41718 0.40459 0.75871 0.0
C4659 C 0.4205 0.40736 0.77628 0.0
C4660 C 0.43229 0.40778 0.78276 0.0
C4661 C 0.44081 0.40535 0.77182 0.0
C4662 C 0.43752 0.40246 0.75437 0.0
C4663 C 0.42575 0.40205 0.74782 0.0
H4664 H 0.44993 0.40568 0.77686 0.0
H4665 H 0.33781 0.40391 0.70982 0.0
H4666 H 0.64171 0.99465 0.7104 0.0
H4667 H 0.62335 0.99524 0.72679 0.0
H4668 H 0.63963 0.03823 0.7121 0.0
H4669 H 0.65805 0.03769 0.69542 0.0
H4670 H 0.63241 0.03225 0.74836 0.0
H4671 H 0.61267 0.01547 0.6921 0.0
H4672 H 0.60649 1.00011 0.66642 0.0
H4673 H 0.58148 0.96394 0.69752 0.0
H4674 H 0.58769 0.97907 0.72343 0.0
H4675 H 0.57328 0.03514 0.77641 0.0
H4676 H 0.59275 0.03683 0.75991 0.0
H4677 H 0.57457 0.99196 0.7631 0.0
H4678 H 0.555 0.99021 0.77938 0.0
H4679 H 0.58322 1.00003 0.73177 0.0
H4680 H 0.60296 0.01541 0.78784 0.0
H4681 H 0.60935 0.02969 0.81449 0.0
H4682 H 0.63442 0.06709 0.7854 0.0
H4683 H 0.62804 0.05304 0.75853 0.0
C4684 C 0.64144 0.00426 0.71068 0.0
C4685 C 0.6513 0.01611 0.70156 0.0
C4686 C 0.63092 0.00456 0.72003 0.0
C4687 C 0.6301 0.01675 0.72055 0.0
C4688 C 0.6401 0.02873 0.71181 0.0
C4689 C 0.65056 0.02838 0.70226 0.0
C4690 C 0.61859 0.01676 0.72998 0.0
C4691 C 0.62165 0.0254 0.74461 0.0
C4692 C 0.60457 0.00751 0.72531 0.0
C4693 C 0.60074 0.9984 0.70973 0.0
C4694 C 0.60594 0.00423 0.69348 0.0
C4695 C 0.60242 0.99557 0.67888 0.0
C4696 C 0.59362 0.98106 0.68034 0.0
C4697 C 0.58831 0.97518 0.69641 0.0
C4698 C 0.59181 0.9838 0.71105 0.0
C4699 C 0.57351 0.02566 0.7737 0.0
C4700 C 0.56262 0.01254 0.77918 0.0
C4701 C 0.58464 0.02663 0.76429 0.0
C4702 C 0.58521 0.01454 0.7604 0.0
C4703 C 0.57435 0.00144 0.76589 0.0
C4704 C 0.56316 1.00044 0.77517 0.0
C4705 C 0.59697 0.01546 0.75033 0.0
C4706 C 0.59396 0.00698 0.73554 0.0
C4707 C 0.61102 0.02471 0.75502 0.0
C4708 C 0.6149 0.03319 0.77115 0.0
C4709 C 0.60975 0.02669 0.78711 0.0
C4710 C 0.61338 0.03474 0.80226 0.0
C4711 C 0.62225 0.04929 0.80163 0.0
C4712 C 0.62753 0.05582 0.78586 0.0
C4713 C 0.62392 0.04782 0.77067 0.0
H4714 H 0.62506 0.0555 0.81338 0.0
H4715 H 0.59091 0.97437 0.66903 0.0
loop_
_geom_bond_atom_site_label_1
_geom_bond_atom_site_label_2
_geom_bond_distance
_geom_bond_site_symmetry_2
_ccdc_geom_bond_type
Co0 O1 2.216 . S
Co0 O2 2.091 . S
Co0 O4 2.004 1_554 S
Co0 O10 2.021 . S
Co0 O12 2.137 1_454 S
Co0 O13 2.244 1_455 S
O1 Co0 2.216 . S
O1 C8 1.247 . S
O2 Co0 2.091 . S
O2 C8 1.261 . S
C3 O12 1.247 . S
C3 O13 1.272 1_556 S
O4 Co0 2.004 1_556 S
O4 C9 1.259 . S
Co5 O6 2.061 1_554 S
Co5 O11 2.052 . S
Co5 O13 2.135 . S
O6 Co5 2.061 1_556 S
O6 C9 1.235 1_655 S
C7 O10 1.238 1_655 S
C7 O11 1.241 . S
C8 O1 1.247 . S
C8 O2 1.261 . S
C9 O4 1.259 . S
C9 O6 1.235 1_455 S
O10 Co0 2.021 . S
O10 C7 1.238 1_455 S
O11 Co5 2.052 . S
O11 C7 1.241 . S
O12 Co0 2.137 1_656 S
O12 C3 1.247 . S
O13 Co0 2.244 1_655 S
O13 C3 1.272 1_554 S
O13 Co5 2.135 . S
Co14 O15 2.216 1_554 S
Co14 O16 2.091 . S
Co14 O18 2.004 . S
Co14 O24 2.021 1_554 S
Co14 O26 2.137 . S
Co14 O27 2.244 . S
O15 Co14 2.216 1_556 S
O15 C22 1.247 . S
O16 Co14 2.091 . S
O16 C22 1.261 1_554 S
C17 O26 1.247 . S
C17 O27 1.272 . S
O18 Co14 2.004 . S
O18 C23 1.259 . S
Co19 O20 2.061 . S
Co19 O25 2.052 1_554 S
Co19 O27 2.135 . S
O20 Co19 2.061 . S
O20 C23 1.235 . S
C21 O24 1.238 . S
C21 O25 1.241 . S
C22 O15 1.247 . S
C22 O16 1.261 1_556 S
C23 O18 1.259 . S
C23 O20 1.235 . S
O24 Co14 2.021 1_556 S
O24 C21 1.238 . S
O25 Co19 2.052 1_556 S
O25 C21 1.241 . S
O26 Co14 2.137 . S
O26 C17 1.247 . S
O27 Co14 2.244 . S
O27 C17 1.272 . S
O27 Co19 2.135 . S
Co28 O29 2.216 1_554 S
Co28 O30 2.091 . S
Co28 O32 2.004 . S
Co28 O38 2.021 1_554 S
Co28 O40 2.135 . S
Co28 O41 2.244 1_545 S
O29 Co28 2.216 1_556 S
O29 C36 1.247 . S
O30 Co28 2.091 . S
O30 C36 1.261 1_554 S
C31 O40 1.194 1_565 S
C31 O41 1.272 . S
O32 Co28 2.004 . S
O32 C37 1.259 . S
Co33 O34 2.061 . S
Co33 O39 2.052 1_554 S
Co33 O41 2.135 . S
O34 Co33 2.061 . S
O34 C37 1.235 1_565 S
C35 O38 1.238 1_565 S
C35 O39 1.241 . S
C36 O29 1.247 . S
C36 O30 1.261 1_556 S
C37 O32 1.259 . S
C37 O34 1.235 1_545 S
O38 Co28 2.021 1_556 S
O38 C35 1.238 1_545 S
O39 Co33 2.052 1_556 S
O39 C35 1.241 . S
O40 Co28 2.135 . S
O40 C31 1.194 1_545 S
O41 Co28 2.244 1_565 S
O41 C31 1.272 . S
O41 Co33 2.135 . S
Co42 O43 2.216 1_554 S
Co42 O44 2.091 . S
Co42 O46 2.004 . S
Co42 O52 2.021 1_554 S
Co42 O54 2.137 1_655 S
Co42 O55 2.244 1_655 S
O43 Co42 2.216 1_556 S
O43 C50 1.247 . S
O44 Co42 2.091 . S
O44 C50 1.261 1_554 S
C45 O54 1.247 . S
C45 O55 1.272 . S
O46 Co42 2.004 . S
O46 C51 1.251 1_655 S
Co47 O48 2.061 . S
Co47 O53 2.052 1_554 S
Co47 O55 2.135 . S
O48 Co47 2.061 . S
O48 C51 1.243 . S
C49 O52 1.238 1_455 S
C49 O53 1.241 . S
C50 O43 1.247 . S
C50 O44 1.261 1_556 S
C51 O46 1.251 1_455 S
C51 O48 1.243 . S
O52 Co42 2.021 1_556 S
O52 C49 1.238 1_655 S
O53 Co47 2.052 1_556 S
O53 C49 1.241 . S
O54 Co42 2.137 1_455 S
O54 C45 1.247 . S
O55 Co42 2.244 1_455 S
O55 C45 1.272 . S
O55 Co47 2.135 . S
Co56 O57 2.216 . S
Co56 O58 2.091 . S
Co56 O60 2.004 1_554 S
Co56 O66 2.021 . S
Co56 O68 2.137 1_554 S
Co56 O69 2.244 . S
O57 Co56 2.216 . S
O57 C64 1.247 . S
O58 Co56 2.091 . S
O58 C64 1.261 . S
C59 O68 1.247 . S
C59 O69 1.272 1_556 S
O60 Co56 2.004 1_556 S
O60 C65 1.259 . S
Co61 O62 2.026 1_554 S
Co61 O67 2.110 . S
Co61 O69 2.138 . S
O62 Co61 2.026 1_556 S
O62 C65 1.235 . S
C63 O66 1.238 . S
C63 O67 1.241 . S
C64 O57 1.247 . S
C64 O58 1.261 . S
C65 O60 1.259 . S
C65 O62 1.235 . S
O66 Co56 2.021 . S
O66 C63 1.238 . S
O67 Co61 2.110 . S
O67 C63 1.241 . S
O68 Co56 2.137 1_556 S
O68 C59 1.247 . S
O69 Co56 2.244 . S
O69 C59 1.272 1_554 S
O69 Co61 2.138 . S
Co70 O71 2.216 . S
Co70 O72 2.091 . S
Co70 O74 2.004 1_554 S
Co70 O80 2.021 . S
Co70 O82 2.137 1_564 S
Co70 O83 2.244 1_565 S
O71 Co70 2.216 . S
O71 C78 1.247 . S
O72 Co70 2.091 . S
O72 C78 1.261 . S
C73 O82 1.247 . S
C73 O83 1.272 1_556 S
O74 Co70 2.004 1_556 S
O74 C79 1.250 1_565 S
Co75 O76 2.061 1_554 S
Co75 O81 2.052 . S
Co75 O83 2.135 . S
O76 Co75 2.061 1_556 S
O76 C79 1.244 . S
C77 O80 1.238 1_545 S
C77 O81 1.241 . S
C78 O71 1.247 . S
C78 O72 1.261 . S
C79 O74 1.250 1_545 S
C79 O76 1.244 . S
O80 Co70 2.021 . S
O80 C77 1.238 1_565 S
O81 Co75 2.052 . S
O81 C77 1.241 . S
O82 Co70 2.137 1_546 S
O82 C73 1.247 . S
O83 Co70 2.244 1_545 S
O83 C73 1.272 1_554 S
O83 Co75 2.135 . S
Co84 O85 2.216 . S
Co84 O86 2.091 . S
Co84 O88 2.004 . S
Co84 O94 2.021 . S
Co84 O96 2.137 . S
Co84 O97 2.244 . S
O85 Co84 2.216 . S
O85 C92 1.247 . S
O86 Co84 2.091 . S
O86 C92 1.261 . S
C87 O96 1.247 . S
C87 O97 1.272 . S
O88 Co84 2.004 . S
O88 C93 1.259 . S
Co89 O90 2.061 . S
Co89 O95 2.052 . S
Co89 O97 2.135 . S
O90 Co89 2.061 . S
O90 C93 1.235 . S
C91 O94 1.238 . S
C91 O95 1.241 . S
C92 O85 1.247 . S
C92 O86 1.261 . S
C93 O88 1.259 . S
C93 O90 1.235 . S
O94 Co84 2.021 . S
O94 C91 1.238 . S
O95 Co89 2.052 . S
O95 C91 1.241 . S
O96 Co84 2.137 . S
O96 C87 1.247 . S
O97 Co84 2.244 . S
O97 C87 1.272 . S
O97 Co89 2.135 . S
Co98 O99 2.216 . S
Co98 O100 2.091 . S
Co98 O102 2.004 . S
Co98 O108 2.021 . S
Co98 O110 2.137 1_565 S
Co98 O111 2.330 . S
O99 Co98 2.216 . S
O99 C106 1.247 . S
O100 Co98 2.091 . S
O100 C106 1.261 . S
C101 O110 1.247 . S
C101 O111 1.260 1_545 S
O102 Co98 2.004 . S
O102 C107 1.259 . S
Co103 O104 2.061 . S
Co103 O109 2.052 . S
Co103 O111 2.145 . S
O104 Co103 2.061 . S
O104 C107 1.235 . S
C105 O108 1.238 . S
C105 O109 1.241 . S
C106 O99 1.247 . S
C106 O100 1.261 . S
C107 O102 1.259 . S
C107 O104 1.235 . S
O108 Co98 2.021 . S
O108 C105 1.238 . S
O109 Co103 2.052 . S
O109 C105 1.241 . S
O110 Co98 2.137 1_545 S
O110 C101 1.247 . S
O111 Co98 2.330 . S
O111 C101 1.260 1_565 S
O111 Co103 2.145 . S
Co112 O113 2.216 . S
Co112 O114 2.091 . S
Co112 O116 2.004 . S
Co112 O122 2.021 . S
Co112 O124 2.137 . S
Co112 O125 2.244 . S
O113 Co112 2.216 . S
O113 C120 1.247 . S
O114 Co112 2.091 . S
O114 C120 1.261 . S
C115 O124 1.247 1_655 S
C115 O125 1.272 1_655 S
O116 Co112 2.004 . S
O116 C121 1.259 . S
Co117 O118 2.061 . S
Co117 O123 2.052 . S
Co117 O125 2.135 . S
O118 Co117 2.061 . S
O118 C121 1.235 . S
C119 O122 1.238 . S
C119 O123 1.241 . S
C120 O113 1.247 . S
C120 O114 1.261 . S
C121 O116 1.259 . S
C121 O118 1.235 . S
O122 Co112 2.021 . S
O122 C119 1.238 . S
O123 Co117 2.052 . S
O123 C119 1.241 . S
O124 Co112 2.137 . S
O124 C115 1.247 1_455 S
O125 Co112 2.244 . S
O125 C115 1.272 1_455 S
O125 Co117 2.135 . S
Co126 O127 2.216 . S
Co126 O128 2.091 . S
Co126 O130 2.004 . S
Co126 O136 2.021 . S
Co126 O138 2.137 1_565 S
Co126 O139 2.244 . S
O127 Co126 2.216 . S
O127 C134 1.247 . S
O128 Co126 2.091 . S
O128 C134 1.261 . S
C129 O138 1.247 . S
C129 O139 1.272 1_545 S
O130 Co126 2.004 . S
O130 C135 1.259 . S
Co131 O132 2.061 . S
Co131 O137 2.052 . S
Co131 O139 2.135 . S
O132 Co131 2.061 . S
O132 C135 1.235 . S
C133 O136 1.238 . S
C133 O137 1.241 . S
C134 O127 1.247 . S
C134 O128 1.261 . S
C135 O130 1.259 . S
C135 O132 1.235 . S
O136 Co126 2.021 . S
O136 C133 1.238 . S
O137 Co131 2.052 . S
O137 C133 1.241 . S
O138 Co126 2.137 1_545 S
O138 C129 1.247 . S
O139 Co126 2.244 . S
O139 C129 1.272 1_565 S
O139 Co131 2.135 . S
Co140 O141 2.216 1_455 S
Co140 O142 2.091 1_455 S
Co140 O144 2.004 . S
Co140 O150 2.021 . S
Co140 O152 2.142 . S
Co140 O153 2.244 . S
O141 Co140 2.216 1_655 S
O141 C148 1.247 . S
O142 Co140 2.091 1_655 S
O142 C148 1.261 . S
C143 O152 1.327 . S
C143 O153 1.272 . S
O144 Co140 2.004 . S
O144 C149 1.259 . S
Co145 O146 2.061 . S
Co145 O151 2.052 . S
Co145 O153 2.135 . S
O146 Co145 2.061 . S
O146 C149 1.235 . S
C147 O150 1.238 . S
C147 O151 1.241 . S
C148 O141 1.247 . S
C148 O142 1.261 . S
C149 O144 1.259 . S
C149 O146 1.235 . S
O150 Co140 2.021 . S
O150 C147 1.238 . S
O151 Co145 2.052 . S
O151 C147 1.241 . S
O152 Co140 2.142 . S
O152 C143 1.327 . S
O153 Co140 2.244 . S
O153 C143 1.272 . S
O153 Co145 2.135 . S
Co154 O155 2.216 . S
Co154 O156 2.091 . S
Co154 O158 2.004 . S
Co154 O164 2.021 . S
Co154 O166 2.137 . S
Co154 O167 2.244 . S
O155 Co154 2.216 . S
O155 C162 1.247 . S
O156 Co154 2.091 . S
O156 C162 1.261 . S
C157 O166 1.247 . S
C157 O167 1.272 . S
O158 Co154 2.004 . S
O158 C163 1.259 . S
Co159 O160 2.061 . S
Co159 O165 2.052 . S
Co159 O167 2.135 . S
O160 Co159 2.061 . S
O160 C163 1.235 . S
C161 O164 1.238 . S
C161 O165 1.241 . S
C162 O155 1.247 . S
C162 O156 1.261 . S
C163 O158 1.259 . S
C163 O160 1.235 . S
O164 Co154 2.021 . S
O164 C161 1.238 . S
O165 Co159 2.052 . S
O165 C161 1.241 . S
O166 Co154 2.137 . S
O166 C157 1.247 . S
O167 Co154 2.244 . S
O167 C157 1.272 . S
O167 Co159 2.135 . S
Co168 O169 2.216 . S
Co168 O170 2.091 . S
Co168 O172 2.004 . S
Co168 O178 2.021 . S
Co168 O180 2.167 . S
Co168 O181 2.244 . S
O169 Co168 2.216 . S
O169 C176 1.247 . S
O170 Co168 2.091 . S
O170 C176 1.261 . S
C171 O180 1.257 1_565 S
C171 O181 1.272 1_565 S
O172 Co168 2.004 . S
O172 C177 1.259 . S
Co173 O174 2.061 . S
Co173 O179 2.052 . S
Co173 O181 2.135 . S
O174 Co173 2.061 . S
O174 C177 1.235 . S
C175 O178 1.238 . S
C175 O179 1.241 . S
C176 O169 1.247 . S
C176 O170 1.261 . S
C177 O172 1.259 . S
C177 O174 1.235 . S
O178 Co168 2.021 . S
O178 C175 1.238 . S
O179 Co173 2.052 . S
O179 C175 1.241 . S
O180 Co168 2.167 . S
O180 C171 1.257 1_545 S
O181 Co168 2.244 . S
O181 C171 1.272 1_545 S
O181 Co173 2.135 . S
Co182 O183 2.216 1_655 S
Co182 O184 2.091 1_655 S
Co182 O186 2.004 . S
Co182 O192 2.021 . S
Co182 O194 2.137 1_655 S
Co182 O195 2.244 . S
O183 Co182 2.216 1_455 S
O183 C190 1.247 . S
O184 Co182 2.091 1_455 S
O184 C190 1.261 . S
C185 O194 1.233 1_655 S
C185 O195 1.272 . S
O186 Co182 2.004 . S
O186 C191 1.259 . S
Co187 O188 2.061 . S
Co187 O193 2.052 . S
Co187 O195 2.135 . S
O188 Co187 2.061 . S
O188 C191 1.235 . S
C189 O192 1.238 . S
C189 O193 1.241 . S
C190 O183 1.247 . S
C190 O184 1.261 . S
C191 O186 1.259 . S
C191 O188 1.235 . S
O192 Co182 2.021 . S
O192 C189 1.238 . S
O193 Co187 2.052 . S
O193 C189 1.241 . S
O194 Co182 2.137 1_455 S
O194 C185 1.233 1_455 S
O195 Co182 2.244 . S
O195 C185 1.272 . S
O195 Co187 2.135 . S
Co196 O197 2.216 . S
Co196 O198 2.091 . S
Co196 O200 2.004 . S
Co196 O206 2.021 . S
Co196 O208 2.137 . S
Co196 O209 2.244 . S
O197 Co196 2.216 . S
O197 C204 1.247 . S
O198 Co196 2.091 . S
O198 C204 1.261 . S
C199 O208 1.247 . S
C199 O209 1.272 . S
O200 Co196 2.004 . S
O200 C205 1.259 . S
Co201 O202 2.061 . S
Co201 O207 2.052 . S
Co201 O209 2.135 . S
O202 Co201 2.061 . S
O202 C205 1.235 . S
C203 O206 1.238 . S
C203 O207 1.241 . S
C204 O197 1.247 . S
C204 O198 1.261 . S
C205 O200 1.259 . S
C205 O202 1.235 . S
O206 Co196 2.021 . S
O206 C203 1.238 . S
O207 Co201 2.052 . S
O207 C203 1.241 . S
O208 Co196 2.137 . S
O208 C199 1.247 . S
O209 Co196 2.244 . S
O209 C199 1.272 . S
O209 Co201 2.135 . S
Co210 O211 2.216 . S
Co210 O212 2.091 . S
Co210 O214 2.004 . S
Co210 O220 2.021 . S
Co210 O222 2.137 . S
Co210 O223 2.244 . S
O211 Co210 2.216 . S
O211 C218 1.247 . S
O212 Co210 2.091 . S
O212 C218 1.261 . S
C213 O222 1.247 . S
C213 O223 1.272 . S
O214 Co210 2.004 . S
O214 C219 1.259 . S
Co215 O216 2.061 . S
Co215 O221 2.052 . S
Co215 O223 2.135 . S
O216 Co215 2.061 . S
O216 C219 1.235 . S
C217 O220 1.238 . S
C217 O221 1.241 . S
C218 O211 1.247 . S
C218 O212 1.261 . S
C219 O214 1.259 . S
C219 O216 1.235 . S
O220 Co210 2.021 . S
O220 C217 1.238 . S
O221 Co215 2.052 . S
O221 C217 1.241 . S
O222 Co210 2.137 . S
O222 C213 1.247 . S
O223 Co210 2.244 . S
O223 C213 1.272 . S
O223 Co215 2.135 . S
Co224 O225 2.216 . S
Co224 O226 2.091 . S
Co224 O228 2.004 . S
Co224 O234 2.021 . S
Co224 O236 2.168 . S
Co224 O237 2.244 . S
O225 Co224 2.216 . S
O225 C232 1.247 . S
O226 Co224 2.091 . S
O226 C232 1.261 . S
C227 O236 1.213 1_565 S
C227 O237 1.272 1_565 S
O228 Co224 2.004 . S
O228 C233 1.259 . S
Co229 O230 2.061 . S
Co229 O235 2.052 . S
Co229 O237 2.135 . S
O230 Co229 2.061 . S
O230 C233 1.235 . S
C231 O234 1.238 . S
C231 O235 1.241 . S
C232 O225 1.247 . S
C232 O226 1.261 . S
C233 O228 1.259 . S
C233 O230 1.235 . S
O234 Co224 2.021 . S
O234 C231 1.238 . S
O235 Co229 2.052 . S
O235 C231 1.241 . S
O236 Co224 2.168 . S
O236 C227 1.213 1_545 S
O237 Co224 2.244 . S
O237 C227 1.272 1_545 S
O237 Co229 2.135 . S
Co238 O239 2.216 . S
Co238 O240 2.091 . S
Co238 O242 2.004 . S
Co238 O248 2.021 . S
Co238 O250 2.197 . S
Co238 O251 2.244 . S
O239 Co238 2.216 . S
O239 C246 1.247 . S
O240 Co238 2.091 . S
O240 C246 1.261 . S
C241 O250 1.268 1_455 S
C241 O251 1.272 1_455 S
O242 Co238 2.004 . S
O242 C247 1.259 . S
Co243 O244 2.061 . S
Co243 O249 2.052 . S
Co243 O251 2.135 . S
O244 Co243 2.061 . S
O244 C247 1.235 . S
C245 O248 1.238 . S
C245 O249 1.241 . S
C246 O239 1.247 . S
C246 O240 1.261 . S
C247 O242 1.259 . S
C247 O244 1.235 . S
O248 Co238 2.021 . S
O248 C245 1.238 . S
O249 Co243 2.052 . S
O249 C245 1.241 . S
O250 Co238 2.197 . S
O250 C241 1.268 1_655 S
O251 Co238 2.244 . S
O251 C241 1.272 1_655 S
O251 Co243 2.135 . S
H252 C271 0.949 . S
H253 C272 0.950 . S
H254 C274 0.950 . S
H255 C275 0.950 . S
H256 C277 0.950 . S
H257 C280 0.950 . S
H258 C281 0.950 . S
H259 C283 0.951 . S
H260 C284 0.949 . S
H261 C286 0.949 . S
H262 C287 0.950 . S
H263 C289 0.950 . S
H264 C290 0.950 . S
H265 C292 0.950 . S
H266 C295 0.950 . S
H267 C296 0.950 . S
H268 C298 0.951 . S
H269 C299 0.949 . S
C270 C271 1.376 . S
C270 C275 1.386 . S
C270 C276 1.483 . S
C271 H252 0.949 . S
C271 C270 1.376 . S
C271 C272 1.397 . S
C272 H253 0.950 . S
C272 C271 1.397 . S
C272 C273 1.391 . S
C273 C272 1.391 . S
C273 C274 1.405 . S
C274 H254 0.950 . S
C274 C273 1.405 . S
C274 C275 1.367 . S
C275 H255 0.950 . S
C275 C270 1.386 . S
C275 C274 1.367 . S
C276 C270 1.483 . S
C276 C277 1.382 . S
C276 C278 1.403 . S
C277 H256 0.950 . S
C277 C276 1.382 . S
C277 C293 1.411 . S
C278 C276 1.403 . S
C278 C279 1.489 . S
C278 C292 1.411 . S
C279 C278 1.489 . S
C279 C280 1.383 . S
C279 C284 1.382 . S
C280 H257 0.950 . S
C280 C279 1.383 . S
C280 C281 1.395 . S
C281 H258 0.950 . S
C281 C280 1.395 . S
C281 C282 1.288 . S
C282 C281 1.288 . S
C282 C283 1.392 . S
C283 H259 0.951 . S
C283 C282 1.392 . S
C283 C284 1.392 . S
C284 H260 0.949 . S
C284 C279 1.382 . S
C284 C283 1.392 . S
C285 C286 1.376 . S
C285 C290 1.386 . S
C285 C291 1.483 . S
C286 H261 0.949 . S
C286 C285 1.376 . S
C286 C287 1.397 . S
C287 H262 0.950 . S
C287 C286 1.397 . S
C287 C288 1.391 . S
C288 C287 1.391 . S
C288 C289 1.405 . S
C289 H263 0.950 . S
C289 C288 1.405 . S
C289 C290 1.367 . S
C290 H264 0.950 . S
C290 C285 1.386 . S
C290 C289 1.367 . S
C291 C285 1.483 . S
C291 C292 1.382 . S
C291 C293 1.403 . S
C292 H265 0.950 . S
C292 C278 1.411 . S
C292 C291 1.382 . S
C293 C277 1.411 . S
C293 C291 1.403 . S
C293 C294 1.489 . S
C294 C293 1.489 . S
C294 C295 1.383 . S
C294 C299 1.382 . S
C295 H266 0.950 . S
C295 C294 1.383 . S
C295 C296 1.395 . S
C296 H267 0.950 . S
C296 C295 1.395 . S
C296 C297 1.288 . S
C297 C296 1.288 . S
C297 C298 1.392 . S
C298 H268 0.951 . S
C298 C297 1.392 . S
C298 C299 1.392 . S
C299 H269 0.949 . S
C299 C294 1.382 . S
C299 C298 1.392 . S
H300 C319 0.949 . S
H301 C320 0.950 . S
H302 C322 0.950 . S
H303 C323 0.950 . S
H304 C325 0.950 . S
H305 C328 0.950 . S
H306 C329 0.950 . S
H307 C331 0.951 . S
H308 C332 0.949 . S
H309 C334 0.949 . S
H310 C335 0.950 . S
H311 C337 0.950 . S
H312 C338 0.950 . S
H313 C340 0.950 . S
H314 C343 0.950 . S
H315 C344 0.950 . S
H316 C346 0.951 . S
H317 C347 0.949 . S
C318 C319 1.376 . S
C318 C323 1.386 . S
C318 C324 1.483 . S
C319 H300 0.949 . S
C319 C318 1.376 . S
C319 C320 1.397 . S
C320 H301 0.950 . S
C320 C319 1.397 . S
C320 C321 1.391 . S
C321 C320 1.391 . S
C321 C322 1.405 . S
C322 H302 0.950 . S
C322 C321 1.405 . S
C322 C323 1.367 . S
C323 H303 0.950 . S
C323 C318 1.386 . S
C323 C322 1.367 . S
C324 C318 1.483 . S
C324 C325 1.382 . S
C324 C326 1.403 . S
C325 H304 0.950 . S
C325 C324 1.382 . S
C325 C341 1.411 . S
C326 C324 1.403 . S
C326 C327 1.489 . S
C326 C340 1.411 . S
C327 C326 1.489 . S
C327 C328 1.383 . S
C327 C332 1.382 . S
C328 H305 0.950 . S
C328 C327 1.383 . S
C328 C329 1.395 . S
C329 H306 0.950 . S
C329 C328 1.395 . S
C329 C330 1.288 . S
C330 C329 1.288 . S
C330 C331 1.392 . S
C331 H307 0.951 . S
C331 C330 1.392 . S
C331 C332 1.392 . S
C332 H308 0.949 . S
C332 C327 1.382 . S
C332 C331 1.392 . S
C333 C334 1.376 . S
C333 C338 1.386 . S
C333 C339 1.483 . S
C334 H309 0.949 . S
C334 C333 1.376 . S
C334 C335 1.397 . S
C335 H310 0.950 . S
C335 C334 1.397 . S
C335 C336 1.391 . S
C336 C335 1.391 . S
C336 C337 1.405 . S
C337 H311 0.950 . S
C337 C336 1.405 . S
C337 C338 1.367 . S
C338 H312 0.950 . S
C338 C333 1.386 . S
C338 C337 1.367 . S
C339 C333 1.483 . S
C339 C340 1.382 . S
C339 C341 1.403 . S
C340 H313 0.950 . S
C340 C326 1.411 . S
C340 C339 1.382 . S
C341 C325 1.411 . S
C341 C339 1.403 . S
C341 C342 1.489 . S
C342 C341 1.489 . S
C342 C343 1.383 . S
C342 C347 1.382 . S
C343 H314 0.950 . S
C343 C342 1.383 . S
C343 C344 1.395 . S
C344 H315 0.950 . S
C344 C343 1.395 . S
C344 C345 1.288 . S
C345 C344 1.288 . S
C345 C346 1.392 . S
C346 H316 0.951 . S
C346 C345 1.392 . S
C346 C347 1.392 . S
C347 H317 0.949 . S
C347 C342 1.382 . S
C347 C346 1.392 . S
H348 C367 0.949 . S
H349 C368 0.950 . S
H350 C370 0.950 . S
H351 C371 0.950 . S
H352 C373 0.950 . S
H353 C376 0.950 . S
H354 C377 0.950 . S
H355 C379 0.951 . S
H356 C380 0.949 . S
H357 C382 0.949 . S
H358 C383 0.950 . S
H359 C385 0.950 . S
H360 C386 0.950 . S
H361 C388 0.950 . S
H362 C391 0.950 . S
H363 C392 0.950 . S
H364 C394 0.951 . S
H365 C395 0.949 . S
C366 C367 1.376 . S
C366 C371 1.386 . S
C366 C372 1.483 . S
C367 H348 0.949 . S
C367 C366 1.376 . S
C367 C368 1.397 . S
C368 H349 0.950 . S
C368 C367 1.397 . S
C368 C369 1.391 . S
C369 C368 1.391 . S
C369 C370 1.405 . S
C370 H350 0.950 . S
C370 C369 1.405 . S
C370 C371 1.367 . S
C371 H351 0.950 . S
C371 C366 1.386 . S
C371 C370 1.367 . S
C372 C366 1.483 . S
C372 C373 1.382 . S
C372 C374 1.403 . S
C373 H352 0.950 . S
C373 C372 1.382 . S
C373 C389 1.411 . S
C374 C372 1.403 . S
C374 C375 1.489 . S
C374 C388 1.411 . S
C375 C374 1.489 . S
C375 C376 1.383 . S
C375 C380 1.382 . S
C376 H353 0.950 . S
C376 C375 1.383 . S
C376 C377 1.395 . S
C377 H354 0.950 . S
C377 C376 1.395 . S
C377 C378 1.288 . S
C378 C377 1.288 . S
C378 C379 1.392 . S
C379 H355 0.951 . S
C379 C378 1.392 . S
C379 C380 1.392 . S
C380 H356 0.949 . S
C380 C375 1.382 . S
C380 C379 1.392 . S
C381 C382 1.376 . S
C381 C386 1.386 . S
C381 C387 1.483 . S
C382 H357 0.949 . S
C382 C381 1.376 . S
C382 C383 1.397 . S
C383 H358 0.950 . S
C383 C382 1.397 . S
C383 C384 1.391 . S
C384 C383 1.391 . S
C384 C385 1.405 . S
C385 H359 0.950 . S
C385 C384 1.405 . S
C385 C386 1.367 . S
C386 H360 0.950 . S
C386 C381 1.386 . S
C386 C385 1.367 . S
C387 C381 1.483 . S
C387 C388 1.382 . S
C387 C389 1.403 . S
C388 H361 0.950 . S
C388 C374 1.411 . S
C388 C387 1.382 . S
C389 C373 1.411 . S
C389 C387 1.403 . S
C389 C390 1.489 . S
C390 C389 1.489 . S
C390 C391 1.383 . S
C390 C395 1.382 . S
C391 H362 0.950 . S
C391 C390 1.383 . S
C391 C392 1.395 . S
C392 H363 0.950 . S
C392 C391 1.395 . S
C392 C393 1.288 . S
C393 C392 1.288 . S
C393 C394 1.392 . S
C394 H364 0.951 . S
C394 C393 1.392 . S
C394 C395 1.392 . S
C395 H365 0.949 . S
C395 C390 1.382 . S
C395 C394 1.392 . S
H396 C415 0.949 . S
H397 C416 0.950 . S
H398 C418 0.950 . S
H399 C419 0.950 . S
H400 C421 0.950 . S
H401 C424 0.950 . S
H402 C425 0.950 . S
H403 C427 0.951 . S
H404 C428 0.949 . S
H405 C430 0.949 . S
H406 C431 0.950 . S
H407 C433 0.950 . S
H408 C434 0.950 . S
H409 C436 0.950 . S
H410 C439 0.950 . S
H411 C440 0.950 . S
H412 C442 0.951 . S
H413 C443 0.949 . S
C414 C415 1.376 . S
C414 C419 1.386 . S
C414 C420 1.483 . S
C415 H396 0.949 . S
C415 C414 1.376 . S
C415 C416 1.397 . S
C416 H397 0.950 . S
C416 C415 1.397 . S
C416 C417 1.391 . S
C417 C416 1.391 . S
C417 C418 1.405 . S
C418 H398 0.950 . S
C418 C417 1.405 . S
C418 C419 1.367 . S
C419 H399 0.950 . S
C419 C414 1.386 . S
C419 C418 1.367 . S
C420 C414 1.483 . S
C420 C421 1.382 . S
C420 C422 1.403 . S
C421 H400 0.950 . S
C421 C420 1.382 . S
C421 C437 1.411 . S
C422 C420 1.403 . S
C422 C423 1.489 . S
C422 C436 1.411 . S
C423 C422 1.489 . S
C423 C424 1.383 . S
C423 C428 1.382 . S
C424 H401 0.950 . S
C424 C423 1.383 . S
C424 C425 1.395 . S
C425 H402 0.950 . S
C425 C424 1.395 . S
C425 C426 1.288 . S
C426 C425 1.288 . S
C426 C427 1.392 . S
C427 H403 0.951 . S
C427 C426 1.392 . S
C427 C428 1.392 . S
C428 H404 0.949 . S
C428 C423 1.382 . S
C428 C427 1.392 . S
C429 C430 1.376 . S
C429 C434 1.386 . S
C429 C435 1.483 . S
C430 H405 0.949 . S
C430 C429 1.376 . S
C430 C431 1.397 . S
C431 H406 0.950 . S
C431 C430 1.397 . S
C431 C432 1.391 . S
C432 C431 1.391 . S
C432 C433 1.405 . S
C433 H407 0.950 . S
C433 C432 1.405 . S
C433 C434 1.367 . S
C434 H408 0.950 . S
C434 C429 1.386 . S
C434 C433 1.367 . S
C435 C429 1.483 . S
C435 C436 1.382 . S
C435 C437 1.403 . S
C436 H409 0.950 . S
C436 C422 1.411 . S
C436 C435 1.382 . S
C437 C421 1.411 . S
C437 C435 1.403 . S
C437 C438 1.489 . S
C438 C437 1.489 . S
C438 C439 1.383 . S
C438 C443 1.382 . S
C439 H410 0.950 . S
C439 C438 1.383 . S
C439 C440 1.395 . S
C440 H411 0.950 . S
C440 C439 1.395 . S
C440 C441 1.288 . S
C441 C440 1.288 . S
C441 C442 1.392 . S
C442 H412 0.951 . S
C442 C441 1.392 . S
C442 C443 1.392 . S
C443 H413 0.949 . S
C443 C438 1.382 . S
C443 C442 1.392 . S
H444 C463 0.949 . S
H445 C464 0.950 . S
H446 C466 0.950 . S
H447 C467 0.950 . S
H448 C469 0.950 . S
H449 C472 0.950 . S
H450 C473 0.950 . S
H451 C475 0.951 . S
H452 C476 0.949 . S
H453 C478 0.949 . S
H454 C479 0.950 . S
H455 C481 0.950 . S
H456 C482 0.950 . S
H457 C484 0.950 . S
H458 C487 0.950 . S
H459 C488 0.950 . S
H460 C490 0.951 . S
H461 C491 0.949 . S
C462 C463 1.376 . S
C462 C467 1.386 . S
C462 C468 1.483 . S
C463 H444 0.949 . S
C463 C462 1.376 . S
C463 C464 1.397 . S
C464 H445 0.950 . S
C464 C463 1.397 . S
C464 C465 1.391 . S
C465 C464 1.391 . S
C465 C466 1.405 . S
C466 H446 0.950 . S
C466 C465 1.405 . S
C466 C467 1.367 . S
C467 H447 0.950 . S
C467 C462 1.386 . S
C467 C466 1.367 . S
C468 C462 1.483 . S
C468 C469 1.382 . S
C468 C470 1.403 . S
C469 H448 0.950 . S
C469 C468 1.382 . S
C469 C485 1.411 . S
C470 C468 1.403 . S
C470 C471 1.489 . S
C470 C484 1.411 . S
C471 C470 1.489 . S
C471 C472 1.383 . S
C471 C476 1.382 . S
C472 H449 0.950 . S
C472 C471 1.383 . S
C472 C473 1.395 . S
C473 H450 0.950 . S
C473 C472 1.395 . S
C473 C474 1.288 . S
C474 C473 1.288 . S
C474 C475 1.392 . S
C475 H451 0.951 . S
C475 C474 1.392 . S
C475 C476 1.392 . S
C476 H452 0.949 . S
C476 C471 1.382 . S
C476 C475 1.392 . S
C477 C478 1.376 . S
C477 C482 1.386 . S
C477 C483 1.483 . S
C478 H453 0.949 . S
C478 C477 1.376 . S
C478 C479 1.397 . S
C479 H454 0.950 . S
C479 C478 1.397 . S
C479 C480 1.391 . S
C480 C479 1.391 . S
C480 C481 1.405 . S
C481 H455 0.950 . S
C481 C480 1.405 . S
C481 C482 1.367 . S
C482 H456 0.950 . S
C482 C477 1.386 . S
C482 C481 1.367 . S
C483 C477 1.483 . S
C483 C484 1.382 . S
C483 C485 1.403 . S
C484 H457 0.950 . S
C484 C470 1.411 . S
C484 C483 1.382 . S
C485 C469 1.411 . S
C485 C483 1.403 . S
C485 C486 1.489 . S
C486 C485 1.489 . S
C486 C487 1.383 . S
C486 C491 1.382 . S
C487 H458 0.950 . S
C487 C486 1.383 . S
C487 C488 1.395 . S
C488 H459 0.950 . S
C488 C487 1.395 . S
C488 C489 1.288 . S
C489 C488 1.288 . S
C489 C490 1.392 . S
C490 H460 0.951 . S
C490 C489 1.392 . S
C490 C491 1.392 . S
C491 H461 0.949 . S
C491 C486 1.382 . S
C491 C490 1.392 . S
H492 C511 0.949 . S
H493 C512 0.950 . S
H494 C514 0.950 . S
H495 C515 0.950 . S
H496 C517 0.950 . S
H497 C520 0.950 . S
H498 C521 0.950 . S
H499 C523 0.951 . S
H500 C524 0.949 . S
H501 C526 0.949 . S
H502 C527 0.950 . S
H503 C529 0.950 . S
H504 C530 0.950 . S
H505 C532 0.950 . S
H506 C535 0.950 . S
H507 C536 0.950 . S
H508 C538 0.951 . S
H509 C539 0.949 . S
C510 C511 1.376 . S
C510 C515 1.386 . S
C510 C516 1.483 . S
C511 H492 0.949 . S
C511 C510 1.376 . S
C511 C512 1.397 . S
C512 H493 0.950 . S
C512 C511 1.397 . S
C512 C513 1.391 . S
C513 C512 1.391 . S
C513 C514 1.405 . S
C514 H494 0.950 . S
C514 C513 1.405 . S
C514 C515 1.367 . S
C515 H495 0.950 . S
C515 C510 1.386 . S
C515 C514 1.367 . S
C516 C510 1.483 . S
C516 C517 1.382 . S
C516 C518 1.403 . S
C517 H496 0.950 . S
C517 C516 1.382 . S
C517 C533 1.411 . S
C518 C516 1.403 . S
C518 C519 1.489 . S
C518 C532 1.411 . S
C519 C518 1.489 . S
C519 C520 1.383 . S
C519 C524 1.382 . S
C520 H497 0.950 . S
C520 C519 1.383 . S
C520 C521 1.395 . S
C521 H498 0.950 . S
C521 C520 1.395 . S
C521 C522 1.288 . S
C522 C521 1.288 . S
C522 C523 1.392 . S
C523 H499 0.951 . S
C523 C522 1.392 . S
C523 C524 1.392 . S
C524 H500 0.949 . S
C524 C519 1.382 . S
C524 C523 1.392 . S
C525 C526 1.376 . S
C525 C530 1.386 . S
C525 C531 1.483 . S
C526 H501 0.949 . S
C526 C525 1.376 . S
C526 C527 1.397 . S
C527 H502 0.950 . S
C527 C526 1.397 . S
C527 C528 1.391 . S
C528 C527 1.391 . S
C528 C529 1.405 . S
C529 H503 0.950 . S
C529 C528 1.405 . S
C529 C530 1.367 . S
C530 H504 0.950 . S
C530 C525 1.386 . S
C530 C529 1.367 . S
C531 C525 1.483 . S
C531 C532 1.382 . S
C531 C533 1.403 . S
C532 H505 0.950 . S
C532 C518 1.411 . S
C532 C531 1.382 . S
C533 C517 1.411 . S
C533 C531 1.403 . S
C533 C534 1.489 . S
C534 C533 1.489 . S
C534 C535 1.383 . S
C534 C539 1.382 . S
C535 H506 0.950 . S
C535 C534 1.383 . S
C535 C536 1.395 . S
C536 H507 0.950 . S
C536 C535 1.395 . S
C536 C537 1.288 . S
C537 C536 1.288 . S
C537 C538 1.392 . S
C538 H508 0.951 . S
C538 C537 1.392 . S
C538 C539 1.392 . S
C539 H509 0.949 . S
C539 C534 1.382 . S
C539 C538 1.392 . S
H540 C559 0.949 . S
H541 C560 0.950 . S
H542 C562 0.950 . S
H543 C563 0.950 . S
H544 C565 0.950 . S
H545 C568 0.950 . S
H546 C569 0.950 . S
H547 C571 0.951 . S
H548 C572 0.949 . S
H549 C574 0.949 . S
H550 C575 0.950 . S
H551 C577 0.950 . S
H552 C578 0.950 . S
H553 C580 0.950 . S
H554 C583 0.950 . S
H555 C584 0.950 . S
H556 C586 0.951 . S
H557 C587 0.949 . S
C558 C559 1.376 . S
C558 C563 1.386 . S
C558 C564 1.483 . S
C559 H540 0.949 . S
C559 C558 1.376 . S
C559 C560 1.397 . S
C560 H541 0.950 . S
C560 C559 1.397 . S
C560 C561 1.391 . S
C561 C560 1.391 . S
C561 C562 1.405 . S
C562 H542 0.950 . S
C562 C561 1.405 . S
C562 C563 1.367 . S
C563 H543 0.950 . S
C563 C558 1.386 . S
C563 C562 1.367 . S
C564 C558 1.483 . S
C564 C565 1.382 . S
C564 C566 1.403 . S
C565 H544 0.950 . S
C565 C564 1.382 . S
C565 C581 1.411 . S
C566 C564 1.403 . S
C566 C567 1.489 . S
C566 C580 1.411 . S
C567 C566 1.489 . S
C567 C568 1.383 . S
C567 C572 1.382 . S
C568 H545 0.950 . S
C568 C567 1.383 . S
C568 C569 1.395 . S
C569 H546 0.950 . S
C569 C568 1.395 . S
C569 C570 1.288 . S
C570 C569 1.288 . S
C570 C571 1.392 . S
C571 H547 0.951 . S
C571 C570 1.392 . S
C571 C572 1.392 . S
C572 H548 0.949 . S
C572 C567 1.382 . S
C572 C571 1.392 . S
C573 C574 1.376 . S
C573 C578 1.386 . S
C573 C579 1.483 . S
C574 H549 0.949 . S
C574 C573 1.376 . S
C574 C575 1.397 . S
C575 H550 0.950 . S
C575 C574 1.397 . S
C575 C576 1.391 . S
C576 C575 1.391 . S
C576 C577 1.405 . S
C577 H551 0.950 . S
C577 C576 1.405 . S
C577 C578 1.367 . S
C578 H552 0.950 . S
C578 C573 1.386 . S
C578 C577 1.367 . S
C579 C573 1.483 . S
C579 C580 1.382 . S
C579 C581 1.403 . S
C580 H553 0.950 . S
C580 C566 1.411 . S
C580 C579 1.382 . S
C581 C565 1.411 . S
C581 C579 1.403 . S
C581 C582 1.489 . S
C582 C581 1.489 . S
C582 C583 1.383 . S
C582 C587 1.382 . S
C583 H554 0.950 . S
C583 C582 1.383 . S
C583 C584 1.395 . S
C584 H555 0.950 . S
C584 C583 1.395 . S
C584 C585 1.288 . S
C585 C584 1.288 . S
C585 C586 1.392 . S
C586 H556 0.951 . S
C586 C585 1.392 . S
C586 C587 1.392 . S
C587 H557 0.949 . S
C587 C582 1.382 . S
C587 C586 1.392 . S
H588 C607 0.949 . S
H589 C608 0.950 . S
H590 C610 0.950 . S
H591 C611 0.950 . S
H592 C613 0.950 . S
H593 C616 0.950 . S
H594 C617 0.950 . S
H595 C619 0.951 . S
H596 C620 0.949 . S
H597 C622 0.949 . S
H598 C623 0.950 . S
H599 C625 0.950 . S
H600 C626 0.950 . S
H601 C628 0.950 . S
H602 C631 0.950 . S
H603 C632 0.950 . S
H604 C634 0.951 . S
H605 C635 0.949 . S
C606 C607 1.376 . S
C606 C611 1.386 . S
C606 C612 1.483 . S
C607 H588 0.949 . S
C607 C606 1.376 . S
C607 C608 1.397 . S
C608 H589 0.950 . S
C608 C607 1.397 . S
C608 C609 1.391 . S
C609 C608 1.391 . S
C609 C610 1.405 . S
C610 H590 0.950 . S
C610 C609 1.405 . S
C610 C611 1.367 . S
C611 H591 0.950 . S
C611 C606 1.386 . S
C611 C610 1.367 . S
C612 C606 1.483 . S
C612 C613 1.382 . S
C612 C614 1.403 . S
C613 H592 0.950 . S
C613 C612 1.382 . S
C613 C629 1.411 . S
C614 C612 1.403 . S
C614 C615 1.489 . S
C614 C628 1.411 . S
C615 C614 1.489 . S
C615 C616 1.383 . S
C615 C620 1.382 . S
C616 H593 0.950 . S
C616 C615 1.383 . S
C616 C617 1.395 . S
C617 H594 0.950 . S
C617 C616 1.395 . S
C617 C618 1.288 . S
C618 C617 1.288 . S
C618 C619 1.392 . S
C619 H595 0.951 . S
C619 C618 1.392 . S
C619 C620 1.392 . S
C620 H596 0.949 . S
C620 C615 1.382 . S
C620 C619 1.392 . S
C621 C622 1.376 . S
C621 C626 1.386 . S
C621 C627 1.483 . S
C622 H597 0.949 . S
C622 C621 1.376 . S
C622 C623 1.397 . S
C623 H598 0.950 . S
C623 C622 1.397 . S
C623 C624 1.391 . S
C624 C623 1.391 . S
C624 C625 1.405 . S
C625 H599 0.950 . S
C625 C624 1.405 . S
C625 C626 1.367 . S
C626 H600 0.950 . S
C626 C621 1.386 . S
C626 C625 1.367 . S
C627 C621 1.483 . S
C627 C628 1.382 . S
C627 C629 1.403 . S
C628 H601 0.950 . S
C628 C614 1.411 . S
C628 C627 1.382 . S
C629 C613 1.411 . S
C629 C627 1.403 . S
C629 C630 1.489 . S
C630 C629 1.489 . S
C630 C631 1.383 . S
C630 C635 1.382 . S
C631 H602 0.950 . S
C631 C630 1.383 . S
C631 C632 1.395 . S
C632 H603 0.950 . S
C632 C631 1.395 . S
C632 C633 1.288 . S
C633 C632 1.288 . S
C633 C634 1.392 . S
C634 H604 0.951 . S
C634 C633 1.392 . S
C634 C635 1.392 . S
C635 H605 0.949 . S
C635 C630 1.382 . S
C635 C634 1.392 . S
H636 C655 0.949 . S
H637 C656 0.950 . S
H638 C658 0.950 . S
H639 C659 0.950 . S
H640 C661 0.950 . S
H641 C664 0.950 . S
H642 C665 0.950 . S
H643 C667 0.951 . S
H644 C668 0.949 . S
H645 C670 0.949 . S
H646 C671 0.950 . S
H647 C673 0.950 . S
H648 C674 0.950 . S
H649 C676 0.950 . S
H650 C679 0.950 . S
H651 C680 0.950 . S
H652 C682 0.951 . S
H653 C683 0.949 . S
C654 C655 1.376 . S
C654 C659 1.386 . S
C654 C660 1.483 . S
C655 H636 0.949 . S
C655 C654 1.376 . S
C655 C656 1.397 . S
C656 H637 0.950 . S
C656 C655 1.397 . S
C656 C657 1.391 . S
C657 C656 1.391 . S
C657 C658 1.405 . S
C658 H638 0.950 . S
C658 C657 1.405 . S
C658 C659 1.367 . S
C659 H639 0.950 . S
C659 C654 1.386 . S
C659 C658 1.367 . S
C660 C654 1.483 . S
C660 C661 1.382 . S
C660 C662 1.403 . S
C661 H640 0.950 . S
C661 C660 1.382 . S
C661 C677 1.411 . S
C662 C660 1.403 . S
C662 C663 1.489 . S
C662 C676 1.411 . S
C663 C662 1.489 . S
C663 C664 1.383 . S
C663 C668 1.382 . S
C664 H641 0.950 . S
C664 C663 1.383 . S
C664 C665 1.395 . S
C665 H642 0.950 . S
C665 C664 1.395 . S
C665 C666 1.288 . S
C666 C665 1.288 . S
C666 C667 1.392 . S
C667 H643 0.951 . S
C667 C666 1.392 . S
C667 C668 1.392 . S
C668 H644 0.949 . S
C668 C663 1.382 . S
C668 C667 1.392 . S
C669 C670 1.376 . S
C669 C674 1.386 . S
C669 C675 1.483 . S
C670 H645 0.949 . S
C670 C669 1.376 . S
C670 C671 1.397 . S
C671 H646 0.950 . S
C671 C670 1.397 . S
C671 C672 1.391 . S
C672 C671 1.391 . S
C672 C673 1.405 . S
C673 H647 0.950 . S
C673 C672 1.405 . S
C673 C674 1.367 . S
C674 H648 0.950 . S
C674 C669 1.386 . S
C674 C673 1.367 . S
C675 C669 1.483 . S
C675 C676 1.382 . S
C675 C677 1.403 . S
C676 H649 0.950 . S
C676 C662 1.411 . S
C676 C675 1.382 . S
C677 C661 1.411 . S
C677 C675 1.403 . S
C677 C678 1.489 . S
C678 C677 1.489 . S
C678 C679 1.383 . S
C678 C683 1.382 . S
C679 H650 0.950 . S
C679 C678 1.383 . S
C679 C680 1.395 . S
C680 H651 0.950 . S
C680 C679 1.395 . S
C680 C681 1.288 . S
C681 C680 1.288 . S
C681 C682 1.392 . S
C682 H652 0.951 . S
C682 C681 1.392 . S
C682 C683 1.392 . S
C683 H653 0.949 . S
C683 C678 1.382 . S
C683 C682 1.392 . S
H684 C703 0.949 . S
H685 C704 0.950 . S
H686 C706 0.950 . S
H687 C707 0.950 . S
H688 C709 0.950 . S
H689 C712 0.950 . S
H690 C713 0.950 . S
H691 C715 0.951 . S
H692 C716 0.949 . S
H693 C718 0.949 . S
H694 C719 0.950 . S
H695 C721 0.950 . S
H696 C722 0.950 . S
H697 C724 0.950 . S
H698 C727 0.950 . S
H699 C728 0.950 . S
H700 C730 0.951 . S
H701 C731 0.949 . S
C702 C703 1.376 . S
C702 C707 1.386 1_655 S
C702 C708 1.483 . S
C703 H684 0.949 . S
C703 C702 1.376 . S
C703 C704 1.397 . S
C704 H685 0.950 . S
C704 C703 1.397 . S
C704 C705 1.391 . S
C705 C704 1.391 . S
C705 C706 1.405 1_655 S
C706 H686 0.950 . S
C706 C705 1.405 1_455 S
C706 C707 1.367 . S
C707 H687 0.950 . S
C707 C702 1.386 1_455 S
C707 C706 1.367 . S
C708 C702 1.483 . S
C708 C709 1.382 . S
C708 C710 1.403 1_655 S
C709 H688 0.950 . S
C709 C708 1.382 . S
C709 C725 1.411 . S
C710 C708 1.403 1_455 S
C710 C711 1.489 . S
C710 C724 1.411 . S
C711 C710 1.489 . S
C711 C712 1.383 1_455 S
C711 C716 1.382 . S
C712 H689 0.950 . S
C712 C711 1.383 1_655 S
C712 C713 1.395 . S
C713 H690 0.950 . S
C713 C712 1.395 . S
C713 C714 1.288 1_655 S
C714 C713 1.288 1_455 S
C714 C715 1.392 . S
C715 H691 0.951 . S
C715 C714 1.392 . S
C715 C716 1.392 . S
C716 H692 0.949 . S
C716 C711 1.382 . S
C716 C715 1.392 . S
C717 C718 1.376 . S
C717 C722 1.386 1_455 S
C717 C723 1.483 . S
C718 H693 0.949 . S
C718 C717 1.376 . S
C718 C719 1.397 . S
C719 H694 0.950 . S
C719 C718 1.397 . S
C719 C720 1.391 . S
C720 C719 1.391 . S
C720 C721 1.405 1_455 S
C721 H695 0.950 . S
C721 C720 1.405 1_655 S
C721 C722 1.367 . S
C722 H696 0.950 . S
C722 C717 1.386 1_655 S
C722 C721 1.367 . S
C723 C717 1.483 . S
C723 C724 1.382 . S
C723 C725 1.403 1_455 S
C724 H697 0.950 . S
C724 C710 1.411 . S
C724 C723 1.382 . S
C725 C709 1.411 . S
C725 C723 1.403 1_655 S
C725 C726 1.489 . S
C726 C725 1.489 . S
C726 C727 1.383 1_655 S
C726 C731 1.382 . S
C727 H698 0.950 . S
C727 C726 1.383 1_455 S
C727 C728 1.395 . S
C728 H699 0.950 . S
C728 C727 1.395 . S
C728 C729 1.288 1_455 S
C729 C728 1.288 1_655 S
C729 C730 1.392 . S
C730 H700 0.951 . S
C730 C729 1.392 . S
C730 C731 1.392 . S
C731 H701 0.949 . S
C731 C726 1.382 . S
C731 C730 1.392 . S
H732 C751 0.949 . S
H733 C752 0.950 . S
H734 C754 0.950 . S
H735 C755 0.950 . S
H736 C757 0.950 . S
H737 C760 0.950 . S
H738 C761 0.950 . S
H739 C763 0.951 . S
H740 C764 0.949 . S
H741 C766 0.949 . S
H742 C767 0.950 . S
H743 C769 0.950 . S
H744 C770 0.950 . S
H745 C772 0.950 . S
H746 C775 0.950 . S
H747 C776 0.950 . S
H748 C778 0.951 . S
H749 C779 0.949 . S
C750 C751 1.376 . S
C750 C755 1.386 . S
C750 C756 1.483 . S
C751 H732 0.949 . S
C751 C750 1.376 . S
C751 C752 1.397 . S
C752 H733 0.950 . S
C752 C751 1.397 . S
C752 C753 1.391 . S
C753 C752 1.391 . S
C753 C754 1.405 . S
C754 H734 0.950 . S
C754 C753 1.405 . S
C754 C755 1.367 . S
C755 H735 0.950 . S
C755 C750 1.386 . S
C755 C754 1.367 . S
C756 C750 1.483 . S
C756 C757 1.382 . S
C756 C758 1.403 . S
C757 H736 0.950 . S
C757 C756 1.382 . S
C757 C773 1.411 . S
C758 C756 1.403 . S
C758 C759 1.489 . S
C758 C772 1.411 . S
C759 C758 1.489 . S
C759 C760 1.383 . S
C759 C764 1.382 . S
C760 H737 0.950 . S
C760 C759 1.383 . S
C760 C761 1.395 . S
C761 H738 0.950 . S
C761 C760 1.395 . S
C761 C762 1.288 . S
C762 C761 1.288 . S
C762 C763 1.392 . S
C763 H739 0.951 . S
C763 C762 1.392 . S
C763 C764 1.392 . S
C764 H740 0.949 . S
C764 C759 1.382 . S
C764 C763 1.392 . S
C765 C766 1.376 . S
C765 C770 1.386 . S
C765 C771 1.483 . S
C766 H741 0.949 . S
C766 C765 1.376 . S
C766 C767 1.397 . S
C767 H742 0.950 . S
C767 C766 1.397 . S
C767 C768 1.391 . S
C768 C767 1.391 . S
C768 C769 1.405 . S
C769 H743 0.950 . S
C769 C768 1.405 . S
C769 C770 1.367 . S
C770 H744 0.950 . S
C770 C765 1.386 . S
C770 C769 1.367 . S
C771 C765 1.483 . S
C771 C772 1.382 . S
C771 C773 1.403 . S
C772 H745 0.950 . S
C772 C758 1.411 . S
C772 C771 1.382 . S
C773 C757 1.411 . S
C773 C771 1.403 . S
C773 C774 1.489 . S
C774 C773 1.489 . S
C774 C775 1.383 . S
C774 C779 1.382 . S
C775 H746 0.950 . S
C775 C774 1.383 . S
C775 C776 1.395 . S
C776 H747 0.950 . S
C776 C775 1.395 . S
C776 C777 1.288 . S
C777 C776 1.288 . S
C777 C778 1.392 . S
C778 H748 0.951 . S
C778 C777 1.392 . S
C778 C779 1.392 . S
C779 H749 0.949 . S
C779 C774 1.382 . S
C779 C778 1.392 . S
H780 C799 0.949 . S
H781 C800 0.950 . S
H782 C802 0.950 . S
H783 C803 0.950 . S
H784 C805 0.950 . S
H785 C808 0.950 . S
H786 C809 0.950 . S
H787 C811 0.951 . S
H788 C812 0.949 . S
H789 C814 0.949 . S
H790 C815 0.950 . S
H791 C817 0.950 . S
H792 C818 0.950 . S
H793 C820 0.950 . S
H794 C823 0.950 . S
H795 C824 0.950 . S
H796 C826 0.951 . S
H797 C827 0.949 . S
C798 C799 1.376 . S
C798 C803 1.386 1_545 S
C798 C804 1.483 . S
C799 H780 0.949 . S
C799 C798 1.376 . S
C799 C800 1.397 . S
C800 H781 0.950 . S
C800 C799 1.397 . S
C800 C801 1.391 . S
C801 C800 1.391 . S
C801 C802 1.405 1_545 S
C802 H782 0.950 . S
C802 C801 1.405 1_565 S
C802 C803 1.367 . S
C803 H783 0.950 . S
C803 C798 1.386 1_565 S
C803 C802 1.367 . S
C804 C798 1.483 . S
C804 C805 1.382 . S
C804 C806 1.403 1_545 S
C805 H784 0.950 . S
C805 C804 1.382 . S
C805 C821 1.411 . S
C806 C804 1.403 1_565 S
C806 C807 1.489 . S
C806 C820 1.411 . S
C807 C806 1.489 . S
C807 C808 1.383 1_565 S
C807 C812 1.382 . S
C808 H785 0.950 . S
C808 C807 1.383 1_545 S
C808 C809 1.395 . S
C809 H786 0.950 . S
C809 C808 1.395 . S
C809 C810 1.288 1_545 S
C810 C809 1.288 1_565 S
C810 C811 1.392 . S
C811 H787 0.951 . S
C811 C810 1.392 . S
C811 C812 1.392 . S
C812 H788 0.949 . S
C812 C807 1.382 . S
C812 C811 1.392 . S
C813 C814 1.376 . S
C813 C818 1.386 1_565 S
C813 C819 1.483 . S
C814 H789 0.949 . S
C814 C813 1.376 . S
C814 C815 1.397 . S
C815 H790 0.950 . S
C815 C814 1.397 . S
C815 C816 1.391 . S
C816 C815 1.391 . S
C816 C817 1.405 1_565 S
C817 H791 0.950 . S
C817 C816 1.405 1_545 S
C817 C818 1.367 . S
C818 H792 0.950 . S
C818 C813 1.386 1_545 S
C818 C817 1.367 . S
C819 C813 1.483 . S
C819 C820 1.382 . S
C819 C821 1.403 1_565 S
C820 H793 0.950 . S
C820 C806 1.411 . S
C820 C819 1.382 . S
C821 C805 1.411 . S
C821 C819 1.403 1_545 S
C821 C822 1.489 . S
C822 C821 1.489 . S
C822 C823 1.383 1_545 S
C822 C827 1.382 . S
C823 H794 0.950 . S
C823 C822 1.383 1_565 S
C823 C824 1.395 . S
C824 H795 0.950 . S
C824 C823 1.395 . S
C824 C825 1.288 1_565 S
C825 C824 1.288 1_545 S
C825 C826 1.392 . S
C826 H796 0.951 . S
C826 C825 1.392 . S
C826 C827 1.392 . S
C827 H797 0.949 . S
C827 C822 1.382 . S
C827 C826 1.392 . S
H828 C847 0.949 . S
H829 C848 0.950 . S
H830 C850 0.950 . S
H831 C851 0.950 . S
H832 C853 0.950 . S
H833 C856 0.950 . S
H834 C857 0.950 . S
H835 C859 0.951 . S
H836 C860 0.949 . S
H837 C862 0.949 . S
H838 C863 0.950 . S
H839 C865 0.950 . S
H840 C866 0.950 . S
H841 C868 0.950 . S
H842 C871 0.950 . S
H843 C872 0.950 . S
H844 C874 0.951 . S
H845 C875 0.949 . S
C846 C847 1.398 . S
C846 C851 1.376 1_545 S
C846 C852 1.500 . S
C847 H828 0.949 . S
C847 C846 1.398 . S
C847 C848 1.397 . S
C848 H829 0.950 . S
C848 C847 1.397 . S
C848 C849 1.391 1_545 S
C849 C848 1.391 1_565 S
C849 C850 1.405 . S
C850 H830 0.950 . S
C850 C849 1.405 . S
C850 C851 1.367 . S
C851 H831 0.950 . S
C851 C846 1.376 1_565 S
C851 C850 1.367 . S
C852 C846 1.500 . S
C852 C853 1.353 . S
C852 C854 1.400 1_545 S
C853 H832 0.950 . S
C853 C852 1.353 . S
C853 C869 1.442 . S
C854 C852 1.400 1_565 S
C854 C855 1.481 . S
C854 C868 1.431 . S
C855 C854 1.481 . S
C855 C856 1.363 1_565 S
C855 C860 1.392 . S
C856 H833 0.950 . S
C856 C855 1.363 1_545 S
C856 C857 1.395 . S
C857 H834 0.950 . S
C857 C856 1.395 . S
C857 C858 1.288 . S
C858 C857 1.288 . S
C858 C859 1.392 1_545 S
C859 H835 0.951 . S
C859 C858 1.392 1_565 S
C859 C860 1.392 . S
C860 H836 0.949 . S
C860 C855 1.392 . S
C860 C859 1.392 . S
C861 C862 1.382 . S
C861 C866 1.383 1_565 S
C861 C867 1.500 . S
C862 H837 0.949 . S
C862 C861 1.382 . S
C862 C863 1.397 . S
C863 H838 0.950 . S
C863 C862 1.397 . S
C863 C864 1.391 1_565 S
C864 C863 1.391 1_545 S
C864 C865 1.405 . S
C865 H839 0.950 . S
C865 C864 1.405 . S
C865 C866 1.367 . S
C866 H840 0.950 . S
C866 C861 1.383 1_545 S
C866 C865 1.367 . S
C867 C861 1.500 . S
C867 C868 1.361 . S
C867 C869 1.400 1_565 S
C868 H841 0.950 . S
C868 C854 1.431 . S
C868 C867 1.361 . S
C869 C853 1.442 . S
C869 C867 1.400 1_545 S
C869 C870 1.481 . S
C870 C869 1.481 . S
C870 C871 1.342 1_545 S
C870 C875 1.403 . S
C871 H842 0.950 . S
C871 C870 1.342 1_565 S
C871 C872 1.395 . S
C872 H843 0.950 . S
C872 C871 1.395 . S
C872 C873 1.288 . S
C873 C872 1.288 . S
C873 C874 1.392 1_565 S
C874 H844 0.951 . S
C874 C873 1.392 1_545 S
C874 C875 1.392 . S
C875 H845 0.949 . S
C875 C870 1.403 . S
C875 C874 1.392 . S
H876 C895 0.949 . S
H877 C896 0.950 . S
H878 C898 0.950 . S
H879 C899 0.950 . S
H880 C901 0.950 . S
H881 C904 0.950 . S
H882 C905 0.950 . S
H883 C907 0.951 . S
H884 C908 0.949 . S
H885 C910 0.949 . S
H886 C911 0.950 . S
H887 C913 0.950 . S
H888 C914 0.950 . S
H889 C916 0.950 . S
H890 C919 0.950 . S
H891 C920 0.950 . S
H892 C922 0.951 . S
H893 C923 0.949 . S
C894 C895 1.376 . S
C894 C899 1.386 1_455 S
C894 C900 1.483 . S
C895 H876 0.949 . S
C895 C894 1.376 . S
C895 C896 1.397 . S
C896 H877 0.950 . S
C896 C895 1.397 . S
C896 C897 1.391 . S
C897 C896 1.391 . S
C897 C898 1.405 1_455 S
C898 H878 0.950 . S
C898 C897 1.405 1_655 S
C898 C899 1.367 . S
C899 H879 0.950 . S
C899 C894 1.386 1_655 S
C899 C898 1.367 . S
C900 C894 1.483 . S
C900 C901 1.382 . S
C900 C902 1.403 1_455 S
C901 H880 0.950 . S
C901 C900 1.382 . S
C901 C917 1.411 . S
C902 C900 1.403 1_655 S
C902 C903 1.489 . S
C902 C916 1.411 . S
C903 C902 1.489 . S
C903 C904 1.383 1_655 S
C903 C908 1.382 . S
C904 H881 0.950 . S
C904 C903 1.383 1_455 S
C904 C905 1.395 . S
C905 H882 0.950 . S
C905 C904 1.395 . S
C905 C906 1.288 1_455 S
C906 C905 1.288 1_655 S
C906 C907 1.392 . S
C907 H883 0.951 . S
C907 C906 1.392 . S
C907 C908 1.392 . S
C908 H884 0.949 . S
C908 C903 1.382 . S
C908 C907 1.392 . S
C909 C910 1.376 . S
C909 C914 1.386 1_655 S
C909 C915 1.483 . S
C910 H885 0.949 . S
C910 C909 1.376 . S
C910 C911 1.397 . S
C911 H886 0.950 . S
C911 C910 1.397 . S
C911 C912 1.391 . S
C912 C911 1.391 . S
C912 C913 1.405 1_655 S
C913 H887 0.950 . S
C913 C912 1.405 1_455 S
C913 C914 1.367 . S
C914 H888 0.950 . S
C914 C909 1.386 1_455 S
C914 C913 1.367 . S
C915 C909 1.483 . S
C915 C916 1.382 . S
C915 C917 1.403 1_655 S
C916 H889 0.950 . S
C916 C902 1.411 . S
C916 C915 1.382 . S
C917 C901 1.411 . S
C917 C915 1.403 1_455 S
C917 C918 1.489 . S
C918 C917 1.489 . S
C918 C919 1.383 1_455 S
C918 C923 1.382 . S
C919 H890 0.950 . S
C919 C918 1.383 1_655 S
C919 C920 1.395 . S
C920 H891 0.950 . S
C920 C919 1.395 . S
C920 C921 1.288 1_655 S
C921 C920 1.288 1_455 S
C921 C922 1.392 . S
C922 H892 0.951 . S
C922 C921 1.392 . S
C922 C923 1.392 . S
C923 H893 0.949 . S
C923 C918 1.382 . S
C923 C922 1.392 . S
H924 C943 0.949 . S
H925 C944 0.950 . S
H926 C946 0.950 . S
H927 C947 0.950 . S
H928 C949 0.950 . S
H929 C952 0.950 . S
H930 C953 0.950 . S
H931 C955 0.951 . S
H932 C956 0.949 . S
H933 C958 0.949 . S
H934 C959 0.950 . S
H935 C961 0.950 . S
H936 C962 0.950 . S
H937 C964 0.950 . S
H938 C967 0.950 . S
H939 C968 0.950 . S
H940 C970 0.951 . S
H941 C971 0.949 . S
C942 C943 1.376 . S
C942 C947 1.386 . S
C942 C948 1.483 . S
C943 H924 0.949 . S
C943 C942 1.376 . S
C943 C944 1.397 . S
C944 H925 0.950 . S
C944 C943 1.397 . S
C944 C945 1.391 . S
C945 C944 1.391 . S
C945 C946 1.405 . S
C946 H926 0.950 . S
C946 C945 1.405 . S
C946 C947 1.367 . S
C947 H927 0.950 . S
C947 C942 1.386 . S
C947 C946 1.367 . S
C948 C942 1.483 . S
C948 C949 1.382 . S
C948 C950 1.403 . S
C949 H928 0.950 . S
C949 C948 1.382 . S
C949 C965 1.411 . S
C950 C948 1.403 . S
C950 C951 1.489 . S
C950 C964 1.411 . S
C951 C950 1.489 . S
C951 C952 1.383 . S
C951 C956 1.382 . S
C952 H929 0.950 . S
C952 C951 1.383 . S
C952 C953 1.395 . S
C953 H930 0.950 . S
C953 C952 1.395 . S
C953 C954 1.288 . S
C954 C953 1.288 . S
C954 C955 1.392 . S
C955 H931 0.951 . S
C955 C954 1.392 . S
C955 C956 1.392 . S
C956 H932 0.949 . S
C956 C951 1.382 . S
C956 C955 1.392 . S
C957 C958 1.376 . S
C957 C962 1.386 . S
C957 C963 1.483 . S
C958 H933 0.949 . S
C958 C957 1.376 . S
C958 C959 1.397 . S
C959 H934 0.950 . S
C959 C958 1.397 . S
C959 C960 1.391 . S
C960 C959 1.391 . S
C960 C961 1.405 . S
C961 H935 0.950 . S
C961 C960 1.405 . S
C961 C962 1.367 . S
C962 H936 0.950 . S
C962 C957 1.386 . S
C962 C961 1.367 . S
C963 C957 1.483 . S
C963 C964 1.382 . S
C963 C965 1.403 . S
C964 H937 0.950 . S
C964 C950 1.411 . S
C964 C963 1.382 . S
C965 C949 1.411 . S
C965 C963 1.403 . S
C965 C966 1.489 . S
C966 C965 1.489 . S
C966 C967 1.383 . S
C966 C971 1.382 . S
C967 H938 0.950 . S
C967 C966 1.383 . S
C967 C968 1.395 . S
C968 H939 0.950 . S
C968 C967 1.395 . S
C968 C969 1.288 . S
C969 C968 1.288 . S
C969 C970 1.392 . S
C970 H940 0.951 . S
C970 C969 1.392 . S
C970 C971 1.392 . S
C971 H941 0.949 . S
C971 C966 1.382 . S
C971 C970 1.392 . S
H972 C991 0.949 . S
H973 C992 0.950 . S
H974 C994 0.950 . S
H975 C995 0.950 . S
H976 C997 0.950 . S
H977 C1000 0.950 . S
H978 C1001 0.950 . S
H979 C1003 0.951 . S
H980 C1004 0.949 . S
H981 C1006 0.949 . S
H982 C1007 0.950 . S
H983 C1009 0.950 . S
H984 C1010 0.950 . S
H985 C1012 0.950 . S
H986 C1015 0.950 . S
H987 C1016 0.950 . S
H988 C1018 0.951 . S
H989 C1019 0.949 . S
C990 C991 1.376 . S
C990 C995 1.386 . S
C990 C996 1.483 . S
C991 H972 0.949 . S
C991 C990 1.376 . S
C991 C992 1.397 . S
C992 H973 0.950 . S
C992 C991 1.397 . S
C992 C993 1.391 . S
C993 C992 1.391 . S
C993 C994 1.405 . S
C994 H974 0.950 . S
C994 C993 1.405 . S
C994 C995 1.367 . S
C995 H975 0.950 . S
C995 C990 1.386 . S
C995 C994 1.367 . S
C996 C990 1.483 . S
C996 C997 1.382 . S
C996 C998 1.403 . S
C997 H976 0.950 . S
C997 C996 1.382 . S
C997 C1013 1.411 . S
C998 C996 1.403 . S
C998 C999 1.489 . S
C998 C1012 1.411 . S
C999 C998 1.489 . S
C999 C1000 1.383 . S
C999 C1004 1.382 . S
C1000 H977 0.950 . S
C1000 C999 1.383 . S
C1000 C1001 1.395 . S
C1001 H978 0.950 . S
C1001 C1000 1.395 . S
C1001 C1002 1.288 . S
C1002 C1001 1.288 . S
C1002 C1003 1.392 . S
C1003 H979 0.951 . S
C1003 C1002 1.392 . S
C1003 C1004 1.392 . S
C1004 H980 0.949 . S
C1004 C999 1.382 . S
C1004 C1003 1.392 . S
C1005 C1006 1.376 . S
C1005 C1010 1.386 . S
C1005 C1011 1.483 . S
C1006 H981 0.949 . S
C1006 C1005 1.376 . S
C1006 C1007 1.397 . S
C1007 H982 0.950 . S
C1007 C1006 1.397 . S
C1007 C1008 1.391 . S
C1008 C1007 1.391 . S
C1008 C1009 1.405 . S
C1009 H983 0.950 . S
C1009 C1008 1.405 . S
C1009 C1010 1.367 . S
C1010 H984 0.950 . S
C1010 C1005 1.386 . S
C1010 C1009 1.367 . S
C1011 C1005 1.483 . S
C1011 C1012 1.382 . S
C1011 C1013 1.403 . S
C1012 H985 0.950 . S
C1012 C998 1.411 . S
C1012 C1011 1.382 . S
C1013 C997 1.411 . S
C1013 C1011 1.403 . S
C1013 C1014 1.489 . S
C1014 C1013 1.489 . S
C1014 C1015 1.383 . S
C1014 C1019 1.382 . S
C1015 H986 0.950 . S
C1015 C1014 1.383 . S
C1015 C1016 1.395 . S
C1016 H987 0.950 . S
C1016 C1015 1.395 . S
C1016 C1017 1.288 . S
C1017 C1016 1.288 . S
C1017 C1018 1.392 . S
C1018 H988 0.951 . S
C1018 C1017 1.392 . S
C1018 C1019 1.392 . S
C1019 H989 0.949 . S
C1019 C1014 1.382 . S
C1019 C1018 1.392 . S
H1020 C1039 0.949 . S
H1021 C1040 0.950 . S
H1022 C1042 0.950 . S
H1023 C1043 0.950 . S
H1024 C1045 0.950 . S
H1025 C1048 0.950 . S
H1026 C1049 0.950 . S
H1027 C1051 0.951 . S
H1028 C1052 0.949 . S
H1029 C1054 0.949 . S
H1030 C1055 0.950 . S
H1031 C1057 0.950 . S
H1032 C1058 0.950 . S
H1033 C1060 0.950 . S
H1034 C1063 0.950 . S
H1035 C1064 0.950 . S
H1036 C1066 0.951 . S
H1037 C1067 0.949 . S
C1038 C1039 1.376 . S
C1038 C1043 1.386 . S
C1038 C1044 1.483 . S
C1039 H1020 0.949 . S
C1039 C1038 1.376 . S
C1039 C1040 1.397 . S
C1040 H1021 0.950 . S
C1040 C1039 1.397 . S
C1040 C1041 1.391 . S
C1041 C1040 1.391 . S
C1041 C1042 1.405 . S
C1042 H1022 0.950 . S
C1042 C1041 1.405 . S
C1042 C1043 1.367 . S
C1043 H1023 0.950 . S
C1043 C1038 1.386 . S
C1043 C1042 1.367 . S
C1044 C1038 1.483 . S
C1044 C1045 1.382 . S
C1044 C1046 1.403 . S
C1045 H1024 0.950 . S
C1045 C1044 1.382 . S
C1045 C1061 1.411 . S
C1046 C1044 1.403 . S
C1046 C1047 1.489 . S
C1046 C1060 1.411 . S
C1047 C1046 1.489 . S
C1047 C1048 1.383 . S
C1047 C1052 1.382 . S
C1048 H1025 0.950 . S
C1048 C1047 1.383 . S
C1048 C1049 1.395 . S
C1049 H1026 0.950 . S
C1049 C1048 1.395 . S
C1049 C1050 1.288 . S
C1050 C1049 1.288 . S
C1050 C1051 1.392 . S
C1051 H1027 0.951 . S
C1051 C1050 1.392 . S
C1051 C1052 1.392 . S
C1052 H1028 0.949 . S
C1052 C1047 1.382 . S
C1052 C1051 1.392 . S
C1053 C1054 1.376 . S
C1053 C1058 1.386 . S
C1053 C1059 1.483 . S
C1054 H1029 0.949 . S
C1054 C1053 1.376 . S
C1054 C1055 1.397 . S
C1055 H1030 0.950 . S
C1055 C1054 1.397 . S
C1055 C1056 1.391 . S
C1056 C1055 1.391 . S
C1056 C1057 1.405 . S
C1057 H1031 0.950 . S
C1057 C1056 1.405 . S
C1057 C1058 1.367 . S
C1058 H1032 0.950 . S
C1058 C1053 1.386 . S
C1058 C1057 1.367 . S
C1059 C1053 1.483 . S
C1059 C1060 1.382 . S
C1059 C1061 1.403 . S
C1060 H1033 0.950 . S
C1060 C1046 1.411 . S
C1060 C1059 1.382 . S
C1061 C1045 1.411 . S
C1061 C1059 1.403 . S
C1061 C1062 1.489 . S
C1062 C1061 1.489 . S
C1062 C1063 1.383 . S
C1062 C1067 1.382 . S
C1063 H1034 0.950 . S
C1063 C1062 1.383 . S
C1063 C1064 1.395 . S
C1064 H1035 0.950 . S
C1064 C1063 1.395 . S
C1064 C1065 1.288 . S
C1065 C1064 1.288 . S
C1065 C1066 1.392 . S
C1066 H1036 0.951 . S
C1066 C1065 1.392 . S
C1066 C1067 1.392 . S
C1067 H1037 0.949 . S
C1067 C1062 1.382 . S
C1067 C1066 1.392 . S
H1068 C1087 0.949 . S
H1069 C1088 0.950 . S
H1070 C1090 0.950 . S
H1071 C1091 0.950 . S
H1072 C1093 0.950 . S
H1073 C1096 0.950 . S
H1074 C1097 0.950 . S
H1075 C1099 0.951 . S
H1076 C1100 0.949 . S
H1077 C1102 0.949 . S
H1078 C1103 0.950 . S
H1079 C1105 0.950 . S
H1080 C1106 0.950 . S
H1081 C1108 0.950 . S
H1082 C1111 0.950 . S
H1083 C1112 0.950 . S
H1084 C1114 0.951 . S
H1085 C1115 0.949 . S
C1086 C1087 1.376 . S
C1086 C1091 1.386 . S
C1086 C1092 1.483 . S
C1087 H1068 0.949 . S
C1087 C1086 1.376 . S
C1087 C1088 1.397 . S
C1088 H1069 0.950 . S
C1088 C1087 1.397 . S
C1088 C1089 1.391 . S
C1089 C1088 1.391 . S
C1089 C1090 1.405 . S
C1090 H1070 0.950 . S
C1090 C1089 1.405 . S
C1090 C1091 1.367 . S
C1091 H1071 0.950 . S
C1091 C1086 1.386 . S
C1091 C1090 1.367 . S
C1092 C1086 1.483 . S
C1092 C1093 1.382 . S
C1092 C1094 1.403 . S
C1093 H1072 0.950 . S
C1093 C1092 1.382 . S
C1093 C1109 1.411 . S
C1094 C1092 1.403 . S
C1094 C1095 1.489 . S
C1094 C1108 1.411 . S
C1095 C1094 1.489 . S
C1095 C1096 1.383 . S
C1095 C1100 1.382 . S
C1096 H1073 0.950 . S
C1096 C1095 1.383 . S
C1096 C1097 1.395 . S
C1097 H1074 0.950 . S
C1097 C1096 1.395 . S
C1097 C1098 1.288 . S
C1098 C1097 1.288 . S
C1098 C1099 1.392 . S
C1099 H1075 0.951 . S
C1099 C1098 1.392 . S
C1099 C1100 1.392 . S
C1100 H1076 0.949 . S
C1100 C1095 1.382 . S
C1100 C1099 1.392 . S
C1101 C1102 1.376 . S
C1101 C1106 1.386 . S
C1101 C1107 1.483 . S
C1102 H1077 0.949 . S
C1102 C1101 1.376 . S
C1102 C1103 1.397 . S
C1103 H1078 0.950 . S
C1103 C1102 1.397 . S
C1103 C1104 1.391 . S
C1104 C1103 1.391 . S
C1104 C1105 1.405 . S
C1105 H1079 0.950 . S
C1105 C1104 1.405 . S
C1105 C1106 1.367 . S
C1106 H1080 0.950 . S
C1106 C1101 1.386 . S
C1106 C1105 1.367 . S
C1107 C1101 1.483 . S
C1107 C1108 1.382 . S
C1107 C1109 1.403 . S
C1108 H1081 0.950 . S
C1108 C1094 1.411 . S
C1108 C1107 1.382 . S
C1109 C1093 1.411 . S
C1109 C1107 1.403 . S
C1109 C1110 1.489 . S
C1110 C1109 1.489 . S
C1110 C1111 1.383 . S
C1110 C1115 1.382 . S
C1111 H1082 0.950 . S
C1111 C1110 1.383 . S
C1111 C1112 1.395 . S
C1112 H1083 0.950 . S
C1112 C1111 1.395 . S
C1112 C1113 1.288 . S
C1113 C1112 1.288 . S
C1113 C1114 1.392 . S
C1114 H1084 0.951 . S
C1114 C1113 1.392 . S
C1114 C1115 1.392 . S
C1115 H1085 0.949 . S
C1115 C1110 1.382 . S
C1115 C1114 1.392 . S
H1116 C1134 0.951 . S
H1117 C1136 0.951 . S
H1118 C1138 0.950 . S
H1119 C1139 0.950 . S
H1120 C1141 0.950 . S
H1121 C1144 1.006 . S
H1122 C1145 0.950 . S
H1123 C1147 0.950 . S
H1124 C1148 0.950 . S
H1125 C1149 0.951 . S
H1126 C1151 0.951 . S
H1127 C1153 0.950 . S
H1128 C1154 0.950 . S
H1129 C1156 0.950 . S
H1130 C1159 0.950 . S
H1131 C1160 0.950 . S
H1132 C1162 0.950 . S
H1133 C1163 0.950 . S
C1134 H1116 0.951 . S
C1134 C1135 1.366 1_455 S
C1134 C1136 1.388 . S
C1135 C1134 1.366 1_655 S
C1135 C1139 1.385 . S
C1136 H1117 0.951 . S
C1136 C1134 1.388 . S
C1136 C1137 1.366 1_455 S
C1137 C1136 1.366 1_655 S
C1137 C1138 1.414 . S
C1137 C1140 1.499 . S
C1138 H1118 0.950 . S
C1138 C1137 1.414 . S
C1138 C1139 1.374 . S
C1139 H1119 0.950 . S
C1139 C1135 1.385 . S
C1139 C1138 1.374 . S
C1140 C1137 1.499 . S
C1140 C1141 1.373 . S
C1140 C1142 1.389 1_655 S
C1141 H1120 0.950 . S
C1141 C1140 1.373 . S
C1141 C1157 1.377 . S
C1142 C1140 1.389 1_455 S
C1142 C1143 1.524 . S
C1142 C1156 1.377 . S
C1143 C1142 1.524 . S
C1143 C1144 1.397 . S
C1143 C1148 1.363 . S
C1144 H1121 1.006 . S
C1144 C1143 1.397 . S
C1144 C1145 1.334 . S
C1145 H1122 0.950 . S
C1145 C1144 1.334 . S
C1145 C1146 1.287 . S
C1146 C1145 1.287 . S
C1146 C1147 1.524 . S
C1146 H1165 0.913 . S
C1147 H1123 0.950 . S
C1147 C1146 1.524 . S
C1147 C1148 1.415 . S
C1148 H1124 0.950 . S
C1148 C1143 1.363 . S
C1148 C1147 1.415 . S
C1149 H1125 0.951 . S
C1149 C1150 1.366 . S
C1149 C1151 1.388 . S
C1150 C1149 1.366 . S
C1150 C1154 1.385 1_655 S
C1151 H1126 0.951 . S
C1151 C1149 1.388 . S
C1151 C1152 1.366 . S
C1152 C1151 1.366 . S
C1152 C1153 1.414 1_655 S
C1152 C1155 1.499 . S
C1153 H1127 0.950 . S
C1153 C1152 1.414 1_455 S
C1153 C1154 1.374 . S
C1154 H1128 0.950 . S
C1154 C1150 1.385 1_455 S
C1154 C1153 1.374 . S
C1155 C1152 1.499 . S
C1155 C1156 1.373 1_655 S
C1155 C1157 1.389 . S
C1156 H1129 0.950 . S
C1156 C1142 1.377 . S
C1156 C1155 1.373 1_455 S
C1157 C1141 1.377 . S
C1157 C1155 1.389 . S
C1157 C1158 1.524 . S
C1158 C1157 1.524 . S
C1158 C1159 1.397 . S
C1158 C1163 1.363 . S
C1159 H1130 0.950 . S
C1159 C1158 1.397 . S
C1159 C1160 1.334 . S
C1160 H1131 0.950 . S
C1160 C1159 1.334 . S
C1160 C1161 1.287 . S
C1161 C1160 1.287 . S
C1161 C1162 1.524 . S
C1161 H1164 0.999 . S
C1162 H1132 0.950 . S
C1162 C1161 1.524 . S
C1162 C1163 1.415 . S
C1163 H1133 0.950 . S
C1163 C1158 1.363 . S
C1163 C1162 1.415 . S
H1164 C1161 0.999 . S
H1165 C1146 0.913 . S
H1166 C1184 0.951 . S
H1167 C1186 0.951 . S
H1168 C1188 0.950 . S
H1169 C1189 0.950 . S
H1170 C1191 0.950 . S
H1171 C1194 0.950 . S
H1172 C1195 0.950 . S
H1173 C1197 0.950 . S
H1174 C1198 0.950 . S
H1175 C1199 0.951 . S
H1176 C1201 0.951 . S
H1177 C1203 0.950 . S
H1178 C1204 0.950 . S
H1179 C1206 0.950 . S
H1180 C1209 0.950 . S
H1181 C1210 0.950 . S
H1182 C1212 0.950 . S
H1183 C1213 0.950 . S
C1184 H1166 0.951 . S
C1184 C1185 1.366 . S
C1184 C1186 1.388 . S
C1185 C1184 1.366 . S
C1185 C1189 1.385 . S
C1186 H1167 0.951 . S
C1186 C1184 1.388 . S
C1186 C1187 1.366 . S
C1187 C1186 1.366 . S
C1187 C1188 1.414 . S
C1187 C1190 1.499 . S
C1188 H1168 0.950 . S
C1188 C1187 1.414 . S
C1188 C1189 1.374 . S
C1189 H1169 0.950 . S
C1189 C1185 1.385 . S
C1189 C1188 1.374 . S
C1190 C1187 1.499 . S
C1190 C1191 1.373 . S
C1190 C1192 1.389 . S
C1191 H1170 0.950 . S
C1191 C1190 1.373 . S
C1191 C1207 1.377 . S
C1192 C1190 1.389 . S
C1192 C1193 1.524 . S
C1192 C1206 1.377 . S
C1193 C1192 1.524 . S
C1193 C1194 1.397 . S
C1193 C1198 1.363 . S
C1194 H1171 0.950 . S
C1194 C1193 1.397 . S
C1194 C1195 1.334 . S
C1195 H1172 0.950 . S
C1195 C1194 1.334 . S
C1195 C1196 1.287 . S
C1196 C1195 1.287 . S
C1196 C1197 1.524 . S
C1196 H1215 0.913 . S
C1197 H1173 0.950 . S
C1197 C1196 1.524 . S
C1197 C1198 1.415 . S
C1198 H1174 0.950 . S
C1198 C1193 1.363 . S
C1198 C1197 1.415 . S
C1199 H1175 0.951 . S
C1199 C1200 1.366 . S
C1199 C1201 1.388 . S
C1200 C1199 1.366 . S
C1200 C1204 1.385 . S
C1201 H1176 0.951 . S
C1201 C1199 1.388 . S
C1201 C1202 1.366 . S
C1202 C1201 1.366 . S
C1202 C1203 1.414 . S
C1202 C1205 1.499 . S
C1203 H1177 0.950 . S
C1203 C1202 1.414 . S
C1203 C1204 1.374 . S
C1204 H1178 0.950 . S
C1204 C1200 1.385 . S
C1204 C1203 1.374 . S
C1205 C1202 1.499 . S
C1205 C1206 1.373 . S
C1205 C1207 1.389 . S
C1206 H1179 0.950 . S
C1206 C1192 1.377 . S
C1206 C1205 1.373 . S
C1207 C1191 1.377 . S
C1207 C1205 1.389 . S
C1207 C1208 1.524 . S
C1208 C1207 1.524 . S
C1208 C1209 1.397 . S
C1208 C1213 1.363 . S
C1209 H1180 0.950 . S
C1209 C1208 1.397 . S
C1209 C1210 1.334 . S
C1210 H1181 0.950 . S
C1210 C1209 1.334 . S
C1210 C1211 1.287 . S
C1211 C1210 1.287 . S
C1211 C1212 1.524 . S
C1211 H1214 0.999 . S
C1212 H1182 0.950 . S
C1212 C1211 1.524 . S
C1212 C1213 1.415 . S
C1213 H1183 0.950 . S
C1213 C1208 1.363 . S
C1213 C1212 1.415 . S
H1214 C1211 0.999 . S
H1215 C1196 0.913 . S
H1216 C1234 0.951 . S
H1217 C1236 0.951 . S
H1218 C1238 0.950 . S
H1219 C1239 0.950 . S
H1220 C1241 0.950 . S
H1221 C1244 0.950 . S
H1222 C1245 0.950 . S
H1223 C1247 0.950 . S
H1224 C1248 0.950 . S
H1225 C1249 0.951 . S
H1226 C1251 0.951 . S
H1227 C1253 0.950 . S
H1228 C1254 0.950 . S
H1229 C1256 0.950 . S
H1230 C1259 0.950 . S
H1231 C1260 0.950 . S
H1232 C1262 0.950 . S
H1233 C1263 0.950 . S
C1234 H1216 0.951 . S
C1234 C1235 1.366 1_565 S
C1234 C1236 1.388 . S
C1235 C1234 1.366 1_545 S
C1235 C1239 1.385 . S
C1236 H1217 0.951 . S
C1236 C1234 1.388 . S
C1236 C1237 1.366 1_565 S
C1237 C1236 1.366 1_545 S
C1237 C1238 1.414 . S
C1237 C1240 1.499 . S
C1238 H1218 0.950 . S
C1238 C1237 1.414 . S
C1238 C1239 1.374 . S
C1239 H1219 0.950 . S
C1239 C1235 1.385 . S
C1239 C1238 1.374 . S
C1240 C1237 1.499 . S
C1240 C1241 1.373 . S
C1240 C1242 1.389 . S
C1241 H1220 0.950 . S
C1241 C1240 1.373 . S
C1241 C1257 1.377 . S
C1242 C1240 1.389 . S
C1242 C1243 1.524 . S
C1242 C1256 1.377 . S
C1243 C1242 1.524 . S
C1243 C1244 1.397 . S
C1243 C1248 1.363 1_545 S
C1244 H1221 0.950 . S
C1244 C1243 1.397 . S
C1244 C1245 1.334 . S
C1245 H1222 0.950 . S
C1245 C1244 1.334 . S
C1245 C1246 1.287 . S
C1246 C1245 1.287 . S
C1246 C1247 1.524 1_545 S
C1246 H1265 0.913 . S
C1247 H1223 0.950 . S
C1247 C1246 1.524 1_565 S
C1247 C1248 1.415 . S
C1248 H1224 0.950 . S
C1248 C1243 1.363 1_565 S
C1248 C1247 1.415 . S
C1249 H1225 0.951 . S
C1249 C1250 1.366 . S
C1249 C1251 1.388 . S
C1250 C1249 1.366 . S
C1250 C1254 1.385 1_545 S
C1251 H1226 0.951 . S
C1251 C1249 1.388 . S
C1251 C1252 1.366 . S
C1252 C1251 1.366 . S
C1252 C1253 1.414 1_545 S
C1252 C1255 1.499 . S
C1253 H1227 0.950 . S
C1253 C1252 1.414 1_565 S
C1253 C1254 1.374 . S
C1254 H1228 0.950 . S
C1254 C1250 1.385 1_565 S
C1254 C1253 1.374 . S
C1255 C1252 1.499 . S
C1255 C1256 1.373 . S
C1255 C1257 1.389 . S
C1256 H1229 0.950 . S
C1256 C1242 1.377 . S
C1256 C1255 1.373 . S
C1257 C1241 1.377 . S
C1257 C1255 1.389 . S
C1257 C1258 1.524 . S
C1258 C1257 1.524 . S
C1258 C1259 1.397 1_545 S
C1258 C1263 1.363 . S
C1259 H1230 0.950 . S
C1259 C1258 1.397 1_565 S
C1259 C1260 1.334 . S
C1260 H1231 0.950 . S
C1260 C1259 1.334 . S
C1260 C1261 1.287 . S
C1261 C1260 1.287 . S
C1261 C1262 1.524 1_565 S
C1261 H1264 0.999 . S
C1262 H1232 0.950 . S
C1262 C1261 1.524 1_545 S
C1262 C1263 1.415 . S
C1263 H1233 0.950 . S
C1263 C1258 1.363 . S
C1263 C1262 1.415 . S
H1264 C1261 0.999 . S
H1265 C1246 0.913 . S
H1266 C1284 0.951 . S
H1267 C1286 0.950 . S
H1268 C1288 0.950 1_565 S
H1269 C1289 0.949 . S
H1270 C1291 0.950 . S
H1271 C1294 0.950 . S
H1272 C1295 0.950 . S
H1273 C1297 0.950 . S
H1274 C1298 0.950 . S
H1275 C1299 0.951 . S
H1276 C1301 0.951 . S
H1277 C1303 0.939 . S
H1278 C1304 0.950 . S
H1279 C1306 0.950 . S
H1280 C1309 0.950 . S
H1281 C1310 0.950 . S
H1282 C1312 0.950 . S
H1283 C1313 0.950 . S
C1284 H1266 0.951 . S
C1284 C1285 1.366 . S
C1284 C1286 1.410 . S
C1285 C1284 1.366 . S
C1285 C1289 1.417 . S
C1286 H1267 0.950 . S
C1286 C1284 1.410 . S
C1286 C1287 1.331 1_545 S
C1287 C1286 1.331 1_565 S
C1287 C1288 1.415 1_565 S
C1287 C1290 1.478 . S
C1288 H1268 0.950 1_545 S
C1288 C1287 1.415 1_545 S
C1288 C1289 1.349 . S
C1289 H1269 0.949 . S
C1289 C1285 1.417 . S
C1289 C1288 1.349 . S
C1290 C1287 1.478 . S
C1290 C1291 1.364 1_565 S
C1290 C1292 1.425 . S
C1291 H1270 0.950 . S
C1291 C1290 1.364 1_545 S
C1291 C1307 1.377 . S
C1292 C1290 1.425 . S
C1292 C1293 1.524 . S
C1292 C1306 1.377 . S
C1293 C1292 1.524 . S
C1293 C1294 1.397 . S
C1293 C1298 1.363 . S
C1294 H1271 0.950 . S
C1294 C1293 1.397 . S
C1294 C1295 1.334 . S
C1295 H1272 0.950 . S
C1295 C1294 1.334 . S
C1295 C1296 1.287 . S
C1296 C1295 1.287 . S
C1296 C1297 1.524 . S
C1296 H1315 0.913 . S
C1297 H1273 0.950 . S
C1297 C1296 1.524 . S
C1297 C1298 1.415 . S
C1298 H1274 0.950 . S
C1298 C1293 1.363 . S
C1298 C1297 1.415 . S
C1299 H1275 0.951 . S
C1299 C1300 1.366 . S
C1299 C1301 1.388 . S
C1300 C1299 1.366 . S
C1300 C1304 1.385 . S
C1301 H1276 0.951 . S
C1301 C1299 1.388 . S
C1301 C1302 1.376 . S
C1302 C1301 1.376 . S
C1302 C1303 1.417 . S
C1302 C1305 1.486 1_565 S
C1303 H1277 0.939 . S
C1303 C1302 1.417 . S
C1303 C1304 1.395 . S
C1304 H1278 0.950 . S
C1304 C1300 1.385 . S
C1304 C1303 1.395 . S
C1305 C1302 1.486 1_545 S
C1305 C1306 1.371 1_545 S
C1305 C1307 1.395 . S
C1306 H1279 0.950 . S
C1306 C1292 1.377 . S
C1306 C1305 1.371 1_565 S
C1307 C1291 1.377 . S
C1307 C1305 1.395 . S
C1307 C1308 1.524 . S
C1308 C1307 1.524 . S
C1308 C1309 1.397 . S
C1308 C1313 1.363 . S
C1309 H1280 0.950 . S
C1309 C1308 1.397 . S
C1309 C1310 1.334 . S
C1310 H1281 0.950 . S
C1310 C1309 1.334 . S
C1310 C1311 1.287 . S
C1311 C1310 1.287 . S
C1311 C1312 1.524 . S
C1311 H1314 0.999 . S
C1312 H1282 0.950 . S
C1312 C1311 1.524 . S
C1312 C1313 1.415 . S
C1313 H1283 0.950 . S
C1313 C1308 1.363 . S
C1313 C1312 1.415 . S
H1314 C1311 0.999 . S
H1315 C1296 0.913 . S
H1316 C1334 0.951 . S
H1317 C1336 0.951 . S
H1318 C1338 0.950 . S
H1319 C1339 0.950 . S
H1320 C1341 0.950 . S
H1321 C1344 0.950 . S
H1322 C1345 0.950 . S
H1323 C1347 0.950 . S
H1324 C1348 0.950 . S
H1325 C1349 0.951 . S
H1326 C1351 0.951 . S
H1327 C1353 0.950 . S
H1328 C1354 0.950 . S
H1329 C1356 0.950 . S
H1330 C1359 0.950 1_455 S
H1331 C1360 0.950 . S
H1332 C1362 0.950 . S
H1333 C1363 0.950 . S
C1334 H1316 0.951 . S
C1334 C1335 1.366 . S
C1334 C1336 1.388 . S
C1335 C1334 1.366 . S
C1335 C1339 1.385 1_455 S
C1336 H1317 0.951 . S
C1336 C1334 1.388 . S
C1336 C1337 1.366 . S
C1337 C1336 1.366 . S
C1337 C1338 1.414 1_455 S
C1337 C1340 1.499 . S
C1338 H1318 0.950 . S
C1338 C1337 1.414 1_655 S
C1338 C1339 1.374 . S
C1339 H1319 0.950 . S
C1339 C1335 1.385 1_655 S
C1339 C1338 1.374 . S
C1340 C1337 1.499 . S
C1340 C1341 1.373 1_455 S
C1340 C1342 1.389 . S
C1341 H1320 0.950 . S
C1341 C1340 1.373 1_655 S
C1341 C1357 1.377 . S
C1342 C1340 1.389 . S
C1342 C1343 1.524 . S
C1342 C1356 1.377 . S
C1343 C1342 1.524 . S
C1343 C1344 1.397 . S
C1343 C1348 1.363 . S
C1344 H1321 0.950 . S
C1344 C1343 1.397 . S
C1344 C1345 1.334 . S
C1345 H1322 0.950 . S
C1345 C1344 1.334 . S
C1345 C1346 1.287 . S
C1346 C1345 1.287 . S
C1346 C1347 1.524 . S
C1346 H1365 0.913 . S
C1347 H1323 0.950 . S
C1347 C1346 1.524 . S
C1347 C1348 1.415 . S
C1348 H1324 0.950 . S
C1348 C1343 1.363 . S
C1348 C1347 1.415 . S
C1349 H1325 0.951 . S
C1349 C1350 1.366 1_655 S
C1349 C1351 1.388 . S
C1350 C1349 1.366 1_455 S
C1350 C1354 1.385 . S
C1351 H1326 0.951 . S
C1351 C1349 1.388 . S
C1351 C1352 1.366 1_655 S
C1352 C1351 1.366 1_455 S
C1352 C1353 1.414 . S
C1352 C1355 1.499 . S
C1353 H1327 0.950 . S
C1353 C1352 1.414 . S
C1353 C1354 1.374 . S
C1354 H1328 0.950 . S
C1354 C1350 1.385 . S
C1354 C1353 1.374 . S
C1355 C1352 1.499 . S
C1355 C1356 1.373 . S
C1355 C1357 1.389 1_455 S
C1356 H1329 0.950 . S
C1356 C1342 1.377 . S
C1356 C1355 1.373 . S
C1357 C1341 1.377 . S
C1357 C1355 1.389 1_655 S
C1357 C1358 1.524 . S
C1358 C1357 1.524 . S
C1358 C1359 1.397 . S
C1358 C1363 1.363 . S
C1359 H1330 0.950 1_655 S
C1359 C1358 1.397 . S
C1359 C1360 1.334 . S
C1360 H1331 0.950 . S
C1360 C1359 1.334 . S
C1360 C1361 1.287 . S
C1361 C1360 1.287 . S
C1361 C1362 1.524 . S
C1361 H1364 0.999 . S
C1362 H1332 0.950 . S
C1362 C1361 1.524 . S
C1362 C1363 1.415 . S
C1363 H1333 0.950 . S
C1363 C1358 1.363 . S
C1363 C1362 1.415 . S
H1364 C1361 0.999 . S
H1365 C1346 0.913 . S
H1366 C1384 0.951 . S
H1367 C1386 0.951 . S
H1368 C1388 0.950 . S
H1369 C1389 0.950 . S
H1370 C1391 0.950 . S
H1371 C1394 0.950 . S
H1372 C1395 0.950 . S
H1373 C1397 0.950 . S
H1374 C1398 0.950 . S
H1375 C1399 0.951 . S
H1376 C1401 0.951 . S
H1377 C1403 0.950 . S
H1378 C1404 0.950 . S
H1379 C1406 0.950 . S
H1380 C1409 0.950 . S
H1381 C1410 0.950 . S
H1382 C1412 0.950 . S
H1383 C1413 0.950 . S
C1384 H1366 0.951 . S
C1384 C1385 1.366 . S
C1384 C1386 1.388 . S
C1385 C1384 1.366 . S
C1385 C1389 1.385 . S
C1386 H1367 0.951 . S
C1386 C1384 1.388 . S
C1386 C1387 1.366 . S
C1387 C1386 1.366 . S
C1387 C1388 1.414 . S
C1387 C1390 1.499 . S
C1388 H1368 0.950 . S
C1388 C1387 1.414 . S
C1388 C1389 1.374 . S
C1389 H1369 0.950 . S
C1389 C1385 1.385 . S
C1389 C1388 1.374 . S
C1390 C1387 1.499 . S
C1390 C1391 1.373 . S
C1390 C1392 1.389 . S
C1391 H1370 0.950 . S
C1391 C1390 1.373 . S
C1391 C1407 1.377 . S
C1392 C1390 1.389 . S
C1392 C1393 1.524 . S
C1392 C1406 1.377 . S
C1393 C1392 1.524 . S
C1393 C1394 1.397 . S
C1393 C1398 1.363 . S
C1394 H1371 0.950 . S
C1394 C1393 1.397 . S
C1394 C1395 1.334 . S
C1395 H1372 0.950 . S
C1395 C1394 1.334 . S
C1395 C1396 1.287 . S
C1396 C1395 1.287 . S
C1396 C1397 1.524 . S
C1396 H1415 0.913 . S
C1397 H1373 0.950 . S
C1397 C1396 1.524 . S
C1397 C1398 1.415 . S
C1398 H1374 0.950 . S
C1398 C1393 1.363 . S
C1398 C1397 1.415 . S
C1399 H1375 0.951 . S
C1399 C1400 1.366 . S
C1399 C1401 1.388 . S
C1400 C1399 1.366 . S
C1400 C1404 1.385 . S
C1401 H1376 0.951 . S
C1401 C1399 1.388 . S
C1401 C1402 1.366 . S
C1402 C1401 1.366 . S
C1402 C1403 1.414 . S
C1402 C1405 1.499 . S
C1403 H1377 0.950 . S
C1403 C1402 1.414 . S
C1403 C1404 1.374 . S
C1404 H1378 0.950 . S
C1404 C1400 1.385 . S
C1404 C1403 1.374 . S
C1405 C1402 1.499 . S
C1405 C1406 1.373 . S
C1405 C1407 1.389 . S
C1406 H1379 0.950 . S
C1406 C1392 1.377 . S
C1406 C1405 1.373 . S
C1407 C1391 1.377 . S
C1407 C1405 1.389 . S
C1407 C1408 1.524 . S
C1408 C1407 1.524 . S
C1408 C1409 1.397 . S
C1408 C1413 1.363 . S
C1409 H1380 0.950 . S
C1409 C1408 1.397 . S
C1409 C1410 1.334 . S
C1410 H1381 0.950 . S
C1410 C1409 1.334 . S
C1410 C1411 1.287 . S
C1411 C1410 1.287 . S
C1411 C1412 1.524 . S
C1411 H1414 0.999 . S
C1412 H1382 0.950 . S
C1412 C1411 1.524 . S
C1412 C1413 1.415 . S
C1413 H1383 0.950 . S
C1413 C1408 1.363 . S
C1413 C1412 1.415 . S
H1414 C1411 0.999 . S
H1415 C1396 0.913 . S
H1416 C1434 0.951 . S
H1417 C1436 0.951 . S
H1418 C1438 0.950 . S
H1419 C1439 0.950 . S
H1420 C1441 0.950 . S
H1421 C1444 0.950 . S
H1422 C1445 0.950 . S
H1423 C1447 0.950 . S
H1424 C1448 0.950 . S
H1425 C1449 0.951 . S
H1426 C1451 0.951 . S
H1427 C1453 0.950 . S
H1428 C1454 0.950 . S
H1429 C1456 0.950 . S
H1430 C1459 0.950 . S
H1431 C1460 0.950 . S
H1432 C1462 0.950 . S
H1433 C1463 0.978 . S
C1434 H1416 0.951 . S
C1434 C1435 1.366 1_655 S
C1434 C1436 1.388 . S
C1435 C1434 1.366 1_455 S
C1435 C1439 1.385 . S
C1436 H1417 0.951 . S
C1436 C1434 1.388 . S
C1436 C1437 1.366 1_655 S
C1437 C1436 1.366 1_455 S
C1437 C1438 1.414 . S
C1437 C1440 1.499 . S
C1438 H1418 0.950 . S
C1438 C1437 1.414 . S
C1438 C1439 1.374 . S
C1439 H1419 0.950 . S
C1439 C1435 1.385 . S
C1439 C1438 1.374 . S
C1440 C1437 1.499 . S
C1440 C1441 1.373 1_455 S
C1440 C1442 1.389 . S
C1441 H1420 0.950 . S
C1441 C1440 1.373 1_655 S
C1441 C1457 1.377 . S
C1442 C1440 1.389 . S
C1442 C1443 1.524 . S
C1442 C1456 1.377 . S
C1443 C1442 1.524 . S
C1443 C1444 1.397 . S
C1443 C1448 1.363 . S
C1444 H1421 0.950 . S
C1444 C1443 1.397 . S
C1444 C1445 1.334 . S
C1445 H1422 0.950 . S
C1445 C1444 1.334 . S
C1445 C1446 1.287 . S
C1446 C1445 1.287 . S
C1446 C1447 1.524 . S
C1446 H1465 0.913 . S
C1447 H1423 0.950 . S
C1447 C1446 1.524 . S
C1447 C1448 1.415 . S
C1448 H1424 0.950 . S
C1448 C1443 1.363 . S
C1448 C1447 1.415 . S
C1449 H1425 0.951 . S
C1449 C1450 1.366 . S
C1449 C1451 1.388 . S
C1450 C1449 1.366 . S
C1450 C1454 1.385 1_455 S
C1451 H1426 0.951 . S
C1451 C1449 1.388 . S
C1451 C1452 1.366 . S
C1452 C1451 1.366 . S
C1452 C1453 1.414 1_455 S
C1452 C1455 1.499 . S
C1453 H1427 0.950 . S
C1453 C1452 1.414 1_655 S
C1453 C1454 1.374 . S
C1454 H1428 0.950 . S
C1454 C1450 1.385 1_655 S
C1454 C1453 1.374 . S
C1455 C1452 1.499 . S
C1455 C1456 1.373 . S
C1455 C1457 1.389 1_455 S
C1456 H1429 0.950 . S
C1456 C1442 1.377 . S
C1456 C1455 1.373 . S
C1457 C1441 1.377 . S
C1457 C1455 1.389 1_655 S
C1457 C1458 1.524 . S
C1458 C1457 1.524 . S
C1458 C1459 1.397 . S
C1458 C1463 1.363 . S
C1459 H1430 0.950 . S
C1459 C1458 1.397 . S
C1459 C1460 1.334 . S
C1460 H1431 0.950 . S
C1460 C1459 1.334 . S
C1460 C1461 1.287 . S
C1461 C1460 1.287 . S
C1461 C1462 1.524 . S
C1461 H1464 0.999 . S
C1462 H1432 0.950 . S
C1462 C1461 1.524 . S
C1462 C1463 1.415 . S
C1463 H1433 0.978 . S
C1463 C1458 1.363 . S
C1463 C1462 1.415 . S
H1464 C1461 0.999 . S
H1465 C1446 0.913 . S
H1466 C1484 0.951 . S
H1467 C1486 0.951 . S
H1468 C1488 0.950 . S
H1469 C1489 0.950 . S
H1470 C1491 0.950 . S
H1471 C1494 0.950 . S
H1472 C1495 0.950 . S
H1473 C1497 0.950 . S
H1474 C1498 0.950 . S
H1475 C1499 0.951 . S
H1476 C1501 0.951 . S
H1477 C1503 0.950 . S
H1478 C1504 0.950 . S
H1479 C1506 0.950 . S
H1480 C1509 0.950 . S
H1481 C1510 0.950 . S
H1482 C1512 0.950 . S
H1483 C1513 0.950 . S
C1484 H1466 0.951 . S
C1484 C1485 1.366 . S
C1484 C1486 1.388 . S
C1485 C1484 1.366 . S
C1485 C1489 1.385 . S
C1486 H1467 0.951 . S
C1486 C1484 1.388 . S
C1486 C1487 1.366 . S
C1487 C1486 1.366 . S
C1487 C1488 1.414 . S
C1487 C1490 1.499 . S
C1488 H1468 0.950 . S
C1488 C1487 1.414 . S
C1488 C1489 1.374 . S
C1489 H1469 0.950 . S
C1489 C1485 1.385 . S
C1489 C1488 1.374 . S
C1490 C1487 1.499 . S
C1490 C1491 1.373 . S
C1490 C1492 1.389 . S
C1491 H1470 0.950 . S
C1491 C1490 1.373 . S
C1491 C1507 1.377 . S
C1492 C1490 1.389 . S
C1492 C1493 1.524 . S
C1492 C1506 1.377 . S
C1493 C1492 1.524 . S
C1493 C1494 1.397 . S
C1493 C1498 1.363 . S
C1494 H1471 0.950 . S
C1494 C1493 1.397 . S
C1494 C1495 1.334 . S
C1495 H1472 0.950 . S
C1495 C1494 1.334 . S
C1495 C1496 1.287 . S
C1496 C1495 1.287 . S
C1496 C1497 1.524 . S
C1496 H1515 0.913 . S
C1497 H1473 0.950 . S
C1497 C1496 1.524 . S
C1497 C1498 1.415 . S
C1498 H1474 0.950 . S
C1498 C1493 1.363 . S
C1498 C1497 1.415 . S
C1499 H1475 0.951 . S
C1499 C1500 1.366 . S
C1499 C1501 1.388 . S
C1500 C1499 1.366 . S
C1500 C1504 1.385 . S
C1501 H1476 0.951 . S
C1501 C1499 1.388 . S
C1501 C1502 1.366 . S
C1502 C1501 1.366 . S
C1502 C1503 1.414 . S
C1502 C1505 1.499 . S
C1503 H1477 0.950 . S
C1503 C1502 1.414 . S
C1503 C1504 1.374 . S
C1504 H1478 0.950 . S
C1504 C1500 1.385 . S
C1504 C1503 1.374 . S
C1505 C1502 1.499 . S
C1505 C1506 1.373 . S
C1505 C1507 1.389 . S
C1506 H1479 0.950 . S
C1506 C1492 1.377 . S
C1506 C1505 1.373 . S
C1507 C1491 1.377 . S
C1507 C1505 1.389 . S
C1507 C1508 1.524 . S
C1508 C1507 1.524 . S
C1508 C1509 1.397 . S
C1508 C1513 1.363 . S
C1509 H1480 0.950 . S
C1509 C1508 1.397 . S
C1509 C1510 1.334 . S
C1510 H1481 0.950 . S
C1510 C1509 1.334 . S
C1510 C1511 1.287 . S
C1511 C1510 1.287 . S
C1511 C1512 1.524 . S
C1511 H1514 0.999 . S
C1512 H1482 0.950 . S
C1512 C1511 1.524 . S
C1512 C1513 1.415 . S
C1513 H1483 0.950 . S
C1513 C1508 1.363 . S
C1513 C1512 1.415 . S
H1514 C1511 0.999 . S
H1515 C1496 0.913 . S
H1516 C1534 0.966 . S
H1517 C1536 0.951 . S
H1518 C1538 0.950 . S
H1519 C1539 0.950 . S
H1520 C1541 0.950 . S
H1521 C1544 0.950 . S
H1522 C1545 0.950 . S
H1523 C1547 0.950 . S
H1524 C1548 0.950 . S
H1525 C1549 0.951 . S
H1526 C1551 0.951 . S
H1527 C1553 0.961 . S
H1528 C1554 0.992 . S
H1529 C1556 0.950 . S
H1530 C1559 0.950 . S
H1531 C1560 0.950 . S
H1532 C1562 0.950 . S
H1533 C1563 0.950 . S
C1534 H1516 0.966 . S
C1534 C1535 1.366 . S
C1534 C1536 1.388 . S
C1535 C1534 1.366 . S
C1535 C1539 1.385 . S
C1536 H1517 0.951 . S
C1536 C1534 1.388 . S
C1536 C1537 1.366 . S
C1537 C1536 1.366 . S
C1537 C1538 1.414 . S
C1537 C1540 1.499 . S
C1538 H1518 0.950 . S
C1538 C1537 1.414 . S
C1538 C1539 1.374 . S
C1539 H1519 0.950 . S
C1539 C1535 1.385 . S
C1539 C1538 1.374 . S
C1540 C1537 1.499 . S
C1540 C1541 1.373 1_565 S
C1540 C1542 1.389 . S
C1541 H1520 0.950 . S
C1541 C1540 1.373 1_545 S
C1541 C1557 1.377 . S
C1542 C1540 1.389 . S
C1542 C1543 1.524 . S
C1542 C1556 1.377 . S
C1543 C1542 1.524 . S
C1543 C1544 1.397 . S
C1543 C1548 1.363 . S
C1544 H1521 0.950 . S
C1544 C1543 1.397 . S
C1544 C1545 1.334 . S
C1545 H1522 0.950 . S
C1545 C1544 1.334 . S
C1545 C1546 1.287 . S
C1546 C1545 1.287 . S
C1546 C1547 1.524 . S
C1546 H1565 0.913 . S
C1547 H1523 0.950 . S
C1547 C1546 1.524 . S
C1547 C1548 1.415 . S
C1548 H1524 0.950 . S
C1548 C1543 1.363 . S
C1548 C1547 1.415 . S
C1549 H1525 0.951 . S
C1549 C1550 1.366 . S
C1549 C1551 1.388 . S
C1550 C1549 1.366 . S
C1550 C1554 1.385 . S
C1551 H1526 0.951 . S
C1551 C1549 1.388 . S
C1551 C1552 1.366 . S
C1552 C1551 1.366 . S
C1552 C1553 1.414 . S
C1552 C1555 1.499 . S
C1553 H1527 0.961 . S
C1553 C1552 1.414 . S
C1553 C1554 1.374 . S
C1554 H1528 0.992 . S
C1554 C1550 1.385 . S
C1554 C1553 1.374 . S
C1555 C1552 1.499 . S
C1555 C1556 1.373 . S
C1555 C1557 1.389 1_565 S
C1556 H1529 0.950 . S
C1556 C1542 1.377 . S
C1556 C1555 1.373 . S
C1557 C1541 1.377 . S
C1557 C1555 1.389 1_545 S
C1557 C1558 1.524 . S
C1558 C1557 1.524 . S
C1558 C1559 1.397 . S
C1558 C1563 1.363 . S
C1559 H1530 0.950 . S
C1559 C1558 1.397 . S
C1559 C1560 1.334 . S
C1560 H1531 0.950 . S
C1560 C1559 1.334 . S
C1560 C1561 1.287 . S
C1561 C1560 1.287 . S
C1561 C1562 1.524 . S
C1561 H1564 0.999 . S
C1562 H1532 0.950 . S
C1562 C1561 1.524 . S
C1562 C1563 1.415 . S
C1563 H1533 0.950 . S
C1563 C1558 1.363 . S
C1563 C1562 1.415 . S
H1564 C1561 0.999 . S
H1565 C1546 0.913 . S
H1566 C1584 0.951 . S
H1567 C1586 0.951 . S
H1568 C1588 0.955 . S
H1569 C1589 0.960 . S
H1570 C1591 0.950 . S
H1571 C1594 0.950 . S
H1572 C1595 0.950 . S
H1573 C1597 0.950 . S
H1574 C1598 0.950 . S
H1575 C1599 0.951 . S
H1576 C1601 0.951 . S
H1577 C1603 0.950 . S
H1578 C1604 0.950 . S
H1579 C1606 0.950 . S
H1580 C1609 0.950 . S
H1581 C1610 0.950 . S
H1582 C1612 0.950 . S
H1583 C1613 0.950 . S
C1584 H1566 0.951 . S
C1584 C1585 1.366 . S
C1584 C1586 1.388 . S
C1585 C1584 1.366 . S
C1585 C1589 1.380 1_545 S
C1586 H1567 0.951 . S
C1586 C1584 1.388 . S
C1586 C1587 1.366 . S
C1587 C1586 1.366 . S
C1587 C1588 1.404 1_545 S
C1587 C1590 1.499 . S
C1588 H1568 0.955 . S
C1588 C1587 1.404 1_565 S
C1588 C1589 1.374 . S
C1589 H1569 0.960 . S
C1589 C1585 1.380 1_565 S
C1589 C1588 1.374 . S
C1590 C1587 1.499 . S
C1590 C1591 1.373 1_545 S
C1590 C1592 1.389 . S
C1591 H1570 0.950 . S
C1591 C1590 1.373 1_565 S
C1591 C1607 1.377 . S
C1592 C1590 1.389 . S
C1592 C1593 1.524 . S
C1592 C1606 1.377 . S
C1593 C1592 1.524 . S
C1593 C1594 1.397 . S
C1593 C1598 1.363 . S
C1594 H1571 0.950 . S
C1594 C1593 1.397 . S
C1594 C1595 1.334 . S
C1595 H1572 0.950 . S
C1595 C1594 1.334 . S
C1595 C1596 1.287 . S
C1596 C1595 1.287 . S
C1596 C1597 1.524 . S
C1596 H1615 0.913 . S
C1597 H1573 0.950 . S
C1597 C1596 1.524 . S
C1597 C1598 1.415 . S
C1598 H1574 0.950 . S
C1598 C1593 1.363 . S
C1598 C1597 1.415 . S
C1599 H1575 0.951 . S
C1599 C1600 1.366 1_565 S
C1599 C1601 1.388 . S
C1600 C1599 1.366 1_545 S
C1600 C1604 1.385 . S
C1601 H1576 0.951 . S
C1601 C1599 1.388 . S
C1601 C1602 1.366 1_565 S
C1602 C1601 1.366 1_545 S
C1602 C1603 1.414 . S
C1602 C1605 1.499 . S
C1603 H1577 0.950 . S
C1603 C1602 1.414 . S
C1603 C1604 1.374 . S
C1604 H1578 0.950 . S
C1604 C1600 1.385 . S
C1604 C1603 1.374 . S
C1605 C1602 1.499 . S
C1605 C1606 1.373 . S
C1605 C1607 1.389 1_545 S
C1606 H1579 0.950 . S
C1606 C1592 1.377 . S
C1606 C1605 1.373 . S
C1607 C1591 1.377 . S
C1607 C1605 1.389 1_565 S
C1607 C1608 1.524 . S
C1608 C1607 1.524 . S
C1608 C1609 1.397 . S
C1608 C1613 1.363 . S
C1609 H1580 0.950 . S
C1609 C1608 1.397 . S
C1609 C1610 1.334 . S
C1610 H1581 0.950 . S
C1610 C1609 1.334 . S
C1610 C1611 1.287 . S
C1611 C1610 1.287 . S
C1611 C1612 1.524 . S
C1611 H1614 0.999 . S
C1612 H1582 0.950 . S
C1612 C1611 1.524 . S
C1612 C1613 1.415 . S
C1613 H1583 0.950 . S
C1613 C1608 1.363 . S
C1613 C1612 1.415 . S
H1614 C1611 0.999 . S
H1615 C1596 0.913 . S
H1616 C1634 0.951 . S
H1617 C1636 0.951 . S
H1618 C1638 0.950 . S
H1619 C1639 0.950 . S
H1620 C1641 0.950 . S
H1621 C1644 0.950 1_455 S
H1622 C1645 0.950 . S
H1623 C1647 0.950 . S
H1624 C1648 0.950 . S
H1625 C1649 0.951 . S
H1626 C1651 0.951 . S
H1627 C1653 0.950 . S
H1628 C1654 0.950 . S
H1629 C1656 0.950 . S
H1630 C1659 0.952 . S
H1631 C1660 0.950 1_655 S
H1632 C1662 0.950 . S
H1633 C1663 0.950 . S
C1634 H1616 0.951 . S
C1634 C1635 1.366 . S
C1634 C1636 1.388 . S
C1635 C1634 1.366 . S
C1635 C1639 1.385 1_655 S
C1636 H1617 0.951 . S
C1636 C1634 1.388 . S
C1636 C1637 1.366 . S
C1637 C1636 1.366 . S
C1637 C1638 1.414 1_655 S
C1637 C1640 1.499 . S
C1638 H1618 0.950 . S
C1638 C1637 1.414 1_455 S
C1638 C1639 1.374 . S
C1639 H1619 0.950 . S
C1639 C1635 1.385 1_455 S
C1639 C1638 1.374 . S
C1640 C1637 1.499 . S
C1640 C1641 1.373 1_655 S
C1640 C1642 1.389 . S
C1641 H1620 0.950 . S
C1641 C1640 1.373 1_455 S
C1641 C1657 1.377 . S
C1642 C1640 1.389 . S
C1642 C1643 1.524 . S
C1642 C1656 1.377 . S
C1643 C1642 1.524 . S
C1643 C1644 1.397 . S
C1643 C1648 1.363 . S
C1644 H1621 0.950 1_655 S
C1644 C1643 1.397 . S
C1644 C1645 1.334 . S
C1645 H1622 0.950 . S
C1645 C1644 1.334 . S
C1645 C1646 1.287 . S
C1646 C1645 1.287 . S
C1646 C1647 1.524 . S
C1646 H1665 0.913 . S
C1647 H1623 0.950 . S
C1647 C1646 1.524 . S
C1647 C1648 1.415 . S
C1648 H1624 0.950 . S
C1648 C1643 1.363 . S
C1648 C1647 1.415 . S
C1649 H1625 0.951 . S
C1649 C1650 1.366 1_455 S
C1649 C1651 1.388 . S
C1650 C1649 1.366 1_655 S
C1650 C1654 1.385 . S
C1651 H1626 0.951 . S
C1651 C1649 1.388 . S
C1651 C1652 1.366 1_455 S
C1652 C1651 1.366 1_655 S
C1652 C1653 1.414 . S
C1652 C1655 1.499 . S
C1653 H1627 0.950 . S
C1653 C1652 1.414 . S
C1653 C1654 1.374 . S
C1654 H1628 0.950 . S
C1654 C1650 1.385 . S
C1654 C1653 1.374 . S
C1655 C1652 1.499 . S
C1655 C1656 1.373 . S
C1655 C1657 1.389 1_655 S
C1656 H1629 0.950 . S
C1656 C1642 1.377 . S
C1656 C1655 1.373 . S
C1657 C1641 1.377 . S
C1657 C1655 1.389 1_455 S
C1657 C1658 1.524 . S
C1658 C1657 1.524 . S
C1658 C1659 1.396 1_455 S
C1658 C1663 1.363 . S
C1659 H1630 0.952 . S
C1659 C1658 1.396 1_655 S
C1659 C1660 1.332 1_655 S
C1660 H1631 0.950 1_455 S
C1660 C1659 1.332 1_455 S
C1660 C1661 1.287 . S
C1661 C1660 1.287 . S
C1661 C1662 1.524 . S
C1661 H1664 0.999 . S
C1662 H1632 0.950 . S
C1662 C1661 1.524 . S
C1662 C1663 1.415 . S
C1663 H1633 0.950 . S
C1663 C1658 1.363 . S
C1663 C1662 1.415 . S
H1664 C1661 0.999 . S
H1665 C1646 0.913 . S
H1666 C1684 0.951 . S
H1667 C1686 0.951 . S
H1668 C1688 0.950 . S
H1669 C1689 0.950 . S
H1670 C1691 0.950 . S
H1671 C1694 0.950 . S
H1672 C1695 0.950 . S
H1673 C1697 0.950 . S
H1674 C1698 0.950 . S
H1675 C1699 0.951 . S
H1676 C1701 0.951 . S
H1677 C1703 0.950 . S
H1678 C1704 0.950 . S
H1679 C1706 0.950 . S
H1680 C1709 0.950 . S
H1681 C1710 0.950 . S
H1682 C1712 0.950 . S
H1683 C1713 0.950 . S
C1684 H1666 0.951 . S
C1684 C1685 1.366 . S
C1684 C1686 1.388 . S
C1685 C1684 1.366 . S
C1685 C1689 1.385 . S
C1686 H1667 0.951 . S
C1686 C1684 1.388 . S
C1686 C1687 1.366 . S
C1687 C1686 1.366 . S
C1687 C1688 1.414 . S
C1687 C1690 1.499 . S
C1688 H1668 0.950 . S
C1688 C1687 1.414 . S
C1688 C1689 1.374 . S
C1689 H1669 0.950 . S
C1689 C1685 1.385 . S
C1689 C1688 1.374 . S
C1690 C1687 1.499 . S
C1690 C1691 1.373 . S
C1690 C1692 1.389 . S
C1691 H1670 0.950 . S
C1691 C1690 1.373 . S
C1691 C1707 1.377 . S
C1692 C1690 1.389 . S
C1692 C1693 1.524 . S
C1692 C1706 1.377 . S
C1693 C1692 1.524 . S
C1693 C1694 1.397 . S
C1693 C1698 1.363 . S
C1694 H1671 0.950 . S
C1694 C1693 1.397 . S
C1694 C1695 1.334 . S
C1695 H1672 0.950 . S
C1695 C1694 1.334 . S
C1695 C1696 1.287 . S
C1696 C1695 1.287 . S
C1696 C1697 1.524 . S
C1696 H1715 0.913 . S
C1697 H1673 0.950 . S
C1697 C1696 1.524 . S
C1697 C1698 1.415 . S
C1698 H1674 0.950 . S
C1698 C1693 1.363 . S
C1698 C1697 1.415 . S
C1699 H1675 0.951 . S
C1699 C1700 1.366 . S
C1699 C1701 1.388 . S
C1700 C1699 1.366 . S
C1700 C1704 1.385 . S
C1701 H1676 0.951 . S
C1701 C1699 1.388 . S
C1701 C1702 1.366 . S
C1702 C1701 1.366 . S
C1702 C1703 1.414 . S
C1702 C1705 1.499 . S
C1703 H1677 0.950 . S
C1703 C1702 1.414 . S
C1703 C1704 1.374 . S
C1704 H1678 0.950 . S
C1704 C1700 1.385 . S
C1704 C1703 1.374 . S
C1705 C1702 1.499 . S
C1705 C1706 1.373 . S
C1705 C1707 1.389 . S
C1706 H1679 0.950 . S
C1706 C1692 1.377 . S
C1706 C1705 1.373 . S
C1707 C1691 1.377 . S
C1707 C1705 1.389 . S
C1707 C1708 1.524 . S
C1708 C1707 1.524 . S
C1708 C1709 1.397 . S
C1708 C1713 1.363 . S
C1709 H1680 0.950 . S
C1709 C1708 1.397 . S
C1709 C1710 1.334 . S
C1710 H1681 0.950 . S
C1710 C1709 1.334 . S
C1710 C1711 1.287 . S
C1711 C1710 1.287 . S
C1711 C1712 1.524 . S
C1711 H1714 0.999 . S
C1712 H1682 0.950 . S
C1712 C1711 1.524 . S
C1712 C1713 1.415 . S
C1713 H1683 0.950 . S
C1713 C1708 1.363 . S
C1713 C1712 1.415 . S
H1714 C1711 0.999 . S
H1715 C1696 0.913 . S
H1716 C1734 0.951 . S
H1717 C1736 0.951 . S
H1718 C1738 0.950 . S
H1719 C1739 0.950 . S
H1720 C1741 0.950 . S
H1721 C1744 0.950 . S
H1722 C1745 0.950 . S
H1723 C1747 0.950 . S
H1724 C1748 0.950 . S
H1725 C1749 0.951 . S
H1726 C1751 0.951 . S
H1727 C1753 0.950 . S
H1728 C1754 0.950 . S
H1729 C1756 0.950 . S
H1730 C1759 0.950 . S
H1731 C1760 0.950 . S
H1732 C1762 0.950 . S
H1733 C1763 0.950 . S
C1734 H1716 0.951 . S
C1734 C1735 1.366 . S
C1734 C1736 1.388 . S
C1735 C1734 1.366 . S
C1735 C1739 1.385 . S
C1736 H1717 0.951 . S
C1736 C1734 1.388 . S
C1736 C1737 1.366 . S
C1737 C1736 1.366 . S
C1737 C1738 1.414 . S
C1737 C1740 1.499 . S
C1738 H1718 0.950 . S
C1738 C1737 1.414 . S
C1738 C1739 1.374 . S
C1739 H1719 0.950 . S
C1739 C1735 1.385 . S
C1739 C1738 1.374 . S
C1740 C1737 1.499 . S
C1740 C1741 1.373 . S
C1740 C1742 1.389 . S
C1741 H1720 0.950 . S
C1741 C1740 1.373 . S
C1741 C1757 1.377 . S
C1742 C1740 1.389 . S
C1742 C1743 1.524 . S
C1742 C1756 1.377 . S
C1743 C1742 1.524 . S
C1743 C1744 1.397 . S
C1743 C1748 1.363 . S
C1744 H1721 0.950 . S
C1744 C1743 1.397 . S
C1744 C1745 1.334 . S
C1745 H1722 0.950 . S
C1745 C1744 1.334 . S
C1745 C1746 1.287 . S
C1746 C1745 1.287 . S
C1746 C1747 1.524 . S
C1746 H1765 0.913 . S
C1747 H1723 0.950 . S
C1747 C1746 1.524 . S
C1747 C1748 1.415 . S
C1748 H1724 0.950 . S
C1748 C1743 1.363 . S
C1748 C1747 1.415 . S
C1749 H1725 0.951 . S
C1749 C1750 1.366 . S
C1749 C1751 1.388 . S
C1750 C1749 1.366 . S
C1750 C1754 1.385 . S
C1751 H1726 0.951 . S
C1751 C1749 1.388 . S
C1751 C1752 1.366 . S
C1752 C1751 1.366 . S
C1752 C1753 1.414 . S
C1752 C1755 1.499 . S
C1753 H1727 0.950 . S
C1753 C1752 1.414 . S
C1753 C1754 1.374 . S
C1754 H1728 0.950 . S
C1754 C1750 1.385 . S
C1754 C1753 1.374 . S
C1755 C1752 1.499 . S
C1755 C1756 1.373 . S
C1755 C1757 1.389 . S
C1756 H1729 0.950 . S
C1756 C1742 1.377 . S
C1756 C1755 1.373 . S
C1757 C1741 1.377 . S
C1757 C1755 1.389 . S
C1757 C1758 1.524 . S
C1758 C1757 1.524 . S
C1758 C1759 1.397 . S
C1758 C1763 1.363 . S
C1759 H1730 0.950 . S
C1759 C1758 1.397 . S
C1759 C1760 1.334 . S
C1760 H1731 0.950 . S
C1760 C1759 1.334 . S
C1760 C1761 1.287 . S
C1761 C1760 1.287 . S
C1761 C1762 1.524 . S
C1761 H1764 0.999 . S
C1762 H1732 0.950 . S
C1762 C1761 1.524 . S
C1762 C1763 1.415 . S
C1763 H1733 0.950 . S
C1763 C1758 1.363 . S
C1763 C1762 1.415 . S
H1764 C1761 0.999 . S
H1765 C1746 0.913 . S
H1766 C1784 0.951 . S
H1767 C1786 0.951 . S
H1768 C1788 0.950 . S
H1769 C1789 0.950 . S
H1770 C1791 0.950 . S
H1771 C1794 0.950 . S
H1772 C1795 0.950 . S
H1773 C1797 0.950 . S
H1774 C1798 0.950 . S
H1775 C1799 0.951 . S
H1776 C1801 0.951 . S
H1777 C1803 0.950 . S
H1778 C1804 0.950 . S
H1779 C1806 0.950 . S
H1780 C1809 0.950 . S
H1781 C1810 0.950 . S
H1782 C1812 0.950 . S
H1783 C1813 0.950 . S
C1784 H1766 0.951 . S
C1784 C1785 1.366 . S
C1784 C1786 1.388 . S
C1785 C1784 1.366 . S
C1785 C1789 1.385 . S
C1786 H1767 0.951 . S
C1786 C1784 1.388 . S
C1786 C1787 1.366 . S
C1787 C1786 1.366 . S
C1787 C1788 1.414 . S
C1787 C1790 1.499 . S
C1788 H1768 0.950 . S
C1788 C1787 1.414 . S
C1788 C1789 1.374 . S
C1789 H1769 0.950 . S
C1789 C1785 1.385 . S
C1789 C1788 1.374 . S
C1790 C1787 1.499 . S
C1790 C1791 1.373 . S
C1790 C1792 1.389 . S
C1791 H1770 0.950 . S
C1791 C1790 1.373 . S
C1791 C1807 1.377 . S
C1792 C1790 1.389 . S
C1792 C1793 1.524 . S
C1792 C1806 1.377 . S
C1793 C1792 1.524 . S
C1793 C1794 1.397 . S
C1793 C1798 1.363 . S
C1794 H1771 0.950 . S
C1794 C1793 1.397 . S
C1794 C1795 1.334 . S
C1795 H1772 0.950 . S
C1795 C1794 1.334 . S
C1795 C1796 1.287 . S
C1796 C1795 1.287 . S
C1796 C1797 1.524 . S
C1796 H1815 0.913 . S
C1797 H1773 0.950 . S
C1797 C1796 1.524 . S
C1797 C1798 1.415 . S
C1798 H1774 0.950 . S
C1798 C1793 1.363 . S
C1798 C1797 1.415 . S
C1799 H1775 0.951 . S
C1799 C1800 1.366 . S
C1799 C1801 1.388 . S
C1800 C1799 1.366 . S
C1800 C1804 1.385 . S
C1801 H1776 0.951 . S
C1801 C1799 1.388 . S
C1801 C1802 1.366 . S
C1802 C1801 1.366 . S
C1802 C1803 1.414 . S
C1802 C1805 1.499 . S
C1803 H1777 0.950 . S
C1803 C1802 1.414 . S
C1803 C1804 1.374 . S
C1804 H1778 0.950 . S
C1804 C1800 1.385 . S
C1804 C1803 1.374 . S
C1805 C1802 1.499 . S
C1805 C1806 1.373 . S
C1805 C1807 1.389 . S
C1806 H1779 0.950 . S
C1806 C1792 1.377 . S
C1806 C1805 1.373 . S
C1807 C1791 1.377 . S
C1807 C1805 1.389 . S
C1807 C1808 1.524 . S
C1808 C1807 1.524 . S
C1808 C1809 1.397 . S
C1808 C1813 1.363 . S
C1809 H1780 0.950 . S
C1809 C1808 1.397 . S
C1809 C1810 1.334 . S
C1810 H1781 0.950 . S
C1810 C1809 1.334 . S
C1810 C1811 1.287 . S
C1811 C1810 1.287 . S
C1811 C1812 1.524 . S
C1811 H1814 0.999 . S
C1812 H1782 0.950 . S
C1812 C1811 1.524 . S
C1812 C1813 1.415 . S
C1813 H1783 0.950 . S
C1813 C1808 1.363 . S
C1813 C1812 1.415 . S
H1814 C1811 0.999 . S
H1815 C1796 0.913 . S
H1816 C1834 0.951 . S
H1817 C1836 0.951 . S
H1818 C1838 0.950 . S
H1819 C1839 0.950 . S
H1820 C1841 0.950 . S
H1821 C1844 0.950 . S
H1822 C1845 0.950 . S
H1823 C1847 0.950 . S
H1824 C1848 0.950 . S
H1825 C1849 0.951 . S
H1826 C1851 0.951 . S
H1827 C1853 0.950 . S
H1828 C1854 0.950 . S
H1829 C1856 0.950 . S
H1830 C1859 0.950 . S
H1831 C1860 0.950 . S
H1832 C1862 0.950 . S
H1833 C1863 0.950 . S
C1834 H1816 0.951 . S
C1834 C1835 1.366 . S
C1834 C1836 1.388 . S
C1835 C1834 1.366 . S
C1835 C1839 1.385 . S
C1836 H1817 0.951 . S
C1836 C1834 1.388 . S
C1836 C1837 1.366 . S
C1837 C1836 1.366 . S
C1837 C1838 1.414 . S
C1837 C1840 1.499 . S
C1838 H1818 0.950 . S
C1838 C1837 1.414 . S
C1838 C1839 1.374 . S
C1839 H1819 0.950 . S
C1839 C1835 1.385 . S
C1839 C1838 1.374 . S
C1840 C1837 1.499 . S
C1840 C1841 1.373 . S
C1840 C1842 1.389 . S
C1841 H1820 0.950 . S
C1841 C1840 1.373 . S
C1841 C1857 1.377 . S
C1842 C1840 1.389 . S
C1842 C1843 1.524 . S
C1842 C1856 1.377 . S
C1843 C1842 1.524 . S
C1843 C1844 1.397 . S
C1843 C1848 1.363 . S
C1844 H1821 0.950 . S
C1844 C1843 1.397 . S
C1844 C1845 1.334 . S
C1845 H1822 0.950 . S
C1845 C1844 1.334 . S
C1845 C1846 1.287 . S
C1846 C1845 1.287 . S
C1846 C1847 1.524 . S
C1846 H1865 0.913 . S
C1847 H1823 0.950 . S
C1847 C1846 1.524 . S
C1847 C1848 1.415 . S
C1848 H1824 0.950 . S
C1848 C1843 1.363 . S
C1848 C1847 1.415 . S
C1849 H1825 0.951 . S
C1849 C1850 1.366 . S
C1849 C1851 1.388 . S
C1850 C1849 1.366 . S
C1850 C1854 1.385 . S
C1851 H1826 0.951 . S
C1851 C1849 1.388 . S
C1851 C1852 1.366 . S
C1852 C1851 1.366 . S
C1852 C1853 1.414 . S
C1852 C1855 1.499 . S
C1853 H1827 0.950 . S
C1853 C1852 1.414 . S
C1853 C1854 1.374 . S
C1854 H1828 0.950 . S
C1854 C1850 1.385 . S
C1854 C1853 1.374 . S
C1855 C1852 1.499 . S
C1855 C1856 1.373 . S
C1855 C1857 1.389 . S
C1856 H1829 0.950 . S
C1856 C1842 1.377 . S
C1856 C1855 1.373 . S
C1857 C1841 1.377 . S
C1857 C1855 1.389 . S
C1857 C1858 1.524 . S
C1858 C1857 1.524 . S
C1858 C1859 1.397 . S
C1858 C1863 1.363 . S
C1859 H1830 0.950 . S
C1859 C1858 1.397 . S
C1859 C1860 1.334 . S
C1860 H1831 0.950 . S
C1860 C1859 1.334 . S
C1860 C1861 1.287 . S
C1861 C1860 1.287 . S
C1861 C1862 1.524 . S
C1861 H1864 0.999 . S
C1862 H1832 0.950 . S
C1862 C1861 1.524 . S
C1862 C1863 1.415 . S
C1863 H1833 0.950 . S
C1863 C1858 1.363 . S
C1863 C1862 1.415 . S
H1864 C1861 0.999 . S
H1865 C1846 0.913 . S
H1866 C1884 0.951 . S
H1867 C1886 0.951 . S
H1868 C1888 0.950 . S
H1869 C1889 0.950 . S
H1870 C1891 0.950 . S
H1871 C1894 0.950 . S
H1872 C1895 0.950 . S
H1873 C1897 0.950 . S
H1874 C1898 0.950 . S
H1875 C1899 0.951 . S
H1876 C1901 0.951 . S
H1877 C1903 0.950 . S
H1878 C1904 0.950 . S
H1879 C1906 0.950 . S
H1880 C1909 0.950 . S
H1881 C1910 0.950 . S
H1882 C1912 0.950 . S
H1883 C1913 0.950 . S
C1884 H1866 0.951 . S
C1884 C1885 1.366 . S
C1884 C1886 1.388 . S
C1885 C1884 1.366 . S
C1885 C1889 1.385 . S
C1886 H1867 0.951 . S
C1886 C1884 1.388 . S
C1886 C1887 1.366 . S
C1887 C1886 1.366 . S
C1887 C1888 1.414 . S
C1887 C1890 1.499 . S
C1888 H1868 0.950 . S
C1888 C1887 1.414 . S
C1888 C1889 1.374 . S
C1889 H1869 0.950 . S
C1889 C1885 1.385 . S
C1889 C1888 1.374 . S
C1890 C1887 1.499 . S
C1890 C1891 1.373 . S
C1890 C1892 1.389 . S
C1891 H1870 0.950 . S
C1891 C1890 1.373 . S
C1891 C1907 1.377 . S
C1892 C1890 1.389 . S
C1892 C1893 1.524 . S
C1892 C1906 1.377 . S
C1893 C1892 1.524 . S
C1893 C1894 1.397 . S
C1893 C1898 1.363 . S
C1894 H1871 0.950 . S
C1894 C1893 1.397 . S
C1894 C1895 1.334 . S
C1895 H1872 0.950 . S
C1895 C1894 1.334 . S
C1895 C1896 1.287 . S
C1896 C1895 1.287 . S
C1896 C1897 1.524 . S
C1896 H1915 0.913 . S
C1897 H1873 0.950 . S
C1897 C1896 1.524 . S
C1897 C1898 1.415 . S
C1898 H1874 0.950 . S
C1898 C1893 1.363 . S
C1898 C1897 1.415 . S
C1899 H1875 0.951 . S
C1899 C1900 1.366 . S
C1899 C1901 1.388 . S
C1900 C1899 1.366 . S
C1900 C1904 1.385 . S
C1901 H1876 0.951 . S
C1901 C1899 1.388 . S
C1901 C1902 1.366 . S
C1902 C1901 1.366 . S
C1902 C1903 1.414 . S
C1902 C1905 1.499 . S
C1903 H1877 0.950 . S
C1903 C1902 1.414 . S
C1903 C1904 1.374 . S
C1904 H1878 0.950 . S
C1904 C1900 1.385 . S
C1904 C1903 1.374 . S
C1905 C1902 1.499 . S
C1905 C1906 1.373 . S
C1905 C1907 1.389 . S
C1906 H1879 0.950 . S
C1906 C1892 1.377 . S
C1906 C1905 1.373 . S
C1907 C1891 1.377 . S
C1907 C1905 1.389 . S
C1907 C1908 1.524 . S
C1908 C1907 1.524 . S
C1908 C1909 1.397 . S
C1908 C1913 1.363 . S
C1909 H1880 0.950 . S
C1909 C1908 1.397 . S
C1909 C1910 1.334 . S
C1910 H1881 0.950 . S
C1910 C1909 1.334 . S
C1910 C1911 1.287 . S
C1911 C1910 1.287 . S
C1911 C1912 1.524 . S
C1911 H1914 0.999 . S
C1912 H1882 0.950 . S
C1912 C1911 1.524 . S
C1912 C1913 1.415 . S
C1913 H1883 0.950 . S
C1913 C1908 1.363 . S
C1913 C1912 1.415 . S
H1914 C1911 0.999 . S
H1915 C1896 0.913 . S
H1916 C1934 0.951 . S
H1917 C1936 0.951 . S
H1918 C1938 0.950 . S
H1919 C1939 0.950 . S
H1920 C1941 0.950 . S
H1921 C1944 0.950 . S
H1922 C1945 0.950 . S
H1923 C1947 0.950 . S
H1924 C1948 0.950 . S
H1925 C1949 0.951 . S
H1926 C1951 0.951 . S
H1927 C1953 0.950 . S
H1928 C1954 0.950 . S
H1929 C1956 0.950 . S
H1930 C1959 0.950 . S
H1931 C1960 0.950 . S
H1932 C1962 0.950 . S
H1933 C1963 0.950 . S
C1934 H1916 0.951 . S
C1934 C1935 1.366 . S
C1934 C1936 1.388 . S
C1935 C1934 1.366 . S
C1935 C1939 1.385 . S
C1936 H1917 0.951 . S
C1936 C1934 1.388 . S
C1936 C1937 1.366 . S
C1937 C1936 1.366 . S
C1937 C1938 1.414 . S
C1937 C1940 1.499 . S
C1938 H1918 0.950 . S
C1938 C1937 1.414 . S
C1938 C1939 1.374 . S
C1939 H1919 0.950 . S
C1939 C1935 1.385 . S
C1939 C1938 1.374 . S
C1940 C1937 1.499 . S
C1940 C1941 1.373 . S
C1940 C1942 1.389 . S
C1941 H1920 0.950 . S
C1941 C1940 1.373 . S
C1941 C1957 1.377 . S
C1942 C1940 1.389 . S
C1942 C1943 1.524 . S
C1942 C1956 1.377 . S
C1943 C1942 1.524 . S
C1943 C1944 1.397 . S
C1943 C1948 1.363 . S
C1944 H1921 0.950 . S
C1944 C1943 1.397 . S
C1944 C1945 1.334 . S
C1945 H1922 0.950 . S
C1945 C1944 1.334 . S
C1945 C1946 1.287 . S
C1946 C1945 1.287 . S
C1946 C1947 1.524 . S
C1946 H1965 0.913 . S
C1947 H1923 0.950 . S
C1947 C1946 1.524 . S
C1947 C1948 1.415 . S
C1948 H1924 0.950 . S
C1948 C1943 1.363 . S
C1948 C1947 1.415 . S
C1949 H1925 0.951 . S
C1949 C1950 1.366 . S
C1949 C1951 1.388 . S
C1950 C1949 1.366 . S
C1950 C1954 1.385 . S
C1951 H1926 0.951 . S
C1951 C1949 1.388 . S
C1951 C1952 1.366 . S
C1952 C1951 1.366 . S
C1952 C1953 1.414 . S
C1952 C1955 1.499 . S
C1953 H1927 0.950 . S
C1953 C1952 1.414 . S
C1953 C1954 1.374 . S
C1954 H1928 0.950 . S
C1954 C1950 1.385 . S
C1954 C1953 1.374 . S
C1955 C1952 1.499 . S
C1955 C1956 1.373 . S
C1955 C1957 1.389 . S
C1956 H1929 0.950 . S
C1956 C1942 1.377 . S
C1956 C1955 1.373 . S
C1957 C1941 1.377 . S
C1957 C1955 1.389 . S
C1957 C1958 1.524 . S
C1958 C1957 1.524 . S
C1958 C1959 1.397 . S
C1958 C1963 1.363 . S
C1959 H1930 0.950 . S
C1959 C1958 1.397 . S
C1959 C1960 1.334 . S
C1960 H1931 0.950 . S
C1960 C1959 1.334 . S
C1960 C1961 1.287 . S
C1961 C1960 1.287 . S
C1961 C1962 1.524 . S
C1961 H1964 0.999 . S
C1962 H1932 0.950 . S
C1962 C1961 1.524 . S
C1962 C1963 1.415 . S
C1963 H1933 0.950 . S
C1963 C1958 1.363 . S
C1963 C1962 1.415 . S
H1964 C1961 0.999 . S
H1965 C1946 0.913 . S
H1966 C1984 0.951 . S
H1967 C1986 0.951 . S
H1968 C1988 0.950 . S
H1969 C1989 0.950 . S
H1970 C1991 0.950 . S
H1971 C1994 0.950 . S
H1972 C1995 0.950 . S
H1973 C1997 0.950 . S
H1974 C1998 0.950 . S
H1975 C1999 0.951 . S
H1976 C2001 0.951 . S
H1977 C2003 0.950 . S
H1978 C2004 0.950 . S
H1979 C2006 0.950 . S
H1980 C2009 0.950 . S
H1981 C2010 0.950 . S
H1982 C2012 0.950 . S
H1983 C2013 0.950 . S
C1984 H1966 0.951 . S
C1984 C1985 1.366 . S
C1984 C1986 1.388 . S
C1985 C1984 1.366 . S
C1985 C1989 1.385 . S
C1986 H1967 0.951 . S
C1986 C1984 1.388 . S
C1986 C1987 1.366 . S
C1987 C1986 1.366 . S
C1987 C1988 1.414 . S
C1987 C1990 1.499 . S
C1988 H1968 0.950 . S
C1988 C1987 1.414 . S
C1988 C1989 1.374 . S
C1989 H1969 0.950 . S
C1989 C1985 1.385 . S
C1989 C1988 1.374 . S
C1990 C1987 1.499 . S
C1990 C1991 1.373 . S
C1990 C1992 1.389 . S
C1991 H1970 0.950 . S
C1991 C1990 1.373 . S
C1991 C2007 1.377 . S
C1992 C1990 1.389 . S
C1992 C1993 1.524 . S
C1992 C2006 1.377 . S
C1993 C1992 1.524 . S
C1993 C1994 1.397 . S
C1993 C1998 1.363 . S
C1994 H1971 0.950 . S
C1994 C1993 1.397 . S
C1994 C1995 1.334 . S
C1995 H1972 0.950 . S
C1995 C1994 1.334 . S
C1995 C1996 1.287 . S
C1996 C1995 1.287 . S
C1996 C1997 1.524 . S
C1996 H2015 0.913 . S
C1997 H1973 0.950 . S
C1997 C1996 1.524 . S
C1997 C1998 1.415 . S
C1998 H1974 0.950 . S
C1998 C1993 1.363 . S
C1998 C1997 1.415 . S
C1999 H1975 0.951 . S
C1999 C2000 1.366 . S
C1999 C2001 1.388 . S
C2000 C1999 1.366 . S
C2000 C2004 1.385 . S
C2001 H1976 0.951 . S
C2001 C1999 1.388 . S
C2001 C2002 1.366 . S
C2002 C2001 1.366 . S
C2002 C2003 1.414 . S
C2002 C2005 1.499 . S
C2003 H1977 0.950 . S
C2003 C2002 1.414 . S
C2003 C2004 1.374 . S
C2004 H1978 0.950 . S
C2004 C2000 1.385 . S
C2004 C2003 1.374 . S
C2005 C2002 1.499 . S
C2005 C2006 1.373 . S
C2005 C2007 1.389 . S
C2006 H1979 0.950 . S
C2006 C1992 1.377 . S
C2006 C2005 1.373 . S
C2007 C1991 1.377 . S
C2007 C2005 1.389 . S
C2007 C2008 1.524 . S
C2008 C2007 1.524 . S
C2008 C2009 1.397 . S
C2008 C2013 1.363 . S
C2009 H1980 0.950 . S
C2009 C2008 1.397 . S
C2009 C2010 1.334 . S
C2010 H1981 0.950 . S
C2010 C2009 1.334 . S
C2010 C2011 1.287 . S
C2011 C2010 1.287 . S
C2011 C2012 1.524 . S
C2011 H2014 0.999 . S
C2012 H1982 0.950 . S
C2012 C2011 1.524 . S
C2012 C2013 1.415 . S
C2013 H1983 0.950 . S
C2013 C2008 1.363 . S
C2013 C2012 1.415 . S
H2014 C2011 0.999 . S
H2015 C1996 0.913 . S
H2016 C2034 0.951 . S
H2017 C2036 0.951 . S
H2018 C2038 0.950 . S
H2019 C2039 0.950 . S
H2020 C2041 0.950 . S
H2021 C2044 0.950 . S
H2022 C2045 0.950 . S
H2023 C2047 0.950 . S
H2024 C2048 0.950 . S
H2025 C2049 0.951 . S
H2026 C2051 0.951 . S
H2027 C2053 0.950 . S
H2028 C2054 0.950 . S
H2029 C2056 0.950 . S
H2030 C2059 0.950 . S
H2031 C2060 0.950 . S
H2032 C2062 0.950 . S
H2033 C2063 0.950 . S
C2034 H2016 0.951 . S
C2034 C2035 1.366 . S
C2034 C2036 1.388 . S
C2035 C2034 1.366 . S
C2035 C2039 1.385 . S
C2036 H2017 0.951 . S
C2036 C2034 1.388 . S
C2036 C2037 1.366 . S
C2037 C2036 1.366 . S
C2037 C2038 1.414 . S
C2037 C2040 1.499 . S
C2038 H2018 0.950 . S
C2038 C2037 1.414 . S
C2038 C2039 1.374 . S
C2039 H2019 0.950 . S
C2039 C2035 1.385 . S
C2039 C2038 1.374 . S
C2040 C2037 1.499 . S
C2040 C2041 1.373 . S
C2040 C2042 1.389 . S
C2041 H2020 0.950 . S
C2041 C2040 1.373 . S
C2041 C2057 1.377 . S
C2042 C2040 1.389 . S
C2042 C2043 1.524 . S
C2042 C2056 1.377 . S
C2043 C2042 1.524 . S
C2043 C2044 1.397 . S
C2043 C2048 1.363 . S
C2044 H2021 0.950 . S
C2044 C2043 1.397 . S
C2044 C2045 1.334 . S
C2045 H2022 0.950 . S
C2045 C2044 1.334 . S
C2045 C2046 1.287 . S
C2046 C2045 1.287 . S
C2046 C2047 1.524 . S
C2046 H2065 0.913 . S
C2047 H2023 0.950 . S
C2047 C2046 1.524 . S
C2047 C2048 1.415 . S
C2048 H2024 0.950 . S
C2048 C2043 1.363 . S
C2048 C2047 1.415 . S
C2049 H2025 0.951 . S
C2049 C2050 1.366 . S
C2049 C2051 1.388 . S
C2050 C2049 1.366 . S
C2050 C2054 1.385 . S
C2051 H2026 0.951 . S
C2051 C2049 1.388 . S
C2051 C2052 1.366 . S
C2052 C2051 1.366 . S
C2052 C2053 1.414 . S
C2052 C2055 1.499 . S
C2053 H2027 0.950 . S
C2053 C2052 1.414 . S
C2053 C2054 1.374 . S
C2054 H2028 0.950 . S
C2054 C2050 1.385 . S
C2054 C2053 1.374 . S
C2055 C2052 1.499 . S
C2055 C2056 1.373 . S
C2055 C2057 1.389 . S
C2056 H2029 0.950 . S
C2056 C2042 1.377 . S
C2056 C2055 1.373 . S
C2057 C2041 1.377 . S
C2057 C2055 1.389 . S
C2057 C2058 1.524 . S
C2058 C2057 1.524 . S
C2058 C2059 1.397 . S
C2058 C2063 1.363 . S
C2059 H2030 0.950 . S
C2059 C2058 1.397 . S
C2059 C2060 1.334 . S
C2060 H2031 0.950 . S
C2060 C2059 1.334 . S
C2060 C2061 1.287 . S
C2061 C2060 1.287 . S
C2061 C2062 1.524 . S
C2061 H2064 0.999 . S
C2062 H2032 0.950 . S
C2062 C2061 1.524 . S
C2062 C2063 1.415 . S
C2063 H2033 0.950 . S
C2063 C2058 1.363 . S
C2063 C2062 1.415 . S
H2064 C2061 0.999 . S
H2065 C2046 0.913 . S
H2066 C2084 0.951 . S
H2067 C2086 0.951 . S
H2068 C2088 0.950 . S
H2069 C2089 0.950 . S
H2070 C2091 0.950 . S
H2071 C2094 0.950 . S
H2072 C2095 0.950 . S
H2073 C2097 0.950 . S
H2074 C2098 0.950 . S
H2075 C2099 0.951 . S
H2076 C2101 0.951 . S
H2077 C2103 0.950 . S
H2078 C2104 0.950 . S
H2079 C2106 0.950 . S
H2080 C2109 0.950 . S
H2081 C2110 0.950 . S
H2082 C2112 0.950 . S
H2083 C2113 0.950 . S
C2084 H2066 0.951 . S
C2084 C2085 1.366 . S
C2084 C2086 1.388 . S
C2085 C2084 1.366 . S
C2085 C2089 1.385 . S
C2086 H2067 0.951 . S
C2086 C2084 1.388 . S
C2086 C2087 1.366 . S
C2087 C2086 1.366 . S
C2087 C2088 1.414 . S
C2087 C2090 1.499 . S
C2088 H2068 0.950 . S
C2088 C2087 1.414 . S
C2088 C2089 1.374 . S
C2089 H2069 0.950 . S
C2089 C2085 1.385 . S
C2089 C2088 1.374 . S
C2090 C2087 1.499 . S
C2090 C2091 1.373 . S
C2090 C2092 1.389 . S
C2091 H2070 0.950 . S
C2091 C2090 1.373 . S
C2091 C2107 1.377 . S
C2092 C2090 1.389 . S
C2092 C2093 1.524 . S
C2092 C2106 1.377 . S
C2093 C2092 1.524 . S
C2093 C2094 1.397 . S
C2093 C2098 1.363 . S
C2094 H2071 0.950 . S
C2094 C2093 1.397 . S
C2094 C2095 1.334 . S
C2095 H2072 0.950 . S
C2095 C2094 1.334 . S
C2095 C2096 1.287 . S
C2096 C2095 1.287 . S
C2096 C2097 1.524 . S
C2096 H2115 0.913 . S
C2097 H2073 0.950 . S
C2097 C2096 1.524 . S
C2097 C2098 1.415 . S
C2098 H2074 0.950 . S
C2098 C2093 1.363 . S
C2098 C2097 1.415 . S
C2099 H2075 0.951 . S
C2099 C2100 1.366 . S
C2099 C2101 1.388 . S
C2100 C2099 1.366 . S
C2100 C2104 1.385 . S
C2101 H2076 0.951 . S
C2101 C2099 1.388 . S
C2101 C2102 1.366 . S
C2102 C2101 1.366 . S
C2102 C2103 1.414 . S
C2102 C2105 1.499 . S
C2103 H2077 0.950 . S
C2103 C2102 1.414 . S
C2103 C2104 1.374 . S
C2104 H2078 0.950 . S
C2104 C2100 1.385 . S
C2104 C2103 1.374 . S
C2105 C2102 1.499 . S
C2105 C2106 1.373 . S
C2105 C2107 1.389 . S
C2106 H2079 0.950 . S
C2106 C2092 1.377 . S
C2106 C2105 1.373 . S
C2107 C2091 1.377 . S
C2107 C2105 1.389 . S
C2107 C2108 1.524 . S
C2108 C2107 1.524 . S
C2108 C2109 1.397 . S
C2108 C2113 1.363 . S
C2109 H2080 0.950 . S
C2109 C2108 1.397 . S
C2109 C2110 1.334 . S
C2110 H2081 0.950 . S
C2110 C2109 1.334 . S
C2110 C2111 1.287 . S
C2111 C2110 1.287 . S
C2111 C2112 1.524 . S
C2111 H2114 0.999 . S
C2112 H2082 0.950 . S
C2112 C2111 1.524 . S
C2112 C2113 1.415 . S
C2113 H2083 0.950 . S
C2113 C2108 1.363 . S
C2113 C2112 1.415 . S
H2114 C2111 0.999 . S
H2115 C2096 0.913 . S
H2116 C2134 0.951 . S
H2117 C2136 0.951 . S
H2118 C2138 0.950 . S
H2119 C2139 0.950 . S
H2120 C2141 0.950 . S
H2121 C2144 0.950 . S
H2122 C2145 0.950 . S
H2123 C2147 0.950 . S
H2124 C2148 0.950 . S
H2125 C2149 0.951 . S
H2126 C2151 0.951 . S
H2127 C2153 0.950 . S
H2128 C2154 0.950 . S
H2129 C2156 0.950 . S
H2130 C2159 0.950 . S
H2131 C2160 0.950 . S
H2132 C2162 0.950 . S
H2133 C2163 0.950 . S
C2134 H2116 0.951 . S
C2134 C2135 1.366 . S
C2134 C2136 1.388 . S
C2135 C2134 1.366 . S
C2135 C2139 1.385 . S
C2136 H2117 0.951 . S
C2136 C2134 1.388 . S
C2136 C2137 1.366 . S
C2137 C2136 1.366 . S
C2137 C2138 1.414 . S
C2137 C2140 1.499 . S
C2138 H2118 0.950 . S
C2138 C2137 1.414 . S
C2138 C2139 1.374 . S
C2139 H2119 0.950 . S
C2139 C2135 1.385 . S
C2139 C2138 1.374 . S
C2140 C2137 1.499 . S
C2140 C2141 1.373 . S
C2140 C2142 1.389 . S
C2141 H2120 0.950 . S
C2141 C2140 1.373 . S
C2141 C2157 1.377 . S
C2142 C2140 1.389 . S
C2142 C2143 1.524 . S
C2142 C2156 1.377 . S
C2143 C2142 1.524 . S
C2143 C2144 1.397 . S
C2143 C2148 1.363 . S
C2144 H2121 0.950 . S
C2144 C2143 1.397 . S
C2144 C2145 1.334 . S
C2145 H2122 0.950 . S
C2145 C2144 1.334 . S
C2145 C2146 1.287 . S
C2146 C2145 1.287 . S
C2146 C2147 1.524 . S
C2146 H2165 0.913 . S
C2147 H2123 0.950 . S
C2147 C2146 1.524 . S
C2147 C2148 1.415 . S
C2148 H2124 0.950 . S
C2148 C2143 1.363 . S
C2148 C2147 1.415 . S
C2149 H2125 0.951 . S
C2149 C2150 1.366 . S
C2149 C2151 1.388 . S
C2150 C2149 1.366 . S
C2150 C2154 1.385 . S
C2151 H2126 0.951 . S
C2151 C2149 1.388 . S
C2151 C2152 1.366 . S
C2152 C2151 1.366 . S
C2152 C2153 1.414 . S
C2152 C2155 1.499 . S
C2153 H2127 0.950 . S
C2153 C2152 1.414 . S
C2153 C2154 1.374 . S
C2154 H2128 0.950 . S
C2154 C2150 1.385 . S
C2154 C2153 1.374 . S
C2155 C2152 1.499 . S
C2155 C2156 1.373 . S
C2155 C2157 1.389 . S
C2156 H2129 0.950 . S
C2156 C2142 1.377 . S
C2156 C2155 1.373 . S
C2157 C2141 1.377 . S
C2157 C2155 1.389 . S
C2157 C2158 1.524 . S
C2158 C2157 1.524 . S
C2158 C2159 1.397 . S
C2158 C2163 1.363 . S
C2159 H2130 0.950 . S
C2159 C2158 1.397 . S
C2159 C2160 1.334 . S
C2160 H2131 0.950 . S
C2160 C2159 1.334 . S
C2160 C2161 1.287 . S
C2161 C2160 1.287 . S
C2161 C2162 1.524 . S
C2161 H2164 0.999 . S
C2162 H2132 0.950 . S
C2162 C2161 1.524 . S
C2162 C2163 1.415 . S
C2163 H2133 0.950 . S
C2163 C2158 1.363 . S
C2163 C2162 1.415 . S
H2164 C2161 0.999 . S
H2165 C2146 0.913 . S
H2166 C2184 0.951 . S
H2167 C2186 0.951 . S
H2168 C2188 0.950 . S
H2169 C2189 0.950 . S
H2170 C2191 0.950 . S
H2171 C2194 0.950 . S
H2172 C2195 0.950 . S
H2173 C2197 0.950 . S
H2174 C2198 0.950 . S
H2175 C2199 0.951 . S
H2176 C2201 0.951 . S
H2177 C2203 0.950 . S
H2178 C2204 0.950 . S
H2179 C2206 0.950 . S
H2180 C2209 0.950 . S
H2181 C2210 0.950 . S
H2182 C2212 0.950 . S
H2183 C2213 0.950 . S
C2184 H2166 0.951 . S
C2184 C2185 1.366 . S
C2184 C2186 1.388 . S
C2185 C2184 1.366 . S
C2185 C2189 1.385 . S
C2186 H2167 0.951 . S
C2186 C2184 1.388 . S
C2186 C2187 1.366 . S
C2187 C2186 1.366 . S
C2187 C2188 1.414 . S
C2187 C2190 1.499 . S
C2188 H2168 0.950 . S
C2188 C2187 1.414 . S
C2188 C2189 1.374 . S
C2189 H2169 0.950 . S
C2189 C2185 1.385 . S
C2189 C2188 1.374 . S
C2190 C2187 1.499 . S
C2190 C2191 1.373 . S
C2190 C2192 1.389 . S
C2191 H2170 0.950 . S
C2191 C2190 1.373 . S
C2191 C2207 1.377 . S
C2192 C2190 1.389 . S
C2192 C2193 1.524 . S
C2192 C2206 1.377 . S
C2193 C2192 1.524 . S
C2193 C2194 1.397 . S
C2193 C2198 1.363 . S
C2194 H2171 0.950 . S
C2194 C2193 1.397 . S
C2194 C2195 1.334 . S
C2195 H2172 0.950 . S
C2195 C2194 1.334 . S
C2195 C2196 1.287 . S
C2196 C2195 1.287 . S
C2196 C2197 1.524 . S
C2196 H2215 0.913 . S
C2197 H2173 0.950 . S
C2197 C2196 1.524 . S
C2197 C2198 1.415 . S
C2198 H2174 0.950 . S
C2198 C2193 1.363 . S
C2198 C2197 1.415 . S
C2199 H2175 0.951 . S
C2199 C2200 1.366 . S
C2199 C2201 1.388 . S
C2200 C2199 1.366 . S
C2200 C2204 1.385 . S
C2201 H2176 0.951 . S
C2201 C2199 1.388 . S
C2201 C2202 1.366 . S
C2202 C2201 1.366 . S
C2202 C2203 1.414 . S
C2202 C2205 1.499 . S
C2203 H2177 0.950 . S
C2203 C2202 1.414 . S
C2203 C2204 1.374 . S
C2204 H2178 0.950 . S
C2204 C2200 1.385 . S
C2204 C2203 1.374 . S
C2205 C2202 1.499 . S
C2205 C2206 1.373 . S
C2205 C2207 1.389 . S
C2206 H2179 0.950 . S
C2206 C2192 1.377 . S
C2206 C2205 1.373 . S
C2207 C2191 1.377 . S
C2207 C2205 1.389 . S
C2207 C2208 1.524 . S
C2208 C2207 1.524 . S
C2208 C2209 1.397 . S
C2208 C2213 1.363 . S
C2209 H2180 0.950 . S
C2209 C2208 1.397 . S
C2209 C2210 1.334 . S
C2210 H2181 0.950 . S
C2210 C2209 1.334 . S
C2210 C2211 1.287 . S
C2211 C2210 1.287 . S
C2211 C2212 1.524 . S
C2211 H2214 0.999 . S
C2212 H2182 0.950 . S
C2212 C2211 1.524 . S
C2212 C2213 1.415 . S
C2213 H2183 0.950 . S
C2213 C2208 1.363 . S
C2213 C2212 1.415 . S
H2214 C2211 0.999 . S
H2215 C2196 0.913 . S
H2216 C2234 0.951 . S
H2217 C2236 0.951 . S
H2218 C2238 0.950 . S
H2219 C2239 0.950 . S
H2220 C2241 0.950 . S
H2221 C2244 0.950 . S
H2222 C2245 0.950 . S
H2223 C2247 0.950 . S
H2224 C2248 0.950 . S
H2225 C2249 0.951 . S
H2226 C2251 0.951 . S
H2227 C2253 0.950 . S
H2228 C2254 0.950 . S
H2229 C2256 0.950 . S
H2230 C2259 0.950 . S
H2231 C2260 0.950 . S
H2232 C2262 0.950 . S
H2233 C2263 0.950 . S
C2234 H2216 0.951 . S
C2234 C2235 1.366 . S
C2234 C2236 1.388 . S
C2235 C2234 1.366 . S
C2235 C2239 1.385 . S
C2236 H2217 0.951 . S
C2236 C2234 1.388 . S
C2236 C2237 1.366 . S
C2237 C2236 1.366 . S
C2237 C2238 1.414 . S
C2237 C2240 1.499 . S
C2238 H2218 0.950 . S
C2238 C2237 1.414 . S
C2238 C2239 1.374 . S
C2239 H2219 0.950 . S
C2239 C2235 1.385 . S
C2239 C2238 1.374 . S
C2240 C2237 1.499 . S
C2240 C2241 1.373 . S
C2240 C2242 1.389 . S
C2241 H2220 0.950 . S
C2241 C2240 1.373 . S
C2241 C2257 1.377 . S
C2242 C2240 1.389 . S
C2242 C2243 1.524 . S
C2242 C2256 1.377 . S
C2243 C2242 1.524 . S
C2243 C2244 1.397 . S
C2243 C2248 1.363 . S
C2244 H2221 0.950 . S
C2244 C2243 1.397 . S
C2244 C2245 1.334 . S
C2245 H2222 0.950 . S
C2245 C2244 1.334 . S
C2245 C2246 1.287 . S
C2246 C2245 1.287 . S
C2246 C2247 1.524 . S
C2246 H2265 0.913 . S
C2247 H2223 0.950 . S
C2247 C2246 1.524 . S
C2247 C2248 1.415 . S
C2248 H2224 0.950 . S
C2248 C2243 1.363 . S
C2248 C2247 1.415 . S
C2249 H2225 0.951 . S
C2249 C2250 1.366 . S
C2249 C2251 1.388 . S
C2250 C2249 1.366 . S
C2250 C2254 1.385 . S
C2251 H2226 0.951 . S
C2251 C2249 1.388 . S
C2251 C2252 1.366 . S
C2252 C2251 1.366 . S
C2252 C2253 1.414 . S
C2252 C2255 1.499 . S
C2253 H2227 0.950 . S
C2253 C2252 1.414 . S
C2253 C2254 1.374 . S
C2254 H2228 0.950 . S
C2254 C2250 1.385 . S
C2254 C2253 1.374 . S
C2255 C2252 1.499 . S
C2255 C2256 1.373 . S
C2255 C2257 1.389 . S
C2256 H2229 0.950 . S
C2256 C2242 1.377 . S
C2256 C2255 1.373 . S
C2257 C2241 1.377 . S
C2257 C2255 1.389 . S
C2257 C2258 1.524 . S
C2258 C2257 1.524 . S
C2258 C2259 1.397 . S
C2258 C2263 1.363 . S
C2259 H2230 0.950 . S
C2259 C2258 1.397 . S
C2259 C2260 1.334 . S
C2260 H2231 0.950 . S
C2260 C2259 1.334 . S
C2260 C2261 1.287 . S
C2261 C2260 1.287 . S
C2261 C2262 1.524 . S
C2261 H2264 0.999 . S
C2262 H2232 0.950 . S
C2262 C2261 1.524 . S
C2262 C2263 1.415 . S
C2263 H2233 0.950 . S
C2263 C2258 1.363 . S
C2263 C2262 1.415 . S
H2264 C2261 0.999 . S
H2265 C2246 0.913 . S
H2266 C2284 0.951 . S
H2267 C2286 0.951 . S
H2268 C2288 0.950 . S
H2269 C2289 0.950 . S
H2270 C2291 0.950 . S
H2271 C2294 0.950 . S
H2272 C2295 0.950 . S
H2273 C2297 0.950 . S
H2274 C2298 0.950 . S
H2275 C2299 0.951 . S
H2276 C2301 0.951 . S
H2277 C2303 0.950 . S
H2278 C2304 0.950 . S
H2279 C2306 0.950 . S
H2280 C2309 0.950 . S
H2281 C2310 0.950 . S
H2282 C2312 0.950 . S
H2283 C2313 0.950 . S
C2284 H2266 0.951 . S
C2284 C2285 1.366 . S
C2284 C2286 1.388 . S
C2285 C2284 1.366 . S
C2285 C2289 1.385 . S
C2286 H2267 0.951 . S
C2286 C2284 1.388 . S
C2286 C2287 1.366 . S
C2287 C2286 1.366 . S
C2287 C2288 1.414 . S
C2287 C2290 1.499 . S
C2288 H2268 0.950 . S
C2288 C2287 1.414 . S
C2288 C2289 1.374 . S
C2289 H2269 0.950 . S
C2289 C2285 1.385 . S
C2289 C2288 1.374 . S
C2290 C2287 1.499 . S
C2290 C2291 1.373 . S
C2290 C2292 1.389 . S
C2291 H2270 0.950 . S
C2291 C2290 1.373 . S
C2291 C2307 1.377 . S
C2292 C2290 1.389 . S
C2292 C2293 1.524 . S
C2292 C2306 1.377 . S
C2293 C2292 1.524 . S
C2293 C2294 1.397 . S
C2293 C2298 1.363 . S
C2294 H2271 0.950 . S
C2294 C2293 1.397 . S
C2294 C2295 1.334 . S
C2295 H2272 0.950 . S
C2295 C2294 1.334 . S
C2295 C2296 1.287 . S
C2296 C2295 1.287 . S
C2296 C2297 1.524 . S
C2296 H2315 0.913 . S
C2297 H2273 0.950 . S
C2297 C2296 1.524 . S
C2297 C2298 1.415 . S
C2298 H2274 0.950 . S
C2298 C2293 1.363 . S
C2298 C2297 1.415 . S
C2299 H2275 0.951 . S
C2299 C2300 1.366 . S
C2299 C2301 1.388 . S
C2300 C2299 1.366 . S
C2300 C2304 1.385 . S
C2301 H2276 0.951 . S
C2301 C2299 1.388 . S
C2301 C2302 1.366 . S
C2302 C2301 1.366 . S
C2302 C2303 1.414 . S
C2302 C2305 1.499 . S
C2303 H2277 0.950 . S
C2303 C2302 1.414 . S
C2303 C2304 1.374 . S
C2304 H2278 0.950 . S
C2304 C2300 1.385 . S
C2304 C2303 1.374 . S
C2305 C2302 1.499 . S
C2305 C2306 1.373 . S
C2305 C2307 1.389 . S
C2306 H2279 0.950 . S
C2306 C2292 1.377 . S
C2306 C2305 1.373 . S
C2307 C2291 1.377 . S
C2307 C2305 1.389 . S
C2307 C2308 1.524 . S
C2308 C2307 1.524 . S
C2308 C2309 1.397 . S
C2308 C2313 1.363 . S
C2309 H2280 0.950 . S
C2309 C2308 1.397 . S
C2309 C2310 1.334 . S
C2310 H2281 0.950 . S
C2310 C2309 1.334 . S
C2310 C2311 1.287 . S
C2311 C2310 1.287 . S
C2311 C2312 1.524 . S
C2311 H2314 0.999 . S
C2312 H2282 0.950 . S
C2312 C2311 1.524 . S
C2312 C2313 1.415 . S
C2313 H2283 0.950 . S
C2313 C2308 1.363 . S
C2313 C2312 1.415 . S
H2314 C2311 0.999 . S
H2315 C2296 0.913 . S
H2316 C2334 0.951 . S
H2317 C2336 0.951 . S
H2318 C2338 0.950 . S
H2319 C2339 0.950 . S
H2320 C2341 0.950 . S
H2321 C2344 0.950 . S
H2322 C2345 0.950 . S
H2323 C2347 0.950 . S
H2324 C2348 0.950 . S
H2325 C2349 0.951 . S
H2326 C2351 0.951 . S
H2327 C2353 0.950 . S
H2328 C2354 0.950 . S
H2329 C2356 0.950 . S
H2330 C2359 0.950 . S
H2331 C2360 0.950 . S
H2332 C2362 0.950 . S
H2333 C2363 0.950 . S
C2334 H2316 0.951 . S
C2334 C2335 1.366 . S
C2334 C2336 1.388 . S
C2335 C2334 1.366 . S
C2335 C2339 1.385 . S
C2336 H2317 0.951 . S
C2336 C2334 1.388 . S
C2336 C2337 1.366 . S
C2337 C2336 1.366 . S
C2337 C2338 1.414 . S
C2337 C2340 1.499 . S
C2338 H2318 0.950 . S
C2338 C2337 1.414 . S
C2338 C2339 1.374 . S
C2339 H2319 0.950 . S
C2339 C2335 1.385 . S
C2339 C2338 1.374 . S
C2340 C2337 1.499 . S
C2340 C2341 1.373 . S
C2340 C2342 1.389 . S
C2341 H2320 0.950 . S
C2341 C2340 1.373 . S
C2341 C2357 1.377 . S
C2342 C2340 1.389 . S
C2342 C2343 1.524 . S
C2342 C2356 1.377 . S
C2343 C2342 1.524 . S
C2343 C2344 1.397 . S
C2343 C2348 1.363 . S
C2344 H2321 0.950 . S
C2344 C2343 1.397 . S
C2344 C2345 1.334 . S
C2345 H2322 0.950 . S
C2345 C2344 1.334 . S
C2345 C2346 1.287 . S
C2346 C2345 1.287 . S
C2346 C2347 1.524 . S
C2346 H2365 0.913 . S
C2347 H2323 0.950 . S
C2347 C2346 1.524 . S
C2347 C2348 1.415 . S
C2348 H2324 0.950 . S
C2348 C2343 1.363 . S
C2348 C2347 1.415 . S
C2349 H2325 0.951 . S
C2349 C2350 1.366 . S
C2349 C2351 1.388 . S
C2350 C2349 1.366 . S
C2350 C2354 1.385 . S
C2351 H2326 0.951 . S
C2351 C2349 1.388 . S
C2351 C2352 1.366 . S
C2352 C2351 1.366 . S
C2352 C2353 1.414 . S
C2352 C2355 1.499 . S
C2353 H2327 0.950 . S
C2353 C2352 1.414 . S
C2353 C2354 1.374 . S
C2354 H2328 0.950 . S
C2354 C2350 1.385 . S
C2354 C2353 1.374 . S
C2355 C2352 1.499 . S
C2355 C2356 1.373 . S
C2355 C2357 1.389 . S
C2356 H2329 0.950 . S
C2356 C2342 1.377 . S
C2356 C2355 1.373 . S
C2357 C2341 1.377 . S
C2357 C2355 1.389 . S
C2357 C2358 1.524 . S
C2358 C2357 1.524 . S
C2358 C2359 1.397 . S
C2358 C2363 1.363 . S
C2359 H2330 0.950 . S
C2359 C2358 1.397 . S
C2359 C2360 1.334 . S
C2360 H2331 0.950 . S
C2360 C2359 1.334 . S
C2360 C2361 1.287 . S
C2361 C2360 1.287 . S
C2361 C2362 1.524 . S
C2361 H2364 0.999 . S
C2362 H2332 0.950 . S
C2362 C2361 1.524 . S
C2362 C2363 1.415 . S
C2363 H2333 0.950 . S
C2363 C2358 1.363 . S
C2363 C2362 1.415 . S
H2364 C2361 0.999 . S
H2365 C2346 0.913 . S
H2366 C2384 0.951 . S
H2367 C2386 0.951 . S
H2368 C2388 0.950 . S
H2369 C2389 0.950 . S
H2370 C2391 0.950 . S
H2371 C2394 0.950 . S
H2372 C2395 0.950 . S
H2373 C2397 0.950 . S
H2374 C2398 0.950 . S
H2375 C2399 0.951 . S
H2376 C2401 0.951 . S
H2377 C2403 0.950 . S
H2378 C2404 0.950 . S
H2379 C2406 0.950 . S
H2380 C2409 0.950 . S
H2381 C2410 0.950 . S
H2382 C2412 0.950 . S
H2383 C2413 0.950 . S
C2384 H2366 0.951 . S
C2384 C2385 1.366 . S
C2384 C2386 1.388 . S
C2385 C2384 1.366 . S
C2385 C2389 1.385 . S
C2386 H2367 0.951 . S
C2386 C2384 1.388 . S
C2386 C2387 1.366 . S
C2387 C2386 1.366 . S
C2387 C2388 1.414 . S
C2387 C2390 1.499 . S
C2388 H2368 0.950 . S
C2388 C2387 1.414 . S
C2388 C2389 1.374 . S
C2389 H2369 0.950 . S
C2389 C2385 1.385 . S
C2389 C2388 1.374 . S
C2390 C2387 1.499 . S
C2390 C2391 1.373 . S
C2390 C2392 1.389 . S
C2391 H2370 0.950 . S
C2391 C2390 1.373 . S
C2391 C2407 1.377 . S
C2392 C2390 1.389 . S
C2392 C2393 1.524 . S
C2392 C2406 1.377 . S
C2393 C2392 1.524 . S
C2393 C2394 1.397 . S
C2393 C2398 1.363 . S
C2394 H2371 0.950 . S
C2394 C2393 1.397 . S
C2394 C2395 1.334 . S
C2395 H2372 0.950 . S
C2395 C2394 1.334 . S
C2395 C2396 1.287 . S
C2396 C2395 1.287 . S
C2396 C2397 1.524 . S
C2396 H2415 0.913 . S
C2397 H2373 0.950 . S
C2397 C2396 1.524 . S
C2397 C2398 1.415 . S
C2398 H2374 0.950 . S
C2398 C2393 1.363 . S
C2398 C2397 1.415 . S
C2399 H2375 0.951 . S
C2399 C2400 1.366 . S
C2399 C2401 1.388 . S
C2400 C2399 1.366 . S
C2400 C2404 1.385 . S
C2401 H2376 0.951 . S
C2401 C2399 1.388 . S
C2401 C2402 1.366 . S
C2402 C2401 1.366 . S
C2402 C2403 1.414 . S
C2402 C2405 1.499 . S
C2403 H2377 0.950 . S
C2403 C2402 1.414 . S
C2403 C2404 1.374 . S
C2404 H2378 0.950 . S
C2404 C2400 1.385 . S
C2404 C2403 1.374 . S
C2405 C2402 1.499 . S
C2405 C2406 1.373 . S
C2405 C2407 1.389 . S
C2406 H2379 0.950 . S
C2406 C2392 1.377 . S
C2406 C2405 1.373 . S
C2407 C2391 1.377 . S
C2407 C2405 1.389 . S
C2407 C2408 1.524 . S
C2408 C2407 1.524 . S
C2408 C2409 1.397 . S
C2408 C2413 1.363 . S
C2409 H2380 0.950 . S
C2409 C2408 1.397 . S
C2409 C2410 1.334 . S
C2410 H2381 0.950 . S
C2410 C2409 1.334 . S
C2410 C2411 1.287 . S
C2411 C2410 1.287 . S
C2411 C2412 1.524 . S
C2411 H2414 0.999 . S
C2412 H2382 0.950 . S
C2412 C2411 1.524 . S
C2412 C2413 1.415 . S
C2413 H2383 0.950 . S
C2413 C2408 1.363 . S
C2413 C2412 1.415 . S
H2414 C2411 0.999 . S
H2415 C2396 0.913 . S
H2416 C2434 0.951 . S
H2417 C2436 0.951 . S
H2418 C2438 0.950 . S
H2419 C2439 0.950 . S
H2420 C2441 0.950 . S
H2421 C2444 0.950 . S
H2422 C2445 0.950 . S
H2423 C2447 0.950 . S
H2424 C2448 0.950 . S
H2425 C2449 0.951 . S
H2426 C2451 0.951 . S
H2427 C2453 0.950 . S
H2428 C2454 0.950 . S
H2429 C2456 0.950 . S
H2430 C2459 0.950 . S
H2431 C2460 0.950 . S
H2432 C2462 0.950 . S
H2433 C2463 0.950 . S
C2434 H2416 0.951 . S
C2434 C2435 1.366 . S
C2434 C2436 1.388 . S
C2435 C2434 1.366 . S
C2435 C2439 1.385 . S
C2436 H2417 0.951 . S
C2436 C2434 1.388 . S
C2436 C2437 1.366 . S
C2437 C2436 1.366 . S
C2437 C2438 1.414 . S
C2437 C2440 1.499 . S
C2438 H2418 0.950 . S
C2438 C2437 1.414 . S
C2438 C2439 1.374 . S
C2439 H2419 0.950 . S
C2439 C2435 1.385 . S
C2439 C2438 1.374 . S
C2440 C2437 1.499 . S
C2440 C2441 1.373 . S
C2440 C2442 1.389 . S
C2441 H2420 0.950 . S
C2441 C2440 1.373 . S
C2441 C2457 1.377 . S
C2442 C2440 1.389 . S
C2442 C2443 1.524 . S
C2442 C2456 1.377 . S
C2443 C2442 1.524 . S
C2443 C2444 1.397 . S
C2443 C2448 1.363 . S
C2444 H2421 0.950 . S
C2444 C2443 1.397 . S
C2444 C2445 1.334 . S
C2445 H2422 0.950 . S
C2445 C2444 1.334 . S
C2445 C2446 1.287 . S
C2446 C2445 1.287 . S
C2446 C2447 1.524 . S
C2446 H2465 0.913 . S
C2447 H2423 0.950 . S
C2447 C2446 1.524 . S
C2447 C2448 1.415 . S
C2448 H2424 0.950 . S
C2448 C2443 1.363 . S
C2448 C2447 1.415 . S
C2449 H2425 0.951 . S
C2449 C2450 1.366 . S
C2449 C2451 1.388 . S
C2450 C2449 1.366 . S
C2450 C2454 1.385 . S
C2451 H2426 0.951 . S
C2451 C2449 1.388 . S
C2451 C2452 1.366 . S
C2452 C2451 1.366 . S
C2452 C2453 1.414 . S
C2452 C2455 1.499 . S
C2453 H2427 0.950 . S
C2453 C2452 1.414 . S
C2453 C2454 1.374 . S
C2454 H2428 0.950 . S
C2454 C2450 1.385 . S
C2454 C2453 1.374 . S
C2455 C2452 1.499 . S
C2455 C2456 1.373 . S
C2455 C2457 1.389 . S
C2456 H2429 0.950 . S
C2456 C2442 1.377 . S
C2456 C2455 1.373 . S
C2457 C2441 1.377 . S
C2457 C2455 1.389 . S
C2457 C2458 1.524 . S
C2458 C2457 1.524 . S
C2458 C2459 1.397 . S
C2458 C2463 1.363 . S
C2459 H2430 0.950 . S
C2459 C2458 1.397 . S
C2459 C2460 1.334 . S
C2460 H2431 0.950 . S
C2460 C2459 1.334 . S
C2460 C2461 1.287 . S
C2461 C2460 1.287 . S
C2461 C2462 1.524 . S
C2461 H2464 0.999 . S
C2462 H2432 0.950 . S
C2462 C2461 1.524 . S
C2462 C2463 1.415 . S
C2463 H2433 0.950 . S
C2463 C2458 1.363 . S
C2463 C2462 1.415 . S
H2464 C2461 0.999 . S
H2465 C2446 0.913 . S
H2466 C2484 0.951 . S
H2467 C2486 0.951 . S
H2468 C2488 0.950 . S
H2469 C2489 0.950 . S
H2470 C2491 0.950 . S
H2471 C2494 0.950 . S
H2472 C2495 0.950 . S
H2473 C2497 0.950 . S
H2474 C2498 0.950 . S
H2475 C2499 0.951 . S
H2476 C2501 0.951 . S
H2477 C2503 0.950 . S
H2478 C2504 0.950 . S
H2479 C2506 0.950 . S
H2480 C2509 0.950 . S
H2481 C2510 0.950 . S
H2482 C2512 0.950 . S
H2483 C2513 0.950 . S
C2484 H2466 0.951 . S
C2484 C2485 1.366 . S
C2484 C2486 1.388 . S
C2485 C2484 1.366 . S
C2485 C2489 1.385 . S
C2486 H2467 0.951 . S
C2486 C2484 1.388 . S
C2486 C2487 1.366 . S
C2487 C2486 1.366 . S
C2487 C2488 1.414 . S
C2487 C2490 1.499 . S
C2488 H2468 0.950 . S
C2488 C2487 1.414 . S
C2488 C2489 1.374 . S
C2489 H2469 0.950 . S
C2489 C2485 1.385 . S
C2489 C2488 1.374 . S
C2490 C2487 1.499 . S
C2490 C2491 1.373 . S
C2490 C2492 1.389 . S
C2491 H2470 0.950 . S
C2491 C2490 1.373 . S
C2491 C2507 1.377 . S
C2492 C2490 1.389 . S
C2492 C2493 1.524 . S
C2492 C2506 1.377 . S
C2493 C2492 1.524 . S
C2493 C2494 1.397 . S
C2493 C2498 1.363 . S
C2494 H2471 0.950 . S
C2494 C2493 1.397 . S
C2494 C2495 1.334 . S
C2495 H2472 0.950 . S
C2495 C2494 1.334 . S
C2495 C2496 1.287 . S
C2496 C2495 1.287 . S
C2496 C2497 1.524 . S
C2496 H2515 0.913 . S
C2497 H2473 0.950 . S
C2497 C2496 1.524 . S
C2497 C2498 1.415 . S
C2498 H2474 0.950 . S
C2498 C2493 1.363 . S
C2498 C2497 1.415 . S
C2499 H2475 0.951 . S
C2499 C2500 1.366 . S
C2499 C2501 1.388 . S
C2500 C2499 1.366 . S
C2500 C2504 1.385 . S
C2501 H2476 0.951 . S
C2501 C2499 1.388 . S
C2501 C2502 1.366 . S
C2502 C2501 1.366 . S
C2502 C2503 1.414 . S
C2502 C2505 1.499 . S
C2503 H2477 0.950 . S
C2503 C2502 1.414 . S
C2503 C2504 1.374 . S
C2504 H2478 0.950 . S
C2504 C2500 1.385 . S
C2504 C2503 1.374 . S
C2505 C2502 1.499 . S
C2505 C2506 1.373 . S
C2505 C2507 1.389 . S
C2506 H2479 0.950 . S
C2506 C2492 1.377 . S
C2506 C2505 1.373 . S
C2507 C2491 1.377 . S
C2507 C2505 1.389 . S
C2507 C2508 1.524 . S
C2508 C2507 1.524 . S
C2508 C2509 1.397 . S
C2508 C2513 1.363 . S
C2509 H2480 0.950 . S
C2509 C2508 1.397 . S
C2509 C2510 1.334 . S
C2510 H2481 0.950 . S
C2510 C2509 1.334 . S
C2510 C2511 1.287 . S
C2511 C2510 1.287 . S
C2511 C2512 1.524 . S
C2511 H2514 0.999 . S
C2512 H2482 0.950 . S
C2512 C2511 1.524 . S
C2512 C2513 1.415 . S
C2513 H2483 0.950 . S
C2513 C2508 1.363 . S
C2513 C2512 1.415 . S
H2514 C2511 0.999 . S
H2515 C2496 0.913 . S
H2516 C2534 0.951 . S
H2517 C2536 0.951 . S
H2518 C2538 0.950 . S
H2519 C2539 0.950 . S
H2520 C2541 0.950 . S
H2521 C2544 0.950 . S
H2522 C2545 0.950 . S
H2523 C2547 0.950 . S
H2524 C2548 0.950 . S
H2525 C2549 0.951 . S
H2526 C2551 0.951 . S
H2527 C2553 0.950 . S
H2528 C2554 0.950 . S
H2529 C2556 0.950 . S
H2530 C2559 0.950 . S
H2531 C2560 0.950 . S
H2532 C2562 0.950 . S
H2533 C2563 0.950 . S
C2534 H2516 0.951 . S
C2534 C2535 1.366 . S
C2534 C2536 1.388 . S
C2535 C2534 1.366 . S
C2535 C2539 1.385 . S
C2536 H2517 0.951 . S
C2536 C2534 1.388 . S
C2536 C2537 1.366 . S
C2537 C2536 1.366 . S
C2537 C2538 1.414 . S
C2537 C2540 1.499 . S
C2538 H2518 0.950 . S
C2538 C2537 1.414 . S
C2538 C2539 1.374 . S
C2539 H2519 0.950 . S
C2539 C2535 1.385 . S
C2539 C2538 1.374 . S
C2540 C2537 1.499 . S
C2540 C2541 1.373 . S
C2540 C2542 1.389 . S
C2541 H2520 0.950 . S
C2541 C2540 1.373 . S
C2541 C2557 1.377 . S
C2542 C2540 1.389 . S
C2542 C2543 1.524 . S
C2542 C2556 1.377 . S
C2543 C2542 1.524 . S
C2543 C2544 1.397 . S
C2543 C2548 1.363 . S
C2544 H2521 0.950 . S
C2544 C2543 1.397 . S
C2544 C2545 1.334 . S
C2545 H2522 0.950 . S
C2545 C2544 1.334 . S
C2545 C2546 1.287 . S
C2546 C2545 1.287 . S
C2546 C2547 1.524 . S
C2546 H2565 0.913 . S
C2547 H2523 0.950 . S
C2547 C2546 1.524 . S
C2547 C2548 1.415 . S
C2548 H2524 0.950 . S
C2548 C2543 1.363 . S
C2548 C2547 1.415 . S
C2549 H2525 0.951 . S
C2549 C2550 1.366 . S
C2549 C2551 1.388 . S
C2550 C2549 1.366 . S
C2550 C2554 1.385 . S
C2551 H2526 0.951 . S
C2551 C2549 1.388 . S
C2551 C2552 1.366 . S
C2552 C2551 1.366 . S
C2552 C2553 1.414 . S
C2552 C2555 1.499 . S
C2553 H2527 0.950 . S
C2553 C2552 1.414 . S
C2553 C2554 1.374 . S
C2554 H2528 0.950 . S
C2554 C2550 1.385 . S
C2554 C2553 1.374 . S
C2555 C2552 1.499 . S
C2555 C2556 1.373 . S
C2555 C2557 1.389 . S
C2556 H2529 0.950 . S
C2556 C2542 1.377 . S
C2556 C2555 1.373 . S
C2557 C2541 1.377 . S
C2557 C2555 1.389 . S
C2557 C2558 1.524 . S
C2558 C2557 1.524 . S
C2558 C2559 1.397 . S
C2558 C2563 1.363 . S
C2559 H2530 0.950 . S
C2559 C2558 1.397 . S
C2559 C2560 1.334 . S
C2560 H2531 0.950 . S
C2560 C2559 1.334 . S
C2560 C2561 1.287 . S
C2561 C2560 1.287 . S
C2561 C2562 1.524 . S
C2561 H2564 0.999 . S
C2562 H2532 0.950 . S
C2562 C2561 1.524 . S
C2562 C2563 1.415 . S
C2563 H2533 0.950 . S
C2563 C2558 1.363 . S
C2563 C2562 1.415 . S
H2564 C2561 0.999 . S
H2565 C2546 0.913 . S
H2566 C2584 0.951 . S
H2567 C2586 0.951 . S
H2568 C2588 0.950 . S
H2569 C2589 0.950 . S
H2570 C2591 0.950 . S
H2571 C2594 0.950 . S
H2572 C2595 0.950 . S
H2573 C2597 0.950 . S
H2574 C2598 0.950 . S
H2575 C2599 0.951 . S
H2576 C2601 0.951 . S
H2577 C2603 0.950 . S
H2578 C2604 0.950 . S
H2579 C2606 0.950 . S
H2580 C2609 0.950 . S
H2581 C2610 0.950 . S
H2582 C2612 0.950 . S
H2583 C2613 0.950 . S
C2584 H2566 0.951 . S
C2584 C2585 1.366 . S
C2584 C2586 1.388 . S
C2585 C2584 1.366 . S
C2585 C2589 1.385 . S
C2586 H2567 0.951 . S
C2586 C2584 1.388 . S
C2586 C2587 1.366 . S
C2587 C2586 1.366 . S
C2587 C2588 1.414 . S
C2587 C2590 1.499 . S
C2588 H2568 0.950 . S
C2588 C2587 1.414 . S
C2588 C2589 1.374 . S
C2589 H2569 0.950 . S
C2589 C2585 1.385 . S
C2589 C2588 1.374 . S
C2590 C2587 1.499 . S
C2590 C2591 1.373 . S
C2590 C2592 1.389 . S
C2591 H2570 0.950 . S
C2591 C2590 1.373 . S
C2591 C2607 1.377 . S
C2592 C2590 1.389 . S
C2592 C2593 1.524 . S
C2592 C2606 1.377 . S
C2593 C2592 1.524 . S
C2593 C2594 1.397 . S
C2593 C2598 1.363 . S
C2594 H2571 0.950 . S
C2594 C2593 1.397 . S
C2594 C2595 1.334 . S
C2595 H2572 0.950 . S
C2595 C2594 1.334 . S
C2595 C2596 1.287 . S
C2596 C2595 1.287 . S
C2596 C2597 1.524 . S
C2596 H2615 0.913 . S
C2597 H2573 0.950 . S
C2597 C2596 1.524 . S
C2597 C2598 1.415 . S
C2598 H2574 0.950 . S
C2598 C2593 1.363 . S
C2598 C2597 1.415 . S
C2599 H2575 0.951 . S
C2599 C2600 1.366 . S
C2599 C2601 1.388 . S
C2600 C2599 1.366 . S
C2600 C2604 1.385 . S
C2601 H2576 0.951 . S
C2601 C2599 1.388 . S
C2601 C2602 1.366 . S
C2602 C2601 1.366 . S
C2602 C2603 1.414 . S
C2602 C2605 1.499 . S
C2603 H2577 0.950 . S
C2603 C2602 1.414 . S
C2603 C2604 1.374 . S
C2604 H2578 0.950 . S
C2604 C2600 1.385 . S
C2604 C2603 1.374 . S
C2605 C2602 1.499 . S
C2605 C2606 1.373 . S
C2605 C2607 1.389 . S
C2606 H2579 0.950 . S
C2606 C2592 1.377 . S
C2606 C2605 1.373 . S
C2607 C2591 1.377 . S
C2607 C2605 1.389 . S
C2607 C2608 1.524 . S
C2608 C2607 1.524 . S
C2608 C2609 1.397 . S
C2608 C2613 1.363 . S
C2609 H2580 0.950 . S
C2609 C2608 1.397 . S
C2609 C2610 1.334 . S
C2610 H2581 0.950 . S
C2610 C2609 1.334 . S
C2610 C2611 1.287 . S
C2611 C2610 1.287 . S
C2611 C2612 1.524 . S
C2611 H2614 0.999 . S
C2612 H2582 0.950 . S
C2612 C2611 1.524 . S
C2612 C2613 1.415 . S
C2613 H2583 0.950 . S
C2613 C2608 1.363 . S
C2613 C2612 1.415 . S
H2614 C2611 0.999 . S
H2615 C2596 0.913 . S
H2616 C2634 0.951 . S
H2617 C2636 0.951 . S
H2618 C2638 0.950 . S
H2619 C2639 0.950 . S
H2620 C2641 0.950 . S
H2621 C2644 0.950 . S
H2622 C2645 0.950 . S
H2623 C2647 0.950 . S
H2624 C2648 0.950 . S
H2625 C2649 0.951 . S
H2626 C2651 0.951 . S
H2627 C2653 0.950 . S
H2628 C2654 0.950 . S
H2629 C2656 0.950 . S
H2630 C2659 0.950 . S
H2631 C2660 0.950 . S
H2632 C2662 0.950 . S
H2633 C2663 0.950 . S
C2634 H2616 0.951 . S
C2634 C2635 1.366 . S
C2634 C2636 1.388 . S
C2635 C2634 1.366 . S
C2635 C2639 1.385 . S
C2636 H2617 0.951 . S
C2636 C2634 1.388 . S
C2636 C2637 1.366 . S
C2637 C2636 1.366 . S
C2637 C2638 1.414 . S
C2637 C2640 1.499 . S
C2638 H2618 0.950 . S
C2638 C2637 1.414 . S
C2638 C2639 1.374 . S
C2639 H2619 0.950 . S
C2639 C2635 1.385 . S
C2639 C2638 1.374 . S
C2640 C2637 1.499 . S
C2640 C2641 1.373 . S
C2640 C2642 1.389 . S
C2641 H2620 0.950 . S
C2641 C2640 1.373 . S
C2641 C2657 1.377 . S
C2642 C2640 1.389 . S
C2642 C2643 1.524 . S
C2642 C2656 1.377 . S
C2643 C2642 1.524 . S
C2643 C2644 1.397 . S
C2643 C2648 1.363 . S
C2644 H2621 0.950 . S
C2644 C2643 1.397 . S
C2644 C2645 1.334 . S
C2645 H2622 0.950 . S
C2645 C2644 1.334 . S
C2645 C2646 1.287 . S
C2646 C2645 1.287 . S
C2646 C2647 1.524 . S
C2646 H2665 0.913 . S
C2647 H2623 0.950 . S
C2647 C2646 1.524 . S
C2647 C2648 1.415 . S
C2648 H2624 0.950 . S
C2648 C2643 1.363 . S
C2648 C2647 1.415 . S
C2649 H2625 0.951 . S
C2649 C2650 1.366 . S
C2649 C2651 1.388 . S
C2650 C2649 1.366 . S
C2650 C2654 1.385 . S
C2651 H2626 0.951 . S
C2651 C2649 1.388 . S
C2651 C2652 1.366 . S
C2652 C2651 1.366 . S
C2652 C2653 1.414 . S
C2652 C2655 1.499 . S
C2653 H2627 0.950 . S
C2653 C2652 1.414 . S
C2653 C2654 1.374 . S
C2654 H2628 0.950 . S
C2654 C2650 1.385 . S
C2654 C2653 1.374 . S
C2655 C2652 1.499 . S
C2655 C2656 1.373 . S
C2655 C2657 1.389 . S
C2656 H2629 0.950 . S
C2656 C2642 1.377 . S
C2656 C2655 1.373 . S
C2657 C2641 1.377 . S
C2657 C2655 1.389 . S
C2657 C2658 1.524 . S
C2658 C2657 1.524 . S
C2658 C2659 1.397 . S
C2658 C2663 1.363 . S
C2659 H2630 0.950 . S
C2659 C2658 1.397 . S
C2659 C2660 1.334 . S
C2660 H2631 0.950 . S
C2660 C2659 1.334 . S
C2660 C2661 1.287 . S
C2661 C2660 1.287 . S
C2661 C2662 1.524 . S
C2661 H2664 0.999 . S
C2662 H2632 0.950 . S
C2662 C2661 1.524 . S
C2662 C2663 1.415 . S
C2663 H2633 0.950 . S
C2663 C2658 1.363 . S
C2663 C2662 1.415 . S
H2664 C2661 0.999 . S
H2665 C2646 0.913 . S
H2666 C2684 0.951 . S
H2667 C2686 0.951 . S
H2668 C2688 0.950 . S
H2669 C2689 0.950 . S
H2670 C2691 0.950 . S
H2671 C2694 0.950 . S
H2672 C2695 0.950 . S
H2673 C2697 0.950 . S
H2674 C2698 0.950 . S
H2675 C2699 0.951 . S
H2676 C2701 0.951 . S
H2677 C2703 0.950 . S
H2678 C2704 0.950 . S
H2679 C2706 0.950 . S
H2680 C2709 0.950 . S
H2681 C2710 0.950 . S
H2682 C2712 0.950 . S
H2683 C2713 0.950 . S
C2684 H2666 0.951 . S
C2684 C2685 1.366 . S
C2684 C2686 1.388 . S
C2685 C2684 1.366 . S
C2685 C2689 1.385 . S
C2686 H2667 0.951 . S
C2686 C2684 1.388 . S
C2686 C2687 1.366 . S
C2687 C2686 1.366 . S
C2687 C2688 1.414 . S
C2687 C2690 1.499 . S
C2688 H2668 0.950 . S
C2688 C2687 1.414 . S
C2688 C2689 1.374 . S
C2689 H2669 0.950 . S
C2689 C2685 1.385 . S
C2689 C2688 1.374 . S
C2690 C2687 1.499 . S
C2690 C2691 1.373 . S
C2690 C2692 1.389 . S
C2691 H2670 0.950 . S
C2691 C2690 1.373 . S
C2691 C2707 1.377 . S
C2692 C2690 1.389 . S
C2692 C2693 1.524 . S
C2692 C2706 1.377 . S
C2693 C2692 1.524 . S
C2693 C2694 1.397 . S
C2693 C2698 1.363 . S
C2694 H2671 0.950 . S
C2694 C2693 1.397 . S
C2694 C2695 1.334 . S
C2695 H2672 0.950 . S
C2695 C2694 1.334 . S
C2695 C2696 1.287 . S
C2696 C2695 1.287 . S
C2696 C2697 1.524 . S
C2696 H2715 0.913 . S
C2697 H2673 0.950 . S
C2697 C2696 1.524 . S
C2697 C2698 1.415 . S
C2698 H2674 0.950 . S
C2698 C2693 1.363 . S
C2698 C2697 1.415 . S
C2699 H2675 0.951 . S
C2699 C2700 1.366 . S
C2699 C2701 1.388 . S
C2700 C2699 1.366 . S
C2700 C2704 1.385 . S
C2701 H2676 0.951 . S
C2701 C2699 1.388 . S
C2701 C2702 1.366 . S
C2702 C2701 1.366 . S
C2702 C2703 1.414 . S
C2702 C2705 1.499 . S
C2703 H2677 0.950 . S
C2703 C2702 1.414 . S
C2703 C2704 1.374 . S
C2704 H2678 0.950 . S
C2704 C2700 1.385 . S
C2704 C2703 1.374 . S
C2705 C2702 1.499 . S
C2705 C2706 1.373 . S
C2705 C2707 1.389 . S
C2706 H2679 0.950 . S
C2706 C2692 1.377 . S
C2706 C2705 1.373 . S
C2707 C2691 1.377 . S
C2707 C2705 1.389 . S
C2707 C2708 1.524 . S
C2708 C2707 1.524 . S
C2708 C2709 1.397 . S
C2708 C2713 1.363 . S
C2709 H2680 0.950 . S
C2709 C2708 1.397 . S
C2709 C2710 1.334 . S
C2710 H2681 0.950 . S
C2710 C2709 1.334 . S
C2710 C2711 1.287 . S
C2711 C2710 1.287 . S
C2711 C2712 1.524 . S
C2711 H2714 0.999 . S
C2712 H2682 0.950 . S
C2712 C2711 1.524 . S
C2712 C2713 1.415 . S
C2713 H2683 0.950 . S
C2713 C2708 1.363 . S
C2713 C2712 1.415 . S
H2714 C2711 0.999 . S
H2715 C2696 0.913 . S
H2716 C2734 0.951 . S
H2717 C2736 0.951 . S
H2718 C2738 0.950 . S
H2719 C2739 0.950 . S
H2720 C2741 0.950 . S
H2721 C2744 0.950 . S
H2722 C2745 0.950 . S
H2723 C2747 0.950 . S
H2724 C2748 0.950 . S
H2725 C2749 0.951 . S
H2726 C2751 0.951 . S
H2727 C2753 0.950 . S
H2728 C2754 0.950 . S
H2729 C2756 0.950 . S
H2730 C2759 0.950 . S
H2731 C2760 0.950 . S
H2732 C2762 0.950 . S
H2733 C2763 0.950 . S
C2734 H2716 0.951 . S
C2734 C2735 1.366 . S
C2734 C2736 1.388 . S
C2735 C2734 1.366 . S
C2735 C2739 1.385 . S
C2736 H2717 0.951 . S
C2736 C2734 1.388 . S
C2736 C2737 1.366 . S
C2737 C2736 1.366 . S
C2737 C2738 1.414 . S
C2737 C2740 1.499 . S
C2738 H2718 0.950 . S
C2738 C2737 1.414 . S
C2738 C2739 1.374 . S
C2739 H2719 0.950 . S
C2739 C2735 1.385 . S
C2739 C2738 1.374 . S
C2740 C2737 1.499 . S
C2740 C2741 1.373 . S
C2740 C2742 1.389 . S
C2741 H2720 0.950 . S
C2741 C2740 1.373 . S
C2741 C2757 1.377 . S
C2742 C2740 1.389 . S
C2742 C2743 1.524 . S
C2742 C2756 1.377 . S
C2743 C2742 1.524 . S
C2743 C2744 1.397 . S
C2743 C2748 1.363 . S
C2744 H2721 0.950 . S
C2744 C2743 1.397 . S
C2744 C2745 1.334 . S
C2745 H2722 0.950 . S
C2745 C2744 1.334 . S
C2745 C2746 1.287 . S
C2746 C2745 1.287 . S
C2746 C2747 1.524 . S
C2746 H2765 0.913 . S
C2747 H2723 0.950 . S
C2747 C2746 1.524 . S
C2747 C2748 1.415 . S
C2748 H2724 0.950 . S
C2748 C2743 1.363 . S
C2748 C2747 1.415 . S
C2749 H2725 0.951 . S
C2749 C2750 1.366 . S
C2749 C2751 1.388 . S
C2750 C2749 1.366 . S
C2750 C2754 1.385 . S
C2751 H2726 0.951 . S
C2751 C2749 1.388 . S
C2751 C2752 1.366 . S
C2752 C2751 1.366 . S
C2752 C2753 1.414 . S
C2752 C2755 1.499 . S
C2753 H2727 0.950 . S
C2753 C2752 1.414 . S
C2753 C2754 1.374 . S
C2754 H2728 0.950 . S
C2754 C2750 1.385 . S
C2754 C2753 1.374 . S
C2755 C2752 1.499 . S
C2755 C2756 1.373 . S
C2755 C2757 1.389 . S
C2756 H2729 0.950 . S
C2756 C2742 1.377 . S
C2756 C2755 1.373 . S
C2757 C2741 1.377 . S
C2757 C2755 1.389 . S
C2757 C2758 1.524 . S
C2758 C2757 1.524 . S
C2758 C2759 1.397 . S
C2758 C2763 1.363 . S
C2759 H2730 0.950 . S
C2759 C2758 1.397 . S
C2759 C2760 1.334 . S
C2760 H2731 0.950 . S
C2760 C2759 1.334 . S
C2760 C2761 1.287 . S
C2761 C2760 1.287 . S
C2761 C2762 1.524 . S
C2761 H2764 0.999 . S
C2762 H2732 0.950 . S
C2762 C2761 1.524 . S
C2762 C2763 1.415 . S
C2763 H2733 0.950 . S
C2763 C2758 1.363 . S
C2763 C2762 1.415 . S
H2764 C2761 0.999 . S
H2765 C2746 0.913 . S
H2766 C2784 0.951 . S
H2767 C2786 0.951 . S
H2768 C2788 0.950 . S
H2769 C2789 0.950 . S
H2770 C2791 0.950 . S
H2771 C2794 0.950 . S
H2772 C2795 0.950 . S
H2773 C2797 0.950 . S
H2774 C2798 0.950 . S
H2775 C2799 0.951 . S
H2776 C2801 0.951 . S
H2777 C2803 0.950 . S
H2778 C2804 0.950 . S
H2779 C2806 0.950 . S
H2780 C2809 0.950 . S
H2781 C2810 0.950 . S
H2782 C2812 0.950 . S
H2783 C2813 0.950 . S
C2784 H2766 0.951 . S
C2784 C2785 1.366 . S
C2784 C2786 1.388 . S
C2785 C2784 1.366 . S
C2785 C2789 1.385 . S
C2786 H2767 0.951 . S
C2786 C2784 1.388 . S
C2786 C2787 1.366 . S
C2787 C2786 1.366 . S
C2787 C2788 1.414 . S
C2787 C2790 1.499 . S
C2788 H2768 0.950 . S
C2788 C2787 1.414 . S
C2788 C2789 1.374 . S
C2789 H2769 0.950 . S
C2789 C2785 1.385 . S
C2789 C2788 1.374 . S
C2790 C2787 1.499 . S
C2790 C2791 1.373 . S
C2790 C2792 1.389 . S
C2791 H2770 0.950 . S
C2791 C2790 1.373 . S
C2791 C2807 1.377 . S
C2792 C2790 1.389 . S
C2792 C2793 1.524 . S
C2792 C2806 1.377 . S
C2793 C2792 1.524 . S
C2793 C2794 1.397 . S
C2793 C2798 1.363 . S
C2794 H2771 0.950 . S
C2794 C2793 1.397 . S
C2794 C2795 1.334 . S
C2795 H2772 0.950 . S
C2795 C2794 1.334 . S
C2795 C2796 1.287 . S
C2796 C2795 1.287 . S
C2796 C2797 1.524 . S
C2796 H2815 0.913 . S
C2797 H2773 0.950 . S
C2797 C2796 1.524 . S
C2797 C2798 1.415 . S
C2798 H2774 0.950 . S
C2798 C2793 1.363 . S
C2798 C2797 1.415 . S
C2799 H2775 0.951 . S
C2799 C2800 1.366 . S
C2799 C2801 1.388 . S
C2800 C2799 1.366 . S
C2800 C2804 1.385 . S
C2801 H2776 0.951 . S
C2801 C2799 1.388 . S
C2801 C2802 1.366 . S
C2802 C2801 1.366 . S
C2802 C2803 1.414 . S
C2802 C2805 1.499 . S
C2803 H2777 0.950 . S
C2803 C2802 1.414 . S
C2803 C2804 1.374 . S
C2804 H2778 0.950 . S
C2804 C2800 1.385 . S
C2804 C2803 1.374 . S
C2805 C2802 1.499 . S
C2805 C2806 1.373 . S
C2805 C2807 1.389 . S
C2806 H2779 0.950 . S
C2806 C2792 1.377 . S
C2806 C2805 1.373 . S
C2807 C2791 1.377 . S
C2807 C2805 1.389 . S
C2807 C2808 1.524 . S
C2808 C2807 1.524 . S
C2808 C2809 1.397 . S
C2808 C2813 1.363 . S
C2809 H2780 0.950 . S
C2809 C2808 1.397 . S
C2809 C2810 1.334 . S
C2810 H2781 0.950 . S
C2810 C2809 1.334 . S
C2810 C2811 1.287 . S
C2811 C2810 1.287 . S
C2811 C2812 1.524 . S
C2811 H2814 0.999 . S
C2812 H2782 0.950 . S
C2812 C2811 1.524 . S
C2812 C2813 1.415 . S
C2813 H2783 0.950 . S
C2813 C2808 1.363 . S
C2813 C2812 1.415 . S
H2814 C2811 0.999 . S
H2815 C2796 0.913 . S
H2816 C2834 0.951 . S
H2817 C2836 0.951 . S
H2818 C2838 0.950 . S
H2819 C2839 0.950 . S
H2820 C2841 0.950 . S
H2821 C2844 0.950 . S
H2822 C2845 0.950 . S
H2823 C2847 0.950 . S
H2824 C2848 0.950 . S
H2825 C2849 0.951 . S
H2826 C2851 0.951 . S
H2827 C2853 0.950 . S
H2828 C2854 0.950 . S
H2829 C2856 0.950 . S
H2830 C2859 0.950 . S
H2831 C2860 0.950 . S
H2832 C2862 0.950 . S
H2833 C2863 0.950 . S
C2834 H2816 0.951 . S
C2834 C2835 1.366 . S
C2834 C2836 1.388 . S
C2835 C2834 1.366 . S
C2835 C2839 1.385 . S
C2836 H2817 0.951 . S
C2836 C2834 1.388 . S
C2836 C2837 1.366 . S
C2837 C2836 1.366 . S
C2837 C2838 1.414 . S
C2837 C2840 1.499 . S
C2838 H2818 0.950 . S
C2838 C2837 1.414 . S
C2838 C2839 1.374 . S
C2839 H2819 0.950 . S
C2839 C2835 1.385 . S
C2839 C2838 1.374 . S
C2840 C2837 1.499 . S
C2840 C2841 1.373 . S
C2840 C2842 1.389 . S
C2841 H2820 0.950 . S
C2841 C2840 1.373 . S
C2841 C2857 1.377 . S
C2842 C2840 1.389 . S
C2842 C2843 1.524 . S
C2842 C2856 1.377 . S
C2843 C2842 1.524 . S
C2843 C2844 1.397 . S
C2843 C2848 1.363 . S
C2844 H2821 0.950 . S
C2844 C2843 1.397 . S
C2844 C2845 1.334 . S
C2845 H2822 0.950 . S
C2845 C2844 1.334 . S
C2845 C2846 1.287 . S
C2846 C2845 1.287 . S
C2846 C2847 1.524 . S
C2846 H2865 0.913 . S
C2847 H2823 0.950 . S
C2847 C2846 1.524 . S
C2847 C2848 1.415 . S
C2848 H2824 0.950 . S
C2848 C2843 1.363 . S
C2848 C2847 1.415 . S
C2849 H2825 0.951 . S
C2849 C2850 1.366 . S
C2849 C2851 1.388 . S
C2850 C2849 1.366 . S
C2850 C2854 1.385 . S
C2851 H2826 0.951 . S
C2851 C2849 1.388 . S
C2851 C2852 1.366 . S
C2852 C2851 1.366 . S
C2852 C2853 1.414 . S
C2852 C2855 1.499 . S
C2853 H2827 0.950 . S
C2853 C2852 1.414 . S
C2853 C2854 1.374 . S
C2854 H2828 0.950 . S
C2854 C2850 1.385 . S
C2854 C2853 1.374 . S
C2855 C2852 1.499 . S
C2855 C2856 1.373 . S
C2855 C2857 1.389 . S
C2856 H2829 0.950 . S
C2856 C2842 1.377 . S
C2856 C2855 1.373 . S
C2857 C2841 1.377 . S
C2857 C2855 1.389 . S
C2857 C2858 1.524 . S
C2858 C2857 1.524 . S
C2858 C2859 1.397 . S
C2858 C2863 1.363 . S
C2859 H2830 0.950 . S
C2859 C2858 1.397 . S
C2859 C2860 1.334 . S
C2860 H2831 0.950 . S
C2860 C2859 1.334 . S
C2860 C2861 1.287 . S
C2861 C2860 1.287 . S
C2861 C2862 1.524 . S
C2861 H2864 0.999 . S
C2862 H2832 0.950 . S
C2862 C2861 1.524 . S
C2862 C2863 1.415 . S
C2863 H2833 0.950 . S
C2863 C2858 1.363 . S
C2863 C2862 1.415 . S
H2864 C2861 0.999 . S
H2865 C2846 0.913 . S
H2866 C2884 0.951 . S
H2867 C2886 0.951 . S
H2868 C2888 0.950 . S
H2869 C2889 0.950 . S
H2870 C2891 0.950 . S
H2871 C2894 0.950 . S
H2872 C2895 0.950 . S
H2873 C2897 0.950 . S
H2874 C2898 0.950 . S
H2875 C2899 0.951 . S
H2876 C2901 0.951 . S
H2877 C2903 0.950 . S
H2878 C2904 0.950 . S
H2879 C2906 0.950 . S
H2880 C2909 0.950 . S
H2881 C2910 0.950 . S
H2882 C2912 0.950 . S
H2883 C2913 0.950 . S
C2884 H2866 0.951 . S
C2884 C2885 1.366 . S
C2884 C2886 1.388 . S
C2885 C2884 1.366 . S
C2885 C2889 1.385 . S
C2886 H2867 0.951 . S
C2886 C2884 1.388 . S
C2886 C2887 1.366 . S
C2887 C2886 1.366 . S
C2887 C2888 1.414 . S
C2887 C2890 1.499 . S
C2888 H2868 0.950 . S
C2888 C2887 1.414 . S
C2888 C2889 1.374 . S
C2889 H2869 0.950 . S
C2889 C2885 1.385 . S
C2889 C2888 1.374 . S
C2890 C2887 1.499 . S
C2890 C2891 1.373 . S
C2890 C2892 1.389 . S
C2891 H2870 0.950 . S
C2891 C2890 1.373 . S
C2891 C2907 1.377 . S
C2892 C2890 1.389 . S
C2892 C2893 1.524 . S
C2892 C2906 1.377 . S
C2893 C2892 1.524 . S
C2893 C2894 1.397 . S
C2893 C2898 1.363 . S
C2894 H2871 0.950 . S
C2894 C2893 1.397 . S
C2894 C2895 1.334 . S
C2895 H2872 0.950 . S
C2895 C2894 1.334 . S
C2895 C2896 1.287 . S
C2896 C2895 1.287 . S
C2896 C2897 1.524 . S
C2896 H2915 0.913 . S
C2897 H2873 0.950 . S
C2897 C2896 1.524 . S
C2897 C2898 1.415 . S
C2898 H2874 0.950 . S
C2898 C2893 1.363 . S
C2898 C2897 1.415 . S
C2899 H2875 0.951 . S
C2899 C2900 1.366 . S
C2899 C2901 1.388 . S
C2900 C2899 1.366 . S
C2900 C2904 1.385 . S
C2901 H2876 0.951 . S
C2901 C2899 1.388 . S
C2901 C2902 1.366 . S
C2902 C2901 1.366 . S
C2902 C2903 1.414 . S
C2902 C2905 1.499 . S
C2903 H2877 0.950 . S
C2903 C2902 1.414 . S
C2903 C2904 1.374 . S
C2904 H2878 0.950 . S
C2904 C2900 1.385 . S
C2904 C2903 1.374 . S
C2905 C2902 1.499 . S
C2905 C2906 1.373 . S
C2905 C2907 1.389 . S
C2906 H2879 0.950 . S
C2906 C2892 1.377 . S
C2906 C2905 1.373 . S
C2907 C2891 1.377 . S
C2907 C2905 1.389 . S
C2907 C2908 1.524 . S
C2908 C2907 1.524 . S
C2908 C2909 1.397 . S
C2908 C2913 1.363 . S
C2909 H2880 0.950 . S
C2909 C2908 1.397 . S
C2909 C2910 1.334 . S
C2910 H2881 0.950 . S
C2910 C2909 1.334 . S
C2910 C2911 1.287 . S
C2911 C2910 1.287 . S
C2911 C2912 1.524 . S
C2911 H2914 0.999 . S
C2912 H2882 0.950 . S
C2912 C2911 1.524 . S
C2912 C2913 1.415 . S
C2913 H2883 0.950 . S
C2913 C2908 1.363 . S
C2913 C2912 1.415 . S
H2914 C2911 0.999 . S
H2915 C2896 0.913 . S
H2916 C2934 0.951 . S
H2917 C2936 0.951 . S
H2918 C2938 0.950 . S
H2919 C2939 0.950 . S
H2920 C2941 0.950 . S
H2921 C2944 0.950 . S
H2922 C2945 0.950 1_556 S
H2923 C2947 0.950 . S
H2924 C2948 0.950 . S
H2925 C2949 0.951 . S
H2926 C2951 0.951 . S
H2927 C2953 0.950 . S
H2928 C2954 0.950 . S
H2929 C2956 0.950 . S
H2930 C2959 0.950 . S
H2931 C2960 0.950 . S
H2932 C2962 0.950 . S
H2933 C2963 0.950 . S
C2934 H2916 0.951 . S
C2934 C2935 1.366 . S
C2934 C2936 1.388 . S
C2935 C2934 1.366 . S
C2935 C2939 1.385 . S
C2936 H2917 0.951 . S
C2936 C2934 1.388 . S
C2936 C2937 1.366 . S
C2937 C2936 1.366 . S
C2937 C2938 1.414 . S
C2937 C2940 1.499 . S
C2938 H2918 0.950 . S
C2938 C2937 1.414 . S
C2938 C2939 1.374 . S
C2939 H2919 0.950 . S
C2939 C2935 1.385 . S
C2939 C2938 1.374 . S
C2940 C2937 1.499 . S
C2940 C2941 1.373 . S
C2940 C2942 1.389 . S
C2941 H2920 0.950 . S
C2941 C2940 1.373 . S
C2941 C2957 1.377 . S
C2942 C2940 1.389 . S
C2942 C2943 1.524 . S
C2942 C2956 1.377 . S
C2943 C2942 1.524 . S
C2943 C2944 1.397 . S
C2943 C2948 1.363 . S
C2944 H2921 0.950 . S
C2944 C2943 1.397 . S
C2944 C2945 1.334 . S
C2945 H2922 0.950 1_554 S
C2945 C2944 1.334 . S
C2945 C2946 1.287 1_554 S
C2946 C2945 1.287 1_556 S
C2946 C2947 1.524 1_556 S
C2946 H2965 0.913 . S
C2947 H2923 0.950 . S
C2947 C2946 1.524 1_554 S
C2947 C2948 1.415 . S
C2948 H2924 0.950 . S
C2948 C2943 1.363 . S
C2948 C2947 1.415 . S
C2949 H2925 0.951 . S
C2949 C2950 1.366 . S
C2949 C2951 1.388 . S
C2950 C2949 1.366 . S
C2950 C2954 1.385 . S
C2951 H2926 0.951 . S
C2951 C2949 1.388 . S
C2951 C2952 1.366 . S
C2952 C2951 1.366 . S
C2952 C2953 1.414 . S
C2952 C2955 1.499 . S
C2953 H2927 0.950 . S
C2953 C2952 1.414 . S
C2953 C2954 1.374 . S
C2954 H2928 0.950 . S
C2954 C2950 1.385 . S
C2954 C2953 1.374 . S
C2955 C2952 1.499 . S
C2955 C2956 1.373 . S
C2955 C2957 1.389 . S
C2956 H2929 0.950 . S
C2956 C2942 1.377 . S
C2956 C2955 1.373 . S
C2957 C2941 1.377 . S
C2957 C2955 1.389 . S
C2957 C2958 1.524 . S
C2958 C2957 1.524 . S
C2958 C2959 1.397 . S
C2958 C2963 1.363 . S
C2959 H2930 0.950 . S
C2959 C2958 1.397 . S
C2959 C2960 1.334 . S
C2960 H2931 0.950 . S
C2960 C2959 1.334 . S
C2960 C2961 1.287 . S
C2961 C2960 1.287 . S
C2961 C2962 1.524 . S
C2961 H2964 0.999 . S
C2962 H2932 0.950 . S
C2962 C2961 1.524 . S
C2962 C2963 1.415 . S
C2963 H2933 0.950 . S
C2963 C2958 1.363 . S
C2963 C2962 1.415 . S
H2964 C2961 0.999 . S
H2965 C2946 0.913 . S
H2966 C2984 0.951 . S
H2967 C2986 0.951 . S
H2968 C2988 0.950 . S
H2969 C2989 0.950 . S
H2970 C2991 0.950 . S
H2971 C2994 0.950 . S
H2972 C2995 0.950 . S
H2973 C2997 0.950 . S
H2974 C2998 0.950 . S
H2975 C2999 0.951 . S
H2976 C3001 0.951 . S
H2977 C3003 0.950 . S
H2978 C3004 0.950 . S
H2979 C3006 0.950 . S
H2980 C3009 0.950 . S
H2981 C3010 0.950 . S
H2982 C3012 0.950 . S
H2983 C3013 0.950 . S
C2984 H2966 0.951 . S
C2984 C2985 1.366 . S
C2984 C2986 1.388 . S
C2985 C2984 1.366 . S
C2985 C2989 1.385 . S
C2986 H2967 0.951 . S
C2986 C2984 1.388 . S
C2986 C2987 1.366 . S
C2987 C2986 1.366 . S
C2987 C2988 1.414 . S
C2987 C2990 1.499 . S
C2988 H2968 0.950 . S
C2988 C2987 1.414 . S
C2988 C2989 1.374 . S
C2989 H2969 0.950 . S
C2989 C2985 1.385 . S
C2989 C2988 1.374 . S
C2990 C2987 1.499 . S
C2990 C2991 1.373 . S
C2990 C2992 1.389 . S
C2991 H2970 0.950 . S
C2991 C2990 1.373 . S
C2991 C3007 1.377 . S
C2992 C2990 1.389 . S
C2992 C2993 1.524 . S
C2992 C3006 1.377 . S
C2993 C2992 1.524 . S
C2993 C2994 1.397 . S
C2993 C2998 1.363 . S
C2994 H2971 0.950 . S
C2994 C2993 1.397 . S
C2994 C2995 1.334 . S
C2995 H2972 0.950 . S
C2995 C2994 1.334 . S
C2995 C2996 1.287 . S
C2996 C2995 1.287 . S
C2996 C2997 1.524 . S
C2996 H3015 0.913 . S
C2997 H2973 0.950 . S
C2997 C2996 1.524 . S
C2997 C2998 1.415 . S
C2998 H2974 0.950 . S
C2998 C2993 1.363 . S
C2998 C2997 1.415 . S
C2999 H2975 0.951 . S
C2999 C3000 1.366 . S
C2999 C3001 1.388 . S
C3000 C2999 1.366 . S
C3000 C3004 1.385 . S
C3001 H2976 0.951 . S
C3001 C2999 1.388 . S
C3001 C3002 1.366 . S
C3002 C3001 1.366 . S
C3002 C3003 1.414 . S
C3002 C3005 1.499 . S
C3003 H2977 0.950 . S
C3003 C3002 1.414 . S
C3003 C3004 1.374 . S
C3004 H2978 0.950 . S
C3004 C3000 1.385 . S
C3004 C3003 1.374 . S
C3005 C3002 1.499 . S
C3005 C3006 1.373 . S
C3005 C3007 1.389 . S
C3006 H2979 0.950 . S
C3006 C2992 1.377 . S
C3006 C3005 1.373 . S
C3007 C2991 1.377 . S
C3007 C3005 1.389 . S
C3007 C3008 1.524 . S
C3008 C3007 1.524 . S
C3008 C3009 1.397 . S
C3008 C3013 1.363 . S
C3009 H2980 0.950 . S
C3009 C3008 1.397 . S
C3009 C3010 1.334 . S
C3010 H2981 0.950 . S
C3010 C3009 1.334 . S
C3010 C3011 1.287 . S
C3011 C3010 1.287 . S
C3011 C3012 1.524 . S
C3011 H3014 0.999 . S
C3012 H2982 0.950 . S
C3012 C3011 1.524 . S
C3012 C3013 1.415 . S
C3013 H2983 0.950 . S
C3013 C3008 1.363 . S
C3013 C3012 1.415 . S
H3014 C3011 0.999 . S
H3015 C2996 0.913 . S
H3016 C3034 0.951 . S
H3017 C3036 0.951 . S
H3018 C3038 0.950 . S
H3019 C3039 0.950 . S
H3020 C3041 0.950 . S
H3021 C3044 0.950 . S
H3022 C3045 0.947 1_545 S
H3023 C3047 0.950 . S
H3024 C3048 0.950 . S
H3025 C3049 0.951 . S
H3026 C3051 0.951 . S
H3027 C3053 0.950 . S
H3028 C3054 0.950 . S
H3029 C3056 0.950 . S
H3030 C3059 0.950 . S
H3031 C3060 0.950 . S
H3032 C3062 0.950 . S
H3033 C3063 0.950 . S
C3034 H3016 0.951 . S
C3034 C3035 1.366 . S
C3034 C3036 1.388 . S
C3035 C3034 1.366 . S
C3035 C3039 1.385 . S
C3036 H3017 0.951 . S
C3036 C3034 1.388 . S
C3036 C3037 1.366 . S
C3037 C3036 1.366 . S
C3037 C3038 1.414 . S
C3037 C3040 1.499 . S
C3038 H3018 0.950 . S
C3038 C3037 1.414 . S
C3038 C3039 1.374 . S
C3039 H3019 0.950 . S
C3039 C3035 1.385 . S
C3039 C3038 1.374 . S
C3040 C3037 1.499 . S
C3040 C3041 1.373 . S
C3040 C3042 1.389 . S
C3041 H3020 0.950 . S
C3041 C3040 1.373 . S
C3041 C3057 1.377 . S
C3042 C3040 1.389 . S
C3042 C3043 1.524 . S
C3042 C3056 1.377 . S
C3043 C3042 1.524 . S
C3043 C3044 1.397 . S
C3043 C3048 1.363 . S
C3044 H3021 0.950 . S
C3044 C3043 1.397 . S
C3044 C3045 1.334 . S
C3045 H3022 0.947 1_565 S
C3045 C3044 1.334 . S
C3045 C3046 1.287 . S
C3046 C3045 1.287 . S
C3046 C3047 1.524 . S
C3046 H3065 0.923 1_565 S
C3047 H3023 0.950 . S
C3047 C3046 1.524 . S
C3047 C3048 1.415 . S
C3048 H3024 0.950 . S
C3048 C3043 1.363 . S
C3048 C3047 1.415 . S
C3049 H3025 0.951 . S
C3049 C3050 1.366 . S
C3049 C3051 1.388 . S
C3050 C3049 1.366 . S
C3050 C3054 1.385 . S
C3051 H3026 0.951 . S
C3051 C3049 1.388 . S
C3051 C3052 1.366 . S
C3052 C3051 1.366 . S
C3052 C3053 1.414 . S
C3052 C3055 1.499 . S
C3053 H3027 0.950 . S
C3053 C3052 1.414 . S
C3053 C3054 1.374 . S
C3054 H3028 0.950 . S
C3054 C3050 1.385 . S
C3054 C3053 1.374 . S
C3055 C3052 1.499 . S
C3055 C3056 1.373 . S
C3055 C3057 1.389 . S
C3056 H3029 0.950 . S
C3056 C3042 1.377 . S
C3056 C3055 1.373 . S
C3057 C3041 1.377 . S
C3057 C3055 1.389 . S
C3057 C3058 1.524 . S
C3058 C3057 1.524 . S
C3058 C3059 1.397 . S
C3058 C3063 1.363 . S
C3059 H3030 0.950 . S
C3059 C3058 1.397 . S
C3059 C3060 1.334 . S
C3060 H3031 0.950 . S
C3060 C3059 1.334 . S
C3060 C3061 1.287 . S
C3061 C3060 1.287 . S
C3061 C3062 1.524 . S
C3061 H3064 0.999 . S
C3062 H3032 0.950 . S
C3062 C3061 1.524 . S
C3062 C3063 1.415 . S
C3063 H3033 0.950 . S
C3063 C3058 1.363 . S
C3063 C3062 1.415 . S
H3064 C3061 0.999 . S
H3065 C3046 0.923 1_545 S
H3066 C3084 0.951 . S
H3067 C3086 0.951 . S
H3068 C3088 0.950 . S
H3069 C3089 0.950 1_554 S
H3070 C3091 0.950 . S
H3071 C3094 0.950 . S
H3072 C3095 0.950 . S
H3073 C3097 0.950 . S
H3074 C3098 0.950 . S
H3075 C3099 0.951 . S
H3076 C3101 0.951 . S
H3077 C3103 0.950 . S
H3078 C3104 0.950 . S
H3079 C3106 0.950 . S
H3080 C3109 0.950 . S
H3081 C3110 0.950 . S
H3082 C3112 0.961 . S
H3083 C3113 0.950 . S
C3084 H3066 0.951 . S
C3084 C3085 1.366 . S
C3084 C3086 1.388 . S
C3085 C3084 1.366 . S
C3085 C3089 1.385 . S
C3086 H3067 0.951 . S
C3086 C3084 1.388 . S
C3086 C3087 1.366 . S
C3087 C3086 1.366 . S
C3087 C3088 1.414 . S
C3087 C3090 1.499 . S
C3088 H3068 0.950 . S
C3088 C3087 1.414 . S
C3088 C3089 1.374 . S
C3089 H3069 0.950 1_556 S
C3089 C3085 1.385 . S
C3089 C3088 1.374 . S
C3090 C3087 1.499 . S
C3090 C3091 1.373 . S
C3090 C3092 1.389 . S
C3091 H3070 0.950 . S
C3091 C3090 1.373 . S
C3091 C3107 1.377 . S
C3092 C3090 1.389 . S
C3092 C3093 1.524 . S
C3092 C3106 1.377 . S
C3093 C3092 1.524 . S
C3093 C3094 1.397 . S
C3093 C3098 1.363 . S
C3094 H3071 0.950 . S
C3094 C3093 1.397 . S
C3094 C3095 1.334 . S
C3095 H3072 0.950 . S
C3095 C3094 1.334 . S
C3095 C3096 1.287 . S
C3096 C3095 1.287 . S
C3096 C3097 1.524 . S
C3096 H3115 0.913 . S
C3097 H3073 0.950 . S
C3097 C3096 1.524 . S
C3097 C3098 1.415 . S
C3098 H3074 0.950 . S
C3098 C3093 1.363 . S
C3098 C3097 1.415 . S
C3099 H3075 0.951 . S
C3099 C3100 1.366 . S
C3099 C3101 1.388 . S
C3100 C3099 1.366 . S
C3100 C3104 1.385 . S
C3101 H3076 0.951 . S
C3101 C3099 1.388 . S
C3101 C3102 1.366 . S
C3102 C3101 1.366 . S
C3102 C3103 1.414 . S
C3102 C3105 1.499 . S
C3103 H3077 0.950 . S
C3103 C3102 1.414 . S
C3103 C3104 1.374 . S
C3104 H3078 0.950 . S
C3104 C3100 1.385 . S
C3104 C3103 1.374 . S
C3105 C3102 1.499 . S
C3105 C3106 1.373 . S
C3105 C3107 1.389 . S
C3106 H3079 0.950 . S
C3106 C3092 1.377 . S
C3106 C3105 1.373 . S
C3107 C3091 1.377 . S
C3107 C3105 1.389 . S
C3107 C3108 1.524 . S
C3108 C3107 1.524 . S
C3108 C3109 1.397 . S
C3108 C3113 1.363 . S
C3109 H3080 0.950 . S
C3109 C3108 1.397 . S
C3109 C3110 1.334 . S
C3110 H3081 0.950 . S
C3110 C3109 1.334 . S
C3110 C3111 1.287 . S
C3111 C3110 1.287 . S
C3111 C3112 1.520 1_556 S
C3111 H3114 0.999 1_556 S
C3112 H3082 0.961 . S
C3112 C3111 1.520 1_554 S
C3112 C3113 1.405 1_554 S
C3113 H3083 0.950 . S
C3113 C3108 1.363 . S
C3113 C3112 1.405 1_556 S
H3114 C3111 0.999 1_554 S
H3115 C3096 0.913 . S
H3116 C3134 0.951 . S
H3117 C3136 0.951 . S
H3118 C3138 0.950 . S
H3119 C3139 0.950 . S
H3120 C3141 0.950 . S
H3121 C3144 0.950 . S
H3122 C3145 0.950 . S
H3123 C3147 0.950 . S
H3124 C3148 0.950 . S
H3125 C3149 0.951 . S
H3126 C3151 0.951 . S
H3127 C3153 0.950 . S
H3128 C3154 0.950 . S
H3129 C3156 0.950 . S
H3130 C3159 0.950 . S
H3131 C3160 0.950 . S
H3132 C3162 0.942 1_554 S
H3133 C3163 0.950 . S
C3134 H3116 0.951 . S
C3134 C3135 1.366 . S
C3134 C3136 1.388 . S
C3135 C3134 1.366 . S
C3135 C3139 1.385 . S
C3136 H3117 0.951 . S
C3136 C3134 1.388 . S
C3136 C3137 1.366 . S
C3137 C3136 1.366 . S
C3137 C3138 1.414 . S
C3137 C3140 1.499 . S
C3138 H3118 0.950 . S
C3138 C3137 1.414 . S
C3138 C3139 1.374 . S
C3139 H3119 0.950 . S
C3139 C3135 1.385 . S
C3139 C3138 1.374 . S
C3140 C3137 1.499 . S
C3140 C3141 1.373 . S
C3140 C3142 1.389 . S
C3141 H3120 0.950 . S
C3141 C3140 1.373 . S
C3141 C3157 1.377 . S
C3142 C3140 1.389 . S
C3142 C3143 1.524 . S
C3142 C3156 1.377 . S
C3143 C3142 1.524 . S
C3143 C3144 1.397 . S
C3143 C3148 1.363 . S
C3144 H3121 0.950 . S
C3144 C3143 1.397 . S
C3144 C3145 1.334 . S
C3145 H3122 0.950 . S
C3145 C3144 1.334 . S
C3145 C3146 1.287 . S
C3146 C3145 1.287 . S
C3146 C3147 1.524 . S
C3146 H3165 0.913 . S
C3147 H3123 0.950 . S
C3147 C3146 1.524 . S
C3147 C3148 1.415 . S
C3148 H3124 0.950 . S
C3148 C3143 1.363 . S
C3148 C3147 1.415 . S
C3149 H3125 0.951 . S
C3149 C3150 1.366 . S
C3149 C3151 1.388 . S
C3150 C3149 1.366 . S
C3150 C3154 1.385 . S
C3151 H3126 0.951 . S
C3151 C3149 1.388 . S
C3151 C3152 1.366 . S
C3152 C3151 1.366 . S
C3152 C3153 1.414 . S
C3152 C3155 1.499 . S
C3153 H3127 0.950 . S
C3153 C3152 1.414 . S
C3153 C3154 1.374 . S
C3154 H3128 0.950 . S
C3154 C3150 1.385 . S
C3154 C3153 1.374 . S
C3155 C3152 1.499 . S
C3155 C3156 1.373 . S
C3155 C3157 1.389 . S
C3156 H3129 0.950 . S
C3156 C3142 1.377 . S
C3156 C3155 1.373 . S
C3157 C3141 1.377 . S
C3157 C3155 1.389 . S
C3157 C3158 1.524 . S
C3158 C3157 1.524 . S
C3158 C3159 1.397 . S
C3158 C3163 1.363 . S
C3159 H3130 0.950 . S
C3159 C3158 1.397 . S
C3159 C3160 1.334 . S
C3160 H3131 0.950 . S
C3160 C3159 1.334 . S
C3160 C3161 1.287 . S
C3161 C3160 1.287 . S
C3161 C3162 1.524 . S
C3161 H3164 0.999 1_556 S
C3162 H3132 0.942 1_556 S
C3162 C3161 1.524 . S
C3162 C3163 1.415 . S
C3163 H3133 0.950 . S
C3163 C3158 1.363 . S
C3163 C3162 1.415 . S
H3164 C3161 0.999 1_554 S
H3165 C3146 0.913 . S
H3166 C3184 0.951 . S
H3167 C3186 0.951 . S
H3168 C3188 0.950 . S
H3169 C3189 0.903 1_554 S
H3170 C3191 0.950 . S
H3171 C3194 0.950 . S
H3172 C3195 0.950 . S
H3173 C3197 0.950 . S
H3174 C3198 0.950 . S
H3175 C3199 0.951 . S
H3176 C3201 0.951 . S
H3177 C3203 0.950 . S
H3178 C3204 0.950 . S
H3179 C3206 0.950 . S
H3180 C3209 0.950 . S
H3181 C3210 0.950 . S
H3182 C3212 0.942 1_554 S
H3183 C3213 0.950 . S
C3184 H3166 0.951 . S
C3184 C3185 1.366 . S
C3184 C3186 1.388 . S
C3185 C3184 1.366 . S
C3185 C3189 1.385 . S
C3186 H3167 0.951 . S
C3186 C3184 1.388 . S
C3186 C3187 1.366 . S
C3187 C3186 1.366 . S
C3187 C3188 1.414 . S
C3187 C3190 1.499 . S
C3188 H3168 0.950 . S
C3188 C3187 1.414 . S
C3188 C3189 1.374 . S
C3189 H3169 0.903 1_556 S
C3189 C3185 1.385 . S
C3189 C3188 1.374 . S
C3190 C3187 1.499 . S
C3190 C3191 1.373 . S
C3190 C3192 1.389 . S
C3191 H3170 0.950 . S
C3191 C3190 1.373 . S
C3191 C3207 1.377 . S
C3192 C3190 1.389 . S
C3192 C3193 1.524 . S
C3192 C3206 1.377 . S
C3193 C3192 1.524 . S
C3193 C3194 1.397 . S
C3193 C3198 1.363 . S
C3194 H3171 0.950 . S
C3194 C3193 1.397 . S
C3194 C3195 1.334 . S
C3195 H3172 0.950 . S
C3195 C3194 1.334 . S
C3195 C3196 1.287 . S
C3196 C3195 1.287 . S
C3196 C3197 1.524 . S
C3196 H3215 0.913 . S
C3197 H3173 0.950 . S
C3197 C3196 1.524 . S
C3197 C3198 1.415 . S
C3198 H3174 0.950 . S
C3198 C3193 1.363 . S
C3198 C3197 1.415 . S
C3199 H3175 0.951 . S
C3199 C3200 1.366 . S
C3199 C3201 1.388 . S
C3200 C3199 1.366 . S
C3200 C3204 1.385 . S
C3201 H3176 0.951 . S
C3201 C3199 1.388 . S
C3201 C3202 1.366 . S
C3202 C3201 1.366 . S
C3202 C3203 1.414 . S
C3202 C3205 1.499 . S
C3203 H3177 0.950 . S
C3203 C3202 1.414 . S
C3203 C3204 1.374 . S
C3204 H3178 0.950 . S
C3204 C3200 1.385 . S
C3204 C3203 1.374 . S
C3205 C3202 1.499 . S
C3205 C3206 1.373 . S
C3205 C3207 1.389 . S
C3206 H3179 0.950 . S
C3206 C3192 1.377 . S
C3206 C3205 1.373 . S
C3207 C3191 1.377 . S
C3207 C3205 1.389 . S
C3207 C3208 1.524 . S
C3208 C3207 1.524 . S
C3208 C3209 1.397 . S
C3208 C3213 1.363 . S
C3209 H3180 0.950 . S
C3209 C3208 1.397 . S
C3209 C3210 1.334 . S
C3210 H3181 0.950 . S
C3210 C3209 1.334 . S
C3210 C3211 1.287 . S
C3211 C3210 1.287 . S
C3211 C3212 1.527 . S
C3211 H3214 0.999 1_556 S
C3212 H3182 0.942 1_556 S
C3212 C3211 1.527 . S
C3212 C3213 1.420 . S
C3213 H3183 0.950 . S
C3213 C3208 1.363 . S
C3213 C3212 1.420 . S
H3214 C3211 0.999 1_554 S
H3215 C3196 0.913 . S
H3216 C3234 0.951 . S
H3217 C3236 0.951 . S
H3218 C3238 0.950 . S
H3219 C3239 0.950 1_554 S
H3220 C3241 0.950 . S
H3221 C3244 0.950 . S
H3222 C3245 0.950 . S
H3223 C3247 0.950 . S
H3224 C3248 0.950 . S
H3225 C3249 0.951 . S
H3226 C3251 0.951 . S
H3227 C3253 0.950 . S
H3228 C3254 0.950 . S
H3229 C3256 0.950 . S
H3230 C3259 0.950 . S
H3231 C3260 0.950 . S
H3232 C3262 0.950 1_554 S
H3233 C3263 0.950 . S
C3234 H3216 0.951 . S
C3234 C3235 1.366 . S
C3234 C3236 1.388 . S
C3235 C3234 1.366 . S
C3235 C3239 1.385 . S
C3236 H3217 0.951 . S
C3236 C3234 1.388 . S
C3236 C3237 1.366 . S
C3237 C3236 1.366 . S
C3237 C3238 1.414 . S
C3237 C3240 1.499 . S
C3238 H3218 0.950 . S
C3238 C3237 1.414 . S
C3238 C3239 1.374 . S
C3239 H3219 0.950 1_556 S
C3239 C3235 1.385 . S
C3239 C3238 1.374 . S
C3240 C3237 1.499 . S
C3240 C3241 1.373 . S
C3240 C3242 1.389 . S
C3241 H3220 0.950 . S
C3241 C3240 1.373 . S
C3241 C3257 1.377 . S
C3242 C3240 1.389 . S
C3242 C3243 1.524 . S
C3242 C3256 1.377 . S
C3243 C3242 1.524 . S
C3243 C3244 1.397 . S
C3243 C3248 1.363 . S
C3244 H3221 0.950 . S
C3244 C3243 1.397 . S
C3244 C3245 1.334 . S
C3245 H3222 0.950 . S
C3245 C3244 1.334 . S
C3245 C3246 1.287 . S
C3246 C3245 1.287 . S
C3246 C3247 1.524 . S
C3246 H3265 0.913 . S
C3247 H3223 0.950 . S
C3247 C3246 1.524 . S
C3247 C3248 1.415 . S
C3248 H3224 0.950 . S
C3248 C3243 1.363 . S
C3248 C3247 1.415 . S
C3249 H3225 0.951 . S
C3249 C3250 1.366 . S
C3249 C3251 1.388 . S
C3250 C3249 1.366 . S
C3250 C3254 1.385 . S
C3251 H3226 0.951 . S
C3251 C3249 1.388 . S
C3251 C3252 1.366 . S
C3252 C3251 1.366 . S
C3252 C3253 1.414 . S
C3252 C3255 1.499 . S
C3253 H3227 0.950 . S
C3253 C3252 1.414 . S
C3253 C3254 1.374 . S
C3254 H3228 0.950 . S
C3254 C3250 1.385 . S
C3254 C3253 1.374 . S
C3255 C3252 1.499 . S
C3255 C3256 1.373 . S
C3255 C3257 1.389 . S
C3256 H3229 0.950 . S
C3256 C3242 1.377 . S
C3256 C3255 1.373 . S
C3257 C3241 1.377 . S
C3257 C3255 1.389 . S
C3257 C3258 1.524 . S
C3258 C3257 1.524 . S
C3258 C3259 1.397 . S
C3258 C3263 1.363 . S
C3259 H3230 0.950 . S
C3259 C3258 1.397 . S
C3259 C3260 1.334 . S
C3260 H3231 0.950 . S
C3260 C3259 1.334 . S
C3260 C3261 1.287 . S
C3261 C3260 1.287 . S
C3261 C3262 1.524 . S
C3261 H3264 0.999 . S
C3262 H3232 0.950 1_556 S
C3262 C3261 1.524 . S
C3262 C3263 1.415 . S
C3263 H3233 0.950 . S
C3263 C3258 1.363 . S
C3263 C3262 1.415 . S
H3264 C3261 0.999 . S
H3265 C3246 0.913 . S
H3266 C3284 0.951 . S
H3267 C3286 0.951 . S
H3268 C3288 0.950 . S
H3269 C3289 0.950 . S
H3270 C3291 0.950 . S
H3271 C3294 0.950 . S
H3272 C3295 0.950 . S
H3273 C3297 0.950 . S
H3274 C3298 0.950 . S
H3275 C3299 0.951 . S
H3276 C3301 0.951 . S
H3277 C3303 0.950 . S
H3278 C3304 0.950 . S
H3279 C3306 0.950 . S
H3280 C3309 0.950 . S
H3281 C3310 0.950 . S
H3282 C3312 0.950 . S
H3283 C3313 0.950 . S
C3284 H3266 0.951 . S
C3284 C3285 1.366 . S
C3284 C3286 1.388 . S
C3285 C3284 1.366 . S
C3285 C3289 1.385 . S
C3286 H3267 0.951 . S
C3286 C3284 1.388 . S
C3286 C3287 1.366 . S
C3287 C3286 1.366 . S
C3287 C3288 1.414 . S
C3287 C3290 1.499 . S
C3288 H3268 0.950 . S
C3288 C3287 1.414 . S
C3288 C3289 1.374 . S
C3289 H3269 0.950 . S
C3289 C3285 1.385 . S
C3289 C3288 1.374 . S
C3290 C3287 1.499 . S
C3290 C3291 1.373 . S
C3290 C3292 1.389 . S
C3291 H3270 0.950 . S
C3291 C3290 1.373 . S
C3291 C3307 1.377 . S
C3292 C3290 1.389 . S
C3292 C3293 1.524 . S
C3292 C3306 1.377 . S
C3293 C3292 1.524 . S
C3293 C3294 1.397 . S
C3293 C3298 1.363 . S
C3294 H3271 0.950 . S
C3294 C3293 1.397 . S
C3294 C3295 1.334 . S
C3295 H3272 0.950 . S
C3295 C3294 1.334 . S
C3295 C3296 1.287 . S
C3296 C3295 1.287 . S
C3296 C3297 1.524 . S
C3296 H3315 0.913 . S
C3297 H3273 0.950 . S
C3297 C3296 1.524 . S
C3297 C3298 1.415 . S
C3298 H3274 0.950 . S
C3298 C3293 1.363 . S
C3298 C3297 1.415 . S
C3299 H3275 0.951 . S
C3299 C3300 1.366 . S
C3299 C3301 1.388 . S
C3300 C3299 1.366 . S
C3300 C3304 1.385 . S
C3301 H3276 0.951 . S
C3301 C3299 1.388 . S
C3301 C3302 1.366 . S
C3302 C3301 1.366 . S
C3302 C3303 1.414 . S
C3302 C3305 1.499 . S
C3303 H3277 0.950 . S
C3303 C3302 1.414 . S
C3303 C3304 1.374 . S
C3304 H3278 0.950 . S
C3304 C3300 1.385 . S
C3304 C3303 1.374 . S
C3305 C3302 1.499 . S
C3305 C3306 1.373 . S
C3305 C3307 1.389 . S
C3306 H3279 0.950 . S
C3306 C3292 1.377 . S
C3306 C3305 1.373 . S
C3307 C3291 1.377 . S
C3307 C3305 1.389 . S
C3307 C3308 1.524 . S
C3308 C3307 1.524 . S
C3308 C3309 1.397 . S
C3308 C3313 1.363 . S
C3309 H3280 0.950 . S
C3309 C3308 1.397 . S
C3309 C3310 1.334 . S
C3310 H3281 0.950 . S
C3310 C3309 1.334 . S
C3310 C3311 1.287 . S
C3311 C3310 1.287 . S
C3311 C3312 1.524 . S
C3311 H3314 0.999 . S
C3312 H3282 0.950 . S
C3312 C3311 1.524 . S
C3312 C3313 1.415 . S
C3313 H3283 0.950 . S
C3313 C3308 1.363 . S
C3313 C3312 1.415 . S
H3314 C3311 0.999 . S
H3315 C3296 0.913 . S
H3316 C3334 0.951 . S
H3317 C3336 0.951 . S
H3318 C3338 0.950 . S
H3319 C3339 0.950 . S
H3320 C3341 0.950 . S
H3321 C3344 0.950 . S
H3322 C3345 0.950 . S
H3323 C3347 0.950 . S
H3324 C3348 0.950 . S
H3325 C3349 0.951 . S
H3326 C3351 0.951 . S
H3327 C3353 0.950 . S
H3328 C3354 0.950 . S
H3329 C3356 0.950 . S
H3330 C3359 0.950 . S
H3331 C3360 0.950 . S
H3332 C3362 0.950 . S
H3333 C3363 0.950 . S
C3334 H3316 0.951 . S
C3334 C3335 1.366 . S
C3334 C3336 1.388 . S
C3335 C3334 1.366 . S
C3335 C3339 1.385 . S
C3336 H3317 0.951 . S
C3336 C3334 1.388 . S
C3336 C3337 1.366 . S
C3337 C3336 1.366 . S
C3337 C3338 1.414 . S
C3337 C3340 1.499 . S
C3338 H3318 0.950 . S
C3338 C3337 1.414 . S
C3338 C3339 1.374 . S
C3339 H3319 0.950 . S
C3339 C3335 1.385 . S
C3339 C3338 1.374 . S
C3340 C3337 1.499 . S
C3340 C3341 1.373 . S
C3340 C3342 1.389 . S
C3341 H3320 0.950 . S
C3341 C3340 1.373 . S
C3341 C3357 1.377 . S
C3342 C3340 1.389 . S
C3342 C3343 1.524 . S
C3342 C3356 1.377 . S
C3343 C3342 1.524 . S
C3343 C3344 1.397 . S
C3343 C3348 1.363 . S
C3344 H3321 0.950 . S
C3344 C3343 1.397 . S
C3344 C3345 1.334 1_556 S
C3345 H3322 0.950 . S
C3345 C3344 1.334 1_554 S
C3345 C3346 1.287 1_554 S
C3346 C3345 1.287 1_556 S
C3346 C3347 1.524 . S
C3346 H3365 0.913 1_556 S
C3347 H3323 0.950 . S
C3347 C3346 1.524 . S
C3347 C3348 1.415 . S
C3348 H3324 0.950 . S
C3348 C3343 1.363 . S
C3348 C3347 1.415 . S
C3349 H3325 0.951 . S
C3349 C3350 1.366 . S
C3349 C3351 1.388 . S
C3350 C3349 1.366 . S
C3350 C3354 1.385 . S
C3351 H3326 0.951 . S
C3351 C3349 1.388 . S
C3351 C3352 1.366 . S
C3352 C3351 1.366 . S
C3352 C3353 1.414 . S
C3352 C3355 1.499 . S
C3353 H3327 0.950 . S
C3353 C3352 1.414 . S
C3353 C3354 1.374 . S
C3354 H3328 0.950 . S
C3354 C3350 1.385 . S
C3354 C3353 1.374 . S
C3355 C3352 1.499 . S
C3355 C3356 1.373 . S
C3355 C3357 1.389 . S
C3356 H3329 0.950 . S
C3356 C3342 1.377 . S
C3356 C3355 1.373 . S
C3357 C3341 1.377 . S
C3357 C3355 1.389 . S
C3357 C3358 1.524 . S
C3358 C3357 1.524 . S
C3358 C3359 1.397 . S
C3358 C3363 1.363 . S
C3359 H3330 0.950 . S
C3359 C3358 1.397 . S
C3359 C3360 1.334 . S
C3360 H3331 0.950 . S
C3360 C3359 1.334 . S
C3360 C3361 1.287 . S
C3361 C3360 1.287 . S
C3361 C3362 1.524 . S
C3361 H3364 0.999 . S
C3362 H3332 0.950 . S
C3362 C3361 1.524 . S
C3362 C3363 1.415 . S
C3363 H3333 0.950 . S
C3363 C3358 1.363 . S
C3363 C3362 1.415 . S
H3364 C3361 0.999 . S
H3365 C3346 0.913 1_554 S
H3366 C3384 0.951 . S
H3367 C3386 0.951 . S
H3368 C3388 0.950 . S
H3369 C3389 0.950 . S
H3370 C3391 0.950 . S
H3371 C3394 0.950 . S
H3372 C3395 0.948 . S
H3373 C3397 0.950 1_556 S
H3374 C3398 0.950 . S
H3375 C3399 0.951 . S
H3376 C3401 0.951 . S
H3377 C3403 0.950 . S
H3378 C3404 0.950 . S
H3379 C3406 0.950 . S
H3380 C3409 0.950 . S
H3381 C3410 0.950 . S
H3382 C3412 0.950 . S
H3383 C3413 0.950 . S
C3384 H3366 0.951 . S
C3384 C3385 1.366 . S
C3384 C3386 1.388 . S
C3385 C3384 1.366 . S
C3385 C3389 1.385 . S
C3386 H3367 0.951 . S
C3386 C3384 1.388 . S
C3386 C3387 1.366 . S
C3387 C3386 1.366 . S
C3387 C3388 1.414 . S
C3387 C3390 1.499 . S
C3388 H3368 0.950 . S
C3388 C3387 1.414 . S
C3388 C3389 1.374 . S
C3389 H3369 0.950 . S
C3389 C3385 1.385 . S
C3389 C3388 1.374 . S
C3390 C3387 1.499 . S
C3390 C3391 1.373 . S
C3390 C3392 1.389 . S
C3391 H3370 0.950 . S
C3391 C3390 1.373 . S
C3391 C3407 1.377 . S
C3392 C3390 1.389 . S
C3392 C3393 1.524 . S
C3392 C3406 1.377 . S
C3393 C3392 1.524 . S
C3393 C3394 1.397 . S
C3393 C3398 1.363 . S
C3394 H3371 0.950 . S
C3394 C3393 1.397 . S
C3394 C3395 1.334 . S
C3395 H3372 0.948 . S
C3395 C3394 1.334 . S
C3395 C3396 1.287 1_554 S
C3396 C3395 1.287 1_556 S
C3396 C3397 1.524 1_556 S
C3396 H3415 0.913 . S
C3397 H3373 0.950 1_554 S
C3397 C3396 1.524 1_554 S
C3397 C3398 1.415 . S
C3398 H3374 0.950 . S
C3398 C3393 1.363 . S
C3398 C3397 1.415 . S
C3399 H3375 0.951 . S
C3399 C3400 1.366 . S
C3399 C3401 1.388 . S
C3400 C3399 1.366 . S
C3400 C3404 1.385 . S
C3401 H3376 0.951 . S
C3401 C3399 1.388 . S
C3401 C3402 1.366 . S
C3402 C3401 1.366 . S
C3402 C3403 1.414 . S
C3402 C3405 1.499 . S
C3403 H3377 0.950 . S
C3403 C3402 1.414 . S
C3403 C3404 1.374 . S
C3404 H3378 0.950 . S
C3404 C3400 1.385 . S
C3404 C3403 1.374 . S
C3405 C3402 1.499 . S
C3405 C3406 1.373 . S
C3405 C3407 1.389 . S
C3406 H3379 0.950 . S
C3406 C3392 1.377 . S
C3406 C3405 1.373 . S
C3407 C3391 1.377 . S
C3407 C3405 1.389 . S
C3407 C3408 1.524 . S
C3408 C3407 1.524 . S
C3408 C3409 1.397 . S
C3408 C3413 1.363 . S
C3409 H3380 0.950 . S
C3409 C3408 1.397 . S
C3409 C3410 1.334 . S
C3410 H3381 0.950 . S
C3410 C3409 1.334 . S
C3410 C3411 1.287 . S
C3411 C3410 1.287 . S
C3411 C3412 1.524 . S
C3411 H3414 0.999 . S
C3412 H3382 0.950 . S
C3412 C3411 1.524 . S
C3412 C3413 1.415 . S
C3413 H3383 0.950 . S
C3413 C3408 1.363 . S
C3413 C3412 1.415 . S
H3414 C3411 0.999 . S
H3415 C3396 0.913 . S
H3416 C3434 0.951 . S
H3417 C3436 0.951 . S
H3418 C3438 0.950 . S
H3419 C3439 0.950 . S
H3420 C3441 0.950 . S
H3421 C3444 0.950 . S
H3422 C3445 0.950 . S
H3423 C3447 0.950 . S
H3424 C3448 0.950 . S
H3425 C3449 0.951 . S
H3426 C3451 0.951 . S
H3427 C3453 0.950 . S
H3428 C3454 0.950 . S
H3429 C3456 0.950 . S
H3430 C3459 0.950 . S
H3431 C3460 0.950 . S
H3432 C3462 0.950 . S
H3433 C3463 0.950 . S
C3434 H3416 0.951 . S
C3434 C3435 1.366 . S
C3434 C3436 1.388 . S
C3435 C3434 1.366 . S
C3435 C3439 1.385 . S
C3436 H3417 0.951 . S
C3436 C3434 1.388 . S
C3436 C3437 1.366 . S
C3437 C3436 1.366 . S
C3437 C3438 1.414 . S
C3437 C3440 1.499 . S
C3438 H3418 0.950 . S
C3438 C3437 1.414 . S
C3438 C3439 1.374 . S
C3439 H3419 0.950 . S
C3439 C3435 1.385 . S
C3439 C3438 1.374 . S
C3440 C3437 1.499 . S
C3440 C3441 1.373 . S
C3440 C3442 1.389 . S
C3441 H3420 0.950 . S
C3441 C3440 1.373 . S
C3441 C3457 1.377 . S
C3442 C3440 1.389 . S
C3442 C3443 1.524 . S
C3442 C3456 1.377 . S
C3443 C3442 1.524 . S
C3443 C3444 1.397 . S
C3443 C3448 1.363 . S
C3444 H3421 0.950 . S
C3444 C3443 1.397 . S
C3444 C3445 1.334 . S
C3445 H3422 0.950 . S
C3445 C3444 1.334 . S
C3445 C3446 1.287 . S
C3446 C3445 1.287 . S
C3446 C3447 1.524 . S
C3446 H3465 0.860 1_455 S
C3447 H3423 0.950 . S
C3447 C3446 1.524 . S
C3447 C3448 1.415 . S
C3448 H3424 0.950 . S
C3448 C3443 1.363 . S
C3448 C3447 1.415 . S
C3449 H3425 0.951 . S
C3449 C3450 1.366 . S
C3449 C3451 1.388 . S
C3450 C3449 1.366 . S
C3450 C3454 1.385 . S
C3451 H3426 0.951 . S
C3451 C3449 1.388 . S
C3451 C3452 1.366 . S
C3452 C3451 1.366 . S
C3452 C3453 1.414 . S
C3452 C3455 1.499 . S
C3453 H3427 0.950 . S
C3453 C3452 1.414 . S
C3453 C3454 1.374 . S
C3454 H3428 0.950 . S
C3454 C3450 1.385 . S
C3454 C3453 1.374 . S
C3455 C3452 1.499 . S
C3455 C3456 1.373 . S
C3455 C3457 1.389 . S
C3456 H3429 0.950 . S
C3456 C3442 1.377 . S
C3456 C3455 1.373 . S
C3457 C3441 1.377 . S
C3457 C3455 1.389 . S
C3457 C3458 1.524 . S
C3458 C3457 1.524 . S
C3458 C3459 1.397 . S
C3458 C3463 1.363 . S
C3459 H3430 0.950 . S
C3459 C3458 1.397 . S
C3459 C3460 1.334 . S
C3460 H3431 0.950 . S
C3460 C3459 1.334 . S
C3460 C3461 1.287 . S
C3461 C3460 1.287 . S
C3461 C3462 1.524 . S
C3461 H3464 0.999 . S
C3462 H3432 0.950 . S
C3462 C3461 1.524 . S
C3462 C3463 1.415 . S
C3463 H3433 0.950 . S
C3463 C3458 1.363 . S
C3463 C3462 1.415 . S
H3464 C3461 0.999 . S
H3465 C3446 0.860 1_655 S
H3466 C3484 0.951 . S
H3467 C3486 0.951 . S
H3468 C3488 0.950 . S
H3469 C3489 0.950 . S
H3470 C3491 0.950 . S
H3471 C3494 0.950 . S
H3472 C3495 0.950 . S
H3473 C3497 0.950 . S
H3474 C3498 0.950 . S
H3475 C3499 0.951 . S
H3476 C3501 0.951 . S
H3477 C3503 0.950 . S
H3478 C3504 0.950 . S
H3479 C3506 0.950 . S
H3480 C3509 0.950 . S
H3481 C3510 0.950 . S
H3482 C3512 0.950 . S
H3483 C3513 0.950 . S
C3484 H3466 0.951 . S
C3484 C3485 1.366 . S
C3484 C3486 1.388 . S
C3485 C3484 1.366 . S
C3485 C3489 1.385 . S
C3486 H3467 0.951 . S
C3486 C3484 1.388 . S
C3486 C3487 1.366 . S
C3487 C3486 1.366 . S
C3487 C3488 1.414 . S
C3487 C3490 1.499 . S
C3488 H3468 0.950 . S
C3488 C3487 1.414 . S
C3488 C3489 1.374 . S
C3489 H3469 0.950 . S
C3489 C3485 1.385 . S
C3489 C3488 1.374 . S
C3490 C3487 1.499 . S
C3490 C3491 1.373 . S
C3490 C3492 1.389 . S
C3491 H3470 0.950 . S
C3491 C3490 1.373 . S
C3491 C3507 1.377 . S
C3492 C3490 1.389 . S
C3492 C3493 1.524 . S
C3492 C3506 1.377 . S
C3493 C3492 1.524 . S
C3493 C3494 1.397 . S
C3493 C3498 1.363 . S
C3494 H3471 0.950 . S
C3494 C3493 1.397 . S
C3494 C3495 1.334 . S
C3495 H3472 0.950 . S
C3495 C3494 1.334 . S
C3495 C3496 1.287 . S
C3496 C3495 1.287 . S
C3496 C3497 1.524 . S
C3496 H3515 0.913 . S
C3497 H3473 0.950 . S
C3497 C3496 1.524 . S
C3497 C3498 1.415 . S
C3498 H3474 0.950 . S
C3498 C3493 1.363 . S
C3498 C3497 1.415 . S
C3499 H3475 0.951 . S
C3499 C3500 1.366 . S
C3499 C3501 1.388 . S
C3500 C3499 1.366 . S
C3500 C3504 1.385 . S
C3501 H3476 0.951 . S
C3501 C3499 1.388 . S
C3501 C3502 1.366 . S
C3502 C3501 1.366 . S
C3502 C3503 1.414 . S
C3502 C3505 1.499 . S
C3503 H3477 0.950 . S
C3503 C3502 1.414 . S
C3503 C3504 1.374 . S
C3504 H3478 0.950 . S
C3504 C3500 1.385 . S
C3504 C3503 1.374 . S
C3505 C3502 1.499 . S
C3505 C3506 1.373 . S
C3505 C3507 1.389 . S
C3506 H3479 0.950 . S
C3506 C3492 1.377 . S
C3506 C3505 1.373 . S
C3507 C3491 1.377 . S
C3507 C3505 1.389 . S
C3507 C3508 1.524 . S
C3508 C3507 1.524 . S
C3508 C3509 1.397 . S
C3508 C3513 1.363 . S
C3509 H3480 0.950 . S
C3509 C3508 1.397 . S
C3509 C3510 1.334 . S
C3510 H3481 0.950 . S
C3510 C3509 1.334 . S
C3510 C3511 1.287 . S
C3511 C3510 1.287 . S
C3511 C3512 1.524 . S
C3511 H3514 0.999 . S
C3512 H3482 0.950 . S
C3512 C3511 1.524 . S
C3512 C3513 1.415 . S
C3513 H3483 0.950 . S
C3513 C3508 1.363 . S
C3513 C3512 1.415 . S
H3514 C3511 0.999 . S
H3515 C3496 0.913 . S
H3516 C3534 0.951 . S
H3517 C3536 0.951 . S
H3518 C3538 0.950 . S
H3519 C3539 0.950 . S
H3520 C3541 0.950 . S
H3521 C3544 0.950 . S
H3522 C3545 0.950 . S
H3523 C3547 0.950 . S
H3524 C3548 0.950 . S
H3525 C3549 0.951 . S
H3526 C3551 0.951 . S
H3527 C3553 0.950 . S
H3528 C3554 0.950 . S
H3529 C3556 0.950 . S
H3530 C3559 0.950 . S
H3531 C3560 0.950 . S
H3532 C3562 0.950 . S
H3533 C3563 0.950 . S
C3534 H3516 0.951 . S
C3534 C3535 1.366 . S
C3534 C3536 1.388 . S
C3535 C3534 1.366 . S
C3535 C3539 1.385 . S
C3536 H3517 0.951 . S
C3536 C3534 1.388 . S
C3536 C3537 1.366 . S
C3537 C3536 1.366 . S
C3537 C3538 1.414 . S
C3537 C3540 1.499 . S
C3538 H3518 0.950 . S
C3538 C3537 1.414 . S
C3538 C3539 1.374 . S
C3539 H3519 0.950 . S
C3539 C3535 1.385 . S
C3539 C3538 1.374 . S
C3540 C3537 1.499 . S
C3540 C3541 1.373 . S
C3540 C3542 1.389 . S
C3541 H3520 0.950 . S
C3541 C3540 1.373 . S
C3541 C3557 1.377 . S
C3542 C3540 1.389 . S
C3542 C3543 1.524 . S
C3542 C3556 1.377 . S
C3543 C3542 1.524 . S
C3543 C3544 1.397 . S
C3543 C3548 1.363 . S
C3544 H3521 0.950 . S
C3544 C3543 1.397 . S
C3544 C3545 1.334 . S
C3545 H3522 0.950 . S
C3545 C3544 1.334 . S
C3545 C3546 1.287 . S
C3546 C3545 1.287 . S
C3546 C3547 1.524 . S
C3546 H3565 0.913 . S
C3547 H3523 0.950 . S
C3547 C3546 1.524 . S
C3547 C3548 1.415 . S
C3548 H3524 0.950 . S
C3548 C3543 1.363 . S
C3548 C3547 1.415 . S
C3549 H3525 0.951 . S
C3549 C3550 1.366 . S
C3549 C3551 1.388 . S
C3550 C3549 1.366 . S
C3550 C3554 1.385 . S
C3551 H3526 0.951 . S
C3551 C3549 1.388 . S
C3551 C3552 1.366 . S
C3552 C3551 1.366 . S
C3552 C3553 1.414 . S
C3552 C3555 1.499 . S
C3553 H3527 0.950 . S
C3553 C3552 1.414 . S
C3553 C3554 1.374 . S
C3554 H3528 0.950 . S
C3554 C3550 1.385 . S
C3554 C3553 1.374 . S
C3555 C3552 1.499 . S
C3555 C3556 1.373 . S
C3555 C3557 1.389 . S
C3556 H3529 0.950 . S
C3556 C3542 1.377 . S
C3556 C3555 1.373 . S
C3557 C3541 1.377 . S
C3557 C3555 1.389 . S
C3557 C3558 1.524 . S
C3558 C3557 1.524 . S
C3558 C3559 1.397 . S
C3558 C3563 1.363 . S
C3559 H3530 0.950 . S
C3559 C3558 1.397 . S
C3559 C3560 1.334 . S
C3560 H3531 0.950 . S
C3560 C3559 1.334 . S
C3560 C3561 1.287 . S
C3561 C3560 1.287 . S
C3561 C3562 1.524 . S
C3561 H3564 0.999 . S
C3562 H3532 0.950 . S
C3562 C3561 1.524 . S
C3562 C3563 1.415 . S
C3563 H3533 0.950 . S
C3563 C3558 1.363 . S
C3563 C3562 1.415 . S
H3564 C3561 0.999 . S
H3565 C3546 0.913 . S
H3566 C3584 0.951 . S
H3567 C3586 0.951 . S
H3568 C3588 0.950 . S
H3569 C3589 0.950 . S
H3570 C3591 0.950 . S
H3571 C3594 0.950 . S
H3572 C3595 0.950 . S
H3573 C3597 0.950 . S
H3574 C3598 0.950 . S
H3575 C3599 0.951 . S
H3576 C3601 0.951 . S
H3577 C3603 0.950 . S
H3578 C3604 0.950 . S
H3579 C3606 0.950 . S
H3580 C3609 0.950 . S
H3581 C3610 0.950 . S
H3582 C3612 0.950 . S
H3583 C3613 0.950 . S
C3584 H3566 0.951 . S
C3584 C3585 1.366 . S
C3584 C3586 1.388 . S
C3585 C3584 1.366 . S
C3585 C3589 1.385 . S
C3586 H3567 0.951 . S
C3586 C3584 1.388 . S
C3586 C3587 1.366 . S
C3587 C3586 1.366 . S
C3587 C3588 1.414 . S
C3587 C3590 1.499 . S
C3588 H3568 0.950 . S
C3588 C3587 1.414 . S
C3588 C3589 1.374 . S
C3589 H3569 0.950 . S
C3589 C3585 1.385 . S
C3589 C3588 1.374 . S
C3590 C3587 1.499 . S
C3590 C3591 1.373 . S
C3590 C3592 1.389 . S
C3591 H3570 0.950 . S
C3591 C3590 1.373 . S
C3591 C3607 1.377 . S
C3592 C3590 1.389 . S
C3592 C3593 1.524 . S
C3592 C3606 1.377 . S
C3593 C3592 1.524 . S
C3593 C3594 1.397 . S
C3593 C3598 1.363 . S
C3594 H3571 0.950 . S
C3594 C3593 1.397 . S
C3594 C3595 1.334 . S
C3595 H3572 0.950 . S
C3595 C3594 1.334 . S
C3595 C3596 1.287 . S
C3596 C3595 1.287 . S
C3596 C3597 1.524 . S
C3596 H3615 0.913 . S
C3597 H3573 0.950 . S
C3597 C3596 1.524 . S
C3597 C3598 1.415 . S
C3598 H3574 0.950 . S
C3598 C3593 1.363 . S
C3598 C3597 1.415 . S
C3599 H3575 0.951 . S
C3599 C3600 1.366 . S
C3599 C3601 1.388 . S
C3600 C3599 1.366 . S
C3600 C3604 1.385 . S
C3601 H3576 0.951 . S
C3601 C3599 1.388 . S
C3601 C3602 1.366 . S
C3602 C3601 1.366 . S
C3602 C3603 1.414 . S
C3602 C3605 1.499 . S
C3603 H3577 0.950 . S
C3603 C3602 1.414 . S
C3603 C3604 1.374 . S
C3604 H3578 0.950 . S
C3604 C3600 1.385 . S
C3604 C3603 1.374 . S
C3605 C3602 1.499 . S
C3605 C3606 1.373 . S
C3605 C3607 1.389 . S
C3606 H3579 0.950 . S
C3606 C3592 1.377 . S
C3606 C3605 1.373 . S
C3607 C3591 1.377 . S
C3607 C3605 1.389 . S
C3607 C3608 1.524 . S
C3608 C3607 1.524 . S
C3608 C3609 1.397 . S
C3608 C3613 1.363 . S
C3609 H3580 0.950 . S
C3609 C3608 1.397 . S
C3609 C3610 1.334 . S
C3610 H3581 0.950 . S
C3610 C3609 1.334 . S
C3610 C3611 1.287 . S
C3611 C3610 1.287 . S
C3611 C3612 1.524 . S
C3611 H3614 0.999 . S
C3612 H3582 0.950 . S
C3612 C3611 1.524 . S
C3612 C3613 1.415 . S
C3613 H3583 0.950 . S
C3613 C3608 1.363 . S
C3613 C3612 1.415 . S
H3614 C3611 0.999 . S
H3615 C3596 0.913 . S
H3616 C3634 0.951 . S
H3617 C3636 0.951 . S
H3618 C3638 0.950 . S
H3619 C3639 0.950 . S
H3620 C3641 0.950 . S
H3621 C3644 0.950 . S
H3622 C3645 0.950 . S
H3623 C3647 0.950 . S
H3624 C3648 0.950 . S
H3625 C3649 0.951 . S
H3626 C3651 0.951 . S
H3627 C3653 0.950 . S
H3628 C3654 0.950 . S
H3629 C3656 0.950 . S
H3630 C3659 0.950 . S
H3631 C3660 0.950 . S
H3632 C3662 0.950 . S
H3633 C3663 0.950 . S
C3634 H3616 0.951 . S
C3634 C3635 1.366 . S
C3634 C3636 1.388 . S
C3635 C3634 1.366 . S
C3635 C3639 1.385 . S
C3636 H3617 0.951 . S
C3636 C3634 1.388 . S
C3636 C3637 1.366 . S
C3637 C3636 1.366 . S
C3637 C3638 1.414 . S
C3637 C3640 1.499 . S
C3638 H3618 0.950 . S
C3638 C3637 1.414 . S
C3638 C3639 1.374 . S
C3639 H3619 0.950 . S
C3639 C3635 1.385 . S
C3639 C3638 1.374 . S
C3640 C3637 1.499 . S
C3640 C3641 1.373 . S
C3640 C3642 1.389 . S
C3641 H3620 0.950 . S
C3641 C3640 1.373 . S
C3641 C3657 1.377 . S
C3642 C3640 1.389 . S
C3642 C3643 1.524 . S
C3642 C3656 1.377 . S
C3643 C3642 1.524 . S
C3643 C3644 1.397 . S
C3643 C3648 1.363 . S
C3644 H3621 0.950 . S
C3644 C3643 1.397 . S
C3644 C3645 1.334 . S
C3645 H3622 0.950 . S
C3645 C3644 1.334 . S
C3645 C3646 1.287 . S
C3646 C3645 1.287 . S
C3646 C3647 1.524 . S
C3646 H3665 0.913 . S
C3647 H3623 0.950 . S
C3647 C3646 1.524 . S
C3647 C3648 1.415 . S
C3648 H3624 0.950 . S
C3648 C3643 1.363 . S
C3648 C3647 1.415 . S
C3649 H3625 0.951 . S
C3649 C3650 1.366 . S
C3649 C3651 1.388 . S
C3650 C3649 1.366 . S
C3650 C3654 1.385 . S
C3651 H3626 0.951 . S
C3651 C3649 1.388 . S
C3651 C3652 1.366 . S
C3652 C3651 1.366 . S
C3652 C3653 1.414 . S
C3652 C3655 1.499 . S
C3653 H3627 0.950 . S
C3653 C3652 1.414 . S
C3653 C3654 1.374 . S
C3654 H3628 0.950 . S
C3654 C3650 1.385 . S
C3654 C3653 1.374 . S
C3655 C3652 1.499 . S
C3655 C3656 1.373 . S
C3655 C3657 1.389 . S
C3656 H3629 0.950 . S
C3656 C3642 1.377 . S
C3656 C3655 1.373 . S
C3657 C3641 1.377 . S
C3657 C3655 1.389 . S
C3657 C3658 1.524 . S
C3658 C3657 1.524 . S
C3658 C3659 1.397 . S
C3658 C3663 1.363 . S
C3659 H3630 0.950 . S
C3659 C3658 1.397 . S
C3659 C3660 1.334 . S
C3660 H3631 0.950 . S
C3660 C3659 1.334 . S
C3660 C3661 1.287 . S
C3661 C3660 1.287 . S
C3661 C3662 1.524 . S
C3661 H3664 0.999 . S
C3662 H3632 0.950 . S
C3662 C3661 1.524 . S
C3662 C3663 1.415 . S
C3663 H3633 0.950 . S
C3663 C3658 1.363 . S
C3663 C3662 1.415 . S
H3664 C3661 0.999 . S
H3665 C3646 0.913 . S
H3666 C3684 0.951 . S
H3667 C3686 0.951 . S
H3668 C3688 0.950 1_655 S
H3669 C3689 0.950 1_655 S
H3670 C3691 0.950 . S
H3671 C3694 0.950 . S
H3672 C3695 0.950 . S
H3673 C3697 0.950 . S
H3674 C3698 0.950 . S
H3675 C3699 0.951 . S
H3676 C3701 0.951 . S
H3677 C3703 0.950 . S
H3678 C3704 0.950 . S
H3679 C3706 0.950 . S
H3680 C3709 0.950 . S
H3681 C3710 0.950 . S
H3682 C3712 0.950 . S
H3683 C3713 0.950 . S
C3684 H3666 0.951 . S
C3684 C3685 1.366 . S
C3684 C3686 1.388 . S
C3685 C3684 1.366 . S
C3685 C3689 1.385 . S
C3686 H3667 0.951 . S
C3686 C3684 1.388 . S
C3686 C3687 1.366 . S
C3687 C3686 1.366 . S
C3687 C3688 1.414 . S
C3687 C3690 1.499 . S
C3688 H3668 0.950 1_455 S
C3688 C3687 1.414 . S
C3688 C3689 1.374 . S
C3689 H3669 0.950 1_455 S
C3689 C3685 1.385 . S
C3689 C3688 1.374 . S
C3690 C3687 1.499 . S
C3690 C3691 1.373 1_455 S
C3690 C3692 1.389 . S
C3691 H3670 0.950 . S
C3691 C3690 1.373 1_655 S
C3691 C3707 1.377 . S
C3692 C3690 1.389 . S
C3692 C3693 1.524 . S
C3692 C3706 1.377 . S
C3693 C3692 1.524 . S
C3693 C3694 1.397 . S
C3693 C3698 1.363 . S
C3694 H3671 0.950 . S
C3694 C3693 1.397 . S
C3694 C3695 1.334 . S
C3695 H3672 0.950 . S
C3695 C3694 1.334 . S
C3695 C3696 1.287 . S
C3696 C3695 1.287 . S
C3696 C3697 1.524 . S
C3696 H3715 0.913 . S
C3697 H3673 0.950 . S
C3697 C3696 1.524 . S
C3697 C3698 1.415 . S
C3698 H3674 0.950 . S
C3698 C3693 1.363 . S
C3698 C3697 1.415 . S
C3699 H3675 0.951 . S
C3699 C3700 1.366 1_655 S
C3699 C3701 1.388 . S
C3700 C3699 1.366 1_455 S
C3700 C3704 1.385 . S
C3701 H3676 0.951 . S
C3701 C3699 1.388 . S
C3701 C3702 1.366 1_655 S
C3702 C3701 1.366 1_455 S
C3702 C3703 1.414 . S
C3702 C3705 1.499 . S
C3703 H3677 0.950 . S
C3703 C3702 1.414 . S
C3703 C3704 1.374 . S
C3704 H3678 0.950 . S
C3704 C3700 1.385 . S
C3704 C3703 1.374 . S
C3705 C3702 1.499 . S
C3705 C3706 1.373 . S
C3705 C3707 1.389 1_455 S
C3706 H3679 0.950 . S
C3706 C3692 1.377 . S
C3706 C3705 1.373 . S
C3707 C3691 1.377 . S
C3707 C3705 1.389 1_655 S
C3707 C3708 1.524 . S
C3708 C3707 1.524 . S
C3708 C3709 1.397 . S
C3708 C3713 1.363 . S
C3709 H3680 0.950 . S
C3709 C3708 1.397 . S
C3709 C3710 1.334 . S
C3710 H3681 0.950 . S
C3710 C3709 1.334 . S
C3710 C3711 1.287 . S
C3711 C3710 1.287 . S
C3711 C3712 1.524 . S
C3711 H3714 0.999 . S
C3712 H3682 0.950 . S
C3712 C3711 1.524 . S
C3712 C3713 1.415 . S
C3713 H3683 0.950 . S
C3713 C3708 1.363 . S
C3713 C3712 1.415 . S
H3714 C3711 0.999 . S
H3715 C3696 0.913 . S
H3716 C3734 0.951 . S
H3717 C3736 0.951 . S
H3718 C3738 0.950 . S
H3719 C3739 0.950 . S
H3720 C3741 0.950 . S
H3721 C3744 0.950 . S
H3722 C3745 0.950 . S
H3723 C3747 0.950 . S
H3724 C3748 0.950 . S
H3725 C3749 0.951 . S
H3726 C3751 0.951 . S
H3727 C3753 0.950 . S
H3728 C3754 0.950 . S
H3729 C3756 0.950 . S
H3730 C3759 0.950 . S
H3731 C3760 0.950 . S
H3732 C3762 0.950 . S
H3733 C3763 0.950 . S
C3734 H3716 0.951 . S
C3734 C3735 1.366 . S
C3734 C3736 1.388 . S
C3735 C3734 1.366 . S
C3735 C3739 1.385 . S
C3736 H3717 0.951 . S
C3736 C3734 1.388 . S
C3736 C3737 1.366 . S
C3737 C3736 1.366 . S
C3737 C3738 1.414 . S
C3737 C3740 1.499 . S
C3738 H3718 0.950 . S
C3738 C3737 1.414 . S
C3738 C3739 1.374 . S
C3739 H3719 0.950 . S
C3739 C3735 1.385 . S
C3739 C3738 1.374 . S
C3740 C3737 1.499 . S
C3740 C3741 1.373 . S
C3740 C3742 1.389 . S
C3741 H3720 0.950 . S
C3741 C3740 1.373 . S
C3741 C3757 1.377 . S
C3742 C3740 1.389 . S
C3742 C3743 1.524 . S
C3742 C3756 1.377 . S
C3743 C3742 1.524 . S
C3743 C3744 1.397 . S
C3743 C3748 1.363 . S
C3744 H3721 0.950 . S
C3744 C3743 1.397 . S
C3744 C3745 1.334 . S
C3745 H3722 0.950 . S
C3745 C3744 1.334 . S
C3745 C3746 1.287 . S
C3746 C3745 1.287 . S
C3746 C3747 1.524 . S
C3746 H3765 0.913 . S
C3747 H3723 0.950 . S
C3747 C3746 1.524 . S
C3747 C3748 1.415 . S
C3748 H3724 0.950 . S
C3748 C3743 1.363 . S
C3748 C3747 1.415 . S
C3749 H3725 0.951 . S
C3749 C3750 1.366 . S
C3749 C3751 1.388 . S
C3750 C3749 1.366 . S
C3750 C3754 1.385 . S
C3751 H3726 0.951 . S
C3751 C3749 1.388 . S
C3751 C3752 1.366 . S
C3752 C3751 1.366 . S
C3752 C3753 1.414 . S
C3752 C3755 1.499 . S
C3753 H3727 0.950 . S
C3753 C3752 1.414 . S
C3753 C3754 1.374 . S
C3754 H3728 0.950 . S
C3754 C3750 1.385 . S
C3754 C3753 1.374 . S
C3755 C3752 1.499 . S
C3755 C3756 1.373 . S
C3755 C3757 1.389 . S
C3756 H3729 0.950 . S
C3756 C3742 1.377 . S
C3756 C3755 1.373 . S
C3757 C3741 1.377 . S
C3757 C3755 1.389 . S
C3757 C3758 1.524 . S
C3758 C3757 1.524 . S
C3758 C3759 1.397 . S
C3758 C3763 1.363 . S
C3759 H3730 0.950 . S
C3759 C3758 1.397 . S
C3759 C3760 1.334 . S
C3760 H3731 0.950 . S
C3760 C3759 1.334 . S
C3760 C3761 1.287 . S
C3761 C3760 1.287 . S
C3761 C3762 1.524 . S
C3761 H3764 0.999 . S
C3762 H3732 0.950 . S
C3762 C3761 1.524 . S
C3762 C3763 1.415 . S
C3763 H3733 0.950 . S
C3763 C3758 1.363 . S
C3763 C3762 1.415 . S
H3764 C3761 0.999 . S
H3765 C3746 0.913 . S
H3766 C3784 0.951 . S
H3767 C3786 0.951 . S
H3768 C3788 0.950 . S
H3769 C3789 0.950 . S
H3770 C3791 0.950 . S
H3771 C3794 0.950 . S
H3772 C3795 0.950 . S
H3773 C3797 0.950 . S
H3774 C3798 0.950 . S
H3775 C3799 0.951 . S
H3776 C3801 0.951 . S
H3777 C3803 0.950 . S
H3778 C3804 0.950 . S
H3779 C3806 0.950 . S
H3780 C3809 0.950 . S
H3781 C3810 0.950 . S
H3782 C3812 0.950 . S
H3783 C3813 0.950 . S
C3784 H3766 0.951 . S
C3784 C3785 1.366 1_545 S
C3784 C3786 1.388 . S
C3785 C3784 1.366 1_565 S
C3785 C3789 1.385 . S
C3786 H3767 0.951 . S
C3786 C3784 1.388 . S
C3786 C3787 1.366 1_545 S
C3787 C3786 1.366 1_565 S
C3787 C3788 1.414 . S
C3787 C3790 1.499 . S
C3788 H3768 0.950 . S
C3788 C3787 1.414 . S
C3788 C3789 1.374 . S
C3789 H3769 0.950 . S
C3789 C3785 1.385 . S
C3789 C3788 1.374 . S
C3790 C3787 1.499 . S
C3790 C3791 1.373 . S
C3790 C3792 1.389 . S
C3791 H3770 0.950 . S
C3791 C3790 1.373 . S
C3791 C3807 1.377 . S
C3792 C3790 1.389 . S
C3792 C3793 1.524 . S
C3792 C3806 1.377 . S
C3793 C3792 1.524 . S
C3793 C3794 1.397 . S
C3793 C3798 1.363 1_565 S
C3794 H3771 0.950 . S
C3794 C3793 1.397 . S
C3794 C3795 1.334 . S
C3795 H3772 0.950 . S
C3795 C3794 1.334 . S
C3795 C3796 1.287 . S
C3796 C3795 1.287 . S
C3796 C3797 1.524 1_565 S
C3796 H3815 0.913 . S
C3797 H3773 0.950 . S
C3797 C3796 1.524 1_545 S
C3797 C3798 1.415 . S
C3798 H3774 0.950 . S
C3798 C3793 1.363 1_545 S
C3798 C3797 1.415 . S
C3799 H3775 0.951 . S
C3799 C3800 1.366 . S
C3799 C3801 1.388 . S
C3800 C3799 1.366 . S
C3800 C3804 1.385 1_565 S
C3801 H3776 0.951 . S
C3801 C3799 1.388 . S
C3801 C3802 1.366 . S
C3802 C3801 1.366 . S
C3802 C3803 1.414 1_565 S
C3802 C3805 1.499 . S
C3803 H3777 0.950 . S
C3803 C3802 1.414 1_545 S
C3803 C3804 1.374 . S
C3804 H3778 0.950 . S
C3804 C3800 1.385 1_545 S
C3804 C3803 1.374 . S
C3805 C3802 1.499 . S
C3805 C3806 1.373 . S
C3805 C3807 1.389 . S
C3806 H3779 0.950 . S
C3806 C3792 1.377 . S
C3806 C3805 1.373 . S
C3807 C3791 1.377 . S
C3807 C3805 1.389 . S
C3807 C3808 1.524 . S
C3808 C3807 1.524 . S
C3808 C3809 1.397 1_565 S
C3808 C3813 1.363 . S
C3809 H3780 0.950 . S
C3809 C3808 1.397 1_545 S
C3809 C3810 1.334 . S
C3810 H3781 0.950 . S
C3810 C3809 1.334 . S
C3810 C3811 1.287 1_545 S
C3811 C3810 1.287 1_565 S
C3811 C3812 1.524 . S
C3811 H3814 0.981 . S
C3812 H3782 0.950 . S
C3812 C3811 1.524 . S
C3812 C3813 1.415 . S
C3813 H3783 0.950 . S
C3813 C3808 1.363 . S
C3813 C3812 1.415 . S
H3814 C3811 0.981 . S
H3815 C3796 0.913 . S
H3816 C3834 0.951 . S
H3817 C3836 0.951 . S
H3818 C3838 0.950 . S
H3819 C3839 0.950 . S
H3820 C3841 0.955 . S
H3821 C3844 0.950 . S
H3822 C3845 0.950 . S
H3823 C3847 0.950 . S
H3824 C3848 0.950 . S
H3825 C3849 0.951 . S
H3826 C3851 0.951 . S
H3827 C3853 0.959 . S
H3828 C3854 0.941 1_545 S
H3829 C3856 0.950 . S
H3830 C3859 0.950 . S
H3831 C3860 0.950 . S
H3832 C3862 0.950 . S
H3833 C3863 0.950 . S
C3834 H3816 0.951 . S
C3834 C3835 1.366 . S
C3834 C3836 1.388 . S
C3835 C3834 1.366 . S
C3835 C3839 1.385 . S
C3836 H3817 0.951 . S
C3836 C3834 1.388 . S
C3836 C3837 1.366 . S
C3837 C3836 1.366 . S
C3837 C3838 1.414 . S
C3837 C3840 1.499 . S
C3838 H3818 0.950 . S
C3838 C3837 1.414 . S
C3838 C3839 1.374 . S
C3839 H3819 0.950 . S
C3839 C3835 1.385 . S
C3839 C3838 1.374 . S
C3840 C3837 1.499 . S
C3840 C3841 1.329 1_565 S
C3840 C3842 1.389 . S
C3841 H3820 0.955 . S
C3841 C3840 1.329 1_545 S
C3841 C3857 1.423 . S
C3842 C3840 1.389 . S
C3842 C3843 1.524 . S
C3842 C3856 1.377 . S
C3843 C3842 1.524 . S
C3843 C3844 1.397 . S
C3843 C3848 1.363 . S
C3844 H3821 0.950 . S
C3844 C3843 1.397 . S
C3844 C3845 1.334 . S
C3845 H3822 0.950 . S
C3845 C3844 1.334 . S
C3845 C3846 1.287 . S
C3846 C3845 1.287 . S
C3846 C3847 1.524 . S
C3846 H3865 0.913 . S
C3847 H3823 0.950 . S
C3847 C3846 1.524 . S
C3847 C3848 1.415 . S
C3848 H3824 0.950 . S
C3848 C3843 1.363 . S
C3848 C3847 1.415 . S
C3849 H3825 0.951 . S
C3849 C3850 1.366 . S
C3849 C3851 1.388 . S
C3850 C3849 1.366 . S
C3850 C3854 1.385 . S
C3851 H3826 0.951 . S
C3851 C3849 1.388 . S
C3851 C3852 1.366 . S
C3852 C3851 1.366 . S
C3852 C3853 1.414 . S
C3852 C3855 1.499 . S
C3853 H3827 0.959 . S
C3853 C3852 1.414 . S
C3853 C3854 1.374 . S
C3854 H3828 0.941 1_565 S
C3854 C3850 1.385 . S
C3854 C3853 1.374 . S
C3855 C3852 1.499 . S
C3855 C3856 1.373 . S
C3855 C3857 1.389 1_565 S
C3856 H3829 0.950 . S
C3856 C3842 1.377 . S
C3856 C3855 1.373 . S
C3857 C3841 1.423 . S
C3857 C3855 1.389 1_545 S
C3857 C3858 1.524 . S
C3858 C3857 1.524 . S
C3858 C3859 1.397 . S
C3858 C3863 1.363 . S
C3859 H3830 0.950 . S
C3859 C3858 1.397 . S
C3859 C3860 1.334 . S
C3860 H3831 0.950 . S
C3860 C3859 1.334 . S
C3860 C3861 1.287 . S
C3861 C3860 1.287 . S
C3861 C3862 1.524 . S
C3861 H3864 0.999 . S
C3862 H3832 0.950 . S
C3862 C3861 1.524 . S
C3862 C3863 1.415 . S
C3863 H3833 0.950 . S
C3863 C3858 1.363 . S
C3863 C3862 1.415 . S
H3864 C3861 0.999 . S
H3865 C3846 0.913 . S
H3866 C3884 0.951 . S
H3867 C3886 0.951 . S
H3868 C3888 0.950 1_655 S
H3869 C3889 0.950 1_655 S
H3870 C3891 0.950 . S
H3871 C3894 0.950 . S
H3872 C3895 0.950 . S
H3873 C3897 0.950 . S
H3874 C3898 0.940 1_455 S
H3875 C3899 0.951 . S
H3876 C3901 0.951 . S
H3877 C3903 0.950 . S
H3878 C3904 0.950 . S
H3879 C3906 0.950 1_655 S
H3880 C3909 0.950 . S
H3881 C3910 0.950 . S
H3882 C3912 0.950 . S
H3883 C3913 0.950 . S
C3884 H3866 0.951 . S
C3884 C3885 1.366 . S
C3884 C3886 1.388 . S
C3885 C3884 1.366 . S
C3885 C3889 1.385 . S
C3886 H3867 0.951 . S
C3886 C3884 1.388 . S
C3886 C3887 1.366 . S
C3887 C3886 1.366 . S
C3887 C3888 1.414 . S
C3887 C3890 1.499 . S
C3888 H3868 0.950 1_455 S
C3888 C3887 1.414 . S
C3888 C3889 1.374 . S
C3889 H3869 0.950 1_455 S
C3889 C3885 1.385 . S
C3889 C3888 1.374 . S
C3890 C3887 1.499 . S
C3890 C3891 1.373 . S
C3890 C3892 1.389 . S
C3891 H3870 0.950 . S
C3891 C3890 1.373 . S
C3891 C3907 1.377 . S
C3892 C3890 1.389 . S
C3892 C3893 1.524 1_455 S
C3892 C3906 1.377 . S
C3893 C3892 1.524 1_655 S
C3893 C3894 1.397 . S
C3893 C3898 1.365 . S
C3894 H3871 0.950 . S
C3894 C3893 1.397 . S
C3894 C3895 1.334 . S
C3895 H3872 0.950 . S
C3895 C3894 1.334 . S
C3895 C3896 1.287 . S
C3896 C3895 1.287 . S
C3896 C3897 1.524 . S
C3896 H3915 0.913 . S
C3897 H3873 0.950 . S
C3897 C3896 1.524 . S
C3897 C3898 1.424 . S
C3898 H3874 0.940 1_655 S
C3898 C3893 1.365 . S
C3898 C3897 1.424 . S
C3899 H3875 0.951 . S
C3899 C3900 1.366 1_655 S
C3899 C3901 1.388 . S
C3900 C3899 1.366 1_455 S
C3900 C3904 1.385 . S
C3901 H3876 0.951 . S
C3901 C3899 1.388 . S
C3901 C3902 1.366 1_655 S
C3902 C3901 1.366 1_455 S
C3902 C3903 1.414 . S
C3902 C3905 1.499 . S
C3903 H3877 0.950 . S
C3903 C3902 1.414 . S
C3903 C3904 1.374 . S
C3904 H3878 0.950 . S
C3904 C3900 1.385 . S
C3904 C3903 1.374 . S
C3905 C3902 1.499 . S
C3905 C3906 1.373 . S
C3905 C3907 1.389 . S
C3906 H3879 0.950 1_455 S
C3906 C3892 1.377 . S
C3906 C3905 1.373 . S
C3907 C3891 1.377 . S
C3907 C3905 1.389 . S
C3907 C3908 1.524 . S
C3908 C3907 1.524 . S
C3908 C3909 1.397 . S
C3908 C3913 1.363 . S
C3909 H3880 0.950 . S
C3909 C3908 1.397 . S
C3909 C3910 1.334 . S
C3910 H3881 0.950 . S
C3910 C3909 1.334 . S
C3910 C3911 1.287 . S
C3911 C3910 1.287 . S
C3911 C3912 1.524 . S
C3911 H3914 0.999 . S
C3912 H3882 0.950 . S
C3912 C3911 1.524 . S
C3912 C3913 1.415 . S
C3913 H3883 0.950 . S
C3913 C3908 1.363 . S
C3913 C3912 1.415 . S
H3914 C3911 0.999 . S
H3915 C3896 0.913 . S
H3916 C3934 0.951 . S
H3917 C3936 0.951 . S
H3918 C3938 0.950 . S
H3919 C3939 0.950 . S
H3920 C3941 0.950 . S
H3921 C3944 0.950 . S
H3922 C3945 0.950 . S
H3923 C3947 0.950 . S
H3924 C3948 0.950 . S
H3925 C3949 0.951 . S
H3926 C3951 0.951 . S
H3927 C3953 0.950 . S
H3928 C3954 0.950 . S
H3929 C3956 0.950 . S
H3930 C3959 0.950 . S
H3931 C3960 0.950 . S
H3932 C3962 0.950 . S
H3933 C3963 0.950 . S
C3934 H3916 0.951 . S
C3934 C3935 1.366 . S
C3934 C3936 1.388 . S
C3935 C3934 1.366 . S
C3935 C3939 1.385 . S
C3936 H3917 0.951 . S
C3936 C3934 1.388 . S
C3936 C3937 1.366 . S
C3937 C3936 1.366 . S
C3937 C3938 1.414 . S
C3937 C3940 1.499 . S
C3938 H3918 0.950 . S
C3938 C3937 1.414 . S
C3938 C3939 1.374 . S
C3939 H3919 0.950 . S
C3939 C3935 1.385 . S
C3939 C3938 1.374 . S
C3940 C3937 1.499 . S
C3940 C3941 1.373 . S
C3940 C3942 1.389 . S
C3941 H3920 0.950 . S
C3941 C3940 1.373 . S
C3941 C3957 1.377 . S
C3942 C3940 1.389 . S
C3942 C3943 1.524 . S
C3942 C3956 1.377 . S
C3943 C3942 1.524 . S
C3943 C3944 1.397 . S
C3943 C3948 1.363 . S
C3944 H3921 0.950 . S
C3944 C3943 1.397 . S
C3944 C3945 1.334 . S
C3945 H3922 0.950 . S
C3945 C3944 1.334 . S
C3945 C3946 1.287 . S
C3946 C3945 1.287 . S
C3946 C3947 1.524 . S
C3946 H3965 0.913 . S
C3947 H3923 0.950 . S
C3947 C3946 1.524 . S
C3947 C3948 1.415 . S
C3948 H3924 0.950 . S
C3948 C3943 1.363 . S
C3948 C3947 1.415 . S
C3949 H3925 0.951 . S
C3949 C3950 1.366 . S
C3949 C3951 1.388 . S
C3950 C3949 1.366 . S
C3950 C3954 1.385 . S
C3951 H3926 0.951 . S
C3951 C3949 1.388 . S
C3951 C3952 1.366 . S
C3952 C3951 1.366 . S
C3952 C3953 1.414 . S
C3952 C3955 1.499 . S
C3953 H3927 0.950 . S
C3953 C3952 1.414 . S
C3953 C3954 1.374 . S
C3954 H3928 0.950 . S
C3954 C3950 1.385 . S
C3954 C3953 1.374 . S
C3955 C3952 1.499 . S
C3955 C3956 1.373 . S
C3955 C3957 1.389 . S
C3956 H3929 0.950 . S
C3956 C3942 1.377 . S
C3956 C3955 1.373 . S
C3957 C3941 1.377 . S
C3957 C3955 1.389 . S
C3957 C3958 1.524 . S
C3958 C3957 1.524 . S
C3958 C3959 1.397 . S
C3958 C3963 1.363 . S
C3959 H3930 0.950 . S
C3959 C3958 1.397 . S
C3959 C3960 1.334 . S
C3960 H3931 0.950 . S
C3960 C3959 1.334 . S
C3960 C3961 1.287 . S
C3961 C3960 1.287 . S
C3961 C3962 1.524 . S
C3961 H3964 0.999 . S
C3962 H3932 0.950 . S
C3962 C3961 1.524 . S
C3962 C3963 1.415 . S
C3963 H3933 0.950 . S
C3963 C3958 1.363 . S
C3963 C3962 1.415 . S
H3964 C3961 0.999 . S
H3965 C3946 0.913 . S
H3966 C3984 0.951 . S
H3967 C3986 0.951 . S
H3968 C3988 0.950 . S
H3969 C3989 0.950 . S
H3970 C3991 0.950 . S
H3971 C3994 0.950 . S
H3972 C3995 0.950 . S
H3973 C3997 0.950 . S
H3974 C3998 0.950 . S
H3975 C3999 0.951 . S
H3976 C4001 0.951 . S
H3977 C4003 0.950 . S
H3978 C4004 0.950 . S
H3979 C4006 0.950 . S
H3980 C4009 0.950 . S
H3981 C4010 0.950 . S
H3982 C4012 0.950 . S
H3983 C4013 0.950 . S
C3984 H3966 0.951 . S
C3984 C3985 1.366 . S
C3984 C3986 1.388 . S
C3985 C3984 1.366 . S
C3985 C3989 1.385 . S
C3986 H3967 0.951 . S
C3986 C3984 1.388 . S
C3986 C3987 1.366 . S
C3987 C3986 1.366 . S
C3987 C3988 1.414 . S
C3987 C3990 1.499 . S
C3988 H3968 0.950 . S
C3988 C3987 1.414 . S
C3988 C3989 1.374 . S
C3989 H3969 0.950 . S
C3989 C3985 1.385 . S
C3989 C3988 1.374 . S
C3990 C3987 1.499 . S
C3990 C3991 1.373 . S
C3990 C3992 1.389 . S
C3991 H3970 0.950 . S
C3991 C3990 1.373 . S
C3991 C4007 1.377 . S
C3992 C3990 1.389 . S
C3992 C3993 1.524 . S
C3992 C4006 1.377 . S
C3993 C3992 1.524 . S
C3993 C3994 1.397 . S
C3993 C3998 1.363 . S
C3994 H3971 0.950 . S
C3994 C3993 1.397 . S
C3994 C3995 1.334 . S
C3995 H3972 0.950 . S
C3995 C3994 1.334 . S
C3995 C3996 1.287 . S
C3996 C3995 1.287 . S
C3996 C3997 1.524 . S
C3996 H4015 0.913 . S
C3997 H3973 0.950 . S
C3997 C3996 1.524 . S
C3997 C3998 1.415 . S
C3998 H3974 0.950 . S
C3998 C3993 1.363 . S
C3998 C3997 1.415 . S
C3999 H3975 0.951 . S
C3999 C4000 1.366 . S
C3999 C4001 1.388 . S
C4000 C3999 1.366 . S
C4000 C4004 1.385 . S
C4001 H3976 0.951 . S
C4001 C3999 1.388 . S
C4001 C4002 1.366 . S
C4002 C4001 1.366 . S
C4002 C4003 1.414 . S
C4002 C4005 1.499 . S
C4003 H3977 0.950 . S
C4003 C4002 1.414 . S
C4003 C4004 1.374 . S
C4004 H3978 0.950 . S
C4004 C4000 1.385 . S
C4004 C4003 1.374 . S
C4005 C4002 1.499 . S
C4005 C4006 1.373 . S
C4005 C4007 1.389 . S
C4006 H3979 0.950 . S
C4006 C3992 1.377 . S
C4006 C4005 1.373 . S
C4007 C3991 1.377 . S
C4007 C4005 1.389 . S
C4007 C4008 1.524 . S
C4008 C4007 1.524 . S
C4008 C4009 1.397 . S
C4008 C4013 1.363 . S
C4009 H3980 0.950 . S
C4009 C4008 1.397 . S
C4009 C4010 1.334 . S
C4010 H3981 0.950 . S
C4010 C4009 1.334 . S
C4010 C4011 1.287 . S
C4011 C4010 1.287 . S
C4011 C4012 1.524 . S
C4011 H4014 0.999 . S
C4012 H3982 0.950 . S
C4012 C4011 1.524 . S
C4012 C4013 1.415 . S
C4013 H3983 0.950 . S
C4013 C4008 1.363 . S
C4013 C4012 1.415 . S
H4014 C4011 0.999 . S
H4015 C3996 0.913 . S
H4016 C4034 0.951 . S
H4017 C4036 0.951 . S
H4018 C4038 0.950 . S
H4019 C4039 0.950 . S
H4020 C4041 0.950 . S
H4021 C4044 0.950 . S
H4022 C4045 0.950 . S
H4023 C4047 0.950 . S
H4024 C4048 0.950 . S
H4025 C4049 0.951 . S
H4026 C4051 0.951 . S
H4027 C4053 0.950 . S
H4028 C4054 0.950 . S
H4029 C4056 0.950 . S
H4030 C4059 0.950 . S
H4031 C4060 0.950 . S
H4032 C4062 0.950 . S
H4033 C4063 0.950 . S
C4034 H4016 0.951 . S
C4034 C4035 1.366 . S
C4034 C4036 1.388 . S
C4035 C4034 1.366 . S
C4035 C4039 1.385 . S
C4036 H4017 0.951 . S
C4036 C4034 1.388 . S
C4036 C4037 1.366 . S
C4037 C4036 1.366 . S
C4037 C4038 1.414 . S
C4037 C4040 1.499 . S
C4038 H4018 0.950 . S
C4038 C4037 1.414 . S
C4038 C4039 1.374 . S
C4039 H4019 0.950 . S
C4039 C4035 1.385 . S
C4039 C4038 1.374 . S
C4040 C4037 1.499 . S
C4040 C4041 1.373 . S
C4040 C4042 1.389 . S
C4041 H4020 0.950 . S
C4041 C4040 1.373 . S
C4041 C4057 1.377 . S
C4042 C4040 1.389 . S
C4042 C4043 1.524 . S
C4042 C4056 1.377 . S
C4043 C4042 1.524 . S
C4043 C4044 1.397 . S
C4043 C4048 1.363 . S
C4044 H4021 0.950 . S
C4044 C4043 1.397 . S
C4044 C4045 1.334 . S
C4045 H4022 0.950 . S
C4045 C4044 1.334 . S
C4045 C4046 1.287 . S
C4046 C4045 1.287 . S
C4046 C4047 1.524 . S
C4046 H4065 0.913 . S
C4047 H4023 0.950 . S
C4047 C4046 1.524 . S
C4047 C4048 1.415 . S
C4048 H4024 0.950 . S
C4048 C4043 1.363 . S
C4048 C4047 1.415 . S
C4049 H4025 0.951 . S
C4049 C4050 1.366 . S
C4049 C4051 1.388 . S
C4050 C4049 1.366 . S
C4050 C4054 1.385 . S
C4051 H4026 0.951 . S
C4051 C4049 1.388 . S
C4051 C4052 1.366 . S
C4052 C4051 1.366 . S
C4052 C4053 1.414 . S
C4052 C4055 1.499 . S
C4053 H4027 0.950 . S
C4053 C4052 1.414 . S
C4053 C4054 1.374 . S
C4054 H4028 0.950 . S
C4054 C4050 1.385 . S
C4054 C4053 1.374 . S
C4055 C4052 1.499 . S
C4055 C4056 1.373 . S
C4055 C4057 1.389 . S
C4056 H4029 0.950 . S
C4056 C4042 1.377 . S
C4056 C4055 1.373 . S
C4057 C4041 1.377 . S
C4057 C4055 1.389 . S
C4057 C4058 1.524 . S
C4058 C4057 1.524 . S
C4058 C4059 1.397 . S
C4058 C4063 1.363 . S
C4059 H4030 0.950 . S
C4059 C4058 1.397 . S
C4059 C4060 1.334 . S
C4060 H4031 0.950 . S
C4060 C4059 1.334 . S
C4060 C4061 1.287 . S
C4061 C4060 1.287 . S
C4061 C4062 1.524 . S
C4061 H4064 0.999 . S
C4062 H4032 0.950 . S
C4062 C4061 1.524 . S
C4062 C4063 1.415 . S
C4063 H4033 0.950 . S
C4063 C4058 1.363 . S
C4063 C4062 1.415 . S
H4064 C4061 0.999 . S
H4065 C4046 0.913 . S
H4066 C4084 0.951 . S
H4067 C4086 0.951 . S
H4068 C4088 0.950 . S
H4069 C4089 0.950 . S
H4070 C4091 0.950 . S
H4071 C4094 0.950 . S
H4072 C4095 0.950 . S
H4073 C4097 0.950 . S
H4074 C4098 0.950 . S
H4075 C4099 0.951 . S
H4076 C4101 0.951 . S
H4077 C4103 0.950 . S
H4078 C4104 0.950 . S
H4079 C4106 0.950 . S
H4080 C4109 0.950 . S
H4081 C4110 0.950 . S
H4082 C4112 0.950 . S
H4083 C4113 0.950 . S
C4084 H4066 0.951 . S
C4084 C4085 1.366 . S
C4084 C4086 1.388 . S
C4085 C4084 1.366 . S
C4085 C4089 1.385 . S
C4086 H4067 0.951 . S
C4086 C4084 1.388 . S
C4086 C4087 1.366 . S
C4087 C4086 1.366 . S
C4087 C4088 1.414 . S
C4087 C4090 1.499 . S
C4088 H4068 0.950 . S
C4088 C4087 1.414 . S
C4088 C4089 1.374 . S
C4089 H4069 0.950 . S
C4089 C4085 1.385 . S
C4089 C4088 1.374 . S
C4090 C4087 1.499 . S
C4090 C4091 1.373 . S
C4090 C4092 1.389 . S
C4091 H4070 0.950 . S
C4091 C4090 1.373 . S
C4091 C4107 1.377 . S
C4092 C4090 1.389 . S
C4092 C4093 1.524 . S
C4092 C4106 1.377 . S
C4093 C4092 1.524 . S
C4093 C4094 1.397 . S
C4093 C4098 1.363 . S
C4094 H4071 0.950 . S
C4094 C4093 1.397 . S
C4094 C4095 1.334 . S
C4095 H4072 0.950 . S
C4095 C4094 1.334 . S
C4095 C4096 1.287 . S
C4096 C4095 1.287 . S
C4096 C4097 1.524 . S
C4096 H4115 0.913 . S
C4097 H4073 0.950 . S
C4097 C4096 1.524 . S
C4097 C4098 1.415 . S
C4098 H4074 0.950 . S
C4098 C4093 1.363 . S
C4098 C4097 1.415 . S
C4099 H4075 0.951 . S
C4099 C4100 1.366 . S
C4099 C4101 1.388 . S
C4100 C4099 1.366 . S
C4100 C4104 1.385 . S
C4101 H4076 0.951 . S
C4101 C4099 1.388 . S
C4101 C4102 1.366 . S
C4102 C4101 1.366 . S
C4102 C4103 1.414 . S
C4102 C4105 1.499 . S
C4103 H4077 0.950 . S
C4103 C4102 1.414 . S
C4103 C4104 1.374 . S
C4104 H4078 0.950 . S
C4104 C4100 1.385 . S
C4104 C4103 1.374 . S
C4105 C4102 1.499 . S
C4105 C4106 1.373 . S
C4105 C4107 1.389 . S
C4106 H4079 0.950 . S
C4106 C4092 1.377 . S
C4106 C4105 1.373 . S
C4107 C4091 1.377 . S
C4107 C4105 1.389 . S
C4107 C4108 1.524 . S
C4108 C4107 1.524 . S
C4108 C4109 1.397 . S
C4108 C4113 1.363 . S
C4109 H4080 0.950 . S
C4109 C4108 1.397 . S
C4109 C4110 1.334 . S
C4110 H4081 0.950 . S
C4110 C4109 1.334 . S
C4110 C4111 1.287 . S
C4111 C4110 1.287 . S
C4111 C4112 1.524 . S
C4111 H4114 0.999 . S
C4112 H4082 0.950 . S
C4112 C4111 1.524 . S
C4112 C4113 1.415 . S
C4113 H4083 0.950 . S
C4113 C4108 1.363 . S
C4113 C4112 1.415 . S
H4114 C4111 0.999 . S
H4115 C4096 0.913 . S
H4116 C4134 0.951 . S
H4117 C4136 0.951 . S
H4118 C4138 0.950 . S
H4119 C4139 0.950 . S
H4120 C4141 0.964 . S
H4121 C4144 0.950 . S
H4122 C4145 0.950 . S
H4123 C4147 0.950 . S
H4124 C4148 0.950 . S
H4125 C4149 0.951 . S
H4126 C4151 0.951 . S
H4127 C4153 0.943 . S
H4128 C4154 0.950 . S
H4129 C4156 0.950 . S
H4130 C4159 0.950 . S
H4131 C4160 0.950 . S
H4132 C4162 0.950 . S
H4133 C4163 0.950 1_545 S
C4134 H4116 0.951 . S
C4134 C4135 1.366 . S
C4134 C4136 1.388 . S
C4135 C4134 1.366 . S
C4135 C4139 1.385 . S
C4136 H4117 0.951 . S
C4136 C4134 1.388 . S
C4136 C4137 1.366 . S
C4137 C4136 1.366 . S
C4137 C4138 1.414 . S
C4137 C4140 1.499 . S
C4138 H4118 0.950 . S
C4138 C4137 1.414 . S
C4138 C4139 1.374 . S
C4139 H4119 0.950 . S
C4139 C4135 1.385 . S
C4139 C4138 1.374 . S
C4140 C4137 1.499 . S
C4140 C4141 1.373 . S
C4140 C4142 1.389 . S
C4141 H4120 0.964 . S
C4141 C4140 1.373 . S
C4141 C4157 1.377 . S
C4142 C4140 1.389 . S
C4142 C4143 1.524 . S
C4142 C4156 1.377 . S
C4143 C4142 1.524 . S
C4143 C4144 1.397 . S
C4143 C4148 1.363 . S
C4144 H4121 0.950 . S
C4144 C4143 1.397 . S
C4144 C4145 1.334 . S
C4145 H4122 0.950 . S
C4145 C4144 1.334 . S
C4145 C4146 1.287 . S
C4146 C4145 1.287 . S
C4146 C4147 1.524 . S
C4146 H4165 0.913 . S
C4147 H4123 0.950 . S
C4147 C4146 1.524 . S
C4147 C4148 1.415 . S
C4148 H4124 0.950 . S
C4148 C4143 1.363 . S
C4148 C4147 1.415 . S
C4149 H4125 0.951 . S
C4149 C4150 1.366 . S
C4149 C4151 1.388 . S
C4150 C4149 1.366 . S
C4150 C4154 1.385 1_545 S
C4151 H4126 0.951 . S
C4151 C4149 1.388 . S
C4151 C4152 1.366 . S
C4152 C4151 1.366 . S
C4152 C4153 1.395 1_545 S
C4152 C4155 1.499 . S
C4153 H4127 0.943 . S
C4153 C4152 1.395 1_565 S
C4153 C4154 1.404 . S
C4154 H4128 0.950 . S
C4154 C4150 1.385 1_565 S
C4154 C4153 1.404 . S
C4155 C4152 1.499 . S
C4155 C4156 1.373 . S
C4155 C4157 1.389 . S
C4156 H4129 0.950 . S
C4156 C4142 1.377 . S
C4156 C4155 1.373 . S
C4157 C4141 1.377 . S
C4157 C4155 1.389 . S
C4157 C4158 1.524 1_545 S
C4158 C4157 1.524 1_565 S
C4158 C4159 1.397 . S
C4158 C4163 1.363 . S
C4159 H4130 0.950 . S
C4159 C4158 1.397 . S
C4159 C4160 1.334 . S
C4160 H4131 0.950 . S
C4160 C4159 1.334 . S
C4160 C4161 1.287 . S
C4161 C4160 1.287 . S
C4161 C4162 1.524 . S
C4161 H4164 0.999 . S
C4162 H4132 0.950 . S
C4162 C4161 1.524 . S
C4162 C4163 1.415 . S
C4163 H4133 0.950 1_565 S
C4163 C4158 1.363 . S
C4163 C4162 1.415 . S
H4164 C4161 0.999 . S
H4165 C4146 0.913 . S
H4166 C4184 0.951 . S
H4167 C4186 0.951 . S
H4168 C4188 0.950 . S
H4169 C4189 0.950 . S
H4170 C4191 0.950 . S
H4171 C4194 0.950 . S
H4172 C4195 0.950 . S
H4173 C4197 0.950 . S
H4174 C4198 0.950 . S
H4175 C4199 0.951 . S
H4176 C4201 0.951 . S
H4177 C4203 0.950 . S
H4178 C4204 0.950 . S
H4179 C4206 0.950 . S
H4180 C4209 0.950 1_655 S
H4181 C4210 0.950 . S
H4182 C4212 0.950 . S
H4183 C4213 0.950 . S
C4184 H4166 0.951 . S
C4184 C4185 1.366 . S
C4184 C4186 1.388 . S
C4185 C4184 1.366 . S
C4185 C4189 1.385 1_655 S
C4186 H4167 0.951 . S
C4186 C4184 1.388 . S
C4186 C4187 1.366 . S
C4187 C4186 1.366 . S
C4187 C4188 1.414 1_655 S
C4187 C4190 1.499 . S
C4188 H4168 0.950 . S
C4188 C4187 1.414 1_455 S
C4188 C4189 1.374 . S
C4189 H4169 0.950 . S
C4189 C4185 1.385 1_455 S
C4189 C4188 1.374 . S
C4190 C4187 1.499 . S
C4190 C4191 1.373 1_655 S
C4190 C4192 1.389 . S
C4191 H4170 0.950 . S
C4191 C4190 1.373 1_455 S
C4191 C4207 1.377 . S
C4192 C4190 1.389 . S
C4192 C4193 1.524 . S
C4192 C4206 1.377 . S
C4193 C4192 1.524 . S
C4193 C4194 1.397 . S
C4193 C4198 1.363 . S
C4194 H4171 0.950 . S
C4194 C4193 1.397 . S
C4194 C4195 1.334 . S
C4195 H4172 0.950 . S
C4195 C4194 1.334 . S
C4195 C4196 1.287 . S
C4196 C4195 1.287 . S
C4196 C4197 1.524 . S
C4196 H4215 0.913 . S
C4197 H4173 0.950 . S
C4197 C4196 1.524 . S
C4197 C4198 1.415 . S
C4198 H4174 0.950 . S
C4198 C4193 1.363 . S
C4198 C4197 1.415 . S
C4199 H4175 0.951 . S
C4199 C4200 1.366 1_455 S
C4199 C4201 1.388 . S
C4200 C4199 1.366 1_655 S
C4200 C4204 1.385 . S
C4201 H4176 0.951 . S
C4201 C4199 1.388 . S
C4201 C4202 1.366 1_455 S
C4202 C4201 1.366 1_655 S
C4202 C4203 1.414 . S
C4202 C4205 1.499 . S
C4203 H4177 0.950 . S
C4203 C4202 1.414 . S
C4203 C4204 1.374 . S
C4204 H4178 0.950 . S
C4204 C4200 1.385 . S
C4204 C4203 1.374 . S
C4205 C4202 1.499 . S
C4205 C4206 1.373 . S
C4205 C4207 1.389 1_655 S
C4206 H4179 0.950 . S
C4206 C4192 1.377 . S
C4206 C4205 1.373 . S
C4207 C4191 1.377 . S
C4207 C4205 1.389 1_455 S
C4207 C4208 1.524 . S
C4208 C4207 1.524 . S
C4208 C4209 1.397 . S
C4208 C4213 1.363 . S
C4209 H4180 0.950 1_455 S
C4209 C4208 1.397 . S
C4209 C4210 1.334 . S
C4210 H4181 0.950 . S
C4210 C4209 1.334 . S
C4210 C4211 1.287 . S
C4211 C4210 1.287 . S
C4211 C4212 1.524 . S
C4211 H4214 0.999 . S
C4212 H4182 0.950 . S
C4212 C4211 1.524 . S
C4212 C4213 1.415 . S
C4213 H4183 0.950 . S
C4213 C4208 1.363 . S
C4213 C4212 1.415 . S
H4214 C4211 0.999 . S
H4215 C4196 0.913 . S
H4216 C4234 0.951 . S
H4217 C4236 0.951 . S
H4218 C4238 0.950 . S
H4219 C4239 0.950 . S
H4220 C4241 0.950 . S
H4221 C4244 0.950 . S
H4222 C4245 0.950 . S
H4223 C4247 0.950 . S
H4224 C4248 0.950 . S
H4225 C4249 0.951 . S
H4226 C4251 0.951 . S
H4227 C4253 0.950 . S
H4228 C4254 0.950 . S
H4229 C4256 0.950 . S
H4230 C4259 0.950 . S
H4231 C4260 0.950 . S
H4232 C4262 0.950 . S
H4233 C4263 0.950 . S
C4234 H4216 0.951 . S
C4234 C4235 1.366 . S
C4234 C4236 1.388 . S
C4235 C4234 1.366 . S
C4235 C4239 1.385 . S
C4236 H4217 0.951 . S
C4236 C4234 1.388 . S
C4236 C4237 1.366 . S
C4237 C4236 1.366 . S
C4237 C4238 1.414 . S
C4237 C4240 1.499 . S
C4238 H4218 0.950 . S
C4238 C4237 1.414 . S
C4238 C4239 1.374 . S
C4239 H4219 0.950 . S
C4239 C4235 1.385 . S
C4239 C4238 1.374 . S
C4240 C4237 1.499 . S
C4240 C4241 1.373 . S
C4240 C4242 1.389 . S
C4241 H4220 0.950 . S
C4241 C4240 1.373 . S
C4241 C4257 1.377 . S
C4242 C4240 1.389 . S
C4242 C4243 1.524 . S
C4242 C4256 1.377 . S
C4243 C4242 1.524 . S
C4243 C4244 1.397 . S
C4243 C4248 1.363 . S
C4244 H4221 0.950 . S
C4244 C4243 1.397 . S
C4244 C4245 1.334 . S
C4245 H4222 0.950 . S
C4245 C4244 1.334 . S
C4245 C4246 1.287 . S
C4246 C4245 1.287 . S
C4246 C4247 1.524 . S
C4246 H4265 0.913 . S
C4247 H4223 0.950 . S
C4247 C4246 1.524 . S
C4247 C4248 1.415 . S
C4248 H4224 0.950 . S
C4248 C4243 1.363 . S
C4248 C4247 1.415 . S
C4249 H4225 0.951 . S
C4249 C4250 1.366 . S
C4249 C4251 1.388 . S
C4250 C4249 1.366 . S
C4250 C4254 1.385 . S
C4251 H4226 0.951 . S
C4251 C4249 1.388 . S
C4251 C4252 1.366 . S
C4252 C4251 1.366 . S
C4252 C4253 1.414 . S
C4252 C4255 1.499 . S
C4253 H4227 0.950 . S
C4253 C4252 1.414 . S
C4253 C4254 1.374 . S
C4254 H4228 0.950 . S
C4254 C4250 1.385 . S
C4254 C4253 1.374 . S
C4255 C4252 1.499 . S
C4255 C4256 1.373 . S
C4255 C4257 1.389 . S
C4256 H4229 0.950 . S
C4256 C4242 1.377 . S
C4256 C4255 1.373 . S
C4257 C4241 1.377 . S
C4257 C4255 1.389 . S
C4257 C4258 1.524 . S
C4258 C4257 1.524 . S
C4258 C4259 1.397 . S
C4258 C4263 1.363 . S
C4259 H4230 0.950 . S
C4259 C4258 1.397 . S
C4259 C4260 1.334 . S
C4260 H4231 0.950 . S
C4260 C4259 1.334 . S
C4260 C4261 1.287 . S
C4261 C4260 1.287 . S
C4261 C4262 1.524 . S
C4261 H4264 0.999 . S
C4262 H4232 0.950 . S
C4262 C4261 1.524 . S
C4262 C4263 1.415 . S
C4263 H4233 0.950 . S
C4263 C4258 1.363 . S
C4263 C4262 1.415 . S
H4264 C4261 0.999 . S
H4265 C4246 0.913 . S
H4266 C4284 0.951 . S
H4267 C4286 0.951 . S
H4268 C4288 0.950 . S
H4269 C4289 0.950 . S
H4270 C4291 0.950 . S
H4271 C4294 0.950 . S
H4272 C4295 0.950 . S
H4273 C4297 0.950 . S
H4274 C4298 0.950 . S
H4275 C4299 0.951 . S
H4276 C4301 0.951 . S
H4277 C4303 0.950 . S
H4278 C4304 0.950 . S
H4279 C4306 0.950 . S
H4280 C4309 0.950 . S
H4281 C4310 0.950 . S
H4282 C4312 0.950 . S
H4283 C4313 0.950 . S
C4284 H4266 0.951 . S
C4284 C4285 1.366 . S
C4284 C4286 1.388 . S
C4285 C4284 1.366 . S
C4285 C4289 1.385 . S
C4286 H4267 0.951 . S
C4286 C4284 1.388 . S
C4286 C4287 1.366 . S
C4287 C4286 1.366 . S
C4287 C4288 1.414 . S
C4287 C4290 1.499 . S
C4288 H4268 0.950 . S
C4288 C4287 1.414 . S
C4288 C4289 1.374 . S
C4289 H4269 0.950 . S
C4289 C4285 1.385 . S
C4289 C4288 1.374 . S
C4290 C4287 1.499 . S
C4290 C4291 1.373 . S
C4290 C4292 1.389 . S
C4291 H4270 0.950 . S
C4291 C4290 1.373 . S
C4291 C4307 1.377 . S
C4292 C4290 1.389 . S
C4292 C4293 1.524 . S
C4292 C4306 1.377 . S
C4293 C4292 1.524 . S
C4293 C4294 1.397 . S
C4293 C4298 1.363 . S
C4294 H4271 0.950 . S
C4294 C4293 1.397 . S
C4294 C4295 1.334 . S
C4295 H4272 0.950 . S
C4295 C4294 1.334 . S
C4295 C4296 1.287 . S
C4296 C4295 1.287 . S
C4296 C4297 1.524 . S
C4296 H4315 0.913 . S
C4297 H4273 0.950 . S
C4297 C4296 1.524 . S
C4297 C4298 1.415 . S
C4298 H4274 0.950 . S
C4298 C4293 1.363 . S
C4298 C4297 1.415 . S
C4299 H4275 0.951 . S
C4299 C4300 1.366 . S
C4299 C4301 1.388 . S
C4300 C4299 1.366 . S
C4300 C4304 1.385 . S
C4301 H4276 0.951 . S
C4301 C4299 1.388 . S
C4301 C4302 1.366 . S
C4302 C4301 1.366 . S
C4302 C4303 1.414 . S
C4302 C4305 1.499 . S
C4303 H4277 0.950 . S
C4303 C4302 1.414 . S
C4303 C4304 1.374 . S
C4304 H4278 0.950 . S
C4304 C4300 1.385 . S
C4304 C4303 1.374 . S
C4305 C4302 1.499 . S
C4305 C4306 1.373 . S
C4305 C4307 1.389 . S
C4306 H4279 0.950 . S
C4306 C4292 1.377 . S
C4306 C4305 1.373 . S
C4307 C4291 1.377 . S
C4307 C4305 1.389 . S
C4307 C4308 1.524 . S
C4308 C4307 1.524 . S
C4308 C4309 1.397 . S
C4308 C4313 1.363 . S
C4309 H4280 0.950 . S
C4309 C4308 1.397 . S
C4309 C4310 1.334 . S
C4310 H4281 0.950 . S
C4310 C4309 1.334 . S
C4310 C4311 1.287 . S
C4311 C4310 1.287 . S
C4311 C4312 1.524 . S
C4311 H4314 0.999 . S
C4312 H4282 0.950 . S
C4312 C4311 1.524 . S
C4312 C4313 1.415 . S
C4313 H4283 0.950 . S
C4313 C4308 1.363 . S
C4313 C4312 1.415 . S
H4314 C4311 0.999 . S
H4315 C4296 0.913 . S
H4316 C4334 0.951 . S
H4317 C4336 0.951 . S
H4318 C4338 0.950 . S
H4319 C4339 0.950 . S
H4320 C4341 0.950 . S
H4321 C4344 0.950 . S
H4322 C4345 0.950 . S
H4323 C4347 0.950 . S
H4324 C4348 0.950 . S
H4325 C4349 0.951 . S
H4326 C4351 0.951 . S
H4327 C4353 0.950 . S
H4328 C4354 0.950 . S
H4329 C4356 0.950 . S
H4330 C4359 0.950 . S
H4331 C4360 0.950 . S
H4332 C4362 0.950 . S
H4333 C4363 0.950 . S
C4334 H4316 0.951 . S
C4334 C4335 1.366 . S
C4334 C4336 1.388 . S
C4335 C4334 1.366 . S
C4335 C4339 1.385 . S
C4336 H4317 0.951 . S
C4336 C4334 1.388 . S
C4336 C4337 1.366 . S
C4337 C4336 1.366 . S
C4337 C4338 1.414 . S
C4337 C4340 1.499 . S
C4338 H4318 0.950 . S
C4338 C4337 1.414 . S
C4338 C4339 1.374 . S
C4339 H4319 0.950 . S
C4339 C4335 1.385 . S
C4339 C4338 1.374 . S
C4340 C4337 1.499 . S
C4340 C4341 1.373 . S
C4340 C4342 1.389 . S
C4341 H4320 0.950 . S
C4341 C4340 1.373 . S
C4341 C4357 1.377 . S
C4342 C4340 1.389 . S
C4342 C4343 1.524 . S
C4342 C4356 1.377 . S
C4343 C4342 1.524 . S
C4343 C4344 1.397 . S
C4343 C4348 1.363 . S
C4344 H4321 0.950 . S
C4344 C4343 1.397 . S
C4344 C4345 1.334 . S
C4345 H4322 0.950 . S
C4345 C4344 1.334 . S
C4345 C4346 1.287 . S
C4346 C4345 1.287 . S
C4346 C4347 1.524 . S
C4346 H4365 0.913 . S
C4347 H4323 0.950 . S
C4347 C4346 1.524 . S
C4347 C4348 1.415 . S
C4348 H4324 0.950 . S
C4348 C4343 1.363 . S
C4348 C4347 1.415 . S
C4349 H4325 0.951 . S
C4349 C4350 1.366 . S
C4349 C4351 1.388 . S
C4350 C4349 1.366 . S
C4350 C4354 1.385 . S
C4351 H4326 0.951 . S
C4351 C4349 1.388 . S
C4351 C4352 1.366 . S
C4352 C4351 1.366 . S
C4352 C4353 1.414 . S
C4352 C4355 1.499 . S
C4353 H4327 0.950 . S
C4353 C4352 1.414 . S
C4353 C4354 1.374 . S
C4354 H4328 0.950 . S
C4354 C4350 1.385 . S
C4354 C4353 1.374 . S
C4355 C4352 1.499 . S
C4355 C4356 1.373 . S
C4355 C4357 1.389 . S
C4356 H4329 0.950 . S
C4356 C4342 1.377 . S
C4356 C4355 1.373 . S
C4357 C4341 1.377 . S
C4357 C4355 1.389 . S
C4357 C4358 1.524 . S
C4358 C4357 1.524 . S
C4358 C4359 1.397 . S
C4358 C4363 1.363 . S
C4359 H4330 0.950 . S
C4359 C4358 1.397 . S
C4359 C4360 1.334 . S
C4360 H4331 0.950 . S
C4360 C4359 1.334 . S
C4360 C4361 1.287 . S
C4361 C4360 1.287 . S
C4361 C4362 1.524 . S
C4361 H4364 0.999 . S
C4362 H4332 0.950 . S
C4362 C4361 1.524 . S
C4362 C4363 1.415 . S
C4363 H4333 0.950 . S
C4363 C4358 1.363 . S
C4363 C4362 1.415 . S
H4364 C4361 0.999 . S
H4365 C4346 0.913 . S
H4366 C4384 0.951 . S
H4367 C4386 0.951 . S
H4368 C4388 0.950 . S
H4369 C4389 0.950 . S
H4370 C4391 0.950 . S
H4371 C4394 0.950 . S
H4372 C4395 0.950 . S
H4373 C4397 0.950 . S
H4374 C4398 0.950 . S
H4375 C4399 0.951 . S
H4376 C4401 0.951 . S
H4377 C4403 0.950 . S
H4378 C4404 0.950 . S
H4379 C4406 0.950 . S
H4380 C4409 0.950 . S
H4381 C4410 0.950 . S
H4382 C4412 0.950 . S
H4383 C4413 0.950 . S
C4384 H4366 0.951 . S
C4384 C4385 1.366 . S
C4384 C4386 1.388 . S
C4385 C4384 1.366 . S
C4385 C4389 1.385 . S
C4386 H4367 0.951 . S
C4386 C4384 1.388 . S
C4386 C4387 1.366 . S
C4387 C4386 1.366 . S
C4387 C4388 1.414 . S
C4387 C4390 1.499 . S
C4388 H4368 0.950 . S
C4388 C4387 1.414 . S
C4388 C4389 1.374 . S
C4389 H4369 0.950 . S
C4389 C4385 1.385 . S
C4389 C4388 1.374 . S
C4390 C4387 1.499 . S
C4390 C4391 1.373 . S
C4390 C4392 1.389 . S
C4391 H4370 0.950 . S
C4391 C4390 1.373 . S
C4391 C4407 1.377 . S
C4392 C4390 1.389 . S
C4392 C4393 1.524 . S
C4392 C4406 1.377 . S
C4393 C4392 1.524 . S
C4393 C4394 1.397 . S
C4393 C4398 1.363 . S
C4394 H4371 0.950 . S
C4394 C4393 1.397 . S
C4394 C4395 1.334 . S
C4395 H4372 0.950 . S
C4395 C4394 1.334 . S
C4395 C4396 1.287 . S
C4396 C4395 1.287 . S
C4396 C4397 1.524 . S
C4396 H4415 0.913 . S
C4397 H4373 0.950 . S
C4397 C4396 1.524 . S
C4397 C4398 1.415 . S
C4398 H4374 0.950 . S
C4398 C4393 1.363 . S
C4398 C4397 1.415 . S
C4399 H4375 0.951 . S
C4399 C4400 1.366 . S
C4399 C4401 1.388 . S
C4400 C4399 1.366 . S
C4400 C4404 1.385 . S
C4401 H4376 0.951 . S
C4401 C4399 1.388 . S
C4401 C4402 1.366 . S
C4402 C4401 1.366 . S
C4402 C4403 1.414 . S
C4402 C4405 1.499 . S
C4403 H4377 0.950 . S
C4403 C4402 1.414 . S
C4403 C4404 1.374 . S
C4404 H4378 0.950 . S
C4404 C4400 1.385 . S
C4404 C4403 1.374 . S
C4405 C4402 1.499 . S
C4405 C4406 1.373 . S
C4405 C4407 1.389 . S
C4406 H4379 0.950 . S
C4406 C4392 1.377 . S
C4406 C4405 1.373 . S
C4407 C4391 1.377 . S
C4407 C4405 1.389 . S
C4407 C4408 1.524 . S
C4408 C4407 1.524 . S
C4408 C4409 1.397 . S
C4408 C4413 1.363 . S
C4409 H4380 0.950 . S
C4409 C4408 1.397 . S
C4409 C4410 1.334 . S
C4410 H4381 0.950 . S
C4410 C4409 1.334 . S
C4410 C4411 1.287 . S
C4411 C4410 1.287 . S
C4411 C4412 1.524 . S
C4411 H4414 0.999 . S
C4412 H4382 0.950 . S
C4412 C4411 1.524 . S
C4412 C4413 1.415 . S
C4413 H4383 0.950 . S
C4413 C4408 1.363 . S
C4413 C4412 1.415 . S
H4414 C4411 0.999 . S
H4415 C4396 0.913 . S
H4416 C4434 0.951 . S
H4417 C4436 0.951 . S
H4418 C4438 0.950 . S
H4419 C4439 0.950 . S
H4420 C4441 0.950 . S
H4421 C4444 0.950 . S
H4422 C4445 0.950 . S
H4423 C4447 0.950 . S
H4424 C4448 0.950 . S
H4425 C4449 0.951 . S
H4426 C4451 0.951 . S
H4427 C4453 0.950 . S
H4428 C4454 0.950 . S
H4429 C4456 0.950 . S
H4430 C4459 0.950 . S
H4431 C4460 0.950 . S
H4432 C4462 0.950 . S
H4433 C4463 0.950 . S
C4434 H4416 0.951 . S
C4434 C4435 1.366 . S
C4434 C4436 1.388 . S
C4435 C4434 1.366 . S
C4435 C4439 1.385 . S
C4436 H4417 0.951 . S
C4436 C4434 1.388 . S
C4436 C4437 1.366 . S
C4437 C4436 1.366 . S
C4437 C4438 1.414 . S
C4437 C4440 1.499 . S
C4438 H4418 0.950 . S
C4438 C4437 1.414 . S
C4438 C4439 1.374 . S
C4439 H4419 0.950 . S
C4439 C4435 1.385 . S
C4439 C4438 1.374 . S
C4440 C4437 1.499 . S
C4440 C4441 1.373 . S
C4440 C4442 1.389 . S
C4441 H4420 0.950 . S
C4441 C4440 1.373 . S
C4441 C4457 1.377 . S
C4442 C4440 1.389 . S
C4442 C4443 1.524 . S
C4442 C4456 1.377 . S
C4443 C4442 1.524 . S
C4443 C4444 1.397 . S
C4443 C4448 1.363 . S
C4444 H4421 0.950 . S
C4444 C4443 1.397 . S
C4444 C4445 1.334 . S
C4445 H4422 0.950 . S
C4445 C4444 1.334 . S
C4445 C4446 1.287 . S
C4446 C4445 1.287 . S
C4446 C4447 1.524 . S
C4446 H4465 0.913 . S
C4447 H4423 0.950 . S
C4447 C4446 1.524 . S
C4447 C4448 1.415 . S
C4448 H4424 0.950 . S
C4448 C4443 1.363 . S
C4448 C4447 1.415 . S
C4449 H4425 0.951 . S
C4449 C4450 1.366 . S
C4449 C4451 1.388 . S
C4450 C4449 1.366 . S
C4450 C4454 1.385 . S
C4451 H4426 0.951 . S
C4451 C4449 1.388 . S
C4451 C4452 1.366 . S
C4452 C4451 1.366 . S
C4452 C4453 1.414 . S
C4452 C4455 1.499 . S
C4453 H4427 0.950 . S
C4453 C4452 1.414 . S
C4453 C4454 1.374 . S
C4454 H4428 0.950 . S
C4454 C4450 1.385 . S
C4454 C4453 1.374 . S
C4455 C4452 1.499 . S
C4455 C4456 1.373 . S
C4455 C4457 1.389 . S
C4456 H4429 0.950 . S
C4456 C4442 1.377 . S
C4456 C4455 1.373 . S
C4457 C4441 1.377 . S
C4457 C4455 1.389 . S
C4457 C4458 1.524 . S
C4458 C4457 1.524 . S
C4458 C4459 1.397 . S
C4458 C4463 1.363 . S
C4459 H4430 0.950 . S
C4459 C4458 1.397 . S
C4459 C4460 1.334 . S
C4460 H4431 0.950 . S
C4460 C4459 1.334 . S
C4460 C4461 1.287 . S
C4461 C4460 1.287 . S
C4461 C4462 1.524 . S
C4461 H4464 0.999 . S
C4462 H4432 0.950 . S
C4462 C4461 1.524 . S
C4462 C4463 1.415 . S
C4463 H4433 0.950 . S
C4463 C4458 1.363 . S
C4463 C4462 1.415 . S
H4464 C4461 0.999 . S
H4465 C4446 0.913 . S
H4466 C4484 0.951 . S
H4467 C4486 0.951 . S
H4468 C4488 0.950 . S
H4469 C4489 0.950 . S
H4470 C4491 0.950 . S
H4471 C4494 0.950 . S
H4472 C4495 0.950 . S
H4473 C4497 0.950 . S
H4474 C4498 0.950 . S
H4475 C4499 0.951 . S
H4476 C4501 0.951 . S
H4477 C4503 0.950 . S
H4478 C4504 0.950 . S
H4479 C4506 0.950 . S
H4480 C4509 0.950 . S
H4481 C4510 0.950 . S
H4482 C4512 0.950 . S
H4483 C4513 0.950 . S
C4484 H4466 0.951 . S
C4484 C4485 1.366 . S
C4484 C4486 1.388 . S
C4485 C4484 1.366 . S
C4485 C4489 1.385 . S
C4486 H4467 0.951 . S
C4486 C4484 1.388 . S
C4486 C4487 1.366 . S
C4487 C4486 1.366 . S
C4487 C4488 1.414 . S
C4487 C4490 1.499 . S
C4488 H4468 0.950 . S
C4488 C4487 1.414 . S
C4488 C4489 1.374 . S
C4489 H4469 0.950 . S
C4489 C4485 1.385 . S
C4489 C4488 1.374 . S
C4490 C4487 1.499 . S
C4490 C4491 1.373 . S
C4490 C4492 1.389 . S
C4491 H4470 0.950 . S
C4491 C4490 1.373 . S
C4491 C4507 1.377 . S
C4492 C4490 1.389 . S
C4492 C4493 1.524 . S
C4492 C4506 1.377 . S
C4493 C4492 1.524 . S
C4493 C4494 1.397 . S
C4493 C4498 1.363 . S
C4494 H4471 0.950 . S
C4494 C4493 1.397 . S
C4494 C4495 1.334 . S
C4495 H4472 0.950 . S
C4495 C4494 1.334 . S
C4495 C4496 1.287 . S
C4496 C4495 1.287 . S
C4496 C4497 1.524 . S
C4496 H4515 0.913 . S
C4497 H4473 0.950 . S
C4497 C4496 1.524 . S
C4497 C4498 1.415 . S
C4498 H4474 0.950 . S
C4498 C4493 1.363 . S
C4498 C4497 1.415 . S
C4499 H4475 0.951 . S
C4499 C4500 1.366 . S
C4499 C4501 1.388 . S
C4500 C4499 1.366 . S
C4500 C4504 1.385 . S
C4501 H4476 0.951 . S
C4501 C4499 1.388 . S
C4501 C4502 1.366 . S
C4502 C4501 1.366 . S
C4502 C4503 1.414 . S
C4502 C4505 1.499 . S
C4503 H4477 0.950 . S
C4503 C4502 1.414 . S
C4503 C4504 1.374 . S
C4504 H4478 0.950 . S
C4504 C4500 1.385 . S
C4504 C4503 1.374 . S
C4505 C4502 1.499 . S
C4505 C4506 1.373 . S
C4505 C4507 1.389 . S
C4506 H4479 0.950 . S
C4506 C4492 1.377 . S
C4506 C4505 1.373 . S
C4507 C4491 1.377 . S
C4507 C4505 1.389 . S
C4507 C4508 1.524 . S
C4508 C4507 1.524 . S
C4508 C4509 1.397 . S
C4508 C4513 1.363 . S
C4509 H4480 0.950 . S
C4509 C4508 1.397 . S
C4509 C4510 1.334 . S
C4510 H4481 0.950 . S
C4510 C4509 1.334 . S
C4510 C4511 1.287 . S
C4511 C4510 1.287 . S
C4511 C4512 1.524 . S
C4511 H4514 0.999 . S
C4512 H4482 0.950 . S
C4512 C4511 1.524 . S
C4512 C4513 1.415 . S
C4513 H4483 0.950 . S
C4513 C4508 1.363 . S
C4513 C4512 1.415 . S
H4514 C4511 0.999 . S
H4515 C4496 0.913 . S
H4516 C4534 0.951 . S
H4517 C4536 0.951 . S
H4518 C4538 0.950 . S
H4519 C4539 0.950 . S
H4520 C4541 0.950 . S
H4521 C4544 0.950 . S
H4522 C4545 0.950 . S
H4523 C4547 0.950 . S
H4524 C4548 0.950 . S
H4525 C4549 0.951 . S
H4526 C4551 0.951 . S
H4527 C4553 0.950 . S
H4528 C4554 0.950 . S
H4529 C4556 0.950 . S
H4530 C4559 0.950 . S
H4531 C4560 0.950 . S
H4532 C4562 0.950 . S
H4533 C4563 0.950 . S
C4534 H4516 0.951 . S
C4534 C4535 1.366 . S
C4534 C4536 1.388 . S
C4535 C4534 1.366 . S
C4535 C4539 1.385 . S
C4536 H4517 0.951 . S
C4536 C4534 1.388 . S
C4536 C4537 1.366 . S
C4537 C4536 1.366 . S
C4537 C4538 1.414 . S
C4537 C4540 1.499 . S
C4538 H4518 0.950 . S
C4538 C4537 1.414 . S
C4538 C4539 1.374 . S
C4539 H4519 0.950 . S
C4539 C4535 1.385 . S
C4539 C4538 1.374 . S
C4540 C4537 1.499 . S
C4540 C4541 1.373 . S
C4540 C4542 1.389 . S
C4541 H4520 0.950 . S
C4541 C4540 1.373 . S
C4541 C4557 1.377 . S
C4542 C4540 1.389 . S
C4542 C4543 1.524 . S
C4542 C4556 1.377 . S
C4543 C4542 1.524 . S
C4543 C4544 1.397 . S
C4543 C4548 1.363 . S
C4544 H4521 0.950 . S
C4544 C4543 1.397 . S
C4544 C4545 1.334 . S
C4545 H4522 0.950 . S
C4545 C4544 1.334 . S
C4545 C4546 1.287 . S
C4546 C4545 1.287 . S
C4546 C4547 1.524 . S
C4546 H4565 0.913 . S
C4547 H4523 0.950 . S
C4547 C4546 1.524 . S
C4547 C4548 1.415 . S
C4548 H4524 0.950 . S
C4548 C4543 1.363 . S
C4548 C4547 1.415 . S
C4549 H4525 0.951 . S
C4549 C4550 1.366 . S
C4549 C4551 1.388 . S
C4550 C4549 1.366 . S
C4550 C4554 1.385 . S
C4551 H4526 0.951 . S
C4551 C4549 1.388 . S
C4551 C4552 1.366 . S
C4552 C4551 1.366 . S
C4552 C4553 1.414 . S
C4552 C4555 1.499 . S
C4553 H4527 0.950 . S
C4553 C4552 1.414 . S
C4553 C4554 1.374 . S
C4554 H4528 0.950 . S
C4554 C4550 1.385 . S
C4554 C4553 1.374 . S
C4555 C4552 1.499 . S
C4555 C4556 1.373 . S
C4555 C4557 1.389 . S
C4556 H4529 0.950 . S
C4556 C4542 1.377 . S
C4556 C4555 1.373 . S
C4557 C4541 1.377 . S
C4557 C4555 1.389 . S
C4557 C4558 1.524 . S
C4558 C4557 1.524 . S
C4558 C4559 1.397 . S
C4558 C4563 1.363 . S
C4559 H4530 0.950 . S
C4559 C4558 1.397 . S
C4559 C4560 1.334 . S
C4560 H4531 0.950 . S
C4560 C4559 1.334 . S
C4560 C4561 1.287 . S
C4561 C4560 1.287 . S
C4561 C4562 1.524 . S
C4561 H4564 0.999 . S
C4562 H4532 0.950 . S
C4562 C4561 1.524 . S
C4562 C4563 1.415 . S
C4563 H4533 0.950 . S
C4563 C4558 1.363 . S
C4563 C4562 1.415 . S
H4564 C4561 0.999 . S
H4565 C4546 0.913 . S
H4566 C4584 0.951 . S
H4567 C4586 0.951 . S
H4568 C4588 0.950 . S
H4569 C4589 0.962 . S
H4570 C4591 0.951 . S
H4571 C4594 0.898 1_455 S
H4572 C4595 0.950 . S
H4573 C4597 0.950 . S
H4574 C4598 0.950 . S
H4575 C4599 0.951 . S
H4576 C4601 0.951 . S
H4577 C4603 0.950 . S
H4578 C4604 0.950 . S
H4579 C4606 0.950 . S
H4580 C4609 0.950 . S
H4581 C4610 0.950 . S
H4582 C4612 0.950 . S
H4583 C4613 0.950 . S
C4584 H4566 0.951 . S
C4584 C4585 1.366 . S
C4584 C4586 1.388 . S
C4585 C4584 1.366 . S
C4585 C4589 1.360 1_655 S
C4586 H4567 0.951 . S
C4586 C4584 1.388 . S
C4586 C4587 1.366 . S
C4587 C4586 1.366 . S
C4587 C4588 1.414 1_655 S
C4587 C4590 1.499 . S
C4588 H4568 0.950 . S
C4588 C4587 1.414 1_455 S
C4588 C4589 1.387 . S
C4589 H4569 0.962 . S
C4589 C4585 1.360 1_455 S
C4589 C4588 1.387 . S
C4590 C4587 1.499 . S
C4590 C4591 1.373 . S
C4590 C4592 1.389 . S
C4591 H4570 0.951 . S
C4591 C4590 1.373 . S
C4591 C4607 1.377 . S
C4592 C4590 1.389 . S
C4592 C4593 1.524 . S
C4592 C4606 1.377 . S
C4593 C4592 1.524 . S
C4593 C4594 1.397 . S
C4593 C4598 1.363 . S
C4594 H4571 0.898 1_655 S
C4594 C4593 1.397 . S
C4594 C4595 1.334 . S
C4595 H4572 0.950 . S
C4595 C4594 1.334 . S
C4595 C4596 1.287 . S
C4596 C4595 1.287 . S
C4596 C4597 1.524 . S
C4596 H4615 0.913 . S
C4597 H4573 0.950 . S
C4597 C4596 1.524 . S
C4597 C4598 1.415 . S
C4598 H4574 0.950 . S
C4598 C4593 1.363 . S
C4598 C4597 1.415 . S
C4599 H4575 0.951 . S
C4599 C4600 1.366 1_455 S
C4599 C4601 1.388 . S
C4600 C4599 1.366 1_655 S
C4600 C4604 1.385 . S
C4601 H4576 0.951 . S
C4601 C4599 1.388 . S
C4601 C4602 1.366 1_455 S
C4602 C4601 1.366 1_655 S
C4602 C4603 1.414 . S
C4602 C4605 1.499 . S
C4603 H4577 0.950 . S
C4603 C4602 1.414 . S
C4603 C4604 1.374 . S
C4604 H4578 0.950 . S
C4604 C4600 1.385 . S
C4604 C4603 1.374 . S
C4605 C4602 1.499 . S
C4605 C4606 1.373 . S
C4605 C4607 1.389 . S
C4606 H4579 0.950 . S
C4606 C4592 1.377 . S
C4606 C4605 1.373 . S
C4607 C4591 1.377 . S
C4607 C4605 1.389 . S
C4607 C4608 1.524 1_655 S
C4608 C4607 1.524 1_455 S
C4608 C4609 1.397 1_455 S
C4608 C4613 1.363 . S
C4609 H4580 0.950 . S
C4609 C4608 1.397 1_655 S
C4609 C4610 1.334 . S
C4610 H4581 0.950 . S
C4610 C4609 1.334 . S
C4610 C4611 1.287 1_655 S
C4611 C4610 1.287 1_455 S
C4611 C4612 1.524 . S
C4611 H4614 0.999 . S
C4612 H4582 0.950 . S
C4612 C4611 1.524 . S
C4612 C4613 1.415 . S
C4613 H4583 0.950 . S
C4613 C4608 1.363 . S
C4613 C4612 1.415 . S
H4614 C4611 0.999 . S
H4615 C4596 0.913 . S
H4616 C4634 0.951 . S
H4617 C4636 0.951 . S
H4618 C4638 0.950 . S
H4619 C4639 0.950 . S
H4620 C4641 0.950 . S
H4621 C4644 0.950 . S
H4622 C4645 0.950 . S
H4623 C4647 0.950 . S
H4624 C4648 0.950 . S
H4625 C4649 0.951 . S
H4626 C4651 0.951 . S
H4627 C4653 0.950 . S
H4628 C4654 0.950 . S
H4629 C4656 0.950 . S
H4630 C4659 0.950 . S
H4631 C4660 0.950 . S
H4632 C4662 0.950 . S
H4633 C4663 0.950 . S
C4634 H4616 0.951 . S
C4634 C4635 1.366 . S
C4634 C4636 1.388 . S
C4635 C4634 1.366 . S
C4635 C4639 1.385 . S
C4636 H4617 0.951 . S
C4636 C4634 1.388 . S
C4636 C4637 1.366 . S
C4637 C4636 1.366 . S
C4637 C4638 1.414 . S
C4637 C4640 1.499 . S
C4638 H4618 0.950 . S
C4638 C4637 1.414 . S
C4638 C4639 1.374 . S
C4639 H4619 0.950 . S
C4639 C4635 1.385 . S
C4639 C4638 1.374 . S
C4640 C4637 1.499 . S
C4640 C4641 1.373 . S
C4640 C4642 1.389 . S
C4641 H4620 0.950 . S
C4641 C4640 1.373 . S
C4641 C4657 1.377 . S
C4642 C4640 1.389 . S
C4642 C4643 1.524 . S
C4642 C4656 1.377 . S
C4643 C4642 1.524 . S
C4643 C4644 1.397 . S
C4643 C4648 1.363 . S
C4644 H4621 0.950 . S
C4644 C4643 1.397 . S
C4644 C4645 1.334 . S
C4645 H4622 0.950 . S
C4645 C4644 1.334 . S
C4645 C4646 1.287 . S
C4646 C4645 1.287 . S
C4646 C4647 1.524 . S
C4646 H4665 0.913 . S
C4647 H4623 0.950 . S
C4647 C4646 1.524 . S
C4647 C4648 1.415 . S
C4648 H4624 0.950 . S
C4648 C4643 1.363 . S
C4648 C4647 1.415 . S
C4649 H4625 0.951 . S
C4649 C4650 1.366 . S
C4649 C4651 1.388 . S
C4650 C4649 1.366 . S
C4650 C4654 1.385 . S
C4651 H4626 0.951 . S
C4651 C4649 1.388 . S
C4651 C4652 1.366 . S
C4652 C4651 1.366 . S
C4652 C4653 1.414 . S
C4652 C4655 1.499 . S
C4653 H4627 0.950 . S
C4653 C4652 1.414 . S
C4653 C4654 1.374 . S
C4654 H4628 0.950 . S
C4654 C4650 1.385 . S
C4654 C4653 1.374 . S
C4655 C4652 1.499 . S
C4655 C4656 1.373 . S
C4655 C4657 1.389 . S
C4656 H4629 0.950 . S
C4656 C4642 1.377 . S
C4656 C4655 1.373 . S
C4657 C4641 1.377 . S
C4657 C4655 1.389 . S
C4657 C4658 1.524 . S
C4658 C4657 1.524 . S
C4658 C4659 1.397 . S
C4658 C4663 1.363 . S
C4659 H4630 0.950 . S
C4659 C4658 1.397 . S
C4659 C4660 1.334 . S
C4660 H4631 0.950 . S
C4660 C4659 1.334 . S
C4660 C4661 1.287 . S
C4661 C4660 1.287 . S
C4661 C4662 1.524 . S
C4661 H4664 0.999 . S
C4662 H4632 0.950 . S
C4662 C4661 1.524 . S
C4662 C4663 1.415 . S
C4663 H4633 0.950 . S
C4663 C4658 1.363 . S
C4663 C4662 1.415 . S
H4664 C4661 0.999 . S
H4665 C4646 0.913 . S
H4666 C4684 1.031 . S
H4667 C4686 0.951 . S
H4668 C4688 0.950 . S
H4669 C4689 0.950 . S
H4670 C4691 0.950 . S
H4671 C4694 0.950 1_545 S
H4672 C4695 0.950 . S
H4673 C4697 0.950 . S
H4674 C4698 0.950 . S
H4675 C4699 0.951 . S
H4676 C4701 0.951 . S
H4677 C4703 0.950 . S
H4678 C4704 0.950 . S
H4679 C4706 0.950 . S
H4680 C4709 0.950 . S
H4681 C4710 0.950 . S
H4682 C4712 0.950 . S
H4683 C4713 0.950 . S
C4684 H4666 1.031 . S
C4684 C4685 1.319 1_565 S
C4684 C4686 1.359 . S
C4685 C4684 1.319 1_545 S
C4685 C4689 1.385 . S
C4686 H4667 0.951 . S
C4686 C4684 1.359 . S
C4686 C4687 1.366 1_565 S
C4687 C4686 1.366 1_545 S
C4687 C4688 1.414 . S
C4687 C4690 1.499 . S
C4688 H4668 0.950 . S
C4688 C4687 1.414 . S
C4688 C4689 1.374 . S
C4689 H4669 0.950 . S
C4689 C4685 1.385 . S
C4689 C4688 1.374 . S
C4690 C4687 1.499 . S
C4690 C4691 1.373 . S
C4690 C4692 1.389 1_545 S
C4691 H4670 0.950 . S
C4691 C4690 1.373 . S
C4691 C4707 1.377 . S
C4692 C4690 1.389 1_565 S
C4692 C4693 1.524 . S
C4692 C4706 1.377 . S
C4693 C4692 1.524 . S
C4693 C4694 1.397 . S
C4693 C4698 1.363 . S
C4694 H4671 0.950 1_565 S
C4694 C4693 1.397 . S
C4694 C4695 1.334 . S
C4695 H4672 0.950 . S
C4695 C4694 1.334 . S
C4695 C4696 1.287 . S
C4696 C4695 1.287 . S
C4696 C4697 1.524 . S
C4696 H4715 0.913 . S
C4697 H4673 0.950 . S
C4697 C4696 1.524 . S
C4697 C4698 1.415 . S
C4698 H4674 0.950 . S
C4698 C4693 1.363 . S
C4698 C4697 1.415 . S
C4699 H4675 0.951 . S
C4699 C4700 1.366 . S
C4699 C4701 1.388 . S
C4700 C4699 1.366 . S
C4700 C4704 1.385 1_545 S
C4701 H4676 0.951 . S
C4701 C4699 1.388 . S
C4701 C4702 1.366 . S
C4702 C4701 1.366 . S
C4702 C4703 1.414 1_545 S
C4702 C4705 1.499 . S
C4703 H4677 0.950 . S
C4703 C4702 1.414 1_565 S
C4703 C4704 1.374 . S
C4704 H4678 0.950 . S
C4704 C4700 1.385 1_565 S
C4704 C4703 1.374 . S
C4705 C4702 1.499 . S
C4705 C4706 1.373 1_545 S
C4705 C4707 1.389 . S
C4706 H4679 0.950 . S
C4706 C4692 1.377 . S
C4706 C4705 1.373 1_565 S
C4707 C4691 1.377 . S
C4707 C4705 1.389 . S
C4707 C4708 1.524 . S
C4708 C4707 1.524 . S
C4708 C4709 1.397 . S
C4708 C4713 1.363 . S
C4709 H4680 0.950 . S
C4709 C4708 1.397 . S
C4709 C4710 1.334 . S
C4710 H4681 0.950 . S
C4710 C4709 1.334 . S
C4710 C4711 1.287 . S
C4711 C4710 1.287 . S
C4711 C4712 1.524 . S
C4711 H4714 0.999 . S
C4712 H4682 0.950 . S
C4712 C4711 1.524 . S
C4712 C4713 1.415 . S
C4713 H4683 0.950 . S
C4713 C4708 1.363 . S
C4713 C4712 1.415 . S
H4714 C4711 0.999 . S
H4715 C4696 0.913 . S
C1135 C7 1.448 . S
C1150 C729 1.468 . S
C1185 C23 1.590 . S
C1200 C777 1.598 . S
C1250 C825 1.496 . S
C1235 C37 1.472 . S
C1285 C35 1.458 1_545 S
C1300 C849 1.484 . S
C1335 C9 1.471 . S
C1350 C921 1.498 . S
C1385 C21 1.567 . S
C1400 C969 1.604 . S
C1435 C49 1.443 . S
C1450 C897 1.465 . S
C1500 C945 1.601 . S
C1485 C65 1.591 . S
C1550 C873 1.511 . S
C1535 C79 1.495 1_565 S
C1585 C77 1.436 . S
C1600 C801 1.458 . S
C1650 C705 1.519 . S
C1635 C51 1.492 1_655 S
C1685 C63 1.566 . S
C1700 C753 1.604 . S
C1735 C91 1.649 . S
C1750 C1017 1.689 . S
C1785 C107 1.663 . S
C1800 C1065 1.664 . S
C1850 C1089 1.657 . S
C1835 C121 1.668 . S
C1885 C119 1.602 . S
C1900 C273 1.624 . S
C1935 C93 1.664 . S
C1950 C345 1.669 . S
C1985 C105 1.614 . S
C2000 C393 1.644 . S
C2035 C133 1.552 . S
C2050 C321 1.586 . S
C2085 C149 1.639 . S
C2100 C369 1.644 . S
C2150 C297 1.637 . S
C2135 C163 1.665 . S
C2200 C1113 1.696 . S
C2185 C161 1.693 . S
C2250 C993 1.651 . S
C2235 C135 1.651 . S
C2300 C1041 1.688 . S
C2285 C147 1.647 . S
C2335 C175 1.556 . S
C2350 C441 1.590 . S
C2385 C191 1.628 . S
C2400 C489 1.633 . S
C2435 C205 1.666 . S
C2450 C513 1.659 . S
C2485 C203 1.693 . S
C2500 C561 1.719 . S
C2550 C633 1.661 . S
C2535 C177 1.660 . S
C2600 C681 1.687 . S
C2585 C189 1.647 . S
C2650 C609 1.702 . S
C2635 C217 1.662 . S
C2700 C657 1.675 . S
C2685 C233 1.674 . S
C2735 C247 1.657 . S
C2750 C585 1.623 . S
C2800 C537 1.590 . S
C2785 C245 1.591 . S
C2835 C219 1.663 . S
C2850 C417 1.669 . S
C2900 C465 1.651 . S
C2885 C231 1.620 . S
C2950 C282 1.603 . S
C2935 C8 1.603 . S
C2985 C17 1.501 . S
C3000 C336 1.481 . S
C3050 C384 1.587 . S
C3035 C31 1.601 . S
C3100 C432 1.599 . S
C3085 C36 1.621 . S
C3150 C480 1.560 . S
C3135 C3 1.576 . S
C3200 C522 1.509 . S
C3185 C22 1.510 . S
C3235 C50 1.617 . S
C3250 C528 1.616 . S
C3285 C59 1.497 . S
C3300 C426 1.468 . S
C3335 C73 1.572 . S
C3350 C474 1.545 . S
C3385 C78 1.643 . S
C3400 C330 1.619 . S
C3450 C378 1.543 . S
C3435 C45 1.567 . S
C3485 C64 1.514 . S
C3500 C288 1.502 . S
C3550 C570 1.568 . S
C3535 C92 1.568 . S
C3585 C101 1.659 . S
C3600 C624 1.636 . S
C3635 C115 1.675 . S
C3650 C672 1.654 . S
C3700 C720 1.432 . S
C3685 C120 1.429 . S
C3735 C87 1.568 . S
C3750 C768 1.550 . S
C3785 C106 1.382 . S
C3800 C816 1.384 . S
C3835 C134 1.405 . S
C3850 C810 1.398 . S
C3885 C143 1.410 . S
C3900 C714 1.408 . S
C3950 C762 1.558 . S
C3935 C157 1.583 . S
C3985 C162 1.587 . S
C4000 C618 1.556 . S
C4035 C129 1.663 . S
C4050 C666 1.630 . S
C4100 C576 1.644 . S
C4085 C148 1.656 . S
C4150 C858 1.414 . S
C4135 C176 1.408 . S
C4185 C185 1.404 . S
C4200 C912 1.404 . S
C4235 C199 1.582 . S
C4250 C960 1.566 . S
C4300 C1008 1.554 . S
C4285 C204 1.575 . S
C4350 C1056 1.642 . S
C4335 C171 1.665 . S
C4385 C190 1.657 . S
C4400 C1098 1.656 . S
C4435 C218 1.582 . S
C4450 C1104 1.572 . S
C4485 C227 1.653 . S
C4500 C1002 1.621 . S
C4550 C1050 1.628 . S
C4535 C241 1.656 . S
C4600 C906 1.414 . S
C4585 C246 1.411 . S
C4650 C954 1.548 . S
C4635 C213 1.575 . S
C4685 C232 1.394 . S
C4700 C864 1.397 . S
