# Generated by pormake.
# Topology zzz, (3,6)-cn, num edge types: 1
# Building blocks:
#     Node 0, Type 0, BuildingBlock: KAKCAD_clean_linker_0, # of connection points: 3
#     Node 1, Type 0, BuildingBlock: KAKCAD_clean_linker_0, # of connection points: 3
#     Node 2, Type 0, BuildingBlock: KAKCAD_clean_linker_0, # of connection points: 3
#     Node 3, Type 0, BuildingBlock: KAKCAD_clean_linker_0, # of connection points: 3
#     Node 4, Type 0, BuildingBlock: KAKCAD_clean_linker_0, # of connection points: 3
#     Node 5, Type 0, BuildingBlock: KAKCAD_clean_linker_0, # of connection points: 3
#     Node 6, Type 0, BuildingBlock: KAKCAD_clean_linker_0, # of connection points: 3
#     Node 7, Type 0, BuildingBlock: KAKCAD_clean_linker_0, # of connection points: 3
#     Node 8, Type 1, BuildingBlock: PAMTUU_clean_sbu_0, # of connection points: 6
#     Node 9, Type 1, BuildingBlock: PAMTUU_clean_sbu_0, # of connection points: 6
#     Node 10, Type 1, BuildingBlock: PAMTUU_clean_sbu_0, # of connection points: 6
#     Node 11, Type 1, BuildingBlock: PAMTUU_clean_sbu_0, # of connection points: 6
#     Edge 12, Type (0, 1), BuildingBlock: XIVTED_clean_linker_0, # of connection points: 2
#     Edge 13, Type (0, 1), BuildingBlock: XIVTED_clean_linker_0, # of connection points: 2
#     Edge 14, Type (0, 1), BuildingBlock: XIVTED_clean_linker_0, # of connection points: 2
#     Edge 15, Type (0, 1), BuildingBlock: XIVTED_clean_linker_0, # of connection points: 2
#     Edge 16, Type (0, 1), BuildingBlock: XIVTED_clean_linker_0, # of connection points: 2
#     Edge 17, Type (0, 1), BuildingBlock: XIVTED_clean_linker_0, # of connection points: 2
#     Edge 18, Type (0, 1), BuildingBlock: XIVTED_clean_linker_0, # of connection points: 2
#     Edge 19, Type (0, 1), BuildingBlock: XIVTED_clean_linker_0, # of connection points: 2
#     Edge 20, Type (0, 1), BuildingBlock: XIVTED_clean_linker_0, # of connection points: 2
#     Edge 21, Type (0, 1), BuildingBlock: XIVTED_clean_linker_0, # of connection points: 2
#     Edge 22, Type (0, 1), BuildingBlock: XIVTED_clean_linker_0, # of connection points: 2
#     Edge 23, Type (0, 1), BuildingBlock: XIVTED_clean_linker_0, # of connection points: 2
#     Edge 24, Type (0, 1), BuildingBlock: XIVTED_clean_linker_0, # of connection points: 2
#     Edge 25, Type (0, 1), BuildingBlock: XIVTED_clean_linker_0, # of connection points: 2
#     Edge 26, Type (0, 1), BuildingBlock: XIVTED_clean_linker_0, # of connection points: 2
#     Edge 27, Type (0, 1), BuildingBlock: XIVTED_clean_linker_0, # of connection points: 2
#     Edge 28, Type (0, 1), BuildingBlock: XIVTED_clean_linker_0, # of connection points: 2
#     Edge 29, Type (0, 1), BuildingBlock: XIVTED_clean_linker_0, # of connection points: 2
#     Edge 30, Type (0, 1), BuildingBlock: XIVTED_clean_linker_0, # of connection points: 2
#     Edge 31, Type (0, 1), BuildingBlock: XIVTED_clean_linker_0, # of connection points: 2
#     Edge 32, Type (0, 1), BuildingBlock: XIVTED_clean_linker_0, # of connection points: 2
#     Edge 33, Type (0, 1), BuildingBlock: XIVTED_clean_linker_0, # of connection points: 2
#     Edge 34, Type (0, 1), BuildingBlock: XIVTED_clean_linker_0, # of connection points: 2
#     Edge 35, Type (0, 1), BuildingBlock: XIVTED_clean_linker_0, # of connection points: 2
# Relax obj value: 0.379
# Max RMSD: 0.262
# Mean RMSD: 0.220
data_MOF--net-zzz--node1-PAMTUU_clean_sbu_0--node2-KAKCAD_clean_linker_0--edge1-XIVTED_clean_linker_0
_symmetry_space_group_name_H-M    P1
_symmetry_Int_Tables_number       1
_symmetry_cell_setting            triclinic
loop_
_symmetry_equiv_pos_as_xyz
'x, y, z'
_cell_length_a     58.49141
_cell_length_b     61.919712
_cell_length_c     20.767511
_cell_angle_alpha  98.581426
_cell_angle_beta   89.972462
_cell_angle_gamma 89.848685
loop_
_atom_site_label
_atom_site_type_symbol
_atom_site_fract_x
_atom_site_fract_y
_atom_site_fract_z
_atom_type_partial_charge
C0 C 0.78204 0.41464 0.05336 0.0
C1 C 0.80037 0.40053 0.06101 0.0
C2 C 0.77149 0.42663 0.10749 0.0
C3 C 0.77837 0.42428 0.17108 0.0
C4 C 0.79517 0.40855 0.17866 0.0
C5 C 0.80622 0.39702 0.1244 0.0
C6 C 0.76933 0.43938 0.22834 0.0
C7 C 0.74729 0.44819 0.22692 0.0
C8 C 0.73971 0.46489 0.27537 0.0
C9 C 0.75411 0.47226 0.3287 0.0
C10 C 0.77577 0.46239 0.33351 0.0
C11 C 0.78328 0.44643 0.28242 0.0
C12 C 0.79135 0.4683 0.3903 0.0
C13 C 0.79886 0.48985 0.4092 0.0
C14 C 0.80121 0.4516 0.42026 0.0
C15 C 0.81891 0.45607 0.46551 0.0
C16 C 0.82741 0.4774 0.48213 0.0
C17 C 0.71703 0.47466 0.26509 0.0
C18 C 0.71566 0.49524 0.24469 0.0
C19 C 0.69772 0.46106 0.25785 0.0
C20 C 0.67815 0.46709 0.22612 0.0
C21 C 0.67733 0.48692 0.20061 0.0
C22 C 0.696 0.50134 0.21287 0.0
C23 C 0.81678 0.49434 0.45443 0.0
H24 H 0.77654 0.41734 0.00543 0.0
H25 H 0.75879 0.43859 0.09881 0.0
H26 H 0.80048 0.40567 0.22659 0.0
H27 H 0.82026 0.38635 0.13272 0.0
H28 H 0.736 0.44253 0.1866 0.0
H29 H 0.80053 0.44011 0.28412 0.0
H30 H 0.74834 0.48507 0.36653 0.0
H31 H 0.79171 0.50303 0.38663 0.0
H32 H 0.79579 0.43482 0.40665 0.0
H33 H 0.82669 0.44252 0.48496 0.0
H34 H 0.73043 0.50587 0.24862 0.0
H35 H 0.6985 0.44493 0.27206 0.0
H36 H 0.82263 0.51102 0.46662 0.0
H37 H 0.69588 0.51693 0.19521 0.0
H38 H 0.66437 0.45539 0.21742 0.0
C39 C 0.98238 0.78782 0.20301 0.0
C40 C 1.00216 0.78496 0.1642 0.0
C41 C 0.97704 0.77295 0.24503 0.0
C42 C 0.99131 0.75491 0.24879 0.0
C43 C 1.01019 0.75123 0.20665 0.0
C44 C 0.01559 0.76615 0.16485 0.0
C45 C 0.98849 0.74177 0.30221 0.0
C46 C 0.99131 0.71909 0.2912 0.0
C47 C 0.9921 0.70709 0.34346 0.0
C48 C 0.99019 0.71796 0.40784 0.0
C49 C 0.98703 0.74076 0.41902 0.0
C50 C 0.98585 0.75237 0.36611 0.0
C51 C 0.98827 0.75387 0.4843 0.0
C52 C 0.96879 0.76541 0.50989 0.0
C53 C 1.00989 0.76061 0.50862 0.0
C54 C 0.01221 0.78001 0.55213 0.0
C55 C 0.9929 0.79275 0.57263 0.0
C56 C 0.99652 0.68343 0.32803 0.0
C57 C 0.97826 0.66861 0.32356 0.0
C58 C 0.01784 0.6764 0.30181 0.0
C59 C 0.02036 0.65553 0.26647 0.0
C60 C 1.00157 0.64134 0.2566 0.0
C61 C 0.98081 0.6476 0.28827 0.0
C62 C 0.97108 0.78463 0.55432 0.0
H63 H 0.97176 0.80222 0.20384 0.0
H64 H 0.9623 0.77607 0.27672 0.0
H65 H 0.02159 0.73755 0.20884 0.0
H66 H 0.03078 0.76342 0.13485 0.0
H67 H 0.99346 0.71075 0.24178 0.0
H68 H 0.98458 0.77005 0.37531 0.0
H69 H 0.99179 0.70894 0.4485 0.0
H70 H 0.95202 0.76077 0.49057 0.0
H71 H 0.02516 0.75224 0.48843 0.0
H72 H 0.02921 0.78593 0.56573 0.0
H73 H 0.96157 0.67389 0.34247 0.0
H74 H 0.03204 0.6877 0.30409 0.0
H75 H 0.95594 0.79424 0.56907 0.0
H76 H 0.96603 0.63701 0.28108 0.0
H77 H 0.03659 0.65103 0.24303 0.0
C78 C 0.76371 0.07065 0.1532 0.0
C79 C 0.74499 0.0839 0.17626 0.0
C80 C 0.77372 0.05666 0.1919 0.0
C81 C 0.76607 0.05625 0.25605 0.0
C82 C 0.74945 0.07162 0.28181 0.0
C83 C 0.73878 0.08497 0.24223 0.0
C84 C 0.77374 0.03861 0.29317 0.0
C85 C 0.79515 0.02864 0.28115 0.0
C86 C 0.80117 0.00988 0.30766 0.0
C87 C 0.78595 0.00159 0.35094 0.0
C88 C 0.76498 0.01247 0.36772 0.0
C89 C 0.75891 0.0304 0.33689 0.0
C90 C 0.74876 0.0061 0.41728 0.0
C91 C 0.73921 0.98509 0.41161 0.0
C92 C 0.74022 0.02239 0.46583 0.0
C93 C 0.72191 0.01825 0.50543 0.0
C94 C 0.71149 0.99756 0.4983 0.0
C95 C 0.82302 0.99912 0.28441 0.0
C96 C 0.82261 0.981 0.23494 0.0
C97 C 0.84357 0.01074 0.2964 0.0
C98 C 0.86271 0.00551 0.25648 0.0
C99 C 0.86176 0.98857 0.20314 0.0
C100 C 0.84177 0.97576 0.19478 0.0
C101 C 0.72074 0.98087 0.4516 0.0
H102 H 0.76981 0.06999 0.10374 0.0
H103 H 0.78647 0.04527 0.16946 0.0
H104 H 0.74376 0.07267 0.33177 0.0
H105 H 0.7246 0.09495 0.26275 0.0
H106 H 0.80715 0.03502 0.24904 0.0
H107 H 0.74206 0.03749 0.34601 0.0
H108 H 0.79059 0.98726 0.37228 0.0
H109 H 0.74527 0.97224 0.3743 0.0
H110 H 0.74716 0.03878 0.47137 0.0
H111 H 0.7153 0.03171 0.53967 0.0
H112 H 0.80687 0.97205 0.22371 0.0
H113 H 0.84418 0.02511 0.33322 0.0
H114 H 0.71346 0.96464 0.44505 0.0
H115 H 0.8405 0.96234 0.15506 0.0
H116 H 0.87762 0.01589 0.26448 0.0
C117 C 0.55452 0.73619 0.41659 0.0
C118 C 0.5764 0.72939 0.43347 0.0
C119 C 0.55194 0.74957 0.36846 0.0
C120 C 0.57116 0.75652 0.33676 0.0
C121 C 0.59304 0.75171 0.35828 0.0
C122 C 0.59566 0.7383 0.40642 0.0
C123 C 0.56839 0.76199 0.27048 0.0
C124 C 0.57019 0.78334 0.25582 0.0
C125 C 0.5675 0.78725 0.19094 0.0
C126 C 0.56304 0.76954 0.14143 0.0
C127 C 0.56147 0.74822 0.15608 0.0
C128 C 0.56406 0.74471 0.22066 0.0
C129 C 0.55645 0.72927 0.10562 0.0
C130 C 0.53772 0.72954 0.06334 0.0
C131 C 0.56878 0.70976 0.1054 0.0
C132 C 0.56145 0.69051 0.06787 0.0
C133 C 0.54176 0.69038 0.02926 0.0
C134 C 0.56854 0.80973 0.17425 0.0
C135 C 0.55584 0.82674 0.20996 0.0
C136 C 0.58081 0.81392 0.11922 0.0
C137 C 0.57956 0.83437 0.09855 0.0
C138 C 0.56585 0.85103 0.13212 0.0
C139 C 0.5544 0.84715 0.18889 0.0
C140 C 0.53044 0.71017 0.02518 0.0
H141 H 0.5393 0.72957 0.43593 0.0
H142 H 0.5349 0.75272 0.35158 0.0
H143 H 0.60809 0.75659 0.33364 0.0
H144 H 0.61276 0.73368 0.41914 0.0
H145 H 0.57366 0.79672 0.29444 0.0
H146 H 0.56245 0.72831 0.23268 0.0
H147 H 0.56063 0.77236 0.0916 0.0
H148 H 0.52789 0.74436 0.06277 0.0
H149 H 0.58353 0.70919 0.13663 0.0
H150 H 0.57074 0.67552 0.07076 0.0
H151 H 0.54615 0.82397 0.25241 0.0
H152 H 0.59091 0.80116 0.09112 0.0
H153 H 0.51524 0.71044 0.99553 0.0
H154 H 0.54384 0.85974 0.21607 0.0
H155 H 0.58844 0.83676 0.05439 0.0
C156 C 0.25516 0.58189 0.43739 0.0
C157 C 0.23118 0.5822 0.43633 0.0
C158 C 0.2673 0.56794 0.3899 0.0
C159 C 0.2556 0.55364 0.34178 0.0
C160 C 0.23156 0.55424 0.34123 0.0
C161 C 0.21957 0.56849 0.3873 0.0
C162 C 0.26798 0.53718 0.29449 0.0
C163 C 0.28768 0.52675 0.31297 0.0
C164 C 0.29789 0.50953 0.27101 0.0
C165 C 0.28775 0.50206 0.21003 0.0
C166 C 0.26803 0.51261 0.19049 0.0
C167 C 0.25889 0.53046 0.23227 0.0
C168 C 0.25491 0.50458 0.1302 0.0
C169 C 0.24748 0.51959 0.09007 0.0
C170 C 0.24527 0.4836 0.12122 0.0
C171 C 0.22719 0.47844 0.07708 0.0
C172 C 0.21828 0.4942 0.04117 0.0
C173 C 0.31887 0.49971 0.29431 0.0
C174 C 0.34038 0.50763 0.27931 0.0
C175 C 0.31722 0.48672 0.34401 0.0
C176 C 0.33648 0.48276 0.38058 0.0
C177 C 0.35781 0.49196 0.36886 0.0
C178 C 0.35969 0.50374 0.31605 0.0
C179 C 0.22939 0.51454 0.04646 0.0
H180 H 0.26442 0.59222 0.47526 0.0
H181 H 0.2858 0.56816 0.39154 0.0
H182 H 0.22176 0.54307 0.30688 0.0
H183 H 0.20105 0.56796 0.38656 0.0
H184 H 0.29491 0.53152 0.36102 0.0
H185 H 0.24385 0.53859 0.21698 0.0
H186 H 0.29503 0.48824 0.17847 0.0
H187 H 0.25454 0.53593 0.0961 0.0
H188 H 0.25049 0.47174 0.1518 0.0
H189 H 0.21955 0.4624 0.07333 0.0
H190 H 0.34195 0.51815 0.24229 0.0
H191 H 0.30072 0.48077 0.35721 0.0
H192 H 0.22316 0.52726 0.02045 0.0
H193 H 0.37573 0.51124 0.30577 0.0
H194 H 0.33442 0.47325 0.41992 0.0
C195 C 0.98939 0.22925 0.39674 0.0
C196 C 1.00192 0.21276 0.42075 0.0
C197 C 0.99922 0.24105 0.35136 0.0
C198 C 0.02152 0.23618 0.32859 0.0
C199 C 0.03424 0.2202 0.35406 0.0
C200 C 0.02459 0.20869 0.39996 0.0
C201 C 0.03116 0.24653 0.27511 0.0
C202 C 0.03304 0.26921 0.28038 0.0
C203 C 0.04355 0.27879 0.23077 0.0
C204 C 0.05149 0.26546 0.17412 0.0
C205 C 0.04914 0.24262 0.16811 0.0
C206 C 0.03918 0.2334 0.21904 0.0
C207 C 0.05611 0.22762 0.10908 0.0
C208 C 0.04435 0.22778 0.0503 0.0
C209 C 0.07063 0.20999 0.11557 0.0
C210 C 0.07174 0.19189 0.06675 0.0
C211 C 0.05828 0.191 0.01029 0.0
C212 C 0.04769 0.30256 0.24299 0.0
C213 C 0.02908 0.317 0.25389 0.0
C214 C 0.0698 0.31031 0.25887 0.0
C215 C 0.073 0.33165 0.29075 0.0
C216 C 0.05415 0.3456 0.30646 0.0
C217 C 0.03231 0.33843 0.28479 0.0
C218 C 0.04542 0.2096 1.00125 0.0
H219 H 0.97189 0.2327 0.41215 0.0
H220 H 0.98912 0.25331 0.33209 0.0
H221 H 0.05151 0.21627 0.33727 0.0
H222 H 0.03457 0.19589 0.41695 0.0
H223 H 0.02726 0.27938 0.32452 0.0
H224 H 0.03726 0.2158 0.21454 0.0
H225 H 0.0596 0.27274 0.13565 0.0
H226 H 0.03289 0.24112 0.04445 0.0
H227 H 0.07974 0.20947 0.16075 0.0
H228 H 0.08172 0.17792 0.07591 0.0
H229 H 0.01185 0.31123 0.24281 0.0
H230 H 0.08434 0.29932 0.25177 0.0
H231 H 0.03518 0.20963 0.95784 0.0
H232 H 0.01744 0.34871 0.29677 0.0
H233 H 0.09002 0.3368 0.30676 0.0
C234 C 0.27708 0.04894 0.47658 0.0
C235 C 0.30019 0.05466 0.47261 0.0
C236 C 0.26309 0.04764 0.42191 0.0
C237 C 0.27158 0.05312 0.36283 0.0
C238 C 0.29307 0.0634 0.36402 0.0
C239 C 0.30744 0.06374 0.41786 0.0
C240 C 0.26038 0.04421 0.29954 0.0
C241 C 0.2373 0.03812 0.29769 0.0
C242 C 0.2284 0.02367 0.24541 0.0
C243 C 0.2422 0.01691 0.19006 0.0
C244 C 0.26476 0.02495 0.18794 0.0
C245 C 0.27367 0.03803 0.24329 0.0
C246 C 0.28043 0.01944 0.13109 0.0
C247 C 0.28877 0.99808 0.11266 0.0
C248 C 0.29089 0.03657 0.10473 0.0
C249 C 0.31018 0.03279 0.06477 0.0
C250 C 0.31965 0.01174 0.04991 0.0
C251 C 0.20577 0.0141 0.25648 0.0
C252 C 0.20494 0.99673 0.29284 0.0
C253 C 0.18582 0.02632 0.25104 0.0
C254 C 0.16587 0.02217 0.28474 0.0
C255 C 0.16557 0.00602 0.32613 0.0
C256 C 0.18517 0.99277 0.32735 0.0
C257 C 0.30817 0.99425 0.07217 0.0
H258 H 0.27047 0.04306 0.51948 0.0
H259 H 0.24655 0.04015 0.42514 0.0
H260 H 0.29976 0.06935 0.32138 0.0
H261 H 0.32492 0.06899 0.41326 0.0
H262 H 0.22634 0.04331 0.3392 0.0
H263 H 0.29164 0.04215 0.24306 0.0
H264 H 0.23551 0.00565 0.14957 0.0
H265 H 0.28132 0.98462 0.13315 0.0
H266 H 0.28493 0.05322 0.11838 0.0
H267 H 0.31826 0.04658 0.04757 0.0
H268 H 0.22031 0.98752 0.2996 0.0
H269 H 0.18616 0.04015 0.22467 0.0
H270 H 0.31501 0.97783 0.06178 0.0
H271 H 0.18601 0.98036 0.35883 0.0
H272 H 0.15105 0.03239 0.28076 0.0
C273 C 0.46351 0.27045 0.21516 0.0
C274 C 0.47751 0.26957 0.15973 0.0
C275 C 0.46798 0.25694 0.26192 0.0
C276 C 0.48638 0.2422 0.25387 0.0
C277 C 0.49901 0.23979 0.19587 0.0
C278 C 0.49455 0.25331 0.14898 0.0
C279 C 0.49612 0.23455 0.31189 0.0
C280 C 0.49281 0.21329 0.32603 0.0
C281 C 0.50207 0.20724 0.38351 0.0
C282 C 0.51423 0.22279 0.42677 0.0
C283 C 0.51762 0.24392 0.41232 0.0
C284 C 0.50871 0.24958 0.35472 0.0
C285 C 0.52874 0.26098 0.45891 0.0
C286 C 0.51847 0.26807 0.51934 0.0
C287 C 0.54745 0.27252 0.43918 0.0
C288 C 0.55492 0.29164 0.47759 0.0
C289 C 0.54345 0.29989 0.53573 0.0
C290 C 0.49886 0.18497 0.40018 0.0
C291 C 0.47698 0.17566 0.40037 0.0
C292 C 0.51761 0.17359 0.42096 0.0
C293 C 0.5145 0.1537 0.44368 0.0
C294 C 0.49251 0.14478 0.44672 0.0
C295 C 0.47381 0.15581 0.4239 0.0
C296 C 0.52563 0.28742 0.55723 0.0
H297 H 0.45038 0.28285 0.22542 0.0
H298 H 0.45834 0.25933 0.307 0.0
H299 H 0.51351 0.22876 0.18929 0.0
H300 H 0.50541 0.25198 0.1063 0.0
H301 H 0.48316 0.2016 0.29268 0.0
H302 H 0.51097 0.26607 0.34402 0.0
H303 H 0.52082 0.21857 0.47209 0.0
H304 H 0.50382 0.25951 0.53502 0.0
H305 H 0.55563 0.26723 0.39266 0.0
H306 H 0.56908 0.30042 0.46024 0.0
H307 H 0.46223 0.18417 0.3849 0.0
H308 H 0.53467 0.18036 0.42097 0.0
H309 H 0.51613 0.29325 0.60115 0.0
H310 H 0.45669 0.14927 0.42525 0.0
H311 H 0.52923 0.14575 0.46147 0.0
Tb312 Tb 0.99618 0.00225 0.72356 0.0
Tb313 Tb 0.03623 0.98783 0.81737 0.0
C314 C 0.98479 0.99158 0.86264 0.0
C315 C 0.96178 0.03903 0.64128 0.0
C316 C 0.96001 0.08205 0.61211 0.0
C317 C 0.95775 0.06405 0.56238 0.0
C318 C 0.95864 0.04272 0.57691 0.0
C319 C 0.96311 0.057 0.69127 0.0
C320 C 0.96214 0.07826 0.67686 0.0
C321 C 0.96572 0.01669 0.65542 0.0
O322 O 1.00589 0.03133 0.79027 0.0
O323 O 0.04267 0.02208 0.81255 0.0
O324 O 0.05083 0.98477 0.71958 0.0
O325 O 0.0284 0.00983 0.67887 0.0
O326 O 0.05372 0.99192 0.90679 0.0
O327 O 0.06322 0.96637 0.82897 0.0
O328 O 0.0151 0.95922 0.78869 0.0
O329 O 1.00239 0.96758 0.6911 0.0
O330 O 0.97859 0.98884 0.8012 0.0
O331 O 1.00619 0.99569 0.87935 0.0
C332 C 0.02665 0.03686 0.81042 0.0
O333 O 0.98435 0.00718 0.63101 0.0
O334 O 0.96276 0.01386 0.71574 0.0
C335 C 0.04693 0.99769 0.67601 0.0
C336 C 0.06189 0.95692 0.93317 0.0
C337 C 0.05196 0.9195 0.99002 0.0
C338 C 0.07359 0.92203 0.96248 0.0
C339 C 0.07849 0.94061 0.93416 0.0
C340 C 0.04073 0.95495 0.96372 0.0
C341 C 0.03588 0.9365 0.99223 0.0
C342 C 0.06502 0.9737 0.89087 0.0
C343 C 1.00695 0.9532 0.72996 0.0
H344 H 0.95636 0.06641 0.51189 0.0
H345 H 0.95771 0.02911 0.53762 0.0
H346 H 0.96557 0.05468 0.74146 0.0
H347 H 0.9636 0.09174 0.71637 0.0
H348 H 0.08629 0.90915 0.95964 0.0
H349 H 0.09477 0.94169 0.90993 0.0
H350 H 0.02749 0.96718 0.96291 0.0
H351 H 0.01923 0.93524 0.01421 0.0
Tb352 Tb 0.51016 0.97529 0.73244 0.0
Tb353 Tb 0.52626 0.01671 0.83788 0.0
C354 C 0.53298 0.96912 0.866 0.0
C355 C 0.47044 0.94712 0.62051 0.0
C356 C 0.42878 0.96587 0.58989 0.0
C357 C 0.42999 0.95386 0.64203 0.0
C358 C 0.45063 0.94444 0.657 0.0
C359 C 0.46835 0.95653 0.56323 0.0
C360 C 0.44771 0.96595 0.54826 0.0
C361 C 0.49321 0.94576 0.6506 0.0
O362 O 0.47871 0.98969 0.77759 0.0
O363 O 0.49381 0.00615 0.87443 0.0
O364 O 0.50189 0.02869 0.77266 0.0
O365 O 0.50991 0.00398 0.68341 0.0
O366 O 0.53504 0.03185 0.93206 0.0
O367 O 0.53334 0.0502 0.8517 0.0
O368 O 0.55363 0.01086 0.76535 0.0
O369 O 0.54733 0.97471 0.72529 0.0
O370 O 0.51734 0.96266 0.82216 0.0
O371 O 0.54246 0.9885 0.87056 0.0
C372 C 0.4762 0.99822 0.83919 0.0
O373 O 0.50831 0.95963 0.63551 0.0
O374 O 0.4932 0.94515 0.71305 0.0
C375 C 0.50248 0.02326 0.7094 0.0
C376 C 0.5609 0.06089 0.93057 0.0
C377 C 0.60309 0.08177 0.95966 0.0
C378 C 0.58246 0.093 0.97585 0.0
C379 C 0.56151 0.08261 0.96131 0.0
C380 C 0.58135 0.04967 0.91365 0.0
C381 C 0.60227 0.05998 0.9283 0.0
C382 C 0.53891 0.05057 0.91248 0.0
C383 C 0.56051 0.9921 0.73241 0.0
H384 H 0.41562 0.95334 0.67467 0.0
H385 H 0.4515 0.93697 0.70089 0.0
H386 H 0.48319 0.95848 0.53339 0.0
H387 H 0.44698 0.97451 0.50646 0.0
H388 H 0.5825 0.10981 0.99954 0.0
H389 H 0.54579 0.09157 0.9737 0.0
H390 H 0.58112 0.03294 0.88918 0.0
H391 H 0.6178 0.05068 0.91631 0.0
Tb392 Tb 0.50147 0.4881 0.83298 0.0
Tb393 Tb 0.53788 0.5054 0.73054 0.0
C394 C 0.48635 0.49648 0.69558 0.0
C395 C 0.47426 0.45141 0.93269 0.0
C396 C 0.47371 0.40995 0.97379 0.0
C397 C 0.45566 0.42489 0.99017 0.0
C398 C 0.45592 0.44543 0.96958 0.0
C399 C 0.49237 0.43671 0.9167 0.0
C400 C 0.49206 0.41616 0.9367 0.0
C401 C 0.47424 0.47252 0.90841 0.0
O402 O 0.51273 0.45935 0.76753 0.0
O403 O 0.54612 0.47098 0.72427 0.0
O404 O 0.55414 0.50871 0.82654 0.0
O405 O 0.53531 0.48161 0.86839 0.0
O406 O 0.56944 0.5201 0.71528 0.0
O407 O 0.54589 0.51156 0.63632 0.0
O408 O 0.51674 0.53316 0.76843 0.0
O409 O 0.50634 0.52284 0.86589 0.0
O410 O 0.48153 0.50048 0.75797 0.0
O411 O 0.50756 0.49305 0.67569 0.0
C412 C 0.53219 0.4554 0.73614 0.0
O413 O 0.47107 0.47133 0.84588 0.0
O414 O 0.49101 0.48565 0.9285 0.0
C415 C 0.55272 0.49493 0.86888 0.0
C416 C 0.56704 0.54406 0.63774 0.0
C417 C 0.57243 0.58647 0.60502 0.0
C418 C 0.59119 0.57208 0.60326 0.0
C419 C 0.58849 0.55108 0.61936 0.0
C420 C 0.54831 0.5584 0.64058 0.0
C421 C 0.55095 0.57936 0.62418 0.0
C422 C 0.56456 0.52199 0.65533 0.0
C423 C 0.5098 0.53801 0.8289 0.0
H424 H 0.44143 0.42083 0.01944 0.0
H425 H 0.44179 0.4566 0.98227 0.0
H426 H 0.50667 0.44109 0.88818 0.0
H427 H 0.50608 0.40504 0.92218 0.0
H428 H 0.60806 0.57707 0.58992 0.0
H429 H 0.6032 0.54034 0.61763 0.0
H430 H 0.5316 0.55335 0.65509 0.0
H431 H 0.53605 0.58983 0.62538 0.0
Tb432 Tb 0.02528 0.51147 0.74964 0.0
Tb433 Tb 0.01238 0.46926 0.82199 0.0
C434 C 1.00689 0.51656 0.8891 0.0
C435 C 0.05666 0.55744 0.69575 0.0
C436 C 0.09772 0.57965 0.67961 0.0
C437 C 0.07661 0.5907 0.68158 0.0
C438 C 0.05625 0.57965 0.68957 0.0
C439 C 0.07762 0.54644 0.69539 0.0
C440 C 0.09797 0.55741 0.68711 0.0
C441 C 0.03527 0.5462 0.70602 0.0
O442 O 0.05541 0.50667 0.80796 0.0
O443 O 0.04928 0.4721 0.83334 0.0
O444 O 0.01741 0.45688 0.71979 0.0
O445 O 0.0409 0.48346 0.68977 0.0
O446 O 0.9937 0.45724 0.89509 0.0
O447 O 0.01673 0.43629 0.83252 0.0
O448 O 0.98009 0.479 0.7805 0.0
O449 O 0.99305 0.50008 0.70536 0.0
O450 O 1.0022 0.52081 0.83078 0.0
O451 O 0.01605 0.49777 0.89595 0.0
C452 C 0.06249 0.48914 0.83111 0.0
O453 O 0.03183 0.5275 0.6692 0.0
O454 O 0.03043 0.54531 0.76672 0.0
C455 C 0.03251 0.46356 0.68035 0.0
C456 C 0.98299 0.42073 0.86753 0.0
C457 C 0.94337 0.39467 0.85622 0.0
C458 C 0.95285 0.40201 0.801 0.0
C459 C 0.9724 0.41511 0.80674 0.0
C460 C 0.97465 0.41219 0.92152 0.0
C461 C 0.95502 0.39933 0.91607 0.0
C462 C 1.00097 0.43732 0.87733 0.0
C463 C 0.97673 0.48912 0.72964 0.0
H464 H 0.07582 0.60785 0.67669 0.0
H465 H 0.04017 0.58844 0.69091 0.0
H466 H 0.07823 0.52932 0.70101 0.0
H467 H 0.11383 0.54826 0.68469 0.0
H468 H 0.94461 0.39849 0.75395 0.0
H469 H 0.97863 0.42163 0.76443 0.0
H470 H 0.98257 0.41648 0.96885 0.0
H471 H 0.94817 0.39442 0.96007 0.0
H472 H 0.13728 0.03893 0.38587 0.0
H473 H 0.08111 0.96838 0.63502 0.0
H474 H 0.14916 0.96955 0.37455 0.0
H475 H 0.05125 0.02872 0.59467 0.0
H476 H 0.1086 0.96982 0.54675 0.0
H477 H 0.1077 0.03658 0.46723 0.0
C478 C 0.13355 0.0231 0.39935 0.0
C479 C 0.14602 0.0044 0.37238 0.0
C480 C 0.09599 0.98271 0.55708 0.0
C481 C 0.11235 0.00187 0.46833 0.0
C482 C 0.08034 0.98198 0.60776 0.0
C483 C 0.06379 0.99847 0.62253 0.0
C484 C 0.09543 0.00026 0.52131 0.0
C485 C 0.06363 0.01561 0.58506 0.0
C486 C 0.1167 0.02186 0.44657 0.0
C487 C 0.14051 0.98455 0.39421 0.0
N488 N 0.07928 0.01614 0.53662 0.0
N489 N 0.1243 0.98387 0.44108 0.0
H490 H 0.4596 0.13741 0.53479 0.0
H491 H 0.48034 0.06223 0.74453 0.0
H492 H 0.51794 0.10704 0.43049 0.0
H493 H 0.51056 0.02186 0.57874 0.0
H494 H 0.47369 0.09073 0.67741 0.0
H495 H 0.45722 0.10657 0.59551 0.0
C496 C 0.47177 0.12414 0.52419 0.0
C497 C 0.48919 0.12494 0.47806 0.0
C498 C 0.48123 0.07546 0.65508 0.0
C499 C 0.48704 0.08991 0.54893 0.0
C500 C 0.48525 0.05922 0.69368 0.0
C501 C 0.4961 0.03964 0.66732 0.0
C502 C 0.48827 0.07219 0.58961 0.0
C503 C 0.50212 0.03669 0.60111 0.0
C504 C 0.47062 0.10668 0.55963 0.0
C505 C 0.50451 0.10729 0.4665 0.0
N506 N 0.49844 0.05293 0.5648 0.0
N507 N 0.50313 0.09054 0.50186 0.0
H508 H 0.40406 0.48707 0.34202 0.0
H509 H 0.44027 0.50068 0.71887 0.0
H510 H 0.35618 0.49535 0.50207 0.0
H511 H 0.48918 0.48999 0.56154 0.0
H512 H 0.40942 0.49869 0.63924 0.0
H513 H 0.43551 0.48793 0.42042 0.0
C514 C 0.40011 0.48901 0.39351 0.0
C515 C 0.3773 0.49103 0.41513 0.0
C516 C 0.42689 0.49677 0.62197 0.0
C517 C 0.41335 0.49204 0.50539 0.0
C518 C 0.44458 0.49794 0.66757 0.0
C519 C 0.46746 0.49552 0.64713 0.0
C520 C 0.43195 0.49318 0.55504 0.0
C521 C 0.47184 0.49196 0.57974 0.0
C522 C 0.4181 0.48944 0.43828 0.0
C523 C 0.37335 0.49333 0.48265 0.0
N524 N 0.45428 0.49092 0.5362 0.0
N525 N 0.39111 0.49383 0.52509 0.0
H526 H 0.03654 0.3866 0.30081 0.0
H527 H 0.04057 0.4204 0.67755 0.0
H528 H 0.07602 0.35001 0.42307 0.0
H529 H 0.04109 0.47088 0.55525 0.0
H530 H 0.05028 0.39348 0.58298 0.0
H531 H 0.03514 0.41744 0.39057 0.0
C532 C 0.04526 0.38524 0.34603 0.0
C533 C 0.05645 0.36576 0.35454 0.0
C534 C 0.04852 0.41048 0.57689 0.0
C535 C 0.05442 0.40054 0.45718 0.0
C536 C 0.04287 0.4258 0.63068 0.0
C537 C 0.04005 0.44782 0.62394 0.0
C538 C 0.0507 0.41709 0.51546 0.0
C539 C 0.04327 0.45402 0.56226 0.0
C540 C 0.0445 0.4028 0.39699 0.0
C541 C 0.06741 0.36478 0.41416 0.0
N542 N 0.04805 0.43863 0.50987 0.0
N543 N 0.06576 0.38175 0.46355 0.0
H544 H 0.85764 0.97906 0.06999 0.0
H545 H 0.99071 0.99551 0.99559 0.0
H546 H 0.90856 0.99286 0.22076 0.0
H547 H 0.93883 0.98326 0.84699 0.0
H548 H 0.96145 0.99291 0.07853 0.0
H549 H 0.88764 0.97828 0.98809 0.0
C550 C 0.87516 0.98157 0.08614 0.0
C551 C 0.88042 0.98599 0.15291 0.0
C552 C 0.95647 0.99075 0.02777 0.0
C553 C 0.9151 0.9856 0.05834 0.0
C554 C 0.9732 0.99225 0.98025 0.0
C555 C 0.96731 0.98969 0.9139 0.0
C556 C 0.9336 0.98664 0.00909 0.0
C557 C 0.94428 0.98541 0.89733 0.0
C558 C 0.89232 0.98134 0.03907 0.0
C559 C 0.90353 0.98962 0.17011 0.0
N560 N 0.92835 0.98407 0.94444 0.0
N561 N 0.91993 0.98941 0.1233 0.0
H562 H 0.52507 0.87142 0.11942 0.0
H563 H 0.57349 0.96561 0.93203 0.0
H564 H 0.59708 0.87684 0.07979 0.0
H565 H 0.50555 0.9387 0.90685 0.0
H566 H 0.58238 0.93883 0.00543 0.0
H567 H 0.51764 0.90246 0.06252 0.0
C568 C 0.53939 0.87939 0.09978 0.0
C569 C 0.56173 0.87146 0.10421 0.0
C570 C 0.56553 0.93896 0.98389 0.0
C571 C 0.55327 0.90693 0.03825 0.0
C572 C 0.56044 0.95423 0.94235 0.0
C573 C 0.53884 0.95421 0.91292 0.0
C574 C 0.54868 0.92405 0.99701 0.0
C575 C 0.52252 0.93912 0.9278 0.0
C576 C 0.5351 0.89699 0.06678 0.0
C577 C 0.57957 0.8823 0.07686 0.0
N578 N 0.52775 0.92474 0.96884 0.0
N579 N 0.57497 0.89948 0.04483 0.0
H580 H 0.67934 0.50692 0.09059 0.0
H581 H 0.55226 0.47337 0.97505 0.0
H582 H 0.63154 0.47644 0.20738 0.0
H583 H 0.5942 0.51622 0.87913 0.0
H584 H 0.5817 0.47336 0.05838 0.0
H585 H 0.64888 0.51028 0.01228 0.0
C586 C 0.6624 0.50124 0.1006 0.0
C587 C 0.65821 0.49129 0.15613 0.0
C588 C 0.58447 0.48282 0.01925 0.0
C589 C 0.6232 0.4946 0.06491 0.0
C590 C 0.56767 0.48277 0.97133 0.0
C591 C 0.5707 0.49478 0.91964 0.0
C592 C 0.60467 0.49481 0.01552 0.0
C593 C 0.59106 0.50671 0.91794 0.0
C594 C 0.64502 0.503 0.0553 0.0
C595 C 0.63586 0.48387 0.16501 0.0
N596 N 0.60728 0.50633 0.9649 0.0
N597 N 0.61933 0.48553 0.11981 0.0
H598 H 0.01654 0.64021 0.13279 0.0
H599 H 1.00719 0.51258 0.0194 0.0
H600 H 0.9884 0.59883 0.2625 0.0
H601 H 1.00031 0.56007 0.88805 0.0
H602 H 1.00517 0.54243 0.11194 0.0
H603 H 0.01662 0.60929 0.04507 0.0
C604 C 0.01064 0.62449 0.14298 0.0
C605 C 1.00264 0.622 0.20511 0.0
C606 C 1.00392 0.54618 0.06276 0.0
C607 C 1.00252 0.58653 0.10456 0.0
C608 C 1.00511 0.52922 0.01003 0.0
C609 C 1.00395 0.53385 0.9459 0.0
C610 C 1.00208 0.56785 0.05096 0.0
C611 C 1.00123 0.55569 0.93654 0.0
C612 C 0.01047 0.60692 0.09272 0.0
C613 C 0.99474 0.60136 0.21522 0.0
N614 N 1.00066 0.57186 0.98839 0.0
N615 N 0.99503 0.58429 0.16544 0.0
H616 H 0.96042 0.19251 0.40431 0.0
H617 H 0.98929 0.11415 0.66552 0.0
H618 H 0.01912 0.1998 0.53126 0.0
H619 H 0.93587 0.10112 0.52161 0.0
H620 H 0.9954 0.14966 0.63163 0.0
H621 H 0.94626 0.16347 0.46184 0.0
C622 C 0.97004 0.18834 0.4453 0.0
C623 C 0.9911 0.19835 0.46267 0.0
C624 C 0.98216 0.13915 0.60787 0.0
C625 C 0.97524 0.16501 0.52786 0.0
C626 C 0.97853 0.1189 0.62752 0.0
C627 C 0.96212 0.10453 0.59604 0.0
C628 C 0.9694 0.14513 0.55608 0.0
C629 C 0.94898 0.11151 0.54643 0.0
C630 C 0.96206 0.17165 0.47774 0.0
C631 C 1.00299 0.19222 0.51573 0.0
N632 N 0.95304 0.13126 0.52758 0.0
N633 N 0.99501 0.17579 0.54602 0.0
H634 H 0.34225 0.07204 0.51454 0.0
H635 H 0.38324 0.95691 0.60287 0.0
H636 H 0.2978 0.01712 0.52731 0.0
H637 H 0.42934 0.008 0.56588 0.0
H638 H 0.35105 0.98166 0.59586 0.0
H639 H 0.37359 0.05189 0.55633 0.0
C640 C 0.33888 0.05601 0.52717 0.0
C641 C 0.31733 0.0462 0.51567 0.0
C642 C 0.36822 0.98748 0.58943 0.0
C643 C 0.35308 0.02314 0.56366 0.0
C644 C 0.38657 0.97333 0.59327 0.0
C645 C 0.40893 0.98026 0.58363 0.0
C646 C 0.37227 0.00872 0.5759 0.0
C647 C 0.4123 0.00177 0.57169 0.0
C648 C 0.3568 0.04452 0.55104 0.0
C649 C 0.31392 0.0256 0.53504 0.0
N650 N 0.39415 0.01521 0.56777 0.0
N651 N 0.33167 0.01467 0.55699 0.0
H652 H 0.55574 0.33608 0.48151 0.0
H653 H 0.5173 0.41925 0.78387 0.0
H654 H 0.54128 0.31555 0.66731 0.0
H655 H 0.56058 0.43913 0.63501 0.0
H656 H 0.52509 0.38114 0.74066 0.0
H657 H 0.55775 0.37371 0.53526 0.0
C658 C 0.55349 0.3393 0.5338 0.0
C659 C 0.54809 0.32241 0.56964 0.0
C660 C 0.53311 0.39383 0.7179 0.0
C661 C 0.54964 0.36582 0.63102 0.0
C662 C 0.52857 0.4156 0.74229 0.0
C663 C 0.53819 0.43239 0.71269 0.0
C664 C 0.54697 0.38875 0.66256 0.0
C665 C 0.55279 0.42668 0.6592 0.0
C666 C 0.55449 0.36091 0.56435 0.0
C667 C 0.54489 0.32796 0.63719 0.0
N668 N 0.55647 0.40529 0.63514 0.0
N669 N 0.54534 0.34921 0.66548 0.0
H670 H 0.23462 0.58041 0.56625 0.0
H671 H 0.1038 0.60877 0.59378 0.0
H672 H 0.19629 0.61077 0.42672 0.0
H673 H 0.14074 0.57545 0.72995 0.0
H674 H 0.13996 0.62054 0.55302 0.0
H675 H 0.20395 0.58974 0.64578 0.0
C676 C 0.22015 0.58984 0.55333 0.0
C677 C 0.21764 0.59446 0.48968 0.0
C678 C 0.1402 0.611 0.59269 0.0
C679 C 0.18233 0.6046 0.57922 0.0
C680 C 0.11948 0.60434 0.61633 0.0
C681 C 0.11921 0.59055 0.6642 0.0
C682 C 0.16082 0.60355 0.61629 0.0
C683 C 0.14016 0.58541 0.69134 0.0
C684 C 0.20253 0.59498 0.59847 0.0
C685 C 0.19858 0.6066 0.47513 0.0
N686 N 0.16014 0.59151 0.66606 0.0
N687 N 0.18138 0.61082 0.51908 0.0
H688 H 0.97669 0.80938 0.09057 0.0
H689 H 0.07796 0.89364 0.05836 0.0
H690 H 0.04535 0.80122 0.15921 0.0
H691 H 0.01139 0.89768 0.97112 0.0
H692 H 0.06666 0.85924 0.09366 0.0
H693 H 0.98936 0.84131 0.04378 0.0
C694 C 0.99446 0.81422 0.09529 0.0
C695 C 1.00997 0.80267 0.12885 0.0
C696 C 0.05455 0.86765 0.06669 0.0
C697 C 0.02459 0.83921 0.07598 0.0
C698 C 0.06101 0.88726 0.04646 0.0
C699 C 0.04552 0.89868 0.01236 0.0
C700 C 0.03244 0.85942 0.05275 0.0
C701 C 0.02372 0.88971 0.9986 0.0
C702 C 1.00171 0.83241 0.06854 0.0
C703 C 0.03287 0.80951 0.1331 0.0
N704 N 0.01781 0.87067 0.01903 0.0
N705 N 0.03944 0.82744 0.10747 0.0
H706 H 0.73751 0.0687 0.0463 0.0
H707 H 0.61391 0.10834 0.07337 0.0
H708 H 0.7168 0.12051 0.19876 0.0
H709 H 0.64331 0.07852 0.89072 0.0
H710 H 0.65213 0.11838 0.11351 0.0
H711 H 0.70587 0.07757 0.98112 0.0
C712 C 0.72685 0.0824 0.06594 0.0
C713 C 0.72968 0.09331 0.12992 0.0
C714 C 0.65021 0.11013 0.06405 0.0
C715 C 0.69227 0.10284 0.05518 0.0
C716 C 0.62833 0.10439 0.04098 0.0
C717 C 0.62544 0.09198 0.97922 0.0
C718 C 0.66929 0.10306 0.02549 0.0
C719 C 0.64481 0.08737 0.93958 0.0
C720 C 0.70846 0.08735 0.02829 0.0
C721 C 0.71479 0.11082 0.1513 0.0
N722 N 0.66596 0.09246 0.96392 0.0
N723 N 0.6963 0.11459 0.11489 0.0
H724 H 0.52874 0.67819 0.9018 0.0
H725 H 0.50222 0.55533 0.95638 0.0
H726 H 0.53308 0.65474 0.08677 0.0
H727 H 0.514 0.5739 0.76673 0.0
H728 H 0.50542 0.59362 1.00471 0.0
H729 H 0.51579 0.64177 0.85149 0.0
C730 C 0.52673 0.66543 0.93177 0.0
C731 C 0.53229 0.66926 0.99814 0.0
C732 C 0.50707 0.58933 0.95242 0.0
C733 C 0.5174 0.62792 0.94165 0.0
C734 C 0.50515 0.56746 0.92473 0.0
C735 C 0.50816 0.56132 0.85749 0.0
C736 C 0.51201 0.60519 0.91264 0.0
C737 C 0.51182 0.57783 0.81893 0.0
C738 C 0.51942 0.6447 0.90318 0.0
C739 C 0.52937 0.65228 0.03512 0.0
N740 N 0.51386 0.599 0.84714 0.0
N741 N 0.52222 0.63235 0.00636 0.0
H742 H 0.81098 0.42081 0.9563 0.0
H743 H 0.9066 0.40475 0.78347 0.0
H744 H 0.82491 0.36176 0.03723 0.0
H745 H 0.92584 0.36369 0.92554 0.0
H746 H 0.86675 0.39818 0.80515 0.0
H747 H 0.84132 0.4118 0.87935 0.0
C748 C 0.81982 0.40545 0.95659 0.0
C749 C 0.81541 0.39226 1.00467 0.0
C750 C 0.87962 0.39066 0.83195 0.0
C751 C 0.85114 0.3818 0.91554 0.0
C752 C 0.90257 0.39401 0.81848 0.0
C753 C 0.9198 0.38558 0.85489 0.0
C754 C 0.87386 0.37942 0.88365 0.0
C755 C 0.91319 0.3715 0.8987 0.0
C756 C 0.83742 0.40024 0.91193 0.0
C757 C 0.82808 0.37283 1.00257 0.0
N758 N 0.89074 0.36937 0.91325 0.0
N759 N 0.84573 0.36848 0.95989 0.0
H760 H 0.0907 0.15938 0.96999 0.0
H761 H 0.9979 0.07206 0.81366 0.0
H762 H 0.01893 0.17382 0.95212 0.0
H763 H 0.06753 0.05523 0.85466 0.0
H764 H 1.00657 0.11037 0.85121 0.0
H765 H 0.0838 0.12232 0.91414 0.0
C766 C 0.07354 0.15488 0.95377 0.0
C767 C 0.05535 0.1698 0.96643 0.0
C768 C 0.01999 0.09832 0.85184 0.0
C769 C 0.04735 0.12732 0.90227 0.0
C770 C 0.01504 0.07638 0.83041 0.0
C771 C 0.03195 0.06028 0.83148 0.0
C772 C 0.04202 0.10432 0.8746 0.0
C773 C 0.05389 0.067 0.85337 0.0
C774 C 0.06962 0.13369 0.92184 0.0
C775 C 0.03356 0.16306 0.9431 0.0
N776 N 0.05826 0.08848 0.87431 0.0
N777 N 0.03015 0.14231 0.91276 0.0
H778 H 0.33361 0.97955 0.95001 0.0
H779 H 0.46319 0.02187 0.95556 0.0
H780 H 0.35789 0.03684 0.07468 0.0
H781 H 0.43609 0.97801 0.79262 0.0
H782 H 0.42531 0.02445 0.00534 0.0
H783 H 0.37148 0.97566 0.89724 0.0
C784 C 0.34686 0.99128 0.96634 0.0
C785 C 0.34241 0.00868 0.01653 0.0
C786 C 0.42758 0.01426 0.95866 0.0
C787 C 0.38583 0.0042 0.95684 0.0
C788 C 0.4493 0.01272 0.93015 0.0
C789 C 0.45297 0.99973 0.86954 0.0
C790 C 0.4092 0.00255 0.92704 0.0
C791 C 0.43412 0.98831 0.83922 0.0
C792 C 0.36843 0.98911 0.93601 0.0
C793 C 0.36031 0.02338 0.03555 0.0
N794 N 0.4131 0.9899 0.86836 0.0
N795 N 0.38111 0.02076 0.00604 0.0
H796 H 0.51346 0.2905 0.11225 0.0
H797 H 0.43712 0.38258 0.98321 0.0
H798 H 0.43968 0.29036 0.11787 0.0
H799 H 0.51006 0.3872 0.01413 0.0
H800 H 0.43757 0.34688 0.02038 0.0
H801 H 0.51231 0.32327 0.06064 0.0
C802 C 0.49696 0.29706 0.10139 0.0
C803 C 0.47662 0.28757 0.11956 0.0
C804 C 0.45346 0.35571 0.01875 0.0
C805 C 0.47523 0.32566 0.06175 0.0
C806 C 0.45322 0.37619 0.99798 0.0
C807 C 0.47359 0.38805 0.99553 0.0
C808 C 0.47423 0.34695 0.03695 0.0
C809 C 0.49397 0.37863 0.01413 0.0
C810 C 0.49634 0.316 0.0726 0.0
C811 C 0.45579 0.29722 0.10537 0.0
N812 N 0.49375 0.35871 0.03403 0.0
N813 N 0.45563 0.31581 0.07763 0.0
H814 H 0.18052 0.47053 0.06887 0.0
H815 H 0.09847 0.51622 0.81354 0.0
H816 H 0.20527 0.50973 0.92812 0.0
H817 H 0.08066 0.46121 0.90881 0.0
H818 H 0.13701 0.51569 0.85944 0.0
H819 H 0.14355 0.46787 0.01407 0.0
C820 C 0.17845 0.4783 0.02589 0.0
C821 C 0.19633 0.49046 1.00363 0.0
C822 C 0.1247 0.50367 0.87001 0.0
C823 C 0.15337 0.48799 0.94155 0.0
C824 C 0.10263 0.50401 0.84403 0.0
C825 C 0.08619 0.48875 0.8573 0.0
C826 C 0.13038 0.48816 0.91046 0.0
C827 C 0.09271 0.47327 0.897 0.0
C828 C 0.15714 0.47692 0.99491 0.0
C829 C 0.19205 0.50054 0.94828 0.0
N830 N 0.11418 0.47349 0.9225 0.0
N831 N 0.17104 0.49926 0.91968 0.0
H832 H 0.97337 0.81469 0.68448 0.0
H833 H 1.00675 0.93204 0.60467 0.0
H834 H 0.0178 0.82361 0.52487 0.0
H835 H 0.99935 0.9208 0.80375 0.0
H836 H 1.00343 0.89262 0.56873 0.0
H837 H 0.97608 0.85415 0.72477 0.0
C838 C 0.98383 0.82493 0.65842 0.0
C839 C 0.99564 0.81593 0.6019 0.0
C840 C 1.00245 0.89885 0.62024 0.0
C841 C 0.99814 0.86079 0.646 0.0
C842 C 1.00418 0.92131 0.64071 0.0
C843 C 1.00338 0.92967 0.70724 0.0
C844 C 0.9994 0.8847 0.66649 0.0
C845 C 1.00018 0.91499 0.75197 0.0
C846 C 0.98534 0.84734 0.68124 0.0
C847 C 1.00875 0.82987 0.56928 0.0
N848 N 0.99817 0.89319 0.73078 0.0
N849 N 1.00946 0.85163 0.59138 0.0
H850 H 0.7009 0.01556 0.6247 0.0
H851 H 0.57684 0.96134 0.63328 0.0
H852 H 0.67359 0.97179 0.46172 0.0
H853 H 0.59668 0.02027 0.75845 0.0
H854 H 0.61411 0.96088 0.57855 0.0
H855 H 0.66493 0.01325 0.68266 0.0
C856 C 0.68741 0.00545 0.60079 0.0
C857 C 0.69044 0.99413 0.5373 0.0
C858 C 0.61031 0.97385 0.61815 0.0
C859 C 0.64897 0.99107 0.60493 0.0
C860 C 0.58905 0.97409 0.64968 0.0
C861 C 0.58348 0.99091 0.70061 0.0
C862 C 0.62634 0.99035 0.63823 0.0
C863 C 0.60007 0.00703 0.7193 0.0
C864 C 0.66683 0.00409 0.63429 0.0
C865 C 0.67232 0.98075 0.51047 0.0
N866 N 0.62067 0.00631 0.68836 0.0
N867 N 0.65241 0.97966 0.54422 0.0
H868 H 0.55197 0.72056 0.54031 0.0
H869 H 0.59915 0.59819 0.50715 0.0
H870 H 0.60578 0.69475 0.40834 0.0
H871 H 0.55179 0.62525 0.65763 0.0
H872 H 0.60265 0.63407 0.47364 0.0
H873 H 0.55252 0.68657 0.58753 0.0
C874 C 0.56409 0.70789 0.52181 0.0
C875 C 0.57884 0.71059 0.47018 0.0
C876 C 0.59158 0.63223 0.51427 0.0
C877 C 0.57943 0.67156 0.52361 0.0
C878 C 0.58966 0.6117 0.53375 0.0
C879 C 0.57513 0.60855 0.58542 0.0
C880 C 0.57878 0.64987 0.5462 0.0
C881 C 0.56293 0.62674 0.6169 0.0
C882 C 0.56441 0.68849 0.54881 0.0
C883 C 0.59429 0.69363 0.44857 0.0
N884 N 0.56494 0.64656 0.59661 0.0
N885 N 0.59402 0.67483 0.4749 0.0
H886 H 0.86354 0.50492 0.46979 0.0
H887 H 0.93848 0.46572 0.7558 0.0
H888 H 0.83919 0.45882 0.59059 0.0
H889 H 0.96242 0.51056 0.63029 0.0
H890 H 0.9014 0.4642 0.70012 0.0
H891 H 0.89887 0.50883 0.53307 0.0
C892 C 0.86542 0.49583 0.51016 0.0
C893 C 0.84821 0.48145 0.52444 0.0
C894 C 0.91476 0.47443 0.68496 0.0
C895 C 0.88913 0.48559 0.59691 0.0
C896 C 0.93598 0.47532 0.71683 0.0
C897 C 0.95377 0.48827 0.69787 0.0
C898 C 0.9112 0.48658 0.6337 0.0
C899 C 0.94937 0.50028 0.64674 0.0
C900 C 0.88577 0.49793 0.54604 0.0
C901 C 0.85202 0.46986 0.57692 0.0
N902 N 0.92865 0.49911 0.6166 0.0
N903 N 0.87202 0.47211 0.61093 0.0
loop_
_geom_bond_atom_site_label_1
_geom_bond_atom_site_label_2
_geom_bond_distance
_geom_bond_site_symmetry_2
_ccdc_geom_bond_type
C0 C1 1.386 . S
C0 C2 1.397 . S
C0 H24 0.931 . S
C1 C0 1.386 . S
C1 C5 1.397 . S
C2 C0 1.397 . S
C2 C3 1.384 . S
C2 H25 0.930 . S
C3 C2 1.384 . S
C3 C4 1.377 . S
C3 C6 1.481 . S
C4 C3 1.377 . S
C4 C5 1.389 . S
C4 H26 0.929 . S
C5 C1 1.397 . S
C5 C4 1.389 . S
C5 H27 0.931 . S
C6 C3 1.481 . S
C6 C7 1.387 . S
C6 C11 1.390 . S
C7 C6 1.387 . S
C7 C8 1.401 . S
C7 H28 0.930 . S
C8 C7 1.401 . S
C8 C9 1.376 . S
C8 C17 1.511 . S
C9 C8 1.376 . S
C9 C10 1.392 . S
C9 H30 0.931 . S
C10 C9 1.392 . S
C10 C11 1.361 . S
C10 C12 1.500 . S
C11 C6 1.390 . S
C11 C10 1.361 . S
C11 H29 0.931 . S
C12 C10 1.500 . S
C12 C13 1.371 . S
C12 C14 1.365 . S
C13 C12 1.371 . S
C13 C23 1.386 . S
C13 H31 0.931 . S
C14 C12 1.365 . S
C14 C15 1.409 . S
C14 H32 0.929 . S
C15 C14 1.409 . S
C15 C16 1.380 . S
C15 H33 0.930 . S
C16 C15 1.380 . S
C16 C23 1.357 . S
C17 C8 1.511 . S
C17 C18 1.341 . S
C17 C19 1.371 . S
C18 C17 1.341 . S
C18 C22 1.394 . S
C18 H34 0.930 . S
C19 C17 1.371 . S
C19 C20 1.392 . S
C19 H35 0.931 . S
C20 C19 1.392 . S
C20 C21 1.331 . S
C20 H38 0.932 . S
C21 C20 1.331 . S
C21 C22 1.336 . S
C22 C18 1.394 . S
C22 C21 1.336 . S
C22 H37 0.929 . S
C23 C13 1.386 . S
C23 C16 1.357 . S
C23 H36 0.928 . S
H24 C0 0.931 . S
H25 C2 0.930 . S
H26 C4 0.929 . S
H27 C5 0.931 . S
H28 C7 0.930 . S
H29 C11 0.931 . S
H30 C9 0.931 . S
H31 C13 0.931 . S
H32 C14 0.929 . S
H33 C15 0.930 . S
H34 C18 0.930 . S
H35 C19 0.931 . S
H36 C23 0.928 . S
H37 C22 0.929 . S
H38 C20 0.932 . S
C39 C40 1.386 . S
C39 C41 1.397 . S
C39 H63 0.931 . S
C40 C39 1.386 . S
C40 C44 1.397 . S
C41 C39 1.397 . S
C41 C42 1.384 . S
C41 H64 0.930 . S
C42 C41 1.384 . S
C42 C43 1.377 . S
C42 C45 1.481 . S
C43 C42 1.377 . S
C43 C44 1.389 . S
C43 H65 0.929 1_655 S
C44 C40 1.397 . S
C44 C43 1.389 . S
C44 H66 0.931 1_655 S
C45 C42 1.481 . S
C45 C46 1.387 . S
C45 C50 1.390 . S
C46 C45 1.387 . S
C46 C47 1.401 . S
C46 H67 0.930 . S
C47 C46 1.401 . S
C47 C48 1.376 . S
C47 C56 1.511 . S
C48 C47 1.376 . S
C48 C49 1.392 . S
C48 H69 0.931 . S
C49 C48 1.392 . S
C49 C50 1.361 . S
C49 C51 1.500 . S
C50 C45 1.390 . S
C50 C49 1.361 . S
C50 H68 0.931 . S
C51 C49 1.500 . S
C51 C52 1.371 . S
C51 C53 1.365 . S
C52 C51 1.371 . S
C52 C62 1.386 . S
C52 H70 0.931 . S
C53 C51 1.365 . S
C53 C54 1.409 . S
C53 H71 0.936 . S
C54 C53 1.409 . S
C54 C55 1.380 . S
C54 H72 0.930 . S
C55 C54 1.380 . S
C55 C62 1.357 . S
C56 C47 1.511 . S
C56 C57 1.341 . S
C56 C58 1.371 . S
C57 C56 1.341 . S
C57 C61 1.394 . S
C57 H73 0.930 . S
C58 C56 1.371 . S
C58 C59 1.392 . S
C58 H74 0.931 . S
C59 C58 1.392 . S
C59 C60 1.331 . S
C59 H77 0.932 . S
C60 C59 1.331 . S
C60 C61 1.336 . S
C61 C57 1.394 . S
C61 C60 1.336 . S
C61 H76 0.929 . S
C62 C52 1.386 . S
C62 C55 1.357 . S
C62 H75 0.928 . S
H63 C39 0.931 . S
H64 C41 0.930 . S
H65 C43 0.929 1_455 S
H66 C44 0.931 1_455 S
H67 C46 0.930 . S
H68 C50 0.931 . S
H69 C48 0.931 . S
H70 C52 0.931 . S
H71 C53 0.936 . S
H72 C54 0.930 . S
H73 C57 0.930 . S
H74 C58 0.931 . S
H75 C62 0.928 . S
H76 C61 0.929 . S
H77 C59 0.932 . S
C78 C79 1.394 . S
C78 C80 1.397 . S
C78 H102 0.931 . S
C79 C78 1.394 . S
C79 C83 1.390 1_565 S
C80 C78 1.397 . S
C80 C81 1.388 . S
C80 H103 0.930 . S
C81 C80 1.388 . S
C81 C82 1.373 1_565 S
C81 C84 1.478 . S
C82 C81 1.373 1_545 S
C82 C83 1.389 . S
C82 H104 0.929 . S
C83 C79 1.390 1_545 S
C83 C82 1.389 . S
C83 H105 0.931 . S
C84 C81 1.478 . S
C84 C85 1.387 . S
C84 C89 1.393 . S
C85 C84 1.387 . S
C85 C86 1.399 . S
C85 H106 0.930 . S
C86 C85 1.399 . S
C86 C87 1.374 . S
C86 C95 1.511 . S
C87 C86 1.374 . S
C87 C88 1.393 . S
C87 H108 0.939 . S
C88 C87 1.393 . S
C88 C89 1.362 . S
C88 C90 1.503 1_565 S
C89 C84 1.393 . S
C89 C88 1.362 . S
C89 H107 0.931 . S
C90 C88 1.503 1_545 S
C90 C91 1.360 1_545 S
C90 C92 1.373 . S
C91 C90 1.360 1_565 S
C91 C101 1.386 . S
C91 H109 0.931 . S
C92 C90 1.373 . S
C92 C93 1.409 . S
C92 H110 0.929 . S
C93 C92 1.409 . S
C93 C94 1.378 . S
C93 H111 0.930 . S
C94 C93 1.378 . S
C94 C101 1.358 1_545 S
C95 C86 1.511 . S
C95 C96 1.341 . S
C95 C97 1.371 1_565 S
C96 C95 1.341 . S
C96 C100 1.394 . S
C96 H112 0.930 . S
C97 C95 1.371 1_545 S
C97 C98 1.392 . S
C97 H113 0.931 . S
C98 C97 1.392 . S
C98 C99 1.326 1_545 S
C98 H116 0.932 . S
C99 C98 1.326 1_565 S
C99 C100 1.342 . S
C100 C96 1.394 . S
C100 C99 1.342 . S
C100 H115 0.929 . S
C101 C91 1.386 . S
C101 C94 1.358 1_565 S
C101 H114 0.928 . S
H102 C78 0.931 . S
H103 C80 0.930 . S
H104 C82 0.929 . S
H105 C83 0.931 . S
H106 C85 0.930 . S
H107 C89 0.931 . S
H108 C87 0.939 . S
H109 C91 0.931 . S
H110 C92 0.929 . S
H111 C93 0.930 . S
H112 C96 0.930 . S
H113 C97 0.931 . S
H114 C101 0.928 . S
H115 C100 0.929 . S
H116 C98 0.932 . S
C117 C118 1.386 . S
C117 C119 1.397 . S
C117 H141 0.931 . S
C118 C117 1.386 . S
C118 C122 1.397 . S
C119 C117 1.397 . S
C119 C120 1.384 . S
C119 H142 0.930 . S
C120 C119 1.384 . S
C120 C121 1.377 . S
C120 C123 1.481 . S
C121 C120 1.377 . S
C121 C122 1.389 . S
C121 H143 0.929 . S
C122 C118 1.397 . S
C122 C121 1.389 . S
C122 H144 0.931 . S
C123 C120 1.481 . S
C123 C124 1.387 . S
C123 C128 1.390 . S
C124 C123 1.387 . S
C124 C125 1.401 1_554 S
C124 H145 0.930 . S
C125 C124 1.401 1_556 S
C125 C126 1.376 . S
C125 C134 1.511 . S
C126 C125 1.376 . S
C126 C127 1.392 . S
C126 H147 0.931 . S
C127 C126 1.392 . S
C127 C128 1.361 1_556 S
C127 C129 1.500 . S
C128 C123 1.390 . S
C128 C127 1.361 1_554 S
C128 H146 0.931 . S
C129 C127 1.500 . S
C129 C130 1.371 . S
C129 C131 1.365 . S
C130 C129 1.371 . S
C130 C140 1.386 . S
C130 H148 0.931 . S
C131 C129 1.365 . S
C131 C132 1.409 . S
C131 H149 0.929 . S
C132 C131 1.409 . S
C132 C133 1.380 . S
C132 H150 0.930 . S
C133 C132 1.380 . S
C133 C140 1.357 . S
C134 C125 1.511 . S
C134 C135 1.341 1_556 S
C134 C136 1.371 . S
C135 C134 1.341 1_554 S
C135 C139 1.394 . S
C135 H151 0.930 . S
C136 C134 1.371 . S
C136 C137 1.392 . S
C136 H152 0.931 . S
C137 C136 1.392 . S
C137 C138 1.331 . S
C137 H155 0.932 . S
C138 C137 1.331 . S
C138 C139 1.336 1_556 S
C139 C135 1.394 . S
C139 C138 1.336 1_554 S
C139 H154 0.929 . S
C140 C130 1.386 . S
C140 C133 1.357 . S
C140 H153 0.928 . S
H141 C117 0.931 . S
H142 C119 0.930 . S
H143 C121 0.929 . S
H144 C122 0.931 . S
H145 C124 0.930 . S
H146 C128 0.931 . S
H147 C126 0.931 . S
H148 C130 0.931 . S
H149 C131 0.929 . S
H150 C132 0.930 . S
H151 C135 0.930 . S
H152 C136 0.931 . S
H153 C140 0.928 . S
H154 C139 0.929 . S
H155 C137 0.932 . S
C156 C157 1.386 . S
C156 C158 1.397 . S
C156 H180 0.931 . S
C157 C156 1.386 . S
C157 C161 1.397 . S
C158 C156 1.397 . S
C158 C159 1.384 . S
C158 H181 0.930 . S
C159 C158 1.384 . S
C159 C160 1.377 . S
C159 C162 1.481 . S
C160 C159 1.377 . S
C160 C161 1.389 . S
C160 H182 0.929 . S
C161 C157 1.397 . S
C161 C160 1.389 . S
C161 H183 0.931 . S
C162 C159 1.481 . S
C162 C163 1.387 . S
C162 C167 1.390 . S
C163 C162 1.387 . S
C163 C164 1.401 . S
C163 H184 0.930 . S
C164 C163 1.401 . S
C164 C165 1.376 . S
C164 C173 1.511 . S
C165 C164 1.376 . S
C165 C166 1.392 . S
C165 H186 0.931 . S
C166 C165 1.392 . S
C166 C167 1.361 . S
C166 C168 1.500 . S
C167 C162 1.390 . S
C167 C166 1.361 . S
C167 H185 0.931 . S
C168 C166 1.500 . S
C168 C169 1.371 1_554 S
C168 C170 1.365 . S
C169 C168 1.371 1_556 S
C169 C179 1.386 . S
C169 H187 0.931 1_556 S
C170 C168 1.365 . S
C170 C171 1.409 1_554 S
C170 H188 0.929 . S
C171 C170 1.409 1_556 S
C171 C172 1.380 . S
C171 H189 0.930 . S
C172 C171 1.380 . S
C172 C179 1.357 . S
C173 C164 1.511 . S
C173 C174 1.341 . S
C173 C175 1.371 . S
C174 C173 1.341 . S
C174 C178 1.394 . S
C174 H190 0.930 . S
C175 C173 1.371 . S
C175 C176 1.392 . S
C175 H191 0.931 . S
C176 C175 1.392 . S
C176 C177 1.331 . S
C176 H194 0.932 . S
C177 C176 1.331 . S
C177 C178 1.336 . S
C178 C174 1.394 . S
C178 C177 1.336 . S
C178 H193 0.929 . S
C179 C169 1.386 . S
C179 C172 1.357 . S
C179 H192 0.928 . S
H180 C156 0.931 . S
H181 C158 0.930 . S
H182 C160 0.929 . S
H183 C161 0.931 . S
H184 C163 0.930 . S
H185 C167 0.931 . S
H186 C165 0.931 . S
H187 C169 0.931 1_554 S
H188 C170 0.929 . S
H189 C171 0.930 . S
H190 C174 0.930 . S
H191 C175 0.931 . S
H192 C179 0.928 . S
H193 C178 0.929 . S
H194 C176 0.932 . S
C195 C196 1.386 . S
C195 C197 1.397 . S
C195 H219 0.931 . S
C196 C195 1.386 . S
C196 C200 1.397 . S
C197 C195 1.397 . S
C197 C198 1.384 . S
C197 H220 0.930 . S
C198 C197 1.384 . S
C198 C199 1.377 . S
C198 C201 1.481 . S
C199 C198 1.377 . S
C199 C200 1.389 . S
C199 H221 0.929 . S
C200 C196 1.397 . S
C200 C199 1.389 . S
C200 H222 0.931 . S
C201 C198 1.481 . S
C201 C202 1.387 . S
C201 C206 1.390 . S
C202 C201 1.387 . S
C202 C203 1.401 . S
C202 H223 0.930 . S
C203 C202 1.401 . S
C203 C204 1.376 . S
C203 C212 1.511 . S
C204 C203 1.376 . S
C204 C205 1.392 . S
C204 H225 0.931 . S
C205 C204 1.392 . S
C205 C206 1.361 . S
C205 C207 1.500 . S
C206 C201 1.390 . S
C206 C205 1.361 . S
C206 H224 0.931 . S
C207 C205 1.500 . S
C207 C208 1.371 . S
C207 C209 1.365 . S
C208 C207 1.371 . S
C208 C218 1.386 1_554 S
C208 H226 0.931 . S
C209 C207 1.365 . S
C209 C210 1.409 1_554 S
C209 H227 0.929 . S
C210 C209 1.409 1_556 S
C210 C211 1.380 . S
C210 H228 0.930 . S
C211 C210 1.380 . S
C211 C218 1.357 . S
C212 C203 1.511 . S
C212 C213 1.341 . S
C212 C214 1.371 . S
C213 C212 1.341 . S
C213 C217 1.394 . S
C213 H229 0.930 . S
C214 C212 1.371 . S
C214 C215 1.392 . S
C214 H230 0.931 . S
C215 C214 1.392 . S
C215 C216 1.331 . S
C215 H233 0.932 . S
C216 C215 1.331 . S
C216 C217 1.336 . S
C217 C213 1.394 . S
C217 C216 1.336 . S
C217 H232 0.929 . S
C218 C208 1.386 1_556 S
C218 C211 1.357 . S
C218 H231 0.928 . S
H219 C195 0.931 . S
H220 C197 0.930 . S
H221 C199 0.929 . S
H222 C200 0.931 . S
H223 C202 0.930 . S
H224 C206 0.931 . S
H225 C204 0.931 . S
H226 C208 0.931 . S
H227 C209 0.929 . S
H228 C210 0.930 . S
H229 C213 0.930 . S
H230 C214 0.931 . S
H231 C218 0.928 . S
H232 C217 0.929 . S
H233 C215 0.932 . S
C234 C235 1.387 . S
C234 C236 1.397 . S
C234 H258 0.931 . S
C235 C234 1.387 . S
C235 C239 1.396 1_565 S
C236 C234 1.397 . S
C236 C237 1.381 . S
C236 H259 0.930 . S
C237 C236 1.381 . S
C237 C238 1.380 1_565 S
C237 C240 1.483 . S
C238 C237 1.380 1_545 S
C238 C239 1.389 . S
C238 H260 0.929 . S
C239 C235 1.396 1_545 S
C239 C238 1.389 . S
C239 H261 0.931 . S
C240 C237 1.483 . S
C240 C241 1.389 . S
C240 C245 1.387 . S
C241 C240 1.389 . S
C241 C242 1.404 . S
C241 H262 0.930 . S
C242 C241 1.404 . S
C242 C243 1.378 . S
C242 C251 1.513 . S
C243 C242 1.378 . S
C243 C244 1.390 1_565 S
C243 H264 0.929 . S
C244 C243 1.390 1_545 S
C244 C245 1.361 1_545 S
C244 C246 1.494 . S
C245 C240 1.387 . S
C245 C244 1.361 1_565 S
C245 H263 0.931 . S
C246 C244 1.494 . S
C246 C247 1.361 1_544 S
C246 C248 1.382 . S
C247 C246 1.361 1_566 S
C247 C257 1.386 . S
C247 H265 0.931 1_556 S
C248 C246 1.382 . S
C248 C249 1.409 1_554 S
C248 H266 0.929 . S
C249 C248 1.409 1_556 S
C249 C250 1.383 . S
C249 H267 0.930 . S
C250 C249 1.383 . S
C250 C257 1.353 1_545 S
C251 C242 1.513 . S
C251 C252 1.341 . S
C251 C253 1.371 1_565 S
C252 C251 1.341 . S
C252 C256 1.394 . S
C252 H268 0.930 . S
C253 C251 1.371 1_545 S
C253 C254 1.392 . S
C253 H269 0.931 . S
C254 C253 1.392 . S
C254 C255 1.323 1_545 S
C254 H272 0.932 . S
C255 C254 1.323 1_565 S
C255 C256 1.343 . S
C256 C252 1.394 . S
C256 C255 1.343 . S
C256 H271 0.929 . S
C257 C247 1.386 . S
C257 C250 1.353 1_565 S
C257 H270 0.928 . S
H258 C234 0.931 . S
H259 C236 0.930 . S
H260 C238 0.929 . S
H261 C239 0.931 . S
H262 C241 0.930 . S
H263 C245 0.931 . S
H264 C243 0.929 . S
H265 C247 0.931 1_554 S
H266 C248 0.929 . S
H267 C249 0.930 . S
H268 C252 0.930 . S
H269 C253 0.931 . S
H270 C257 0.928 . S
H271 C256 0.929 . S
H272 C254 0.932 . S
C273 C274 1.386 . S
C273 C275 1.397 . S
C273 H297 0.931 . S
C274 C273 1.386 . S
C274 C278 1.397 . S
C275 C273 1.397 . S
C275 C276 1.384 . S
C275 H298 0.930 . S
C276 C275 1.384 . S
C276 C277 1.377 . S
C276 C279 1.481 . S
C277 C276 1.377 . S
C277 C278 1.389 . S
C277 H299 0.929 . S
C278 C274 1.397 . S
C278 C277 1.389 . S
C278 H300 0.931 . S
C279 C276 1.481 . S
C279 C280 1.387 . S
C279 C284 1.390 . S
C280 C279 1.387 . S
C280 C281 1.401 . S
C280 H301 0.930 . S
C281 C280 1.401 . S
C281 C282 1.376 . S
C281 C290 1.511 . S
C282 C281 1.376 . S
C282 C283 1.392 . S
C282 H303 0.931 . S
C283 C282 1.392 . S
C283 C284 1.361 . S
C283 C285 1.500 . S
C284 C279 1.390 . S
C284 C283 1.361 . S
C284 H302 0.931 . S
C285 C283 1.500 . S
C285 C286 1.371 . S
C285 C287 1.365 . S
C286 C285 1.371 . S
C286 C296 1.386 . S
C286 H304 0.931 . S
C287 C285 1.365 . S
C287 C288 1.409 . S
C287 H305 0.929 . S
C288 C287 1.409 . S
C288 C289 1.380 . S
C288 H306 0.930 . S
C289 C288 1.380 . S
C289 C296 1.357 . S
C290 C281 1.511 . S
C290 C291 1.341 . S
C290 C292 1.371 . S
C291 C290 1.341 . S
C291 C295 1.394 . S
C291 H307 0.930 . S
C292 C290 1.371 . S
C292 C293 1.392 . S
C292 H308 0.931 . S
C293 C292 1.392 . S
C293 C294 1.331 . S
C293 H311 0.932 . S
C294 C293 1.331 . S
C294 C295 1.336 . S
C295 C291 1.394 . S
C295 C294 1.336 . S
C295 H310 0.929 . S
C296 C286 1.386 . S
C296 C289 1.357 . S
C296 H309 0.928 . S
H297 C273 0.931 . S
H298 C275 0.930 . S
H299 C277 0.929 . S
H300 C278 0.931 . S
H301 C280 0.930 . S
H302 C284 0.931 . S
H303 C282 0.931 . S
H304 C286 0.931 . S
H305 C287 0.929 . S
H306 C288 0.930 . S
H307 C291 0.930 . S
H308 C292 0.931 . S
H309 C296 0.928 . S
H310 C295 0.929 . S
H311 C293 0.932 . S
Tb312 C321 2.764 . S
Tb312 O322 2.325 1_655 S
Tb312 O325 2.303 1_655 S
Tb312 O329 2.322 1_545 S
Tb312 O330 2.349 . S
Tb312 O333 2.415 1_655 S
Tb312 O334 2.399 . S
Tb313 O323 2.322 1_565 S
Tb313 O324 2.349 . S
Tb313 O326 2.415 . S
Tb313 O327 2.399 . S
Tb313 O328 2.325 . S
Tb313 O331 2.303 1_455 S
Tb313 C342 2.764 . S
C314 O330 1.261 . S
C314 O331 1.257 1_545 S
C315 C318 1.358 . S
C315 C319 1.332 1_655 S
C315 C321 1.504 . S
C316 C317 1.373 . S
C316 C320 1.308 1_655 S
C317 C316 1.373 . S
C317 C318 1.429 . S
C317 H344 0.932 . S
C318 C315 1.358 . S
C318 C317 1.429 . S
C318 H345 0.930 . S
C319 C315 1.332 1_455 S
C319 C320 1.394 . S
C319 H346 0.932 . S
C320 C316 1.308 1_455 S
C320 C319 1.394 . S
C320 H347 0.929 . S
C321 Tb312 2.764 . S
C321 C315 1.504 . S
C321 O333 1.239 1_655 S
C321 O334 1.263 . S
O322 Tb312 2.325 1_455 S
O322 C332 1.236 . S
O323 Tb313 2.322 1_545 S
O323 C332 1.257 . S
O324 Tb313 2.349 . S
O324 C335 1.261 . S
O325 Tb312 2.303 1_455 S
O325 C335 1.257 1_545 S
O326 Tb313 2.415 . S
O326 C342 1.239 . S
O327 Tb313 2.399 . S
O327 C342 1.263 . S
O328 Tb313 2.325 . S
O328 C343 1.236 1_455 S
O329 Tb312 2.322 1_565 S
O329 C343 1.257 . S
O330 Tb312 2.349 . S
O330 C314 1.261 . S
O331 Tb313 2.303 1_655 S
O331 C314 1.257 1_565 S
C332 O322 1.236 . S
C332 O323 1.257 . S
O333 Tb312 2.415 1_455 S
O333 C321 1.239 1_455 S
O334 Tb312 2.399 . S
O334 C321 1.263 . S
C335 O324 1.261 . S
C335 O325 1.257 1_565 S
C336 C339 1.358 . S
C336 C340 1.332 . S
C336 C342 1.504 . S
C337 C338 1.373 . S
C337 C341 1.308 . S
C338 C337 1.373 . S
C338 C339 1.429 . S
C338 H348 0.932 . S
C339 C336 1.358 . S
C339 C338 1.429 . S
C339 H349 0.930 . S
C340 C336 1.332 . S
C340 C341 1.394 . S
C340 H350 0.932 1_455 S
C341 C337 1.308 . S
C341 C340 1.394 . S
C341 H351 0.950 . S
C342 Tb313 2.764 . S
C342 O326 1.239 . S
C342 O327 1.263 . S
C342 C336 1.504 . S
C343 O328 1.236 1_655 S
C343 O329 1.257 . S
H344 C317 0.932 . S
H345 C318 0.930 . S
H346 C319 0.932 . S
H347 C320 0.929 . S
H348 C338 0.932 . S
H349 C339 0.930 . S
H350 C340 0.932 1_655 S
H351 C341 0.950 . S
Tb352 C361 2.764 . S
Tb352 O362 2.325 . S
Tb352 O365 2.303 1_565 S
Tb352 O369 2.322 . S
Tb352 O370 2.349 . S
Tb352 O373 2.415 1_565 S
Tb352 O374 2.399 . S
Tb353 O363 2.322 . S
Tb353 O364 2.349 . S
Tb353 O366 2.415 1_545 S
Tb353 O367 2.399 . S
Tb353 O368 2.325 . S
Tb353 O371 2.303 1_545 S
Tb353 C382 2.764 . S
C354 O370 1.261 . S
C354 O371 1.257 . S
C355 C358 1.358 . S
C355 C359 1.333 1_565 S
C355 C361 1.504 . S
C356 C357 1.373 . S
C356 C360 1.308 . S
C357 C356 1.373 . S
C357 C358 1.429 . S
C357 H384 0.932 . S
C358 C355 1.358 . S
C358 C357 1.429 . S
C358 H385 0.930 . S
C359 C355 1.333 1_545 S
C359 C360 1.394 1_545 S
C359 H386 0.931 . S
C360 C356 1.308 . S
C360 C359 1.394 1_565 S
C360 H387 0.929 1_565 S
C361 Tb352 2.764 . S
C361 C355 1.504 . S
C361 O373 1.239 1_565 S
C361 O374 1.263 . S
O362 Tb352 2.325 . S
O362 C372 1.236 1_565 S
O363 Tb353 2.322 . S
O363 C372 1.257 . S
O364 Tb353 2.349 . S
O364 C375 1.261 . S
O365 Tb352 2.303 1_545 S
O365 C375 1.257 . S
O366 Tb353 2.415 1_565 S
O366 C382 1.239 1_565 S
O367 Tb353 2.399 . S
O367 C382 1.263 . S
O368 Tb353 2.325 . S
O368 C383 1.236 1_545 S
O369 Tb352 2.322 . S
O369 C383 1.257 . S
O370 Tb352 2.349 . S
O370 C354 1.261 . S
O371 Tb353 2.303 1_565 S
O371 C354 1.257 . S
C372 O362 1.236 1_545 S
C372 O363 1.257 . S
O373 Tb352 2.415 1_545 S
O373 C361 1.239 1_545 S
O374 Tb352 2.399 . S
O374 C361 1.263 . S
C375 O364 1.261 . S
C375 O365 1.257 . S
C376 C379 1.358 . S
C376 C380 1.333 . S
C376 C382 1.504 . S
C377 C378 1.373 . S
C377 C381 1.308 1_554 S
C378 C377 1.373 . S
C378 C379 1.429 1_554 S
C378 H388 0.932 . S
C379 C376 1.358 . S
C379 C378 1.429 1_556 S
C379 H389 0.930 . S
C380 C376 1.333 . S
C380 C381 1.394 . S
C380 H390 0.931 1_545 S
C381 C377 1.308 1_556 S
C381 C380 1.394 . S
C381 H391 0.929 1_545 S
C382 Tb353 2.764 . S
C382 O366 1.239 1_545 S
C382 O367 1.263 . S
C382 C376 1.504 . S
C383 O368 1.236 1_565 S
C383 O369 1.257 . S
H384 C357 0.932 . S
H385 C358 0.930 . S
H386 C359 0.931 . S
H387 C360 0.929 1_545 S
H388 C378 0.932 . S
H389 C379 0.930 . S
H390 C380 0.931 1_565 S
H391 C381 0.929 1_565 S
Tb392 C401 2.764 . S
Tb392 O402 2.325 . S
Tb392 O405 2.303 . S
Tb392 O409 2.322 . S
Tb392 O410 2.349 . S
Tb392 O413 2.415 . S
Tb392 O414 2.399 . S
Tb393 O403 2.322 . S
Tb393 O404 2.349 . S
Tb393 O406 2.415 . S
Tb393 O407 2.399 . S
Tb393 O408 2.325 . S
Tb393 O411 2.303 . S
Tb393 C422 2.764 . S
C394 O410 1.261 . S
C394 O411 1.257 . S
C395 C398 1.358 . S
C395 C399 1.332 . S
C395 C401 1.504 . S
C396 C397 1.373 . S
C396 C400 1.308 . S
C397 C396 1.373 . S
C397 C398 1.429 1_554 S
C397 H424 0.932 . S
C398 C395 1.358 . S
C398 C397 1.429 1_556 S
C398 H425 0.930 . S
C399 C395 1.332 . S
C399 C400 1.394 1_556 S
C399 H426 0.932 . S
C400 C396 1.308 . S
C400 C399 1.394 1_554 S
C400 H427 0.929 . S
C401 Tb392 2.764 . S
C401 C395 1.504 . S
C401 O413 1.239 . S
C401 O414 1.263 . S
O402 Tb392 2.325 . S
O402 C412 1.236 . S
O403 Tb393 2.322 . S
O403 C412 1.257 . S
O404 Tb393 2.349 . S
O404 C415 1.261 . S
O405 Tb392 2.303 . S
O405 C415 1.257 . S
O406 Tb393 2.415 . S
O406 C422 1.239 . S
O407 Tb393 2.399 . S
O407 C422 1.263 . S
O408 Tb393 2.325 . S
O408 C423 1.236 . S
O409 Tb392 2.322 . S
O409 C423 1.257 . S
O410 Tb392 2.349 . S
O410 C394 1.261 . S
O411 Tb393 2.303 . S
O411 C394 1.257 . S
C412 O402 1.236 . S
C412 O403 1.257 . S
O413 Tb392 2.415 . S
O413 C401 1.239 . S
O414 Tb392 2.399 . S
O414 C401 1.263 . S
C415 O404 1.261 . S
C415 O405 1.257 . S
C416 C419 1.358 . S
C416 C420 1.332 . S
C416 C422 1.504 . S
C417 C418 1.373 . S
C417 C421 1.308 . S
C418 C417 1.373 . S
C418 C419 1.429 . S
C418 H428 0.932 . S
C419 C416 1.358 . S
C419 C418 1.429 . S
C419 H429 0.930 . S
C420 C416 1.332 . S
C420 C421 1.394 . S
C420 H430 0.932 . S
C421 C417 1.308 . S
C421 C420 1.394 . S
C421 H431 0.929 . S
C422 Tb393 2.764 . S
C422 O406 1.239 . S
C422 O407 1.263 . S
C422 C416 1.504 . S
C423 O408 1.236 . S
C423 O409 1.257 . S
H424 C397 0.932 . S
H425 C398 0.930 . S
H426 C399 0.932 . S
H427 C400 0.929 . S
H428 C418 0.932 . S
H429 C419 0.930 . S
H430 C420 0.932 . S
H431 C421 0.929 . S
Tb432 C441 2.764 . S
Tb432 O442 2.325 . S
Tb432 O445 2.303 . S
Tb432 O449 2.322 1_455 S
Tb432 O450 2.349 . S
Tb432 O453 2.415 . S
Tb432 O454 2.399 . S
Tb433 O443 2.322 1_655 S
Tb433 O444 2.349 1_655 S
Tb433 O446 2.415 . S
Tb433 O447 2.399 . S
Tb433 O448 2.325 . S
Tb433 O451 2.303 1_655 S
Tb433 C462 2.764 . S
C434 O450 1.261 . S
C434 O451 1.257 . S
C435 C438 1.358 . S
C435 C439 1.332 . S
C435 C441 1.504 . S
C436 C437 1.373 . S
C436 C440 1.308 . S
C437 C436 1.373 . S
C437 C438 1.429 . S
C437 H464 0.932 . S
C438 C435 1.358 . S
C438 C437 1.429 . S
C438 H465 0.930 . S
C439 C435 1.332 . S
C439 C440 1.394 . S
C439 H466 0.932 . S
C440 C436 1.308 . S
C440 C439 1.394 . S
C440 H467 0.929 . S
C441 Tb432 2.764 . S
C441 C435 1.504 . S
C441 O453 1.239 . S
C441 O454 1.263 . S
O442 Tb432 2.325 . S
O442 C452 1.236 . S
O443 Tb433 2.322 1_455 S
O443 C452 1.257 . S
O444 Tb433 2.349 1_455 S
O444 C455 1.261 . S
O445 Tb432 2.303 . S
O445 C455 1.257 . S
O446 Tb433 2.415 . S
O446 C462 1.239 . S
O447 Tb433 2.399 . S
O447 C462 1.263 . S
O448 Tb433 2.325 . S
O448 C463 1.236 . S
O449 Tb432 2.322 1_655 S
O449 C463 1.257 . S
O450 Tb432 2.349 . S
O450 C434 1.261 . S
O451 Tb433 2.303 1_455 S
O451 C434 1.257 . S
C452 O442 1.236 . S
C452 O443 1.257 . S
O453 Tb432 2.415 . S
O453 C441 1.239 . S
O454 Tb432 2.399 . S
O454 C441 1.263 . S
C455 O444 1.261 . S
C455 O445 1.257 . S
C456 C459 1.358 . S
C456 C460 1.332 . S
C456 C462 1.504 . S
C457 C458 1.372 1_554 S
C457 C461 1.306 1_554 S
C458 C457 1.372 1_556 S
C458 C459 1.429 . S
C458 H468 0.932 . S
C459 C456 1.358 . S
C459 C458 1.429 . S
C459 H469 0.930 . S
C460 C456 1.332 . S
C460 C461 1.394 . S
C460 H470 0.932 . S
C461 C457 1.306 1_556 S
C461 C460 1.394 . S
C461 H471 0.928 1_556 S
C462 Tb433 2.764 . S
C462 O446 1.239 . S
C462 O447 1.263 . S
C462 C456 1.504 . S
C463 O448 1.236 . S
C463 O449 1.257 . S
H464 C437 0.932 . S
H465 C438 0.930 . S
H466 C439 0.932 . S
H467 C440 0.929 . S
H468 C458 0.932 . S
H469 C459 0.930 . S
H470 C460 0.932 . S
H471 C461 0.928 1_554 S
H472 C478 0.930 . S
H473 C482 0.930 . S
H474 C487 0.929 . S
H475 C485 0.929 . S
H476 C480 0.929 . S
H477 C486 0.929 . S
C478 H472 0.930 . S
C478 C479 1.392 . S
C478 C486 1.378 . S
C479 C478 1.392 . S
C479 C487 1.404 1_545 S
C480 H476 0.929 . S
C480 C482 1.378 . S
C480 C484 1.367 . S
C481 C484 1.451 1_545 S
C481 C486 1.396 . S
C481 N489 1.388 1_545 S
C482 H473 0.930 . S
C482 C480 1.378 . S
C482 C483 1.367 . S
C483 C482 1.367 . S
C483 C485 1.433 1_565 S
C484 C480 1.367 . S
C484 C481 1.451 1_565 S
C484 N488 1.412 1_565 S
C485 H475 0.929 . S
C485 C483 1.433 1_545 S
C485 N488 1.384 . S
C486 H477 0.929 . S
C486 C478 1.378 . S
C486 C481 1.396 . S
C487 H474 0.929 . S
C487 C479 1.404 1_565 S
C487 N489 1.384 . S
N488 C484 1.412 1_545 S
N488 C485 1.384 . S
N489 C481 1.388 1_565 S
N489 C487 1.384 . S
H490 C496 0.930 . S
H491 C500 0.930 . S
H492 C505 0.929 . S
H493 C503 0.929 . S
H494 C498 0.929 . S
H495 C504 0.929 . S
C496 H490 0.930 . S
C496 C497 1.367 . S
C496 C504 1.378 . S
C497 C496 1.367 . S
C497 C505 1.433 . S
C498 H494 0.929 . S
C498 C500 1.378 . S
C498 C502 1.350 . S
C499 C502 1.463 . S
C499 C504 1.350 . S
C499 N507 1.427 . S
C500 H491 0.930 . S
C500 C498 1.378 . S
C500 C501 1.367 . S
C501 C500 1.367 . S
C501 C503 1.433 . S
C502 C498 1.350 . S
C502 C499 1.463 . S
C502 N506 1.427 . S
C503 H493 0.929 . S
C503 C501 1.433 . S
C503 N506 1.384 . S
C504 H495 0.929 . S
C504 C496 1.378 . S
C504 C499 1.350 . S
C505 H492 0.929 . S
C505 C497 1.433 . S
C505 N507 1.384 . S
N506 C502 1.427 . S
N506 C503 1.384 . S
N507 C499 1.427 . S
N507 C505 1.384 . S
H508 C514 0.930 . S
H509 C518 0.930 . S
H510 C523 0.929 . S
H511 C521 0.929 . S
H512 C516 0.929 . S
H513 C522 0.929 . S
C514 H508 0.930 . S
C514 C515 1.367 . S
C514 C522 1.378 . S
C515 C514 1.367 . S
C515 C523 1.433 . S
C516 H512 0.929 . S
C516 C518 1.378 . S
C516 C520 1.350 . S
C517 C520 1.463 . S
C517 C522 1.350 . S
C517 N525 1.427 . S
C518 H509 0.930 . S
C518 C516 1.378 . S
C518 C519 1.367 . S
C519 C518 1.367 . S
C519 C521 1.433 . S
C520 C516 1.350 . S
C520 C517 1.463 . S
C520 N524 1.427 . S
C521 H511 0.929 . S
C521 C519 1.433 . S
C521 N524 1.384 . S
C522 H513 0.929 . S
C522 C514 1.378 . S
C522 C517 1.350 . S
C523 H510 0.929 . S
C523 C515 1.433 . S
C523 N525 1.384 . S
N524 C520 1.427 . S
N524 C521 1.384 . S
N525 C517 1.427 . S
N525 C523 1.384 . S
H526 C532 0.930 . S
H527 C536 0.930 . S
H528 C541 0.929 . S
H529 C539 0.929 . S
H530 C534 0.929 . S
H531 C540 0.929 . S
C532 H526 0.930 . S
C532 C533 1.367 . S
C532 C540 1.378 . S
C533 C532 1.367 . S
C533 C541 1.433 . S
C534 H530 0.929 . S
C534 C536 1.378 . S
C534 C538 1.350 . S
C535 C538 1.463 . S
C535 C540 1.350 . S
C535 N543 1.427 . S
C536 H527 0.930 . S
C536 C534 1.378 . S
C536 C537 1.367 . S
C537 C536 1.367 . S
C537 C539 1.433 . S
C538 C534 1.350 . S
C538 C535 1.463 . S
C538 N542 1.427 . S
C539 H529 0.929 . S
C539 C537 1.433 . S
C539 N542 1.384 . S
C540 H531 0.929 . S
C540 C532 1.378 . S
C540 C535 1.350 . S
C541 H528 0.929 . S
C541 C533 1.433 . S
C541 N543 1.384 . S
N542 C538 1.427 . S
N542 C539 1.384 . S
N543 C535 1.427 . S
N543 C541 1.384 . S
H544 C550 0.930 . S
H545 C554 0.930 . S
H546 C559 0.929 . S
H547 C557 0.929 . S
H548 C552 0.929 . S
H549 C558 0.929 . S
C550 H544 0.930 . S
C550 C551 1.374 . S
C550 C558 1.378 . S
C551 C550 1.374 . S
C551 C559 1.428 1_545 S
C552 H548 0.929 . S
C552 C554 1.378 1_554 S
C552 C556 1.359 . S
C553 C556 1.467 1_545 S
C553 C558 1.356 . S
C553 N561 1.419 1_545 S
C554 H545 0.930 . S
C554 C552 1.378 1_556 S
C554 C555 1.377 . S
C555 C554 1.377 . S
C555 C557 1.425 1_565 S
C556 C552 1.359 . S
C556 C553 1.467 1_565 S
C556 N560 1.416 1_565 S
C557 H547 0.929 . S
C557 C555 1.425 1_545 S
C557 N560 1.384 1_556 S
C558 H549 0.929 . S
C558 C550 1.378 . S
C558 C553 1.356 . S
C559 H546 0.929 . S
C559 C551 1.428 1_565 S
C559 N561 1.384 . S
N560 C556 1.416 1_545 S
N560 C557 1.384 1_554 S
N561 C553 1.419 1_565 S
N561 C559 1.384 . S
H562 C568 0.930 . S
H563 C572 0.930 . S
H564 C577 0.929 . S
H565 C575 0.929 . S
H566 C570 0.929 . S
H567 C576 0.929 . S
C568 H562 0.930 . S
C568 C569 1.367 . S
C568 C576 1.378 . S
C569 C568 1.367 . S
C569 C577 1.433 . S
C570 H566 0.929 . S
C570 C572 1.378 . S
C570 C574 1.350 . S
C571 C574 1.463 . S
C571 C576 1.350 . S
C571 N579 1.427 . S
C572 H563 0.930 . S
C572 C570 1.378 . S
C572 C573 1.367 . S
C573 C572 1.367 . S
C573 C575 1.433 . S
C574 C570 1.350 . S
C574 C571 1.463 . S
C574 N578 1.427 . S
C575 H565 0.929 . S
C575 C573 1.433 . S
C575 N578 1.384 . S
C576 H567 0.929 . S
C576 C568 1.378 . S
C576 C571 1.350 . S
C577 H564 0.929 . S
C577 C569 1.433 . S
C577 N579 1.384 . S
N578 C574 1.427 . S
N578 C575 1.384 . S
N579 C571 1.427 . S
N579 C577 1.384 . S
H580 C586 0.930 . S
H581 C590 0.930 . S
H582 C595 0.929 . S
H583 C593 0.929 . S
H584 C588 0.929 . S
H585 C594 0.929 . S
C586 H580 0.930 . S
C586 C587 1.367 . S
C586 C594 1.378 . S
C587 C586 1.367 . S
C587 C595 1.433 . S
C588 H584 0.929 . S
C588 C590 1.378 1_554 S
C588 C592 1.350 . S
C589 C592 1.463 . S
C589 C594 1.350 . S
C589 N597 1.427 . S
C590 H581 0.930 . S
C590 C588 1.378 1_556 S
C590 C591 1.367 . S
C591 C590 1.367 . S
C591 C593 1.433 . S
C592 C588 1.350 . S
C592 C589 1.463 . S
C592 N596 1.427 . S
C593 H583 0.929 . S
C593 C591 1.433 . S
C593 N596 1.384 1_556 S
C594 H585 0.929 . S
C594 C586 1.378 . S
C594 C589 1.350 . S
C595 H582 0.929 . S
C595 C587 1.433 . S
C595 N597 1.384 . S
N596 C592 1.427 . S
N596 C593 1.384 1_554 S
N597 C589 1.427 . S
N597 C595 1.384 . S
H598 C604 0.930 . S
H599 C608 0.930 . S
H600 C613 0.929 . S
H601 C611 0.929 . S
H602 C606 0.929 1_554 S
H603 C612 0.929 . S
C604 H598 0.930 . S
C604 C605 1.367 1_455 S
C604 C612 1.378 . S
C605 C604 1.367 1_655 S
C605 C613 1.433 . S
C606 H602 0.929 1_556 S
C606 C608 1.378 . S
C606 C610 1.350 1_556 S
C607 C610 1.463 . S
C607 C612 1.350 1_655 S
C607 N615 1.427 . S
C608 H599 0.930 . S
C608 C606 1.378 . S
C608 C609 1.374 . S
C609 C608 1.374 . S
C609 C611 1.427 1_655 S
C610 C606 1.350 1_554 S
C610 C607 1.463 . S
C610 N614 1.427 1_654 S
C611 H601 0.929 . S
C611 C609 1.427 1_455 S
C611 N614 1.384 . S
C612 H603 0.929 . S
C612 C604 1.378 . S
C612 C607 1.350 1_455 S
C613 H600 0.929 . S
C613 C605 1.433 . S
C613 N615 1.384 . S
N614 C610 1.427 1_456 S
N614 C611 1.384 . S
N615 C607 1.427 . S
N615 C613 1.384 . S
H616 C622 0.930 . S
H617 C626 0.930 . S
H618 C631 0.929 . S
H619 C629 0.929 . S
H620 C624 0.929 . S
H621 C630 0.929 1_655 S
C622 H616 0.930 . S
C622 C623 1.367 . S
C622 C630 1.378 . S
C623 C622 1.367 . S
C623 C631 1.433 . S
C624 H620 0.929 . S
C624 C626 1.378 . S
C624 C628 1.350 . S
C625 C628 1.463 . S
C625 C630 1.350 . S
C625 N633 1.427 . S
C626 H617 0.930 . S
C626 C624 1.378 . S
C626 C627 1.367 1_455 S
C627 C626 1.367 1_655 S
C627 C629 1.433 . S
C628 C624 1.350 . S
C628 C625 1.463 . S
C628 N632 1.427 1_455 S
C629 H619 0.929 . S
C629 C627 1.433 . S
C629 N632 1.384 . S
C630 H621 0.929 1_455 S
C630 C622 1.378 . S
C630 C625 1.350 . S
C631 H618 0.929 . S
C631 C623 1.433 . S
C631 N633 1.384 . S
N632 C628 1.427 1_655 S
N632 C629 1.384 . S
N633 C625 1.427 . S
N633 C631 1.384 . S
H634 C640 0.930 . S
H635 C644 0.930 . S
H636 C649 0.929 . S
H637 C647 0.929 1_545 S
H638 C642 0.929 . S
H639 C648 0.929 . S
C640 H634 0.930 . S
C640 C641 1.367 . S
C640 C648 1.378 . S
C641 C640 1.367 . S
C641 C649 1.433 1_545 S
C642 H638 0.929 . S
C642 C644 1.378 . S
C642 C646 1.350 . S
C643 C646 1.463 . S
C643 C648 1.350 1_565 S
C643 N651 1.427 . S
C644 H635 0.930 . S
C644 C642 1.378 . S
C644 C645 1.367 . S
C645 C644 1.367 . S
C645 C647 1.433 . S
C646 C642 1.350 . S
C646 C643 1.463 . S
C646 N650 1.427 . S
C647 H637 0.929 1_565 S
C647 C645 1.433 . S
C647 N650 1.384 . S
C648 H639 0.929 . S
C648 C640 1.378 . S
C648 C643 1.350 1_545 S
C649 H636 0.929 . S
C649 C641 1.433 1_565 S
C649 N651 1.384 . S
N650 C646 1.427 . S
N650 C647 1.384 . S
N651 C643 1.427 . S
N651 C649 1.384 . S
H652 C658 0.930 . S
H653 C662 0.930 . S
H654 C667 0.929 . S
H655 C665 0.929 . S
H656 C660 0.929 . S
H657 C666 0.929 . S
C658 H652 0.930 . S
C658 C659 1.367 . S
C658 C666 1.378 . S
C659 C658 1.367 . S
C659 C667 1.433 . S
C660 H656 0.929 . S
C660 C662 1.378 . S
C660 C664 1.350 . S
C661 C664 1.463 . S
C661 C666 1.350 . S
C661 N669 1.427 . S
C662 H653 0.930 . S
C662 C660 1.378 . S
C662 C663 1.367 . S
C663 C662 1.367 . S
C663 C665 1.433 . S
C664 C660 1.350 . S
C664 C661 1.463 . S
C664 N668 1.427 . S
C665 H655 0.929 . S
C665 C663 1.433 . S
C665 N668 1.384 . S
C666 H657 0.929 . S
C666 C658 1.378 . S
C666 C661 1.350 . S
C667 H654 0.929 . S
C667 C659 1.433 . S
C667 N669 1.384 . S
N668 C664 1.427 . S
N668 C665 1.384 . S
N669 C661 1.427 . S
N669 C667 1.384 . S
H670 C676 0.930 . S
H671 C680 0.930 . S
H672 C685 0.929 . S
H673 C683 0.929 . S
H674 C678 0.929 . S
H675 C684 0.929 . S
C676 H670 0.930 . S
C676 C677 1.367 . S
C676 C684 1.378 . S
C677 C676 1.367 . S
C677 C685 1.433 . S
C678 H674 0.929 . S
C678 C680 1.378 . S
C678 C682 1.350 . S
C679 C682 1.463 . S
C679 C684 1.350 . S
C679 N687 1.427 . S
C680 H671 0.930 . S
C680 C678 1.378 . S
C680 C681 1.367 . S
C681 C680 1.367 . S
C681 C683 1.433 . S
C682 C678 1.350 . S
C682 C679 1.463 . S
C682 N686 1.427 . S
C683 H673 0.929 . S
C683 C681 1.433 . S
C683 N686 1.384 . S
C684 H675 0.929 . S
C684 C676 1.378 . S
C684 C679 1.350 . S
C685 H672 0.929 . S
C685 C677 1.433 . S
C685 N687 1.384 . S
N686 C682 1.427 . S
N686 C683 1.384 . S
N687 C679 1.427 . S
N687 C685 1.384 . S
H688 C694 0.930 . S
H689 C698 0.930 . S
H690 C703 0.929 . S
H691 C701 0.929 . S
H692 C696 0.929 . S
H693 C702 0.929 1_556 S
C694 H688 0.930 . S
C694 C695 1.367 . S
C694 C702 1.378 . S
C695 C694 1.367 . S
C695 C703 1.433 . S
C696 H692 0.929 . S
C696 C698 1.378 . S
C696 C700 1.350 . S
C697 C700 1.463 . S
C697 C702 1.350 1_455 S
C697 N705 1.427 . S
C698 H689 0.930 . S
C698 C696 1.378 . S
C698 C699 1.367 1_554 S
C699 C698 1.367 1_556 S
C699 C701 1.433 . S
C700 C696 1.350 . S
C700 C697 1.463 . S
C700 N704 1.427 1_554 S
C701 H691 0.929 . S
C701 C699 1.433 . S
C701 N704 1.384 . S
C702 H693 0.929 1_554 S
C702 C694 1.378 . S
C702 C697 1.350 1_655 S
C703 H690 0.929 . S
C703 C695 1.433 . S
C703 N705 1.384 1_655 S
N704 C700 1.427 1_556 S
N704 C701 1.384 . S
N705 C697 1.427 . S
N705 C703 1.384 1_455 S
H706 C712 0.930 . S
H707 C716 0.930 . S
H708 C721 0.929 . S
H709 C719 0.929 1_566 S
H710 C714 0.929 . S
H711 C720 0.929 . S
C712 H706 0.930 . S
C712 C713 1.367 . S
C712 C720 1.378 . S
C713 C712 1.367 . S
C713 C721 1.433 1_565 S
C714 H710 0.929 . S
C714 C716 1.378 . S
C714 C718 1.350 . S
C715 C718 1.463 . S
C715 C720 1.350 1_545 S
C715 N723 1.427 . S
C716 H707 0.930 . S
C716 C714 1.378 . S
C716 C717 1.367 . S
C717 C716 1.367 . S
C717 C719 1.433 . S
C718 C714 1.350 . S
C718 C715 1.463 . S
C718 N722 1.423 1_545 S
C719 H709 0.929 1_544 S
C719 C717 1.433 . S
C719 N722 1.381 1_545 S
C720 H711 0.929 . S
C720 C712 1.378 . S
C720 C715 1.350 1_565 S
C721 H708 0.929 . S
C721 C713 1.433 1_545 S
C721 N723 1.384 . S
N722 C718 1.423 1_565 S
N722 C719 1.381 1_565 S
N723 C715 1.427 . S
N723 C721 1.384 . S
H724 C730 0.930 . S
H725 C734 0.930 . S
H726 C739 0.929 . S
H727 C737 0.929 . S
H728 C732 0.929 . S
H729 C738 0.929 . S
C730 H724 0.930 . S
C730 C731 1.367 . S
C730 C738 1.378 . S
C731 C730 1.367 . S
C731 C739 1.433 . S
C732 H728 0.929 . S
C732 C734 1.378 . S
C732 C736 1.350 . S
C733 C736 1.463 . S
C733 C738 1.350 . S
C733 N741 1.427 . S
C734 H725 0.930 . S
C734 C732 1.378 . S
C734 C735 1.367 . S
C735 C734 1.367 . S
C735 C737 1.433 . S
C736 C732 1.350 . S
C736 C733 1.463 . S
C736 N740 1.427 . S
C737 H727 0.929 . S
C737 C735 1.433 . S
C737 N740 1.384 . S
C738 H729 0.929 . S
C738 C730 1.378 . S
C738 C733 1.350 . S
C739 H726 0.929 . S
C739 C731 1.433 . S
C739 N741 1.384 . S
N740 C736 1.427 . S
N740 C737 1.384 . S
N741 C733 1.427 . S
N741 C739 1.384 . S
H742 C748 0.930 . S
H743 C752 0.930 1_556 S
H744 C757 0.929 . S
H745 C755 0.929 . S
H746 C750 0.929 . S
H747 C756 0.929 . S
C748 H742 0.930 . S
C748 C749 1.367 . S
C748 C756 1.378 . S
C749 C748 1.367 . S
C749 C757 1.433 . S
C750 H746 0.929 . S
C750 C752 1.378 . S
C750 C754 1.350 . S
C751 C754 1.463 . S
C751 C756 1.350 . S
C751 N759 1.427 . S
C752 H743 0.930 1_554 S
C752 C750 1.378 . S
C752 C753 1.367 . S
C753 C752 1.367 . S
C753 C755 1.433 . S
C754 C750 1.350 . S
C754 C751 1.463 . S
C754 N758 1.427 . S
C755 H745 0.929 . S
C755 C753 1.433 . S
C755 N758 1.384 . S
C756 H747 0.929 . S
C756 C748 1.378 . S
C756 C751 1.350 . S
C757 H744 0.929 . S
C757 C749 1.433 . S
C757 N759 1.384 . S
N758 C754 1.427 . S
N758 C755 1.384 . S
N759 C751 1.427 . S
N759 C757 1.384 . S
H760 C766 0.930 . S
H761 C770 0.930 1_655 S
H762 C775 0.929 . S
H763 C773 0.929 . S
H764 C768 0.929 . S
H765 C774 0.929 . S
C766 H760 0.930 . S
C766 C767 1.367 . S
C766 C774 1.378 . S
C767 C766 1.367 . S
C767 C775 1.433 . S
C768 H764 0.929 . S
C768 C770 1.378 . S
C768 C772 1.350 . S
C769 C772 1.463 . S
C769 C774 1.350 . S
C769 N777 1.427 . S
C770 H761 0.930 1_455 S
C770 C768 1.378 . S
C770 C771 1.367 . S
C771 C770 1.367 . S
C771 C773 1.433 . S
C772 C768 1.350 . S
C772 C769 1.463 . S
C772 N776 1.427 . S
C773 H763 0.929 . S
C773 C771 1.433 . S
C773 N776 1.384 . S
C774 H765 0.929 . S
C774 C766 1.378 . S
C774 C769 1.350 . S
C775 H762 0.929 . S
C775 C767 1.433 . S
C775 N777 1.384 . S
N776 C772 1.427 . S
N776 C773 1.384 . S
N777 C769 1.427 . S
N777 C775 1.384 . S
H778 C784 0.930 . S
H779 C788 0.930 . S
H780 C793 0.929 . S
H781 C791 0.929 . S
H782 C786 0.929 . S
H783 C792 0.929 . S
C784 H778 0.930 . S
C784 C785 1.336 1_565 S
C784 C792 1.378 . S
C785 C784 1.336 1_545 S
C785 C793 1.467 . S
C786 H782 0.929 . S
C786 C788 1.378 . S
C786 C790 1.350 . S
C787 C790 1.463 . S
C787 C792 1.350 1_545 S
C787 N795 1.427 . S
C788 H779 0.930 . S
C788 C786 1.378 . S
C788 C789 1.367 . S
C789 C788 1.367 . S
C789 C791 1.433 1_545 S
C790 C786 1.350 . S
C790 C787 1.463 . S
C790 N794 1.427 1_545 S
C791 H781 0.929 . S
C791 C789 1.433 1_565 S
C791 N794 1.384 . S
C792 H783 0.929 . S
C792 C784 1.378 . S
C792 C787 1.350 1_565 S
C793 H780 0.929 . S
C793 C785 1.467 . S
C793 N795 1.384 . S
N794 C790 1.427 1_565 S
N794 C791 1.384 . S
N795 C787 1.427 . S
N795 C793 1.384 . S
H796 C802 0.930 . S
H797 C806 0.930 . S
H798 C811 0.929 . S
H799 C809 0.929 . S
H800 C804 0.929 . S
H801 C810 0.929 . S
C802 H796 0.930 . S
C802 C803 1.367 . S
C802 C810 1.378 . S
C803 C802 1.367 . S
C803 C811 1.433 . S
C804 H800 0.929 . S
C804 C806 1.378 . S
C804 C808 1.350 . S
C805 C808 1.463 . S
C805 C810 1.350 . S
C805 N813 1.427 . S
C806 H797 0.930 . S
C806 C804 1.378 . S
C806 C807 1.367 . S
C807 C806 1.367 . S
C807 C809 1.433 . S
C808 C804 1.350 . S
C808 C805 1.463 . S
C808 N812 1.427 . S
C809 H799 0.929 . S
C809 C807 1.433 . S
C809 N812 1.384 . S
C810 H801 0.929 . S
C810 C802 1.378 . S
C810 C805 1.350 . S
C811 H798 0.929 . S
C811 C803 1.433 . S
C811 N813 1.384 . S
N812 C808 1.427 . S
N812 C809 1.384 . S
N813 C805 1.427 . S
N813 C811 1.384 . S
H814 C820 0.930 . S
H815 C824 0.930 . S
H816 C829 0.929 . S
H817 C827 0.929 . S
H818 C822 0.929 . S
H819 C828 0.929 . S
C820 H814 0.930 . S
C820 C821 1.367 . S
C820 C828 1.378 . S
C821 C820 1.367 . S
C821 C829 1.433 . S
C822 H818 0.929 . S
C822 C824 1.378 . S
C822 C826 1.350 . S
C823 C826 1.463 . S
C823 C828 1.350 . S
C823 N831 1.427 . S
C824 H815 0.930 . S
C824 C822 1.378 . S
C824 C825 1.367 . S
C825 C824 1.367 . S
C825 C827 1.433 . S
C826 C822 1.350 . S
C826 C823 1.463 . S
C826 N830 1.427 . S
C827 H817 0.929 . S
C827 C825 1.433 . S
C827 N830 1.384 . S
C828 H819 0.929 . S
C828 C820 1.378 . S
C828 C823 1.350 . S
C829 H816 0.929 . S
C829 C821 1.433 . S
C829 N831 1.384 . S
N830 C826 1.427 . S
N830 C827 1.384 . S
N831 C823 1.427 . S
N831 C829 1.384 . S
H832 C838 0.930 . S
H833 C842 0.930 . S
H834 C847 0.929 1_455 S
H835 C845 0.929 . S
H836 C840 0.929 . S
H837 C846 0.929 . S
C838 H832 0.930 . S
C838 C839 1.367 . S
C838 C846 1.378 . S
C839 C838 1.367 . S
C839 C847 1.433 . S
C840 H836 0.929 . S
C840 C842 1.378 . S
C840 C844 1.350 1_455 S
C841 C844 1.463 . S
C841 C846 1.350 . S
C841 N849 1.427 . S
C842 H833 0.930 . S
C842 C840 1.378 . S
C842 C843 1.367 1_455 S
C843 C842 1.367 1_655 S
C843 C845 1.433 . S
C844 C840 1.350 1_655 S
C844 C841 1.463 . S
C844 N848 1.427 . S
C845 H835 0.929 . S
C845 C843 1.433 . S
C845 N848 1.384 . S
C846 H837 0.929 . S
C846 C838 1.378 . S
C846 C841 1.350 . S
C847 H834 0.929 1_655 S
C847 C839 1.433 . S
C847 N849 1.384 . S
N848 C844 1.427 . S
N848 C845 1.384 . S
N849 C841 1.427 . S
N849 C847 1.384 . S
H850 C856 0.930 . S
H851 C860 0.930 . S
H852 C865 0.929 . S
H853 C863 0.929 . S
H854 C858 0.929 . S
H855 C864 0.929 . S
C856 H850 0.930 . S
C856 C857 1.345 1_545 S
C856 C864 1.378 . S
C857 C856 1.345 1_565 S
C857 C865 1.457 . S
C858 H854 0.929 . S
C858 C860 1.378 . S
C858 C862 1.350 . S
C859 C862 1.463 . S
C859 C864 1.350 1_565 S
C859 N867 1.427 . S
C860 H851 0.930 . S
C860 C858 1.378 . S
C860 C861 1.367 . S
C861 C860 1.367 . S
C861 C863 1.433 1_565 S
C862 C858 1.350 . S
C862 C859 1.463 . S
C862 N866 1.427 1_565 S
C863 H853 0.929 . S
C863 C861 1.433 1_545 S
C863 N866 1.384 . S
C864 H855 0.929 . S
C864 C856 1.378 . S
C864 C859 1.350 1_545 S
C865 H852 0.929 . S
C865 C857 1.457 . S
C865 N867 1.384 . S
N866 C862 1.427 1_545 S
N866 C863 1.384 . S
N867 C859 1.427 . S
N867 C865 1.384 . S
H868 C874 0.930 . S
H869 C878 0.930 . S
H870 C883 0.929 . S
H871 C881 0.929 . S
H872 C876 0.929 . S
H873 C882 0.929 . S
C874 H868 0.930 . S
C874 C875 1.367 . S
C874 C882 1.378 . S
C875 C874 1.367 . S
C875 C883 1.433 . S
C876 H872 0.929 . S
C876 C878 1.378 . S
C876 C880 1.350 . S
C877 C880 1.463 . S
C877 C882 1.350 . S
C877 N885 1.427 . S
C878 H869 0.930 . S
C878 C876 1.378 . S
C878 C879 1.367 . S
C879 C878 1.367 . S
C879 C881 1.433 . S
C880 C876 1.350 . S
C880 C877 1.463 . S
C880 N884 1.427 . S
C881 H871 0.929 . S
C881 C879 1.433 . S
C881 N884 1.384 . S
C882 H873 0.929 . S
C882 C874 1.378 . S
C882 C877 1.350 . S
C883 H870 0.929 . S
C883 C875 1.433 . S
C883 N885 1.384 . S
N884 C880 1.427 . S
N884 C881 1.384 . S
N885 C877 1.427 . S
N885 C883 1.384 . S
H886 C892 0.930 . S
H887 C896 0.930 . S
H888 C901 0.929 . S
H889 C899 0.929 . S
H890 C894 0.929 . S
H891 C900 0.929 . S
C892 H886 0.930 . S
C892 C893 1.367 . S
C892 C900 1.378 . S
C893 C892 1.367 . S
C893 C901 1.433 . S
C894 H890 0.929 . S
C894 C896 1.378 . S
C894 C898 1.350 . S
C895 C898 1.463 . S
C895 C900 1.350 . S
C895 N903 1.427 . S
C896 H887 0.930 . S
C896 C894 1.378 . S
C896 C897 1.367 . S
C897 C896 1.367 . S
C897 C899 1.433 . S
C898 C894 1.350 . S
C898 C895 1.463 . S
C898 N902 1.427 . S
C899 H889 0.929 . S
C899 C897 1.433 . S
C899 N902 1.384 . S
C900 H891 0.929 . S
C900 C892 1.378 . S
C900 C895 1.350 . S
C901 H888 0.929 . S
C901 C893 1.433 . S
C901 N903 1.384 . S
N902 C898 1.427 . S
N902 C899 1.384 . S
N903 C895 1.427 . S
N903 C901 1.384 . S
C479 C255 2.208 1_545 S
C483 C335 2.372 . S
C501 C375 1.626 . S
C497 C294 1.596 . S
C519 C394 2.432 . S
C515 C177 2.255 . S
C537 C455 1.817 . S
C533 C216 1.686 . S
C555 C314 2.369 1_565 S
C551 C99 2.193 1_545 S
C569 C138 1.580 . S
C573 C354 1.635 . S
C587 C21 2.253 . S
C591 C415 2.436 . S
C605 C60 1.681 . S
C609 C434 1.812 1_655 S
C627 C316 0.721 . S
C623 C196 0.722 . S
C645 C356 0.357 . S
C641 C235 0.318 1_545 S
C663 C412 0.975 . S
C659 C289 0.891 . S
C677 C157 0.354 . S
C681 C436 0.401 . S
C695 C40 0.750 . S
C699 C337 0.754 . S
C717 C377 0.358 . S
C713 C79 0.301 . S
C735 C423 0.976 . S
C731 C133 0.925 . S
C749 C1 0.338 . S
C753 C457 0.423 . S
C767 C211 2.254 . S
C771 C332 2.543 . S
C785 C250 2.833 . S
C789 C372 3.174 . S
C807 C396 1.944 . S
C803 C274 1.881 . S
C825 C452 3.159 . S
C821 C172 2.825 . S
C839 C55 2.255 . S
C843 C343 2.556 . S
C861 C383 3.173 . S
C857 C94 2.830 1_565 S
C879 C417 1.951 . S
C875 C118 1.895 . S
C893 C16 2.820 . S
C897 C463 3.159 . S
