# Generated by pormake.
# Topology apo, (3,6)-cn, num edge types: 1
# Building blocks:
#     Node 0, Type 0, BuildingBlock: BETDAH_clean_linker_0, # of connection points: 3
#     Node 1, Type 0, BuildingBlock: BETDAH_clean_linker_0, # of connection points: 3
#     Node 2, Type 0, BuildingBlock: BETDAH_clean_linker_0, # of connection points: 3
#     Node 3, Type 0, BuildingBlock: BETDAH_clean_linker_0, # of connection points: 3
#     Node 4, Type 0, BuildingBlock: BETDAH_clean_linker_0, # of connection points: 3
#     Node 5, Type 0, BuildingBlock: BETDAH_clean_linker_0, # of connection points: 3
#     Node 6, Type 0, BuildingBlock: BETDAH_clean_linker_0, # of connection points: 3
#     Node 7, Type 0, BuildingBlock: BETDAH_clean_linker_0, # of connection points: 3
#     Node 8, Type 1, BuildingBlock: KUMBOL_clean_sbu_1, # of connection points: 6
#     Node 9, Type 1, BuildingBlock: KUMBOL_clean_sbu_1, # of connection points: 6
#     Node 10, Type 1, BuildingBlock: KUMBOL_clean_sbu_1, # of connection points: 6
#     Node 11, Type 1, BuildingBlock: KUMBOL_clean_sbu_1, # of connection points: 6
#     Edge 12, Type (0, 1), BuildingBlock: EZIPEK_clean_linker_0, # of connection points: 2
#     Edge 13, Type (0, 1), BuildingBlock: EZIPEK_clean_linker_0, # of connection points: 2
#     Edge 14, Type (0, 1), BuildingBlock: EZIPEK_clean_linker_0, # of connection points: 2
#     Edge 15, Type (0, 1), BuildingBlock: EZIPEK_clean_linker_0, # of connection points: 2
#     Edge 16, Type (0, 1), BuildingBlock: EZIPEK_clean_linker_0, # of connection points: 2
#     Edge 17, Type (0, 1), BuildingBlock: EZIPEK_clean_linker_0, # of connection points: 2
#     Edge 18, Type (0, 1), BuildingBlock: EZIPEK_clean_linker_0, # of connection points: 2
#     Edge 19, Type (0, 1), BuildingBlock: EZIPEK_clean_linker_0, # of connection points: 2
#     Edge 20, Type (0, 1), BuildingBlock: EZIPEK_clean_linker_0, # of connection points: 2
#     Edge 21, Type (0, 1), BuildingBlock: EZIPEK_clean_linker_0, # of connection points: 2
#     Edge 22, Type (0, 1), BuildingBlock: EZIPEK_clean_linker_0, # of connection points: 2
#     Edge 23, Type (0, 1), BuildingBlock: EZIPEK_clean_linker_0, # of connection points: 2
#     Edge 24, Type (0, 1), BuildingBlock: EZIPEK_clean_linker_0, # of connection points: 2
#     Edge 25, Type (0, 1), BuildingBlock: EZIPEK_clean_linker_0, # of connection points: 2
#     Edge 26, Type (0, 1), BuildingBlock: EZIPEK_clean_linker_0, # of connection points: 2
#     Edge 27, Type (0, 1), BuildingBlock: EZIPEK_clean_linker_0, # of connection points: 2
#     Edge 28, Type (0, 1), BuildingBlock: EZIPEK_clean_linker_0, # of connection points: 2
#     Edge 29, Type (0, 1), BuildingBlock: EZIPEK_clean_linker_0, # of connection points: 2
#     Edge 30, Type (0, 1), BuildingBlock: EZIPEK_clean_linker_0, # of connection points: 2
#     Edge 31, Type (0, 1), BuildingBlock: EZIPEK_clean_linker_0, # of connection points: 2
#     Edge 32, Type (0, 1), BuildingBlock: EZIPEK_clean_linker_0, # of connection points: 2
#     Edge 33, Type (0, 1), BuildingBlock: EZIPEK_clean_linker_0, # of connection points: 2
#     Edge 34, Type (0, 1), BuildingBlock: EZIPEK_clean_linker_0, # of connection points: 2
#     Edge 35, Type (0, 1), BuildingBlock: EZIPEK_clean_linker_0, # of connection points: 2
# Relax obj value: 0.036
# Max RMSD: 0.242
# Mean RMSD: 0.168
data_MOF--net-apo--node1-KUMBOL_clean_sbu_1--node2-BETDAH_clean_linker_0--edge1-EZIPEK_clean_linker_0
_symmetry_space_group_name_H-M    P1
_symmetry_Int_Tables_number       1
_symmetry_cell_setting            triclinic
loop_
_symmetry_equiv_pos_as_xyz
'x, y, z'
_cell_length_a     20.508816
_cell_length_b     30.305925
_cell_length_c     39.43183
_cell_angle_alpha  89.445602
_cell_angle_beta   89.743253
_cell_angle_gamma 90.757965
loop_
_atom_site_label
_atom_site_type_symbol
_atom_site_fract_x
_atom_site_fract_y
_atom_site_fract_z
_atom_type_partial_charge
H0 H 0.3678 0.46421 0.43015 0.0
H1 H 0.29008 0.36292 0.36511 0.0
H2 H 0.26322 0.35364 0.47342 0.0
C3 C 0.34074 0.43356 0.42692 0.0
C4 C 0.31653 0.41089 0.45546 0.0
C5 C 0.33146 0.41645 0.39429 0.0
C6 C 0.29677 0.37631 0.39023 0.0
C7 C 0.27161 0.35374 0.41902 0.0
C8 C 0.28203 0.37123 0.4513 0.0
N9 N 0.23638 0.31318 0.41731 0.0
C10 C 0.21745 0.29096 0.38822 0.0
H11 H 0.15518 0.0559 0.92834 0.0
H12 H 0.16368 0.15604 0.8499 0.0
H13 H 0.20689 0.18961 0.95286 0.0
C14 C 0.16657 0.08937 0.92009 0.0
C15 C 0.182 0.12118 0.94453 0.0
C16 C 0.15874 0.10141 0.88571 0.0
C17 C 0.17212 0.1455 0.87583 0.0
C18 C 0.19299 0.17679 0.8997 0.0
C19 C 0.19656 0.16464 0.93407 0.0
N20 N 0.19668 0.2221 0.89051 0.0
C21 C 0.25226 0.24274 0.87704 0.0
H22 H 0.82313 0.07635 0.6015 0.0
H23 H 0.85329 0.15892 0.68871 0.0
H24 H 0.7896 0.21617 0.59507 0.0
C25 C 0.8214 0.10834 0.61351 0.0
C26 C 0.80659 0.14592 0.59379 0.0
C27 C 0.83799 0.1124 0.64813 0.0
C28 C 0.83824 0.15461 0.66261 0.0
C29 C 0.81784 0.19136 0.64404 0.0
C30 C 0.80182 0.18704 0.60976 0.0
N31 N 0.81854 0.23324 0.65949 0.0
C32 C 0.7613 0.25545 0.66635 0.0
H33 H 0.62614 0.43415 0.10418 0.0
H34 H 0.75069 0.3641 0.17363 0.0
H35 H 0.73788 0.32402 0.06974 0.0
C36 C 0.65977 0.40763 0.10931 0.0
C37 C 0.67742 0.37889 0.08313 0.0
C38 C 0.68505 0.40184 0.14224 0.0
C39 C 0.72997 0.36791 0.14858 0.0
C40 C 0.74967 0.34035 0.12201 0.0
C41 C 0.7227 0.34578 0.08989 0.0
N42 N 0.79952 0.30868 0.12547 0.0
C43 C 0.81474 0.28568 0.15491 0.0
H44 H 0.67164 0.55405 0.59966 0.0
H45 H 0.65819 0.655 0.67584 0.0
H46 H 0.72717 0.68819 0.57601 0.0
C47 C 0.6796 0.58778 0.60772 0.0
C48 C 0.70099 0.61959 0.58377 0.0
C49 C 0.66317 0.59999 0.64118 0.0
C50 C 0.67288 0.64436 0.65082 0.0
C51 C 0.69881 0.67564 0.62781 0.0
C52 C 0.71155 0.66326 0.59431 0.0
N53 N 0.70102 0.72104 0.63616 0.0
C54 C 0.74652 0.73991 0.65801 0.0
H55 H 0.83177 0.95567 0.10582 0.0
H56 H 0.78829 0.81748 0.09319 0.0
H57 H 0.85272 0.86397 0.18955 0.0
C58 C 0.82719 0.92273 0.11657 0.0
C59 C 0.84347 0.91501 0.15101 0.0
C60 C 0.81036 0.88736 0.09515 0.0
C61 C 0.80153 0.84492 0.1093 0.0
C62 C 0.81395 0.83713 0.14372 0.0
C63 C 0.83804 0.87147 0.16378 0.0
N64 N 0.81149 0.7936 0.15709 0.0
C65 C 0.75394 0.77354 0.16857 0.0
H66 H 0.14289 0.92797 0.42656 0.0
H67 H 0.27402 0.88534 0.34796 0.0
H68 H 0.29809 0.83901 0.45029 0.0
C69 C 0.18274 0.90745 0.41831 0.0
C70 C 0.2166 0.88208 0.44238 0.0
C71 C 0.20324 0.90885 0.38406 0.0
C72 C 0.25622 0.88309 0.37384 0.0
C73 C 0.28987 0.85755 0.39775 0.0
C74 C 0.27027 0.85749 0.43179 0.0
N75 N 0.34927 0.8372 0.38915 0.0
C76 C 0.35362 0.80292 0.3662 0.0
H77 H 0.36059 0.58926 0.9306 0.0
H78 H 0.33769 0.72984 0.93461 0.0
H79 H 0.36029 0.66733 0.83844 0.0
C80 C 0.35509 0.62059 0.9175 0.0
C81 C 0.36036 0.62283 0.88181 0.0
C82 C 0.35019 0.65923 0.93665 0.0
C83 C 0.3414 0.69982 0.92004 0.0
C84 C 0.34204 0.70219 0.88457 0.0
C85 C 0.35444 0.66427 0.8657 0.0
N86 N 0.33804 0.74357 0.86796 0.0
C87 C 0.2784 0.76125 0.8589 0.0
C88 C 0.81004 0.05145 0.30577 0.0
C89 C 0.82046 0.9817 0.33579 0.0
C90 C 0.84716 0.02272 0.32507 0.0
C91 C 0.7567 0.96981 0.32633 0.0
C92 C 0.74553 0.03999 0.2968 0.0
C93 C 0.71938 0.99886 0.30686 0.0
N94 N 0.83663 0.09093 0.2962 0.0
C95 C 0.79986 0.12181 0.28009 0.0
C96 C 0.70882 0.07057 0.27845 0.0
C97 C 0.73589 0.11188 0.27043 0.0
Gd98 Gd 0.08242 0.11662 0.23737 0.0
Gd99 Gd 0.94372 0.10504 0.31373 0.0
N100 N 0.90923 0.03476 0.33331 0.0
C101 C 0.85874 0.95368 0.35556 0.0
C102 C 0.9456 1.00825 0.35392 0.0
C103 C 0.92137 0.96718 0.36486 0.0
H104 H 0.99276 0.01884 0.36293 0.0
H105 H 0.95077 0.94619 0.38086 0.0
H106 H 0.04308 0.21773 0.2107 0.0
H107 H 0.81907 0.15447 0.27527 0.0
H108 H 0.08954 0.29355 0.21214 0.0
H109 H 0.84007 0.92186 0.36418 0.0
H110 H 0.73568 0.9383 0.33411 0.0
H111 H 0.20459 0.04866 0.26201 0.0
H112 H 0.65908 0.06303 0.27111 0.0
H113 H 0.70724 0.13631 0.25722 0.0
H114 H 0.29729 0.27603 0.26596 0.0
H115 H 0.67005 0.98939 0.30004 0.0
H116 H 0.36524 0.12939 0.2932 0.0
H117 H 0.31474 0.05565 0.28564 0.0
N118 N 0.1893 0.11816 0.25909 0.0
C119 C 0.21788 0.15891 0.26098 0.0
C120 C 0.22441 0.08124 0.26646 0.0
C121 C 0.31614 0.12666 0.28334 0.0
C122 C 0.28768 0.08498 0.27927 0.0
C123 C 0.28172 0.16425 0.27366 0.0
H124 H 0.35813 0.21147 0.28596 0.0
N125 N 0.12282 0.18938 0.23693 0.0
C126 C 0.18396 0.19545 0.24937 0.0
C127 C 0.17735 0.2737 0.23763 0.0
C128 C 0.21239 0.23801 0.25064 0.0
C129 C 0.09012 0.22352 0.22218 0.0
C130 C 0.11634 0.26632 0.22291 0.0
O131 O 0.92238 0.06913 0.2637 0.0
O132 O 0.02215 0.05372 0.23816 0.0
O133 O 0.06742 0.12685 0.18297 0.0
O134 O 0.15579 0.09746 0.20077 0.0
O135 O 0.03683 0.06949 0.32283 0.0
O136 O 0.0914 0.05559 0.27207 0.0
O137 O 0.06521 0.16961 0.27585 0.0
O138 O 0.04438 0.13331 0.3254 0.0
O139 O 0.92376 0.10261 0.36785 0.0
O140 O 0.8994 0.16098 0.33887 0.0
O141 O 0.98054 0.14171 0.22655 0.0
O142 O 0.94007 0.16396 0.27847 0.0
C143 C 0.95846 0.04828 0.241 0.0
C144 C 0.07928 0.0477 0.30475 0.0
C145 C 0.12276 0.07884 0.14544 0.0
C146 C 0.1399 0.06661 0.08484 0.0
C147 C 0.12196 1.00439 0.12323 0.0
C148 C 0.11631 0.0331 0.15058 0.0
C149 C 0.13362 0.02097 0.09053 0.0
C150 C 0.13431 0.09551 0.11244 0.0
C151 C 0.12243 0.10928 0.17441 0.0
C152 C 0.27488 0.24353 0.26447 0.0
C153 C 0.30948 0.20675 0.27589 0.0
H154 H 0.19748 0.30692 0.23823 0.0
C155 C 0.07451 0.16497 0.30837 0.0
C156 C 0.9404 0.1654 0.24513 0.0
C157 C 0.83757 0.14511 0.38938 0.0
C158 C 0.78805 0.1472 0.44605 0.0
C159 C 0.7227 0.16159 0.39587 0.0
C160 C 0.77708 0.15537 0.37503 0.0
C161 C 0.72819 0.15807 0.43114 0.0
C162 C 0.84239 0.14018 0.42486 0.0
C163 C 0.89706 0.14118 0.3684 0.0
H164 H 0.11708 0.96914 0.12738 0.0
H165 H 0.10756 0.01961 0.17577 0.0
H166 H 0.13763 0.99824 0.06961 0.0
H167 H 0.13983 0.13078 0.10825 0.0
H168 H 0.67629 0.16982 0.38467 0.0
H169 H 0.77195 0.15909 0.34785 0.0
H170 H 0.68579 0.16398 0.44685 0.0
H171 H 0.88898 0.13221 0.43612 0.0
C172 C 0.71739 0.44604 0.77893 0.0
C173 C 0.73113 0.51731 0.8056 0.0
C174 C 0.69338 0.4789 0.79959 0.0
C175 C 0.79156 0.52311 0.78916 0.0
C176 C 0.77967 0.4507 0.76386 0.0
C177 C 0.81572 0.48992 0.76828 0.0
N178 N 0.68185 0.40824 0.77548 0.0
C179 C 0.70904 0.37207 0.76113 0.0
C180 C 0.80507 0.41502 0.74608 0.0
C181 C 0.77025 0.37515 0.74545 0.0
Gd182 Gd 0.41735 0.40041 0.7379 0.0
Gd183 Gd 0.57807 0.40702 0.8007 0.0
N184 N 0.6348 0.47227 0.81525 0.0
C185 C 0.70765 0.54836 0.82851 0.0
C186 C 0.61347 0.50143 0.83895 0.0
C187 C 0.64894 0.54008 0.84557 0.0
H188 H 0.56979 0.49471 0.85334 0.0
H189 H 0.63123 0.56325 0.86407 0.0
H190 H 0.45402 0.30371 0.70372 0.0
H191 H 0.68429 0.3405 0.76223 0.0
H192 H 0.41468 0.22625 0.70621 0.0
H193 H 0.73517 0.57826 0.83379 0.0
H194 H 0.82073 0.55268 0.7931 0.0
H195 H 0.2976 0.46171 0.77398 0.0
H196 H 0.85276 0.41722 0.7342 0.0
H197 H 0.79093 0.3466 0.73336 0.0
H198 H 0.22272 0.23145 0.77616 0.0
H199 H 0.86331 0.49429 0.75657 0.0
H200 H 0.15229 0.37294 0.81357 0.0
H201 H 0.19532 0.44886 0.80524 0.0
N202 N 0.31664 0.39328 0.76701 0.0
C203 C 0.29165 0.35152 0.76955 0.0
C204 C 0.28137 0.42816 0.77851 0.0
C205 C 0.19806 0.37826 0.80023 0.0
C206 C 0.22236 0.42112 0.79573 0.0
C207 C 0.23214 0.34285 0.78663 0.0
H208 H 0.16312 0.292 0.80279 0.0
N209 N 0.38139 0.32672 0.73749 0.0
C210 C 0.32479 0.31731 0.75426 0.0
C211 C 0.3337 0.24052 0.73918 0.0
C212 C 0.29999 0.27373 0.75605 0.0
C213 C 0.41187 0.29519 0.71903 0.0
C214 C 0.38933 0.25144 0.72014 0.0
O215 O 0.58597 0.4444 0.75028 0.0
O216 O 0.47991 0.46286 0.73484 0.0
O217 O 0.41187 0.39205 0.68314 0.0
O218 O 0.33696 0.42762 0.70934 0.0
O219 O 0.50136 0.45645 0.81325 0.0
O220 O 0.41222 0.45572 0.77644 0.0
O221 O 0.44399 0.34854 0.77646 0.0
O222 O 0.47936 0.38639 0.82226 0.0
O223 O 0.62434 0.40695 0.85012 0.0
O224 O 0.60585 0.34522 0.82445 0.0
O225 O 0.51326 0.37776 0.71568 0.0
O226 O 0.56536 0.35152 0.76329 0.0
C227 C 0.54385 0.46839 0.73288 0.0
C228 C 0.44488 0.47151 0.80267 0.0
C229 C 0.36179 0.45031 0.65325 0.0
C230 C 0.355 0.46986 0.5933 0.0
C231 C 0.36957 0.52713 0.63528 0.0
C232 C 0.36939 0.49523 0.66111 0.0
C233 C 0.36237 0.51458 0.60148 0.0
C234 C 0.3549 0.4378 0.61925 0.0
C235 C 0.36026 0.41616 0.68009 0.0
C236 C 0.24214 0.26481 0.77416 0.0
C237 C 0.20821 0.29929 0.78932 0.0
H238 H 0.31632 0.20661 0.74001 0.0
C239 C 0.44112 0.35614 0.80899 0.0
C240 C 0.56014 0.35508 0.73013 0.0
C241 C 0.59749 0.34511 0.8849 0.0
C242 C 0.59376 0.34533 0.94703 0.0
C243 C 0.54139 0.28594 0.91577 0.0
C244 C 0.56157 0.30527 0.88517 0.0
C245 C 0.55808 0.30542 0.9465 0.0
C246 C 0.61181 0.36563 0.91601 0.0
C247 C 0.62332 0.36413 0.85269 0.0
H248 H 0.37557 0.56165 0.64147 0.0
H249 H 0.37541 0.50562 0.68713 0.0
H250 H 0.36252 0.53965 0.58171 0.0
H251 H 0.34886 0.40323 0.61297 0.0
H252 H 0.51391 0.2552 0.91568 0.0
H253 H 0.54985 0.28858 0.86182 0.0
H254 H 0.54367 0.28908 0.96997 0.0
H255 H 0.63945 0.39637 0.91624 0.0
C256 C 0.78534 0.85362 0.77923 0.0
C257 C 0.79287 0.77564 0.79316 0.0
C258 C 0.81967 0.81869 0.79293 0.0
C259 C 0.73177 0.76794 0.77827 0.0
C260 C 0.72265 0.84634 0.76566 0.0
C261 C 0.69674 0.80322 0.76453 0.0
N262 N 0.812 0.8949 0.78058 0.0
C263 C 0.77558 0.93072 0.77195 0.0
C264 C 0.68724 0.88274 0.75438 0.0
C265 C 0.71336 0.92517 0.75814 0.0
Gd266 Gd 0.06795 0.90285 0.72795 0.0
Gd267 Gd 0.91962 0.89963 0.80149 0.0
N268 N 0.87949 0.82698 0.80626 0.0
C269 C 0.82806 0.74179 0.80873 0.0
C270 C 0.9121 0.79485 0.82341 0.0
C271 C 0.88744 0.7516 0.82442 0.0
H272 H 0.95782 0.80255 0.83566 0.0
H273 H 0.91425 0.72588 0.83723 0.0
H274 H 0.06056 0.99504 0.67937 0.0
H275 H 0.79416 0.96377 0.77576 0.0
H276 H 0.1302 0.05929 0.66516 0.0
H277 H 0.80918 0.70823 0.80942 0.0
H278 H 0.71068 0.73499 0.77777 0.0
H279 H 0.17161 0.82625 0.75719 0.0
H280 H 0.63894 0.87856 0.74377 0.0
H281 H 0.68541 0.95366 0.75063 0.0
H282 H 0.33144 0.03077 0.72234 0.0
H283 H 0.64904 0.79694 0.75376 0.0
H284 H 0.35532 0.8894 0.77572 0.0
H285 H 0.28375 0.82314 0.77912 0.0
N286 N 0.17621 0.89499 0.74609 0.0
C287 C 0.2162 0.93058 0.74131 0.0
C288 C 0.20086 0.85605 0.75759 0.0
C289 C 0.30531 0.89129 0.76713 0.0
C290 C 0.26506 0.85387 0.76918 0.0
C291 C 0.28173 0.92987 0.75206 0.0
H292 H 0.37259 0.96703 0.75442 0.0
N293 N 0.13074 0.96503 0.71161 0.0
C294 C 0.19301 0.96647 0.7232 0.0
C295 C 0.21135 0.03662 0.69478 0.0
C296 C 0.23479 1.00257 0.71541 0.0
C297 C 0.10864 0.99724 0.69021 0.0
C298 C 0.14828 0.03364 0.68178 0.0
O299 O 0.93554 0.84432 0.76456 0.0
O300 O 0.96498 0.87983 0.71571 0.0
O301 O 0.07183 0.90643 0.67295 0.0
O302 O 0.10484 0.84768 0.6988 0.0
O303 O 0.02076 0.878 0.81672 0.0
O304 O 0.05817 0.84801 0.76706 0.0
O305 O 0.08532 0.94582 0.77474 0.0
O306 O 0.98221 0.96197 0.79647 0.0
O307 O 0.92661 0.8895 0.8562 0.0
O308 O 0.85626 0.93467 0.83637 0.0
O309 O 0.994 0.95586 0.72105 0.0
O310 O 0.90502 0.95028 0.75859 0.0
C311 C 0.92981 0.8498 0.73179 0.0
C312 C 0.06262 0.85368 0.80007 0.0
C313 C 0.15657 0.86804 0.64638 0.0
C314 C 0.19985 0.8727 0.58846 0.0
C315 C 0.27339 0.86562 0.6363 0.0
C316 C 0.22048 0.8649 0.65871 0.0
C317 C 0.26326 0.86951 0.60141 0.0
C318 C 0.14647 0.87209 0.6111 0.0
C319 C 0.10013 0.8686 0.66981 0.0
C320 C 0.29896 1.00305 0.7277 0.0
C321 C 0.32235 0.96681 0.74603 0.0
H322 H 0.24198 0.06484 0.68816 0.0
C323 C 0.04612 0.96821 0.79508 0.0
C324 C 0.93599 0.96774 0.73183 0.0
C325 C 0.83048 0.89834 0.88854 0.0
C326 C 0.79504 0.88783 0.9477 0.0
C327 C 0.731 0.85712 0.90157 0.0
C328 C 0.77564 0.87416 0.87786 0.0
C329 C 0.74062 0.86375 0.93621 0.0
C330 C 0.83986 0.90538 0.92359 0.0
C331 C 0.87869 0.9154 0.86344 0.0
H332 H 0.32251 0.86328 0.64603 0.0
H333 H 0.2297 0.86204 0.68561 0.0
H334 H 0.30496 0.87013 0.58444 0.0
H335 H 0.09741 0.87496 0.60128 0.0
H336 H 0.6889 0.83845 0.89306 0.0
H337 H 0.76734 0.86837 0.85119 0.0
H338 H 0.70568 0.84984 0.95416 0.0
H339 H 0.88222 0.92385 0.93214 0.0
C340 C 0.72052 0.64774 0.28668 0.0
C341 C 0.71264 0.7194 0.31289 0.0
C342 C 0.6853 0.67765 0.30543 0.0
C343 C 0.77432 0.73122 0.2998 0.0
C344 C 0.78338 0.65882 0.27444 0.0
C345 C 0.80955 0.70103 0.28054 0.0
N346 N 0.69382 0.60726 0.28111 0.0
C347 C 0.72923 0.57513 0.26592 0.0
C348 C 0.81856 0.62679 0.25705 0.0
C349 C 0.79167 0.58457 0.25319 0.0
Gd350 Gd 0.44734 0.5863 0.22571 0.0
Gd351 Gd 0.58786 0.5943 0.30177 0.0
N352 N 0.62558 0.66524 0.31754 0.0
C353 C 0.67777 0.74771 0.33386 0.0
C354 C 0.5935 0.69171 0.33987 0.0
C355 C 0.61839 0.73351 0.3478 0.0
H356 H 0.54897 0.68071 0.35217 0.0
H357 H 0.59204 0.75456 0.36496 0.0
H358 H 0.47942 0.48723 0.19523 0.0
H359 H 0.70927 0.54223 0.26342 0.0
H360 H 0.42809 0.41276 0.19376 0.0
H361 H 0.69704 0.78006 0.34015 0.0
H362 H 0.79567 0.76336 0.30491 0.0
H363 H 0.32559 0.65776 0.24572 0.0
H364 H 0.86702 0.63399 0.24726 0.0
H365 H 0.81908 0.55922 0.24053 0.0
H366 H 0.2166 0.43363 0.2435 0.0
H367 H 0.85753 0.71032 0.27108 0.0
H368 H 0.15579 0.5811 0.27089 0.0
H369 H 0.21223 0.65341 0.26566 0.0
N370 N 0.33673 0.58787 0.24275 0.0
C371 C 0.30511 0.54804 0.24336 0.0
C372 C 0.30314 0.62562 0.24928 0.0
C373 C 0.20629 0.5826 0.26273 0.0
C374 C 0.23808 0.62346 0.25997 0.0
C375 C 0.2393 0.54431 0.25376 0.0
H376 H 0.15803 0.49918 0.26278 0.0
N377 N 0.40077 0.51567 0.22187 0.0
C378 C 0.33795 0.51095 0.23251 0.0
C379 C 0.33985 0.43351 0.21854 0.0
C380 C 0.30619 0.46944 0.23179 0.0
C381 C 0.43187 0.4818 0.20639 0.0
C382 C 0.40254 0.43993 0.20518 0.0
O383 O 0.60909 0.62458 0.25006 0.0
O384 O 0.51021 0.64846 0.22913 0.0
O385 O 0.47234 0.58062 0.17217 0.0
O386 O 0.38146 0.6096 0.18668 0.0
O387 O 0.50029 0.63778 0.30906 0.0
O388 O 0.43402 0.64401 0.26109 0.0
O389 O 0.45259 0.53082 0.26513 0.0
O390 O 0.48529 0.56996 0.31105 0.0
O391 O 0.59165 0.59433 0.35674 0.0
O392 O 0.64375 0.54476 0.32952 0.0
O393 O 0.54787 0.5593 0.21668 0.0
O394 O 0.58739 0.53329 0.26806 0.0
C395 C 0.574 0.65238 0.23227 0.0
C396 C 0.45241 0.6559 0.29178 0.0
C397 C 0.43051 0.6366 0.13669 0.0
C398 C 0.41804 0.66527 0.0791 0.0
C399 C 0.46602 0.71135 0.12272 0.0
C400 C 0.45804 0.67717 0.14642 0.0
C401 C 0.44607 0.70553 0.08924 0.0
C402 C 0.41059 0.6307 0.10294 0.0
C403 C 0.42056 0.60088 0.16176 0.0
C404 C 0.24162 0.46535 0.2435 0.0
C405 C 0.20826 0.50269 0.25445 0.0
H406 H 0.31713 0.40107 0.21751 0.0
C407 C 0.46011 0.53424 0.29806 0.0
C408 C 0.58059 0.53046 0.23476 0.0
C409 C 0.68891 0.57119 0.3816 0.0
C410 C 0.72954 0.58716 0.43872 0.0
C411 C 0.802 0.59321 0.38981 0.0
C412 C 0.75116 0.58079 0.3683 0.0
C413 C 0.79127 0.59674 0.4247 0.0
C414 C 0.67861 0.57384 0.41695 0.0
C415 C 0.63291 0.56248 0.35896 0.0
H416 H 0.48758 0.74247 0.13037 0.0
H417 H 0.473 0.68252 0.17232 0.0
H418 H 0.4527 0.73235 0.07113 0.0
H419 H 0.38928 0.59946 0.09521 0.0
H420 H 0.84973 0.60084 0.37931 0.0
H421 H 0.76033 0.57942 0.34129 0.0
H422 H 0.83108 0.60728 0.4408 0.0
H423 H 0.63051 0.56702 0.42743 0.0
C424 C 0.18917 0.98786 0.36812 0.0
C425 C 0.17659 0.94319 0.36068 0.0
C426 C 0.10921 0.96675 0.31235 0.0
C427 C 0.11435 0.01149 0.32327 0.0
N428 N 0.1426 0.0594 0.37069 0.0
N429 N 0.11945 0.889 0.32754 0.0
C430 C 0.1495 0.02072 0.35369 0.0
C431 C 0.13559 0.93221 0.33304 0.0
N432 N 0.23961 0.99927 0.38894 0.0
N433 N 0.07722 0.95685 0.28304 0.0
H434 H 0.13836 0.86321 0.34202 0.0
H435 H 0.08403 0.87887 0.31035 0.0
H436 H 0.05163 0.97999 0.26894 0.0
H437 H 0.07854 0.92593 0.2718 0.0
H438 H 0.2542 0.03197 0.39264 0.0
H439 H 0.27145 0.97611 0.39909 0.0
H440 H 0.16295 0.06469 0.39453 0.0
H441 H 0.11109 0.08425 0.36376 0.0
C442 C 0.42669 0.55366 0.87351 0.0
C443 C 0.37794 0.58274 0.86171 0.0
C444 C 0.37585 0.54134 0.80852 0.0
C445 C 0.41634 0.50826 0.82304 0.0
N446 N 0.45389 0.47723 0.87666 0.0
N447 N 0.29091 0.5933 0.82118 0.0
C448 C 0.43327 0.51237 0.85786 0.0
C449 C 0.34745 0.57319 0.83021 0.0
N450 N 0.46977 0.56581 0.89809 0.0
N451 N 0.36725 0.54482 0.7743 0.0
H452 H 0.26598 0.61424 0.83741 0.0
H453 H 0.26526 0.58475 0.79936 0.0
H454 H 0.39248 0.52607 0.75676 0.0
H455 H 0.34136 0.57061 0.76328 0.0
H456 H 0.50811 0.54559 0.90549 0.0
H457 H 0.47273 0.59778 0.90744 0.0
H458 H 0.46289 0.47965 0.90262 0.0
H459 H 0.45468 0.44514 0.86758 0.0
C460 C 0.65107 0.5629 0.69934 0.0
C461 C 0.63062 0.56725 0.66505 0.0
C462 C 0.55488 0.50475 0.67449 0.0
C463 C 0.57036 0.50387 0.70958 0.0
N464 N 0.61348 0.5457 0.75602 0.0
N465 N 0.54531 0.55095 0.62457 0.0
C466 C 0.61288 0.53686 0.72227 0.0
C467 C 0.5772 0.54072 0.65389 0.0
N468 N 0.70793 0.58193 0.71005 0.0
N469 N 0.52074 0.47085 0.66032 0.0
H470 H 0.55518 0.57962 0.61055 0.0
H471 H 0.50395 0.53385 0.61647 0.0
H472 H 0.50471 0.44362 0.6743 0.0
H473 H 0.51423 0.46797 0.63424 0.0
H474 H 0.72596 0.57687 0.73445 0.0
H475 H 0.74029 0.59831 0.69364 0.0
H476 H 0.6393 0.57246 0.76594 0.0
H477 H 0.58118 0.53005 0.77288 0.0
C478 C 0.85053 0.95391 0.2081 0.0
C479 C 0.87005 0.95124 0.17344 0.0
C480 C 0.93591 0.01842 0.18203 0.0
C481 C 0.92632 0.01555 0.2177 0.0
N482 N 0.89203 0.96827 0.26396 0.0
N483 N 0.94985 0.97564 0.13137 0.0
C484 C 0.88821 0.97995 0.23067 0.0
C485 C 0.91804 0.98205 0.16136 0.0
N486 N 0.79546 0.93284 0.2196 0.0
N487 N 0.96 0.05617 0.16755 0.0
H488 H 0.94573 0.94655 0.11765 0.0
H489 H 0.98656 0.99688 0.12249 0.0
H490 H 0.96754 0.08443 0.18169 0.0
H491 H 0.96359 0.06081 0.14136 0.0
H492 H 0.77852 0.93637 0.24442 0.0
H493 H 0.76317 0.91658 0.20346 0.0
H494 H 0.86856 0.94014 0.27377 0.0
H495 H 0.92588 0.98302 0.28004 0.0
C496 C 0.83317 0.06644 0.70256 0.0
C497 C 0.85833 0.07329 0.66913 0.0
C498 C 0.91588 1.00376 0.67497 0.0
C499 C 0.90357 1.00243 0.71057 0.0
N500 N 0.86026 0.04145 0.75899 0.0
N501 N 0.94148 0.05289 0.62848 0.0
C502 C 0.86458 0.03612 0.72474 0.0
C503 C 0.90483 0.04323 0.65663 0.0
N504 N 0.77861 0.08782 0.71303 0.0
N505 N 0.93605 0.96721 0.65814 0.0
H506 H 0.94019 0.08335 0.61601 0.0
H507 H 0.97908 0.03259 0.62038 0.0
H508 H 0.9385 0.93625 0.66967 0.0
H509 H 0.94173 0.96681 0.63183 0.0
H510 H 0.75629 0.08118 0.73638 0.0
H511 H 0.75163 0.10795 0.69689 0.0
H512 H 0.83618 0.06797 0.76983 0.0
H513 H 0.88676 0.02287 0.77632 0.0
C514 C 0.61718 0.4198 0.19377 0.0
C515 C 0.66563 0.43266 0.1697 0.0
C516 C 0.66455 0.50835 0.1913 0.0
C517 C 0.61601 0.49569 0.21558 0.0
N518 N 0.55463 0.43769 0.24399 0.0
N519 N 0.74655 0.48557 0.15066 0.0
C520 C 0.59582 0.4507 0.21839 0.0
C521 C 0.69278 0.47588 0.17012 0.0
N522 N 0.58878 0.37882 0.19179 0.0
N523 N 0.68269 0.55171 0.18787 0.0
H524 H 0.76823 0.46256 0.1348 0.0
H525 H 0.77322 0.51491 0.15239 0.0
H526 H 0.66682 0.57608 0.20425 0.0
H527 H 0.71094 0.56406 0.16786 0.0
H528 H 0.54766 0.36911 0.20566 0.0
H529 H 0.60369 0.35515 0.17447 0.0
H530 H 0.54432 0.40483 0.25007 0.0
H531 H 0.53289 0.45987 0.26031 0.0
C532 C 0.42955 0.43654 0.3589 0.0
C533 C 0.36172 0.44075 0.36511 0.0
C534 C 0.35942 0.50704 0.32911 0.0
C535 C 0.42642 0.50174 0.32111 0.0
N536 N 0.52615 0.46158 0.32828 0.0
N537 N 0.25939 0.4742 0.35129 0.0
C538 C 0.46163 0.46628 0.33583 0.0
C539 C 0.32582 0.47404 0.34847 0.0
N540 N 0.46358 0.40509 0.37625 0.0
N541 N 0.32902 0.54528 0.32049 0.0
H542 H 0.2334 0.45088 0.36576 0.0
H543 H 0.2299 0.49479 0.33685 0.0
H544 H 0.35256 0.57079 0.30726 0.0
H545 H 0.2827 0.55348 0.3291 0.0
H546 H 0.51416 0.40318 0.37648 0.0
H547 H 0.44095 0.38131 0.39176 0.0
H548 H 0.55315 0.43381 0.33434 0.0
H549 H 0.55272 0.48529 0.31477 0.0
C550 C 0.15665 0.06147 0.82874 0.0
C551 C 0.12911 0.06893 0.86134 0.0
C552 C 0.05393 1.00695 0.8519 0.0
C553 C 0.0749 1.00336 0.81766 0.0
N554 N 0.13007 0.04084 0.77151 0.0
N555 N 0.03384 0.0578 0.89716 0.0
C556 C 0.12206 0.03436 0.80541 0.0
C557 C 0.07218 0.04454 0.87086 0.0
N558 N 0.21611 0.07895 0.82006 0.0
N559 N 0.01985 0.97352 0.86727 0.0
H560 H 0.04194 0.08736 0.90988 0.0
H561 H 0.98957 0.04223 0.90321 0.0
H562 H 0.01319 0.94337 0.85555 0.0
H563 H 0.00736 0.9737 0.89295 0.0
H564 H 0.23935 0.07139 0.79729 0.0
H565 H 0.24487 0.09682 0.83694 0.0
H566 H 0.16045 0.06559 0.76144 0.0
H567 H 0.09857 0.02614 0.75425 0.0
C568 C 0.22565 0.09384 1.00069 0.0
C569 C 0.17295 0.11019 0.98129 0.0
C570 C 0.09862 0.09817 0.02979 0.0
C571 C 0.15188 0.08378 0.0497 0.0
N572 N 0.26749 0.07395 0.05631 0.0
N573 N 0.06175 0.13495 0.97856 0.0
C574 C 0.2159 0.08342 0.03576 0.0
C575 C 0.11017 0.11451 0.99626 0.0
N576 N 0.28453 0.08722 0.9853 0.0
N577 N 0.03658 0.09463 0.04251 0.0
H578 H 0.06768 0.14655 0.95374 0.0
H579 H 0.01727 0.14362 0.98923 0.0
H580 H 0.02624 0.08378 0.06716 0.0
H581 H 0.99493 0.09937 0.028 0.0
H582 H 0.32296 0.07079 0.99677 0.0
H583 H 0.29375 0.09582 0.96003 0.0
H584 H 0.31602 0.07738 0.04881 0.0
H585 H 0.26195 0.06577 0.08193 0.0
C586 C 0.38943 0.42338 0.50568 0.0
C587 C 0.32765 0.42831 0.49009 0.0
C588 C 0.28326 0.45902 0.54254 0.0
C589 C 0.34597 0.45653 0.55745 0.0
N590 N 0.46121 0.44367 0.55191 0.0
N591 N 0.21911 0.4578 0.491 0.0
C592 C 0.39987 0.44089 0.5386 0.0
C593 C 0.27549 0.44821 0.50777 0.0
N594 N 0.43734 0.40055 0.48953 0.0
N595 N 0.23076 0.47042 0.56192 0.0
H596 H 0.21171 0.45028 0.46553 0.0
H597 H 0.18189 0.47649 0.50137 0.0
H598 H 0.23466 0.47927 0.58734 0.0
H599 H 0.18273 0.46794 0.55366 0.0
H600 H 0.48079 0.39149 0.50106 0.0
H601 H 0.43181 0.38762 0.46528 0.0
H602 H 0.5034 0.43734 0.53811 0.0
H603 H 0.47048 0.45584 0.57609 0.0
C604 C 0.69785 0.38678 0.02085 0.0
C605 C 0.652 0.38304 0.04776 0.0
C606 C 0.56584 0.37166 1.00573 0.0
C607 C 0.61386 0.36423 0.98039 0.0
N608 N 0.72864 0.3587 0.9662 0.0
N609 N 0.5408 0.36812 0.06569 0.0
C610 C 0.68081 0.37088 0.98832 0.0
C611 C 0.5852 0.37518 0.04023 0.0
N612 N 0.7582 0.4046 0.02667 0.0
N613 N 0.50188 0.37543 0.99682 0.0
H614 H 0.5527 0.36928 0.0913 0.0
H615 H 0.49307 0.35752 0.06125 0.0
H616 H 0.48657 0.37421 0.97163 0.0
H617 H 0.46563 0.38451 1.01389 0.0
H618 H 0.79181 0.41123 1.0073 0.0
H619 H 0.77147 0.4171 0.05028 0.0
H620 H 0.77792 0.35906 0.97254 0.0
H621 H 0.71929 0.34374 0.94303 0.0
C622 C 0.84904 0.16846 0.53605 0.0
C623 C 0.8033 0.14367 0.55588 0.0
C624 C 0.75525 0.11498 0.5034 0.0
C625 C 0.79428 0.14511 0.48392 0.0
N626 N 0.8685 0.20779 0.48334 0.0
N627 N 0.70582 0.09827 0.5581 0.0
C628 C 0.83856 0.17387 0.50069 0.0
C629 C 0.75443 0.11815 0.53947 0.0
N630 N 0.90385 0.18574 0.55071 0.0
N631 N 0.72067 0.08237 0.48759 0.0
H632 H 0.70288 0.1005 0.58444 0.0
H633 H 0.66531 0.08305 0.54717 0.0
H634 H 0.72172 0.07807 0.46138 0.0
H635 H 0.69644 0.057 0.5007 0.0
H636 H 0.9416 0.2005 0.5367 0.0
H637 H 0.91504 0.18093 0.57625 0.0
H638 H 0.8962 0.23214 0.49526 0.0
H639 H 0.86004 0.21445 0.45776 0.0
C640 C 0.7582 0.91427 0.04049 0.0
C641 C 0.81027 0.89296 0.0573 0.0
C642 C 0.85519 0.87051 1.00217 0.0
C643 C 0.80453 0.89323 0.98519 0.0
N644 N 0.71674 0.94515 0.98786 0.0
N645 N 0.9173 0.86125 0.05387 0.0
C646 C 0.75879 0.91778 1.00433 0.0
C647 C 0.86162 0.87441 0.03799 0.0
N648 N 0.7069 0.92963 0.05896 0.0
N649 N 0.89516 0.84319 0.98446 0.0
H650 H 0.92419 0.86406 0.07996 0.0
H651 H 0.95903 0.85172 0.04084 0.0
H652 H 0.89199 0.83892 0.95832 0.0
H653 H 0.92783 0.82186 0.99607 0.0
H654 H 0.66402 0.94098 0.04808 0.0
H655 H 0.70525 0.92805 0.08539 0.0
H656 H 0.68644 0.9671 1.0003 0.0
H657 H 0.71661 0.94892 0.96152 0.0
C658 C 0.7531 0.57868 0.53489 0.0
C659 C 0.70566 0.60857 0.54683 0.0
C660 C 0.67486 0.6254 0.48795 0.0
C661 C 0.71847 0.59288 0.47607 0.0
N662 N 0.78806 0.53149 0.4891 0.0
N663 N 0.60947 0.651 0.53488 0.0
C664 C 0.7543 0.56736 0.49985 0.0
C665 C 0.66288 0.62907 0.52338 0.0
N666 N 0.7987 0.5624 0.55666 0.0
N667 N 0.64717 0.65437 0.46566 0.0
H668 H 0.5977 0.65326 0.56056 0.0
H669 H 0.57326 0.66279 0.51885 0.0
H670 H 0.65604 0.65398 0.43962 0.0
H671 H 0.62056 0.68157 0.47341 0.0
H672 H 0.83864 0.54426 0.54867 0.0
H673 H 0.79992 0.57028 0.58234 0.0
H674 H 0.80983 0.50915 0.50563 0.0
H675 H 0.78874 0.52157 0.46384 0.0
C676 C 0.43281 0.65937 0.98331 0.0
C677 C 0.36627 0.65828 0.97342 0.0
C678 C 0.3326 0.66097 0.03319 0.0
C679 C 0.39916 0.65934 0.04299 0.0
N680 N 0.51145 0.64712 0.02798 0.0
N681 N 0.25272 0.6512 0.98839 0.0
C682 C 0.4489 0.65547 0.01818 0.0
C683 C 0.31604 0.6569 0.99825 0.0
N684 N 0.48071 0.66601 0.95948 0.0
N685 N 0.28557 0.66815 0.0571 0.0
H686 H 0.23915 0.64904 0.96298 0.0
H687 H 0.21436 0.64533 1.00529 0.0
H688 H 0.2958 0.67079 0.0829 0.0
H689 H 0.23714 0.67453 0.05125 0.0
H690 H 0.52936 0.67203 0.96555 0.0
H691 H 0.47126 0.66949 0.93365 0.0
H692 H 0.54852 0.63925 1.01103 0.0
H693 H 0.52502 0.64386 0.05334 0.0
C694 C 0.21842 0.91987 0.49932 0.0
C695 C 0.19987 0.88303 0.47933 0.0
C696 C 0.17269 0.84069 0.53114 0.0
C697 C 0.19092 0.87764 0.55103 0.0
N698 N 0.21449 0.95547 0.55419 0.0
N699 N 0.1448 0.81266 0.47544 0.0
C700 C 0.20821 0.91829 0.53507 0.0
C701 C 0.17213 0.84481 0.49508 0.0
N702 N 0.24927 0.95539 0.48448 0.0
N703 N 0.15898 0.80109 0.54663 0.0
H704 H 0.14358 0.81492 0.44902 0.0
H705 H 0.11825 0.78591 0.48526 0.0
H706 H 0.15768 0.797 0.57292 0.0
H707 H 0.15295 0.77166 0.53353 0.0
H708 H 0.27087 0.98085 0.49815 0.0
H709 H 0.25769 0.95796 0.45847 0.0
H710 H 0.22064 0.98699 0.54382 0.0
H711 H 0.20724 0.9553 0.58041 0.0
C712 C 0.14284 0.27561 0.34037 0.0
C713 C 0.18998 0.2606 0.36363 0.0
C714 C 0.17109 0.18465 0.3451 0.0
C715 C 0.11579 0.1984 0.32641 0.0
N716 N 0.04736 0.25789 0.30716 0.0
N717 N 0.24893 0.20088 0.38942 0.0
C718 C 0.10173 0.24428 0.32388 0.0
C719 C 0.20438 0.21516 0.36621 0.0
N720 N 0.13771 0.31983 0.33397 0.0
N721 N 0.19433 0.14311 0.3411 0.0
H722 H 0.27702 0.22242 0.40401 0.0
H723 H 0.2553 0.16771 0.39556 0.0
H724 H 0.17274 0.12064 0.32471 0.0
H725 H 0.23839 0.13248 0.35113 0.0
H726 H 0.10909 0.33288 0.31467 0.0
H727 H 0.1671 0.3433 0.34595 0.0
H728 H 0.03048 0.29012 0.30756 0.0
H729 H 0.01609 0.23621 0.29486 0.0
C730 C 0.35921 0.25244 0.84724 0.0
C731 C 0.30423 0.27116 0.86317 0.0
C732 C 0.34587 0.34586 0.84962 0.0
C733 C 0.39808 0.32726 0.83093 0.0
N734 N 0.45737 0.26333 0.81321 0.0
N735 N 0.24258 0.33477 0.87923 0.0
C736 C 0.40561 0.28059 0.83026 0.0
C737 C 0.29746 0.31764 0.86477 0.0
N738 N 0.36747 0.20774 0.84903 0.0
N739 N 0.34147 0.39063 0.85212 0.0
H740 H 0.20709 0.31539 0.89147 0.0
H741 H 0.22981 0.36782 0.87774 0.0
H742 H 0.37059 0.41233 0.83806 0.0
H743 H 0.31051 0.40662 0.86879 0.0
H744 H 0.40873 0.19158 0.84051 0.0
H745 H 0.33391 0.1865 0.86096 0.0
H746 H 0.4621 0.23012 0.80745 0.0
H747 H 0.49632 0.28278 0.80447 0.0
C748 C 0.6548 0.2569 0.69582 0.0
C749 C 0.70407 0.2794 0.67709 0.0
C750 C 0.64857 0.34961 0.68551 0.0
C751 C 0.60431 0.3282 0.7085 0.0
N752 N 0.56641 0.26117 0.73641 0.0
N753 N 0.75092 0.34661 0.65437 0.0
C754 C 0.60746 0.28166 0.71368 0.0
C755 C 0.70126 0.32551 0.67154 0.0
N756 N 0.65297 0.21175 0.69618 0.0
N757 N 0.64152 0.39325 0.67769 0.0
H758 H 0.78873 0.32976 0.6426 0.0
H759 H 0.75704 0.38074 0.65335 0.0
H760 H 0.60707 0.41291 0.68917 0.0
H761 H 0.66698 0.4095 0.65828 0.0
H762 H 0.61462 0.19306 0.70642 0.0
H763 H 0.6873 0.1928 0.68348 0.0
H764 H 0.57187 0.22878 0.74482 0.0
H765 H 0.52824 0.27723 0.74826 0.0
C766 C 0.86463 0.27111 0.21102 0.0
C767 C 0.83614 0.25502 0.18093 0.0
C768 C 0.86062 0.179 0.19811 0.0
C769 C 0.89453 0.19544 0.22679 0.0
N770 N 0.89906 0.25449 0.268 0.0
N771 N 0.805 0.19443 0.14508 0.0
C772 C 0.88792 0.24069 0.23565 0.0
C773 C 0.83263 0.20907 0.17452 0.0
N774 N 0.87173 0.31559 0.21558 0.0
N775 N 0.85151 0.13446 0.19489 0.0
H776 H 0.78122 0.21527 0.12808 0.0
H777 H 0.80784 0.16218 0.1365 0.0
H778 H 0.867 0.11201 0.21322 0.0
H779 H 0.82319 0.11967 0.17626 0.0
H780 H 0.9001 0.3293 0.23474 0.0
H781 H 0.85355 0.33891 0.19857 0.0
H782 H 0.89035 0.28649 0.27607 0.0
H783 H 0.90663 0.23316 0.28826 0.0
C784 C 0.79131 0.81374 0.67273 0.0
C785 C 0.79167 0.76729 0.67749 0.0
C786 C 0.88634 0.7746 0.71493 0.0
C787 C 0.88266 0.8214 0.71259 0.0
N788 N 0.82236 0.88525 0.69445 0.0
N789 N 0.83139 0.7038 0.70765 0.0
C790 C 0.83273 0.84093 0.69278 0.0
C791 C 0.83656 0.74781 0.70011 0.0
N792 N 0.75199 0.83206 0.64861 0.0
N793 N 0.93946 0.75566 0.72956 0.0
H794 H 0.79627 0.68325 0.69669 0.0
H795 H 0.85809 0.6886 0.72679 0.0
H796 H 0.9789 0.7742 0.73834 0.0
H797 H 0.94779 0.72184 0.72956 0.0
H798 H 0.75542 0.86504 0.64107 0.0
H799 H 0.71915 0.81363 0.6342 0.0
H800 H 0.78212 0.90067 0.68382 0.0
H801 H 0.85021 0.90613 0.70944 0.0
C802 C 0.67488 0.75645 0.2152 0.0
C803 C 0.69877 0.74801 0.18214 0.0
C804 C 0.63145 0.68066 0.1794 0.0
C805 C 0.60941 0.68804 0.21307 0.0
N806 N 0.59441 0.73887 0.2588 0.0
N807 N 0.68793 0.70957 0.12938 0.0
C808 C 0.62617 0.72792 0.22964 0.0
C809 C 0.67302 0.71249 0.16311 0.0
N810 N 0.70032 0.79089 0.23322 0.0
N811 N 0.61419 0.64258 0.16337 0.0
H812 H 0.71838 0.73241 0.11692 0.0
H813 H 0.66603 0.68706 0.11308 0.0
H814 H 0.58145 0.61981 0.17391 0.0
H815 H 0.63441 0.63241 0.14054 0.0
H816 H 0.69045 0.79601 0.25879 0.0
H817 H 0.73416 0.81334 0.22291 0.0
H818 H 0.59883 0.76957 0.27022 0.0
H819 H 0.55941 0.71825 0.27013 0.0
C820 C 0.3782 0.72347 0.3627 0.0
C821 C 0.36744 0.76424 0.34606 0.0
C822 C 0.40636 0.7338 0.29242 0.0
C823 C 0.41667 0.69231 0.30893 0.0
N824 N 0.39347 0.64501 0.35741 0.0
N825 N 0.35485 0.80557 0.2943 0.0
C826 C 0.39684 0.68637 0.34338 0.0
C827 C 0.37594 0.76843 0.3106 0.0
N828 N 0.37241 0.72037 0.39723 0.0
N829 N 0.4291 0.74152 0.26025 0.0
H830 H 0.3332 0.83158 0.30713 0.0
H831 H 0.3531 0.8088 0.268 0.0
H832 H 0.4519 0.71797 0.2456 0.0
H833 H 0.43034 0.77266 0.24889 0.0
H834 H 0.38818 0.69329 0.41127 0.0
H835 H 0.35557 0.74611 0.41217 0.0
H836 H 0.37269 0.63815 0.38106 0.0
H837 H 0.40508 0.61676 0.3441 0.0
C838 C 0.20626 0.82598 0.85823 0.0
C839 C 0.21869 0.78232 0.84799 0.0
C840 C 0.11893 0.78217 0.81407 0.0
C841 C 0.11226 0.82824 0.81968 0.0
N842 N 0.1551 0.89515 0.84487 0.0
N843 N 0.18996 0.71872 0.81487 0.0
C844 C 0.15677 0.85038 0.84162 0.0
C845 C 0.17571 0.76024 0.82568 0.0
N846 N 0.24175 0.8442 0.88396 0.0
N847 N 0.07014 0.75912 0.79847 0.0
H848 H 0.22974 0.70105 0.82388 0.0
H849 H 0.16491 0.70294 0.79542 0.0
H850 H 0.02721 0.77385 0.79061 0.0
H851 H 0.06911 0.72488 0.7965 0.0
H852 H 0.23034 0.87417 0.8951 0.0
H853 H 0.27897 0.82739 0.89634 0.0
H854 H 0.19152 0.91354 0.85674 0.0
H855 H 0.12027 0.91461 0.83337 0.0
loop_
_geom_bond_atom_site_label_1
_geom_bond_atom_site_label_2
_geom_bond_distance
_geom_bond_site_symmetry_2
_ccdc_geom_bond_type
H0 C3 0.929 . S
H1 C6 0.929 . S
H2 C8 0.930 . S
C3 H0 0.929 . S
C3 C4 1.398 . S
C3 C5 1.396 . S
C4 C3 1.398 . S
C4 C8 1.407 . S
C5 C3 1.396 . S
C5 C6 1.394 . S
C6 H1 0.929 . S
C6 C5 1.394 . S
C6 C7 1.382 . S
C7 C6 1.382 . S
C7 C8 1.392 . S
C7 N9 1.420 . S
C8 H2 0.930 . S
C8 C4 1.407 . S
C8 C7 1.392 . S
N9 C7 1.420 . S
N9 C10 1.244 . S
C10 N9 1.244 . S
H11 C14 0.929 . S
H12 C17 0.929 . S
H13 C19 0.930 . S
C14 H11 0.929 . S
C14 C15 1.398 . S
C14 C16 1.396 . S
C15 C14 1.398 . S
C15 C19 1.407 . S
C16 C14 1.396 . S
C16 C17 1.394 . S
C17 H12 0.929 . S
C17 C16 1.394 . S
C17 C18 1.382 . S
C18 C17 1.382 . S
C18 C19 1.392 . S
C18 N20 1.420 . S
C19 H13 0.930 . S
C19 C15 1.407 . S
C19 C18 1.392 . S
N20 C18 1.420 . S
N20 C21 1.244 . S
C21 N20 1.244 . S
H22 C25 0.929 . S
H23 C28 0.929 . S
H24 C30 0.930 . S
C25 H22 0.929 . S
C25 C26 1.398 . S
C25 C27 1.396 . S
C26 C25 1.398 . S
C26 C30 1.407 . S
C27 C25 1.396 . S
C27 C28 1.394 . S
C28 H23 0.929 . S
C28 C27 1.394 . S
C28 C29 1.382 . S
C29 C28 1.382 . S
C29 C30 1.392 . S
C29 N31 1.420 . S
C30 H24 0.930 . S
C30 C26 1.407 . S
C30 C29 1.392 . S
N31 C29 1.420 . S
N31 C32 1.244 . S
C32 N31 1.244 . S
H33 C36 0.929 . S
H34 C39 0.929 . S
H35 C41 0.930 . S
C36 H33 0.929 . S
C36 C37 1.398 . S
C36 C38 1.396 . S
C37 C36 1.398 . S
C37 C41 1.407 . S
C38 C36 1.396 . S
C38 C39 1.394 . S
C39 H34 0.929 . S
C39 C38 1.394 . S
C39 C40 1.382 . S
C40 C39 1.382 . S
C40 C41 1.392 . S
C40 N42 1.420 . S
C41 H35 0.930 . S
C41 C37 1.407 . S
C41 C40 1.392 . S
N42 C40 1.420 . S
N42 C43 1.244 . S
C43 N42 1.244 . S
H44 C47 0.929 . S
H45 C50 0.929 . S
H46 C52 0.930 . S
C47 H44 0.929 . S
C47 C48 1.398 . S
C47 C49 1.396 . S
C48 C47 1.398 . S
C48 C52 1.407 . S
C49 C47 1.396 . S
C49 C50 1.394 . S
C50 H45 0.929 . S
C50 C49 1.394 . S
C50 C51 1.382 . S
C51 C50 1.382 . S
C51 C52 1.392 . S
C51 N53 1.420 . S
C52 H46 0.930 . S
C52 C48 1.407 . S
C52 C51 1.392 . S
N53 C51 1.420 . S
N53 C54 1.244 . S
C54 N53 1.244 . S
H55 C58 0.929 . S
H56 C61 0.929 . S
H57 C63 0.930 . S
C58 H55 0.929 . S
C58 C59 1.398 . S
C58 C60 1.396 . S
C59 C58 1.398 . S
C59 C63 1.407 . S
C60 C58 1.396 . S
C60 C61 1.394 . S
C61 H56 0.929 . S
C61 C60 1.394 . S
C61 C62 1.382 . S
C62 C61 1.382 . S
C62 C63 1.392 . S
C62 N64 1.420 . S
C63 H57 0.930 . S
C63 C59 1.407 . S
C63 C62 1.392 . S
N64 C62 1.420 . S
N64 C65 1.244 . S
C65 N64 1.244 . S
H66 C69 0.929 . S
H67 C72 0.929 . S
H68 C74 0.930 . S
C69 H66 0.929 . S
C69 C70 1.398 . S
C69 C71 1.396 . S
C70 C69 1.398 . S
C70 C74 1.407 . S
C71 C69 1.396 . S
C71 C72 1.394 . S
C72 H67 0.929 . S
C72 C71 1.394 . S
C72 C73 1.382 . S
C73 C72 1.382 . S
C73 C74 1.392 . S
C73 N75 1.420 . S
C74 H68 0.930 . S
C74 C70 1.407 . S
C74 C73 1.392 . S
N75 C73 1.420 . S
N75 C76 1.244 . S
C76 N75 1.244 . S
H77 C80 0.929 . S
H78 C83 0.929 . S
H79 C85 0.930 . S
C80 H77 0.929 . S
C80 C81 1.398 . S
C80 C82 1.396 . S
C81 C80 1.398 . S
C81 C85 1.407 . S
C82 C80 1.396 . S
C82 C83 1.394 . S
C83 H78 0.929 . S
C83 C82 1.394 . S
C83 C84 1.382 . S
C84 C83 1.382 . S
C84 C85 1.392 . S
C84 N86 1.420 . S
C85 H79 0.930 . S
C85 C81 1.407 . S
C85 C84 1.392 . S
N86 C84 1.420 . S
N86 C87 1.244 . S
C87 N86 1.244 . S
C88 C90 1.422 . S
C88 C92 1.415 . S
C88 N94 1.369 . S
C89 C90 1.421 1_565 S
C89 C91 1.417 . S
C89 C101 1.422 . S
C90 C88 1.422 . S
C90 C89 1.421 1_545 S
C90 N100 1.359 . S
C91 C89 1.417 . S
C91 C93 1.329 1_565 S
C91 H110 0.930 . S
C92 C88 1.415 . S
C92 C93 1.437 . S
C92 C96 1.413 . S
C93 C91 1.329 1_545 S
C93 C92 1.437 . S
C93 H115 0.929 . S
N94 C88 1.369 . S
N94 C95 1.338 . S
N94 Gd99 2.622 . S
C95 N94 1.338 . S
C95 C97 1.378 . S
C95 H107 0.929 . S
C96 C92 1.413 . S
C96 C97 1.348 . S
C96 H112 0.931 . S
C97 C95 1.378 . S
C97 C96 1.348 . S
C97 H113 0.930 . S
Gd98 N118 2.622 . S
Gd98 N125 2.570 . S
Gd98 O132 2.353 . S
Gd98 O133 2.468 . S
Gd98 O134 2.427 . S
Gd98 O136 2.388 . S
Gd98 O137 2.386 . S
Gd98 O141 2.307 . S
Gd98 C151 2.805 . S
Gd99 N94 2.622 . S
Gd99 N100 2.570 . S
Gd99 O131 2.386 . S
Gd99 O135 2.307 1_655 S
Gd99 O138 2.353 1_655 S
Gd99 O139 2.468 . S
Gd99 O140 2.427 . S
Gd99 O142 2.388 . S
Gd99 C163 2.805 . S
N100 C90 1.359 . S
N100 Gd99 2.570 . S
N100 C102 1.343 1_545 S
C101 C89 1.422 . S
C101 C103 1.321 . S
C101 H109 0.931 . S
C102 N100 1.343 1_565 S
C102 C103 1.390 . S
C102 H104 0.931 . S
C103 C101 1.321 . S
C103 C102 1.390 . S
C103 H105 0.930 . S
H104 C102 0.931 . S
H105 C103 0.930 . S
H106 C129 0.931 . S
H107 C95 0.929 . S
H108 C130 0.930 . S
H109 C101 0.931 . S
H110 C91 0.930 . S
H111 C120 0.929 . S
H112 C96 0.931 . S
H113 C97 0.930 . S
H114 C152 0.930 . S
H115 C93 0.929 . S
H116 C121 0.931 . S
H117 C122 0.930 . S
N118 Gd98 2.622 . S
N118 C119 1.369 . S
N118 C120 1.338 . S
C119 N118 1.369 . S
C119 C123 1.415 . S
C119 C126 1.422 . S
C120 H111 0.929 . S
C120 N118 1.338 . S
C120 C122 1.378 . S
C121 H116 0.931 . S
C121 C122 1.348 . S
C121 C123 1.413 . S
C122 H117 0.930 . S
C122 C120 1.378 . S
C122 C121 1.348 . S
C123 C119 1.415 . S
C123 C121 1.413 . S
C123 C153 1.437 . S
H124 C153 0.929 . S
N125 Gd98 2.570 . S
N125 C126 1.359 . S
N125 C129 1.343 . S
C126 C119 1.422 . S
C126 N125 1.359 . S
C126 C128 1.421 . S
C127 C128 1.422 . S
C127 C130 1.321 . S
C127 H154 0.931 . S
C128 C126 1.421 . S
C128 C127 1.422 . S
C128 C152 1.417 . S
C129 H106 0.931 . S
C129 N125 1.343 . S
C129 C130 1.390 . S
C130 H108 0.930 . S
C130 C127 1.321 . S
C130 C129 1.390 . S
O131 Gd99 2.386 . S
O131 C143 1.265 . S
O132 Gd98 2.353 . S
O132 C143 1.242 1_455 S
O133 Gd98 2.468 . S
O133 C151 1.263 . S
O134 Gd98 2.427 . S
O134 C151 1.252 . S
O135 Gd99 2.307 1_455 S
O135 C144 1.261 . S
O136 Gd98 2.388 . S
O136 C144 1.252 . S
O137 Gd98 2.386 . S
O137 C155 1.265 . S
O138 Gd99 2.353 1_455 S
O138 C155 1.242 . S
O139 Gd99 2.468 . S
O139 C163 1.263 . S
O140 Gd99 2.427 . S
O140 C163 1.252 . S
O141 Gd98 2.307 . S
O141 C156 1.261 1_455 S
O142 Gd99 2.388 . S
O142 C156 1.252 . S
C143 O131 1.265 . S
C143 O132 1.242 1_655 S
C144 O135 1.261 . S
C144 O136 1.252 . S
C145 C148 1.394 . S
C145 C150 1.370 . S
C145 C151 1.500 . S
C146 C149 1.383 . S
C146 C150 1.395 . S
C147 C148 1.396 . S
C147 C149 1.365 . S
C147 H164 0.929 . S
C148 C145 1.394 . S
C148 C147 1.396 . S
C148 H165 0.930 . S
C149 C146 1.383 . S
C149 C147 1.365 . S
C149 H166 0.931 . S
C150 C145 1.370 . S
C150 C146 1.395 . S
C150 H167 0.930 . S
C151 Gd98 2.805 . S
C151 O133 1.263 . S
C151 O134 1.252 . S
C151 C145 1.500 . S
C152 H114 0.930 . S
C152 C128 1.417 . S
C152 C153 1.329 . S
C153 C123 1.437 . S
C153 H124 0.929 . S
C153 C152 1.329 . S
H154 C127 0.931 . S
C155 O137 1.265 . S
C155 O138 1.242 . S
C156 O141 1.261 1_655 S
C156 O142 1.252 . S
C157 C160 1.394 . S
C157 C162 1.370 . S
C157 C163 1.500 . S
C158 C161 1.383 . S
C158 C162 1.395 . S
C159 C160 1.396 . S
C159 C161 1.365 . S
C159 H168 0.929 . S
C160 C157 1.394 . S
C160 C159 1.396 . S
C160 H169 0.930 . S
C161 C158 1.383 . S
C161 C159 1.365 . S
C161 H170 0.931 . S
C162 C157 1.370 . S
C162 C158 1.395 . S
C162 H171 0.930 . S
C163 Gd99 2.805 . S
C163 O139 1.263 . S
C163 O140 1.252 . S
C163 C157 1.500 . S
H164 C147 0.929 . S
H165 C148 0.930 . S
H166 C149 0.931 . S
H167 C150 0.930 . S
H168 C159 0.929 . S
H169 C160 0.930 . S
H170 C161 0.931 . S
H171 C162 0.930 . S
C172 C174 1.422 . S
C172 C176 1.415 . S
C172 N178 1.369 . S
C173 C174 1.421 . S
C173 C175 1.417 . S
C173 C185 1.422 . S
C174 C172 1.422 . S
C174 C173 1.421 . S
C174 N184 1.359 . S
C175 C173 1.417 . S
C175 C177 1.329 . S
C175 H194 0.930 . S
C176 C172 1.415 . S
C176 C177 1.437 . S
C176 C180 1.413 . S
C177 C175 1.329 . S
C177 C176 1.437 . S
C177 H199 0.929 . S
N178 C172 1.369 . S
N178 C179 1.338 . S
N178 Gd183 2.622 . S
C179 N178 1.338 . S
C179 C181 1.378 . S
C179 H191 0.929 . S
C180 C176 1.413 . S
C180 C181 1.348 . S
C180 H196 0.931 . S
C181 C179 1.378 . S
C181 C180 1.348 . S
C181 H197 0.930 . S
Gd182 N202 2.622 . S
Gd182 N209 2.570 . S
Gd182 O216 2.353 . S
Gd182 O217 2.468 . S
Gd182 O218 2.427 . S
Gd182 O220 2.388 . S
Gd182 O221 2.386 . S
Gd182 O225 2.307 . S
Gd182 C235 2.805 . S
Gd183 N178 2.622 . S
Gd183 N184 2.570 . S
Gd183 O215 2.386 . S
Gd183 O219 2.307 . S
Gd183 O222 2.353 . S
Gd183 O223 2.468 . S
Gd183 O224 2.427 . S
Gd183 O226 2.388 . S
Gd183 C247 2.805 . S
N184 C174 1.359 . S
N184 Gd183 2.570 . S
N184 C186 1.343 . S
C185 C173 1.422 . S
C185 C187 1.321 . S
C185 H193 0.931 . S
C186 N184 1.343 . S
C186 C187 1.390 . S
C186 H188 0.931 . S
C187 C185 1.321 . S
C187 C186 1.390 . S
C187 H189 0.930 . S
H188 C186 0.931 . S
H189 C187 0.930 . S
H190 C213 0.931 . S
H191 C179 0.929 . S
H192 C214 0.930 . S
H193 C185 0.931 . S
H194 C175 0.930 . S
H195 C204 0.929 . S
H196 C180 0.931 . S
H197 C181 0.930 . S
H198 C236 0.930 . S
H199 C177 0.929 . S
H200 C205 0.931 . S
H201 C206 0.930 . S
N202 Gd182 2.622 . S
N202 C203 1.369 . S
N202 C204 1.338 . S
C203 N202 1.369 . S
C203 C207 1.415 . S
C203 C210 1.422 . S
C204 H195 0.929 . S
C204 N202 1.338 . S
C204 C206 1.378 . S
C205 H200 0.931 . S
C205 C206 1.348 . S
C205 C207 1.413 . S
C206 H201 0.930 . S
C206 C204 1.378 . S
C206 C205 1.348 . S
C207 C203 1.415 . S
C207 C205 1.413 . S
C207 C237 1.437 . S
H208 C237 0.929 . S
N209 Gd182 2.570 . S
N209 C210 1.359 . S
N209 C213 1.343 . S
C210 C203 1.422 . S
C210 N209 1.359 . S
C210 C212 1.421 . S
C211 C212 1.422 . S
C211 C214 1.321 . S
C211 H238 0.931 . S
C212 C210 1.421 . S
C212 C211 1.422 . S
C212 C236 1.417 . S
C213 H190 0.931 . S
C213 N209 1.343 . S
C213 C214 1.390 . S
C214 H192 0.930 . S
C214 C211 1.321 . S
C214 C213 1.390 . S
O215 Gd183 2.386 . S
O215 C227 1.265 . S
O216 Gd182 2.353 . S
O216 C227 1.242 . S
O217 Gd182 2.468 . S
O217 C235 1.263 . S
O218 Gd182 2.427 . S
O218 C235 1.252 . S
O219 Gd183 2.307 . S
O219 C228 1.261 . S
O220 Gd182 2.388 . S
O220 C228 1.252 . S
O221 Gd182 2.386 . S
O221 C239 1.265 . S
O222 Gd183 2.353 . S
O222 C239 1.242 . S
O223 Gd183 2.468 . S
O223 C247 1.263 . S
O224 Gd183 2.427 . S
O224 C247 1.252 . S
O225 Gd182 2.307 . S
O225 C240 1.261 . S
O226 Gd183 2.388 . S
O226 C240 1.252 . S
C227 O215 1.265 . S
C227 O216 1.242 . S
C228 O219 1.261 . S
C228 O220 1.252 . S
C229 C232 1.394 . S
C229 C234 1.370 . S
C229 C235 1.500 . S
C230 C233 1.383 . S
C230 C234 1.395 . S
C231 C232 1.396 . S
C231 C233 1.365 . S
C231 H248 0.929 . S
C232 C229 1.394 . S
C232 C231 1.396 . S
C232 H249 0.930 . S
C233 C230 1.383 . S
C233 C231 1.365 . S
C233 H250 0.931 . S
C234 C229 1.370 . S
C234 C230 1.395 . S
C234 H251 0.930 . S
C235 Gd182 2.805 . S
C235 O217 1.263 . S
C235 O218 1.252 . S
C235 C229 1.500 . S
C236 H198 0.930 . S
C236 C212 1.417 . S
C236 C237 1.329 . S
C237 C207 1.437 . S
C237 H208 0.929 . S
C237 C236 1.329 . S
H238 C211 0.931 . S
C239 O221 1.265 . S
C239 O222 1.242 . S
C240 O225 1.261 . S
C240 O226 1.252 . S
C241 C244 1.394 . S
C241 C246 1.370 . S
C241 C247 1.500 . S
C242 C245 1.383 . S
C242 C246 1.395 . S
C243 C244 1.396 . S
C243 C245 1.365 . S
C243 H252 0.929 . S
C244 C241 1.394 . S
C244 C243 1.396 . S
C244 H253 0.930 . S
C245 C242 1.383 . S
C245 C243 1.365 . S
C245 H254 0.931 . S
C246 C241 1.370 . S
C246 C242 1.395 . S
C246 H255 0.930 . S
C247 Gd183 2.805 . S
C247 O223 1.263 . S
C247 O224 1.252 . S
C247 C241 1.500 . S
H248 C231 0.929 . S
H249 C232 0.930 . S
H250 C233 0.931 . S
H251 C234 0.930 . S
H252 C243 0.929 . S
H253 C244 0.930 . S
H254 C245 0.931 . S
H255 C246 0.930 . S
C256 C258 1.422 . S
C256 C260 1.415 . S
C256 N262 1.369 . S
C257 C258 1.421 . S
C257 C259 1.417 . S
C257 C269 1.422 . S
C258 C256 1.422 . S
C258 C257 1.421 . S
C258 N268 1.359 . S
C259 C257 1.417 . S
C259 C261 1.329 . S
C259 H278 0.930 . S
C260 C256 1.415 . S
C260 C261 1.437 . S
C260 C264 1.413 . S
C261 C259 1.329 . S
C261 C260 1.437 . S
C261 H283 0.929 . S
N262 C256 1.369 . S
N262 C263 1.338 . S
N262 Gd267 2.622 . S
C263 N262 1.338 . S
C263 C265 1.378 . S
C263 H275 0.929 . S
C264 C260 1.413 . S
C264 C265 1.348 . S
C264 H280 0.931 . S
C265 C263 1.378 . S
C265 C264 1.348 . S
C265 H281 0.930 . S
Gd266 N286 2.622 . S
Gd266 N293 2.570 . S
Gd266 O300 2.353 1_455 S
Gd266 O301 2.468 . S
Gd266 O302 2.427 . S
Gd266 O304 2.388 . S
Gd266 O305 2.386 . S
Gd266 O309 2.295 1_455 S
Gd266 C319 2.805 . S
Gd267 N262 2.622 . S
Gd267 N268 2.570 . S
Gd267 O299 2.386 . S
Gd267 O303 2.307 1_655 S
Gd267 O306 2.353 1_655 S
Gd267 O307 2.468 . S
Gd267 O308 2.427 . S
Gd267 O310 2.388 . S
Gd267 C331 2.805 . S
N268 C258 1.359 . S
N268 Gd267 2.570 . S
N268 C270 1.343 . S
C269 C257 1.422 . S
C269 C271 1.321 . S
C269 H277 0.931 . S
C270 N268 1.343 . S
C270 C271 1.390 . S
C270 H272 0.931 . S
C271 C269 1.321 . S
C271 C270 1.390 . S
C271 H273 0.930 . S
H272 C270 0.931 . S
H273 C271 0.930 . S
H274 C297 0.931 . S
H275 C263 0.929 . S
H276 C298 0.930 . S
H277 C269 0.931 . S
H278 C259 0.930 . S
H279 C288 0.929 . S
H280 C264 0.931 . S
H281 C265 0.930 . S
H282 C320 0.930 . S
H283 C261 0.929 . S
H284 C289 0.931 . S
H285 C290 0.930 . S
N286 Gd266 2.622 . S
N286 C287 1.369 . S
N286 C288 1.338 . S
C287 N286 1.369 . S
C287 C291 1.415 . S
C287 C294 1.422 . S
C288 H279 0.929 . S
C288 N286 1.338 . S
C288 C290 1.378 . S
C289 H284 0.931 . S
C289 C290 1.348 . S
C289 C291 1.413 . S
C290 H285 0.930 . S
C290 C288 1.378 . S
C290 C289 1.348 . S
C291 C287 1.415 . S
C291 C289 1.413 . S
C291 C321 1.437 . S
H292 C321 0.929 . S
N293 Gd266 2.570 . S
N293 C294 1.359 . S
N293 C297 1.343 1_565 S
C294 C287 1.422 . S
C294 N293 1.359 . S
C294 C296 1.421 1_565 S
C295 C296 1.422 . S
C295 C298 1.321 . S
C295 H322 0.931 . S
C296 C294 1.421 1_545 S
C296 C295 1.422 . S
C296 C320 1.417 . S
C297 H274 0.931 . S
C297 N293 1.343 1_545 S
C297 C298 1.390 . S
C298 H276 0.930 . S
C298 C295 1.321 . S
C298 C297 1.390 . S
O299 Gd267 2.386 . S
O299 C311 1.265 . S
O300 Gd266 2.353 1_655 S
O300 C311 1.242 . S
O301 Gd266 2.468 . S
O301 C319 1.263 . S
O302 Gd266 2.427 . S
O302 C319 1.252 . S
O303 Gd267 2.307 1_455 S
O303 C312 1.261 . S
O304 Gd266 2.388 . S
O304 C312 1.252 . S
O305 Gd266 2.386 . S
O305 C323 1.265 . S
O306 Gd267 2.353 1_455 S
O306 C323 1.242 . S
O307 Gd267 2.468 . S
O307 C331 1.263 . S
O308 Gd267 2.427 . S
O308 C331 1.252 . S
O309 Gd266 2.295 1_655 S
O309 C324 1.275 . S
O310 Gd267 2.388 . S
O310 C324 1.252 . S
C311 O299 1.265 . S
C311 O300 1.242 . S
C312 O303 1.261 . S
C312 O304 1.252 . S
C313 C316 1.394 . S
C313 C318 1.370 . S
C313 C319 1.500 . S
C314 C317 1.383 . S
C314 C318 1.395 . S
C315 C316 1.396 . S
C315 C317 1.365 . S
C315 H332 0.929 . S
C316 C313 1.394 . S
C316 C315 1.396 . S
C316 H333 0.930 . S
C317 C314 1.383 . S
C317 C315 1.365 . S
C317 H334 0.931 . S
C318 C313 1.370 . S
C318 C314 1.395 . S
C318 H335 0.930 . S
C319 Gd266 2.805 . S
C319 O301 1.263 . S
C319 O302 1.252 . S
C319 C313 1.500 . S
C320 H282 0.930 . S
C320 C296 1.417 . S
C320 C321 1.329 1_545 S
C321 C291 1.437 . S
C321 H292 0.929 . S
C321 C320 1.329 1_565 S
H322 C295 0.931 . S
C323 O305 1.265 . S
C323 O306 1.242 . S
C324 O309 1.275 . S
C324 O310 1.252 . S
C325 C328 1.394 . S
C325 C330 1.370 . S
C325 C331 1.500 . S
C326 C329 1.383 . S
C326 C330 1.395 . S
C327 C328 1.396 . S
C327 C329 1.365 . S
C327 H336 0.929 . S
C328 C325 1.394 . S
C328 C327 1.396 . S
C328 H337 0.930 . S
C329 C326 1.383 . S
C329 C327 1.365 . S
C329 H338 0.931 . S
C330 C325 1.370 . S
C330 C326 1.395 . S
C330 H339 0.930 . S
C331 Gd267 2.805 . S
C331 O307 1.263 . S
C331 O308 1.252 . S
C331 C325 1.500 . S
H332 C315 0.929 . S
H333 C316 0.930 . S
H334 C317 0.931 . S
H335 C318 0.930 . S
H336 C327 0.929 . S
H337 C328 0.930 . S
H338 C329 0.931 . S
H339 C330 0.930 . S
C340 C342 1.422 . S
C340 C344 1.415 . S
C340 N346 1.369 . S
C341 C342 1.421 . S
C341 C343 1.417 . S
C341 C353 1.422 . S
C342 C340 1.422 . S
C342 C341 1.421 . S
C342 N352 1.359 . S
C343 C341 1.417 . S
C343 C345 1.329 . S
C343 H362 0.930 . S
C344 C340 1.415 . S
C344 C345 1.437 . S
C344 C348 1.413 . S
C345 C343 1.329 . S
C345 C344 1.437 . S
C345 H367 0.929 . S
N346 C340 1.369 . S
N346 C347 1.338 . S
N346 Gd351 2.622 . S
C347 N346 1.338 . S
C347 C349 1.378 . S
C347 H359 0.929 . S
C348 C344 1.413 . S
C348 C349 1.348 . S
C348 H364 0.931 . S
C349 C347 1.378 . S
C349 C348 1.348 . S
C349 H365 0.930 . S
Gd350 N370 2.622 . S
Gd350 N377 2.570 . S
Gd350 O384 2.353 . S
Gd350 O385 2.468 . S
Gd350 O386 2.427 . S
Gd350 O388 2.388 . S
Gd350 O389 2.386 . S
Gd350 O393 2.307 . S
Gd350 C403 2.805 . S
Gd351 N346 2.622 . S
Gd351 N352 2.570 . S
Gd351 O383 2.386 . S
Gd351 O387 2.307 . S
Gd351 O390 2.353 . S
Gd351 O391 2.468 . S
Gd351 O392 2.427 . S
Gd351 O394 2.388 . S
Gd351 C415 2.805 . S
N352 C342 1.359 . S
N352 Gd351 2.570 . S
N352 C354 1.343 . S
C353 C341 1.422 . S
C353 C355 1.321 . S
C353 H361 0.931 . S
C354 N352 1.343 . S
C354 C355 1.390 . S
C354 H356 0.931 . S
C355 C353 1.321 . S
C355 C354 1.390 . S
C355 H357 0.930 . S
H356 C354 0.931 . S
H357 C355 0.930 . S
H358 C381 0.931 . S
H359 C347 0.929 . S
H360 C382 0.930 . S
H361 C353 0.931 . S
H362 C343 0.930 . S
H363 C372 0.929 . S
H364 C348 0.931 . S
H365 C349 0.930 . S
H366 C404 0.930 . S
H367 C345 0.929 . S
H368 C373 0.931 . S
H369 C374 0.930 . S
N370 Gd350 2.622 . S
N370 C371 1.369 . S
N370 C372 1.338 . S
C371 N370 1.369 . S
C371 C375 1.415 . S
C371 C378 1.422 . S
C372 H363 0.929 . S
C372 N370 1.338 . S
C372 C374 1.378 . S
C373 H368 0.931 . S
C373 C374 1.348 . S
C373 C375 1.413 . S
C374 H369 0.930 . S
C374 C372 1.378 . S
C374 C373 1.348 . S
C375 C371 1.415 . S
C375 C373 1.413 . S
C375 C405 1.437 . S
H376 C405 0.929 . S
N377 Gd350 2.570 . S
N377 C378 1.359 . S
N377 C381 1.343 . S
C378 C371 1.422 . S
C378 N377 1.359 . S
C378 C380 1.421 . S
C379 C380 1.422 . S
C379 C382 1.321 . S
C379 H406 0.931 . S
C380 C378 1.421 . S
C380 C379 1.422 . S
C380 C404 1.417 . S
C381 H358 0.931 . S
C381 N377 1.343 . S
C381 C382 1.390 . S
C382 H360 0.930 . S
C382 C379 1.321 . S
C382 C381 1.390 . S
O383 Gd351 2.386 . S
O383 C395 1.265 . S
O384 Gd350 2.353 . S
O384 C395 1.242 . S
O385 Gd350 2.468 . S
O385 C403 1.263 . S
O386 Gd350 2.427 . S
O386 C403 1.252 . S
O387 Gd351 2.307 . S
O387 C396 1.261 . S
O388 Gd350 2.388 . S
O388 C396 1.252 . S
O389 Gd350 2.386 . S
O389 C407 1.265 . S
O390 Gd351 2.353 . S
O390 C407 1.242 . S
O391 Gd351 2.468 . S
O391 C415 1.263 . S
O392 Gd351 2.427 . S
O392 C415 1.252 . S
O393 Gd350 2.307 . S
O393 C408 1.261 . S
O394 Gd351 2.388 . S
O394 C408 1.252 . S
C395 O383 1.265 . S
C395 O384 1.242 . S
C396 O387 1.261 . S
C396 O388 1.252 . S
C397 C400 1.394 . S
C397 C402 1.370 . S
C397 C403 1.500 . S
C398 C401 1.383 . S
C398 C402 1.395 . S
C399 C400 1.396 . S
C399 C401 1.365 . S
C399 H416 0.929 . S
C400 C397 1.394 . S
C400 C399 1.396 . S
C400 H417 0.930 . S
C401 C398 1.383 . S
C401 C399 1.365 . S
C401 H418 0.931 . S
C402 C397 1.370 . S
C402 C398 1.395 . S
C402 H419 0.930 . S
C403 Gd350 2.805 . S
C403 O385 1.263 . S
C403 O386 1.252 . S
C403 C397 1.500 . S
C404 H366 0.930 . S
C404 C380 1.417 . S
C404 C405 1.329 . S
C405 C375 1.437 . S
C405 H376 0.929 . S
C405 C404 1.329 . S
H406 C379 0.931 . S
C407 O389 1.265 . S
C407 O390 1.242 . S
C408 O393 1.261 . S
C408 O394 1.252 . S
C409 C412 1.394 . S
C409 C414 1.370 . S
C409 C415 1.500 . S
C410 C413 1.383 . S
C410 C414 1.395 . S
C411 C412 1.396 . S
C411 C413 1.365 . S
C411 H420 0.929 . S
C412 C409 1.394 . S
C412 C411 1.396 . S
C412 H421 0.930 . S
C413 C410 1.383 . S
C413 C411 1.365 . S
C413 H422 0.931 . S
C414 C409 1.370 . S
C414 C410 1.395 . S
C414 H423 0.930 . S
C415 Gd351 2.805 . S
C415 O391 1.263 . S
C415 O392 1.252 . S
C415 C409 1.500 . S
H416 C399 0.929 . S
H417 C400 0.930 . S
H418 C401 0.931 . S
H419 C402 0.930 . S
H420 C411 0.929 . S
H421 C412 0.930 . S
H422 C413 0.931 . S
H423 C414 0.930 . S
C424 C425 1.363 . S
C424 C430 1.379 . S
C424 N432 1.356 . S
C425 C424 1.363 . S
C425 C431 1.363 . S
C426 C427 1.363 . S
C426 C431 1.379 . S
C426 N433 1.356 . S
C427 C426 1.363 . S
C427 C430 1.363 . S
N428 C430 1.356 1_545 S
N428 H440 0.984 . S
N428 H441 0.985 . S
N429 C431 1.356 . S
N429 H434 0.984 . S
N429 H435 0.985 . S
C430 C424 1.379 . S
C430 C427 1.363 . S
C430 N428 1.356 1_565 S
C431 C425 1.363 . S
C431 C426 1.379 . S
C431 N429 1.356 . S
N432 C424 1.356 . S
N432 H438 0.984 . S
N432 H439 0.984 . S
N433 C426 1.356 . S
N433 H436 0.984 1_565 S
N433 H437 0.985 . S
H434 N429 0.984 . S
H435 N429 0.985 . S
H436 N433 0.984 1_545 S
H437 N433 0.985 . S
H438 N432 0.984 . S
H439 N432 0.984 . S
H440 N428 0.984 . S
H441 N428 0.985 . S
C442 C443 1.363 . S
C442 C448 1.379 . S
C442 N450 1.356 . S
C443 C442 1.363 . S
C443 C449 1.363 . S
C444 C445 1.363 . S
C444 C449 1.379 . S
C444 N451 1.356 . S
C445 C444 1.363 . S
C445 C448 1.363 . S
N446 C448 1.356 . S
N446 H458 0.984 . S
N446 H459 0.985 . S
N447 C449 1.356 . S
N447 H452 0.984 . S
N447 H453 0.985 . S
C448 C442 1.379 . S
C448 C445 1.363 . S
C448 N446 1.356 . S
C449 C443 1.363 . S
C449 C444 1.379 . S
C449 N447 1.356 . S
N450 C442 1.356 . S
N450 H456 0.984 . S
N450 H457 0.984 . S
N451 C444 1.356 . S
N451 H454 0.984 . S
N451 H455 0.985 . S
H452 N447 0.984 . S
H453 N447 0.985 . S
H454 N451 0.984 . S
H455 N451 0.985 . S
H456 N450 0.984 . S
H457 N450 0.984 . S
H458 N446 0.984 . S
H459 N446 0.985 . S
C460 C461 1.363 . S
C460 C466 1.379 . S
C460 N468 1.356 . S
C461 C460 1.363 . S
C461 C467 1.363 . S
C462 C463 1.363 . S
C462 C467 1.379 . S
C462 N469 1.356 . S
C463 C462 1.363 . S
C463 C466 1.363 . S
N464 C466 1.356 . S
N464 H476 0.984 . S
N464 H477 0.985 . S
N465 C467 1.356 . S
N465 H470 0.984 . S
N465 H471 0.985 . S
C466 C460 1.379 . S
C466 C463 1.363 . S
C466 N464 1.356 . S
C467 C461 1.363 . S
C467 C462 1.379 . S
C467 N465 1.356 . S
N468 C460 1.356 . S
N468 H474 0.984 . S
N468 H475 0.984 . S
N469 C462 1.356 . S
N469 H472 0.984 . S
N469 H473 0.985 . S
H470 N465 0.984 . S
H471 N465 0.985 . S
H472 N469 0.984 . S
H473 N469 0.985 . S
H474 N468 0.984 . S
H475 N468 0.984 . S
H476 N464 0.984 . S
H477 N464 0.985 . S
C478 C479 1.363 . S
C478 C484 1.379 . S
C478 N486 1.356 . S
C479 C478 1.363 . S
C479 C485 1.363 . S
C480 C481 1.363 1_565 S
C480 C485 1.379 . S
C480 N487 1.356 1_565 S
C481 C480 1.363 1_545 S
C481 C484 1.363 1_545 S
N482 C484 1.356 . S
N482 H494 0.984 . S
N482 H495 0.985 1_565 S
N483 C485 1.356 . S
N483 H488 0.984 . S
N483 H489 0.985 . S
C484 C478 1.379 . S
C484 C481 1.363 1_565 S
C484 N482 1.356 . S
C485 C479 1.363 . S
C485 C480 1.379 . S
C485 N483 1.356 . S
N486 C478 1.356 . S
N486 H492 0.984 . S
N486 H493 0.984 . S
N487 C480 1.356 1_545 S
N487 H490 0.982 1_655 S
N487 H491 0.985 1_655 S
H488 N483 0.984 . S
H489 N483 0.985 . S
H490 N487 0.982 1_455 S
H491 N487 0.985 1_455 S
H492 N486 0.984 . S
H493 N486 0.984 . S
H494 N482 0.984 . S
H495 N482 0.985 1_545 S
C496 C497 1.363 . S
C496 C502 1.379 . S
C496 N504 1.356 . S
C497 C496 1.363 . S
C497 C503 1.363 . S
C498 C499 1.363 1_545 S
C498 C503 1.379 . S
C498 N505 1.356 1_545 S
C499 C498 1.363 1_565 S
C499 C502 1.363 1_565 S
N500 C502 1.356 . S
N500 H512 0.984 . S
N500 H513 0.985 1_545 S
N501 C503 1.356 . S
N501 H506 0.984 . S
N501 H507 0.985 . S
C502 C496 1.379 . S
C502 C499 1.363 1_545 S
C502 N500 1.356 . S
C503 C497 1.363 . S
C503 C498 1.379 . S
C503 N501 1.356 . S
N504 C496 1.356 . S
N504 H510 0.984 . S
N504 H511 0.984 . S
N505 C498 1.356 1_565 S
N505 H508 0.984 . S
N505 H509 0.984 1_655 S
H506 N501 0.984 . S
H507 N501 0.985 . S
H508 N505 0.984 . S
H509 N505 0.984 1_455 S
H510 N504 0.984 . S
H511 N504 0.984 . S
H512 N500 0.984 . S
H513 N500 0.985 1_565 S
C514 C515 1.363 . S
C514 C520 1.379 . S
C514 N522 1.356 . S
C515 C514 1.363 . S
C515 C521 1.363 . S
C516 C517 1.363 . S
C516 C521 1.379 . S
C516 N523 1.356 . S
C517 C516 1.363 . S
C517 C520 1.363 . S
N518 C520 1.356 . S
N518 H530 0.984 . S
N518 H531 0.985 . S
N519 C521 1.356 . S
N519 H524 0.984 . S
N519 H525 0.985 . S
C520 C514 1.379 . S
C520 C517 1.363 . S
C520 N518 1.356 . S
C521 C515 1.363 . S
C521 C516 1.379 . S
C521 N519 1.356 . S
N522 C514 1.356 . S
N522 H528 0.984 . S
N522 H529 0.984 . S
N523 C516 1.356 . S
N523 H526 0.984 . S
N523 H527 0.985 . S
H524 N519 0.984 . S
H525 N519 0.985 . S
H526 N523 0.984 . S
H527 N523 0.985 . S
H528 N522 0.984 . S
H529 N522 0.984 . S
H530 N518 0.984 . S
H531 N518 0.985 . S
C532 C533 1.363 . S
C532 C538 1.379 . S
C532 N540 1.356 . S
C533 C532 1.363 . S
C533 C539 1.363 . S
C534 C535 1.363 . S
C534 C539 1.379 . S
C534 N541 1.356 . S
C535 C534 1.363 . S
C535 C538 1.363 . S
N536 C538 1.356 . S
N536 H548 0.984 . S
N536 H549 0.985 . S
N537 C539 1.356 . S
N537 H542 0.984 . S
N537 H543 0.985 . S
C538 C532 1.379 . S
C538 C535 1.363 . S
C538 N536 1.356 . S
C539 C533 1.363 . S
C539 C534 1.379 . S
C539 N537 1.356 . S
N540 C532 1.356 . S
N540 H546 0.984 . S
N540 H547 0.984 . S
N541 C534 1.356 . S
N541 H544 0.984 . S
N541 H545 0.985 . S
H542 N537 0.984 . S
H543 N537 0.985 . S
H544 N541 0.984 . S
H545 N541 0.985 . S
H546 N540 0.984 . S
H547 N540 0.984 . S
H548 N536 0.984 . S
H549 N536 0.985 . S
C550 C551 1.363 . S
C550 C556 1.379 . S
C550 N558 1.356 . S
C551 C550 1.363 . S
C551 C557 1.363 . S
C552 C553 1.363 1_545 S
C552 C557 1.379 . S
C552 N559 1.356 . S
C553 C552 1.363 1_565 S
C553 C556 1.363 1_565 S
N554 C556 1.356 1_565 S
N554 H566 0.984 . S
N554 H567 0.985 . S
N555 C557 1.356 . S
N555 H560 0.984 . S
N555 H561 0.985 . S
C556 C550 1.379 . S
C556 C553 1.363 1_545 S
C556 N554 1.356 1_545 S
C557 C551 1.363 . S
C557 C552 1.379 . S
C557 N555 1.356 . S
N558 C550 1.356 . S
N558 H564 0.984 . S
N558 H565 0.984 . S
N559 C552 1.356 . S
N559 H562 0.988 1_545 S
N559 H563 0.985 1_455 S
H560 N555 0.984 . S
H561 N555 0.985 . S
H562 N559 0.988 1_565 S
H563 N559 0.985 1_655 S
H564 N558 0.984 . S
H565 N558 0.984 . S
H566 N554 0.984 . S
H567 N554 0.985 . S
C568 C569 1.363 . S
C568 C574 1.379 1_556 S
C568 N576 1.356 . S
C569 C568 1.363 . S
C569 C575 1.363 . S
C570 C571 1.363 . S
C570 C575 1.379 1_554 S
C570 N577 1.356 . S
C571 C570 1.363 . S
C571 C574 1.363 . S
N572 C574 1.356 . S
N572 H584 0.984 . S
N572 H585 0.985 . S
N573 C575 1.356 . S
N573 H578 0.984 . S
N573 H579 0.985 . S
C574 C568 1.379 1_554 S
C574 C571 1.363 . S
C574 N572 1.356 . S
C575 C569 1.363 . S
C575 C570 1.379 1_556 S
C575 N573 1.356 . S
N576 C568 1.356 . S
N576 H582 0.984 . S
N576 H583 0.984 . S
N577 C570 1.356 . S
N577 H580 0.984 . S
N577 H581 0.985 . S
H578 N573 0.984 . S
H579 N573 0.985 . S
H580 N577 0.984 . S
H581 N577 0.985 . S
H582 N576 0.984 . S
H583 N576 0.984 . S
H584 N572 0.984 . S
H585 N572 0.985 . S
C586 C587 1.363 . S
C586 C592 1.379 . S
C586 N594 1.356 . S
C587 C586 1.363 . S
C587 C593 1.363 . S
C588 C589 1.363 . S
C588 C593 1.379 . S
C588 N595 1.356 . S
C589 C588 1.363 . S
C589 C592 1.363 . S
N590 C592 1.356 . S
N590 H602 0.984 . S
N590 H603 0.985 . S
N591 C593 1.356 . S
N591 H596 0.984 . S
N591 H597 0.985 . S
C592 C586 1.379 . S
C592 C589 1.363 . S
C592 N590 1.356 . S
C593 C587 1.363 . S
C593 C588 1.379 . S
C593 N591 1.356 . S
N594 C586 1.356 . S
N594 H600 0.984 . S
N594 H601 0.984 . S
N595 C588 1.356 . S
N595 H598 0.984 . S
N595 H599 0.985 . S
H596 N591 0.984 . S
H597 N591 0.985 . S
H598 N595 0.984 . S
H599 N595 0.985 . S
H600 N594 0.984 . S
H601 N594 0.984 . S
H602 N590 0.984 . S
H603 N590 0.985 . S
C604 C605 1.363 . S
C604 C610 1.379 1_554 S
C604 N612 1.356 . S
C605 C604 1.363 . S
C605 C611 1.363 . S
C606 C607 1.363 . S
C606 C611 1.379 1_556 S
C606 N613 1.356 . S
C607 C606 1.363 . S
C607 C610 1.363 . S
N608 C610 1.356 . S
N608 H620 0.984 . S
N608 H621 0.985 . S
N609 C611 1.356 . S
N609 H614 0.984 . S
N609 H615 0.985 . S
C610 C604 1.379 1_556 S
C610 C607 1.363 . S
C610 N608 1.356 . S
C611 C605 1.363 . S
C611 C606 1.379 1_554 S
C611 N609 1.356 . S
N612 C604 1.356 . S
N612 H618 0.984 . S
N612 H619 0.984 . S
N613 C606 1.356 . S
N613 H616 0.984 . S
N613 H617 1.005 . S
H614 N609 0.984 . S
H615 N609 0.985 . S
H616 N613 0.984 . S
H617 N613 1.005 . S
H618 N612 0.984 . S
H619 N612 0.984 . S
H620 N608 0.984 . S
H621 N608 0.985 . S
C622 C623 1.363 . S
C622 C628 1.379 . S
C622 N630 1.356 . S
C623 C622 1.363 . S
C623 C629 1.363 . S
C624 C625 1.363 . S
C624 C629 1.379 . S
C624 N631 1.356 . S
C625 C624 1.363 . S
C625 C628 1.363 . S
N626 C628 1.356 . S
N626 H638 0.984 . S
N626 H639 0.985 . S
N627 C629 1.356 . S
N627 H632 0.984 . S
N627 H633 0.985 . S
C628 C622 1.379 . S
C628 C625 1.363 . S
C628 N626 1.356 . S
C629 C623 1.363 . S
C629 C624 1.379 . S
C629 N627 1.356 . S
N630 C622 1.356 . S
N630 H636 0.984 . S
N630 H637 0.984 . S
N631 C624 1.356 . S
N631 H634 0.984 . S
N631 H635 0.985 . S
H632 N627 0.984 . S
H633 N627 0.985 . S
H634 N631 0.984 . S
H635 N631 0.985 . S
H636 N630 0.984 . S
H637 N630 0.984 . S
H638 N626 0.984 . S
H639 N626 0.985 . S
C640 C641 1.363 . S
C640 C646 1.379 1_554 S
C640 N648 1.356 . S
C641 C640 1.363 . S
C641 C647 1.363 . S
C642 C643 1.363 . S
C642 C647 1.379 1_556 S
C642 N649 1.356 . S
C643 C642 1.363 . S
C643 C646 1.363 . S
N644 C646 1.356 . S
N644 H656 0.984 . S
N644 H657 0.985 . S
N645 C647 1.356 . S
N645 H650 0.984 . S
N645 H651 0.985 . S
C646 C640 1.379 1_556 S
C646 C643 1.363 . S
C646 N644 1.356 . S
C647 C641 1.363 . S
C647 C642 1.379 1_554 S
C647 N645 1.356 . S
N648 C640 1.356 . S
N648 H654 0.984 . S
N648 H655 0.984 . S
N649 C642 1.356 . S
N649 H652 0.984 . S
N649 H653 0.985 . S
H650 N645 0.984 . S
H651 N645 0.985 . S
H652 N649 0.984 . S
H653 N649 0.985 . S
H654 N648 0.984 . S
H655 N648 0.984 . S
H656 N644 0.984 . S
H657 N644 0.985 . S
C658 C659 1.363 . S
C658 C664 1.379 . S
C658 N666 1.356 . S
C659 C658 1.363 . S
C659 C665 1.363 . S
C660 C661 1.363 . S
C660 C665 1.379 . S
C660 N667 1.356 . S
C661 C660 1.363 . S
C661 C664 1.363 . S
N662 C664 1.356 . S
N662 H674 0.984 . S
N662 H675 0.985 . S
N663 C665 1.356 . S
N663 H668 0.984 . S
N663 H669 0.985 . S
C664 C658 1.379 . S
C664 C661 1.363 . S
C664 N662 1.356 . S
C665 C659 1.363 . S
C665 C660 1.379 . S
C665 N663 1.356 . S
N666 C658 1.356 . S
N666 H672 0.984 . S
N666 H673 0.984 . S
N667 C660 1.356 . S
N667 H670 0.984 . S
N667 H671 0.985 . S
H668 N663 0.984 . S
H669 N663 0.985 . S
H670 N667 0.984 . S
H671 N667 0.985 . S
H672 N666 0.984 . S
H673 N666 0.984 . S
H674 N662 0.984 . S
H675 N662 0.985 . S
C676 C677 1.363 . S
C676 C682 1.379 1_556 S
C676 N684 1.356 . S
C677 C676 1.363 . S
C677 C683 1.363 . S
C678 C679 1.363 . S
C678 C683 1.379 1_554 S
C678 N685 1.356 . S
C679 C678 1.363 . S
C679 C682 1.363 . S
N680 C682 1.356 . S
N680 H692 0.984 . S
N680 H693 0.985 . S
N681 C683 1.356 . S
N681 H686 0.984 . S
N681 H687 0.985 . S
C682 C676 1.379 1_554 S
C682 C679 1.363 . S
C682 N680 1.356 . S
C683 C677 1.363 . S
C683 C678 1.379 1_556 S
C683 N681 1.356 . S
N684 C676 1.356 . S
N684 H690 0.984 . S
N684 H691 0.984 . S
N685 C678 1.356 . S
N685 H688 0.984 . S
N685 H689 0.985 . S
H686 N681 0.984 . S
H687 N681 0.985 . S
H688 N685 0.984 . S
H689 N685 0.985 . S
H690 N684 0.984 . S
H691 N684 0.984 . S
H692 N680 0.984 . S
H693 N680 0.985 . S
C694 C695 1.363 . S
C694 C700 1.379 . S
C694 N702 1.356 . S
C695 C694 1.363 . S
C695 C701 1.363 . S
C696 C697 1.363 . S
C696 C701 1.379 . S
C696 N703 1.356 . S
C697 C696 1.363 . S
C697 C700 1.363 . S
N698 C700 1.356 . S
N698 H710 0.984 . S
N698 H711 0.985 . S
N699 C701 1.356 . S
N699 H704 0.984 . S
N699 H705 0.985 . S
C700 C694 1.379 . S
C700 C697 1.363 . S
C700 N698 1.356 . S
C701 C695 1.363 . S
C701 C696 1.379 . S
C701 N699 1.356 . S
N702 C694 1.356 . S
N702 H708 0.984 . S
N702 H709 0.984 . S
N703 C696 1.356 . S
N703 H706 0.984 . S
N703 H707 0.985 . S
H704 N699 0.984 . S
H705 N699 0.985 . S
H706 N703 0.984 . S
H707 N703 0.985 . S
H708 N702 0.984 . S
H709 N702 0.984 . S
H710 N698 0.984 . S
H711 N698 0.985 . S
C712 C713 1.363 . S
C712 C718 1.379 . S
C712 N720 1.356 . S
C713 C712 1.363 . S
C713 C719 1.363 . S
C714 C715 1.363 . S
C714 C719 1.379 . S
C714 N721 1.356 . S
C715 C714 1.363 . S
C715 C718 1.363 . S
N716 C718 1.356 . S
N716 H728 0.984 . S
N716 H729 0.985 . S
N717 C719 1.356 . S
N717 H722 0.984 . S
N717 H723 0.985 . S
C718 C712 1.379 . S
C718 C715 1.363 . S
C718 N716 1.356 . S
C719 C713 1.363 . S
C719 C714 1.379 . S
C719 N717 1.356 . S
N720 C712 1.356 . S
N720 H726 0.984 . S
N720 H727 0.984 . S
N721 C714 1.356 . S
N721 H724 0.984 . S
N721 H725 0.985 . S
H722 N717 0.984 . S
H723 N717 0.985 . S
H724 N721 0.984 . S
H725 N721 0.985 . S
H726 N720 0.984 . S
H727 N720 0.984 . S
H728 N716 0.984 . S
H729 N716 0.985 . S
C730 C731 1.363 . S
C730 C736 1.379 . S
C730 N738 1.356 . S
C731 C730 1.363 . S
C731 C737 1.363 . S
C732 C733 1.363 . S
C732 C737 1.379 . S
C732 N739 1.356 . S
C733 C732 1.363 . S
C733 C736 1.363 . S
N734 C736 1.356 . S
N734 H746 0.984 . S
N734 H747 0.985 . S
N735 C737 1.356 . S
N735 H740 0.984 . S
N735 H741 0.985 . S
C736 C730 1.379 . S
C736 C733 1.363 . S
C736 N734 1.356 . S
C737 C731 1.363 . S
C737 C732 1.379 . S
C737 N735 1.356 . S
N738 C730 1.356 . S
N738 H744 0.984 . S
N738 H745 0.984 . S
N739 C732 1.356 . S
N739 H742 0.984 . S
N739 H743 0.985 . S
H740 N735 0.984 . S
H741 N735 0.985 . S
H742 N739 0.984 . S
H743 N739 0.985 . S
H744 N738 0.984 . S
H745 N738 0.984 . S
H746 N734 0.984 . S
H747 N734 0.985 . S
C748 C749 1.363 . S
C748 C754 1.379 . S
C748 N756 1.356 . S
C749 C748 1.363 . S
C749 C755 1.363 . S
C750 C751 1.363 . S
C750 C755 1.379 . S
C750 N757 1.356 . S
C751 C750 1.363 . S
C751 C754 1.363 . S
N752 C754 1.356 . S
N752 H764 0.984 . S
N752 H765 0.985 . S
N753 C755 1.356 . S
N753 H758 0.984 . S
N753 H759 0.985 . S
C754 C748 1.379 . S
C754 C751 1.363 . S
C754 N752 1.356 . S
C755 C749 1.363 . S
C755 C750 1.379 . S
C755 N753 1.356 . S
N756 C748 1.356 . S
N756 H762 0.984 . S
N756 H763 0.984 . S
N757 C750 1.356 . S
N757 H760 0.984 . S
N757 H761 0.985 . S
H758 N753 0.984 . S
H759 N753 0.985 . S
H760 N757 0.984 . S
H761 N757 0.985 . S
H762 N756 0.984 . S
H763 N756 0.984 . S
H764 N752 0.984 . S
H765 N752 0.985 . S
C766 C767 1.363 . S
C766 C772 1.379 . S
C766 N774 1.356 . S
C767 C766 1.363 . S
C767 C773 1.363 . S
C768 C769 1.363 . S
C768 C773 1.379 . S
C768 N775 1.356 . S
C769 C768 1.363 . S
C769 C772 1.363 . S
N770 C772 1.356 . S
N770 H782 0.984 . S
N770 H783 0.985 . S
N771 C773 1.356 . S
N771 H776 0.984 . S
N771 H777 0.985 . S
C772 C766 1.379 . S
C772 C769 1.363 . S
C772 N770 1.356 . S
C773 C767 1.363 . S
C773 C768 1.379 . S
C773 N771 1.356 . S
N774 C766 1.356 . S
N774 H780 0.984 . S
N774 H781 0.984 . S
N775 C768 1.356 . S
N775 H778 0.984 . S
N775 H779 0.985 . S
H776 N771 0.984 . S
H777 N771 0.985 . S
H778 N775 0.984 . S
H779 N775 0.985 . S
H780 N774 0.984 . S
H781 N774 0.984 . S
H782 N770 0.984 . S
H783 N770 0.985 . S
C784 C785 1.363 . S
C784 C790 1.379 . S
C784 N792 1.356 . S
C785 C784 1.363 . S
C785 C791 1.363 . S
C786 C787 1.363 . S
C786 C791 1.379 . S
C786 N793 1.356 . S
C787 C786 1.363 . S
C787 C790 1.363 . S
N788 C790 1.356 . S
N788 H800 0.984 . S
N788 H801 0.985 . S
N789 C791 1.356 . S
N789 H794 0.984 . S
N789 H795 0.985 . S
C790 C784 1.379 . S
C790 C787 1.363 . S
C790 N788 1.356 . S
C791 C785 1.363 . S
C791 C786 1.379 . S
C791 N789 1.356 . S
N792 C784 1.356 . S
N792 H798 0.984 . S
N792 H799 0.984 . S
N793 C786 1.356 . S
N793 H796 0.984 . S
N793 H797 0.985 . S
H794 N789 0.984 . S
H795 N789 0.985 . S
H796 N793 0.984 . S
H797 N793 0.985 . S
H798 N792 0.984 . S
H799 N792 0.984 . S
H800 N788 0.984 . S
H801 N788 0.985 . S
C802 C803 1.363 . S
C802 C808 1.379 . S
C802 N810 1.356 . S
C803 C802 1.363 . S
C803 C809 1.363 . S
C804 C805 1.363 . S
C804 C809 1.379 . S
C804 N811 1.356 . S
C805 C804 1.363 . S
C805 C808 1.363 . S
N806 C808 1.356 . S
N806 H818 0.984 . S
N806 H819 0.985 . S
N807 C809 1.356 . S
N807 H812 0.984 . S
N807 H813 0.985 . S
C808 C802 1.379 . S
C808 C805 1.363 . S
C808 N806 1.356 . S
C809 C803 1.363 . S
C809 C804 1.379 . S
C809 N807 1.356 . S
N810 C802 1.356 . S
N810 H816 0.984 . S
N810 H817 0.984 . S
N811 C804 1.356 . S
N811 H814 0.984 . S
N811 H815 0.985 . S
H812 N807 0.984 . S
H813 N807 0.985 . S
H814 N811 0.984 . S
H815 N811 0.985 . S
H816 N810 0.984 . S
H817 N810 0.984 . S
H818 N806 0.984 . S
H819 N806 0.985 . S
C820 C821 1.363 . S
C820 C826 1.379 . S
C820 N828 1.356 . S
C821 C820 1.363 . S
C821 C827 1.363 . S
C822 C823 1.363 . S
C822 C827 1.379 . S
C822 N829 1.356 . S
C823 C822 1.363 . S
C823 C826 1.363 . S
N824 C826 1.356 . S
N824 H836 0.984 . S
N824 H837 0.985 . S
N825 C827 1.356 . S
N825 H830 0.984 . S
N825 H831 0.985 . S
C826 C820 1.379 . S
C826 C823 1.363 . S
C826 N824 1.356 . S
C827 C821 1.363 . S
C827 C822 1.379 . S
C827 N825 1.356 . S
N828 C820 1.356 . S
N828 H834 0.984 . S
N828 H835 0.984 . S
N829 C822 1.356 . S
N829 H832 0.984 . S
N829 H833 0.985 . S
H830 N825 0.984 . S
H831 N825 0.985 . S
H832 N829 0.984 . S
H833 N829 0.985 . S
H834 N828 0.984 . S
H835 N828 0.984 . S
H836 N824 0.984 . S
H837 N824 0.985 . S
C838 C839 1.363 . S
C838 C844 1.379 . S
C838 N846 1.356 . S
C839 C838 1.363 . S
C839 C845 1.363 . S
C840 C841 1.363 . S
C840 C845 1.379 . S
C840 N847 1.356 . S
C841 C840 1.363 . S
C841 C844 1.363 . S
N842 C844 1.356 . S
N842 H854 0.984 . S
N842 H855 0.985 . S
N843 C845 1.356 . S
N843 H848 0.984 . S
N843 H849 0.985 . S
C844 C838 1.379 . S
C844 C841 1.363 . S
C844 N842 1.356 . S
C845 C839 1.363 . S
C845 C840 1.379 . S
C845 N843 1.356 . S
N846 C838 1.356 . S
N846 H852 0.984 . S
N846 H853 0.984 . S
N847 C840 1.356 . S
N847 H850 0.984 . S
N847 H851 0.985 . S
H848 N843 0.984 . S
H849 N843 0.985 . S
H850 N847 0.984 . S
H851 N847 0.985 . S
H852 N846 0.984 . S
H853 N846 0.984 . S
H854 N842 0.984 . S
H855 N842 0.985 . S
C425 C71 1.657 . S
C427 C144 1.644 1_565 S
C445 C228 1.635 . S
C443 C81 1.635 . S
C463 C227 1.647 . S
C461 C49 1.652 . S
C479 C59 1.634 . S
C481 C143 1.631 . S
C499 C324 1.650 . S
C497 C27 1.657 . S
C517 C408 1.680 . S
C515 C38 1.689 . S
C533 C5 1.653 . S
C535 C407 1.650 . S
C551 C16 1.685 . S
C553 C323 1.687 . S
C571 C146 1.391 . S
C569 C15 1.555 . S
C589 C230 1.410 . S
C587 C4 1.573 . S
C607 C242 1.337 . S
C605 C37 1.555 . S
C625 C158 1.343 . S
C623 C26 1.571 . S
C643 C326 1.457 . S
C641 C60 1.602 . S
C659 C48 1.624 . S
C661 C410 1.459 . S
C679 C398 1.374 . S
C677 C82 1.601 . S
C695 C70 1.622 . S
C697 C314 1.384 . S
C715 C155 1.492 . S
C713 C10 1.481 . S
C733 C239 1.529 . S
C731 C21 1.519 . S
C749 C32 1.475 . S
C751 C240 1.456 . S
C769 C156 1.492 . S
C767 C43 1.513 . S
C787 C311 1.566 . S
C785 C54 1.548 . S
C803 C65 1.529 . S
C805 C395 1.531 . S
C821 C76 1.546 . S
C823 C396 1.540 . S
C839 C87 1.523 . S
C841 C312 1.506 . S
