# Generated by pormake.
# Topology ctn, (3,4)-cn, num edge types: 1
# Building blocks:
#     Node 0, Type 0, BuildingBlock: BETDIP_clean_linker_0, # of connection points: 3
#     Node 1, Type 0, BuildingBlock: BETDIP_clean_linker_0, # of connection points: 3
#     Node 2, Type 0, BuildingBlock: BETDIP_clean_linker_0, # of connection points: 3
#     Node 3, Type 0, BuildingBlock: BETDIP_clean_linker_0, # of connection points: 3
#     Node 4, Type 0, BuildingBlock: BETDIP_clean_linker_0, # of connection points: 3
#     Node 5, Type 0, BuildingBlock: BETDIP_clean_linker_0, # of connection points: 3
#     Node 6, Type 0, BuildingBlock: BETDIP_clean_linker_0, # of connection points: 3
#     Node 7, Type 0, BuildingBlock: BETDIP_clean_linker_0, # of connection points: 3
#     Node 8, Type 0, BuildingBlock: BETDIP_clean_linker_0, # of connection points: 3
#     Node 9, Type 0, BuildingBlock: BETDIP_clean_linker_0, # of connection points: 3
#     Node 10, Type 0, BuildingBlock: BETDIP_clean_linker_0, # of connection points: 3
#     Node 11, Type 0, BuildingBlock: BETDIP_clean_linker_0, # of connection points: 3
#     Node 12, Type 0, BuildingBlock: BETDIP_clean_linker_0, # of connection points: 3
#     Node 13, Type 0, BuildingBlock: BETDIP_clean_linker_0, # of connection points: 3
#     Node 14, Type 0, BuildingBlock: BETDIP_clean_linker_0, # of connection points: 3
#     Node 15, Type 0, BuildingBlock: BETDIP_clean_linker_0, # of connection points: 3
#     Node 16, Type 1, BuildingBlock: AZAVOO_clean_sbu_0, # of connection points: 4
#     Node 17, Type 1, BuildingBlock: AZAVOO_clean_sbu_0, # of connection points: 4
#     Node 18, Type 1, BuildingBlock: AZAVOO_clean_sbu_0, # of connection points: 4
#     Node 19, Type 1, BuildingBlock: AZAVOO_clean_sbu_0, # of connection points: 4
#     Node 20, Type 1, BuildingBlock: AZAVOO_clean_sbu_0, # of connection points: 4
#     Node 21, Type 1, BuildingBlock: AZAVOO_clean_sbu_0, # of connection points: 4
#     Node 22, Type 1, BuildingBlock: AZAVOO_clean_sbu_0, # of connection points: 4
#     Node 23, Type 1, BuildingBlock: AZAVOO_clean_sbu_0, # of connection points: 4
#     Node 24, Type 1, BuildingBlock: AZAVOO_clean_sbu_0, # of connection points: 4
#     Node 25, Type 1, BuildingBlock: AZAVOO_clean_sbu_0, # of connection points: 4
#     Node 26, Type 1, BuildingBlock: AZAVOO_clean_sbu_0, # of connection points: 4
#     Node 27, Type 1, BuildingBlock: AZAVOO_clean_sbu_0, # of connection points: 4
#     Edge 28, Type (0, 1), BuildingBlock: EZIPEK_clean_linker_0, # of connection points: 2
#     Edge 29, Type (0, 1), BuildingBlock: EZIPEK_clean_linker_0, # of connection points: 2
#     Edge 30, Type (0, 1), BuildingBlock: EZIPEK_clean_linker_0, # of connection points: 2
#     Edge 31, Type (0, 1), BuildingBlock: EZIPEK_clean_linker_0, # of connection points: 2
#     Edge 32, Type (0, 1), BuildingBlock: EZIPEK_clean_linker_0, # of connection points: 2
#     Edge 33, Type (0, 1), BuildingBlock: EZIPEK_clean_linker_0, # of connection points: 2
#     Edge 34, Type (0, 1), BuildingBlock: EZIPEK_clean_linker_0, # of connection points: 2
#     Edge 35, Type (0, 1), BuildingBlock: EZIPEK_clean_linker_0, # of connection points: 2
#     Edge 36, Type (0, 1), BuildingBlock: EZIPEK_clean_linker_0, # of connection points: 2
#     Edge 37, Type (0, 1), BuildingBlock: EZIPEK_clean_linker_0, # of connection points: 2
#     Edge 38, Type (0, 1), BuildingBlock: EZIPEK_clean_linker_0, # of connection points: 2
#     Edge 39, Type (0, 1), BuildingBlock: EZIPEK_clean_linker_0, # of connection points: 2
#     Edge 40, Type (0, 1), BuildingBlock: EZIPEK_clean_linker_0, # of connection points: 2
#     Edge 41, Type (0, 1), BuildingBlock: EZIPEK_clean_linker_0, # of connection points: 2
#     Edge 42, Type (0, 1), BuildingBlock: EZIPEK_clean_linker_0, # of connection points: 2
#     Edge 43, Type (0, 1), BuildingBlock: EZIPEK_clean_linker_0, # of connection points: 2
#     Edge 44, Type (0, 1), BuildingBlock: EZIPEK_clean_linker_0, # of connection points: 2
#     Edge 45, Type (0, 1), BuildingBlock: EZIPEK_clean_linker_0, # of connection points: 2
#     Edge 46, Type (0, 1), BuildingBlock: EZIPEK_clean_linker_0, # of connection points: 2
#     Edge 47, Type (0, 1), BuildingBlock: EZIPEK_clean_linker_0, # of connection points: 2
#     Edge 48, Type (0, 1), BuildingBlock: EZIPEK_clean_linker_0, # of connection points: 2
#     Edge 49, Type (0, 1), BuildingBlock: EZIPEK_clean_linker_0, # of connection points: 2
#     Edge 50, Type (0, 1), BuildingBlock: EZIPEK_clean_linker_0, # of connection points: 2
#     Edge 51, Type (0, 1), BuildingBlock: EZIPEK_clean_linker_0, # of connection points: 2
#     Edge 52, Type (0, 1), BuildingBlock: EZIPEK_clean_linker_0, # of connection points: 2
#     Edge 53, Type (0, 1), BuildingBlock: EZIPEK_clean_linker_0, # of connection points: 2
#     Edge 54, Type (0, 1), BuildingBlock: EZIPEK_clean_linker_0, # of connection points: 2
#     Edge 55, Type (0, 1), BuildingBlock: EZIPEK_clean_linker_0, # of connection points: 2
#     Edge 56, Type (0, 1), BuildingBlock: EZIPEK_clean_linker_0, # of connection points: 2
#     Edge 57, Type (0, 1), BuildingBlock: EZIPEK_clean_linker_0, # of connection points: 2
#     Edge 58, Type (0, 1), BuildingBlock: EZIPEK_clean_linker_0, # of connection points: 2
#     Edge 59, Type (0, 1), BuildingBlock: EZIPEK_clean_linker_0, # of connection points: 2
#     Edge 60, Type (0, 1), BuildingBlock: EZIPEK_clean_linker_0, # of connection points: 2
#     Edge 61, Type (0, 1), BuildingBlock: EZIPEK_clean_linker_0, # of connection points: 2
#     Edge 62, Type (0, 1), BuildingBlock: EZIPEK_clean_linker_0, # of connection points: 2
#     Edge 63, Type (0, 1), BuildingBlock: EZIPEK_clean_linker_0, # of connection points: 2
#     Edge 64, Type (0, 1), BuildingBlock: EZIPEK_clean_linker_0, # of connection points: 2
#     Edge 65, Type (0, 1), BuildingBlock: EZIPEK_clean_linker_0, # of connection points: 2
#     Edge 66, Type (0, 1), BuildingBlock: EZIPEK_clean_linker_0, # of connection points: 2
#     Edge 67, Type (0, 1), BuildingBlock: EZIPEK_clean_linker_0, # of connection points: 2
#     Edge 68, Type (0, 1), BuildingBlock: EZIPEK_clean_linker_0, # of connection points: 2
#     Edge 69, Type (0, 1), BuildingBlock: EZIPEK_clean_linker_0, # of connection points: 2
#     Edge 70, Type (0, 1), BuildingBlock: EZIPEK_clean_linker_0, # of connection points: 2
#     Edge 71, Type (0, 1), BuildingBlock: EZIPEK_clean_linker_0, # of connection points: 2
#     Edge 72, Type (0, 1), BuildingBlock: EZIPEK_clean_linker_0, # of connection points: 2
#     Edge 73, Type (0, 1), BuildingBlock: EZIPEK_clean_linker_0, # of connection points: 2
#     Edge 74, Type (0, 1), BuildingBlock: EZIPEK_clean_linker_0, # of connection points: 2
#     Edge 75, Type (0, 1), BuildingBlock: EZIPEK_clean_linker_0, # of connection points: 2
# Relax obj value: 0.071
# Max RMSD: 0.209
# Mean RMSD: 0.112
data_MOF--net-ctn--node1-AZAVOO_clean_sbu_0--node2-BETDIP_clean_linker_0--edge1-EZIPEK_clean_linker_0
_symmetry_space_group_name_H-M    P1
_symmetry_Int_Tables_number       1
_symmetry_cell_setting            triclinic
loop_
_symmetry_equiv_pos_as_xyz
'x, y, z'
_cell_length_a     37.199818
_cell_length_b     38.267347
_cell_length_c     42.144538
_cell_angle_alpha  93.902189
_cell_angle_beta   97.645947
_cell_angle_gamma 96.902423
loop_
_atom_site_label
_atom_site_type_symbol
_atom_site_fract_x
_atom_site_fract_y
_atom_site_fract_z
_atom_type_partial_charge
H0 H 0.00339 0.05345 0.04618 0.0
H1 H 0.07084 0.99883 0.98952 0.0
H2 H 0.05404 0.96583 0.08221 0.0
H3 H 0.05323 0.03118 0.95122 0.0
C4 C 0.04579 0.05497 0.96265 0.0
C5 C 0.01976 0.03225 0.04279 0.0
C6 C 0.02623 0.00976 0.06728 0.0
C7 C 0.03535 0.02861 0.0145 0.0
C8 C 0.05751 0.00175 0.01063 0.0
C9 C 0.06408 0.97895 0.03477 0.0
C10 C 0.04836 0.9829 0.06317 0.0
N11 N 0.03066 0.05422 0.99189 0.0
H12 H 0.2575 0.68648 0.20109 0.0
H13 H 0.35736 0.75496 0.23688 0.0
H14 H 0.31652 0.67454 0.29378 0.0
H15 H 0.34462 0.78469 0.19496 0.0
C16 C 0.31952 0.77278 0.18014 0.0
C17 C 0.2804 0.69488 0.21988 0.0
C18 C 0.2836 0.67743 0.24807 0.0
C19 C 0.30605 0.72348 0.21582 0.0
C20 C 0.33637 0.7338 0.23977 0.0
C21 C 0.3403 0.71577 0.26767 0.0
C22 C 0.31348 0.68828 0.2721 0.0
N23 N 0.29986 0.74086 0.1873 0.0
H24 H 0.94783 0.50659 0.99806 0.0
H25 H 0.02968 0.46677 0.06279 0.0
H26 H 0.97759 0.55409 0.09519 0.0
H27 H 0.0521 0.45746 0.01397 0.0
C28 C 0.02682 0.44447 0.99995 0.0
C29 C 0.96387 0.50753 0.02162 0.0
C30 C 0.95956 0.53301 0.04593 0.0
C31 C 0.98952 0.48395 0.02726 0.0
C32 C 0.01027 0.48529 0.05782 0.0
C33 C 0.00607 0.51035 0.0824 0.0
C34 C 0.98057 0.53426 0.07644 0.0
N35 N 0.99356 0.45863 0.00217 0.0
H36 H 0.72739 0.77235 0.19913 0.0
H37 H 0.76462 0.8725 0.25375 0.0
H38 H 0.81347 0.84371 0.17076 0.0
H39 H 0.70893 0.86421 0.27031 0.0
C40 C 0.70403 0.83588 0.27182 0.0
C41 C 0.74482 0.79753 0.20261 0.0
C42 C 0.77038 0.80539 0.18162 0.0
C43 C 0.74155 0.8219 0.22809 0.0
C44 C 0.76527 0.85399 0.23332 0.0
C45 C 0.79131 0.86171 0.21272 0.0
C46 C 0.79325 0.83773 0.1866 0.0
N47 N 0.71559 0.8123 0.24889 0.0
H48 H 0.00929 0.98366 0.4405 0.0
H49 H 0.09499 0.02442 0.51809 0.0
H50 H 0.08167 0.07797 0.4321 0.0
H51 H 0.0852 0.97227 0.53589 0.0
C52 C 0.0597 0.95753 0.52408 0.0
C53 C 0.03155 0.00378 0.45091 0.0
C54 C 0.04286 0.0315 0.43279 0.0
C55 C 0.04994 0.00077 0.48174 0.0
C56 C 0.07997 0.02612 0.49459 0.0
C57 C 0.09136 0.05394 0.47667 0.0
C58 C 0.07231 0.05689 0.44617 0.0
N59 N 0.03849 0.97093 0.4981 0.0
H60 H 0.20434 0.75087 0.79336 0.0
H61 H 0.25806 0.6804 0.73745 0.0
H62 H 0.30335 0.71425 0.83566 0.0
H63 H 0.19792 0.77223 0.73871 0.0
C64 C 0.18648 0.74694 0.72584 0.0
C65 C 0.22667 0.7355 0.79126 0.0
C66 C 0.25336 0.73458 0.818 0.0
C67 C 0.22831 0.71589 0.76217 0.0
C68 C 0.25677 0.69539 0.75995 0.0
C69 C 0.28424 0.6951 0.78617 0.0
C70 C 0.28232 0.71455 0.81528 0.0
N71 N 0.20133 0.71599 0.73498 0.0
H72 H 0.99055 0.5716 0.46943 0.0
H73 H 0.93041 0.46714 0.44993 0.0
H74 H 0.90809 0.53671 0.52694 0.0
H75 H 0.95911 0.4615 0.40868 0.0
C76 C 0.97917 0.48426 0.40784 0.0
C77 C 0.97004 0.55121 0.47502 0.0
C78 C 0.95042 0.55773 0.50046 0.0
C79 C 0.96313 0.5188 0.45639 0.0
C80 C 0.93628 0.49256 0.46362 0.0
C81 C 0.9165 0.49896 0.48906 0.0
C82 C 0.92358 0.53159 0.50746 0.0
N83 N 0.98372 0.51404 0.43071 0.0
H84 H 0.76867 0.82215 0.74913 0.0
H85 H 0.81958 0.754 0.81346 0.0
H86 H 0.72783 0.80318 0.83806 0.0
H87 H 0.86844 0.76908 0.78841 0.0
C88 C 0.85839 0.7752 0.76434 0.0
C89 C 0.7695 0.80875 0.77103 0.0
C90 C 0.74463 0.81475 0.79238 0.0
C91 C 0.79692 0.78746 0.77846 0.0
C92 C 0.79871 0.77075 0.80728 0.0
C93 C 0.77373 0.7763 0.8288 0.0
C94 C 0.74643 0.79798 0.82109 0.0
N95 N 0.82264 0.78455 0.75668 0.0
H96 H 0.26254 0.31784 0.24155 0.0
H97 H 0.30927 0.2426 0.3005 0.0
H98 H 0.22198 0.29548 0.32991 0.0
H99 H 0.35915 0.25974 0.27738 0.0
C100 C 0.34961 0.26725 0.25367 0.0
C101 C 0.26262 0.30282 0.26247 0.0
C102 C 0.23867 0.30883 0.28462 0.0
C103 C 0.28846 0.27949 0.26805 0.0
C104 C 0.28943 0.26076 0.29568 0.0
C105 C 0.26556 0.26656 0.31811 0.0
C106 C 0.23964 0.29006 0.31218 0.0
N107 N 0.31407 0.2771 0.24613 0.0
H108 H 0.45302 0.01201 0.49454 0.0
H109 H 0.53449 0.97082 0.55851 0.0
H110 H 0.47914 0.05463 0.59341 0.0
H111 H 0.55881 0.96626 0.50892 0.0
C112 C 0.53384 0.95236 0.49511 0.0
C113 C 0.46844 0.01203 0.51826 0.0
C114 C 0.46286 0.03592 0.54334 0.0
C115 C 0.49468 0.98895 0.52332 0.0
C116 C 0.51463 0.98902 0.55406 0.0
C117 C 0.50905 0.01241 0.57944 0.0
C118 C 0.48307 0.03597 0.57405 0.0
N119 N 0.49997 0.96527 0.49745 0.0
H120 H 0.20651 0.28283 0.67475 0.0
H121 H 0.24582 0.37794 0.73695 0.0
H122 H 0.30783 0.34492 0.66427 0.0
H123 H 0.18606 0.37481 0.74424 0.0
C124 C 0.17828 0.34666 0.74494 0.0
C125 C 0.22666 0.30583 0.6821 0.0
C126 C 0.25779 0.31111 0.66669 0.0
C127 C 0.22179 0.32983 0.70737 0.0
C128 C 0.24837 0.35949 0.71701 0.0
C129 C 0.27926 0.36492 0.70128 0.0
C130 C 0.28381 0.34073 0.67629 0.0
N131 N 0.1913 0.32207 0.72389 0.0
H132 H 0.76372 0.18829 0.69923 0.0
H133 H 0.86341 0.25295 0.74204 0.0
H134 H 0.8143 0.17194 0.79405 0.0
H135 H 0.83984 0.29349 0.71102 0.0
C136 C 0.827 0.27794 0.68906 0.0
C137 C 0.78513 0.19574 0.71948 0.0
C138 C 0.78515 0.17737 0.74717 0.0
C139 C 0.81211 0.22416 0.71799 0.0
C140 C 0.84092 0.23268 0.74361 0.0
C141 C 0.84185 0.21357 0.77083 0.0
C142 C 0.81342 0.18674 0.77297 0.0
N143 N 0.80995 0.24293 0.69007 0.0
H144 H 0.49594 0.53848 0.54271 0.0
H145 H 0.55206 0.47957 0.47878 0.0
H146 H 0.55547 0.45633 0.5777 0.0
H147 H 0.47874 0.56751 0.50082 0.0
C148 C 0.49928 0.56506 0.48509 0.0
C149 C 0.51216 0.51761 0.53795 0.0
C150 C 0.5232 0.49736 0.56312 0.0
C151 C 0.52263 0.51127 0.50742 0.0
C152 C 0.54372 0.48415 0.50225 0.0
C153 C 0.55642 0.4646 0.52745 0.0
C154 C 0.54587 0.4712 0.55801 0.0
N155 N 0.51582 0.53364 0.48232 0.0
H156 H 0.5021 0.48797 0.94644 0.0
H157 H 0.59 0.5351 0.01932 0.0
H158 H 0.58463 0.56668 0.92303 0.0
H159 H 0.58136 0.48348 0.04131 0.0
C160 C 0.55582 0.46817 0.03017 0.0
C161 C 0.52671 0.50652 0.95371 0.0
C162 C 0.54083 0.52768 0.93115 0.0
C163 C 0.54538 0.50741 0.98497 0.0
C164 C 0.57659 0.53244 0.99472 0.0
C165 C 0.59078 0.55423 0.9725 0.0
C166 C 0.57339 0.55066 0.94052 0.0
N167 N 0.53315 0.48128 0.00497 0.0
H168 H 0.69511 0.24781 0.29959 0.0
H169 H 0.75065 0.18106 0.24169 0.0
H170 H 0.79492 0.21166 0.34068 0.0
H171 H 0.68992 0.27199 0.24581 0.0
C172 C 0.67924 0.24729 0.23158 0.0
C173 C 0.71769 0.23286 0.2971 0.0
C174 C 0.74435 0.23137 0.32375 0.0
C175 C 0.71993 0.21465 0.26745 0.0
C176 C 0.74883 0.19487 0.26464 0.0
C177 C 0.77627 0.19406 0.29079 0.0
C178 C 0.7738 0.21217 0.32041 0.0
N179 N 0.69344 0.21582 0.24012 0.0
H180 H 0.49663 0.0724 0.96743 0.0
H181 H 0.43266 0.96968 0.94917 0.0
H182 H 0.40989 0.04377 0.02257 0.0
H183 H 0.47258 0.95659 0.91814 0.0
C184 C 0.48786 0.98059 0.9122 0.0
C185 C 0.47501 0.05313 0.97296 0.0
C186 C 0.45442 0.06175 0.99717 0.0
C187 C 0.46776 0.02 0.95556 0.0
C188 C 0.43932 0.99529 0.96251 0.0
C189 C 0.41856 0.00371 0.98676 0.0
C190 C 0.4261 0.03704 0.00404 0.0
N191 N 0.48909 0.01321 0.93082 0.0
Mg192 Mg 0.23114 0.84262 0.00823 0.0
O193 O 0.27911 0.88603 0.00615 0.0
O194 O 0.32939 0.85901 0.00685 0.0
Mg195 Mg 0.31465 0.80015 0.01313 0.0
C196 C 0.31337 0.88665 0.00523 0.0
C197 C 0.16319 0.87676 0.01322 0.0
O198 O 0.16076 0.84974 0.03078 0.0
O199 O 0.23329 0.82255 0.95559 0.0
O200 O 0.28252 0.79373 0.96221 0.0
O201 O 0.23926 0.84995 0.06155 0.0
O202 O 0.26588 0.81177 0.03408 0.0
C203 C 0.25524 0.803 0.94455 0.0
C204 C 0.26112 0.82614 0.06152 0.0
O205 O 0.18955 0.88115 0.9968 0.0
Mg206 Mg 0.13854 0.50199 0.27316 0.0
O207 O 0.10465 0.50329 0.22348 0.0
O208 O 0.14365 0.50052 0.18752 0.0
Mg209 Mg 0.20204 0.50181 0.21381 0.0
C210 C 0.11151 0.50217 0.19455 0.0
C211 C 0.09055 0.49605 0.32565 0.0
O212 O 0.12256 0.5098 0.34133 0.0
O213 O 0.14556 0.44392 0.2646 0.0
O214 O 0.1908 0.44794 0.2344 0.0
O215 O 0.15049 0.56107 0.27948 0.0
O216 O 0.18436 0.52618 0.2566 0.0
C217 C 0.16994 0.43033 0.25107 0.0
C218 C 0.17889 0.55766 0.26535 0.0
O219 O 0.08713 0.48852 0.29553 0.0
Mg220 Mg 0.80669 0.68825 0.01956 0.0
O221 O 0.74931 0.65603 0.0081 0.0
O222 O 0.70906 0.69472 0.01035 0.0
Mg223 Mg 0.73949 0.7507 0.02135 0.0
C224 C 0.71639 0.66314 0.00598 0.0
C225 C 0.86516 0.6412 0.02585 0.0
O226 O 0.87683 0.66927 0.04593 0.0
O227 O 0.79989 0.70559 0.96819 0.0
O228 O 0.76059 0.74528 0.97245 0.0
O229 O 0.80716 0.68635 0.07259 0.0
O230 O 0.78658 0.72864 0.04503 0.0
C231 C 0.78086 0.72854 0.95631 0.0
C232 C 0.79273 0.71543 0.07221 0.0
O233 O 0.83483 0.64005 0.00754 0.0
Mg234 Mg 0.94154 0.06364 0.23514 0.0
O235 O 0.90406 0.01082 0.23058 0.0
O236 O 0.93824 0.96726 0.22442 0.0
Mg237 Mg 0.99778 0.9917 0.22682 0.0
C238 C 0.90743 0.97811 0.22644 0.0
C239 C 0.8997 0.12134 0.26677 0.0
O240 O 0.9334 0.13633 0.27641 0.0
O241 O 0.96329 0.05517 0.28729 0.0
O242 O 0.99759 0.01194 0.27943 0.0
O243 O 0.93647 0.06361 0.18109 0.0
O244 O 0.9799 0.04091 0.21061 0.0
C245 C 0.98492 0.03373 0.29802 0.0
C246 C 0.9649 0.047 0.18265 0.0
O247 O 0.89417 0.09168 0.25012 0.0
Mg248 Mg 0.30656 0.18803 0.51205 0.0
O249 O 0.25053 0.15445 0.50965 0.0
O250 O 0.20845 0.19177 0.5055 0.0
Mg251 Mg 0.23707 0.24862 0.51004 0.0
C252 C 0.21726 0.16056 0.50626 0.0
C253 C 0.36623 0.14216 0.52165 0.0
O254 O 0.37827 0.17194 0.53929 0.0
O255 O 0.2941 0.19723 0.45849 0.0
O256 O 0.25558 0.23798 0.46083 0.0
O257 O 0.31297 0.19605 0.56552 0.0
O258 O 0.28701 0.23097 0.53345 0.0
C259 C 0.27451 0.21905 0.44525 0.0
C260 C 0.29809 0.22465 0.56244 0.0
O261 O 0.33522 0.13919 0.50406 0.0
Mg262 Mg 0.44306 0.55624 0.73219 0.0
O263 O 0.40209 0.5061 0.72538 0.0
O264 O 0.43367 0.46004 0.72296 0.0
Mg265 Mg 0.49482 0.48094 0.72535 0.0
C266 C 0.40351 0.47295 0.72279 0.0
C267 C 0.40407 0.61639 0.76401 0.0
O268 O 0.43809 0.62906 0.77539 0.0
O269 O 0.46014 0.54431 0.78434 0.0
O270 O 0.49691 0.50298 0.77786 0.0
O271 O 0.44085 0.55768 0.67837 0.0
O272 O 0.48053 0.53104 0.70833 0.0
C273 C 0.48276 0.52415 0.79589 0.0
C274 C 0.46738 0.53859 0.68027 0.0
O275 O 0.39742 0.58746 0.74623 0.0
Mg276 Mg 0.73405 0.33675 0.51827 0.0
O277 O 0.78072 0.37925 0.51076 0.0
O278 O 0.83043 0.35147 0.50932 0.0
Mg279 Mg 0.81606 0.29305 0.51661 0.0
C280 C 0.81455 0.37926 0.50799 0.0
C281 C 0.6572 0.36443 0.50084 0.0
O282 O 0.64604 0.33111 0.49094 0.0
O283 O 0.72989 0.31477 0.46525 0.0
O284 O 0.77937 0.2866 0.46803 0.0
O285 O 0.74767 0.34905 0.57056 0.0
O286 O 0.7739 0.31006 0.54441 0.0
C287 C 0.75061 0.29537 0.45234 0.0
C288 C 0.7731 0.32893 0.571 0.0
O289 O 0.69123 0.37447 0.50899 0.0
Mg290 Mg 0.63861 0.00253 0.77106 0.0
O291 O 0.60468 0.00298 0.72134 0.0
O292 O 0.64386 0.99792 0.68574 0.0
Mg293 Mg 0.70232 0.99931 0.71214 0.0
C294 C 0.61175 0.00061 0.69248 0.0
C295 C 0.59394 0.98705 0.82436 0.0
O296 O 0.62789 0.98881 0.83843 0.0
O297 O 0.64438 0.94402 0.76365 0.0
O298 O 0.69136 0.94694 0.7354 0.0
O299 O 0.65126 0.06159 0.7763 0.0
O300 O 0.68425 0.02575 0.75361 0.0
C301 C 0.66989 0.93016 0.75208 0.0
C302 C 0.67927 0.05753 0.76184 0.0
O303 O 0.58775 0.99057 0.79447 0.0
Mg304 Mg 0.05784 0.25052 0.88924 0.0
O305 O 0.99929 0.23819 0.86254 0.0
O306 O 0.96247 0.22085 0.89804 0.0
Mg307 Mg 0.99827 0.2184 0.9464 0.0
C308 C 0.9676 0.22839 0.8698 0.0
C309 C 0.10971 0.28489 0.8466 0.0
O310 O 0.13234 0.27384 0.86925 0.0
O311 O 0.04312 0.30047 0.91386 0.0
O312 O 0.01088 0.27915 0.95127 0.0
O313 O 0.06948 0.19511 0.87909 0.0
O314 O 0.04634 0.21393 0.92178 0.0
C315 C 0.02605 0.30489 0.93787 0.0
C316 C 0.05661 0.18826 0.9054 0.0
O317 O 0.07557 0.27994 0.84777 0.0
Mg318 Mg 0.5524 0.74585 0.39633 0.0
O319 O 0.49658 0.7406 0.36468 0.0
O320 O 0.45363 0.73151 0.39685 0.0
Mg321 Mg 0.48171 0.72975 0.44839 0.0
C322 C 0.46313 0.73542 0.36915 0.0
C323 C 0.61463 0.78006 0.36388 0.0
O324 O 0.63026 0.77904 0.39359 0.0
O325 O 0.54449 0.80076 0.41587 0.0
O326 O 0.50435 0.78864 0.45017 0.0
O327 O 0.55362 0.68731 0.39066 0.0
O328 O 0.53031 0.715 0.42934 0.0
C329 C 0.52545 0.81041 0.43713 0.0
C330 C 0.53682 0.68587 0.41564 0.0
O331 O 0.58099 0.76811 0.35621 0.0
Mg332 Mg 0.97843 0.75555 0.60005 0.0
O333 O 0.0338 0.74856 0.62848 0.0
O334 O 0.07232 0.73932 0.59333 0.0
Mg335 Mg 0.04017 0.73502 0.54256 0.0
C336 C 0.06554 0.74369 0.62214 0.0
C337 C 0.93153 0.75983 0.65338 0.0
O338 O 0.91492 0.73275 0.63394 0.0
O339 O 1.00136 0.81006 0.5862 0.0
O340 O 0.03516 0.79427 0.54868 0.0
O341 O 0.95984 0.69781 0.59856 0.0
O342 O 0.98808 0.72284 0.56129 0.0
C343 C 0.02164 0.81776 0.56474 0.0
C344 C 0.97326 0.69466 0.57191 0.0
O345 O 0.96012 0.77744 0.64619 0.0
Mg346 Mg 0.4797 0.25968 0.09589 0.0
O347 O 0.53358 0.25258 0.12672 0.0
O348 O 0.57513 0.24597 0.09386 0.0
Mg349 Mg 0.54622 0.24332 0.04195 0.0
C350 C 0.56613 0.24871 0.12204 0.0
C351 C 0.4281 0.26115 0.14528 0.0
O352 O 0.41243 0.23569 0.12361 0.0
O353 O 0.50276 0.31529 0.08499 0.0
O354 O 0.5395 0.3023 0.04903 0.0
O355 O 0.46185 0.20183 0.09232 0.0
O356 O 0.4925 0.22855 0.05733 0.0
C357 C 0.52431 0.3246 0.06494 0.0
C358 C 0.47714 0.19975 0.06658 0.0
O359 O 0.45784 0.27907 0.14096 0.0
C360 C 0.27391 0.78697 0.85846 0.0
C361 C 0.25085 0.75462 0.84904 0.0
C362 C 0.22344 0.76035 0.8988 0.0
C363 C 0.24983 0.79002 0.91001 0.0
N364 N 0.30112 0.83141 0.90159 0.0
N365 N 0.20542 0.70869 0.86073 0.0
C366 C 0.27518 0.80344 0.89001 0.0
C367 C 0.22574 0.741 0.86918 0.0
N368 N 0.29404 0.80223 0.83696 0.0
N369 N 0.19637 0.75052 0.91664 0.0
H370 H 0.20622 0.6938 0.83922 0.0
H371 H 0.18973 0.69533 0.8759 0.0
H372 H 0.19448 0.76355 0.93879 0.0
H373 H 0.17411 0.73144 0.90844 0.0
H374 H 0.30857 0.82749 0.84105 0.0
H375 H 0.29394 0.79072 0.81378 0.0
H376 H 0.32323 0.83981 0.89001 0.0
H377 H 0.30153 0.84533 0.92383 0.0
C378 C 0.02876 0.45834 0.38331 0.0
C379 C 0.00397 0.48375 0.38315 0.0
C380 C 0.0314 0.51252 0.3402 0.0
C381 C 0.0589 0.48978 0.34321 0.0
N382 N 0.08473 0.44114 0.36683 0.0
N383 N 0.9793 0.53368 0.36094 0.0
C384 C 0.05766 0.46248 0.36436 0.0
C385 C 0.00445 0.51033 0.36124 0.0
N386 N 0.02464 0.43036 0.40165 0.0
N387 N 0.03119 0.53616 0.31723 0.0
H388 H 0.95722 0.53086 0.37387 0.0
H389 H 0.98047 0.55636 0.34866 0.0
H390 H 0.05136 0.53954 0.30234 0.0
H391 H 0.01015 0.55122 0.31147 0.0
H392 H 0.03938 0.40897 0.40058 0.0
H393 H 0.00455 0.42712 0.41664 0.0
H394 H 0.08824 0.42355 0.3844 0.0
H395 H 0.10503 0.44202 0.35192 0.0
C396 C 0.75719 0.7298 0.86582 0.0
C397 C 0.77817 0.76198 0.86086 0.0
C398 C 0.80398 0.77006 0.91803 0.0
C399 C 0.78312 0.73783 0.92299 0.0
N400 N 0.74412 0.68428 0.90185 0.0
N401 N 0.82547 0.8103 0.8804 0.0
C402 C 0.76113 0.71675 0.89685 0.0
C403 C 0.80287 0.78131 0.88644 0.0
N404 N 0.73276 0.71235 0.84101 0.0
N405 N 0.82402 0.79042 0.94382 0.0
H406 H 0.82436 0.82034 0.85795 0.0
H407 H 0.84696 0.8233 0.89696 0.0
H408 H 0.82726 0.78206 0.96696 0.0
H409 H 0.83612 0.8162 0.94282 0.0
H410 H 0.7137 0.69086 0.84351 0.0
H411 H 0.73021 0.72052 0.81779 0.0
H412 H 0.73031 0.666 0.88357 0.0
H413 H 0.74583 0.67444 0.92442 0.0
C414 C 0.04989 0.02957 0.37432 0.0
C415 C 0.02687 0.03201 0.39842 0.0
C416 C 0.97461 0.03371 0.35644 0.0
C417 C 0.99878 0.0356 0.33298 0.0
N418 N 0.06118 0.04605 0.32201 0.0
N419 N 0.96838 0.04319 0.41286 0.0
C420 C 0.03697 0.03675 0.34265 0.0
C421 C 0.98946 0.03609 0.38964 0.0
N422 N 0.08364 0.01897 0.38125 0.0
N423 N 0.93763 0.02806 0.34717 0.0
H424 H 0.97844 0.04559 0.43732 0.0
H425 H 0.94202 0.04988 0.40772 0.0
H426 H 0.92565 0.02518 0.32318 0.0
H427 H 0.91897 0.02292 0.36318 0.0
H428 H 0.10002 0.01381 0.36369 0.0
H429 H 0.09339 0.01134 0.40373 0.0
H430 H 0.08941 0.05027 0.32906 0.0
H431 H 0.05309 0.05369 0.29913 0.0
C432 C 0.27968 0.25529 0.64674 0.0
C433 C 0.26409 0.28642 0.63994 0.0
C434 C 0.27903 0.28122 0.58527 0.0
C435 C 0.29153 0.2481 0.59068 0.0
N436 N 0.31987 0.21413 0.63134 0.0
N437 N 0.24234 0.32549 0.60152 0.0
C438 C 0.29608 0.23757 0.6227 0.0
C439 C 0.26163 0.29814 0.60875 0.0
N440 N 0.27903 0.24279 0.67632 0.0
N441 N 0.28796 0.29881 0.55965 0.0
H442 H 0.22913 0.33846 0.61827 0.0
H443 H 0.23633 0.33277 0.57821 0.0
H444 H 0.30652 0.29066 0.54513 0.0
H445 H 0.28201 0.32426 0.55594 0.0
H446 H 0.28552 0.2179 0.68155 0.0
H447 H 0.26892 0.25596 0.69501 0.0
H448 H 0.32587 0.20701 0.65466 0.0
H449 H 0.33876 0.20652 0.61704 0.0
C450 C 0.53124 0.53242 0.6168 0.0
C451 C 0.5112 0.5048 0.595 0.0
C452 C 0.46487 0.49624 0.63124 0.0
C453 C 0.48279 0.52632 0.65125 0.0
N454 N 0.53145 0.575 0.66231 0.0
N455 N 0.4578 0.46175 0.57972 0.0
C456 C 0.51573 0.54481 0.64394 0.0
C457 C 0.47777 0.48693 0.60184 0.0
N458 N 0.56534 0.54649 0.61166 0.0
N459 N 0.43611 0.47604 0.64082 0.0
H460 H 0.46709 0.45321 0.55859 0.0
H461 H 0.43119 0.45074 0.5813 0.0
H462 H 0.42608 0.48235 0.66209 0.0
H463 H 0.42411 0.45173 0.62924 0.0
H464 H 0.5831 0.56412 0.62818 0.0
H465 H 0.57721 0.53834 0.5918 0.0
H466 H 0.55302 0.59201 0.6563 0.0
H467 H 0.52129 0.58453 0.68267 0.0
C468 C 0.79781 0.32458 0.6601 0.0
C469 C 0.81914 0.29625 0.65969 0.0
C470 C 0.82446 0.30292 0.60319 0.0
C471 C 0.79703 0.32542 0.60202 0.0
N472 N 0.77765 0.37366 0.63242 0.0
N473 N 0.85477 0.25918 0.63137 0.0
C474 C 0.78949 0.34124 0.63143 0.0
C475 C 0.8332 0.28565 0.6314 0.0
N476 N 0.78378 0.33432 0.68726 0.0
N477 N 0.84575 0.30255 0.57938 0.0
H478 H 0.86354 0.24727 0.65206 0.0
H479 H 0.8623 0.2479 0.61044 0.0
H480 H 0.8448 0.32174 0.56301 0.0
H481 H 0.86803 0.28846 0.57942 0.0
H482 H 0.76439 0.35179 0.68767 0.0
H483 H 0.78932 0.32295 0.70889 0.0
H484 H 0.77421 0.38769 0.65362 0.0
H485 H 0.77698 0.38891 0.61282 0.0
C486 C 0.56361 0.03794 0.61957 0.0
C487 C 0.53208 0.01258 0.61119 0.0
C488 C 0.55175 0.97965 0.6571 0.0
C489 C 0.58285 0.00547 0.66584 0.0
N490 N 0.61372 0.06347 0.66042 0.0
N491 N 0.49196 0.96357 0.62503 0.0
C492 C 0.58734 0.03595 0.64858 0.0
C493 C 0.52482 0.98478 0.63103 0.0
N494 N 0.57181 0.06303 0.59911 0.0
N495 N 0.54883 0.94949 0.67271 0.0
H496 H 0.4718 0.96674 0.60611 0.0
H497 H 0.48338 0.94495 0.64026 0.0
H498 H 0.56792 0.94498 0.69197 0.0
H499 H 0.52901 0.92787 0.66524 0.0
H500 H 0.59668 0.07941 0.6019 0.0
H501 H 0.55478 0.06593 0.57796 0.0
H502 H 0.61582 0.0879 0.65085 0.0
H503 H 0.63151 0.06313 0.6817 0.0
C504 C 0.90293 0.19762 0.79258 0.0
C505 C 0.87461 0.21878 0.79567 0.0
C506 C 0.9087 0.24848 0.84603 0.0
C507 C 0.93554 0.22522 0.8443 0.0
N508 N 0.95566 0.17425 0.81874 0.0
N509 N 0.84792 0.26181 0.82619 0.0
C510 C 0.93206 0.19897 0.81822 0.0
C511 C 0.87676 0.24357 0.82265 0.0
N512 N 0.90226 0.17659 0.76485 0.0
N513 N 0.9144 0.27597 0.86939 0.0
H514 H 0.82467 0.25964 0.80898 0.0
H515 H 0.84588 0.27733 0.84698 0.0
H516 H 0.93724 0.28013 0.8871 0.0
H517 H 0.89803 0.29617 0.86992 0.0
H518 H 0.92412 0.16369 0.75961 0.0
H519 H 0.88091 0.1741 0.74577 0.0
H520 H 0.95212 0.15187 0.80258 0.0
H521 H 0.97729 0.17454 0.83713 0.0
C522 C 0.55128 0.89117 0.49609 0.0
C523 C 0.53444 0.91692 0.47882 0.0
C524 C 0.5131 0.87307 0.4329 0.0
C525 C 0.53079 0.84778 0.44992 0.0
N526 N 0.57362 0.83425 0.49406 0.0
N527 N 0.50675 0.93499 0.42855 0.0
C528 C 0.55208 0.85735 0.48039 0.0
C529 C 0.5174 0.90863 0.44654 0.0
N530 N 0.56474 0.89825 0.528 0.0
N531 N 0.49148 0.86288 0.40415 0.0
H532 H 0.51056 0.96147 0.43749 0.0
H533 H 0.49736 0.93123 0.40401 0.0
H534 H 0.48904 0.8374 0.39292 0.0
H535 H 0.47432 0.87896 0.39237 0.0
H536 H 0.5731 0.87908 0.54271 0.0
H537 H 0.56489 0.92259 0.54069 0.0
H538 H 0.59285 0.84109 0.51452 0.0
H539 H 0.57476 0.80911 0.48329 0.0
C540 C 0.12776 0.30649 0.76278 0.0
C541 C 0.15779 0.33362 0.7706 0.0
C542 C 0.15014 0.33372 0.82746 0.0
C543 C 0.12422 0.30294 0.82011 0.0
N544 N 0.09154 0.257 0.78101 0.0
N545 N 0.20057 0.37071 0.81094 0.0
C546 C 0.11362 0.28859 0.78779 0.0
C547 C 0.16962 0.3469 0.80307 0.0
N548 N 0.11193 0.29865 0.73153 0.0
N549 N 0.15541 0.35093 0.85755 0.0
H550 H 0.21599 0.38099 0.794 0.0
H551 H 0.21277 0.37804 0.83453 0.0
H552 H 0.14109 0.34241 0.87587 0.0
H553 H 0.17116 0.3755 0.86339 0.0
H554 H 0.08777 0.28147 0.72476 0.0
H555 H 0.12066 0.31223 0.71272 0.0
H556 H 0.08636 0.24349 0.75823 0.0
H557 H 0.08097 0.24264 0.79858 0.0
C558 C 0.4817 0.60757 0.44481 0.0
C559 C 0.50937 0.59473 0.46572 0.0
C560 C 0.55569 0.64007 0.45143 0.0
C561 C 0.52808 0.65234 0.4301 0.0
N562 N 0.46666 0.64533 0.4022 0.0
N563 N 0.57289 0.5973 0.48861 0.0
C564 C 0.49156 0.63539 0.42559 0.0
C565 C 0.54651 0.61032 0.46865 0.0
N566 N 0.44593 0.59337 0.44359 0.0
N567 N 0.59031 0.65819 0.45648 0.0
H568 H 0.56706 0.57928 0.50524 0.0
H569 H 0.60083 0.60364 0.48837 0.0
H570 H 0.59838 0.67936 0.44357 0.0
H571 H 0.61086 0.65364 0.4744 0.0
H572 H 0.42393 0.60412 0.43191 0.0
H573 H 0.4378 0.57158 0.45573 0.0
H574 H 0.44034 0.63219 0.3953 0.0
H575 H 0.47342 0.66536 0.38768 0.0
C576 C 0.89808 0.74243 0.73236 0.0
C577 C 0.88221 0.77359 0.73882 0.0
C578 C 0.90268 0.79805 0.69097 0.0
C579 C 0.91861 0.76696 0.68459 0.0
N580 N 0.9402 0.71403 0.70323 0.0
N581 N 0.87882 0.83484 0.73018 0.0
C582 C 0.91908 0.74056 0.70663 0.0
C583 C 0.88736 0.80261 0.71989 0.0
N584 N 0.89149 0.71393 0.74963 0.0
N585 N 0.90067 0.82246 0.6688 0.0
H586 H 0.86898 0.83943 0.75194 0.0
H587 H 0.8851 0.85778 0.71898 0.0
H588 H 0.91215 0.82035 0.64759 0.0
H589 H 0.88548 0.84352 0.67036 0.0
H590 H 0.8986 0.68911 0.74349 0.0
H591 H 0.87649 0.71423 0.76883 0.0
H592 H 0.9446 0.69594 0.72025 0.0
H593 H 0.95629 0.71221 0.68485 0.0
C594 C 0.05059 0.91761 0.56834 0.0
C595 C 0.04799 0.92222 0.53495 0.0
C596 C 0.02008 0.86076 0.52276 0.0
C597 C 0.02774 0.85465 0.55566 0.0
N598 N 0.05518 0.87654 0.60959 0.0
N599 N 0.0393 0.89477 0.48052 0.0
C600 C 0.04414 0.88292 0.57853 0.0
C601 C 0.03502 0.89295 0.51211 0.0
N602 N 0.05827 0.94638 0.59034 0.0
N603 N 0.99794 0.83603 0.50165 0.0
H604 H 0.05327 0.91659 0.47193 0.0
H605 H 0.03317 0.87292 0.46365 0.0
H606 H 0.98528 0.81257 0.50872 0.0
H607 H 0.98891 0.8407 0.47801 0.0
H608 H 0.05683 0.94486 0.61474 0.0
H609 H 0.0627 0.97221 0.58389 0.0
H610 H 0.07095 0.89543 0.62638 0.0
H611 H 0.05127 0.85155 0.61794 0.0
C612 C 0.15257 0.72215 0.67115 0.0
C613 C 0.15531 0.74553 0.6993 0.0
C614 C 0.10174 0.77084 0.67493 0.0
C615 C 0.09587 0.7439 0.64914 0.0
N616 N 0.11138 0.68824 0.62775 0.0
N617 N 0.127 0.78707 0.73054 0.0
C618 C 0.11996 0.7178 0.64875 0.0
C619 C 0.12827 0.7684 0.70198 0.0
N620 N 0.1817 0.70579 0.66448 0.0
N621 N 0.08356 0.79978 0.6731 0.0
H622 H 0.14501 0.78531 0.75138 0.0
H623 H 0.10559 0.80136 0.73438 0.0
H624 H 0.06549 0.80392 0.65304 0.0
H625 H 0.08967 0.82162 0.68998 0.0
H626 H 0.18163 0.69082 0.64285 0.0
H627 H 0.20741 0.71094 0.67833 0.0
H628 H 0.12667 0.66712 0.62867 0.0
H629 H 0.0869 0.683 0.612 0.0
C630 C 0.93659 0.61985 0.50768 0.0
C631 C 0.95685 0.59288 0.51877 0.0
C632 C 0.9881 0.6326 0.56497 0.0
C633 C 0.96904 0.66005 0.55306 0.0
N634 N 0.928 0.68169 0.51175 0.0
N635 N 0.00448 0.57357 0.55531 0.0
C636 C 0.94425 0.65425 0.52392 0.0
C637 C 0.98336 0.59924 0.54672 0.0
N638 N 0.90915 0.61213 0.4822 0.0
N639 N 0.01045 0.63845 0.59385 0.0
H640 H 1.00094 0.54852 0.54301 0.0
H641 H 0.0269 0.57748 0.57335 0.0
H642 H 0.01619 0.66312 0.6069 0.0
H643 H 0.02205 0.61871 0.60579 0.0
H644 H 0.89035 0.62917 0.47519 0.0
H645 H 0.90337 0.5875 0.46911 0.0
H646 H 0.91349 0.68045 0.48873 0.0
H647 H 0.93059 0.70671 0.52388 0.0
C648 C 0.81427 0.92285 0.20028 0.0
C649 C 0.8184 0.89402 0.21926 0.0
C650 C 0.87613 0.9252 0.24792 0.0
C651 C 0.87492 0.95133 0.22561 0.0
N652 N 0.84367 0.97445 0.17916 0.0
N653 N 0.85469 0.86569 0.2592 0.0
C654 C 0.84398 0.95031 0.20162 0.0
C655 C 0.8496 0.89471 0.24275 0.0
N656 N 0.78175 0.92408 0.18127 0.0
N657 N 0.90201 0.93012 0.27466 0.0
H658 H 0.83569 0.84294 0.25646 0.0
H659 H 0.87898 0.86313 0.27376 0.0
H660 H 0.92121 0.95271 0.27977 0.0
H661 H 0.90206 0.9137 0.29338 0.0
H662 H 0.77556 0.94603 0.16935 0.0
H663 H 0.75959 0.90421 0.17965 0.0
H664 H 0.82412 0.97235 0.15877 0.0
H665 H 0.86426 0.99553 0.17963 0.0
C666 C 0.81057 0.14118 0.29587 0.0
C667 C 0.80869 0.17584 0.28628 0.0
C668 C 0.86489 0.17361 0.26197 0.0
C669 C 0.86833 0.14001 0.27361 0.0
N670 N 0.848 0.0943 0.3063 0.0
N671 N 0.83721 0.22771 0.2655 0.0
C672 C 0.84209 0.12441 0.29182 0.0
C673 C 0.83686 0.19286 0.27094 0.0
N674 N 0.78179 0.12397 0.30809 0.0
N675 N 0.88724 0.1864 0.24098 0.0
H676 H 0.81698 0.24263 0.27146 0.0
H677 H 0.85911 0.24268 0.25771 0.0
H678 H 0.90758 0.17285 0.23317 0.0
H679 H 0.88344 0.20882 0.2289 0.0
H680 H 0.77956 0.0973 0.31213 0.0
H681 H 0.75872 0.13573 0.31208 0.0
H682 H 0.832 0.08367 0.32265 0.0
H683 H 0.87087 0.08145 0.30413 0.0
C684 C 0.35683 0.96815 0.97056 0.0
C685 C 0.38863 0.97723 0.99365 0.0
C686 C 0.36436 0.93377 0.02795 0.0
C687 C 0.33602 0.92061 0.00258 0.0
N688 N 0.3059 0.92374 0.94867 0.0
N689 N 0.42477 0.9664 0.04313 0.0
C690 C 0.33209 0.93763 0.97368 0.0
C691 C 0.39287 0.95965 0.02221 0.0
N692 N 0.35009 0.98904 0.94597 0.0
N693 N 0.36339 0.92216 0.0578 0.0
H694 H 0.44648 0.98508 0.03981 0.0
H695 H 0.4309 0.95147 0.06243 0.0
H696 H 0.34174 0.90456 0.06301 0.0
H697 H 0.38155 0.93296 0.07802 0.0
H698 H 0.32569 0.98579 0.93015 0.0
H699 H 0.36756 0.01175 0.94319 0.0
H700 H 0.30463 0.9324 0.9257 0.0
H701 H 0.28674 0.90191 0.95024 0.0
C702 C 0.22867 0.37146 0.29778 0.0
C703 C 0.21611 0.33821 0.2803 0.0
C704 C 0.16724 0.36411 0.24834 0.0
C705 C 0.18251 0.39784 0.26325 0.0
N706 N 0.22654 0.43472 0.30257 0.0
N707 N 0.17322 0.30157 0.24015 0.0
C708 C 0.2125 0.4017 0.28849 0.0
C709 C 0.18499 0.33409 0.25612 0.0
N710 N 0.2564 0.37419 0.32305 0.0
N711 N 0.13581 0.36103 0.2269 0.0
H712 H 0.18444 0.2789 0.24656 0.0
H713 H 0.15316 0.29691 0.22012 0.0
H714 H 0.12271 0.38279 0.22082 0.0
H715 H 0.12137 0.33711 0.21658 0.0
H716 H 0.26392 0.39636 0.33932 0.0
H717 H 0.27104 0.35352 0.3292 0.0
H718 H 0.2512 0.44044 0.31788 0.0
H719 H 0.2142 0.45729 0.298 0.0
C720 C 0.15679 0.07488 0.47279 0.0
C721 C 0.12554 0.07831 0.48808 0.0
C722 C 0.15873 0.1304 0.52102 0.0
C723 C 0.18734 0.13045 0.50177 0.0
N724 N 0.21077 0.10505 0.4557 0.0
N725 N 0.09519 0.11078 0.5252 0.0
C726 C 0.18588 0.10311 0.47686 0.0
C727 C 0.12611 0.10635 0.51198 0.0
N728 N 0.15883 0.04437 0.45466 0.0
N729 N 0.16318 0.15262 0.54845 0.0
H730 H 0.07101 0.09336 0.51951 0.0
H731 H 0.09274 0.13304 0.54001 0.0
H732 H 0.18719 0.16974 0.55635 0.0
H733 H 0.14471 0.15151 0.565 0.0
H734 H 0.18241 0.03906 0.44541 0.0
H735 H 0.13831 0.02282 0.45185 0.0
H736 H 0.20825 0.08789 0.43502 0.0
H737 H 0.23202 0.12566 0.4569 0.0
C738 C 0.76876 0.113 0.75302 0.0
C739 C 0.7572 0.14651 0.74857 0.0
C740 C 0.69352 0.11998 0.7468 0.0
C741 C 0.70575 0.08797 0.75626 0.0
N742 N 0.75702 0.05851 0.77732 0.0
N743 N 0.70692 0.18207 0.74424 0.0
C744 C 0.74392 0.08553 0.76168 0.0
C745 C 0.71938 0.15015 0.74636 0.0
N746 N 0.80323 0.10703 0.74831 0.0
N747 N 0.65718 0.12209 0.73815 0.0
H748 H 0.72376 0.20608 0.74518 0.0
H749 H 0.72376 0.20608 0.74518 0.0
H750 H 0.63709 0.10022 0.73549 0.0
H751 H 0.64761 0.14543 0.73136 0.0
H752 H 0.81164 0.082 0.74844 0.0
H753 H 0.82193 0.12608 0.74067 0.0
H754 H 0.78487 0.05771 0.78419 0.0
H755 H 0.74054 0.03947 0.78727 0.0
C756 C 0.40038 0.05514 0.54222 0.0
C757 C 0.43721 0.06231 0.53661 0.0
C758 C 0.42433 0.11792 0.51459 0.0
C759 C 0.38876 0.11272 0.52352 0.0
N760 N 0.34385 0.07847 0.54918 0.0
N761 N 0.48582 0.10183 0.52066 0.0
C762 C 0.37683 0.08171 0.53797 0.0
C763 C 0.44961 0.09405 0.52359 0.0
N764 N 0.38782 0.02275 0.5512 0.0
N765 N 0.43351 0.14521 0.49663 0.0
H766 H 0.50508 0.08474 0.52645 0.0
H767 H 0.4974 0.12628 0.51483 0.0
H768 H 0.41538 0.16284 0.48921 0.0
H769 H 0.45763 0.14848 0.48654 0.0
H770 H 0.36033 0.0144 0.55217 0.0
H771 H 0.40458 0.00308 0.55543 0.0
H772 H 0.33551 0.05858 0.56331 0.0
H773 H 0.32568 0.09712 0.54635 0.0
C774 C 0.57329 0.40237 0.52569 0.0
C775 C 0.58241 0.4387 0.52166 0.0
C776 C 0.63694 0.42492 0.49882 0.0
C777 C 0.63043 0.38946 0.50675 0.0
N778 N 0.59701 0.3478 0.53665 0.0
N779 N 0.62834 0.48554 0.51203 0.0
C780 C 0.59982 0.37898 0.5226 0.0
C781 C 0.61589 0.4503 0.51049 0.0
N782 N 0.53908 0.38983 0.53159 0.0
N783 N 0.66226 0.43427 0.47918 0.0
H784 H 0.61464 0.50497 0.52183 0.0
H785 H 0.65418 0.49512 0.50691 0.0
H786 H 0.67693 0.41614 0.46871 0.0
H787 H 0.6656 0.45911 0.47043 0.0
H788 H 0.53011 0.36295 0.53155 0.0
H789 H 0.51853 0.40587 0.53329 0.0
H790 H 0.57689 0.34081 0.55092 0.0
H791 H 0.61708 0.33098 0.53757 0.0
C792 C 0.76395 0.28349 0.36452 0.0
C793 C 0.7419 0.25057 0.3552 0.0
C794 C 0.71733 0.25348 0.40655 0.0
C795 C 0.74314 0.28363 0.4175 0.0
N796 N 0.79178 0.32742 0.40784 0.0
N797 N 0.69867 0.20291 0.36726 0.0
C798 C 0.76644 0.29886 0.39659 0.0
C799 C 0.71847 0.2354 0.37604 0.0
N800 N 0.78205 0.30023 0.34248 0.0
N801 N 0.69195 0.24206 0.42549 0.0
H802 H 0.69848 0.18912 0.345 0.0
H803 H 0.68428 0.18846 0.38264 0.0
H804 H 0.69093 0.25441 0.44813 0.0
H805 H 0.67012 0.22232 0.41788 0.0
H806 H 0.79562 0.32588 0.34663 0.0
H807 H 0.78106 0.28952 0.31889 0.0
H808 H 0.81266 0.33718 0.39539 0.0
H809 H 0.79305 0.34047 0.43058 0.0
C810 C 0.51097 0.00447 0.86391 0.0
C811 C 0.51154 0.97886 0.88667 0.0
C812 C 0.56009 0.95359 0.8626 0.0
C813 C 0.56363 0.98282 0.84376 0.0
N814 N 0.5456 0.03911 0.82975 0.0
N815 N 0.53874 0.93045 0.9098 0.0
C816 C 0.53972 0.00897 0.84501 0.0
C817 C 0.53637 0.95347 0.8864 0.0
N818 N 0.48237 0.02382 0.8597 0.0
N819 N 0.57876 0.9256 0.85723 0.0
H820 H 0.52196 0.92939 0.92773 0.0
H821 H 0.5593 0.91426 0.91296 0.0
H822 H 0.5959 0.92457 0.83959 0.0
H823 H 0.57451 0.90202 0.86799 0.0
H824 H 0.47881 0.04049 0.84131 0.0
H825 H 0.46007 0.02023 0.8723 0.0
H826 H 0.53138 0.06065 0.83295 0.0
H827 H 0.5669 0.04416 0.81628 0.0
C828 C 0.24727 0.22101 0.35545 0.0
C829 C 0.27067 0.25137 0.34973 0.0
C830 C 0.30067 0.2566 0.40569 0.0
C831 C 0.27687 0.22662 0.41155 0.0
N832 N 0.23195 0.1767 0.39205 0.0
N833 N 0.323 0.29535 0.36734 0.0
C834 C 0.25159 0.2076 0.38631 0.0
C835 C 0.29857 0.2682 0.37422 0.0
N836 N 0.22036 0.20567 0.33155 0.0
N837 N 0.32423 0.27485 0.43072 0.0
H838 H 0.32106 0.30626 0.34527 0.0
H839 H 0.34654 0.30602 0.38275 0.0
H840 H 0.32804 0.26598 0.45365 0.0
H841 H 0.33897 0.29946 0.42941 0.0
H842 H 0.19987 0.18576 0.33474 0.0
H843 H 0.21747 0.21402 0.30839 0.0
H844 H 0.21505 0.15974 0.37441 0.0
H845 H 0.23457 0.16665 0.41451 0.0
C846 C 0.51066 0.55678 0.88476 0.0
C847 C 0.52203 0.52582 0.8974 0.0
C848 C 0.49811 0.49276 0.84567 0.0
C849 C 0.49354 0.52491 0.8314 0.0
N850 N 0.50367 0.58903 0.83763 0.0
N851 N 0.53258 0.46517 0.88741 0.0
C852 C 0.50177 0.55743 0.851 0.0
C853 C 0.51732 0.49393 0.87723 0.0
N854 N 0.50775 0.5854 0.90498 0.0
N855 N 0.48318 0.46104 0.82963 0.0
H856 H 0.5482 0.46515 0.90986 0.0
H857 H 0.53284 0.44254 0.87225 0.0
H858 H 0.46716 0.45892 0.80719 0.0
H859 H 0.48309 0.43723 0.84027 0.0
H860 H 0.49667 0.60756 0.89704 0.0
H861 H 0.51235 0.58515 0.92991 0.0
H862 H 0.51287 0.61307 0.85108 0.0
H863 H 0.50039 0.59124 0.81296 0.0
C864 C 0.74595 0.76912 0.12929 0.0
C865 C 0.77469 0.77918 0.15515 0.0
C866 C 0.81533 0.74622 0.12715 0.0
C867 C 0.78585 0.73435 0.10227 0.0
N868 N 0.72085 0.72538 0.08535 0.0
N869 N 0.8333 0.76924 0.18267 0.0
C870 C 0.75042 0.74311 0.10502 0.0
C871 C 0.80834 0.76514 0.15535 0.0
N872 N 0.71501 0.78529 0.12712 0.0
N873 N 0.85031 0.74118 0.12331 0.0
H874 H 0.82875 0.78222 0.20406 0.0
H875 H 0.85671 0.75662 0.18503 0.0
H876 H 0.85702 0.72808 0.10285 0.0
H877 H 0.87311 0.75282 0.13924 0.0
H878 H 0.69494 0.78128 0.107 0.0
H879 H 0.71093 0.80511 0.14399 0.0
H880 H 0.69395 0.72872 0.08784 0.0
H881 H 0.72334 0.70408 0.06942 0.0
C882 C 0.03239 0.04087 0.12247 0.0
C883 C 0.01159 0.01649 0.09804 0.0
C884 C 0.96151 0.00914 0.13063 0.0
C885 C 0.98077 0.0362 0.15347 0.0
N886 N 0.03252 0.08117 0.16945 0.0
N887 N 0.95532 0.9794 0.07701 0.0
C888 C 0.01581 0.05281 0.14905 0.0
C889 C 0.97584 0.00111 0.10163 0.0
N890 N 0.06819 0.05237 0.12035 0.0
N891 N 0.93025 0.99022 0.13727 0.0
H892 H 0.9655 0.97179 0.05605 0.0
H893 H 0.92763 0.97062 0.07645 0.0
H894 H 0.91938 0.99528 0.15839 0.0
H895 H 0.91682 0.96777 0.12332 0.0
H896 H 0.08609 0.06697 0.13898 0.0
H897 H 0.08101 0.04492 0.10087 0.0
H898 H 0.05601 0.09699 0.1655 0.0
H899 H 0.02128 0.09091 0.18911 0.0
C900 C 0.26826 0.79373 0.14497 0.0
C901 C 0.30576 0.78927 0.15091 0.0
C902 C 0.31535 0.81418 0.10026 0.0
C903 C 0.27697 0.81362 0.09225 0.0
N904 N 0.21615 0.79575 0.10472 0.0
N905 N 0.36464 0.79122 0.13249 0.0
C906 C 0.25317 0.80149 0.11401 0.0
C907 C 0.32933 0.79854 0.12816 0.0
N908 N 0.2473 0.79197 0.16926 0.0
N909 N 0.33855 0.83099 0.08206 0.0
H910 H 0.37604 0.77989 0.15263 0.0
H911 H 0.38173 0.79375 0.11487 0.0
H912 H 0.32904 0.84362 0.06221 0.0
H913 H 0.36684 0.83549 0.08849 0.0
H914 H 0.22066 0.79833 0.16688 0.0
H915 H 0.25786 0.78823 0.1928 0.0
H916 H 0.19804 0.78352 0.11868 0.0
H917 H 0.20375 0.79962 0.08177 0.0
C918 C 0.06131 0.53724 0.12129 0.0
C919 C 0.02984 0.51164 0.11394 0.0
C920 C 0.05099 0.4801 0.16035 0.0
C921 C 0.08195 0.50627 0.16818 0.0
N922 N 0.1118 0.56421 0.16113 0.0
N923 N 0.9905 0.46325 0.12979 0.0
C924 C 0.08563 0.53623 0.15016 0.0
C925 C 0.02334 0.48452 0.13464 0.0
N926 N 0.06892 0.56156 0.09999 0.0
N927 N 0.04891 0.45019 0.17637 0.0
H928 H 0.96977 0.46594 0.11119 0.0
H929 H 0.98254 0.44519 0.14574 0.0
H930 H 0.06864 0.44599 0.19525 0.0
H931 H 0.02918 0.42837 0.16945 0.0
H932 H 0.09368 0.57803 0.10212 0.0
H933 H 0.05157 0.56363 0.07883 0.0
H934 H 0.11334 0.58829 0.15095 0.0
H935 H 0.12992 0.56464 0.18234 0.0
C936 C 0.37518 0.74985 0.3176 0.0
C937 C 0.37374 0.7239 0.29167 0.0
C938 C 0.43185 0.70633 0.3156 0.0
C939 C 0.43395 0.73306 0.34117 0.0
N940 N 0.4122 0.78523 0.36293 0.0
N941 N 0.40341 0.68237 0.26217 0.0
C942 C 0.40691 0.75631 0.34111 0.0
C943 C 0.40304 0.70377 0.28945 0.0
N944 N 0.34576 0.76757 0.32021 0.0
N945 N 0.45609 0.68208 0.31709 0.0
H946 H 0.38234 0.67917 0.24281 0.0
H947 H 0.42589 0.67009 0.25752 0.0
H948 H 0.47792 0.68295 0.33547 0.0
H949 H 0.45306 0.65942 0.30134 0.0
H950 H 0.34327 0.78372 0.34049 0.0
H951 H 0.3226 0.76436 0.30283 0.0
H952 H 0.39542 0.80515 0.36213 0.0
H953 H 0.43535 0.79105 0.38022 0.0
C954 C 0.01119 0.40137 0.9507 0.0
C955 C 0.02664 0.40895 0.98348 0.0
C956 C 0.0459 0.35001 0.98441 0.0
C957 C 0.02688 0.34107 0.9529 0.0
N958 N 0.9878 0.35644 0.90701 0.0
N959 N 0.05335 0.3887 0.03325 0.0
C960 C 0.00853 0.36628 0.93624 0.0
C961 C 0.04265 0.38283 1.00079 0.0
N962 N 1.00066 0.42799 0.933 0.0
N963 N 0.06825 0.32768 0.99827 0.0
H964 H 0.05121 0.4122 0.04643 0.0
H965 H 0.06121 0.36908 0.04765 0.0
H966 H 0.07185 0.30353 0.98691 0.0
H967 H 0.08595 0.33457 0.01968 0.0
H968 H 0.99273 0.42481 0.90823 0.0
H969 H 0.00306 0.45417 0.94253 0.0
H970 H 0.9704 0.37241 0.89537 0.0
H971 H 0.98588 0.3312 0.8954 0.0
C972 C 0.64736 0.83488 0.29853 0.0
C973 C 0.68094 0.82173 0.29538 0.0
C974 C 0.66814 0.77829 0.33382 0.0
C975 C 0.6366 0.79384 0.33952 0.0
N976 N 0.5995 0.84096 0.33153 0.0
N977 N 0.72731 0.78659 0.31568 0.0
C978 C 0.62702 0.82323 0.323 0.0
C979 C 0.69246 0.79493 0.31453 0.0
N980 N 0.63415 0.85745 0.27742 0.0
N981 N 0.67429 0.74694 0.34591 0.0
H982 H 0.74669 0.79938 0.30321 0.0
H983 H 0.73821 0.76976 0.33172 0.0
H984 H 0.65666 0.73341 0.35956 0.0
H985 H 0.69479 0.73261 0.33967 0.0
H986 H 0.608 0.86483 0.2764 0.0
H987 H 0.64794 0.86634 0.25891 0.0
H988 H 0.59403 0.86487 0.32279 0.0
H989 H 0.58419 0.83354 0.34955 0.0
C990 C 0.03531 0.08938 0.91433 0.0
C991 C 0.05075 0.08841 0.9469 0.0
C992 C 0.07603 0.15096 0.94928 0.0
C993 C 0.05679 0.15304 0.91818 0.0
N994 N 0.01919 0.12468 0.8702 0.0
N995 N 0.08744 0.11723 0.99533 0.0
C996 C 0.03717 0.12224 0.90025 0.0
C997 C 0.07147 0.11896 0.9644 0.0
N998 N 0.01889 0.05883 0.89685 0.0
N999 N 0.1006 0.17902 0.96345 0.0
H1000 H 0.08961 0.09354 0.0058 0.0
H1001 H 0.09782 0.13935 0.01108 0.0
H1002 H 0.10606 0.20232 0.95248 0.0
H1003 H 0.11829 0.17832 0.98464 0.0
H1004 H 0.01105 0.05669 0.87209 0.0
H1005 H 0.01466 0.03469 0.90672 0.0
H1006 H 1.00011 0.10482 0.85748 0.0
H1007 H 0.0225 0.14734 0.85811 0.0
C1008 C 0.39005 0.23686 0.22077 0.0
C1009 C 0.37425 0.26762 0.22876 0.0
C1010 C 0.39722 0.29612 0.18371 0.0
C1011 C 0.4132 0.26545 0.17588 0.0
N1012 N 0.43332 0.2107 0.19134 0.0
N1013 N 0.37178 0.3298 0.22407 0.0
C1014 C 0.41228 0.23707 0.19585 0.0
C1015 C 0.38053 0.2983 0.21209 0.0
N1016 N 0.38231 0.20685 0.23579 0.0
N1017 N 0.3966 0.32247 0.1634 0.0
H1018 H 0.36092 0.33263 0.24555 0.0
H1019 H 0.37881 0.35374 0.21466 0.0
H1020 H 0.40917 0.32209 0.1427 0.0
H1021 H 0.38153 0.34349 0.16586 0.0
H1022 H 0.38941 0.18242 0.22832 0.0
H1023 H 0.36639 0.20561 0.25436 0.0
H1024 H 0.4367 0.19111 0.20706 0.0
H1025 H 0.45031 0.21034 0.17354 0.0
C1026 C 0.53579 0.40313 0.01557 0.0
C1027 C 0.54663 0.43166 0.03958 0.0
C1028 C 0.54439 0.38975 0.08125 0.0
C1029 C 0.5297 0.36205 0.05719 0.0
N1030 N 0.50212 0.34486 0.00229 0.0
N1031 N 0.55577 0.45298 0.09567 0.0
C1032 C 0.52248 0.36955 0.02462 0.0
C1033 C 0.54937 0.42523 0.07259 0.0
N1034 N 0.54056 0.40717 0.98436 0.0
N1035 N 0.55512 0.38211 0.112 0.0
H1036 H 0.55945 0.47927 0.0903 0.0
H1037 H 0.55426 0.45007 0.11987 0.0
H1038 H 0.55223 0.35652 0.11918 0.0
H1039 H 0.56968 0.40071 0.12972 0.0
H1040 H 0.53606 0.38613 0.96663 0.0
H1041 H 0.55344 0.43028 0.97694 0.0
H1042 H 0.49325 0.35036 0.97886 0.0
H1043 H 0.49065 0.32029 0.00809 0.0
C1044 C 0.65 0.22553 0.17468 0.0
C1045 C 0.65022 0.24728 0.20344 0.0
C1046 C 0.5983 0.27352 0.17704 0.0
C1047 C 0.59466 0.24793 0.15032 0.0
N1048 N 0.61238 0.19361 0.12816 0.0
N1049 N 0.61905 0.28702 0.23385 0.0
C1050 C 0.61909 0.2221 0.15045 0.0
C1051 C 0.62275 0.26984 0.20519 0.0
N1052 N 0.68004 0.20993 0.16932 0.0
N1053 N 0.58 0.30238 0.17516 0.0
H1054 H 0.63549 0.28436 0.25537 0.0
H1055 H 0.59714 0.30094 0.23682 0.0
H1056 H 0.56346 0.3074 0.15446 0.0
H1057 H 0.58461 0.32338 0.19292 0.0
H1058 H 0.68192 0.19623 0.14748 0.0
H1059 H 0.70476 0.21462 0.18473 0.0
H1060 H 0.62782 0.17259 0.12924 0.0
H1061 H 0.58912 0.18897 0.11092 0.0
C1062 C 0.44355 0.12504 0.0016 0.0
C1063 C 0.4617 0.09751 0.01444 0.0
C1064 C 0.49195 0.13762 0.06075 0.0
C1065 C 0.47456 0.16543 0.04745 0.0
N1066 N 0.43751 0.18749 0.00361 0.0
N1067 N 0.50657 0.07762 0.05335 0.0
C1068 C 0.45167 0.15974 0.01726 0.0
C1069 C 0.48694 0.10382 0.04322 0.0
N1070 N 0.41748 0.11761 0.97506 0.0
N1071 N 0.51288 0.14353 0.09032 0.0
H1072 H 0.50277 0.05229 0.04158 0.0
H1073 H 0.52815 0.08131 0.07218 0.0
H1074 H 0.51907 0.16847 0.10283 0.0
H1075 H 0.52292 0.12369 0.10322 0.0
H1076 H 0.39997 0.13524 0.96662 0.0
H1077 H 0.41145 0.09274 0.9624 0.0
H1078 H 0.42452 0.18609 0.98003 0.0
H1079 H 0.44055 0.21288 0.01506 0.0
C1080 C 0.33596 0.39477 0.73631 0.0
C1081 C 0.30759 0.39589 0.71054 0.0
C1082 C 0.3406 0.44927 0.69381 0.0
C1083 C 0.36895 0.4484 0.71986 0.0
N1084 N 0.38845 0.42681 0.77091 0.0
N1085 N 0.27823 0.42793 0.66955 0.0
C1086 C 0.36506 0.42305 0.74265 0.0
C1087 C 0.30841 0.42448 0.69089 0.0
N1088 N 0.33583 0.3661 0.75397 0.0
N1089 N 0.3451 0.47244 0.67091 0.0
H1090 H 0.25433 0.41001 0.66676 0.0
H1091 H 0.27558 0.45008 0.65682 0.0
H1092 H 0.36772 0.4916 0.67223 0.0
H1093 H 0.32754 0.47118 0.64934 0.0
H1094 H 0.35797 0.3618 0.77047 0.0
H1095 H 0.31444 0.34531 0.75063 0.0
H1096 H 0.38504 0.41111 0.7898 0.0
H1097 H 0.40906 0.44812 0.7768 0.0
C1098 C 0.34562 0.6916 0.76841 0.0
C1099 C 0.31585 0.67542 0.78234 0.0
C1100 C 0.34578 0.62178 0.78736 0.0
C1101 C 0.37374 0.63671 0.77054 0.0
N1102 N 0.39721 0.68356 0.74034 0.0
N1103 N 0.28505 0.62403 0.80202 0.0
C1104 C 0.37296 0.67111 0.75994 0.0
C1105 C 0.31523 0.64018 0.79101 0.0
N1106 N 0.34803 0.72676 0.76369 0.0
N1107 N 0.34914 0.59068 0.80094 0.0
H1108 H 0.26272 0.63703 0.80592 0.0
H1109 H 0.28098 0.59718 0.80522 0.0
H1110 H 0.37121 0.57662 0.79902 0.0
H1111 H 0.33178 0.58026 0.81637 0.0
H1112 H 0.37106 0.74105 0.75702 0.0
H1113 H 0.32823 0.74248 0.76907 0.0
H1114 H 0.39547 0.70669 0.72891 0.0
H1115 H 0.41721 0.66919 0.73303 0.0
C1116 C 0.89531 0.45122 0.52289 0.0
C1117 C 0.88807 0.47111 0.49612 0.0
C1118 C 0.83053 0.43235 0.47797 0.0
C1119 C 0.83739 0.41303 0.50522 0.0
N1120 N 0.87062 0.40975 0.55789 0.0
N1121 N 0.84556 0.48611 0.45243 0.0
C1122 C 0.86808 0.42425 0.52903 0.0
C1123 C 0.85457 0.4634 0.47499 0.0
N1124 N 0.92875 0.45704 0.54165 0.0
N1125 N 0.80219 0.42018 0.45421 0.0
H1126 H 0.86258 0.50912 0.44967 0.0
H1127 H 0.81999 0.48389 0.43845 0.0
H1128 H 0.78357 0.39793 0.45571 0.0
H1129 H 0.79853 0.43069 0.43204 0.0
H1130 H 0.93704 0.44062 0.55917 0.0
H1131 H 0.94943 0.47672 0.53811 0.0
H1132 H 0.8905 0.4192 0.57735 0.0
H1133 H 0.85057 0.3906 0.56354 0.0
C1134 C 0.72732 0.87538 0.8037 0.0
C1135 C 0.71976 0.84193 0.78574 0.0
C1136 C 0.67454 0.8649 0.74734 0.0
C1137 C 0.68187 0.89805 0.76561 0.0
N1138 N 0.70797 0.93244 0.81532 0.0
N1139 N 0.68096 0.80233 0.74492 0.0
C1140 C 0.70561 0.90232 0.79531 0.0
C1141 C 0.69155 0.83588 0.75896 0.0
N1142 N 0.75699 0.88247 0.8272 0.0
N1143 N 0.6522 0.86155 0.71854 0.0
H1144 H 0.69279 0.78065 0.7532 0.0
H1145 H 0.65857 0.7955 0.72705 0.0
H1146 H 0.63822 0.88199 0.71027 0.0
H1147 H 0.64888 0.83932 0.70223 0.0
H1148 H 0.76649 0.90768 0.83821 0.0
H1149 H 0.7743 0.86397 0.83393 0.0
H1150 H 0.72158 0.93525 0.83879 0.0
H1151 H 0.69366 0.95352 0.8097 0.0
C1152 C 0.65692 0.57298 0.99789 0.0
C1153 C 0.62323 0.58174 0.98242 0.0
C1154 C 0.65347 0.64083 0.97692 0.0
C1155 C 0.68519 0.63423 0.99717 0.0
N1156 N 0.71246 0.59517 0.03363 0.0
N1157 N 0.58781 0.62836 0.9667 0.0
C1158 C 0.68575 0.60059 0.00962 0.0
C1159 C 0.62096 0.61703 0.97485 0.0
N1160 N 0.66214 0.53851 1.0004 0.0
N1161 N 0.65452 0.66873 0.95833 0.0
H1162 H 0.56315 0.61254 0.96751 0.0
H1163 H 0.58511 0.6547 0.96318 0.0
H1164 H 0.67864 0.68491 0.95642 0.0
H1165 H 0.63238 0.67268 0.9416 0.0
H1166 H 0.68743 0.53104 0.00904 0.0
H1167 H 0.64254 0.51741 0.99063 0.0
H1168 H 0.71192 0.57181 0.04503 0.0
H1169 H 0.73254 0.61515 0.04482 0.0
C1170 C 0.26809 0.61349 0.25694 0.0
C1171 C 0.25634 0.64681 0.25189 0.0
C1172 C 0.1928 0.62026 0.25056 0.0
C1173 C 0.20522 0.58852 0.26052 0.0
N1174 N 0.25653 0.55956 0.28224 0.0
N1175 N 0.20774 0.68356 0.25097 0.0
C1176 C 0.2434 0.58633 0.26624 0.0
C1177 C 0.21872 0.65074 0.25074 0.0
N1178 N 0.30245 0.60731 0.25205 0.0
N1179 N 0.1567 0.62111 0.2396 0.0
H1180 H 0.226 0.70671 0.25237 0.0
H1181 H 0.18102 0.68788 0.25318 0.0
H1182 H 0.13703 0.59893 0.23734 0.0
H1183 H 0.14709 0.64285 0.22933 0.0
H1184 H 0.31088 0.58232 0.25271 0.0
H1185 H 0.321 0.62604 0.24384 0.0
H1186 H 0.28439 0.55888 0.28917 0.0
H1187 H 0.23996 0.54064 0.29225 0.0
C1188 C 0.89705 0.55247 0.04328 0.0
C1189 C 0.93424 0.5596 0.03869 0.0
C1190 C 0.92282 0.61639 0.01827 0.0
C1191 C 0.88689 0.61113 0.02641 0.0
N1192 N 0.84037 0.57591 0.04948 0.0
N1193 N 0.98382 0.59903 0.02412 0.0
C1194 C 0.87395 0.57944 0.03933 0.0
C1195 C 0.94747 0.59173 0.02668 0.0
N1196 N 0.8838 0.51979 0.05119 0.0
N1197 N 0.93296 0.64462 0.00172 0.0
H1198 H 0.00252 0.5812 0.02909 0.0
H1199 H 0.99606 0.6236 0.01918 0.0
H1200 H 0.91531 0.66286 0.99486 0.0
H1201 H 0.95744 0.64826 0.99221 0.0
H1202 H 0.85613 0.51153 0.05136 0.0
H1203 H 0.90023 0.49985 0.05535 0.0
H1204 H 0.83116 0.55545 0.06264 0.0
H1205 H 0.82242 0.59476 0.04664 0.0
C1206 C 0.0755 0.91826 0.0153 0.0
C1207 C 0.08948 0.95234 0.03042 0.0
C1208 C 0.15211 0.93711 0.03394 0.0
C1209 C 0.13834 0.90394 0.01672 0.0
N1210 N 0.08794 0.86444 0.98714 0.0
N1211 N 0.14093 0.99634 0.05051 0.0
C1212 C 0.10025 0.8949 0.00638 0.0
C1213 C 0.12778 0.96239 0.03865 0.0
N1214 N 0.03854 0.90811 0.00992 0.0
N1215 N 0.18811 0.94381 0.04726 0.0
H1216 H 0.12402 0.01514 0.05586 0.0
H1217 H 0.16848 0.0066 0.05313 0.0
H1218 H 0.20697 0.92619 0.04435 0.0
H1219 H 0.19882 0.96562 0.06329 0.0
H1220 H 0.02653 0.88246 0.00212 0.0
H1221 H 0.01968 0.92481 0.01556 0.0
H1222 H 0.06104 0.85782 0.97604 0.0
H1223 H 0.1054 0.84697 0.98 0.0
loop_
_geom_bond_atom_site_label_1
_geom_bond_atom_site_label_2
_geom_bond_distance
_geom_bond_site_symmetry_2
_ccdc_geom_bond_type
H0 C5 0.930 1_655 S
H1 C8 0.930 1_556 S
H2 C10 0.930 1_565 S
H3 C4 1.016 . S
C4 H3 1.016 . S
C4 N11 1.286 . S
C5 H0 0.930 1_455 S
C5 C6 1.397 . S
C5 C7 1.361 . S
C6 C5 1.397 . S
C6 C10 1.390 . S
C7 C5 1.361 . S
C7 C8 1.393 . S
C7 N11 1.413 1_554 S
C8 H1 0.930 1_554 S
C8 C7 1.393 . S
C8 C9 1.399 . S
C9 C8 1.399 . S
C9 C10 1.381 . S
C10 H2 0.930 1_545 S
C10 C6 1.390 . S
C10 C9 1.381 . S
N11 C4 1.286 . S
N11 C7 1.413 1_556 S
H12 C17 0.930 . S
H13 C20 0.930 . S
H14 C22 0.930 . S
H15 C16 1.016 . S
C16 H15 1.016 . S
C16 N23 1.286 . S
C17 H12 0.930 . S
C17 C18 1.397 . S
C17 C19 1.361 . S
C18 C17 1.397 . S
C18 C22 1.390 . S
C19 C17 1.361 . S
C19 C20 1.393 . S
C19 N23 1.413 . S
C20 H13 0.930 . S
C20 C19 1.393 . S
C20 C21 1.399 . S
C21 C20 1.399 . S
C21 C22 1.381 . S
C22 H14 0.930 . S
C22 C18 1.390 . S
C22 C21 1.381 . S
N23 C16 1.286 . S
N23 C19 1.413 . S
H24 C29 0.930 . S
H25 C32 0.930 1_455 S
H26 C34 0.930 . S
H27 C28 1.016 1_455 S
C28 H27 1.016 1_655 S
C28 N35 1.286 . S
C29 H24 0.930 . S
C29 C30 1.397 . S
C29 C31 1.361 . S
C30 C29 1.397 . S
C30 C34 1.390 . S
C31 C29 1.361 . S
C31 C32 1.393 . S
C31 N35 1.413 . S
C32 H25 0.930 1_655 S
C32 C31 1.393 . S
C32 C33 1.396 . S
C33 C32 1.396 . S
C33 C34 1.402 . S
C34 H26 0.930 . S
C34 C30 1.390 . S
C34 C33 1.402 . S
N35 C28 1.286 . S
N35 C31 1.413 . S
H36 C41 0.930 . S
H37 C44 0.930 . S
H38 C46 0.930 . S
H39 C40 1.016 . S
C40 H39 1.016 . S
C40 N47 1.286 . S
C41 H36 0.930 . S
C41 C42 1.397 . S
C41 C43 1.361 . S
C42 C41 1.397 . S
C42 C46 1.390 . S
C43 C41 1.361 . S
C43 C44 1.393 . S
C43 N47 1.413 . S
C44 H37 0.930 . S
C44 C43 1.393 . S
C44 C45 1.399 . S
C45 C44 1.399 . S
C45 C46 1.381 . S
C46 H38 0.930 . S
C46 C42 1.390 . S
C46 C45 1.381 . S
N47 C40 1.286 . S
N47 C43 1.413 . S
H48 C53 0.930 . S
H49 C56 0.930 . S
H50 C58 0.930 . S
H51 C52 1.016 . S
C52 H51 1.016 . S
C52 N59 1.286 . S
C53 H48 0.930 . S
C53 C54 1.397 1_565 S
C53 C55 1.361 . S
C54 C53 1.397 1_545 S
C54 C58 1.390 . S
C55 C53 1.361 . S
C55 C56 1.393 . S
C55 N59 1.413 . S
C56 H49 0.930 . S
C56 C55 1.393 . S
C56 C57 1.399 1_565 S
C57 C56 1.399 1_545 S
C57 C58 1.381 . S
C58 H50 0.930 . S
C58 C54 1.390 . S
C58 C57 1.381 . S
N59 C52 1.286 . S
N59 C55 1.413 . S
H60 C65 0.930 . S
H61 C68 0.930 . S
H62 C70 0.930 . S
H63 C64 1.016 . S
C64 H63 1.016 . S
C64 N71 1.286 . S
C65 H60 0.930 . S
C65 C66 1.397 . S
C65 C67 1.361 . S
C66 C65 1.397 . S
C66 C70 1.390 . S
C67 C65 1.361 . S
C67 C68 1.393 . S
C67 N71 1.413 . S
C68 H61 0.930 . S
C68 C67 1.393 . S
C68 C69 1.399 . S
C69 C68 1.399 . S
C69 C70 1.381 . S
C70 H62 0.930 . S
C70 C66 1.390 . S
C70 C69 1.381 . S
N71 C64 1.286 . S
N71 C67 1.413 . S
H72 C77 0.930 1_455 S
H73 C80 0.930 . S
H74 C82 0.930 . S
H75 C76 1.020 . S
C76 H75 1.020 . S
C76 N83 1.286 . S
C77 H72 0.930 1_655 S
C77 C78 1.397 . S
C77 C79 1.361 . S
C78 C77 1.397 . S
C78 C82 1.390 . S
C79 C77 1.361 . S
C79 C80 1.393 . S
C79 N83 1.413 1_655 S
C80 H73 0.930 . S
C80 C79 1.393 . S
C80 C81 1.399 . S
C81 C80 1.399 . S
C81 C82 1.381 . S
C82 H74 0.930 . S
C82 C78 1.390 . S
C82 C81 1.381 . S
N83 C76 1.286 . S
N83 C79 1.413 1_455 S
H84 C89 0.930 . S
H85 C92 0.930 . S
H86 C94 0.930 . S
H87 C88 1.016 . S
C88 H87 1.016 . S
C88 N95 1.286 . S
C89 H84 0.930 . S
C89 C90 1.397 . S
C89 C91 1.361 . S
C90 C89 1.397 . S
C90 C94 1.390 . S
C91 C89 1.361 . S
C91 C92 1.393 . S
C91 N95 1.413 . S
C92 H85 0.930 . S
C92 C91 1.393 . S
C92 C93 1.399 . S
C93 C92 1.399 . S
C93 C94 1.381 . S
C94 H86 0.930 . S
C94 C90 1.390 . S
C94 C93 1.381 . S
N95 C88 1.286 . S
N95 C91 1.413 . S
H96 C101 0.930 . S
H97 C104 0.930 . S
H98 C106 0.930 . S
H99 C100 1.016 . S
C100 H99 1.016 . S
C100 N107 1.286 . S
C101 H96 0.930 . S
C101 C102 1.397 . S
C101 C103 1.361 . S
C102 C101 1.397 . S
C102 C106 1.390 . S
C103 C101 1.361 . S
C103 C104 1.393 . S
C103 N107 1.413 . S
C104 H97 0.930 . S
C104 C103 1.393 . S
C104 C105 1.399 . S
C105 C104 1.399 . S
C105 C106 1.381 . S
C106 H98 0.930 . S
C106 C102 1.390 . S
C106 C105 1.381 . S
N107 C100 1.286 . S
N107 C103 1.413 . S
H108 C113 0.930 . S
H109 C116 0.930 . S
H110 C118 0.930 . S
H111 C112 1.016 . S
C112 H111 1.016 . S
C112 N119 1.286 . S
C113 H108 0.930 . S
C113 C114 1.397 1_565 S
C113 C115 1.361 . S
C114 C113 1.397 1_545 S
C114 C118 1.390 . S
C115 C113 1.361 . S
C115 C116 1.393 . S
C115 N119 1.413 . S
C116 H109 0.930 . S
C116 C115 1.393 . S
C116 C117 1.399 . S
C117 C116 1.399 . S
C117 C118 1.381 1_565 S
C118 H110 0.930 . S
C118 C114 1.390 . S
C118 C117 1.381 1_545 S
N119 C112 1.286 . S
N119 C115 1.413 . S
H120 C125 0.930 . S
H121 C128 0.930 . S
H122 C130 0.930 . S
H123 C124 1.016 . S
C124 H123 1.016 . S
C124 N131 1.286 . S
C125 H120 0.930 . S
C125 C126 1.397 . S
C125 C127 1.361 . S
C126 C125 1.397 . S
C126 C130 1.390 . S
C127 C125 1.361 . S
C127 C128 1.393 . S
C127 N131 1.413 . S
C128 H121 0.930 . S
C128 C127 1.393 . S
C128 C129 1.399 . S
C129 C128 1.399 . S
C129 C130 1.381 . S
C130 H122 0.930 . S
C130 C126 1.390 . S
C130 C129 1.381 . S
N131 C124 1.286 . S
N131 C127 1.413 . S
H132 C137 0.930 . S
H133 C140 0.930 . S
H134 C142 0.930 . S
H135 C136 1.016 . S
C136 H135 1.016 . S
C136 N143 1.286 . S
C137 H132 0.930 . S
C137 C138 1.397 . S
C137 C139 1.361 . S
C138 C137 1.397 . S
C138 C142 1.390 . S
C139 C137 1.361 . S
C139 C140 1.393 . S
C139 N143 1.413 . S
C140 H133 0.930 . S
C140 C139 1.393 . S
C140 C141 1.399 . S
C141 C140 1.399 . S
C141 C142 1.381 . S
C142 H134 0.930 . S
C142 C138 1.390 . S
C142 C141 1.381 . S
N143 C136 1.286 . S
N143 C139 1.413 . S
H144 C149 0.930 . S
H145 C152 0.930 . S
H146 C154 0.930 . S
H147 C148 1.016 . S
C148 H147 1.016 . S
C148 N155 1.286 . S
C149 H144 0.930 . S
C149 C150 1.397 . S
C149 C151 1.361 . S
C150 C149 1.397 . S
C150 C154 1.390 . S
C151 C149 1.361 . S
C151 C152 1.393 . S
C151 N155 1.413 . S
C152 H145 0.930 . S
C152 C151 1.393 . S
C152 C153 1.399 . S
C153 C152 1.399 . S
C153 C154 1.381 . S
C154 H146 0.930 . S
C154 C150 1.390 . S
C154 C153 1.381 . S
N155 C148 1.286 . S
N155 C151 1.413 . S
H156 C161 0.930 . S
H157 C164 0.930 1_554 S
H158 C166 0.930 . S
H159 C160 1.016 . S
C160 H159 1.016 . S
C160 N167 1.286 1_554 S
C161 H156 0.930 . S
C161 C162 1.397 . S
C161 C163 1.361 . S
C162 C161 1.397 . S
C162 C166 1.390 . S
C163 C161 1.361 . S
C163 C164 1.393 . S
C163 N167 1.413 . S
C164 H157 0.930 1_556 S
C164 C163 1.393 . S
C164 C165 1.399 . S
C165 C164 1.399 . S
C165 C166 1.381 . S
C166 H158 0.930 . S
C166 C162 1.390 . S
C166 C165 1.381 . S
N167 C160 1.286 1_556 S
N167 C163 1.413 . S
H168 C173 0.930 . S
H169 C176 0.930 . S
H170 C178 0.930 . S
H171 C172 1.016 . S
C172 H171 1.016 . S
C172 N179 1.286 . S
C173 H168 0.930 . S
C173 C174 1.397 . S
C173 C175 1.361 . S
C174 C173 1.397 . S
C174 C178 1.390 . S
C175 C173 1.361 . S
C175 C176 1.393 . S
C175 N179 1.413 . S
C176 H169 0.930 . S
C176 C175 1.393 . S
C176 C177 1.399 . S
C177 C176 1.399 . S
C177 C178 1.381 . S
C178 H170 0.930 . S
C178 C174 1.390 . S
C178 C177 1.381 . S
N179 C172 1.286 . S
N179 C175 1.413 . S
H180 C185 0.930 . S
H181 C188 0.930 1_565 S
H182 C190 0.930 . S
H183 C184 1.016 1_565 S
C184 H183 1.016 1_545 S
C184 N191 1.286 . S
C185 H180 0.930 . S
C185 C186 1.397 1_556 S
C185 C187 1.361 . S
C186 C185 1.397 1_554 S
C186 C190 1.390 . S
C187 C185 1.361 . S
C187 C188 1.393 . S
C187 N191 1.413 . S
C188 H181 0.930 1_545 S
C188 C187 1.393 . S
C188 C189 1.399 . S
C189 C188 1.399 . S
C189 C190 1.381 1_556 S
C190 H182 0.930 . S
C190 C186 1.390 . S
C190 C189 1.381 1_554 S
N191 C184 1.286 . S
N191 C187 1.413 . S
Mg192 O193 2.028 . S
Mg192 O199 1.986 1_554 S
Mg192 O201 2.114 . S
Mg192 O202 2.251 . S
Mg192 O205 2.010 . S
O193 Mg192 2.028 . S
O193 C196 1.250 . S
O194 Mg195 2.028 . S
O194 C196 1.248 . S
Mg195 O194 2.028 . S
Mg195 O200 2.032 1_554 S
Mg195 O202 2.079 . S
C196 O193 1.250 . S
C196 O194 1.248 . S
C197 O198 1.264 . S
C197 O205 1.249 . S
O198 C197 1.264 . S
O199 Mg192 1.986 1_556 S
O199 C203 1.246 . S
O200 Mg195 2.032 1_556 S
O200 C203 1.259 . S
O201 Mg192 2.114 . S
O201 C204 1.252 . S
O202 Mg192 2.251 . S
O202 Mg195 2.079 . S
O202 C204 1.273 . S
C203 O199 1.246 . S
C203 O200 1.259 . S
C204 O201 1.252 . S
C204 O202 1.273 . S
O205 Mg192 2.010 . S
O205 C197 1.249 . S
Mg206 O207 2.028 . S
Mg206 O213 1.986 . S
Mg206 O215 2.114 . S
Mg206 O216 2.251 . S
Mg206 O219 2.010 . S
O207 Mg206 2.028 . S
O207 C210 1.250 . S
O208 Mg209 2.028 . S
O208 C210 1.248 . S
Mg209 O208 2.028 . S
Mg209 O214 2.032 . S
Mg209 O216 2.079 . S
C210 O207 1.250 . S
C210 O208 1.248 . S
C211 O212 1.264 . S
C211 O219 1.249 . S
O212 C211 1.264 . S
O213 Mg206 1.986 . S
O213 C217 1.246 . S
O214 Mg209 2.032 . S
O214 C217 1.259 . S
O215 Mg206 2.114 . S
O215 C218 1.252 . S
O216 Mg206 2.251 . S
O216 Mg209 2.079 . S
O216 C218 1.273 . S
C217 O213 1.246 . S
C217 O214 1.259 . S
C218 O215 1.252 . S
C218 O216 1.273 . S
O219 Mg206 2.010 . S
O219 C211 1.249 . S
Mg220 O221 2.028 . S
Mg220 O227 1.986 1_554 S
Mg220 O229 2.114 . S
Mg220 O230 2.251 . S
Mg220 O233 2.010 . S
O221 Mg220 2.028 . S
O221 C224 1.250 1_554 S
O222 Mg223 2.028 . S
O222 C224 1.248 . S
Mg223 O222 2.028 . S
Mg223 O228 2.032 . S
Mg223 O230 2.079 1_556 S
C224 O221 1.250 1_556 S
C224 O222 1.248 . S
C225 O226 1.264 . S
C225 O233 1.249 . S
O226 C225 1.264 . S
O227 Mg220 1.986 1_556 S
O227 C231 1.246 . S
O228 Mg223 2.032 . S
O228 C231 1.259 . S
O229 Mg220 2.114 . S
O229 C232 1.252 . S
O230 Mg220 2.251 . S
O230 Mg223 2.079 1_554 S
O230 C232 1.273 . S
C231 O227 1.246 . S
C231 O228 1.259 . S
C232 O229 1.252 . S
C232 O230 1.273 . S
O233 Mg220 2.010 . S
O233 C225 1.249 . S
Mg234 O235 2.028 . S
Mg234 O241 1.986 . S
Mg234 O243 2.114 . S
Mg234 O244 2.251 . S
Mg234 O247 2.010 . S
O235 Mg234 2.028 . S
O235 C238 1.250 1_545 S
O236 Mg237 2.028 . S
O236 C238 1.248 . S
Mg237 O236 2.028 . S
Mg237 O242 2.032 . S
Mg237 O244 2.079 1_565 S
C238 O235 1.250 1_565 S
C238 O236 1.248 . S
C239 O240 1.264 . S
C239 O247 1.249 . S
O240 C239 1.264 . S
O241 Mg234 1.986 . S
O241 C245 1.246 . S
O242 Mg237 2.032 . S
O242 C245 1.259 1_565 S
O243 Mg234 2.114 . S
O243 C246 1.252 . S
O244 Mg234 2.251 . S
O244 Mg237 2.079 1_545 S
O244 C246 1.273 . S
C245 O241 1.246 . S
C245 O242 1.259 1_545 S
C246 O243 1.252 . S
C246 O244 1.273 . S
O247 Mg234 2.010 . S
O247 C239 1.249 . S
Mg248 O249 2.028 . S
Mg248 O255 1.986 . S
Mg248 O257 2.114 . S
Mg248 O258 2.251 . S
Mg248 O261 2.010 . S
O249 Mg248 2.028 . S
O249 C252 1.250 . S
O250 Mg251 2.028 . S
O250 C252 1.248 . S
Mg251 O250 2.028 . S
Mg251 O256 2.032 . S
Mg251 O258 2.079 . S
C252 O249 1.250 . S
C252 O250 1.248 . S
C253 O254 1.264 . S
C253 O261 1.249 . S
O254 C253 1.264 . S
O255 Mg248 1.986 . S
O255 C259 1.246 . S
O256 Mg251 2.032 . S
O256 C259 1.259 . S
O257 Mg248 2.114 . S
O257 C260 1.252 . S
O258 Mg248 2.251 . S
O258 Mg251 2.079 . S
O258 C260 1.273 . S
C259 O255 1.246 . S
C259 O256 1.259 . S
C260 O257 1.252 . S
C260 O258 1.273 . S
O261 Mg248 2.010 . S
O261 C253 1.249 . S
Mg262 O263 2.028 . S
Mg262 O269 1.986 . S
Mg262 O271 2.114 . S
Mg262 O272 2.251 . S
Mg262 O275 2.010 . S
O263 Mg262 2.028 . S
O263 C266 1.250 . S
O264 Mg265 2.028 . S
O264 C266 1.248 . S
Mg265 O264 2.028 . S
Mg265 O270 2.032 . S
Mg265 O272 2.079 . S
C266 O263 1.250 . S
C266 O264 1.248 . S
C267 O268 1.264 . S
C267 O275 1.249 . S
O268 C267 1.264 . S
O269 Mg262 1.986 . S
O269 C273 1.246 . S
O270 Mg265 2.032 . S
O270 C273 1.259 . S
O271 Mg262 2.114 . S
O271 C274 1.252 . S
O272 Mg262 2.251 . S
O272 Mg265 2.079 . S
O272 C274 1.273 . S
C273 O269 1.246 . S
C273 O270 1.259 . S
C274 O271 1.252 . S
C274 O272 1.273 . S
O275 Mg262 2.010 . S
O275 C267 1.249 . S
Mg276 O277 2.028 . S
Mg276 O283 1.986 . S
Mg276 O285 2.114 . S
Mg276 O286 2.251 . S
Mg276 O289 2.010 . S
O277 Mg276 2.028 . S
O277 C280 1.250 . S
O278 Mg279 2.028 . S
O278 C280 1.248 . S
Mg279 O278 2.028 . S
Mg279 O284 2.032 . S
Mg279 O286 2.079 . S
C280 O277 1.250 . S
C280 O278 1.248 . S
C281 O282 1.264 . S
C281 O289 1.249 . S
O282 C281 1.264 . S
O283 Mg276 1.986 . S
O283 C287 1.246 . S
O284 Mg279 2.032 . S
O284 C287 1.259 . S
O285 Mg276 2.114 . S
O285 C288 1.252 . S
O286 Mg276 2.251 . S
O286 Mg279 2.079 . S
O286 C288 1.273 . S
C287 O283 1.246 . S
C287 O284 1.259 . S
C288 O285 1.252 . S
C288 O286 1.273 . S
O289 Mg276 2.010 . S
O289 C281 1.249 . S
Mg290 O291 2.028 1_545 S
Mg290 O297 1.986 1_545 S
Mg290 O299 2.114 . S
Mg290 O300 2.251 . S
Mg290 O303 2.010 . S
O291 Mg290 2.028 1_565 S
O291 C294 1.250 . S
O292 Mg293 2.028 . S
O292 C294 1.248 . S
Mg293 O292 2.028 . S
Mg293 O298 2.032 . S
Mg293 O300 2.079 1_565 S
C294 O291 1.250 . S
C294 O292 1.248 . S
C295 O296 1.264 . S
C295 O303 1.249 . S
O296 C295 1.264 . S
O297 Mg290 1.986 1_565 S
O297 C301 1.246 . S
O298 Mg293 2.032 . S
O298 C301 1.259 . S
O299 Mg290 2.114 . S
O299 C302 1.252 . S
O300 Mg290 2.251 . S
O300 Mg293 2.079 1_545 S
O300 C302 1.273 . S
C301 O297 1.246 . S
C301 O298 1.259 . S
C302 O299 1.252 . S
C302 O300 1.273 . S
O303 Mg290 2.010 . S
O303 C295 1.249 . S
Mg304 O305 2.028 1_455 S
Mg304 O311 1.986 . S
Mg304 O313 2.114 . S
Mg304 O314 2.251 1_455 S
Mg304 O317 2.010 . S
O305 Mg304 2.028 1_655 S
O305 C308 1.250 . S
O306 Mg307 2.028 . S
O306 C308 1.248 . S
Mg307 O306 2.028 . S
Mg307 O312 2.032 . S
Mg307 O314 2.079 . S
C308 O305 1.250 . S
C308 O306 1.248 . S
C309 O310 1.264 . S
C309 O317 1.249 . S
O310 C309 1.264 . S
O311 Mg304 1.986 . S
O311 C315 1.246 1_455 S
O312 Mg307 2.032 . S
O312 C315 1.259 . S
O313 Mg304 2.114 . S
O313 C316 1.252 . S
O314 Mg304 2.251 1_655 S
O314 Mg307 2.079 . S
O314 C316 1.273 1_655 S
C315 O311 1.246 1_655 S
C315 O312 1.259 . S
C316 O313 1.252 . S
C316 O314 1.273 1_455 S
O317 Mg304 2.010 . S
O317 C309 1.249 . S
Mg318 O319 2.028 . S
Mg318 O325 1.986 . S
Mg318 O327 2.114 . S
Mg318 O328 2.251 . S
Mg318 O331 2.010 . S
O319 Mg318 2.028 . S
O319 C322 1.250 . S
O320 Mg321 2.028 . S
O320 C322 1.248 . S
Mg321 O320 2.028 . S
Mg321 O326 2.032 . S
Mg321 O328 2.079 . S
C322 O319 1.250 . S
C322 O320 1.248 . S
C323 O324 1.264 . S
C323 O331 1.249 . S
O324 C323 1.264 . S
O325 Mg318 1.986 . S
O325 C329 1.246 . S
O326 Mg321 2.032 . S
O326 C329 1.259 . S
O327 Mg318 2.114 . S
O327 C330 1.252 . S
O328 Mg318 2.251 . S
O328 Mg321 2.079 . S
O328 C330 1.273 . S
C329 O325 1.246 . S
C329 O326 1.259 . S
C330 O327 1.252 . S
C330 O328 1.273 . S
O331 Mg318 2.010 . S
O331 C323 1.249 . S
Mg332 O333 2.028 1_655 S
Mg332 O339 1.985 . S
Mg332 O341 2.114 . S
Mg332 O342 2.251 1_655 S
Mg332 O345 2.010 . S
O333 Mg332 2.028 1_455 S
O333 C336 1.250 . S
O334 Mg335 2.028 . S
O334 C336 1.248 . S
Mg335 O334 2.028 . S
Mg335 O340 2.032 . S
Mg335 O342 2.079 . S
C336 O333 1.250 . S
C336 O334 1.248 . S
C337 O338 1.264 . S
C337 O345 1.249 . S
O338 C337 1.264 . S
O339 Mg332 1.985 . S
O339 C343 1.247 1_655 S
O340 Mg335 2.032 . S
O340 C343 1.259 . S
O341 Mg332 2.114 . S
O341 C344 1.252 . S
O342 Mg332 2.251 1_455 S
O342 Mg335 2.079 . S
O342 C344 1.273 1_455 S
C343 O339 1.247 1_455 S
C343 O340 1.259 . S
C344 O341 1.252 . S
C344 O342 1.273 1_655 S
O345 Mg332 2.010 . S
O345 C337 1.249 . S
Mg346 O347 2.028 . S
Mg346 O353 1.986 . S
Mg346 O355 2.114 . S
Mg346 O356 2.251 . S
Mg346 O359 2.010 . S
O347 Mg346 2.028 . S
O347 C350 1.250 . S
O348 Mg349 2.028 . S
O348 C350 1.248 . S
Mg349 O348 2.028 . S
Mg349 O354 2.032 . S
Mg349 O356 2.079 . S
C350 O347 1.250 . S
C350 O348 1.248 . S
C351 O352 1.264 . S
C351 O359 1.249 . S
O352 C351 1.264 . S
O353 Mg346 1.986 . S
O353 C357 1.246 . S
O354 Mg349 2.032 . S
O354 C357 1.259 . S
O355 Mg346 2.114 . S
O355 C358 1.252 . S
O356 Mg346 2.251 . S
O356 Mg349 2.079 . S
O356 C358 1.273 . S
C357 O353 1.246 . S
C357 O354 1.259 . S
C358 O355 1.252 . S
C358 O356 1.273 . S
O359 Mg346 2.010 . S
O359 C351 1.249 . S
C360 C361 1.363 . S
C360 C366 1.379 . S
C360 N368 1.356 . S
C361 C360 1.363 . S
C361 C367 1.363 . S
C362 C363 1.363 . S
C362 C367 1.379 . S
C362 N369 1.356 . S
C363 C362 1.363 . S
C363 C366 1.363 . S
N364 C366 1.356 . S
N364 H376 0.984 . S
N364 H377 0.985 . S
N365 C367 1.356 . S
N365 H370 0.984 . S
N365 H371 0.985 . S
C366 C360 1.379 . S
C366 C363 1.363 . S
C366 N364 1.356 . S
C367 C361 1.363 . S
C367 C362 1.379 . S
C367 N365 1.356 . S
N368 C360 1.356 . S
N368 H374 0.984 . S
N368 H375 0.984 . S
N369 C362 1.356 . S
N369 H372 0.984 . S
N369 H373 0.985 . S
H370 N365 0.984 . S
H371 N365 0.985 . S
H372 N369 0.984 . S
H373 N369 0.985 . S
H374 N368 0.984 . S
H375 N368 0.984 . S
H376 N364 0.984 . S
H377 N364 0.985 . S
C378 C379 1.363 . S
C378 C384 1.379 . S
C378 N386 1.356 . S
C379 C378 1.363 . S
C379 C385 1.363 . S
C380 C381 1.363 . S
C380 C385 1.379 . S
C380 N387 1.356 . S
C381 C380 1.363 . S
C381 C384 1.363 . S
N382 C384 1.356 . S
N382 H394 0.984 . S
N382 H395 0.985 . S
N383 C385 1.371 . S
N383 H388 0.977 1_455 S
N383 H389 0.977 1_455 S
C384 C378 1.379 . S
C384 C381 1.363 . S
C384 N382 1.356 . S
C385 C379 1.363 . S
C385 C380 1.379 . S
C385 N383 1.371 . S
N386 C378 1.356 . S
N386 H392 0.984 . S
N386 H393 0.984 . S
N387 C380 1.356 . S
N387 H390 0.984 . S
N387 H391 0.985 . S
H388 N383 0.977 1_655 S
H389 N383 0.977 1_655 S
H390 N387 0.984 . S
H391 N387 0.985 . S
H392 N386 0.984 . S
H393 N386 0.984 . S
H394 N382 0.984 . S
H395 N382 0.985 . S
C396 C397 1.363 . S
C396 C402 1.379 . S
C396 N404 1.356 . S
C397 C396 1.363 . S
C397 C403 1.363 . S
C398 C399 1.363 . S
C398 C403 1.379 . S
C398 N405 1.356 . S
C399 C398 1.363 . S
C399 C402 1.363 . S
N400 C402 1.356 . S
N400 H412 0.984 . S
N400 H413 0.985 . S
N401 C403 1.356 . S
N401 H406 0.984 . S
N401 H407 0.985 . S
C402 C396 1.379 . S
C402 C399 1.363 . S
C402 N400 1.356 . S
C403 C397 1.363 . S
C403 C398 1.379 . S
C403 N401 1.356 . S
N404 C396 1.356 . S
N404 H410 0.984 . S
N404 H411 0.984 . S
N405 C398 1.356 . S
N405 H408 0.984 . S
N405 H409 0.985 . S
H406 N401 0.984 . S
H407 N401 0.985 . S
H408 N405 0.984 . S
H409 N405 0.985 . S
H410 N404 0.984 . S
H411 N404 0.984 . S
H412 N400 0.984 . S
H413 N400 0.985 . S
C414 C415 1.363 1_565 S
C414 C420 1.388 . S
C414 N422 1.356 . S
C415 C414 1.363 1_545 S
C415 C421 1.363 . S
C416 C417 1.363 . S
C416 C421 1.379 1_655 S
C416 N423 1.356 . S
C417 C416 1.363 . S
C417 C420 1.339 1_645 S
N418 C420 1.366 . S
N418 H430 0.984 . S
N418 H431 0.985 . S
N419 C421 1.356 . S
N419 H424 0.984 . S
N419 H425 0.985 . S
C420 C414 1.388 . S
C420 C417 1.339 1_465 S
C420 N418 1.366 . S
C421 C415 1.363 . S
C421 C416 1.379 1_455 S
C421 N419 1.356 . S
N422 C414 1.356 . S
N422 H428 0.984 . S
N422 H429 0.984 . S
N423 C416 1.356 . S
N423 H426 0.984 . S
N423 H427 0.985 . S
H424 N419 0.984 . S
H425 N419 0.985 . S
H426 N423 0.984 . S
H427 N423 0.985 . S
H428 N422 0.984 . S
H429 N422 0.984 . S
H430 N418 0.984 . S
H431 N418 0.985 . S
C432 C433 1.363 . S
C432 C438 1.379 . S
C432 N440 1.356 . S
C433 C432 1.363 . S
C433 C439 1.363 . S
C434 C435 1.363 . S
C434 C439 1.379 . S
C434 N441 1.356 . S
C435 C434 1.363 . S
C435 C438 1.363 . S
N436 C438 1.356 . S
N436 H448 0.984 . S
N436 H449 0.985 . S
N437 C439 1.356 . S
N437 H442 0.984 . S
N437 H443 0.985 . S
C438 C432 1.379 . S
C438 C435 1.363 . S
C438 N436 1.356 . S
C439 C433 1.363 . S
C439 C434 1.379 . S
C439 N437 1.356 . S
N440 C432 1.356 . S
N440 H446 0.984 . S
N440 H447 0.984 . S
N441 C434 1.356 . S
N441 H444 0.984 . S
N441 H445 0.985 . S
H442 N437 0.984 . S
H443 N437 0.985 . S
H444 N441 0.984 . S
H445 N441 0.985 . S
H446 N440 0.984 . S
H447 N440 0.984 . S
H448 N436 0.984 . S
H449 N436 0.985 . S
C450 C451 1.363 . S
C450 C456 1.379 . S
C450 N458 1.356 . S
C451 C450 1.363 . S
C451 C457 1.363 . S
C452 C453 1.363 . S
C452 C457 1.379 . S
C452 N459 1.356 . S
C453 C452 1.363 . S
C453 C456 1.363 . S
N454 C456 1.356 . S
N454 H466 0.984 . S
N454 H467 0.985 . S
N455 C457 1.356 . S
N455 H460 0.984 . S
N455 H461 0.985 . S
C456 C450 1.379 . S
C456 C453 1.363 . S
C456 N454 1.356 . S
C457 C451 1.363 . S
C457 C452 1.379 . S
C457 N455 1.356 . S
N458 C450 1.356 . S
N458 H464 0.984 . S
N458 H465 0.984 . S
N459 C452 1.356 . S
N459 H462 0.984 . S
N459 H463 0.985 . S
H460 N455 0.984 . S
H461 N455 0.985 . S
H462 N459 0.984 . S
H463 N459 0.985 . S
H464 N458 0.984 . S
H465 N458 0.984 . S
H466 N454 0.984 . S
H467 N454 0.985 . S
C468 C469 1.363 . S
C468 C474 1.379 . S
C468 N476 1.356 . S
C469 C468 1.363 . S
C469 C475 1.363 . S
C470 C471 1.363 . S
C470 C475 1.379 . S
C470 N477 1.356 . S
C471 C470 1.363 . S
C471 C474 1.363 . S
N472 C474 1.356 . S
N472 H484 0.984 . S
N472 H485 0.985 . S
N473 C475 1.356 . S
N473 H478 0.984 . S
N473 H479 0.985 . S
C474 C468 1.379 . S
C474 C471 1.363 . S
C474 N472 1.356 . S
C475 C469 1.363 . S
C475 C470 1.379 . S
C475 N473 1.356 . S
N476 C468 1.356 . S
N476 H482 0.984 . S
N476 H483 0.984 . S
N477 C470 1.356 . S
N477 H480 0.984 . S
N477 H481 0.985 . S
H478 N473 0.984 . S
H479 N473 0.985 . S
H480 N477 0.984 . S
H481 N477 0.985 . S
H482 N476 0.984 . S
H483 N476 0.984 . S
H484 N472 0.984 . S
H485 N472 0.985 . S
C486 C487 1.363 1_545 S
C486 C492 1.379 . S
C486 N494 1.356 . S
C487 C486 1.363 1_565 S
C487 C493 1.363 . S
C488 C489 1.363 . S
C488 C493 1.379 . S
C488 N495 1.356 . S
C489 C488 1.363 . S
C489 C492 1.363 1_565 S
N490 C492 1.356 . S
N490 H502 0.984 . S
N490 H503 0.985 . S
N491 C493 1.356 . S
N491 H496 0.984 . S
N491 H497 0.985 . S
C492 C486 1.379 . S
C492 C489 1.363 1_545 S
C492 N490 1.356 . S
C493 C487 1.363 . S
C493 C488 1.379 . S
C493 N491 1.356 . S
N494 C486 1.356 . S
N494 H500 0.984 . S
N494 H501 0.984 . S
N495 C488 1.356 . S
N495 H498 0.984 . S
N495 H499 0.985 . S
H496 N491 0.984 . S
H497 N491 0.985 . S
H498 N495 0.984 . S
H499 N495 0.985 . S
H500 N494 0.984 . S
H501 N494 0.984 . S
H502 N490 0.984 . S
H503 N490 0.985 . S
C504 C505 1.363 . S
C504 C510 1.379 . S
C504 N512 1.356 . S
C505 C504 1.363 . S
C505 C511 1.363 . S
C506 C507 1.363 . S
C506 C511 1.379 . S
C506 N513 1.356 . S
C507 C506 1.363 . S
C507 C510 1.363 . S
N508 C510 1.356 . S
N508 H520 0.984 . S
N508 H521 0.985 . S
N509 C511 1.356 . S
N509 H514 0.984 . S
N509 H515 0.985 . S
C510 C504 1.379 . S
C510 C507 1.363 . S
C510 N508 1.356 . S
C511 C505 1.363 . S
C511 C506 1.379 . S
C511 N509 1.356 . S
N512 C504 1.356 . S
N512 H518 0.984 . S
N512 H519 0.984 . S
N513 C506 1.356 . S
N513 H516 0.984 . S
N513 H517 0.985 . S
H514 N509 0.984 . S
H515 N509 0.985 . S
H516 N513 0.984 . S
H517 N513 0.985 . S
H518 N512 0.984 . S
H519 N512 0.984 . S
H520 N508 0.984 . S
H521 N508 0.985 . S
C522 C523 1.363 . S
C522 C528 1.379 . S
C522 N530 1.356 . S
C523 C522 1.363 . S
C523 C529 1.363 . S
C524 C525 1.363 . S
C524 C529 1.379 . S
C524 N531 1.356 . S
C525 C524 1.363 . S
C525 C528 1.363 . S
N526 C528 1.356 . S
N526 H538 0.984 . S
N526 H539 0.985 . S
N527 C529 1.356 . S
N527 H532 0.984 . S
N527 H533 0.985 . S
C528 C522 1.379 . S
C528 C525 1.363 . S
C528 N526 1.356 . S
C529 C523 1.363 . S
C529 C524 1.379 . S
C529 N527 1.356 . S
N530 C522 1.356 . S
N530 H536 0.984 . S
N530 H537 0.984 . S
N531 C524 1.356 . S
N531 H534 0.984 . S
N531 H535 0.985 . S
H532 N527 0.984 . S
H533 N527 0.985 . S
H534 N531 0.984 . S
H535 N531 0.985 . S
H536 N530 0.984 . S
H537 N530 0.984 . S
H538 N526 0.984 . S
H539 N526 0.985 . S
C540 C541 1.363 . S
C540 C546 1.379 . S
C540 N548 1.356 . S
C541 C540 1.363 . S
C541 C547 1.363 . S
C542 C543 1.363 . S
C542 C547 1.379 . S
C542 N549 1.356 . S
C543 C542 1.363 . S
C543 C546 1.363 . S
N544 C546 1.356 . S
N544 H556 0.984 . S
N544 H557 0.985 . S
N545 C547 1.356 . S
N545 H550 0.984 . S
N545 H551 0.985 . S
C546 C540 1.379 . S
C546 C543 1.363 . S
C546 N544 1.356 . S
C547 C541 1.363 . S
C547 C542 1.379 . S
C547 N545 1.356 . S
N548 C540 1.356 . S
N548 H554 0.984 . S
N548 H555 0.984 . S
N549 C542 1.356 . S
N549 H552 0.984 . S
N549 H553 0.985 . S
H550 N545 0.984 . S
H551 N545 0.985 . S
H552 N549 0.984 . S
H553 N549 0.985 . S
H554 N548 0.984 . S
H555 N548 0.984 . S
H556 N544 0.984 . S
H557 N544 0.985 . S
C558 C559 1.363 . S
C558 C564 1.379 . S
C558 N566 1.356 . S
C559 C558 1.363 . S
C559 C565 1.363 . S
C560 C561 1.363 . S
C560 C565 1.379 . S
C560 N567 1.356 . S
C561 C560 1.363 . S
C561 C564 1.363 . S
N562 C564 1.356 . S
N562 H574 0.984 . S
N562 H575 0.985 . S
N563 C565 1.356 . S
N563 H568 0.984 . S
N563 H569 0.985 . S
C564 C558 1.379 . S
C564 C561 1.363 . S
C564 N562 1.356 . S
C565 C559 1.363 . S
C565 C560 1.379 . S
C565 N563 1.356 . S
N566 C558 1.356 . S
N566 H572 0.984 . S
N566 H573 0.984 . S
N567 C560 1.356 . S
N567 H570 0.984 . S
N567 H571 0.985 . S
H568 N563 0.984 . S
H569 N563 0.985 . S
H570 N567 0.984 . S
H571 N567 0.985 . S
H572 N566 0.984 . S
H573 N566 0.984 . S
H574 N562 0.984 . S
H575 N562 0.985 . S
C576 C577 1.363 . S
C576 C582 1.379 . S
C576 N584 1.356 . S
C577 C576 1.363 . S
C577 C583 1.363 . S
C578 C579 1.363 . S
C578 C583 1.379 . S
C578 N585 1.356 . S
C579 C578 1.363 . S
C579 C582 1.363 . S
N580 C582 1.356 . S
N580 H592 0.984 . S
N580 H593 0.985 . S
N581 C583 1.356 . S
N581 H586 0.984 . S
N581 H587 0.985 . S
C582 C576 1.379 . S
C582 C579 1.363 . S
C582 N580 1.356 . S
C583 C577 1.363 . S
C583 C578 1.379 . S
C583 N581 1.356 . S
N584 C576 1.356 . S
N584 H590 0.984 . S
N584 H591 0.984 . S
N585 C578 1.356 . S
N585 H588 0.984 . S
N585 H589 0.985 . S
H586 N581 0.984 . S
H587 N581 0.985 . S
H588 N585 0.984 . S
H589 N585 0.985 . S
H590 N584 0.984 . S
H591 N584 0.984 . S
H592 N580 0.984 . S
H593 N580 0.985 . S
C594 C595 1.363 . S
C594 C600 1.379 . S
C594 N602 1.356 . S
C595 C594 1.363 . S
C595 C601 1.363 . S
C596 C597 1.363 . S
C596 C601 1.379 . S
C596 N603 1.361 . S
C597 C596 1.363 . S
C597 C600 1.363 . S
N598 C600 1.356 . S
N598 H610 0.984 . S
N598 H611 0.985 . S
N599 C601 1.356 . S
N599 H604 0.984 . S
N599 H605 0.985 . S
C600 C594 1.379 . S
C600 C597 1.363 . S
C600 N598 1.356 . S
C601 C595 1.363 . S
C601 C596 1.379 . S
C601 N599 1.356 . S
N602 C594 1.356 . S
N602 H608 0.984 . S
N602 H609 0.984 . S
N603 C596 1.361 . S
N603 H606 0.983 1_455 S
N603 H607 0.982 1_455 S
H604 N599 0.984 . S
H605 N599 0.985 . S
H606 N603 0.983 1_655 S
H607 N603 0.982 1_655 S
H608 N602 0.984 . S
H609 N602 0.984 . S
H610 N598 0.984 . S
H611 N598 0.985 . S
C612 C613 1.363 . S
C612 C618 1.379 . S
C612 N620 1.356 . S
C613 C612 1.363 . S
C613 C619 1.363 . S
C614 C615 1.363 . S
C614 C619 1.379 . S
C614 N621 1.356 . S
C615 C614 1.363 . S
C615 C618 1.363 . S
N616 C618 1.356 . S
N616 H628 0.984 . S
N616 H629 0.985 . S
N617 C619 1.356 . S
N617 H622 0.984 . S
N617 H623 0.985 . S
C618 C612 1.379 . S
C618 C615 1.363 . S
C618 N616 1.356 . S
C619 C613 1.363 . S
C619 C614 1.379 . S
C619 N617 1.356 . S
N620 C612 1.356 . S
N620 H626 0.984 . S
N620 H627 0.984 . S
N621 C614 1.356 . S
N621 H624 0.984 . S
N621 H625 0.985 . S
H622 N617 0.984 . S
H623 N617 0.985 . S
H624 N621 0.984 . S
H625 N621 0.985 . S
H626 N620 0.984 . S
H627 N620 0.984 . S
H628 N616 0.984 . S
H629 N616 0.985 . S
C630 C631 1.363 . S
C630 C636 1.379 . S
C630 N638 1.356 1_655 S
C631 C630 1.363 . S
C631 C637 1.363 . S
C632 C633 1.363 . S
C632 C637 1.379 . S
C632 N639 1.356 . S
C633 C632 1.363 . S
C633 C636 1.363 . S
N634 C636 1.356 1_455 S
N634 H646 0.984 . S
N634 H647 0.985 . S
N635 C637 1.356 . S
N635 H640 0.984 . S
N635 H641 0.985 . S
C636 C630 1.379 . S
C636 C633 1.363 . S
C636 N634 1.356 1_655 S
C637 C631 1.363 . S
C637 C632 1.379 . S
C637 N635 1.356 . S
N638 C630 1.356 1_455 S
N638 H644 0.984 . S
N638 H645 0.984 1_455 S
N639 C632 1.356 . S
N639 H642 0.984 . S
N639 H643 0.985 . S
H640 N635 0.984 . S
H641 N635 0.985 . S
H642 N639 0.984 . S
H643 N639 0.985 . S
H644 N638 0.984 . S
H645 N638 0.984 1_655 S
H646 N634 0.984 . S
H647 N634 0.985 . S
C648 C649 1.363 . S
C648 C654 1.379 . S
C648 N656 1.356 . S
C649 C648 1.363 . S
C649 C655 1.363 . S
C650 C651 1.363 . S
C650 C655 1.379 . S
C650 N657 1.356 . S
C651 C650 1.363 . S
C651 C654 1.363 . S
N652 C654 1.356 . S
N652 H664 0.984 . S
N652 H665 0.985 . S
N653 C655 1.356 . S
N653 H658 0.984 . S
N653 H659 0.985 . S
C654 C648 1.379 . S
C654 C651 1.363 . S
C654 N652 1.356 . S
C655 C649 1.363 . S
C655 C650 1.379 . S
C655 N653 1.356 . S
N656 C648 1.356 . S
N656 H662 0.984 . S
N656 H663 0.984 . S
N657 C650 1.356 . S
N657 H660 0.984 . S
N657 H661 0.985 . S
H658 N653 0.984 . S
H659 N653 0.985 . S
H660 N657 0.984 . S
H661 N657 0.985 . S
H662 N656 0.984 . S
H663 N656 0.984 . S
H664 N652 0.984 . S
H665 N652 0.985 . S
C666 C667 1.363 . S
C666 C672 1.379 . S
C666 N674 1.356 . S
C667 C666 1.363 . S
C667 C673 1.363 . S
C668 C669 1.363 . S
C668 C673 1.379 . S
C668 N675 1.356 . S
C669 C668 1.363 . S
C669 C672 1.363 . S
N670 C672 1.356 . S
N670 H682 0.984 . S
N670 H683 0.985 . S
N671 C673 1.356 . S
N671 H676 0.984 . S
N671 H677 0.985 . S
C672 C666 1.379 . S
C672 C669 1.363 . S
C672 N670 1.356 . S
C673 C667 1.363 . S
C673 C668 1.379 . S
C673 N671 1.356 . S
N674 C666 1.356 . S
N674 H680 0.984 . S
N674 H681 0.984 . S
N675 C668 1.356 . S
N675 H678 0.984 . S
N675 H679 0.985 . S
H676 N671 0.984 . S
H677 N671 0.985 . S
H678 N675 0.984 . S
H679 N675 0.985 . S
H680 N674 0.984 . S
H681 N674 0.984 . S
H682 N670 0.984 . S
H683 N670 0.985 . S
C684 C685 1.363 . S
C684 C690 1.379 . S
C684 N692 1.356 . S
C685 C684 1.363 . S
C685 C691 1.363 1_556 S
C686 C687 1.363 . S
C686 C691 1.379 . S
C686 N693 1.356 . S
C687 C686 1.363 . S
C687 C690 1.363 1_554 S
N688 C690 1.356 . S
N688 H700 0.984 . S
N688 H701 0.985 . S
N689 C691 1.356 1_545 S
N689 H694 0.984 . S
N689 H695 0.985 . S
C690 C684 1.379 . S
C690 C687 1.363 1_556 S
C690 N688 1.356 . S
C691 C685 1.363 1_554 S
C691 C686 1.379 . S
C691 N689 1.356 1_565 S
N692 C684 1.356 . S
N692 H698 0.984 . S
N692 H699 0.984 . S
N693 C686 1.356 . S
N693 H696 0.984 . S
N693 H697 0.985 . S
H694 N689 0.984 . S
H695 N689 0.985 . S
H696 N693 0.984 . S
H697 N693 0.985 . S
H698 N692 0.984 . S
H699 N692 0.984 . S
H700 N688 0.984 . S
H701 N688 0.985 . S
C702 C703 1.363 . S
C702 C708 1.379 . S
C702 N710 1.356 . S
C703 C702 1.363 . S
C703 C709 1.363 . S
C704 C705 1.363 . S
C704 C709 1.379 . S
C704 N711 1.356 . S
C705 C704 1.363 . S
C705 C708 1.363 . S
N706 C708 1.356 . S
N706 H718 0.984 . S
N706 H719 0.985 . S
N707 C709 1.356 . S
N707 H712 0.984 . S
N707 H713 0.985 . S
C708 C702 1.379 . S
C708 C705 1.363 . S
C708 N706 1.356 . S
C709 C703 1.363 . S
C709 C704 1.379 . S
C709 N707 1.356 . S
N710 C702 1.356 . S
N710 H716 0.984 . S
N710 H717 0.984 . S
N711 C704 1.356 . S
N711 H714 0.984 . S
N711 H715 0.985 . S
H712 N707 0.984 . S
H713 N707 0.985 . S
H714 N711 0.984 . S
H715 N711 0.985 . S
H716 N710 0.984 . S
H717 N710 0.984 . S
H718 N706 0.984 . S
H719 N706 0.985 . S
C720 C721 1.363 . S
C720 C726 1.379 . S
C720 N728 1.356 . S
C721 C720 1.363 . S
C721 C727 1.363 . S
C722 C723 1.363 . S
C722 C727 1.379 . S
C722 N729 1.356 . S
C723 C722 1.363 . S
C723 C726 1.363 . S
N724 C726 1.356 . S
N724 H736 0.984 . S
N724 H737 0.985 . S
N725 C727 1.356 . S
N725 H730 0.984 . S
N725 H731 0.985 . S
C726 C720 1.379 . S
C726 C723 1.363 . S
C726 N724 1.356 . S
C727 C721 1.363 . S
C727 C722 1.379 . S
C727 N725 1.356 . S
N728 C720 1.356 . S
N728 H734 0.984 . S
N728 H735 0.984 . S
N729 C722 1.356 . S
N729 H732 0.984 . S
N729 H733 0.985 . S
H730 N725 0.984 . S
H731 N725 0.985 . S
H732 N729 0.984 . S
H733 N729 0.985 . S
H734 N728 0.984 . S
H735 N728 0.984 . S
H736 N724 0.984 . S
H737 N724 0.985 . S
C738 C739 1.363 . S
C738 C744 1.379 . S
C738 N746 1.356 . S
C739 C738 1.363 . S
C739 C745 1.363 . S
C740 C741 1.363 . S
C740 C745 1.379 . S
C740 N747 1.356 . S
C741 C740 1.363 . S
C741 C744 1.363 . S
N742 C744 1.356 . S
N742 H754 0.984 . S
N742 H755 0.985 . S
N743 C745 1.356 . S
N743 H748 0.984 . S
N743 H749 0.985 . S
C744 C738 1.379 . S
C744 C741 1.363 . S
C744 N742 1.356 . S
C745 C739 1.363 . S
C745 C740 1.379 . S
C745 N743 1.356 . S
N746 C738 1.356 . S
N746 H752 0.984 . S
N746 H753 0.984 . S
N747 C740 1.356 . S
N747 H750 0.984 . S
N747 H751 0.985 . S
H748 N743 0.984 . S
H749 N743 0.985 . S
H750 N747 0.984 . S
H751 N747 0.985 . S
H752 N746 0.984 . S
H753 N746 0.984 . S
H754 N742 0.984 . S
H755 N742 0.985 . S
C756 C757 1.363 . S
C756 C762 1.379 . S
C756 N764 1.356 . S
C757 C756 1.363 . S
C757 C763 1.363 . S
C758 C759 1.363 . S
C758 C763 1.379 . S
C758 N765 1.356 . S
C759 C758 1.363 . S
C759 C762 1.363 . S
N760 C762 1.356 . S
N760 H772 0.984 . S
N760 H773 0.985 . S
N761 C763 1.356 . S
N761 H766 0.984 . S
N761 H767 0.985 . S
C762 C756 1.379 . S
C762 C759 1.363 . S
C762 N760 1.356 . S
C763 C757 1.363 . S
C763 C758 1.379 . S
C763 N761 1.356 . S
N764 C756 1.356 . S
N764 H770 0.984 . S
N764 H771 0.984 . S
N765 C758 1.356 . S
N765 H768 0.984 . S
N765 H769 0.985 . S
H766 N761 0.984 . S
H767 N761 0.985 . S
H768 N765 0.984 . S
H769 N765 0.985 . S
H770 N764 0.984 . S
H771 N764 0.984 . S
H772 N760 0.984 . S
H773 N760 0.985 . S
C774 C775 1.363 . S
C774 C780 1.379 . S
C774 N782 1.356 . S
C775 C774 1.363 . S
C775 C781 1.363 . S
C776 C777 1.363 . S
C776 C781 1.379 . S
C776 N783 1.356 . S
C777 C776 1.363 . S
C777 C780 1.363 . S
N778 C780 1.356 . S
N778 H790 0.984 . S
N778 H791 0.985 . S
N779 C781 1.356 . S
N779 H784 0.984 . S
N779 H785 0.985 . S
C780 C774 1.379 . S
C780 C777 1.363 . S
C780 N778 1.356 . S
C781 C775 1.363 . S
C781 C776 1.379 . S
C781 N779 1.356 . S
N782 C774 1.356 . S
N782 H788 0.984 . S
N782 H789 0.984 . S
N783 C776 1.356 . S
N783 H786 0.984 . S
N783 H787 0.985 . S
H784 N779 0.984 . S
H785 N779 0.985 . S
H786 N783 0.984 . S
H787 N783 0.985 . S
H788 N782 0.984 . S
H789 N782 0.984 . S
H790 N778 0.984 . S
H791 N778 0.985 . S
C792 C793 1.363 . S
C792 C798 1.379 . S
C792 N800 1.356 . S
C793 C792 1.363 . S
C793 C799 1.363 . S
C794 C795 1.363 . S
C794 C799 1.379 . S
C794 N801 1.356 . S
C795 C794 1.363 . S
C795 C798 1.363 . S
N796 C798 1.356 . S
N796 H808 0.984 . S
N796 H809 0.985 . S
N797 C799 1.356 . S
N797 H802 0.984 . S
N797 H803 0.985 . S
C798 C792 1.379 . S
C798 C795 1.363 . S
C798 N796 1.356 . S
C799 C793 1.363 . S
C799 C794 1.379 . S
C799 N797 1.356 . S
N800 C792 1.356 . S
N800 H806 0.984 . S
N800 H807 0.984 . S
N801 C794 1.356 . S
N801 H804 0.984 . S
N801 H805 0.985 . S
H802 N797 0.984 . S
H803 N797 0.985 . S
H804 N801 0.984 . S
H805 N801 0.985 . S
H806 N800 0.984 . S
H807 N800 0.984 . S
H808 N796 0.984 . S
H809 N796 0.985 . S
C810 C811 1.363 . S
C810 C816 1.379 . S
C810 N818 1.356 . S
C811 C810 1.363 . S
C811 C817 1.363 1_545 S
C812 C813 1.363 1_565 S
C812 C817 1.379 . S
C812 N819 1.356 . S
C813 C812 1.363 1_545 S
C813 C816 1.363 . S
N814 C816 1.356 . S
N814 H826 0.984 . S
N814 H827 0.985 . S
N815 C817 1.356 . S
N815 H820 0.984 . S
N815 H821 0.985 . S
C816 C810 1.379 . S
C816 C813 1.363 . S
C816 N814 1.356 . S
C817 C811 1.363 1_565 S
C817 C812 1.379 . S
C817 N815 1.356 . S
N818 C810 1.356 . S
N818 H824 0.984 . S
N818 H825 0.984 . S
N819 C812 1.356 . S
N819 H822 0.984 . S
N819 H823 0.985 . S
H820 N815 0.984 . S
H821 N815 0.985 . S
H822 N819 0.984 . S
H823 N819 0.985 . S
H824 N818 0.984 . S
H825 N818 0.984 . S
H826 N814 0.984 . S
H827 N814 0.985 . S
C828 C829 1.363 . S
C828 C834 1.379 . S
C828 N836 1.356 . S
C829 C828 1.363 . S
C829 C835 1.363 . S
C830 C831 1.363 . S
C830 C835 1.379 . S
C830 N837 1.356 . S
C831 C830 1.363 . S
C831 C834 1.363 . S
N832 C834 1.356 . S
N832 H844 0.984 . S
N832 H845 0.985 . S
N833 C835 1.356 . S
N833 H838 0.984 . S
N833 H839 0.985 . S
C834 C828 1.379 . S
C834 C831 1.363 . S
C834 N832 1.356 . S
C835 C829 1.363 . S
C835 C830 1.379 . S
C835 N833 1.356 . S
N836 C828 1.356 . S
N836 H842 0.984 . S
N836 H843 0.984 . S
N837 C830 1.356 . S
N837 H840 0.984 . S
N837 H841 0.985 . S
H838 N833 0.984 . S
H839 N833 0.985 . S
H840 N837 0.984 . S
H841 N837 0.985 . S
H842 N836 0.984 . S
H843 N836 0.984 . S
H844 N832 0.984 . S
H845 N832 0.985 . S
C846 C847 1.363 . S
C846 C852 1.379 . S
C846 N854 1.356 . S
C847 C846 1.363 . S
C847 C853 1.363 . S
C848 C849 1.363 . S
C848 C853 1.379 . S
C848 N855 1.356 . S
C849 C848 1.363 . S
C849 C852 1.363 . S
N850 C852 1.356 . S
N850 H862 0.984 . S
N850 H863 0.985 . S
N851 C853 1.356 . S
N851 H856 0.984 . S
N851 H857 0.985 . S
C852 C846 1.379 . S
C852 C849 1.363 . S
C852 N850 1.356 . S
C853 C847 1.363 . S
C853 C848 1.379 . S
C853 N851 1.356 . S
N854 C846 1.356 . S
N854 H860 0.984 . S
N854 H861 0.984 . S
N855 C848 1.356 . S
N855 H858 0.984 . S
N855 H859 0.985 . S
H856 N851 0.984 . S
H857 N851 0.985 . S
H858 N855 0.984 . S
H859 N855 0.985 . S
H860 N854 0.984 . S
H861 N854 0.984 . S
H862 N850 0.984 . S
H863 N850 0.985 . S
C864 C865 1.363 . S
C864 C870 1.379 . S
C864 N872 1.356 . S
C865 C864 1.363 . S
C865 C871 1.363 . S
C866 C867 1.363 . S
C866 C871 1.379 . S
C866 N873 1.356 . S
C867 C866 1.363 . S
C867 C870 1.363 . S
N868 C870 1.356 . S
N868 H880 0.984 . S
N868 H881 0.985 . S
N869 C871 1.356 . S
N869 H874 0.984 . S
N869 H875 0.985 . S
C870 C864 1.379 . S
C870 C867 1.363 . S
C870 N868 1.356 . S
C871 C865 1.363 . S
C871 C866 1.379 . S
C871 N869 1.356 . S
N872 C864 1.356 . S
N872 H878 0.984 . S
N872 H879 0.984 . S
N873 C866 1.356 . S
N873 H876 0.984 . S
N873 H877 0.985 . S
H874 N869 0.984 . S
H875 N869 0.985 . S
H876 N873 0.984 . S
H877 N873 0.985 . S
H878 N872 0.984 . S
H879 N872 0.984 . S
H880 N868 0.984 . S
H881 N868 0.985 . S
C882 C883 1.363 . S
C882 C888 1.379 . S
C882 N890 1.356 . S
C883 C882 1.363 . S
C883 C889 1.363 1_455 S
C884 C885 1.363 . S
C884 C889 1.379 . S
C884 N891 1.356 1_545 S
C885 C884 1.363 . S
C885 C888 1.363 1_655 S
N886 C888 1.356 . S
N886 H898 0.984 . S
N886 H899 0.985 1_455 S
N887 C889 1.356 1_565 S
N887 H892 0.984 . S
N887 H893 0.985 . S
C888 C882 1.379 . S
C888 C885 1.363 1_455 S
C888 N886 1.356 . S
C889 C883 1.363 1_655 S
C889 C884 1.379 . S
C889 N887 1.356 1_545 S
N890 C882 1.356 . S
N890 H896 0.984 . S
N890 H897 0.984 . S
N891 C884 1.356 1_565 S
N891 H894 0.986 1_565 S
N891 H895 0.985 . S
H892 N887 0.984 . S
H893 N887 0.985 . S
H894 N891 0.986 1_545 S
H895 N891 0.985 . S
H896 N890 0.984 . S
H897 N890 0.984 . S
H898 N886 0.984 . S
H899 N886 0.985 1_655 S
C900 C901 1.363 . S
C900 C906 1.379 . S
C900 N908 1.356 . S
C901 C900 1.363 . S
C901 C907 1.363 . S
C902 C903 1.363 . S
C902 C907 1.379 . S
C902 N909 1.356 . S
C903 C902 1.363 . S
C903 C906 1.363 . S
N904 C906 1.356 . S
N904 H916 0.984 . S
N904 H917 0.985 . S
N905 C907 1.356 . S
N905 H910 0.984 . S
N905 H911 0.985 . S
C906 C900 1.379 . S
C906 C903 1.363 . S
C906 N904 1.356 . S
C907 C901 1.363 . S
C907 C902 1.379 . S
C907 N905 1.356 . S
N908 C900 1.356 . S
N908 H914 0.984 . S
N908 H915 0.984 . S
N909 C902 1.356 . S
N909 H912 0.984 . S
N909 H913 0.985 . S
H910 N905 0.984 . S
H911 N905 0.985 . S
H912 N909 0.984 . S
H913 N909 0.985 . S
H914 N908 0.984 . S
H915 N908 0.984 . S
H916 N904 0.984 . S
H917 N904 0.985 . S
C918 C919 1.363 . S
C918 C924 1.379 . S
C918 N926 1.356 . S
C919 C918 1.363 . S
C919 C925 1.363 . S
C920 C921 1.363 . S
C920 C925 1.379 . S
C920 N927 1.356 . S
C921 C920 1.363 . S
C921 C924 1.363 . S
N922 C924 1.356 . S
N922 H934 0.984 . S
N922 H935 0.985 . S
N923 C925 1.356 1_655 S
N923 H928 0.984 . S
N923 H929 0.985 . S
C924 C918 1.379 . S
C924 C921 1.363 . S
C924 N922 1.356 . S
C925 C919 1.363 . S
C925 C920 1.379 . S
C925 N923 1.356 1_455 S
N926 C918 1.356 . S
N926 H932 0.984 . S
N926 H933 0.984 . S
N927 C920 1.356 . S
N927 H930 0.984 . S
N927 H931 0.985 . S
H928 N923 0.984 . S
H929 N923 0.985 . S
H930 N927 0.984 . S
H931 N927 0.985 . S
H932 N926 0.984 . S
H933 N926 0.984 . S
H934 N922 0.984 . S
H935 N922 0.985 . S
C936 C937 1.363 . S
C936 C942 1.379 . S
C936 N944 1.356 . S
C937 C936 1.363 . S
C937 C943 1.363 . S
C938 C939 1.363 . S
C938 C943 1.379 . S
C938 N945 1.356 . S
C939 C938 1.363 . S
C939 C942 1.363 . S
N940 C942 1.356 . S
N940 H952 0.984 . S
N940 H953 0.985 . S
N941 C943 1.356 . S
N941 H946 0.984 . S
N941 H947 0.985 . S
C942 C936 1.379 . S
C942 C939 1.363 . S
C942 N940 1.356 . S
C943 C937 1.363 . S
C943 C938 1.379 . S
C943 N941 1.356 . S
N944 C936 1.356 . S
N944 H950 0.984 . S
N944 H951 0.984 . S
N945 C938 1.356 . S
N945 H948 0.984 . S
N945 H949 0.985 . S
H946 N941 0.984 . S
H947 N941 0.985 . S
H948 N945 0.984 . S
H949 N945 0.985 . S
H950 N944 0.984 . S
H951 N944 0.984 . S
H952 N940 0.984 . S
H953 N940 0.985 . S
C954 C955 1.363 . S
C954 C960 1.379 . S
C954 N962 1.356 . S
C955 C954 1.363 . S
C955 C961 1.363 1_655 S
C956 C957 1.361 1_455 S
C956 C961 1.379 . S
C956 N963 1.356 . S
C957 C956 1.361 1_655 S
C957 C960 1.369 . S
N958 C960 1.356 . S
N958 H970 0.984 . S
N958 H971 0.985 . S
N959 C961 1.356 1_554 S
N959 H964 0.984 . S
N959 H965 0.985 . S
C960 C954 1.379 . S
C960 C957 1.369 . S
C960 N958 1.356 . S
C961 C955 1.363 1_455 S
C961 C956 1.379 . S
C961 N959 1.356 1_556 S
N962 C954 1.356 . S
N962 H968 0.984 . S
N962 H969 0.984 . S
N963 C956 1.356 . S
N963 H966 0.984 . S
N963 H967 0.985 . S
H964 N959 0.984 . S
H965 N959 0.985 . S
H966 N963 0.984 . S
H967 N963 0.985 . S
H968 N962 0.984 . S
H969 N962 0.984 . S
H970 N958 0.984 . S
H971 N958 0.985 . S
C972 C973 1.363 . S
C972 C978 1.379 . S
C972 N980 1.356 . S
C973 C972 1.363 . S
C973 C979 1.363 . S
C974 C975 1.363 . S
C974 C979 1.379 . S
C974 N981 1.356 . S
C975 C974 1.363 . S
C975 C978 1.363 . S
N976 C978 1.356 . S
N976 H988 0.984 . S
N976 H989 0.985 . S
N977 C979 1.356 . S
N977 H982 0.984 . S
N977 H983 0.985 . S
C978 C972 1.379 . S
C978 C975 1.363 . S
C978 N976 1.356 . S
C979 C973 1.363 . S
C979 C974 1.379 . S
C979 N977 1.356 . S
N980 C972 1.356 . S
N980 H986 0.984 . S
N980 H987 0.984 . S
N981 C974 1.356 . S
N981 H984 0.984 . S
N981 H985 0.985 . S
H982 N977 0.984 . S
H983 N977 0.985 . S
H984 N981 0.984 . S
H985 N981 0.985 . S
H986 N980 0.984 . S
H987 N980 0.984 . S
H988 N976 0.984 . S
H989 N976 0.985 . S
C990 C991 1.363 . S
C990 C996 1.379 . S
C990 N998 1.356 . S
C991 C990 1.363 . S
C991 C997 1.363 . S
C992 C993 1.363 . S
C992 C997 1.379 . S
C992 N999 1.356 1_455 S
C993 C992 1.363 . S
C993 C996 1.363 . S
N994 C996 1.356 . S
N994 H1006 0.984 . S
N994 H1007 0.985 . S
N995 C997 1.356 . S
N995 H1000 0.984 1_556 S
N995 H1001 0.985 1_456 S
C996 C990 1.379 . S
C996 C993 1.363 . S
C996 N994 1.356 . S
C997 C991 1.363 . S
C997 C992 1.379 . S
C997 N995 1.356 . S
N998 C990 1.356 . S
N998 H1004 0.984 . S
N998 H1005 0.984 . S
N999 C992 1.356 1_655 S
N999 H1002 0.984 . S
N999 H1003 0.985 . S
H1000 N995 0.984 1_554 S
H1001 N995 0.985 1_654 S
H1002 N999 0.984 . S
H1003 N999 0.985 . S
H1004 N998 0.984 . S
H1005 N998 0.984 . S
H1006 N994 0.984 . S
H1007 N994 0.985 . S
C1008 C1009 1.363 . S
C1008 C1014 1.379 . S
C1008 N1016 1.356 . S
C1009 C1008 1.363 . S
C1009 C1015 1.363 . S
C1010 C1011 1.363 . S
C1010 C1015 1.379 . S
C1010 N1017 1.356 . S
C1011 C1010 1.363 . S
C1011 C1014 1.363 . S
N1012 C1014 1.356 . S
N1012 H1024 0.984 . S
N1012 H1025 0.985 . S
N1013 C1015 1.356 . S
N1013 H1018 0.984 . S
N1013 H1019 0.985 . S
C1014 C1008 1.379 . S
C1014 C1011 1.363 . S
C1014 N1012 1.356 . S
C1015 C1009 1.363 . S
C1015 C1010 1.379 . S
C1015 N1013 1.356 . S
N1016 C1008 1.356 . S
N1016 H1022 0.984 . S
N1016 H1023 0.984 . S
N1017 C1010 1.356 . S
N1017 H1020 0.984 . S
N1017 H1021 0.985 . S
H1018 N1013 0.984 . S
H1019 N1013 0.985 . S
H1020 N1017 0.984 . S
H1021 N1017 0.985 . S
H1022 N1016 0.984 . S
H1023 N1016 0.984 . S
H1024 N1012 0.984 . S
H1025 N1012 0.985 . S
C1026 C1027 1.363 . S
C1026 C1032 1.379 . S
C1026 N1034 1.356 1_554 S
C1027 C1026 1.363 . S
C1027 C1033 1.363 . S
C1028 C1029 1.363 . S
C1028 C1033 1.379 . S
C1028 N1035 1.356 . S
C1029 C1028 1.363 . S
C1029 C1032 1.363 . S
N1030 C1032 1.356 . S
N1030 H1042 0.984 . S
N1030 H1043 0.985 . S
N1031 C1033 1.356 . S
N1031 H1036 0.984 . S
N1031 H1037 0.985 . S
C1032 C1026 1.379 . S
C1032 C1029 1.363 . S
C1032 N1030 1.356 . S
C1033 C1027 1.363 . S
C1033 C1028 1.379 . S
C1033 N1031 1.356 . S
N1034 C1026 1.356 1_556 S
N1034 H1040 0.984 . S
N1034 H1041 0.984 . S
N1035 C1028 1.356 . S
N1035 H1038 0.984 . S
N1035 H1039 0.985 . S
H1036 N1031 0.984 . S
H1037 N1031 0.985 . S
H1038 N1035 0.984 . S
H1039 N1035 0.985 . S
H1040 N1034 0.984 . S
H1041 N1034 0.984 . S
H1042 N1030 0.984 . S
H1043 N1030 0.985 . S
C1044 C1045 1.363 . S
C1044 C1050 1.379 . S
C1044 N1052 1.356 . S
C1045 C1044 1.363 . S
C1045 C1051 1.363 . S
C1046 C1047 1.363 . S
C1046 C1051 1.379 . S
C1046 N1053 1.356 . S
C1047 C1046 1.363 . S
C1047 C1050 1.363 . S
N1048 C1050 1.356 . S
N1048 H1060 0.984 . S
N1048 H1061 0.985 . S
N1049 C1051 1.356 . S
N1049 H1054 0.984 . S
N1049 H1055 0.985 . S
C1050 C1044 1.379 . S
C1050 C1047 1.363 . S
C1050 N1048 1.356 . S
C1051 C1045 1.363 . S
C1051 C1046 1.379 . S
C1051 N1049 1.356 . S
N1052 C1044 1.356 . S
N1052 H1058 0.984 . S
N1052 H1059 0.984 . S
N1053 C1046 1.356 . S
N1053 H1056 0.984 . S
N1053 H1057 0.985 . S
H1054 N1049 0.984 . S
H1055 N1049 0.985 . S
H1056 N1053 0.984 . S
H1057 N1053 0.985 . S
H1058 N1052 0.984 . S
H1059 N1052 0.984 . S
H1060 N1048 0.984 . S
H1061 N1048 0.985 . S
C1062 C1063 1.363 . S
C1062 C1068 1.379 . S
C1062 N1070 1.356 1_554 S
C1063 C1062 1.363 . S
C1063 C1069 1.363 . S
C1064 C1065 1.363 . S
C1064 C1069 1.379 . S
C1064 N1071 1.356 . S
C1065 C1064 1.363 . S
C1065 C1068 1.363 . S
N1066 C1068 1.356 . S
N1066 H1078 0.984 . S
N1066 H1079 0.985 . S
N1067 C1069 1.356 . S
N1067 H1072 0.984 . S
N1067 H1073 0.985 . S
C1068 C1062 1.379 . S
C1068 C1065 1.363 . S
C1068 N1066 1.356 . S
C1069 C1063 1.363 . S
C1069 C1064 1.379 . S
C1069 N1067 1.356 . S
N1070 C1062 1.356 1_556 S
N1070 H1076 0.984 . S
N1070 H1077 0.984 . S
N1071 C1064 1.356 . S
N1071 H1074 0.984 . S
N1071 H1075 0.985 . S
H1072 N1067 0.984 . S
H1073 N1067 0.985 . S
H1074 N1071 0.984 . S
H1075 N1071 0.985 . S
H1076 N1070 0.984 . S
H1077 N1070 0.984 . S
H1078 N1066 0.984 . S
H1079 N1066 0.985 . S
C1080 C1081 1.363 . S
C1080 C1086 1.379 . S
C1080 N1088 1.356 . S
C1081 C1080 1.363 . S
C1081 C1087 1.363 . S
C1082 C1083 1.363 . S
C1082 C1087 1.379 . S
C1082 N1089 1.356 . S
C1083 C1082 1.363 . S
C1083 C1086 1.363 . S
N1084 C1086 1.356 . S
N1084 H1096 0.984 . S
N1084 H1097 0.985 . S
N1085 C1087 1.356 . S
N1085 H1090 0.984 . S
N1085 H1091 0.985 . S
C1086 C1080 1.379 . S
C1086 C1083 1.363 . S
C1086 N1084 1.356 . S
C1087 C1081 1.363 . S
C1087 C1082 1.379 . S
C1087 N1085 1.356 . S
N1088 C1080 1.356 . S
N1088 H1094 0.984 . S
N1088 H1095 0.984 . S
N1089 C1082 1.356 . S
N1089 H1092 0.984 . S
N1089 H1093 0.985 . S
H1090 N1085 0.984 . S
H1091 N1085 0.985 . S
H1092 N1089 0.984 . S
H1093 N1089 0.985 . S
H1094 N1088 0.984 . S
H1095 N1088 0.984 . S
H1096 N1084 0.984 . S
H1097 N1084 0.985 . S
C1098 C1099 1.363 . S
C1098 C1104 1.379 . S
C1098 N1106 1.356 . S
C1099 C1098 1.363 . S
C1099 C1105 1.363 . S
C1100 C1101 1.363 . S
C1100 C1105 1.379 . S
C1100 N1107 1.356 . S
C1101 C1100 1.363 . S
C1101 C1104 1.363 . S
N1102 C1104 1.356 . S
N1102 H1114 0.984 . S
N1102 H1115 0.985 . S
N1103 C1105 1.356 . S
N1103 H1108 0.984 . S
N1103 H1109 0.985 . S
C1104 C1098 1.379 . S
C1104 C1101 1.363 . S
C1104 N1102 1.356 . S
C1105 C1099 1.363 . S
C1105 C1100 1.379 . S
C1105 N1103 1.356 . S
N1106 C1098 1.356 . S
N1106 H1112 0.984 . S
N1106 H1113 0.984 . S
N1107 C1100 1.356 . S
N1107 H1110 0.984 . S
N1107 H1111 0.985 . S
H1108 N1103 0.984 . S
H1109 N1103 0.985 . S
H1110 N1107 0.984 . S
H1111 N1107 0.985 . S
H1112 N1106 0.984 . S
H1113 N1106 0.984 . S
H1114 N1102 0.984 . S
H1115 N1102 0.985 . S
C1116 C1117 1.363 . S
C1116 C1122 1.379 . S
C1116 N1124 1.356 . S
C1117 C1116 1.363 . S
C1117 C1123 1.363 . S
C1118 C1119 1.363 . S
C1118 C1123 1.379 . S
C1118 N1125 1.356 . S
C1119 C1118 1.363 . S
C1119 C1122 1.363 . S
N1120 C1122 1.356 . S
N1120 H1132 0.984 . S
N1120 H1133 0.985 . S
N1121 C1123 1.356 . S
N1121 H1126 0.984 . S
N1121 H1127 0.985 . S
C1122 C1116 1.379 . S
C1122 C1119 1.363 . S
C1122 N1120 1.356 . S
C1123 C1117 1.363 . S
C1123 C1118 1.379 . S
C1123 N1121 1.356 . S
N1124 C1116 1.356 . S
N1124 H1130 0.984 . S
N1124 H1131 0.984 . S
N1125 C1118 1.356 . S
N1125 H1128 0.984 . S
N1125 H1129 0.985 . S
H1126 N1121 0.984 . S
H1127 N1121 0.985 . S
H1128 N1125 0.984 . S
H1129 N1125 0.985 . S
H1130 N1124 0.984 . S
H1131 N1124 0.984 . S
H1132 N1120 0.984 . S
H1133 N1120 0.985 . S
C1134 C1135 1.363 . S
C1134 C1140 1.379 . S
C1134 N1142 1.356 . S
C1135 C1134 1.363 . S
C1135 C1141 1.363 . S
C1136 C1137 1.363 . S
C1136 C1141 1.379 . S
C1136 N1143 1.356 . S
C1137 C1136 1.363 . S
C1137 C1140 1.363 . S
N1138 C1140 1.356 . S
N1138 H1150 0.984 . S
N1138 H1151 0.985 . S
N1139 C1141 1.356 . S
N1139 H1144 0.984 . S
N1139 H1145 0.985 . S
C1140 C1134 1.379 . S
C1140 C1137 1.363 . S
C1140 N1138 1.356 . S
C1141 C1135 1.363 . S
C1141 C1136 1.379 . S
C1141 N1139 1.356 . S
N1142 C1134 1.356 . S
N1142 H1148 0.984 . S
N1142 H1149 0.984 . S
N1143 C1136 1.356 . S
N1143 H1146 0.984 . S
N1143 H1147 0.985 . S
H1144 N1139 0.984 . S
H1145 N1139 0.985 . S
H1146 N1143 0.984 . S
H1147 N1143 0.985 . S
H1148 N1142 0.984 . S
H1149 N1142 0.984 . S
H1150 N1138 0.984 . S
H1151 N1138 0.985 . S
C1152 C1153 1.363 . S
C1152 C1158 1.379 1_556 S
C1152 N1160 1.357 1_556 S
C1153 C1152 1.363 . S
C1153 C1159 1.363 . S
C1154 C1155 1.363 . S
C1154 C1159 1.379 . S
C1154 N1161 1.356 . S
C1155 C1154 1.363 . S
C1155 C1158 1.363 1_556 S
N1156 C1158 1.356 . S
N1156 H1168 0.984 . S
N1156 H1169 0.985 . S
N1157 C1159 1.356 . S
N1157 H1162 0.984 . S
N1157 H1163 0.985 . S
C1158 C1152 1.379 1_554 S
C1158 C1155 1.363 1_554 S
C1158 N1156 1.356 . S
C1159 C1153 1.363 . S
C1159 C1154 1.379 . S
C1159 N1157 1.356 . S
N1160 C1152 1.357 1_554 S
N1160 H1166 0.983 . S
N1160 H1167 0.985 1_554 S
N1161 C1154 1.356 . S
N1161 H1164 0.984 . S
N1161 H1165 0.985 . S
H1162 N1157 0.984 . S
H1163 N1157 0.985 . S
H1164 N1161 0.984 . S
H1165 N1161 0.985 . S
H1166 N1160 0.983 . S
H1167 N1160 0.985 1_556 S
H1168 N1156 0.984 . S
H1169 N1156 0.985 . S
C1170 C1171 1.363 . S
C1170 C1176 1.379 . S
C1170 N1178 1.356 . S
C1171 C1170 1.363 . S
C1171 C1177 1.363 . S
C1172 C1173 1.363 . S
C1172 C1177 1.379 . S
C1172 N1179 1.356 . S
C1173 C1172 1.363 . S
C1173 C1176 1.363 . S
N1174 C1176 1.356 . S
N1174 H1186 0.984 . S
N1174 H1187 0.985 . S
N1175 C1177 1.356 . S
N1175 H1180 0.984 . S
N1175 H1181 0.985 . S
C1176 C1170 1.379 . S
C1176 C1173 1.363 . S
C1176 N1174 1.356 . S
C1177 C1171 1.363 . S
C1177 C1172 1.379 . S
C1177 N1175 1.356 . S
N1178 C1170 1.356 . S
N1178 H1184 0.984 . S
N1178 H1185 0.984 . S
N1179 C1172 1.356 . S
N1179 H1182 0.984 . S
N1179 H1183 0.985 . S
H1180 N1175 0.984 . S
H1181 N1175 0.985 . S
H1182 N1179 0.984 . S
H1183 N1179 0.985 . S
H1184 N1178 0.984 . S
H1185 N1178 0.984 . S
H1186 N1174 0.984 . S
H1187 N1174 0.985 . S
C1188 C1189 1.363 . S
C1188 C1194 1.379 . S
C1188 N1196 1.356 . S
C1189 C1188 1.363 . S
C1189 C1195 1.363 . S
C1190 C1191 1.363 . S
C1190 C1195 1.379 . S
C1190 N1197 1.350 1_554 S
C1191 C1190 1.363 . S
C1191 C1194 1.363 . S
N1192 C1194 1.356 . S
N1192 H1204 0.984 . S
N1192 H1205 0.985 . S
N1193 C1195 1.356 . S
N1193 H1198 0.984 . S
N1193 H1199 0.985 . S
C1194 C1188 1.379 . S
C1194 C1191 1.363 . S
C1194 N1192 1.356 . S
C1195 C1189 1.363 . S
C1195 C1190 1.379 . S
C1195 N1193 1.356 . S
N1196 C1188 1.356 . S
N1196 H1202 0.984 . S
N1196 H1203 0.984 . S
N1197 C1190 1.350 1_556 S
N1197 H1200 0.984 . S
N1197 H1201 0.991 . S
H1198 N1193 0.984 . S
H1199 N1193 0.985 . S
H1200 N1197 0.984 . S
H1201 N1197 0.991 . S
H1202 N1196 0.984 . S
H1203 N1196 0.984 . S
H1204 N1192 0.984 . S
H1205 N1192 0.985 . S
C1206 C1207 1.363 . S
C1206 C1212 1.379 1_554 S
C1206 N1214 1.356 1_554 S
C1207 C1206 1.363 . S
C1207 C1213 1.363 . S
C1208 C1209 1.363 . S
C1208 C1213 1.379 . S
C1208 N1215 1.356 . S
C1209 C1208 1.363 . S
C1209 C1212 1.363 1_554 S
N1210 C1212 1.356 . S
N1210 H1222 0.984 . S
N1210 H1223 0.985 . S
N1211 C1213 1.356 1_545 S
N1211 H1216 0.984 . S
N1211 H1217 0.985 . S
C1212 C1206 1.379 1_556 S
C1212 C1209 1.363 1_556 S
C1212 N1210 1.356 . S
C1213 C1207 1.363 . S
C1213 C1208 1.379 . S
C1213 N1211 1.356 1_565 S
N1214 C1206 1.356 1_556 S
N1214 H1220 0.984 . S
N1214 H1221 0.984 . S
N1215 C1208 1.356 . S
N1215 H1218 0.984 . S
N1215 H1219 0.985 . S
H1216 N1211 0.984 . S
H1217 N1211 0.985 . S
H1218 N1215 0.984 . S
H1219 N1215 0.985 . S
H1220 N1214 0.984 . S
H1221 N1214 0.984 . S
H1222 N1210 0.984 . S
H1223 N1210 0.985 . S
C363 C203 1.657 . S
C361 C66 1.701 . S
C381 C211 1.061 . S
C379 C76 1.295 . S
C397 C93 1.739 . S
C399 C231 1.702 . S
C417 C245 1.483 . S
C415 C54 1.506 . S
C435 C260 1.512 . S
C433 C126 1.513 . S
C453 C274 1.803 . S
C451 C150 1.804 . S
C469 C136 1.317 . S
C471 C288 1.323 . S
C489 C294 1.668 . S
C487 C117 1.740 . S
C505 C141 1.364 . S
C507 C308 1.336 . S
C525 C329 1.382 . S
C523 C112 1.404 . S
C541 C124 1.480 . S
C543 C309 1.252 . S
C561 C330 1.359 . S
C559 C148 1.352 . S
C577 C88 1.343 . S
C579 C337 1.170 . S
C595 C52 1.566 . S
C597 C343 1.538 . S
C613 C64 1.330 . S
C615 C336 1.287 . S
C631 C78 1.260 . S
C633 C344 1.267 . S
C649 C45 1.673 . S
C651 C238 1.645 . S
C667 C177 1.804 . S
C669 C239 1.599 . S
C687 C196 1.397 . S
C685 C189 1.436 1_565 S
C705 C217 1.567 . S
C703 C102 1.573 . S
C721 C57 1.673 . S
C723 C252 1.663 . S
C741 C302 1.488 . S
C739 C138 1.488 . S
C759 C253 1.511 . S
C757 C114 1.694 . S
C777 C281 1.390 . S
C775 C153 1.730 . S
C795 C287 1.657 . S
C793 C174 1.701 . S
C811 C184 1.295 . S
C813 C295 1.061 . S
C829 C105 1.739 . S
C831 C259 1.702 . S
C849 C273 1.484 . S
C847 C162 1.506 . S
C865 C42 1.513 . S
C867 C232 1.512 . S
C885 C246 1.803 . S
C883 C6 1.804 . S
C903 C204 1.323 . S
C901 C16 1.317 . S
C921 C210 1.668 . S
C919 C33 1.725 1_455 S
C937 C21 1.364 . S
C939 C322 1.336 . S
C955 C28 1.404 1_556 S
C957 C315 1.380 . S
C973 C40 1.480 . S
C975 C323 1.252 . S
C991 C4 1.352 . S
C993 C316 1.359 . S
C1011 C351 1.169 . S
C1009 C100 1.343 . S
C1029 C357 1.538 . S
C1027 C160 1.566 . S
C1047 C350 1.289 . S
C1045 C172 1.330 . S
C1063 C186 1.260 . S
C1065 C358 1.267 . S
C1081 C129 1.672 . S
C1083 C266 1.645 . S
C1101 C267 1.598 . S
C1099 C69 1.804 . S
C1119 C280 1.397 . S
C1117 C81 1.436 . S
C1137 C301 1.567 . S
C1135 C90 1.573 . S
C1153 C165 1.673 . S
C1155 C224 1.664 . S
C1173 C218 1.488 . S
C1171 C18 1.488 . S
C1189 C30 1.694 . S
C1191 C225 1.511 . S
C1209 C197 1.390 . S
C1207 C9 1.730 1_565 S
