# Generated by pormake.
# Topology pyr, (3,6)-cn, num edge types: 1
# Building blocks:
#     Node 0, Type 0, BuildingBlock: ESEHIV_clean_linker_0, # of connection points: 3
#     Node 1, Type 0, BuildingBlock: ESEHIV_clean_linker_0, # of connection points: 3
#     Node 2, Type 0, BuildingBlock: ESEHIV_clean_linker_0, # of connection points: 3
#     Node 3, Type 0, BuildingBlock: ESEHIV_clean_linker_0, # of connection points: 3
#     Node 4, Type 0, BuildingBlock: ESEHIV_clean_linker_0, # of connection points: 3
#     Node 5, Type 0, BuildingBlock: ESEHIV_clean_linker_0, # of connection points: 3
#     Node 6, Type 0, BuildingBlock: ESEHIV_clean_linker_0, # of connection points: 3
#     Node 7, Type 0, BuildingBlock: ESEHIV_clean_linker_0, # of connection points: 3
#     Node 8, Type 1, BuildingBlock: BETGAK_clean_sbu_0, # of connection points: 6
#     Node 9, Type 1, BuildingBlock: BETGAK_clean_sbu_0, # of connection points: 6
#     Node 10, Type 1, BuildingBlock: BETGAK_clean_sbu_0, # of connection points: 6
#     Node 11, Type 1, BuildingBlock: BETGAK_clean_sbu_0, # of connection points: 6
#     Edge 12, Type (0, 1), BuildingBlock: OJICUG_clean_linker_0, # of connection points: 2
#     Edge 13, Type (0, 1), BuildingBlock: OJICUG_clean_linker_0, # of connection points: 2
#     Edge 14, Type (0, 1), BuildingBlock: OJICUG_clean_linker_0, # of connection points: 2
#     Edge 15, Type (0, 1), BuildingBlock: OJICUG_clean_linker_0, # of connection points: 2
#     Edge 16, Type (0, 1), BuildingBlock: OJICUG_clean_linker_0, # of connection points: 2
#     Edge 17, Type (0, 1), BuildingBlock: OJICUG_clean_linker_0, # of connection points: 2
#     Edge 18, Type (0, 1), BuildingBlock: OJICUG_clean_linker_0, # of connection points: 2
#     Edge 19, Type (0, 1), BuildingBlock: OJICUG_clean_linker_0, # of connection points: 2
#     Edge 20, Type (0, 1), BuildingBlock: OJICUG_clean_linker_0, # of connection points: 2
#     Edge 21, Type (0, 1), BuildingBlock: OJICUG_clean_linker_0, # of connection points: 2
#     Edge 22, Type (0, 1), BuildingBlock: OJICUG_clean_linker_0, # of connection points: 2
#     Edge 23, Type (0, 1), BuildingBlock: OJICUG_clean_linker_0, # of connection points: 2
#     Edge 24, Type (0, 1), BuildingBlock: OJICUG_clean_linker_0, # of connection points: 2
#     Edge 25, Type (0, 1), BuildingBlock: OJICUG_clean_linker_0, # of connection points: 2
#     Edge 26, Type (0, 1), BuildingBlock: OJICUG_clean_linker_0, # of connection points: 2
#     Edge 27, Type (0, 1), BuildingBlock: OJICUG_clean_linker_0, # of connection points: 2
#     Edge 28, Type (0, 1), BuildingBlock: OJICUG_clean_linker_0, # of connection points: 2
#     Edge 29, Type (0, 1), BuildingBlock: OJICUG_clean_linker_0, # of connection points: 2
#     Edge 30, Type (0, 1), BuildingBlock: OJICUG_clean_linker_0, # of connection points: 2
#     Edge 31, Type (0, 1), BuildingBlock: OJICUG_clean_linker_0, # of connection points: 2
#     Edge 32, Type (0, 1), BuildingBlock: OJICUG_clean_linker_0, # of connection points: 2
#     Edge 33, Type (0, 1), BuildingBlock: OJICUG_clean_linker_0, # of connection points: 2
#     Edge 34, Type (0, 1), BuildingBlock: OJICUG_clean_linker_0, # of connection points: 2
#     Edge 35, Type (0, 1), BuildingBlock: OJICUG_clean_linker_0, # of connection points: 2
# Relax obj value: 0.229
# Max RMSD: 0.158
# Mean RMSD: 0.076
data_MOF--net-pyr--node1-BETGAK_clean_sbu_0--node2-ESEHIV_clean_linker_0--edge1-OJICUG_clean_linker_0
_symmetry_space_group_name_H-M    P1
_symmetry_Int_Tables_number       1
_symmetry_cell_setting            triclinic
loop_
_symmetry_equiv_pos_as_xyz
'x, y, z'
_cell_length_a     25.477184
_cell_length_b     26.857371
_cell_length_c     24.300705
_cell_angle_alpha  90.14962
_cell_angle_beta   88.436215
_cell_angle_gamma 103.61971
loop_
_atom_site_label
_atom_site_type_symbol
_atom_site_fract_x
_atom_site_fract_y
_atom_site_fract_z
_atom_type_partial_charge
H0 H 0.39373 0.41191 0.35429 0.0
H1 H 0.50942 0.31785 0.35504 0.0
H2 H 0.44641 0.35606 0.20319 0.0
C3 C 0.42221 0.39393 0.33299 0.0
C4 C 0.42011 0.39114 0.27543 0.0
C5 C 0.45207 0.36557 0.36288 0.0
C6 C 0.48635 0.34026 0.33325 0.0
C7 C 0.48279 0.33507 0.27596 0.0
C8 C 0.45097 0.36188 0.24714 0.0
H9 H 0.13757 0.91057 0.82922 0.0
H10 H 0.19044 0.77076 0.83269 0.0
H11 H 0.15232 0.8292 0.67901 0.0
C12 C 0.14289 0.87645 0.80818 0.0
C13 C 0.14027 0.874 0.75047 0.0
C14 C 0.15986 0.83871 0.83834 0.0
C15 C 0.17357 0.79775 0.81007 0.0
C16 C 0.17477 0.79661 0.7524 0.0
C17 C 0.15314 0.83183 0.72346 0.0
H18 H 0.72578 0.36972 0.9927 0.0
H19 H 0.73974 0.49718 0.88227 0.0
H20 H 0.60728 0.36399 0.86829 0.0
C21 C 0.71046 0.38734 0.95864 0.0
C22 C 0.66273 0.36016 0.93371 0.0
C23 C 0.73915 0.43654 0.94093 0.0
C24 C 0.71811 0.45966 0.8967 0.0
C25 C 0.67065 0.43409 0.86925 0.0
C26 C 0.64385 0.38384 0.88805 0.0
H27 H 0.84996 0.78195 0.49121 0.0
H28 H 0.97295 0.78342 0.36583 0.0
H29 H 0.83418 0.65398 0.38271 0.0
C30 C 0.86632 0.76317 0.45761 0.0
C31 C 0.8373 0.71413 0.4416 0.0
C32 C 0.91523 0.78913 0.43129 0.0
C33 C 0.93491 0.76445 0.38546 0.0
C34 C 0.90687 0.71457 0.36682 0.0
C35 C 0.85742 0.69098 0.39557 0.0
H36 H 0.57248 0.84572 0.83979 0.0
H37 H 0.68834 0.75183 0.84019 0.0
H38 H 0.6358 0.80753 0.99146 0.0
C39 C 0.59563 0.82334 0.86149 0.0
C40 C 0.59929 0.82852 0.91878 0.0
C41 C 0.62991 0.79808 0.83178 0.0
C42 C 0.65987 0.76976 0.86158 0.0
C43 C 0.66206 0.77252 0.91914 0.0
C44 C 0.6312 0.80173 0.94751 0.0
H45 H 0.89208 0.39333 0.36103 0.0
H46 H 0.94476 0.25343 0.36459 0.0
H47 H 0.93029 0.33501 0.51471 0.0
C48 C 0.90894 0.36634 0.38365 0.0
C49 C 0.90777 0.36752 0.44132 0.0
C50 C 0.9226 0.32533 0.35542 0.0
C51 C 0.93952 0.28757 0.3856 0.0
C52 C 0.94216 0.29007 0.44331 0.0
C53 C 0.92942 0.33232 0.47027 0.0
H54 H 0.3564 0.794 0.20198 0.0
H55 H 0.34237 0.66653 0.31241 0.0
H56 H 0.47493 0.79965 0.32634 0.0
C57 C 0.37171 0.77637 0.23602 0.0
C58 C 0.41947 0.80352 0.26094 0.0
C59 C 0.343 0.72718 0.25375 0.0
C60 C 0.36402 0.70405 0.29798 0.0
C61 C 0.4115 0.72959 0.32541 0.0
C62 C 0.43834 0.77983 0.3066 0.0
H63 H 0.10913 0.38036 0.82864 0.0
H64 H 0.2321 0.38173 0.70327 0.0
H65 H 0.24803 0.50969 0.81183 0.0
C66 C 0.14718 0.3993 0.80903 0.0
C67 C 0.17528 0.44914 0.8277 0.0
C68 C 0.16683 0.37462 0.76318 0.0
C69 C 0.21576 0.40053 0.73688 0.0
C70 C 0.24484 0.44955 0.7529 0.0
C71 C 0.22475 0.47271 0.79896 0.0
La72 La 0.07867 0.10277 0.55062 0.0
La73 La 1.00297 1.06118 0.64367 0.0
C74 C 0.13586 0.16259 0.48163 0.0
C75 C 0.18761 0.19988 0.48846 0.0
C76 C 0.2262 0.18965 0.52435 0.0
C77 C 0.27655 0.22389 0.5282 0.0
C78 C 0.28865 0.26928 0.49704 0.0
C79 C 0.24839 0.2811 0.46435 0.0
C80 C 0.1983 0.24653 0.45997 0.0
C81 C 0.11781 1.04842 0.62199 0.0
C82 C 0.07552 0.17179 0.66088 0.0
C83 C 0.9456 1.00147 0.71266 0.0
C84 C 0.89389 0.96412 0.70582 0.0
C85 C 0.85521 0.97431 0.67002 0.0
C86 C 0.80489 0.94 0.6662 0.0
C87 C 0.79292 0.89458 0.69731 0.0
C88 C 0.83327 0.8828 0.7299 0.0
C89 C 0.88332 0.91743 0.73424 0.0
C90 C 0.96401 0.11563 0.57214 0.0
C91 C 1.00622 0.99209 0.53349 0.0
O92 O 0.13691 0.11431 0.48636 0.0
O93 O 0.09482 0.17319 0.50852 0.0
O94 O 0.1313 1.0524 0.57033 0.0
O95 O 0.08798 1.07846 0.63304 0.0
O96 O 0.08662 0.16928 0.60726 0.0
O97 O 0.04899 0.12971 0.68764 0.0
O98 O 0.94452 1.04973 0.70774 0.0
O99 O 0.98674 0.99085 0.68597 0.0
O100 O 0.95054 0.11179 0.62381 0.0
O101 O 0.99368 0.08541 0.56132 0.0
O102 O 0.99509 0.99462 0.5871 0.0
O103 O 1.03271 1.03417 0.50671 0.0
H104 H 0.21813 0.15439 0.54799 0.0
H105 H 0.30695 0.21382 0.55341 0.0
H106 H 0.25692 0.31539 0.43908 0.0
H107 H 0.1686 0.25548 0.43298 0.0
H108 H 0.86318 1.00959 0.64642 0.0
H109 H 0.77443 0.95005 0.64107 0.0
H110 H 0.82484 0.84849 0.75513 0.0
H111 H 0.91309 0.90851 0.76117 0.0
La112 La 0.59265 0.08581 0.11685 0.0
La113 La 0.48953 1.07795 1.0777 0.0
C114 C 0.69347 0.09766 0.12403 0.0
C115 C 0.73937 0.14058 0.13416 0.0
C116 C 0.73608 0.19124 0.12465 0.0
C117 C 0.7768 0.2319 0.14265 0.0
C118 C 0.82075 0.22234 0.17124 0.0
C119 C 0.8257 0.17147 0.17658 0.0
C120 C 0.78524 0.13094 0.15816 0.0
C121 C 0.51998 1.01021 0.16956 0.0
C122 C 0.52926 0.15476 0.17521 0.0
C123 C 0.38874 1.0662 1.0703 0.0
C124 C 0.34286 1.0233 1.06002 0.0
C125 C 0.34615 0.97263 1.06944 0.0
C126 C 0.30548 0.93199 1.05131 0.0
C127 C 0.26157 0.9416 1.02268 0.0
C128 C 0.25662 0.99247 1.01741 0.0
C129 C 0.29704 1.03298 1.03596 0.0
C130 C 0.56232 0.15344 1.02509 0.0
C131 C 0.55284 1.00888 1.01948 0.0
O132 O 0.65924 0.08461 0.16544 0.0
O133 O 0.66907 0.0991 1.07774 0.0
O134 O 0.55985 1.04182 0.19195 0.0
O135 O 0.52227 1.02142 0.11887 0.0
O136 O 0.57871 0.15287 0.15999 0.0
O137 O 0.48817 0.12204 0.15369 0.0
O138 O 0.42307 1.0793 1.02898 0.0
O139 O 0.41304 1.06469 0.11664 0.0
O140 O 0.52256 0.12178 1.0026 0.0
O141 O 0.55986 0.14234 1.07582 0.0
O142 O 0.50341 1.01079 1.03472 0.0
O143 O 0.59395 1.04165 1.0409 0.0
H144 H 0.70087 0.19928 0.10584 0.0
H145 H 0.77215 0.27066 0.13738 0.0
H146 H 0.85848 0.16254 0.19905 0.0
H147 H 0.78829 0.09196 0.16561 0.0
H148 H 0.38133 0.96456 1.08829 0.0
H149 H 0.31013 0.89323 1.05651 0.0
H150 H 0.22388 1.00144 0.99491 0.0
H151 H 0.29399 1.07197 1.02858 0.0
La152 La 0.53691 0.53815 0.56458 0.0
La153 La 0.54536 0.62557 0.63004 0.0
C154 C 0.56222 0.46664 0.51104 0.0
C155 C 0.61534 0.45454 0.50785 0.0
C156 C 0.62064 0.40571 0.49257 0.0
C157 C 0.67179 0.39509 0.48994 0.0
C158 C 0.71816 0.43335 0.50222 0.0
C159 C 0.71253 0.4821 0.51783 0.0
C160 C 0.66147 0.49243 0.52112 0.0
C161 C 0.44322 0.53565 0.61906 0.0
C162 C 0.58986 0.5391 0.68418 0.0
C163 C 0.52022 0.6972 0.68348 0.0
C164 C 0.46712 0.70938 0.6865 0.0
C165 C 0.46185 0.75825 0.70167 0.0
C166 C 0.41072 0.76892 0.70412 0.0
C167 C 0.36436 0.73069 0.69176 0.0
C168 C 0.36997 0.68191 0.67625 0.0
C169 C 0.42101 0.67151 0.67316 0.0
C170 C 0.63902 0.62785 0.57547 0.0
C171 C 0.49228 0.62457 0.51048 0.0
O172 O 0.5378 0.46004 0.55928 0.0
O173 O 0.56091 0.51072 0.48949 0.0
O174 O 0.44815 0.51865 0.56971 0.0
O175 O 0.49048 0.55132 0.63699 0.0
O176 O 0.58617 0.52017 0.6335 0.0
O177 O 0.57275 0.58101 0.69438 0.0
O178 O 0.54473 0.70374 0.63529 0.0
O179 O 0.5214 0.65312 0.70508 0.0
O180 O 0.63415 0.64473 0.62489 0.0
O181 O 0.59172 0.61248 0.55758 0.0
O182 O 0.49603 0.64353 0.56116 0.0
O183 O 0.50938 0.58266 0.50028 0.0
H184 H 0.58542 0.37604 0.48247 0.0
H185 H 0.67526 0.35729 0.47719 0.0
H186 H 0.74753 0.51207 0.52778 0.0
H187 H 0.65797 0.5302 0.53377 0.0
H188 H 0.49707 0.78789 0.71182 0.0
H189 H 0.40727 0.80674 0.7168 0.0
H190 H 0.33497 0.65196 0.66625 0.0
H191 H 0.42448 0.63371 0.6606 0.0
La192 La 0.03919 0.537 0.12725 0.0
La193 La 0.04302 0.62678 1.06725 0.0
C194 C 0.0653 0.46008 0.16765 0.0
C195 C 0.11872 0.45065 0.18066 0.0
C196 C 0.14264 0.46581 0.23136 0.0
C197 C 0.19434 0.45942 0.24204 0.0
C198 C 0.22333 0.43759 0.20237 0.0
C199 C 0.19914 0.422 0.15189 0.0
C200 C 0.14743 0.42826 0.14126 0.0
C201 C 0.98697 0.59918 0.18243 0.0
C202 C 0.14329 0.63002 0.13817 0.0
C203 C 1.01701 0.70367 1.02663 0.0
C204 C 0.96359 0.71313 1.01366 0.0
C205 C 0.93972 0.69809 0.9629 0.0
C206 C 0.88801 0.70446 0.95224 0.0
C207 C 0.85897 0.72617 0.99197 0.0
C208 C 0.88312 0.74165 1.0425 0.0
C209 C 0.93483 0.73539 1.05312 0.0
C210 C 0.09528 0.56445 1.01225 0.0
C211 C 0.93886 0.5338 1.05646 0.0
O212 O 0.04849 0.49417 0.1973 0.0
O213 O 0.05645 0.46501 0.11554 0.0
O214 O 0.97144 0.54959 0.17951 0.0
O215 O 1.03121 0.61224 0.15458 0.0
O216 O 0.12357 0.57989 0.14062 0.0
O217 O 0.11584 0.65897 0.11322 0.0
O218 O 1.03371 0.66945 0.99708 0.0
O219 O 1.02595 0.69888 1.07875 0.0
O220 O 0.11092 0.61403 1.01524 0.0
O221 O 0.05091 0.55155 1.03986 0.0
O222 O 0.95859 0.58393 1.054 0.0
O223 O 0.96632 0.50484 1.08137 0.0
H224 H 0.12158 0.48288 0.26279 0.0
H225 H 0.21121 0.47088 0.28182 0.0
H226 H 0.22037 0.40537 0.12025 0.0
H227 H 0.13022 0.41607 0.10177 0.0
H228 H 0.96082 0.68111 0.93143 0.0
H229 H 0.87117 0.69309 0.91243 0.0
H230 H 0.86185 0.75818 1.07418 0.0
H231 H 0.952 0.74749 1.09264 0.0
C232 C 0.42566 0.29584 0.43349 0.0
C233 C 0.43219 0.34803 0.41984 0.0
H234 H 0.37398 0.22969 0.47043 0.0
C235 C 0.40306 0.37681 0.45192 0.0
H236 H 0.44791 0.27178 0.41193 0.0
C237 C 0.35853 0.35166 0.48436 0.0
C238 C 0.34529 0.29797 0.48783 0.0
H239 H 0.40936 0.41773 0.44568 0.0
H240 H 0.33129 0.3735 0.50151 0.0
C241 C 0.38252 0.27108 0.4674 0.0
C242 C 0.22923 0.84519 0.91008 0.0
C243 C 0.17761 0.85017 0.89565 0.0
H244 H 0.29596 0.86983 0.96215 0.0
C245 C 0.14889 0.8755 0.93205 0.0
H246 H 0.25311 0.82661 0.88299 0.0
C247 C 0.17406 0.90096 0.97801 0.0
C248 C 0.22824 0.90129 0.9882 0.0
H249 H 0.10865 0.87912 0.92255 0.0
H250 H 0.15269 0.9237 1.00294 0.0
C251 C 0.25414 0.87028 0.95594 0.0
C252 C 0.64823 0.5129 0.82415 0.0
C253 C 0.64957 0.46056 0.82148 0.0
H254 H 0.6285 0.57786 0.78496 0.0
C255 C 0.63162 0.43466 0.7722 0.0
H256 H 0.66118 0.53464 0.86097 0.0
C257 C 0.61382 0.46009 0.72758 0.0
C258 C 0.6119 0.51226 0.73068 0.0
H259 H 0.63213 0.39466 0.76767 0.0
H260 H 0.60064 0.43843 0.69077 0.0
C261 C 0.62927 0.53793 0.78016 0.0
C262 C 0.96492 0.71139 0.27664 0.0
C263 C 0.92889 0.68597 0.31898 0.0
H264 H 1.01137 0.70552 0.20168 0.0
C265 C 0.91374 0.63175 0.31479 0.0
H266 H 0.9781 0.75272 0.27665 0.0
C267 C 0.932 0.60486 0.2708 0.0
C268 C 0.96763 0.63012 0.22872 0.0
H269 H 0.88806 0.60904 0.34612 0.0
H270 H 0.91849 0.5635 0.27036 0.0
C271 C 0.98404 0.68411 0.2328 0.0
C272 C 0.54979 0.28253 0.24959 0.0
C273 C 0.49706 0.29007 0.2498 0.0
H274 H 0.60185 0.23338 0.22529 0.0
C275 C 0.45525 0.2516 0.22899 0.0
H276 H 0.58242 0.31135 0.26649 0.0
C277 C 0.46577 0.20689 0.2073 0.0
C278 C 0.51862 0.19962 0.20509 0.0
H279 H 0.41396 0.25584 0.23014 0.0
H280 H 0.4323 0.17853 0.19108 0.0
C281 C 0.56067 0.23781 0.22665 0.0
C282 C 0.16185 0.93131 0.66708 0.0
C283 C 0.13412 0.91946 0.71813 0.0
H284 H 0.17781 0.98078 0.59696 0.0
C285 C 0.10404 0.95348 0.73919 0.0
H286 H 0.188 0.90832 0.65028 0.0
C287 C 0.10136 0.99743 0.70964 0.0
C288 C 0.12619 1.00676 0.65731 0.0
H289 H 0.08228 0.94621 0.77832 0.0
H290 H 0.07881 1.02341 0.72716 0.0
C291 C 0.15714 0.97382 0.63676 0.0
C292 C 0.82552 0.43344 0.99064 0.0
C293 C 0.79111 0.46263 0.9693 0.0
H294 H 0.89695 0.43202 1.03483 0.0
C295 C 0.80648 0.51623 0.97709 0.0
H296 H 0.81699 0.39242 0.98455 0.0
C297 C 0.85376 0.53932 1.00557 0.0
C298 C 0.88718 0.50964 1.02776 0.0
H299 H 0.78155 0.5405 0.962 0.0
H300 H 0.86396 0.58055 1.01041 0.0
C301 C 0.87211 0.45634 1.01959 0.0
C302 C 0.78539 0.69231 0.53298 0.0
C303 C 0.78682 0.68769 0.47504 0.0
H304 H 0.73932 0.67734 0.60895 0.0
C305 C 0.73912 0.65979 0.45051 0.0
H306 H 0.82105 0.71224 0.55418 0.0
C307 C 0.69148 0.63932 0.48259 0.0
C308 C 0.69003 0.64573 0.54031 0.0
H309 H 0.738 0.65515 0.40626 0.0
H310 H 0.65544 0.6193 0.46203 0.0
C311 C 0.73819 0.67186 0.56479 0.0
C312 C 0.33974 0.37278 0.21516 0.0
C313 C 0.37552 0.40766 0.24795 0.0
H314 H 0.26351 0.35436 0.17607 0.0
C315 C 0.36315 0.45463 0.26139 0.0
H316 H 0.34736 0.33575 0.20511 0.0
C317 C 0.31476 0.46531 0.2448 0.0
C318 C 0.27755 0.42914 0.21462 0.0
H319 H 0.38999 0.48226 0.28656 0.0
H320 H 0.30592 0.50141 0.25676 0.0
C321 C 0.29137 0.38336 0.19874 0.0
C322 C 0.63532 0.29604 1.01364 0.0
C323 C 0.63416 0.30729 0.95672 0.0
H324 H 0.61543 0.24029 1.07903 0.0
C325 C 0.60798 0.26667 0.92278 0.0
H326 H 0.65323 0.32573 1.04225 0.0
C327 C 0.58515 0.21708 0.94466 0.0
C328 C 0.58781 0.206 1.00124 0.0
H329 H 0.60606 0.27278 0.87895 0.0
H330 H 0.56566 0.18715 0.91698 0.0
C331 C 0.61319 0.24656 1.03523 0.0
C332 C 0.94575 0.84785 0.51285 0.0
C333 C 0.94468 0.8409 0.45516 0.0
H334 H 0.96462 0.89851 0.58145 0.0
C335 C 0.96745 0.88477 0.42263 0.0
H336 H 0.93002 0.81561 0.54007 0.0
C337 C 0.98825 0.93365 0.44706 0.0
C338 C 0.98697 0.94044 0.50491 0.0
H339 H 0.96755 0.88176 0.3782 0.0
H340 H 1.00423 0.96631 0.42051 0.0
C341 C 0.96596 0.89611 0.53695 0.0
C342 C 0.22121 0.72406 0.74186 0.0
C343 C 0.21434 0.77187 0.7242 0.0
H344 H 0.27476 0.67347 0.74536 0.0
C345 C 0.25377 0.80183 0.68848 0.0
H346 H 0.19152 0.70015 0.76925 0.0
C347 C 0.30129 0.78686 0.67534 0.0
C348 C 0.31025 0.74148 0.69718 0.0
H349 H 0.25038 0.83918 0.67454 0.0
H350 H 0.33229 0.81213 0.65044 0.0
C351 C 0.26882 0.7089 0.7283 0.0
C352 C 0.65603 0.86782 0.76113 0.0
C353 C 0.64962 0.81565 0.77478 0.0
H354 H 0.70752 0.93403 0.72411 0.0
C355 C 0.67874 0.78692 0.74261 0.0
H356 H 0.63377 0.89184 0.78276 0.0
C357 C 0.72317 0.81213 0.71007 0.0
C358 C 0.73632 0.86582 0.70661 0.0
H359 H 0.67253 0.74601 0.74884 0.0
H360 H 0.75043 0.79034 0.69285 0.0
C361 C 0.69906 0.89264 0.72714 0.0
C362 C 0.85322 0.31888 0.28368 0.0
C363 C 0.90483 0.31387 0.29811 0.0
H364 H 0.78646 0.29424 0.23166 0.0
C365 C 0.93352 0.2885 0.26172 0.0
H366 H 0.82937 0.3375 0.31077 0.0
C367 C 0.90831 0.26302 0.21579 0.0
C368 C 0.85414 0.2627 0.20562 0.0
H369 H 0.97375 0.28485 0.27122 0.0
H370 H 0.92966 0.24024 0.19088 0.0
C371 C 0.82828 0.29377 0.23785 0.0
C372 C 0.45055 0.72902 0.42246 0.0
C373 C 0.43257 0.70311 0.37319 0.0
H374 H 0.48156 0.72526 0.50387 0.0
C375 C 0.43386 0.65076 0.37053 0.0
H376 H 0.45007 0.76903 0.42697 0.0
C377 C 0.45282 0.62573 0.41453 0.0
C378 C 0.47022 0.65141 0.46399 0.0
H379 H 0.42089 0.62901 0.33373 0.0
H380 H 0.45356 0.5858 0.40973 0.0
C381 C 0.46834 0.70359 0.46708 0.0
C382 C 0.11717 0.4523 0.91784 0.0
C383 C 0.1533 0.47774 0.87559 0.0
H384 H 0.07064 0.45814 0.99276 0.0
C385 C 0.16858 0.53193 0.8799 0.0
H386 H 0.10389 0.41098 0.91775 0.0
C387 C 0.15034 0.5588 0.92393 0.0
C388 C 0.1146 0.53353 0.96591 0.0
H389 H 0.19436 0.55467 0.84865 0.0
H390 H 0.16396 0.60016 0.92447 0.0
C391 C 0.09806 0.47956 0.96171 0.0
C392 C 0.53229 0.88107 0.94516 0.0
C393 C 0.58501 0.8735 0.945 0.0
H394 H 0.48025 0.93026 0.96938 0.0
C395 C 0.62681 0.91193 0.96588 0.0
H396 H 0.49967 0.85227 0.92821 0.0
C397 C 0.6163 0.95665 0.98756 0.0
C398 C 0.56347 0.96397 0.98968 0.0
H399 H 0.6681 0.90767 0.96477 0.0
H400 H 0.64976 0.98499 1.00381 0.0
C401 C 0.52142 0.9258 0.96808 0.0
C402 C 0.92047 0.23291 0.5268 0.0
C403 C 0.94816 0.24459 0.47571 0.0
H404 H 0.9044 0.18359 0.59703 0.0
C405 C 0.97803 0.21038 0.45469 0.0
H406 H 0.89444 0.25603 0.54358 0.0
C407 C 0.98057 0.16641 0.48432 0.0
C408 C 0.9558 0.15728 0.53671 0.0
H409 H 0.99976 0.21749 0.41553 0.0
H410 H 1.00297 0.1403 0.46684 0.0
C411 C 0.92503 0.19041 0.5572 0.0
C412 C 0.27564 0.64753 0.21757 0.0
C413 C 0.29102 0.70112 0.22538 0.0
H414 H 0.21816 0.58324 0.18421 0.0
C415 C 0.25663 0.73034 0.20405 0.0
H416 H 0.30057 0.62325 0.23265 0.0
C417 C 0.21003 0.70746 0.17509 0.0
C418 C 0.19496 0.65416 0.16689 0.0
H419 H 0.26517 0.77135 0.21016 0.0
H420 H 0.18521 0.7318 0.15985 0.0
C421 C 0.22836 0.62447 0.18907 0.0
C422 C 0.34303 0.5039 0.74398 0.0
C423 C 0.29535 0.47595 0.71946 0.0
H424 H 0.42671 0.54441 0.73246 0.0
C425 C 0.29683 0.47123 0.66152 0.0
H426 H 0.34413 0.50863 0.78822 0.0
C427 C 0.34405 0.49163 0.62973 0.0
C428 C 0.39218 0.51782 0.6542 0.0
H429 H 0.26118 0.45127 0.64032 0.0
H430 H 0.34295 0.48607 0.58557 0.0
C431 C 0.39069 0.52434 0.71191 0.0
C432 C 0.74247 0.79088 0.97937 0.0
C433 C 0.70671 0.75602 0.94653 0.0
H434 H 0.8187 0.8093 1.01845 0.0
C435 C 0.71914 0.7091 0.93298 0.0
H436 H 0.7348 0.82787 0.9895 0.0
C437 C 0.76756 0.69845 0.94951 0.0
C438 C 0.80473 0.7346 0.97976 0.0
H439 H 0.69232 0.68149 0.90777 0.0
H440 H 0.77644 0.66238 0.93747 0.0
C441 C 0.79087 0.78032 0.99574 0.0
C442 C 0.47435 0.89696 0.27183 0.0
C443 C 0.44808 0.85637 0.23791 0.0
H444 H 0.51678 0.97646 0.27762 0.0
C445 C 0.44686 0.86765 0.18101 0.0
H446 H 0.47633 0.89084 0.31566 0.0
C447 C 0.46902 0.91712 0.15942 0.0
C448 C 0.49449 0.95765 0.19339 0.0
H449 H 0.42888 0.83798 0.15239 0.0
H450 H 0.46672 0.92341 0.11562 0.0
C451 C 0.49722 0.94654 0.24996 0.0
C452 C 0.11447 0.27903 0.7718 0.0
C453 C 0.13731 0.32289 0.73928 0.0
H454 H 0.07756 0.19751 0.77387 0.0
C455 C 0.13622 0.31598 0.68159 0.0
H456 H 0.11438 0.28201 0.81623 0.0
C457 C 0.11593 0.26774 0.65747 0.0
C458 C 0.09485 0.22341 0.68949 0.0
H459 H 0.152 0.34822 0.65439 0.0
H460 H 0.11726 0.26537 0.61297 0.0
C461 C 0.09359 0.23017 0.74734 0.0
C462 C 0.82884 0.36232 0.50532 0.0
C463 C 0.8682 0.39226 0.46952 0.0
H464 H 0.75037 0.35199 0.5435 0.0
C465 C 0.86124 0.44003 0.45183 0.0
H466 H 0.83228 0.32499 0.51929 0.0
C467 C 0.81363 0.45517 0.46546 0.0
C468 C 0.77228 0.4226 0.49668 0.0
H469 H 0.89087 0.46394 0.42438 0.0
H470 H 0.80762 0.49058 0.44839 0.0
C471 C 0.78132 0.37726 0.51853 0.0
loop_
_geom_bond_atom_site_label_1
_geom_bond_atom_site_label_2
_geom_bond_distance
_geom_bond_site_symmetry_2
_ccdc_geom_bond_type
H0 C3 0.931 . S
H1 C6 0.928 . S
H2 C8 0.930 . S
C3 H0 0.931 . S
C3 C4 1.413 . S
C3 C5 1.360 . S
C4 C3 1.413 . S
C4 C8 1.429 . S
C5 C3 1.360 . S
C5 C6 1.372 . S
C6 H1 0.928 . S
C6 C5 1.372 . S
C6 C7 1.404 . S
C7 C6 1.404 . S
C7 C8 1.391 . S
C8 H2 0.930 . S
C8 C4 1.429 . S
C8 C7 1.391 . S
H9 C12 0.931 . S
H10 C15 0.928 . S
H11 C17 0.930 . S
C12 H9 0.931 . S
C12 C13 1.413 . S
C12 C14 1.360 . S
C13 C12 1.413 . S
C13 C17 1.429 . S
C14 C12 1.360 . S
C14 C15 1.372 . S
C15 H10 0.928 . S
C15 C14 1.372 . S
C15 C16 1.404 . S
C16 C15 1.404 . S
C16 C17 1.391 . S
C17 H11 0.930 . S
C17 C13 1.429 . S
C17 C16 1.391 . S
H18 C21 0.931 . S
H19 C24 0.928 . S
H20 C26 0.930 . S
C21 H18 0.931 . S
C21 C22 1.413 . S
C21 C23 1.360 . S
C22 C21 1.413 . S
C22 C26 1.429 . S
C23 C21 1.360 . S
C23 C24 1.372 . S
C24 H19 0.928 . S
C24 C23 1.372 . S
C24 C25 1.404 . S
C25 C24 1.404 . S
C25 C26 1.391 . S
C26 H20 0.930 . S
C26 C22 1.429 . S
C26 C25 1.391 . S
H27 C30 0.931 . S
H28 C33 0.928 . S
H29 C35 0.930 . S
C30 H27 0.931 . S
C30 C31 1.413 . S
C30 C32 1.360 . S
C31 C30 1.413 . S
C31 C35 1.429 . S
C32 C30 1.360 . S
C32 C33 1.372 . S
C33 H28 0.928 . S
C33 C32 1.372 . S
C33 C34 1.404 . S
C34 C33 1.404 . S
C34 C35 1.391 . S
C35 H29 0.930 . S
C35 C31 1.429 . S
C35 C34 1.391 . S
H36 C39 0.931 . S
H37 C42 0.928 . S
H38 C44 0.930 . S
C39 H36 0.931 . S
C39 C40 1.413 . S
C39 C41 1.360 . S
C40 C39 1.413 . S
C40 C44 1.429 . S
C41 C39 1.360 . S
C41 C42 1.372 . S
C42 H37 0.928 . S
C42 C41 1.372 . S
C42 C43 1.404 . S
C43 C42 1.404 . S
C43 C44 1.391 . S
C44 H38 0.930 . S
C44 C40 1.429 . S
C44 C43 1.391 . S
H45 C48 0.931 . S
H46 C51 0.928 . S
H47 C53 0.930 . S
C48 H45 0.931 . S
C48 C49 1.413 . S
C48 C50 1.360 . S
C49 C48 1.413 . S
C49 C53 1.429 . S
C50 C48 1.360 . S
C50 C51 1.372 . S
C51 H46 0.928 . S
C51 C50 1.372 . S
C51 C52 1.404 . S
C52 C51 1.404 . S
C52 C53 1.391 . S
C53 H47 0.930 . S
C53 C49 1.429 . S
C53 C52 1.391 . S
H54 C57 0.931 . S
H55 C60 0.928 . S
H56 C62 0.930 . S
C57 H54 0.931 . S
C57 C58 1.413 . S
C57 C59 1.360 . S
C58 C57 1.413 . S
C58 C62 1.429 . S
C59 C57 1.360 . S
C59 C60 1.372 . S
C60 H55 0.928 . S
C60 C59 1.372 . S
C60 C61 1.404 . S
C61 C60 1.404 . S
C61 C62 1.391 . S
C62 H56 0.930 . S
C62 C58 1.429 . S
C62 C61 1.391 . S
H63 C66 0.931 . S
H64 C69 0.928 . S
H65 C71 0.930 . S
C66 H63 0.931 . S
C66 C67 1.413 . S
C66 C68 1.360 . S
C67 C66 1.413 . S
C67 C71 1.429 . S
C68 C66 1.360 . S
C68 C69 1.372 . S
C69 H64 0.928 . S
C69 C68 1.372 . S
C69 C70 1.404 . S
C70 C69 1.404 . S
C70 C71 1.391 . S
C71 H65 0.930 . S
C71 C67 1.429 . S
C71 C70 1.391 . S
La72 C74 2.928 . S
La72 O92 2.521 . S
La72 O93 2.628 . S
La72 O94 2.554 1_545 S
La72 O95 2.757 1_545 S
La72 O96 2.470 . S
La72 O101 2.482 1_455 S
La72 O103 2.503 1_445 S
La73 C83 2.928 . S
La73 O95 2.482 1_655 S
La73 O97 2.503 1_665 S
La73 O98 2.521 . S
La73 O99 2.628 . S
La73 O100 2.554 1_565 S
La73 O101 2.757 1_565 S
La73 O102 2.470 . S
C74 La72 2.928 . S
C74 C75 1.503 . S
C74 O92 1.261 . S
C74 O93 1.243 . S
C75 C74 1.503 . S
C75 C76 1.394 . S
C75 C80 1.373 . S
C76 C75 1.394 . S
C76 C77 1.380 . S
C76 H104 0.930 . S
C77 C76 1.380 . S
C77 C78 1.376 . S
C77 H105 0.930 . S
C78 C77 1.376 . S
C78 C79 1.370 . S
C79 C78 1.370 . S
C79 C80 1.396 . S
C79 H106 0.929 . S
C80 C75 1.373 . S
C80 C79 1.396 . S
C80 H107 0.929 . S
C81 O94 1.240 . S
C81 O95 1.289 . S
C82 O96 1.258 . S
C82 O97 1.256 . S
C83 La73 2.928 . S
C83 C84 1.503 . S
C83 O98 1.261 . S
C83 O99 1.243 . S
C84 C83 1.503 . S
C84 C85 1.394 . S
C84 C89 1.373 . S
C85 C84 1.394 . S
C85 C86 1.380 . S
C85 H108 0.930 . S
C86 C85 1.380 . S
C86 C87 1.376 . S
C86 H109 0.930 . S
C87 C86 1.376 . S
C87 C88 1.370 . S
C88 C87 1.370 . S
C88 C89 1.396 . S
C88 H110 0.929 . S
C89 C84 1.373 . S
C89 C88 1.396 . S
C89 H111 0.929 . S
C90 O100 1.240 . S
C90 O101 1.289 . S
C91 O102 1.258 . S
C91 O103 1.256 . S
O92 La72 2.521 . S
O92 C74 1.261 . S
O93 La72 2.628 . S
O93 C74 1.243 . S
O94 La72 2.554 1_565 S
O94 C81 1.240 . S
O95 La72 2.757 1_565 S
O95 La73 2.482 1_455 S
O95 C81 1.289 . S
O96 La72 2.470 . S
O96 C82 1.258 . S
O97 La73 2.503 1_445 S
O97 C82 1.256 . S
O98 La73 2.521 . S
O98 C83 1.261 . S
O99 La73 2.628 . S
O99 C83 1.243 . S
O100 La73 2.554 1_545 S
O100 C90 1.240 . S
O101 La72 2.482 1_655 S
O101 La73 2.757 1_545 S
O101 C90 1.289 . S
O102 La73 2.470 . S
O102 C91 1.258 . S
O103 La72 2.503 1_665 S
O103 C91 1.256 . S
H104 C76 0.930 . S
H105 C77 0.930 . S
H106 C79 0.929 . S
H107 C80 0.929 . S
H108 C85 0.930 . S
H109 C86 0.930 . S
H110 C88 0.929 . S
H111 C89 0.929 . S
La112 C114 2.928 1_565 S
La112 O132 2.521 1_565 S
La112 O133 2.628 1_565 S
La112 O134 2.554 . S
La112 O135 2.757 . S
La112 O136 2.470 1_565 S
La112 O141 2.482 1_564 S
La112 O143 2.503 1_554 S
La113 C123 2.928 1_545 S
La113 O135 2.482 1_546 S
La113 O137 2.503 1_556 S
La113 O138 2.521 1_545 S
La113 O139 2.628 1_545 S
La113 O140 2.554 . S
La113 O141 2.757 . S
La113 O142 2.470 1_545 S
C114 La112 2.928 1_545 S
C114 C115 1.503 . S
C114 O132 1.261 . S
C114 O133 1.243 . S
C115 C114 1.503 . S
C115 C116 1.394 . S
C115 C120 1.373 . S
C116 C115 1.394 . S
C116 C117 1.380 . S
C116 H144 0.930 . S
C117 C116 1.380 . S
C117 C118 1.376 . S
C117 H145 0.930 . S
C118 C117 1.376 . S
C118 C119 1.370 . S
C119 C118 1.370 . S
C119 C120 1.396 . S
C119 H146 0.929 . S
C120 C115 1.373 . S
C120 C119 1.396 . S
C120 H147 0.929 . S
C121 O134 1.240 . S
C121 O135 1.289 . S
C122 O136 1.258 . S
C122 O137 1.256 . S
C123 La113 2.928 1_565 S
C123 C124 1.503 . S
C123 O138 1.261 . S
C123 O139 1.243 . S
C124 C123 1.503 . S
C124 C125 1.394 . S
C124 C129 1.373 . S
C125 C124 1.394 . S
C125 C126 1.380 . S
C125 H148 0.930 . S
C126 C125 1.380 . S
C126 C127 1.376 . S
C126 H149 0.930 . S
C127 C126 1.376 . S
C127 C128 1.370 . S
C128 C127 1.370 . S
C128 C129 1.396 . S
C128 H150 0.929 . S
C129 C124 1.373 . S
C129 C128 1.396 . S
C129 H151 0.929 . S
C130 O140 1.240 . S
C130 O141 1.289 . S
C131 O142 1.258 . S
C131 O143 1.256 . S
O132 La112 2.521 1_545 S
O132 C114 1.261 . S
O133 La112 2.628 1_545 S
O133 C114 1.243 . S
O134 La112 2.554 . S
O134 C121 1.240 . S
O135 La112 2.757 . S
O135 La113 2.482 1_564 S
O135 C121 1.289 . S
O136 La112 2.470 1_545 S
O136 C122 1.258 . S
O137 La113 2.503 1_554 S
O137 C122 1.256 . S
O138 La113 2.521 1_565 S
O138 C123 1.261 . S
O139 La113 2.628 1_565 S
O139 C123 1.243 . S
O140 La113 2.554 . S
O140 C130 1.240 . S
O141 La112 2.482 1_546 S
O141 La113 2.757 . S
O141 C130 1.289 . S
O142 La113 2.470 1_565 S
O142 C131 1.258 . S
O143 La112 2.503 1_556 S
O143 C131 1.256 . S
H144 C116 0.930 . S
H145 C117 0.930 . S
H146 C119 0.929 . S
H147 C120 0.929 . S
H148 C125 0.930 . S
H149 C126 0.930 . S
H150 C128 0.929 . S
H151 C129 0.929 . S
La152 C154 2.928 . S
La152 O172 2.521 . S
La152 O173 2.628 . S
La152 O174 2.554 . S
La152 O175 2.757 . S
La152 O176 2.470 . S
La152 O181 2.482 . S
La152 O183 2.503 . S
La153 C163 2.928 . S
La153 O175 2.482 . S
La153 O177 2.503 . S
La153 O178 2.521 . S
La153 O179 2.628 . S
La153 O180 2.554 . S
La153 O181 2.757 . S
La153 O182 2.470 . S
C154 La152 2.928 . S
C154 C155 1.503 . S
C154 O172 1.261 . S
C154 O173 1.243 . S
C155 C154 1.503 . S
C155 C156 1.394 . S
C155 C160 1.373 . S
C156 C155 1.394 . S
C156 C157 1.380 . S
C156 H184 0.930 . S
C157 C156 1.380 . S
C157 C158 1.376 . S
C157 H185 0.930 . S
C158 C157 1.376 . S
C158 C159 1.370 . S
C159 C158 1.370 . S
C159 C160 1.396 . S
C159 H186 0.929 . S
C160 C155 1.373 . S
C160 C159 1.396 . S
C160 H187 0.929 . S
C161 O174 1.240 . S
C161 O175 1.289 . S
C162 O176 1.258 . S
C162 O177 1.256 . S
C163 La153 2.928 . S
C163 C164 1.503 . S
C163 O178 1.261 . S
C163 O179 1.243 . S
C164 C163 1.503 . S
C164 C165 1.394 . S
C164 C169 1.373 . S
C165 C164 1.394 . S
C165 C166 1.380 . S
C165 H188 0.930 . S
C166 C165 1.380 . S
C166 C167 1.376 . S
C166 H189 0.930 . S
C167 C166 1.376 . S
C167 C168 1.370 . S
C168 C167 1.370 . S
C168 C169 1.396 . S
C168 H190 0.929 . S
C169 C164 1.373 . S
C169 C168 1.396 . S
C169 H191 0.929 . S
C170 O180 1.240 . S
C170 O181 1.289 . S
C171 O182 1.258 . S
C171 O183 1.256 . S
O172 La152 2.521 . S
O172 C154 1.261 . S
O173 La152 2.628 . S
O173 C154 1.243 . S
O174 La152 2.554 . S
O174 C161 1.240 . S
O175 La152 2.757 . S
O175 La153 2.482 . S
O175 C161 1.289 . S
O176 La152 2.470 . S
O176 C162 1.258 . S
O177 La153 2.503 . S
O177 C162 1.256 . S
O178 La153 2.521 . S
O178 C163 1.261 . S
O179 La153 2.628 . S
O179 C163 1.243 . S
O180 La153 2.554 . S
O180 C170 1.240 . S
O181 La152 2.482 . S
O181 La153 2.757 . S
O181 C170 1.289 . S
O182 La153 2.470 . S
O182 C171 1.258 . S
O183 La152 2.503 . S
O183 C171 1.256 . S
H184 C156 0.930 . S
H185 C157 0.930 . S
H186 C159 0.929 . S
H187 C160 0.929 . S
H188 C165 0.930 . S
H189 C166 0.930 . S
H190 C168 0.929 . S
H191 C169 0.929 . S
La192 C194 2.928 . S
La192 O212 2.521 . S
La192 O213 2.628 . S
La192 O214 2.554 1_455 S
La192 O215 2.757 1_455 S
La192 O216 2.470 . S
La192 O221 2.482 1_554 S
La192 O223 2.503 1_454 S
La193 C203 2.928 . S
La193 O215 2.482 1_556 S
La193 O217 2.503 1_656 S
La193 O218 2.521 . S
La193 O219 2.628 . S
La193 O220 2.554 1_655 S
La193 O221 2.757 1_655 S
La193 O222 2.470 . S
C194 La192 2.928 . S
C194 C195 1.503 . S
C194 O212 1.261 . S
C194 O213 1.243 . S
C195 C194 1.503 . S
C195 C196 1.394 . S
C195 C200 1.373 . S
C196 C195 1.394 . S
C196 C197 1.380 . S
C196 H224 0.930 . S
C197 C196 1.380 . S
C197 C198 1.376 . S
C197 H225 0.930 . S
C198 C197 1.376 . S
C198 C199 1.370 . S
C199 C198 1.370 . S
C199 C200 1.396 . S
C199 H226 0.929 . S
C200 C195 1.373 . S
C200 C199 1.396 . S
C200 H227 0.929 . S
C201 O214 1.240 . S
C201 O215 1.289 . S
C202 O216 1.258 . S
C202 O217 1.256 . S
C203 La193 2.928 . S
C203 C204 1.503 . S
C203 O218 1.261 . S
C203 O219 1.243 . S
C204 C203 1.503 . S
C204 C205 1.394 . S
C204 C209 1.373 . S
C205 C204 1.394 . S
C205 C206 1.380 . S
C205 H228 0.930 . S
C206 C205 1.380 . S
C206 C207 1.376 . S
C206 H229 0.930 . S
C207 C206 1.376 . S
C207 C208 1.370 . S
C208 C207 1.370 . S
C208 C209 1.396 . S
C208 H230 0.929 . S
C209 C204 1.373 . S
C209 C208 1.396 . S
C209 H231 0.929 . S
C210 O220 1.240 . S
C210 O221 1.289 . S
C211 O222 1.258 . S
C211 O223 1.256 . S
O212 La192 2.521 . S
O212 C194 1.261 . S
O213 La192 2.628 . S
O213 C194 1.243 . S
O214 La192 2.554 1_655 S
O214 C201 1.240 . S
O215 La192 2.757 1_655 S
O215 La193 2.482 1_554 S
O215 C201 1.289 . S
O216 La192 2.470 . S
O216 C202 1.258 . S
O217 La193 2.503 1_454 S
O217 C202 1.256 . S
O218 La193 2.521 . S
O218 C203 1.261 . S
O219 La193 2.628 . S
O219 C203 1.243 . S
O220 La193 2.554 1_455 S
O220 C210 1.240 . S
O221 La192 2.482 1_556 S
O221 La193 2.757 1_455 S
O221 C210 1.289 . S
O222 La193 2.470 . S
O222 C211 1.258 . S
O223 La192 2.503 1_656 S
O223 C211 1.256 . S
H224 C196 0.930 . S
H225 C197 0.930 . S
H226 C199 0.929 . S
H227 C200 0.929 . S
H228 C205 0.930 . S
H229 C206 0.930 . S
H230 C208 0.929 . S
H231 C209 0.929 . S
C232 C233 1.387 . S
C232 H236 0.950 . S
C232 C241 1.390 . S
C233 C232 1.387 . S
C233 C235 1.387 . S
H234 C241 0.950 . S
C235 C233 1.387 . S
C235 C237 1.390 . S
C235 H239 0.950 . S
H236 C232 0.950 . S
C237 C235 1.390 . S
C237 C238 1.387 . S
C237 H240 0.950 . S
C238 C237 1.387 . S
C238 C241 1.387 . S
H239 C235 0.950 . S
H240 C237 0.950 . S
C241 C232 1.390 . S
C241 H234 0.950 . S
C241 C238 1.387 . S
C242 C243 1.387 . S
C242 H246 0.950 . S
C242 C251 1.390 . S
C243 C242 1.387 . S
C243 C245 1.387 . S
H244 C251 0.950 . S
C245 C243 1.387 . S
C245 C247 1.390 . S
C245 H249 0.950 . S
H246 C242 0.950 . S
C247 C245 1.390 . S
C247 C248 1.387 . S
C247 H250 0.950 . S
C248 C247 1.387 . S
C248 C251 1.387 . S
H249 C245 0.950 . S
H250 C247 0.950 . S
C251 C242 1.390 . S
C251 H244 0.950 . S
C251 C248 1.387 . S
C252 C253 1.387 . S
C252 H256 0.950 . S
C252 C261 1.390 . S
C253 C252 1.387 . S
C253 C255 1.387 . S
H254 C261 0.950 . S
C255 C253 1.387 . S
C255 C257 1.390 . S
C255 H259 0.950 . S
H256 C252 0.950 . S
C257 C255 1.390 . S
C257 C258 1.387 . S
C257 H260 0.950 . S
C258 C257 1.387 . S
C258 C261 1.387 . S
H259 C255 0.950 . S
H260 C257 0.950 . S
C261 C252 1.390 . S
C261 H254 0.950 . S
C261 C258 1.387 . S
C262 C263 1.387 . S
C262 H266 0.950 . S
C262 C271 1.390 . S
C263 C262 1.387 . S
C263 C265 1.387 . S
H264 C271 0.950 . S
C265 C263 1.387 . S
C265 C267 1.390 . S
C265 H269 0.950 . S
H266 C262 0.950 . S
C267 C265 1.390 . S
C267 C268 1.387 . S
C267 H270 0.950 . S
C268 C267 1.387 . S
C268 C271 1.387 . S
H269 C265 0.950 . S
H270 C267 0.950 . S
C271 C262 1.390 . S
C271 H264 0.950 . S
C271 C268 1.387 . S
C272 C273 1.387 . S
C272 H276 0.950 . S
C272 C281 1.390 . S
C273 C272 1.387 . S
C273 C275 1.387 . S
H274 C281 0.950 . S
C275 C273 1.387 . S
C275 C277 1.390 . S
C275 H279 0.950 . S
H276 C272 0.950 . S
C277 C275 1.390 . S
C277 C278 1.387 . S
C277 H280 0.950 . S
C278 C277 1.387 . S
C278 C281 1.387 . S
H279 C275 0.950 . S
H280 C277 0.950 . S
C281 C272 1.390 . S
C281 H274 0.950 . S
C281 C278 1.387 . S
C282 C283 1.387 . S
C282 H286 0.950 . S
C282 C291 1.390 . S
C283 C282 1.387 . S
C283 C285 1.387 . S
H284 C291 0.950 . S
C285 C283 1.387 . S
C285 C287 1.390 . S
C285 H289 0.950 . S
H286 C282 0.950 . S
C287 C285 1.390 . S
C287 C288 1.387 . S
C287 H290 0.950 . S
C288 C287 1.387 . S
C288 C291 1.387 . S
H289 C285 0.950 . S
H290 C287 0.950 . S
C291 C282 1.390 . S
C291 H284 0.950 . S
C291 C288 1.387 . S
C292 C293 1.387 . S
C292 H296 0.950 . S
C292 C301 1.390 . S
C293 C292 1.387 . S
C293 C295 1.387 . S
H294 C301 0.950 . S
C295 C293 1.387 . S
C295 C297 1.390 . S
C295 H299 0.950 . S
H296 C292 0.950 . S
C297 C295 1.390 . S
C297 C298 1.387 . S
C297 H300 0.950 . S
C298 C297 1.387 . S
C298 C301 1.387 . S
H299 C295 0.950 . S
H300 C297 0.950 . S
C301 C292 1.390 . S
C301 H294 0.950 . S
C301 C298 1.387 . S
C302 C303 1.387 . S
C302 H306 0.950 . S
C302 C311 1.390 . S
C303 C302 1.387 . S
C303 C305 1.387 . S
H304 C311 0.950 . S
C305 C303 1.387 . S
C305 C307 1.390 . S
C305 H309 0.950 . S
H306 C302 0.950 . S
C307 C305 1.390 . S
C307 C308 1.387 . S
C307 H310 0.950 . S
C308 C307 1.387 . S
C308 C311 1.387 . S
H309 C305 0.950 . S
H310 C307 0.950 . S
C311 C302 1.390 . S
C311 H304 0.950 . S
C311 C308 1.387 . S
C312 C313 1.387 . S
C312 H316 0.950 . S
C312 C321 1.390 . S
C313 C312 1.387 . S
C313 C315 1.387 . S
H314 C321 0.950 . S
C315 C313 1.387 . S
C315 C317 1.390 . S
C315 H319 0.950 . S
H316 C312 0.950 . S
C317 C315 1.390 . S
C317 C318 1.387 . S
C317 H320 0.950 . S
C318 C317 1.387 . S
C318 C321 1.387 . S
H319 C315 0.950 . S
H320 C317 0.950 . S
C321 C312 1.390 . S
C321 H314 0.950 . S
C321 C318 1.387 . S
C322 C323 1.387 . S
C322 H326 0.950 . S
C322 C331 1.390 . S
C323 C322 1.387 . S
C323 C325 1.387 . S
H324 C331 0.950 . S
C325 C323 1.387 . S
C325 C327 1.390 . S
C325 H329 0.950 . S
H326 C322 0.950 . S
C327 C325 1.390 . S
C327 C328 1.387 . S
C327 H330 0.950 . S
C328 C327 1.387 . S
C328 C331 1.387 . S
H329 C325 0.950 . S
H330 C327 0.950 . S
C331 C322 1.390 . S
C331 H324 0.950 . S
C331 C328 1.387 . S
C332 C333 1.387 . S
C332 H336 0.950 . S
C332 C341 1.390 . S
C333 C332 1.387 . S
C333 C335 1.387 . S
H334 C341 0.950 . S
C335 C333 1.387 . S
C335 C337 1.390 . S
C335 H339 0.950 . S
H336 C332 0.950 . S
C337 C335 1.390 . S
C337 C338 1.387 . S
C337 H340 0.950 . S
C338 C337 1.387 . S
C338 C341 1.387 . S
H339 C335 0.950 . S
H340 C337 0.950 . S
C341 C332 1.390 . S
C341 H334 0.950 . S
C341 C338 1.387 . S
C342 C343 1.387 . S
C342 H346 0.950 . S
C342 C351 1.390 . S
C343 C342 1.387 . S
C343 C345 1.387 . S
H344 C351 0.950 . S
C345 C343 1.387 . S
C345 C347 1.390 . S
C345 H349 0.950 . S
H346 C342 0.950 . S
C347 C345 1.390 . S
C347 C348 1.387 . S
C347 H350 0.950 . S
C348 C347 1.387 . S
C348 C351 1.387 . S
H349 C345 0.950 . S
H350 C347 0.950 . S
C351 C342 1.390 . S
C351 H344 0.950 . S
C351 C348 1.387 . S
C352 C353 1.387 . S
C352 H356 0.950 . S
C352 C361 1.390 . S
C353 C352 1.387 . S
C353 C355 1.387 . S
H354 C361 0.950 . S
C355 C353 1.387 . S
C355 C357 1.390 . S
C355 H359 0.950 . S
H356 C352 0.950 . S
C357 C355 1.390 . S
C357 C358 1.387 . S
C357 H360 0.950 . S
C358 C357 1.387 . S
C358 C361 1.387 . S
H359 C355 0.950 . S
H360 C357 0.950 . S
C361 C352 1.390 . S
C361 H354 0.950 . S
C361 C358 1.387 . S
C362 C363 1.387 . S
C362 H366 0.950 . S
C362 C371 1.390 . S
C363 C362 1.387 . S
C363 C365 1.387 . S
H364 C371 0.950 . S
C365 C363 1.387 . S
C365 C367 1.390 . S
C365 H369 0.950 . S
H366 C362 0.950 . S
C367 C365 1.390 . S
C367 C368 1.387 . S
C367 H370 0.950 . S
C368 C367 1.387 . S
C368 C371 1.387 . S
H369 C365 0.950 . S
H370 C367 0.950 . S
C371 C362 1.390 . S
C371 H364 0.950 . S
C371 C368 1.387 . S
C372 C373 1.387 . S
C372 H376 0.950 . S
C372 C381 1.390 . S
C373 C372 1.387 . S
C373 C375 1.387 . S
H374 C381 0.950 . S
C375 C373 1.387 . S
C375 C377 1.390 . S
C375 H379 0.950 . S
H376 C372 0.950 . S
C377 C375 1.390 . S
C377 C378 1.387 . S
C377 H380 0.950 . S
C378 C377 1.387 . S
C378 C381 1.387 . S
H379 C375 0.950 . S
H380 C377 0.950 . S
C381 C372 1.390 . S
C381 H374 0.950 . S
C381 C378 1.387 . S
C382 C383 1.387 . S
C382 H386 0.950 . S
C382 C391 1.390 . S
C383 C382 1.387 . S
C383 C385 1.387 . S
H384 C391 0.950 . S
C385 C383 1.387 . S
C385 C387 1.390 . S
C385 H389 0.950 . S
H386 C382 0.950 . S
C387 C385 1.390 . S
C387 C388 1.387 . S
C387 H390 0.950 . S
C388 C387 1.387 . S
C388 C391 1.387 . S
H389 C385 0.950 . S
H390 C387 0.950 . S
C391 C382 1.390 . S
C391 H384 0.950 . S
C391 C388 1.387 . S
C392 C393 1.387 . S
C392 H396 0.950 . S
C392 C401 1.390 . S
C393 C392 1.387 . S
C393 C395 1.387 . S
H394 C401 0.950 . S
C395 C393 1.387 . S
C395 C397 1.390 . S
C395 H399 0.950 . S
H396 C392 0.950 . S
C397 C395 1.390 . S
C397 C398 1.387 . S
C397 H400 0.950 . S
C398 C397 1.387 . S
C398 C401 1.387 . S
H399 C395 0.950 . S
H400 C397 0.950 . S
C401 C392 1.390 . S
C401 H394 0.950 . S
C401 C398 1.387 . S
C402 C403 1.387 . S
C402 H406 0.950 . S
C402 C411 1.390 . S
C403 C402 1.387 . S
C403 C405 1.387 . S
H404 C411 0.950 . S
C405 C403 1.387 . S
C405 C407 1.390 . S
C405 H409 0.950 . S
H406 C402 0.950 . S
C407 C405 1.390 . S
C407 C408 1.387 . S
C407 H410 0.950 . S
C408 C407 1.387 . S
C408 C411 1.387 . S
H409 C405 0.950 . S
H410 C407 0.950 . S
C411 C402 1.390 . S
C411 H404 0.950 . S
C411 C408 1.387 . S
C412 C413 1.387 . S
C412 H416 0.950 . S
C412 C421 1.390 . S
C413 C412 1.387 . S
C413 C415 1.387 . S
H414 C421 0.950 . S
C415 C413 1.387 . S
C415 C417 1.390 . S
C415 H419 0.950 . S
H416 C412 0.950 . S
C417 C415 1.390 . S
C417 C418 1.387 . S
C417 H420 0.950 . S
C418 C417 1.387 . S
C418 C421 1.387 . S
H419 C415 0.950 . S
H420 C417 0.950 . S
C421 C412 1.390 . S
C421 H414 0.950 . S
C421 C418 1.387 . S
C422 C423 1.387 . S
C422 H426 0.950 . S
C422 C431 1.390 . S
C423 C422 1.387 . S
C423 C425 1.387 . S
H424 C431 0.950 . S
C425 C423 1.387 . S
C425 C427 1.390 . S
C425 H429 0.950 . S
H426 C422 0.950 . S
C427 C425 1.390 . S
C427 C428 1.387 . S
C427 H430 0.950 . S
C428 C427 1.387 . S
C428 C431 1.387 . S
H429 C425 0.950 . S
H430 C427 0.950 . S
C431 C422 1.390 . S
C431 H424 0.950 . S
C431 C428 1.387 . S
C432 C433 1.387 . S
C432 H436 0.950 . S
C432 C441 1.390 . S
C433 C432 1.387 . S
C433 C435 1.387 . S
H434 C441 0.950 . S
C435 C433 1.387 . S
C435 C437 1.390 . S
C435 H439 0.950 . S
H436 C432 0.950 . S
C437 C435 1.390 . S
C437 C438 1.387 . S
C437 H440 0.950 . S
C438 C437 1.387 . S
C438 C441 1.387 . S
H439 C435 0.950 . S
H440 C437 0.950 . S
C441 C432 1.390 . S
C441 H434 0.950 . S
C441 C438 1.387 . S
C442 C443 1.387 . S
C442 H446 0.950 . S
C442 C451 1.390 . S
C443 C442 1.387 . S
C443 C445 1.387 . S
H444 C451 0.950 . S
C445 C443 1.387 . S
C445 C447 1.390 . S
C445 H449 0.950 . S
H446 C442 0.950 . S
C447 C445 1.390 . S
C447 C448 1.387 . S
C447 H450 0.950 . S
C448 C447 1.387 . S
C448 C451 1.387 . S
H449 C445 0.950 . S
H450 C447 0.950 . S
C451 C442 1.390 . S
C451 H444 0.950 . S
C451 C448 1.387 . S
C452 C453 1.387 . S
C452 H456 0.950 . S
C452 C461 1.390 . S
C453 C452 1.387 . S
C453 C455 1.387 . S
H454 C461 0.950 . S
C455 C453 1.387 . S
C455 C457 1.390 . S
C455 H459 0.950 . S
H456 C452 0.950 . S
C457 C455 1.390 . S
C457 C458 1.387 . S
C457 H460 0.950 . S
C458 C457 1.387 . S
C458 C461 1.387 . S
H459 C455 0.950 . S
H460 C457 0.950 . S
C461 C452 1.390 . S
C461 H454 0.950 . S
C461 C458 1.387 . S
C462 C463 1.387 . S
C462 H466 0.950 . S
C462 C471 1.390 . S
C463 C462 1.387 . S
C463 C465 1.387 . S
H464 C471 0.950 . S
C465 C463 1.387 . S
C465 C467 1.390 . S
C465 H469 0.950 . S
H466 C462 0.950 . S
C467 C465 1.390 . S
C467 C468 1.387 . S
C467 H470 0.950 . S
C468 C467 1.387 . S
C468 C471 1.387 . S
H469 C465 0.950 . S
H470 C467 0.950 . S
C471 C462 1.390 . S
C471 H464 0.950 . S
C471 C468 1.387 . S
C233 C5 1.015 . S
C238 C78 1.031 . S
C243 C14 0.994 . S
C248 C127 1.001 . S
C258 C162 2.520 . S
C253 C25 2.599 . S
C263 C34 2.552 . S
C268 C201 2.500 . S
C278 C122 2.005 . S
C273 C7 1.845 . S
C288 C81 0.711 . S
C283 C13 0.702 . S
C298 C211 1.940 . S
C293 C23 2.015 . S
C308 C170 1.810 . S
C303 C31 1.834 . S
C313 C4 1.377 . S
C318 C198 1.435 . S
C328 C130 2.355 . S
C323 C22 2.463 . S
C333 C32 2.397 . S
C338 C91 2.381 . S
C343 C16 1.069 . S
C348 C167 1.098 . S
C358 C87 1.024 . S
C353 C41 1.007 . S
C363 C50 1.003 . S
C368 C118 1.005 . S
C373 C61 2.592 . S
C378 C171 2.515 . S
C383 C67 2.560 . S
C388 C210 2.509 . S
C393 C40 1.863 . S
C398 C131 2.019 . S
C408 C90 0.688 . S
C403 C52 0.683 . S
C418 C202 1.945 . S
C413 C59 2.023 . S
C428 C161 1.810 . S
C423 C70 1.829 . S
C433 C43 1.364 . S
C438 C207 1.429 . S
C448 C121 2.365 . S
C443 C58 2.474 . S
C458 C82 2.365 . S
C453 C68 2.379 . S
C463 C49 1.078 . S
C468 C158 1.102 . S
