# Generated by pormake.
# Topology cml, (3,6)-cn, num edge types: 1
# Building blocks:
#     Node 0, Type 0, BuildingBlock: BETDIP_clean_linker_0, # of connection points: 3
#     Node 1, Type 0, BuildingBlock: BETDIP_clean_linker_0, # of connection points: 3
#     Node 2, Type 0, BuildingBlock: BETDIP_clean_linker_0, # of connection points: 3
#     Node 3, Type 0, BuildingBlock: BETDIP_clean_linker_0, # of connection points: 3
#     Node 4, Type 0, BuildingBlock: BETDIP_clean_linker_0, # of connection points: 3
#     Node 5, Type 0, BuildingBlock: BETDIP_clean_linker_0, # of connection points: 3
#     Node 6, Type 0, BuildingBlock: BETDIP_clean_linker_0, # of connection points: 3
#     Node 7, Type 0, BuildingBlock: BETDIP_clean_linker_0, # of connection points: 3
#     Node 8, Type 1, BuildingBlock: IZENUY_clean_sbu_0, # of connection points: 6
#     Node 9, Type 1, BuildingBlock: IZENUY_clean_sbu_0, # of connection points: 6
#     Node 10, Type 1, BuildingBlock: IZENUY_clean_sbu_0, # of connection points: 6
#     Node 11, Type 1, BuildingBlock: IZENUY_clean_sbu_0, # of connection points: 6
#     Edge 12, Type (0, 1), BuildingBlock: EZIPEK_clean_linker_0, # of connection points: 2
#     Edge 13, Type (0, 1), BuildingBlock: EZIPEK_clean_linker_0, # of connection points: 2
#     Edge 14, Type (0, 1), BuildingBlock: EZIPEK_clean_linker_0, # of connection points: 2
#     Edge 15, Type (0, 1), BuildingBlock: EZIPEK_clean_linker_0, # of connection points: 2
#     Edge 16, Type (0, 1), BuildingBlock: EZIPEK_clean_linker_0, # of connection points: 2
#     Edge 17, Type (0, 1), BuildingBlock: EZIPEK_clean_linker_0, # of connection points: 2
#     Edge 18, Type (0, 1), BuildingBlock: EZIPEK_clean_linker_0, # of connection points: 2
#     Edge 19, Type (0, 1), BuildingBlock: EZIPEK_clean_linker_0, # of connection points: 2
#     Edge 20, Type (0, 1), BuildingBlock: EZIPEK_clean_linker_0, # of connection points: 2
#     Edge 21, Type (0, 1), BuildingBlock: EZIPEK_clean_linker_0, # of connection points: 2
#     Edge 22, Type (0, 1), BuildingBlock: EZIPEK_clean_linker_0, # of connection points: 2
#     Edge 23, Type (0, 1), BuildingBlock: EZIPEK_clean_linker_0, # of connection points: 2
#     Edge 24, Type (0, 1), BuildingBlock: EZIPEK_clean_linker_0, # of connection points: 2
#     Edge 25, Type (0, 1), BuildingBlock: EZIPEK_clean_linker_0, # of connection points: 2
#     Edge 26, Type (0, 1), BuildingBlock: EZIPEK_clean_linker_0, # of connection points: 2
#     Edge 27, Type (0, 1), BuildingBlock: EZIPEK_clean_linker_0, # of connection points: 2
#     Edge 28, Type (0, 1), BuildingBlock: EZIPEK_clean_linker_0, # of connection points: 2
#     Edge 29, Type (0, 1), BuildingBlock: EZIPEK_clean_linker_0, # of connection points: 2
#     Edge 30, Type (0, 1), BuildingBlock: EZIPEK_clean_linker_0, # of connection points: 2
#     Edge 31, Type (0, 1), BuildingBlock: EZIPEK_clean_linker_0, # of connection points: 2
#     Edge 32, Type (0, 1), BuildingBlock: EZIPEK_clean_linker_0, # of connection points: 2
#     Edge 33, Type (0, 1), BuildingBlock: EZIPEK_clean_linker_0, # of connection points: 2
#     Edge 34, Type (0, 1), BuildingBlock: EZIPEK_clean_linker_0, # of connection points: 2
#     Edge 35, Type (0, 1), BuildingBlock: EZIPEK_clean_linker_0, # of connection points: 2
# Relax obj value: 0.003
# Max RMSD: 0.063
# Mean RMSD: 0.051
data_MOF--net-cml--node1-IZENUY_clean_sbu_0--node2-BETDIP_clean_linker_0--edge1-EZIPEK_clean_linker_0
_symmetry_space_group_name_H-M    P1
_symmetry_Int_Tables_number       1
_symmetry_cell_setting            triclinic
loop_
_symmetry_equiv_pos_as_xyz
'x, y, z'
_cell_length_a     27.38372
_cell_length_b     29.781169
_cell_length_c     26.642045
_cell_angle_alpha  90.081941
_cell_angle_beta   90.113744
_cell_angle_gamma 89.703518
loop_
_atom_site_label
_atom_site_type_symbol
_atom_site_fract_x
_atom_site_fract_y
_atom_site_fract_z
_atom_type_partial_charge
H0 H 0.277 0.35397 0.08215 0.0
H1 H 0.28108 0.41826 0.93883 0.0
H2 H 0.37627 0.46298 0.05463 0.0
H3 H 0.24247 0.35822 0.91222 0.0
C4 C 0.22485 0.3416 0.94342 0.0
C5 C 0.29015 0.38148 0.05993 0.0
C6 C 0.32309 0.41359 0.07954 0.0
C7 C 0.27457 0.38262 0.00968 0.0
C8 C 0.29326 0.41558 0.97731 0.0
C9 C 0.3302 0.44424 0.99413 0.0
C10 C 0.34569 0.44212 0.04416 0.0
N11 N 0.24027 0.34974 0.99365 0.0
H12 H 0.741 0.67402 0.57887 0.0
H13 H 0.73799 0.60731 0.43659 0.0
H14 H 0.64388 0.56292 0.55238 0.0
H15 H 0.79763 0.65003 0.41657 0.0
C16 C 0.80104 0.67807 0.44223 0.0
C17 C 0.72855 0.64587 0.55709 0.0
C18 C 0.69602 0.61354 0.57694 0.0
C19 C 0.74487 0.64381 0.50712 0.0
C20 C 0.7266 0.61011 0.47523 0.0
C21 C 0.69006 0.58127 0.49209 0.0
C22 C 0.67414 0.58408 0.54185 0.0
N23 N 0.77855 0.67696 0.49035 0.0
H24 H 0.74365 0.34502 0.08251 0.0
H25 H 0.74961 0.42735 0.94981 0.0
H26 H 0.63165 0.44326 0.055 0.0
H27 H 0.77553 0.35553 0.91754 0.0
C28 C 0.80139 0.34582 0.94659 0.0
C29 C 0.72841 0.37144 0.05923 0.0
C30 C 0.68565 0.39364 0.07412 0.0
C31 C 0.75045 0.38199 0.01338 0.0
C32 C 0.73136 0.41736 0.98402 0.0
C33 C 0.68829 0.43973 0.99885 0.0
C34 C 0.6652 0.42673 0.04342 0.0
N35 N 0.7912 0.35598 0.99759 0.0
H36 H 0.27357 0.67698 0.58147 0.0
H37 H 0.27811 0.60191 0.44264 0.0
H38 H 0.37719 0.56982 0.56236 0.0
H39 H 0.23559 0.65893 0.41186 0.0
C40 C 0.21678 0.67637 0.44193 0.0
C41 C 0.28813 0.64968 0.55899 0.0
C42 C 0.32705 0.6238 0.5775 0.0
C43 C 0.27008 0.64253 0.5103 0.0
C44 C 0.29066 0.60795 0.48052 0.0
C45 C 0.329 0.58132 0.4996 0.0
C46 C 0.34638 0.58914 0.54827 0.0
N47 N 0.23277 0.67199 0.49252 0.0
H48 H 0.78695 0.85012 0.08095 0.0
H49 H 0.77978 0.9145 0.93817 0.0
H50 H 0.87474 0.96667 0.05069 0.0
H51 H 0.6945 0.88964 0.95435 0.0
C52 C 0.70375 0.85499 0.96304 0.0
C53 C 0.79652 0.87887 0.05864 0.0
C54 C 0.82688 0.91351 0.07744 0.0
C55 C 0.77792 0.88011 0.00952 0.0
C56 C 0.79298 0.91392 0.97653 0.0
C57 C 0.82816 0.94487 0.99197 0.0
C58 C 0.84542 0.94394 0.04148 0.0
N59 N 0.74531 0.84601 0.99354 0.0
H60 H 0.24681 0.16865 0.58705 0.0
H61 H 0.2525 0.09539 0.44717 0.0
H62 H 0.14578 0.06177 0.55818 0.0
H63 H 0.28592 0.15712 0.418 0.0
C64 C 0.30224 0.17612 0.44839 0.0
C65 C 0.23421 0.14157 0.56316 0.0
C66 C 0.19526 0.11469 0.5788 0.0
C67 C 0.25463 0.1358 0.51535 0.0
C68 C 0.23713 0.10112 0.48398 0.0
C69 C 0.19761 0.0746 0.49935 0.0
C70 C 0.17723 0.0813 0.54686 0.0
N71 N 0.29044 0.16711 0.49931 0.0
H72 H 0.24281 0.84576 0.07891 0.0
H73 H 0.23831 0.9157 0.93721 0.0
H74 H 0.13802 0.95137 0.05458 0.0
H75 H 0.26472 0.84498 0.91036 0.0
C76 C 0.29211 0.83698 0.93853 0.0
C77 C 0.22787 0.87203 0.05522 0.0
C78 C 0.18888 0.89849 0.0726 0.0
C79 C 0.24586 0.87763 0.00635 0.0
C80 C 0.22512 0.91089 0.97509 0.0
C81 C 0.18654 0.93785 0.99274 0.0
C82 C 0.16897 0.9317 0.04156 0.0
N83 N 0.28397 0.8487 0.98958 0.0
H84 H 0.77531 0.18622 0.57866 0.0
H85 H 0.77913 0.1025 0.44682 0.0
H86 H 0.89201 0.09097 0.55892 0.0
H87 H 0.75079 0.17217 0.41184 0.0
C88 C 0.72368 0.1817 0.43965 0.0
C89 C 0.79286 0.16021 0.55652 0.0
C90 C 0.83563 0.1396 0.57422 0.0
C91 C 0.77361 0.14858 0.50955 0.0
C92 C 0.79537 0.11343 0.48184 0.0
C93 C 0.83826 0.09227 0.49942 0.0
C94 C 0.85873 0.10659 0.54511 0.0
N95 N 0.73256 0.17299 0.49129 0.0
Fe96 Fe 0.0076 0.83326 0.30636 0.0
Fe97 Fe 0.00948 0.87911 0.41009 0.0
O98 O 0.01016 0.8826 0.34366 0.0
Fe99 Fe 0.01274 0.93594 0.31442 0.0
O100 O 0.95453 0.92688 0.28398 0.0
O101 O 0.97119 0.85927 0.2553 0.0
O102 O 0.95034 0.81602 0.33413 0.0
C103 C 0.94324 0.81053 0.38037 0.0
C104 C 0.07236 0.88142 0.25129 0.0
O105 O 0.97062 0.82883 0.41275 0.0
C106 C 0.07726 0.94963 0.39024 0.0
O107 O 0.04356 0.79893 0.35039 0.0
O108 O 0.06483 0.84532 0.41114 0.0
O109 O 0.04684 0.91635 0.25882 0.0
O110 O 0.0649 0.84615 0.2759 0.0
C111 C 0.95044 0.95229 0.39797 0.0
O112 O 0.04874 0.92886 0.41964 0.0
O113 O 0.07099 0.94838 0.34339 0.0
C114 C 0.07106 0.80941 0.38677 0.0
O115 O 0.95368 0.91245 0.41353 0.0
O116 O 0.97926 0.96598 0.3643 0.0
C117 C 0.94579 0.89504 0.25417 0.0
Fe118 Fe 0.00818 0.14268 0.91154 0.0
Fe119 Fe 1.00436 0.09427 0.80971 0.0
O120 O 0.00953 0.14453 0.845 0.0
Fe121 Fe 0.01545 0.19704 0.81401 0.0
O122 O 0.07375 0.20757 0.84414 0.0
O123 O 0.04933 0.1908 0.91988 0.0
O124 O 0.06189 0.10694 0.91416 0.0
C125 C 0.06607 0.0697 0.89191 0.0
C126 C 0.95115 0.21653 0.8936 0.0
O127 O 0.03839 0.05954 0.85535 0.0
C128 C 0.94665 0.15716 0.75461 0.0
O129 O 0.96738 0.09386 0.91567 0.0
O130 O 0.94592 0.08098 0.8377 0.0
O131 O 0.9823 0.22943 0.86184 0.0
O132 O 0.95404 0.17815 0.91331 0.0
C133 C 0.07249 0.13785 0.7533 0.0
O134 O 0.96963 0.12022 0.75819 0.0
O135 O 0.95736 0.19026 0.78195 0.0
C136 C 0.93935 0.07551 0.88393 0.0
O137 O 0.06213 0.10337 0.77834 0.0
O138 O 0.04958 0.17444 0.76002 0.0
C139 C 0.08085 0.20783 0.89102 0.0
Fe140 Fe 0.50257 0.33066 0.30785 0.0
Fe141 Fe 0.51191 0.37796 0.41015 0.0
O142 O 0.50821 0.38063 0.3437 0.0
Fe143 Fe 0.50976 0.43325 0.31311 0.0
O144 O 0.4503 0.42424 0.28554 0.0
O145 O 0.4649 0.35621 0.25753 0.0
O146 O 0.44624 0.31611 0.3392 0.0
C147 C 0.44295 0.30971 0.38578 0.0
C148 C 0.56667 0.3767 0.24974 0.0
O149 O 0.47328 0.32739 0.41589 0.0
C150 C 0.57739 0.44904 0.38528 0.0
O151 O 0.53979 0.29631 0.35109 0.0
O152 O 0.56727 0.34438 0.40718 0.0
O153 O 0.54199 0.41219 0.25711 0.0
O154 O 0.55851 0.34147 0.27418 0.0
C155 C 0.45105 0.45036 0.3989 0.0
O156 O 0.55129 0.42784 0.41654 0.0
O157 O 0.56921 0.44622 0.33893 0.0
C158 C 0.57083 0.30757 0.38403 0.0
O159 O 0.45678 0.41173 0.41753 0.0
O160 O 0.47792 0.46381 0.36341 0.0
C161 C 0.44035 0.39242 0.25627 0.0
Fe162 Fe 0.51067 0.64649 0.90854 0.0
Fe163 Fe 0.51128 0.59013 0.81254 0.0
O164 O 0.51203 0.64324 0.84226 0.0
Fe165 Fe 0.51554 0.69306 0.8061 0.0
O166 O 0.57245 0.70908 0.83619 0.0
O167 O 0.54691 0.69831 0.91307 0.0
O168 O 0.56774 0.61534 0.91311 0.0
C169 C 0.57343 0.57592 0.8968 0.0
C170 C 0.44847 0.71467 0.8837 0.0
O171 O 0.54567 0.56109 0.86256 0.0
C172 C 0.45082 0.64465 0.75016 0.0
O173 O 0.47379 0.59519 0.91707 0.0
O174 O 0.45323 0.57556 0.84043 0.0
O175 O 0.47851 0.72678 0.85019 0.0
O176 O 0.4539 0.67812 0.90708 0.0
C177 C 0.57799 0.63254 0.75347 0.0
O178 O 0.47653 0.60971 0.75737 0.0
O179 O 0.45907 0.68056 0.77364 0.0
C180 C 0.44665 0.57347 0.88709 0.0
O181 O 0.56942 0.60057 0.78288 0.0
O182 O 0.55253 0.66815 0.75509 0.0
C183 C 0.57645 0.71616 0.88264 0.0
C184 C 0.14602 0.30129 0.96004 0.0
C185 C 0.19015 0.30446 0.93269 0.0
C186 C 0.16707 0.23781 0.88377 0.0
C187 C 0.12283 0.23467 0.9117 0.0
N188 N 0.08571 0.25091 0.99273 0.0
N189 N 0.24835 0.26958 0.87691 0.0
C190 C 0.11684 0.26238 0.95493 0.0
C191 C 0.20234 0.27098 0.89679 0.0
N192 N 0.13052 0.33619 0.98941 0.0
N193 N 0.17594 0.20832 0.84551 0.0
H194 H 0.27543 0.29262 0.88626 0.0
H195 H 0.26128 0.24347 0.85449 0.0
H196 H 0.15535 0.17939 0.84024 0.0
H197 H 0.2032 0.21268 0.81881 0.0
H198 H 0.09605 0.33702 0.00598 0.0
H199 H 0.14949 0.36634 0.99254 0.0
H200 H 0.08311 0.26923 0.026 0.0
H201 H 0.06869 0.21991 0.99519 0.0
C202 C 0.88485 0.69872 0.41385 0.0
C203 C 0.83785 0.71281 0.4297 0.0
C204 C 0.86146 0.79157 0.41772 0.0
C205 C 0.90657 0.77706 0.39687 0.0
N206 N 0.95775 0.71624 0.36713 0.0
N207 N 0.77823 0.77208 0.43953 0.0
C208 C 0.91722 0.73047 0.39253 0.0
C209 C 0.82531 0.75915 0.43016 0.0
N210 N 0.89945 0.6552 0.42111 0.0
N211 N 0.85299 0.83632 0.42531 0.0
H212 H 0.7505 0.7494 0.44769 0.0
H213 H 0.76556 0.80485 0.43502 0.0
H214 H 0.8772 0.86111 0.41377 0.0
H215 H 0.82349 0.84872 0.44576 0.0
H216 H 0.93518 0.64413 0.4156 0.0
H217 H 0.87723 0.63104 0.43765 0.0
H218 H 0.96429 0.68275 0.35787 0.0
H219 H 0.98289 0.73806 0.35135 0.0
C220 C 0.82626 0.27101 0.91122 0.0
C221 C 0.83967 0.31212 0.93437 0.0
C222 C 0.92521 0.28746 0.93711 0.0
C223 C 0.91246 0.2483 0.90975 0.0
N224 N 0.85239 0.20543 0.86419 0.0
N225 N 0.90225 0.36271 0.96316 0.0
C226 C 0.86335 0.24067 0.89513 0.0
C227 C 0.88925 0.32117 0.94591 0.0
N228 N 0.77802 0.26016 0.90634 0.0
N229 N 0.97149 0.29188 0.95572 0.0
H230 H 0.87701 0.3884 0.96965 0.0
H231 H 0.93832 0.37307 0.96704 0.0
H232 H 0.99872 0.26796 0.94961 0.0
H233 H 0.98185 0.31713 0.98056 0.0
H234 H 0.76599 0.22863 0.89495 0.0
H235 H 0.74971 0.28132 0.91791 0.0
H236 H 0.81837 0.20112 0.8474 0.0
H237 H 0.87841 0.18217 0.85203 0.0
C238 C 0.19223 0.74663 0.39577 0.0
C239 C 0.17955 0.71104 0.42875 0.0
C240 C 0.09571 0.7405 0.43486 0.0
C241 C 0.10889 0.77682 0.40326 0.0
N242 N 0.16968 0.81795 0.35746 0.0
N243 N 0.12078 0.67462 0.48215 0.0
C244 C 0.15721 0.78086 0.38479 0.0
C245 C 0.13176 0.70829 0.44921 0.0
N246 N 0.23776 0.74747 0.37469 0.0
N247 N 0.04822 0.73617 0.44987 0.0
H248 H 0.14432 0.64788 0.4898 0.0
H249 H 0.08907 0.67368 0.50355 0.0
H250 H 0.02156 0.76034 0.44252 0.0
H251 H 0.03425 0.7079 0.4675 0.0
H252 H 0.2478 0.76908 0.34592 0.0
H253 H 0.26551 0.72497 0.3843 0.0
H254 H 0.20521 0.82585 0.34715 0.0
H255 H 0.14459 0.84286 0.3474 0.0
C256 C 0.66253 0.779 0.97015 0.0
C257 C 0.67286 0.8183 0.94201 0.0
C258 C 0.61573 0.79289 0.87707 0.0
C259 C 0.61136 0.75066 0.90153 0.0
N260 N 0.64186 0.70041 0.96572 0.0
N261 N 0.66754 0.85689 0.86232 0.0
C262 C 0.63827 0.7427 0.94633 0.0
C263 C 0.65205 0.82347 0.89348 0.0
N264 N 0.6726 0.77704 0.02034 0.0
N265 N 0.5835 0.80545 0.84039 0.0
H266 H 0.69528 0.8792 0.87186 0.0
H267 H 0.65654 0.85917 0.82491 0.0
H268 H 0.5537 0.78613 0.82958 0.0
H269 H 0.58286 0.83765 0.82509 0.0
H270 H 0.66183 0.75027 0.04285 0.0
H271 H 0.68555 0.80435 0.04078 0.0
H272 H 0.66453 0.69254 0.99598 0.0
H273 H 0.62696 0.67247 0.948 0.0
C274 C 0.33265 0.25589 0.44896 0.0
C275 C 0.33953 0.21018 0.43548 0.0
C276 C 0.41319 0.2297 0.38841 0.0
C277 C 0.40815 0.27522 0.40432 0.0
N278 N 0.36741 0.33027 0.45633 0.0
N279 N 0.39066 0.15188 0.40104 0.0
C280 C 0.36939 0.2878 0.43696 0.0
C281 C 0.38095 0.19665 0.40753 0.0
N282 N 0.2897 0.26934 0.47052 0.0
N283 N 0.44852 0.21778 0.35468 0.0
H284 H 0.36797 0.12662 0.4146 0.0
H285 H 0.42328 0.13952 0.38638 0.0
H286 H 0.47545 0.23948 0.34225 0.0
H287 H 0.44949 0.18683 0.33646 0.0
H288 H 0.28007 0.30286 0.47598 0.0
H289 H 0.2615 0.24725 0.47899 0.0
H290 H 0.34349 0.33992 0.48474 0.0
H291 H 0.39206 0.35525 0.44667 0.0
C292 C 0.32109 0.76368 0.90222 0.0
C293 C 0.33229 0.80545 0.92517 0.0
C294 C 0.41944 0.78577 0.92512 0.0
C295 C 0.40854 0.74573 0.89846 0.0
N296 N 0.35037 0.69982 0.85416 0.0
N297 N 0.39227 0.85993 0.9508 0.0
C298 C 0.3597 0.73553 0.88498 0.0
C299 C 0.38152 0.81747 0.93474 0.0
N300 N 0.27359 0.75005 0.89871 0.0
N301 N 0.4658 0.79297 0.94238 0.0
H302 H 0.36561 0.88431 0.95758 0.0
H303 H 0.42767 0.87234 0.95316 0.0
H304 H 0.49463 0.77083 0.9356 0.0
H305 H 0.47493 0.81893 0.96681 0.0
H306 H 0.26346 0.7179 0.88752 0.0
H307 H 0.24425 0.76949 0.91123 0.0
H308 H 0.31628 0.69354 0.83834 0.0
H309 H 0.3777 0.67834 0.841 0.0
C310 C 0.63486 0.20303 0.43473 0.0
C311 C 0.68437 0.21375 0.42507 0.0
C312 C 0.65891 0.28425 0.38486 0.0
C313 C 0.60984 0.27533 0.39839 0.0
N314 N 0.55134 0.22964 0.44225 0.0
N315 N 0.74466 0.26732 0.39809 0.0
C316 C 0.59783 0.2356 0.42496 0.0
C317 C 0.69675 0.25507 0.4019 0.0
N318 N 0.62305 0.16105 0.45136 0.0
N319 N 0.66918 0.31984 0.35431 0.0
H320 H 0.77348 0.24703 0.41027 0.0
H321 H 0.7558 0.29912 0.38682 0.0
H322 H 0.64249 0.34215 0.34146 0.0
H323 H 0.70334 0.32527 0.33842 0.0
H324 H 0.58735 0.14944 0.45384 0.0
H325 H 0.64914 0.13625 0.45864 0.0
H326 H 0.54144 0.2039 0.46653 0.0
H327 H 0.52321 0.25258 0.43567 0.0
C328 C 0.39102 0.46141 0.92638 0.0
C329 C 0.3542 0.47676 0.95972 0.0
C330 C 0.37113 0.55488 0.93591 0.0
C331 C 0.41196 0.53992 0.90768 0.0
N332 N 0.46247 0.47899 0.877 0.0
N333 N 0.30858 0.53746 0.99727 0.0
C334 C 0.42188 0.49315 0.90244 0.0
C335 C 0.34384 0.52337 0.96447 0.0
N336 N 0.39671 0.41638 0.91782 0.0
N337 N 0.35772 0.59913 0.93412 0.0
H338 H 0.28569 0.51532 0.0162 0.0
H339 H 0.3033 0.57085 0.00758 0.0
H340 H 0.37672 0.62276 0.91309 0.0
H341 H 0.3257 0.61187 0.94971 0.0
H342 H 0.41842 0.40313 0.88935 0.0
H343 H 0.37703 0.39187 0.93681 0.0
H344 H 0.47593 0.44626 0.87817 0.0
H345 H 0.48469 0.50033 0.85651 0.0
C346 C 0.67723 0.50125 0.46481 0.0
C347 C 0.66727 0.54771 0.45782 0.0
C348 C 0.60395 0.52972 0.39567 0.0
C349 C 0.61252 0.48307 0.4043 0.0
N350 N 0.66446 0.42452 0.43659 0.0
N351 N 0.62783 0.60693 0.41094 0.0
C352 C 0.6514 0.46891 0.43581 0.0
C353 C 0.63305 0.56212 0.42107 0.0
N354 N 0.71081 0.48814 0.5 0.0
N355 N 0.56586 0.54329 0.36592 0.0
H356 H 0.64499 0.63207 0.43157 0.0
H357 H 0.60886 0.61948 0.38008 0.0
H358 H 0.54444 0.52152 0.34494 0.0
H359 H 0.55299 0.57617 0.36411 0.0
H360 H 0.71545 0.45512 0.51186 0.0
H361 H 0.73307 0.51078 0.51914 0.0
H362 H 0.69515 0.41202 0.45504 0.0
H363 H 0.64683 0.40039 0.41481 0.0
C364 C 0.65227 0.47218 0.91862 0.0
C365 C 0.66674 0.47761 0.9694 0.0
C366 C 0.61937 0.54727 0.97388 0.0
C367 C 0.60891 0.54449 0.92152 0.0
N368 N 0.63238 0.51116 0.84199 0.0
N369 N 0.67817 0.52907 0.03851 0.0
C370 C 0.63071 0.50912 0.89312 0.0
C371 C 0.65531 0.51831 0.99455 0.0
N372 N 0.65642 0.43154 0.89518 0.0
N373 N 0.59271 0.57421 0.0052 0.0
H374 H 0.70586 0.50915 0.05391 0.0
H375 H 0.67338 0.56007 0.05615 0.0
H376 H 0.56149 0.59165 0.99422 0.0
H377 H 0.59758 0.57406 0.04404 0.0
H378 H 0.64196 0.42555 0.85957 0.0
H379 H 0.6695 0.40276 0.91296 0.0
H380 H 0.65099 0.48745 0.82032 0.0
H381 H 0.62116 0.53938 0.82199 0.0
C382 C 0.33717 0.50685 0.45395 0.0
C383 C 0.3567 0.5493 0.46738 0.0
C384 C 0.43789 0.5243 0.4418 0.0
C385 C 0.41814 0.48336 0.42383 0.0
N386 N 0.34713 0.43898 0.40424 0.0
N387 N 0.42261 0.60238 0.46083 0.0
C388 C 0.36713 0.4755 0.42739 0.0
C389 C 0.40606 0.55931 0.45667 0.0
N390 N 0.29082 0.49589 0.46802 0.0
N391 N 0.48708 0.52878 0.44814 0.0
H392 H 0.39994 0.6292 0.47087 0.0
H393 H 0.45731 0.61204 0.44914 0.0
H394 H 0.51134 0.50239 0.44207 0.0
H395 H 0.503 0.55656 0.46534 0.0
H396 H 0.27653 0.46372 0.46414 0.0
H397 H 0.26779 0.51825 0.48681 0.0
H398 H 0.30963 0.43381 0.40152 0.0
H399 H 0.3679 0.41577 0.38399 0.0
C400 C 0.83699 0.0239 0.96101 0.0
C401 C 0.84922 0.97779 0.95618 0.0
C402 C 0.90863 0.99602 0.89065 0.0
C403 C 0.90273 0.04248 0.90199 0.0
N404 N 0.85957 0.10138 0.94561 0.0
N405 N 0.89929 0.91952 0.91966 0.0
C406 C 0.86605 0.05662 0.93627 0.0
C407 C 0.88511 0.96361 0.92123 0.0
N408 N 0.7972 0.03615 0.98887 0.0
N409 N 0.93732 0.98248 0.85145 0.0
H410 H 0.88287 0.89451 0.94103 0.0
H411 H 0.92987 0.90814 0.90015 0.0
H412 H 0.95777 1.00419 0.82949 0.0
H413 H 0.938 0.94961 0.83805 0.0
H414 H 0.78343 0.06874 0.99062 0.0
H415 H 0.77526 1.01278 0.00717 0.0
H416 H 0.83809 0.11403 0.97459 0.0
H417 H 0.87716 0.12618 0.92497 0.0
C418 C 0.18059 0.99567 0.47068 0.0
C419 C 0.17345 0.04257 0.46448 0.0
C420 C 0.10628 0.02873 0.40548 0.0
C421 C 0.11324 0.98165 0.41172 0.0
N422 N 0.16323 0.92028 0.44091 0.0
N423 N 0.13634 0.10416 0.41945 0.0
C424 C 0.15236 0.96512 0.44157 0.0
C425 C 0.13869 0.05915 0.42949 0.0
N426 N 0.21353 0.98047 0.50542 0.0
N427 N 0.06688 0.04464 0.37923 0.0
H428 H 0.15723 0.12801 0.43828 0.0
H429 H 0.11637 0.11778 0.38982 0.0
H430 H 0.0432 0.02425 0.35912 0.0
H431 H 0.05559 0.07807 0.37971 0.0
H432 H 0.2164 0.94705 0.51645 0.0
H433 H 0.23671 1.00187 0.52522 0.0
H434 H 0.194 0.90632 0.45789 0.0
H435 H 0.1436 0.8973 0.41944 0.0
C436 C 0.11233 0.95791 0.94344 0.0
C437 C 0.15999 0.96948 0.95919 0.0
C438 C 0.14924 0.04447 0.92256 0.0
C439 C 0.09909 0.03487 0.91372 0.0
N440 N 0.03089 0.98521 0.92774 0.0
N441 N 0.22337 0.02475 0.96783 0.0
C442 C 0.08012 0.99213 0.92685 0.0
C443 C 0.17857 0.01298 0.94954 0.0
N444 N 0.09766 0.91413 0.94485 0.0
N445 N 0.16905 0.08317 0.90437 0.0
H446 H 0.24621 1.00217 0.98659 0.0
H447 H 0.23654 0.05748 0.96723 0.0
H448 H 0.1487 0.10707 0.88479 0.0
H449 H 0.20633 0.08986 0.90501 0.0
H450 H 0.06479 0.90323 0.92941 0.0
H451 H 0.12056 0.8881 0.95674 0.0
H452 H 0.01498 0.95604 0.94157 0.0
H453 H 1.00576 1.01069 0.92078 0.0
C454 C 0.87298 0.01371 0.49679 0.0
C455 C 0.86185 0.05434 0.47132 0.0
C456 C 0.89644 0.02148 0.39486 0.0
C457 C 0.91695 0.9854 0.42308 0.0
N458 N 0.9337 0.95578 0.50652 0.0
N459 N 0.87333 0.09979 0.39704 0.0
C460 C 0.9075 0.9835 0.47563 0.0
C461 C 0.8763 0.05912 0.42048 0.0
N462 N 0.85049 1.00364 0.54104 0.0
N463 N 0.8945 0.01948 0.34371 0.0
H464 H 0.86165 0.129 0.41506 0.0
H465 H 0.88766 0.10531 0.36136 0.0
H466 H 0.90486 0.99103 0.32356 0.0
H467 H 0.87659 0.04368 0.3221 0.0
H468 H 0.85491 0.9727 0.55881 0.0
H469 H 0.82328 0.02396 0.5566 0.0
H470 H 0.92992 0.95649 0.54546 0.0
H471 H 0.9636 0.93684 0.49478 0.0
C472 C 0.32939 0.38024 0.16934 0.0
C473 C 0.33915 0.41496 0.13445 0.0
C474 C 0.40619 0.44092 0.18708 0.0
C475 C 0.40399 0.40053 0.21556 0.0
N476 N 0.35978 0.33282 0.23627 0.0
N477 N 0.35851 0.4935 0.13843 0.0
C478 C 0.36452 0.37036 0.20741 0.0
C479 C 0.36888 0.45032 0.15193 0.0
N480 N 0.28327 0.36356 0.1728 0.0
N481 N 0.4453 0.46906 0.19046 0.0
H482 H 0.32791 0.50135 0.11659 0.0
H483 H 0.37657 0.52107 0.15376 0.0
H484 H 0.47599 0.46238 0.21234 0.0
H485 H 0.44948 0.49666 0.16681 0.0
H486 H 0.27252 0.34075 0.20019 0.0
H487 H 0.25416 0.3787 0.15379 0.0
H488 H 0.33519 0.3073 0.22772 0.0
H489 H 0.38174 0.32624 0.26737 0.0
C490 C 0.65137 0.57628 0.6495 0.0
C491 C 0.67973 0.61243 0.63174 0.0
C492 C 0.65255 0.65695 0.70412 0.0
C493 C 0.61441 0.62546 0.71264 0.0
N494 N 0.57574 0.55543 0.68802 0.0
N495 N 0.73344 0.66614 0.66976 0.0
C496 C 0.61376 0.58477 0.68449 0.0
C497 C 0.68803 0.64787 0.66626 0.0
N498 N 0.66334 0.53332 0.6364 0.0
N499 N 0.6558 0.69502 0.73248 0.0
H500 H 0.76321 0.65156 0.65138 0.0
H501 H 0.74323 0.68969 0.69687 0.0
H502 H 0.63378 0.70121 0.76353 0.0
H503 H 0.67919 0.72132 0.72353 0.0
H504 H 0.64636 0.50533 0.65193 0.0
H505 H 0.69418 0.52622 0.61471 0.0
H506 H 0.57261 0.52746 0.66464 0.0
H507 H 0.54477 0.56144 0.70965 0.0
C508 C 0.67273 0.40757 0.16586 0.0
C509 C 0.66118 0.38276 0.122 0.0
C510 C 0.58984 0.35046 0.16332 0.0
C511 C 0.60148 0.37515 0.20741 0.0
N512 N 0.66002 0.41764 0.25521 0.0
N513 N 0.61631 0.32344 0.08175 0.0
C514 C 0.64487 0.40081 0.21008 0.0
C515 C 0.62222 0.3517 0.12178 0.0
N516 N 0.7092 0.43873 0.16463 0.0
N517 N 0.54664 0.32782 0.16007 0.0
H518 H 0.63905 0.32409 0.05038 0.0
H519 H 0.59177 0.29686 0.08137 0.0
H520 H 0.52228 0.32514 0.18983 0.0
H521 H 0.53325 0.31407 0.12687 0.0
H522 H 0.71542 0.46181 0.19331 0.0
H523 H 0.73166 0.44331 0.13348 0.0
H524 H 0.69364 0.43308 0.26067 0.0
H525 H 0.64097 0.41221 0.28846 0.0
C526 C 0.34203 0.61197 0.66959 0.0
C527 C 0.35245 0.63574 0.62485 0.0
C528 C 0.42521 0.6686 0.66364 0.0
C529 C 0.4148 0.64491 0.70859 0.0
N530 N 0.35816 0.6026 0.7586 0.0
N531 N 0.39731 0.69345 0.58178 0.0
C532 C 0.37154 0.61917 0.71286 0.0
C533 C 0.39179 0.66646 0.62287 0.0
N534 N 0.30487 0.58151 0.67009 0.0
N535 N 0.46837 0.69106 0.65878 0.0
H536 H 0.3746 0.69179 0.55038 0.0
H537 H 0.42179 0.72003 0.58028 0.0
H538 H 0.49339 0.6946 0.68792 0.0
H539 H 0.48113 0.70378 0.62491 0.0
H540 H 0.29898 0.55905 0.69934 0.0
H541 H 0.28118 0.57709 0.63977 0.0
H542 H 0.32483 0.58716 0.76544 0.0
H543 H 0.37867 0.60792 0.79104 0.0
C544 C 0.874 0.95125 0.14882 0.0
C545 C 0.84444 0.91548 0.13188 0.0
C546 C 0.8701 0.87206 0.20562 0.0
C547 C 0.90944 0.90248 0.21326 0.0
N548 N 0.95003 0.97114 0.18761 0.0
N549 N 0.78895 0.86419 0.17102 0.0
C550 C 0.91136 0.9425 0.18417 0.0
C551 C 0.8349 0.88127 0.16745 0.0
N552 N 0.86259 0.99435 0.1359 0.0
N553 N 0.86559 0.83482 0.23498 0.0
H554 H 0.75987 0.87821 0.15092 0.0
H555 H 0.77823 0.84195 0.19902 0.0
H556 H 0.88762 0.82874 0.2661 0.0
H557 H 0.84116 0.80908 0.22683 0.0
H558 H 0.8805 0.02208 0.15105 0.0
H559 H 0.83121 1.00194 0.11515 0.0
H560 H 0.95402 0.99852 0.16361 0.0
H561 H 0.98046 0.96511 0.21013 0.0
C562 C 0.12229 0.14738 0.62059 0.0
C563 C 0.16788 0.12533 0.62526 0.0
C564 C 0.15416 0.1162 0.71565 0.0
C565 C 0.10591 0.13333 0.70952 0.0
N566 N 0.04047 0.15274 0.65238 0.0
N567 N 0.22629 0.08469 0.67556 0.0
C568 C 0.08906 0.14595 0.66104 0.0
C569 C 0.18378 0.10876 0.67244 0.0
N570 N 0.11047 0.16942 0.57721 0.0
N571 N 0.17199 0.10785 0.76265 0.0
H572 H 0.24937 0.07982 0.6449 0.0
H573 H 0.23717 0.06726 0.70757 0.0
H574 H 0.15106 0.11182 0.79493 0.0
H575 H 0.20843 0.10011 0.76998 0.0
H576 H 0.07959 0.18982 0.57377 0.0
H577 H 0.13389 0.17099 0.54642 0.0
H578 H 0.02572 0.15773 0.61672 0.0
H579 H 0.01422 0.1474 0.67971 0.0
C580 C 0.12168 0.86095 0.11979 0.0
C581 C 0.16405 0.88817 0.12071 0.0
C582 C 0.1497 0.90652 0.20935 0.0
C583 C 0.10652 0.88024 0.20806 0.0
N584 N 0.0562 0.82541 0.16569 0.0
N585 N 0.22341 0.9311 0.16657 0.0
C586 C 0.09416 0.85508 0.16447 0.0
C587 C 0.17969 0.9091 0.16574 0.0
N588 N 0.10663 0.84226 0.07544 0.0
N589 N 0.16158 0.92921 0.25228 0.0
H590 H 0.24564 0.93391 0.13498 0.0
H591 H 0.23941 0.94426 0.19876 0.0
H592 H 0.14284 0.92484 0.28592 0.0
H593 H 0.18914 0.953 0.2548 0.0
H594 H 0.07262 0.82759 0.07009 0.0
H595 H 0.12728 0.84337 0.04261 0.0
H596 H 0.04907 0.80219 0.13744 0.0
H597 H 0.03343 0.82136 0.19651 0.0
C598 C 0.84636 0.12312 0.66585 0.0
C599 C 0.85617 0.15122 0.62418 0.0
C600 C 0.91814 0.19169 0.67281 0.0
C601 C 0.91002 0.1619 0.71368 0.0
N602 N 0.85655 0.11014 0.75515 0.0
N603 N 0.89177 0.21865 0.59097 0.0
C604 C 0.87088 0.13101 0.71202 0.0
C605 C 0.88872 0.18787 0.62885 0.0
N606 N 0.81471 0.08804 0.66074 0.0
N607 N 0.95585 0.22158 0.67452 0.0
H608 H 0.87202 0.21587 0.55761 0.0
H609 H 0.91072 0.24874 0.59393 0.0
H610 H 0.97783 0.22629 0.70597 0.0
H611 H 0.96772 0.23991 0.64369 0.0
H612 H 0.81064 0.06295 0.68755 0.0
H613 H 0.7941 0.08269 0.62832 0.0
H614 H 0.82574 0.08996 0.75774 0.0
H615 H 0.87267 0.11703 0.7898 0.0
loop_
_geom_bond_atom_site_label_1
_geom_bond_atom_site_label_2
_geom_bond_distance
_geom_bond_site_symmetry_2
_ccdc_geom_bond_type
H0 C5 0.930 . S
H1 C8 0.930 . S
H2 C10 0.930 . S
H3 C4 1.016 . S
C4 H3 1.016 . S
C4 N11 1.286 . S
C5 H0 0.930 . S
C5 C6 1.397 . S
C5 C7 1.361 . S
C6 C5 1.397 . S
C6 C10 1.390 . S
C7 C5 1.361 . S
C7 C8 1.393 1_554 S
C7 N11 1.413 1_554 S
C8 H1 0.930 . S
C8 C7 1.393 1_556 S
C8 C9 1.399 . S
C9 C8 1.399 . S
C9 C10 1.381 1_556 S
C10 H2 0.930 . S
C10 C6 1.390 . S
C10 C9 1.381 1_554 S
N11 C4 1.286 . S
N11 C7 1.413 1_556 S
H12 C17 0.930 . S
H13 C20 0.930 . S
H14 C22 0.930 . S
H15 C16 1.016 . S
C16 H15 1.016 . S
C16 N23 1.286 . S
C17 H12 0.930 . S
C17 C18 1.397 . S
C17 C19 1.361 . S
C18 C17 1.397 . S
C18 C22 1.390 . S
C19 C17 1.361 . S
C19 C20 1.393 . S
C19 N23 1.413 . S
C20 H13 0.930 . S
C20 C19 1.393 . S
C20 C21 1.399 . S
C21 C20 1.399 . S
C21 C22 1.381 . S
C22 H14 0.930 . S
C22 C18 1.390 . S
C22 C21 1.381 . S
N23 C16 1.286 . S
N23 C19 1.413 . S
H24 C29 0.930 . S
H25 C32 0.930 . S
H26 C34 0.930 . S
H27 C28 1.016 . S
C28 H27 1.016 . S
C28 N35 1.286 1_556 S
C29 H24 0.930 . S
C29 C30 1.397 . S
C29 C31 1.361 . S
C30 C29 1.397 . S
C30 C34 1.390 . S
C31 C29 1.361 . S
C31 C32 1.393 1_554 S
C31 N35 1.413 . S
C32 H25 0.930 . S
C32 C31 1.393 1_556 S
C32 C33 1.399 . S
C33 C32 1.399 . S
C33 C34 1.381 1_556 S
C34 H26 0.930 . S
C34 C30 1.390 . S
C34 C33 1.381 1_554 S
N35 C28 1.286 1_554 S
N35 C31 1.413 . S
H36 C41 0.930 . S
H37 C44 0.930 . S
H38 C46 0.930 . S
H39 C40 1.016 . S
C40 H39 1.016 . S
C40 N47 1.286 . S
C41 H36 0.930 . S
C41 C42 1.397 . S
C41 C43 1.361 . S
C42 C41 1.397 . S
C42 C46 1.390 . S
C43 C41 1.361 . S
C43 C44 1.393 . S
C43 N47 1.413 . S
C44 H37 0.930 . S
C44 C43 1.393 . S
C44 C45 1.399 . S
C45 C44 1.399 . S
C45 C46 1.381 . S
C46 H38 0.930 . S
C46 C42 1.390 . S
C46 C45 1.381 . S
N47 C40 1.286 . S
N47 C43 1.413 . S
H48 C53 0.930 . S
H49 C56 0.930 . S
H50 C58 0.930 . S
H51 C52 1.016 . S
C52 H51 1.016 . S
C52 N59 1.286 . S
C53 H48 0.930 . S
C53 C54 1.397 . S
C53 C55 1.361 . S
C54 C53 1.397 . S
C54 C58 1.390 . S
C55 C53 1.361 . S
C55 C56 1.393 1_554 S
C55 N59 1.413 1_554 S
C56 H49 0.930 . S
C56 C55 1.393 1_556 S
C56 C57 1.399 . S
C57 C56 1.399 . S
C57 C58 1.381 1_556 S
C58 H50 0.930 . S
C58 C54 1.390 . S
C58 C57 1.381 1_554 S
N59 C52 1.286 . S
N59 C55 1.413 1_556 S
H60 C65 0.930 . S
H61 C68 0.930 . S
H62 C70 0.930 . S
H63 C64 1.016 . S
C64 H63 1.016 . S
C64 N71 1.286 . S
C65 H60 0.930 . S
C65 C66 1.397 . S
C65 C67 1.361 . S
C66 C65 1.397 . S
C66 C70 1.390 . S
C67 C65 1.361 . S
C67 C68 1.393 . S
C67 N71 1.413 . S
C68 H61 0.930 . S
C68 C67 1.393 . S
C68 C69 1.399 . S
C69 C68 1.399 . S
C69 C70 1.381 . S
C70 H62 0.930 . S
C70 C66 1.390 . S
C70 C69 1.381 . S
N71 C64 1.286 . S
N71 C67 1.413 . S
H72 C77 0.930 . S
H73 C80 0.930 . S
H74 C82 0.930 . S
H75 C76 1.016 . S
C76 H75 1.016 . S
C76 N83 1.286 1_556 S
C77 H72 0.930 . S
C77 C78 1.397 . S
C77 C79 1.361 . S
C78 C77 1.397 . S
C78 C82 1.390 . S
C79 C77 1.361 . S
C79 C80 1.393 1_554 S
C79 N83 1.413 . S
C80 H73 0.930 . S
C80 C79 1.393 1_556 S
C80 C81 1.399 . S
C81 C80 1.399 . S
C81 C82 1.381 1_556 S
C82 H74 0.930 . S
C82 C78 1.390 . S
C82 C81 1.381 1_554 S
N83 C76 1.286 1_554 S
N83 C79 1.413 . S
H84 C89 0.930 . S
H85 C92 0.930 . S
H86 C94 0.930 . S
H87 C88 1.016 . S
C88 H87 1.016 . S
C88 N95 1.286 . S
C89 H84 0.930 . S
C89 C90 1.397 . S
C89 C91 1.361 . S
C90 C89 1.397 . S
C90 C94 1.390 . S
C91 C89 1.361 . S
C91 C92 1.393 . S
C91 N95 1.413 . S
C92 H85 0.930 . S
C92 C91 1.393 . S
C92 C93 1.399 . S
C93 C92 1.399 . S
C93 C94 1.381 . S
C94 H86 0.930 . S
C94 C90 1.390 . S
C94 C93 1.381 . S
N95 C88 1.286 . S
N95 C91 1.413 . S
Fe96 O98 1.918 . S
Fe96 O101 1.997 1_455 S
Fe96 O102 2.002 1_455 S
Fe96 O107 1.976 . S
Fe96 O110 1.996 . S
Fe97 O98 1.918 . S
Fe97 O105 1.997 1_455 S
Fe97 O108 1.996 . S
Fe97 O112 1.976 . S
Fe97 O115 2.002 1_455 S
O98 Fe96 1.918 . S
O98 Fe97 1.918 . S
O98 Fe99 1.918 . S
Fe99 O98 1.918 . S
Fe99 O100 2.002 1_455 S
Fe99 O109 1.976 . S
Fe99 O113 1.996 . S
Fe99 O116 1.997 1_455 S
O100 Fe99 2.002 1_655 S
O100 C117 1.295 . S
O101 Fe96 1.997 1_655 S
O101 C117 1.235 . S
O102 Fe96 2.002 1_655 S
O102 C103 1.295 . S
C103 O102 1.295 . S
C103 O105 1.235 . S
C104 O109 1.287 . S
C104 O110 1.255 . S
O105 Fe97 1.997 1_655 S
O105 C103 1.235 . S
C106 O112 1.287 . S
C106 O113 1.255 . S
O107 Fe96 1.976 . S
O107 C114 1.287 . S
O108 Fe97 1.996 . S
O108 C114 1.255 . S
O109 Fe99 1.976 . S
O109 C104 1.287 . S
O110 Fe96 1.996 . S
O110 C104 1.255 . S
C111 O115 1.295 . S
C111 O116 1.235 . S
O112 Fe97 1.976 . S
O112 C106 1.287 . S
O113 Fe99 1.996 . S
O113 C106 1.255 . S
C114 O107 1.287 . S
C114 O108 1.255 . S
O115 Fe97 2.002 1_655 S
O115 C111 1.295 . S
O116 Fe99 1.997 1_655 S
O116 C111 1.235 . S
C117 O100 1.295 . S
C117 O101 1.235 . S
Fe118 O120 1.918 . S
Fe118 O123 1.997 1_655 S
Fe118 O124 2.003 1_655 S
Fe118 O129 1.975 . S
Fe118 O132 1.995 . S
Fe119 O120 1.918 . S
Fe119 O127 1.997 1_655 S
Fe119 O130 1.995 . S
Fe119 O134 1.975 . S
Fe119 O137 2.003 1_655 S
O120 Fe118 1.918 . S
O120 Fe119 1.918 . S
O120 Fe121 1.918 . S
Fe121 O120 1.918 . S
Fe121 O122 2.003 1_655 S
Fe121 O131 1.975 . S
Fe121 O135 1.995 . S
Fe121 O138 1.997 1_655 S
O122 Fe121 2.003 1_455 S
O122 C139 1.295 . S
O123 Fe118 1.997 1_455 S
O123 C139 1.235 . S
O124 Fe118 2.003 1_455 S
O124 C125 1.295 . S
C125 O124 1.295 . S
C125 O127 1.235 . S
C126 O131 1.287 . S
C126 O132 1.255 . S
O127 Fe119 1.997 1_455 S
O127 C125 1.235 . S
C128 O134 1.287 . S
C128 O135 1.255 . S
O129 Fe118 1.975 . S
O129 C136 1.287 . S
O130 Fe119 1.995 . S
O130 C136 1.255 . S
O131 Fe121 1.975 . S
O131 C126 1.287 . S
O132 Fe118 1.995 . S
O132 C126 1.255 . S
C133 O137 1.295 . S
C133 O138 1.235 . S
O134 Fe119 1.975 . S
O134 C128 1.287 . S
O135 Fe121 1.995 . S
O135 C128 1.255 . S
C136 O129 1.287 . S
C136 O130 1.255 . S
O137 Fe119 2.003 1_455 S
O137 C133 1.295 . S
O138 Fe121 1.997 1_455 S
O138 C133 1.235 . S
C139 O122 1.295 . S
C139 O123 1.235 . S
Fe140 O142 1.918 . S
Fe140 O145 1.997 . S
Fe140 O146 2.002 . S
Fe140 O151 1.976 . S
Fe140 O154 1.996 . S
Fe141 O142 1.918 . S
Fe141 O149 1.997 . S
Fe141 O152 1.996 . S
Fe141 O156 1.976 . S
Fe141 O159 2.002 . S
O142 Fe140 1.918 . S
O142 Fe141 1.918 . S
O142 Fe143 1.918 . S
Fe143 O142 1.918 . S
Fe143 O144 2.002 . S
Fe143 O153 1.976 . S
Fe143 O157 1.996 . S
Fe143 O160 1.997 . S
O144 Fe143 2.002 . S
O144 C161 1.295 . S
O145 Fe140 1.997 . S
O145 C161 1.235 . S
O146 Fe140 2.002 . S
O146 C147 1.295 . S
C147 O146 1.295 . S
C147 O149 1.235 . S
C148 O153 1.287 . S
C148 O154 1.255 . S
O149 Fe141 1.997 . S
O149 C147 1.235 . S
C150 O156 1.287 . S
C150 O157 1.255 . S
O151 Fe140 1.976 . S
O151 C158 1.287 . S
O152 Fe141 1.996 . S
O152 C158 1.255 . S
O153 Fe143 1.976 . S
O153 C148 1.287 . S
O154 Fe140 1.996 . S
O154 C148 1.255 . S
C155 O159 1.295 . S
C155 O160 1.235 . S
O156 Fe141 1.976 . S
O156 C150 1.287 . S
O157 Fe143 1.996 . S
O157 C150 1.255 . S
C158 O151 1.287 . S
C158 O152 1.255 . S
O159 Fe141 2.002 . S
O159 C155 1.295 . S
O160 Fe143 1.997 . S
O160 C155 1.235 . S
C161 O144 1.295 . S
C161 O145 1.235 . S
Fe162 O164 1.918 . S
Fe162 O167 1.997 . S
Fe162 O168 2.002 . S
Fe162 O173 1.976 . S
Fe162 O176 1.996 . S
Fe163 O164 1.918 . S
Fe163 O171 1.997 . S
Fe163 O174 1.996 . S
Fe163 O178 1.976 . S
Fe163 O181 2.002 . S
O164 Fe162 1.918 . S
O164 Fe163 1.918 . S
O164 Fe165 1.918 . S
Fe165 O164 1.918 . S
Fe165 O166 2.002 . S
Fe165 O175 1.976 . S
Fe165 O179 1.996 . S
Fe165 O182 1.997 . S
O166 Fe165 2.002 . S
O166 C183 1.295 . S
O167 Fe162 1.997 . S
O167 C183 1.235 . S
O168 Fe162 2.002 . S
O168 C169 1.295 . S
C169 O168 1.295 . S
C169 O171 1.235 . S
C170 O175 1.287 . S
C170 O176 1.255 . S
O171 Fe163 1.997 . S
O171 C169 1.235 . S
C172 O178 1.287 . S
C172 O179 1.255 . S
O173 Fe162 1.976 . S
O173 C180 1.287 . S
O174 Fe163 1.996 . S
O174 C180 1.255 . S
O175 Fe165 1.976 . S
O175 C170 1.287 . S
O176 Fe162 1.996 . S
O176 C170 1.255 . S
C177 O181 1.295 . S
C177 O182 1.235 . S
O178 Fe163 1.976 . S
O178 C172 1.287 . S
O179 Fe165 1.996 . S
O179 C172 1.255 . S
C180 O173 1.287 . S
C180 O174 1.255 . S
O181 Fe163 2.002 . S
O181 C177 1.295 . S
O182 Fe165 1.997 . S
O182 C177 1.235 . S
C183 O166 1.295 . S
C183 O167 1.235 . S
C184 C185 1.363 . S
C184 C190 1.379 . S
C184 N192 1.356 1_556 S
C185 C184 1.363 . S
C185 C191 1.363 . S
C186 C187 1.363 . S
C186 C191 1.379 . S
C186 N193 1.356 . S
C187 C186 1.363 . S
C187 C190 1.363 . S
N188 C190 1.356 . S
N188 H200 0.984 1_556 S
N188 H201 0.985 . S
N189 C191 1.356 . S
N189 H194 0.984 . S
N189 H195 0.985 . S
C190 C184 1.379 . S
C190 C187 1.363 . S
C190 N188 1.356 . S
C191 C185 1.363 . S
C191 C186 1.379 . S
C191 N189 1.356 . S
N192 C184 1.356 1_554 S
N192 H198 0.984 . S
N192 H199 0.984 . S
N193 C186 1.356 . S
N193 H196 0.984 . S
N193 H197 0.985 . S
H194 N189 0.984 . S
H195 N189 0.985 . S
H196 N193 0.984 . S
H197 N193 0.985 . S
H198 N192 0.984 . S
H199 N192 0.984 . S
H200 N188 0.984 1_554 S
H201 N188 0.985 . S
C202 C203 1.363 . S
C202 C208 1.379 . S
C202 N210 1.356 . S
C203 C202 1.363 . S
C203 C209 1.363 . S
C204 C205 1.363 . S
C204 C209 1.379 . S
C204 N211 1.356 . S
C205 C204 1.363 . S
C205 C208 1.363 . S
N206 C208 1.356 . S
N206 H218 0.984 . S
N206 H219 0.985 . S
N207 C209 1.356 . S
N207 H212 0.984 . S
N207 H213 0.985 . S
C208 C202 1.379 . S
C208 C205 1.363 . S
C208 N206 1.356 . S
C209 C203 1.363 . S
C209 C204 1.379 . S
C209 N207 1.356 . S
N210 C202 1.356 . S
N210 H216 0.984 . S
N210 H217 0.984 . S
N211 C204 1.356 . S
N211 H214 0.984 . S
N211 H215 0.985 . S
H212 N207 0.984 . S
H213 N207 0.985 . S
H214 N211 0.984 . S
H215 N211 0.985 . S
H216 N210 0.984 . S
H217 N210 0.984 . S
H218 N206 0.984 . S
H219 N206 0.985 . S
C220 C221 1.363 . S
C220 C226 1.379 . S
C220 N228 1.356 . S
C221 C220 1.363 . S
C221 C227 1.363 . S
C222 C223 1.363 . S
C222 C227 1.379 . S
C222 N229 1.356 . S
C223 C222 1.363 . S
C223 C226 1.363 . S
N224 C226 1.356 . S
N224 H236 0.984 . S
N224 H237 0.985 . S
N225 C227 1.356 . S
N225 H230 0.984 . S
N225 H231 0.985 . S
C226 C220 1.379 . S
C226 C223 1.363 . S
C226 N224 1.356 . S
C227 C221 1.363 . S
C227 C222 1.379 . S
C227 N225 1.356 . S
N228 C220 1.356 . S
N228 H234 0.984 . S
N228 H235 0.984 . S
N229 C222 1.356 . S
N229 H232 0.984 . S
N229 H233 0.985 . S
H230 N225 0.984 . S
H231 N225 0.985 . S
H232 N229 0.984 . S
H233 N229 0.985 . S
H234 N228 0.984 . S
H235 N228 0.984 . S
H236 N224 0.984 . S
H237 N224 0.985 . S
C238 C239 1.363 . S
C238 C244 1.379 . S
C238 N246 1.356 . S
C239 C238 1.363 . S
C239 C245 1.363 . S
C240 C241 1.363 . S
C240 C245 1.379 . S
C240 N247 1.356 . S
C241 C240 1.363 . S
C241 C244 1.363 . S
N242 C244 1.356 . S
N242 H254 0.984 . S
N242 H255 0.985 . S
N243 C245 1.356 . S
N243 H248 0.984 . S
N243 H249 0.985 . S
C244 C238 1.379 . S
C244 C241 1.363 . S
C244 N242 1.356 . S
C245 C239 1.363 . S
C245 C240 1.379 . S
C245 N243 1.356 . S
N246 C238 1.356 . S
N246 H252 0.984 . S
N246 H253 0.984 . S
N247 C240 1.356 . S
N247 H250 0.984 . S
N247 H251 0.985 . S
H248 N243 0.984 . S
H249 N243 0.985 . S
H250 N247 0.984 . S
H251 N247 0.985 . S
H252 N246 0.984 . S
H253 N246 0.984 . S
H254 N242 0.984 . S
H255 N242 0.985 . S
C256 C257 1.363 . S
C256 C262 1.379 . S
C256 N264 1.356 1_556 S
C257 C256 1.363 . S
C257 C263 1.363 . S
C258 C259 1.363 . S
C258 C263 1.379 . S
C258 N265 1.356 . S
C259 C258 1.363 . S
C259 C262 1.363 . S
N260 C262 1.356 . S
N260 H272 0.984 . S
N260 H273 0.985 . S
N261 C263 1.356 . S
N261 H266 0.984 . S
N261 H267 0.985 . S
C262 C256 1.379 . S
C262 C259 1.363 . S
C262 N260 1.356 . S
C263 C257 1.363 . S
C263 C258 1.379 . S
C263 N261 1.356 . S
N264 C256 1.356 1_554 S
N264 H270 0.984 . S
N264 H271 0.984 . S
N265 C258 1.356 . S
N265 H268 0.984 . S
N265 H269 0.985 . S
H266 N261 0.984 . S
H267 N261 0.985 . S
H268 N265 0.984 . S
H269 N265 0.985 . S
H270 N264 0.984 . S
H271 N264 0.984 . S
H272 N260 0.984 . S
H273 N260 0.985 . S
C274 C275 1.363 . S
C274 C280 1.379 . S
C274 N282 1.356 . S
C275 C274 1.363 . S
C275 C281 1.363 . S
C276 C277 1.363 . S
C276 C281 1.379 . S
C276 N283 1.356 . S
C277 C276 1.363 . S
C277 C280 1.363 . S
N278 C280 1.356 . S
N278 H290 0.984 . S
N278 H291 0.985 . S
N279 C281 1.356 . S
N279 H284 0.984 . S
N279 H285 0.985 . S
C280 C274 1.379 . S
C280 C277 1.363 . S
C280 N278 1.356 . S
C281 C275 1.363 . S
C281 C276 1.379 . S
C281 N279 1.356 . S
N282 C274 1.356 . S
N282 H288 0.984 . S
N282 H289 0.984 . S
N283 C276 1.356 . S
N283 H286 0.984 . S
N283 H287 0.985 . S
H284 N279 0.984 . S
H285 N279 0.985 . S
H286 N283 0.984 . S
H287 N283 0.985 . S
H288 N282 0.984 . S
H289 N282 0.984 . S
H290 N278 0.984 . S
H291 N278 0.985 . S
C292 C293 1.363 . S
C292 C298 1.379 . S
C292 N300 1.356 . S
C293 C292 1.363 . S
C293 C299 1.363 . S
C294 C295 1.363 . S
C294 C299 1.379 . S
C294 N301 1.356 . S
C295 C294 1.363 . S
C295 C298 1.363 . S
N296 C298 1.356 . S
N296 H308 0.984 . S
N296 H309 0.985 . S
N297 C299 1.356 . S
N297 H302 0.984 . S
N297 H303 0.985 . S
C298 C292 1.379 . S
C298 C295 1.363 . S
C298 N296 1.356 . S
C299 C293 1.363 . S
C299 C294 1.379 . S
C299 N297 1.356 . S
N300 C292 1.356 . S
N300 H306 0.984 . S
N300 H307 0.984 . S
N301 C294 1.356 . S
N301 H304 0.984 . S
N301 H305 0.985 . S
H302 N297 0.984 . S
H303 N297 0.985 . S
H304 N301 0.984 . S
H305 N301 0.985 . S
H306 N300 0.984 . S
H307 N300 0.984 . S
H308 N296 0.984 . S
H309 N296 0.985 . S
C310 C311 1.363 . S
C310 C316 1.379 . S
C310 N318 1.356 . S
C311 C310 1.363 . S
C311 C317 1.363 . S
C312 C313 1.363 . S
C312 C317 1.379 . S
C312 N319 1.356 . S
C313 C312 1.363 . S
C313 C316 1.363 . S
N314 C316 1.356 . S
N314 H326 0.984 . S
N314 H327 0.985 . S
N315 C317 1.356 . S
N315 H320 0.984 . S
N315 H321 0.985 . S
C316 C310 1.379 . S
C316 C313 1.363 . S
C316 N314 1.356 . S
C317 C311 1.363 . S
C317 C312 1.379 . S
C317 N315 1.356 . S
N318 C310 1.356 . S
N318 H324 0.984 . S
N318 H325 0.984 . S
N319 C312 1.356 . S
N319 H322 0.984 . S
N319 H323 0.985 . S
H320 N315 0.984 . S
H321 N315 0.985 . S
H322 N319 0.984 . S
H323 N319 0.985 . S
H324 N318 0.984 . S
H325 N318 0.984 . S
H326 N314 0.984 . S
H327 N314 0.985 . S
C328 C329 1.363 . S
C328 C334 1.379 . S
C328 N336 1.356 . S
C329 C328 1.363 . S
C329 C335 1.363 . S
C330 C331 1.363 . S
C330 C335 1.379 . S
C330 N337 1.356 . S
C331 C330 1.363 . S
C331 C334 1.363 . S
N332 C334 1.356 . S
N332 H344 0.984 . S
N332 H345 0.985 . S
N333 C335 1.356 1_554 S
N333 H338 0.984 . S
N333 H339 0.985 . S
C334 C328 1.379 . S
C334 C331 1.363 . S
C334 N332 1.356 . S
C335 C329 1.363 . S
C335 C330 1.379 . S
C335 N333 1.356 1_556 S
N336 C328 1.356 . S
N336 H342 0.984 . S
N336 H343 0.984 . S
N337 C330 1.356 . S
N337 H340 0.984 . S
N337 H341 0.985 . S
H338 N333 0.984 . S
H339 N333 0.985 . S
H340 N337 0.984 . S
H341 N337 0.985 . S
H342 N336 0.984 . S
H343 N336 0.984 . S
H344 N332 0.984 . S
H345 N332 0.985 . S
C346 C347 1.363 . S
C346 C352 1.379 . S
C346 N354 1.356 . S
C347 C346 1.363 . S
C347 C353 1.363 . S
C348 C349 1.363 . S
C348 C353 1.379 . S
C348 N355 1.356 . S
C349 C348 1.363 . S
C349 C352 1.363 . S
N350 C352 1.356 . S
N350 H362 0.984 . S
N350 H363 0.985 . S
N351 C353 1.356 . S
N351 H356 0.984 . S
N351 H357 0.985 . S
C352 C346 1.379 . S
C352 C349 1.363 . S
C352 N350 1.356 . S
C353 C347 1.363 . S
C353 C348 1.379 . S
C353 N351 1.356 . S
N354 C346 1.356 . S
N354 H360 0.984 . S
N354 H361 0.984 . S
N355 C348 1.356 . S
N355 H358 0.984 . S
N355 H359 0.985 . S
H356 N351 0.984 . S
H357 N351 0.985 . S
H358 N355 0.984 . S
H359 N355 0.985 . S
H360 N354 0.984 . S
H361 N354 0.984 . S
H362 N350 0.984 . S
H363 N350 0.985 . S
C364 C365 1.363 . S
C364 C370 1.379 . S
C364 N372 1.356 . S
C365 C364 1.363 . S
C365 C371 1.363 . S
C366 C367 1.363 . S
C366 C371 1.379 . S
C366 N373 1.356 . S
C367 C366 1.363 . S
C367 C370 1.363 . S
N368 C370 1.356 . S
N368 H380 0.984 . S
N368 H381 0.985 . S
N369 C371 1.356 1_554 S
N369 H374 0.984 . S
N369 H375 0.985 . S
C370 C364 1.379 . S
C370 C367 1.363 . S
C370 N368 1.356 . S
C371 C365 1.363 . S
C371 C366 1.379 . S
C371 N369 1.356 1_556 S
N372 C364 1.356 . S
N372 H378 0.984 . S
N372 H379 0.984 . S
N373 C366 1.356 . S
N373 H376 0.984 . S
N373 H377 0.985 1_556 S
H374 N369 0.984 . S
H375 N369 0.985 . S
H376 N373 0.984 . S
H377 N373 0.985 1_554 S
H378 N372 0.984 . S
H379 N372 0.984 . S
H380 N368 0.984 . S
H381 N368 0.985 . S
C382 C383 1.363 . S
C382 C388 1.379 . S
C382 N390 1.356 . S
C383 C382 1.363 . S
C383 C389 1.363 . S
C384 C385 1.363 . S
C384 C389 1.379 . S
C384 N391 1.356 . S
C385 C384 1.363 . S
C385 C388 1.363 . S
N386 C388 1.356 . S
N386 H398 0.984 . S
N386 H399 0.985 . S
N387 C389 1.356 . S
N387 H392 0.984 . S
N387 H393 0.985 . S
C388 C382 1.379 . S
C388 C385 1.363 . S
C388 N386 1.356 . S
C389 C383 1.363 . S
C389 C384 1.379 . S
C389 N387 1.356 . S
N390 C382 1.356 . S
N390 H396 0.984 . S
N390 H397 0.984 . S
N391 C384 1.356 . S
N391 H394 0.984 . S
N391 H395 0.985 . S
H392 N387 0.984 . S
H393 N387 0.985 . S
H394 N391 0.984 . S
H395 N391 0.985 . S
H396 N390 0.984 . S
H397 N390 0.984 . S
H398 N386 0.984 . S
H399 N386 0.985 . S
C400 C401 1.363 1_545 S
C400 C406 1.379 . S
C400 N408 1.356 . S
C401 C400 1.363 1_565 S
C401 C407 1.363 . S
C402 C403 1.363 1_565 S
C402 C407 1.379 . S
C402 N409 1.356 . S
C403 C402 1.363 1_545 S
C403 C406 1.363 . S
N404 C406 1.356 . S
N404 H416 0.984 . S
N404 H417 0.985 . S
N405 C407 1.356 . S
N405 H410 0.984 . S
N405 H411 0.985 . S
C406 C400 1.379 . S
C406 C403 1.363 . S
C406 N404 1.356 . S
C407 C401 1.363 . S
C407 C402 1.379 . S
C407 N405 1.356 . S
N408 C400 1.356 . S
N408 H414 0.984 . S
N408 H415 0.984 1_545 S
N409 C402 1.356 . S
N409 H412 0.984 . S
N409 H413 0.985 . S
H410 N405 0.984 . S
H411 N405 0.985 . S
H412 N409 0.984 . S
H413 N409 0.985 . S
H414 N408 0.984 . S
H415 N408 0.984 1_565 S
H416 N404 0.984 . S
H417 N404 0.985 . S
C418 C419 1.338 1_565 S
C418 C424 1.394 . S
C418 N426 1.359 . S
C419 C418 1.338 1_545 S
C419 C425 1.363 . S
C420 C421 1.363 1_545 S
C420 C425 1.379 . S
C420 N427 1.356 . S
C421 C420 1.363 1_565 S
C421 C424 1.363 . S
N422 C424 1.356 . S
N422 H434 0.984 . S
N422 H435 0.985 . S
N423 C425 1.356 . S
N423 H428 0.984 . S
N423 H429 0.985 . S
C424 C418 1.394 . S
C424 C421 1.363 . S
C424 N422 1.356 . S
C425 C419 1.363 . S
C425 C420 1.379 . S
C425 N423 1.356 . S
N426 C418 1.359 . S
N426 H432 0.984 . S
N426 H433 0.984 1_565 S
N427 C420 1.356 . S
N427 H430 0.984 . S
N427 H431 0.985 . S
H428 N423 0.984 . S
H429 N423 0.985 . S
H430 N427 0.984 . S
H431 N427 0.985 . S
H432 N426 0.984 . S
H433 N426 0.984 1_545 S
H434 N422 0.984 . S
H435 N422 0.985 . S
C436 C437 1.363 . S
C436 C442 1.379 . S
C436 N444 1.356 . S
C437 C436 1.363 . S
C437 C443 1.363 1_565 S
C438 C439 1.363 . S
C438 C443 1.379 . S
C438 N445 1.356 . S
C439 C438 1.363 . S
C439 C442 1.363 1_545 S
N440 C442 1.356 . S
N440 H452 0.984 . S
N440 H453 0.985 . S
N441 C443 1.356 . S
N441 H446 0.984 1_545 S
N441 H447 0.985 . S
C442 C436 1.379 . S
C442 C439 1.363 1_565 S
C442 N440 1.356 . S
C443 C437 1.363 1_545 S
C443 C438 1.379 . S
C443 N441 1.356 . S
N444 C436 1.356 . S
N444 H450 0.984 . S
N444 H451 0.984 . S
N445 C438 1.356 . S
N445 H448 0.984 . S
N445 H449 0.985 . S
H446 N441 0.984 1_565 S
H447 N441 0.985 . S
H448 N445 0.984 . S
H449 N445 0.985 . S
H450 N444 0.984 . S
H451 N444 0.984 . S
H452 N440 0.984 . S
H453 N440 0.985 . S
C454 C455 1.363 . S
C454 C460 1.379 1_545 S
C454 N462 1.356 . S
C455 C454 1.363 . S
C455 C461 1.363 . S
C456 C457 1.363 1_545 S
C456 C461 1.379 . S
C456 N463 1.356 1_545 S
C457 C456 1.363 1_565 S
C457 C460 1.363 . S
N458 C460 1.356 . S
N458 H470 0.984 . S
N458 H471 0.985 . S
N459 C461 1.356 . S
N459 H464 0.984 . S
N459 H465 0.985 . S
C460 C454 1.379 1_565 S
C460 C457 1.363 . S
C460 N458 1.356 . S
C461 C455 1.363 . S
C461 C456 1.379 . S
C461 N459 1.356 . S
N462 C454 1.356 . S
N462 H468 0.984 . S
N462 H469 0.984 . S
N463 C456 1.356 1_565 S
N463 H466 0.984 . S
N463 H467 0.985 1_565 S
H464 N459 0.984 . S
H465 N459 0.985 . S
H466 N463 0.984 . S
H467 N463 0.985 1_545 S
H468 N462 0.984 . S
H469 N462 0.984 . S
H470 N458 0.984 . S
H471 N458 0.985 . S
C472 C473 1.363 . S
C472 C478 1.379 . S
C472 N480 1.356 . S
C473 C472 1.363 . S
C473 C479 1.363 . S
C474 C475 1.363 . S
C474 C479 1.379 . S
C474 N481 1.356 . S
C475 C474 1.363 . S
C475 C478 1.363 . S
N476 C478 1.356 . S
N476 H488 0.984 . S
N476 H489 0.985 . S
N477 C479 1.356 . S
N477 H482 0.984 . S
N477 H483 0.985 . S
C478 C472 1.379 . S
C478 C475 1.363 . S
C478 N476 1.356 . S
C479 C473 1.363 . S
C479 C474 1.379 . S
C479 N477 1.356 . S
N480 C472 1.356 . S
N480 H486 0.984 . S
N480 H487 0.984 . S
N481 C474 1.356 . S
N481 H484 0.984 . S
N481 H485 0.985 . S
H482 N477 0.984 . S
H483 N477 0.985 . S
H484 N481 0.984 . S
H485 N481 0.985 . S
H486 N480 0.984 . S
H487 N480 0.984 . S
H488 N476 0.984 . S
H489 N476 0.985 . S
C490 C491 1.363 . S
C490 C496 1.379 . S
C490 N498 1.356 . S
C491 C490 1.363 . S
C491 C497 1.363 . S
C492 C493 1.363 . S
C492 C497 1.379 . S
C492 N499 1.356 . S
C493 C492 1.363 . S
C493 C496 1.363 . S
N494 C496 1.356 . S
N494 H506 0.984 . S
N494 H507 0.985 . S
N495 C497 1.356 . S
N495 H500 0.984 . S
N495 H501 0.985 . S
C496 C490 1.379 . S
C496 C493 1.363 . S
C496 N494 1.356 . S
C497 C491 1.363 . S
C497 C492 1.379 . S
C497 N495 1.356 . S
N498 C490 1.356 . S
N498 H504 0.984 . S
N498 H505 0.984 . S
N499 C492 1.356 . S
N499 H502 0.984 . S
N499 H503 0.985 . S
H500 N495 0.984 . S
H501 N495 0.985 . S
H502 N499 0.984 . S
H503 N499 0.985 . S
H504 N498 0.984 . S
H505 N498 0.984 . S
H506 N494 0.984 . S
H507 N494 0.985 . S
C508 C509 1.363 . S
C508 C514 1.379 . S
C508 N516 1.356 . S
C509 C508 1.363 . S
C509 C515 1.363 . S
C510 C511 1.363 . S
C510 C515 1.379 . S
C510 N517 1.356 . S
C511 C510 1.363 . S
C511 C514 1.363 . S
N512 C514 1.356 . S
N512 H524 0.984 . S
N512 H525 0.985 . S
N513 C515 1.356 . S
N513 H518 0.984 . S
N513 H519 0.985 . S
C514 C508 1.379 . S
C514 C511 1.363 . S
C514 N512 1.356 . S
C515 C509 1.363 . S
C515 C510 1.379 . S
C515 N513 1.356 . S
N516 C508 1.356 . S
N516 H522 0.984 . S
N516 H523 0.984 . S
N517 C510 1.356 . S
N517 H520 0.984 . S
N517 H521 0.985 . S
H518 N513 0.984 . S
H519 N513 0.985 . S
H520 N517 0.984 . S
H521 N517 0.985 . S
H522 N516 0.984 . S
H523 N516 0.984 . S
H524 N512 0.984 . S
H525 N512 0.985 . S
C526 C527 1.363 . S
C526 C532 1.379 . S
C526 N534 1.356 . S
C527 C526 1.363 . S
C527 C533 1.363 . S
C528 C529 1.363 . S
C528 C533 1.379 . S
C528 N535 1.356 . S
C529 C528 1.363 . S
C529 C532 1.363 . S
N530 C532 1.356 . S
N530 H542 0.984 . S
N530 H543 0.985 . S
N531 C533 1.356 . S
N531 H536 0.984 . S
N531 H537 0.985 . S
C532 C526 1.379 . S
C532 C529 1.363 . S
C532 N530 1.356 . S
C533 C527 1.363 . S
C533 C528 1.379 . S
C533 N531 1.356 . S
N534 C526 1.356 . S
N534 H540 0.984 . S
N534 H541 0.984 . S
N535 C528 1.356 . S
N535 H538 0.984 . S
N535 H539 0.985 . S
H536 N531 0.984 . S
H537 N531 0.985 . S
H538 N535 0.984 . S
H539 N535 0.985 . S
H540 N534 0.984 . S
H541 N534 0.984 . S
H542 N530 0.984 . S
H543 N530 0.985 . S
C544 C545 1.363 . S
C544 C550 1.379 . S
C544 N552 1.356 . S
C545 C544 1.363 . S
C545 C551 1.363 . S
C546 C547 1.363 . S
C546 C551 1.379 . S
C546 N553 1.356 . S
C547 C546 1.363 . S
C547 C550 1.363 . S
N548 C550 1.356 . S
N548 H560 0.984 . S
N548 H561 0.985 . S
N549 C551 1.356 . S
N549 H554 0.984 . S
N549 H555 0.985 . S
C550 C544 1.379 . S
C550 C547 1.363 . S
C550 N548 1.356 . S
C551 C545 1.363 . S
C551 C546 1.379 . S
C551 N549 1.356 . S
N552 C544 1.356 . S
N552 H558 0.984 . S
N552 H559 0.984 . S
N553 C546 1.356 . S
N553 H556 0.984 . S
N553 H557 0.985 . S
H554 N549 0.984 . S
H555 N549 0.985 . S
H556 N553 0.984 . S
H557 N553 0.985 . S
H558 N552 0.984 . S
H559 N552 0.984 . S
H560 N548 0.984 . S
H561 N548 0.985 . S
C562 C563 1.363 . S
C562 C568 1.379 . S
C562 N570 1.356 . S
C563 C562 1.363 . S
C563 C569 1.363 . S
C564 C565 1.363 . S
C564 C569 1.379 . S
C564 N571 1.356 . S
C565 C564 1.363 . S
C565 C568 1.363 . S
N566 C568 1.356 . S
N566 H578 0.984 . S
N566 H579 0.985 . S
N567 C569 1.356 . S
N567 H572 0.984 . S
N567 H573 0.985 . S
C568 C562 1.379 . S
C568 C565 1.363 . S
C568 N566 1.356 . S
C569 C563 1.363 . S
C569 C564 1.379 . S
C569 N567 1.356 . S
N570 C562 1.356 . S
N570 H576 0.984 . S
N570 H577 0.984 . S
N571 C564 1.356 . S
N571 H574 0.984 . S
N571 H575 0.985 . S
H572 N567 0.984 . S
H573 N567 0.985 . S
H574 N571 0.984 . S
H575 N571 0.985 . S
H576 N570 0.984 . S
H577 N570 0.984 . S
H578 N566 0.984 . S
H579 N566 0.985 . S
C580 C581 1.363 . S
C580 C586 1.379 . S
C580 N588 1.356 . S
C581 C580 1.363 . S
C581 C587 1.363 . S
C582 C583 1.363 . S
C582 C587 1.379 . S
C582 N589 1.356 . S
C583 C582 1.363 . S
C583 C586 1.363 . S
N584 C586 1.356 . S
N584 H596 0.984 . S
N584 H597 0.985 . S
N585 C587 1.356 . S
N585 H590 0.984 . S
N585 H591 0.985 . S
C586 C580 1.379 . S
C586 C583 1.363 . S
C586 N584 1.356 . S
C587 C581 1.363 . S
C587 C582 1.379 . S
C587 N585 1.356 . S
N588 C580 1.356 . S
N588 H594 0.984 . S
N588 H595 0.984 . S
N589 C582 1.356 . S
N589 H592 0.984 . S
N589 H593 0.985 . S
H590 N585 0.984 . S
H591 N585 0.985 . S
H592 N589 0.984 . S
H593 N589 0.985 . S
H594 N588 0.984 . S
H595 N588 0.984 . S
H596 N584 0.984 . S
H597 N584 0.985 . S
C598 C599 1.363 . S
C598 C604 1.379 . S
C598 N606 1.356 . S
C599 C598 1.363 . S
C599 C605 1.363 . S
C600 C601 1.363 . S
C600 C605 1.379 . S
C600 N607 1.356 . S
C601 C600 1.363 . S
C601 C604 1.363 . S
N602 C604 1.356 . S
N602 H614 0.984 . S
N602 H615 0.985 . S
N603 C605 1.356 . S
N603 H608 0.984 . S
N603 H609 0.985 . S
C604 C598 1.379 . S
C604 C601 1.363 . S
C604 N602 1.356 . S
C605 C599 1.363 . S
C605 C600 1.379 . S
C605 N603 1.356 . S
N606 C598 1.356 . S
N606 H612 0.984 . S
N606 H613 0.984 . S
N607 C600 1.356 . S
N607 H610 0.984 . S
N607 H611 0.985 . S
H608 N603 0.984 . S
H609 N603 0.985 . S
H610 N607 0.984 . S
H611 N607 0.985 . S
H612 N606 0.984 . S
H613 N606 0.984 . S
H614 N602 0.984 . S
H615 N602 0.985 . S
C185 C4 1.544 . S
C187 C139 1.533 . S
C205 C103 1.533 . S
C203 C16 1.544 . S
C223 C126 1.541 . S
C221 C28 1.528 . S
C241 C114 1.541 . S
C239 C40 1.528 . S
C259 C183 1.533 . S
C257 C52 1.544 . S
C277 C147 1.533 . S
C275 C64 1.544 . S
C293 C76 1.528 . S
C295 C170 1.541 . S
C313 C158 1.541 . S
C311 C88 1.528 . S
C329 C9 1.500 . S
C331 C180 1.538 . S
C349 C150 1.538 . S
C347 C21 1.500 . S
C365 C33 1.527 . S
C367 C169 1.550 . S
C383 C45 1.527 . S
C385 C155 1.550 . S
C403 C136 1.538 . S
C401 C57 1.500 . S
C419 C69 1.500 . S
C421 C106 1.538 . S
C439 C125 1.550 . S
C437 C81 1.527 . S
C457 C111 1.550 . S
C455 C93 1.527 . S
C475 C161 1.521 . S
C473 C6 1.511 . S
C493 C177 1.521 . S
C491 C18 1.511 . S
C509 C30 1.497 . S
C511 C148 1.505 . S
C529 C172 1.505 . S
C527 C42 1.497 . S
C547 C117 1.521 . S
C545 C54 1.511 . S
C563 C66 1.511 . S
C565 C133 1.521 . S
C581 C78 1.497 . S
C583 C104 1.505 . S
C599 C90 1.497 . S
C601 C128 1.505 . S
