# Generated by pormake.
# Topology rtl, (3,6)-cn, num edge types: 1
# Building blocks:
#     Node 0, Type 0, BuildingBlock: BETDIP_clean_linker_0, # of connection points: 3
#     Node 1, Type 0, BuildingBlock: BETDIP_clean_linker_0, # of connection points: 3
#     Node 2, Type 0, BuildingBlock: BETDIP_clean_linker_0, # of connection points: 3
#     Node 3, Type 0, BuildingBlock: BETDIP_clean_linker_0, # of connection points: 3
#     Node 4, Type 1, BuildingBlock: CIFDUS_clean_sbu_1, # of connection points: 6
#     Node 5, Type 1, BuildingBlock: CIFDUS_clean_sbu_1, # of connection points: 6
#     Edge 6, Type (0, 1), BuildingBlock: MIFKUJ_clean_linker_0, # of connection points: 2
#     Edge 7, Type (0, 1), BuildingBlock: MIFKUJ_clean_linker_0, # of connection points: 2
#     Edge 8, Type (0, 1), BuildingBlock: MIFKUJ_clean_linker_0, # of connection points: 2
#     Edge 9, Type (0, 1), BuildingBlock: MIFKUJ_clean_linker_0, # of connection points: 2
#     Edge 10, Type (0, 1), BuildingBlock: MIFKUJ_clean_linker_0, # of connection points: 2
#     Edge 11, Type (0, 1), BuildingBlock: MIFKUJ_clean_linker_0, # of connection points: 2
#     Edge 12, Type (0, 1), BuildingBlock: MIFKUJ_clean_linker_0, # of connection points: 2
#     Edge 13, Type (0, 1), BuildingBlock: MIFKUJ_clean_linker_0, # of connection points: 2
#     Edge 14, Type (0, 1), BuildingBlock: MIFKUJ_clean_linker_0, # of connection points: 2
#     Edge 15, Type (0, 1), BuildingBlock: MIFKUJ_clean_linker_0, # of connection points: 2
#     Edge 16, Type (0, 1), BuildingBlock: MIFKUJ_clean_linker_0, # of connection points: 2
#     Edge 17, Type (0, 1), BuildingBlock: MIFKUJ_clean_linker_0, # of connection points: 2
# Relax obj value: 0.017
# Max RMSD: 0.118
# Mean RMSD: 0.090
data_MOF--net-rtl--node1-CIFDUS_clean_sbu_1--node2-BETDIP_clean_linker_0--edge1-MIFKUJ_clean_linker_0
_symmetry_space_group_name_H-M    P1
_symmetry_Int_Tables_number       1
_symmetry_cell_setting            triclinic
loop_
_symmetry_equiv_pos_as_xyz
'x, y, z'
_cell_length_a     45.859262
_cell_length_b     45.441221
_cell_length_c     28.618094
_cell_angle_alpha  91.005278
_cell_angle_beta   98.485712
_cell_angle_gamma 89.97402
loop_
_atom_site_label
_atom_site_type_symbol
_atom_site_fract_x
_atom_site_fract_y
_atom_site_fract_z
_atom_type_partial_charge
H0 H 0.214 0.81693 0.01104 0.0
H1 H 0.22479 0.82789 0.16234 0.0
H2 H 0.16271 0.88151 0.07444 0.0
H3 H 0.27246 0.81302 0.15385 0.0
C4 C 0.26792 0.79507 0.12824 0.0
C5 C 0.20797 0.82792 0.04213 0.0
C6 C 0.18667 0.85039 0.03717 0.0
C7 C 0.22251 0.82026 0.08699 0.0
C8 C 0.21469 0.83452 0.12753 0.0
C9 C 0.19279 0.85642 0.12333 0.0
C10 C 0.17928 0.86436 0.078 0.0
N11 N 0.24427 0.79766 0.09021 0.0
H12 H 0.71797 0.73117 0.67748 0.0
H13 H 0.71271 0.74151 0.5272 0.0
H14 H 0.65687 0.67869 0.58208 0.0
H15 H 0.76538 0.74972 0.5559 0.0
C16 C 0.76255 0.76566 0.58363 0.0
C17 C 0.70821 0.72504 0.64181 0.0
C18 C 0.68662 0.70283 0.63439 0.0
C19 C 0.71833 0.73856 0.60348 0.0
C20 C 0.70572 0.73056 0.55701 0.0
C21 C 0.68298 0.70943 0.54912 0.0
C22 C 0.67396 0.6954 0.58799 0.0
N23 N 0.74054 0.76068 0.61282 0.0
H24 H 0.80801 0.22869 0.92395 0.0
H25 H 0.81567 0.23469 0.07557 0.0
H26 H 0.87172 0.17587 0.01015 0.0
H27 H 0.77116 0.25518 0.06114 0.0
C28 C 0.76936 0.26603 0.02737 0.0
C29 C 0.81827 0.22165 0.9585 0.0
C30 C 0.84086 0.20057 0.96219 0.0
C31 C 0.8089 0.23412 0.99892 0.0
C32 C 0.82252 0.22526 0.04403 0.0
C33 C 0.84509 0.20392 0.04857 0.0
C34 C 0.8542 0.19203 0.00729 0.0
N35 N 0.78629 0.2559 0.99244 0.0
H36 H 0.29408 0.34126 0.41526 0.0
H37 H 0.3029 0.32479 0.5643 0.0
H38 H 0.35902 0.38836 0.51231 0.0
H39 H 0.28752 0.2782 0.53331 0.0
C40 C 0.26978 0.28395 0.50547 0.0
C41 C 0.30476 0.34599 0.45095 0.0
C42 C 0.32809 0.36642 0.45895 0.0
C43 C 0.29587 0.33046 0.48845 0.0
C44 C 0.30992 0.33624 0.53501 0.0
C45 C 0.33302 0.35695 0.54387 0.0
C46 C 0.34179 0.37185 0.50559 0.0
N47 N 0.27267 0.30938 0.47814 0.0
O48 O 0.99602 0.05169 0.48747 0.0
Mn49 Mn 0.01666 0.02606 0.54396 0.0
O50 O 0.97043 0.01949 0.43663 0.0
Mn51 Mn 0.98246 0.98584 0.46901 0.0
O52 O 0.03708 0.99968 0.59957 0.0
O53 O 0.04783 0.05805 0.55751 0.0
Mn54 Mn 0.05524 0.0627 0.61947 0.0
O55 O 0.98991 0.04658 0.58937 0.0
O56 O 0.07069 0.02792 0.64417 0.0
O57 O 0.04435 1.00597 0.49997 0.0
O58 O 0.01801 0.97047 0.45796 0.0
O59 O 0.07941 0.08906 0.59665 0.0
O60 O 0.02083 0.07475 0.63978 0.0
C61 C 0.96547 0.97367 0.53058 0.0
C62 C 0.97888 0.04562 0.44857 0.0
C63 C 0.05869 1.00301 0.6335 0.0
C64 C 0.0677 0.07827 0.55601 0.0
C65 C 0.9951 0.06491 0.6246 0.0
C66 C 0.04234 0.9835 0.47171 0.0
O67 O 0.98542 0.99398 0.53017 0.0
O68 O 0.95578 0.96153 0.48998 0.0
O69 O 0.53143 0.55882 0.10224 0.0
Mn70 Mn 0.51294 0.52864 0.0487 0.0
O71 O 0.56589 0.53416 0.15016 0.0
Mn72 Mn 0.55234 0.49751 0.12854 0.0
O73 O 0.49422 0.49888 0.99505 0.0
O74 O 0.47994 0.55801 0.0306 0.0
Mn75 Mn 0.47611 0.56214 0.96862 0.0
O76 O 0.53971 0.54766 1.00323 0.0
O77 O 0.46527 0.52581 0.94143 0.0
O78 O 0.48672 0.50953 0.09493 0.0
O79 O 0.51797 0.48487 0.14825 0.0
O80 O 0.44795 0.58604 0.98789 0.0
O81 O 0.51094 0.57808 0.95561 0.0
C82 C 0.56626 0.47926 0.06693 0.0
C83 C 0.55292 0.55794 0.13675 0.0
C84 C 0.47567 0.50126 0.95682 0.0
C85 C 0.4583 0.57657 0.02945 0.0
C86 C 0.53612 0.56776 0.97176 0.0
C87 C 0.49197 0.49274 0.13106 0.0
O88 O 0.54561 0.49889 0.0663 0.0
O89 O 0.57797 0.47095 0.10852 0.0
H90 H 0.26714 0.22801 0.5353 0.0
H91 H 0.22702 0.19229 0.51623 0.0
H92 H 0.17623 0.25612 0.42913 0.0
H93 H 0.21673 0.29193 0.44747 0.0
H94 H 0.14487 0.2267 0.49549 0.0
H95 H 0.20166 0.2025 0.37341 0.0
H96 H 0.24705 0.19108 0.34009 0.0
H97 H 0.26036 0.11404 0.42531 0.0
H98 H 0.21528 0.12521 0.45969 0.0
H99 H 0.04154 0.11448 0.48652 0.0
H100 H 0.06977 0.14891 0.44533 0.0
H101 H 0.14964 0.10192 0.49667 0.0
H102 H 0.12126 0.06682 0.53443 0.0
H103 H 0.15986 0.12835 0.42492 0.0
H104 H 0.11555 0.16127 0.56392 0.0
H105 H 0.0726 0.17175 0.60436 0.0
H106 H 0.03844 0.231 0.49436 0.0
H107 H 0.08116 0.22072 0.45325 0.0
C108 C 0.2475 0.23438 0.51183 0.0
C109 C 0.24514 0.26269 0.49275 0.0
C110 C 0.22464 0.21392 0.50081 0.0
C111 C 0.19871 0.22141 0.47087 0.0
C112 C 0.1961 0.24981 0.45206 0.0
C113 C 0.21926 0.27021 0.46251 0.0
C114 C 0.17417 0.19965 0.46117 0.0
C115 C 0.14781 0.20544 0.47898 0.0
C116 C 0.17812 0.17177 0.44019 0.0
C117 C 0.20513 0.16479 0.41928 0.0
C118 C 0.21436 0.18322 0.38528 0.0
C119 C 0.24003 0.17678 0.36616 0.0
C120 C 0.2566 0.15187 0.3806 0.0
C121 C 0.2475 0.13332 0.41413 0.0
C122 C 0.22186 0.13967 0.43339 0.0
C123 C 0.0648 0.11048 0.48617 0.0
C124 C 0.07929 0.08803 0.51359 0.0
C125 C 0.08112 0.13058 0.46358 0.0
C126 C 0.11218 0.12903 0.46978 0.0
C127 C 0.12586 0.10411 0.49164 0.0
C128 C 0.10953 0.08377 0.51306 0.0
C129 C 0.13101 0.1548 0.46133 0.0
C130 C 0.15643 0.14986 0.44017 0.0
C131 C 0.12651 0.18332 0.48017 0.0
C132 C 0.10132 0.19007 0.50541 0.0
C133 C 0.09886 0.17655 0.54847 0.0
C134 C 0.07456 0.18242 0.57145 0.0
C135 C 0.05278 0.202 0.55191 0.0
C136 C 0.05532 0.21584 0.50944 0.0
C137 C 0.07956 0.21002 0.48631 0.0
H138 H 0.03396 0.20647 0.56971 0.0
H139 H 0.27647 0.14692 0.36578 0.0
H140 H 0.26142 0.74179 0.08051 0.0
H141 H 0.29704 0.70126 0.08472 0.0
H142 H 0.3578 0.75171 0.1844 0.0
H143 H 0.32201 0.79209 0.18103 0.0
H144 H 0.38266 0.72646 0.10625 0.0
H145 H 0.32618 0.69748 0.22627 0.0
H146 H 0.28052 0.68643 0.25856 0.0
H147 H 0.25987 0.61726 0.1548 0.0
H148 H 0.3052 0.62819 0.12142 0.0
H149 H 0.48203 0.61122 0.1045 0.0
H150 H 0.45281 0.64533 0.14629 0.0
H151 H 0.37309 0.60196 0.08058 0.0
H152 H 0.40227 0.56736 0.04125 0.0
H153 H 0.36168 0.62577 0.15703 0.0
H154 H 0.40852 0.65996 0.02655 0.0
H155 H 0.45115 0.6706 0.98603 0.0
H156 H 0.48629 0.72947 0.09947 0.0
H157 H 0.444 0.71886 0.14091 0.0
C158 C 0.28232 0.74421 0.10341 0.0
C159 C 0.28901 0.77015 0.13034 0.0
C160 C 0.3026 0.72099 0.10597 0.0
C161 C 0.33003 0.7234 0.13508 0.0
C162 C 0.33677 0.74934 0.16182 0.0
C163 C 0.31631 0.77236 0.15987 0.0
C164 C 0.35205 0.69924 0.13617 0.0
C165 C 0.37839 0.70458 0.11831 0.0
C166 C 0.34618 0.67057 0.15093 0.0
C167 C 0.319 0.66381 0.17113 0.0
C168 C 0.31179 0.68006 0.2101 0.0
C169 C 0.28599 0.67379 0.22864 0.0
C170 C 0.26728 0.65119 0.20869 0.0
C171 C 0.27438 0.63477 0.17021 0.0
C172 C 0.30015 0.64097 0.1515 0.0
C173 C 0.45844 0.60788 0.10162 0.0
C174 C 0.44435 0.58662 0.06997 0.0
C175 C 0.44163 0.62776 0.12467 0.0
C176 C 0.41056 0.62704 0.11517 0.0
C177 C 0.3969 0.60335 0.08832 0.0
C178 C 0.41365 0.58336 0.06599 0.0
C179 C 0.39218 0.65275 0.12614 0.0
C180 C 0.36637 0.64777 0.14601 0.0
C181 C 0.39814 0.68169 0.1121 0.0
C182 C 0.42334 0.68836 0.08703 0.0
C183 C 0.42542 0.67508 0.0429 0.0
C184 C 0.44951 0.68109 0.0198 0.0
C185 C 0.47146 0.70063 0.04023 0.0
C186 C 0.46931 0.71428 0.08374 0.0
C187 C 0.4453 0.70827 0.10706 0.0
H188 H 0.4901 0.70526 0.0223 0.0
H189 H 0.24731 0.64638 0.22309 0.0
H190 H 0.75774 0.81732 0.63366 0.0
H191 H 0.794 0.85759 0.64766 0.0
H192 H 0.85349 0.808 0.57337 0.0
H193 H 0.817 0.76822 0.5579 0.0
H194 H 0.87871 0.83853 0.66825 0.0
H195 H 0.82049 0.8538 0.51219 0.0
H196 H 0.77344 0.8607 0.45949 0.0
H197 H 0.75389 0.9358 0.54257 0.0
H198 H 0.80069 0.92903 0.59618 0.0
H199 H 0.98098 0.92248 0.57132 0.0
H200 H 0.94713 0.89151 0.60579 0.0
H201 H 0.8898 0.96604 0.61611 0.0
H202 H 0.92333 0.99669 0.57837 0.0
H203 H 0.85939 0.92747 0.57062 0.0
H204 H 0.92115 0.92012 0.71711 0.0
H205 H 0.96709 0.91454 0.77292 0.0
H206 H 0.9792 0.82795 0.71675 0.0
H207 H 0.93334 0.83294 0.6605 0.0
C208 C 0.77864 0.81495 0.62064 0.0
C209 C 0.78461 0.78965 0.59465 0.0
C210 C 0.79933 0.83792 0.62873 0.0
C211 C 0.82652 0.83567 0.61186 0.0
C212 C 0.83276 0.81007 0.58706 0.0
C213 C 0.81186 0.78746 0.57801 0.0
C214 C 0.84774 0.86066 0.61695 0.0
C215 C 0.87466 0.85806 0.64704 0.0
C216 C 0.84187 0.88659 0.59075 0.0
C217 C 0.81383 0.89066 0.55852 0.0
C218 C 0.806 0.87158 0.51949 0.0
C219 C 0.77942 0.87551 0.4894 0.0
C220 C 0.76063 0.8986 0.49778 0.0
C221 C 0.76843 0.91787 0.5362 0.0
C222 C 0.79497 0.914 0.56643 0.0
C223 C 0.96206 0.93267 0.5836 0.0
C224 C 0.95495 0.96203 0.57269 0.0
C225 C 0.94245 0.91482 0.60332 0.0
C226 C 0.91553 0.92614 0.61371 0.0
C227 C 0.91022 0.95655 0.60819 0.0
C228 C 0.92969 0.9743 0.58749 0.0
C229 C 0.89128 0.90545 0.62138 0.0
C230 C 0.86357 0.90859 0.59329 0.0
C231 C 0.89632 0.88032 0.65027 0.0
C232 C 0.92381 0.87698 0.68439 0.0
C233 C 0.93367 0.89993 0.71647 0.0
C234 C 0.95971 0.89688 0.74821 0.0
C235 C 0.97614 0.87099 0.74822 0.0
C236 C 0.96645 0.848 0.71669 0.0
C237 C 0.94036 0.85088 0.685 0.0
H238 H 0.99635 0.86873 0.77273 0.0
H239 H 0.74007 0.90163 0.47443 0.0
H240 H 0.75665 0.29935 0.94703 0.0
H241 H 0.72139 0.3401 0.93387 0.0
H242 H 0.69738 0.32766 0.07234 0.0
H243 H 0.73278 0.28732 0.08586 0.0
H244 H 0.66191 0.34484 0.93172 0.0
H245 H 0.68588 0.39253 0.12269 0.0
H246 H 0.72735 0.39609 0.18809 0.0
H247 H 0.78898 0.38993 0.08904 0.0
H248 H 0.74789 0.38675 0.02301 0.0
H249 H 0.55019 0.42753 0.02303 0.0
H250 H 0.58538 0.39516 0.9915 0.0
H251 H 0.6458 0.46796 0.99273 0.0
H252 H 0.61046 0.50028 0.02437 0.0
H253 H 0.66855 0.42626 0.05051 0.0
H254 H 0.6231 0.42911 0.89192 0.0
H255 H 0.58329 0.42695 0.82399 0.0
H256 H 0.56755 0.33621 0.85172 0.0
H257 H 0.60655 0.33806 0.92069 0.0
C258 C 0.74383 0.3053 0.97464 0.0
C259 C 0.74762 0.29026 0.01771 0.0
C260 C 0.72359 0.32852 0.96697 0.0
C261 C 0.70694 0.33724 1.00229 0.0
C262 C 0.71028 0.32172 0.04481 0.0
C263 C 0.73047 0.29861 0.05248 0.0
C264 C 0.68653 0.36291 0.99564 0.0
C265 C 0.66335 0.36274 0.95753 0.0
C266 C 0.6889 0.38674 0.0285 0.0
C267 C 0.71378 0.38921 0.06793 0.0
C268 C 0.70828 0.39212 0.11485 0.0
C269 C 0.73172 0.39403 0.15203 0.0
C270 C 0.76078 0.39317 0.14274 0.0
C271 C 0.76646 0.39051 0.09621 0.0
C272 C 0.7431 0.38862 0.05889 0.0
C273 C 0.5701 0.43705 0.01343 0.0
C274 C 0.57748 0.46646 0.0256 0.0
C275 C 0.59044 0.41841 0.99588 0.0
C276 C 0.61852 0.42896 0.99036 0.0
C277 C 0.62437 0.45924 0.9969 0.0
C278 C 0.60394 0.47787 0.01425 0.0
C279 C 0.64311 0.40779 0.98748 0.0
C280 C 0.66716 0.40868 0.02413 0.0
C281 C 0.6416 0.38491 0.95295 0.0
C282 C 0.6177 0.3838 0.91182 0.0
C283 C 0.6109 0.40879 0.88396 0.0
C284 C 0.58844 0.40763 0.84521 0.0
C285 C 0.57279 0.38151 0.83362 0.0
C286 C 0.57955 0.3565 0.86081 0.0
C287 C 0.60184 0.35759 0.89978 0.0
H288 H 0.55552 0.38064 0.80346 0.0
H289 H 0.77889 0.39461 0.17158 0.0
H290 H 0.22735 0.87628 0.20476 0.0
H291 H 0.21112 0.90167 0.27286 0.0
H292 H 0.12075 0.89459 0.20568 0.0
H293 H 0.13666 0.86914 0.13821 0.0
H294 H 0.13211 0.9491 0.24129 0.0
H295 H 0.14914 0.84878 0.29428 0.0
H296 H 0.17933 0.8044 0.31287 0.0
H297 H 0.23948 0.85429 0.41326 0.0
H298 H 0.2098 0.89907 0.39479 0.0
H299 H 0.05401 0.92716 0.449 0.0
H300 H 0.09033 0.90967 0.40098 0.0
H301 H 0.12531 0.99766 0.39868 0.0
H302 H 0.08868 0.01541 0.44738 0.0
H303 H 0.15012 0.90869 0.4029 0.0
H304 H 0.1359 1.00788 0.28237 0.0
H305 H 0.10159 0.04925 0.26263 0.0
H306 H 0.02966 0.9965 0.29468 0.0
H307 H 0.06348 0.95477 0.31397 0.0
C308 C 0.20401 0.87992 0.20476 0.0
C309 C 0.18333 0.87083 0.16584 0.0
C310 C 0.19478 0.89455 0.2436 0.0
C311 C 0.1647 0.90017 0.24433 0.0
C312 C 0.14409 0.89086 0.20572 0.0
C313 C 0.15325 0.8763 0.16709 0.0
C314 C 0.15418 0.91536 0.28522 0.0
C315 C 0.13645 0.94048 0.27675 0.0
C316 C 0.15972 0.90421 0.33158 0.0
C317 C 0.17748 0.87731 0.34274 0.0
C318 C 0.16894 0.85032 0.32003 0.0
C319 C 0.18593 0.8251 0.3306 0.0
C320 C 0.21137 0.82655 0.36411 0.0
C321 C 0.21981 0.85321 0.38724 0.0
C322 C 0.20292 0.87852 0.37675 0.0
C323 C 0.06987 0.94271 0.43921 0.0
C324 C 0.06831 0.97271 0.45144 0.0
C325 C 0.09076 0.93263 0.41198 0.0
C326 C 0.11035 0.95237 0.39576 0.0
C327 C 0.11027 0.98207 0.41062 0.0
C328 C 0.08945 0.99217 0.43854 0.0
C329 C 0.12776 0.94211 0.35871 0.0
C330 C 0.14666 0.91788 0.36778 0.0
C331 C 0.12292 0.95374 0.31266 0.0
C332 C 0.10227 0.97841 0.30016 0.0
C333 C 0.11275 1.00514 0.28505 0.0
C334 C 0.09339 0.02863 0.27395 0.0
C335 C 0.06349 0.02554 0.27758 0.0
C336 C 0.05284 0.9989 0.29205 0.0
C337 C 0.07209 0.97534 0.30308 0.0
H338 H 0.04855 0.04377 0.26908 0.0
H339 H 0.22449 0.80699 0.37225 0.0
H340 H 0.66828 0.72652 0.71361 0.0
H341 H 0.65059 0.70034 0.77801 0.0
H342 H 0.66741 0.61727 0.71147 0.0
H343 H 0.68374 0.64354 0.64601 0.0
H344 H 0.61829 0.61284 0.73926 0.0
H345 H 0.71125 0.6463 0.81719 0.0
H346 H 0.75139 0.68153 0.84388 0.0
H347 H 0.69409 0.73096 0.92157 0.0
H348 H 0.65346 0.69626 0.89481 0.0
H349 H 0.58048 0.53684 0.93869 0.0
H350 H 0.61535 0.55631 0.88902 0.0
H351 H 0.58298 0.64409 0.90878 0.0
H352 H 0.54785 0.62475 0.95701 0.0
H353 H 0.64628 0.64037 0.90846 0.0
H354 H 0.55223 0.60845 0.81794 0.0
H355 H 0.51386 0.57107 0.79286 0.0
H356 H 0.57795 0.5153 0.74072 0.0
H357 H 0.6168 0.55224 0.76615 0.0
C358 C 0.6684 0.70268 0.71304 0.0
C359 C 0.67735 0.68706 0.67485 0.0
C360 C 0.65847 0.68766 0.75004 0.0
C361 C 0.65807 0.65667 0.75033 0.0
C362 C 0.66743 0.64112 0.71232 0.0
C363 C 0.67679 0.65613 0.6749 0.0
C364 C 0.64643 0.64056 0.78881 0.0
C365 C 0.62504 0.61852 0.77624 0.0
C366 C 0.65485 0.64785 0.83736 0.0
C367 C 0.67923 0.66877 0.85368 0.0
C368 C 0.70714 0.66479 0.8397 0.0
C369 C 0.72999 0.68466 0.85488 0.0
C370 C 0.72528 0.7085 0.88433 0.0
C371 C 0.69771 0.71249 0.89874 0.0
C372 C 0.67477 0.69271 0.88362 0.0
C373 C 0.58149 0.56036 0.93345 0.0
C374 C 0.56149 0.57934 0.95144 0.0
C375 C 0.60127 0.57143 0.90499 0.0
C376 C 0.6016 0.60164 0.89503 0.0
C377 C 0.58317 0.62077 0.91609 0.0
C378 C 0.56308 0.60969 0.94354 0.0
C379 C 0.61824 0.61318 0.85848 0.0
C380 C 0.64028 0.63441 0.87141 0.0
C381 C 0.61086 0.60485 0.81036 0.0
C382 C 0.58744 0.58291 0.79442 0.0
C383 C 0.55816 0.58812 0.80144 0.0
C384 C 0.53633 0.56704 0.78712 0.0
C385 C 0.54348 0.54079 0.76534 0.0
C386 C 0.57246 0.53562 0.75768 0.0
C387 C 0.59439 0.55662 0.77202 0.0
H388 H 0.52655 0.52448 0.75429 0.0
H389 H 0.743 0.72385 0.89604 0.0
H390 H 0.86053 0.14751 0.07321 0.0
H391 H 0.88351 0.12957 0.14931 0.0
H392 H 0.88273 0.21726 0.20916 0.0
H393 H 0.86075 0.23586 0.13175 0.0
H394 H 0.93456 0.18871 0.24228 0.0
H395 H 0.8323 0.16808 0.23303 0.0
H396 H 0.78313 0.1506 0.19661 0.0
H397 H 0.81681 0.06291 0.18631 0.0
H398 H 0.86628 0.07993 0.22204 0.0
H399 H 0.97229 0.10578 0.464 0.0
H400 H 0.94918 0.14157 0.40581 0.0
H401 H 0.93921 0.07327 0.29805 0.0
H402 H 0.9617 0.03807 0.35477 0.0
H403 H 0.88742 0.10215 0.30369 0.0
H404 H 0.99166 0.12647 0.30247 0.0
H405 H 0.03985 0.14395 0.34335 0.0
H406 H 1.00061 0.22559 0.37889 0.0
H407 H 0.95207 0.20839 0.33878 0.0
C408 C 0.86557 0.16321 0.10218 0.0
C409 C 0.85876 0.19322 0.09601 0.0
C410 C 0.8785 0.15281 0.14601 0.0
C411 C 0.88454 0.17194 0.18534 0.0
C412 C 0.87819 0.20202 0.17944 0.0
C413 C 0.86532 0.21256 0.13525 0.0
C414 C 0.89673 0.15983 0.23237 0.0
C415 C 0.92397 0.17014 0.25622 0.0
C416 C 0.88288 0.1358 0.25114 0.0
C417 C 0.85305 0.12534 0.23009 0.0
C418 C 0.82926 0.1451 0.22279 0.0
C419 C 0.80133 0.13527 0.20227 0.0
C420 C 0.79686 0.10567 0.18912 0.0
C421 C 0.8203 0.08583 0.19655 0.0
C422 C 0.84828 0.09555 0.21701 0.0
C423 C 0.96542 0.09862 0.42775 0.0
C424 C 0.96836 0.06893 0.41432 0.0
C425 C 0.9522 0.11903 0.39459 0.0
C426 C 0.94207 0.10997 0.34765 0.0
C427 C 0.94635 0.08072 0.33412 0.0
C428 C 0.95928 0.06056 0.36681 0.0
C429 C 0.92593 0.12986 0.31191 0.0
C430 C 0.89773 0.1211 0.2903 0.0
C431 C 0.93882 0.15532 0.29571 0.0
C432 C 0.96821 0.16605 0.31802 0.0
C433 C 0.99329 0.1481 0.31915 0.0
C434 C 0.02066 0.15795 0.34218 0.0
C435 C 0.02327 0.18583 0.3638 0.0
C436 C 0.99855 0.20399 0.36217 0.0
C437 C 0.97111 0.19421 0.33926 0.0
H438 H 0.04446 0.19337 0.38173 0.0
H439 H 0.77522 0.0981 0.17322 0.0
H440 H 0.30791 0.36609 0.62439 0.0
H441 H 0.33249 0.38235 0.70251 0.0
H442 H 0.41647 0.38016 0.65177 0.0
H443 H 0.39217 0.36332 0.57411 0.0
H444 H 0.42155 0.36045 0.7419 0.0
H445 H 0.37913 0.4441 0.65541 0.0
H446 H 0.33893 0.47266 0.61066 0.0
H447 H 0.29162 0.47217 0.72944 0.0
H448 H 0.33139 0.44324 0.77468 0.0
H449 H 0.50385 0.46781 0.89719 0.0
H450 H 0.47995 0.43458 0.83434 0.0
H451 H 0.3975 0.44433 0.88877 0.0
H452 H 0.42126 0.47798 0.9505 0.0
H453 H 0.39004 0.45711 0.79985 0.0
H454 H 0.43704 0.37894 0.89071 0.0
H455 H 0.47762 0.35036 0.9342 0.0
H456 H 0.51649 0.33929 0.80745 0.0
H457 H 0.47698 0.36893 0.7637 0.0
C458 C 0.33167 0.36852 0.63014 0.0
C459 C 0.34802 0.36371 0.59282 0.0
C460 C 0.34569 0.37802 0.67474 0.0
C461 C 0.37633 0.38291 0.68292 0.0
C462 C 0.39284 0.37668 0.64639 0.0
C463 C 0.37886 0.36728 0.60185 0.0
C464 C 0.39101 0.39631 0.72832 0.0
C465 C 0.41487 0.38169 0.75454 0.0
C466 C 0.38193 0.42375 0.74529 0.0
C467 C 0.35806 0.44123 0.71821 0.0
C468 C 0.36004 0.44989 0.67184 0.0
C469 C 0.33735 0.46617 0.64642 0.0
C470 C 0.31269 0.47415 0.66715 0.0
C471 C 0.31071 0.46593 0.7134 0.0
C472 C 0.33332 0.4496 0.73896 0.0
C473 C 0.48094 0.46183 0.89668 0.0
C474 C 0.46444 0.47497 0.929 0.0
C475 C 0.4672 0.44296 0.86065 0.0
C476 C 0.4368 0.43688 0.85659 0.0
C477 C 0.4209 0.44866 0.89091 0.0
C478 C 0.43453 0.46764 0.92651 0.0
C479 C 0.42079 0.42131 0.81396 0.0
C480 C 0.39668 0.43568 0.78789 0.0
C481 C 0.42981 0.39371 0.79724 0.0
C482 C 0.45414 0.37654 0.82398 0.0
C483 C 0.45452 0.3709 0.87226 0.0
C484 C 0.47739 0.35451 0.89702 0.0
C485 C 0.49979 0.34322 0.87374 0.0
C486 C 0.49935 0.34831 0.82565 0.0
C487 C 0.47675 0.36498 0.80087 0.0
H488 H 0.51739 0.33041 0.8929 0.0
H489 H 0.29515 0.48677 0.64741 0.0
H490 H 0.6241 0.71022 0.51709 0.0
H491 H 0.59872 0.69403 0.43972 0.0
H492 H 0.68257 0.67433 0.39507 0.0
H493 H 0.70805 0.69182 0.47206 0.0
H494 H 0.64736 0.69499 0.3234 0.0
H495 H 0.63738 0.62061 0.43743 0.0
H496 H 0.62395 0.60078 0.51107 0.0
H497 H 0.53359 0.62481 0.46745 0.0
H498 H 0.54658 0.64519 0.39383 0.0
H499 H 0.6091 0.57592 0.16261 0.0
H500 H 0.62726 0.61185 0.22443 0.0
H501 H 0.53776 0.63471 0.23941 0.0
H502 H 0.51946 0.59857 0.17682 0.0
H503 H 0.57085 0.61782 0.32302 0.0
H504 H 0.58194 0.68572 0.2017 0.0
H505 H 0.59736 0.70231 0.1275 0.0
H506 H 0.68796 0.68658 0.1839 0.0
H507 H 0.67307 0.66948 0.25822 0.0
C508 C 0.63709 0.70268 0.49054 0.0
C509 C 0.66802 0.70199 0.50067 0.0
C510 C 0.62257 0.6933 0.44636 0.0
C511 C 0.63861 0.6822 0.4117 0.0
C512 C 0.66962 0.68265 0.42114 0.0
C513 C 0.68419 0.6926 0.46514 0.0
C514 C 0.62308 0.66889 0.36667 0.0
C515 C 0.63078 0.67798 0.32339 0.0
C516 C 0.60088 0.6471 0.36625 0.0
C517 C 0.59301 0.63474 0.4104 0.0
C518 C 0.61469 0.62186 0.44371 0.0
C519 C 0.60715 0.6105 0.48542 0.0
C520 C 0.57795 0.61162 0.494 0.0
C521 C 0.55621 0.62402 0.46081 0.0
C522 C 0.56364 0.63547 0.41908 0.0
C523 C 0.5933 0.58935 0.17794 0.0
C524 C 0.56289 0.58469 0.16467 0.0
C525 C 0.6037 0.60991 0.2133 0.0
C526 C 0.58392 0.62611 0.23659 0.0
C527 C 0.55344 0.62258 0.22176 0.0
C528 C 0.54298 0.60218 0.1857 0.0
C529 C 0.59534 0.6437 0.27987 0.0
C530 C 0.58702 0.63524 0.32295 0.0
C531 C 0.61726 0.66567 0.28005 0.0
C532 C 0.62635 0.67614 0.23549 0.0
C533 C 0.60514 0.6856 0.19819 0.0
C534 C 0.61379 0.69513 0.15611 0.0
C535 C 0.64362 0.69546 0.15096 0.0
C536 C 0.66486 0.68632 0.18794 0.0
C537 C 0.65633 0.67675 0.23008 0.0
H538 H 0.65027 0.70283 0.11835 0.0
H539 H 0.57216 0.60281 0.52631 0.0
H540 H 0.80669 0.17831 0.88252 0.0
H541 H 0.82341 0.15509 0.81295 0.0
H542 H 0.91381 0.16977 0.8754 0.0
H543 H 0.89729 0.19301 0.94457 0.0
H544 H 0.90345 0.18473 0.78142 0.0
H545 H 0.8825 0.10342 0.87974 0.0
H546 H 0.85036 0.07344 0.92207 0.0
H547 H 0.79241 0.05662 0.79224 0.0
H548 H 0.82404 0.08687 0.74923 0.0
H549 H 1.0021 0.08737 0.71359 0.0
H550 H 0.96566 0.10951 0.7561 0.0
H551 H 0.89714 0.08829 0.64046 0.0
H552 H 0.93424 0.06568 0.59638 0.0
H553 H 0.88479 0.07887 0.74262 0.0
H554 H 0.9123 0.15333 0.64227 0.0
H555 H 0.94701 0.18135 0.60199 0.0
H556 H 0.9934 0.21057 0.73611 0.0
H557 H 0.95927 0.18232 0.77725 0.0
C558 C 0.83012 0.17678 0.88115 0.0
C559 C 0.8507 0.18739 0.91912 0.0
C560 C 0.83963 0.16337 0.84153 0.0
C561 C 0.86987 0.16056 0.83904 0.0
C562 C 0.89037 0.17169 0.8765 0.0
C563 C 0.88092 0.18479 0.91618 0.0
C564 C 0.88063 0.14577 0.79802 0.0
C565 C 0.89919 0.16164 0.77275 0.0
C566 C 0.87434 0.11587 0.78557 0.0
C567 C 0.85539 0.09772 0.81141 0.0
C568 C 0.86275 0.09356 0.86031 0.0
C569 C 0.84466 0.07647 0.8844 0.0
C570 C 0.8193 0.06322 0.85989 0.0
C571 C 0.81202 0.06696 0.8112 0.0
C572 C 0.83002 0.08407 0.78695 0.0
C573 C 0.97933 0.0872 0.69675 0.0
C574 C 0.97125 0.07523 0.65093 0.0
C575 C 0.95847 0.09984 0.72141 0.0
C576 C 0.92882 0.101 0.70121 0.0
C577 C 0.92004 0.08774 0.65652 0.0
C578 C 0.9412 0.07488 0.63141 0.0
C579 C 0.9082 0.11768 0.72713 0.0
C580 C 0.88806 0.10223 0.74996 0.0
C581 C 0.91293 0.14805 0.73737 0.0
C582 C 0.93323 0.16561 0.71285 0.0
C583 C 0.92999 0.1656 0.6632 0.0
C584 C 0.94957 0.18153 0.64021 0.0
C585 C 0.97241 0.19771 0.66647 0.0
C586 C 0.97568 0.19804 0.7158 0.0
C587 C 0.95618 0.18212 0.73898 0.0
H588 H 0.98757 0.20999 0.64861 0.0
H589 H 0.80533 0.04999 0.8786 0.0
H590 H 0.29566 0.38967 0.37915 0.0
H591 H 0.31422 0.41585 0.31516 0.0
H592 H 0.40337 0.40392 0.38464 0.0
H593 H 0.38518 0.37755 0.44787 0.0
H594 H 0.39403 0.46003 0.35689 0.0
H595 H 0.37443 0.36199 0.2889 0.0
H596 H 0.34279 0.3193 0.26193 0.0
H597 H 0.28732 0.37406 0.16551 0.0
H598 H 0.31846 0.41718 0.19239 0.0
H599 H 0.49668 0.45586 0.20556 0.0
H600 H 0.45893 0.4407 0.25084 0.0
H601 H 0.39372 0.48952 0.15966 0.0
H602 H 0.43206 0.50558 0.11337 0.0
H603 H 0.37969 0.42459 0.19006 0.0
H604 H 0.4064 0.52125 0.25027 0.0
H605 H 0.44117 0.56169 0.27629 0.0
H606 H 0.48489 0.50816 0.38741 0.0
H607 H 0.4507 0.46719 0.36155 0.0
C608 C 0.31922 0.39239 0.38052 0.0
C609 C 0.33889 0.38168 0.41896 0.0
C610 C 0.32979 0.40745 0.34399 0.0
C611 C 0.36021 0.41197 0.34513 0.0
C612 C 0.37979 0.40103 0.38318 0.0
C613 C 0.36932 0.386 0.41947 0.0
C614 C 0.37218 0.42809 0.30722 0.0
C615 C 0.3907 0.45236 0.32037 0.0
C616 C 0.36719 0.41874 0.25919 0.0
C617 C 0.34851 0.39285 0.2431 0.0
C618 C 0.35533 0.36497 0.26226 0.0
C619 C 0.33753 0.34069 0.24693 0.0
C620 C 0.313 0.34398 0.21216 0.0
C621 C 0.30628 0.37155 0.19253 0.0
C622 C 0.324 0.39591 0.20779 0.0
C623 C 0.47439 0.46348 0.19452 0.0
C624 C 0.4676 0.48225 0.15575 0.0
C625 C 0.45276 0.45464 0.22063 0.0
C626 C 0.42363 0.46409 0.20882 0.0
C627 C 0.41618 0.48199 0.16926 0.0
C628 C 0.43809 0.49116 0.14296 0.0
C629 C 0.40205 0.45587 0.24023 0.0
C630 C 0.38202 0.43294 0.22616 0.0
C631 C 0.40565 0.46636 0.28755 0.0
C632 C 0.42603 0.49109 0.30381 0.0
C633 C 0.42355 0.51802 0.28006 0.0
C634 C 0.44314 0.54106 0.29481 0.0
C635 C 0.46524 0.53749 0.33346 0.0
C636 C 0.46775 0.51089 0.35749 0.0
C637 C 0.44823 0.48777 0.34284 0.0
H638 H 0.4804 0.55534 0.34481 0.0
H639 H 0.29925 0.32516 0.20032 0.0
H640 H 0.16369 0.81586 0.96045 0.0
H641 H 0.13721 0.83225 0.88446 0.0
H642 H 0.15055 0.92269 0.93111 0.0
H643 H 0.17674 0.90652 1.0066 0.0
H644 H 0.09561 0.91537 0.89174 0.0
H645 H 0.1912 0.88922 0.85213 0.0
H646 H 0.23299 0.85608 0.84508 0.0
H647 H 0.1756 0.79767 0.7545 0.0
H648 H 0.13337 0.83033 0.76152 0.0
H649 H 0.11078 0.99983 0.69212 0.0
H650 H 0.12654 0.96297 0.75095 0.0
H651 H 0.04818 0.91204 0.70356 0.0
H652 H 0.03161 0.94955 0.64425 0.0
H653 H 0.12672 0.89007 0.73715 0.0
H654 H 0.02949 0.92194 0.78075 0.0
H655 H 0.9934 0.96184 0.7857 0.0
H656 H 0.06013 0.01458 0.86881 0.0
H657 H 0.09676 0.9753 0.86335 0.0
C658 C 0.1612 0.83923 0.95422 0.0
C659 C 0.17216 0.85988 0.98973 0.0
C660 C 0.14599 0.84858 0.91083 0.0
C661 C 0.14174 0.87875 0.90197 0.0
C662 C 0.15315 0.8993 0.93716 0.0
C663 C 0.16818 0.89001 0.98039 0.0
C664 C 0.12546 0.88939 0.85641 0.0
C665 C 0.1022 0.90937 0.85795 0.0
C666 C 0.13376 0.88163 0.81201 0.0
C667 C 0.15908 0.86198 0.80788 0.0
C668 C 0.18745 0.86917 0.83106 0.0
C669 C 0.21122 0.85051 0.82701 0.0
C670 C 0.20693 0.82472 0.79951 0.0
C671 C 0.17887 0.81761 0.77589 0.0
C672 C 0.15502 0.83618 0.77989 0.0
C673 C 0.09687 0.9807 0.6936 0.0
C674 C 0.06966 0.97791 0.66378 0.0
C675 C 0.10609 0.95954 0.72718 0.0
C676 C 0.08846 0.93497 0.73184 0.0
C677 C 0.06204 0.931 0.70054 0.0
C678 C 0.05266 0.95238 0.66665 0.0
C679 C 0.09699 0.91569 0.77286 0.0
C680 C 0.11922 0.89469 0.77075 0.0
C681 C 0.08803 0.92266 0.81687 0.0
C682 C 0.06585 0.94584 0.82131 0.0
C683 C 0.03647 0.94214 0.79978 0.0
C684 C 0.01593 0.9646 0.80271 0.0
C685 C 0.02446 0.99069 0.82754 0.0
C686 C 0.05355 0.99437 0.84957 0.0
C687 C 0.0742 0.97203 0.84655 0.0
H688 H 0.00853 1.00805 0.82975 0.0
H689 H 0.22537 0.81031 0.79639 0.0
loop_
_geom_bond_atom_site_label_1
_geom_bond_atom_site_label_2
_geom_bond_distance
_geom_bond_site_symmetry_2
_ccdc_geom_bond_type
H0 C5 0.930 . S
H1 C8 0.930 . S
H2 C10 0.930 . S
H3 C4 1.016 . S
C4 H3 1.016 . S
C4 N11 1.286 . S
C5 H0 0.930 . S
C5 C6 1.397 . S
C5 C7 1.361 . S
C6 C5 1.397 . S
C6 C10 1.390 . S
C7 C5 1.361 . S
C7 C8 1.393 . S
C7 N11 1.413 . S
C8 H1 0.930 . S
C8 C7 1.393 . S
C8 C9 1.399 . S
C9 C8 1.399 . S
C9 C10 1.381 . S
C10 H2 0.930 . S
C10 C6 1.390 . S
C10 C9 1.381 . S
N11 C4 1.286 . S
N11 C7 1.413 . S
H12 C17 0.930 . S
H13 C20 0.930 . S
H14 C22 0.930 . S
H15 C16 1.016 . S
C16 H15 1.016 . S
C16 N23 1.286 . S
C17 H12 0.930 . S
C17 C18 1.397 . S
C17 C19 1.361 . S
C18 C17 1.397 . S
C18 C22 1.390 . S
C19 C17 1.361 . S
C19 C20 1.393 . S
C19 N23 1.413 . S
C20 H13 0.930 . S
C20 C19 1.393 . S
C20 C21 1.399 . S
C21 C20 1.399 . S
C21 C22 1.381 . S
C22 H14 0.930 . S
C22 C18 1.390 . S
C22 C21 1.381 . S
N23 C16 1.286 . S
N23 C19 1.413 . S
H24 C29 0.930 . S
H25 C32 0.930 . S
H26 C34 0.930 . S
H27 C28 1.016 . S
C28 H27 1.016 . S
C28 N35 1.286 1_554 S
C29 H24 0.930 . S
C29 C30 1.397 . S
C29 C31 1.361 . S
C30 C29 1.397 . S
C30 C34 1.390 1_556 S
C31 C29 1.361 . S
C31 C32 1.393 1_556 S
C31 N35 1.413 . S
C32 H25 0.930 . S
C32 C31 1.393 1_554 S
C32 C33 1.399 . S
C33 C32 1.399 . S
C33 C34 1.381 . S
C34 H26 0.930 . S
C34 C30 1.390 1_554 S
C34 C33 1.381 . S
N35 C28 1.286 1_556 S
N35 C31 1.413 . S
H36 C41 0.930 . S
H37 C44 0.930 . S
H38 C46 0.930 . S
H39 C40 1.016 . S
C40 H39 1.016 . S
C40 N47 1.286 . S
C41 H36 0.930 . S
C41 C42 1.397 . S
C41 C43 1.361 . S
C42 C41 1.397 . S
C42 C46 1.390 . S
C43 C41 1.361 . S
C43 C44 1.393 . S
C43 N47 1.413 . S
C44 H37 0.930 . S
C44 C43 1.393 . S
C44 C45 1.399 . S
C45 C44 1.399 . S
C45 C46 1.381 . S
C46 H38 0.930 . S
C46 C42 1.390 . S
C46 C45 1.381 . S
N47 C40 1.286 . S
N47 C43 1.413 . S
O48 Mn49 2.163 1_655 S
O48 C62 1.244 . S
Mn49 O48 2.163 1_455 S
Mn49 O52 2.160 1_545 S
Mn49 O53 2.221 . S
Mn49 O55 2.163 1_455 S
Mn49 O57 2.160 1_545 S
Mn49 O67 2.221 1_445 S
O50 Mn51 2.087 1_545 S
O50 C62 1.256 . S
Mn51 O50 2.087 1_565 S
Mn51 O58 2.089 1_655 S
Mn51 O67 2.290 . S
Mn51 O68 2.251 . S
O52 Mn49 2.160 1_565 S
O52 C63 1.239 . S
O53 Mn49 2.221 . S
O53 Mn54 2.290 . S
O53 C64 1.278 . S
Mn54 O53 2.290 . S
Mn54 O56 2.089 . S
Mn54 O59 2.251 . S
Mn54 O60 2.087 . S
O55 Mn49 2.163 1_655 S
O55 C65 1.244 . S
O56 Mn54 2.089 . S
O56 C63 1.256 1_545 S
O57 Mn49 2.160 1_565 S
O57 C66 1.239 . S
O58 Mn51 2.089 1_455 S
O58 C66 1.256 . S
O59 Mn54 2.251 . S
O59 C64 1.241 . S
O60 Mn54 2.087 . S
O60 C65 1.256 1_455 S
C61 O67 1.278 . S
C61 O68 1.241 . S
C62 O48 1.244 . S
C62 O50 1.256 . S
C63 O52 1.239 . S
C63 O56 1.256 1_565 S
C64 O53 1.278 . S
C64 O59 1.241 . S
C65 O55 1.244 . S
C65 O60 1.256 1_655 S
C66 O57 1.239 . S
C66 O58 1.256 . S
O67 Mn49 2.221 1_665 S
O67 Mn51 2.290 . S
O67 C61 1.278 . S
O68 Mn51 2.251 . S
O68 C61 1.241 . S
O69 Mn70 2.163 . S
O69 C83 1.244 . S
Mn70 O69 2.163 . S
Mn70 O73 2.160 1_554 S
Mn70 O74 2.221 . S
Mn70 O76 2.163 1_554 S
Mn70 O78 2.160 . S
Mn70 O88 2.221 . S
O71 Mn72 2.087 . S
O71 C83 1.256 . S
Mn72 O71 2.087 . S
Mn72 O79 2.089 . S
Mn72 O88 2.290 . S
Mn72 O89 2.251 . S
O73 Mn70 2.160 1_556 S
O73 C84 1.239 . S
O74 Mn70 2.221 . S
O74 Mn75 2.290 1_554 S
O74 C85 1.278 . S
Mn75 O74 2.290 1_556 S
Mn75 O77 2.089 . S
Mn75 O80 2.251 1_556 S
Mn75 O81 2.087 . S
O76 Mn70 2.163 1_556 S
O76 C86 1.244 . S
O77 Mn75 2.089 . S
O77 C84 1.256 . S
O78 Mn70 2.160 . S
O78 C87 1.239 . S
O79 Mn72 2.089 . S
O79 C87 1.256 . S
O80 Mn75 2.251 1_554 S
O80 C85 1.241 . S
O81 Mn75 2.087 . S
O81 C86 1.256 . S
C82 O88 1.278 . S
C82 O89 1.241 . S
C83 O69 1.244 . S
C83 O71 1.256 . S
C84 O73 1.239 . S
C84 O77 1.256 . S
C85 O74 1.278 . S
C85 O80 1.241 . S
C86 O76 1.244 . S
C86 O81 1.256 . S
C87 O78 1.239 . S
C87 O79 1.256 . S
O88 Mn70 2.221 . S
O88 Mn72 2.290 . S
O88 C82 1.278 . S
O89 Mn72 2.251 . S
O89 C82 1.241 . S
H90 C108 0.951 . S
H91 C110 0.951 . S
H92 C112 0.950 . S
H93 C113 0.950 . S
H94 C115 0.950 . S
H95 C118 0.950 . S
H96 C119 0.950 . S
H97 C121 0.950 . S
H98 C122 0.950 . S
H99 C123 0.951 . S
H100 C125 0.951 . S
H101 C127 0.950 . S
H102 C128 0.950 . S
H103 C130 0.950 . S
H104 C133 0.950 . S
H105 C134 0.950 . S
H106 C136 0.950 . S
H107 C137 0.950 . S
C108 H90 0.951 . S
C108 C109 1.366 . S
C108 C110 1.388 . S
C109 C108 1.366 . S
C109 C113 1.385 . S
C110 H91 0.951 . S
C110 C108 1.388 . S
C110 C111 1.366 . S
C111 C110 1.366 . S
C111 C112 1.414 . S
C111 C114 1.499 . S
C112 H92 0.950 . S
C112 C111 1.414 . S
C112 C113 1.374 . S
C113 H93 0.950 . S
C113 C109 1.385 . S
C113 C112 1.374 . S
C114 C111 1.499 . S
C114 C115 1.373 . S
C114 C116 1.389 . S
C115 H94 0.950 . S
C115 C114 1.373 . S
C115 C131 1.377 . S
C116 C114 1.389 . S
C116 C117 1.524 . S
C116 C130 1.377 . S
C117 C116 1.524 . S
C117 C118 1.397 . S
C117 C122 1.363 . S
C118 H95 0.950 . S
C118 C117 1.397 . S
C118 C119 1.334 . S
C119 H96 0.950 . S
C119 C118 1.334 . S
C119 C120 1.287 . S
C120 C119 1.287 . S
C120 C121 1.524 . S
C120 H139 0.913 . S
C121 H97 0.950 . S
C121 C120 1.524 . S
C121 C122 1.415 . S
C122 H98 0.950 . S
C122 C117 1.363 . S
C122 C121 1.415 . S
C123 H99 0.951 . S
C123 C124 1.366 . S
C123 C125 1.388 . S
C124 C123 1.366 . S
C124 C128 1.385 . S
C125 H100 0.951 . S
C125 C123 1.388 . S
C125 C126 1.366 . S
C126 C125 1.366 . S
C126 C127 1.414 . S
C126 C129 1.499 . S
C127 H101 0.950 . S
C127 C126 1.414 . S
C127 C128 1.374 . S
C128 H102 0.950 . S
C128 C124 1.385 . S
C128 C127 1.374 . S
C129 C126 1.499 . S
C129 C130 1.373 . S
C129 C131 1.389 . S
C130 H103 0.950 . S
C130 C116 1.377 . S
C130 C129 1.373 . S
C131 C115 1.377 . S
C131 C129 1.389 . S
C131 C132 1.524 . S
C132 C131 1.524 . S
C132 C133 1.397 . S
C132 C137 1.363 . S
C133 H104 0.950 . S
C133 C132 1.397 . S
C133 C134 1.334 . S
C134 H105 0.950 . S
C134 C133 1.334 . S
C134 C135 1.287 . S
C135 C134 1.287 . S
C135 C136 1.524 . S
C135 H138 0.999 . S
C136 H106 0.950 . S
C136 C135 1.524 . S
C136 C137 1.415 . S
C137 H107 0.950 . S
C137 C132 1.363 . S
C137 C136 1.415 . S
H138 C135 0.999 . S
H139 C120 0.913 . S
H140 C158 0.951 . S
H141 C160 0.951 . S
H142 C162 0.950 . S
H143 C163 0.950 . S
H144 C165 0.950 . S
H145 C168 0.950 . S
H146 C169 0.950 . S
H147 C171 0.950 . S
H148 C172 0.950 . S
H149 C173 0.951 . S
H150 C175 0.951 . S
H151 C177 0.950 . S
H152 C178 0.950 . S
H153 C180 0.950 . S
H154 C183 0.950 1_556 S
H155 C184 0.950 . S
H156 C186 0.950 . S
H157 C187 0.950 . S
C158 H140 0.951 . S
C158 C159 1.366 . S
C158 C160 1.388 . S
C159 C158 1.366 . S
C159 C163 1.385 . S
C160 H141 0.951 . S
C160 C158 1.388 . S
C160 C161 1.366 . S
C161 C160 1.366 . S
C161 C162 1.414 . S
C161 C164 1.499 . S
C162 H142 0.950 . S
C162 C161 1.414 . S
C162 C163 1.374 . S
C163 H143 0.950 . S
C163 C159 1.385 . S
C163 C162 1.374 . S
C164 C161 1.499 . S
C164 C165 1.373 . S
C164 C166 1.389 . S
C165 H144 0.950 . S
C165 C164 1.373 . S
C165 C181 1.377 . S
C166 C164 1.389 . S
C166 C167 1.524 . S
C166 C180 1.377 . S
C167 C166 1.524 . S
C167 C168 1.397 . S
C167 C172 1.363 . S
C168 H145 0.950 . S
C168 C167 1.397 . S
C168 C169 1.334 . S
C169 H146 0.950 . S
C169 C168 1.334 . S
C169 C170 1.287 . S
C170 C169 1.287 . S
C170 C171 1.524 . S
C170 H189 0.913 . S
C171 H147 0.950 . S
C171 C170 1.524 . S
C171 C172 1.415 . S
C172 H148 0.950 . S
C172 C167 1.363 . S
C172 C171 1.415 . S
C173 H149 0.951 . S
C173 C174 1.366 . S
C173 C175 1.388 . S
C174 C173 1.366 . S
C174 C178 1.385 . S
C175 H150 0.951 . S
C175 C173 1.388 . S
C175 C176 1.366 . S
C176 C175 1.366 . S
C176 C177 1.414 . S
C176 C179 1.499 . S
C177 H151 0.950 . S
C177 C176 1.414 . S
C177 C178 1.374 . S
C178 H152 0.950 . S
C178 C174 1.385 . S
C178 C177 1.374 . S
C179 C176 1.499 . S
C179 C180 1.373 . S
C179 C181 1.389 . S
C180 H153 0.950 . S
C180 C166 1.377 . S
C180 C179 1.373 . S
C181 C165 1.377 . S
C181 C179 1.389 . S
C181 C182 1.524 . S
C182 C181 1.524 . S
C182 C183 1.397 . S
C182 C187 1.363 . S
C183 H154 0.950 1_554 S
C183 C182 1.397 . S
C183 C184 1.334 1_554 S
C184 H155 0.950 . S
C184 C183 1.334 1_556 S
C184 C185 1.287 1_556 S
C185 C184 1.287 1_554 S
C185 C186 1.524 . S
C185 H188 0.999 . S
C186 H156 0.950 . S
C186 C185 1.524 . S
C186 C187 1.415 . S
C187 H157 0.950 . S
C187 C182 1.363 . S
C187 C186 1.415 . S
H188 C185 0.999 . S
H189 C170 0.913 . S
H190 C208 0.951 . S
H191 C210 0.951 . S
H192 C212 0.950 . S
H193 C213 0.950 . S
H194 C215 0.950 . S
H195 C218 0.950 . S
H196 C219 0.950 . S
H197 C221 0.950 . S
H198 C222 0.950 . S
H199 C223 0.951 . S
H200 C225 0.951 . S
H201 C227 0.950 . S
H202 C228 0.950 . S
H203 C230 0.950 . S
H204 C233 0.950 . S
H205 C234 0.950 . S
H206 C236 0.950 . S
H207 C237 0.950 . S
C208 H190 0.951 . S
C208 C209 1.366 . S
C208 C210 1.388 . S
C209 C208 1.366 . S
C209 C213 1.385 . S
C210 H191 0.951 . S
C210 C208 1.388 . S
C210 C211 1.366 . S
C211 C210 1.366 . S
C211 C212 1.414 . S
C211 C214 1.499 . S
C212 H192 0.950 . S
C212 C211 1.414 . S
C212 C213 1.374 . S
C213 H193 0.950 . S
C213 C209 1.385 . S
C213 C212 1.374 . S
C214 C211 1.499 . S
C214 C215 1.373 . S
C214 C216 1.389 . S
C215 H194 0.950 . S
C215 C214 1.373 . S
C215 C231 1.377 . S
C216 C214 1.389 . S
C216 C217 1.524 . S
C216 C230 1.377 . S
C217 C216 1.524 . S
C217 C218 1.397 . S
C217 C222 1.363 . S
C218 H195 0.950 . S
C218 C217 1.397 . S
C218 C219 1.334 . S
C219 H196 0.950 . S
C219 C218 1.334 . S
C219 C220 1.287 . S
C220 C219 1.287 . S
C220 C221 1.524 . S
C220 H239 0.913 . S
C221 H197 0.950 . S
C221 C220 1.524 . S
C221 C222 1.415 . S
C222 H198 0.950 . S
C222 C217 1.363 . S
C222 C221 1.415 . S
C223 H199 0.951 . S
C223 C224 1.366 . S
C223 C225 1.388 . S
C224 C223 1.366 . S
C224 C228 1.385 . S
C225 H200 0.951 . S
C225 C223 1.388 . S
C225 C226 1.366 . S
C226 C225 1.366 . S
C226 C227 1.414 . S
C226 C229 1.499 . S
C227 H201 0.950 . S
C227 C226 1.414 . S
C227 C228 1.374 . S
C228 H202 0.950 . S
C228 C224 1.385 . S
C228 C227 1.374 . S
C229 C226 1.499 . S
C229 C230 1.373 . S
C229 C231 1.389 . S
C230 H203 0.950 . S
C230 C216 1.377 . S
C230 C229 1.373 . S
C231 C215 1.377 . S
C231 C229 1.389 . S
C231 C232 1.524 . S
C232 C231 1.524 . S
C232 C233 1.397 . S
C232 C237 1.363 . S
C233 H204 0.950 . S
C233 C232 1.397 . S
C233 C234 1.334 . S
C234 H205 0.950 . S
C234 C233 1.334 . S
C234 C235 1.287 . S
C235 C234 1.287 . S
C235 C236 1.524 . S
C235 H238 0.999 . S
C236 H206 0.950 . S
C236 C235 1.524 . S
C236 C237 1.415 . S
C237 H207 0.950 . S
C237 C232 1.363 . S
C237 C236 1.415 . S
H238 C235 0.999 . S
H239 C220 0.913 . S
H240 C258 0.951 . S
H241 C260 0.951 . S
H242 C262 0.950 . S
H243 C263 0.950 1_556 S
H244 C265 0.950 . S
H245 C268 0.950 . S
H246 C269 0.950 . S
H247 C271 0.950 . S
H248 C272 0.950 . S
H249 C273 0.951 . S
H250 C275 0.951 . S
H251 C277 0.950 . S
H252 C278 0.950 . S
H253 C280 0.950 . S
H254 C283 0.950 . S
H255 C284 0.950 . S
H256 C286 0.950 . S
H257 C287 0.950 . S
C258 H240 0.951 . S
C258 C259 1.366 . S
C258 C260 1.388 . S
C259 C258 1.366 . S
C259 C263 1.385 . S
C260 H241 0.951 . S
C260 C258 1.388 . S
C260 C261 1.366 . S
C261 C260 1.366 . S
C261 C262 1.414 . S
C261 C264 1.499 . S
C262 H242 0.950 . S
C262 C261 1.414 . S
C262 C263 1.374 . S
C263 H243 0.950 1_554 S
C263 C259 1.385 . S
C263 C262 1.374 . S
C264 C261 1.499 . S
C264 C265 1.373 1_554 S
C264 C266 1.389 . S
C265 H244 0.950 . S
C265 C264 1.373 1_556 S
C265 C281 1.377 . S
C266 C264 1.389 . S
C266 C267 1.524 . S
C266 C280 1.377 . S
C267 C266 1.524 . S
C267 C268 1.397 . S
C267 C272 1.363 . S
C268 H245 0.950 . S
C268 C267 1.397 . S
C268 C269 1.334 . S
C269 H246 0.950 . S
C269 C268 1.334 . S
C269 C270 1.287 . S
C270 C269 1.287 . S
C270 C271 1.524 . S
C270 H289 0.913 . S
C271 H247 0.950 . S
C271 C270 1.524 . S
C271 C272 1.415 . S
C272 H248 0.950 . S
C272 C267 1.363 . S
C272 C271 1.415 . S
C273 H249 0.951 . S
C273 C274 1.366 . S
C273 C275 1.388 . S
C274 C273 1.366 . S
C274 C278 1.385 . S
C275 H250 0.951 . S
C275 C273 1.388 . S
C275 C276 1.366 . S
C276 C275 1.366 . S
C276 C277 1.414 . S
C276 C279 1.499 . S
C277 H251 0.950 . S
C277 C276 1.414 . S
C277 C278 1.374 . S
C278 H252 0.950 . S
C278 C274 1.385 . S
C278 C277 1.374 . S
C279 C276 1.499 . S
C279 C280 1.373 . S
C279 C281 1.389 1_554 S
C280 H253 0.950 . S
C280 C266 1.377 . S
C280 C279 1.373 . S
C281 C265 1.377 . S
C281 C279 1.389 1_556 S
C281 C282 1.524 . S
C282 C281 1.524 . S
C282 C283 1.397 . S
C282 C287 1.363 . S
C283 H254 0.950 . S
C283 C282 1.397 . S
C283 C284 1.334 . S
C284 H255 0.950 . S
C284 C283 1.334 . S
C284 C285 1.287 . S
C285 C284 1.287 . S
C285 C286 1.524 . S
C285 H288 0.999 . S
C286 H256 0.950 . S
C286 C285 1.524 . S
C286 C287 1.415 . S
C287 H257 0.950 . S
C287 C282 1.363 . S
C287 C286 1.415 . S
H288 C285 0.999 . S
H289 C270 0.913 . S
H290 C308 0.951 . S
H291 C310 0.951 . S
H292 C312 0.950 . S
H293 C313 0.950 . S
H294 C315 0.950 . S
H295 C318 0.950 . S
H296 C319 0.950 . S
H297 C321 0.950 . S
H298 C322 0.950 . S
H299 C323 0.951 . S
H300 C325 0.951 . S
H301 C327 0.950 . S
H302 C328 0.950 . S
H303 C330 0.950 . S
H304 C333 0.950 . S
H305 C334 0.950 . S
H306 C336 0.950 . S
H307 C337 0.950 . S
C308 H290 0.951 . S
C308 C309 1.366 . S
C308 C310 1.388 . S
C309 C308 1.366 . S
C309 C313 1.385 . S
C310 H291 0.951 . S
C310 C308 1.388 . S
C310 C311 1.366 . S
C311 C310 1.366 . S
C311 C312 1.414 . S
C311 C314 1.499 . S
C312 H292 0.950 . S
C312 C311 1.414 . S
C312 C313 1.374 . S
C313 H293 0.950 . S
C313 C309 1.385 . S
C313 C312 1.374 . S
C314 C311 1.499 . S
C314 C315 1.373 . S
C314 C316 1.389 . S
C315 H294 0.950 . S
C315 C314 1.373 . S
C315 C331 1.377 . S
C316 C314 1.389 . S
C316 C317 1.524 . S
C316 C330 1.377 . S
C317 C316 1.524 . S
C317 C318 1.397 . S
C317 C322 1.363 . S
C318 H295 0.950 . S
C318 C317 1.397 . S
C318 C319 1.334 . S
C319 H296 0.950 . S
C319 C318 1.334 . S
C319 C320 1.287 . S
C320 C319 1.287 . S
C320 C321 1.524 . S
C320 H339 0.913 . S
C321 H297 0.950 . S
C321 C320 1.524 . S
C321 C322 1.415 . S
C322 H298 0.950 . S
C322 C317 1.363 . S
C322 C321 1.415 . S
C323 H299 0.951 . S
C323 C324 1.366 . S
C323 C325 1.388 . S
C324 C323 1.366 . S
C324 C328 1.385 . S
C325 H300 0.951 . S
C325 C323 1.388 . S
C325 C326 1.366 . S
C326 C325 1.366 . S
C326 C327 1.414 . S
C326 C329 1.499 . S
C327 H301 0.950 . S
C327 C326 1.414 . S
C327 C328 1.374 . S
C328 H302 0.950 . S
C328 C324 1.385 . S
C328 C327 1.374 . S
C329 C326 1.499 . S
C329 C330 1.373 . S
C329 C331 1.389 . S
C330 H303 0.950 . S
C330 C316 1.377 . S
C330 C329 1.373 . S
C331 C315 1.377 . S
C331 C329 1.389 . S
C331 C332 1.524 . S
C332 C331 1.524 . S
C332 C333 1.397 . S
C332 C337 1.363 . S
C333 H304 0.950 . S
C333 C332 1.397 . S
C333 C334 1.334 1_565 S
C334 H305 0.950 . S
C334 C333 1.334 1_545 S
C334 C335 1.287 . S
C335 C334 1.287 . S
C335 C336 1.524 1_545 S
C335 H338 0.999 . S
C336 H306 0.950 . S
C336 C335 1.524 1_565 S
C336 C337 1.415 . S
C337 H307 0.950 . S
C337 C332 1.363 . S
C337 C336 1.415 . S
H338 C335 0.999 . S
H339 C320 0.913 . S
H340 C358 0.951 . S
H341 C360 0.951 . S
H342 C362 0.950 . S
H343 C363 0.950 . S
H344 C365 0.950 . S
H345 C368 0.950 . S
H346 C369 0.950 . S
H347 C371 0.950 . S
H348 C372 0.950 . S
H349 C373 0.951 . S
H350 C375 0.951 . S
H351 C377 0.950 . S
H352 C378 0.950 . S
H353 C380 0.950 . S
H354 C383 0.950 . S
H355 C384 0.950 . S
H356 C386 0.950 . S
H357 C387 0.950 . S
C358 H340 0.951 . S
C358 C359 1.366 . S
C358 C360 1.388 . S
C359 C358 1.366 . S
C359 C363 1.385 . S
C360 H341 0.951 . S
C360 C358 1.388 . S
C360 C361 1.366 . S
C361 C360 1.366 . S
C361 C362 1.414 . S
C361 C364 1.499 . S
C362 H342 0.950 . S
C362 C361 1.414 . S
C362 C363 1.374 . S
C363 H343 0.950 . S
C363 C359 1.385 . S
C363 C362 1.374 . S
C364 C361 1.499 . S
C364 C365 1.373 . S
C364 C366 1.389 . S
C365 H344 0.950 . S
C365 C364 1.373 . S
C365 C381 1.377 . S
C366 C364 1.389 . S
C366 C367 1.524 . S
C366 C380 1.377 . S
C367 C366 1.524 . S
C367 C368 1.397 . S
C367 C372 1.363 . S
C368 H345 0.950 . S
C368 C367 1.397 . S
C368 C369 1.334 . S
C369 H346 0.950 . S
C369 C368 1.334 . S
C369 C370 1.287 . S
C370 C369 1.287 . S
C370 C371 1.524 . S
C370 H389 0.913 . S
C371 H347 0.950 . S
C371 C370 1.524 . S
C371 C372 1.415 . S
C372 H348 0.950 . S
C372 C367 1.363 . S
C372 C371 1.415 . S
C373 H349 0.951 . S
C373 C374 1.366 . S
C373 C375 1.388 . S
C374 C373 1.366 . S
C374 C378 1.385 . S
C375 H350 0.951 . S
C375 C373 1.388 . S
C375 C376 1.366 . S
C376 C375 1.366 . S
C376 C377 1.414 . S
C376 C379 1.499 . S
C377 H351 0.950 . S
C377 C376 1.414 . S
C377 C378 1.374 . S
C378 H352 0.950 . S
C378 C374 1.385 . S
C378 C377 1.374 . S
C379 C376 1.499 . S
C379 C380 1.373 . S
C379 C381 1.389 . S
C380 H353 0.950 . S
C380 C366 1.377 . S
C380 C379 1.373 . S
C381 C365 1.377 . S
C381 C379 1.389 . S
C381 C382 1.524 . S
C382 C381 1.524 . S
C382 C383 1.397 . S
C382 C387 1.363 . S
C383 H354 0.950 . S
C383 C382 1.397 . S
C383 C384 1.334 . S
C384 H355 0.950 . S
C384 C383 1.334 . S
C384 C385 1.287 . S
C385 C384 1.287 . S
C385 C386 1.524 . S
C385 H388 0.999 . S
C386 H356 0.950 . S
C386 C385 1.524 . S
C386 C387 1.415 . S
C387 H357 0.950 . S
C387 C382 1.363 . S
C387 C386 1.415 . S
H388 C385 0.999 . S
H389 C370 0.913 . S
H390 C408 0.951 . S
H391 C410 0.951 . S
H392 C412 0.950 . S
H393 C413 0.950 . S
H394 C415 0.950 . S
H395 C418 0.950 . S
H396 C419 0.950 . S
H397 C421 0.950 . S
H398 C422 0.950 . S
H399 C423 0.951 . S
H400 C425 0.951 . S
H401 C427 0.950 . S
H402 C428 0.950 . S
H403 C430 0.950 . S
H404 C433 0.950 . S
H405 C434 0.950 1_455 S
H406 C436 0.950 . S
H407 C437 0.950 . S
C408 H390 0.951 . S
C408 C409 1.366 . S
C408 C410 1.388 . S
C409 C408 1.366 . S
C409 C413 1.385 . S
C410 H391 0.951 . S
C410 C408 1.388 . S
C410 C411 1.366 . S
C411 C410 1.366 . S
C411 C412 1.414 . S
C411 C414 1.499 . S
C412 H392 0.950 . S
C412 C411 1.414 . S
C412 C413 1.374 . S
C413 H393 0.950 . S
C413 C409 1.385 . S
C413 C412 1.374 . S
C414 C411 1.499 . S
C414 C415 1.373 . S
C414 C416 1.389 . S
C415 H394 0.950 . S
C415 C414 1.373 . S
C415 C431 1.377 . S
C416 C414 1.389 . S
C416 C417 1.524 . S
C416 C430 1.377 . S
C417 C416 1.524 . S
C417 C418 1.397 . S
C417 C422 1.363 . S
C418 H395 0.950 . S
C418 C417 1.397 . S
C418 C419 1.334 . S
C419 H396 0.950 . S
C419 C418 1.334 . S
C419 C420 1.287 . S
C420 C419 1.287 . S
C420 C421 1.524 . S
C420 H439 0.913 . S
C421 H397 0.950 . S
C421 C420 1.524 . S
C421 C422 1.415 . S
C422 H398 0.950 . S
C422 C417 1.363 . S
C422 C421 1.415 . S
C423 H399 0.951 . S
C423 C424 1.366 . S
C423 C425 1.388 . S
C424 C423 1.366 . S
C424 C428 1.385 . S
C425 H400 0.951 . S
C425 C423 1.388 . S
C425 C426 1.366 . S
C426 C425 1.366 . S
C426 C427 1.414 . S
C426 C429 1.499 . S
C427 H401 0.950 . S
C427 C426 1.414 . S
C427 C428 1.374 . S
C428 H402 0.950 . S
C428 C424 1.385 . S
C428 C427 1.374 . S
C429 C426 1.499 . S
C429 C430 1.373 . S
C429 C431 1.389 . S
C430 H403 0.950 . S
C430 C416 1.377 . S
C430 C429 1.373 . S
C431 C415 1.377 . S
C431 C429 1.389 . S
C431 C432 1.524 . S
C432 C431 1.524 . S
C432 C433 1.397 . S
C432 C437 1.363 . S
C433 H404 0.950 . S
C433 C432 1.397 . S
C433 C434 1.334 . S
C434 H405 0.950 1_655 S
C434 C433 1.334 . S
C434 C435 1.287 . S
C435 C434 1.287 . S
C435 C436 1.524 . S
C435 H438 0.981 1_655 S
C436 H406 0.950 . S
C436 C435 1.524 . S
C436 C437 1.415 . S
C437 H407 0.950 . S
C437 C432 1.363 . S
C437 C436 1.415 . S
H438 C435 0.981 1_455 S
H439 C420 0.913 . S
H440 C458 0.951 . S
H441 C460 0.951 . S
H442 C462 0.950 . S
H443 C463 0.950 . S
H444 C465 0.950 . S
H445 C468 0.950 . S
H446 C469 0.950 . S
H447 C471 0.950 . S
H448 C472 0.950 . S
H449 C473 0.951 . S
H450 C475 0.951 . S
H451 C477 0.950 . S
H452 C478 0.950 . S
H453 C480 0.950 . S
H454 C483 0.950 . S
H455 C484 0.950 . S
H456 C486 0.950 . S
H457 C487 0.950 . S
C458 H440 0.951 . S
C458 C459 1.366 . S
C458 C460 1.388 . S
C459 C458 1.366 . S
C459 C463 1.385 . S
C460 H441 0.951 . S
C460 C458 1.388 . S
C460 C461 1.366 . S
C461 C460 1.366 . S
C461 C462 1.414 . S
C461 C464 1.499 . S
C462 H442 0.950 . S
C462 C461 1.414 . S
C462 C463 1.374 . S
C463 H443 0.950 . S
C463 C459 1.385 . S
C463 C462 1.374 . S
C464 C461 1.499 . S
C464 C465 1.373 . S
C464 C466 1.389 . S
C465 H444 0.950 . S
C465 C464 1.373 . S
C465 C481 1.377 . S
C466 C464 1.389 . S
C466 C467 1.524 . S
C466 C480 1.377 . S
C467 C466 1.524 . S
C467 C468 1.397 . S
C467 C472 1.363 . S
C468 H445 0.950 . S
C468 C467 1.397 . S
C468 C469 1.334 . S
C469 H446 0.950 . S
C469 C468 1.334 . S
C469 C470 1.287 . S
C470 C469 1.287 . S
C470 C471 1.524 . S
C470 H489 0.913 . S
C471 H447 0.950 . S
C471 C470 1.524 . S
C471 C472 1.415 . S
C472 H448 0.950 . S
C472 C467 1.363 . S
C472 C471 1.415 . S
C473 H449 0.951 . S
C473 C474 1.366 . S
C473 C475 1.388 . S
C474 C473 1.366 . S
C474 C478 1.385 . S
C475 H450 0.951 . S
C475 C473 1.388 . S
C475 C476 1.366 . S
C476 C475 1.366 . S
C476 C477 1.414 . S
C476 C479 1.499 . S
C477 H451 0.950 . S
C477 C476 1.414 . S
C477 C478 1.374 . S
C478 H452 0.950 . S
C478 C474 1.385 . S
C478 C477 1.374 . S
C479 C476 1.499 . S
C479 C480 1.373 . S
C479 C481 1.389 . S
C480 H453 0.950 . S
C480 C466 1.377 . S
C480 C479 1.373 . S
C481 C465 1.377 . S
C481 C479 1.389 . S
C481 C482 1.524 . S
C482 C481 1.524 . S
C482 C483 1.397 . S
C482 C487 1.363 . S
C483 H454 0.950 . S
C483 C482 1.397 . S
C483 C484 1.334 . S
C484 H455 0.950 . S
C484 C483 1.334 . S
C484 C485 1.287 . S
C485 C484 1.287 . S
C485 C486 1.524 . S
C485 H488 0.999 . S
C486 H456 0.950 . S
C486 C485 1.524 . S
C486 C487 1.415 . S
C487 H457 0.950 . S
C487 C482 1.363 . S
C487 C486 1.415 . S
H488 C485 0.999 . S
H489 C470 0.913 . S
H490 C508 0.951 . S
H491 C510 0.951 . S
H492 C512 0.950 . S
H493 C513 0.950 . S
H494 C515 0.950 . S
H495 C518 0.950 . S
H496 C519 0.950 . S
H497 C521 0.950 . S
H498 C522 0.950 . S
H499 C523 0.951 . S
H500 C525 0.951 . S
H501 C527 0.950 . S
H502 C528 0.950 . S
H503 C530 0.950 . S
H504 C533 0.950 . S
H505 C534 0.950 . S
H506 C536 0.950 . S
H507 C537 0.950 . S
C508 H490 0.951 . S
C508 C509 1.366 . S
C508 C510 1.388 . S
C509 C508 1.366 . S
C509 C513 1.385 . S
C510 H491 0.951 . S
C510 C508 1.388 . S
C510 C511 1.366 . S
C511 C510 1.366 . S
C511 C512 1.414 . S
C511 C514 1.499 . S
C512 H492 0.950 . S
C512 C511 1.414 . S
C512 C513 1.374 . S
C513 H493 0.950 . S
C513 C509 1.385 . S
C513 C512 1.374 . S
C514 C511 1.499 . S
C514 C515 1.373 . S
C514 C516 1.389 . S
C515 H494 0.950 . S
C515 C514 1.373 . S
C515 C531 1.377 . S
C516 C514 1.389 . S
C516 C517 1.524 . S
C516 C530 1.377 . S
C517 C516 1.524 . S
C517 C518 1.397 . S
C517 C522 1.363 . S
C518 H495 0.950 . S
C518 C517 1.397 . S
C518 C519 1.334 . S
C519 H496 0.950 . S
C519 C518 1.334 . S
C519 C520 1.287 . S
C520 C519 1.287 . S
C520 C521 1.524 . S
C520 H539 0.913 . S
C521 H497 0.950 . S
C521 C520 1.524 . S
C521 C522 1.415 . S
C522 H498 0.950 . S
C522 C517 1.363 . S
C522 C521 1.415 . S
C523 H499 0.951 . S
C523 C524 1.366 . S
C523 C525 1.388 . S
C524 C523 1.366 . S
C524 C528 1.385 . S
C525 H500 0.951 . S
C525 C523 1.388 . S
C525 C526 1.366 . S
C526 C525 1.366 . S
C526 C527 1.414 . S
C526 C529 1.499 . S
C527 H501 0.950 . S
C527 C526 1.414 . S
C527 C528 1.374 . S
C528 H502 0.950 . S
C528 C524 1.385 . S
C528 C527 1.374 . S
C529 C526 1.499 . S
C529 C530 1.373 . S
C529 C531 1.389 . S
C530 H503 0.950 . S
C530 C516 1.377 . S
C530 C529 1.373 . S
C531 C515 1.377 . S
C531 C529 1.389 . S
C531 C532 1.524 . S
C532 C531 1.524 . S
C532 C533 1.397 . S
C532 C537 1.363 . S
C533 H504 0.950 . S
C533 C532 1.397 . S
C533 C534 1.334 . S
C534 H505 0.950 . S
C534 C533 1.334 . S
C534 C535 1.287 . S
C535 C534 1.287 . S
C535 C536 1.524 . S
C535 H538 0.999 . S
C536 H506 0.950 . S
C536 C535 1.524 . S
C536 C537 1.415 . S
C537 H507 0.950 . S
C537 C532 1.363 . S
C537 C536 1.415 . S
H538 C535 0.999 . S
H539 C520 0.913 . S
H540 C558 0.951 . S
H541 C560 0.951 . S
H542 C562 0.950 . S
H543 C563 0.950 . S
H544 C565 0.950 . S
H545 C568 0.950 . S
H546 C569 0.950 . S
H547 C571 0.950 . S
H548 C572 0.950 . S
H549 C573 0.967 . S
H550 C575 0.951 . S
H551 C577 0.950 . S
H552 C578 0.950 . S
H553 C580 0.950 . S
H554 C583 0.950 . S
H555 C584 0.950 . S
H556 C586 0.950 . S
H557 C587 0.950 . S
C558 H540 0.951 . S
C558 C559 1.366 . S
C558 C560 1.388 . S
C559 C558 1.366 . S
C559 C563 1.385 . S
C560 H541 0.951 . S
C560 C558 1.388 . S
C560 C561 1.366 . S
C561 C560 1.366 . S
C561 C562 1.414 . S
C561 C564 1.499 . S
C562 H542 0.950 . S
C562 C561 1.414 . S
C562 C563 1.374 . S
C563 H543 0.950 . S
C563 C559 1.385 . S
C563 C562 1.374 . S
C564 C561 1.499 . S
C564 C565 1.373 . S
C564 C566 1.389 . S
C565 H544 0.950 . S
C565 C564 1.373 . S
C565 C581 1.377 . S
C566 C564 1.389 . S
C566 C567 1.524 . S
C566 C580 1.377 . S
C567 C566 1.524 . S
C567 C568 1.397 . S
C567 C572 1.363 . S
C568 H545 0.950 . S
C568 C567 1.397 . S
C568 C569 1.334 . S
C569 H546 0.950 . S
C569 C568 1.334 . S
C569 C570 1.287 . S
C570 C569 1.287 . S
C570 C571 1.524 . S
C570 H589 0.913 . S
C571 H547 0.950 . S
C571 C570 1.524 . S
C571 C572 1.415 . S
C572 H548 0.950 . S
C572 C567 1.363 . S
C572 C571 1.415 . S
C573 H549 0.967 . S
C573 C574 1.366 . S
C573 C575 1.388 . S
C574 C573 1.366 . S
C574 C578 1.385 . S
C575 H550 0.951 . S
C575 C573 1.388 . S
C575 C576 1.366 . S
C576 C575 1.366 . S
C576 C577 1.414 . S
C576 C579 1.499 . S
C577 H551 0.950 . S
C577 C576 1.414 . S
C577 C578 1.374 . S
C578 H552 0.950 . S
C578 C574 1.385 . S
C578 C577 1.374 . S
C579 C576 1.499 . S
C579 C580 1.373 . S
C579 C581 1.389 . S
C580 H553 0.950 . S
C580 C566 1.377 . S
C580 C579 1.373 . S
C581 C565 1.377 . S
C581 C579 1.389 . S
C581 C582 1.524 . S
C582 C581 1.524 . S
C582 C583 1.397 . S
C582 C587 1.363 . S
C583 H554 0.950 . S
C583 C582 1.397 . S
C583 C584 1.334 . S
C584 H555 0.950 . S
C584 C583 1.334 . S
C584 C585 1.287 . S
C585 C584 1.287 . S
C585 C586 1.524 . S
C585 H588 0.999 . S
C586 H556 0.950 . S
C586 C585 1.524 . S
C586 C587 1.415 . S
C587 H557 0.950 . S
C587 C582 1.363 . S
C587 C586 1.415 . S
H588 C585 0.999 . S
H589 C570 0.913 . S
H590 C608 0.951 . S
H591 C610 0.951 . S
H592 C612 0.950 . S
H593 C613 0.950 . S
H594 C615 0.950 . S
H595 C618 0.950 . S
H596 C619 0.950 . S
H597 C621 0.950 . S
H598 C622 0.950 . S
H599 C623 0.951 . S
H600 C625 0.951 . S
H601 C627 0.950 . S
H602 C628 0.950 . S
H603 C630 0.950 . S
H604 C633 0.950 . S
H605 C634 0.950 . S
H606 C636 0.950 . S
H607 C637 0.950 . S
C608 H590 0.951 . S
C608 C609 1.366 . S
C608 C610 1.388 . S
C609 C608 1.366 . S
C609 C613 1.385 . S
C610 H591 0.951 . S
C610 C608 1.388 . S
C610 C611 1.366 . S
C611 C610 1.366 . S
C611 C612 1.414 . S
C611 C614 1.499 . S
C612 H592 0.950 . S
C612 C611 1.414 . S
C612 C613 1.374 . S
C613 H593 0.950 . S
C613 C609 1.385 . S
C613 C612 1.374 . S
C614 C611 1.499 . S
C614 C615 1.373 . S
C614 C616 1.389 . S
C615 H594 0.950 . S
C615 C614 1.373 . S
C615 C631 1.377 . S
C616 C614 1.389 . S
C616 C617 1.524 . S
C616 C630 1.377 . S
C617 C616 1.524 . S
C617 C618 1.397 . S
C617 C622 1.363 . S
C618 H595 0.950 . S
C618 C617 1.397 . S
C618 C619 1.334 . S
C619 H596 0.950 . S
C619 C618 1.334 . S
C619 C620 1.287 . S
C620 C619 1.287 . S
C620 C621 1.524 . S
C620 H639 0.913 . S
C621 H597 0.950 . S
C621 C620 1.524 . S
C621 C622 1.415 . S
C622 H598 0.950 . S
C622 C617 1.363 . S
C622 C621 1.415 . S
C623 H599 0.951 . S
C623 C624 1.366 . S
C623 C625 1.388 . S
C624 C623 1.366 . S
C624 C628 1.385 . S
C625 H600 0.951 . S
C625 C623 1.388 . S
C625 C626 1.366 . S
C626 C625 1.366 . S
C626 C627 1.414 . S
C626 C629 1.499 . S
C627 H601 0.950 . S
C627 C626 1.414 . S
C627 C628 1.374 . S
C628 H602 0.950 . S
C628 C624 1.385 . S
C628 C627 1.374 . S
C629 C626 1.499 . S
C629 C630 1.373 . S
C629 C631 1.389 . S
C630 H603 0.950 . S
C630 C616 1.377 . S
C630 C629 1.373 . S
C631 C615 1.377 . S
C631 C629 1.389 . S
C631 C632 1.524 . S
C632 C631 1.524 . S
C632 C633 1.397 . S
C632 C637 1.363 . S
C633 H604 0.950 . S
C633 C632 1.397 . S
C633 C634 1.334 . S
C634 H605 0.950 . S
C634 C633 1.334 . S
C634 C635 1.287 . S
C635 C634 1.287 . S
C635 C636 1.524 . S
C635 H638 0.999 . S
C636 H606 0.950 . S
C636 C635 1.524 . S
C636 C637 1.415 . S
C637 H607 0.950 . S
C637 C632 1.363 . S
C637 C636 1.415 . S
H638 C635 0.999 . S
H639 C620 0.913 . S
H640 C658 0.951 . S
H641 C660 0.951 . S
H642 C662 0.950 . S
H643 C663 0.950 1_554 S
H644 C665 0.950 . S
H645 C668 0.950 . S
H646 C669 0.950 . S
H647 C671 0.950 . S
H648 C672 0.950 . S
H649 C673 0.951 1_545 S
H650 C675 0.951 . S
H651 C677 0.950 . S
H652 C678 0.950 . S
H653 C680 0.950 . S
H654 C683 0.950 . S
H655 C684 0.923 1_655 S
H656 C686 0.950 1_545 S
H657 C687 0.950 . S
C658 H640 0.951 . S
C658 C659 1.366 . S
C658 C660 1.388 . S
C659 C658 1.366 . S
C659 C663 1.385 . S
C660 H641 0.951 . S
C660 C658 1.388 . S
C660 C661 1.366 . S
C661 C660 1.366 . S
C661 C662 1.414 . S
C661 C664 1.499 . S
C662 H642 0.950 . S
C662 C661 1.414 . S
C662 C663 1.374 . S
C663 H643 0.950 1_556 S
C663 C659 1.385 . S
C663 C662 1.374 . S
C664 C661 1.499 . S
C664 C665 1.373 . S
C664 C666 1.389 . S
C665 H644 0.950 . S
C665 C664 1.373 . S
C665 C681 1.377 . S
C666 C664 1.389 . S
C666 C667 1.524 . S
C666 C680 1.377 . S
C667 C666 1.524 . S
C667 C668 1.397 . S
C667 C672 1.363 . S
C668 H645 0.950 . S
C668 C667 1.397 . S
C668 C669 1.334 . S
C669 H646 0.950 . S
C669 C668 1.334 . S
C669 C670 1.287 . S
C670 C669 1.287 . S
C670 C671 1.524 . S
C670 H689 0.913 . S
C671 H647 0.950 . S
C671 C670 1.524 . S
C671 C672 1.415 . S
C672 H648 0.950 . S
C672 C667 1.363 . S
C672 C671 1.415 . S
C673 H649 0.951 1_565 S
C673 C674 1.366 . S
C673 C675 1.388 . S
C674 C673 1.366 . S
C674 C678 1.385 . S
C675 H650 0.951 . S
C675 C673 1.388 . S
C675 C676 1.366 . S
C676 C675 1.366 . S
C676 C677 1.414 . S
C676 C679 1.499 . S
C677 H651 0.950 . S
C677 C676 1.414 . S
C677 C678 1.374 . S
C678 H652 0.950 . S
C678 C674 1.385 . S
C678 C677 1.374 . S
C679 C676 1.499 . S
C679 C680 1.373 . S
C679 C681 1.389 . S
C680 H653 0.950 . S
C680 C666 1.377 . S
C680 C679 1.373 . S
C681 C665 1.377 . S
C681 C679 1.389 . S
C681 C682 1.524 . S
C682 C681 1.524 . S
C682 C683 1.397 . S
C682 C687 1.363 . S
C683 H654 0.950 . S
C683 C682 1.397 . S
C683 C684 1.334 . S
C684 H655 0.923 1_455 S
C684 C683 1.334 . S
C684 C685 1.287 . S
C685 C684 1.287 . S
C685 C686 1.524 . S
C685 H688 0.982 1_455 S
C686 H656 0.950 1_565 S
C686 C685 1.524 . S
C686 C687 1.415 . S
C687 H657 0.950 . S
C687 C682 1.363 . S
C687 C686 1.415 . S
H688 C685 0.982 1_655 S
H689 C670 0.913 . S
C124 C64 1.243 . S
C109 C40 1.420 . S
C159 C4 1.451 . S
C174 C85 1.260 . S
C209 C16 1.629 . S
C224 C61 1.433 . S
C259 C28 1.627 . S
C274 C82 1.420 . S
C324 C66 1.504 . S
C309 C9 1.518 . S
C374 C86 1.559 . S
C359 C18 1.617 . S
C409 C33 1.591 . S
C424 C62 1.554 . S
C459 C45 1.527 . S
C474 C84 1.478 . S
C524 C83 1.483 . S
C509 C21 1.521 . S
C574 C65 1.490 . S
C559 C30 1.544 . S
C624 C87 1.430 . S
C609 C42 1.465 . S
C659 C6 1.466 1_556 S
C674 C63 1.416 . S
