# Generated by pormake.
# Topology eea, (3,6)-cn, num edge types: 1
# Building blocks:
#     Node 0, Type 0, BuildingBlock: BETDAH_clean_linker_0, # of connection points: 3
#     Node 1, Type 0, BuildingBlock: BETDAH_clean_linker_0, # of connection points: 3
#     Node 2, Type 0, BuildingBlock: BETDAH_clean_linker_0, # of connection points: 3
#     Node 3, Type 0, BuildingBlock: BETDAH_clean_linker_0, # of connection points: 3
#     Node 4, Type 0, BuildingBlock: BETDAH_clean_linker_0, # of connection points: 3
#     Node 5, Type 0, BuildingBlock: BETDAH_clean_linker_0, # of connection points: 3
#     Node 6, Type 0, BuildingBlock: BETDAH_clean_linker_0, # of connection points: 3
#     Node 7, Type 0, BuildingBlock: BETDAH_clean_linker_0, # of connection points: 3
#     Node 8, Type 0, BuildingBlock: BETDAH_clean_linker_0, # of connection points: 3
#     Node 9, Type 0, BuildingBlock: BETDAH_clean_linker_0, # of connection points: 3
#     Node 10, Type 0, BuildingBlock: BETDAH_clean_linker_0, # of connection points: 3
#     Node 11, Type 0, BuildingBlock: BETDAH_clean_linker_0, # of connection points: 3
#     Node 12, Type 0, BuildingBlock: BETDAH_clean_linker_0, # of connection points: 3
#     Node 13, Type 0, BuildingBlock: BETDAH_clean_linker_0, # of connection points: 3
#     Node 14, Type 0, BuildingBlock: BETDAH_clean_linker_0, # of connection points: 3
#     Node 15, Type 0, BuildingBlock: BETDAH_clean_linker_0, # of connection points: 3
#     Node 16, Type 0, BuildingBlock: BETDAH_clean_linker_0, # of connection points: 3
#     Node 17, Type 0, BuildingBlock: BETDAH_clean_linker_0, # of connection points: 3
#     Node 18, Type 1, BuildingBlock: NUHQIS_clean_sbu_0, # of connection points: 6
#     Node 19, Type 1, BuildingBlock: NUHQIS_clean_sbu_0, # of connection points: 6
#     Node 20, Type 1, BuildingBlock: NUHQIS_clean_sbu_0, # of connection points: 6
#     Node 21, Type 1, BuildingBlock: NUHQIS_clean_sbu_0, # of connection points: 6
#     Node 22, Type 1, BuildingBlock: NUHQIS_clean_sbu_0, # of connection points: 6
#     Node 23, Type 1, BuildingBlock: NUHQIS_clean_sbu_0, # of connection points: 6
#     Node 24, Type 1, BuildingBlock: NUHQIS_clean_sbu_0, # of connection points: 6
#     Node 25, Type 1, BuildingBlock: NUHQIS_clean_sbu_0, # of connection points: 6
#     Node 26, Type 1, BuildingBlock: NUHQIS_clean_sbu_0, # of connection points: 6
#     Edge 27, Type (0, 1), BuildingBlock: OJICUG_clean_linker_0, # of connection points: 2
#     Edge 28, Type (0, 1), BuildingBlock: OJICUG_clean_linker_0, # of connection points: 2
#     Edge 29, Type (0, 1), BuildingBlock: OJICUG_clean_linker_0, # of connection points: 2
#     Edge 30, Type (0, 1), BuildingBlock: OJICUG_clean_linker_0, # of connection points: 2
#     Edge 31, Type (0, 1), BuildingBlock: OJICUG_clean_linker_0, # of connection points: 2
#     Edge 32, Type (0, 1), BuildingBlock: OJICUG_clean_linker_0, # of connection points: 2
#     Edge 33, Type (0, 1), BuildingBlock: OJICUG_clean_linker_0, # of connection points: 2
#     Edge 34, Type (0, 1), BuildingBlock: OJICUG_clean_linker_0, # of connection points: 2
#     Edge 35, Type (0, 1), BuildingBlock: OJICUG_clean_linker_0, # of connection points: 2
#     Edge 36, Type (0, 1), BuildingBlock: OJICUG_clean_linker_0, # of connection points: 2
#     Edge 37, Type (0, 1), BuildingBlock: OJICUG_clean_linker_0, # of connection points: 2
#     Edge 38, Type (0, 1), BuildingBlock: OJICUG_clean_linker_0, # of connection points: 2
#     Edge 39, Type (0, 1), BuildingBlock: OJICUG_clean_linker_0, # of connection points: 2
#     Edge 40, Type (0, 1), BuildingBlock: OJICUG_clean_linker_0, # of connection points: 2
#     Edge 41, Type (0, 1), BuildingBlock: OJICUG_clean_linker_0, # of connection points: 2
#     Edge 42, Type (0, 1), BuildingBlock: OJICUG_clean_linker_0, # of connection points: 2
#     Edge 43, Type (0, 1), BuildingBlock: OJICUG_clean_linker_0, # of connection points: 2
#     Edge 44, Type (0, 1), BuildingBlock: OJICUG_clean_linker_0, # of connection points: 2
#     Edge 45, Type (0, 1), BuildingBlock: OJICUG_clean_linker_0, # of connection points: 2
#     Edge 46, Type (0, 1), BuildingBlock: OJICUG_clean_linker_0, # of connection points: 2
#     Edge 47, Type (0, 1), BuildingBlock: OJICUG_clean_linker_0, # of connection points: 2
#     Edge 48, Type (0, 1), BuildingBlock: OJICUG_clean_linker_0, # of connection points: 2
#     Edge 49, Type (0, 1), BuildingBlock: OJICUG_clean_linker_0, # of connection points: 2
#     Edge 50, Type (0, 1), BuildingBlock: OJICUG_clean_linker_0, # of connection points: 2
#     Edge 51, Type (0, 1), BuildingBlock: OJICUG_clean_linker_0, # of connection points: 2
#     Edge 52, Type (0, 1), BuildingBlock: OJICUG_clean_linker_0, # of connection points: 2
#     Edge 53, Type (0, 1), BuildingBlock: OJICUG_clean_linker_0, # of connection points: 2
#     Edge 54, Type (0, 1), BuildingBlock: OJICUG_clean_linker_0, # of connection points: 2
#     Edge 55, Type (0, 1), BuildingBlock: OJICUG_clean_linker_0, # of connection points: 2
#     Edge 56, Type (0, 1), BuildingBlock: OJICUG_clean_linker_0, # of connection points: 2
#     Edge 57, Type (0, 1), BuildingBlock: OJICUG_clean_linker_0, # of connection points: 2
#     Edge 58, Type (0, 1), BuildingBlock: OJICUG_clean_linker_0, # of connection points: 2
#     Edge 59, Type (0, 1), BuildingBlock: OJICUG_clean_linker_0, # of connection points: 2
#     Edge 60, Type (0, 1), BuildingBlock: OJICUG_clean_linker_0, # of connection points: 2
#     Edge 61, Type (0, 1), BuildingBlock: OJICUG_clean_linker_0, # of connection points: 2
#     Edge 62, Type (0, 1), BuildingBlock: OJICUG_clean_linker_0, # of connection points: 2
#     Edge 63, Type (0, 1), BuildingBlock: OJICUG_clean_linker_0, # of connection points: 2
#     Edge 64, Type (0, 1), BuildingBlock: OJICUG_clean_linker_0, # of connection points: 2
#     Edge 65, Type (0, 1), BuildingBlock: OJICUG_clean_linker_0, # of connection points: 2
#     Edge 66, Type (0, 1), BuildingBlock: OJICUG_clean_linker_0, # of connection points: 2
#     Edge 67, Type (0, 1), BuildingBlock: OJICUG_clean_linker_0, # of connection points: 2
#     Edge 68, Type (0, 1), BuildingBlock: OJICUG_clean_linker_0, # of connection points: 2
#     Edge 69, Type (0, 1), BuildingBlock: OJICUG_clean_linker_0, # of connection points: 2
#     Edge 70, Type (0, 1), BuildingBlock: OJICUG_clean_linker_0, # of connection points: 2
#     Edge 71, Type (0, 1), BuildingBlock: OJICUG_clean_linker_0, # of connection points: 2
#     Edge 72, Type (0, 1), BuildingBlock: OJICUG_clean_linker_0, # of connection points: 2
#     Edge 73, Type (0, 1), BuildingBlock: OJICUG_clean_linker_0, # of connection points: 2
#     Edge 74, Type (0, 1), BuildingBlock: OJICUG_clean_linker_0, # of connection points: 2
#     Edge 75, Type (0, 1), BuildingBlock: OJICUG_clean_linker_0, # of connection points: 2
#     Edge 76, Type (0, 1), BuildingBlock: OJICUG_clean_linker_0, # of connection points: 2
#     Edge 77, Type (0, 1), BuildingBlock: OJICUG_clean_linker_0, # of connection points: 2
#     Edge 78, Type (0, 1), BuildingBlock: OJICUG_clean_linker_0, # of connection points: 2
#     Edge 79, Type (0, 1), BuildingBlock: OJICUG_clean_linker_0, # of connection points: 2
#     Edge 80, Type (0, 1), BuildingBlock: OJICUG_clean_linker_0, # of connection points: 2
# Relax obj value: 0.059
# Max RMSD: 0.225
# Mean RMSD: 0.161
data_MOF--net-eea--node1-NUHQIS_clean_sbu_0--node2-BETDAH_clean_linker_0--edge1-OJICUG_clean_linker_0
_symmetry_space_group_name_H-M    P1
_symmetry_Int_Tables_number       1
_symmetry_cell_setting            triclinic
loop_
_symmetry_equiv_pos_as_xyz
'x, y, z'
_cell_length_a     39.490879
_cell_length_b     39.64549
_cell_length_c     54.510174
_cell_angle_alpha  93.31021
_cell_angle_beta   93.458338
_cell_angle_gamma 119.79674
loop_
_atom_site_label
_atom_site_type_symbol
_atom_site_fract_x
_atom_site_fract_y
_atom_site_fract_z
_atom_type_partial_charge
H0 H 0.2645 0.07308 0.42993 0.0
H1 H 0.31064 0.19733 0.43164 0.0
H2 H 0.2749 0.12652 0.36224 0.0
C3 C 0.27192 0.09882 0.42048 0.0
C4 C 0.26668 0.09517 0.3945 0.0
C5 C 0.28792 0.13555 0.43423 0.0
C6 C 0.29817 0.16869 0.42155 0.0
C7 C 0.29331 0.16521 0.39568 0.0
C8 C 0.27763 0.12864 0.38225 0.0
N9 N 0.30651 0.19878 0.38292 0.0
C10 C 0.28594 0.2186 0.38185 0.0
H11 H 0.96136 0.21569 0.43458 0.0
H12 H 0.87949 0.09333 0.43714 0.0
H13 H 0.96953 0.12877 0.38823 0.0
C14 C 0.95083 0.18542 0.42818 0.0
C15 C 0.96938 0.17628 0.40974 0.0
C16 C 0.91866 0.15579 0.4385 0.0
C17 C 0.90381 0.11656 0.42923 0.0
C18 C 0.92214 0.10712 0.41089 0.0
C19 C 0.95499 0.13683 0.40166 0.0
N20 N 0.90992 0.06794 0.40228 0.0
C21 C 0.87157 0.03716 0.4009 0.0
H22 H 0.81766 0.75476 0.4461 0.0
H23 H 0.91612 0.73697 0.44588 0.0
H24 H 0.89025 0.78849 0.38565 0.0
C25 C 0.84292 0.75801 0.43741 0.0
C26 C 0.85091 0.77393 0.41451 0.0
C27 C 0.86669 0.74549 0.44921 0.0
C28 C 0.89842 0.748 0.43753 0.0
C29 C 0.90719 0.7636 0.41481 0.0
C30 C 0.8837 0.77699 0.40337 0.0
N31 N 0.93677 0.76071 0.40285 0.0
C32 C 0.96532 0.78908 0.39013 0.0
H33 H 0.05698 0.25518 0.58358 0.0
H34 H 0.15209 0.23148 0.59384 0.0
H35 H 0.06474 0.19435 0.64468 0.0
C36 C 0.07176 0.24299 0.59403 0.0
C37 C 0.05588 0.22418 0.61512 0.0
C38 C 0.10673 0.2463 0.58625 0.0
C39 C 0.12575 0.22999 0.59982 0.0
C40 C 0.10976 0.21053 0.62061 0.0
C41 C 0.07557 0.20833 0.62813 0.0
N42 N 0.12576 0.19135 0.6343 0.0
C43 C 0.16231 0.19444 0.63337 0.0
H44 H 0.75334 0.81089 0.60271 0.0
H45 H 0.7691 0.92667 0.60817 0.0
H46 H 0.82004 0.89247 0.66628 0.0
C47 C 0.76511 0.83935 0.61288 0.0
C48 C 0.78698 0.84764 0.63604 0.0
C49 C 0.75902 0.86782 0.6024 0.0
C50 C 0.77397 0.90465 0.61585 0.0
C51 C 0.79539 0.91299 0.63912 0.0
C52 C 0.80216 0.8848 0.64877 0.0
N53 N 0.81151 0.94958 0.6534 0.0
C54 C 0.80423 0.97937 0.64827 0.0
H55 H 0.20055 0.94382 0.5868 0.0
H56 H 0.10811 0.82366 0.57881 0.0
H57 H 0.13702 0.89227 0.64871 0.0
C58 C 0.17766 0.91894 0.59452 0.0
C59 C 0.17197 0.92246 0.61961 0.0
C60 C 0.15454 0.88364 0.5794 0.0
C61 C 0.12509 0.8517 0.58974 0.0
C62 C 0.118 0.85496 0.61441 0.0
C63 C 0.14119 0.89049 0.62931 0.0
N64 N 0.09149 0.82047 0.62459 0.0
C65 C 0.06036 0.81631 0.6373 0.0
H66 H 0.93633 0.40912 0.76635 0.0
H67 H 0.98507 0.5338 0.77056 0.0
H68 H 0.94065 0.46511 0.70032 0.0
C69 C 0.94374 0.43535 0.75744 0.0
C70 C 0.93614 0.43258 0.73165 0.0
C71 C 0.96129 0.47166 0.77178 0.0
C72 C 0.97048 0.50533 0.76002 0.0
C73 C 0.96262 0.50276 0.73439 0.0
C74 C 0.94536 0.46652 0.72024 0.0
N75 N 0.97514 0.53715 0.72261 0.0
C76 C 0.95044 0.55208 0.7185 0.0
H77 H 0.62815 0.53964 0.76742 0.0
H78 H 0.51852 0.43194 0.74808 0.0
H79 H 0.60239 0.47713 0.6953 0.0
C80 C 0.60875 0.51478 0.7543 0.0
C81 C 0.62067 0.51136 0.73083 0.0
C82 C 0.5716 0.48661 0.76074 0.0
C83 C 0.54686 0.45418 0.74345 0.0
C84 C 0.5584 0.45093 0.71995 0.0
C85 C 0.59468 0.47965 0.71379 0.0
N86 N 0.53399 0.42022 0.70138 0.0
C87 C 0.50281 0.38407 0.70523 0.0
H88 H 0.48446 0.08946 0.78067 0.0
H89 H 0.58286 0.07137 0.78101 0.0
H90 H 0.55881 0.12455 0.72115 0.0
C91 C 0.51028 0.09336 0.77242 0.0
C92 C 0.51885 0.10962 0.74965 0.0
C93 C 0.53335 0.07994 0.78415 0.0
C94 C 0.565 0.08209 0.77251 0.0
C95 C 0.57452 0.09838 0.75005 0.0
C96 C 0.5517 0.11254 0.73869 0.0
N97 N 0.60474 0.09615 0.73848 0.0
C98 C 0.63225 0.12406 0.72499 0.0
H99 H 0.72197 0.57636 0.91333 0.0
H100 H 0.83557 0.58854 0.93134 0.0
H101 H 0.75241 0.55237 0.98484 0.0
C102 C 0.74255 0.57428 0.92631 0.0
C103 C 0.73164 0.56212 0.94981 0.0
C104 C 0.78014 0.58453 0.91945 0.0
C105 C 0.80619 0.57985 0.93589 0.0
C106 C 0.79563 0.56752 0.9593 0.0
C107 C 0.75894 0.55949 0.96618 0.0
N108 N 0.82336 0.5693 0.97787 0.0
C109 C 0.84647 0.55207 0.97563 0.0
H110 H 0.43104 0.14602 0.93207 0.0
H111 H 0.41739 0.24684 0.94446 0.0
H112 H 0.45468 0.20496 1.00516 0.0
C113 C 0.43294 0.16948 0.94437 0.0
C114 C 0.44534 0.17289 0.96964 0.0
C115 C 0.42223 0.1957 0.93503 0.0
C116 C 0.42504 0.22614 0.95132 0.0
C117 C 0.4369 0.22932 0.97658 0.0
C118 C 0.44651 0.20259 0.98552 0.0
N119 N 0.43831 0.25816 0.99387 0.0
C120 C 0.44088 0.29283 0.98793 0.0
H121 H 0.86527 0.27742 0.92154 0.0
H122 H 0.77478 0.15667 0.91399 0.0
H123 H 0.80073 0.22561 0.9833 0.0
C124 C 0.84192 0.25294 0.92926 0.0
C125 C 0.8357 0.25665 0.9543 0.0
C126 C 0.81992 0.21719 0.91438 0.0
C127 C 0.7916 0.18472 0.92493 0.0
C128 C 0.7843 0.18782 0.94952 0.0
C129 C 0.80605 0.22379 0.96414 0.0
N130 N 0.75854 0.15316 0.95986 0.0
C131 C 0.72634 0.14775 0.97184 0.0
H132 H 0.59487 0.7297 0.09898 0.0
H133 H 0.63755 0.85348 0.10397 0.0
H134 H 0.59982 0.78639 0.03318 0.0
C135 C 0.60131 0.75583 0.09023 0.0
C136 C 0.59488 0.7535 0.06436 0.0
C137 C 0.61648 0.79168 0.10484 0.0
C138 C 0.62454 0.82527 0.09323 0.0
C139 C 0.61818 0.82314 0.0675 0.0
C140 C 0.60329 0.78738 0.05314 0.0
N141 N 0.6309 0.85766 0.0558 0.0
C142 C 0.60745 0.87425 0.05275 0.0
H143 H 0.29479 0.87037 0.10144 0.0
H144 H 0.1815 0.76703 0.0821 0.0
H145 H 0.26551 0.80756 0.02918 0.0
C146 C 0.27407 0.84645 0.08814 0.0
C147 C 0.2852 0.84229 0.06457 0.0
C148 C 0.23649 0.81982 0.09477 0.0
C149 C 0.21067 0.78756 0.07768 0.0
C150 C 0.22168 0.78312 0.05418 0.0
C151 C 0.25831 0.81075 0.04773 0.0
N152 N 0.19607 0.75259 0.03584 0.0
C153 C 0.16559 0.71634 0.04026 0.0
H154 H 0.15701 0.42593 0.11633 0.0
H155 H 0.25451 0.40664 0.11586 0.0
H156 H 0.2274 0.45598 0.05481 0.0
C157 C 0.18187 0.42848 0.10747 0.0
C158 C 0.18918 0.44326 0.08422 0.0
C159 C 0.20559 0.41596 0.11934 0.0
C160 C 0.23686 0.41768 0.10746 0.0
C161 C 0.24511 0.43232 0.0844 0.0
C162 C 0.22145 0.44545 0.07283 0.0
N163 N 0.27401 0.42836 0.07226 0.0
C164 C 0.3023 0.45564 0.05882 0.0
H165 H 0.39036 0.91715 0.24812 0.0
H166 H 0.49998 0.92117 0.26792 0.0
H167 H 0.41387 0.88777 0.31946 0.0
C168 C 0.40933 0.91289 0.26119 0.0
C169 C 0.39654 0.90009 0.28426 0.0
C170 C 0.44686 0.92123 0.25507 0.0
C171 C 0.47121 0.9152 0.27223 0.0
C172 C 0.45868 0.90253 0.2953 0.0
C173 C 0.42205 0.89585 0.30117 0.0
N174 N 0.48256 0.89852 0.3141 0.0
C175 C 0.51353 0.89179 0.31126 0.0
H176 H 0.09999 0.48233 0.27243 0.0
H177 H 0.08509 0.58275 0.28101 0.0
H178 H 0.12502 0.54663 0.3438 0.0
C179 C 0.10134 0.50617 0.28406 0.0
C180 C 0.11422 0.51152 0.30935 0.0
C181 C 0.09054 0.53155 0.27359 0.0
C182 C 0.09384 0.56331 0.2887 0.0
C183 C 0.10647 0.56863 0.31404 0.0
C184 C 0.11623 0.54265 0.32413 0.0
N185 N 0.10828 0.59873 0.33035 0.0
C186 C 0.10935 0.63221 0.32321 0.0
H187 H 0.53234 0.61291 0.25033 0.0
H188 H 0.44373 0.4921 0.24639 0.0
H189 H 0.46586 0.56713 0.31246 0.0
C190 C 0.50899 0.58936 0.25865 0.0
C191 C 0.50177 0.59549 0.28313 0.0
C192 C 0.48783 0.55247 0.24502 0.0
C193 C 0.45981 0.52099 0.25638 0.0
C194 C 0.45157 0.52625 0.28045 0.0
C195 C 0.47213 0.56354 0.29374 0.0
N196 N 0.42544 0.49258 0.29154 0.0
C197 C 0.39515 0.48922 0.30488 0.0
Tb198 Tb 0.49285 0.99083 0.99291 0.0
Eu199 Eu 0.51833 0.03064 0.05124 0.0
C200 C 0.52959 0.95997 0.03209 0.0
C201 C 0.43449 0.95643 0.03304 0.0
C202 C 0.48159 0.98138 0.92405 0.0
C203 C 0.47628 0.97299 0.87918 0.0
C204 C 0.46877 0.95701 0.90182 0.0
C205 C 0.50165 0.02206 0.92337 0.0
C206 C 0.50918 0.03811 0.90072 0.0
C207 C 0.49687 0.01377 0.87831 0.0
C208 C 0.47539 0.96405 0.94775 0.0
O209 O 0.46763 0.02803 0.99834 0.0
O210 O 0.51123 0.07368 0.02914 0.0
O211 O 0.5737 0.05771 0.03198 0.0
O212 O 0.54526 0.04773 0.99218 0.0
C213 C 0.48476 0.06324 1.01007 0.0
O214 O 0.50617 0.05485 0.08443 0.0
O215 O 0.55632 0.04651 0.08578 0.0
O216 O 0.51712 0.97324 0.0499 0.0
O217 O 0.52942 0.97008 1.00962 0.0
O218 O 0.44958 0.9477 0.01448 0.0
O219 O 0.45308 0.99097 0.04562 0.0
C220 C 0.57623 0.06469 1.00863 0.0
O221 O 0.50699 0.97047 0.96092 0.0
O222 O 0.45173 0.96871 0.96135 0.0
C223 C 0.52166 0.03401 0.1211 0.0
C224 C 0.49874 0.99517 0.16442 0.0
C225 C 0.52292 0.03612 0.1659 0.0
C226 C 0.53423 0.05528 0.14448 0.0
C227 C 0.49763 0.99321 0.11944 0.0
C228 C 0.48629 0.974 0.14083 0.0
C229 C 0.53376 0.05435 0.09858 0.0
H230 H 0.46582 0.95333 0.86234 0.0
H231 H 0.45325 0.92554 0.90198 0.0
H232 H 0.51196 0.04138 0.94038 0.0
H233 H 0.52546 0.0696 0.90081 0.0
H234 H 0.53262 0.05353 0.18363 0.0
H235 H 0.5527 0.08679 0.14618 0.0
H236 H 0.48768 0.97619 0.10155 0.0
H237 H 0.4681 0.94248 0.13888 0.0
Tb238 Tb 0.0171 0.47547 0.99463 0.0
Eu239 Eu 0.99033 0.47461 0.05137 0.0
C240 C 0.05334 0.55256 0.03054 0.0
C241 C 0.06529 0.46571 0.03985 0.0
C242 C 0.02668 0.47968 0.92624 0.0
C243 C 0.04302 0.48551 0.88396 0.0
C244 C 0.05248 0.48345 0.90869 0.0
C245 C 0.99205 0.47988 0.91902 0.0
C246 C 0.98251 0.48193 0.8942 0.0
C247 C 1.00744 0.48368 0.87631 0.0
C248 C 0.03453 0.47128 0.95115 0.0
O249 O 0.98505 0.41594 1.00443 0.0
O250 O 0.94229 0.42174 0.02772 0.0
O251 O 0.95877 0.4985 0.02915 0.0
O252 O 0.96497 0.48149 0.98906 0.0
C253 C 0.95004 0.40109 0.01187 0.0
O254 O 0.96851 0.44297 0.08365 0.0
O255 O 0.97997 0.50247 0.08338 0.0
O256 O 0.04559 0.53217 0.04968 0.0
O257 O 0.0375 0.53587 1.00809 0.0
O258 O 0.06545 0.47773 0.01783 0.0
O259 O 0.03641 0.45697 0.05366 0.0
C260 C 0.94954 0.49471 1.00515 0.0
O261 O 0.056 0.50089 0.9676 0.0
O262 O 1.00465 0.44342 0.96024 0.0
C263 C 0.98936 0.48218 0.12191 0.0
C264 C 0.02389 0.49927 0.17123 0.0
C265 C 0.98341 0.47328 0.16545 0.0
C266 C 0.96636 0.46488 0.14104 0.0
C267 C 0.0298 0.50805 0.12746 0.0
C268 C 0.0469 0.51666 0.15195 0.0
C269 C 0.97053 0.47296 0.09639 0.0
H270 H 0.06317 0.4876 0.87069 0.0
H271 H 0.07934 0.48336 0.91396 0.0
H272 H 0.97171 0.4769 0.93236 0.0
H273 H 0.95484 0.48031 0.88887 0.0
H274 H 0.96478 0.45975 0.17987 0.0
H275 H 0.93509 0.4449 0.1371 0.0
H276 H 0.0481 0.52154 0.11288 0.0
H277 H 0.07821 0.53646 0.15575 0.0
Tb278 Tb 0.53206 0.52877 0.02683 0.0
Eu279 Eu 0.50084 0.53215 0.96973 0.0
C280 C 0.48433 0.45328 0.99113 0.0
C281 C 0.58439 0.5378 0.98347 0.0
C282 C 0.54124 0.52883 0.0958 0.0
C283 C 0.54728 0.52056 0.13942 0.0
C284 C 0.55806 0.5191 0.11554 0.0
C285 C 0.51256 0.53897 0.10012 0.0
C286 C 0.5019 0.54064 0.124 0.0
C287 C 0.51957 0.53204 0.14403 0.0
C288 C 0.5563 0.53157 0.07142 0.0
O289 O 0.56376 0.58682 0.0152 0.0
O290 O 0.51402 0.58734 0.99287 0.0
O291 O 0.44765 0.51135 0.99109 0.0
O292 O 0.47926 0.53273 0.03061 0.0
C293 C 0.54569 0.60541 1.00856 0.0
O294 O 0.50855 0.56477 0.93758 0.0
O295 O 0.46207 0.50443 0.93552 0.0
O296 O 0.49748 0.47399 0.9724 0.0
O297 O 0.48657 0.47007 0.01307 0.0
O298 O 0.57218 0.52135 1.00396 0.0
O299 O 0.56486 0.55064 0.97041 0.0
C300 C 0.4473 0.51852 0.01499 0.0
O301 O 0.54022 0.49992 0.05608 0.0
O302 O 0.56182 0.56188 0.06036 0.0
C303 C 0.49455 0.52617 0.89971 0.0
C304 C 0.51951 0.51179 0.85458 0.0
C305 C 0.4932 0.52608 0.85503 0.0
C306 C 0.48088 0.53317 0.87735 0.0
C307 C 0.5208 0.51197 0.89947 0.0
C308 C 0.53313 0.50483 0.87716 0.0
C309 C 0.48196 0.53437 0.92321 0.0
H310 H 0.56171 0.51408 0.15441 0.0
H311 H 0.58042 0.51145 0.11262 0.0
H312 H 0.49917 0.5466 0.08514 0.0
H313 H 0.48006 0.54903 0.12684 0.0
H314 H 0.48255 0.53243 0.83814 0.0
H315 H 0.46082 0.54438 0.87716 0.0
H316 H 0.53176 0.50642 0.91658 0.0
H317 H 0.55299 0.49342 0.87759 0.0
Tb318 Tb 0.16469 0.33365 0.33052 0.0
Eu319 Eu 0.1931 0.37203 0.3892 0.0
C320 C 0.20592 0.30398 0.36724 0.0
C321 C 0.10941 0.29636 0.37203 0.0
C322 C 0.15361 0.32448 0.26129 0.0
C323 C 0.14231 0.31551 0.21643 0.0
C324 C 0.13384 0.30054 0.23932 0.0
C325 C 0.18195 0.36377 0.26009 0.0
C326 C 0.19058 0.37878 0.23717 0.0
C327 C 0.17087 0.35482 0.21502 0.0
C328 C 0.14502 0.30777 0.28516 0.0
O329 O 0.13771 0.36837 0.33911 0.0
O330 O 0.1838 0.4149 0.36837 0.0
O331 O 0.24716 0.40052 0.36877 0.0
O332 O 0.21661 0.39094 0.32955 0.0
C333 C 0.15548 0.40384 0.35044 0.0
O334 O 0.18327 0.39699 0.42297 0.0
O335 O 0.23113 0.38513 0.42343 0.0
O336 O 0.19332 0.31537 0.38588 0.0
O337 O 0.2044 0.31516 0.34524 0.0
O338 O 0.12269 0.28908 0.35196 0.0
O339 O 0.1283 0.33041 0.38521 0.0
C340 C 0.24832 0.40791 0.34547 0.0
O341 O 0.17437 0.30922 0.29833 0.0
O342 O 0.12461 0.31742 0.29877 0.0
C343 C 0.1958 0.37188 0.45847 0.0
C344 C 0.16821 0.32967 0.50005 0.0
C345 C 0.19689 0.36969 0.50306 0.0
C346 C 0.21045 0.39057 0.48247 0.0
C347 C 0.1676 0.33191 0.45533 0.0
C348 C 0.15386 0.31107 0.47586 0.0
C349 C 0.20962 0.39387 0.43671 0.0
H350 H 0.12692 0.29607 0.1998 0.0
H351 H 0.11201 0.27009 0.23986 0.0
H352 H 0.19744 0.38275 0.27686 0.0
H353 H 0.21238 0.40927 0.23682 0.0
H354 H 0.20832 0.38509 0.52136 0.0
H355 H 0.23221 0.42138 0.4853 0.0
H356 H 0.15616 0.31682 0.43695 0.0
H357 H 0.13221 0.28026 0.47277 0.0
Tb358 Tb 0.69086 0.8262 0.32717 0.0
Eu359 Eu 0.65661 0.81133 0.38251 0.0
C360 C 0.73156 0.89089 0.37263 0.0
C361 C 0.7307 0.80174 0.37014 0.0
C362 C 0.69827 0.82847 0.25926 0.0
C363 C 0.70561 0.81982 0.21585 0.0
C364 C 0.72103 0.82818 0.24062 0.0
C365 C 0.65957 0.81976 0.2529 0.0
C366 C 0.64417 0.81164 0.22808 0.0
C367 C 0.66711 0.81173 0.20928 0.0
C368 C 0.71569 0.83866 0.28509 0.0
O369 O 0.64588 0.76482 0.32332 0.0
O370 O 0.61093 0.75959 0.35684 0.0
O371 O 0.63439 0.846 0.36267 0.0
O372 O 0.63583 0.82648 0.32256 0.0
C373 C 0.61496 0.7458 0.33537 0.0
O374 O 0.63371 0.77592 0.41321 0.0
O375 O 0.63986 0.83339 0.41434 0.0
O376 O 0.7166 0.86469 0.38836 0.0
O377 O 0.71838 0.88281 0.34909 0.0
O378 O 0.73428 0.81929 0.34987 0.0
O379 O 0.70054 0.79106 0.38304 0.0
C380 C 0.62354 0.84239 0.33895 0.0
O381 O 0.70858 0.86236 0.29843 0.0
O382 O 0.71245 0.80987 0.29709 0.0
C383 C 0.65035 0.81257 0.45218 0.0
C384 C 0.68469 0.8315 0.50164 0.0
C385 C 0.64363 0.81044 0.49617 0.0
C386 C 0.62666 0.80112 0.47167 0.0
C387 C 0.6913 0.83337 0.45744 0.0
C388 C 0.70832 0.84279 0.48195 0.0
C389 C 0.63209 0.80342 0.42653 0.0
H390 H 0.72417 0.82057 0.20181 0.0
H391 H 0.75095 0.83485 0.2452 0.0
H392 H 0.64142 0.81957 0.26709 0.0
H393 H 0.6143 0.80513 0.2236 0.0
H394 H 0.62456 0.80164 0.51085 0.0
H395 H 0.59499 0.78518 0.46793 0.0
H396 H 0.71007 0.84238 0.4426 0.0
H397 H 0.74001 0.85853 0.48546 0.0
Tb398 Tb 0.19642 0.86666 0.36 0.0
Eu399 Eu 0.16533 0.87 0.30288 0.0
C400 C 0.14887 0.79123 0.32458 0.0
C401 C 0.24883 0.87612 0.31643 0.0
C402 C 0.20684 0.86513 0.42906 0.0
C403 C 0.21824 0.86137 0.47287 0.0
C404 C 0.2283 0.86069 0.44875 0.0
C405 C 0.17423 0.86892 0.43369 0.0
C406 C 0.16413 0.86966 0.45785 0.0
C407 C 0.18653 0.8667 0.47784 0.0
C408 C 0.22134 0.86976 0.40447 0.0
O409 O 0.22874 0.92452 0.34829 0.0
O410 O 0.17941 0.92569 0.3259 0.0
O411 O 0.11209 0.84913 0.32402 0.0
O412 O 0.14326 0.87003 0.36367 0.0
C413 C 0.21117 0.9435 0.34155 0.0
O414 O 0.17102 0.90221 0.2708 0.0
O415 O 0.12717 0.84078 0.26852 0.0
O416 O 0.16244 0.81205 0.30594 0.0
O417 O 0.15079 0.80798 0.34646 0.0
O418 O 0.23656 0.85961 0.33691 0.0
O419 O 0.22933 0.88892 0.30333 0.0
C420 C 0.11147 0.85595 0.3479 0.0
O421 O 0.20712 0.83861 0.38878 0.0
O422 O 0.224 0.89952 0.39393 0.0
C423 C 0.15995 0.86367 0.23273 0.0
C424 C 0.18526 0.8483 0.18797 0.0
C425 C 0.21178 0.87867 0.2058 0.0
C426 C 0.19936 0.88617 0.22794 0.0
C427 C 0.13342 0.83336 0.21493 0.0
C428 C 0.14594 0.82562 0.19286 0.0
C429 C 0.14636 0.87095 0.25625 0.0
H430 H 0.23568 0.85823 0.4877 0.0
H431 H 0.25361 0.85779 0.44557 0.0
H432 H 0.1574 0.87263 0.41874 0.0
H433 H 0.13972 0.87408 0.46095 0.0
H434 H 0.24236 0.89638 0.20276 0.0
H435 H 0.22075 0.90953 0.24131 0.0
H436 H 0.10292 0.81556 0.21812 0.0
H437 H 0.12468 0.80226 0.17943 0.0
Tb438 Tb 0.82789 0.66082 0.65892 0.0
Eu439 Eu 0.85298 0.70005 0.71753 0.0
C440 C 0.86558 0.63082 0.69773 0.0
C441 C 0.76908 0.62691 0.69907 0.0
C442 C 0.81715 0.65065 0.59015 0.0
C443 C 0.80569 0.6423 0.54531 0.0
C444 C 0.79826 0.62668 0.56807 0.0
C445 C 0.84328 0.69066 0.58922 0.0
C446 C 0.85093 0.70629 0.56646 0.0
C447 C 0.83238 0.68226 0.54419 0.0
C448 C 0.81053 0.63344 0.61389 0.0
O449 O 0.80564 0.70072 0.66295 0.0
O450 O 0.84539 0.74357 0.69643 0.0
O451 O 0.90832 0.7282 0.69821 0.0
O452 O 0.88032 0.71759 0.65818 0.0
C453 C 0.82149 0.73473 0.67617 0.0
O454 O 0.84092 0.72329 0.75121 0.0
O455 O 0.89131 0.71533 0.75181 0.0
O456 O 0.85161 0.64254 0.71542 0.0
O457 O 0.86606 0.64195 0.67553 0.0
O458 O 0.78433 0.61815 0.68061 0.0
O459 O 0.78769 0.66137 0.7117 0.0
C460 C 0.911 0.73504 0.67484 0.0
O461 O 0.84189 0.6396 0.62726 0.0
O462 O 0.78685 0.63844 0.62729 0.0
C463 C 0.85709 0.70204 0.78744 0.0
C464 C 0.83303 0.66279 0.83044 0.0
C465 C 0.84678 0.70316 0.83098 0.0
C466 C 0.85869 0.72254 0.80971 0.0
C467 C 0.84357 0.66179 0.78678 0.0
C468 C 0.83183 0.64241 0.80808 0.0
C469 C 0.86874 0.72262 0.76497 0.0
H470 H 0.79119 0.62289 0.52854 0.0
H471 H 0.7781 0.59571 0.56841 0.0
H472 H 0.85804 0.70971 0.60609 0.0
H473 H 0.87123 0.73724 0.5663 0.0
H474 H 0.84857 0.71991 0.84791 0.0
H475 H 0.869 0.75357 0.81065 0.0
H476 H 0.8418 0.64528 0.76972 0.0
H477 H 0.82101 0.61128 0.80689 0.0
Tb478 Tb 0.35065 0.14347 0.6577 0.0
Eu479 Eu 0.32212 0.14389 0.71351 0.0
C480 C 0.38799 0.22101 0.69356 0.0
C481 C 0.39865 0.13602 0.7037 0.0
C482 C 0.35191 0.13909 0.58845 0.0
C483 C 0.34615 0.17567 0.55562 0.0
C484 C 0.35846 0.17455 0.58008 0.0
C485 C 0.3327 0.10494 0.57199 0.0
C486 C 0.32022 0.106 0.54769 0.0
C487 C 0.32693 0.14137 0.53916 0.0
C488 C 0.36564 0.13667 0.6138 0.0
O489 O 0.32166 0.08547 0.67002 0.0
O490 O 0.27544 0.08999 0.68974 0.0
O491 O 0.29443 0.17078 0.69045 0.0
O492 O 0.29644 0.14564 0.65176 0.0
C493 C 0.28548 0.06935 0.67555 0.0
O494 O 0.29869 0.11193 0.74539 0.0
O495 O 0.31072 0.17156 0.74522 0.0
O496 O 0.37835 0.2007 0.71273 0.0
O497 O 0.37321 0.20449 0.67092 0.0
O498 O 0.39921 0.14697 0.68129 0.0
O499 O 0.36944 0.12789 0.71717 0.0
C500 C 0.28363 0.16339 0.66655 0.0
O501 O 0.38524 0.16873 0.62871 0.0
O502 O 0.34043 0.10788 0.62502 0.0
C503 C 0.3198 0.15092 0.78362 0.0
C504 C 0.3552 0.16756 0.83276 0.0
C505 C 0.31412 0.14878 0.82768 0.0
C506 C 0.29666 0.14061 0.80337 0.0
C507 C 0.36076 0.16942 0.78843 0.0
C508 C 0.37832 0.17769 0.81279 0.0
C509 C 0.3008 0.14192 0.75817 0.0
H510 H 0.35157 0.20334 0.5496 0.0
H511 H 0.37325 0.20141 0.59232 0.0
H512 H 0.32765 0.07729 0.57786 0.0
H513 H 0.30618 0.07919 0.5354 0.0
H514 H 0.29533 0.13989 0.8425 0.0
H515 H 0.26498 0.12607 0.79998 0.0
H516 H 0.37911 0.17753 0.77335 0.0
H517 H 0.41 0.19248 0.81597 0.0
Tb518 Tb 0.86146 0.20174 0.69433 0.0
Eu519 Eu 0.83307 0.20992 0.63769 0.0
C520 C 0.81851 0.12947 0.65572 0.0
C521 C 0.91539 0.21348 0.65151 0.0
C522 C 0.87016 0.199 0.7634 0.0
C523 C 0.87583 0.18835 0.80658 0.0
C524 C 0.88563 0.18677 0.78246 0.0
C525 C 0.84399 0.21211 0.76869 0.0
C526 C 0.83427 0.21385 0.79288 0.0
C527 C 0.8504 0.20236 0.8122 0.0
C528 C 0.88407 0.20068 0.73871 0.0
O529 O 0.89453 0.26112 0.68487 0.0
O530 O 0.84673 0.26431 0.66186 0.0
O531 O 0.77892 0.18628 0.65828 0.0
O532 O 0.80938 0.20676 0.69802 0.0
C533 C 0.87784 0.28094 0.67804 0.0
O534 O 0.84157 0.24415 0.60632 0.0
O535 O 0.7948 0.18383 0.60312 0.0
O536 O 0.83175 0.15253 0.6381 0.0
O537 O 0.81806 0.14344 0.67804 0.0
O538 O 0.90197 0.19543 0.67132 0.0
O539 O 0.8973 0.2284 0.63908 0.0
C540 C 0.77777 0.19256 0.68216 0.0
O541 O 0.86497 0.16959 0.72301 0.0
O542 O 0.89292 0.23228 0.72819 0.0
C543 C 0.83 0.20619 0.56855 0.0
C544 C 0.85766 0.1904 0.52512 0.0
C545 C 0.82395 0.19415 0.52377 0.0
C546 C 0.81031 0.20207 0.54531 0.0
C547 C 0.86331 0.20201 0.57 0.0
C548 C 0.87706 0.19433 0.54854 0.0
C549 C 0.81568 0.21413 0.59134 0.0
H550 H 0.88917 0.17969 0.82099 0.0
H551 H 0.9061 0.17686 0.7788 0.0
H552 H 0.8317 0.22172 0.75425 0.0
H553 H 0.81419 0.22428 0.79645 0.0
H554 H 0.80847 0.19154 0.50604 0.0
H555 H 0.78445 0.20502 0.54382 0.0
H556 H 0.8787 0.20461 0.58777 0.0
H557 H 0.90267 0.19097 0.55034 0.0
C558 C 0.34083 0.91139 0.06459 0.0
C559 C 0.32412 0.87138 0.05697 0.0
H560 H 0.38831 0.96933 0.06295 0.0
C561 C 0.34422 0.85958 0.04122 0.0
H562 H 0.32603 0.92178 0.0763 0.0
C563 C 0.37971 0.88708 0.03306 0.0
C564 C 0.39625 0.92699 0.04074 0.0
H565 H 0.3327 0.82898 0.03527 0.0
H566 H 0.39443 0.877 0.02105 0.0
C567 C 0.37648 0.93876 0.0567 0.0
C568 C 0.14982 0.44515 0.04618 0.0
C569 C 0.16121 0.45382 0.07182 0.0
H570 H 0.1107 0.44239 0.01583 0.0
C571 C 0.14273 0.46949 0.08612 0.0
H572 H 0.16305 0.43287 0.03451 0.0
C573 C 0.11195 0.47349 0.07557 0.0
C574 C 0.09954 0.46331 0.05024 0.0
H575 H 0.15142 0.47794 0.10572 0.0
H576 H 0.09772 0.48454 0.08734 0.0
C577 C 0.11956 0.45026 0.03546 0.0
C578 C 0.60213 0.69567 0.05376 0.0
C579 C 0.58265 0.71641 0.04908 0.0
H580 H 0.60637 0.64516 0.04438 0.0
C581 C 0.55205 0.70162 0.0298 0.0
H582 H 0.6263 0.70674 0.06818 0.0
C583 C 0.54031 0.66589 0.01601 0.0
C584 C 0.55942 0.64478 0.02113 0.0
H585 H 0.53665 0.71722 0.0258 0.0
H586 H 0.51598 0.65454 1.00171 0.0
C587 C 0.59082 0.66045 0.03991 0.0
C588 C 0.87655 0.33025 0.96035 0.0
C589 C 0.86201 0.29408 0.97024 0.0
H590 H 0.91597 0.39221 0.96589 0.0
C591 C 0.875 0.29402 0.99494 0.0
H592 H 0.86677 0.33178 0.94167 0.0
C593 C 0.90267 0.32899 1.00897 0.0
C594 C 0.91809 0.36455 0.99852 0.0
H595 H 0.865 0.26686 1.00317 0.0
H596 H 0.91301 0.32809 0.02766 0.0
C597 C 0.90451 0.36496 0.97424 0.0
C598 C 0.67351 0.52679 0.97456 0.0
C599 C 0.69308 0.55472 0.95795 0.0
H600 H 0.6243 0.49974 0.99585 0.0
C601 C 0.67608 0.57658 0.94986 0.0
H602 H 0.6851 0.50882 0.98096 0.0
C603 C 0.6408 0.57069 0.95802 0.0
C604 C 0.62168 0.54327 0.97487 0.0
H605 H 0.69039 0.59902 0.9376 0.0
H606 H 0.6289 0.58831 0.95141 0.0
C607 C 0.63846 0.52138 0.98307 0.0
C608 C 0.48753 0.15794 0.99832 0.0
C609 C 0.45587 0.14493 0.97988 0.0
H610 H 0.52133 0.14244 0.02255 0.0
C611 C 0.43355 0.10489 0.97195 0.0
H612 H 0.50564 0.1887 1.00465 0.0
C613 C 0.44267 0.07851 0.98212 0.0
C614 C 0.47427 0.09145 1.00056 0.0
H615 H 0.40858 0.09376 0.95814 0.0
H616 H 0.42479 0.04785 0.97545 0.0
C617 C 0.49655 0.13146 1.00861 0.0
C618 C 0.68673 0.12597 1.00714 0.0
C619 C 0.68934 0.13324 0.98227 0.0
H620 H 0.64882 0.09889 0.03518 0.0
C621 C 0.65494 0.12086 0.96664 0.0
H622 H 0.71301 0.13486 0.0194 0.0
C623 C 0.6182 0.10005 0.9755 0.0
C624 C 0.6152 0.09109 1.00019 0.0
H625 H 0.65638 0.12579 0.94728 0.0
H626 H 0.59218 0.08981 0.96271 0.0
C627 C 0.64996 0.10523 0.01609 0.0
C628 C 0.8914 0.52749 0.96417 0.0
C629 C 0.87071 0.53517 0.98161 0.0
H630 H 0.93263 0.50814 0.95784 0.0
C631 C 0.87467 0.52789 1.00612 0.0
H632 H 0.88874 0.53304 0.94513 0.0
C633 C 0.89955 0.51398 0.01342 0.0
C634 C 0.92115 0.50686 0.99633 0.0
H635 H 0.85893 0.53363 0.01985 0.0
H636 H 0.90211 0.50924 0.03265 0.0
C637 C 0.91638 0.51323 0.97147 0.0
C638 C 0.43749 0.34865 1.00595 0.0
C639 C 0.44675 0.33138 0.98637 0.0
H640 H 0.44183 0.40086 0.02267 0.0
C641 C 0.46558 0.35321 0.96712 0.0
H642 H 0.42312 0.33211 0.02102 0.0
C643 C 0.47636 0.39271 0.96796 0.0
C644 C 0.46879 0.41069 0.98825 0.0
H645 H 0.47318 0.34017 0.95197 0.0
H646 H 0.49206 0.40948 0.95334 0.0
C647 C 0.44841 0.38799 1.00691 0.0
C648 C 0.13045 0.65424 0.0593 0.0
C649 C 0.13477 0.6762 0.03928 0.0
H650 H 0.10086 0.59747 0.07233 0.0
C651 C 0.11135 0.65802 0.01695 0.0
H652 H 0.14869 0.66789 0.07661 0.0
C653 C 0.08444 0.61801 0.01434 0.0
C654 C 0.08043 0.59539 0.03408 0.0
H655 H 0.11461 0.67459 1.00124 0.0
H656 H 0.06723 0.60476 0.99667 0.0
C657 C 0.10325 0.61404 0.05677 0.0
C658 C 0.37312 0.5029 0.0609 0.0
C659 C 0.33744 0.4779 0.04662 0.0
H660 H 0.43572 0.53582 0.06213 0.0
C661 C 0.33763 0.46938 0.0213 0.0
H662 H 0.37372 0.50938 0.08057 0.0
C663 C 0.37322 0.48436 1.01063 0.0
C664 C 0.40933 0.50777 0.02519 0.0
H665 H 0.31046 0.44957 1.01001 0.0
H666 H 0.37247 0.47593 0.99126 0.0
C667 C 0.40867 0.51776 0.05032 0.0
C668 C 0.57738 0.89843 0.02336 0.0
C669 C 0.58499 0.893 0.04775 0.0
H670 H 0.55349 0.92362 0.99922 0.0
C671 C 0.5725 0.90757 0.06706 0.0
H672 H 0.58692 0.88729 1.00826 0.0
C673 C 0.55328 0.92841 0.062 0.0
C674 C 0.54658 0.93502 0.03755 0.0
H675 H 0.57831 0.90355 0.08604 0.0
H676 H 0.54463 0.94016 0.07726 0.0
C677 C 0.55831 0.91926 0.01826 0.0
C678 C 0.03249 0.24088 0.41495 0.0
C679 C 1.00467 0.2075 0.39961 0.0
H680 H 0.08675 0.29477 0.41829 0.0
C681 C 0.01155 0.20374 0.37475 0.0
H682 H 0.02891 0.24459 0.43428 0.0
C683 C 0.04559 0.2323 0.36566 0.0
C684 C 0.07316 0.2656 0.38109 0.0
H685 H 0.99055 0.1788 0.3622 0.0
H686 H 0.05008 0.22849 0.34652 0.0
C687 C 0.06603 0.26961 0.40578 0.0
C688 C 0.81343 0.7786 0.37646 0.0
C689 C 0.82345 0.78524 0.40227 0.0
H690 H 0.77636 0.77892 0.3459 0.0
C691 C 0.80446 0.80007 0.41675 0.0
H692 H 0.82711 0.76704 0.36464 0.0
C693 C 0.77457 0.80534 0.40614 0.0
C694 C 0.76361 0.79731 0.38059 0.0
H695 H 0.81216 0.80707 0.43651 0.0
H696 H 0.76 0.81586 0.41799 0.0
C697 C 0.7841 0.78503 0.3657 0.0
C698 C 0.26965 0.03436 0.38608 0.0
C699 C 0.25254 0.05686 0.3802 0.0
H700 H 0.2706 0.98169 0.37828 0.0
C701 C 0.22252 0.04272 0.36056 0.0
H702 H 0.29327 0.04483 0.40082 0.0
C703 C 0.20916 0.00607 0.34751 0.0
C704 C 0.22608 0.98338 0.35369 0.0
H705 H 0.20891 0.05966 0.35566 0.0
H706 H 0.18544 0.99539 0.33283 0.0
C707 C 0.25676 0.99824 0.37295 0.0
C708 C 0.54301 0.66901 0.28551 0.0
C709 C 0.52702 0.63467 0.29762 0.0
H710 H 0.5837 0.73053 0.28789 0.0
C711 C 0.53793 0.63815 0.3232 0.0
H712 H 0.53451 0.66817 0.26613 0.0
C713 C 0.56523 0.67458 0.33591 0.0
C714 C 0.58287 0.70803 0.3232 0.0
H715 H 0.52674 0.6126 0.33326 0.0
H716 H 0.57394 0.67626 0.35537 0.0
C717 C 0.57103 0.70497 0.29801 0.0
C718 C 0.33664 0.86349 0.30715 0.0
C719 C 0.3575 0.89258 0.29147 0.0
H720 H 0.28659 0.83588 0.32762 0.0
C721 C 0.34147 0.91541 0.28372 0.0
H722 H 0.3473 0.84456 0.3131 0.0
C723 C 0.30605 0.90966 0.29162 0.0
C724 C 0.28598 0.88139 0.30784 0.0
H725 H 0.35669 0.9385 0.27203 0.0
H726 H 0.29486 0.92806 0.28542 0.0
C727 C 0.30162 0.85829 0.31545 0.0
C728 C 0.15711 0.49786 0.33833 0.0
C729 C 0.12449 0.48408 0.32056 0.0
H730 H 0.19246 0.48334 0.36193 0.0
C731 C 0.10131 0.44375 0.31379 0.0
H732 H 0.17573 0.52885 0.34381 0.0
C733 C 0.11089 0.41784 0.32411 0.0
C734 C 0.14389 0.43156 0.34153 0.0
H735 H 0.07555 0.43211 0.30057 0.0
H736 H 0.09249 0.38695 0.31819 0.0
C737 C 0.1667 0.47183 0.34874 0.0
C738 C 0.35823 0.46752 0.34128 0.0
C739 C 0.35937 0.47592 0.31661 0.0
H740 H 0.32214 0.43975 0.36996 0.0
C741 C 0.32429 0.46524 0.30221 0.0
H742 H 0.38502 0.47505 0.35257 0.0
C743 C 0.28827 0.4448 0.31199 0.0
C744 C 0.28667 0.43449 0.33637 0.0
H745 H 0.32456 0.47104 0.28301 0.0
H746 H 0.26165 0.43583 0.3001 0.0
C747 C 0.32219 0.44716 0.35114 0.0
C748 C 0.55252 0.86085 0.29929 0.0
C749 C 0.54419 0.88263 0.31656 0.0
H750 H 0.5846 0.83105 0.29275 0.0
C751 C 0.56281 0.89214 0.34066 0.0
H752 H 0.53797 0.8528 0.28065 0.0
C753 C 0.58882 0.87941 0.34772 0.0
C754 C 0.59691 0.85689 0.33076 0.0
H755 H 0.55638 0.90857 0.35434 0.0
H756 H 0.60221 0.8869 0.36663 0.0
C757 C 0.57897 0.84827 0.30629 0.0
C758 C 0.10247 0.68675 0.33954 0.0
C759 C 0.11375 0.67002 0.32079 0.0
H760 H 0.10445 0.73836 0.35528 0.0
C761 C 0.13351 0.69202 0.30184 0.0
H762 H 0.08738 0.6701 0.3544 0.0
C763 C 0.14333 0.73122 0.30224 0.0
C764 C 0.1339 0.74875 0.32182 0.0
H765 H 0.1427 0.67942 0.28734 0.0
H766 H 0.1599 0.74821 0.28794 0.0
C767 C 0.11246 0.72582 0.34008 0.0
C768 C 0.81272 0.99579 0.37237 0.0
C769 C 0.83352 1.00265 0.39554 0.0
H770 H 0.76389 0.95507 0.34696 0.0
C771 C 0.81941 0.9739 0.41199 0.0
H772 H 0.82348 0.01766 0.35938 0.0
C773 C 0.78527 0.93792 0.40496 0.0
C774 C 0.76511 0.93022 0.38126 0.0
H775 H 0.83546 0.9787 0.42989 0.0
H776 H 0.77556 0.91572 0.41772 0.0
C777 C 0.77878 0.95988 0.36526 0.0
C778 C 0.03598 0.83707 0.39333 0.0
C779 C 1.0007 0.81258 0.37853 0.0
H780 H 0.09863 0.87055 0.39528 0.0
C781 C 1.00158 0.8057 0.35311 0.0
H782 H 0.03601 0.84228 0.41307 0.0
C783 C 0.03749 0.82169 0.34282 0.0
C784 C 0.07323 0.8445 0.35785 0.0
H785 H 0.97471 0.78632 0.34142 0.0
H786 H 0.03727 0.81445 0.32333 0.0
C787 C 0.07187 0.85297 0.38312 0.0
C788 C 0.25744 0.24694 0.35472 0.0
C789 C 0.26453 0.23879 0.37846 0.0
H790 H 0.23298 0.2737 0.33249 0.0
C791 C 0.25113 0.2506 0.39859 0.0
H792 H 0.26755 0.2378 0.33899 0.0
C793 C 0.2312 0.27115 0.39498 0.0
C794 C 0.2246 0.28011 0.37118 0.0
H795 H 0.25639 0.24429 0.41706 0.0
H796 H 0.22158 0.28052 0.41085 0.0
C797 C 0.23763 0.26743 0.35107 0.0
C798 C 0.67535 0.58103 0.73067 0.0
C799 C 0.65951 0.54102 0.72344 0.0
H800 H 0.72199 0.63933 0.72852 0.0
C801 C 0.68029 0.52957 0.70806 0.0
H802 H 0.66004 0.5911 0.74213 0.0
C803 C 0.71543 0.55735 0.69975 0.0
C804 C 0.73107 0.59727 0.70692 0.0
H805 H 0.66951 0.49899 0.70248 0.0
H806 H 0.73063 0.54748 0.68801 0.0
C807 C 0.71076 0.60875 0.72262 0.0
C808 C 0.47234 0.13581 0.75129 0.0
C809 C 0.49169 0.12103 0.73713 0.0
H810 H 0.4277 0.15142 0.75191 0.0
C811 C 0.48223 0.11437 0.71128 0.0
H812 H 0.47953 0.14262 0.77109 0.0
C813 C 0.45303 0.12063 0.70015 0.0
C814 C 0.43218 0.13293 0.71467 0.0
H815 H 0.49612 0.10275 0.69969 0.0
H816 H 0.4456 0.11419 0.68034 0.0
C817 C 0.44266 0.14109 0.74028 0.0
C818 C 0.93965 0.37253 0.72136 0.0
C819 C 0.92173 0.39473 0.71668 0.0
H820 H 0.94036 0.31992 0.71266 0.0
C821 C 0.89039 0.38041 0.69794 0.0
H822 H 0.96436 0.38318 0.73534 0.0
C823 C 0.87633 0.3437 0.68477 0.0
C824 C 0.89378 0.32111 0.68998 0.0
H825 H 0.87615 0.39711 0.69396 0.0
H826 H 0.85148 0.33277 0.67089 0.0
C827 C 0.92597 0.33631 0.70817 0.0
C828 C 0.24091 0.97468 0.63384 0.0
C829 C 0.20054 0.95853 0.63574 0.0
H830 H 0.29899 0.02152 0.64503 0.0
C831 C 0.18827 0.97765 0.65248 0.0
H832 H 0.25144 0.96028 0.62153 0.0
C833 C 0.21581 0.01314 0.66615 0.0
C834 C 0.25611 0.0299 0.66347 0.0
H835 H 0.15736 0.96585 0.65438 0.0
H836 H 0.20546 0.02791 0.67828 0.0
C837 C 0.26825 0.00976 0.6475 0.0
C838 C 0.99363 0.18898 0.63624 0.0
C839 C 0.01913 0.22108 0.62387 0.0
H840 H 0.94172 0.16191 0.65508 0.0
C841 C 0.00956 0.25048 0.62061 0.0
H842 H 0.99886 0.16497 0.63854 0.0
C843 C 0.97582 0.24787 0.62946 0.0
C844 C 0.95125 0.21635 0.64236 0.0
H845 H 0.02844 0.27601 0.61163 0.0
H846 H 0.96935 0.27099 0.62661 0.0
C847 C 0.96055 0.18697 0.64568 0.0
C848 C 0.79888 0.81665 0.6724 0.0
C849 C 0.79536 0.81834 0.64662 0.0
H850 H 0.81076 0.78939 0.70209 0.0
C851 C 0.80109 0.79249 0.63104 0.0
H852 H 0.79399 0.83551 0.68504 0.0
C853 C 0.80946 0.76544 0.64085 0.0
C854 C 0.81326 0.76412 0.66651 0.0
H855 H 0.7998 0.79343 0.61121 0.0
H856 H 0.81366 0.7459 0.62831 0.0
C857 C 0.80831 0.79016 0.68226 0.0
C858 C 0.98948 0.79204 0.633 0.0
C859 C 0.02387 0.8028 0.6482 0.0
H860 H 0.92679 0.76259 0.62954 0.0
C861 C 0.02145 0.79454 0.6729 0.0
H862 H 0.99077 0.79777 0.61377 0.0
C863 C 0.98478 0.77424 0.68204 0.0
C864 C 0.94997 0.76152 0.66648 0.0
H865 H 0.04773 0.80217 0.68481 0.0
H866 H 0.98371 0.76694 0.70092 0.0
C867 C 0.95287 0.77165 0.64204 0.0
C868 C 0.2054 0.16733 0.62432 0.0
C869 C 0.19717 0.19193 0.63916 0.0
H870 H 0.23963 0.13911 0.62121 0.0
C871 C 0.21902 0.20898 0.66212 0.0
H872 H 0.1883 0.15332 0.6067 0.0
C873 C 0.24776 0.20044 0.67064 0.0
C874 C 0.25529 0.17465 0.65632 0.0
H875 H 0.21268 0.22758 0.67402 0.0
H876 H 0.26341 0.21339 0.68876 0.0
C877 C 0.23453 0.159 0.63274 0.0
C878 C 0.78772 0.02573 0.66758 0.0
C879 C 0.80105 0.01384 0.64748 0.0
H880 H 0.78235 0.07177 0.68584 0.0
C881 C 0.81622 0.03822 0.62866 0.0
H882 H 0.77617 0.00721 0.68235 0.0
C883 C 0.81981 0.07523 0.63057 0.0
C884 C 0.80866 0.08831 0.65149 0.0
H885 H 0.82696 0.02944 0.61312 0.0
H886 H 0.8332 0.09428 0.61632 0.0
C887 C 0.79146 0.0627 0.66959 0.0
C888 C 0.44973 0.32642 0.68067 0.0
C889 C 0.47147 0.3441 0.70356 0.0
H890 H 0.40629 0.27368 0.65952 0.0
C891 C 0.46494 0.32181 0.72361 0.0
H892 H 0.45472 0.34325 0.66494 0.0
C893 C 0.43715 0.28179 0.7206 0.0
C894 C 0.41592 0.26364 0.6974 0.0
H895 H 0.48187 0.33507 0.74137 0.0
H896 H 0.433 0.26497 0.73624 0.0
C897 C 0.42222 0.28656 0.67757 0.0
C898 C 0.70231 0.17348 0.72754 0.0
C899 C 0.66713 0.14776 0.713 0.0
H900 H 0.76482 0.20824 0.72919 0.0
C901 C 0.66791 0.14007 0.68766 0.0
H902 H 0.70243 0.17934 0.74722 0.0
C903 C 0.70371 0.15652 0.67721 0.0
C904 C 0.7394 0.18054 0.69204 0.0
H905 H 0.64111 0.11974 0.6762 0.0
H906 H 0.70353 0.14868 0.65782 0.0
C907 C 0.73807 0.18976 0.71719 0.0
C908 C 0.91185 0.5814 0.73259 0.0
C909 C 0.92625 0.5689 0.71334 0.0
H910 H 0.88076 0.61073 0.74274 0.0
C911 C 0.91865 0.57445 0.68899 0.0
H912 H 0.9176 0.57721 0.75153 0.0
C913 C 0.89773 0.59346 0.68389 0.0
C914 C 0.88414 0.60727 0.70313 0.0
H915 H 0.92962 0.56484 0.67396 0.0
H916 H 0.89299 0.59807 0.66489 0.0
C917 C 0.89079 0.60043 0.72752 0.0
C918 C 0.49962 0.96919 0.23082 0.0
C919 C 0.46102 0.93821 0.23138 0.0
H920 H 0.54184 0.01106 0.2095 0.0
C921 C 0.43546 0.92518 0.20942 0.0
H922 H 0.52007 0.98033 0.24737 0.0
C923 C 0.44781 0.94319 0.18773 0.0
C924 C 0.48612 0.9748 0.18731 0.0
H925 H 0.40567 0.90115 0.209 0.0
H926 H 0.4269 0.93289 0.17143 0.0
C927 C 0.51196 0.98723 0.20912 0.0
C928 C 0.08532 0.55404 0.23188 0.0
C929 C 0.0742 0.52363 0.2472 0.0
H930 H 0.07828 0.57023 0.19585 0.0
C931 C 0.04683 0.48525 0.23722 0.0
H932 H 0.10651 0.58387 0.23897 0.0
C933 C 0.03083 0.47745 0.21261 0.0
C934 C 0.04181 0.50779 0.19727 0.0
H935 H 0.03726 0.46119 0.24857 0.0
H936 H 0.00993 0.44752 0.20554 0.0
C937 C 0.06944 0.54617 0.20714 0.0
C938 C 0.49816 0.51405 0.21072 0.0
C939 C 0.49551 0.54683 0.21907 0.0
H940 H 0.50755 0.48352 0.18055 0.0
C941 C 0.50019 0.57429 0.20242 0.0
H942 H 0.49501 0.4925 0.22311 0.0
C943 C 0.50743 0.56917 0.17806 0.0
C944 C 0.51042 0.53658 0.16974 0.0
H945 H 0.49798 0.59967 0.20818 0.0
H946 H 0.5114 0.59118 0.16584 0.0
C947 C 0.50567 0.50907 0.18638 0.0
C948 C 0.96657 0.49889 0.81564 0.0
C949 C 0.9724 0.47462 0.79866 0.0
H950 H 0.97315 0.52094 0.85355 0.0
C951 C 0.98979 0.45357 0.80745 0.0
H952 H 0.95305 0.51531 0.80941 0.0
C953 C 1.00112 0.45669 0.83258 0.0
C954 C 0.99543 0.48098 0.8496 0.0
H955 H 0.99517 0.43501 0.79484 0.0
H956 H 0.01404 0.4397 0.83872 0.0
C957 C 0.97781 0.50191 0.84089 0.0
C958 C 0.51905 0.48276 0.78654 0.0
C959 C 0.55811 0.49187 0.78502 0.0
H960 H 0.4762 0.48126 0.80939 0.0
C961 C 0.58423 0.50697 0.80676 0.0
H962 H 0.49814 0.47154 0.77021 0.0
C963 C 0.57173 0.51314 0.82926 0.0
C964 C 0.53274 0.50439 0.8307 0.0
H965 H 0.61441 0.51397 0.80643 0.0
H966 H 0.59289 0.52546 0.84546 0.0
C967 C 0.50655 0.48888 0.80902 0.0
C968 C 0.51233 0.07992 0.82696 0.0
C969 C 0.52379 0.06288 0.80825 0.0
H970 H 0.49462 0.07782 0.86351 0.0
C971 C 0.52616 0.02951 0.81279 0.0
H972 H 0.51052 0.10584 0.82422 0.0
C973 C 0.51739 0.01365 0.83541 0.0
C974 C 0.50601 0.03071 0.85415 0.0
H975 H 0.53444 0.01531 0.79875 0.0
H976 H 0.52002 0.98821 0.8383 0.0
C977 C 0.50362 0.06409 0.84962 0.0
C978 C 0.09781 0.26051 0.54255 0.0
C979 C 0.1229 0.26663 0.56388 0.0
H980 H 0.09216 0.27552 0.50601 0.0
C981 C 0.16327 0.2931 0.56384 0.0
H982 H 0.06663 0.24004 0.54178 0.0
C983 C 0.178 0.31344 0.5432 0.0
C984 C 0.15281 0.30758 0.52196 0.0
H985 H 0.18342 0.29873 0.57997 0.0
H986 H 0.20922 0.33364 0.54385 0.0
C987 C 0.11254 0.28061 0.5219 0.0
C988 C 0.7534 0.88712 0.55982 0.0
C989 C 0.73852 0.85937 0.57703 0.0
H990 H 0.7481 0.90024 0.5227 0.0
C991 C 0.70509 0.82281 0.56941 0.0
H992 H 0.77932 0.91542 0.56499 0.0
C993 C 0.68742 0.81396 0.5451 0.0
C994 C 0.70278 0.84141 0.52775 0.0
H995 H 0.69263 0.80089 0.58224 0.0
H996 H 0.6622 0.78524 0.53976 0.0
C997 C 0.73581 0.87822 0.53548 0.0
C998 C 0.20127 0.89636 0.54703 0.0
C999 C 0.16251 0.8795 0.55328 0.0
H1000 H 0.23915 0.90596 0.51857 0.0
C1001 C 0.13157 0.85822 0.53446 0.0
H1002 H 0.22587 0.91249 0.56104 0.0
C1003 C 0.13922 0.85397 0.51004 0.0
C1004 C 0.17802 0.87078 0.50383 0.0
H1005 H 0.10135 0.84507 0.53856 0.0
H1006 H 0.11471 0.83715 0.49607 0.0
C1007 C 0.20891 0.8921 0.52267 0.0
C1008 C 0.619 0.81777 0.14851 0.0
C1009 C 0.62681 0.79466 0.13186 0.0
H1010 H 0.62548 0.84117 0.18605 0.0
C1011 C 0.64629 0.77574 0.14108 0.0
H1012 H 0.6038 0.83248 0.14199 0.0
C1013 C 0.65857 0.78061 0.16625 0.0
C1014 C 0.65155 0.80439 0.18283 0.0
H1015 H 0.65314 0.75806 0.12873 0.0
H1016 H 0.67391 0.766 0.17272 0.0
C1017 C 0.6311 0.82246 0.17375 0.0
C1018 C 0.23555 0.86511 0.12887 0.0
C1019 C 0.22379 0.82683 0.11897 0.0
H1020 H 0.23257 0.90179 0.15807 0.0
C1021 C 0.19916 0.79557 0.13212 0.0
H1022 H 0.25369 0.88996 0.1191 0.0
C1023 C 0.18658 0.80244 0.15442 0.0
C1024 C 0.19855 0.84074 0.16427 0.0
H1025 H 0.18986 0.76573 0.12535 0.0
H1026 H 0.16789 0.77775 0.16415 0.0
C1027 C 0.22329 0.87196 0.15123 0.0
C1028 C 0.15799 0.37449 0.14851 0.0
C1029 C 0.19686 0.40002 0.1438 0.0
H1030 H 0.11933 0.34069 0.17451 0.0
C1031 C 0.2272 0.41051 0.16274 0.0
H1032 H 0.13391 0.36539 0.13429 0.0
C1033 C 0.21883 0.39609 0.18583 0.0
C1034 C 0.17993 0.37059 0.19053 0.0
H1035 H 0.25743 0.43031 0.15981 0.0
H1036 H 0.24293 0.40458 0.19993 0.0
C1037 C 0.14965 0.35996 0.17153 0.0
C1038 C 0.81584 0.59468 0.88102 0.0
C1039 C 0.79315 0.60353 0.89622 0.0
H1040 H 0.84618 0.60626 0.8484 0.0
C1041 C 0.78368 0.63183 0.88946 0.0
H1042 H 0.82361 0.573 0.88561 0.0
C1043 C 0.79652 0.65079 0.86822 0.0
C1044 C 0.81921 0.64205 0.853 0.0
H1045 H 0.76682 0.63994 0.90088 0.0
H1046 H 0.78838 0.67221 0.86362 0.0
C1047 C 0.82852 0.61354 0.85959 0.0
C1048 C 0.42218 0.17844 0.88968 0.0
C1049 C 0.40642 0.1902 0.90862 0.0
H1050 H 0.41836 0.16178 0.85107 0.0
C1051 C 0.37444 0.19549 0.90224 0.0
H1052 H 0.44707 0.17448 0.89384 0.0
C1053 C 0.35832 0.18873 0.87768 0.0
C1054 C 0.3736 0.17631 0.85878 0.0
H1055 H 0.36117 0.20406 0.9163 0.0
H1056 H 0.33379 0.19324 0.87352 0.0
C1057 C 0.40598 0.17159 0.86508 0.0
C1058 C 0.82831 0.18018 0.87831 0.0
C1059 C 0.82741 0.21332 0.88811 0.0
H1060 H 0.83571 0.15051 0.84682 0.0
C1061 C 0.83359 0.2426 0.87259 0.0
H1062 H 0.8241 0.15723 0.88976 0.0
C1063 C 0.84049 0.23883 0.84794 0.0
C1064 C 0.84163 0.20578 0.8382 0.0
H1065 H 0.83278 0.26835 0.87946 0.0
H1066 H 0.84563 0.26218 0.83662 0.0
C1067 C 0.83537 0.17649 0.85372 0.0
C1068 C 0.26964 0.11092 0.47568 0.0
C1069 C 0.29612 0.13932 0.46159 0.0
H1070 H 0.25826 0.08971 0.51124 0.0
C1071 C 0.33158 0.17009 0.47367 0.0
H1072 H 0.24176 0.08725 0.46707 0.0
C1073 C 0.34096 0.17159 0.49902 0.0
C1074 C 0.31517 0.14227 0.51287 0.0
H1075 H 0.35289 0.1922 0.46336 0.0
H1076 H 0.36917 0.19479 0.50756 0.0
C1077 C 0.27907 0.11236 0.50099 0.0
C1078 C 0.86185 0.14662 0.46199 0.0
C1079 C 0.90247 0.16574 0.46003 0.0
H1080 H 0.81581 0.13938 0.48396 0.0
C1081 C 0.92796 0.19369 0.47935 0.0
H1082 H 0.84137 0.1251 0.44739 0.0
C1083 C 0.91335 0.20193 0.50021 0.0
C1084 C 0.87281 0.18253 0.50234 0.0
H1085 H 0.95943 0.20865 0.47866 0.0
H1086 H 0.93393 0.22357 0.51472 0.0
C1087 C 0.84718 0.15505 0.48285 0.0
C1088 C 0.81915 0.70251 0.47789 0.0
C1089 C 0.85789 0.7291 0.4735 0.0
H1090 H 0.78071 0.66714 0.50354 0.0
C1091 C 0.88816 0.7402 0.49258 0.0
H1092 H 0.79518 0.69303 0.46354 0.0
C1093 C 0.87987 0.72527 0.51551 0.0
C1094 C 0.84114 0.69861 0.51989 0.0
H1095 H 0.91827 0.76084 0.48988 0.0
H1096 H 0.90392 0.73424 0.52973 0.0
C1097 C 0.8109 0.68737 0.50076 0.0
loop_
_geom_bond_atom_site_label_1
_geom_bond_atom_site_label_2
_geom_bond_distance
_geom_bond_site_symmetry_2
_ccdc_geom_bond_type
H0 C3 0.929 . S
H1 C6 0.929 . S
H2 C8 0.930 . S
C3 H0 0.929 . S
C3 C4 1.398 . S
C3 C5 1.396 . S
C4 C3 1.398 . S
C4 C8 1.407 . S
C5 C3 1.396 . S
C5 C6 1.394 . S
C6 H1 0.929 . S
C6 C5 1.394 . S
C6 C7 1.382 . S
C7 C6 1.382 . S
C7 C8 1.392 . S
C7 N9 1.420 . S
C8 H2 0.930 . S
C8 C4 1.407 . S
C8 C7 1.392 . S
N9 C7 1.420 . S
N9 C10 1.244 . S
C10 N9 1.244 . S
H11 C14 0.929 . S
H12 C17 0.929 . S
H13 C19 0.930 . S
C14 H11 0.929 . S
C14 C15 1.398 . S
C14 C16 1.396 . S
C15 C14 1.398 . S
C15 C19 1.407 . S
C16 C14 1.396 . S
C16 C17 1.394 . S
C17 H12 0.929 . S
C17 C16 1.394 . S
C17 C18 1.382 . S
C18 C17 1.382 . S
C18 C19 1.392 . S
C18 N20 1.420 . S
C19 H13 0.930 . S
C19 C15 1.407 . S
C19 C18 1.392 . S
N20 C18 1.420 . S
N20 C21 1.244 . S
C21 N20 1.244 . S
H22 C25 0.929 . S
H23 C28 0.929 . S
H24 C30 0.930 . S
C25 H22 0.929 . S
C25 C26 1.398 . S
C25 C27 1.396 . S
C26 C25 1.398 . S
C26 C30 1.407 . S
C27 C25 1.396 . S
C27 C28 1.394 . S
C28 H23 0.929 . S
C28 C27 1.394 . S
C28 C29 1.382 . S
C29 C28 1.382 . S
C29 C30 1.392 . S
C29 N31 1.420 . S
C30 H24 0.930 . S
C30 C26 1.407 . S
C30 C29 1.392 . S
N31 C29 1.420 . S
N31 C32 1.244 . S
C32 N31 1.244 . S
H33 C36 0.929 . S
H34 C39 0.929 . S
H35 C41 0.930 . S
C36 H33 0.929 . S
C36 C37 1.398 . S
C36 C38 1.396 . S
C37 C36 1.398 . S
C37 C41 1.407 . S
C38 C36 1.396 . S
C38 C39 1.394 . S
C39 H34 0.929 . S
C39 C38 1.394 . S
C39 C40 1.382 . S
C40 C39 1.382 . S
C40 C41 1.392 . S
C40 N42 1.420 . S
C41 H35 0.930 . S
C41 C37 1.407 . S
C41 C40 1.392 . S
N42 C40 1.420 . S
N42 C43 1.244 . S
C43 N42 1.244 . S
H44 C47 0.929 . S
H45 C50 0.929 . S
H46 C52 0.930 . S
C47 H44 0.929 . S
C47 C48 1.398 . S
C47 C49 1.396 . S
C48 C47 1.398 . S
C48 C52 1.407 . S
C49 C47 1.396 . S
C49 C50 1.394 . S
C50 H45 0.929 . S
C50 C49 1.394 . S
C50 C51 1.382 . S
C51 C50 1.382 . S
C51 C52 1.392 . S
C51 N53 1.420 . S
C52 H46 0.930 . S
C52 C48 1.407 . S
C52 C51 1.392 . S
N53 C51 1.420 . S
N53 C54 1.244 . S
C54 N53 1.244 . S
H55 C58 0.929 . S
H56 C61 0.929 . S
H57 C63 0.930 . S
C58 H55 0.929 . S
C58 C59 1.398 . S
C58 C60 1.396 . S
C59 C58 1.398 . S
C59 C63 1.407 . S
C60 C58 1.396 . S
C60 C61 1.394 . S
C61 H56 0.929 . S
C61 C60 1.394 . S
C61 C62 1.382 . S
C62 C61 1.382 . S
C62 C63 1.392 . S
C62 N64 1.420 . S
C63 H57 0.930 . S
C63 C59 1.407 . S
C63 C62 1.392 . S
N64 C62 1.420 . S
N64 C65 1.244 . S
C65 N64 1.244 . S
H66 C69 0.929 . S
H67 C72 0.929 . S
H68 C74 0.930 . S
C69 H66 0.929 . S
C69 C70 1.398 . S
C69 C71 1.396 . S
C70 C69 1.398 . S
C70 C74 1.407 . S
C71 C69 1.396 . S
C71 C72 1.394 . S
C72 H67 0.929 . S
C72 C71 1.394 . S
C72 C73 1.382 . S
C73 C72 1.382 . S
C73 C74 1.392 . S
C73 N75 1.420 . S
C74 H68 0.930 . S
C74 C70 1.407 . S
C74 C73 1.392 . S
N75 C73 1.420 . S
N75 C76 1.244 . S
C76 N75 1.244 . S
H77 C80 0.929 . S
H78 C83 0.929 . S
H79 C85 0.930 . S
C80 H77 0.929 . S
C80 C81 1.398 . S
C80 C82 1.396 . S
C81 C80 1.398 . S
C81 C85 1.407 . S
C82 C80 1.396 . S
C82 C83 1.394 . S
C83 H78 0.929 . S
C83 C82 1.394 . S
C83 C84 1.382 . S
C84 C83 1.382 . S
C84 C85 1.392 . S
C84 N86 1.420 . S
C85 H79 0.930 . S
C85 C81 1.407 . S
C85 C84 1.392 . S
N86 C84 1.420 . S
N86 C87 1.244 . S
C87 N86 1.244 . S
H88 C91 0.929 . S
H89 C94 0.929 . S
H90 C96 0.930 . S
C91 H88 0.929 . S
C91 C92 1.398 . S
C91 C93 1.396 . S
C92 C91 1.398 . S
C92 C96 1.407 . S
C93 C91 1.396 . S
C93 C94 1.394 . S
C94 H89 0.929 . S
C94 C93 1.394 . S
C94 C95 1.382 . S
C95 C94 1.382 . S
C95 C96 1.392 . S
C95 N97 1.420 . S
C96 H90 0.930 . S
C96 C92 1.407 . S
C96 C95 1.392 . S
N97 C95 1.420 . S
N97 C98 1.244 . S
C98 N97 1.244 . S
H99 C102 0.929 . S
H100 C105 0.929 . S
H101 C107 0.930 . S
C102 H99 0.929 . S
C102 C103 1.398 . S
C102 C104 1.396 . S
C103 C102 1.398 . S
C103 C107 1.407 . S
C104 C102 1.396 . S
C104 C105 1.394 . S
C105 H100 0.929 . S
C105 C104 1.394 . S
C105 C106 1.382 . S
C106 C105 1.382 . S
C106 C107 1.392 . S
C106 N108 1.420 . S
C107 H101 0.930 . S
C107 C103 1.407 . S
C107 C106 1.392 . S
N108 C106 1.420 . S
N108 C109 1.244 . S
C109 N108 1.244 . S
H110 C113 0.929 . S
H111 C116 0.929 . S
H112 C118 0.930 1_554 S
C113 H110 0.929 . S
C113 C114 1.398 . S
C113 C115 1.396 . S
C114 C113 1.398 . S
C114 C118 1.407 . S
C115 C113 1.396 . S
C115 C116 1.394 . S
C116 H111 0.929 . S
C116 C115 1.394 . S
C116 C117 1.382 . S
C117 C116 1.382 . S
C117 C118 1.392 . S
C117 N119 1.420 . S
C118 H112 0.930 1_556 S
C118 C114 1.407 . S
C118 C117 1.392 . S
N119 C117 1.420 . S
N119 C120 1.244 . S
C120 N119 1.244 . S
H121 C124 0.929 . S
H122 C127 0.929 . S
H123 C129 0.930 . S
C124 H121 0.929 . S
C124 C125 1.398 . S
C124 C126 1.396 . S
C125 C124 1.398 . S
C125 C129 1.407 . S
C126 C124 1.396 . S
C126 C127 1.394 . S
C127 H122 0.929 . S
C127 C126 1.394 . S
C127 C128 1.382 . S
C128 C127 1.382 . S
C128 C129 1.392 . S
C128 N130 1.420 . S
C129 H123 0.930 . S
C129 C125 1.407 . S
C129 C128 1.392 . S
N130 C128 1.420 . S
N130 C131 1.244 . S
C131 N130 1.244 . S
H132 C135 0.929 . S
H133 C138 0.929 . S
H134 C140 0.930 . S
C135 H132 0.929 . S
C135 C136 1.398 . S
C135 C137 1.396 . S
C136 C135 1.398 . S
C136 C140 1.407 . S
C137 C135 1.396 . S
C137 C138 1.394 . S
C138 H133 0.929 . S
C138 C137 1.394 . S
C138 C139 1.382 . S
C139 C138 1.382 . S
C139 C140 1.392 . S
C139 N141 1.420 . S
C140 H134 0.930 . S
C140 C136 1.407 . S
C140 C139 1.392 . S
N141 C139 1.420 . S
N141 C142 1.244 . S
C142 N141 1.244 . S
H143 C146 0.929 . S
H144 C149 0.929 . S
H145 C151 0.930 . S
C146 H143 0.929 . S
C146 C147 1.398 . S
C146 C148 1.396 . S
C147 C146 1.398 . S
C147 C151 1.407 . S
C148 C146 1.396 . S
C148 C149 1.394 . S
C149 H144 0.929 . S
C149 C148 1.394 . S
C149 C150 1.382 . S
C150 C149 1.382 . S
C150 C151 1.392 . S
C150 N152 1.420 . S
C151 H145 0.930 . S
C151 C147 1.407 . S
C151 C150 1.392 . S
N152 C150 1.420 . S
N152 C153 1.244 . S
C153 N152 1.244 . S
H154 C157 0.929 . S
H155 C160 0.929 . S
H156 C162 0.930 . S
C157 H154 0.929 . S
C157 C158 1.398 . S
C157 C159 1.396 . S
C158 C157 1.398 . S
C158 C162 1.407 . S
C159 C157 1.396 . S
C159 C160 1.394 . S
C160 H155 0.929 . S
C160 C159 1.394 . S
C160 C161 1.382 . S
C161 C160 1.382 . S
C161 C162 1.392 . S
C161 N163 1.420 . S
C162 H156 0.930 . S
C162 C158 1.407 . S
C162 C161 1.392 . S
N163 C161 1.420 . S
N163 C164 1.244 . S
C164 N163 1.244 . S
H165 C168 0.929 . S
H166 C171 0.929 . S
H167 C173 0.930 . S
C168 H165 0.929 . S
C168 C169 1.398 . S
C168 C170 1.396 . S
C169 C168 1.398 . S
C169 C173 1.407 . S
C170 C168 1.396 . S
C170 C171 1.394 . S
C171 H166 0.929 . S
C171 C170 1.394 . S
C171 C172 1.382 . S
C172 C171 1.382 . S
C172 C173 1.392 . S
C172 N174 1.420 . S
C173 H167 0.930 . S
C173 C169 1.407 . S
C173 C172 1.392 . S
N174 C172 1.420 . S
N174 C175 1.244 . S
C175 N174 1.244 . S
H176 C179 0.929 . S
H177 C182 0.929 . S
H178 C184 0.930 . S
C179 H176 0.929 . S
C179 C180 1.398 . S
C179 C181 1.396 . S
C180 C179 1.398 . S
C180 C184 1.407 . S
C181 C179 1.396 . S
C181 C182 1.394 . S
C182 H177 0.929 . S
C182 C181 1.394 . S
C182 C183 1.382 . S
C183 C182 1.382 . S
C183 C184 1.392 . S
C183 N185 1.420 . S
C184 H178 0.930 . S
C184 C180 1.407 . S
C184 C183 1.392 . S
N185 C183 1.420 . S
N185 C186 1.244 . S
C186 N185 1.244 . S
H187 C190 0.929 . S
H188 C193 0.929 . S
H189 C195 0.930 . S
C190 H187 0.929 . S
C190 C191 1.398 . S
C190 C192 1.396 . S
C191 C190 1.398 . S
C191 C195 1.407 . S
C192 C190 1.396 . S
C192 C193 1.394 . S
C193 H188 0.929 . S
C193 C192 1.394 . S
C193 C194 1.382 . S
C194 C193 1.382 . S
C194 C195 1.392 . S
C194 N196 1.420 . S
C195 H189 0.930 . S
C195 C191 1.407 . S
C195 C194 1.392 . S
N196 C194 1.420 . S
N196 C197 1.244 . S
C197 N196 1.244 . S
Tb198 C208 2.825 1_565 S
Tb198 O209 2.347 1_565 S
Tb198 O212 2.366 1_565 S
Tb198 O217 2.418 . S
Tb198 O218 2.384 . S
Tb198 O221 2.479 . S
Tb198 O222 2.471 1_565 S
Eu199 O210 2.418 . S
Eu199 O211 2.384 . S
Eu199 O214 2.479 . S
Eu199 O215 2.471 1_545 S
Eu199 O216 2.347 1_545 S
Eu199 O219 2.366 1_545 S
Eu199 C229 2.825 . S
C200 O216 1.259 . S
C200 O217 1.265 1_554 S
C201 O218 1.255 1_554 S
C201 O219 1.265 . S
C202 C204 1.380 1_545 S
C202 C205 1.374 . S
C202 C208 1.507 . S
C203 C204 1.384 1_545 S
C203 C207 1.387 . S
C203 H230 0.930 1_545 S
C204 C202 1.380 1_565 S
C204 C203 1.384 1_565 S
C204 H231 0.931 . S
C205 C202 1.374 . S
C205 C206 1.390 . S
C205 H232 0.930 . S
C206 C205 1.390 . S
C206 C207 1.391 . S
C206 H233 0.930 . S
C207 C203 1.387 . S
C207 C206 1.391 . S
C208 Tb198 2.825 1_545 S
C208 C202 1.507 . S
C208 O221 1.238 1_545 S
C208 O222 1.247 . S
O209 Tb198 2.347 1_545 S
O209 C213 1.259 1_556 S
O210 Eu199 2.418 . S
O210 C213 1.265 . S
O211 Eu199 2.384 . S
O211 C220 1.255 1_554 S
O212 Tb198 2.366 1_545 S
O212 C220 1.265 . S
C213 O209 1.259 1_554 S
C213 O210 1.265 . S
O214 Eu199 2.479 . S
O214 C229 1.238 . S
O215 Eu199 2.471 1_565 S
O215 C229 1.247 1_565 S
O216 Eu199 2.347 1_565 S
O216 C200 1.259 . S
O217 Tb198 2.418 . S
O217 C200 1.265 1_556 S
O218 Tb198 2.384 . S
O218 C201 1.255 1_556 S
O219 Eu199 2.366 1_565 S
O219 C201 1.265 . S
C220 O211 1.255 1_556 S
C220 O212 1.265 . S
O221 Tb198 2.479 . S
O221 C208 1.238 1_565 S
O222 Tb198 2.471 1_545 S
O222 C208 1.247 . S
C223 C226 1.380 1_565 S
C223 C227 1.374 . S
C223 C229 1.507 1_565 S
C224 C225 1.387 1_565 S
C224 C228 1.391 . S
C225 C224 1.387 1_545 S
C225 C226 1.384 . S
C225 H234 0.930 . S
C226 C223 1.380 1_545 S
C226 C225 1.384 . S
C226 H235 0.931 . S
C227 C223 1.374 . S
C227 C228 1.390 . S
C227 H236 0.930 . S
C228 C224 1.391 . S
C228 C227 1.390 . S
C228 H237 0.930 . S
C229 Eu199 2.825 . S
C229 O214 1.238 . S
C229 O215 1.247 1_545 S
C229 C223 1.507 1_545 S
H230 C203 0.930 1_565 S
H231 C204 0.931 . S
H232 C205 0.930 . S
H233 C206 0.930 . S
H234 C225 0.930 . S
H235 C226 0.931 . S
H236 C227 0.930 . S
H237 C228 0.930 . S
Tb238 C248 2.830 . S
Tb238 O249 2.347 1_455 S
Tb238 O252 2.366 1_455 S
Tb238 O257 2.418 . S
Tb238 O258 2.384 1_556 S
Tb238 O261 2.479 . S
Tb238 O262 2.471 1_455 S
Eu239 O250 2.418 . S
Eu239 O251 2.384 . S
Eu239 O254 2.479 . S
Eu239 O255 2.471 1_655 S
Eu239 O256 2.347 1_655 S
Eu239 O259 2.366 1_655 S
Eu239 C269 2.825 1_655 S
C240 O256 1.259 . S
C240 O257 1.265 1_554 S
C241 O258 1.255 . S
C241 O259 1.265 . S
C242 C244 1.380 1_655 S
C242 C245 1.374 . S
C242 C248 1.501 1_655 S
C243 C244 1.384 1_655 S
C243 C247 1.387 . S
C243 H270 0.930 1_655 S
C244 C242 1.380 1_455 S
C244 C243 1.384 1_455 S
C244 H271 0.931 . S
C245 C242 1.374 . S
C245 C246 1.390 . S
C245 H272 0.930 . S
C246 C245 1.390 . S
C246 C247 1.391 . S
C246 H273 0.930 . S
C247 C243 1.387 . S
C247 C246 1.391 . S
C248 Tb238 2.830 . S
C248 C242 1.501 1_455 S
C248 O261 1.245 . S
C248 O262 1.246 1_455 S
O249 Tb238 2.347 1_655 S
O249 C253 1.259 . S
O250 Eu239 2.418 . S
O250 C253 1.265 1_554 S
O251 Eu239 2.384 . S
O251 C260 1.255 1_554 S
O252 Tb238 2.366 1_655 S
O252 C260 1.265 . S
C253 O249 1.259 . S
C253 O250 1.265 1_556 S
O254 Eu239 2.479 . S
O254 C269 1.238 1_655 S
O255 Eu239 2.471 1_455 S
O255 C269 1.247 . S
O256 Eu239 2.347 1_455 S
O256 C240 1.259 . S
O257 Tb238 2.418 . S
O257 C240 1.265 1_556 S
O258 Tb238 2.384 1_554 S
O258 C241 1.255 . S
O259 Eu239 2.366 1_455 S
O259 C241 1.265 . S
C260 O251 1.255 1_556 S
C260 O252 1.265 . S
O261 Tb238 2.479 . S
O261 C248 1.245 . S
O262 Tb238 2.471 1_655 S
O262 C248 1.246 1_655 S
C263 C266 1.380 1_455 S
C263 C267 1.374 . S
C263 C269 1.507 . S
C264 C265 1.387 . S
C264 C268 1.391 . S
C265 C264 1.387 . S
C265 C266 1.384 1_455 S
C265 H274 0.930 1_455 S
C266 C263 1.380 1_655 S
C266 C265 1.384 1_655 S
C266 H275 0.931 . S
C267 C263 1.374 . S
C267 C268 1.390 . S
C267 H276 0.930 . S
C268 C264 1.391 . S
C268 C267 1.390 . S
C268 H277 0.930 . S
C269 Eu239 2.825 1_455 S
C269 O254 1.238 1_455 S
C269 O255 1.247 . S
C269 C263 1.507 . S
H270 C243 0.930 1_455 S
H271 C244 0.931 . S
H272 C245 0.930 . S
H273 C246 0.930 . S
H274 C265 0.930 1_655 S
H275 C266 0.931 . S
H276 C267 0.930 . S
H277 C268 0.930 . S
Tb278 C288 2.825 . S
Tb278 O289 2.347 . S
Tb278 O292 2.366 . S
Tb278 O297 2.418 . S
Tb278 O298 2.384 . S
Tb278 O301 2.479 . S
Tb278 O302 2.471 . S
Eu279 O290 2.418 . S
Eu279 O291 2.384 1_556 S
Eu279 O294 2.479 . S
Eu279 O295 2.471 . S
Eu279 O296 2.347 . S
Eu279 O299 2.366 . S
Eu279 C309 2.825 . S
C280 O296 1.259 1_554 S
C280 O297 1.265 . S
C281 O298 1.255 1_556 S
C281 O299 1.265 . S
C282 C284 1.380 . S
C282 C285 1.374 . S
C282 C288 1.507 . S
C283 C284 1.384 . S
C283 C287 1.387 . S
C283 H310 0.930 . S
C284 C282 1.380 . S
C284 C283 1.384 . S
C284 H311 0.931 . S
C285 C282 1.374 . S
C285 C286 1.390 . S
C285 H312 0.930 . S
C286 C285 1.390 . S
C286 C287 1.391 . S
C286 H313 0.930 . S
C287 C283 1.387 . S
C287 C286 1.391 . S
C288 Tb278 2.825 . S
C288 C282 1.507 . S
C288 O301 1.238 . S
C288 O302 1.247 . S
O289 Tb278 2.347 . S
O289 C293 1.259 . S
O290 Eu279 2.418 . S
O290 C293 1.265 1_556 S
O291 Eu279 2.384 1_554 S
O291 C300 1.255 . S
O292 Tb278 2.366 . S
O292 C300 1.265 . S
C293 O289 1.259 . S
C293 O290 1.265 1_554 S
O294 Eu279 2.479 . S
O294 C309 1.238 . S
O295 Eu279 2.471 . S
O295 C309 1.247 . S
O296 Eu279 2.347 . S
O296 C280 1.259 1_556 S
O297 Tb278 2.418 . S
O297 C280 1.265 . S
O298 Tb278 2.384 . S
O298 C281 1.255 1_554 S
O299 Eu279 2.366 . S
O299 C281 1.265 . S
C300 O291 1.255 . S
C300 O292 1.265 . S
O301 Tb278 2.479 . S
O301 C288 1.238 . S
O302 Tb278 2.471 . S
O302 C288 1.247 . S
C303 C306 1.380 . S
C303 C307 1.374 . S
C303 C309 1.507 . S
C304 C305 1.387 . S
C304 C308 1.391 . S
C305 C304 1.387 . S
C305 C306 1.384 . S
C305 H314 0.930 . S
C306 C303 1.380 . S
C306 C305 1.384 . S
C306 H315 0.931 . S
C307 C303 1.374 . S
C307 C308 1.390 . S
C307 H316 0.930 . S
C308 C304 1.391 . S
C308 C307 1.390 . S
C308 H317 0.930 . S
C309 Eu279 2.825 . S
C309 O294 1.238 . S
C309 O295 1.247 . S
C309 C303 1.507 . S
H310 C283 0.930 . S
H311 C284 0.931 . S
H312 C285 0.930 . S
H313 C286 0.930 . S
H314 C305 0.930 . S
H315 C306 0.931 . S
H316 C307 0.930 . S
H317 C308 0.930 . S
Tb318 C328 2.825 . S
Tb318 O329 2.347 . S
Tb318 O332 2.366 . S
Tb318 O337 2.418 . S
Tb318 O338 2.384 . S
Tb318 O341 2.479 . S
Tb318 O342 2.471 . S
Eu319 O330 2.418 . S
Eu319 O331 2.384 . S
Eu319 O334 2.479 . S
Eu319 O335 2.471 . S
Eu319 O336 2.347 . S
Eu319 O339 2.366 . S
Eu319 C349 2.825 . S
C320 O336 1.259 . S
C320 O337 1.265 . S
C321 O338 1.255 . S
C321 O339 1.265 . S
C322 C324 1.380 . S
C322 C325 1.374 . S
C322 C328 1.507 . S
C323 C324 1.384 . S
C323 C327 1.387 . S
C323 H350 0.930 . S
C324 C322 1.380 . S
C324 C323 1.384 . S
C324 H351 0.931 . S
C325 C322 1.374 . S
C325 C326 1.390 . S
C325 H352 0.930 . S
C326 C325 1.390 . S
C326 C327 1.391 . S
C326 H353 0.930 . S
C327 C323 1.387 . S
C327 C326 1.391 . S
C328 Tb318 2.825 . S
C328 C322 1.507 . S
C328 O341 1.238 . S
C328 O342 1.247 . S
O329 Tb318 2.347 . S
O329 C333 1.259 . S
O330 Eu319 2.418 . S
O330 C333 1.265 . S
O331 Eu319 2.384 . S
O331 C340 1.255 . S
O332 Tb318 2.366 . S
O332 C340 1.265 . S
C333 O329 1.259 . S
C333 O330 1.265 . S
O334 Eu319 2.479 . S
O334 C349 1.238 . S
O335 Eu319 2.471 . S
O335 C349 1.247 . S
O336 Eu319 2.347 . S
O336 C320 1.259 . S
O337 Tb318 2.418 . S
O337 C320 1.265 . S
O338 Tb318 2.384 . S
O338 C321 1.255 . S
O339 Eu319 2.366 . S
O339 C321 1.265 . S
C340 O331 1.255 . S
C340 O332 1.265 . S
O341 Tb318 2.479 . S
O341 C328 1.238 . S
O342 Tb318 2.471 . S
O342 C328 1.247 . S
C343 C346 1.380 . S
C343 C347 1.374 . S
C343 C349 1.507 . S
C344 C345 1.387 . S
C344 C348 1.391 . S
C345 C344 1.387 . S
C345 C346 1.384 . S
C345 H354 0.930 . S
C346 C343 1.380 . S
C346 C345 1.384 . S
C346 H355 0.931 . S
C347 C343 1.374 . S
C347 C348 1.390 . S
C347 H356 0.930 . S
C348 C344 1.391 . S
C348 C347 1.390 . S
C348 H357 0.930 . S
C349 Eu319 2.825 . S
C349 O334 1.238 . S
C349 O335 1.247 . S
C349 C343 1.507 . S
H350 C323 0.930 . S
H351 C324 0.931 . S
H352 C325 0.930 . S
H353 C326 0.930 . S
H354 C345 0.930 . S
H355 C346 0.931 . S
H356 C347 0.930 . S
H357 C348 0.930 . S
Tb358 C368 2.825 . S
Tb358 O369 2.347 . S
Tb358 O372 2.366 . S
Tb358 O377 2.418 . S
Tb358 O378 2.384 . S
Tb358 O381 2.479 . S
Tb358 O382 2.471 . S
Eu359 O370 2.418 . S
Eu359 O371 2.384 . S
Eu359 O374 2.479 . S
Eu359 O375 2.471 . S
Eu359 O376 2.347 . S
Eu359 O379 2.366 . S
Eu359 C389 2.825 . S
C360 O376 1.259 . S
C360 O377 1.265 . S
C361 O378 1.255 . S
C361 O379 1.265 . S
C362 C364 1.380 . S
C362 C365 1.374 . S
C362 C368 1.507 . S
C363 C364 1.384 . S
C363 C367 1.387 . S
C363 H390 0.930 . S
C364 C362 1.380 . S
C364 C363 1.384 . S
C364 H391 0.931 . S
C365 C362 1.374 . S
C365 C366 1.390 . S
C365 H392 0.930 . S
C366 C365 1.390 . S
C366 C367 1.391 . S
C366 H393 0.930 . S
C367 C363 1.387 . S
C367 C366 1.391 . S
C368 Tb358 2.825 . S
C368 C362 1.507 . S
C368 O381 1.238 . S
C368 O382 1.247 . S
O369 Tb358 2.347 . S
O369 C373 1.259 . S
O370 Eu359 2.418 . S
O370 C373 1.265 . S
O371 Eu359 2.384 . S
O371 C380 1.255 . S
O372 Tb358 2.366 . S
O372 C380 1.265 . S
C373 O369 1.259 . S
C373 O370 1.265 . S
O374 Eu359 2.479 . S
O374 C389 1.238 . S
O375 Eu359 2.471 . S
O375 C389 1.247 . S
O376 Eu359 2.347 . S
O376 C360 1.259 . S
O377 Tb358 2.418 . S
O377 C360 1.265 . S
O378 Tb358 2.384 . S
O378 C361 1.255 . S
O379 Eu359 2.366 . S
O379 C361 1.265 . S
C380 O371 1.255 . S
C380 O372 1.265 . S
O381 Tb358 2.479 . S
O381 C368 1.238 . S
O382 Tb358 2.471 . S
O382 C368 1.247 . S
C383 C386 1.380 . S
C383 C387 1.374 . S
C383 C389 1.507 . S
C384 C385 1.387 . S
C384 C388 1.391 . S
C385 C384 1.387 . S
C385 C386 1.384 . S
C385 H394 0.930 . S
C386 C383 1.380 . S
C386 C385 1.384 . S
C386 H395 0.931 . S
C387 C383 1.374 . S
C387 C388 1.390 . S
C387 H396 0.930 . S
C388 C384 1.391 . S
C388 C387 1.390 . S
C388 H397 0.930 . S
C389 Eu359 2.825 . S
C389 O374 1.238 . S
C389 O375 1.247 . S
C389 C383 1.507 . S
H390 C363 0.930 . S
H391 C364 0.931 . S
H392 C365 0.930 . S
H393 C366 0.930 . S
H394 C385 0.930 . S
H395 C386 0.931 . S
H396 C387 0.930 . S
H397 C388 0.930 . S
Tb398 C408 2.825 . S
Tb398 O409 2.347 . S
Tb398 O412 2.366 . S
Tb398 O417 2.418 . S
Tb398 O418 2.384 . S
Tb398 O421 2.479 . S
Tb398 O422 2.471 . S
Eu399 O410 2.418 . S
Eu399 O411 2.384 . S
Eu399 O414 2.479 . S
Eu399 O415 2.471 . S
Eu399 O416 2.347 . S
Eu399 O419 2.366 . S
Eu399 C429 2.825 . S
C400 O416 1.259 . S
C400 O417 1.265 . S
C401 O418 1.255 . S
C401 O419 1.265 . S
C402 C404 1.380 . S
C402 C405 1.374 . S
C402 C408 1.507 . S
C403 C404 1.384 . S
C403 C407 1.387 . S
C403 H430 0.930 . S
C404 C402 1.380 . S
C404 C403 1.384 . S
C404 H431 0.931 . S
C405 C402 1.374 . S
C405 C406 1.390 . S
C405 H432 0.930 . S
C406 C405 1.390 . S
C406 C407 1.391 . S
C406 H433 0.930 . S
C407 C403 1.387 . S
C407 C406 1.391 . S
C408 Tb398 2.825 . S
C408 C402 1.507 . S
C408 O421 1.238 . S
C408 O422 1.247 . S
O409 Tb398 2.347 . S
O409 C413 1.259 . S
O410 Eu399 2.418 . S
O410 C413 1.265 . S
O411 Eu399 2.384 . S
O411 C420 1.255 . S
O412 Tb398 2.366 . S
O412 C420 1.265 . S
C413 O409 1.259 . S
C413 O410 1.265 . S
O414 Eu399 2.479 . S
O414 C429 1.238 . S
O415 Eu399 2.471 . S
O415 C429 1.247 . S
O416 Eu399 2.347 . S
O416 C400 1.259 . S
O417 Tb398 2.418 . S
O417 C400 1.265 . S
O418 Tb398 2.384 . S
O418 C401 1.255 . S
O419 Eu399 2.366 . S
O419 C401 1.265 . S
C420 O411 1.255 . S
C420 O412 1.265 . S
O421 Tb398 2.479 . S
O421 C408 1.238 . S
O422 Tb398 2.471 . S
O422 C408 1.247 . S
C423 C426 1.380 . S
C423 C427 1.374 . S
C423 C429 1.507 . S
C424 C425 1.387 . S
C424 C428 1.391 . S
C425 C424 1.387 . S
C425 C426 1.384 . S
C425 H434 0.930 . S
C426 C423 1.380 . S
C426 C425 1.384 . S
C426 H435 0.931 . S
C427 C423 1.374 . S
C427 C428 1.390 . S
C427 H436 0.930 . S
C428 C424 1.391 . S
C428 C427 1.390 . S
C428 H437 0.930 . S
C429 Eu399 2.825 . S
C429 O414 1.238 . S
C429 O415 1.247 . S
C429 C423 1.507 . S
H430 C403 0.930 . S
H431 C404 0.931 . S
H432 C405 0.930 . S
H433 C406 0.930 . S
H434 C425 0.930 . S
H435 C426 0.931 . S
H436 C427 0.930 . S
H437 C428 0.930 . S
Tb438 C448 2.825 . S
Tb438 O449 2.347 . S
Tb438 O452 2.366 . S
Tb438 O457 2.418 . S
Tb438 O458 2.384 . S
Tb438 O461 2.479 . S
Tb438 O462 2.471 . S
Eu439 O450 2.418 . S
Eu439 O451 2.384 . S
Eu439 O454 2.479 . S
Eu439 O455 2.471 . S
Eu439 O456 2.347 . S
Eu439 O459 2.366 . S
Eu439 C469 2.825 . S
C440 O456 1.259 . S
C440 O457 1.265 . S
C441 O458 1.255 . S
C441 O459 1.265 . S
C442 C444 1.380 . S
C442 C445 1.374 . S
C442 C448 1.507 . S
C443 C444 1.384 . S
C443 C447 1.387 . S
C443 H470 0.930 . S
C444 C442 1.380 . S
C444 C443 1.384 . S
C444 H471 0.931 . S
C445 C442 1.374 . S
C445 C446 1.390 . S
C445 H472 0.930 . S
C446 C445 1.390 . S
C446 C447 1.391 . S
C446 H473 0.930 . S
C447 C443 1.387 . S
C447 C446 1.391 . S
C448 Tb438 2.825 . S
C448 C442 1.507 . S
C448 O461 1.238 . S
C448 O462 1.247 . S
O449 Tb438 2.347 . S
O449 C453 1.259 . S
O450 Eu439 2.418 . S
O450 C453 1.265 . S
O451 Eu439 2.384 . S
O451 C460 1.255 . S
O452 Tb438 2.366 . S
O452 C460 1.265 . S
C453 O449 1.259 . S
C453 O450 1.265 . S
O454 Eu439 2.479 . S
O454 C469 1.238 . S
O455 Eu439 2.471 . S
O455 C469 1.247 . S
O456 Eu439 2.347 . S
O456 C440 1.259 . S
O457 Tb438 2.418 . S
O457 C440 1.265 . S
O458 Tb438 2.384 . S
O458 C441 1.255 . S
O459 Eu439 2.366 . S
O459 C441 1.265 . S
C460 O451 1.255 . S
C460 O452 1.265 . S
O461 Tb438 2.479 . S
O461 C448 1.238 . S
O462 Tb438 2.471 . S
O462 C448 1.247 . S
C463 C466 1.380 . S
C463 C467 1.374 . S
C463 C469 1.507 . S
C464 C465 1.387 . S
C464 C468 1.391 . S
C465 C464 1.387 . S
C465 C466 1.384 . S
C465 H474 0.930 . S
C466 C463 1.380 . S
C466 C465 1.384 . S
C466 H475 0.931 . S
C467 C463 1.374 . S
C467 C468 1.390 . S
C467 H476 0.930 . S
C468 C464 1.391 . S
C468 C467 1.390 . S
C468 H477 0.930 . S
C469 Eu439 2.825 . S
C469 O454 1.238 . S
C469 O455 1.247 . S
C469 C463 1.507 . S
H470 C443 0.930 . S
H471 C444 0.931 . S
H472 C445 0.930 . S
H473 C446 0.930 . S
H474 C465 0.930 . S
H475 C466 0.931 . S
H476 C467 0.930 . S
H477 C468 0.930 . S
Tb478 C488 2.825 . S
Tb478 O489 2.347 . S
Tb478 O492 2.366 . S
Tb478 O497 2.418 . S
Tb478 O498 2.384 . S
Tb478 O501 2.479 . S
Tb478 O502 2.471 . S
Eu479 O490 2.418 . S
Eu479 O491 2.384 . S
Eu479 O494 2.479 . S
Eu479 O495 2.471 . S
Eu479 O496 2.347 . S
Eu479 O499 2.366 . S
Eu479 C509 2.825 . S
C480 O496 1.259 . S
C480 O497 1.265 . S
C481 O498 1.255 . S
C481 O499 1.265 . S
C482 C484 1.380 . S
C482 C485 1.374 . S
C482 C488 1.507 . S
C483 C484 1.384 . S
C483 C487 1.387 . S
C483 H510 0.930 . S
C484 C482 1.380 . S
C484 C483 1.384 . S
C484 H511 0.931 . S
C485 C482 1.374 . S
C485 C486 1.390 . S
C485 H512 0.930 . S
C486 C485 1.390 . S
C486 C487 1.391 . S
C486 H513 0.930 . S
C487 C483 1.387 . S
C487 C486 1.391 . S
C488 Tb478 2.825 . S
C488 C482 1.507 . S
C488 O501 1.238 . S
C488 O502 1.247 . S
O489 Tb478 2.347 . S
O489 C493 1.259 . S
O490 Eu479 2.418 . S
O490 C493 1.265 . S
O491 Eu479 2.384 . S
O491 C500 1.255 . S
O492 Tb478 2.366 . S
O492 C500 1.265 . S
C493 O489 1.259 . S
C493 O490 1.265 . S
O494 Eu479 2.479 . S
O494 C509 1.238 . S
O495 Eu479 2.471 . S
O495 C509 1.247 . S
O496 Eu479 2.347 . S
O496 C480 1.259 . S
O497 Tb478 2.418 . S
O497 C480 1.265 . S
O498 Tb478 2.384 . S
O498 C481 1.255 . S
O499 Eu479 2.366 . S
O499 C481 1.265 . S
C500 O491 1.255 . S
C500 O492 1.265 . S
O501 Tb478 2.479 . S
O501 C488 1.238 . S
O502 Tb478 2.471 . S
O502 C488 1.247 . S
C503 C506 1.380 . S
C503 C507 1.374 . S
C503 C509 1.507 . S
C504 C505 1.387 . S
C504 C508 1.391 . S
C505 C504 1.387 . S
C505 C506 1.384 . S
C505 H514 0.930 . S
C506 C503 1.380 . S
C506 C505 1.384 . S
C506 H515 0.931 . S
C507 C503 1.374 . S
C507 C508 1.390 . S
C507 H516 0.930 . S
C508 C504 1.391 . S
C508 C507 1.390 . S
C508 H517 0.930 . S
C509 Eu479 2.825 . S
C509 O494 1.238 . S
C509 O495 1.247 . S
C509 C503 1.507 . S
H510 C483 0.930 . S
H511 C484 0.931 . S
H512 C485 0.930 . S
H513 C486 0.930 . S
H514 C505 0.930 . S
H515 C506 0.931 . S
H516 C507 0.930 . S
H517 C508 0.930 . S
Tb518 C528 2.825 . S
Tb518 O529 2.347 . S
Tb518 O532 2.366 . S
Tb518 O537 2.418 . S
Tb518 O538 2.384 . S
Tb518 O541 2.479 . S
Tb518 O542 2.471 . S
Eu519 O530 2.418 . S
Eu519 O531 2.384 . S
Eu519 O534 2.479 . S
Eu519 O535 2.471 . S
Eu519 O536 2.347 . S
Eu519 O539 2.366 . S
Eu519 C549 2.825 . S
C520 O536 1.259 . S
C520 O537 1.265 . S
C521 O538 1.255 . S
C521 O539 1.265 . S
C522 C524 1.380 . S
C522 C525 1.374 . S
C522 C528 1.507 . S
C523 C524 1.384 . S
C523 C527 1.387 . S
C523 H550 0.930 . S
C524 C522 1.380 . S
C524 C523 1.384 . S
C524 H551 0.931 . S
C525 C522 1.374 . S
C525 C526 1.390 . S
C525 H552 0.930 . S
C526 C525 1.390 . S
C526 C527 1.391 . S
C526 H553 0.930 . S
C527 C523 1.387 . S
C527 C526 1.391 . S
C528 Tb518 2.825 . S
C528 C522 1.507 . S
C528 O541 1.238 . S
C528 O542 1.247 . S
O529 Tb518 2.347 . S
O529 C533 1.259 . S
O530 Eu519 2.418 . S
O530 C533 1.265 . S
O531 Eu519 2.384 . S
O531 C540 1.255 . S
O532 Tb518 2.366 . S
O532 C540 1.265 . S
C533 O529 1.259 . S
C533 O530 1.265 . S
O534 Eu519 2.479 . S
O534 C549 1.238 . S
O535 Eu519 2.471 . S
O535 C549 1.247 . S
O536 Eu519 2.347 . S
O536 C520 1.259 . S
O537 Tb518 2.418 . S
O537 C520 1.265 . S
O538 Tb518 2.384 . S
O538 C521 1.255 . S
O539 Eu519 2.366 . S
O539 C521 1.265 . S
C540 O531 1.255 . S
C540 O532 1.265 . S
O541 Tb518 2.479 . S
O541 C528 1.238 . S
O542 Tb518 2.471 . S
O542 C528 1.247 . S
C543 C546 1.380 . S
C543 C547 1.374 . S
C543 C549 1.507 . S
C544 C545 1.387 . S
C544 C548 1.391 . S
C545 C544 1.387 . S
C545 C546 1.384 . S
C545 H554 0.930 . S
C546 C543 1.380 . S
C546 C545 1.384 . S
C546 H555 0.931 . S
C547 C543 1.374 . S
C547 C548 1.390 . S
C547 H556 0.930 . S
C548 C544 1.391 . S
C548 C547 1.390 . S
C548 H557 0.930 . S
C549 Eu519 2.825 . S
C549 O534 1.238 . S
C549 O535 1.247 . S
C549 C543 1.507 . S
H550 C523 0.930 . S
H551 C524 0.931 . S
H552 C525 0.930 . S
H553 C526 0.930 . S
H554 C545 0.930 . S
H555 C546 0.931 . S
H556 C547 0.930 . S
H557 C548 0.930 . S
C558 C559 1.387 . S
C558 H562 0.950 . S
C558 C567 1.390 . S
C559 C558 1.387 . S
C559 C561 1.387 . S
H560 C567 0.950 . S
C561 C559 1.387 . S
C561 C563 1.390 . S
C561 H565 0.950 . S
H562 C558 0.950 . S
C563 C561 1.390 . S
C563 C564 1.387 . S
C563 H566 0.950 . S
C564 C563 1.387 . S
C564 C567 1.387 . S
H565 C561 0.950 . S
H566 C563 0.950 . S
C567 C558 1.390 . S
C567 H560 0.950 . S
C567 C564 1.387 . S
C568 C569 1.387 . S
C568 H572 0.950 . S
C568 C577 1.390 . S
C569 C568 1.387 . S
C569 C571 1.387 . S
H570 C577 0.950 . S
C571 C569 1.387 . S
C571 C573 1.390 . S
C571 H575 0.950 . S
H572 C568 0.950 . S
C573 C571 1.390 . S
C573 C574 1.387 . S
C573 H576 0.950 . S
C574 C573 1.387 . S
C574 C577 1.387 . S
H575 C571 0.950 . S
H576 C573 0.950 . S
C577 C568 1.390 . S
C577 H570 0.950 . S
C577 C574 1.387 . S
C578 C579 1.387 . S
C578 H582 0.950 1_554 S
C578 C587 1.390 1_554 S
C579 C578 1.387 . S
C579 C581 1.387 . S
H580 C587 0.950 . S
C581 C579 1.387 . S
C581 C583 1.390 . S
C581 H585 0.950 . S
H582 C578 0.950 1_556 S
C583 C581 1.390 . S
C583 C584 1.387 . S
C583 H586 0.950 . S
C584 C583 1.387 . S
C584 C587 1.387 1_554 S
H585 C581 0.950 . S
H586 C583 0.950 . S
C587 C578 1.390 1_556 S
C587 H580 0.950 . S
C587 C584 1.387 1_556 S
C588 C589 1.387 . S
C588 H592 0.950 . S
C588 C597 1.390 . S
C589 C588 1.387 . S
C589 C591 1.387 . S
H590 C597 0.950 . S
C591 C589 1.387 . S
C591 C593 1.390 1_556 S
C591 H595 0.950 1_556 S
H592 C588 0.950 . S
C593 C591 1.390 1_554 S
C593 C594 1.387 1_554 S
C593 H596 0.950 . S
C594 C593 1.387 1_556 S
C594 C597 1.387 . S
H595 C591 0.950 1_554 S
H596 C593 0.950 . S
C597 C588 1.390 . S
C597 H590 0.950 . S
C597 C594 1.387 . S
C598 C599 1.387 . S
C598 H602 0.950 . S
C598 C607 1.390 . S
C599 C598 1.387 . S
C599 C601 1.387 . S
H600 C607 0.950 . S
C601 C599 1.387 . S
C601 C603 1.390 . S
C601 H605 0.950 . S
H602 C598 0.950 . S
C603 C601 1.390 . S
C603 C604 1.387 . S
C603 H606 0.950 . S
C604 C603 1.387 . S
C604 C607 1.387 . S
H605 C601 0.950 . S
H606 C603 0.950 . S
C607 C598 1.390 . S
C607 H600 0.950 . S
C607 C604 1.387 . S
C608 C609 1.387 1_554 S
C608 H612 0.950 . S
C608 C617 1.390 . S
C609 C608 1.387 1_556 S
C609 C611 1.387 . S
H610 C617 0.950 . S
C611 C609 1.387 . S
C611 C613 1.390 . S
C611 H615 0.950 . S
H612 C608 0.950 . S
C613 C611 1.390 . S
C613 C614 1.387 . S
C613 H616 0.950 . S
C614 C613 1.387 . S
C614 C617 1.387 1_556 S
H615 C611 0.950 . S
H616 C613 0.950 . S
C617 C608 1.390 . S
C617 H610 0.950 . S
C617 C614 1.387 1_554 S
C618 C619 1.387 . S
C618 H622 0.950 1_556 S
C618 C627 1.390 . S
C619 C618 1.387 . S
C619 C621 1.387 . S
H620 C627 0.950 1_554 S
C621 C619 1.387 . S
C621 C623 1.390 . S
C621 H625 0.950 . S
H622 C618 0.950 1_554 S
C623 C621 1.390 . S
C623 C624 1.387 . S
C623 H626 0.950 . S
C624 C623 1.387 . S
C624 C627 1.387 . S
H625 C621 0.950 . S
H626 C623 0.950 . S
C627 C618 1.390 . S
C627 H620 0.950 1_556 S
C627 C624 1.387 . S
C628 C629 1.387 . S
C628 H632 0.950 . S
C628 C637 1.390 . S
C629 C628 1.387 . S
C629 C631 1.387 . S
H630 C637 0.950 . S
C631 C629 1.387 . S
C631 C633 1.390 . S
C631 H635 0.950 . S
H632 C628 0.950 . S
C633 C631 1.390 . S
C633 C634 1.387 . S
C633 H636 0.950 1_556 S
C634 C633 1.387 . S
C634 C637 1.387 . S
H635 C631 0.950 . S
H636 C633 0.950 1_554 S
C637 C628 1.390 . S
C637 H630 0.950 . S
C637 C634 1.387 . S
C638 C639 1.387 1_554 S
C638 H642 0.950 . S
C638 C647 1.390 . S
C639 C638 1.387 1_556 S
C639 C641 1.387 . S
H640 C647 0.950 . S
C641 C639 1.387 . S
C641 C643 1.390 . S
C641 H645 0.950 . S
H642 C638 0.950 . S
C643 C641 1.390 . S
C643 C644 1.387 . S
C643 H646 0.950 . S
C644 C643 1.387 . S
C644 C647 1.387 1_556 S
H645 C641 0.950 . S
H646 C643 0.950 . S
C647 C638 1.390 . S
C647 H640 0.950 . S
C647 C644 1.387 1_554 S
C648 C649 1.387 . S
C648 H652 0.950 . S
C648 C657 1.390 . S
C649 C648 1.387 . S
C649 C651 1.387 . S
H650 C657 0.950 . S
C651 C649 1.387 . S
C651 C653 1.390 . S
C651 H655 0.950 1_554 S
H652 C648 0.950 . S
C653 C651 1.390 . S
C653 C654 1.387 . S
C653 H656 0.950 1_554 S
C654 C653 1.387 . S
C654 C657 1.387 . S
H655 C651 0.950 1_556 S
H656 C653 0.950 1_556 S
C657 C648 1.390 . S
C657 H650 0.950 . S
C657 C654 1.387 . S
C658 C659 1.387 . S
C658 H662 0.950 . S
C658 C667 1.390 . S
C659 C658 1.387 . S
C659 C661 1.387 . S
H660 C667 0.950 . S
C661 C659 1.387 . S
C661 C663 1.390 . S
C661 H665 0.950 . S
H662 C658 0.950 . S
C663 C661 1.390 . S
C663 C664 1.387 . S
C663 H666 0.950 . S
C664 C663 1.387 . S
C664 C667 1.387 . S
H665 C661 0.950 . S
H666 C663 0.950 . S
C667 C658 1.390 . S
C667 H660 0.950 . S
C667 C664 1.387 . S
C668 C669 1.387 1_556 S
C668 H672 0.950 . S
C668 C677 1.390 . S
C669 C668 1.387 1_554 S
C669 C671 1.387 . S
H670 C677 0.950 . S
C671 C669 1.387 . S
C671 C673 1.390 . S
C671 H675 0.950 . S
H672 C668 0.950 . S
C673 C671 1.390 . S
C673 C674 1.387 . S
C673 H676 0.950 . S
C674 C673 1.387 . S
C674 C677 1.387 1_554 S
H675 C671 0.950 . S
H676 C673 0.950 . S
C677 C668 1.390 . S
C677 H670 0.950 . S
C677 C674 1.387 1_556 S
C678 C679 1.387 . S
C678 H682 0.950 . S
C678 C687 1.390 1_655 S
C679 C678 1.387 . S
C679 C681 1.387 . S
H680 C687 0.950 . S
C681 C679 1.387 . S
C681 C683 1.390 . S
C681 H685 0.950 . S
H682 C678 0.950 . S
C683 C681 1.390 . S
C683 C684 1.387 1_655 S
C683 H686 0.950 . S
C684 C683 1.387 1_455 S
C684 C687 1.387 . S
H685 C681 0.950 . S
H686 C683 0.950 . S
C687 C678 1.390 1_455 S
C687 H680 0.950 . S
C687 C684 1.387 . S
C688 C689 1.387 . S
C688 H692 0.950 . S
C688 C697 1.390 . S
C689 C688 1.387 . S
C689 C691 1.387 . S
H690 C697 0.950 . S
C691 C689 1.387 . S
C691 C693 1.390 . S
C691 H695 0.950 . S
H692 C688 0.950 . S
C693 C691 1.390 . S
C693 C694 1.387 . S
C693 H696 0.950 . S
C694 C693 1.387 . S
C694 C697 1.387 . S
H695 C691 0.950 . S
H696 C693 0.950 . S
C697 C688 1.390 . S
C697 H690 0.950 . S
C697 C694 1.387 . S
C698 C699 1.387 . S
C698 H702 0.950 . S
C698 C707 1.390 . S
C699 C698 1.387 . S
C699 C701 1.387 . S
H700 C707 0.950 . S
C701 C699 1.387 . S
C701 C703 1.390 . S
C701 H705 0.950 . S
H702 C698 0.950 . S
C703 C701 1.390 . S
C703 C704 1.387 1_545 S
C703 H706 0.950 1_545 S
C704 C703 1.387 1_565 S
C704 C707 1.387 1_565 S
H705 C701 0.950 . S
H706 C703 0.950 1_565 S
C707 C698 1.390 . S
C707 H700 0.950 . S
C707 C704 1.387 1_545 S
C708 C709 1.387 . S
C708 H712 0.950 . S
C708 C717 1.390 . S
C709 C708 1.387 . S
C709 C711 1.387 . S
H710 C717 0.950 . S
C711 C709 1.387 . S
C711 C713 1.390 . S
C711 H715 0.950 . S
H712 C708 0.950 . S
C713 C711 1.390 . S
C713 C714 1.387 . S
C713 H716 0.950 . S
C714 C713 1.387 . S
C714 C717 1.387 . S
H715 C711 0.950 . S
H716 C713 0.950 . S
C717 C708 1.390 . S
C717 H710 0.950 . S
C717 C714 1.387 . S
C718 C719 1.387 . S
C718 H722 0.950 . S
C718 C727 1.390 . S
C719 C718 1.387 . S
C719 C721 1.387 . S
H720 C727 0.950 . S
C721 C719 1.387 . S
C721 C723 1.390 . S
C721 H725 0.950 . S
H722 C718 0.950 . S
C723 C721 1.390 . S
C723 C724 1.387 . S
C723 H726 0.950 . S
C724 C723 1.387 . S
C724 C727 1.387 . S
H725 C721 0.950 . S
H726 C723 0.950 . S
C727 C718 1.390 . S
C727 H720 0.950 . S
C727 C724 1.387 . S
C728 C729 1.387 . S
C728 H732 0.950 . S
C728 C737 1.390 . S
C729 C728 1.387 . S
C729 C731 1.387 . S
H730 C737 0.950 . S
C731 C729 1.387 . S
C731 C733 1.390 . S
C731 H735 0.950 . S
H732 C728 0.950 . S
C733 C731 1.390 . S
C733 C734 1.387 . S
C733 H736 0.950 . S
C734 C733 1.387 . S
C734 C737 1.387 . S
H735 C731 0.950 . S
H736 C733 0.950 . S
C737 C728 1.390 . S
C737 H730 0.950 . S
C737 C734 1.387 . S
C738 C739 1.387 . S
C738 H742 0.950 . S
C738 C747 1.390 . S
C739 C738 1.387 . S
C739 C741 1.387 . S
H740 C747 0.950 . S
C741 C739 1.387 . S
C741 C743 1.390 . S
C741 H745 0.950 . S
H742 C738 0.950 . S
C743 C741 1.390 . S
C743 C744 1.387 . S
C743 H746 0.950 . S
C744 C743 1.387 . S
C744 C747 1.387 . S
H745 C741 0.950 . S
H746 C743 0.950 . S
C747 C738 1.390 . S
C747 H740 0.950 . S
C747 C744 1.387 . S
C748 C749 1.387 . S
C748 H752 0.950 . S
C748 C757 1.390 . S
C749 C748 1.387 . S
C749 C751 1.387 . S
H750 C757 0.950 . S
C751 C749 1.387 . S
C751 C753 1.390 . S
C751 H755 0.950 . S
H752 C748 0.950 . S
C753 C751 1.390 . S
C753 C754 1.387 . S
C753 H756 0.950 . S
C754 C753 1.387 . S
C754 C757 1.387 . S
H755 C751 0.950 . S
H756 C753 0.950 . S
C757 C748 1.390 . S
C757 H750 0.950 . S
C757 C754 1.387 . S
C758 C759 1.387 . S
C758 H762 0.950 . S
C758 C767 1.390 . S
C759 C758 1.387 . S
C759 C761 1.387 . S
H760 C767 0.950 . S
C761 C759 1.387 . S
C761 C763 1.390 . S
C761 H765 0.950 . S
H762 C758 0.950 . S
C763 C761 1.390 . S
C763 C764 1.387 . S
C763 H766 0.950 . S
C764 C763 1.387 . S
C764 C767 1.387 . S
H765 C761 0.950 . S
H766 C763 0.950 . S
C767 C758 1.390 . S
C767 H760 0.950 . S
C767 C764 1.387 . S
C768 C769 1.387 1_565 S
C768 H772 0.950 . S
C768 C777 1.390 . S
C769 C768 1.387 1_545 S
C769 C771 1.387 1_545 S
H770 C777 0.950 . S
C771 C769 1.387 1_565 S
C771 C773 1.390 . S
C771 H775 0.950 . S
H772 C768 0.950 . S
C773 C771 1.390 . S
C773 C774 1.387 . S
C773 H776 0.950 . S
C774 C773 1.387 . S
C774 C777 1.387 . S
H775 C771 0.950 . S
H776 C773 0.950 . S
C777 C768 1.390 . S
C777 H770 0.950 . S
C777 C774 1.387 . S
C778 C779 1.387 . S
C778 H782 0.950 . S
C778 C787 1.390 . S
C779 C778 1.387 . S
C779 C781 1.387 . S
H780 C787 0.950 . S
C781 C779 1.387 . S
C781 C783 1.390 . S
C781 H785 0.950 . S
H782 C778 0.950 . S
C783 C781 1.390 . S
C783 C784 1.387 . S
C783 H786 0.950 . S
C784 C783 1.387 . S
C784 C787 1.387 . S
H785 C781 0.950 . S
H786 C783 0.950 . S
C787 C778 1.390 . S
C787 H780 0.950 . S
C787 C784 1.387 . S
C788 C789 1.387 . S
C788 H792 0.950 . S
C788 C797 1.390 . S
C789 C788 1.387 . S
C789 C791 1.387 . S
H790 C797 0.950 . S
C791 C789 1.387 . S
C791 C793 1.390 . S
C791 H795 0.950 . S
H792 C788 0.950 . S
C793 C791 1.390 . S
C793 C794 1.387 . S
C793 H796 0.950 . S
C794 C793 1.387 . S
C794 C797 1.387 . S
H795 C791 0.950 . S
H796 C793 0.950 . S
C797 C788 1.390 . S
C797 H790 0.950 . S
C797 C794 1.387 . S
C798 C799 1.387 . S
C798 H802 0.950 . S
C798 C807 1.390 . S
C799 C798 1.387 . S
C799 C801 1.387 . S
H800 C807 0.950 . S
C801 C799 1.387 . S
C801 C803 1.390 . S
C801 H805 0.950 . S
H802 C798 0.950 . S
C803 C801 1.390 . S
C803 C804 1.387 . S
C803 H806 0.950 . S
C804 C803 1.387 . S
C804 C807 1.387 . S
H805 C801 0.950 . S
H806 C803 0.950 . S
C807 C798 1.390 . S
C807 H800 0.950 . S
C807 C804 1.387 . S
C808 C809 1.387 . S
C808 H812 0.950 . S
C808 C817 1.390 . S
C809 C808 1.387 . S
C809 C811 1.387 . S
H810 C817 0.950 . S
C811 C809 1.387 . S
C811 C813 1.390 . S
C811 H815 0.950 . S
H812 C808 0.950 . S
C813 C811 1.390 . S
C813 C814 1.387 . S
C813 H816 0.950 . S
C814 C813 1.387 . S
C814 C817 1.387 . S
H815 C811 0.950 . S
H816 C813 0.950 . S
C817 C808 1.390 . S
C817 H810 0.950 . S
C817 C814 1.387 . S
C818 C819 1.387 . S
C818 H822 0.950 . S
C818 C827 1.390 . S
C819 C818 1.387 . S
C819 C821 1.387 . S
H820 C827 0.950 . S
C821 C819 1.387 . S
C821 C823 1.390 . S
C821 H825 0.950 . S
H822 C818 0.950 . S
C823 C821 1.390 . S
C823 C824 1.387 . S
C823 H826 0.950 . S
C824 C823 1.387 . S
C824 C827 1.387 . S
H825 C821 0.950 . S
H826 C823 0.950 . S
C827 C818 1.390 . S
C827 H820 0.950 . S
C827 C824 1.387 . S
C828 C829 1.387 . S
C828 H832 0.950 . S
C828 C837 1.390 . S
C829 C828 1.387 . S
C829 C831 1.387 . S
H830 C837 0.949 1_545 S
C831 C829 1.387 . S
C831 C833 1.390 1_565 S
C831 H835 0.950 . S
H832 C828 0.950 . S
C833 C831 1.390 1_545 S
C833 C834 1.387 . S
C833 H836 0.950 . S
C834 C833 1.387 . S
C834 C837 1.387 1_545 S
H835 C831 0.950 . S
H836 C833 0.950 . S
C837 C828 1.390 . S
C837 H830 0.949 1_565 S
C837 C834 1.387 1_565 S
C838 C839 1.387 . S
C838 H842 0.950 . S
C838 C847 1.390 1_455 S
C839 C838 1.387 . S
C839 C841 1.387 . S
H840 C847 0.950 . S
C841 C839 1.387 . S
C841 C843 1.390 . S
C841 H845 0.950 . S
H842 C838 0.950 . S
C843 C841 1.390 . S
C843 C844 1.387 1_455 S
C843 H846 0.950 . S
C844 C843 1.387 1_655 S
C844 C847 1.387 . S
H845 C841 0.950 . S
H846 C843 0.950 . S
C847 C838 1.390 1_655 S
C847 H840 0.950 . S
C847 C844 1.387 . S
C848 C849 1.387 . S
C848 H852 0.950 . S
C848 C857 1.390 . S
C849 C848 1.387 . S
C849 C851 1.387 . S
H850 C857 0.950 . S
C851 C849 1.387 . S
C851 C853 1.390 . S
C851 H855 0.950 . S
H852 C848 0.950 . S
C853 C851 1.390 . S
C853 C854 1.387 . S
C853 H856 0.950 . S
C854 C853 1.387 . S
C854 C857 1.387 . S
H855 C851 0.950 . S
H856 C853 0.950 . S
C857 C848 1.390 . S
C857 H850 0.950 . S
C857 C854 1.387 . S
C858 C859 1.387 . S
C858 H862 0.950 . S
C858 C867 1.390 . S
C859 C858 1.387 . S
C859 C861 1.387 . S
H860 C867 0.950 . S
C861 C859 1.387 . S
C861 C863 1.390 . S
C861 H865 0.950 1_655 S
H862 C858 0.950 . S
C863 C861 1.390 . S
C863 C864 1.387 . S
C863 H866 0.950 . S
C864 C863 1.387 . S
C864 C867 1.387 . S
H865 C861 0.950 1_455 S
H866 C863 0.950 . S
C867 C858 1.390 . S
C867 H860 0.950 . S
C867 C864 1.387 . S
C868 C869 1.387 . S
C868 H872 0.950 . S
C868 C877 1.390 . S
C869 C868 1.387 . S
C869 C871 1.387 . S
H870 C877 0.950 . S
C871 C869 1.387 . S
C871 C873 1.390 . S
C871 H875 0.950 . S
H872 C868 0.950 . S
C873 C871 1.390 . S
C873 C874 1.387 . S
C873 H876 0.950 . S
C874 C873 1.387 . S
C874 C877 1.387 . S
H875 C871 0.950 . S
H876 C873 0.950 . S
C877 C868 1.390 . S
C877 H870 0.950 . S
C877 C874 1.387 . S
C878 C879 1.387 . S
C878 H882 0.950 . S
C878 C887 1.390 . S
C879 C878 1.387 . S
C879 C881 1.387 . S
H880 C887 0.950 . S
C881 C879 1.387 . S
C881 C883 1.390 . S
C881 H885 0.950 . S
H882 C878 0.950 . S
C883 C881 1.390 . S
C883 C884 1.387 . S
C883 H886 0.950 . S
C884 C883 1.387 . S
C884 C887 1.387 . S
H885 C881 0.950 . S
H886 C883 0.950 . S
C887 C878 1.390 . S
C887 H880 0.950 . S
C887 C884 1.387 . S
C888 C889 1.387 . S
C888 H892 0.950 . S
C888 C897 1.390 . S
C889 C888 1.387 . S
C889 C891 1.387 . S
H890 C897 0.950 . S
C891 C889 1.387 . S
C891 C893 1.390 . S
C891 H895 0.950 . S
H892 C888 0.950 . S
C893 C891 1.390 . S
C893 C894 1.387 . S
C893 H896 0.950 . S
C894 C893 1.387 . S
C894 C897 1.387 . S
H895 C891 0.950 . S
H896 C893 0.950 . S
C897 C888 1.390 . S
C897 H890 0.950 . S
C897 C894 1.387 . S
C898 C899 1.387 . S
C898 H902 0.950 . S
C898 C907 1.390 . S
C899 C898 1.387 . S
C899 C901 1.387 . S
H900 C907 0.950 . S
C901 C899 1.387 . S
C901 C903 1.390 . S
C901 H905 0.950 . S
H902 C898 0.950 . S
C903 C901 1.390 . S
C903 C904 1.387 . S
C903 H906 0.950 . S
C904 C903 1.387 . S
C904 C907 1.387 . S
H905 C901 0.950 . S
H906 C903 0.950 . S
C907 C898 1.390 . S
C907 H900 0.950 . S
C907 C904 1.387 . S
C908 C909 1.387 . S
C908 H912 0.950 . S
C908 C917 1.390 . S
C909 C908 1.387 . S
C909 C911 1.387 . S
H910 C917 0.950 . S
C911 C909 1.387 . S
C911 C913 1.390 . S
C911 H915 0.950 . S
H912 C908 0.950 . S
C913 C911 1.390 . S
C913 C914 1.387 . S
C913 H916 0.950 . S
C914 C913 1.387 . S
C914 C917 1.387 . S
H915 C911 0.950 . S
H916 C913 0.950 . S
C917 C908 1.390 . S
C917 H910 0.950 . S
C917 C914 1.387 . S
C918 C919 1.387 . S
C918 H922 0.950 . S
C918 C927 1.390 . S
C919 C918 1.387 . S
C919 C921 1.387 . S
H920 C927 0.950 1_545 S
C921 C919 1.387 . S
C921 C923 1.390 . S
C921 H925 0.950 . S
H922 C918 0.950 . S
C923 C921 1.390 . S
C923 C924 1.387 . S
C923 H926 0.950 . S
C924 C923 1.387 . S
C924 C927 1.387 . S
H925 C921 0.950 . S
H926 C923 0.950 . S
C927 C918 1.390 . S
C927 H920 0.950 1_565 S
C927 C924 1.387 . S
C928 C929 1.387 . S
C928 H932 0.950 . S
C928 C937 1.390 . S
C929 C928 1.387 . S
C929 C931 1.387 . S
H930 C937 0.950 . S
C931 C929 1.387 . S
C931 C933 1.390 . S
C931 H935 0.950 . S
H932 C928 0.950 . S
C933 C931 1.390 . S
C933 C934 1.387 . S
C933 H936 0.950 . S
C934 C933 1.387 . S
C934 C937 1.387 . S
H935 C931 0.950 . S
H936 C933 0.950 . S
C937 C928 1.390 . S
C937 H930 0.950 . S
C937 C934 1.387 . S
C938 C939 1.387 . S
C938 H942 0.950 . S
C938 C947 1.390 . S
C939 C938 1.387 . S
C939 C941 1.387 . S
H940 C947 0.950 . S
C941 C939 1.387 . S
C941 C943 1.390 . S
C941 H945 0.950 . S
H942 C938 0.950 . S
C943 C941 1.390 . S
C943 C944 1.387 . S
C943 H946 0.950 . S
C944 C943 1.387 . S
C944 C947 1.387 . S
H945 C941 0.950 . S
H946 C943 0.950 . S
C947 C938 1.390 . S
C947 H940 0.950 . S
C947 C944 1.387 . S
C948 C949 1.387 . S
C948 H952 0.950 . S
C948 C957 1.390 . S
C949 C948 1.387 . S
C949 C951 1.387 . S
H950 C957 0.950 . S
C951 C949 1.387 . S
C951 C953 1.390 . S
C951 H955 0.950 1_655 S
H952 C948 0.950 . S
C953 C951 1.390 . S
C953 C954 1.387 . S
C953 H956 0.950 1_655 S
C954 C953 1.387 . S
C954 C957 1.387 . S
H955 C951 0.950 1_455 S
H956 C953 0.950 1_455 S
C957 C948 1.390 . S
C957 H950 0.950 . S
C957 C954 1.387 . S
C958 C959 1.387 . S
C958 H962 0.950 . S
C958 C967 1.390 . S
C959 C958 1.387 . S
C959 C961 1.387 . S
H960 C967 0.950 . S
C961 C959 1.387 . S
C961 C963 1.390 . S
C961 H965 0.950 . S
H962 C958 0.950 . S
C963 C961 1.390 . S
C963 C964 1.387 . S
C963 H966 0.950 . S
C964 C963 1.387 . S
C964 C967 1.387 . S
H965 C961 0.950 . S
H966 C963 0.950 . S
C967 C958 1.390 . S
C967 H960 0.950 . S
C967 C964 1.387 . S
C968 C969 1.387 . S
C968 H972 0.950 . S
C968 C977 1.390 . S
C969 C968 1.387 . S
C969 C971 1.387 . S
H970 C977 0.950 . S
C971 C969 1.387 . S
C971 C973 1.390 . S
C971 H975 0.950 . S
H972 C968 0.950 . S
C973 C971 1.390 . S
C973 C974 1.387 . S
C973 H976 0.950 . S
C974 C973 1.387 . S
C974 C977 1.387 . S
H975 C971 0.950 . S
H976 C973 0.950 . S
C977 C968 1.390 . S
C977 H970 0.950 . S
C977 C974 1.387 . S
C978 C979 1.387 . S
C978 H982 0.950 . S
C978 C987 1.390 . S
C979 C978 1.387 . S
C979 C981 1.387 . S
H980 C987 0.950 . S
C981 C979 1.387 . S
C981 C983 1.390 . S
C981 H985 0.950 . S
H982 C978 0.950 . S
C983 C981 1.390 . S
C983 C984 1.387 . S
C983 H986 0.950 . S
C984 C983 1.387 . S
C984 C987 1.387 . S
H985 C981 0.950 . S
H986 C983 0.950 . S
C987 C978 1.390 . S
C987 H980 0.950 . S
C987 C984 1.387 . S
C988 C989 1.387 . S
C988 H992 0.950 . S
C988 C997 1.390 . S
C989 C988 1.387 . S
C989 C991 1.387 . S
H990 C997 0.950 . S
C991 C989 1.387 . S
C991 C993 1.390 . S
C991 H995 0.950 . S
H992 C988 0.950 . S
C993 C991 1.390 . S
C993 C994 1.387 . S
C993 H996 0.950 . S
C994 C993 1.387 . S
C994 C997 1.387 . S
H995 C991 0.950 . S
H996 C993 0.950 . S
C997 C988 1.390 . S
C997 H990 0.950 . S
C997 C994 1.387 . S
C998 C999 1.387 . S
C998 H1002 0.950 . S
C998 C1007 1.390 . S
C999 C998 1.387 . S
C999 C1001 1.387 . S
H1000 C1007 0.950 . S
C1001 C999 1.387 . S
C1001 C1003 1.390 . S
C1001 H1005 0.950 . S
H1002 C998 0.950 . S
C1003 C1001 1.390 . S
C1003 C1004 1.387 . S
C1003 H1006 0.950 . S
C1004 C1003 1.387 . S
C1004 C1007 1.387 . S
H1005 C1001 0.950 . S
H1006 C1003 0.950 . S
C1007 C998 1.390 . S
C1007 H1000 0.950 . S
C1007 C1004 1.387 . S
C1008 C1009 1.387 . S
C1008 H1012 0.950 . S
C1008 C1017 1.390 . S
C1009 C1008 1.387 . S
C1009 C1011 1.387 . S
H1010 C1017 0.950 . S
C1011 C1009 1.387 . S
C1011 C1013 1.390 . S
C1011 H1015 0.950 . S
H1012 C1008 0.950 . S
C1013 C1011 1.390 . S
C1013 C1014 1.387 . S
C1013 H1016 0.950 . S
C1014 C1013 1.387 . S
C1014 C1017 1.387 . S
H1015 C1011 0.950 . S
H1016 C1013 0.950 . S
C1017 C1008 1.390 . S
C1017 H1010 0.950 . S
C1017 C1014 1.387 . S
C1018 C1019 1.387 . S
C1018 H1022 0.950 . S
C1018 C1027 1.390 . S
C1019 C1018 1.387 . S
C1019 C1021 1.387 . S
H1020 C1027 0.950 . S
C1021 C1019 1.387 . S
C1021 C1023 1.390 . S
C1021 H1025 0.950 . S
H1022 C1018 0.950 . S
C1023 C1021 1.390 . S
C1023 C1024 1.387 . S
C1023 H1026 0.950 . S
C1024 C1023 1.387 . S
C1024 C1027 1.387 . S
H1025 C1021 0.950 . S
H1026 C1023 0.950 . S
C1027 C1018 1.390 . S
C1027 H1020 0.950 . S
C1027 C1024 1.387 . S
C1028 C1029 1.387 . S
C1028 H1032 0.950 . S
C1028 C1037 1.390 . S
C1029 C1028 1.387 . S
C1029 C1031 1.387 . S
H1030 C1037 0.950 . S
C1031 C1029 1.387 . S
C1031 C1033 1.390 . S
C1031 H1035 0.950 . S
H1032 C1028 0.950 . S
C1033 C1031 1.390 . S
C1033 C1034 1.387 . S
C1033 H1036 0.950 . S
C1034 C1033 1.387 . S
C1034 C1037 1.387 . S
H1035 C1031 0.950 . S
H1036 C1033 0.950 . S
C1037 C1028 1.390 . S
C1037 H1030 0.950 . S
C1037 C1034 1.387 . S
C1038 C1039 1.387 . S
C1038 H1042 0.950 . S
C1038 C1047 1.390 . S
C1039 C1038 1.387 . S
C1039 C1041 1.387 . S
H1040 C1047 0.950 . S
C1041 C1039 1.387 . S
C1041 C1043 1.390 . S
C1041 H1045 0.950 . S
H1042 C1038 0.950 . S
C1043 C1041 1.390 . S
C1043 C1044 1.387 . S
C1043 H1046 0.950 . S
C1044 C1043 1.387 . S
C1044 C1047 1.387 . S
H1045 C1041 0.950 . S
H1046 C1043 0.950 . S
C1047 C1038 1.390 . S
C1047 H1040 0.950 . S
C1047 C1044 1.387 . S
C1048 C1049 1.387 . S
C1048 H1052 0.950 . S
C1048 C1057 1.390 . S
C1049 C1048 1.387 . S
C1049 C1051 1.387 . S
H1050 C1057 0.950 . S
C1051 C1049 1.387 . S
C1051 C1053 1.390 . S
C1051 H1055 0.950 . S
H1052 C1048 0.950 . S
C1053 C1051 1.390 . S
C1053 C1054 1.387 . S
C1053 H1056 0.950 . S
C1054 C1053 1.387 . S
C1054 C1057 1.387 . S
H1055 C1051 0.950 . S
H1056 C1053 0.950 . S
C1057 C1048 1.390 . S
C1057 H1050 0.950 . S
C1057 C1054 1.387 . S
C1058 C1059 1.387 . S
C1058 H1062 0.950 . S
C1058 C1067 1.390 . S
C1059 C1058 1.387 . S
C1059 C1061 1.387 . S
H1060 C1067 0.950 . S
C1061 C1059 1.387 . S
C1061 C1063 1.390 . S
C1061 H1065 0.950 . S
H1062 C1058 0.950 . S
C1063 C1061 1.390 . S
C1063 C1064 1.387 . S
C1063 H1066 0.950 . S
C1064 C1063 1.387 . S
C1064 C1067 1.387 . S
H1065 C1061 0.950 . S
H1066 C1063 0.950 . S
C1067 C1058 1.390 . S
C1067 H1060 0.950 . S
C1067 C1064 1.387 . S
C1068 C1069 1.387 . S
C1068 H1072 0.950 . S
C1068 C1077 1.390 . S
C1069 C1068 1.387 . S
C1069 C1071 1.387 . S
H1070 C1077 0.950 . S
C1071 C1069 1.387 . S
C1071 C1073 1.390 . S
C1071 H1075 0.950 . S
H1072 C1068 0.950 . S
C1073 C1071 1.390 . S
C1073 C1074 1.387 . S
C1073 H1076 0.950 . S
C1074 C1073 1.387 . S
C1074 C1077 1.387 . S
H1075 C1071 0.950 . S
H1076 C1073 0.950 . S
C1077 C1068 1.390 . S
C1077 H1070 0.950 . S
C1077 C1074 1.387 . S
C1078 C1079 1.387 . S
C1078 H1082 0.950 . S
C1078 C1087 1.390 . S
C1079 C1078 1.387 . S
C1079 C1081 1.387 . S
H1080 C1087 0.950 . S
C1081 C1079 1.387 . S
C1081 C1083 1.390 . S
C1081 H1085 0.950 . S
H1082 C1078 0.950 . S
C1083 C1081 1.390 . S
C1083 C1084 1.387 . S
C1083 H1086 0.950 . S
C1084 C1083 1.387 . S
C1084 C1087 1.387 . S
H1085 C1081 0.950 . S
H1086 C1083 0.950 . S
C1087 C1078 1.390 . S
C1087 H1080 0.950 . S
C1087 C1084 1.387 . S
C1088 C1089 1.387 . S
C1088 H1092 0.950 . S
C1088 C1097 1.390 . S
C1089 C1088 1.387 . S
C1089 C1091 1.387 . S
H1090 C1097 0.950 . S
C1091 C1089 1.387 . S
C1091 C1093 1.390 . S
C1091 H1095 0.950 . S
H1092 C1088 0.950 . S
C1093 C1091 1.390 . S
C1093 C1094 1.387 . S
C1093 H1096 0.950 . S
C1094 C1093 1.387 . S
C1094 C1097 1.387 . S
H1095 C1091 0.950 . S
H1096 C1093 0.950 . S
C1097 C1088 1.390 . S
C1097 H1090 0.950 . S
C1097 C1094 1.387 . S
C559 C147 1.654 . S
C564 C201 1.665 . S
C569 C158 1.749 . S
C574 C241 1.746 . S
C579 C136 1.588 . S
C584 C293 1.582 . S
C589 C125 1.493 . S
C594 C253 1.473 . S
C604 C281 1.518 . S
C599 C103 1.522 . S
C609 C114 1.403 . S
C614 C213 1.404 1_556 S
C624 C220 1.672 . S
C619 C131 1.652 . S
C634 C260 1.648 . S
C629 C109 1.638 . S
C639 C120 1.641 . S
C644 C280 1.672 1_556 S
C649 C153 1.516 . S
C654 C240 1.532 . S
C659 C164 1.484 . S
C664 C300 1.488 . S
C674 C200 1.527 . S
C669 C142 1.497 . S
C684 C321 1.665 . S
C679 C15 1.654 . S
C689 C26 1.749 . S
C694 C361 1.746 . S
C699 C4 1.589 . S
C704 C413 1.582 . S
C709 C191 1.493 . S
C714 C373 1.473 . S
C719 C169 1.521 . S
C724 C401 1.518 . S
C729 C180 1.402 . S
C734 C333 1.403 . S
C739 C197 1.652 . S
C744 C340 1.672 . S
C749 C175 1.637 . S
C754 C380 1.648 . S
C764 C400 1.672 . S
C759 C186 1.640 . S
C769 C21 1.517 . S
C774 C360 1.532 . S
C784 C420 1.488 . S
C779 C32 1.484 1_455 S
C789 C10 1.496 . S
C794 C320 1.526 . S
C804 C441 1.665 . S
C799 C81 1.654 . S
C809 C92 1.748 . S
C814 C481 1.745 . S
C824 C533 1.582 . S
C819 C70 1.588 . S
C834 C493 1.475 . S
C829 C59 1.494 . S
C844 C521 1.518 . S
C839 C37 1.522 . S
C849 C48 1.403 . S
C854 C453 1.404 . S
C859 C65 1.650 1_655 S
C864 C460 1.670 . S
C869 C43 1.637 . S
C874 C500 1.648 . S
C884 C520 1.673 . S
C879 C54 1.641 1_545 S
C889 C87 1.519 . S
C894 C480 1.533 . S
C899 C98 1.483 . S
C904 C540 1.488 . S
C909 C76 1.494 . S
C914 C440 1.525 . S
C919 C170 1.594 . S
C924 C224 1.558 . S
C934 C264 1.867 . S
C929 C181 1.914 . S
C939 C192 1.552 . S
C944 C287 1.570 . S
C949 C71 1.731 . S
C954 C247 1.723 . S
C959 C82 1.676 . S
C964 C304 1.651 . S
C974 C207 1.371 . S
C969 C93 1.364 . S
C979 C38 1.597 . S
C984 C344 1.562 . S
C989 C49 1.915 . S
C994 C384 1.867 . S
C999 C60 1.551 . S
C1004 C407 1.569 . S
C1009 C137 1.731 . S
C1014 C367 1.723 . S
C1024 C424 1.651 . S
C1019 C148 1.676 . S
C1029 C159 1.362 . S
C1034 C327 1.371 . S
C1039 C104 1.595 . S
C1044 C464 1.561 . S
C1049 C115 1.915 . S
C1054 C504 1.867 . S
C1064 C527 1.570 . S
C1059 C126 1.551 . S
C1069 C5 1.730 . S
C1074 C487 1.723 . S
C1079 C16 1.676 . S
C1084 C544 1.651 . S
C1089 C27 1.363 . S
C1094 C447 1.372 . S
