# Generated by pormake.
# Topology ctn, (3,4)-cn, num edge types: 1
# Building blocks:
#     Node 0, Type 0, BuildingBlock: QEWDON_clean_linker_0, # of connection points: 3
#     Node 1, Type 0, BuildingBlock: QEWDON_clean_linker_0, # of connection points: 3
#     Node 2, Type 0, BuildingBlock: QEWDON_clean_linker_0, # of connection points: 3
#     Node 3, Type 0, BuildingBlock: QEWDON_clean_linker_0, # of connection points: 3
#     Node 4, Type 0, BuildingBlock: QEWDON_clean_linker_0, # of connection points: 3
#     Node 5, Type 0, BuildingBlock: QEWDON_clean_linker_0, # of connection points: 3
#     Node 6, Type 0, BuildingBlock: QEWDON_clean_linker_0, # of connection points: 3
#     Node 7, Type 0, BuildingBlock: QEWDON_clean_linker_0, # of connection points: 3
#     Node 8, Type 0, BuildingBlock: QEWDON_clean_linker_0, # of connection points: 3
#     Node 9, Type 0, BuildingBlock: QEWDON_clean_linker_0, # of connection points: 3
#     Node 10, Type 0, BuildingBlock: QEWDON_clean_linker_0, # of connection points: 3
#     Node 11, Type 0, BuildingBlock: QEWDON_clean_linker_0, # of connection points: 3
#     Node 12, Type 0, BuildingBlock: QEWDON_clean_linker_0, # of connection points: 3
#     Node 13, Type 0, BuildingBlock: QEWDON_clean_linker_0, # of connection points: 3
#     Node 14, Type 0, BuildingBlock: QEWDON_clean_linker_0, # of connection points: 3
#     Node 15, Type 0, BuildingBlock: QEWDON_clean_linker_0, # of connection points: 3
#     Node 16, Type 1, BuildingBlock: NAHDIM_clean_sbu_0, # of connection points: 4
#     Node 17, Type 1, BuildingBlock: NAHDIM_clean_sbu_0, # of connection points: 4
#     Node 18, Type 1, BuildingBlock: NAHDIM_clean_sbu_0, # of connection points: 4
#     Node 19, Type 1, BuildingBlock: NAHDIM_clean_sbu_0, # of connection points: 4
#     Node 20, Type 1, BuildingBlock: NAHDIM_clean_sbu_0, # of connection points: 4
#     Node 21, Type 1, BuildingBlock: NAHDIM_clean_sbu_0, # of connection points: 4
#     Node 22, Type 1, BuildingBlock: NAHDIM_clean_sbu_0, # of connection points: 4
#     Node 23, Type 1, BuildingBlock: NAHDIM_clean_sbu_0, # of connection points: 4
#     Node 24, Type 1, BuildingBlock: NAHDIM_clean_sbu_0, # of connection points: 4
#     Node 25, Type 1, BuildingBlock: NAHDIM_clean_sbu_0, # of connection points: 4
#     Node 26, Type 1, BuildingBlock: NAHDIM_clean_sbu_0, # of connection points: 4
#     Node 27, Type 1, BuildingBlock: NAHDIM_clean_sbu_0, # of connection points: 4
#     Edge 28, Type (0, 1), BuildingBlock: EZIPEK_clean_linker_0, # of connection points: 2
#     Edge 29, Type (0, 1), BuildingBlock: EZIPEK_clean_linker_0, # of connection points: 2
#     Edge 30, Type (0, 1), BuildingBlock: EZIPEK_clean_linker_0, # of connection points: 2
#     Edge 31, Type (0, 1), BuildingBlock: EZIPEK_clean_linker_0, # of connection points: 2
#     Edge 32, Type (0, 1), BuildingBlock: EZIPEK_clean_linker_0, # of connection points: 2
#     Edge 33, Type (0, 1), BuildingBlock: EZIPEK_clean_linker_0, # of connection points: 2
#     Edge 34, Type (0, 1), BuildingBlock: EZIPEK_clean_linker_0, # of connection points: 2
#     Edge 35, Type (0, 1), BuildingBlock: EZIPEK_clean_linker_0, # of connection points: 2
#     Edge 36, Type (0, 1), BuildingBlock: EZIPEK_clean_linker_0, # of connection points: 2
#     Edge 37, Type (0, 1), BuildingBlock: EZIPEK_clean_linker_0, # of connection points: 2
#     Edge 38, Type (0, 1), BuildingBlock: EZIPEK_clean_linker_0, # of connection points: 2
#     Edge 39, Type (0, 1), BuildingBlock: EZIPEK_clean_linker_0, # of connection points: 2
#     Edge 40, Type (0, 1), BuildingBlock: EZIPEK_clean_linker_0, # of connection points: 2
#     Edge 41, Type (0, 1), BuildingBlock: EZIPEK_clean_linker_0, # of connection points: 2
#     Edge 42, Type (0, 1), BuildingBlock: EZIPEK_clean_linker_0, # of connection points: 2
#     Edge 43, Type (0, 1), BuildingBlock: EZIPEK_clean_linker_0, # of connection points: 2
#     Edge 44, Type (0, 1), BuildingBlock: EZIPEK_clean_linker_0, # of connection points: 2
#     Edge 45, Type (0, 1), BuildingBlock: EZIPEK_clean_linker_0, # of connection points: 2
#     Edge 46, Type (0, 1), BuildingBlock: EZIPEK_clean_linker_0, # of connection points: 2
#     Edge 47, Type (0, 1), BuildingBlock: EZIPEK_clean_linker_0, # of connection points: 2
#     Edge 48, Type (0, 1), BuildingBlock: EZIPEK_clean_linker_0, # of connection points: 2
#     Edge 49, Type (0, 1), BuildingBlock: EZIPEK_clean_linker_0, # of connection points: 2
#     Edge 50, Type (0, 1), BuildingBlock: EZIPEK_clean_linker_0, # of connection points: 2
#     Edge 51, Type (0, 1), BuildingBlock: EZIPEK_clean_linker_0, # of connection points: 2
#     Edge 52, Type (0, 1), BuildingBlock: EZIPEK_clean_linker_0, # of connection points: 2
#     Edge 53, Type (0, 1), BuildingBlock: EZIPEK_clean_linker_0, # of connection points: 2
#     Edge 54, Type (0, 1), BuildingBlock: EZIPEK_clean_linker_0, # of connection points: 2
#     Edge 55, Type (0, 1), BuildingBlock: EZIPEK_clean_linker_0, # of connection points: 2
#     Edge 56, Type (0, 1), BuildingBlock: EZIPEK_clean_linker_0, # of connection points: 2
#     Edge 57, Type (0, 1), BuildingBlock: EZIPEK_clean_linker_0, # of connection points: 2
#     Edge 58, Type (0, 1), BuildingBlock: EZIPEK_clean_linker_0, # of connection points: 2
#     Edge 59, Type (0, 1), BuildingBlock: EZIPEK_clean_linker_0, # of connection points: 2
#     Edge 60, Type (0, 1), BuildingBlock: EZIPEK_clean_linker_0, # of connection points: 2
#     Edge 61, Type (0, 1), BuildingBlock: EZIPEK_clean_linker_0, # of connection points: 2
#     Edge 62, Type (0, 1), BuildingBlock: EZIPEK_clean_linker_0, # of connection points: 2
#     Edge 63, Type (0, 1), BuildingBlock: EZIPEK_clean_linker_0, # of connection points: 2
#     Edge 64, Type (0, 1), BuildingBlock: EZIPEK_clean_linker_0, # of connection points: 2
#     Edge 65, Type (0, 1), BuildingBlock: EZIPEK_clean_linker_0, # of connection points: 2
#     Edge 66, Type (0, 1), BuildingBlock: EZIPEK_clean_linker_0, # of connection points: 2
#     Edge 67, Type (0, 1), BuildingBlock: EZIPEK_clean_linker_0, # of connection points: 2
#     Edge 68, Type (0, 1), BuildingBlock: EZIPEK_clean_linker_0, # of connection points: 2
#     Edge 69, Type (0, 1), BuildingBlock: EZIPEK_clean_linker_0, # of connection points: 2
#     Edge 70, Type (0, 1), BuildingBlock: EZIPEK_clean_linker_0, # of connection points: 2
#     Edge 71, Type (0, 1), BuildingBlock: EZIPEK_clean_linker_0, # of connection points: 2
#     Edge 72, Type (0, 1), BuildingBlock: EZIPEK_clean_linker_0, # of connection points: 2
#     Edge 73, Type (0, 1), BuildingBlock: EZIPEK_clean_linker_0, # of connection points: 2
#     Edge 74, Type (0, 1), BuildingBlock: EZIPEK_clean_linker_0, # of connection points: 2
#     Edge 75, Type (0, 1), BuildingBlock: EZIPEK_clean_linker_0, # of connection points: 2
# Relax obj value: 0.120
# Max RMSD: 0.273
# Mean RMSD: 0.155
data_MOF--net-ctn--node1-NAHDIM_clean_sbu_0--node2-QEWDON_clean_linker_0--edge1-EZIPEK_clean_linker_0
_symmetry_space_group_name_H-M    P1
_symmetry_Int_Tables_number       1
_symmetry_cell_setting            triclinic
loop_
_symmetry_equiv_pos_as_xyz
'x, y, z'
_cell_length_a     38.386652
_cell_length_b     40.444951
_cell_length_c     42.842068
_cell_angle_alpha  100.41322
_cell_angle_beta   92.250594
_cell_angle_gamma 98.377757
loop_
_atom_site_label
_atom_site_type_symbol
_atom_site_fract_x
_atom_site_fract_y
_atom_site_fract_z
_atom_type_partial_charge
H0 H 0.11736 0.04039 0.06109 0.0
C1 C 0.1011 0.03537 0.08034 0.0
C2 C 0.10327 1.00618 0.09352 0.0
C3 C 0.07967 0.05909 0.09327 0.0
H4 H 0.08496 0.97837 0.12992 0.0
C5 C 0.08292 1.0004 0.11922 0.0
C6 C 0.06175 0.02416 0.13241 0.0
C7 C 0.06004 0.05316 0.11923 0.0
C8 C 0.07997 0.09167 0.08195 0.0
H9 H 0.04397 0.07161 0.1298 0.0
C10 C 0.07303 0.0925 0.04957 0.0
C11 C 0.07149 0.1238 0.03994 0.0
C12 C 0.08628 0.12243 0.10419 0.0
H13 H 0.09203 0.12248 0.12917 0.0
C14 C 0.08535 0.15339 0.09448 0.0
H15 H 0.06789 0.06903 0.03215 0.0
C16 C 0.07782 0.15411 0.06256 0.0
H17 H 0.07684 0.17836 0.05544 0.0
H18 H 0.09025 0.1769 0.1118 0.0
H19 H 0.37348 0.7513 0.25792 0.0
C20 C 0.34978 0.73254 0.25529 0.0
C21 C 0.3503 0.70295 0.2679 0.0
C22 C 0.31887 0.7383 0.2398 0.0
H23 H 0.31989 0.65603 0.27499 0.0
C24 C 0.31974 0.67867 0.26479 0.0
C25 C 0.28866 0.68416 0.24955 0.0
C26 C 0.28837 0.71374 0.23672 0.0
C27 C 0.31821 0.77096 0.22876 0.0
H28 H 0.26408 0.71818 0.22556 0.0
C29 C 0.30403 0.77175 0.1981 0.0
C30 C 0.30483 0.80298 0.18784 0.0
C31 C 0.33243 0.80179 0.24905 0.0
H32 H 0.34308 0.80197 0.27288 0.0
C33 C 0.33278 0.83273 0.23893 0.0
H34 H 0.29321 0.74825 0.18204 0.0
C35 C 0.31919 0.83337 0.20844 0.0
H36 H 0.31992 0.85758 0.20082 0.0
H37 H 0.34376 0.85628 0.25475 0.0
H38 H 0.05971 0.4855 0.04834 0.0
C39 C 0.03956 0.50048 0.04357 0.0
C40 C 0.02507 0.51961 0.06905 0.0
C41 C 0.02912 0.50164 0.01206 0.0
H42 H 0.98796 0.55412 0.08266 0.0
C43 C 0.99923 0.53936 0.063 0.0
C44 C 0.98855 0.54064 0.03154 0.0
C45 C 1.00376 0.52193 0.00628 0.0
C46 C 0.045 0.48215 0.9851 0.0
H47 H 0.99542 0.52291 0.98202 0.0
C48 C 0.04727 0.44753 0.98381 0.0
C49 C 0.06097 0.42884 0.9575 0.0
C50 C 0.05728 0.49796 0.9601 0.0
H51 H 0.05609 0.52466 0.96068 0.0
C52 C 0.07147 0.47951 0.93424 0.0
H53 H 0.03751 0.43486 1.0027 0.0
C54 C 0.07323 0.44506 0.93284 0.0
H55 H 0.0839 0.43095 0.91243 0.0
H56 H 0.08092 0.49189 0.91512 0.0
H57 H 0.80496 0.80903 0.26232 0.0
C58 C 0.80375 0.79902 0.23699 0.0
C59 C 0.82295 0.81763 0.21687 0.0
C60 C 0.78482 0.76665 0.22474 0.0
H61 H 0.83886 0.8173 0.169 0.0
C62 C 0.823 0.80358 0.18433 0.0
C63 C 0.803 0.77162 0.17169 0.0
C64 C 0.78355 0.75363 0.19209 0.0
C65 C 0.77072 0.74419 0.24625 0.0
H66 H 0.76894 0.72849 0.18279 0.0
C67 C 0.73838 0.74727 0.2598 0.0
C68 C 0.72486 0.72442 0.2791 0.0
C69 C 0.78951 0.71846 0.25228 0.0
H70 H 0.81443 0.71572 0.24183 0.0
C71 C 0.77624 0.69606 0.27173 0.0
H72 H 0.72358 0.76688 0.25499 0.0
C73 C 0.74399 0.69893 0.28506 0.0
H74 H 0.73383 0.68122 0.29994 0.0
H75 H 0.79087 0.6763 0.27631 0.0
H76 H 0.14937 0.99097 0.50176 0.0
C77 C 0.12638 0.99089 0.48618 0.0
C78 C 0.12525 0.01801 0.47008 0.0
C79 C 0.09844 0.96345 0.48192 0.0
H80 H 0.09526 0.03829 0.43644 0.0
C81 C 0.09594 0.01768 0.4494 0.0
C82 C 0.06789 0.99047 0.44479 0.0
C83 C 0.06889 0.96364 0.46149 0.0
C84 C 0.10213 0.93338 0.4965 0.0
H85 H 0.04758 0.94227 0.45734 0.0
C86 C 0.07574 0.91949 0.51456 0.0
C87 C 0.08075 0.89143 0.52865 0.0
C88 C 0.13299 0.91856 0.49239 0.0
H89 H 0.15348 0.92852 0.47837 0.0
C90 C 0.13764 0.89058 0.506 0.0
H91 H 0.05187 0.93068 0.5181 0.0
C92 C 0.11174 0.8771 0.52407 0.0
H93 H 0.1159 0.85548 0.53465 0.0
H94 H 0.16147 0.87935 0.5026 0.0
H95 H 0.28512 0.67022 0.7761 0.0
C96 C 0.28185 0.68599 0.79879 0.0
C97 C 0.29653 0.6786 0.82678 0.0
C98 C 0.26284 0.71331 0.79984 0.0
H99 H 0.304 0.69388 0.87792 0.0
C100 C 0.29232 0.69908 0.85622 0.0
C101 C 0.27388 0.72687 0.85752 0.0
C102 C 0.25886 0.73359 0.82935 0.0
C103 C 0.24852 0.72137 0.76991 0.0
H104 H 0.24507 0.75529 0.83038 0.0
C105 C 0.21324 0.72677 0.76642 0.0
C106 C 0.19991 0.73366 0.7376 0.0
C107 C 0.27024 0.72339 0.74443 0.0
H108 H 0.29754 0.71963 0.74661 0.0
C109 C 0.25709 0.7307 0.71603 0.0
H110 H 0.19603 0.72494 0.78569 0.0
C111 C 0.22208 0.73577 0.71257 0.0
H112 H 0.21215 0.7411 0.69027 0.0
H113 H 0.27406 0.73231 0.6966 0.0
H114 H 0.97544 0.60472 0.48182 0.0
C115 C 0.95978 0.58233 0.48755 0.0
C116 C 0.9522 0.58147 0.51926 0.0
C117 C 0.94578 0.55498 0.46313 0.0
H118 H 0.9253 0.55202 0.55091 0.0
C119 C 0.93132 0.55269 0.52649 0.0
C120 C 0.91709 0.52532 0.5022 0.0
C121 C 0.92425 0.52668 0.47055 0.0
C122 C 0.95057 0.55724 0.42952 0.0
H123 H 0.91266 0.50591 0.45165 0.0
C124 C 0.98309 0.55395 0.41615 0.0
C125 C 0.98655 0.55519 0.38376 0.0
C126 C 0.92184 0.56202 0.41045 0.0
H127 H 0.89661 0.5645 0.42039 0.0
C128 C 0.92548 0.56378 0.37849 0.0
H129 H 1.00531 0.54987 0.43062 0.0
C130 C 0.95764 0.56036 0.36516 0.0
H131 H 0.95994 0.5614 0.34022 0.0
H132 H 0.90323 0.56758 0.36396 0.0
H133 H 0.84056 0.82443 0.78634 0.0
C134 C 0.83688 0.80577 0.80165 0.0
C135 C 0.85507 0.77765 0.79646 0.0
C136 C 0.81589 0.81091 0.82774 0.0
H137 H 0.86577 0.73266 0.8134 0.0
C138 C 0.85142 0.75408 0.81704 0.0
C139 C 0.82981 0.75855 0.8427 0.0
C140 C 0.81217 0.78685 0.8478 0.0
C141 C 0.8005 0.84279 0.83621 0.0
H142 H 0.79597 0.79044 0.86796 0.0
C143 C 0.78142 0.85563 0.81346 0.0
C144 C 0.76683 0.88571 0.82265 0.0
C145 C 0.80508 0.86065 0.86786 0.0
H146 H 0.82007 0.85172 0.88573 0.0
C147 C 0.79077 0.89042 0.87681 0.0
H148 H 0.77749 0.8422 0.789 0.0
C149 C 0.77168 0.90285 0.8544 0.0
H150 H 0.76065 0.92599 0.86182 0.0
H151 H 0.79449 0.9039 0.90123 0.0
H152 H 0.34063 0.33484 0.2839 0.0
C153 C 0.338 0.31615 0.29923 0.0
C154 C 0.35615 0.28804 0.29306 0.0
C155 C 0.31823 0.32115 0.32614 0.0
H156 H 0.36805 0.24303 0.30935 0.0
C157 C 0.35371 0.26443 0.31365 0.0
C158 C 0.33314 0.26874 0.34007 0.0
C159 C 0.31552 0.29699 0.34604 0.0
C160 C 0.30293 0.35288 0.33549 0.0
H161 H 0.30017 0.30051 0.36678 0.0
C162 C 0.28192 0.3652 0.31376 0.0
C163 C 0.26703 0.39488 0.32389 0.0
C164 C 0.30922 0.37092 0.36701 0.0
H165 H 0.32565 0.36229 0.38407 0.0
C166 C 0.29467 0.40039 0.37685 0.0
H167 H 0.27667 0.35159 0.28943 0.0
C168 C 0.27359 0.41227 0.35548 0.0
H169 H 0.26234 0.43514 0.36356 0.0
H170 H 0.2997 0.41403 0.40116 0.0
H171 H 0.54574 0.97778 0.53853 0.0
C172 C 0.5251 0.99344 0.5386 0.0
C173 C 0.51869 0.01439 0.56708 0.0
C174 C 0.50579 0.99368 0.51014 0.0
H175 H 0.48816 0.05232 0.58881 0.0
C176 C 0.49269 0.03561 0.56705 0.0
C177 C 0.47277 0.03536 0.53877 0.0
C178 C 0.47929 0.01419 0.51068 0.0
C179 C 0.51332 0.97345 0.47939 0.0
H180 H 0.4637 0.01403 0.48896 0.0
C181 C 0.51703 0.93896 0.47653 0.0
C182 C 0.51974 0.91912 0.4464 0.0
C183 C 0.5146 0.98833 0.45209 0.0
H184 H 0.51252 0.015 0.45371 0.0
C185 C 0.51814 0.9689 0.42237 0.0
H186 H 0.51618 0.92713 0.49733 0.0
C187 C 0.52023 0.9344 0.41942 0.0
H188 H 0.52227 0.91954 0.39603 0.0
H189 H 0.51879 0.98052 0.4015 0.0
H190 H 0.29181 0.31159 0.75658 0.0
C191 C 0.29568 0.30414 0.73151 0.0
C192 C 0.31581 0.32715 0.71577 0.0
C193 C 0.28272 0.27088 0.71545 0.0
H194 H 0.33858 0.33448 0.67172 0.0
C195 C 0.32223 0.31712 0.68367 0.0
C196 C 0.30873 0.28419 0.66738 0.0
C197 C 0.28897 0.26131 0.68326 0.0
C198 C 0.26506 0.24513 0.73259 0.0
H199 H 0.27927 0.23564 0.67067 0.0
C200 C 0.23671 0.25183 0.75132 0.0
C201 C 0.21935 0.22647 0.76624 0.0
C202 C 0.2763 0.21318 0.72968 0.0
H203 H 0.29834 0.20755 0.71568 0.0
C204 C 0.25938 0.18826 0.74495 0.0
H205 H 0.22751 0.2762 0.75356 0.0
C206 C 0.23088 0.19477 0.76304 0.0
H207 H 0.21767 0.17506 0.77445 0.0
H208 H 0.26822 0.16377 0.74257 0.0
H209 H 0.88189 0.25215 0.76929 0.0
C210 C 0.85867 0.23275 0.76569 0.0
C211 C 0.8582 0.20485 0.78103 0.0
C212 C 0.82911 0.23632 0.74679 0.0
H213 H 0.82777 0.15828 0.78877 0.0
C214 C 0.82841 0.17962 0.77658 0.0
C215 C 0.79887 0.18247 0.75747 0.0
C216 C 0.79927 0.21081 0.74262 0.0
C217 C 0.8287 0.26785 0.73353 0.0
H218 H 0.7759 0.21346 0.72883 0.0
C219 C 0.81431 0.26671 0.70246 0.0
C220 C 0.81436 0.29694 0.69051 0.0
C221 C 0.84262 0.29968 0.75237 0.0
H222 H 0.85316 0.30157 0.77656 0.0
C223 C 0.84261 0.32957 0.74045 0.0
H224 H 0.80354 0.24252 0.68747 0.0
C225 C 0.82864 0.32825 0.70967 0.0
H226 H 0.82881 0.3517 0.70076 0.0
H227 H 0.85337 0.35386 0.75519 0.0
H228 H 0.61251 0.52902 0.55375 0.0
C229 C 0.59648 0.52389 0.57312 0.0
C230 C 0.59945 0.49508 0.58657 0.0
C231 C 0.5746 0.54715 0.58598 0.0
H232 H 0.58255 0.46749 0.62353 0.0
C233 C 0.57982 0.48926 0.61265 0.0
C234 C 0.55719 0.512 0.62504 0.0
C235 C 0.55467 0.54069 0.61157 0.0
C236 C 0.57459 0.5798 0.57495 0.0
H237 H 0.5377 0.55852 0.62164 0.0
C238 C 0.56714 0.58082 0.54272 0.0
C239 C 0.56529 0.61219 0.5334 0.0
C240 C 0.58108 0.61041 0.59737 0.0
H241 H 0.58715 0.61026 0.62225 0.0
C242 C 0.57988 0.64148 0.58794 0.0
H243 H 0.56182 0.55743 0.52521 0.0
C244 C 0.57185 0.64241 0.55614 0.0
H245 H 0.5706 0.66671 0.54923 0.0
H246 H 0.58492 0.66489 0.60538 0.0
H247 H 0.62882 0.47319 0.99611 0.0
C248 C 0.60783 0.48059 0.9825 0.0
C249 C 0.61304 0.51223 0.97258 0.0
C250 C 0.57628 0.4578 0.97333 0.0
H251 H 0.59063 0.54473 0.94507 0.0
C252 C 0.58637 0.52086 0.95356 0.0
C253 C 0.5552 0.49796 0.94375 0.0
C254 C 0.55008 0.46673 0.95408 0.0
C255 C 0.57275 0.42244 0.97879 0.0
H256 H 0.52642 0.44859 0.94572 0.0
C257 C 0.56448 0.41403 0.00847 0.0
C258 C 0.55832 0.37956 0.01174 0.0
C259 C 0.57566 0.39644 0.95291 0.0
H260 H 0.58184 0.40247 0.92992 0.0
C261 C 0.57029 0.3625 0.95633 0.0
H262 H 0.56192 0.43392 0.02852 0.0
C263 C 0.56152 0.35406 0.98546 0.0
H264 H 0.55702 0.32749 0.98752 0.0
H265 H 0.57257 0.34263 0.93622 0.0
H266 H 0.78854 0.16456 0.27795 0.0
C267 C 0.78588 0.18062 0.30064 0.0
C268 C 0.802 0.17397 0.32831 0.0
C269 C 0.76678 0.20788 0.30193 0.0
H270 H 0.81184 0.1903 0.37918 0.0
C271 C 0.79887 0.19486 0.35778 0.0
C272 C 0.77964 0.22215 0.35943 0.0
C273 C 0.76347 0.22837 0.33151 0.0
C274 C 0.7521 0.21586 0.27205 0.0
H275 H 0.74939 0.2499 0.33277 0.0
C276 C 0.71718 0.22243 0.2691 0.0
C277 C 0.70358 0.22905 0.24026 0.0
C278 C 0.77323 0.21659 0.246 0.0
H279 H 0.80031 0.21206 0.24774 0.0
C280 C 0.75979 0.22351 0.21755 0.0
H281 H 0.7004 0.22169 0.28881 0.0
C282 C 0.7251 0.2296 0.21461 0.0
H283 H 0.71494 0.23466 0.19227 0.0
H284 H 0.77629 0.22404 0.19768 0.0
H285 H 0.4862 0.10795 0.97597 0.0
C286 C 0.46912 0.08611 0.98124 0.0
C287 C 0.45884 0.08618 0.01238 0.0
C288 C 0.45611 0.05865 0.95667 0.0
H289 H 0.42688 0.05875 0.04263 0.0
C290 C 0.43546 0.05846 0.01878 0.0
C291 C 0.42289 0.03051 0.99439 0.0
C292 C 0.4335 0.03074 0.96342 0.0
C293 C 0.46219 0.06101 0.92335 0.0
H294 H 0.42311 0.0097 0.94432 0.0
C295 C 0.49322 0.05278 0.90959 0.0
C296 C 0.4981 0.05518 0.87763 0.0
C297 C 0.43619 0.07144 0.90506 0.0
H298 H 0.4121 0.07775 0.91535 0.0
C299 C 0.44113 0.07392 0.87342 0.0
H300 H 0.51333 0.04452 0.92353 0.0
C301 C 0.47194 0.06588 0.85974 0.0
H302 H 0.47538 0.06784 0.83512 0.0
H303 H 0.421 0.08205 0.85947 0.0
C304 C 0.21239 0.92705 0.04932 0.0
O305 O 0.24435 0.94358 0.05797 0.0
O306 O 0.24779 0.84079 0.98236 0.0
Zn307 Zn 0.25405 0.87721 0.02301 0.0
O308 O 0.29144 0.91617 0.01698 0.0
C309 C 0.25776 0.8292 0.06627 0.0
O310 O 0.2353 0.80833 0.04515 0.0
O311 O 0.20877 0.89686 0.03321 0.0
C312 C 0.32406 0.91431 0.01469 0.0
O313 O 0.33544 0.88553 0.01618 0.0
C314 C 0.26957 0.81981 0.97694 0.0
O315 O 0.29547 0.82082 0.99815 0.0
O316 O 0.26949 0.85876 0.06137 0.0
C317 C 0.18299 0.47758 0.2698 0.0
O318 O 0.19592 0.5091 0.28298 0.0
O319 O 0.09691 0.52125 0.27883 0.0
Zn320 Zn 0.13183 0.51231 0.24505 0.0
O321 O 0.17038 0.55257 0.24711 0.0
C322 C 0.08159 0.52098 0.19674 0.0
O323 O 0.07123 0.54144 0.22079 0.0
O324 O 0.15497 0.47168 0.25149 0.0
C325 C 0.16559 0.58342 0.25112 0.0
O326 O 0.13383 0.59115 0.25525 0.0
C327 C 0.1053 0.53661 0.30734 0.0
O328 O 0.1386 0.54776 0.31667 0.0
O329 O 0.1066 0.50455 0.20128 0.0
C330 C 0.88577 0.62184 0.99637 0.0
O331 O 0.8962 0.64874 0.98395 0.0
O332 O 0.8271 0.66601 0.95533 0.0
Zn333 Zn 0.81565 0.64218 0.9926 0.0
O334 O 0.7692 0.60882 0.98414 0.0
C335 C 0.79752 0.69971 0.04066 0.0
O336 O 0.77342 0.70376 0.01964 0.0
O337 O 0.85334 0.61421 1.00103 0.0
C338 C 0.74115 0.6117 0.99868 0.0
O339 O 0.7402 0.63863 0.02069 0.0
C340 C 0.80353 0.67586 0.93904 0.0
O341 O 0.77035 0.66978 0.94562 0.0
O342 O 0.81695 0.67696 0.03324 0.0
C343 C 0.87599 0.05809 0.30025 0.0
O344 O 0.85662 0.03015 0.28452 0.0
O345 O 0.96811 0.01336 0.32762 0.0
Zn346 Zn 0.93384 0.01766 0.29174 0.0
O347 O 0.89898 0.97399 0.27934 0.0
C348 C 0.99055 0.01512 0.24824 0.0
O349 O 0.00618 1.00286 0.27045 0.0
O350 O 0.90883 0.05849 0.30617 0.0
C351 C 0.91078 0.94709 0.26713 0.0
O352 O 0.94485 0.94825 0.26434 0.0
C353 C 0.95947 0.99545 0.34847 0.0
O354 O 0.92724 0.97883 0.34722 0.0
O355 O 0.96038 0.02411 0.25243 0.0
C356 C 0.35853 0.10455 0.50857 0.0
O357 O 0.32808 0.08449 0.50131 0.0
O358 O 0.33109 0.18057 0.45588 0.0
Zn359 Zn 0.31913 0.15669 0.493 0.0
O360 O 0.27562 0.12045 0.48227 0.0
C361 C 0.3324 0.21782 0.54111 0.0
O362 O 0.3592 0.22567 0.52428 0.0
O363 O 0.36091 0.13571 0.50627 0.0
C364 C 0.24492 0.12703 0.48839 0.0
O365 O 0.24082 0.15832 0.50062 0.0
C366 C 0.30764 0.18719 0.4371 0.0
O367 O 0.27414 0.17785 0.44104 0.0
O368 O 0.31097 0.19045 0.53162 0.0
C369 C 0.37431 0.56415 0.80867 0.0
O370 O 0.36262 0.536 0.81869 0.0
O371 O 0.46179 0.5221 0.8208 0.0
Zn372 Zn 0.42913 0.52558 0.78334 0.0
O373 O 0.39519 0.48163 0.76773 0.0
C374 C 0.47247 0.50461 0.73318 0.0
O375 O 0.46468 0.47576 0.7432 0.0
O376 O 0.40216 0.56574 0.79343 0.0
C377 C 0.38747 0.45788 0.78324 0.0
O378 O 0.40019 0.46148 0.81273 0.0
C379 C 0.45383 0.52214 0.84936 0.0
O380 O 0.42163 0.52552 0.85717 0.0
O381 O 0.46036 0.53083 0.7468 0.0
C382 C 0.7057 0.41668 0.53489 0.0
O383 O 0.73111 0.43489 0.52295 0.0
O384 O 0.74761 0.3297 0.48656 0.0
Zn385 Zn 0.75379 0.36662 0.52653 0.0
O386 O 0.79106 0.4047 0.51873 0.0
C387 C 0.76124 0.31838 0.56918 0.0
O388 O 0.74037 0.29632 0.54768 0.0
O389 O 0.70858 0.38631 0.53758 0.0
C390 C 0.82275 0.41045 0.53056 0.0
O391 O 0.83328 0.39085 0.54918 0.0
C392 C 0.77449 0.31585 0.47852 0.0
O393 O 0.80392 0.32491 0.49671 0.0
O394 O 0.77044 0.3486 0.5648 0.0
C395 C 0.6912 0.97131 0.76289 0.0
O396 O 0.70661 1.00271 0.77367 0.0
O397 O 0.60608 0.01791 0.77172 0.0
Zn398 Zn 0.64036 0.00698 0.73778 0.0
O399 O 0.67974 0.04677 0.73914 0.0
C400 C 0.60253 0.02201 0.68422 0.0
O401 O 0.6106 0.05292 0.70102 0.0
O402 O 0.66231 0.96602 0.74579 0.0
C403 C 0.67723 0.07752 0.75068 0.0
O404 O 0.64758 0.08505 0.76221 0.0
C405 C 0.61458 0.02653 0.8014 0.0
O406 O 0.64761 0.02896 0.81194 0.0
O407 O 0.61281 0.99724 0.69463 0.0
C408 C 0.04148 0.16237 0.92067 0.0
O409 O 0.02326 0.14502 0.8948 0.0
O410 O 0.0074 0.20591 0.85792 0.0
Zn411 Zn 0.05149 0.22048 0.8871 0.0
O412 O 0.05143 0.26964 0.90601 0.0
C413 C 0.09725 0.23614 0.83963 0.0
O414 O 0.07318 0.25491 0.83456 0.0
O415 O 0.05481 0.1933 0.92203 0.0
C416 C 0.06595 0.28472 0.93296 0.0
O417 O 0.08186 0.26777 0.95112 0.0
C418 C 0.97714 0.20541 0.86894 0.0
O419 O 0.97461 0.21061 0.89989 0.0
O420 O 0.09377 0.21834 0.86121 0.0
C421 C 0.53242 0.65137 0.41521 0.0
O422 O 0.5131 0.63457 0.38974 0.0
O423 O 0.49468 0.69282 0.35538 0.0
Zn424 Zn 0.5409 0.70989 0.38252 0.0
O425 O 0.54358 0.75912 0.40472 0.0
C426 C 0.59185 0.72724 0.33715 0.0
O427 O 0.57235 0.75044 0.33339 0.0
O428 O 0.54595 0.68226 0.4167 0.0
C429 C 0.5169 0.77424 0.40933 0.0
O430 O 0.48522 0.75706 0.40082 0.0
C431 C 0.4828 0.71099 0.33736 0.0
O432 O 0.50114 0.74045 0.33532 0.0
O433 O 0.58314 0.70685 0.35589 0.0
C434 C 1.00223 0.81409 0.60995 0.0
O435 O 0.96876 0.80044 0.60645 0.0
O436 O 0.97226 0.7794 0.68664 0.0
Zn437 Zn 0.00873 0.76753 0.65455 0.0
O438 O 0.98963 0.72547 0.62143 0.0
C439 C 0.05747 0.75052 0.70313 0.0
O440 O 0.02981 0.74472 0.71953 0.0
O441 O 0.02278 0.8054 0.62998 0.0
C442 C 0.99802 0.6963 0.62209 0.0
O443 O 0.01849 0.69221 0.64592 0.0
C444 C 0.95319 0.75619 0.6976 0.0
O445 O 0.95639 0.72421 0.68741 0.0
O446 O 0.0541 0.76003 0.67659 0.0
C447 C 0.50959 0.30867 0.11071 0.0
O448 O 0.479 0.28927 0.10208 0.0
O449 O 0.47927 0.2747 0.19218 0.0
Zn450 Zn 0.51355 0.26507 0.15781 0.0
O451 O 0.49261 0.22307 0.125 0.0
C452 C 0.56402 0.25445 0.20737 0.0
O453 O 0.53879 0.25887 0.22681 0.0
O454 O 0.52726 0.3048 0.13519 0.0
C455 C 0.51264 0.20498 0.10896 0.0
O456 O 0.54703 0.21357 0.11367 0.0
C457 C 0.44616 0.27295 0.18678 0.0
O458 O 0.43258 0.26615 0.15727 0.0
O459 O 0.55882 0.25566 0.17812 0.0
C460 C 0.2992 0.77918 0.89738 0.0
C461 C 0.27221 0.75066 0.88813 0.0
C462 C 0.24268 0.76767 0.93707 0.0
C463 C 0.26876 0.79706 0.94548 0.0
N464 N 0.31782 0.83445 0.93116 0.0
N465 N 0.21582 0.71978 0.89637 0.0
C466 C 0.29594 0.80381 0.92492 0.0
C467 C 0.24317 0.74553 0.90717 0.0
N468 N 0.32832 0.78237 0.8801 0.0
N469 N 0.21827 0.76031 0.9582 0.0
H470 H 0.21592 0.70243 0.87516 0.0
H471 H 0.19209 0.71684 0.90725 0.0
H472 H 0.21667 0.77634 0.97992 0.0
H473 H 0.20104 0.73742 0.95526 0.0
H474 H 0.35081 0.80025 0.8876 0.0
H475 H 0.33119 0.76552 0.8592 0.0
H476 H 0.33576 0.84254 0.91546 0.0
H477 H 0.31588 0.85332 0.95085 0.0
C478 C 0.02586 0.51696 0.35506 0.0
C479 C 0.01999 0.55026 0.36845 0.0
C480 C 0.07092 0.57485 0.34277 0.0
C481 C 0.07736 0.54152 0.32999 0.0
N482 N 0.06618 0.48123 0.32958 0.0
N483 N 0.04055 0.61056 0.38088 0.0
C484 C 0.05635 0.51265 0.33782 0.0
C485 C 0.04382 0.57911 0.36422 0.0
N486 N 1.00164 0.48949 0.3579 0.0
N487 N 0.08932 0.60232 0.33303 0.0
H488 H 0.02072 0.61451 0.39649 0.0
H489 H 0.05914 0.63219 0.38143 0.0
H490 H 0.10908 0.60026 0.31711 0.0
H491 H 0.08318 0.62684 0.33863 0.0
H492 H 1.00206 0.46496 0.34542 0.0
H493 H 0.9797 0.49153 0.37132 0.0
H494 H 0.05413 0.45969 0.33736 0.0
H495 H 0.08856 0.47722 0.31725 0.0
C496 C 0.80313 0.7037 0.85859 0.0
C497 C 0.82676 0.7349 0.86578 0.0
C498 C 0.83584 0.7272 0.92093 0.0
C499 C 0.81333 0.69528 0.91346 0.0
N500 N 0.78153 0.6498 0.87381 0.0
N501 N 0.87148 0.77278 0.90134 0.0
C502 C 0.79873 0.68253 0.88183 0.0
C503 C 0.84504 0.74544 0.89621 0.0
N504 N 0.78391 0.69491 0.82997 0.0
N505 N 0.84676 0.74112 0.9519 0.0
H506 H 0.87879 0.78677 0.88378 0.0
H507 H 0.88828 0.77966 0.92191 0.0
H508 H 0.84014 0.72904 0.97087 0.0
H509 H 0.85979 0.76595 0.95919 0.0
H510 H 0.76322 0.67462 0.8247 0.0
H511 H 0.78707 0.70931 0.8121 0.0
H512 H 0.77339 0.63782 0.85053 0.0
H513 H 0.77822 0.63347 0.89009 0.0
C514 C 0.01024 0.00762 0.42917 0.0
C515 C 0.03849 0.98943 0.42075 0.0
C516 C 0.01461 0.97468 0.36504 0.0
C517 C 0.98606 0.99249 0.37355 0.0
N518 N 0.95382 0.02253 0.41368 0.0
N519 N 0.06623 0.95248 0.38219 0.0
C520 C 0.98295 0.00783 0.40568 0.0
C521 C 0.04024 0.972 0.38908 0.0
N522 N 0.0102 0.02554 0.45949 0.0
N523 N 0.01729 0.9606 0.33385 0.0
H524 H 0.08617 0.9509 0.39886 0.0
H525 H 0.06722 0.93621 0.36059 0.0
H526 H 0.9977 0.9597 0.31603 0.0
H527 H 0.03937 0.9509 0.32511 0.0
H528 H 0.99292 0.04261 0.46657 0.0
H529 H 0.02886 0.02472 0.47759 0.0
H530 H 0.94772 0.03076 0.43697 0.0
H531 H 0.93435 0.025 0.39696 0.0
C532 C 0.29499 0.27443 0.60843 0.0
C533 C 0.31789 0.27197 0.6344 0.0
C534 C 0.35395 0.23938 0.59818 0.0
C535 C 0.32894 0.23877 0.57264 0.0
N536 N 0.27552 0.25477 0.55262 0.0
N537 N 0.36844 0.25192 0.65522 0.0
C538 C 0.29948 0.25622 0.57751 0.0
C539 C 0.34748 0.25478 0.62954 0.0
N540 N 0.26924 0.29451 0.61346 0.0
N541 N 0.38368 0.22482 0.5925 0.0
H542 H 0.36553 0.26418 0.67836 0.0
H543 H 0.38768 0.23618 0.65414 0.0
H544 H 0.3882 0.21091 0.57049 0.0
H545 H 0.40499 0.22791 0.60909 0.0
H546 H 0.25355 0.30012 0.59536 0.0
H547 H 0.26512 0.30778 0.63592 0.0
H548 H 0.25134 0.26339 0.55501 0.0
H549 H 0.27912 0.24349 0.52931 0.0
C550 C 0.55009 0.52651 0.68378 0.0
C551 C 0.53708 0.50739 0.65335 0.0
C552 C 0.48112 0.48791 0.67504 0.0
C553 C 0.49463 0.50597 0.7057 0.0
N554 N 0.54357 0.5377 0.74071 0.0
N555 N 0.49287 0.46598 0.62047 0.0
C556 C 0.52957 0.52403 0.71048 0.0
C557 C 0.50341 0.48677 0.64917 0.0
N558 N 0.58183 0.54758 0.68697 0.0
N559 N 0.44645 0.47314 0.67038 0.0
H560 H 0.50807 0.46528 0.60078 0.0
H561 H 0.47039 0.44758 0.6167 0.0
H562 H 0.42929 0.47356 0.68869 0.0
H563 H 0.43379 0.46278 0.6481 0.0
H564 H 0.59084 0.56544 0.70741 0.0
H565 H 0.59858 0.54852 0.66844 0.0
H566 H 0.57005 0.54791 0.74625 0.0
H567 H 0.52926 0.53659 0.7608 0.0
C568 C 0.82276 0.2987 0.63312 0.0
C569 C 0.79952 0.29657 0.65785 0.0
C570 C 0.74991 0.30215 0.62221 0.0
C571 C 0.77394 0.30836 0.59876 0.0
N572 N 0.83314 0.31322 0.58135 0.0
N573 N 0.74158 0.29745 0.67727 0.0
C574 C 0.81036 0.30666 0.60402 0.0
C575 C 0.76312 0.29814 0.65262 0.0
N576 N 0.85655 0.29253 0.63743 0.0
N577 N 0.71448 0.30042 0.6155 0.0
H578 H 0.75007 0.29335 0.69949 0.0
H579 H 0.71586 0.3027 0.67647 0.0
H580 H 0.70388 0.30531 0.59434 0.0
H581 H 0.69524 0.29213 0.63 0.0
H582 H 0.87406 0.29041 0.61952 0.0
H583 H 0.86636 0.28675 0.65853 0.0
H584 H 0.86048 0.31665 0.58506 0.0
H585 H 0.82475 0.31683 0.55893 0.0
C586 C 0.52636 0.99727 0.62029 0.0
C587 C 0.54044 0.01503 0.59677 0.0
C588 C 0.59717 0.03113 0.62814 0.0
C589 C 0.58193 0.01674 0.65321 0.0
N590 N 0.53101 0.98925 0.67501 0.0
N591 N 0.58753 0.05266 0.57977 0.0
C592 C 0.54628 1.00042 0.64974 0.0
C593 C 0.57544 0.03296 0.60106 0.0
N594 N 0.49426 0.97684 0.61419 0.0
N595 N 0.63273 0.04201 0.6298 0.0
H596 H 0.57247 0.05455 0.55955 0.0
H597 H 0.61134 0.0693 0.58344 0.0
H598 H 0.6495 0.04006 0.6489 0.0
H599 H 0.64609 0.0497 0.611 0.0
H600 H 0.4842 0.96036 0.62886 0.0
H601 H 0.47874 0.97433 0.5931 0.0
H602 H 0.50409 0.98078 0.67524 0.0
H603 H 0.54485 0.99066 0.69678 0.0
C604 C 0.89366 0.22811 0.83276 0.0
C605 C 0.88784 0.20371 0.80406 0.0
C606 C 0.93729 0.1771 0.82049 0.0
C607 C 0.94572 0.20409 0.84714 0.0
N608 N 0.93641 0.25969 0.87427 0.0
N609 N 0.90703 0.15775 0.76816 0.0
C610 C 0.92507 0.23077 0.85221 0.0
C611 C 0.91043 0.17887 0.79723 0.0
N612 N 0.86879 0.24826 0.84189 0.0
N613 N 0.95412 0.14928 0.81792 0.0
H614 H 0.88776 0.1584 0.75051 0.0
H615 H 0.9251 0.14163 0.76057 0.0
H616 H 0.97342 0.14681 0.8348 0.0
H617 H 0.94664 0.12734 0.80074 0.0
H618 H 0.87013 0.26399 0.86418 0.0
H619 H 0.84507 0.24675 0.82859 0.0
H620 H 0.9241 0.28124 0.87651 0.0
H621 H 0.96023 0.26376 0.88795 0.0
C622 C 0.55106 0.86992 0.42754 0.0
C623 C 0.52188 0.88217 0.44231 0.0
C624 C 0.49621 0.82359 0.4441 0.0
C625 C 0.5211 0.81132 0.423 0.0
N626 N 0.56906 0.82503 0.38984 0.0
N627 N 0.46338 0.86961 0.46055 0.0
C628 C 0.54806 0.83498 0.41367 0.0
C629 C 0.49358 0.85878 0.44976 0.0
N630 N 0.58157 0.89171 0.42655 0.0
N631 N 0.47572 0.80192 0.45943 0.0
H632 H 0.45956 0.89495 0.46392 0.0
H633 H 0.44081 0.85284 0.46318 0.0
H634 H 0.47847 0.77636 0.45751 0.0
H635 H 0.45923 0.81029 0.47696 0.0
H636 H 0.60464 0.88341 0.41841 0.0
H637 H 0.58481 0.91743 0.43709 0.0
H638 H 0.58671 0.84222 0.3805 0.0
H639 H 0.56603 0.80048 0.37667 0.0
C640 C 0.15394 0.2226 0.76897 0.0
C641 C 0.18816 0.23234 0.78455 0.0
C642 C 0.16245 0.2493 0.83535 0.0
C643 C 0.12839 0.2359 0.82043 0.0
N644 N 0.09138 0.20639 0.77404 0.0
N645 N 0.22584 0.25258 0.83258 0.0
C646 C 0.12397 0.2219 0.78742 0.0
C647 C 0.19268 0.24518 0.81777 0.0
N648 N 0.15017 0.21429 0.7365 0.0
N649 N 0.16576 0.26698 0.86599 0.0
H650 H 0.24866 0.25117 0.82026 0.0
H651 H 0.23077 0.25812 0.85718 0.0
H652 H 0.14416 0.27071 0.87951 0.0
H653 H 0.18951 0.28043 0.87717 0.0
H654 H 0.12598 0.21056 0.72349 0.0
H655 H 0.17159 0.2138 0.72226 0.0
H656 H 0.08708 0.19231 0.75098 0.0
H657 H 0.06877 0.20522 0.78676 0.0
C658 C 0.52012 0.6143 0.49037 0.0
C659 C 0.5559 0.61428 0.49994 0.0
C660 C 0.57427 0.62928 0.44948 0.0
C661 C 0.53935 0.63454 0.44227 0.0
N662 N 0.47882 0.63328 0.4557 0.0
N663 N 0.61743 0.62151 0.48942 0.0
C664 C 0.51201 0.62679 0.46237 0.0
C665 C 0.58308 0.62127 0.47951 0.0
N666 N 0.49401 0.60254 0.50822 0.0
N667 N 0.59876 0.63142 0.4273 0.0
H668 H 0.62459 0.61415 0.5106 0.0
H669 H 0.63892 0.63048 0.47756 0.0
H670 H 0.59293 0.637 0.40501 0.0
H671 H 0.6238 0.62483 0.42974 0.0
H672 H 0.46726 0.59874 0.5011 0.0
H673 H 0.49922 0.59378 0.52912 0.0
H674 H 0.45874 0.6321 0.47127 0.0
H675 H 0.47177 0.64199 0.43522 0.0
C676 C 0.91482 0.79164 0.77568 0.0
C677 C 0.87971 0.77391 0.77043 0.0
C678 C 0.89147 0.74996 0.71566 0.0
C679 C 0.92758 0.76466 0.72198 0.0
N680 N 0.97473 0.79668 0.75916 0.0
N681 N 0.83496 0.73391 0.73675 0.0
C682 C 0.93951 0.78508 0.75219 0.0
C683 C 0.86813 0.75243 0.74076 0.0
N684 N 0.92454 0.81491 0.80312 0.0
N685 N 0.87919 0.73483 0.68528 0.0
H686 H 0.81666 0.73612 0.75408 0.0
H687 H 0.82631 0.71473 0.71717 0.0
H688 H 0.89529 0.73334 0.66617 0.0
H689 H 0.85258 0.72662 0.67834 0.0
H690 H 0.94822 0.83173 0.80677 0.0
H691 H 0.90787 0.8192 0.82158 0.0
H692 H 0.98565 0.80786 0.78191 0.0
H693 H 0.99372 0.79305 0.74272 0.0
C694 C 0.03125 0.84609 0.53493 0.0
C695 C 0.05424 0.87633 0.54861 0.0
C696 C 0.03549 0.86979 0.60161 0.0
C697 C 0.01713 0.83682 0.58844 0.0
N698 N 1.00065 0.79176 0.54258 0.0
N699 N 0.07959 0.91707 0.59493 0.0
C700 C 0.01529 0.82464 0.55501 0.0
C701 C 0.05642 0.88846 0.58195 0.0
N702 N 0.02498 0.8378 0.50263 0.0
N703 N 0.03233 0.88346 0.63277 0.0
H704 H 0.09419 0.93209 0.58114 0.0
H705 H 0.08576 0.92494 0.61928 0.0
H706 H 0.01687 0.87057 0.64764 0.0
H707 H 0.04229 0.90856 0.64311 0.0
H708 H 1.00583 0.81789 0.49124 0.0
H709 H 0.03661 0.85297 0.48739 0.0
H710 H 1.00221 0.78037 0.51896 0.0
H711 H 0.98959 0.77467 0.55631 0.0
C712 C 0.1536 0.77119 0.73577 0.0
C713 C 0.16238 0.73796 0.73289 0.0
C714 C 0.10071 0.71321 0.7163 0.0
C715 C 0.09289 0.74633 0.71552 0.0
N716 N 0.11134 0.80705 0.72368 0.0
N717 N 0.14571 0.67712 0.71847 0.0
C718 C 0.1192 0.77542 0.72513 0.0
C719 C 0.13622 0.70888 0.72295 0.0
N720 N 0.17808 0.79862 0.74932 0.0
N721 N 0.07422 0.68589 0.71061 0.0
H722 H 0.17122 0.67286 0.7239 0.0
H723 H 0.12905 0.65508 0.70753 0.0
H724 H 0.04818 0.68771 0.7043 0.0
H725 H 0.07738 0.66174 0.71433 0.0
H726 H 0.17259 0.82335 0.7551 0.0
H727 H 0.20352 0.79631 0.75721 0.0
H728 H 0.13016 0.82884 0.72647 0.0
H729 H 0.0859 0.81143 0.71815 0.0
C730 C 0.93937 0.63176 0.55843 0.0
C731 C 0.96427 0.61159 0.54487 0.0
C732 C 0.01178 0.6498 0.57904 0.0
C733 C 0.98633 0.66741 0.59527 0.0
N734 N 0.92514 0.67132 0.60389 0.0
N735 N 0.02342 0.59815 0.54539 0.0
C736 C 0.94988 0.65743 0.58586 0.0
C737 C 1.0003 0.61969 0.55606 0.0
N738 N 0.90589 0.62704 0.54454 0.0
N739 N 0.0469 0.66268 0.58445 0.0
H740 H 0.01605 0.57595 0.52843 0.0
H741 H 0.04912 0.60077 0.55531 0.0
H742 H 0.05643 0.68532 0.6002 0.0
H743 H 0.06631 0.65284 0.57096 0.0
H744 H 0.88771 0.64328 0.55139 0.0
H745 H 0.89735 0.60885 0.52414 0.0
H746 H 0.89819 0.66236 0.60008 0.0
H747 H 0.93162 0.68963 0.62456 0.0
C748 C 0.87487 0.8526 0.2512 0.0
C749 C 0.84478 0.8511 0.23035 0.0
C750 C 0.85864 0.91266 0.23246 0.0
C751 C 0.8867 0.91456 0.25567 0.0
N752 N 0.91652 0.88739 0.29227 0.0
N753 N 0.80396 0.88044 0.20593 0.0
C754 C 0.89337 0.88481 0.26654 0.0
C755 C 0.83542 0.88138 0.22241 0.0
N756 N 0.88665 0.8233 0.25543 0.0
N757 N 0.85519 0.9401 0.21871 0.0
H758 H 0.78619 0.85805 0.19828 0.0
H759 H 0.79408 0.90223 0.20239 0.0
H760 H 0.87211 0.96324 0.22465 0.0
H761 H 0.83761 0.93893 0.19925 0.0
H762 H 0.91056 0.82305 0.26768 0.0
H763 H 0.87428 0.79916 0.24415 0.0
H764 H 0.91973 0.86691 0.30319 0.0
H765 H 0.92983 0.91062 0.30478 0.0
C766 C 0.80993 0.11449 0.3344 0.0
C767 C 0.82345 0.14575 0.32549 0.0
C768 C 0.872 0.11994 0.30048 0.0
C769 C 0.85943 0.08905 0.31063 0.0
N770 N 0.82154 0.05962 0.34379 0.0
N771 N 0.87156 0.18072 0.30696 0.0
C772 C 0.82988 0.08714 0.32957 0.0
C773 C 0.85592 0.14924 0.31079 0.0
N774 N 0.77737 0.11041 0.34629 0.0
N775 N 0.89784 0.12087 0.27944 0.0
H776 H 0.86054 0.20272 0.31436 0.0
H777 H 0.89693 0.18549 0.29935 0.0
H778 H 0.90979 0.09988 0.27056 0.0
H779 H 0.90522 0.14157 0.26848 0.0
H780 H 0.7643 0.08703 0.34968 0.0
H781 H 0.76219 0.12995 0.35062 0.0
H782 H 0.80254 0.05829 0.3604 0.0
H783 H 0.83604 0.0395 0.34141 0.0
C784 C 0.363 0.99419 0.98488 0.0
C785 C 0.39719 1.00149 1.00074 0.0
C786 C 0.38128 0.9547 0.0293 0.0
C787 C 0.34913 0.94449 0.01008 0.0
N788 N 0.31342 0.95061 0.96429 0.0
N789 N 0.44124 0.98445 0.03371 0.0
C790 C 0.34101 0.96318 0.98642 0.0
C791 C 0.40704 0.98056 0.02177 0.0
N792 N 0.35107 0.01725 0.96907 0.0
N793 N 0.38669 0.94089 0.0556 0.0
H794 H 0.46112 1.00256 0.02825 0.0
H795 H 0.45049 0.96755 0.04652 0.0
H796 H 0.36787 0.92307 0.06292 0.0
H797 H 0.4082 0.94987 0.07207 0.0
H798 H 0.3251 0.01453 0.95973 0.0
H799 H 0.36593 0.04078 0.96822 0.0
H800 H 0.30865 0.96177 0.94475 0.0
H801 H 0.29772 0.92709 0.96331 0.0
C802 C 0.20708 0.40315 0.3049 0.0
C803 C 0.24407 0.40851 0.30217 0.0
C804 C 0.23745 0.45044 0.2685 0.0
C805 C 0.20182 0.44976 0.27636 0.0
N806 N 0.15222 0.42595 0.30246 0.0
N807 N 0.29515 0.4367 0.2813 0.0
C808 C 0.18619 0.42571 0.29409 0.0
C809 C 0.2594 0.43158 0.28344 0.0
N810 N 0.19217 0.37662 0.31814 0.0
N811 N 0.25004 0.46894 0.24649 0.0
H812 H 0.3118 0.4224 0.29097 0.0
H813 H 0.30853 0.45615 0.27139 0.0
H814 H 0.2343 0.4826 0.23489 0.0
H815 H 0.27479 0.46822 0.23752 0.0
H816 H 0.16504 0.36931 0.31834 0.0
H817 H 0.20705 0.35989 0.32632 0.0
H818 H 0.14074 0.41197 0.31858 0.0
H819 H 0.13594 0.44179 0.29478 0.0
C820 C 0.16179 0.06976 0.50369 0.0
C821 C 0.15548 0.04641 0.47436 0.0
C822 C 0.20564 0.0781 0.45302 0.0
C823 C 0.21415 0.09923 0.48343 0.0
N824 N 0.20448 0.11046 0.53951 0.0
N825 N 0.17484 0.0246 0.42281 0.0
C826 C 0.19331 0.09386 0.50928 0.0
C827 C 0.17837 0.04952 0.44945 0.0
N828 N 0.13725 0.06948 0.52596 0.0
N829 N 0.22256 0.08607 0.42725 0.0
H830 H 0.15532 1.00321 0.41933 0.0
H831 H 0.19312 0.02362 0.40545 0.0
H832 H 0.24219 0.10713 0.4287 0.0
H833 H 0.21487 0.07372 0.40397 0.0
H834 H 0.13866 0.08824 0.54633 0.0
H835 H 0.11376 0.05229 0.52269 0.0
H836 H 0.19225 0.10485 0.55961 0.0
H837 H 0.22806 0.12739 0.54493 0.0
C838 C 0.75579 0.13384 0.7258 0.0
C839 C 0.76661 0.15662 0.75495 0.0
C840 C 0.7212 0.1253 0.78169 0.0
C841 C 0.70805 0.10466 0.752 0.0
N842 N 0.70864 0.09358 0.69476 0.0
N843 N 0.75464 0.17876 0.80899 0.0
C844 C 0.72418 0.1101 0.7237 0.0
C845 C 0.74775 0.15381 0.78241 0.0
N846 N 0.77629 0.13403 0.70044 0.0
N847 N 0.7098 0.11663 0.80937 0.0
H848 H 0.7735 0.20041 0.81027 0.0
H849 H 0.73926 0.17964 0.82854 0.0
H850 H 0.69193 0.09475 0.80991 0.0
H851 H 0.72101 0.12893 0.83176 0.0
H852 H 0.7717 0.11556 0.67975 0.0
H853 H 0.79968 0.15096 0.70105 0.0
H854 H 0.7172 0.09916 0.67325 0.0
H855 H 0.68512 0.07655 0.69226 0.0
C856 C 0.45166 0.08313 0.51767 0.0
C857 C 0.44588 0.05815 0.53703 0.0
C858 C 0.38599 0.07105 0.54427 0.0
C859 C 0.38961 0.09085 0.52 0.0
N860 N 0.42529 0.11189 0.48028 0.0
N861 N 0.40619 0.02584 0.56676 0.0
C862 C 0.42244 0.09631 0.50605 0.0
C863 C 0.41277 0.05162 0.5501 0.0
N864 N 0.48516 0.09408 0.51028 0.0
N865 N 0.35751 0.07159 0.56241 0.0
H866 H 0.42511 0.01113 0.57176 0.0
H867 H 0.38118 0.01743 0.57358 0.0
H868 H 0.33812 0.08664 0.55977 0.0
H869 H 0.35519 0.06011 0.58229 0.0
H870 H 0.49142 0.11447 0.49866 0.0
H871 H 0.50714 0.08507 0.51876 0.0
H872 H 0.44766 0.11319 0.46727 0.0
H873 H 0.40426 0.12048 0.46976 0.0
C874 C 0.66079 0.48048 0.58881 0.0
C875 C 0.62566 0.4727 0.57498 0.0
C876 C 0.64224 0.42636 0.53562 0.0
C877 C 0.67714 0.4337 0.54997 0.0
N878 N 0.71793 0.46237 0.59403 0.0
N879 N 0.58106 0.43524 0.53898 0.0
C880 C 0.68589 0.45922 0.57772 0.0
C881 C 0.61579 0.44461 0.54954 0.0
N882 N 0.67041 0.50882 0.61198 0.0
N883 N 0.63481 0.40297 0.50798 0.0
H884 H 0.56125 0.4485 0.54824 0.0
H885 H 0.57141 0.41304 0.52277 0.0
H886 H 0.65334 0.38869 0.49763 0.0
H887 H 0.61108 0.39906 0.49426 0.0
H888 H 0.69645 0.51832 0.62025 0.0
H889 H 0.65256 0.52436 0.62161 0.0
H890 H 0.72468 0.47802 0.61617 0.0
H891 H 0.73679 0.44694 0.58684 0.0
C892 C 0.80265 0.27638 0.39773 0.0
C893 C 0.77811 0.24582 0.39014 0.0
C894 C 0.75118 0.26059 0.44091 0.0
C895 C 0.7742 0.29225 0.44748 0.0
N896 N 0.8168 0.33332 0.42921 0.0
N897 N 0.72588 0.21064 0.40183 0.0
C898 C 0.79861 0.30096 0.42508 0.0
C899 C 0.7514 0.23847 0.41097 0.0
N900 N 0.83028 0.28162 0.37908 0.0
N901 N 0.73022 0.25098 0.46379 0.0
H902 H 0.72585 0.19338 0.38055 0.0
H903 H 0.70341 0.20592 0.41417 0.0
H904 H 0.72914 0.2665 0.48586 0.0
H905 H 0.71589 0.22671 0.46193 0.0
H906 H 0.85132 0.30147 0.38534 0.0
H907 H 0.83376 0.26456 0.35849 0.0
H908 H 0.83219 0.34229 0.41212 0.0
H909 H 0.81384 0.3524 0.44841 0.0
C910 C 0.55993 0.07203 0.86316 0.0
C911 C 0.53035 0.04633 0.86218 0.0
C912 C 0.55956 1.00604 0.82643 0.0
C913 C 0.58691 0.03296 0.82402 0.0
N914 N 0.61219 0.09233 0.838 0.0
N915 N 0.50054 0.98926 0.84226 0.0
C916 C 0.58713 0.0661 0.84216 0.0
C917 C 0.52986 0.01333 0.84379 0.0
N918 N 0.56197 0.10211 0.88421 0.0
N919 N 0.56258 0.97333 0.81294 0.0
H920 H 0.47905 0.99314 0.85589 0.0
H921 H 0.4966 0.96617 0.82627 0.0
H922 H 0.58415 0.96705 0.80035 0.0
H923 H 0.54542 0.95213 0.81651 0.0
H924 H 0.58445 0.12051 0.88859 0.0
H925 H 0.5421 0.10757 0.89937 0.0
H926 H 0.61145 0.11776 0.84754 0.0
H927 H 0.63254 0.08905 0.82296 0.0
C928 C 0.3094 0.21289 0.35577 0.0
C929 C 0.3312 0.24514 0.36317 0.0
C930 C 0.33828 0.23925 0.41896 0.0
C931 C 0.31777 0.2063 0.41139 0.0
N932 N 0.29079 0.15861 0.37135 0.0
N933 N 0.37343 0.28517 0.39954 0.0
C934 C 0.30544 0.19215 0.37937 0.0
C935 C 0.348 0.25698 0.39406 0.0
N936 N 0.2913 0.20268 0.32669 0.0
N937 N 0.34652 0.25466 0.45002 0.0
H938 H 0.38126 0.29865 0.38174 0.0
H939 H 0.38909 0.29313 0.42073 0.0
H940 H 0.33875 0.24325 0.46909 0.0
H941 H 0.35807 0.28003 0.45697 0.0
H942 H 0.27181 0.18134 0.32121 0.0
H943 H 0.29397 0.21687 0.30864 0.0
H944 H 0.28449 0.14595 0.34796 0.0
H945 H 0.28807 0.14251 0.38788 0.0
C946 C 0.527 0.48564 0.88821 0.0
C947 C 0.52971 0.50492 0.91957 0.0
C948 C 0.48642 0.53874 0.90352 0.0
C949 C 0.48035 0.51654 0.8734 0.0
N950 N 0.49016 0.46427 0.83974 0.0
N951 N 0.50842 0.54668 0.95865 0.0
C952 C 0.49942 0.48876 0.86639 0.0
C953 C 0.50838 0.53061 0.92771 0.0
N954 N 0.55141 0.46502 0.87887 0.0
N955 N 0.47263 0.56842 0.9086 0.0
H956 H 0.52424 0.54145 0.97695 0.0
H957 H 0.49063 0.56299 0.96654 0.0
H958 H 0.45762 0.57603 0.89115 0.0
H959 H 0.47908 0.58713 0.92897 0.0
H960 H 0.55287 0.45325 0.85532 0.0
H961 H 0.57242 0.46235 0.89393 0.0
H962 H 0.50072 0.44168 0.83541 0.0
H963 H 0.46938 0.46463 0.82353 0.0
C964 C 0.79381 0.77058 0.1124 0.0
C965 C 0.80438 0.75511 0.13773 0.0
C966 C 0.80594 0.70248 0.09982 0.0
C967 C 0.79997 0.71911 0.074 0.0
N968 N 0.79767 0.77248 0.05652 0.0
N969 N 0.8316 0.70982 0.15338 0.0
C970 C 0.79665 0.75424 0.08045 0.0
C971 C 0.8141 0.7222 0.13073 0.0
N972 N 0.77973 0.80003 0.11856 0.0
N973 N 0.8016 0.66778 0.09559 0.0
H974 H 0.83965 0.72417 0.17595 0.0
H975 H 0.84158 0.68693 0.14839 0.0
H976 H 0.79189 0.6518 0.0742 0.0
H977 H 0.80308 0.65493 0.11451 0.0
H978 H 0.76858 0.8104 0.1007 0.0
H979 H 0.77595 0.8122 0.1415 0.0
H980 H 0.79838 0.79878 0.06066 0.0
H981 H 0.80199 0.76216 0.03315 0.0
C982 C 0.00913 1.00207 0.1602 0.0
C983 C 0.04368 0.02068 0.16202 0.0
C984 C 0.04144 0.03872 0.21969 0.0
C985 C 0.00809 0.01789 0.21831 0.0
N986 N 0.9622 0.97573 0.18813 0.0
N987 N 0.09495 0.05309 0.19353 0.0
C988 C 0.99236 0.99855 0.18876 0.0
C989 C 0.0605 0.03791 0.19182 0.0
N990 N 0.99207 0.9884 0.1311 0.0
N991 N 0.05417 0.0605 0.24736 0.0
H992 H 0.10949 0.05394 0.17356 0.0
H993 H 0.11001 0.06259 0.21486 0.0
H994 H 0.0407 0.06228 0.26813 0.0
H995 H 0.07642 0.07901 0.24908 0.0
H996 H 0.96543 0.97802 0.12796 0.0
H997 H 1.00397 0.98954 0.10976 0.0
H998 H 0.95167 0.95813 0.16795 0.0
H999 H 0.94901 0.97242 0.20841 0.0
C1000 C 0.25565 0.80839 0.14957 0.0
C1001 C 0.29135 0.80452 0.15523 0.0
C1002 C 0.30468 0.81513 0.10204 0.0
C1003 C 0.26887 0.81879 0.09617 0.0
N1004 N 0.209 0.81467 0.11217 0.0
N1005 N 0.34831 0.79773 0.13573 0.0
C1006 C 0.24389 0.81381 0.1192 0.0
C1007 C 0.31539 0.80588 0.13104 0.0
N1008 N 0.23344 0.80835 0.17378 0.0
N1009 N 0.32859 0.82114 0.08009 0.0
H1010 H 0.35706 0.7912 0.15684 0.0
H1011 H 0.36604 0.79475 0.11806 0.0
H1012 H 0.32149 0.82584 0.05777 0.0
H1013 H 0.35576 0.82322 0.08444 0.0
H1014 H 0.20836 0.81515 0.17279 0.0
H1015 H 0.24079 0.80311 0.19586 0.0
H1016 H 0.18886 0.80728 0.1262 0.0
H1017 H 0.19961 0.8211 0.09126 0.0
C1018 C 0.06486 0.5476 0.11734 0.0
C1019 C 0.03872 0.52031 0.10216 0.0
C1020 C 0.0428 0.49201 0.14801 0.0
C1021 C 0.06711 0.52041 0.16404 0.0
N1022 N 0.09881 0.57692 0.16592 0.0
N1023 N 0.99928 0.46868 0.10384 0.0
C1024 C 0.07732 0.54876 0.14929 0.0
C1025 C 0.02673 0.49304 0.11772 0.0
N1026 N 0.07877 0.57172 0.10071 0.0
N1027 N 0.03538 0.46394 0.16167 0.0
H1028 H 0.98717 0.46857 0.08157 0.0
H1029 H 0.98671 0.45004 0.11518 0.0
H1030 H 0.04559 0.46285 0.18432 0.0
H1031 H 0.02099 0.44095 0.14991 0.0
H1032 H 0.10073 0.59 0.10897 0.0
H1033 H 0.07002 0.57205 0.07743 0.0
H1034 H 0.10373 0.59996 0.15809 0.0
H1035 H 0.11022 0.5781 0.18866 0.0
C1036 C 0.38464 0.70366 0.31934 0.0
C1037 C 0.38285 0.69846 0.28561 0.0
C1038 C 0.44609 0.69499 0.28576 0.0
C1039 C 0.4479 0.70045 0.31949 0.0
N1040 N 0.41765 0.70056 0.36784 0.0
N1041 N 0.40914 0.68111 0.23639 0.0
C1042 C 0.41669 0.70145 0.33609 0.0
C1043 C 0.41279 0.69151 0.2687 0.0
N1044 N 0.35642 0.71278 0.3355 0.0
N1045 N 0.4764 0.69385 0.27013 0.0
H1046 H 0.385 0.67817 0.22333 0.0
H1047 H 0.42912 0.67262 0.22283 0.0
H1048 H 0.50083 0.69383 0.28173 0.0
H1049 H 0.4777 0.69428 0.24598 0.0
H1050 H 0.35756 0.72099 0.36005 0.0
H1051 H 0.33246 0.71478 0.32424 0.0
H1052 H 0.39512 0.69782 0.3805 0.0
H1053 H 0.44058 0.69915 0.38101 0.0
C1054 C 0.03021 0.36826 0.9473 0.0
C1055 C 0.06184 0.3919 0.95508 0.0
C1056 C 0.09653 0.34514 0.94961 0.0
C1057 C 0.06478 0.32146 0.94339 0.0
N1058 N 1.00138 0.31018 0.94391 0.0
N1059 N 0.12403 0.40317 0.9708 0.0
C1060 C 0.03157 0.33296 0.94457 0.0
C1061 C 0.09469 0.3804 0.95857 0.0
N1062 N 0.99913 0.37937 0.94115 0.0
N1063 N 0.12839 0.33427 0.94514 0.0
H1064 H 0.12354 0.4292 0.97762 0.0
H1065 H 0.14795 0.39594 0.97694 0.0
H1066 H 0.13101 0.30876 0.93806 0.0
H1067 H 0.15203 0.35077 0.94578 0.0
H1068 H 0.97609 0.36305 0.93178 0.0
H1069 H 0.99692 0.40503 0.94296 0.0
H1070 H 0.97669 0.31736 0.94776 0.0
H1071 H 1.00147 0.28418 0.94265 0.0
C1072 C 0.66012 0.70337 0.27871 0.0
C1073 C 0.69028 0.72659 0.29294 0.0
C1074 C 0.65497 0.75214 0.33449 0.0
C1075 C 0.62562 0.72699 0.32184 0.0
N1076 N 0.60025 0.67681 0.28401 0.0
N1077 N 0.71816 0.77062 0.3359 0.0
C1078 C 0.6282 0.70202 0.29453 0.0
C1079 C 0.68816 0.75048 0.32117 0.0
N1080 N 0.66184 0.68333 0.24962 0.0
N1081 N 0.65104 0.77771 0.35916 0.0
H1082 H 0.74283 0.77058 0.32653 0.0
H1083 H 0.71925 0.78572 0.35843 0.0
H1084 H 0.62775 0.77876 0.37079 0.0
H1085 H 0.67005 0.79907 0.36694 0.0
H1086 H 0.63999 0.66838 0.23635 0.0
H1087 H 0.68484 0.68363 0.23742 0.0
H1088 H 0.60165 0.65564 0.2665 0.0
H1089 H 0.57598 0.67586 0.29422 0.0
C1090 C 0.02733 0.12569 0.99592 0.0
C1091 C 0.06291 0.12578 0.00627 0.0
C1092 C 0.08262 0.14091 0.9562 0.0
C1093 C 0.04782 0.14594 0.94816 0.0
N1094 N 0.98684 0.14428 0.96017 0.0
N1095 N 0.12479 0.13333 0.99706 0.0
C1096 C 0.01993 0.13806 0.96768 0.0
C1097 C 0.09066 0.13293 0.98642 0.0
N1098 N 1.00073 0.1139 0.01328 0.0
N1099 N 0.10775 0.14322 0.9346 0.0
H1100 H 0.13141 0.12595 0.01836 0.0
H1101 H 0.14662 0.14244 0.98568 0.0
H1102 H 0.10254 0.14881 0.9122 0.0
H1103 H 0.13277 0.13676 0.93762 0.0
H1104 H 0.97413 0.11004 1.00564 0.0
H1105 H 1.00542 0.10521 0.03431 0.0
H1106 H 0.96628 0.14298 0.97524 0.0
H1107 H 0.98033 0.15285 0.93948 0.0
C1108 C 0.36983 0.25685 0.23955 0.0
C1109 C 0.37912 0.2842 0.26571 0.0
C1110 C 0.42997 0.3063 0.23835 0.0
C1111 C 0.42284 0.27702 0.21378 0.0
N1112 N 0.39012 0.22071 0.19478 0.0
N1113 N 0.42206 0.33122 0.29292 0.0
C1114 C 0.39383 0.25127 0.21534 0.0
C1115 C 0.41037 0.30789 0.26595 0.0
N1116 N 0.33765 0.2367 0.23732 0.0
N1117 N 0.45445 0.33328 0.2348 0.0
H1118 H 0.40883 0.33287 0.31382 0.0
H1119 H 0.44658 0.34671 0.29554 0.0
H1120 H 0.46865 0.33361 0.21457 0.0
H1121 H 0.45809 0.35662 0.25044 0.0
H1122 H 0.32794 0.2187 0.21712 0.0
H1123 H 0.31925 0.24009 0.25443 0.0
H1124 H 0.37163 0.19984 0.19699 0.0
H1125 H 0.4078 0.21494 0.17749 0.0
C1126 C 0.57207 0.35222 0.05768 0.0
C1127 C 0.54848 0.3689 0.04223 0.0
C1128 C 0.50358 0.35434 0.07885 0.0
C1129 C 0.52474 0.33217 0.08984 0.0
N1130 N 0.57783 0.30613 0.08531 0.0
N1131 N 0.49023 0.38378 0.03641 0.0
C1132 C 0.55893 0.33041 0.07851 0.0
C1133 C 0.51389 0.36981 0.0526 0.0
N1134 N 0.60707 0.35695 0.05206 0.0
N1135 N 0.47393 0.36105 0.09386 0.0
H1136 H 0.49672 0.39557 0.01725 0.0
H1137 H 0.46351 0.38152 0.04056 0.0
H1138 H 0.46617 0.35084 0.11366 0.0
H1139 H 0.45923 0.37938 0.08881 0.0
H1140 H 0.62614 0.34797 0.06484 0.0
H1141 H 0.6174 0.37294 0.03696 0.0
H1142 H 0.6011 0.30161 0.07476 0.0
H1143 H 0.56873 0.288 0.09872 0.0
C1144 C 0.64067 0.20727 0.22055 0.0
C1145 C 0.66642 0.23469 0.23608 0.0
C1146 C 0.6228 0.27366 0.23798 0.0
C1147 C 0.59836 0.24711 0.21917 0.0
N1148 N 0.58334 0.18889 0.19176 0.0
N1149 N 0.68352 0.2942 0.25847 0.0
C1150 C 0.60708 0.21391 0.21034 0.0
C1151 C 0.65779 0.26791 0.24484 0.0
N1152 N 0.64828 0.1748 0.21614 0.0
N1153 N 0.61254 0.30438 0.24917 0.0
H1154 H 0.70909 0.29073 0.26474 0.0
H1155 H 0.68034 0.31969 0.26201 0.0
H1156 H 0.5877 0.31004 0.24345 0.0
H1157 H 0.62763 0.32358 0.26581 0.0
H1158 H 0.62979 0.15318 0.2078 0.0
H1159 H 0.67271 0.16915 0.22322 0.0
H1160 H 0.58939 0.16538 0.18108 0.0
H1161 H 0.55765 0.19218 0.18573 0.0
C1162 C 0.49614 0.11368 0.06266 0.0
C1163 C 0.47142 0.1162 0.03801 0.0
C1164 C 0.47525 0.17734 0.05877 0.0
C1165 C 0.49754 0.17427 0.08501 0.0
N1166 N 0.52357 0.13815 0.11526 0.0
N1167 N 0.43175 0.1487 0.01637 0.0
C1168 C 0.50641 0.14202 0.0879 0.0
C1169 C 0.45922 0.14753 0.03723 0.0
N1170 N 0.51075 0.08464 0.0614 0.0
N1171 N 0.47091 0.2088 0.05336 0.0
H1172 H 0.41911 0.12735 1.00038 0.0
H1173 H 0.41936 0.17005 0.01699 0.0
H1174 H 0.4834 0.23124 0.06782 0.0
H1175 H 0.45797 0.21267 0.03281 0.0
H1176 H 0.53174 0.08266 0.07677 0.0
H1177 H 0.50399 0.06336 0.04328 0.0
H1178 H 0.52753 0.11459 0.1201 0.0
H1179 H 0.53087 0.15812 0.13452 0.0
C1180 C 0.31591 0.38943 0.73676 0.0
C1181 C 0.33348 0.36061 0.73382 0.0
C1182 C 0.38697 0.39608 0.76132 0.0
C1183 C 0.3686 0.42442 0.7665 0.0
N1184 N 0.31458 0.44771 0.763 0.0
N1185 N 0.38356 0.33487 0.7472 0.0
C1186 C 0.33276 0.42104 0.7552 0.0
C1187 C 0.36837 0.36346 0.74733 0.0
N1188 N 0.28345 0.38669 0.72134 0.0
N1189 N 0.42265 0.40064 0.76824 0.0
H1190 H 0.37123 0.31056 0.73639 0.0
H1191 H 0.40721 0.33482 0.75994 0.0
H1192 H 0.43747 0.42421 0.77799 0.0
H1193 H 0.43817 0.38179 0.76166 0.0
H1194 H 0.27084 0.40743 0.71954 0.0
H1195 H 0.27002 0.36371 0.70838 0.0
H1196 H 0.28748 0.44592 0.75838 0.0
H1197 H 0.32616 0.4712 0.77636 0.0
C1198 C 0.29821 0.6157 0.81394 0.0
C1199 C 0.31642 0.64924 0.82465 0.0
C1200 C 0.37194 0.62638 0.82908 0.0
C1201 C 0.35444 0.5935 0.81438 0.0
N1202 N 0.30181 0.55842 0.78708 0.0
N1203 N 0.37175 0.68724 0.83757 0.0
C1204 C 0.31775 0.58851 0.80536 0.0
C1205 C 0.35363 0.65482 0.83097 0.0
N1206 N 0.26216 0.60967 0.81255 0.0
N1207 N 0.40558 0.63033 0.84241 0.0
H1208 H 0.35944 0.70876 0.83897 0.0
H1209 H 0.39919 0.69272 0.8389 0.0
H1210 H 0.41956 0.61007 0.8424 0.0
H1211 H 0.41828 0.65308 0.85626 0.0
H1212 H 0.24756 0.58529 0.80801 0.0
H1213 H 0.24695 0.62889 0.81906 0.0
H1214 H 0.27602 0.55472 0.77711 0.0
H1215 H 0.31533 0.53831 0.77899 0.0
C1216 C 0.90408 0.46334 0.50601 0.0
C1217 C 0.89316 0.4958 0.50975 0.0
C1218 C 0.83833 0.47302 0.53111 0.0
C1219 C 0.8474 0.43982 0.52394 0.0
N1220 N 0.88609 0.40237 0.49911 0.0
N1221 N 0.84682 0.53004 0.51983 0.0
C1222 C 0.87957 0.43466 0.50995 0.0
C1223 C 0.85938 0.50024 0.5206 0.0
N1224 N 0.93813 0.46004 0.49957 0.0
N1225 N 0.81049 0.47891 0.54916 0.0
H1226 H 0.86108 0.55036 0.51163 0.0
H1227 H 0.82096 0.53334 0.52435 0.0
H1228 H 0.79526 0.45991 0.55841 0.0
H1229 H 0.80484 0.50321 0.55774 0.0
H1230 H 0.94856 0.43772 0.4999 0.0
H1231 H 0.95691 0.48049 0.49673 0.0
H1232 H 0.90734 0.39711 0.48567 0.0
H1233 H 0.86851 0.38066 0.50088 0.0
C1234 C 0.70884 0.8972 0.80202 0.0
C1235 C 0.74586 0.90001 0.79983 0.0
C1236 C 0.74325 0.94076 0.76415 0.0
C1237 C 0.70778 0.94285 0.77142 0.0
N1238 N 0.65679 0.92415 0.79872 0.0
N1239 N 0.79905 0.92456 0.7792 0.0
C1240 C 0.69024 0.92085 0.7902 0.0
C1241 C 0.76323 0.92139 0.78053 0.0
N1242 N 0.69165 0.87204 0.81573 0.0
N1243 N 0.75761 0.95707 0.74129 0.0
H1244 H 0.81435 0.91 0.79009 0.0
H1245 H 0.81383 0.94286 0.76883 0.0
H1246 H 0.74335 0.97096 0.72857 0.0
H1247 H 0.78223 0.95414 0.73278 0.0
H1248 H 0.66428 0.86653 0.81553 0.0
H1249 H 0.70481 0.85449 0.8246 0.0
H1250 H 0.64431 0.91171 0.81546 0.0
H1251 H 0.64222 0.94122 0.79085 0.0
C1252 C 0.65913 0.55136 0.01136 0.0
C1253 C 0.64751 0.53547 0.97965 0.0
C1254 C 0.69651 0.57045 0.96002 0.0
C1255 C 0.70988 0.58426 0.99183 0.0
N1256 N 0.70883 0.58011 0.04741 0.0
N1257 N 0.66077 0.52329 0.92451 0.0
C1258 C 0.69263 0.57245 0.01744 0.0
C1259 C 0.66801 0.54295 0.95419 0.0
N1260 N 0.63775 0.54745 0.03562 0.0
N1261 N 0.70951 0.58463 0.93539 0.0
H1262 H 0.64076 0.50229 0.91948 0.0
H1263 H 0.67698 0.52563 0.90583 0.0
H1264 H 0.72923 0.60578 0.9385 0.0
H1265 H 0.69811 0.57763 0.91221 0.0
H1266 H 0.64345 0.56142 0.05864 0.0
H1267 H 0.61281 0.53264 0.03217 0.0
H1268 H 0.69879 0.56952 0.06626 0.0
H1269 H 0.73421 0.59383 0.05263 0.0
C1270 C 0.23585 0.66168 0.27634 0.0
C1271 C 0.25573 0.6597 0.24901 0.0
C1272 C 0.21351 0.61066 0.22165 0.0
C1273 C 0.19584 0.61042 0.25015 0.0
N1274 N 0.19277 0.63256 0.30599 0.0
N1275 N 0.26625 0.63067 0.19681 0.0
C1276 C 0.20754 0.63524 0.27784 0.0
C1277 C 0.24527 0.63377 0.22191 0.0
N1278 N 0.24375 0.68915 0.30066 0.0
N1279 N 0.19925 0.58956 0.19409 0.0
H1280 H 0.28922 0.64767 0.19584 0.0
H1281 H 0.26231 0.60999 0.17796 0.0
H1282 H 0.17596 0.57237 0.19293 0.0
H1283 H 0.20873 0.59103 0.17187 0.0
H1284 H 0.22795 0.69396 0.31965 0.0
H1285 H 0.26461 0.7088 0.30059 0.0
H1286 H 0.20275 0.64755 0.32775 0.0
H1287 H 0.17223 0.61336 0.30812 0.0
C1288 C 0.92866 0.54533 0.00848 0.0
C1289 C 0.96142 0.5616 0.02449 0.0
C1290 C 0.94235 0.61711 0.02595 0.0
C1291 C 0.9118 0.60109 1.00609 0.0
N1292 N 0.87936 0.55 0.97347 0.0
N1293 N 1.00212 0.61345 0.04358 0.0
C1294 C 0.90579 0.56516 0.99606 0.0
C1295 C 0.96904 0.59766 0.03192 0.0
N1296 N 0.91901 0.51099 1.00574 0.0
N1297 N 0.94526 0.65052 0.04037 0.0
H1298 H 0.02259 0.60021 0.04796 0.0
H1299 H 0.0101 0.6396 0.04614 0.0
H1300 H 0.92568 0.66538 0.03781 0.0
H1301 H 0.96531 0.66242 0.05755 0.0
H1302 H 0.89394 0.4983 0.99713 0.0
H1303 H 0.93482 0.4957 0.01503 0.0
H1304 H 0.87616 0.52432 0.963 0.0
H1305 H 0.86287 0.56362 0.96271 0.0
C1306 C 0.12601 0.9644 0.05077 0.0
C1307 C 0.12946 0.98343 0.08234 0.0
C1308 C 0.18163 0.95785 0.09333 0.0
C1309 C 0.18152 0.9432 0.06062 0.0
N1310 N 0.15567 0.93621 0.00705 0.0
N1311 N 0.16506 1.00325 0.13185 0.0
C1312 C 0.15409 0.94718 0.03898 0.0
C1313 C 0.15844 0.98143 0.1032 0.0
N1314 N 0.09567 0.96224 0.03226 0.0
N1315 N 0.20327 0.94851 0.11519 0.0
H1316 H 0.14975 0.02201 0.13959 0.0
H1317 H 0.18791 1.00509 0.14643 0.0
H1318 H 0.2196 0.93019 0.10905 0.0
H1319 H 0.202 0.95601 0.13966 0.0
H1320 H 0.09019 0.94604 0.01023 0.0
H1321 H 0.07451 0.97425 0.04022 0.0
H1322 H 0.13852 0.94184 0.99 0.0
H1323 H 0.17591 0.92394 0.99734 0.0
loop_
_geom_bond_atom_site_label_1
_geom_bond_atom_site_label_2
_geom_bond_distance
_geom_bond_site_symmetry_2
_ccdc_geom_bond_type
H0 C1 0.949 . S
C1 H0 0.949 . S
C1 C2 1.395 . S
C1 C3 1.391 . S
C2 C1 1.395 . S
C2 C5 1.390 1_545 S
C3 C1 1.391 . S
C3 C7 1.387 . S
C3 C8 1.491 . S
H4 C5 0.950 . S
C5 C2 1.390 1_565 S
C5 H4 0.950 . S
C5 C6 1.378 1_565 S
C6 C5 1.378 1_545 S
C6 C7 1.409 . S
C7 C3 1.387 . S
C7 C6 1.409 . S
C7 H9 0.951 . S
C8 C3 1.491 . S
C8 C10 1.382 . S
C8 C12 1.404 . S
H9 C7 0.951 . S
C10 C8 1.382 . S
C10 C11 1.390 1_554 S
C10 H15 0.949 1_554 S
C11 C10 1.390 1_556 S
C11 C16 1.399 1_556 S
C12 C8 1.404 . S
C12 H13 0.950 . S
C12 C14 1.375 . S
H13 C12 0.950 . S
C14 C12 1.375 . S
C14 C16 1.382 . S
C14 H18 0.950 . S
H15 C10 0.949 1_556 S
C16 C11 1.399 1_554 S
C16 C14 1.382 . S
C16 H17 0.934 1_554 S
H17 C16 0.934 1_556 S
H18 C14 0.950 . S
H19 C20 0.949 . S
C20 H19 0.949 . S
C20 C21 1.395 . S
C20 C22 1.391 . S
C21 C20 1.395 . S
C21 C24 1.390 . S
C22 C20 1.391 . S
C22 C26 1.387 . S
C22 C27 1.491 . S
H23 C24 0.950 . S
C24 C21 1.390 . S
C24 H23 0.950 . S
C24 C25 1.378 . S
C25 C24 1.378 . S
C25 C26 1.409 . S
C26 C22 1.387 . S
C26 C25 1.409 . S
C26 H28 0.951 . S
C27 C22 1.491 . S
C27 C29 1.382 . S
C27 C31 1.404 . S
H28 C26 0.951 . S
C29 C27 1.382 . S
C29 C30 1.390 . S
C29 H34 0.949 . S
C30 C29 1.390 . S
C30 C35 1.399 . S
C31 C27 1.404 . S
C31 H32 0.950 . S
C31 C33 1.375 . S
H32 C31 0.950 . S
C33 C31 1.375 . S
C33 C35 1.382 . S
C33 H37 0.950 . S
H34 C29 0.949 . S
C35 C30 1.399 . S
C35 C33 1.382 . S
C35 H36 0.952 . S
H36 C35 0.952 . S
H37 C33 0.950 . S
H38 C39 0.949 . S
C39 H38 0.949 . S
C39 C40 1.395 . S
C39 C41 1.391 1_455 S
C40 C39 1.395 . S
C40 C43 1.390 1_455 S
C41 C39 1.391 1_655 S
C41 C45 1.387 . S
C41 C46 1.486 1_654 S
H42 C43 0.950 . S
C43 C40 1.390 1_655 S
C43 H42 0.950 . S
C43 C44 1.378 . S
C44 C43 1.378 . S
C44 C45 1.409 . S
C45 C41 1.387 . S
C45 C44 1.409 . S
C45 H47 0.951 1_554 S
C46 C41 1.486 1_456 S
C46 C48 1.387 . S
C46 C50 1.405 . S
H47 C45 0.951 1_556 S
C48 C46 1.387 . S
C48 C49 1.390 . S
C48 H53 0.949 1_556 S
C49 C48 1.390 . S
C49 C54 1.399 . S
C50 C46 1.405 . S
C50 H51 0.955 . S
C50 C52 1.375 . S
H51 C50 0.955 . S
C52 C50 1.375 . S
C52 C54 1.382 . S
C52 H56 0.950 . S
H53 C48 0.949 1_554 S
C54 C49 1.399 . S
C54 C52 1.382 . S
C54 H55 0.952 . S
H55 C54 0.952 . S
H56 C52 0.950 . S
H57 C58 0.949 . S
C58 H57 0.949 . S
C58 C59 1.395 . S
C58 C60 1.391 . S
C59 C58 1.395 . S
C59 C62 1.390 . S
C60 C58 1.391 . S
C60 C64 1.387 . S
C60 C65 1.491 . S
H61 C62 0.950 . S
C62 C59 1.390 . S
C62 H61 0.950 . S
C62 C63 1.378 . S
C63 C62 1.378 . S
C63 C64 1.409 . S
C64 C60 1.387 . S
C64 C63 1.409 . S
C64 H66 0.951 . S
C65 C60 1.491 . S
C65 C67 1.382 . S
C65 C69 1.404 . S
H66 C64 0.951 . S
C67 C65 1.382 . S
C67 C68 1.390 . S
C67 H72 0.949 . S
C68 C67 1.390 . S
C68 C73 1.399 . S
C69 C65 1.404 . S
C69 H70 0.950 . S
C69 C71 1.375 . S
H70 C69 0.950 . S
C71 C69 1.375 . S
C71 C73 1.382 . S
C71 H75 0.950 . S
H72 C67 0.949 . S
C73 C68 1.399 . S
C73 C71 1.382 . S
C73 H74 0.952 . S
H74 C73 0.952 . S
H75 C71 0.950 . S
H76 C77 0.949 . S
C77 H76 0.949 . S
C77 C78 1.395 1_565 S
C77 C79 1.391 . S
C78 C77 1.395 1_545 S
C78 C81 1.390 . S
C79 C77 1.391 . S
C79 C83 1.387 . S
C79 C84 1.491 . S
H80 C81 0.950 . S
C81 C78 1.390 . S
C81 H80 0.950 . S
C81 C82 1.378 1_545 S
C82 C81 1.378 1_565 S
C82 C83 1.409 . S
C83 C79 1.387 . S
C83 C82 1.409 . S
C83 H85 0.951 . S
C84 C79 1.491 . S
C84 C86 1.382 . S
C84 C88 1.404 . S
H85 C83 0.951 . S
C86 C84 1.382 . S
C86 C87 1.390 . S
C86 H91 0.949 . S
C87 C86 1.390 . S
C87 C92 1.399 . S
C88 C84 1.404 . S
C88 H89 0.950 . S
C88 C90 1.375 . S
H89 C88 0.950 . S
C90 C88 1.375 . S
C90 C92 1.382 . S
C90 H94 0.950 . S
H91 C86 0.949 . S
C92 C87 1.399 . S
C92 C90 1.382 . S
C92 H93 0.952 . S
H93 C92 0.952 . S
H94 C90 0.950 . S
H95 C96 0.949 . S
C96 H95 0.949 . S
C96 C97 1.395 . S
C96 C98 1.391 . S
C97 C96 1.395 . S
C97 C100 1.390 . S
C98 C96 1.391 . S
C98 C102 1.387 . S
C98 C103 1.491 . S
H99 C100 0.950 . S
C100 C97 1.390 . S
C100 H99 0.950 . S
C100 C101 1.378 . S
C101 C100 1.378 . S
C101 C102 1.409 . S
C102 C98 1.387 . S
C102 C101 1.409 . S
C102 H104 0.951 . S
C103 C98 1.491 . S
C103 C105 1.382 . S
C103 C107 1.404 . S
H104 C102 0.951 . S
C105 C103 1.382 . S
C105 C106 1.390 . S
C105 H110 0.949 . S
C106 C105 1.390 . S
C106 C111 1.399 . S
C107 C103 1.404 . S
C107 H108 0.950 . S
C107 C109 1.375 . S
H108 C107 0.950 . S
C109 C107 1.375 . S
C109 C111 1.382 . S
C109 H113 0.950 . S
H110 C105 0.949 . S
C111 C106 1.399 . S
C111 C109 1.382 . S
C111 H112 0.952 . S
H112 C111 0.952 . S
H113 C109 0.950 . S
H114 C115 0.949 . S
C115 H114 0.949 . S
C115 C116 1.395 . S
C115 C117 1.391 . S
C116 C115 1.395 . S
C116 C119 1.390 . S
C117 C115 1.391 . S
C117 C121 1.387 . S
C117 C122 1.491 . S
H118 C119 0.950 . S
C119 C116 1.390 . S
C119 H118 0.950 . S
C119 C120 1.378 . S
C120 C119 1.378 . S
C120 C121 1.409 . S
C121 C117 1.387 . S
C121 C120 1.409 . S
C121 H123 0.951 . S
C122 C117 1.491 . S
C122 C124 1.382 1_655 S
C122 C126 1.404 . S
H123 C121 0.951 . S
C124 C122 1.382 1_455 S
C124 C125 1.390 . S
C124 H129 0.949 . S
C125 C124 1.390 . S
C125 C130 1.399 1_455 S
C126 C122 1.404 . S
C126 H127 0.950 . S
C126 C128 1.375 . S
H127 C126 0.950 . S
C128 C126 1.375 . S
C128 C130 1.382 . S
C128 H132 0.950 . S
H129 C124 0.949 . S
C130 C125 1.399 1_655 S
C130 C128 1.382 . S
C130 H131 0.952 . S
H131 C130 0.952 . S
H132 C128 0.950 . S
H133 C134 0.949 . S
C134 H133 0.949 . S
C134 C135 1.395 . S
C134 C136 1.391 . S
C135 C134 1.395 . S
C135 C138 1.390 . S
C136 C134 1.391 . S
C136 C140 1.387 . S
C136 C141 1.491 . S
H137 C138 0.950 . S
C138 C135 1.390 . S
C138 H137 0.950 . S
C138 C139 1.378 . S
C139 C138 1.378 . S
C139 C140 1.409 . S
C140 C136 1.387 . S
C140 C139 1.409 . S
C140 H142 0.951 . S
C141 C136 1.491 . S
C141 C143 1.382 . S
C141 C145 1.404 . S
H142 C140 0.951 . S
C143 C141 1.382 . S
C143 C144 1.390 . S
C143 H148 0.949 . S
C144 C143 1.390 . S
C144 C149 1.399 . S
C145 C141 1.404 . S
C145 H146 0.950 . S
C145 C147 1.375 . S
H146 C145 0.950 . S
C147 C145 1.375 . S
C147 C149 1.382 . S
C147 H151 0.950 . S
H148 C143 0.949 . S
C149 C144 1.399 . S
C149 C147 1.382 . S
C149 H150 0.952 . S
H150 C149 0.952 . S
H151 C147 0.950 . S
H152 C153 0.949 . S
C153 H152 0.949 . S
C153 C154 1.395 . S
C153 C155 1.391 . S
C154 C153 1.395 . S
C154 C157 1.390 . S
C155 C153 1.391 . S
C155 C159 1.387 . S
C155 C160 1.491 . S
H156 C157 0.950 . S
C157 C154 1.390 . S
C157 H156 0.950 . S
C157 C158 1.378 . S
C158 C157 1.378 . S
C158 C159 1.409 . S
C159 C155 1.387 . S
C159 C158 1.409 . S
C159 H161 0.951 . S
C160 C155 1.491 . S
C160 C162 1.382 . S
C160 C164 1.404 . S
H161 C159 0.951 . S
C162 C160 1.382 . S
C162 C163 1.390 . S
C162 H167 0.949 . S
C163 C162 1.390 . S
C163 C168 1.399 . S
C164 C160 1.404 . S
C164 H165 0.950 . S
C164 C166 1.375 . S
H165 C164 0.950 . S
C166 C164 1.375 . S
C166 C168 1.382 . S
C166 H170 0.950 . S
H167 C162 0.949 . S
C168 C163 1.399 . S
C168 C166 1.382 . S
C168 H169 0.952 . S
H169 C168 0.952 . S
H170 C166 0.950 . S
H171 C172 0.949 . S
C172 H171 0.949 . S
C172 C173 1.395 . S
C172 C174 1.391 . S
C173 C172 1.395 . S
C173 C176 1.390 1_565 S
C174 C172 1.391 . S
C174 C178 1.387 . S
C174 C179 1.491 . S
H175 C176 0.950 . S
C176 C173 1.390 1_545 S
C176 H175 0.950 . S
C176 C177 1.378 . S
C177 C176 1.378 . S
C177 C178 1.409 1_545 S
C178 C174 1.387 . S
C178 C177 1.409 1_565 S
C178 H180 0.951 . S
C179 C174 1.491 . S
C179 C181 1.382 . S
C179 C183 1.404 . S
H180 C178 0.951 . S
C181 C179 1.382 . S
C181 C182 1.390 . S
C181 H186 0.949 . S
C182 C181 1.390 . S
C182 C187 1.399 . S
C183 C179 1.404 . S
C183 H184 0.950 . S
C183 C185 1.375 . S
H184 C183 0.950 . S
C185 C183 1.375 . S
C185 C187 1.382 . S
C185 H189 0.950 . S
H186 C181 0.949 . S
C187 C182 1.399 . S
C187 C185 1.382 . S
C187 H188 0.952 . S
H188 C187 0.952 . S
H189 C185 0.950 . S
H190 C191 0.949 . S
C191 H190 0.949 . S
C191 C192 1.395 . S
C191 C193 1.391 . S
C192 C191 1.395 . S
C192 C195 1.390 . S
C193 C191 1.391 . S
C193 C197 1.387 . S
C193 C198 1.491 . S
H194 C195 0.950 . S
C195 C192 1.390 . S
C195 H194 0.950 . S
C195 C196 1.378 . S
C196 C195 1.378 . S
C196 C197 1.409 . S
C197 C193 1.387 . S
C197 C196 1.409 . S
C197 H199 0.951 . S
C198 C193 1.491 . S
C198 C200 1.382 . S
C198 C202 1.404 . S
H199 C197 0.951 . S
C200 C198 1.382 . S
C200 C201 1.390 . S
C200 H205 0.949 . S
C201 C200 1.390 . S
C201 C206 1.399 . S
C202 C198 1.404 . S
C202 H203 0.950 . S
C202 C204 1.375 . S
H203 C202 0.950 . S
C204 C202 1.375 . S
C204 C206 1.382 . S
C204 H208 0.950 . S
H205 C200 0.949 . S
C206 C201 1.399 . S
C206 C204 1.382 . S
C206 H207 0.952 . S
H207 C206 0.952 . S
H208 C204 0.950 . S
H209 C210 0.949 . S
C210 H209 0.949 . S
C210 C211 1.395 . S
C210 C212 1.391 . S
C211 C210 1.395 . S
C211 C214 1.390 . S
C212 C210 1.391 . S
C212 C216 1.387 . S
C212 C217 1.491 . S
H213 C214 0.950 . S
C214 C211 1.390 . S
C214 H213 0.950 . S
C214 C215 1.378 . S
C215 C214 1.378 . S
C215 C216 1.409 . S
C216 C212 1.387 . S
C216 C215 1.409 . S
C216 H218 0.951 . S
C217 C212 1.491 . S
C217 C219 1.382 . S
C217 C221 1.404 . S
H218 C216 0.951 . S
C219 C217 1.382 . S
C219 C220 1.390 . S
C219 H224 0.949 . S
C220 C219 1.390 . S
C220 C225 1.399 . S
C221 C217 1.404 . S
C221 H222 0.950 . S
C221 C223 1.375 . S
H222 C221 0.950 . S
C223 C221 1.375 . S
C223 C225 1.382 . S
C223 H227 0.950 . S
H224 C219 0.949 . S
C225 C220 1.399 . S
C225 C223 1.382 . S
C225 H226 0.952 . S
H226 C225 0.952 . S
H227 C223 0.950 . S
H228 C229 0.949 . S
C229 H228 0.949 . S
C229 C230 1.395 . S
C229 C231 1.391 . S
C230 C229 1.395 . S
C230 C233 1.390 . S
C231 C229 1.391 . S
C231 C235 1.387 . S
C231 C236 1.491 . S
H232 C233 0.950 . S
C233 C230 1.390 . S
C233 H232 0.950 . S
C233 C234 1.378 . S
C234 C233 1.378 . S
C234 C235 1.409 . S
C235 C231 1.387 . S
C235 C234 1.409 . S
C235 H237 0.951 . S
C236 C231 1.491 . S
C236 C238 1.382 . S
C236 C240 1.404 . S
H237 C235 0.951 . S
C238 C236 1.382 . S
C238 C239 1.390 . S
C238 H243 0.949 . S
C239 C238 1.390 . S
C239 C244 1.399 . S
C240 C236 1.404 . S
C240 H241 0.950 . S
C240 C242 1.375 . S
H241 C240 0.950 . S
C242 C240 1.375 . S
C242 C244 1.382 . S
C242 H246 0.950 . S
H243 C238 0.949 . S
C244 C239 1.399 . S
C244 C242 1.382 . S
C244 H245 0.952 . S
H245 C244 0.952 . S
H246 C242 0.950 . S
H247 C248 0.949 1_554 S
C248 H247 0.949 1_556 S
C248 C249 1.395 . S
C248 C250 1.391 . S
C249 C248 1.395 . S
C249 C252 1.390 . S
C250 C248 1.391 . S
C250 C254 1.387 . S
C250 C255 1.491 . S
H251 C252 0.950 . S
C252 C249 1.390 . S
C252 H251 0.950 . S
C252 C253 1.378 . S
C253 C252 1.378 . S
C253 C254 1.409 . S
C254 C250 1.387 . S
C254 C253 1.409 . S
C254 H256 0.951 . S
C255 C250 1.491 . S
C255 C257 1.382 1_556 S
C255 C259 1.404 . S
H256 C254 0.951 . S
C257 C255 1.382 1_554 S
C257 C258 1.390 . S
C257 H262 0.949 . S
C258 C257 1.390 . S
C258 C263 1.399 . S
C259 C255 1.404 . S
C259 H260 0.950 . S
C259 C261 1.375 . S
H260 C259 0.950 . S
C261 C259 1.375 . S
C261 C263 1.382 1_556 S
C261 H265 0.950 . S
H262 C257 0.949 . S
C263 C258 1.399 . S
C263 C261 1.382 1_554 S
C263 H264 0.952 . S
H264 C263 0.952 . S
H265 C261 0.950 . S
H266 C267 0.949 . S
C267 H266 0.949 . S
C267 C268 1.395 . S
C267 C269 1.391 . S
C268 C267 1.395 . S
C268 C271 1.390 . S
C269 C267 1.391 . S
C269 C273 1.387 . S
C269 C274 1.491 . S
H270 C271 0.950 . S
C271 C268 1.390 . S
C271 H270 0.950 . S
C271 C272 1.378 . S
C272 C271 1.378 . S
C272 C273 1.409 . S
C273 C269 1.387 . S
C273 C272 1.409 . S
C273 H275 0.951 . S
C274 C269 1.491 . S
C274 C276 1.382 . S
C274 C278 1.404 . S
H275 C273 0.951 . S
C276 C274 1.382 . S
C276 C277 1.390 . S
C276 H281 0.949 . S
C277 C276 1.390 . S
C277 C282 1.399 . S
C278 C274 1.404 . S
C278 H279 0.950 . S
C278 C280 1.375 . S
H279 C278 0.950 . S
C280 C278 1.375 . S
C280 C282 1.382 . S
C280 H284 0.950 . S
H281 C276 0.949 . S
C282 C277 1.399 . S
C282 C280 1.382 . S
C282 H283 0.952 . S
H283 C282 0.952 . S
H284 C280 0.950 . S
H285 C286 0.949 . S
C286 H285 0.949 . S
C286 C287 1.395 1_556 S
C286 C288 1.391 . S
C287 C286 1.395 1_554 S
C287 C290 1.390 . S
C288 C286 1.391 . S
C288 C292 1.387 . S
C288 C293 1.491 . S
H289 C290 0.950 . S
C290 C287 1.390 . S
C290 H289 0.950 . S
C290 C291 1.378 1_554 S
C291 C290 1.378 1_556 S
C291 C292 1.409 . S
C292 C288 1.387 . S
C292 C291 1.409 . S
C292 H294 0.951 1_545 S
C293 C288 1.491 . S
C293 C295 1.382 . S
C293 C297 1.404 . S
H294 C292 0.951 1_565 S
C295 C293 1.382 . S
C295 C296 1.390 . S
C295 H300 0.949 . S
C296 C295 1.390 . S
C296 C301 1.399 . S
C297 C293 1.404 . S
C297 H298 0.950 . S
C297 C299 1.375 . S
H298 C297 0.950 . S
C299 C297 1.375 . S
C299 C301 1.382 . S
C299 H303 0.950 . S
H300 C295 0.949 . S
C301 C296 1.399 . S
C301 C299 1.382 . S
C301 H302 0.952 . S
H302 C301 0.952 . S
H303 C299 0.950 . S
C304 O305 1.160 . S
C304 O311 1.185 . S
O305 C304 1.160 . S
O306 Zn307 1.899 . S
O306 C314 1.284 1_554 S
Zn307 O306 1.899 . S
Zn307 O308 2.032 . S
Zn307 O311 2.086 . S
Zn307 O316 1.977 . S
O308 Zn307 2.032 . S
O308 C312 1.278 . S
C309 O310 1.203 . S
C309 O316 1.267 . S
O310 C309 1.203 . S
O311 C304 1.185 . S
O311 Zn307 2.086 . S
C312 O308 1.278 . S
C312 O313 1.211 . S
O313 C312 1.211 . S
C314 O306 1.284 1_556 S
C314 O315 1.273 . S
O315 C314 1.273 . S
O316 Zn307 1.977 . S
O316 C309 1.267 . S
C317 O318 1.160 . S
C317 O324 1.185 . S
O318 C317 1.160 . S
O319 Zn320 1.899 . S
O319 C327 1.284 . S
Zn320 O319 1.899 . S
Zn320 O321 2.032 . S
Zn320 O324 2.086 . S
Zn320 O329 1.977 . S
O321 Zn320 2.032 . S
O321 C325 1.278 . S
C322 O323 1.203 . S
C322 O329 1.267 . S
O323 C322 1.203 . S
O324 C317 1.185 . S
O324 Zn320 2.086 . S
C325 O321 1.278 . S
C325 O326 1.211 . S
O326 C325 1.211 . S
C327 O319 1.284 . S
C327 O328 1.273 . S
O328 C327 1.273 . S
O329 Zn320 1.977 . S
O329 C322 1.267 . S
C330 O331 1.160 . S
C330 O337 1.185 1_556 S
O331 C330 1.160 . S
O332 Zn333 1.899 1_556 S
O332 C340 1.284 . S
Zn333 O332 1.899 1_554 S
Zn333 O334 2.032 1_554 S
Zn333 O337 2.086 . S
Zn333 O342 1.977 . S
O334 Zn333 2.032 1_556 S
O334 C338 1.278 . S
C335 O336 1.203 . S
C335 O342 1.267 . S
O336 C335 1.203 . S
O337 C330 1.185 1_554 S
O337 Zn333 2.086 . S
C338 O334 1.278 . S
C338 O339 1.211 1_556 S
O339 C338 1.211 1_554 S
C340 O332 1.284 . S
C340 O341 1.273 . S
O341 C340 1.273 . S
O342 Zn333 1.977 . S
O342 C335 1.267 . S
C343 O344 1.160 . S
C343 O350 1.185 . S
O344 C343 1.160 . S
O345 Zn346 1.899 . S
O345 C353 1.284 . S
Zn346 O345 1.899 . S
Zn346 O347 2.032 1_545 S
Zn346 O350 2.086 . S
Zn346 O355 1.977 . S
O347 Zn346 2.032 1_565 S
O347 C351 1.278 . S
C348 O349 1.203 1_655 S
C348 O355 1.267 . S
O349 C348 1.203 1_455 S
O350 C343 1.185 . S
O350 Zn346 2.086 . S
C351 O347 1.278 . S
C351 O352 1.211 . S
O352 C351 1.211 . S
C353 O345 1.284 . S
C353 O354 1.273 1_545 S
O354 C353 1.273 1_565 S
O355 Zn346 1.977 . S
O355 C348 1.267 . S
C356 O357 1.160 . S
C356 O363 1.185 . S
O357 C356 1.160 . S
O358 Zn359 1.899 . S
O358 C366 1.284 . S
Zn359 O358 1.899 . S
Zn359 O360 2.032 . S
Zn359 O363 2.086 . S
Zn359 O368 1.977 . S
O360 Zn359 2.032 . S
O360 C364 1.278 . S
C361 O362 1.203 . S
C361 O368 1.267 . S
O362 C361 1.203 . S
O363 C356 1.185 . S
O363 Zn359 2.086 . S
C364 O360 1.278 . S
C364 O365 1.211 . S
O365 C364 1.211 . S
C366 O358 1.284 . S
C366 O367 1.273 . S
O367 C366 1.273 . S
O368 Zn359 1.977 . S
O368 C361 1.267 . S
C369 O370 1.160 . S
C369 O376 1.185 . S
O370 C369 1.160 . S
O371 Zn372 1.899 . S
O371 C379 1.284 . S
Zn372 O371 1.899 . S
Zn372 O373 2.032 . S
Zn372 O376 2.086 . S
Zn372 O381 1.977 . S
O373 Zn372 2.032 . S
O373 C377 1.278 . S
C374 O375 1.203 . S
C374 O381 1.267 . S
O375 C374 1.203 . S
O376 C369 1.185 . S
O376 Zn372 2.086 . S
C377 O373 1.278 . S
C377 O378 1.211 . S
O378 C377 1.211 . S
C379 O371 1.284 . S
C379 O380 1.273 . S
O380 C379 1.273 . S
O381 Zn372 1.977 . S
O381 C374 1.267 . S
C382 O383 1.160 . S
C382 O389 1.185 . S
O383 C382 1.160 . S
O384 Zn385 1.899 . S
O384 C392 1.284 . S
Zn385 O384 1.899 . S
Zn385 O386 2.032 . S
Zn385 O389 2.086 . S
Zn385 O394 1.977 . S
O386 Zn385 2.032 . S
O386 C390 1.278 . S
C387 O388 1.203 . S
C387 O394 1.267 . S
O388 C387 1.203 . S
O389 C382 1.185 . S
O389 Zn385 2.086 . S
C390 O386 1.278 . S
C390 O391 1.211 . S
O391 C390 1.211 . S
C392 O384 1.284 . S
C392 O393 1.273 . S
O393 C392 1.273 . S
O394 Zn385 1.977 . S
O394 C387 1.267 . S
C395 O396 1.160 . S
C395 O402 1.185 . S
O396 C395 1.160 . S
O397 Zn398 1.899 . S
O397 C405 1.284 . S
Zn398 O397 1.899 . S
Zn398 O399 2.032 . S
Zn398 O402 2.086 1_545 S
Zn398 O407 1.977 1_545 S
O399 Zn398 2.032 . S
O399 C403 1.278 . S
C400 O401 1.203 . S
C400 O407 1.267 1_545 S
O401 C400 1.203 . S
O402 C395 1.185 . S
O402 Zn398 2.086 1_565 S
C403 O399 1.278 . S
C403 O404 1.211 . S
O404 C403 1.211 . S
C405 O397 1.284 . S
C405 O406 1.273 . S
O406 C405 1.273 . S
O407 Zn398 1.977 1_565 S
O407 C400 1.267 1_565 S
C408 O409 1.160 1_455 S
C408 O415 1.185 . S
O409 C408 1.160 1_655 S
O410 Zn411 1.899 1_655 S
O410 C418 1.284 . S
Zn411 O410 1.899 1_455 S
Zn411 O412 2.032 . S
Zn411 O415 2.086 . S
Zn411 O420 1.977 . S
O412 Zn411 2.032 . S
O412 C416 1.278 . S
C413 O414 1.203 . S
C413 O420 1.267 . S
O414 C413 1.203 . S
O415 C408 1.185 . S
O415 Zn411 2.086 . S
C416 O412 1.278 . S
C416 O417 1.211 . S
O417 C416 1.211 . S
C418 O410 1.284 . S
C418 O419 1.273 . S
O419 C418 1.273 . S
O420 Zn411 1.977 . S
O420 C413 1.267 . S
C421 O422 1.160 . S
C421 O428 1.185 . S
O422 C421 1.160 . S
O423 Zn424 1.899 . S
O423 C431 1.284 . S
Zn424 O423 1.899 . S
Zn424 O425 2.032 . S
Zn424 O428 2.086 . S
Zn424 O433 1.977 . S
O425 Zn424 2.032 . S
O425 C429 1.278 . S
C426 O427 1.203 . S
C426 O433 1.267 . S
O427 C426 1.203 . S
O428 C421 1.185 . S
O428 Zn424 2.086 . S
C429 O425 1.278 . S
C429 O430 1.211 . S
O430 C429 1.211 . S
C431 O423 1.284 . S
C431 O432 1.273 . S
O432 C431 1.273 . S
O433 Zn424 1.977 . S
O433 C426 1.267 . S
C434 O435 1.160 1_455 S
C434 O441 1.185 . S
O435 C434 1.160 1_655 S
O436 Zn437 1.899 1_655 S
O436 C444 1.284 . S
Zn437 O436 1.899 1_455 S
Zn437 O438 2.032 1_455 S
Zn437 O441 2.086 . S
Zn437 O446 1.977 . S
O438 Zn437 2.032 1_655 S
O438 C442 1.278 . S
C439 O440 1.203 . S
C439 O446 1.267 . S
O440 C439 1.203 . S
O441 C434 1.185 . S
O441 Zn437 2.086 . S
C442 O438 1.278 . S
C442 O443 1.208 1_655 S
O443 C442 1.208 1_455 S
C444 O436 1.284 . S
C444 O445 1.273 . S
O445 C444 1.273 . S
O446 Zn437 1.977 . S
O446 C439 1.267 . S
C447 O448 1.160 . S
C447 O454 1.185 . S
O448 C447 1.160 . S
O449 Zn450 1.899 . S
O449 C457 1.284 . S
Zn450 O449 1.899 . S
Zn450 O451 2.032 . S
Zn450 O454 2.086 . S
Zn450 O459 1.977 . S
O451 Zn450 2.032 . S
O451 C455 1.278 . S
C452 O453 1.203 . S
C452 O459 1.267 . S
O453 C452 1.203 . S
O454 C447 1.185 . S
O454 Zn450 2.086 . S
C455 O451 1.278 . S
C455 O456 1.211 . S
O456 C455 1.211 . S
C457 O449 1.284 . S
C457 O458 1.273 . S
O458 C457 1.273 . S
O459 Zn450 1.977 . S
O459 C452 1.267 . S
C460 C461 1.363 . S
C460 C466 1.379 . S
C460 N468 1.356 . S
C461 C460 1.363 . S
C461 C467 1.363 . S
C462 C463 1.363 . S
C462 C467 1.379 . S
C462 N469 1.356 1_556 S
C463 C462 1.363 . S
C463 C466 1.363 . S
N464 C466 1.356 . S
N464 H476 0.984 . S
N464 H477 0.985 . S
N465 C467 1.356 . S
N465 H470 0.984 . S
N465 H471 0.985 . S
C466 C460 1.379 . S
C466 C463 1.363 . S
C466 N464 1.356 . S
C467 C461 1.363 . S
C467 C462 1.379 . S
C467 N465 1.356 . S
N468 C460 1.356 . S
N468 H474 0.984 . S
N468 H475 0.984 . S
N469 C462 1.356 1_554 S
N469 H472 0.984 . S
N469 H473 0.985 . S
H470 N465 0.984 . S
H471 N465 0.985 . S
H472 N469 0.984 . S
H473 N469 0.985 . S
H474 N468 0.984 . S
H475 N468 0.984 . S
H476 N464 0.984 . S
H477 N464 0.985 . S
C478 C479 1.363 . S
C478 C484 1.379 . S
C478 N486 1.356 . S
C479 C478 1.363 . S
C479 C485 1.363 . S
C480 C481 1.363 . S
C480 C485 1.379 . S
C480 N487 1.356 . S
C481 C480 1.363 . S
C481 C484 1.363 . S
N482 C484 1.356 . S
N482 H494 0.984 . S
N482 H495 0.985 . S
N483 C485 1.356 . S
N483 H488 0.984 . S
N483 H489 0.985 . S
C484 C478 1.379 . S
C484 C481 1.363 . S
C484 N482 1.356 . S
C485 C479 1.363 . S
C485 C480 1.379 . S
C485 N483 1.356 . S
N486 C478 1.356 . S
N486 H492 0.984 . S
N486 H493 0.984 . S
N487 C480 1.356 . S
N487 H490 0.984 . S
N487 H491 0.985 . S
H488 N483 0.984 . S
H489 N483 0.985 . S
H490 N487 0.984 . S
H491 N487 0.985 . S
H492 N486 0.984 . S
H493 N486 0.984 . S
H494 N482 0.984 . S
H495 N482 0.985 . S
C496 C497 1.363 . S
C496 C502 1.379 . S
C496 N504 1.356 . S
C497 C496 1.363 . S
C497 C503 1.363 . S
C498 C499 1.363 . S
C498 C503 1.379 . S
C498 N505 1.356 . S
C499 C498 1.363 . S
C499 C502 1.363 . S
N500 C502 1.356 . S
N500 H512 0.984 . S
N500 H513 0.985 . S
N501 C503 1.356 . S
N501 H506 0.984 . S
N501 H507 0.985 . S
C502 C496 1.379 . S
C502 C499 1.363 . S
C502 N500 1.356 . S
C503 C497 1.363 . S
C503 C498 1.379 . S
C503 N501 1.356 . S
N504 C496 1.356 . S
N504 H510 0.984 . S
N504 H511 0.984 . S
N505 C498 1.356 . S
N505 H508 0.984 . S
N505 H509 0.985 . S
H506 N501 0.984 . S
H507 N501 0.985 . S
H508 N505 0.984 . S
H509 N505 0.985 . S
H510 N504 0.984 . S
H511 N504 0.984 . S
H512 N500 0.984 . S
H513 N500 0.985 . S
C514 C515 1.363 . S
C514 C520 1.379 . S
C514 N522 1.356 . S
C515 C514 1.363 . S
C515 C521 1.363 1_545 S
C516 C517 1.363 1_565 S
C516 C521 1.379 . S
C516 N523 1.356 . S
C517 C516 1.363 1_545 S
C517 C520 1.363 . S
N518 C520 1.356 1_655 S
N518 H530 0.984 . S
N518 H531 0.985 . S
N519 C521 1.356 . S
N519 H524 0.984 . S
N519 H525 0.985 . S
C520 C514 1.379 . S
C520 C517 1.363 . S
C520 N518 1.356 1_455 S
C521 C515 1.363 1_565 S
C521 C516 1.379 . S
C521 N519 1.356 . S
N522 C514 1.356 . S
N522 H528 0.984 . S
N522 H529 0.984 . S
N523 C516 1.356 . S
N523 H526 0.984 . S
N523 H527 0.985 . S
H524 N519 0.984 . S
H525 N519 0.985 . S
H526 N523 0.984 . S
H527 N523 0.985 . S
H528 N522 0.984 . S
H529 N522 0.984 . S
H530 N518 0.984 . S
H531 N518 0.985 . S
C532 C533 1.363 . S
C532 C538 1.379 . S
C532 N540 1.356 . S
C533 C532 1.363 . S
C533 C539 1.363 . S
C534 C535 1.363 . S
C534 C539 1.379 . S
C534 N541 1.356 . S
C535 C534 1.363 . S
C535 C538 1.363 . S
N536 C538 1.356 . S
N536 H548 0.984 . S
N536 H549 0.985 . S
N537 C539 1.356 . S
N537 H542 0.984 . S
N537 H543 0.985 . S
C538 C532 1.379 . S
C538 C535 1.363 . S
C538 N536 1.356 . S
C539 C533 1.363 . S
C539 C534 1.379 . S
C539 N537 1.356 . S
N540 C532 1.356 . S
N540 H546 0.984 . S
N540 H547 0.984 . S
N541 C534 1.356 . S
N541 H544 0.984 . S
N541 H545 0.985 . S
H542 N537 0.984 . S
H543 N537 0.985 . S
H544 N541 0.984 . S
H545 N541 0.985 . S
H546 N540 0.984 . S
H547 N540 0.984 . S
H548 N536 0.984 . S
H549 N536 0.985 . S
C550 C551 1.363 . S
C550 C556 1.379 . S
C550 N558 1.356 . S
C551 C550 1.363 . S
C551 C557 1.363 . S
C552 C553 1.363 . S
C552 C557 1.379 . S
C552 N559 1.356 . S
C553 C552 1.363 . S
C553 C556 1.363 . S
N554 C556 1.356 . S
N554 H566 0.984 . S
N554 H567 0.985 . S
N555 C557 1.356 . S
N555 H560 0.984 . S
N555 H561 0.985 . S
C556 C550 1.379 . S
C556 C553 1.363 . S
C556 N554 1.356 . S
C557 C551 1.363 . S
C557 C552 1.379 . S
C557 N555 1.356 . S
N558 C550 1.356 . S
N558 H564 0.984 . S
N558 H565 0.984 . S
N559 C552 1.356 . S
N559 H562 0.984 . S
N559 H563 0.985 . S
H560 N555 0.984 . S
H561 N555 0.985 . S
H562 N559 0.984 . S
H563 N559 0.985 . S
H564 N558 0.984 . S
H565 N558 0.984 . S
H566 N554 0.984 . S
H567 N554 0.985 . S
C568 C569 1.363 . S
C568 C574 1.379 . S
C568 N576 1.356 . S
C569 C568 1.363 . S
C569 C575 1.363 . S
C570 C571 1.363 . S
C570 C575 1.379 . S
C570 N577 1.356 . S
C571 C570 1.363 . S
C571 C574 1.363 . S
N572 C574 1.356 . S
N572 H584 0.984 . S
N572 H585 0.985 . S
N573 C575 1.356 . S
N573 H578 0.984 . S
N573 H579 0.985 . S
C574 C568 1.379 . S
C574 C571 1.363 . S
C574 N572 1.356 . S
C575 C569 1.363 . S
C575 C570 1.379 . S
C575 N573 1.356 . S
N576 C568 1.356 . S
N576 H582 0.984 . S
N576 H583 0.984 . S
N577 C570 1.356 . S
N577 H580 0.984 . S
N577 H581 0.985 . S
H578 N573 0.984 . S
H579 N573 0.985 . S
H580 N577 0.984 . S
H581 N577 0.985 . S
H582 N576 0.984 . S
H583 N576 0.984 . S
H584 N572 0.984 . S
H585 N572 0.985 . S
C586 C587 1.363 . S
C586 C592 1.379 . S
C586 N594 1.356 . S
C587 C586 1.363 . S
C587 C593 1.363 1_565 S
C588 C589 1.363 1_545 S
C588 C593 1.379 . S
C588 N595 1.356 . S
C589 C588 1.363 1_565 S
C589 C592 1.363 . S
N590 C592 1.356 . S
N590 H602 0.984 . S
N590 H603 0.985 . S
N591 C593 1.356 . S
N591 H596 0.984 . S
N591 H597 0.985 . S
C592 C586 1.379 . S
C592 C589 1.363 . S
C592 N590 1.356 . S
C593 C587 1.363 1_545 S
C593 C588 1.379 . S
C593 N591 1.356 . S
N594 C586 1.356 . S
N594 H600 0.984 . S
N594 H601 0.984 . S
N595 C588 1.356 . S
N595 H598 0.984 . S
N595 H599 0.985 . S
H596 N591 0.984 . S
H597 N591 0.985 . S
H598 N595 0.984 . S
H599 N595 0.985 . S
H600 N594 0.984 . S
H601 N594 0.984 . S
H602 N590 0.984 . S
H603 N590 0.985 . S
C604 C605 1.363 . S
C604 C610 1.379 . S
C604 N612 1.356 . S
C605 C604 1.363 . S
C605 C611 1.363 . S
C606 C607 1.363 . S
C606 C611 1.379 . S
C606 N613 1.356 . S
C607 C606 1.363 . S
C607 C610 1.363 . S
N608 C610 1.356 . S
N608 H620 0.984 . S
N608 H621 0.985 . S
N609 C611 1.356 . S
N609 H614 0.984 . S
N609 H615 0.985 . S
C610 C604 1.379 . S
C610 C607 1.363 . S
C610 N608 1.356 . S
C611 C605 1.363 . S
C611 C606 1.379 . S
C611 N609 1.356 . S
N612 C604 1.356 . S
N612 H618 0.984 . S
N612 H619 0.984 . S
N613 C606 1.356 . S
N613 H616 0.984 . S
N613 H617 0.985 . S
H614 N609 0.984 . S
H615 N609 0.985 . S
H616 N613 0.984 . S
H617 N613 0.985 . S
H618 N612 0.984 . S
H619 N612 0.984 . S
H620 N608 0.984 . S
H621 N608 0.985 . S
C622 C623 1.363 . S
C622 C628 1.379 . S
C622 N630 1.356 . S
C623 C622 1.363 . S
C623 C629 1.363 . S
C624 C625 1.363 . S
C624 C629 1.379 . S
C624 N631 1.356 . S
C625 C624 1.363 . S
C625 C628 1.363 . S
N626 C628 1.356 . S
N626 H638 0.984 . S
N626 H639 0.985 . S
N627 C629 1.356 . S
N627 H632 0.984 . S
N627 H633 0.985 . S
C628 C622 1.379 . S
C628 C625 1.363 . S
C628 N626 1.356 . S
C629 C623 1.363 . S
C629 C624 1.379 . S
C629 N627 1.356 . S
N630 C622 1.356 . S
N630 H636 0.984 . S
N630 H637 0.984 . S
N631 C624 1.356 . S
N631 H634 0.984 . S
N631 H635 0.985 . S
H632 N627 0.984 . S
H633 N627 0.985 . S
H634 N631 0.984 . S
H635 N631 0.985 . S
H636 N630 0.984 . S
H637 N630 0.984 . S
H638 N626 0.984 . S
H639 N626 0.985 . S
C640 C641 1.363 . S
C640 C646 1.379 . S
C640 N648 1.356 . S
C641 C640 1.363 . S
C641 C647 1.363 . S
C642 C643 1.363 . S
C642 C647 1.379 . S
C642 N649 1.356 . S
C643 C642 1.363 . S
C643 C646 1.363 . S
N644 C646 1.356 . S
N644 H656 0.984 . S
N644 H657 0.985 . S
N645 C647 1.356 . S
N645 H650 0.984 . S
N645 H651 0.985 . S
C646 C640 1.379 . S
C646 C643 1.363 . S
C646 N644 1.356 . S
C647 C641 1.363 . S
C647 C642 1.379 . S
C647 N645 1.356 . S
N648 C640 1.356 . S
N648 H654 0.984 . S
N648 H655 0.984 . S
N649 C642 1.356 . S
N649 H652 0.984 . S
N649 H653 0.985 . S
H650 N645 0.984 . S
H651 N645 0.985 . S
H652 N649 0.984 . S
H653 N649 0.985 . S
H654 N648 0.984 . S
H655 N648 0.984 . S
H656 N644 0.984 . S
H657 N644 0.985 . S
C658 C659 1.363 . S
C658 C664 1.379 . S
C658 N666 1.356 . S
C659 C658 1.363 . S
C659 C665 1.363 . S
C660 C661 1.363 . S
C660 C665 1.379 . S
C660 N667 1.356 . S
C661 C660 1.363 . S
C661 C664 1.363 . S
N662 C664 1.356 . S
N662 H674 0.984 . S
N662 H675 0.985 . S
N663 C665 1.356 . S
N663 H668 0.984 . S
N663 H669 0.985 . S
C664 C658 1.379 . S
C664 C661 1.363 . S
C664 N662 1.356 . S
C665 C659 1.363 . S
C665 C660 1.379 . S
C665 N663 1.356 . S
N666 C658 1.356 . S
N666 H672 0.984 . S
N666 H673 0.984 . S
N667 C660 1.356 . S
N667 H670 0.984 . S
N667 H671 0.985 . S
H668 N663 0.984 . S
H669 N663 0.985 . S
H670 N667 0.984 . S
H671 N667 0.985 . S
H672 N666 0.984 . S
H673 N666 0.984 . S
H674 N662 0.984 . S
H675 N662 0.985 . S
C676 C677 1.363 . S
C676 C682 1.379 . S
C676 N684 1.356 . S
C677 C676 1.363 . S
C677 C683 1.363 . S
C678 C679 1.363 . S
C678 C683 1.379 . S
C678 N685 1.356 . S
C679 C678 1.363 . S
C679 C682 1.363 . S
N680 C682 1.356 . S
N680 H692 0.984 . S
N680 H693 0.985 . S
N681 C683 1.356 . S
N681 H686 0.984 . S
N681 H687 0.985 . S
C682 C676 1.379 . S
C682 C679 1.363 . S
C682 N680 1.356 . S
C683 C677 1.363 . S
C683 C678 1.379 . S
C683 N681 1.356 . S
N684 C676 1.356 . S
N684 H690 0.984 . S
N684 H691 0.984 . S
N685 C678 1.356 . S
N685 H688 0.984 . S
N685 H689 0.985 . S
H686 N681 0.984 . S
H687 N681 0.985 . S
H688 N685 0.984 . S
H689 N685 0.985 . S
H690 N684 0.984 . S
H691 N684 0.984 . S
H692 N680 0.984 . S
H693 N680 0.985 . S
C694 C695 1.363 . S
C694 C700 1.379 . S
C694 N702 1.356 . S
C695 C694 1.363 . S
C695 C701 1.363 . S
C696 C697 1.363 . S
C696 C701 1.379 . S
C696 N703 1.356 . S
C697 C696 1.363 . S
C697 C700 1.363 . S
N698 C700 1.355 . S
N698 H710 0.986 1_455 S
N698 H711 0.985 1_455 S
N699 C701 1.356 . S
N699 H704 0.984 . S
N699 H705 0.985 . S
C700 C694 1.379 . S
C700 C697 1.363 . S
C700 N698 1.355 . S
C701 C695 1.363 . S
C701 C696 1.379 . S
C701 N699 1.356 . S
N702 C694 1.356 . S
N702 H708 0.984 . S
N702 H709 0.984 . S
N703 C696 1.356 . S
N703 H706 0.984 . S
N703 H707 0.985 . S
H704 N699 0.984 . S
H705 N699 0.985 . S
H706 N703 0.984 . S
H707 N703 0.985 . S
H708 N702 0.984 . S
H709 N702 0.984 . S
H710 N698 0.986 1_655 S
H711 N698 0.985 1_655 S
C712 C713 1.363 . S
C712 C718 1.379 . S
C712 N720 1.356 . S
C713 C712 1.363 . S
C713 C719 1.363 . S
C714 C715 1.363 . S
C714 C719 1.379 . S
C714 N721 1.356 . S
C715 C714 1.363 . S
C715 C718 1.363 . S
N716 C718 1.356 . S
N716 H728 0.984 . S
N716 H729 0.985 . S
N717 C719 1.356 . S
N717 H722 0.984 . S
N717 H723 0.985 . S
C718 C712 1.379 . S
C718 C715 1.363 . S
C718 N716 1.356 . S
C719 C713 1.363 . S
C719 C714 1.379 . S
C719 N717 1.356 . S
N720 C712 1.356 . S
N720 H726 0.984 . S
N720 H727 0.984 . S
N721 C714 1.356 . S
N721 H724 0.984 . S
N721 H725 0.985 . S
H722 N717 0.984 . S
H723 N717 0.985 . S
H724 N721 0.984 . S
H725 N721 0.985 . S
H726 N720 0.984 . S
H727 N720 0.984 . S
H728 N716 0.984 . S
H729 N716 0.985 . S
C730 C731 1.363 . S
C730 C736 1.379 . S
C730 N738 1.356 . S
C731 C730 1.363 . S
C731 C737 1.380 . S
C732 C733 1.363 1_455 S
C732 C737 1.380 1_455 S
C732 N739 1.356 . S
C733 C732 1.363 1_655 S
C733 C736 1.363 . S
N734 C736 1.356 . S
N734 H746 0.984 . S
N734 H747 0.985 . S
N735 C737 1.342 1_455 S
N735 H740 0.984 . S
N735 H741 0.985 . S
C736 C730 1.379 . S
C736 C733 1.363 . S
C736 N734 1.356 . S
C737 C731 1.380 . S
C737 C732 1.380 1_655 S
C737 N735 1.342 1_655 S
N738 C730 1.356 . S
N738 H744 0.984 . S
N738 H745 0.984 . S
N739 C732 1.356 . S
N739 H742 0.984 . S
N739 H743 0.985 . S
H740 N735 0.984 . S
H741 N735 0.985 . S
H742 N739 0.984 . S
H743 N739 0.985 . S
H744 N738 0.984 . S
H745 N738 0.984 . S
H746 N734 0.984 . S
H747 N734 0.985 . S
C748 C749 1.363 . S
C748 C754 1.379 . S
C748 N756 1.356 . S
C749 C748 1.363 . S
C749 C755 1.363 . S
C750 C751 1.363 . S
C750 C755 1.379 . S
C750 N757 1.356 . S
C751 C750 1.363 . S
C751 C754 1.363 . S
N752 C754 1.356 . S
N752 H764 0.984 . S
N752 H765 0.985 . S
N753 C755 1.356 . S
N753 H758 0.984 . S
N753 H759 0.985 . S
C754 C748 1.379 . S
C754 C751 1.363 . S
C754 N752 1.356 . S
C755 C749 1.363 . S
C755 C750 1.379 . S
C755 N753 1.356 . S
N756 C748 1.356 . S
N756 H762 0.984 . S
N756 H763 0.984 . S
N757 C750 1.356 . S
N757 H760 0.984 . S
N757 H761 0.985 . S
H758 N753 0.984 . S
H759 N753 0.985 . S
H760 N757 0.984 . S
H761 N757 0.985 . S
H762 N756 0.984 . S
H763 N756 0.984 . S
H764 N752 0.984 . S
H765 N752 0.985 . S
C766 C767 1.363 . S
C766 C772 1.379 . S
C766 N774 1.356 . S
C767 C766 1.363 . S
C767 C773 1.363 . S
C768 C769 1.363 . S
C768 C773 1.379 . S
C768 N775 1.356 . S
C769 C768 1.363 . S
C769 C772 1.363 . S
N770 C772 1.356 . S
N770 H782 0.984 . S
N770 H783 0.985 . S
N771 C773 1.356 . S
N771 H776 0.984 . S
N771 H777 0.985 . S
C772 C766 1.379 . S
C772 C769 1.363 . S
C772 N770 1.356 . S
C773 C767 1.363 . S
C773 C768 1.379 . S
C773 N771 1.356 . S
N774 C766 1.356 . S
N774 H780 0.984 . S
N774 H781 0.984 . S
N775 C768 1.356 . S
N775 H778 0.984 . S
N775 H779 0.985 . S
H776 N771 0.984 . S
H777 N771 0.985 . S
H778 N775 0.984 . S
H779 N775 0.985 . S
H780 N774 0.984 . S
H781 N774 0.984 . S
H782 N770 0.984 . S
H783 N770 0.985 . S
C784 C785 1.386 1_556 S
C784 C790 1.376 1_556 S
C784 N792 1.356 . S
C785 C784 1.386 1_554 S
C785 C791 1.360 1_565 S
C786 C787 1.363 . S
C786 C791 1.379 1_565 S
C786 N793 1.356 . S
C787 C786 1.363 . S
C787 C790 1.367 . S
N788 C790 1.356 1_556 S
N788 H800 0.984 . S
N788 H801 0.985 1_556 S
N789 C791 1.356 . S
N789 H794 0.984 . S
N789 H795 0.985 . S
C790 C784 1.376 1_554 S
C790 C787 1.367 . S
C790 N788 1.356 1_554 S
C791 C785 1.360 1_545 S
C791 C786 1.379 1_545 S
C791 N789 1.356 . S
N792 C784 1.356 . S
N792 H798 0.984 . S
N792 H799 0.984 . S
N793 C786 1.356 . S
N793 H796 0.984 . S
N793 H797 0.985 1_565 S
H794 N789 0.984 . S
H795 N789 0.985 . S
H796 N793 0.984 . S
H797 N793 0.985 1_545 S
H798 N792 0.984 . S
H799 N792 0.984 . S
H800 N788 0.984 . S
H801 N788 0.985 1_554 S
C802 C803 1.363 . S
C802 C808 1.379 . S
C802 N810 1.356 . S
C803 C802 1.363 . S
C803 C809 1.363 . S
C804 C805 1.363 . S
C804 C809 1.379 . S
C804 N811 1.356 . S
C805 C804 1.363 . S
C805 C808 1.363 . S
N806 C808 1.356 . S
N806 H818 0.984 . S
N806 H819 0.985 . S
N807 C809 1.356 . S
N807 H812 0.984 . S
N807 H813 0.985 . S
C808 C802 1.379 . S
C808 C805 1.363 . S
C808 N806 1.356 . S
C809 C803 1.363 . S
C809 C804 1.379 . S
C809 N807 1.356 . S
N810 C802 1.356 . S
N810 H816 0.984 . S
N810 H817 0.984 . S
N811 C804 1.356 . S
N811 H814 0.984 . S
N811 H815 0.985 . S
H812 N807 0.984 . S
H813 N807 0.985 . S
H814 N811 0.984 . S
H815 N811 0.985 . S
H816 N810 0.984 . S
H817 N810 0.984 . S
H818 N806 0.984 . S
H819 N806 0.985 . S
C820 C821 1.363 . S
C820 C826 1.379 . S
C820 N828 1.356 . S
C821 C820 1.363 . S
C821 C827 1.363 . S
C822 C823 1.363 . S
C822 C827 1.379 . S
C822 N829 1.356 . S
C823 C822 1.363 . S
C823 C826 1.363 . S
N824 C826 1.356 . S
N824 H836 0.984 . S
N824 H837 0.985 . S
N825 C827 1.363 . S
N825 H830 0.981 1_545 S
N825 H831 0.981 1_545 S
C826 C820 1.379 . S
C826 C823 1.363 . S
C826 N824 1.356 . S
C827 C821 1.363 . S
C827 C822 1.379 . S
C827 N825 1.363 . S
N828 C820 1.356 . S
N828 H834 0.984 . S
N828 H835 0.984 . S
N829 C822 1.356 . S
N829 H832 0.984 . S
N829 H833 0.985 . S
H830 N825 0.981 1_565 S
H831 N825 0.981 1_565 S
H832 N829 0.984 . S
H833 N829 0.985 . S
H834 N828 0.984 . S
H835 N828 0.984 . S
H836 N824 0.984 . S
H837 N824 0.985 . S
C838 C839 1.363 . S
C838 C844 1.379 . S
C838 N846 1.356 . S
C839 C838 1.363 . S
C839 C845 1.363 . S
C840 C841 1.363 . S
C840 C845 1.379 . S
C840 N847 1.356 . S
C841 C840 1.363 . S
C841 C844 1.363 . S
N842 C844 1.356 . S
N842 H854 0.984 . S
N842 H855 0.985 . S
N843 C845 1.356 . S
N843 H848 0.984 . S
N843 H849 0.985 . S
C844 C838 1.379 . S
C844 C841 1.363 . S
C844 N842 1.356 . S
C845 C839 1.363 . S
C845 C840 1.379 . S
C845 N843 1.356 . S
N846 C838 1.356 . S
N846 H852 0.984 . S
N846 H853 0.984 . S
N847 C840 1.356 . S
N847 H850 0.984 . S
N847 H851 0.985 . S
H848 N843 0.984 . S
H849 N843 0.985 . S
H850 N847 0.984 . S
H851 N847 0.985 . S
H852 N846 0.984 . S
H853 N846 0.984 . S
H854 N842 0.984 . S
H855 N842 0.985 . S
C856 C857 1.363 . S
C856 C862 1.379 . S
C856 N864 1.356 . S
C857 C856 1.363 . S
C857 C863 1.363 . S
C858 C859 1.363 . S
C858 C863 1.379 . S
C858 N865 1.356 . S
C859 C858 1.363 . S
C859 C862 1.363 . S
N860 C862 1.356 . S
N860 H872 0.984 . S
N860 H873 0.985 . S
N861 C863 1.356 . S
N861 H866 0.984 . S
N861 H867 0.985 . S
C862 C856 1.379 . S
C862 C859 1.363 . S
C862 N860 1.356 . S
C863 C857 1.363 . S
C863 C858 1.379 . S
C863 N861 1.356 . S
N864 C856 1.356 . S
N864 H870 0.984 . S
N864 H871 0.984 . S
N865 C858 1.356 . S
N865 H868 0.984 . S
N865 H869 0.985 . S
H866 N861 0.984 . S
H867 N861 0.985 . S
H868 N865 0.984 . S
H869 N865 0.985 . S
H870 N864 0.984 . S
H871 N864 0.984 . S
H872 N860 0.984 . S
H873 N860 0.985 . S
C874 C875 1.363 . S
C874 C880 1.379 . S
C874 N882 1.356 . S
C875 C874 1.363 . S
C875 C881 1.363 . S
C876 C877 1.363 . S
C876 C881 1.379 . S
C876 N883 1.356 . S
C877 C876 1.363 . S
C877 C880 1.363 . S
N878 C880 1.356 . S
N878 H890 0.984 . S
N878 H891 0.985 . S
N879 C881 1.356 . S
N879 H884 0.984 . S
N879 H885 0.985 . S
C880 C874 1.379 . S
C880 C877 1.363 . S
C880 N878 1.356 . S
C881 C875 1.363 . S
C881 C876 1.379 . S
C881 N879 1.356 . S
N882 C874 1.356 . S
N882 H888 0.984 . S
N882 H889 0.984 . S
N883 C876 1.356 . S
N883 H886 0.984 . S
N883 H887 0.985 . S
H884 N879 0.984 . S
H885 N879 0.985 . S
H886 N883 0.984 . S
H887 N883 0.985 . S
H888 N882 0.984 . S
H889 N882 0.984 . S
H890 N878 0.984 . S
H891 N878 0.985 . S
C892 C893 1.363 . S
C892 C898 1.379 . S
C892 N900 1.356 . S
C893 C892 1.363 . S
C893 C899 1.363 . S
C894 C895 1.363 . S
C894 C899 1.379 . S
C894 N901 1.356 . S
C895 C894 1.363 . S
C895 C898 1.363 . S
N896 C898 1.356 . S
N896 H908 0.984 . S
N896 H909 0.985 . S
N897 C899 1.356 . S
N897 H902 0.984 . S
N897 H903 0.985 . S
C898 C892 1.379 . S
C898 C895 1.363 . S
C898 N896 1.356 . S
C899 C893 1.363 . S
C899 C894 1.379 . S
C899 N897 1.356 . S
N900 C892 1.356 . S
N900 H906 0.984 . S
N900 H907 0.984 . S
N901 C894 1.356 . S
N901 H904 0.984 . S
N901 H905 0.985 . S
H902 N897 0.984 . S
H903 N897 0.985 . S
H904 N901 0.984 . S
H905 N901 0.985 . S
H906 N900 0.984 . S
H907 N900 0.984 . S
H908 N896 0.984 . S
H909 N896 0.985 . S
C910 C911 1.363 . S
C910 C916 1.379 . S
C910 N918 1.356 . S
C911 C910 1.363 . S
C911 C917 1.363 . S
C912 C913 1.363 . S
C912 C917 1.379 . S
C912 N919 1.356 1_545 S
C913 C912 1.363 . S
C913 C916 1.363 . S
N914 C916 1.356 . S
N914 H926 0.984 . S
N914 H927 0.985 . S
N915 C917 1.347 1_565 S
N915 H920 0.980 1_565 S
N915 H921 0.998 . S
C916 C910 1.379 . S
C916 C913 1.363 . S
C916 N914 1.356 . S
C917 C911 1.363 . S
C917 C912 1.379 . S
C917 N915 1.347 1_545 S
N918 C910 1.356 . S
N918 H924 0.984 . S
N918 H925 0.984 . S
N919 C912 1.356 1_565 S
N919 H922 0.984 . S
N919 H923 0.985 . S
H920 N915 0.980 1_545 S
H921 N915 0.998 . S
H922 N919 0.984 . S
H923 N919 0.985 . S
H924 N918 0.984 . S
H925 N918 0.984 . S
H926 N914 0.984 . S
H927 N914 0.985 . S
C928 C929 1.363 . S
C928 C934 1.379 . S
C928 N936 1.356 . S
C929 C928 1.363 . S
C929 C935 1.363 . S
C930 C931 1.363 . S
C930 C935 1.379 . S
C930 N937 1.356 . S
C931 C930 1.363 . S
C931 C934 1.363 . S
N932 C934 1.356 . S
N932 H944 0.984 . S
N932 H945 0.985 . S
N933 C935 1.356 . S
N933 H938 0.984 . S
N933 H939 0.985 . S
C934 C928 1.379 . S
C934 C931 1.363 . S
C934 N932 1.356 . S
C935 C929 1.363 . S
C935 C930 1.379 . S
C935 N933 1.356 . S
N936 C928 1.356 . S
N936 H942 0.984 . S
N936 H943 0.984 . S
N937 C930 1.356 . S
N937 H940 0.984 . S
N937 H941 0.985 . S
H938 N933 0.984 . S
H939 N933 0.985 . S
H940 N937 0.984 . S
H941 N937 0.985 . S
H942 N936 0.984 . S
H943 N936 0.984 . S
H944 N932 0.984 . S
H945 N932 0.985 . S
C946 C947 1.363 . S
C946 C952 1.379 . S
C946 N954 1.356 . S
C947 C946 1.363 . S
C947 C953 1.363 . S
C948 C949 1.363 . S
C948 C953 1.379 . S
C948 N955 1.356 . S
C949 C948 1.363 . S
C949 C952 1.363 . S
N950 C952 1.356 . S
N950 H962 0.984 . S
N950 H963 0.985 . S
N951 C953 1.356 . S
N951 H956 0.984 . S
N951 H957 0.985 . S
C952 C946 1.379 . S
C952 C949 1.363 . S
C952 N950 1.356 . S
C953 C947 1.363 . S
C953 C948 1.379 . S
C953 N951 1.356 . S
N954 C946 1.356 . S
N954 H960 0.984 . S
N954 H961 0.984 . S
N955 C948 1.356 . S
N955 H958 0.984 . S
N955 H959 0.985 . S
H956 N951 0.984 . S
H957 N951 0.985 . S
H958 N955 0.984 . S
H959 N955 0.985 . S
H960 N954 0.984 . S
H961 N954 0.984 . S
H962 N950 0.984 . S
H963 N950 0.985 . S
C964 C965 1.363 . S
C964 C970 1.379 . S
C964 N972 1.356 . S
C965 C964 1.363 . S
C965 C971 1.363 . S
C966 C967 1.363 . S
C966 C971 1.379 . S
C966 N973 1.356 . S
C967 C966 1.363 . S
C967 C970 1.363 . S
N968 C970 1.356 . S
N968 H980 0.984 . S
N968 H981 0.985 . S
N969 C971 1.356 . S
N969 H974 0.984 . S
N969 H975 0.985 . S
C970 C964 1.379 . S
C970 C967 1.363 . S
C970 N968 1.356 . S
C971 C965 1.363 . S
C971 C966 1.379 . S
C971 N969 1.356 . S
N972 C964 1.356 . S
N972 H978 0.984 . S
N972 H979 0.984 . S
N973 C966 1.356 . S
N973 H976 0.984 . S
N973 H977 0.985 . S
H974 N969 0.984 . S
H975 N969 0.985 . S
H976 N973 0.984 . S
H977 N973 0.985 . S
H978 N972 0.984 . S
H979 N972 0.984 . S
H980 N968 0.984 . S
H981 N968 0.985 . S
C982 C983 1.363 1_655 S
C982 C988 1.379 . S
C982 N990 1.356 . S
C983 C982 1.363 1_455 S
C983 C989 1.363 . S
C984 C985 1.363 . S
C984 C989 1.379 . S
C984 N991 1.356 . S
C985 C984 1.363 . S
C985 C988 1.363 1_455 S
N986 C988 1.356 . S
N986 H998 0.984 . S
N986 H999 0.985 . S
N987 C989 1.356 . S
N987 H992 0.984 . S
N987 H993 0.985 . S
C988 C982 1.379 . S
C988 C985 1.363 1_655 S
C988 N986 1.356 . S
C989 C983 1.363 . S
C989 C984 1.379 . S
C989 N987 1.356 . S
N990 C982 1.356 . S
N990 H996 0.984 . S
N990 H997 0.984 . S
N991 C984 1.356 . S
N991 H994 0.984 . S
N991 H995 0.985 . S
H992 N987 0.984 . S
H993 N987 0.985 . S
H994 N991 0.984 . S
H995 N991 0.985 . S
H996 N990 0.984 . S
H997 N990 0.984 . S
H998 N986 0.984 . S
H999 N986 0.985 . S
C1000 C1001 1.363 . S
C1000 C1006 1.379 . S
C1000 N1008 1.356 . S
C1001 C1000 1.363 . S
C1001 C1007 1.363 . S
C1002 C1003 1.363 . S
C1002 C1007 1.379 . S
C1002 N1009 1.356 . S
C1003 C1002 1.363 . S
C1003 C1006 1.363 . S
N1004 C1006 1.356 . S
N1004 H1016 0.984 . S
N1004 H1017 0.985 . S
N1005 C1007 1.356 . S
N1005 H1010 0.984 . S
N1005 H1011 0.985 . S
C1006 C1000 1.379 . S
C1006 C1003 1.363 . S
C1006 N1004 1.356 . S
C1007 C1001 1.363 . S
C1007 C1002 1.379 . S
C1007 N1005 1.356 . S
N1008 C1000 1.356 . S
N1008 H1014 0.984 . S
N1008 H1015 0.984 . S
N1009 C1002 1.356 . S
N1009 H1012 0.984 . S
N1009 H1013 0.985 . S
H1010 N1005 0.984 . S
H1011 N1005 0.985 . S
H1012 N1009 0.984 . S
H1013 N1009 0.985 . S
H1014 N1008 0.984 . S
H1015 N1008 0.984 . S
H1016 N1004 0.984 . S
H1017 N1004 0.985 . S
C1018 C1019 1.363 . S
C1018 C1024 1.379 . S
C1018 N1026 1.356 . S
C1019 C1018 1.363 . S
C1019 C1025 1.363 . S
C1020 C1021 1.363 . S
C1020 C1025 1.379 . S
C1020 N1027 1.356 . S
C1021 C1020 1.363 . S
C1021 C1024 1.363 . S
N1022 C1024 1.356 . S
N1022 H1034 0.984 . S
N1022 H1035 0.985 . S
N1023 C1025 1.356 . S
N1023 H1028 0.984 . S
N1023 H1029 0.985 . S
C1024 C1018 1.379 . S
C1024 C1021 1.363 . S
C1024 N1022 1.356 . S
C1025 C1019 1.363 . S
C1025 C1020 1.379 . S
C1025 N1023 1.356 . S
N1026 C1018 1.356 . S
N1026 H1032 0.984 . S
N1026 H1033 0.984 . S
N1027 C1020 1.356 . S
N1027 H1030 0.984 . S
N1027 H1031 0.985 . S
H1028 N1023 0.984 . S
H1029 N1023 0.985 . S
H1030 N1027 0.984 . S
H1031 N1027 0.985 . S
H1032 N1026 0.984 . S
H1033 N1026 0.984 . S
H1034 N1022 0.984 . S
H1035 N1022 0.985 . S
C1036 C1037 1.363 . S
C1036 C1042 1.379 . S
C1036 N1044 1.356 . S
C1037 C1036 1.363 . S
C1037 C1043 1.363 . S
C1038 C1039 1.363 . S
C1038 C1043 1.379 . S
C1038 N1045 1.356 . S
C1039 C1038 1.363 . S
C1039 C1042 1.363 . S
N1040 C1042 1.356 . S
N1040 H1052 0.984 . S
N1040 H1053 0.985 . S
N1041 C1043 1.356 . S
N1041 H1046 0.984 . S
N1041 H1047 0.985 . S
C1042 C1036 1.379 . S
C1042 C1039 1.363 . S
C1042 N1040 1.356 . S
C1043 C1037 1.363 . S
C1043 C1038 1.379 . S
C1043 N1041 1.356 . S
N1044 C1036 1.356 . S
N1044 H1050 0.984 . S
N1044 H1051 0.984 . S
N1045 C1038 1.356 . S
N1045 H1048 0.984 . S
N1045 H1049 0.985 . S
H1046 N1041 0.984 . S
H1047 N1041 0.985 . S
H1048 N1045 0.984 . S
H1049 N1045 0.985 . S
H1050 N1044 0.984 . S
H1051 N1044 0.984 . S
H1052 N1040 0.984 . S
H1053 N1040 0.985 . S
C1054 C1055 1.363 1_655 S
C1054 C1060 1.379 . S
C1054 N1062 1.356 . S
C1055 C1054 1.363 1_455 S
C1055 C1061 1.363 . S
C1056 C1057 1.363 . S
C1056 C1061 1.379 . S
C1056 N1063 1.356 . S
C1057 C1056 1.363 . S
C1057 C1060 1.363 1_455 S
N1058 C1060 1.356 . S
N1058 H1070 0.984 . S
N1058 H1071 0.985 . S
N1059 C1061 1.356 . S
N1059 H1064 0.984 . S
N1059 H1065 0.985 1_556 S
C1060 C1054 1.379 . S
C1060 C1057 1.363 1_655 S
C1060 N1058 1.356 . S
C1061 C1055 1.363 . S
C1061 C1056 1.379 . S
C1061 N1059 1.356 . S
N1062 C1054 1.356 . S
N1062 H1068 0.984 . S
N1062 H1069 0.984 . S
N1063 C1056 1.356 . S
N1063 H1066 0.984 . S
N1063 H1067 0.985 . S
H1064 N1059 0.984 . S
H1065 N1059 0.985 1_554 S
H1066 N1063 0.984 . S
H1067 N1063 0.985 . S
H1068 N1062 0.984 . S
H1069 N1062 0.984 . S
H1070 N1058 0.984 . S
H1071 N1058 0.985 . S
C1072 C1073 1.363 . S
C1072 C1078 1.379 . S
C1072 N1080 1.356 . S
C1073 C1072 1.363 . S
C1073 C1079 1.363 . S
C1074 C1075 1.363 . S
C1074 C1079 1.379 . S
C1074 N1081 1.356 . S
C1075 C1074 1.363 . S
C1075 C1078 1.363 . S
N1076 C1078 1.356 . S
N1076 H1088 0.984 . S
N1076 H1089 0.985 . S
N1077 C1079 1.356 . S
N1077 H1082 0.984 . S
N1077 H1083 0.985 . S
C1078 C1072 1.379 . S
C1078 C1075 1.363 . S
C1078 N1076 1.356 . S
C1079 C1073 1.363 . S
C1079 C1074 1.379 . S
C1079 N1077 1.356 . S
N1080 C1072 1.356 . S
N1080 H1086 0.984 . S
N1080 H1087 0.984 . S
N1081 C1074 1.356 . S
N1081 H1084 0.984 . S
N1081 H1085 0.985 . S
H1082 N1077 0.984 . S
H1083 N1077 0.985 . S
H1084 N1081 0.984 . S
H1085 N1081 0.985 . S
H1086 N1080 0.984 . S
H1087 N1080 0.984 . S
H1088 N1076 0.984 . S
H1089 N1076 0.985 . S
C1090 C1091 1.363 . S
C1090 C1096 1.379 . S
C1090 N1098 1.354 1_556 S
C1091 C1090 1.363 . S
C1091 C1097 1.363 . S
C1092 C1093 1.363 . S
C1092 C1097 1.379 . S
C1092 N1099 1.356 . S
C1093 C1092 1.363 . S
C1093 C1096 1.363 . S
N1094 C1096 1.356 1_655 S
N1094 H1106 0.984 . S
N1094 H1107 0.985 . S
N1095 C1097 1.356 . S
N1095 H1100 0.984 . S
N1095 H1101 0.985 . S
C1096 C1090 1.379 . S
C1096 C1093 1.363 . S
C1096 N1094 1.356 1_455 S
C1097 C1091 1.363 . S
C1097 C1092 1.379 . S
C1097 N1095 1.356 . S
N1098 C1090 1.354 1_554 S
N1098 H1104 0.985 1_455 S
N1098 H1105 0.986 . S
N1099 C1092 1.356 . S
N1099 H1102 0.984 . S
N1099 H1103 0.985 . S
H1100 N1095 0.984 . S
H1101 N1095 0.985 . S
H1102 N1099 0.984 . S
H1103 N1099 0.985 . S
H1104 N1098 0.985 1_655 S
H1105 N1098 0.986 . S
H1106 N1094 0.984 . S
H1107 N1094 0.985 . S
C1108 C1109 1.363 . S
C1108 C1114 1.379 . S
C1108 N1116 1.356 . S
C1109 C1108 1.363 . S
C1109 C1115 1.363 . S
C1110 C1111 1.363 . S
C1110 C1115 1.379 . S
C1110 N1117 1.356 . S
C1111 C1110 1.363 . S
C1111 C1114 1.363 . S
N1112 C1114 1.356 . S
N1112 H1124 0.984 . S
N1112 H1125 0.985 . S
N1113 C1115 1.356 . S
N1113 H1118 0.984 . S
N1113 H1119 0.985 . S
C1114 C1108 1.379 . S
C1114 C1111 1.363 . S
C1114 N1112 1.356 . S
C1115 C1109 1.363 . S
C1115 C1110 1.379 . S
C1115 N1113 1.356 . S
N1116 C1108 1.356 . S
N1116 H1122 0.984 . S
N1116 H1123 0.984 . S
N1117 C1110 1.356 . S
N1117 H1120 0.984 . S
N1117 H1121 0.985 . S
H1118 N1113 0.984 . S
H1119 N1113 0.985 . S
H1120 N1117 0.984 . S
H1121 N1117 0.985 . S
H1122 N1116 0.984 . S
H1123 N1116 0.984 . S
H1124 N1112 0.984 . S
H1125 N1112 0.985 . S
C1126 C1127 1.363 . S
C1126 C1132 1.379 . S
C1126 N1134 1.356 . S
C1127 C1126 1.363 . S
C1127 C1133 1.363 . S
C1128 C1129 1.363 . S
C1128 C1133 1.379 . S
C1128 N1135 1.356 . S
C1129 C1128 1.363 . S
C1129 C1132 1.363 . S
N1130 C1132 1.356 . S
N1130 H1142 0.984 . S
N1130 H1143 0.985 . S
N1131 C1133 1.356 . S
N1131 H1136 0.984 . S
N1131 H1137 0.985 . S
C1132 C1126 1.379 . S
C1132 C1129 1.363 . S
C1132 N1130 1.356 . S
C1133 C1127 1.363 . S
C1133 C1128 1.379 . S
C1133 N1131 1.356 . S
N1134 C1126 1.356 . S
N1134 H1140 0.984 1_554 S
N1134 H1141 0.984 . S
N1135 C1128 1.356 . S
N1135 H1138 0.984 . S
N1135 H1139 0.985 . S
H1136 N1131 0.984 . S
H1137 N1131 0.985 . S
H1138 N1135 0.984 . S
H1139 N1135 0.985 . S
H1140 N1134 0.984 1_556 S
H1141 N1134 0.984 . S
H1142 N1130 0.984 . S
H1143 N1130 0.985 . S
C1144 C1145 1.363 . S
C1144 C1150 1.379 . S
C1144 N1152 1.356 . S
C1145 C1144 1.363 . S
C1145 C1151 1.363 . S
C1146 C1147 1.363 . S
C1146 C1151 1.379 . S
C1146 N1153 1.356 . S
C1147 C1146 1.363 . S
C1147 C1150 1.363 . S
N1148 C1150 1.356 . S
N1148 H1160 0.984 . S
N1148 H1161 0.985 . S
N1149 C1151 1.356 . S
N1149 H1154 0.984 . S
N1149 H1155 0.985 . S
C1150 C1144 1.379 . S
C1150 C1147 1.363 . S
C1150 N1148 1.356 . S
C1151 C1145 1.363 . S
C1151 C1146 1.379 . S
C1151 N1149 1.356 . S
N1152 C1144 1.356 . S
N1152 H1158 0.984 . S
N1152 H1159 0.984 . S
N1153 C1146 1.356 . S
N1153 H1156 0.984 . S
N1153 H1157 0.985 . S
H1154 N1149 0.984 . S
H1155 N1149 0.985 . S
H1156 N1153 0.984 . S
H1157 N1153 0.985 . S
H1158 N1152 0.984 . S
H1159 N1152 0.984 . S
H1160 N1148 0.984 . S
H1161 N1148 0.985 . S
C1162 C1163 1.363 . S
C1162 C1168 1.379 . S
C1162 N1170 1.356 . S
C1163 C1162 1.363 . S
C1163 C1169 1.363 . S
C1164 C1165 1.363 . S
C1164 C1169 1.379 . S
C1164 N1171 1.356 . S
C1165 C1164 1.363 . S
C1165 C1168 1.363 . S
N1166 C1168 1.356 . S
N1166 H1178 0.984 . S
N1166 H1179 0.985 . S
N1167 C1169 1.356 1_556 S
N1167 H1172 0.984 . S
N1167 H1173 0.985 . S
C1168 C1162 1.379 . S
C1168 C1165 1.363 . S
C1168 N1166 1.356 . S
C1169 C1163 1.363 . S
C1169 C1164 1.379 . S
C1169 N1167 1.356 1_554 S
N1170 C1162 1.356 . S
N1170 H1176 0.984 . S
N1170 H1177 0.984 . S
N1171 C1164 1.356 . S
N1171 H1174 0.984 . S
N1171 H1175 0.985 . S
H1172 N1167 0.984 . S
H1173 N1167 0.985 . S
H1174 N1171 0.984 . S
H1175 N1171 0.985 . S
H1176 N1170 0.984 . S
H1177 N1170 0.984 . S
H1178 N1166 0.984 . S
H1179 N1166 0.985 . S
C1180 C1181 1.363 . S
C1180 C1186 1.379 . S
C1180 N1188 1.356 . S
C1181 C1180 1.363 . S
C1181 C1187 1.363 . S
C1182 C1183 1.363 . S
C1182 C1187 1.379 . S
C1182 N1189 1.356 . S
C1183 C1182 1.363 . S
C1183 C1186 1.363 . S
N1184 C1186 1.356 . S
N1184 H1196 0.984 . S
N1184 H1197 0.985 . S
N1185 C1187 1.356 . S
N1185 H1190 0.984 . S
N1185 H1191 0.985 . S
C1186 C1180 1.379 . S
C1186 C1183 1.363 . S
C1186 N1184 1.356 . S
C1187 C1181 1.363 . S
C1187 C1182 1.379 . S
C1187 N1185 1.356 . S
N1188 C1180 1.356 . S
N1188 H1194 0.984 . S
N1188 H1195 0.984 . S
N1189 C1182 1.356 . S
N1189 H1192 0.984 . S
N1189 H1193 0.985 . S
H1190 N1185 0.984 . S
H1191 N1185 0.985 . S
H1192 N1189 0.984 . S
H1193 N1189 0.985 . S
H1194 N1188 0.984 . S
H1195 N1188 0.984 . S
H1196 N1184 0.984 . S
H1197 N1184 0.985 . S
C1198 C1199 1.363 . S
C1198 C1204 1.379 . S
C1198 N1206 1.356 . S
C1199 C1198 1.363 . S
C1199 C1205 1.363 . S
C1200 C1201 1.363 . S
C1200 C1205 1.379 . S
C1200 N1207 1.356 . S
C1201 C1200 1.363 . S
C1201 C1204 1.363 . S
N1202 C1204 1.356 . S
N1202 H1214 0.984 . S
N1202 H1215 0.985 . S
N1203 C1205 1.356 . S
N1203 H1208 0.984 . S
N1203 H1209 0.985 . S
C1204 C1198 1.379 . S
C1204 C1201 1.363 . S
C1204 N1202 1.356 . S
C1205 C1199 1.363 . S
C1205 C1200 1.379 . S
C1205 N1203 1.356 . S
N1206 C1198 1.356 . S
N1206 H1212 0.984 . S
N1206 H1213 0.984 . S
N1207 C1200 1.356 . S
N1207 H1210 0.984 . S
N1207 H1211 0.985 . S
H1208 N1203 0.984 . S
H1209 N1203 0.985 . S
H1210 N1207 0.984 . S
H1211 N1207 0.985 . S
H1212 N1206 0.984 . S
H1213 N1206 0.984 . S
H1214 N1202 0.984 . S
H1215 N1202 0.985 . S
C1216 C1217 1.363 . S
C1216 C1222 1.379 . S
C1216 N1224 1.356 . S
C1217 C1216 1.363 . S
C1217 C1223 1.363 . S
C1218 C1219 1.363 . S
C1218 C1223 1.379 . S
C1218 N1225 1.356 . S
C1219 C1218 1.363 . S
C1219 C1222 1.363 . S
N1220 C1222 1.356 . S
N1220 H1232 0.984 . S
N1220 H1233 0.985 . S
N1221 C1223 1.356 . S
N1221 H1226 0.984 . S
N1221 H1227 0.985 . S
C1222 C1216 1.379 . S
C1222 C1219 1.363 . S
C1222 N1220 1.356 . S
C1223 C1217 1.363 . S
C1223 C1218 1.379 . S
C1223 N1221 1.356 . S
N1224 C1216 1.356 . S
N1224 H1230 0.984 . S
N1224 H1231 0.984 . S
N1225 C1218 1.356 . S
N1225 H1228 0.984 . S
N1225 H1229 0.985 . S
H1226 N1221 0.984 . S
H1227 N1221 0.985 . S
H1228 N1225 0.984 . S
H1229 N1225 0.985 . S
H1230 N1224 0.984 . S
H1231 N1224 0.984 . S
H1232 N1220 0.984 . S
H1233 N1220 0.985 . S
C1234 C1235 1.363 . S
C1234 C1240 1.379 . S
C1234 N1242 1.356 . S
C1235 C1234 1.363 . S
C1235 C1241 1.363 . S
C1236 C1237 1.363 . S
C1236 C1241 1.379 . S
C1236 N1243 1.356 . S
C1237 C1236 1.363 . S
C1237 C1240 1.363 . S
N1238 C1240 1.356 . S
N1238 H1250 0.984 . S
N1238 H1251 0.985 . S
N1239 C1241 1.356 . S
N1239 H1244 0.984 . S
N1239 H1245 0.985 . S
C1240 C1234 1.379 . S
C1240 C1237 1.363 . S
C1240 N1238 1.356 . S
C1241 C1235 1.363 . S
C1241 C1236 1.379 . S
C1241 N1239 1.356 . S
N1242 C1234 1.356 . S
N1242 H1248 0.984 . S
N1242 H1249 0.984 . S
N1243 C1236 1.356 . S
N1243 H1246 0.984 . S
N1243 H1247 0.985 . S
H1244 N1239 0.984 . S
H1245 N1239 0.985 . S
H1246 N1243 0.984 . S
H1247 N1243 0.985 . S
H1248 N1242 0.984 . S
H1249 N1242 0.984 . S
H1250 N1238 0.984 . S
H1251 N1238 0.985 . S
C1252 C1253 1.363 1_554 S
C1252 C1258 1.379 . S
C1252 N1260 1.356 . S
C1253 C1252 1.363 1_556 S
C1253 C1259 1.363 . S
C1254 C1255 1.363 . S
C1254 C1259 1.379 . S
C1254 N1261 1.356 . S
C1255 C1254 1.363 . S
C1255 C1258 1.363 1_556 S
N1256 C1258 1.356 . S
N1256 H1268 0.984 . S
N1256 H1269 0.985 . S
N1257 C1259 1.356 . S
N1257 H1262 0.984 . S
N1257 H1263 0.985 . S
C1258 C1252 1.379 . S
C1258 C1255 1.363 1_554 S
C1258 N1256 1.356 . S
C1259 C1253 1.363 . S
C1259 C1254 1.379 . S
C1259 N1257 1.356 . S
N1260 C1252 1.356 . S
N1260 H1266 0.984 . S
N1260 H1267 0.984 . S
N1261 C1254 1.356 . S
N1261 H1264 0.984 . S
N1261 H1265 0.985 . S
H1262 N1257 0.984 . S
H1263 N1257 0.985 . S
H1264 N1261 0.984 . S
H1265 N1261 0.985 . S
H1266 N1260 0.984 . S
H1267 N1260 0.984 . S
H1268 N1256 0.984 . S
H1269 N1256 0.985 . S
C1270 C1271 1.363 . S
C1270 C1276 1.379 . S
C1270 N1278 1.356 . S
C1271 C1270 1.363 . S
C1271 C1277 1.363 . S
C1272 C1273 1.363 . S
C1272 C1277 1.379 . S
C1272 N1279 1.356 . S
C1273 C1272 1.363 . S
C1273 C1276 1.363 . S
N1274 C1276 1.356 . S
N1274 H1286 0.984 . S
N1274 H1287 0.985 . S
N1275 C1277 1.356 . S
N1275 H1280 0.984 . S
N1275 H1281 0.985 . S
C1276 C1270 1.379 . S
C1276 C1273 1.363 . S
C1276 N1274 1.356 . S
C1277 C1271 1.363 . S
C1277 C1272 1.379 . S
C1277 N1275 1.356 . S
N1278 C1270 1.356 . S
N1278 H1284 0.984 . S
N1278 H1285 0.984 . S
N1279 C1272 1.356 . S
N1279 H1282 0.984 . S
N1279 H1283 0.985 . S
H1280 N1275 0.984 . S
H1281 N1275 0.985 . S
H1282 N1279 0.984 . S
H1283 N1279 0.985 . S
H1284 N1278 0.984 . S
H1285 N1278 0.984 . S
H1286 N1274 0.984 . S
H1287 N1274 0.985 . S
C1288 C1289 1.363 . S
C1288 C1294 1.379 . S
C1288 N1296 1.356 . S
C1289 C1288 1.363 . S
C1289 C1295 1.363 . S
C1290 C1291 1.363 . S
C1290 C1295 1.379 . S
C1290 N1297 1.356 1_554 S
C1291 C1290 1.363 . S
C1291 C1294 1.363 . S
N1292 C1294 1.356 . S
N1292 H1304 0.984 . S
N1292 H1305 0.985 . S
N1293 C1295 1.356 1_455 S
N1293 H1298 0.984 . S
N1293 H1299 0.985 . S
C1294 C1288 1.379 . S
C1294 C1291 1.363 . S
C1294 N1292 1.356 . S
C1295 C1289 1.363 . S
C1295 C1290 1.379 . S
C1295 N1293 1.356 1_655 S
N1296 C1288 1.356 . S
N1296 H1302 0.984 . S
N1296 H1303 0.984 . S
N1297 C1290 1.356 1_556 S
N1297 H1300 0.984 . S
N1297 H1301 0.985 . S
H1298 N1293 0.984 . S
H1299 N1293 0.985 . S
H1300 N1297 0.984 . S
H1301 N1297 0.985 . S
H1302 N1296 0.984 . S
H1303 N1296 0.984 . S
H1304 N1292 0.984 . S
H1305 N1292 0.985 . S
C1306 C1307 1.363 . S
C1306 C1312 1.379 . S
C1306 N1314 1.356 . S
C1307 C1306 1.363 . S
C1307 C1313 1.363 . S
C1308 C1309 1.363 . S
C1308 C1313 1.379 . S
C1308 N1315 1.356 . S
C1309 C1308 1.363 . S
C1309 C1312 1.363 . S
N1310 C1312 1.356 . S
N1310 H1322 0.984 1_554 S
N1310 H1323 0.985 . S
N1311 C1313 1.356 1_545 S
N1311 H1316 0.984 . S
N1311 H1317 0.985 . S
C1312 C1306 1.379 . S
C1312 C1309 1.363 . S
C1312 N1310 1.356 . S
C1313 C1307 1.363 . S
C1313 C1308 1.379 . S
C1313 N1311 1.356 1_565 S
N1314 C1306 1.356 . S
N1314 H1320 0.984 1_554 S
N1314 H1321 0.984 . S
N1315 C1308 1.356 . S
N1315 H1318 0.984 . S
N1315 H1319 0.985 . S
H1316 N1311 0.984 . S
H1317 N1311 0.985 . S
H1318 N1315 0.984 . S
H1319 N1315 0.985 . S
H1320 N1314 0.984 1_556 S
H1321 N1314 0.984 . S
H1322 N1310 0.984 1_556 S
H1323 N1310 0.985 . S
C463 C314 1.820 . S
C461 C101 1.819 . S
C481 C327 1.280 . S
C479 C125 1.195 . S
C497 C139 1.914 . S
C499 C340 1.868 . S
C517 C353 1.706 1_455 S
C515 C82 1.751 1_545 S
C535 C361 1.548 . S
C533 C196 1.576 . S
C553 C374 1.731 . S
C551 C234 1.760 . S
C569 C220 1.016 . S
C571 C387 1.062 . S
C589 C400 1.654 1_565 S
C587 C173 1.675 . S
C605 C211 1.198 . S
C607 C418 1.157 . S
C625 C429 1.162 . S
C623 C182 1.141 . S
C641 C201 1.256 . S
C643 C413 1.395 . S
C661 C421 1.411 . S
C659 C239 1.312 . S
C677 C135 1.677 . S
C679 C444 1.673 . S
C695 C87 1.651 . S
C697 C434 1.793 . S
C713 C106 1.202 . S
C715 C439 1.370 . S
C731 C116 1.323 . S
C733 C442 1.330 . S
C749 C59 1.788 . S
C751 C351 1.753 . S
C767 C268 2.030 . S
C769 C343 2.030 . S
C787 C312 1.360 . S
C785 C291 1.339 1_564 S
C805 C317 1.447 . S
C803 C163 1.367 . S
C821 C78 1.966 . S
C823 C364 1.938 . S
C841 C403 1.303 . S
C839 C215 1.310 . S
C859 C356 1.660 . S
C857 C177 1.648 . S
C877 C382 1.697 . S
C875 C230 1.744 . S
C895 C392 1.820 . S
C893 C272 1.819 . S
C911 C296 1.195 . S
C913 C405 1.280 . S
C929 C158 1.914 . S
C931 C366 1.868 . S
C949 C379 1.706 . S
C947 C253 1.751 . S
C965 C63 1.576 . S
C967 C335 1.548 . S
C985 C348 1.731 1_455 S
C983 C6 1.760 . S
C1003 C309 1.062 . S
C1001 C30 1.016 . S
C1021 C322 1.654 . S
C1019 C40 1.677 . S
C1037 C21 1.199 . S
C1039 C431 1.158 . S
C1055 C49 1.141 . S
C1057 C416 1.163 . S
C1073 C68 1.256 . S
C1075 C426 1.395 . S
C1091 C11 1.312 . S
C1093 C408 1.411 . S
C1111 C457 1.673 . S
C1109 C154 1.677 . S
C1129 C447 1.793 . S
C1127 C258 1.651 . S
C1147 C452 1.370 . S
C1145 C277 1.202 . S
C1163 C287 1.323 . S
C1165 C455 1.331 . S
C1181 C192 1.788 . S
C1183 C377 1.753 . S
C1201 C369 2.030 . S
C1199 C97 2.030 . S
C1219 C390 1.360 . S
C1217 C120 1.356 . S
C1237 C395 1.447 . S
C1235 C144 1.367 . S
C1253 C249 1.966 . S
C1255 C338 1.938 . S
C1273 C325 1.303 . S
C1271 C25 1.310 . S
C1289 C44 1.648 . S
C1291 C330 1.658 1_554 S
C1309 C304 1.697 . S
C1307 C2 1.744 1_565 S
