# Generated by pormake.
# Topology anh, (6,3)-cn, num edge types: 1
# Building blocks:
#     Node 0, Type 0, BuildingBlock: VOLQOD_clean_sbu_1, # of connection points: 6
#     Node 1, Type 0, BuildingBlock: VOLQOD_clean_sbu_1, # of connection points: 6
#     Node 2, Type 0, BuildingBlock: VOLQOD_clean_sbu_1, # of connection points: 6
#     Node 3, Type 1, BuildingBlock: ESEHIV_clean_linker_0, # of connection points: 3
#     Node 4, Type 1, BuildingBlock: ESEHIV_clean_linker_0, # of connection points: 3
#     Node 5, Type 1, BuildingBlock: ESEHIV_clean_linker_0, # of connection points: 3
#     Node 6, Type 1, BuildingBlock: ESEHIV_clean_linker_0, # of connection points: 3
#     Node 7, Type 1, BuildingBlock: ESEHIV_clean_linker_0, # of connection points: 3
#     Node 8, Type 1, BuildingBlock: ESEHIV_clean_linker_0, # of connection points: 3
#     Edge 9, Type (0, 1), BuildingBlock: EZIPEK_clean_linker_0, # of connection points: 2
#     Edge 10, Type (0, 1), BuildingBlock: EZIPEK_clean_linker_0, # of connection points: 2
#     Edge 11, Type (0, 1), BuildingBlock: EZIPEK_clean_linker_0, # of connection points: 2
#     Edge 12, Type (0, 1), BuildingBlock: EZIPEK_clean_linker_0, # of connection points: 2
#     Edge 13, Type (0, 1), BuildingBlock: EZIPEK_clean_linker_0, # of connection points: 2
#     Edge 14, Type (0, 1), BuildingBlock: EZIPEK_clean_linker_0, # of connection points: 2
#     Edge 15, Type (0, 1), BuildingBlock: EZIPEK_clean_linker_0, # of connection points: 2
#     Edge 16, Type (0, 1), BuildingBlock: EZIPEK_clean_linker_0, # of connection points: 2
#     Edge 17, Type (0, 1), BuildingBlock: EZIPEK_clean_linker_0, # of connection points: 2
#     Edge 18, Type (0, 1), BuildingBlock: EZIPEK_clean_linker_0, # of connection points: 2
#     Edge 19, Type (0, 1), BuildingBlock: EZIPEK_clean_linker_0, # of connection points: 2
#     Edge 20, Type (0, 1), BuildingBlock: EZIPEK_clean_linker_0, # of connection points: 2
#     Edge 21, Type (0, 1), BuildingBlock: EZIPEK_clean_linker_0, # of connection points: 2
#     Edge 22, Type (0, 1), BuildingBlock: EZIPEK_clean_linker_0, # of connection points: 2
#     Edge 23, Type (0, 1), BuildingBlock: EZIPEK_clean_linker_0, # of connection points: 2
#     Edge 24, Type (0, 1), BuildingBlock: EZIPEK_clean_linker_0, # of connection points: 2
#     Edge 25, Type (0, 1), BuildingBlock: EZIPEK_clean_linker_0, # of connection points: 2
#     Edge 26, Type (0, 1), BuildingBlock: EZIPEK_clean_linker_0, # of connection points: 2
# Relax obj value: 0.166
# Max RMSD: 0.230
# Mean RMSD: 0.114
data_MOF--net-anh--node1-VOLQOD_clean_sbu_1--node2-ESEHIV_clean_linker_0--edge1-EZIPEK_clean_linker_0
_symmetry_space_group_name_H-M    P1
_symmetry_Int_Tables_number       1
_symmetry_cell_setting            triclinic
loop_
_symmetry_equiv_pos_as_xyz
'x, y, z'
_cell_length_a     19.981819
_cell_length_b     19.799298
_cell_length_c     42.080201
_cell_angle_alpha  90.100296
_cell_angle_beta   90.038343
_cell_angle_gamma 120.21168
loop_
_atom_site_label
_atom_site_type_symbol
_atom_site_fract_x
_atom_site_fract_y
_atom_site_fract_z
_atom_type_partial_charge
O0 O 0.94619 0.54434 0.2346 0.0
Zn1 Zn 0.9571 0.57689 0.18836 0.0
O2 O 0.97064 0.50201 0.16271 0.0
Zn3 Zn 0.88602 0.44105 0.13467 0.0
Zn4 Zn -0.02029 0.42792 0.18979 0.0
Zn5 Zn 0.05929 0.559 0.1363 0.0
O6 O 0.91561 0.45094 0.08823 0.0
O7 O 0.03391 0.555 0.08936 0.0
O8 O 0.86538 0.58707 0.17171 0.0
O9 O 0.8196 0.48598 0.13878 0.0
O10 O 0.818 0.33019 0.14813 0.0
O11 O 0.87559 0.32962 0.19315 0.0
O12 O 0.06242 0.40495 0.17297 0.0
O13 O 0.05764 0.68086 0.18939 0.0
O14 O 0.12 0.50698 0.14067 0.0
O15 O 0.12832 0.66716 0.15196 0.0
C16 C -0.02362 0.50941 0.24909 0.0
C17 C 0.97522 0.50373 0.07392 0.0
C18 C 0.81826 0.29795 0.17417 0.0
C19 C 0.81437 0.54102 0.1518 0.0
C20 C 0.11667 0.44746 0.15367 0.0
C21 C 0.12077 0.70661 0.17405 0.0
O22 O 0.00175 0.47057 0.23423 0.0
O23 O 0.47104 0.01508 0.43483 0.0
Zn24 Zn 0.44636 -0.00524 0.4813 0.0
O25 O 0.52752 0.98494 0.5025 0.0
Zn26 Zn 0.58894 0.07496 0.52863 0.0
Zn27 Zn 0.59374 0.97512 0.47132 0.0
Zn28 Zn 0.48009 0.8956 0.52997 0.0
O29 O 0.58372 0.04948 0.57508 0.0
O30 O 0.48559 0.92683 0.57569 0.0
O31 O 0.43136 0.08015 0.50144 0.0
O32 O 0.54387 0.14338 0.52687 0.0
O33 O 0.69617 0.14087 0.5124 0.0
O34 O 0.69599 0.0763 0.46909 0.0
O35 O 0.60802 0.88239 0.48137 0.0
O36 O 0.34825 0.89053 0.48098 0.0
O37 O 0.5348 0.83588 0.52477 0.0
O38 O 0.37048 0.82137 0.51663 0.0
C39 C 0.50603 -0.0088 0.41671 0.0
C40 C 0.53346 -0.01053 0.59008 0.0
C41 C 0.72842 0.13599 0.48717 0.0
C42 C 0.48097 0.1384 0.51773 0.0
C43 C 0.58097 0.83418 0.50443 0.0
C44 C 0.32742 0.82704 0.49578 0.0
O45 O 0.54809 0.96499 0.42768 0.0
O46 O 0.40625 0.452 0.75704 0.0
Zn47 Zn 0.37808 0.41915 0.80277 0.0
O48 O 0.46265 0.49529 0.83037 0.0
Zn49 Zn 0.42542 0.54397 0.85944 0.0
Zn50 Zn 0.54913 0.57765 0.80593 0.0
Zn51 Zn 0.49842 0.44025 0.85648 0.0
O52 O 0.4356 0.52489 0.90504 0.0
O53 O 0.47866 0.44151 0.9028 0.0
O54 O 0.27559 0.4151 0.81309 0.0
O55 O 0.31525 0.50344 0.85195 0.0
O56 O 0.47464 0.65755 0.85223 0.0
O57 O 0.5577 0.68338 0.81329 0.0
O58 O 0.65192 0.58332 0.81691 0.0
O59 O 0.36747 0.31076 0.80565 0.0
O60 O 0.61056 0.48708 0.8522 0.0
O61 O 0.45431 0.33141 0.8423 0.0
C62 C 0.46745 0.5045 0.74346 0.0
C63 C 0.45563 0.48059 0.91859 0.0
C64 C 0.52476 0.70596 0.83316 0.0
C65 C 0.26255 0.45427 0.83382 0.0
C66 C 0.6646 0.54172 0.83643 0.0
C67 C 0.403 0.28564 0.8228 0.0
O68 O 0.52658 0.55404 0.75922 0.0
H69 H 0.35485 0.9088 0.27787 0.0
H70 H 0.5946 0.08901 0.27481 0.0
H71 H 0.4636 0.00626 0.18805 0.0
C72 C 0.40526 0.95004 0.26442 0.0
C73 C 0.40121 0.9518 0.23117 0.0
C74 C 0.47508 -0.00093 0.28025 0.0
C75 C 0.54055 0.05066 0.26266 0.0
C76 C 0.53624 0.05417 0.22955 0.0
C77 C 0.46657 0.00462 0.21374 0.0
H78 H 0.52079 0.61463 0.59608 0.0
H79 H 0.43981 0.3708 0.6094 0.0
H80 H 0.53293 0.47828 0.51884 0.0
C81 C 0.50888 0.55882 0.58643 0.0
C82 C 0.52596 0.55306 0.55448 0.0
C83 C 0.47998 0.49368 0.60638 0.0
C84 C 0.46303 0.42126 0.59388 0.0
C85 C 0.48298 0.41509 0.56242 0.0
C86 C 0.5159 0.48183 0.54296 0.0
H87 H 0.87904 0.53127 0.93275 0.0
H88 H 0.06699 0.48375 0.93037 0.0
H89 H 0.9682 0.50686 0.84308 0.0
C90 C 0.91983 0.52149 0.91942 0.0
C91 C 0.91816 0.52158 0.88602 0.0
C92 C 0.97369 0.50822 0.93563 0.0
C93 C 0.02549 0.49441 0.91808 0.0
C94 C 0.02316 0.49334 0.88469 0.0
C95 C 0.96997 0.50763 0.86885 0.0
H96 H 0.9155 0.38615 0.38659 0.0
H97 H 0.09926 0.62569 0.3927 0.0
H98 H 0.02436 0.48224 0.47662 0.0
C99 C 0.95835 0.43506 0.40051 0.0
C100 C 0.96376 0.42646 0.43329 0.0
C101 C 0.00673 0.50686 0.38572 0.0
C102 C 0.06095 0.57023 0.40404 0.0
C103 C 0.06831 0.56104 0.43669 0.0
C104 C 0.01936 0.48919 0.45133 0.0
H105 H 0.47162 0.0981 0.72524 0.0
H106 H 0.52645 0.91475 0.73384 0.0
H107 H 0.46799 0.0003 0.81701 0.0
C108 C 0.47941 0.05762 0.73992 0.0
C109 C 0.46638 0.05483 0.77282 0.0
C110 C 0.50035 0.00656 0.72582 0.0
C111 C 0.5104 0.95424 0.74475 0.0
C112 C 0.50012 0.95278 0.77768 0.0
C113 C 0.47729 0.00245 0.79156 0.0
H114 H 0.32981 0.41 0.05918 0.0
H115 H 0.57654 0.52858 0.05819 0.0
H116 H 0.45604 0.47563 0.14773 0.0
C117 C 0.38399 0.43519 0.07225 0.0
C118 C 0.3848 0.44567 0.10533 0.0
C119 C 0.45308 0.46837 0.05535 0.0
C120 C 0.52309 0.50315 0.0717 0.0
C121 C 0.52475 0.4987 0.105 0.0
C122 C 0.45523 0.47315 0.12202 0.0
C123 C 0.19967 0.44913 0.11048 0.0
C124 C 0.17422 0.42657 0.14202 0.0
C125 C 0.27986 0.39826 0.14859 0.0
C126 C 0.31424 0.44016 0.12008 0.0
N127 N 0.31507 0.53215 0.08168 0.0
N128 N 0.19682 0.38476 0.19307 0.0
C129 C 0.27667 0.47374 0.10329 0.0
C130 C 0.2157 0.40182 0.16183 0.0
N131 N 0.15129 0.44951 0.08766 0.0
N132 N 0.30591 0.35345 0.16234 0.0
H133 H 0.15082 0.38668 0.20372 0.0
H134 H 0.23068 0.37403 0.20883 0.0
H135 H 0.34952 0.34615 0.15226 0.0
H136 H 0.2785 0.31735 0.18175 0.0
H137 H 0.16853 0.46343 0.06401 0.0
H138 H 0.09236 0.42734 0.09185 0.0
H139 H 0.28875 0.55965 0.07033 0.0
H140 H 0.37484 0.55954 0.07845 0.0
C141 C 0.86779 0.22495 0.47188 0.0
C142 C 0.79067 0.20974 0.47383 0.0
C143 C 0.83043 0.34033 0.4536 0.0
C144 C 0.9061 0.35321 0.44889 0.0
N145 N -0.00326 0.3067 0.45012 0.0
N146 N 0.69485 0.24561 0.46036 0.0
C147 C 0.925 0.29527 0.45717 0.0
C148 C 0.77092 0.26544 0.46301 0.0
N149 N 0.88628 0.17298 0.48463 0.0
N150 N 0.81579 0.40032 0.44974 0.0
H151 H 0.64869 0.19081 0.46647 0.0
H152 H 0.677 0.28082 0.44919 0.0
H153 H 0.858 0.45639 0.4428 0.0
H154 H 0.76377 0.39659 0.45628 0.0
H155 H 0.94277 0.18396 0.48687 0.0
H156 H 0.84499 0.12048 0.49496 0.0
H157 H 0.01177 0.26369 0.45251 0.0
H158 H 0.04021 0.35813 0.43988 0.0
C159 C 0.46755 0.79329 0.83616 0.0
C160 C 0.53264 0.7849 0.82962 0.0
C161 C 0.58791 0.90599 0.79862 0.0
C162 C 0.51338 0.89876 0.79759 0.0
N163 N 0.37845 0.82769 0.8132 0.0
N164 N 0.66388 0.84446 0.81078 0.0
C165 C 0.45214 0.84067 0.81597 0.0
C166 C 0.59607 0.84519 0.8128 0.0
N167 N 0.42228 0.7591 0.86217 0.0
N168 N 0.65063 0.97165 0.78687 0.0
H169 H 0.67446 0.80705 0.82458 0.0
H170 H 0.70893 0.88024 0.79555 0.0
H171 H 0.64666 0.01816 0.77738 0.0
H172 H 0.70737 0.98334 0.78904 0.0
H173 H 0.37635 0.76736 0.86835 0.0
H174 H 0.43845 0.73403 0.88017 0.0
H175 H 0.33126 0.78076 0.82422 0.0
H176 H 0.36317 0.85832 0.79748 0.0
C177 C 0.70345 0.57116 0.15978 0.0
C178 C 0.74861 0.55008 0.14036 0.0
C179 C 0.64088 0.4837 0.10422 0.0
C180 C 0.59888 0.51375 0.12001 0.0
N181 N 0.6029 0.60585 0.15906 0.0
N182 N 0.76856 0.52205 0.0862 0.0
C183 C 0.63357 0.56351 0.14684 0.0
C184 C 0.72027 0.51911 0.10977 0.0
N185 N 0.72453 0.59578 0.19033 0.0
N186 N 0.60531 0.42015 0.08461 0.0
H187 H 0.82874 0.55305 0.0888 0.0
H188 H 0.74852 0.50151 0.06327 0.0
H189 H 0.54519 0.38688 0.08231 0.0
H190 H 0.63556 0.39586 0.07394 0.0
H191 H 0.68868 0.60412 0.20587 0.0
H192 H 0.77471 0.60263 0.20081 0.0
H193 H 0.63002 0.64712 0.17707 0.0
H194 H 0.5555 0.6061 0.14885 0.0
C195 C 0.18403 0.74564 0.48623 0.0
C196 C 0.25907 0.75493 0.48384 0.0
C197 C 0.20732 0.63372 0.45268 0.0
C198 C 0.13256 0.62493 0.45484 0.0
N199 N 0.04563 0.66412 0.47632 0.0
N200 N 0.34312 0.70657 0.4669 0.0
C201 C 0.11965 0.67842 0.47251 0.0
C202 C 0.27085 0.69824 0.46789 0.0
N203 N 0.17497 0.80191 0.50121 0.0
N204 N 0.21777 0.58168 0.43492 0.0
H205 H 0.39346 0.75701 0.47393 0.0
H206 H 0.35361 0.66224 0.46014 0.0
H207 H 0.17205 0.53076 0.42525 0.0
H208 H 0.27146 0.58957 0.42846 0.0
H209 H 0.12392 0.80382 0.50117 0.0
H210 H 0.22013 0.84924 0.51308 0.0
H211 H 0.03042 0.69641 0.49106 0.0
H212 H -0.00228 0.61645 0.4659 0.0
C213 C 0.45266 0.19345 0.83113 0.0
C214 C 0.39748 0.20816 0.81634 0.0
C215 C 0.37023 0.10205 0.77872 0.0
C216 C 0.44088 0.10627 0.78797 0.0
N217 N 0.55602 0.16773 0.82093 0.0
N218 N 0.28893 0.16082 0.78028 0.0
C219 C 0.48392 0.15504 0.81371 0.0
C220 C 0.35152 0.15767 0.7913 0.0
N221 N 0.47306 0.21332 0.86215 0.0
N222 N 0.31939 0.04267 0.75941 0.0
H223 H 0.26417 0.18798 0.79297 0.0
H224 H 0.26079 0.13508 0.75903 0.0
H225 H 0.32933 -0.00127 0.7513 0.0
H226 H 0.26424 0.03239 0.75392 0.0
H227 H 0.51026 0.19948 0.87418 0.0
H228 H 0.44393 0.23276 0.87676 0.0
H229 H 0.59108 0.20811 0.83815 0.0
H230 H 0.5839 0.14488 0.8075 0.0
C231 C 0.6408 0.7656 0.53122 0.0
C232 C 0.59386 0.76732 0.50649 0.0
C233 C 0.51318 0.62548 0.50757 0.0
C234 C 0.55692 0.62346 0.53385 0.0
N235 N 0.67709 0.68693 0.56309 0.0
N236 N 0.50805 0.70036 0.46301 0.0
C237 C 0.62622 0.6922 0.543 0.0
C238 C 0.53851 0.69735 0.49163 0.0
N239 N 0.69633 0.83418 0.5444 0.0
N240 N 0.44401 0.56135 0.49962 0.0
H241 H 0.52554 0.75316 0.45136 0.0
H242 H 0.47222 0.65071 0.44961 0.0
H243 H 0.42078 0.50835 0.51158 0.0
H244 H 0.40628 0.56278 0.48289 0.0
H245 H 0.72664 0.83728 0.56501 0.0
H246 H 0.70973 0.88833 0.53497 0.0
H247 H 0.73113 0.73425 0.5689 0.0
H248 H 0.66798 0.63337 0.57151 0.0
C249 C 0.80013 0.61286 0.85801 0.0
C250 C 0.74182 0.55008 0.84015 0.0
C251 C 0.80102 0.47051 0.85089 0.0
C252 C 0.85992 0.53316 0.86875 0.0
N253 N 0.92735 0.67024 0.88239 0.0
N254 N 0.69985 0.43052 0.81128 0.0
C255 C 0.86339 0.60661 0.87005 0.0
C256 C 0.74739 0.48299 0.83362 0.0
N257 N 0.79285 0.67629 0.8649 0.0
N258 N 0.79292 0.39772 0.85209 0.0
H259 H 0.66026 0.43909 0.79823 0.0
H260 H 0.7052 0.38348 0.80349 0.0
H261 H 0.82898 0.38486 0.86549 0.0
H262 H 0.74595 0.34828 0.84222 0.0
H263 H 0.82826 0.7195 0.88109 0.0
H264 H 0.74863 0.68364 0.85549 0.0
H265 H 0.93625 0.72673 0.88137 0.0
H266 H 0.97486 0.66763 0.89116 0.0
C267 C 0.206 0.84898 0.18835 0.0
C268 C 0.19243 0.77148 0.18789 0.0
C269 C 0.32004 0.81562 0.21142 0.0
C270 C 0.33082 0.89163 0.21464 0.0
N271 N 0.28274 0.98087 0.20939 0.0
N272 N 0.22871 0.67788 0.20554 0.0
C273 C 0.27345 0.90857 0.20393 0.0
C274 C 0.24738 0.75391 0.20115 0.0
N275 N 0.15551 0.86567 0.17324 0.0
N276 N 0.37981 0.80259 0.21767 0.0
H277 H 0.17523 0.63004 0.19935 0.0
H278 H 0.26317 0.66194 0.2184 0.0
H279 H 0.43413 0.84625 0.22551 0.0
H280 H 0.37794 0.7503 0.21226 0.0
H281 H 0.16573 0.92217 0.16993 0.0
H282 H 0.10542 0.82291 0.16196 0.0
H283 H 0.2397 -0.00527 0.20521 0.0
H284 H 0.33228 0.02609 0.22005 0.0
C285 C 0.43972 0.23991 0.50966 0.0
C286 C 0.46535 0.19973 0.5297 0.0
C287 C 0.50747 0.30323 0.56926 0.0
C288 C 0.47526 0.34009 0.551 0.0
N289 N 0.39013 0.32908 0.50793 0.0
N290 N 0.49433 0.17946 0.58346 0.0
C291 C 0.43486 0.30402 0.5224 0.0
C292 C 0.48918 0.22677 0.56119 0.0
N293 N 0.42378 0.22024 0.47834 0.0
N294 N 0.55942 0.34234 0.59304 0.0
H295 H 0.4772 0.12117 0.57881 0.0
H296 H 0.50658 0.19555 0.60731 0.0
H297 H 0.58093 0.40137 0.59783 0.0
H298 H 0.5883 0.31861 0.60519 0.0
H299 H 0.41268 0.25348 0.46229 0.0
H300 H 0.4281 0.17501 0.46776 0.0
H301 H 0.35471 0.30042 0.48847 0.0
H302 H 0.38178 0.3728 0.51756 0.0
C303 C 0.12663 0.38929 0.85402 0.0
C304 C 0.18706 0.45017 0.83639 0.0
C305 C 0.13606 0.53687 0.8477 0.0
C306 C 0.07629 0.47672 0.86606 0.0
N307 N 0.00153 0.33984 0.87939 0.0
N308 N 0.2362 0.57108 0.80806 0.0
C309 C 0.06718 0.40077 0.86679 0.0
C310 C 0.18651 0.52006 0.83018 0.0
N311 N 0.12863 0.32256 0.86002 0.0
N312 N 0.14796 0.61118 0.84866 0.0
H313 H 0.27361 0.55922 0.79503 0.0
H314 H 0.23492 0.62047 0.80049 0.0
H315 H 0.1137 0.62671 0.86192 0.0
H316 H 0.19577 0.65898 0.83847 0.0
H317 H 0.09182 0.27997 0.87603 0.0
H318 H 0.16983 0.31162 0.84982 0.0
H319 H -0.01151 0.28194 0.87811 0.0
H320 H 0.95666 0.34635 0.88864 0.0
C321 C 0.73317 0.15704 0.18935 0.0
C322 C 0.74395 0.23311 0.18595 0.0
C323 C 0.61583 0.18995 0.20904 0.0
C324 C 0.60459 0.11363 0.21191 0.0
N325 N 0.64515 0.02001 0.20154 0.0
N326 N 0.69506 0.32257 0.1901 0.0
C327 C 0.66113 0.09578 0.20101 0.0
C328 C 0.68481 0.24953 0.19486 0.0
N329 N 0.79246 0.14411 0.18199 0.0
N330 N 0.56182 0.20603 0.22126 0.0
H331 H 0.74754 0.37063 0.18328 0.0
H332 H 0.65084 0.33563 0.19165 0.0
H333 H 0.50887 0.16322 0.2305 0.0
H334 H 0.57028 0.26206 0.22384 0.0
H335 H 0.79208 0.09247 0.18693 0.0
H336 H 0.84458 0.18706 0.17218 0.0
H337 H 0.68042 0.00114 0.19144 0.0
H338 H 0.59333 0.97424 0.21037 0.0
C339 C 0.96155 0.43783 0.02106 0.0
C340 C 0.97601 0.5054 0.03851 0.0
C341 C -0.00217 0.57726 0.98846 0.0
C342 C 0.97488 0.50738 0.9711 0.0
N343 N 0.92033 0.36745 0.97113 0.0
N344 N -0.00756 0.63489 0.03851 0.0
C345 C 0.95264 0.43655 0.98748 0.0
C346 C -0.0099 0.57404 0.02214 0.0
N347 N 0.95942 0.37591 0.03635 0.0
N348 N 0.02921 0.64718 0.97291 0.0
H349 H -0.01535 0.63411 0.06303 0.0
H350 H -0.00566 0.68282 0.02742 0.0
H351 H 0.0367 0.65213 0.94832 0.0
H352 H 0.05445 0.70085 0.98463 0.0
H353 H 0.95745 0.3288 0.02441 0.0
H354 H 0.96735 0.37496 0.06079 0.0
H355 H 0.89552 0.31317 0.98224 0.0
H356 H 0.91153 0.36373 0.94661 0.0
C357 C 0.47047 0.92339 0.36382 0.0
C358 C 0.4966 -0.00716 0.38189 0.0
C359 C 0.49658 0.06253 0.33389 0.0
C360 C 0.48042 -0.00396 0.31535 0.0
N361 N 0.46698 0.86791 0.31218 0.0
N362 N 0.54935 0.13268 0.38314 0.0
C363 C 0.4715 0.92765 0.33016 0.0
C364 C 0.51364 0.06368 0.3667 0.0
N365 N 0.44167 0.85283 0.37871 0.0
N366 N 0.49353 0.12367 0.32039 0.0
H367 H 0.56537 0.13666 0.40697 0.0
H368 H 0.57016 0.18692 0.37233 0.0
H369 H 0.47963 0.12433 0.29654 0.0
H370 H 0.49725 0.17009 0.33353 0.0
H371 H 0.41469 0.79969 0.36657 0.0
H372 H 0.43727 0.84662 0.40336 0.0
H373 H 0.46847 0.82034 0.32192 0.0
H374 H 0.46937 0.86935 0.28742 0.0
C375 C 0.41529 0.51152 0.6898 0.0
C376 C 0.47158 0.50535 0.70828 0.0
C377 C 0.54002 0.50745 0.65976 0.0
C378 C 0.47852 0.503 0.64131 0.0
N379 N 0.35367 0.49333 0.63824 0.0
N380 N 0.57898 0.48163 0.71052 0.0
C381 C 0.41495 0.50305 0.65617 0.0
C382 C 0.53192 0.49937 0.6932 0.0
N383 N 0.3642 0.52847 0.70423 0.0
N384 N 0.60695 0.52091 0.64536 0.0
H385 H 0.57339 0.47202 0.73498 0.0
H386 H 0.61837 0.46838 0.70018 0.0
H387 H 0.61564 0.52838 0.62088 0.0
H388 H 0.65657 0.53257 0.65795 0.0
H389 H 0.32695 0.54129 0.69176 0.0
H390 H 0.36388 0.53687 0.7287 0.0
H391 H 0.30183 0.48412 0.64797 0.0
H392 H 0.35271 0.48909 0.61351 0.0
C393 C 0.45358 0.9794 0.63757 0.0
C394 C 0.52582 -0.00482 0.62479 0.0
C395 C 0.58399 0.03087 0.67784 0.0
C396 C 0.50965 0.00551 0.69092 0.0
N397 N 0.37099 0.94072 0.68384 0.0
N398 N 0.65698 0.02361 0.63335 0.0
C399 C 0.44359 0.9756 0.67096 0.0
C400 C 0.5905 0.01783 0.64507 0.0
N401 N 0.39543 0.97139 0.61793 0.0
N402 N 0.64845 0.06895 0.69658 0.0
H403 H 0.66332 0.01262 0.60962 0.0
H404 H 0.70306 0.03202 0.64769 0.0
H405 H 0.64584 0.0802 0.72065 0.0
H406 H 0.70465 0.09566 0.68767 0.0
H407 H 0.34481 0.96812 0.6263 0.0
H408 H 0.40076 0.97628 0.59328 0.0
H409 H 0.32069 0.91058 0.67029 0.0
H410 H 0.36091 0.93511 0.70825 0.0
C411 C 0.49317 0.54705 0.9714 0.0
C412 C 0.4547 0.47676 0.95354 0.0
C413 C 0.42233 0.40051 0.00251 0.0
C414 C 0.45254 0.47075 0.02029 0.0
N415 N 0.50134 0.60996 0.0216 0.0
N416 N 0.36872 0.33672 0.95223 0.0
C417 C 0.48336 0.54385 0.00473 0.0
C418 C 0.41535 0.40331 0.96909 0.0
N419 N 0.54214 0.61641 0.95684 0.0
N420 N 0.40259 0.33162 0.01737 0.0
H421 H 0.35977 0.3365 0.92781 0.0
H422 H 0.33282 0.28294 0.96296 0.0
H423 H 0.40799 0.32741 0.04184 0.0
H424 H 0.3878 0.28023 0.00508 0.0
H425 H 0.57735 0.66781 0.96938 0.0
H426 H 0.55416 0.62113 0.93257 0.0
H427 H 0.51629 0.66306 0.01082 0.0
H428 H 0.49406 0.61019 0.04612 0.0
C429 C 0.05864 0.53983 0.29781 0.0
C430 C -0.01496 0.51587 0.28414 0.0
C431 C 0.93082 0.50329 0.33745 0.0
C432 C 0.00097 0.51456 0.35083 0.0
N433 N 0.12771 0.52973 0.34297 0.0
N434 N 0.84736 0.46237 0.29123 0.0
C435 C 0.06406 0.52937 0.33083 0.0
C436 C 0.92001 0.49467 0.304 0.0
N437 N 0.12382 0.57486 0.27946 0.0
N438 N 0.87517 0.50234 0.35661 0.0
H439 H 0.83624 0.45246 0.26695 0.0
H440 H 0.79731 0.43842 0.305 0.0
H441 H 0.88184 0.51019 0.38117 0.0
H442 H 0.82612 0.50175 0.34782 0.0
H443 H 0.17958 0.60013 0.28886 0.0
H444 H 0.12258 0.58646 0.25537 0.0
H445 H 0.17158 0.53228 0.32873 0.0
H446 H 0.13323 0.51963 0.36686 0.0
loop_
_geom_bond_atom_site_label_1
_geom_bond_atom_site_label_2
_geom_bond_distance
_geom_bond_site_symmetry_2
_ccdc_geom_bond_type
O0 Zn1 1.953 . S
O0 C16 1.225 1_655 S
Zn1 O0 1.953 . S
Zn1 O2 1.949 1_655 S
Zn1 O8 1.919 . S
Zn1 O13 1.924 1_655 S
O2 Zn1 1.949 1_455 S
O2 Zn3 1.923 1_455 S
O2 Zn4 1.950 . S
O2 Zn5 1.945 . S
Zn3 O2 1.923 1_655 S
Zn3 O6 1.933 . S
Zn3 O9 1.941 . S
Zn3 O10 1.965 . S
Zn4 O2 1.950 . S
Zn4 O11 1.938 1_455 S
Zn4 O12 1.906 . S
Zn4 O22 1.953 . S
Zn5 O2 1.945 . S
Zn5 O7 1.932 . S
Zn5 O14 1.977 . S
Zn5 O15 1.910 . S
O6 Zn3 1.933 . S
O6 C17 1.226 1_655 S
O7 Zn5 1.932 . S
O7 C17 1.307 . S
O8 Zn1 1.919 . S
O8 C19 1.253 . S
O9 Zn3 1.941 . S
O9 C19 1.283 . S
O10 Zn3 1.965 . S
O10 C18 1.303 . S
O11 Zn4 1.938 1_655 S
O11 C18 1.247 . S
O12 Zn4 1.906 . S
O12 C20 1.304 . S
O13 Zn1 1.924 1_455 S
O13 C21 1.311 . S
O14 Zn5 1.977 . S
O14 C20 1.272 . S
O15 Zn5 1.910 . S
O15 C21 1.231 . S
C16 O0 1.225 1_455 S
C16 O22 1.298 . S
C17 O6 1.226 1_455 S
C17 O7 1.307 . S
C18 O10 1.303 . S
C18 O11 1.247 . S
C19 O8 1.253 . S
C19 O9 1.283 . S
C20 O12 1.304 . S
C20 O14 1.272 . S
C21 O13 1.311 . S
C21 O15 1.231 . S
O22 Zn4 1.953 . S
O22 C16 1.298 . S
O23 Zn24 1.953 . S
O23 C39 1.225 . S
Zn24 O23 1.953 . S
Zn24 O25 1.949 . S
Zn24 O31 1.919 . S
Zn24 O36 1.924 1_545 S
O25 Zn24 1.949 . S
O25 Zn26 1.923 . S
O25 Zn27 1.950 1_545 S
O25 Zn28 1.945 1_545 S
Zn26 O25 1.923 . S
Zn26 O29 1.933 . S
Zn26 O32 1.941 . S
Zn26 O33 1.965 . S
Zn27 O25 1.950 1_565 S
Zn27 O34 1.938 1_565 S
Zn27 O35 1.906 . S
Zn27 O45 1.953 . S
Zn28 O25 1.945 1_565 S
Zn28 O30 1.932 . S
Zn28 O37 1.977 . S
Zn28 O38 1.910 . S
O29 Zn26 1.933 . S
O29 C40 1.226 . S
O30 Zn28 1.932 . S
O30 C40 1.307 1_565 S
O31 Zn24 1.919 . S
O31 C42 1.253 . S
O32 Zn26 1.941 . S
O32 C42 1.283 . S
O33 Zn26 1.965 . S
O33 C41 1.303 . S
O34 Zn27 1.938 1_545 S
O34 C41 1.247 . S
O35 Zn27 1.906 . S
O35 C43 1.304 . S
O36 Zn24 1.924 1_565 S
O36 C44 1.311 . S
O37 Zn28 1.977 . S
O37 C43 1.272 . S
O38 Zn28 1.910 . S
O38 C44 1.231 . S
C39 O23 1.225 . S
C39 O45 1.298 1_545 S
C40 O29 1.226 . S
C40 O30 1.307 1_545 S
C41 O33 1.303 . S
C41 O34 1.247 . S
C42 O31 1.253 . S
C42 O32 1.283 . S
C43 O35 1.304 . S
C43 O37 1.272 . S
C44 O36 1.311 . S
C44 O38 1.231 . S
O45 Zn27 1.953 . S
O45 C39 1.298 1_565 S
O46 Zn47 1.953 . S
O46 C62 1.225 . S
Zn47 O46 1.953 . S
Zn47 O48 1.949 . S
Zn47 O54 1.919 . S
Zn47 O59 1.924 . S
O48 Zn47 1.949 . S
O48 Zn49 1.923 . S
O48 Zn50 1.950 . S
O48 Zn51 1.945 . S
Zn49 O48 1.923 . S
Zn49 O52 1.933 . S
Zn49 O55 1.941 . S
Zn49 O56 1.965 . S
Zn50 O48 1.950 . S
Zn50 O57 1.938 . S
Zn50 O58 1.906 . S
Zn50 O68 1.953 . S
Zn51 O48 1.945 . S
Zn51 O53 1.932 . S
Zn51 O60 1.977 . S
Zn51 O61 1.910 . S
O52 Zn49 1.933 . S
O52 C63 1.226 . S
O53 Zn51 1.932 . S
O53 C63 1.307 . S
O54 Zn47 1.919 . S
O54 C65 1.253 . S
O55 Zn49 1.941 . S
O55 C65 1.283 . S
O56 Zn49 1.965 . S
O56 C64 1.303 . S
O57 Zn50 1.938 . S
O57 C64 1.247 . S
O58 Zn50 1.906 . S
O58 C66 1.304 . S
O59 Zn47 1.924 . S
O59 C67 1.311 . S
O60 Zn51 1.977 . S
O60 C66 1.272 . S
O61 Zn51 1.910 . S
O61 C67 1.231 . S
C62 O46 1.225 . S
C62 O68 1.298 . S
C63 O52 1.226 . S
C63 O53 1.307 . S
C64 O56 1.303 . S
C64 O57 1.247 . S
C65 O54 1.253 . S
C65 O55 1.283 . S
C66 O58 1.304 . S
C66 O60 1.272 . S
C67 O59 1.311 . S
C67 O61 1.231 . S
O68 Zn50 1.953 . S
O68 C62 1.298 . S
H69 C72 0.931 . S
H70 C75 0.928 . S
H71 C77 0.930 . S
C72 H69 0.931 . S
C72 C73 1.413 . S
C72 C74 1.360 1_565 S
C73 C72 1.413 . S
C73 C77 1.429 1_565 S
C74 C72 1.360 1_545 S
C74 C75 1.372 . S
C75 H70 0.928 . S
C75 C74 1.372 . S
C75 C76 1.404 . S
C76 C75 1.404 . S
C76 C77 1.391 . S
C77 H71 0.930 . S
C77 C73 1.429 1_545 S
C77 C76 1.391 . S
H78 C81 0.931 . S
H79 C84 0.928 . S
H80 C86 0.930 . S
C81 H78 0.931 . S
C81 C82 1.413 . S
C81 C83 1.360 . S
C82 C81 1.413 . S
C82 C86 1.429 . S
C83 C81 1.360 . S
C83 C84 1.372 . S
C84 H79 0.928 . S
C84 C83 1.372 . S
C84 C85 1.404 . S
C85 C84 1.404 . S
C85 C86 1.391 . S
C86 H80 0.930 . S
C86 C82 1.429 . S
C86 C85 1.391 . S
H87 C90 0.931 . S
H88 C93 0.928 . S
H89 C95 0.930 . S
C90 H87 0.931 . S
C90 C91 1.413 . S
C90 C92 1.360 1_655 S
C91 C90 1.413 . S
C91 C95 1.429 1_655 S
C92 C90 1.360 1_455 S
C92 C93 1.372 . S
C93 H88 0.928 . S
C93 C92 1.372 . S
C93 C94 1.404 . S
C94 C93 1.404 . S
C94 C95 1.391 . S
C95 H89 0.930 . S
C95 C91 1.429 1_455 S
C95 C94 1.391 . S
H96 C99 0.931 . S
H97 C102 0.928 . S
H98 C104 0.930 . S
C99 H96 0.931 . S
C99 C100 1.413 . S
C99 C101 1.360 1_655 S
C100 C99 1.413 . S
C100 C104 1.429 1_655 S
C101 C99 1.360 1_455 S
C101 C102 1.372 . S
C102 H97 0.928 . S
C102 C101 1.372 . S
C102 C103 1.404 . S
C103 C102 1.404 . S
C103 C104 1.391 . S
C104 H98 0.930 . S
C104 C100 1.429 1_455 S
C104 C103 1.391 . S
H105 C108 0.931 . S
H106 C111 0.928 . S
H107 C113 0.930 . S
C108 H105 0.931 . S
C108 C109 1.413 . S
C108 C110 1.352 1_545 S
C109 C108 1.413 . S
C109 C113 1.429 1_545 S
C110 C108 1.352 1_565 S
C110 C111 1.380 . S
C111 H106 0.928 . S
C111 C110 1.380 . S
C111 C112 1.404 . S
C112 C111 1.404 . S
C112 C113 1.391 . S
C113 H107 0.930 . S
C113 C109 1.429 1_565 S
C113 C112 1.391 . S
H114 C117 0.931 . S
H115 C120 0.928 . S
H116 C122 0.930 . S
C117 H114 0.931 . S
C117 C118 1.413 . S
C117 C119 1.360 . S
C118 C117 1.413 . S
C118 C122 1.429 . S
C119 C117 1.360 . S
C119 C120 1.372 . S
C120 H115 0.928 . S
C120 C119 1.372 . S
C120 C121 1.404 . S
C121 C120 1.404 . S
C121 C122 1.391 . S
C122 H116 0.930 . S
C122 C118 1.429 . S
C122 C121 1.391 . S
C123 C124 1.363 . S
C123 C129 1.379 . S
C123 N131 1.356 . S
C124 C123 1.363 . S
C124 C130 1.363 . S
C125 C126 1.363 . S
C125 C130 1.379 . S
C125 N132 1.356 . S
C126 C125 1.363 . S
C126 C129 1.363 . S
N127 C129 1.356 . S
N127 H139 0.984 . S
N127 H140 0.985 . S
N128 C130 1.356 . S
N128 H133 0.984 . S
N128 H134 0.985 . S
C129 C123 1.379 . S
C129 C126 1.363 . S
C129 N127 1.356 . S
C130 C124 1.363 . S
C130 C125 1.379 . S
C130 N128 1.356 . S
N131 C123 1.356 . S
N131 H137 0.984 . S
N131 H138 0.984 . S
N132 C125 1.356 . S
N132 H135 0.984 . S
N132 H136 0.985 . S
H133 N128 0.984 . S
H134 N128 0.985 . S
H135 N132 0.984 . S
H136 N132 0.985 . S
H137 N131 0.984 . S
H138 N131 0.984 . S
H139 N127 0.984 . S
H140 N127 0.985 . S
C141 C142 1.363 . S
C141 C147 1.379 . S
C141 N149 1.356 . S
C142 C141 1.363 . S
C142 C148 1.363 . S
C143 C144 1.363 . S
C143 C148 1.379 . S
C143 N150 1.356 . S
C144 C143 1.363 . S
C144 C147 1.363 . S
N145 C147 1.356 . S
N145 H157 0.984 . S
N145 H158 0.985 . S
N146 C148 1.356 . S
N146 H151 0.984 . S
N146 H152 0.985 . S
C147 C141 1.379 . S
C147 C144 1.363 . S
C147 N145 1.356 . S
C148 C142 1.363 . S
C148 C143 1.379 . S
C148 N146 1.356 . S
N149 C141 1.356 . S
N149 H155 0.984 . S
N149 H156 0.984 . S
N150 C143 1.356 . S
N150 H153 0.984 . S
N150 H154 0.985 . S
H151 N146 0.984 . S
H152 N146 0.985 . S
H153 N150 0.984 . S
H154 N150 0.985 . S
H155 N149 0.984 . S
H156 N149 0.984 . S
H157 N145 0.984 . S
H158 N145 0.985 . S
C159 C160 1.363 . S
C159 C165 1.379 . S
C159 N167 1.356 . S
C160 C159 1.363 . S
C160 C166 1.363 . S
C161 C162 1.363 . S
C161 C166 1.379 . S
C161 N168 1.356 . S
C162 C161 1.363 . S
C162 C165 1.363 . S
N163 C165 1.356 . S
N163 H175 0.984 . S
N163 H176 0.985 . S
N164 C166 1.356 . S
N164 H169 0.984 . S
N164 H170 0.985 . S
C165 C159 1.379 . S
C165 C162 1.363 . S
C165 N163 1.356 . S
C166 C160 1.363 . S
C166 C161 1.379 . S
C166 N164 1.356 . S
N167 C159 1.356 . S
N167 H173 0.984 . S
N167 H174 0.984 . S
N168 C161 1.356 . S
N168 H171 0.984 . S
N168 H172 0.985 . S
H169 N164 0.984 . S
H170 N164 0.985 . S
H171 N168 0.984 . S
H172 N168 0.985 . S
H173 N167 0.984 . S
H174 N167 0.984 . S
H175 N163 0.984 . S
H176 N163 0.985 . S
C177 C178 1.363 . S
C177 C183 1.379 . S
C177 N185 1.356 . S
C178 C177 1.363 . S
C178 C184 1.363 . S
C179 C180 1.363 . S
C179 C184 1.379 . S
C179 N186 1.356 . S
C180 C179 1.363 . S
C180 C183 1.363 . S
N181 C183 1.356 . S
N181 H193 0.984 . S
N181 H194 0.985 . S
N182 C184 1.356 . S
N182 H187 0.984 . S
N182 H188 0.985 . S
C183 C177 1.379 . S
C183 C180 1.363 . S
C183 N181 1.356 . S
C184 C178 1.363 . S
C184 C179 1.379 . S
C184 N182 1.356 . S
N185 C177 1.356 . S
N185 H191 0.984 . S
N185 H192 0.984 . S
N186 C179 1.356 . S
N186 H189 0.984 . S
N186 H190 0.985 . S
H187 N182 0.984 . S
H188 N182 0.985 . S
H189 N186 0.984 . S
H190 N186 0.985 . S
H191 N185 0.984 . S
H192 N185 0.984 . S
H193 N181 0.984 . S
H194 N181 0.985 . S
C195 C196 1.363 . S
C195 C201 1.379 . S
C195 N203 1.356 . S
C196 C195 1.363 . S
C196 C202 1.363 . S
C197 C198 1.363 . S
C197 C202 1.379 . S
C197 N204 1.356 . S
C198 C197 1.363 . S
C198 C201 1.363 . S
N199 C201 1.356 . S
N199 H211 0.984 . S
N199 H212 0.985 . S
N200 C202 1.356 . S
N200 H205 0.984 . S
N200 H206 0.985 . S
C201 C195 1.379 . S
C201 C198 1.363 . S
C201 N199 1.356 . S
C202 C196 1.363 . S
C202 C197 1.379 . S
C202 N200 1.356 . S
N203 C195 1.356 . S
N203 H209 0.984 . S
N203 H210 0.984 . S
N204 C197 1.356 . S
N204 H207 0.984 . S
N204 H208 0.985 . S
H205 N200 0.984 . S
H206 N200 0.985 . S
H207 N204 0.984 . S
H208 N204 0.985 . S
H209 N203 0.984 . S
H210 N203 0.984 . S
H211 N199 0.984 . S
H212 N199 0.985 . S
C213 C214 1.363 . S
C213 C219 1.379 . S
C213 N221 1.356 . S
C214 C213 1.363 . S
C214 C220 1.363 . S
C215 C216 1.363 . S
C215 C220 1.379 . S
C215 N222 1.356 . S
C216 C215 1.363 . S
C216 C219 1.363 . S
N217 C219 1.356 . S
N217 H229 0.984 . S
N217 H230 0.985 . S
N218 C220 1.356 . S
N218 H223 0.984 . S
N218 H224 0.985 . S
C219 C213 1.379 . S
C219 C216 1.363 . S
C219 N217 1.356 . S
C220 C214 1.363 . S
C220 C215 1.379 . S
C220 N218 1.356 . S
N221 C213 1.356 . S
N221 H227 0.984 . S
N221 H228 0.984 . S
N222 C215 1.356 . S
N222 H225 0.984 . S
N222 H226 0.985 . S
H223 N218 0.984 . S
H224 N218 0.985 . S
H225 N222 0.984 . S
H226 N222 0.985 . S
H227 N221 0.984 . S
H228 N221 0.984 . S
H229 N217 0.984 . S
H230 N217 0.985 . S
C231 C232 1.363 . S
C231 C237 1.379 . S
C231 N239 1.356 . S
C232 C231 1.363 . S
C232 C238 1.363 . S
C233 C234 1.363 . S
C233 C238 1.379 . S
C233 N240 1.356 . S
C234 C233 1.363 . S
C234 C237 1.363 . S
N235 C237 1.356 . S
N235 H247 0.984 . S
N235 H248 0.985 . S
N236 C238 1.356 . S
N236 H241 0.984 . S
N236 H242 0.985 . S
C237 C231 1.379 . S
C237 C234 1.363 . S
C237 N235 1.356 . S
C238 C232 1.363 . S
C238 C233 1.379 . S
C238 N236 1.356 . S
N239 C231 1.356 . S
N239 H245 0.984 . S
N239 H246 0.984 . S
N240 C233 1.356 . S
N240 H243 0.984 . S
N240 H244 0.985 . S
H241 N236 0.984 . S
H242 N236 0.985 . S
H243 N240 0.984 . S
H244 N240 0.985 . S
H245 N239 0.984 . S
H246 N239 0.984 . S
H247 N235 0.984 . S
H248 N235 0.985 . S
C249 C250 1.363 . S
C249 C255 1.379 . S
C249 N257 1.356 . S
C250 C249 1.363 . S
C250 C256 1.363 . S
C251 C252 1.363 . S
C251 C256 1.379 . S
C251 N258 1.356 . S
C252 C251 1.363 . S
C252 C255 1.363 . S
N253 C255 1.356 . S
N253 H265 0.984 1_655 S
N253 H266 0.985 1_655 S
N254 C256 1.356 . S
N254 H259 0.984 . S
N254 H260 0.985 . S
C255 C249 1.379 . S
C255 C252 1.363 . S
C255 N253 1.356 . S
C256 C250 1.363 . S
C256 C251 1.379 . S
C256 N254 1.356 . S
N257 C249 1.356 . S
N257 H263 0.984 . S
N257 H264 0.984 . S
N258 C251 1.356 . S
N258 H261 0.984 . S
N258 H262 0.985 . S
H259 N254 0.984 . S
H260 N254 0.985 . S
H261 N258 0.984 . S
H262 N258 0.985 . S
H263 N257 0.984 . S
H264 N257 0.984 . S
H265 N253 0.984 1_455 S
H266 N253 0.985 1_455 S
C267 C268 1.363 . S
C267 C273 1.379 . S
C267 N275 1.356 . S
C268 C267 1.363 . S
C268 C274 1.363 . S
C269 C270 1.363 . S
C269 C274 1.379 . S
C269 N276 1.356 . S
C270 C269 1.363 . S
C270 C273 1.363 . S
N271 C273 1.356 . S
N271 H283 0.984 . S
N271 H284 0.985 . S
N272 C274 1.356 . S
N272 H277 0.984 . S
N272 H278 0.985 . S
C273 C267 1.379 . S
C273 C270 1.363 . S
C273 N271 1.356 . S
C274 C268 1.363 . S
C274 C269 1.379 . S
C274 N272 1.356 . S
N275 C267 1.356 . S
N275 H281 0.984 . S
N275 H282 0.984 . S
N276 C269 1.356 . S
N276 H279 0.984 . S
N276 H280 0.985 . S
H277 N272 0.984 . S
H278 N272 0.985 . S
H279 N276 0.984 . S
H280 N276 0.985 . S
H281 N275 0.984 . S
H282 N275 0.984 . S
H283 N271 0.984 . S
H284 N271 0.985 . S
C285 C286 1.363 . S
C285 C291 1.379 . S
C285 N293 1.356 . S
C286 C285 1.363 . S
C286 C292 1.363 . S
C287 C288 1.363 . S
C287 C292 1.379 . S
C287 N294 1.356 . S
C288 C287 1.363 . S
C288 C291 1.363 . S
N289 C291 1.356 . S
N289 H301 0.984 . S
N289 H302 0.985 . S
N290 C292 1.356 . S
N290 H295 0.984 . S
N290 H296 0.985 . S
C291 C285 1.379 . S
C291 C288 1.363 . S
C291 N289 1.356 . S
C292 C286 1.363 . S
C292 C287 1.379 . S
C292 N290 1.356 . S
N293 C285 1.356 . S
N293 H299 0.984 . S
N293 H300 0.984 . S
N294 C287 1.356 . S
N294 H297 0.984 . S
N294 H298 0.985 . S
H295 N290 0.984 . S
H296 N290 0.985 . S
H297 N294 0.984 . S
H298 N294 0.985 . S
H299 N293 0.984 . S
H300 N293 0.984 . S
H301 N289 0.984 . S
H302 N289 0.985 . S
C303 C304 1.363 . S
C303 C309 1.379 . S
C303 N311 1.356 . S
C304 C303 1.363 . S
C304 C310 1.363 . S
C305 C306 1.363 . S
C305 C310 1.379 . S
C305 N312 1.356 . S
C306 C305 1.363 . S
C306 C309 1.363 . S
N307 C309 1.356 . S
N307 H319 0.984 . S
N307 H320 0.985 . S
N308 C310 1.356 . S
N308 H313 0.984 . S
N308 H314 0.985 . S
C309 C303 1.379 . S
C309 C306 1.363 . S
C309 N307 1.356 . S
C310 C304 1.363 . S
C310 C305 1.379 . S
C310 N308 1.356 . S
N311 C303 1.356 . S
N311 H317 0.984 . S
N311 H318 0.984 . S
N312 C305 1.356 . S
N312 H315 0.984 . S
N312 H316 0.985 . S
H313 N308 0.984 . S
H314 N308 0.985 . S
H315 N312 0.984 . S
H316 N312 0.985 . S
H317 N311 0.984 . S
H318 N311 0.984 . S
H319 N307 0.984 . S
H320 N307 0.985 . S
C321 C322 1.363 . S
C321 C327 1.379 . S
C321 N329 1.356 . S
C322 C321 1.363 . S
C322 C328 1.363 . S
C323 C324 1.363 . S
C323 C328 1.379 . S
C323 N330 1.356 . S
C324 C323 1.363 . S
C324 C327 1.363 . S
N325 C327 1.356 . S
N325 H337 0.984 . S
N325 H338 0.985 . S
N326 C328 1.356 . S
N326 H331 0.984 . S
N326 H332 0.985 . S
C327 C321 1.379 . S
C327 C324 1.363 . S
C327 N325 1.356 . S
C328 C322 1.363 . S
C328 C323 1.379 . S
C328 N326 1.356 . S
N329 C321 1.356 . S
N329 H335 0.984 . S
N329 H336 0.984 . S
N330 C323 1.356 . S
N330 H333 0.984 . S
N330 H334 0.985 . S
H331 N326 0.984 . S
H332 N326 0.985 . S
H333 N330 0.984 . S
H334 N330 0.985 . S
H335 N329 0.984 . S
H336 N329 0.984 . S
H337 N325 0.984 . S
H338 N325 0.985 . S
C339 C340 1.363 . S
C339 C345 1.379 1_554 S
C339 N347 1.356 . S
C340 C339 1.363 . S
C340 C346 1.363 . S
C341 C342 1.363 . S
C341 C346 1.379 1_556 S
C341 N348 1.359 . S
C342 C341 1.363 . S
C342 C345 1.363 . S
N343 C345 1.356 . S
N343 H355 0.984 . S
N343 H356 0.985 . S
N344 C346 1.356 1_655 S
N344 H349 0.984 . S
N344 H350 0.985 . S
C345 C339 1.379 1_556 S
C345 C342 1.363 . S
C345 N343 1.356 . S
C346 C340 1.363 . S
C346 C341 1.379 1_554 S
C346 N344 1.356 1_455 S
N347 C339 1.356 . S
N347 H353 0.984 . S
N347 H354 0.984 . S
N348 C341 1.359 . S
N348 H351 0.986 . S
N348 H352 0.981 1_455 S
H349 N344 0.984 . S
H350 N344 0.985 . S
H351 N348 0.986 . S
H352 N348 0.981 1_655 S
H353 N347 0.984 . S
H354 N347 0.984 . S
H355 N343 0.984 . S
H356 N343 0.985 . S
C357 C358 1.363 1_565 S
C357 C363 1.379 . S
C357 N365 1.356 . S
C358 C357 1.363 1_545 S
C358 C364 1.363 . S
C359 C360 1.363 . S
C359 C364 1.379 . S
C359 N366 1.356 . S
C360 C359 1.363 . S
C360 C363 1.363 1_545 S
N361 C363 1.356 . S
N361 H373 0.984 . S
N361 H374 0.985 . S
N362 C364 1.356 . S
N362 H367 0.984 . S
N362 H368 0.985 . S
C363 C357 1.379 . S
C363 C360 1.363 1_565 S
C363 N361 1.356 . S
C364 C358 1.363 . S
C364 C359 1.379 . S
C364 N362 1.356 . S
N365 C357 1.356 . S
N365 H371 0.984 . S
N365 H372 0.984 . S
N366 C359 1.356 . S
N366 H369 0.984 . S
N366 H370 0.985 . S
H367 N362 0.984 . S
H368 N362 0.985 . S
H369 N366 0.984 . S
H370 N366 0.985 . S
H371 N365 0.984 . S
H372 N365 0.984 . S
H373 N361 0.984 . S
H374 N361 0.985 . S
C375 C376 1.363 . S
C375 C381 1.379 . S
C375 N383 1.356 . S
C376 C375 1.363 . S
C376 C382 1.363 . S
C377 C378 1.363 . S
C377 C382 1.379 . S
C377 N384 1.356 . S
C378 C377 1.363 . S
C378 C381 1.363 . S
N379 C381 1.356 . S
N379 H391 0.984 . S
N379 H392 0.985 . S
N380 C382 1.356 . S
N380 H385 0.984 . S
N380 H386 0.985 . S
C381 C375 1.379 . S
C381 C378 1.363 . S
C381 N379 1.356 . S
C382 C376 1.363 . S
C382 C377 1.379 . S
C382 N380 1.356 . S
N383 C375 1.356 . S
N383 H389 0.984 . S
N383 H390 0.984 . S
N384 C377 1.356 . S
N384 H387 0.984 . S
N384 H388 0.985 . S
H385 N380 0.984 . S
H386 N380 0.985 . S
H387 N384 0.984 . S
H388 N384 0.985 . S
H389 N383 0.984 . S
H390 N383 0.984 . S
H391 N379 0.984 . S
H392 N379 0.985 . S
C393 C394 1.363 1_565 S
C393 C399 1.379 . S
C393 N401 1.356 . S
C394 C393 1.363 1_545 S
C394 C400 1.363 . S
C395 C396 1.363 . S
C395 C400 1.379 . S
C395 N402 1.356 . S
C396 C395 1.363 . S
C396 C399 1.363 1_545 S
N397 C399 1.356 . S
N397 H409 0.984 . S
N397 H410 0.985 . S
N398 C400 1.356 . S
N398 H403 0.984 . S
N398 H404 0.985 . S
C399 C393 1.379 . S
C399 C396 1.363 1_565 S
C399 N397 1.356 . S
C400 C394 1.363 . S
C400 C395 1.379 . S
C400 N398 1.356 . S
N401 C393 1.356 . S
N401 H407 0.984 . S
N401 H408 0.984 . S
N402 C395 1.356 . S
N402 H405 0.984 . S
N402 H406 0.985 . S
H403 N398 0.984 . S
H404 N398 0.985 . S
H405 N402 0.984 . S
H406 N402 0.985 . S
H407 N401 0.984 . S
H408 N401 0.984 . S
H409 N397 0.984 . S
H410 N397 0.985 . S
C411 C412 1.363 . S
C411 C417 1.379 1_556 S
C411 N419 1.356 . S
C412 C411 1.363 . S
C412 C418 1.363 . S
C413 C414 1.363 . S
C413 C418 1.379 1_554 S
C413 N420 1.356 . S
C414 C413 1.363 . S
C414 C417 1.363 . S
N415 C417 1.356 . S
N415 H427 0.984 . S
N415 H428 0.985 . S
N416 C418 1.356 . S
N416 H421 0.984 . S
N416 H422 0.985 . S
C417 C411 1.379 1_554 S
C417 C414 1.363 . S
C417 N415 1.356 . S
C418 C412 1.363 . S
C418 C413 1.379 1_556 S
C418 N416 1.356 . S
N419 C411 1.356 . S
N419 H425 0.984 . S
N419 H426 0.984 . S
N420 C413 1.356 . S
N420 H423 0.984 . S
N420 H424 0.985 . S
H421 N416 0.984 . S
H422 N416 0.985 . S
H423 N420 0.984 . S
H424 N420 0.985 . S
H425 N419 0.984 . S
H426 N419 0.984 . S
H427 N415 0.984 . S
H428 N415 0.985 . S
C429 C430 1.363 . S
C429 C435 1.379 . S
C429 N437 1.356 . S
C430 C429 1.363 . S
C430 C436 1.363 1_455 S
C431 C432 1.363 1_655 S
C431 C436 1.379 . S
C431 N438 1.356 . S
C432 C431 1.363 1_455 S
C432 C435 1.363 . S
N433 C435 1.356 . S
N433 H445 0.984 . S
N433 H446 0.985 . S
N434 C436 1.356 . S
N434 H439 0.984 . S
N434 H440 0.985 . S
C435 C429 1.379 . S
C435 C432 1.363 . S
C435 N433 1.356 . S
C436 C430 1.363 1_655 S
C436 C431 1.379 . S
C436 N434 1.356 . S
N437 C429 1.356 . S
N437 H443 0.984 . S
N437 H444 0.984 . S
N438 C431 1.356 . S
N438 H441 0.984 . S
N438 H442 0.985 . S
H439 N434 0.984 . S
H440 N434 0.985 . S
H441 N438 0.984 . S
H442 N438 0.985 . S
H443 N437 0.984 . S
H444 N437 0.984 . S
H445 N433 0.984 . S
H446 N433 0.985 . S
C124 C20 1.329 . S
C126 C118 1.385 . S
C142 C41 1.415 . S
C144 C100 1.405 . S
C160 C64 1.430 . S
C162 C112 1.422 . S
C178 C19 1.357 . S
C180 C121 1.421 . S
C198 C103 1.399 . S
C196 C44 1.392 . S
C216 C109 1.392 . S
C214 C67 1.386 . S
C232 C43 1.332 . S
C234 C82 1.392 . S
C250 C66 1.329 . S
C252 C91 1.385 . S
C268 C21 1.402 . S
C270 C73 1.409 . S
C288 C85 1.407 . S
C286 C42 1.348 . S
C306 C94 1.422 . S
C304 C65 1.358 . S
C322 C18 1.407 . S
C324 C76 1.398 . S
C342 C92 1.478 . S
C340 C17 1.478 . S
C358 C39 1.476 . S
C360 C74 1.476 . S
C376 C62 1.489 . S
C378 C83 1.489 . S
C396 C110 1.466 1_545 S
C394 C40 1.465 . S
C414 C119 1.478 . S
C412 C63 1.478 . S
C430 C16 1.476 . S
C432 C101 1.476 . S
