# Generated by pormake.
# Topology pyr, (3,6)-cn, num edge types: 1
# Building blocks:
#     Node 0, Type 0, BuildingBlock: PAMTOO_clean_linker_0, # of connection points: 3
#     Node 1, Type 0, BuildingBlock: PAMTOO_clean_linker_0, # of connection points: 3
#     Node 2, Type 0, BuildingBlock: PAMTOO_clean_linker_0, # of connection points: 3
#     Node 3, Type 0, BuildingBlock: PAMTOO_clean_linker_0, # of connection points: 3
#     Node 4, Type 0, BuildingBlock: PAMTOO_clean_linker_0, # of connection points: 3
#     Node 5, Type 0, BuildingBlock: PAMTOO_clean_linker_0, # of connection points: 3
#     Node 6, Type 0, BuildingBlock: PAMTOO_clean_linker_0, # of connection points: 3
#     Node 7, Type 0, BuildingBlock: PAMTOO_clean_linker_0, # of connection points: 3
#     Node 8, Type 1, BuildingBlock: PAMTUU_clean_sbu_0, # of connection points: 6
#     Node 9, Type 1, BuildingBlock: PAMTUU_clean_sbu_0, # of connection points: 6
#     Node 10, Type 1, BuildingBlock: PAMTUU_clean_sbu_0, # of connection points: 6
#     Node 11, Type 1, BuildingBlock: PAMTUU_clean_sbu_0, # of connection points: 6
#     Edge 12, Type (0, 1), BuildingBlock: XUDNAN_clean_linker_2, # of connection points: 2
#     Edge 13, Type (0, 1), BuildingBlock: XUDNAN_clean_linker_2, # of connection points: 2
#     Edge 14, Type (0, 1), BuildingBlock: XUDNAN_clean_linker_2, # of connection points: 2
#     Edge 15, Type (0, 1), BuildingBlock: XUDNAN_clean_linker_2, # of connection points: 2
#     Edge 16, Type (0, 1), BuildingBlock: XUDNAN_clean_linker_2, # of connection points: 2
#     Edge 17, Type (0, 1), BuildingBlock: XUDNAN_clean_linker_2, # of connection points: 2
#     Edge 18, Type (0, 1), BuildingBlock: XUDNAN_clean_linker_2, # of connection points: 2
#     Edge 19, Type (0, 1), BuildingBlock: XUDNAN_clean_linker_2, # of connection points: 2
#     Edge 20, Type (0, 1), BuildingBlock: XUDNAN_clean_linker_2, # of connection points: 2
#     Edge 21, Type (0, 1), BuildingBlock: XUDNAN_clean_linker_2, # of connection points: 2
#     Edge 22, Type (0, 1), BuildingBlock: XUDNAN_clean_linker_2, # of connection points: 2
#     Edge 23, Type (0, 1), BuildingBlock: XUDNAN_clean_linker_2, # of connection points: 2
#     Edge 24, Type (0, 1), BuildingBlock: XUDNAN_clean_linker_2, # of connection points: 2
#     Edge 25, Type (0, 1), BuildingBlock: XUDNAN_clean_linker_2, # of connection points: 2
#     Edge 26, Type (0, 1), BuildingBlock: XUDNAN_clean_linker_2, # of connection points: 2
#     Edge 27, Type (0, 1), BuildingBlock: XUDNAN_clean_linker_2, # of connection points: 2
#     Edge 28, Type (0, 1), BuildingBlock: XUDNAN_clean_linker_2, # of connection points: 2
#     Edge 29, Type (0, 1), BuildingBlock: XUDNAN_clean_linker_2, # of connection points: 2
#     Edge 30, Type (0, 1), BuildingBlock: XUDNAN_clean_linker_2, # of connection points: 2
#     Edge 31, Type (0, 1), BuildingBlock: XUDNAN_clean_linker_2, # of connection points: 2
#     Edge 32, Type (0, 1), BuildingBlock: XUDNAN_clean_linker_2, # of connection points: 2
#     Edge 33, Type (0, 1), BuildingBlock: XUDNAN_clean_linker_2, # of connection points: 2
#     Edge 34, Type (0, 1), BuildingBlock: XUDNAN_clean_linker_2, # of connection points: 2
#     Edge 35, Type (0, 1), BuildingBlock: XUDNAN_clean_linker_2, # of connection points: 2
# Relax obj value: 0.169
# Max RMSD: 0.237
# Mean RMSD: 0.145
data_MOF--net-pyr--node1-PAMTUU_clean_sbu_0--node2-PAMTOO_clean_linker_0--edge1-XUDNAN_clean_linker_2
_symmetry_space_group_name_H-M    P1
_symmetry_Int_Tables_number       1
_symmetry_cell_setting            triclinic
loop_
_symmetry_equiv_pos_as_xyz
'x, y, z'
_cell_length_a     37.348597
_cell_length_b     39.783935
_cell_length_c     37.556602
_cell_angle_alpha  90.574288
_cell_angle_beta   89.579003
_cell_angle_gamma 106.12134
loop_
_atom_site_label
_atom_site_type_symbol
_atom_site_fract_x
_atom_site_fract_y
_atom_site_fract_z
_atom_type_partial_charge
H0 H 0.30132 0.31082 0.24174 0.0
H1 H 0.33448 0.21836 0.26603 0.0
H2 H 0.34448 0.25641 0.15947 0.0
H3 H 0.30473 0.1803 0.17799 0.0
C4 C 0.32883 0.17601 0.19279 0.0
O5 O 0.35373 0.20781 0.20132 0.0
H6 H 0.31826 0.16164 0.21766 0.0
C7 C 0.3135 0.29027 0.23354 0.0
C8 C 0.32232 0.28695 0.19739 0.0
C9 C 0.31733 0.26569 0.25881 0.0
C10 C 0.33239 0.23857 0.24773 0.0
C11 C 0.34217 0.23553 0.21208 0.0
C12 C 0.33753 0.25976 0.18709 0.0
H13 H 0.16865 0.83352 0.75028 0.0
H14 H 0.19217 0.802 0.64514 0.0
H15 H 0.26497 0.79598 0.73041 0.0
H16 H 0.28866 0.82865 0.65458 0.0
C17 C 0.28081 0.80071 0.6458 0.0
O18 O 0.24999 0.78111 0.66416 0.0
H19 H 0.27387 0.80033 0.61704 0.0
C20 C 0.18612 0.82323 0.73268 0.0
C21 C 0.21868 0.81647 0.74573 0.0
C22 C 0.17711 0.8196 0.69636 0.0
C23 C 0.19871 0.80517 0.67325 0.0
C24 C 0.22943 0.79547 0.68627 0.0
C25 C 0.23967 0.80162 0.72205 0.0
H26 H 0.73168 0.34127 0.94399 0.0
H27 H 0.65626 0.34349 0.85851 0.0
H28 H 0.75916 0.42488 0.86782 0.0
H29 H 0.69499 0.45052 0.84003 0.0
C30 C 0.67838 0.42602 0.8269 0.0
O31 O 0.69808 0.40097 0.82914 0.0
H32 H 0.65154 0.41666 0.84158 0.0
C33 C 0.72451 0.35382 0.92082 0.0
C34 C 0.75 0.38494 0.90853 0.0
C35 C 0.69093 0.33766 0.90309 0.0
C36 C 0.68181 0.35489 0.87291 0.0
C37 C 0.70587 0.38673 0.8604 0.0
C38 C 0.73997 0.40143 0.87834 0.0
H39 H 0.87491 0.7348 0.4423 0.0
H40 H 0.86839 0.66556 0.35212 0.0
H41 H 0.95971 0.75917 0.36062 0.0
H42 H 0.94343 0.65829 0.33469 0.0
C43 C 0.95348 0.68149 0.31723 0.0
O44 O 0.92922 0.70252 0.32046 0.0
H45 H 0.98147 0.69661 0.32677 0.0
C46 C 0.88585 0.72853 0.41705 0.0
C47 C 0.91936 0.75115 0.40384 0.0
C48 C 0.86704 0.69745 0.39908 0.0
C49 C 0.88241 0.68912 0.36668 0.0
C50 C 0.91577 0.71105 0.35249 0.0
C51 C 0.93395 0.74232 0.37114 0.0
H52 H 0.77117 0.86876 0.90832 0.0
H53 H 0.7434 0.83744 1.01698 0.0
H54 H 0.81075 0.78766 0.95464 0.0
H55 H 0.72642 0.75105 1.00087 0.0
C56 C 0.7523 0.75364 1.01653 0.0
O57 O 0.77549 0.78739 1.01549 0.0
H58 H 0.74343 0.74716 0.04453 0.0
C59 C 0.77259 0.85245 0.93087 0.0
C60 C 0.79259 0.82746 0.92743 0.0
C61 C 0.75542 0.85726 0.96322 0.0
C62 C 0.75638 0.83475 0.99165 0.0
C63 C 0.77543 0.80918 0.98816 0.0
C64 C 0.79478 0.80653 0.95663 0.0
H65 H 0.85185 0.21496 0.38297 0.0
H66 H 0.8512 0.32219 0.39817 0.0
H67 H 0.91946 0.2785 0.4645 0.0
H68 H 0.90413 0.35816 0.49896 0.0
C69 C 0.8824 0.34123 0.48157 0.0
O70 O 0.89911 0.33448 0.45044 0.0
H71 H 0.87033 0.31673 0.49677 0.0
C72 C 0.86138 0.23961 0.39725 0.0
C73 C 0.88703 0.24283 0.42516 0.0
C74 C 0.84808 0.26793 0.38733 0.0
C75 C 0.86141 0.30013 0.40509 0.0
C76 C 0.88723 0.30376 0.43268 0.0
C77 C 0.90019 0.27535 0.44248 0.0
H78 H 0.38154 0.73976 0.15585 0.0
H79 H 0.35772 0.66144 0.23796 0.0
H80 H 0.45949 0.74584 0.24085 0.0
H81 H 0.46919 0.67765 0.26327 0.0
C82 C 0.44195 0.66582 0.27656 0.0
O83 O 0.41997 0.68894 0.27429 0.0
H84 H 0.42783 0.64127 0.26205 0.0
C85 C 0.38912 0.72916 0.18026 0.0
C86 C 0.42303 0.74668 0.1965 0.0
C87 C 0.36469 0.69869 0.19488 0.0
C88 C 0.37605 0.6846 0.22599 0.0
C89 C 0.41041 0.70137 0.24278 0.0
C90 C 0.43343 0.73269 0.22799 0.0
H91 H 0.11615 0.32861 0.78326 0.0
H92 H 0.20543 0.42396 0.77361 0.0
H93 H 0.19401 0.34266 0.69536 0.0
H94 H 0.27165 0.37854 0.72566 0.0
C95 C 0.26969 0.40571 0.72208 0.0
O96 O 0.23316 0.40511 0.71457 0.0
H97 H 0.27795 0.42015 0.74758 0.0
C98 C 0.14026 0.34432 0.76916 0.0
C99 C 0.15237 0.33058 0.73744 0.0
C100 C 0.15887 0.37821 0.78288 0.0
C101 C 0.19031 0.39824 0.76395 0.0
C102 C 0.20325 0.38507 0.7329 0.0
C103 C 0.18423 0.35163 0.71991 0.0
Tb104 Tb 0.06886 0.04992 0.5511 0.0
Tb105 Tb 0.99412 1.02473 0.59969 0.0
C106 C 1.01065 0.97497 0.53961 0.0
C107 C 0.15215 0.10211 0.50081 0.0
C108 C 0.19616 0.1635 0.46892 0.0
C109 C 0.20298 0.131 0.46184 0.0
C110 C 0.18117 0.10062 0.4777 0.0
C111 C 0.14598 0.13447 0.50924 0.0
C112 C 0.16792 0.16504 0.49341 0.0
C113 C 0.12746 0.06936 0.51411 0.0
O114 O 0.0334 0.08212 0.53495 0.0
O115 O 0.97789 0.04334 0.54997 0.0
O116 O 0.01641 0.08083 0.61065 0.0
O117 O 0.07757 0.0883 0.59555 0.0
O118 O 0.93733 0.99779 0.60373 0.0
O119 O 0.96732 1.02592 0.64874 0.0
O120 O 0.0368 1.00913 0.62892 0.0
O121 O 0.07594 1.00678 0.58243 0.0
O122 O 0.0333 1.00253 0.52408 0.0
O123 O 0.99794 0.97735 0.57203 0.0
C124 C 0.99701 0.07085 0.53241 0.0
O125 O 0.12727 0.0649 0.54845 0.0
O126 O 0.09395 0.06023 0.50082 0.0
C127 C 0.05161 0.09932 0.61219 0.0
C128 C 0.92255 0.97313 0.66026 0.0
C129 C 0.8992 0.91718 0.70799 0.0
C130 C 0.92947 0.91907 0.68487 0.0
C131 C 0.94101 0.94685 0.6611 0.0
C132 C 0.89188 0.97093 0.68254 0.0
C133 C 0.88025 0.94318 0.70622 0.0
C134 C 0.93653 1.0039 0.63782 0.0
C135 C 0.06327 0.99759 0.61454 0.0
H136 H 0.22388 0.12863 0.44257 0.0
H137 H 0.18614 0.07575 0.47093 0.0
H138 H 0.12362 0.13593 0.52721 0.0
H139 H 0.16214 0.18968 0.49955 0.0
H140 H 0.9445 0.89939 0.68552 0.0
H141 H 0.96479 0.94825 0.6439 0.0
H142 H 0.87754 0.99117 0.68232 0.0
H143 H 0.85732 0.9429 0.72414 0.0
Tb144 Tb 0.5765 0.05579 0.08262 0.0
Tb145 Tb 0.52975 1.02404 1.01099 0.0
C146 C 0.60896 1.02001 1.02253 0.0
C147 C 0.62987 0.11282 0.15728 0.0
C148 C 0.6682 0.16849 0.20193 0.0
C149 C 0.68149 0.16484 0.16739 0.0
C150 C 0.66255 0.13722 0.14528 0.0
C151 C 0.61536 0.11779 0.19088 0.0
C152 C 0.63422 0.14541 0.21292 0.0
C153 C 0.61353 0.07982 0.1376 0.0
O154 O 0.59555 0.09829 0.04315 0.0
O155 O 0.55033 0.07971 1.00024 0.0
O156 O 0.48976 1.03149 0.05055 0.0
O157 O 0.52955 0.07726 0.07979 0.0
O158 O 0.52088 0.98706 0.96929 0.0
O159 O 0.49001 1.02568 0.97251 0.0
O160 O 0.52692 0.97831 0.04371 0.0
O161 O 0.54106 1.00375 0.09897 0.0
O162 O 0.60201 1.0194 0.05666 0.0
O163 O 0.58863 1.03183 1.00039 0.0
C164 C 0.57896 0.10366 1.01352 0.0
O165 O 0.57725 0.06789 0.13724 0.0
O166 O 0.62847 0.0754 0.10698 0.0
C167 C 0.49569 0.05906 0.07151 0.0
C168 C 0.45927 0.97044 0.94815 0.0
C169 C 0.39164 0.9227 0.92783 0.0
C170 C 0.39431 0.94088 0.96045 0.0
C171 C 0.42796 0.96449 0.97064 0.0
C172 C 0.45718 0.95112 0.91651 0.0
C173 C 0.42367 0.92736 0.90644 0.0
C174 C 0.49374 0.99772 0.95623 0.0
C175 C 0.52849 0.97575 0.07855 0.0
H176 H 0.70775 0.18196 0.15823 0.0
H177 H 0.67457 0.13408 0.11956 0.0
H178 H 0.5903 0.09933 0.20086 0.0
H179 H 0.623 0.14784 0.2392 0.0
H180 H 0.37008 0.93762 0.9775 0.0
H181 H 0.42919 0.97889 0.99545 0.0
H182 H 0.48115 0.9553 0.89896 0.0
H183 H 0.42236 0.91413 0.88093 0.0
Tb184 Tb 0.55883 0.51123 0.52498 0.0
Tb185 Tb 0.56574 0.58007 0.57449 0.0
C186 C 0.52869 0.5739 0.49805 0.0
C187 C 0.59384 0.44419 0.48425 0.0
C188 C 0.65989 0.42455 0.47336 0.0
C189 C 0.62912 0.41131 0.45094 0.0
C190 C 0.5963 0.4214 0.45616 0.0
C191 C 0.62397 0.45588 0.50763 0.0
C192 C 0.65676 0.44637 0.50209 0.0
C193 C 0.56225 0.45936 0.48729 0.0
O194 O 0.61782 0.53896 0.52736 0.0
O195 O 0.6139 0.59423 0.53785 0.0
O196 O 0.59875 0.55094 0.60346 0.0
O197 O 0.57234 0.49697 0.57857 0.0
O198 O 0.57636 0.63473 0.57803 0.0
O199 O 0.5621 0.60279 0.62468 0.0
O200 O 0.51445 0.54139 0.59181 0.0
O201 O 0.50165 0.5049 0.54293 0.0
O202 O 0.54486 0.54941 0.48943 0.0
O203 O 0.52736 0.58375 0.53155 0.0
C204 C 0.63226 0.57287 0.52514 0.0
O205 O 0.5459 0.45656 0.51834 0.0
O206 O 0.56922 0.49111 0.47527 0.0
C207 C 0.59226 0.51657 0.6039 0.0
C208 C 0.53853 0.65167 0.62082 0.0
C209 C 0.48426 0.68674 0.6374 0.0
C210 C 0.52208 0.70205 0.64555 0.0
C211 C 0.54894 0.68464 0.63733 0.0
C212 C 0.50092 0.6362 0.6126 0.0
C213 C 0.47402 0.65355 0.62085 0.0
C214 C 0.56705 0.6339 0.61153 0.0
C215 C 0.49157 0.51596 0.57357 0.0
H216 H 0.63106 0.39445 0.42861 0.0
H217 H 0.57341 0.41235 0.43771 0.0
H218 H 0.62263 0.47342 0.52952 0.0
H219 H 0.68004 0.45663 0.51987 0.0
H220 H 0.53107 0.72777 0.65776 0.0
H221 H 0.57789 0.69705 0.64363 0.0
H222 H 0.49239 0.61073 0.59975 0.0
H223 H 0.44515 0.64079 0.61457 0.0
Tb224 Tb 0.05918 0.56887 1.01787 0.0
Tb225 Tb 0.06168 0.5093 0.07554 0.0
C226 C 0.08798 0.50409 0.99447 0.0
C227 C 0.01701 0.62473 0.969 0.0
C228 C 0.95165 0.64593 0.96288 0.0
C229 C 0.98288 0.66134 0.94154 0.0
C230 C 1.01561 0.65088 0.94475 0.0
C231 C 0.98526 0.60847 0.98916 0.0
C232 C 0.95295 0.61907 0.98626 0.0
C233 C 0.05127 0.61444 0.97477 0.0
O234 O 1.00777 0.5278 1.0087 0.0
O235 O 1.00277 0.49605 0.06019 0.0
O236 O 0.04424 0.54825 0.10771 0.0
O237 O 0.02468 0.57796 0.06317 0.0
O238 O 0.04657 0.45648 0.09046 0.0
O239 O 0.0821 0.49597 0.12387 0.0
O240 O 0.11953 0.5421 0.07168 0.0
O241 O 0.10825 0.59172 0.05041 0.0
O242 O 0.09212 0.53789 0.99018 0.0
O243 O 0.07272 0.48842 1.02378 0.0
C244 C 0.98877 0.50331 1.03 0.0
O245 O 0.06566 0.62183 1.00633 0.0
O246 O 0.04937 0.58239 0.96558 0.0
C247 C 0.02734 0.57139 0.09736 0.0
C248 C 0.09801 0.44353 0.11664 0.0
C249 C 0.1565 0.41173 0.11573 0.0
C250 C 0.13944 0.4169 0.14808 0.0
C251 C 0.11031 0.43265 0.14851 0.0
C252 C 0.11512 0.4385 0.08436 0.0
C253 C 0.1439 0.42248 0.08386 0.0
C254 C 0.06957 0.46263 0.11718 0.0
C255 C 0.12974 0.57621 0.0675 0.0
H256 H 0.98238 0.68224 0.92344 0.0
H257 H 0.03987 0.66357 0.92892 0.0
H258 H 0.98566 0.58798 1.00775 0.0
H259 H 0.92908 0.60664 1.00273 0.0
H260 H 0.14845 0.40851 0.173 0.0
H261 H 0.09773 0.43673 0.17368 0.0
H262 H 0.10661 0.44741 0.05953 0.0
H263 H 0.1568 0.41911 0.05864 0.0
H264 H 0.34155 0.2443 0.32177 0.0
H265 H 0.25428 0.28452 0.27817 0.0
H266 H 0.22233 0.27652 0.33569 0.0
H267 H 0.28265 0.17553 0.36089 0.0
H268 H 0.31003 0.17424 0.39992 0.0
H269 H 0.33262 0.19329 0.3597 0.0
H270 H 0.36304 0.25108 0.39373 0.0
H271 H 0.34036 0.23208 0.43425 0.0
H272 H 0.33407 0.27266 0.41837 0.0
H273 H 0.19238 0.25265 0.39157 0.0
H274 H 0.16538 0.21135 0.43922 0.0
H275 H 0.2695 0.18373 0.44772 0.0
C276 C 0.31622 0.25227 0.32451 0.0
C277 C 0.30108 0.26566 0.29523 0.0
C278 C 0.26758 0.27544 0.30015 0.0
C279 C 0.24894 0.27086 0.33292 0.0
C280 C 0.26382 0.25628 0.36071 0.0
C281 C 0.29677 0.24713 0.35691 0.0
C282 C 0.30321 0.22613 0.38845 0.0
C283 C 0.30733 0.19018 0.37651 0.0
C284 C 0.33719 0.24673 0.40998 0.0
C285 C 0.26739 0.22265 0.4091 0.0
C286 C 0.24571 0.24134 0.39332 0.0
C287 C 0.20948 0.2387 0.40483 0.0
C288 C 0.19438 0.2152 0.4321 0.0
C289 C 0.21535 0.19433 0.44728 0.0
C290 C 0.25287 0.19943 0.43668 0.0
H291 H 0.26849 0.79388 0.78826 0.0
H292 H 0.20349 0.86951 0.78668 0.0
H293 H 0.23071 0.8936 0.84282 0.0
H294 H 0.27904 0.78853 0.88743 0.0
H295 H 0.32731 0.78922 0.88283 0.0
H296 H 0.29441 0.76932 0.84859 0.0
H297 H 0.33576 0.80945 0.8014 0.0
H298 H 0.36868 0.82927 0.83535 0.0
H299 H 0.34854 0.85622 0.80803 0.0
H300 H 0.27146 0.91733 0.89279 0.0
H301 H 0.32799 0.94311 0.92775 0.0
H302 H 0.37343 0.85872 0.89388 0.0
C303 C 0.25931 0.81515 0.7996 0.0
C304 C 0.23257 0.8286 0.78242 0.0
C305 C 0.2221 0.85675 0.79916 0.0
C306 C 0.23779 0.87117 0.83141 0.0
C307 C 0.26481 0.85806 0.84667 0.0
C308 C 0.27594 0.83098 0.83112 0.0
C309 C 0.31068 0.82658 0.84887 0.0
C310 C 0.30235 0.79131 0.86808 0.0
C311 C 0.34279 0.83065 0.82181 0.0
C312 C 0.31842 0.85676 0.8753 0.0
C313 C 0.29068 0.87359 0.87457 0.0
C314 C 0.29301 0.90399 0.89423 0.0
C315 C 0.32521 0.9184 0.91414 0.0
C316 C 0.35493 0.90277 0.91367 0.0
C317 C 0.35091 0.87096 0.89491 0.0
H318 H 0.67201 0.48874 0.79935 0.0
H319 H 0.66095 0.38126 0.76805 0.0
H320 H 0.6402 0.39342 0.70816 0.0
H321 H 0.59116 0.49714 0.75384 0.0
H322 H 0.61131 0.54196 0.7409 0.0
H323 H 0.62735 0.52551 0.78046 0.0
H324 H 0.69497 0.54428 0.75632 0.0
H325 H 0.67915 0.56093 0.71672 0.0
H326 H 0.70508 0.52899 0.71306 0.0
H327 H 0.61797 0.417 0.65174 0.0
H328 H 0.59663 0.449 0.60428 0.0
H329 H 0.62158 0.54222 0.67101 0.0
C330 C 0.66601 0.46793 0.77962 0.0
C331 C 0.66944 0.43417 0.78839 0.0
C332 C 0.65978 0.40749 0.76201 0.0
C333 C 0.64772 0.4142 0.72785 0.0
C334 C 0.64487 0.44774 0.72012 0.0
C335 C 0.65384 0.47424 0.7453 0.0
C336 C 0.64715 0.50768 0.73058 0.0
C337 C 0.61748 0.51872 0.75277 0.0
C338 C 0.68377 0.53722 0.72908 0.0
C339 C 0.63289 0.49596 0.69319 0.0
C340 C 0.63182 0.46124 0.68782 0.0
C341 C 0.6189 0.4442 0.65582 0.0
C342 C 0.60668 0.46277 0.62884 0.0
C343 C 0.60723 0.49845 0.63334 0.0
C344 C 0.62091 0.51518 0.66621 0.0
H345 H 0.98206 0.62753 0.29685 0.0
H346 H 0.93774 0.70697 0.25097 0.0
H347 H 0.94987 0.68682 0.19042 0.0
H348 H 0.05623 0.63507 0.23393 0.0
H349 H 0.05285 0.58899 0.23318 0.0
H350 H 0.03893 0.60864 0.27241 0.0
H351 H 0.97379 0.5638 0.27013 0.0
H352 H 0.98755 0.54395 0.23092 0.0
H353 H 0.94654 0.55941 0.23005 0.0
H354 H 0.96857 0.65731 0.1334 0.0
H355 H 0.99254 0.6237 0.08771 0.0
H356 H 0.02585 0.56418 0.17114 0.0
C357 C 0.97434 0.64038 0.27404 0.0
C358 C 0.95794 0.66838 0.27905 0.0
C359 C 0.94943 0.68504 0.24826 0.0
C360 C 0.95642 0.67375 0.2136 0.0
C361 C 0.9724 0.6459 0.20974 0.0
C362 C 0.98129 0.62952 0.23933 0.0
C363 C 0.99928 0.60095 0.22831 0.0
C364 C 0.03919 0.6089 0.24282 0.0
C365 C 0.97536 0.56489 0.24058 0.0
C366 C 0.99937 0.6037 0.18787 0.0
C367 C 0.98361 0.62967 0.17757 0.0
C368 C 0.98087 0.63697 0.14147 0.0
C369 C 0.99462 0.61758 0.11552 0.0
C370 C 1.01126 0.59095 0.12531 0.0
C371 C 1.01335 0.58413 0.16228 0.0
H372 H 0.40131 0.17233 0.19697 0.0
H373 H 0.29806 0.12934 0.13973 0.0
H374 H 0.3284 0.09249 0.10354 0.0
H375 H 0.46182 0.17832 0.12189 0.0
H376 H 0.49785 0.1669 0.14666 0.0
H377 H 0.46728 0.1884 0.16879 0.0
H378 H 0.449 0.13801 0.21453 0.0
H379 H 0.47944 0.11631 0.19242 0.0
H380 H 0.43092 0.09356 0.19888 0.0
H381 H 0.37094 0.061 0.07309 0.0
H382 H 0.42259 0.03915 0.04969 0.0
H383 H 0.49759 0.10481 0.1263 0.0
C384 C 0.38515 0.15535 0.17665 0.0
C385 C 0.34762 0.1542 0.17047 0.0
C386 C 0.3271 0.131 0.1443 0.0
C387 C 0.34402 0.10994 0.12378 0.0
C388 C 0.38137 0.11227 0.13003 0.0
C389 C 0.40167 0.13448 0.15579 0.0
C390 C 0.4416 0.13292 0.1567 0.0
C391 C 0.46872 0.16876 0.14797 0.0
C392 C 0.45076 0.11938 0.19278 0.0
C393 C 0.44075 0.1066 0.12723 0.0
C394 C 0.40575 0.09465 0.11233 0.0
C395 C 0.39847 0.07018 0.08456 0.0
C396 C 0.4279 0.05788 0.0715 0.0
C397 C 0.46409 0.07042 0.08605 0.0
C398 C 0.47031 0.09488 0.11441 0.0
H399 H 0.18462 0.86377 0.63998 0.0
H400 H 0.10742 0.81489 0.72349 0.0
H401 H 0.06875 0.85461 0.71075 0.0
H402 H 0.18464 0.94798 0.65712 0.0
H403 H 0.18618 0.96222 0.61158 0.0
H404 H 0.2049 0.9267 0.623 0.0
H405 H 0.16183 0.88601 0.57712 0.0
H406 H 0.14374 0.92176 0.5647 0.0
H407 H 0.11233 0.88086 0.57872 0.0
H408 H 0.04394 0.9053 0.69494 0.0
H409 H 0.0295 0.95764 0.67109 0.0
H410 H 0.12216 0.97222 0.59687 0.0
C411 C 0.15873 0.86038 0.65453 0.0
C412 C 0.14898 0.83622 0.68269 0.0
C413 C 0.11543 0.83331 0.70186 0.0
C414 C 0.09334 0.85578 0.69486 0.0
C415 C 0.10492 0.88067 0.66827 0.0
C416 C 0.13631 0.8825 0.64778 0.0
C417 C 0.1438 0.91283 0.62214 0.0
C418 C 0.18215 0.93896 0.62889 0.0
C419 C 0.14019 0.89957 0.58337 0.0
C420 C 0.11248 0.92843 0.63223 0.0
C421 C 0.09032 0.90952 0.65885 0.0
C422 C 0.06074 0.91996 0.67366 0.0
C423 C 0.05298 0.94995 0.66017 0.0
C424 C 0.07462 0.96902 0.63203 0.0
C425 C 0.10497 0.95817 0.61828 0.0
H426 H 0.79575 0.45403 0.91884 0.0
H427 H 0.79191 0.34552 0.93834 0.0
H428 H 0.84805 0.36457 0.97456 0.0
H429 H 0.89805 0.48151 0.90831 0.0
H430 H 0.9034 0.52401 0.92827 0.0
H431 H 0.86107 0.50236 0.9051 0.0
H432 H 0.82285 0.50823 0.96142 0.0
H433 H 0.86517 0.52949 0.98481 0.0
H434 H 0.8332 0.49081 1.00303 0.0
H435 H 0.90231 0.3944 1.01277 0.0
H436 H 0.95895 0.43333 0.04009 0.0
H437 H 0.93549 0.52273 0.99017 0.0
C438 C 0.80676 0.43422 0.93047 0.0
C439 C 0.78752 0.39802 0.92679 0.0
C440 C 0.80405 0.37335 0.9421 0.0
C441 C 0.83651 0.38389 0.96262 0.0
C442 C 0.85366 0.41944 0.96696 0.0
C443 C 0.84021 0.44433 0.95044 0.0
C444 C 0.86615 0.4808 0.95766 0.0
C445 C 0.88318 0.49819 0.92275 0.0
C446 C 0.8456 0.50368 0.97794 0.0
C447 C 0.89574 0.47227 0.981 0.0
C448 C 0.88738 0.43669 0.98655 0.0
C449 C 0.90942 0.42231 1.00826 0.0
C450 C 0.94143 0.44467 1.02397 0.0
C451 C 0.95182 0.48107 1.01738 0.0
C452 C 0.92838 0.49499 0.99569 0.0
H453 H 0.8083 0.71376 0.43518 0.0
H454 H 0.8473 0.62549 0.40072 0.0
H455 H 0.7927 0.5852 0.42952 0.0
H456 H 0.77359 0.67931 0.52121 0.0
H457 H 0.73353 0.6962 0.5205 0.0
H458 H 0.77529 0.71842 0.49663 0.0
H459 H 0.73742 0.71376 0.43846 0.0
H460 H 0.69552 0.69167 0.46219 0.0
H461 H 0.70959 0.67148 0.42334 0.0
H462 H 0.73466 0.55412 0.46351 0.0
H463 H 0.67601 0.53421 0.49714 0.0
H464 H 0.67285 0.64196 0.51037 0.0
C465 C 0.80549 0.68596 0.43371 0.0
C466 C 0.8325 0.67304 0.41532 0.0
C467 C 0.82709 0.63631 0.41393 0.0
C468 C 0.79618 0.61312 0.43055 0.0
C469 C 0.77045 0.62676 0.44859 0.0
C470 C 0.77458 0.66231 0.4501 0.0
C471 C 0.74255 0.66999 0.47107 0.0
C472 C 0.75712 0.69231 0.50432 0.0
C473 C 0.71993 0.68778 0.44734 0.0
C474 C 0.71984 0.63321 0.48122 0.0
C475 C 0.73666 0.60875 0.46802 0.0
C476 C 0.72128 0.5731 0.47384 0.0
C477 C 0.68776 0.56204 0.49319 0.0
C478 C 0.66935 0.58634 0.50673 0.0
C479 C 0.68601 0.62256 0.50067 0.0
H480 H 0.32171 0.3558 0.2027 0.0
H481 H 0.29182 0.26549 0.1319 0.0
H482 H 0.25575 0.29491 0.09529 0.0
H483 H 0.23564 0.36254 0.21008 0.0
H484 H 0.24632 0.40956 0.21255 0.0
H485 H 0.28037 0.38819 0.22614 0.0
H486 H 0.32839 0.42492 0.1815 0.0
H487 H 0.29463 0.44706 0.16812 0.0
H488 H 0.31613 0.42556 0.13522 0.0
H489 H 0.21152 0.32673 0.0748 0.0
H490 H 0.16375 0.35884 0.07188 0.0
H491 H 0.21748 0.42599 0.15893 0.0
C492 C 0.30854 0.34262 0.17887 0.0
C493 C 0.30972 0.30825 0.17036 0.0
C494 C 0.29218 0.29206 0.1388 0.0
C495 C 0.27133 0.30855 0.11781 0.0
C496 C 0.26826 0.34122 0.12866 0.0
C497 C 0.28675 0.3583 0.15829 0.0
C498 C 0.27364 0.38995 0.16816 0.0
C499 C 0.25806 0.38737 0.20647 0.0
C500 C 0.30507 0.42389 0.16292 0.0
C501 C 0.24319 0.38661 0.14095 0.0
C502 C 0.24134 0.35905 0.11767 0.0
C503 C 0.21329 0.34892 0.09226 0.0
C504 C 0.18623 0.36721 0.09086 0.0
C505 C 0.18707 0.39482 0.11519 0.0
C506 C 0.2163 0.40497 0.14004 0.0
H507 H 0.68204 0.30744 0.97143 0.0
H508 H 0.6474 0.28406 0.86147 0.0
H509 H 0.61459 0.22386 0.87861 0.0
H510 H 0.7023 0.2256 0.98672 0.0
H511 H 0.68647 0.22207 1.03235 0.0
H512 H 0.70458 0.26455 1.01259 0.0
H513 H 0.64364 0.28013 1.02882 0.0
H514 H 0.62538 0.23773 0.04874 0.0
H515 H 0.59958 0.25176 1.01424 0.0
H516 H 0.58703 0.16512 0.90678 0.0
H517 H 0.56686 0.11237 0.94333 0.0
H518 H 0.62283 0.17062 1.03505 0.0
C519 C 0.66788 0.2899 0.9506 0.0
C520 C 0.66775 0.30152 0.91469 0.0
C521 C 0.64771 0.27697 0.88917 0.0
C522 C 0.62916 0.24226 0.89863 0.0
C523 C 0.63083 0.23177 0.93381 0.0
C524 C 0.64971 0.25482 0.95945 0.0
C525 C 0.64834 0.23628 0.99512 0.0
C526 C 0.68777 0.23719 1.00741 0.0
C527 C 0.62802 0.25244 1.0234 0.0
C528 C 0.62582 0.19911 0.98548 0.0
C529 C 0.61584 0.19739 0.94996 0.0
C530 C 0.59472 0.16629 0.93458 0.0
C531 C 0.58329 0.13629 0.95581 0.0
C532 C 0.59302 0.13684 0.99239 0.0
C533 C 0.61496 0.16895 1.00727 0.0
H534 H 0.94405 0.82301 0.3876 0.0
H535 H 0.93928 0.74913 0.47284 0.0
H536 H 0.9646 0.79789 0.51462 0.0
H537 H 0.03137 0.88824 0.41821 0.0
H538 H 1.01552 0.92543 0.40615 0.0
H539 H 0.99952 0.88486 0.38165 0.0
H540 H 0.9312 0.88417 0.39449 0.0
H541 H 0.94698 0.9246 0.41917 0.0
H542 H 0.91614 0.88674 0.43991 0.0
H543 H 0.98501 0.85364 0.54891 0.0
H544 H 1.00265 0.91356 0.57334 0.0
H545 H 0.99752 0.95477 0.46753 0.0
C546 C 0.94918 0.81719 0.41487 0.0
C547 C 0.93962 0.78189 0.42677 0.0
C548 C 0.94619 0.77566 0.46294 0.0
C549 C 0.96063 0.8033 0.48697 0.0
C550 C 0.96882 0.83759 0.4748 0.0
C551 C 0.96377 0.84485 0.43958 0.0
C552 C 0.9739 0.88451 0.43431 0.0
C553 C 1.00705 0.89646 0.40854 0.0
C554 C 0.94003 0.89566 0.42119 0.0
C555 C 0.98475 0.89817 0.47209 0.0
C556 C 0.98149 0.87037 0.49484 0.0
C557 C 0.98802 0.87559 0.53125 0.0
C558 C 0.99794 0.9099 0.54495 0.0
C559 C 1.00176 0.9392 0.52257 0.0
C560 C 0.99542 0.93311 0.48539 0.0
H561 H 0.30591 0.75604 0.60193 0.0
H562 H 0.32814 0.81161 0.70276 0.0
H563 H 0.38155 0.78732 0.71263 0.0
H564 H 0.32974 0.67795 0.62941 0.0
H565 H 0.35111 0.67232 0.58741 0.0
H566 H 0.31405 0.6932 0.58894 0.0
H567 H 0.35657 0.74748 0.5573 0.0
H568 H 0.39371 0.72675 0.55561 0.0
H569 H 0.40137 0.7693 0.57611 0.0
H570 H 0.43323 0.75783 0.71067 0.0
H571 H 0.47945 0.72549 0.69729 0.0
H572 H 0.42445 0.69049 0.59669 0.0
C573 C 0.32209 0.76302 0.62605 0.0
C574 C 0.31325 0.78584 0.65154 0.0
C575 C 0.33471 0.79424 0.68294 0.0
C576 C 0.36501 0.78059 0.68871 0.0
C577 C 0.37335 0.75849 0.66284 0.0
C578 C 0.35252 0.74975 0.63212 0.0
C579 C 0.36777 0.72601 0.60822 0.0
C580 C 0.33895 0.69025 0.60321 0.0
C581 C 0.38062 0.74344 0.57218 0.0
C582 C 0.40054 0.7229 0.63017 0.0
C583 C 0.40321 0.74172 0.66163 0.0
C584 C 0.43145 0.74305 0.68608 0.0
C585 C 0.45773 0.72477 0.67812 0.0
C586 C 0.45575 0.70546 0.64589 0.0
C587 C 0.42656 0.70456 0.62177 0.0
H588 H 0.76575 0.82656 0.86015 0.0
H589 H 0.86467 0.82483 0.91879 0.0
H590 H 0.90126 0.83451 0.86293 0.0
H591 H 0.79223 0.79053 0.77155 0.0
H592 H 0.77256 0.81994 0.74725 0.0
H593 H 0.75226 0.80228 0.78914 0.0
H594 H 0.75978 0.86521 0.81299 0.0
H595 H 0.78035 0.88302 0.77158 0.0
H596 H 0.80529 0.89631 0.81258 0.0
H597 H 0.9294 0.85851 0.80502 0.0
H598 H 0.94631 0.8941 0.75089 0.0
H599 H 0.82924 0.88067 0.72942 0.0
C600 C 0.79485 0.827 0.86095 0.0
C601 C 0.81245 0.82501 0.89365 0.0
C602 C 0.85057 0.82584 0.8939 0.0
C603 C 0.87154 0.83134 0.86227 0.0
C604 C 0.85381 0.8354 0.83067 0.0
C605 C 0.81609 0.83272 0.82973 0.0
C606 C 0.80474 0.84362 0.79401 0.0
C607 C 0.77892 0.81221 0.77432 0.0
C608 C 0.78651 0.87383 0.79807 0.0
C609 C 0.84238 0.85547 0.77595 0.0
C610 C 0.87021 0.84955 0.79702 0.0
C611 C 0.90776 0.8623 0.78781 0.0
C612 C 0.91712 0.88248 0.75694 0.0
C613 C 0.88904 0.89007 0.73593 0.0
C614 C 0.85125 0.87518 0.74494 0.0
H615 H 0.78592 0.21316 0.37883 0.0
H616 H 0.84662 0.31164 0.33145 0.0
H617 H 0.80224 0.30024 0.28111 0.0
H618 H 0.77079 0.16469 0.3006 0.0
H619 H 0.72497 0.13804 0.31267 0.0
H620 H 0.75833 0.15646 0.34681 0.0
H621 H 0.71151 0.18592 0.3761 0.0
H622 H 0.67793 0.1676 0.34193 0.0
H623 H 0.69192 0.21416 0.34997 0.0
H624 H 0.75547 0.27419 0.2325 0.0
H625 H 0.7101 0.23654 0.19092 0.0
H626 H 0.68144 0.15541 0.27091 0.0
C627 C 0.78965 0.23254 0.35806 0.0
C628 C 0.81974 0.2632 0.35889 0.0
C629 C 0.82353 0.28809 0.33141 0.0
C630 C 0.79851 0.2818 0.30274 0.0
C631 C 0.76967 0.25075 0.30228 0.0
C632 C 0.76501 0.22671 0.32946 0.0
C633 C 0.73359 0.19429 0.32174 0.0
C634 C 0.74779 0.16145 0.32036 0.0
C635 C 0.70185 0.19027 0.34906 0.0
C636 C 0.72198 0.20323 0.28539 0.0
C637 C 0.74276 0.23602 0.27466 0.0
C638 C 0.73864 0.24871 0.24089 0.0
C639 C 0.71297 0.22711 0.2174 0.0
C640 C 0.69189 0.19321 0.22781 0.0
C641 C 0.69625 0.18156 0.26247 0.0
H642 H 0.4728 0.61408 0.29784 0.0
H643 H 0.43108 0.69697 0.34209 0.0
H644 H 0.44732 0.68186 0.40264 0.0
H645 H 0.44177 0.55168 0.3696 0.0
H646 H 0.48264 0.53602 0.36759 0.0
H647 H 0.46669 0.55276 0.32814 0.0
H648 H 0.53158 0.59714 0.32046 0.0
H649 H 0.5477 0.58057 0.3599 0.0
H650 H 0.55105 0.62651 0.35663 0.0
H651 H 0.46927 0.65726 0.4595 0.0
H652 H 0.49528 0.62726 0.5058 0.0
H653 H 0.52399 0.56062 0.42469 0.0
C654 C 0.46669 0.62883 0.32034 0.0
C655 C 0.44986 0.65637 0.31489 0.0
C656 C 0.44322 0.67544 0.34518 0.0
C657 C 0.45252 0.66702 0.37983 0.0
C658 C 0.46886 0.63959 0.38416 0.0
C659 C 0.47595 0.62084 0.35509 0.0
C660 C 0.49452 0.59309 0.36669 0.0
C661 C 0.46994 0.5562 0.35746 0.0
C662 C 0.53353 0.59974 0.34992 0.0
C663 C 0.49694 0.59905 0.40686 0.0
C664 C 0.48187 0.62594 0.41643 0.0
C665 C 0.48105 0.63621 0.45206 0.0
C666 C 0.49597 0.61885 0.47835 0.0
C667 C 0.51188 0.59128 0.46939 0.0
C668 C 0.51212 0.58142 0.43286 0.0
H669 H 0.15821 0.44694 0.80181 0.0
H670 H 0.13164 0.34147 0.84366 0.0
H671 H 0.11214 0.36267 0.90034 0.0
H672 H 0.19479 0.49182 0.88452 0.0
H673 H 0.17535 0.528 0.87796 0.0
H674 H 0.18726 0.50503 0.84006 0.0
H675 H 0.11997 0.49293 0.81648 0.0
H676 H 0.10788 0.51591 0.85427 0.0
H677 H 0.08137 0.47151 0.84481 0.0
H678 H 0.09599 0.39467 0.95329 0.0
H679 H 0.08203 0.43427 0.99814 0.0
H680 H 0.11819 0.52117 0.92491 0.0
C681 C 0.14845 0.42823 0.82289 0.0
C682 C 0.14641 0.39208 0.81748 0.0
C683 C 0.13301 0.36892 0.84617 0.0
C684 C 0.12208 0.38086 0.87885 0.0
C685 C 0.12442 0.41633 0.88317 0.0
C686 C 0.13712 0.43978 0.85599 0.0
C687 C 0.13632 0.47655 0.86794 0.0
C688 C 0.17578 0.50185 0.86759 0.0
C689 C 0.10981 0.49002 0.84447 0.0
C690 C 0.12124 0.47006 0.90605 0.0
C691 C 0.11481 0.43502 0.91404 0.0
C692 C 0.10097 0.42212 0.94721 0.0
C693 C 0.09317 0.4452 0.97279 0.0
C694 C 0.09896 0.48143 0.96583 0.0
C695 C 0.11345 0.49389 0.93163 0.0
H696 H 0.69437 0.85914 1.0046 0.0
H697 H 0.77678 0.92227 0.93202 0.0
H698 H 0.74669 0.96964 0.93727 0.0
H699 H 0.61606 0.88801 0.97872 0.0
H700 H 0.59901 0.88956 1.02356 0.0
H701 H 0.62519 0.85918 1.01206 0.0
H702 H 0.67214 0.88476 0.06254 0.0
H703 H 0.64597 0.91511 0.07421 0.0
H704 H 0.69493 0.93109 0.06379 0.0
H705 H 0.70614 1.00967 0.9486 0.0
H706 H 0.66223 0.04181 0.97123 0.0
H707 H 0.61267 0.95597 0.04216 0.0
C708 C 0.7065 0.88293 0.99 0.0
C709 C 0.73762 0.88631 0.96725 0.0
C710 C 0.75215 0.91815 0.94859 0.0
C711 C 0.73548 0.94552 0.95164 0.0
C712 C 0.70483 0.94113 0.9741 0.0
C713 C 0.69088 0.91091 0.99346 0.0
C714 C 0.65902 0.91364 1.01736 0.0
C715 C 0.62268 0.88596 1.0073 0.0
C716 C 0.66861 0.91101 0.05681 0.0
C717 C 0.65726 0.95007 1.00828 0.0
C718 C 0.68345 0.9653 0.9828 0.0
C719 C 0.68585 0.99827 0.96894 0.0
C720 C 0.66092 1.01626 0.98178 0.0
C721 C 0.6349 1.00143 1.0087 0.0
C722 C 0.63304 0.96803 1.02206 0.0
H723 H 0.95646 0.23978 0.44744 0.0
H724 H 0.84289 0.17559 0.43116 0.0
H725 H 0.86051 0.12403 0.45207 0.0
H726 H 1.00314 0.17359 0.42225 0.0
H727 H 0.03812 0.18669 0.45633 0.0
H728 H 0.0176 0.21844 0.43747 0.0
H729 H 0.99822 0.23409 0.50053 0.0
H730 H 0.0188 0.20252 0.51955 0.0
H731 H 0.97062 0.19988 0.52848 0.0
H732 H 0.88868 0.08029 0.47792 0.0
H733 H 0.92571 0.04694 0.50847 0.0
H734 H 0.02123 0.1389 0.50915 0.0
C735 C 0.93531 0.21488 0.44818 0.0
C736 C 0.89835 0.21176 0.43718 0.0
C737 C 0.87158 0.1786 0.43858 0.0
C738 C 0.88125 0.14912 0.4506 0.0
C739 C 0.91782 0.15312 0.46123 0.0
C740 C 0.94447 0.1851 0.46024 0.0
C741 C 0.98132 0.18239 0.47486 0.0
C742 C 1.01185 0.19077 0.446 0.0
C743 C 0.9929 0.20612 0.50781 0.0
C744 C 0.97094 0.14402 0.48473 0.0
C745 C 0.93422 0.12766 0.47639 0.0
C746 C 0.91757 0.09269 0.48433 0.0
C747 C 0.93883 0.074 0.50176 0.0
C748 C 0.97639 0.09027 0.51107 0.0
C749 C 0.99276 0.12562 0.50192 0.0
H750 H 0.32424 0.62863 0.17978 0.0
H751 H 0.3183 0.73579 0.1719 0.0
H752 H 0.26008 0.71569 0.13833 0.0
H753 H 0.28765 0.59969 0.093 0.0
H754 H 0.25975 0.55709 0.10662 0.0
H755 H 0.30113 0.57892 0.13112 0.0
H756 H 0.26245 0.57343 0.18924 0.0
H757 H 0.22102 0.55129 0.16495 0.0
H758 H 0.22215 0.58999 0.1908 0.0
H759 H 0.20516 0.68603 0.10244 0.0
H760 H 0.15171 0.64736 0.07147 0.0
H761 H 0.18726 0.55694 0.10333 0.0
C762 C 0.31039 0.64775 0.17139 0.0
C763 C 0.32675 0.68412 0.17811 0.0
C764 C 0.30733 0.70804 0.16652 0.0
C765 C 0.27395 0.69684 0.14745 0.0
C766 C 0.25933 0.6613 0.14024 0.0
C767 C 0.27634 0.63687 0.15226 0.0
C768 C 0.25367 0.60013 0.14073 0.0
C769 C 0.27695 0.58295 0.11642 0.0
C770 C 0.23895 0.57736 0.17338 0.0
C771 C 0.22176 0.60804 0.12014 0.0
C772 C 0.22607 0.64366 0.12019 0.0
C773 C 0.20128 0.65804 0.10248 0.0
C774 C 0.17089 0.63564 0.08468 0.0
C775 C 0.16472 0.59878 0.08462 0.0
C776 C 0.19088 0.58489 0.10267 0.0
H777 H 0.33522 0.45956 0.72691 0.0
H778 H 0.26636 0.38806 0.6508 0.0
H779 H 0.31391 0.41017 0.60382 0.0
H780 H 0.37225 0.53244 0.66476 0.0
H781 H 0.41778 0.54431 0.68483 0.0
H782 H 0.37714 0.52468 0.71145 0.0
H783 H 0.40671 0.47602 0.73049 0.0
H784 H 0.4473 0.49536 0.7038 0.0
H785 H 0.4217 0.45022 0.6968 0.0
H786 H 0.37167 0.43757 0.56607 0.0
H787 H 0.43301 0.46853 0.54059 0.0
H788 H 0.46426 0.52292 0.64125 0.0
C789 C 0.32976 0.44914 0.70014 0.0
C790 C 0.29657 0.42251 0.69235 0.0
C791 C 0.2911 0.40891 0.65719 0.0
C792 C 0.31809 0.42124 0.63041 0.0
C793 C 0.35063 0.44727 0.63906 0.0
C794 C 0.35641 0.46124 0.67308 0.0
C795 C 0.39436 0.48801 0.67585 0.0
C796 C 0.39012 0.52453 0.68475 0.0
C797 C 0.41896 0.47671 0.70337 0.0
C798 C 0.40931 0.48663 0.63827 0.0
C799 C 0.38364 0.46301 0.61743 0.0
C800 C 0.39175 0.45633 0.58215 0.0
C801 C 0.42684 0.47408 0.56788 0.0
C802 C 0.45373 0.49845 0.58867 0.0
C803 C 0.44442 0.50481 0.62435 0.0
H804 H 0.80317 0.72957 0.05235 0.0
H805 H 0.75101 0.72552 0.94921 0.0
H806 H 0.79535 0.69543 0.92377 0.0
H807 H 0.8942 0.7489 1.02239 0.0
H808 H 0.90975 0.72245 0.05424 0.0
H809 H 0.87146 0.73994 0.06516 0.0
H810 H 0.82919 0.67761 0.07826 0.0
H811 H 0.86761 0.65995 0.06805 0.0
H812 H 0.82401 0.64369 0.04493 0.0
H813 H 0.85063 0.67246 0.90852 0.0
H814 H 0.90786 0.65219 0.90637 0.0
H815 H 0.92143 0.66973 1.02014 0.0
C816 C 0.80037 0.7212 1.02472 0.0
C817 C 0.77351 0.72919 1.00277 0.0
C818 C 0.77107 0.71888 0.96649 0.0
C819 C 0.79625 0.70206 0.95183 0.0
C820 C 0.82323 0.69545 0.97402 0.0
C821 C 0.82492 0.7041 1.00987 0.0
C822 C 0.85738 0.69555 1.02775 0.0
C823 C 0.88481 0.72869 0.04328 0.0
C824 C 0.84372 0.66752 0.05644 0.0
C825 C 0.87417 0.68138 0.99628 0.0
C826 C 0.8543 0.68163 0.96543 0.0
C827 C 0.86603 0.67157 0.93262 0.0
C828 C 0.89856 0.66039 0.93155 0.0
C829 C 0.91851 0.65917 0.96313 0.0
C830 C 0.90618 0.66993 0.99574 0.0
H831 H 0.43732 0.8173 0.21542 0.0
H832 H 0.46132 0.74779 0.1349 0.0
H833 H 0.49333 0.79874 0.09838 0.0
H834 H 0.41717 0.87796 0.15585 0.0
H835 H 0.43851 0.91673 0.18162 0.0
H836 H 0.4206 0.87534 0.20355 0.0
H837 H 0.48501 0.88172 0.23206 0.0
H838 H 0.50306 0.92331 0.21043 0.0
H839 H 0.52577 0.8892 0.20397 0.0
H840 H 0.51767 0.85618 0.06787 0.0
H841 H 0.5355 0.91668 0.04611 0.0
H842 H 0.49806 0.95209 0.14569 0.0
C843 C 0.45037 0.813 0.1906 0.0
C844 C 0.44753 0.77839 0.17837 0.0
C845 C 0.46377 0.77389 0.14513 0.0
C846 C 0.48188 0.80276 0.12411 0.0
C847 C 0.48368 0.83639 0.13646 0.0
C848 C 0.46873 0.84184 0.16907 0.0
C849 C 0.47328 0.88091 0.17497 0.0
C850 C 0.43512 0.88815 0.17925 0.0
C851 C 0.49827 0.89459 0.20728 0.0
C852 C 0.49245 0.89637 0.14038 0.0
C853 C 0.4981 0.87 0.1187 0.0
C854 C 0.51366 0.87702 0.0848 0.0
C855 C 0.52357 0.91166 0.07257 0.0
C856 C 0.51836 0.93953 0.094 0.0
C857 C 0.50287 0.93162 0.12869 0.0
H858 H 0.17942 0.28178 0.69828 0.0
H859 H 0.07655 0.29814 0.73971 0.0
H860 H 0.04144 0.24183 0.7135 0.0
H861 H 0.14075 0.24307 0.61415 0.0
H862 H 0.1679 0.21205 0.6122 0.0
H863 H 0.18574 0.25322 0.63523 0.0
H864 H 0.19397 0.22041 0.69234 0.0
H865 H 0.17618 0.17914 0.66949 0.0
H866 H 0.15463 0.18774 0.71039 0.0
H867 H 0.0164 0.18376 0.68178 0.0
H868 H 1.00341 0.1287 0.6477 0.0
H869 H 0.12141 0.14851 0.62407 0.0
C870 C 0.14948 0.27382 0.70182 0.0
C871 C 0.13122 0.29513 0.7218 0.0
C872 C 0.09187 0.28268 0.72561 0.0
C873 C 0.07143 0.25059 0.71039 0.0
C874 C 0.09025 0.2306 0.69096 0.0
C875 C 0.12843 0.24169 0.68657 0.0
C876 C 0.14162 0.21511 0.66399 0.0
C877 C 0.1601 0.23187 0.62934 0.0
C878 C 0.16818 0.19969 0.68533 0.0
C879 C 0.1049 0.1874 0.65638 0.0
C880 C 0.07572 0.19704 0.67231 0.0
C881 C 0.03913 0.17606 0.66927 0.0
C882 C 0.03203 0.14456 0.64966 0.0
C883 C 0.06117 0.13359 0.63285 0.0
C884 C 0.09828 0.1557 0.63642 0.0
H885 H 0.80639 0.31262 0.47747 0.0
H886 H 0.89289 0.41051 0.46742 0.0
H887 H 0.84487 0.44161 0.45759 0.0
H888 H 0.74205 0.33228 0.41086 0.0
H889 H 0.70121 0.3108 0.43641 0.0
H890 H 0.74246 0.2958 0.43876 0.0
H891 H 0.74316 0.30349 0.50738 0.0
H892 H 0.70204 0.31852 0.50525 0.0
H893 H 0.74347 0.34537 0.52639 0.0
H894 H 0.78815 0.46273 0.45601 0.0
H895 H 0.72591 0.47271 0.46135 0.0
H896 H 0.67543 0.36106 0.4709 0.0
C897 C 0.81506 0.34054 0.47278 0.0
C898 C 0.85311 0.35946 0.47363 0.0
C899 C 0.86374 0.39584 0.46717 0.0
C900 C 0.83673 0.41358 0.46143 0.0
C901 C 0.79931 0.39438 0.4617 0.0
C902 C 0.78841 0.35862 0.46691 0.0
C903 C 0.74629 0.34457 0.46801 0.0
C904 C 0.73217 0.31937 0.43664 0.0
C905 C 0.73298 0.32696 0.50389 0.0
C906 C 0.73524 0.37823 0.46397 0.0
C907 C 0.76631 0.40657 0.45999 0.0
C908 C 0.76358 0.44073 0.45848 0.0
C909 C 0.72823 0.44616 0.46164 0.0
C910 C 0.69612 0.4176 0.46617 0.0
C911 C 0.69958 0.38318 0.4667 0.0
loop_
_geom_bond_atom_site_label_1
_geom_bond_atom_site_label_2
_geom_bond_distance
_geom_bond_site_symmetry_2
_ccdc_geom_bond_type
H0 C7 0.929 . S
H1 C10 0.930 . S
H2 C12 0.929 . S
H3 C4 0.969 . S
C4 H3 0.969 . S
C4 O5 1.550 . S
C4 H6 0.973 . S
O5 C4 1.550 . S
O5 C11 1.412 . S
H6 C4 0.973 . S
C7 H0 0.929 . S
C7 C8 1.400 . S
C7 C9 1.364 . S
C8 C7 1.400 . S
C8 C12 1.377 . S
C9 C7 1.364 . S
C9 C10 1.374 . S
C10 H1 0.930 . S
C10 C9 1.374 . S
C10 C11 1.383 . S
C11 O5 1.412 . S
C11 C10 1.383 . S
C11 C12 1.394 . S
C12 H2 0.929 . S
C12 C8 1.377 . S
C12 C11 1.394 . S
H13 C20 0.929 . S
H14 C23 0.930 . S
H15 C25 0.929 . S
H16 C17 0.969 . S
C17 H16 0.969 . S
C17 O18 1.550 . S
C17 H19 0.973 . S
O18 C17 1.550 . S
O18 C24 1.412 . S
H19 C17 0.973 . S
C20 H13 0.929 . S
C20 C21 1.400 . S
C20 C22 1.364 . S
C21 C20 1.400 . S
C21 C25 1.377 . S
C22 C20 1.364 . S
C22 C23 1.374 . S
C23 H14 0.930 . S
C23 C22 1.374 . S
C23 C24 1.383 . S
C24 O18 1.412 . S
C24 C23 1.383 . S
C24 C25 1.394 . S
C25 H15 0.929 . S
C25 C21 1.377 . S
C25 C24 1.394 . S
H26 C33 0.929 . S
H27 C36 0.930 . S
H28 C38 0.929 . S
H29 C30 0.969 . S
C30 H29 0.969 . S
C30 O31 1.550 . S
C30 H32 0.973 . S
O31 C30 1.550 . S
O31 C37 1.412 . S
H32 C30 0.973 . S
C33 H26 0.929 . S
C33 C34 1.400 . S
C33 C35 1.364 . S
C34 C33 1.400 . S
C34 C38 1.377 . S
C35 C33 1.364 . S
C35 C36 1.374 . S
C36 H27 0.930 . S
C36 C35 1.374 . S
C36 C37 1.383 . S
C37 O31 1.412 . S
C37 C36 1.383 . S
C37 C38 1.394 . S
C38 H28 0.929 . S
C38 C34 1.377 . S
C38 C37 1.394 . S
H39 C46 0.929 . S
H40 C49 0.930 . S
H41 C51 0.929 . S
H42 C43 0.969 . S
C43 H42 0.969 . S
C43 O44 1.550 . S
C43 H45 0.973 . S
O44 C43 1.550 . S
O44 C50 1.412 . S
H45 C43 0.973 . S
C46 H39 0.929 . S
C46 C47 1.400 . S
C46 C48 1.364 . S
C47 C46 1.400 . S
C47 C51 1.377 . S
C48 C46 1.364 . S
C48 C49 1.374 . S
C49 H40 0.930 . S
C49 C48 1.374 . S
C49 C50 1.383 . S
C50 O44 1.412 . S
C50 C49 1.383 . S
C50 C51 1.394 . S
C51 H41 0.929 . S
C51 C47 1.377 . S
C51 C50 1.394 . S
H52 C59 0.929 . S
H53 C62 0.930 . S
H54 C64 0.929 . S
H55 C56 0.969 . S
C56 H55 0.969 . S
C56 O57 1.550 . S
C56 H58 0.973 . S
O57 C56 1.550 . S
O57 C63 1.412 . S
H58 C56 0.973 . S
C59 H52 0.929 . S
C59 C60 1.400 . S
C59 C61 1.364 . S
C60 C59 1.400 . S
C60 C64 1.377 . S
C61 C59 1.364 . S
C61 C62 1.374 . S
C62 H53 0.930 . S
C62 C61 1.374 . S
C62 C63 1.383 . S
C63 O57 1.412 . S
C63 C62 1.383 . S
C63 C64 1.394 . S
C64 H54 0.929 . S
C64 C60 1.377 . S
C64 C63 1.394 . S
H65 C72 0.929 . S
H66 C75 0.930 . S
H67 C77 0.929 . S
H68 C69 0.969 . S
C69 H68 0.969 . S
C69 O70 1.550 . S
C69 H71 0.973 . S
O70 C69 1.550 . S
O70 C76 1.412 . S
H71 C69 0.973 . S
C72 H65 0.929 . S
C72 C73 1.400 . S
C72 C74 1.364 . S
C73 C72 1.400 . S
C73 C77 1.377 . S
C74 C72 1.364 . S
C74 C75 1.374 . S
C75 H66 0.930 . S
C75 C74 1.374 . S
C75 C76 1.383 . S
C76 O70 1.412 . S
C76 C75 1.383 . S
C76 C77 1.394 . S
C77 H67 0.929 . S
C77 C73 1.377 . S
C77 C76 1.394 . S
H78 C85 0.929 . S
H79 C88 0.930 . S
H80 C90 0.929 . S
H81 C82 0.969 . S
C82 H81 0.969 . S
C82 O83 1.550 . S
C82 H84 0.973 . S
O83 C82 1.550 . S
O83 C89 1.412 . S
H84 C82 0.973 . S
C85 H78 0.929 . S
C85 C86 1.400 . S
C85 C87 1.364 . S
C86 C85 1.400 . S
C86 C90 1.377 . S
C87 C85 1.364 . S
C87 C88 1.374 . S
C88 H79 0.930 . S
C88 C87 1.374 . S
C88 C89 1.383 . S
C89 O83 1.412 . S
C89 C88 1.383 . S
C89 C90 1.394 . S
C90 H80 0.929 . S
C90 C86 1.377 . S
C90 C89 1.394 . S
H91 C98 0.929 . S
H92 C101 0.930 . S
H93 C103 0.929 . S
H94 C95 0.969 . S
C95 H94 0.969 . S
C95 O96 1.550 . S
C95 H97 0.973 . S
O96 C95 1.550 . S
O96 C102 1.412 . S
H97 C95 0.973 . S
C98 H91 0.929 . S
C98 C99 1.400 . S
C98 C100 1.364 . S
C99 C98 1.400 . S
C99 C103 1.377 . S
C100 C98 1.364 . S
C100 C101 1.374 . S
C101 H92 0.930 . S
C101 C100 1.374 . S
C101 C102 1.383 . S
C102 O96 1.412 . S
C102 C101 1.383 . S
C102 C103 1.394 . S
C103 H93 0.929 . S
C103 C99 1.377 . S
C103 C102 1.394 . S
Tb104 C113 2.764 . S
Tb104 O114 2.325 . S
Tb104 O117 2.303 . S
Tb104 O121 2.322 1_545 S
Tb104 O122 2.349 1_545 S
Tb104 O125 2.415 . S
Tb104 O126 2.399 . S
Tb105 O115 2.322 . S
Tb105 O116 2.349 1_655 S
Tb105 O118 2.415 1_545 S
Tb105 O119 2.399 . S
Tb105 O120 2.325 1_645 S
Tb105 O123 2.303 1_545 S
Tb105 C134 2.764 1_545 S
C106 O122 1.261 1_655 S
C106 O123 1.257 . S
C107 C110 1.358 . S
C107 C111 1.332 . S
C107 C113 1.504 . S
C108 C109 1.373 . S
C108 C112 1.308 . S
C109 C108 1.373 . S
C109 C110 1.429 . S
C109 H136 0.932 . S
C110 C107 1.358 . S
C110 C109 1.429 . S
C110 H137 0.930 . S
C111 C107 1.332 . S
C111 C112 1.394 . S
C111 H138 0.932 . S
C112 C108 1.308 . S
C112 C111 1.394 . S
C112 H139 0.929 . S
C113 Tb104 2.764 . S
C113 C107 1.504 . S
C113 O125 1.239 . S
C113 O126 1.263 . S
O114 Tb104 2.325 . S
O114 C124 1.236 1_455 S
O115 Tb105 2.322 . S
O115 C124 1.257 . S
O116 Tb105 2.349 1_455 S
O116 C127 1.261 . S
O117 Tb104 2.303 . S
O117 C127 1.257 . S
O118 Tb105 2.415 1_565 S
O118 C134 1.239 . S
O119 Tb105 2.399 . S
O119 C134 1.263 1_545 S
O120 Tb105 2.325 1_465 S
O120 C135 1.236 . S
O121 Tb104 2.322 1_565 S
O121 C135 1.257 . S
O122 Tb104 2.349 1_565 S
O122 C106 1.261 1_455 S
O123 Tb105 2.303 1_565 S
O123 C106 1.257 . S
C124 O114 1.236 1_655 S
C124 O115 1.257 . S
O125 Tb104 2.415 . S
O125 C113 1.239 . S
O126 Tb104 2.399 . S
O126 C113 1.263 . S
C127 O116 1.261 . S
C127 O117 1.257 . S
C128 C131 1.358 . S
C128 C132 1.332 . S
C128 C134 1.504 . S
C129 C130 1.373 . S
C129 C133 1.308 . S
C130 C129 1.373 . S
C130 C131 1.429 . S
C130 H140 0.932 . S
C131 C128 1.358 . S
C131 C130 1.429 . S
C131 H141 0.930 . S
C132 C128 1.332 . S
C132 C133 1.394 . S
C132 H142 0.932 . S
C133 C129 1.308 . S
C133 C132 1.394 . S
C133 H143 0.929 . S
C134 Tb105 2.764 1_565 S
C134 O118 1.239 . S
C134 O119 1.263 1_565 S
C134 C128 1.504 . S
C135 O120 1.236 . S
C135 O121 1.257 . S
H136 C109 0.932 . S
H137 C110 0.930 . S
H138 C111 0.932 . S
H139 C112 0.929 . S
H140 C130 0.932 . S
H141 C131 0.930 . S
H142 C132 0.932 . S
H143 C133 0.929 . S
Tb144 C153 2.764 . S
Tb144 O154 2.325 . S
Tb144 O157 2.303 . S
Tb144 O161 2.322 1_545 S
Tb144 O162 2.349 1_545 S
Tb144 O165 2.415 . S
Tb144 O166 2.399 . S
Tb145 O155 2.322 . S
Tb145 O156 2.349 1_556 S
Tb145 O158 2.415 1_545 S
Tb145 O159 2.399 1_545 S
Tb145 O160 2.325 1_546 S
Tb145 O163 2.303 1_545 S
Tb145 C174 2.764 1_545 S
C146 O162 1.261 1_556 S
C146 O163 1.257 . S
C147 C150 1.358 . S
C147 C151 1.332 . S
C147 C153 1.504 . S
C148 C149 1.373 . S
C148 C152 1.308 . S
C149 C148 1.373 . S
C149 C150 1.429 . S
C149 H176 0.932 . S
C150 C147 1.358 . S
C150 C149 1.429 . S
C150 H177 0.930 . S
C151 C147 1.332 . S
C151 C152 1.394 . S
C151 H178 0.932 . S
C152 C148 1.308 . S
C152 C151 1.394 . S
C152 H179 0.929 . S
C153 Tb144 2.764 . S
C153 C147 1.504 . S
C153 O165 1.239 . S
C153 O166 1.263 . S
O154 Tb144 2.325 . S
O154 C164 1.236 1_554 S
O155 Tb145 2.322 . S
O155 C164 1.257 . S
O156 Tb145 2.349 1_554 S
O156 C167 1.261 . S
O157 Tb144 2.303 . S
O157 C167 1.257 . S
O158 Tb145 2.415 1_565 S
O158 C174 1.239 . S
O159 Tb145 2.399 1_565 S
O159 C174 1.263 . S
O160 Tb145 2.325 1_564 S
O160 C175 1.236 . S
O161 Tb144 2.322 1_565 S
O161 C175 1.257 . S
O162 Tb144 2.349 1_565 S
O162 C146 1.261 1_554 S
O163 Tb145 2.303 1_565 S
O163 C146 1.257 . S
C164 O154 1.236 1_556 S
C164 O155 1.257 . S
O165 Tb144 2.415 . S
O165 C153 1.239 . S
O166 Tb144 2.399 . S
O166 C153 1.263 . S
C167 O156 1.261 . S
C167 O157 1.257 . S
C168 C171 1.358 . S
C168 C172 1.332 . S
C168 C174 1.504 . S
C169 C170 1.373 . S
C169 C173 1.308 . S
C170 C169 1.373 . S
C170 C171 1.429 . S
C170 H180 0.932 . S
C171 C168 1.358 . S
C171 C170 1.429 . S
C171 H181 0.930 . S
C172 C168 1.332 . S
C172 C173 1.394 . S
C172 H182 0.932 . S
C173 C169 1.308 . S
C173 C172 1.394 . S
C173 H183 0.929 . S
C174 Tb145 2.764 1_565 S
C174 O158 1.239 . S
C174 O159 1.263 . S
C174 C168 1.504 . S
C175 O160 1.236 . S
C175 O161 1.257 . S
H176 C149 0.932 . S
H177 C150 0.930 . S
H178 C151 0.932 . S
H179 C152 0.929 . S
H180 C170 0.932 . S
H181 C171 0.930 . S
H182 C172 0.932 . S
H183 C173 0.929 . S
Tb184 C193 2.764 . S
Tb184 O194 2.325 . S
Tb184 O197 2.303 . S
Tb184 O201 2.322 . S
Tb184 O202 2.349 . S
Tb184 O205 2.415 . S
Tb184 O206 2.399 . S
Tb185 O195 2.322 . S
Tb185 O196 2.349 . S
Tb185 O198 2.415 . S
Tb185 O199 2.399 . S
Tb185 O200 2.325 . S
Tb185 O203 2.303 . S
Tb185 C214 2.764 . S
C186 O202 1.261 . S
C186 O203 1.257 . S
C187 C190 1.358 . S
C187 C191 1.332 . S
C187 C193 1.504 . S
C188 C189 1.373 . S
C188 C192 1.308 . S
C189 C188 1.373 . S
C189 C190 1.429 . S
C189 H216 0.932 . S
C190 C187 1.358 . S
C190 C189 1.429 . S
C190 H217 0.930 . S
C191 C187 1.332 . S
C191 C192 1.394 . S
C191 H218 0.932 . S
C192 C188 1.308 . S
C192 C191 1.394 . S
C192 H219 0.929 . S
C193 Tb184 2.764 . S
C193 C187 1.504 . S
C193 O205 1.239 . S
C193 O206 1.263 . S
O194 Tb184 2.325 . S
O194 C204 1.236 . S
O195 Tb185 2.322 . S
O195 C204 1.257 . S
O196 Tb185 2.349 . S
O196 C207 1.261 . S
O197 Tb184 2.303 . S
O197 C207 1.257 . S
O198 Tb185 2.415 . S
O198 C214 1.239 . S
O199 Tb185 2.399 . S
O199 C214 1.263 . S
O200 Tb185 2.325 . S
O200 C215 1.236 . S
O201 Tb184 2.322 . S
O201 C215 1.257 . S
O202 Tb184 2.349 . S
O202 C186 1.261 . S
O203 Tb185 2.303 . S
O203 C186 1.257 . S
C204 O194 1.236 . S
C204 O195 1.257 . S
O205 Tb184 2.415 . S
O205 C193 1.239 . S
O206 Tb184 2.399 . S
O206 C193 1.263 . S
C207 O196 1.261 . S
C207 O197 1.257 . S
C208 C211 1.358 . S
C208 C212 1.332 . S
C208 C214 1.504 . S
C209 C210 1.373 . S
C209 C213 1.308 . S
C210 C209 1.373 . S
C210 C211 1.429 . S
C210 H220 0.932 . S
C211 C208 1.358 . S
C211 C210 1.429 . S
C211 H221 0.930 . S
C212 C208 1.332 . S
C212 C213 1.394 . S
C212 H222 0.932 . S
C213 C209 1.308 . S
C213 C212 1.394 . S
C213 H223 0.929 . S
C214 Tb185 2.764 . S
C214 O198 1.239 . S
C214 O199 1.263 . S
C214 C208 1.504 . S
C215 O200 1.236 . S
C215 O201 1.257 . S
H216 C189 0.932 . S
H217 C190 0.930 . S
H218 C191 0.932 . S
H219 C192 0.929 . S
H220 C210 0.932 . S
H221 C211 0.930 . S
H222 C212 0.932 . S
H223 C213 0.929 . S
Tb224 C233 2.764 1_454 S
Tb224 O234 2.325 1_455 S
Tb224 O237 2.303 . S
Tb224 O241 2.322 . S
Tb224 O242 2.349 1_554 S
Tb224 O245 2.415 1_455 S
Tb224 O246 2.399 1_454 S
Tb225 O235 2.322 1_455 S
Tb225 O236 2.351 . S
Tb225 O238 2.415 . S
Tb225 O239 2.399 . S
Tb225 O240 2.325 . S
Tb225 O243 2.303 . S
Tb225 C254 2.764 . S
C226 O242 1.261 . S
C226 O243 1.257 1_556 S
C227 C230 1.358 . S
C227 C231 1.332 . S
C227 C233 1.504 . S
C228 C229 1.373 . S
C228 C232 1.308 . S
C229 C228 1.373 . S
C229 C230 1.429 . S
C229 H256 0.932 . S
C230 C227 1.358 . S
C230 C229 1.429 . S
C230 H257 0.930 . S
C231 C227 1.332 . S
C231 C232 1.394 . S
C231 H258 0.932 1_556 S
C232 C228 1.308 . S
C232 C231 1.394 . S
C232 H259 0.929 . S
C233 Tb224 2.764 1_656 S
C233 C227 1.504 . S
C233 O245 1.239 1_556 S
C233 O246 1.263 . S
O234 Tb224 2.325 1_655 S
O234 C244 1.236 . S
O235 Tb225 2.322 1_655 S
O235 C244 1.257 . S
O236 Tb225 2.351 . S
O236 C247 1.260 1_455 S
O237 Tb224 2.303 . S
O237 C247 1.257 1_455 S
O238 Tb225 2.415 . S
O238 C254 1.239 . S
O239 Tb225 2.399 . S
O239 C254 1.263 . S
O240 Tb225 2.325 . S
O240 C255 1.236 . S
O241 Tb224 2.322 . S
O241 C255 1.257 . S
O242 Tb224 2.349 1_556 S
O242 C226 1.261 . S
O243 Tb225 2.303 . S
O243 C226 1.257 1_554 S
C244 O234 1.236 . S
C244 O235 1.257 . S
O245 Tb224 2.415 1_655 S
O245 C233 1.239 1_554 S
O246 Tb224 2.399 1_656 S
O246 C233 1.263 . S
C247 O236 1.260 1_655 S
C247 O237 1.257 1_655 S
C248 C251 1.358 . S
C248 C252 1.332 . S
C248 C254 1.504 . S
C249 C250 1.373 . S
C249 C253 1.308 . S
C250 C249 1.373 . S
C250 C251 1.429 . S
C250 H260 0.932 . S
C251 C248 1.358 . S
C251 C250 1.429 . S
C251 H261 0.930 . S
C252 C248 1.332 . S
C252 C253 1.394 . S
C252 H262 0.932 . S
C253 C249 1.308 . S
C253 C252 1.394 . S
C253 H263 0.929 . S
C254 Tb225 2.764 . S
C254 O238 1.239 . S
C254 O239 1.263 . S
C254 C248 1.504 . S
C255 O240 1.236 . S
C255 O241 1.257 . S
H256 C229 0.932 . S
H257 C230 0.930 . S
H258 C231 0.932 1_554 S
H259 C232 0.929 . S
H260 C250 0.932 . S
H261 C251 0.930 . S
H262 C252 0.932 . S
H263 C253 0.929 . S
H264 C276 0.930 . S
H265 C278 0.930 . S
H266 C279 0.930 . S
H267 C283 0.959 . S
H268 C283 0.959 . S
H269 C283 0.961 . S
H270 C284 0.960 . S
H271 C284 0.961 . S
H272 C284 0.959 . S
H273 C287 0.929 . S
H274 C288 0.931 . S
H275 C290 0.930 . S
C276 H264 0.930 . S
C276 C277 1.399 . S
C276 C281 1.399 . S
C277 C276 1.399 . S
C277 C278 1.376 . S
C278 H265 0.930 . S
C278 C277 1.376 . S
C278 C279 1.388 . S
C279 H266 0.930 . S
C279 C278 1.388 . S
C279 C280 1.390 . S
C280 C279 1.390 . S
C280 C281 1.394 . S
C280 C286 1.465 . S
C281 C276 1.399 . S
C281 C280 1.394 . S
C281 C282 1.516 . S
C282 C281 1.516 . S
C282 C283 1.502 . S
C282 C284 1.561 . S
C282 C285 1.526 . S
C283 H267 0.959 . S
C283 H268 0.959 . S
C283 H269 0.961 . S
C283 C282 1.502 . S
C284 H270 0.960 . S
C284 H271 0.961 . S
C284 H272 0.959 . S
C284 C282 1.561 . S
C285 C282 1.526 . S
C285 C286 1.396 . S
C285 C290 1.390 . S
C286 C280 1.465 . S
C286 C285 1.396 . S
C286 C287 1.399 . S
C287 H273 0.929 . S
C287 C286 1.399 . S
C287 C288 1.385 . S
C288 H274 0.931 . S
C288 C287 1.385 . S
C288 C289 1.389 . S
C289 C288 1.389 . S
C289 C290 1.387 . S
C290 H275 0.930 . S
C290 C285 1.390 . S
C290 C289 1.387 . S
H291 C303 0.930 . S
H292 C305 0.930 . S
H293 C306 0.930 . S
H294 C310 0.959 . S
H295 C310 0.959 . S
H296 C310 0.961 . S
H297 C311 0.960 . S
H298 C311 0.961 . S
H299 C311 0.959 . S
H300 C314 0.929 . S
H301 C315 0.931 . S
H302 C317 0.930 . S
C303 H291 0.930 . S
C303 C304 1.399 . S
C303 C308 1.399 . S
C304 C303 1.399 . S
C304 C305 1.376 . S
C305 H292 0.930 . S
C305 C304 1.376 . S
C305 C306 1.388 . S
C306 H293 0.930 . S
C306 C305 1.388 . S
C306 C307 1.390 . S
C307 C306 1.390 . S
C307 C308 1.394 . S
C307 C313 1.465 . S
C308 C303 1.399 . S
C308 C307 1.394 . S
C308 C309 1.516 . S
C309 C308 1.516 . S
C309 C310 1.502 . S
C309 C311 1.561 . S
C309 C312 1.526 . S
C310 H294 0.959 . S
C310 H295 0.959 . S
C310 H296 0.961 . S
C310 C309 1.502 . S
C311 H297 0.960 . S
C311 H298 0.961 . S
C311 H299 0.959 . S
C311 C309 1.561 . S
C312 C309 1.526 . S
C312 C313 1.396 . S
C312 C317 1.390 . S
C313 C307 1.465 . S
C313 C312 1.396 . S
C313 C314 1.399 . S
C314 H300 0.929 . S
C314 C313 1.399 . S
C314 C315 1.385 . S
C315 H301 0.931 . S
C315 C314 1.385 . S
C315 C316 1.389 . S
C316 C315 1.389 . S
C316 C317 1.387 . S
C317 H302 0.930 . S
C317 C312 1.390 . S
C317 C316 1.387 . S
H318 C330 0.930 . S
H319 C332 0.930 . S
H320 C333 0.930 . S
H321 C337 0.959 . S
H322 C337 0.959 . S
H323 C337 0.961 . S
H324 C338 0.960 . S
H325 C338 0.961 . S
H326 C338 0.959 . S
H327 C341 0.929 . S
H328 C342 0.931 . S
H329 C344 0.930 . S
C330 H318 0.930 . S
C330 C331 1.399 . S
C330 C335 1.399 . S
C331 C330 1.399 . S
C331 C332 1.376 . S
C332 H319 0.930 . S
C332 C331 1.376 . S
C332 C333 1.388 . S
C333 H320 0.930 . S
C333 C332 1.388 . S
C333 C334 1.390 . S
C334 C333 1.390 . S
C334 C335 1.394 . S
C334 C340 1.465 . S
C335 C330 1.399 . S
C335 C334 1.394 . S
C335 C336 1.516 . S
C336 C335 1.516 . S
C336 C337 1.502 . S
C336 C338 1.561 . S
C336 C339 1.526 . S
C337 H321 0.959 . S
C337 H322 0.959 . S
C337 H323 0.961 . S
C337 C336 1.502 . S
C338 H324 0.960 . S
C338 H325 0.961 . S
C338 H326 0.959 . S
C338 C336 1.561 . S
C339 C336 1.526 . S
C339 C340 1.396 . S
C339 C344 1.390 . S
C340 C334 1.465 . S
C340 C339 1.396 . S
C340 C341 1.399 . S
C341 H327 0.929 . S
C341 C340 1.399 . S
C341 C342 1.385 . S
C342 H328 0.931 . S
C342 C341 1.385 . S
C342 C343 1.389 . S
C343 C342 1.389 . S
C343 C344 1.387 . S
C344 H329 0.930 . S
C344 C339 1.390 . S
C344 C343 1.387 . S
H345 C357 0.930 . S
H346 C359 0.930 . S
H347 C360 0.930 . S
H348 C364 0.959 1_455 S
H349 C364 0.959 . S
H350 C364 0.961 . S
H351 C365 0.960 . S
H352 C365 0.961 . S
H353 C365 0.959 . S
H354 C368 0.929 . S
H355 C369 0.931 . S
H356 C371 0.930 . S
C357 H345 0.930 . S
C357 C358 1.399 . S
C357 C362 1.399 . S
C358 C357 1.399 . S
C358 C359 1.376 . S
C359 H346 0.930 . S
C359 C358 1.376 . S
C359 C360 1.388 . S
C360 H347 0.930 . S
C360 C359 1.388 . S
C360 C361 1.390 . S
C361 C360 1.390 . S
C361 C362 1.394 . S
C361 C367 1.465 . S
C362 C357 1.399 . S
C362 C361 1.394 . S
C362 C363 1.516 . S
C363 C362 1.516 . S
C363 C364 1.502 . S
C363 C365 1.561 . S
C363 C366 1.526 . S
C364 H348 0.959 1_655 S
C364 H349 0.959 . S
C364 H350 0.961 . S
C364 C363 1.502 . S
C365 H351 0.960 . S
C365 H352 0.961 . S
C365 H353 0.959 . S
C365 C363 1.561 . S
C366 C363 1.526 . S
C366 C367 1.396 . S
C366 C371 1.390 . S
C367 C361 1.465 . S
C367 C366 1.396 . S
C367 C368 1.399 . S
C368 H354 0.929 . S
C368 C367 1.399 . S
C368 C369 1.385 . S
C369 H355 0.931 . S
C369 C368 1.385 . S
C369 C370 1.389 . S
C370 C369 1.389 . S
C370 C371 1.387 . S
C371 H356 0.930 . S
C371 C366 1.390 . S
C371 C370 1.387 . S
H372 C384 0.930 . S
H373 C386 0.930 . S
H374 C387 0.930 . S
H375 C391 0.959 . S
H376 C391 0.959 . S
H377 C391 0.961 . S
H378 C392 0.960 . S
H379 C392 0.961 . S
H380 C392 0.959 . S
H381 C395 0.929 . S
H382 C396 0.931 . S
H383 C398 0.930 . S
C384 H372 0.930 . S
C384 C385 1.399 . S
C384 C389 1.399 . S
C385 C384 1.399 . S
C385 C386 1.376 . S
C386 H373 0.930 . S
C386 C385 1.376 . S
C386 C387 1.388 . S
C387 H374 0.930 . S
C387 C386 1.388 . S
C387 C388 1.390 . S
C388 C387 1.390 . S
C388 C389 1.394 . S
C388 C394 1.465 . S
C389 C384 1.399 . S
C389 C388 1.394 . S
C389 C390 1.516 . S
C390 C389 1.516 . S
C390 C391 1.502 . S
C390 C392 1.561 . S
C390 C393 1.526 . S
C391 H375 0.959 . S
C391 H376 0.959 . S
C391 H377 0.961 . S
C391 C390 1.502 . S
C392 H378 0.960 . S
C392 H379 0.961 . S
C392 H380 0.959 . S
C392 C390 1.561 . S
C393 C390 1.526 . S
C393 C394 1.396 . S
C393 C398 1.390 . S
C394 C388 1.465 . S
C394 C393 1.396 . S
C394 C395 1.399 . S
C395 H381 0.929 . S
C395 C394 1.399 . S
C395 C396 1.385 . S
C396 H382 0.931 . S
C396 C395 1.385 . S
C396 C397 1.389 . S
C397 C396 1.389 . S
C397 C398 1.387 . S
C398 H383 0.930 . S
C398 C393 1.390 . S
C398 C397 1.387 . S
H399 C411 0.930 . S
H400 C413 0.930 . S
H401 C414 0.930 . S
H402 C418 0.959 . S
H403 C418 0.959 . S
H404 C418 0.961 . S
H405 C419 0.960 . S
H406 C419 0.961 . S
H407 C419 0.959 . S
H408 C422 0.929 . S
H409 C423 0.931 . S
H410 C425 0.930 . S
C411 H399 0.930 . S
C411 C412 1.399 . S
C411 C416 1.399 . S
C412 C411 1.399 . S
C412 C413 1.376 . S
C413 H400 0.930 . S
C413 C412 1.376 . S
C413 C414 1.388 . S
C414 H401 0.930 . S
C414 C413 1.388 . S
C414 C415 1.390 . S
C415 C414 1.390 . S
C415 C416 1.394 . S
C415 C421 1.465 . S
C416 C411 1.399 . S
C416 C415 1.394 . S
C416 C417 1.516 . S
C417 C416 1.516 . S
C417 C418 1.502 . S
C417 C419 1.561 . S
C417 C420 1.526 . S
C418 H402 0.959 . S
C418 H403 0.959 . S
C418 H404 0.961 . S
C418 C417 1.502 . S
C419 H405 0.960 . S
C419 H406 0.961 . S
C419 H407 0.959 . S
C419 C417 1.561 . S
C420 C417 1.526 . S
C420 C421 1.396 . S
C420 C425 1.390 . S
C421 C415 1.465 . S
C421 C420 1.396 . S
C421 C422 1.399 . S
C422 H408 0.929 . S
C422 C421 1.399 . S
C422 C423 1.385 . S
C423 H409 0.931 . S
C423 C422 1.385 . S
C423 C424 1.389 . S
C424 C423 1.389 . S
C424 C425 1.387 . S
C425 H410 0.930 . S
C425 C420 1.390 . S
C425 C424 1.387 . S
H426 C438 0.930 . S
H427 C440 0.930 . S
H428 C441 0.930 . S
H429 C445 0.959 . S
H430 C445 0.959 . S
H431 C445 0.961 . S
H432 C446 0.960 . S
H433 C446 0.961 . S
H434 C446 0.959 . S
H435 C449 0.929 . S
H436 C450 0.931 . S
H437 C452 0.930 . S
C438 H426 0.930 . S
C438 C439 1.399 . S
C438 C443 1.399 . S
C439 C438 1.399 . S
C439 C440 1.376 . S
C440 H427 0.930 . S
C440 C439 1.376 . S
C440 C441 1.388 . S
C441 H428 0.930 . S
C441 C440 1.388 . S
C441 C442 1.390 . S
C442 C441 1.390 . S
C442 C443 1.394 . S
C442 C448 1.465 . S
C443 C438 1.399 . S
C443 C442 1.394 . S
C443 C444 1.516 . S
C444 C443 1.516 . S
C444 C445 1.502 . S
C444 C446 1.561 . S
C444 C447 1.526 . S
C445 H429 0.959 . S
C445 H430 0.959 . S
C445 H431 0.961 . S
C445 C444 1.502 . S
C446 H432 0.960 . S
C446 H433 0.961 . S
C446 H434 0.959 . S
C446 C444 1.561 . S
C447 C444 1.526 . S
C447 C448 1.396 . S
C447 C452 1.390 . S
C448 C442 1.465 . S
C448 C447 1.396 . S
C448 C449 1.399 . S
C449 H435 0.929 . S
C449 C448 1.399 . S
C449 C450 1.385 1_556 S
C450 H436 0.931 . S
C450 C449 1.385 1_554 S
C450 C451 1.389 . S
C451 C450 1.389 . S
C451 C452 1.387 1_554 S
C452 H437 0.930 . S
C452 C447 1.390 . S
C452 C451 1.387 1_556 S
H453 C465 0.930 . S
H454 C467 0.930 . S
H455 C468 0.930 . S
H456 C472 0.959 . S
H457 C472 0.959 . S
H458 C472 0.961 . S
H459 C473 0.960 . S
H460 C473 0.961 . S
H461 C473 0.959 . S
H462 C476 0.929 . S
H463 C477 0.931 . S
H464 C479 0.930 . S
C465 H453 0.930 . S
C465 C466 1.399 . S
C465 C470 1.399 . S
C466 C465 1.399 . S
C466 C467 1.376 . S
C467 H454 0.930 . S
C467 C466 1.376 . S
C467 C468 1.388 . S
C468 H455 0.930 . S
C468 C467 1.388 . S
C468 C469 1.390 . S
C469 C468 1.390 . S
C469 C470 1.394 . S
C469 C475 1.465 . S
C470 C465 1.399 . S
C470 C469 1.394 . S
C470 C471 1.516 . S
C471 C470 1.516 . S
C471 C472 1.502 . S
C471 C473 1.561 . S
C471 C474 1.526 . S
C472 H456 0.959 . S
C472 H457 0.959 . S
C472 H458 0.961 . S
C472 C471 1.502 . S
C473 H459 0.960 . S
C473 H460 0.961 . S
C473 H461 0.959 . S
C473 C471 1.561 . S
C474 C471 1.526 . S
C474 C475 1.396 . S
C474 C479 1.390 . S
C475 C469 1.465 . S
C475 C474 1.396 . S
C475 C476 1.399 . S
C476 H462 0.929 . S
C476 C475 1.399 . S
C476 C477 1.385 . S
C477 H463 0.931 . S
C477 C476 1.385 . S
C477 C478 1.389 . S
C478 C477 1.389 . S
C478 C479 1.387 . S
C479 H464 0.930 . S
C479 C474 1.390 . S
C479 C478 1.387 . S
H480 C492 0.930 . S
H481 C494 0.930 . S
H482 C495 0.930 . S
H483 C499 0.959 . S
H484 C499 0.959 . S
H485 C499 0.961 . S
H486 C500 0.960 . S
H487 C500 0.961 . S
H488 C500 0.959 . S
H489 C503 0.929 . S
H490 C504 0.931 . S
H491 C506 0.930 . S
C492 H480 0.930 . S
C492 C493 1.399 . S
C492 C497 1.399 . S
C493 C492 1.399 . S
C493 C494 1.376 . S
C494 H481 0.930 . S
C494 C493 1.376 . S
C494 C495 1.388 . S
C495 H482 0.930 . S
C495 C494 1.388 . S
C495 C496 1.390 . S
C496 C495 1.390 . S
C496 C497 1.394 . S
C496 C502 1.465 . S
C497 C492 1.399 . S
C497 C496 1.394 . S
C497 C498 1.516 . S
C498 C497 1.516 . S
C498 C499 1.502 . S
C498 C500 1.561 . S
C498 C501 1.526 . S
C499 H483 0.959 . S
C499 H484 0.959 . S
C499 H485 0.961 . S
C499 C498 1.502 . S
C500 H486 0.960 . S
C500 H487 0.961 . S
C500 H488 0.959 . S
C500 C498 1.561 . S
C501 C498 1.526 . S
C501 C502 1.396 . S
C501 C506 1.390 . S
C502 C496 1.465 . S
C502 C501 1.396 . S
C502 C503 1.399 . S
C503 H489 0.929 . S
C503 C502 1.399 . S
C503 C504 1.385 . S
C504 H490 0.931 . S
C504 C503 1.385 . S
C504 C505 1.389 . S
C505 C504 1.389 . S
C505 C506 1.387 . S
C506 H491 0.930 . S
C506 C501 1.390 . S
C506 C505 1.387 . S
H507 C519 0.930 . S
H508 C521 0.930 . S
H509 C522 0.930 . S
H510 C526 0.959 . S
H511 C526 0.959 1_554 S
H512 C526 0.955 1_554 S
H513 C527 0.960 . S
H514 C527 0.961 1_554 S
H515 C527 0.959 . S
H516 C530 0.929 . S
H517 C531 0.931 . S
H518 C533 0.950 . S
C519 H507 0.930 . S
C519 C520 1.399 . S
C519 C524 1.399 . S
C520 C519 1.399 . S
C520 C521 1.376 . S
C521 H508 0.930 . S
C521 C520 1.376 . S
C521 C522 1.388 . S
C522 H509 0.930 . S
C522 C521 1.388 . S
C522 C523 1.390 . S
C523 C522 1.390 . S
C523 C524 1.394 . S
C523 C529 1.465 . S
C524 C519 1.399 . S
C524 C523 1.394 . S
C524 C525 1.516 . S
C525 C524 1.516 . S
C525 C526 1.502 . S
C525 C527 1.561 . S
C525 C528 1.526 . S
C526 H510 0.959 . S
C526 H511 0.959 1_556 S
C526 H512 0.955 1_556 S
C526 C525 1.502 . S
C527 H513 0.960 . S
C527 H514 0.961 1_556 S
C527 H515 0.959 . S
C527 C525 1.561 . S
C528 C525 1.526 . S
C528 C529 1.396 . S
C528 C533 1.390 . S
C529 C523 1.465 . S
C529 C528 1.396 . S
C529 C530 1.399 . S
C530 H516 0.929 . S
C530 C529 1.399 . S
C530 C531 1.385 . S
C531 H517 0.931 . S
C531 C530 1.385 . S
C531 C532 1.389 . S
C532 C531 1.389 . S
C532 C533 1.387 . S
C533 H518 0.950 . S
C533 C528 1.390 . S
C533 C532 1.387 . S
H534 C546 0.930 . S
H535 C548 0.930 . S
H536 C549 0.930 . S
H537 C553 0.972 . S
H538 C553 0.959 . S
H539 C553 0.961 . S
H540 C554 0.960 . S
H541 C554 0.961 . S
H542 C554 0.959 . S
H543 C557 0.929 . S
H544 C558 0.931 . S
H545 C560 0.930 . S
C546 H534 0.930 . S
C546 C547 1.399 . S
C546 C551 1.399 . S
C547 C546 1.399 . S
C547 C548 1.376 . S
C548 H535 0.930 . S
C548 C547 1.376 . S
C548 C549 1.388 . S
C549 H536 0.930 . S
C549 C548 1.388 . S
C549 C550 1.390 . S
C550 C549 1.390 . S
C550 C551 1.394 . S
C550 C556 1.465 . S
C551 C546 1.399 . S
C551 C550 1.394 . S
C551 C552 1.516 . S
C552 C551 1.516 . S
C552 C553 1.502 . S
C552 C554 1.561 . S
C552 C555 1.526 . S
C553 H537 0.972 . S
C553 H538 0.959 . S
C553 H539 0.961 . S
C553 C552 1.502 . S
C554 H540 0.960 . S
C554 H541 0.961 . S
C554 H542 0.959 . S
C554 C552 1.561 . S
C555 C552 1.526 . S
C555 C556 1.396 . S
C555 C560 1.390 . S
C556 C550 1.465 . S
C556 C555 1.396 . S
C556 C557 1.399 . S
C557 H543 0.929 . S
C557 C556 1.399 . S
C557 C558 1.385 . S
C558 H544 0.931 . S
C558 C557 1.385 . S
C558 C559 1.389 . S
C559 C558 1.389 . S
C559 C560 1.387 . S
C560 H545 0.930 . S
C560 C555 1.390 . S
C560 C559 1.387 . S
H561 C573 0.930 . S
H562 C575 0.930 . S
H563 C576 0.930 . S
H564 C580 0.959 . S
H565 C580 0.959 . S
H566 C580 0.961 . S
H567 C581 0.960 . S
H568 C581 0.961 . S
H569 C581 0.959 . S
H570 C584 0.929 . S
H571 C585 0.931 . S
H572 C587 0.930 . S
C573 H561 0.930 . S
C573 C574 1.399 . S
C573 C578 1.399 . S
C574 C573 1.399 . S
C574 C575 1.376 . S
C575 H562 0.930 . S
C575 C574 1.376 . S
C575 C576 1.388 . S
C576 H563 0.930 . S
C576 C575 1.388 . S
C576 C577 1.390 . S
C577 C576 1.390 . S
C577 C578 1.394 . S
C577 C583 1.465 . S
C578 C573 1.399 . S
C578 C577 1.394 . S
C578 C579 1.516 . S
C579 C578 1.516 . S
C579 C580 1.502 . S
C579 C581 1.561 . S
C579 C582 1.526 . S
C580 H564 0.959 . S
C580 H565 0.959 . S
C580 H566 0.961 . S
C580 C579 1.502 . S
C581 H567 0.960 . S
C581 H568 0.961 . S
C581 H569 0.959 . S
C581 C579 1.561 . S
C582 C579 1.526 . S
C582 C583 1.396 . S
C582 C587 1.390 . S
C583 C577 1.465 . S
C583 C582 1.396 . S
C583 C584 1.399 . S
C584 H570 0.929 . S
C584 C583 1.399 . S
C584 C585 1.385 . S
C585 H571 0.931 . S
C585 C584 1.385 . S
C585 C586 1.389 . S
C586 C585 1.389 . S
C586 C587 1.387 . S
C587 H572 0.930 . S
C587 C582 1.390 . S
C587 C586 1.387 . S
H588 C600 0.930 . S
H589 C602 0.930 . S
H590 C603 0.930 . S
H591 C607 0.959 . S
H592 C607 0.959 . S
H593 C607 0.961 . S
H594 C608 0.960 . S
H595 C608 0.961 . S
H596 C608 0.959 . S
H597 C611 0.929 . S
H598 C612 0.931 . S
H599 C614 0.930 . S
C600 H588 0.930 . S
C600 C601 1.399 . S
C600 C605 1.399 . S
C601 C600 1.399 . S
C601 C602 1.376 . S
C602 H589 0.930 . S
C602 C601 1.376 . S
C602 C603 1.388 . S
C603 H590 0.930 . S
C603 C602 1.388 . S
C603 C604 1.390 . S
C604 C603 1.390 . S
C604 C605 1.394 . S
C604 C610 1.465 . S
C605 C600 1.399 . S
C605 C604 1.394 . S
C605 C606 1.516 . S
C606 C605 1.516 . S
C606 C607 1.502 . S
C606 C608 1.561 . S
C606 C609 1.526 . S
C607 H591 0.959 . S
C607 H592 0.959 . S
C607 H593 0.961 . S
C607 C606 1.502 . S
C608 H594 0.960 . S
C608 H595 0.961 . S
C608 H596 0.959 . S
C608 C606 1.561 . S
C609 C606 1.526 . S
C609 C610 1.396 . S
C609 C614 1.390 . S
C610 C604 1.465 . S
C610 C609 1.396 . S
C610 C611 1.399 . S
C611 H597 0.929 . S
C611 C610 1.399 . S
C611 C612 1.385 . S
C612 H598 0.931 . S
C612 C611 1.385 . S
C612 C613 1.389 . S
C613 C612 1.389 . S
C613 C614 1.387 . S
C614 H599 0.930 . S
C614 C609 1.390 . S
C614 C613 1.387 . S
H615 C627 0.930 . S
H616 C629 0.930 . S
H617 C630 0.930 . S
H618 C634 0.959 . S
H619 C634 0.959 . S
H620 C634 0.961 . S
H621 C635 0.960 . S
H622 C635 0.961 . S
H623 C635 0.959 . S
H624 C638 0.929 . S
H625 C639 0.931 . S
H626 C641 0.930 . S
C627 H615 0.930 . S
C627 C628 1.399 . S
C627 C632 1.399 . S
C628 C627 1.399 . S
C628 C629 1.376 . S
C629 H616 0.930 . S
C629 C628 1.376 . S
C629 C630 1.388 . S
C630 H617 0.930 . S
C630 C629 1.388 . S
C630 C631 1.390 . S
C631 C630 1.390 . S
C631 C632 1.394 . S
C631 C637 1.465 . S
C632 C627 1.399 . S
C632 C631 1.394 . S
C632 C633 1.516 . S
C633 C632 1.516 . S
C633 C634 1.502 . S
C633 C635 1.561 . S
C633 C636 1.526 . S
C634 H618 0.959 . S
C634 H619 0.959 . S
C634 H620 0.961 . S
C634 C633 1.502 . S
C635 H621 0.960 . S
C635 H622 0.961 . S
C635 H623 0.959 . S
C635 C633 1.561 . S
C636 C633 1.526 . S
C636 C637 1.396 . S
C636 C641 1.390 . S
C637 C631 1.465 . S
C637 C636 1.396 . S
C637 C638 1.399 . S
C638 H624 0.929 . S
C638 C637 1.399 . S
C638 C639 1.385 . S
C639 H625 0.931 . S
C639 C638 1.385 . S
C639 C640 1.389 . S
C640 C639 1.389 . S
C640 C641 1.387 . S
C641 H626 0.930 . S
C641 C636 1.390 . S
C641 C640 1.387 . S
H642 C654 0.930 . S
H643 C656 0.930 . S
H644 C657 0.930 . S
H645 C661 0.959 . S
H646 C661 0.959 . S
H647 C661 0.961 . S
H648 C662 0.960 . S
H649 C662 0.961 . S
H650 C662 0.959 . S
H651 C665 0.929 . S
H652 C666 0.931 . S
H653 C668 0.930 . S
C654 H642 0.930 . S
C654 C655 1.399 . S
C654 C659 1.399 . S
C655 C654 1.399 . S
C655 C656 1.376 . S
C656 H643 0.930 . S
C656 C655 1.376 . S
C656 C657 1.388 . S
C657 H644 0.930 . S
C657 C656 1.388 . S
C657 C658 1.390 . S
C658 C657 1.390 . S
C658 C659 1.394 . S
C658 C664 1.465 . S
C659 C654 1.399 . S
C659 C658 1.394 . S
C659 C660 1.516 . S
C660 C659 1.516 . S
C660 C661 1.502 . S
C660 C662 1.561 . S
C660 C663 1.526 . S
C661 H645 0.959 . S
C661 H646 0.959 . S
C661 H647 0.961 . S
C661 C660 1.502 . S
C662 H648 0.960 . S
C662 H649 0.961 . S
C662 H650 0.959 . S
C662 C660 1.561 . S
C663 C660 1.526 . S
C663 C664 1.396 . S
C663 C668 1.390 . S
C664 C658 1.465 . S
C664 C663 1.396 . S
C664 C665 1.399 . S
C665 H651 0.929 . S
C665 C664 1.399 . S
C665 C666 1.385 . S
C666 H652 0.931 . S
C666 C665 1.385 . S
C666 C667 1.389 . S
C667 C666 1.389 . S
C667 C668 1.387 . S
C668 H653 0.930 . S
C668 C663 1.390 . S
C668 C667 1.387 . S
H669 C681 0.930 . S
H670 C683 0.930 . S
H671 C684 0.930 . S
H672 C688 0.959 . S
H673 C688 0.959 . S
H674 C688 0.961 . S
H675 C689 0.960 . S
H676 C689 0.961 . S
H677 C689 0.959 . S
H678 C692 0.929 . S
H679 C693 0.931 . S
H680 C695 0.930 . S
C681 H669 0.930 . S
C681 C682 1.399 . S
C681 C686 1.399 . S
C682 C681 1.399 . S
C682 C683 1.376 . S
C683 H670 0.930 . S
C683 C682 1.376 . S
C683 C684 1.388 . S
C684 H671 0.930 . S
C684 C683 1.388 . S
C684 C685 1.390 . S
C685 C684 1.390 . S
C685 C686 1.394 . S
C685 C691 1.465 . S
C686 C681 1.399 . S
C686 C685 1.394 . S
C686 C687 1.516 . S
C687 C686 1.516 . S
C687 C688 1.502 . S
C687 C689 1.561 . S
C687 C690 1.526 . S
C688 H672 0.959 . S
C688 H673 0.959 . S
C688 H674 0.961 . S
C688 C687 1.502 . S
C689 H675 0.960 . S
C689 H676 0.961 . S
C689 H677 0.959 . S
C689 C687 1.561 . S
C690 C687 1.526 . S
C690 C691 1.396 . S
C690 C695 1.390 . S
C691 C685 1.465 . S
C691 C690 1.396 . S
C691 C692 1.399 . S
C692 H678 0.929 . S
C692 C691 1.399 . S
C692 C693 1.385 . S
C693 H679 0.931 . S
C693 C692 1.385 . S
C693 C694 1.389 . S
C694 C693 1.389 . S
C694 C695 1.387 . S
C695 H680 0.930 . S
C695 C690 1.390 . S
C695 C694 1.387 . S
H696 C708 0.930 . S
H697 C710 0.930 . S
H698 C711 0.930 . S
H699 C715 0.959 . S
H700 C715 0.959 . S
H701 C715 0.961 . S
H702 C716 0.960 1_554 S
H703 C716 0.961 1_554 S
H704 C716 0.959 . S
H705 C719 0.929 . S
H706 C720 0.931 . S
H707 C722 0.930 . S
C708 H696 0.930 . S
C708 C709 1.399 . S
C708 C713 1.399 . S
C709 C708 1.399 . S
C709 C710 1.376 . S
C710 H697 0.930 . S
C710 C709 1.376 . S
C710 C711 1.388 . S
C711 H698 0.930 . S
C711 C710 1.388 . S
C711 C712 1.390 . S
C712 C711 1.390 . S
C712 C713 1.394 . S
C712 C718 1.465 . S
C713 C708 1.399 . S
C713 C712 1.394 . S
C713 C714 1.516 . S
C714 C713 1.516 . S
C714 C715 1.502 . S
C714 C716 1.561 . S
C714 C717 1.526 . S
C715 H699 0.959 . S
C715 H700 0.959 . S
C715 H701 0.961 . S
C715 C714 1.502 . S
C716 H702 0.960 1_556 S
C716 H703 0.961 1_556 S
C716 H704 0.959 . S
C716 C714 1.561 . S
C717 C714 1.526 . S
C717 C718 1.396 . S
C717 C722 1.390 . S
C718 C712 1.465 . S
C718 C717 1.396 . S
C718 C719 1.399 . S
C719 H705 0.929 . S
C719 C718 1.399 . S
C719 C720 1.385 . S
C720 H706 0.931 . S
C720 C719 1.385 . S
C720 C721 1.389 . S
C721 C720 1.389 . S
C721 C722 1.387 . S
C722 H707 0.930 . S
C722 C717 1.390 . S
C722 C721 1.387 . S
H723 C735 0.930 . S
H724 C737 0.930 . S
H725 C738 0.930 . S
H726 C742 0.959 . S
H727 C742 0.959 . S
H728 C742 0.961 . S
H729 C743 0.960 1_455 S
H730 C743 0.961 1_455 S
H731 C743 0.959 . S
H732 C746 0.929 . S
H733 C747 0.931 . S
H734 C749 0.930 1_455 S
C735 H723 0.930 . S
C735 C736 1.399 . S
C735 C740 1.399 . S
C736 C735 1.399 . S
C736 C737 1.376 . S
C737 H724 0.930 . S
C737 C736 1.376 . S
C737 C738 1.388 . S
C738 H725 0.930 . S
C738 C737 1.388 . S
C738 C739 1.390 . S
C739 C738 1.390 . S
C739 C740 1.394 . S
C739 C745 1.465 . S
C740 C735 1.399 . S
C740 C739 1.394 . S
C740 C741 1.516 . S
C741 C740 1.516 . S
C741 C742 1.502 1_655 S
C741 C743 1.561 . S
C741 C744 1.526 . S
C742 H726 0.959 . S
C742 H727 0.959 . S
C742 H728 0.961 . S
C742 C741 1.502 1_455 S
C743 H729 0.960 1_655 S
C743 H730 0.961 1_655 S
C743 H731 0.959 . S
C743 C741 1.561 . S
C744 C741 1.526 . S
C744 C745 1.396 . S
C744 C749 1.390 . S
C745 C739 1.465 . S
C745 C744 1.396 . S
C745 C746 1.399 . S
C746 H732 0.929 . S
C746 C745 1.399 . S
C746 C747 1.385 . S
C747 H733 0.931 . S
C747 C746 1.385 . S
C747 C748 1.389 . S
C748 C747 1.389 . S
C748 C749 1.387 . S
C749 H734 0.930 1_655 S
C749 C744 1.390 . S
C749 C748 1.387 . S
H750 C762 0.930 . S
H751 C764 0.930 . S
H752 C765 0.930 . S
H753 C769 0.959 . S
H754 C769 0.959 . S
H755 C769 0.961 . S
H756 C770 0.960 . S
H757 C770 0.961 . S
H758 C770 0.959 . S
H759 C773 0.929 . S
H760 C774 0.931 . S
H761 C776 0.930 . S
C762 H750 0.930 . S
C762 C763 1.399 . S
C762 C767 1.399 . S
C763 C762 1.399 . S
C763 C764 1.376 . S
C764 H751 0.930 . S
C764 C763 1.376 . S
C764 C765 1.388 . S
C765 H752 0.930 . S
C765 C764 1.388 . S
C765 C766 1.390 . S
C766 C765 1.390 . S
C766 C767 1.394 . S
C766 C772 1.465 . S
C767 C762 1.399 . S
C767 C766 1.394 . S
C767 C768 1.516 . S
C768 C767 1.516 . S
C768 C769 1.502 . S
C768 C770 1.561 . S
C768 C771 1.526 . S
C769 H753 0.959 . S
C769 H754 0.959 . S
C769 H755 0.961 . S
C769 C768 1.502 . S
C770 H756 0.960 . S
C770 H757 0.961 . S
C770 H758 0.959 . S
C770 C768 1.561 . S
C771 C768 1.526 . S
C771 C772 1.396 . S
C771 C776 1.390 . S
C772 C766 1.465 . S
C772 C771 1.396 . S
C772 C773 1.399 . S
C773 H759 0.929 . S
C773 C772 1.399 . S
C773 C774 1.385 . S
C774 H760 0.931 . S
C774 C773 1.385 . S
C774 C775 1.389 . S
C775 C774 1.389 . S
C775 C776 1.387 . S
C776 H761 0.930 . S
C776 C771 1.390 . S
C776 C775 1.387 . S
H777 C789 0.930 . S
H778 C791 0.930 . S
H779 C792 0.930 . S
H780 C796 0.959 . S
H781 C796 0.959 . S
H782 C796 0.961 . S
H783 C797 0.960 . S
H784 C797 0.961 . S
H785 C797 0.959 . S
H786 C800 0.929 . S
H787 C801 0.931 . S
H788 C803 0.930 . S
C789 H777 0.930 . S
C789 C790 1.399 . S
C789 C794 1.399 . S
C790 C789 1.399 . S
C790 C791 1.376 . S
C791 H778 0.930 . S
C791 C790 1.376 . S
C791 C792 1.388 . S
C792 H779 0.930 . S
C792 C791 1.388 . S
C792 C793 1.390 . S
C793 C792 1.390 . S
C793 C794 1.394 . S
C793 C799 1.465 . S
C794 C789 1.399 . S
C794 C793 1.394 . S
C794 C795 1.516 . S
C795 C794 1.516 . S
C795 C796 1.502 . S
C795 C797 1.561 . S
C795 C798 1.526 . S
C796 H780 0.959 . S
C796 H781 0.959 . S
C796 H782 0.961 . S
C796 C795 1.502 . S
C797 H783 0.960 . S
C797 H784 0.961 . S
C797 H785 0.959 . S
C797 C795 1.561 . S
C798 C795 1.526 . S
C798 C799 1.396 . S
C798 C803 1.390 . S
C799 C793 1.465 . S
C799 C798 1.396 . S
C799 C800 1.399 . S
C800 H786 0.929 . S
C800 C799 1.399 . S
C800 C801 1.385 . S
C801 H787 0.931 . S
C801 C800 1.385 . S
C801 C802 1.389 . S
C802 C801 1.389 . S
C802 C803 1.387 . S
C803 H788 0.930 . S
C803 C798 1.390 . S
C803 C802 1.387 . S
H804 C816 0.930 . S
H805 C818 0.930 . S
H806 C819 0.930 . S
H807 C823 0.959 . S
H808 C823 0.959 . S
H809 C823 0.961 . S
H810 C824 0.960 1_554 S
H811 C824 0.961 1_554 S
H812 C824 0.958 1_554 S
H813 C827 0.929 . S
H814 C828 0.931 . S
H815 C830 0.930 . S
C816 H804 0.930 . S
C816 C817 1.399 . S
C816 C821 1.399 . S
C817 C816 1.399 . S
C817 C818 1.376 . S
C818 H805 0.930 . S
C818 C817 1.376 . S
C818 C819 1.388 . S
C819 H806 0.930 . S
C819 C818 1.388 . S
C819 C820 1.390 . S
C820 C819 1.390 . S
C820 C821 1.394 . S
C820 C826 1.465 . S
C821 C816 1.399 . S
C821 C820 1.394 . S
C821 C822 1.516 . S
C822 C821 1.516 . S
C822 C823 1.502 . S
C822 C824 1.561 . S
C822 C825 1.526 . S
C823 H807 0.959 . S
C823 H808 0.959 . S
C823 H809 0.961 . S
C823 C822 1.502 . S
C824 H810 0.960 1_556 S
C824 H811 0.961 1_556 S
C824 H812 0.958 1_556 S
C824 C822 1.561 . S
C825 C822 1.526 . S
C825 C826 1.396 . S
C825 C830 1.390 . S
C826 C820 1.465 . S
C826 C825 1.396 . S
C826 C827 1.399 . S
C827 H813 0.929 . S
C827 C826 1.399 . S
C827 C828 1.385 . S
C828 H814 0.931 . S
C828 C827 1.385 . S
C828 C829 1.389 . S
C829 C828 1.389 . S
C829 C830 1.387 . S
C830 H815 0.930 . S
C830 C825 1.390 . S
C830 C829 1.387 . S
H831 C843 0.930 . S
H832 C845 0.930 . S
H833 C846 0.930 . S
H834 C850 0.959 . S
H835 C850 0.959 . S
H836 C850 0.961 . S
H837 C851 0.960 . S
H838 C851 0.961 . S
H839 C851 0.959 . S
H840 C854 0.929 . S
H841 C855 0.931 . S
H842 C857 0.930 . S
C843 H831 0.930 . S
C843 C844 1.399 . S
C843 C848 1.399 . S
C844 C843 1.399 . S
C844 C845 1.376 . S
C845 H832 0.930 . S
C845 C844 1.376 . S
C845 C846 1.388 . S
C846 H833 0.930 . S
C846 C845 1.388 . S
C846 C847 1.390 . S
C847 C846 1.390 . S
C847 C848 1.394 . S
C847 C853 1.465 . S
C848 C843 1.399 . S
C848 C847 1.394 . S
C848 C849 1.516 . S
C849 C848 1.516 . S
C849 C850 1.502 . S
C849 C851 1.561 . S
C849 C852 1.526 . S
C850 H834 0.959 . S
C850 H835 0.959 . S
C850 H836 0.961 . S
C850 C849 1.502 . S
C851 H837 0.960 . S
C851 H838 0.961 . S
C851 H839 0.959 . S
C851 C849 1.561 . S
C852 C849 1.526 . S
C852 C853 1.396 . S
C852 C857 1.390 . S
C853 C847 1.465 . S
C853 C852 1.396 . S
C853 C854 1.399 . S
C854 H840 0.929 . S
C854 C853 1.399 . S
C854 C855 1.385 . S
C855 H841 0.931 . S
C855 C854 1.385 . S
C855 C856 1.389 . S
C856 C855 1.389 . S
C856 C857 1.387 . S
C857 H842 0.930 . S
C857 C852 1.390 . S
C857 C856 1.387 . S
H858 C870 0.930 . S
H859 C872 0.930 . S
H860 C873 0.930 . S
H861 C877 0.959 . S
H862 C877 0.959 . S
H863 C877 0.961 . S
H864 C878 0.960 . S
H865 C878 0.961 . S
H866 C878 0.959 . S
H867 C881 0.929 . S
H868 C882 0.931 . S
H869 C884 0.930 . S
C870 H858 0.930 . S
C870 C871 1.399 . S
C870 C875 1.399 . S
C871 C870 1.399 . S
C871 C872 1.376 . S
C872 H859 0.930 . S
C872 C871 1.376 . S
C872 C873 1.388 . S
C873 H860 0.930 . S
C873 C872 1.388 . S
C873 C874 1.390 . S
C874 C873 1.390 . S
C874 C875 1.394 . S
C874 C880 1.465 . S
C875 C870 1.399 . S
C875 C874 1.394 . S
C875 C876 1.516 . S
C876 C875 1.516 . S
C876 C877 1.502 . S
C876 C878 1.561 . S
C876 C879 1.526 . S
C877 H861 0.959 . S
C877 H862 0.959 . S
C877 H863 0.961 . S
C877 C876 1.502 . S
C878 H864 0.960 . S
C878 H865 0.961 . S
C878 H866 0.959 . S
C878 C876 1.561 . S
C879 C876 1.526 . S
C879 C880 1.396 . S
C879 C884 1.390 . S
C880 C874 1.465 . S
C880 C879 1.396 . S
C880 C881 1.399 . S
C881 H867 0.929 . S
C881 C880 1.399 . S
C881 C882 1.385 . S
C882 H868 0.931 . S
C882 C881 1.385 . S
C882 C883 1.389 . S
C883 C882 1.389 . S
C883 C884 1.387 . S
C884 H869 0.930 . S
C884 C879 1.390 . S
C884 C883 1.387 . S
H885 C897 0.930 . S
H886 C899 0.930 . S
H887 C900 0.930 . S
H888 C904 0.959 . S
H889 C904 0.959 . S
H890 C904 0.961 . S
H891 C905 0.960 . S
H892 C905 0.961 . S
H893 C905 0.959 . S
H894 C908 0.929 . S
H895 C909 0.931 . S
H896 C911 0.930 . S
C897 H885 0.930 . S
C897 C898 1.399 . S
C897 C902 1.399 . S
C898 C897 1.399 . S
C898 C899 1.376 . S
C899 H886 0.930 . S
C899 C898 1.376 . S
C899 C900 1.388 . S
C900 H887 0.930 . S
C900 C899 1.388 . S
C900 C901 1.390 . S
C901 C900 1.390 . S
C901 C902 1.394 . S
C901 C907 1.465 . S
C902 C897 1.399 . S
C902 C901 1.394 . S
C902 C903 1.516 . S
C903 C902 1.516 . S
C903 C904 1.502 . S
C903 C905 1.561 . S
C903 C906 1.526 . S
C904 H888 0.959 . S
C904 H889 0.959 . S
C904 H890 0.961 . S
C904 C903 1.502 . S
C905 H891 0.960 . S
C905 H892 0.961 . S
C905 H893 0.959 . S
C905 C903 1.561 . S
C906 C903 1.526 . S
C906 C907 1.396 . S
C906 C911 1.390 . S
C907 C901 1.465 . S
C907 C906 1.396 . S
C907 C908 1.399 . S
C908 H894 0.929 . S
C908 C907 1.399 . S
C908 C909 1.385 . S
C909 H895 0.931 . S
C909 C908 1.385 . S
C909 C910 1.389 . S
C910 C909 1.389 . S
C910 C911 1.387 . S
C911 H896 0.930 . S
C911 C906 1.390 . S
C911 C910 1.387 . S
C277 C9 1.192 . S
C289 C108 1.292 . S
C304 C21 1.020 . S
C316 C169 1.076 . S
C343 C207 2.230 . S
C331 C30 2.227 . S
C358 C43 2.093 . S
C370 C247 2.212 . S
C397 C167 1.141 . S
C385 C4 0.978 . S
C424 C135 2.432 . S
C412 C22 2.370 . S
C451 C244 1.413 . S
C439 C34 1.417 . S
C478 C204 1.733 . S
C466 C48 1.761 . S
C493 C8 1.193 . S
C505 C249 1.167 . S
C532 C164 2.332 . S
C520 C35 2.328 . S
C547 C47 2.386 . S
C559 C106 2.348 . S
C574 C17 1.243 . S
C586 C209 1.358 . S
C613 C129 0.792 . S
C601 C60 0.804 . S
C628 C74 1.209 . S
C640 C148 1.210 . S
C655 C82 2.013 . S
C667 C186 1.983 . S
C682 C100 2.745 . S
C694 C226 2.695 . S
C709 C61 1.504 . S
C721 C146 1.581 . S
C748 C124 1.844 . S
C736 C73 1.721 . S
C775 C255 1.891 . S
C763 C87 1.926 . S
C802 C215 1.611 . S
C790 C95 1.609 . S
C817 C56 1.065 . S
C829 C228 1.062 . S
C856 C175 2.517 . S
C844 C86 2.516 . S
C883 C127 2.242 . S
C871 C99 2.263 . S
C898 C69 1.169 . S
C910 C188 1.201 . S
