# Generated by pormake.
# Topology rtl, (3,6)-cn, num edge types: 1
# Building blocks:
#     Node 0, Type 0, BuildingBlock: ESEHIV_clean_linker_0, # of connection points: 3
#     Node 1, Type 0, BuildingBlock: ESEHIV_clean_linker_0, # of connection points: 3
#     Node 2, Type 0, BuildingBlock: ESEHIV_clean_linker_0, # of connection points: 3
#     Node 3, Type 0, BuildingBlock: ESEHIV_clean_linker_0, # of connection points: 3
#     Node 4, Type 1, BuildingBlock: LEVNOQ01_clean_sbu_1, # of connection points: 6
#     Node 5, Type 1, BuildingBlock: LEVNOQ01_clean_sbu_1, # of connection points: 6
#     Edge 6, Type (0, 1), BuildingBlock: KIFKEQ_clean_linker_1, # of connection points: 2
#     Edge 7, Type (0, 1), BuildingBlock: KIFKEQ_clean_linker_1, # of connection points: 2
#     Edge 8, Type (0, 1), BuildingBlock: KIFKEQ_clean_linker_1, # of connection points: 2
#     Edge 9, Type (0, 1), BuildingBlock: KIFKEQ_clean_linker_1, # of connection points: 2
#     Edge 10, Type (0, 1), BuildingBlock: KIFKEQ_clean_linker_1, # of connection points: 2
#     Edge 11, Type (0, 1), BuildingBlock: KIFKEQ_clean_linker_1, # of connection points: 2
#     Edge 12, Type (0, 1), BuildingBlock: KIFKEQ_clean_linker_1, # of connection points: 2
#     Edge 13, Type (0, 1), BuildingBlock: KIFKEQ_clean_linker_1, # of connection points: 2
#     Edge 14, Type (0, 1), BuildingBlock: KIFKEQ_clean_linker_1, # of connection points: 2
#     Edge 15, Type (0, 1), BuildingBlock: KIFKEQ_clean_linker_1, # of connection points: 2
#     Edge 16, Type (0, 1), BuildingBlock: KIFKEQ_clean_linker_1, # of connection points: 2
#     Edge 17, Type (0, 1), BuildingBlock: KIFKEQ_clean_linker_1, # of connection points: 2
# Relax obj value: 0.026
# Max RMSD: 0.060
# Mean RMSD: 0.045
data_MOF--net-rtl--node1-LEVNOQ01_clean_sbu_1--node2-ESEHIV_clean_linker_0--edge1-KIFKEQ_clean_linker_1
_symmetry_space_group_name_H-M    P1
_symmetry_Int_Tables_number       1
_symmetry_cell_setting            triclinic
loop_
_symmetry_equiv_pos_as_xyz
'x, y, z'
_cell_length_a     29.389638
_cell_length_b     33.367166
_cell_length_c     23.584729
_cell_angle_alpha  90.068161
_cell_angle_beta   97.792124
_cell_angle_gamma 89.925487
loop_
_atom_site_label
_atom_site_type_symbol
_atom_site_fract_x
_atom_site_fract_y
_atom_site_fract_z
_atom_type_partial_charge
H0 H 0.20098 0.9349 0.08112 0.0
H1 H 0.30169 0.86184 0.18347 0.0
H2 H 0.29618 0.86378 0.00064 0.0
C3 C 0.23005 0.91461 0.08458 0.0
C4 C 0.24689 0.90174 0.03453 0.0
C5 C 0.2497 0.90062 0.13877 0.0
C6 C 0.28635 0.87319 0.14222 0.0
C7 C 0.30334 0.85996 0.09269 0.0
C8 C 0.28398 0.87485 0.03913 0.0
H9 H 0.6833 0.59739 0.54916 0.0
H10 H 0.77209 0.68583 0.49064 0.0
H11 H 0.77813 0.66244 0.67078 0.0
C12 C 0.71061 0.61916 0.55863 0.0
C13 C 0.72825 0.62773 0.61585 0.0
C14 C 0.72657 0.63976 0.51326 0.0
C15 C 0.7603 0.66944 0.52552 0.0
C16 C 0.77887 0.67799 0.58242 0.0
C17 C 0.76303 0.65664 0.62704 0.0
H18 H 0.81062 0.08257 0.01106 0.0
H19 H 0.7328 0.17353 0.0833 0.0
H20 H 0.72209 0.16116 0.90066 0.0
C21 C 0.78637 0.10716 0.00507 0.0
C22 C 0.76844 0.11956 0.94937 0.0
C23 C 0.77401 0.12681 0.05346 0.0
C24 C 0.74218 0.15832 0.04596 0.0
C25 C 0.72244 0.17033 0.99096 0.0
C26 C 0.73621 0.1511 0.94301 0.0
H27 H 0.32605 0.41987 0.51622 0.0
H28 H 0.24134 0.32621 0.57012 0.0
H29 H 0.24932 0.34328 0.3909 0.0
C30 C 0.30237 0.39524 0.50576 0.0
C31 C 0.28972 0.3842 0.44821 0.0
C32 C 0.28529 0.37435 0.55002 0.0
C33 C 0.25472 0.34245 0.53618 0.0
C34 C 0.2413 0.33136 0.47879 0.0
C35 C 0.25908 0.35221 0.43509 0.0
O36 O 0.96275 0.09233 0.63227 0.0
Mg37 Mg 0.02937 0.08193 0.61424 0.0
O38 O 0.94956 0.03065 0.60162 0.0
Mg39 Mg 0.00566 0.01096 0.54408 0.0
O40 O 0.03813 0.07422 0.53023 0.0
O41 O 0.05686 0.13015 0.58177 0.0
O42 O 0.06025 0.98865 0.48616 0.0
O43 O 0.95378 0.03382 0.46294 0.0
Mg44 Mg 0.9629 0.95725 0.47598 0.0
O45 O 0.97569 0.94588 0.56172 0.0
O46 O 0.01508 0.95233 0.42451 0.0
O47 O 0.90265 0.9867 0.44375 0.0
O48 O 0.94711 0.90122 0.49425 0.0
C49 C 0.08027 0.01183 0.66754 0.0
C50 C 0.93733 0.06178 0.62718 0.0
C51 C 0.05469 0.11049 0.53437 0.0
C52 C 0.05412 0.96711 0.44103 0.0
C53 C 0.91554 0.02193 0.43589 0.0
C54 C 0.95909 0.91055 0.54712 0.0
O55 O 0.07537 0.04927 0.6729 0.0
O56 O 0.05825 0.99309 0.62509 0.0
O57 O 0.61131 0.50704 0.11745 0.0
Mg58 Mg 0.55183 0.47235 0.10529 0.0
O59 O 0.55209 0.54683 0.10445 0.0
Mg60 Mg 0.5027 0.51322 0.02861 0.0
O61 O 0.5352 0.44774 0.02616 0.0
O62 O 0.568 0.41385 0.10378 0.0
O63 O 0.45383 0.47751 0.95378 0.0
O64 O 0.55511 0.5306 0.96768 0.0
Mg65 Mg 0.45494 0.54858 0.95537 0.0
O66 O 0.4709 0.58026 0.0297 0.0
O67 O 0.39357 0.5159 0.94458 0.0
O68 O 0.50141 0.53832 0.89495 0.0
O69 O 0.43912 0.60666 0.94595 0.0
C70 C 0.46153 0.48748 0.14316 0.0
C71 C 0.59375 0.5405 0.12628 0.0
C72 C 0.55383 0.41532 0.0497 0.0
C73 C 0.41163 0.48302 0.93389 0.0
C74 C 0.54349 0.53508 0.9142 0.0
C75 C 0.45346 0.61076 -0.00035 0.0
O76 O 0.50307 0.4809 0.16256 0.0
O77 O 0.45043 0.49555 0.09037 0.0
H78 H 0.15857 0.32112 0.51548 0.0
H79 H 0.25104 0.26612 0.41097 0.0
H80 H 0.10793 0.26333 0.50068 0.0
H81 H 0.20004 0.2077 0.3959 0.0
H82 H 0.13856 0.09997 0.50209 0.0
H83 H 0.18155 0.15466 0.46594 0.0
H84 H 0.05634 0.22331 0.42961 0.0
H85 H 0.01381 0.16874 0.46686 0.0
C86 C 0.16766 0.29677 0.48869 0.0
C87 C 0.2088 0.29781 0.46484 0.0
C88 C 0.1384 0.26388 0.47949 0.0
C89 C 0.14981 0.23104 0.44665 0.0
C90 C 0.19032 0.23264 0.42116 0.0
C91 C 0.21939 0.26596 0.42977 0.0
C92 C 0.11991 0.1257 0.48291 0.0
C93 C 0.07307 0.13037 0.48713 0.0
C94 C 0.14454 0.15722 0.46257 0.0
C95 C 0.12243 0.19369 0.44648 0.0
C96 C 0.07435 0.1958 0.44277 0.0
C97 C 0.04987 0.16438 0.46329 0.0
H98 H 0.38358 0.85961 0.04659 0.0
H99 H 0.30122 0.7876 0.14526 0.0
H100 H 0.43437 0.80253 0.03846 0.0
H101 H 0.35046 0.72992 0.13512 0.0
H102 H 0.44599 0.62876 0.11225 0.0
H103 H 0.42178 0.69322 0.14883 0.0
H104 H 0.4214 0.74515 0.98084 0.0
H105 H 0.44638 0.68212 0.94559 0.0
C106 C 0.37679 0.83163 0.06712 0.0
C107 C 0.33829 0.82776 0.09589 0.0
C108 C 0.4057 0.79888 0.0624 0.0
C109 C 0.39605 0.7613 0.08515 0.0
C110 C 0.3593 0.75836 0.11745 0.0
C111 C 0.33084 0.79135 0.12299 0.0
C112 C 0.44183 0.65439 0.08385 0.0
C113 C 0.44732 0.65029 0.02589 0.0
C114 C 0.42767 0.69119 0.10458 0.0
C115 C 0.41922 0.72442 0.06773 0.0
C116 C 0.42801 0.72064 0.01088 0.0
C117 C 0.44189 0.68417 0.99035 0.0
H118 H 0.78462 0.73444 0.66763 0.0
H119 H 0.85276 0.6935 0.52699 0.0
H120 H 0.83971 0.78917 0.68533 0.0
H121 H 0.90627 0.74903 0.54277 0.0
H122 H 0.00495 0.8416 0.57331 0.0
H123 H 0.96844 0.78066 0.60205 0.0
H124 H 0.85098 0.85046 0.63576 0.0
H125 H 0.88873 0.91124 0.60936 0.0
C126 C 0.81173 0.7368 0.64096 0.0
C127 C 0.81407 0.70981 0.5955 0.0
C128 C 0.84313 0.76831 0.65094 0.0
C129 C 0.87753 0.77357 0.61566 0.0
C130 C 0.88082 0.74562 0.57159 0.0
C131 C 0.84956 0.71412 0.56173 0.0
C132 C 0.97263 0.84402 0.59041 0.0
C133 C 0.94956 0.88084 0.58944 0.0
C134 C 0.95128 0.8091 0.60582 0.0
C135 C 0.9061 0.81049 0.61922 0.0
C136 C 0.88573 0.84816 0.62558 0.0
C137 C 0.90746 0.88316 0.61088 0.0
H138 H 0.65381 0.18511 0.05563 0.0
H139 H 0.71299 0.23066 0.91056 0.0
H140 H 0.60429 0.24312 0.05292 0.0
H141 H 0.66042 0.2874 0.90464 0.0
H142 H 0.62075 0.40918 0.98279 0.0
H143 H 0.65444 0.34684 0.95462 0.0
H144 H 0.54251 0.2807 0.01181 0.0
H145 H 0.51105 0.34335 0.04352 0.0
C146 C 0.65586 0.2073 0.02259 0.0
C147 C 0.68817 0.2035 0.98413 0.0
C148 C 0.6266 0.24036 0.02019 0.0
C149 C 0.62815 0.27034 0.97855 0.0
C150 C 0.65865 0.26535 0.93791 0.0
C151 C 0.68851 0.23248 0.94089 0.0
C152 C 0.60263 0.38133 0.98723 0.0
C153 C 0.56347 0.38073 0.01504 0.0
C154 C 0.62188 0.34544 0.97113 0.0
C155 C 0.60189 0.30836 0.98212 0.0
C156 C 0.55973 0.30848 0.00434 0.0
C157 C 0.54116 0.34433 0.02164 0.0
H158 H 0.23522 0.85298 0.22878 0.0
H159 H 0.21924 0.97492 0.16766 0.0
H160 H 0.19774 0.87051 0.31112 0.0
H161 H 0.17977 0.99204 0.2494 0.0
H162 H 0.12955 0.01292 0.42477 0.0
H163 H 0.18508 -0.00163 0.35792 0.0
H164 H 0.11671 0.88578 0.31415 0.0
H165 H 0.06237 0.90001 0.37994 0.0
C166 C 0.22441 0.88372 0.23331 0.0
C167 C 0.23 0.91247 0.19127 0.0
C168 C 0.20257 0.89369 0.28037 0.0
C169 C 0.18545 0.93257 0.28651 0.0
C170 C 0.19285 0.96189 0.24604 0.0
C171 C 0.21485 0.95192 0.19881 0.0
C172 C 0.12718 0.98482 0.4015 0.0
C173 C 0.09161 0.95768 0.40729 0.0
C174 C 0.15862 0.97663 0.36304 0.0
C175 C 0.1553 0.94087 0.33089 0.0
C176 C 0.12071 0.9133 0.33874 0.0
C177 C 0.08929 0.92163 0.37622 0.0
H178 H 0.71299 0.66154 0.7174 0.0
H179 H 0.69905 0.54976 0.62358 0.0
H180 H 0.67687 0.63143 0.79365 0.0
H181 H 0.66109 0.52019 0.69957 0.0
H182 H 0.53132 0.52054 0.79998 0.0
H183 H 0.58352 0.53662 0.73144 0.0
H184 H 0.68536 0.57592 0.86956 0.0
H185 H 0.63298 0.55942 0.93869 0.0
C186 C 0.70314 0.6303 0.71342 0.0
C187 C 0.70892 0.60816 0.66404 0.0
C188 C 0.68238 0.61308 0.75727 0.0
C189 C 0.6663 0.57349 0.75255 0.0
C190 C 0.67303 0.55088 0.70407 0.0
C191 C 0.6944 0.56795 0.66042 0.0
C192 C 0.56516 0.53194 0.81585 0.0
C193 C 0.57795 0.53918 0.87455 0.0
C194 C 0.59516 0.54084 0.77663 0.0
C195 C 0.63834 0.55769 0.79521 0.0
C196 C 0.65209 0.56315 0.85419 0.0
C197 C 0.62226 0.55359 0.89366 0.0
H198 H 0.80982 0.17498 0.14259 0.0
H199 H 0.784 0.05099 0.09659 0.0
H200 H 0.84137 0.15463 0.23979 0.0
H201 H 0.81605 0.03067 0.19311 0.0
H202 H 0.8296 0.00801 0.38095 0.0
H203 H 0.79426 0.03659 0.29085 0.0
H204 H 0.90949 0.11671 0.2908 0.0
H205 H 0.94511 0.08813 0.38182 0.0
C206 C 0.81082 0.1434 0.15332 0.0
C207 C 0.7943 0.11454 0.11204 0.0
C208 C 0.82916 0.13179 0.20879 0.0
C209 C 0.83083 0.09112 0.22423 0.0
C210 C 0.81459 0.06231 0.18277 0.0
C211 C 0.79667 0.07387 0.12731 0.0
C212 C 0.84714 0.03219 0.36238 0.0
C213 C 0.89048 0.04541 0.38822 0.0
C214 C 0.82701 0.04837 0.31048 0.0
C215 C 0.84958 0.07824 0.2831 0.0
C216 C 0.89135 0.09362 0.31086 0.0
C217 C 0.91166 0.07731 0.36302 0.0
H218 H 0.31815 0.32567 0.63974 0.0
H219 H 0.28544 0.44901 0.5967 0.0
H220 H 0.34505 0.34556 0.73891 0.0
H221 H 0.312 0.4688 0.69533 0.0
H222 H 0.32277 0.48884 0.88355 0.0
H223 H 0.28883 0.45814 0.7941 0.0
H224 H 0.41214 0.38864 0.78902 0.0
H225 H 0.44661 0.4196 0.87887 0.0
C226 C 0.31632 0.35693 0.65169 0.0
C227 C 0.29977 0.38585 0.61062 0.0
C228 C 0.33192 0.36829 0.70822 0.0
C229 C 0.33039 0.40867 0.72489 0.0
C230 C 0.31308 0.43739 0.68393 0.0
C231 C 0.29821 0.42615 0.62739 0.0
C232 C 0.34243 0.46639 0.86417 0.0
C233 C 0.38773 0.45713 0.88803 0.0
C234 C 0.32299 0.44898 0.8127 0.0
C235 C 0.34815 0.4216 0.78407 0.0
C236 C 0.39197 0.40972 0.81017 0.0
C237 C 0.41167 0.42742 0.86168 0.0
H238 H 0.71891 0.566 0.46397 0.0
H239 H 0.69283 0.69123 0.42699 0.0
H240 H 0.68946 0.54901 0.36503 0.0
H241 H 0.66269 0.67408 0.32753 0.0
H242 H 0.55778 0.60219 0.18414 0.0
H243 H 0.592 0.63124 0.2757 0.0
H244 H 0.71624 0.56396 0.2666 0.0
H245 H 0.68279 0.53545 0.17545 0.0
C246 C 0.70669 0.58985 0.43465 0.0
C247 C 0.70819 0.6299 0.45308 0.0
C248 C 0.69016 0.5802 0.37797 0.0
C249 C 0.6741 0.6103 0.33856 0.0
C250 C 0.6749 0.65036 0.35706 0.0
C251 C 0.69229 0.66013 0.41372 0.0
C252 C 0.5929 0.59461 0.20079 0.0
C253 C 0.61728 0.56605 0.17283 0.0
C254 C 0.6124 0.61113 0.25328 0.0
C255 C 0.65638 0.59915 0.27867 0.0
C256 C 0.68196 0.57313 0.24847 0.0
C257 C 0.66279 0.55698 0.19607 0.0
H258 H 0.85491 0.09106 0.93967 0.0
H259 H 0.72051 0.1069 0.84155 0.0
H260 H 0.88424 0.06727 0.85423 0.0
H261 H 0.7516 0.08589 0.75519 0.0
H262 H 0.87649 0.12153 0.63826 0.0
H263 H 0.82593 0.12686 0.71227 0.0
H264 H 0.86291 0.00676 0.76837 0.0
H265 H 0.91224 0.00076 0.69269 0.0
C266 C 0.8312 0.08876 0.90048 0.0
C267 C 0.78518 0.10131 0.89803 0.0
C268 C 0.84824 0.07523 0.85141 0.0
C269 C 0.82005 0.0747 0.79848 0.0
C270 C 0.77388 0.08603 0.79575 0.0
C271 C 0.7564 0.09858 0.84518 0.0
C272 C 0.87227 0.09571 0.66485 0.0
C273 C 0.89807 0.06074 0.65986 0.0
C274 C 0.84342 0.09875 0.70708 0.0
C275 C 0.84086 0.06726 0.74586 0.0
C276 C 0.8643 0.0313 0.73863 0.0
C277 C 0.89222 0.02783 0.69525 0.0
H278 H 0.37941 0.40347 0.44739 0.0
H279 H 0.2464 0.41105 0.34471 0.0
H280 H 0.41438 0.43509 0.37151 0.0
H281 H 0.28141 0.4437 0.26835 0.0
H282 H 0.37836 0.44956 0.12419 0.0
H283 H 0.33168 0.42913 0.19774 0.0
H284 H 0.4208 0.49672 0.324 0.0
H285 H 0.46826 0.51513 0.25128 0.0
C286 C 0.35751 0.41262 0.40888 0.0
C287 C 0.31017 0.40496 0.40214 0.0
C288 C 0.3775 0.43094 0.36532 0.0
C289 C 0.35065 0.44246 0.31391 0.0
C290 C 0.30313 0.43501 0.30719 0.0
C291 C 0.28309 0.41635 0.35087 0.0
C292 C 0.38706 0.46074 0.16745 0.0
C293 C 0.42704 0.48341 0.1825 0.0
C294 C 0.36042 0.44908 0.20962 0.0
C295 C 0.37318 0.46046 0.26715 0.0
C296 C 0.41084 0.48631 0.28059 0.0
C297 C 0.43778 0.49722 0.23889 0.0
H298 H 0.15522 0.90208 0.99407 0.0
H299 H 0.28794 0.92997 0.94528 0.0
H300 H 0.11819 0.92367 0.8998 0.0
H301 H 0.2509 0.95161 0.85099 0.0
H302 H 0.15583 0.0407 0.73359 0.0
H303 H 0.19829 0.01028 0.8187 0.0
H304 H 0.11319 0.90473 0.79269 0.0
H305 H 0.07077 0.93517 0.70642 0.0
C306 C 0.17643 0.9129 0.96319 0.0
C307 C 0.22443 0.9147 0.97718 0.0
C308 C 0.1553 0.92476 0.90903 0.0
C309 C 0.18167 0.93918 0.86799 0.0
C310 C 0.22971 0.94068 0.88183 0.0
C311 C 0.25088 0.92827 0.93569 0.0
C312 C 0.14669 0.01068 0.74539 0.0
C313 C 0.10993 0.99032 0.71344 0.0
C314 C 0.17112 0.99323 0.79404 0.0
C315 C 0.15889 0.95525 0.81253 0.0
C316 C 0.12312 0.93419 0.77956 0.0
C317 C 0.09914 0.95142 0.73002 0.0
loop_
_geom_bond_atom_site_label_1
_geom_bond_atom_site_label_2
_geom_bond_distance
_geom_bond_site_symmetry_2
_ccdc_geom_bond_type
H0 C3 0.931 . S
H1 C6 0.928 . S
H2 C8 0.930 . S
C3 H0 0.931 . S
C3 C4 1.413 . S
C3 C5 1.360 . S
C4 C3 1.413 . S
C4 C8 1.429 . S
C5 C3 1.360 . S
C5 C6 1.372 . S
C6 H1 0.928 . S
C6 C5 1.372 . S
C6 C7 1.404 . S
C7 C6 1.404 . S
C7 C8 1.391 . S
C8 H2 0.930 . S
C8 C4 1.429 . S
C8 C7 1.391 . S
H9 C12 0.931 . S
H10 C15 0.928 . S
H11 C17 0.930 . S
C12 H9 0.931 . S
C12 C13 1.413 . S
C12 C14 1.360 . S
C13 C12 1.413 . S
C13 C17 1.429 . S
C14 C12 1.360 . S
C14 C15 1.372 . S
C15 H10 0.928 . S
C15 C14 1.372 . S
C15 C16 1.404 . S
C16 C15 1.404 . S
C16 C17 1.391 . S
C17 H11 0.930 . S
C17 C13 1.429 . S
C17 C16 1.391 . S
H18 C21 0.931 . S
H19 C24 0.928 . S
H20 C26 0.930 . S
C21 H18 0.931 . S
C21 C22 1.413 1_554 S
C21 C23 1.360 . S
C22 C21 1.413 1_556 S
C22 C26 1.429 . S
C23 C21 1.360 . S
C23 C24 1.372 . S
C24 H19 0.928 . S
C24 C23 1.372 . S
C24 C25 1.404 1_554 S
C25 C24 1.404 1_556 S
C25 C26 1.391 . S
C26 H20 0.930 . S
C26 C22 1.429 . S
C26 C25 1.391 . S
H27 C30 0.931 . S
H28 C33 0.928 . S
H29 C35 0.930 . S
C30 H27 0.931 . S
C30 C31 1.413 . S
C30 C32 1.360 . S
C31 C30 1.413 . S
C31 C35 1.429 . S
C32 C30 1.360 . S
C32 C33 1.372 . S
C33 H28 0.928 . S
C33 C32 1.372 . S
C33 C34 1.404 . S
C34 C33 1.404 . S
C34 C35 1.391 . S
C35 H29 0.930 . S
C35 C31 1.429 . S
C35 C34 1.391 . S
O36 Mg37 1.990 1_655 S
O36 C50 1.253 . S
Mg37 O36 1.990 1_455 S
Mg37 O40 2.180 . S
Mg37 O41 2.117 . S
Mg37 O55 2.030 . S
O38 Mg39 2.072 1_655 S
O38 C50 1.260 . S
Mg39 O38 2.072 1_455 S
Mg39 O40 2.099 . S
Mg39 O42 2.079 1_545 S
Mg39 O43 2.072 1_455 S
Mg39 O45 2.099 1_445 S
Mg39 O56 2.079 1_545 S
O40 Mg37 2.180 . S
O40 Mg39 2.099 . S
O40 C51 1.279 . S
O41 Mg37 2.117 . S
O41 C51 1.250 . S
O42 Mg39 2.079 1_565 S
O42 C52 1.264 . S
O43 Mg39 2.072 1_655 S
O43 C53 1.260 . S
Mg44 O45 2.180 . S
Mg44 O46 2.030 1_655 S
Mg44 O47 1.990 . S
Mg44 O48 2.117 . S
O45 Mg39 2.099 1_665 S
O45 Mg44 2.180 . S
O45 C54 1.279 . S
O46 Mg44 2.030 1_455 S
O46 C52 1.248 . S
O47 Mg44 1.990 . S
O47 C53 1.253 1_565 S
O48 Mg44 2.117 . S
O48 C54 1.250 . S
C49 O55 1.248 1_565 S
C49 O56 1.264 . S
C50 O36 1.253 . S
C50 O38 1.260 . S
C51 O40 1.279 . S
C51 O41 1.250 . S
C52 O42 1.264 . S
C52 O46 1.248 . S
C53 O43 1.260 . S
C53 O47 1.253 1_545 S
C54 O45 1.279 . S
C54 O48 1.250 . S
O55 Mg37 2.030 . S
O55 C49 1.248 1_545 S
O56 Mg39 2.079 1_565 S
O56 C49 1.264 . S
O57 Mg58 1.990 . S
O57 C71 1.253 . S
Mg58 O57 1.990 . S
Mg58 O61 2.180 . S
Mg58 O62 2.117 . S
Mg58 O76 2.030 . S
O59 Mg60 2.072 . S
O59 C71 1.260 . S
Mg60 O59 2.072 . S
Mg60 O61 2.099 . S
Mg60 O63 2.079 1_554 S
Mg60 O64 2.072 1_554 S
Mg60 O66 2.099 . S
Mg60 O77 2.079 . S
O61 Mg58 2.180 . S
O61 Mg60 2.099 . S
O61 C72 1.279 . S
O62 Mg58 2.117 . S
O62 C72 1.250 . S
O63 Mg60 2.079 1_556 S
O63 C73 1.264 . S
O64 Mg60 2.072 1_556 S
O64 C74 1.260 . S
Mg65 O66 2.180 1_556 S
Mg65 O67 2.030 . S
Mg65 O68 1.990 . S
Mg65 O69 2.117 . S
O66 Mg60 2.099 . S
O66 Mg65 2.180 1_554 S
O66 C75 1.279 . S
O67 Mg65 2.030 . S
O67 C73 1.248 . S
O68 Mg65 1.990 . S
O68 C74 1.253 . S
O69 Mg65 2.117 . S
O69 C75 1.250 1_556 S
C70 O76 1.248 . S
C70 O77 1.264 . S
C71 O57 1.253 . S
C71 O59 1.260 . S
C72 O61 1.279 . S
C72 O62 1.250 . S
C73 O63 1.264 . S
C73 O67 1.248 . S
C74 O64 1.260 . S
C74 O68 1.253 . S
C75 O66 1.279 . S
C75 O69 1.250 1_554 S
O76 Mg58 2.030 . S
O76 C70 1.248 . S
O77 Mg60 2.079 . S
O77 C70 1.264 . S
H78 C86 0.950 . S
H79 C91 0.950 . S
H80 C88 0.950 . S
H81 C90 0.950 . S
H82 C92 0.950 . S
H83 C94 0.950 . S
H84 C96 0.950 . S
H85 C97 0.950 . S
C86 H78 0.950 . S
C86 C87 1.386 . S
C86 C88 1.391 . S
C87 C86 1.386 . S
C87 C91 1.393 . S
C88 H80 0.950 . S
C88 C86 1.391 . S
C88 C89 1.400 . S
C89 C88 1.400 . S
C89 C90 1.398 . S
C89 C95 1.491 . S
C90 H81 0.950 . S
C90 C89 1.398 . S
C90 C91 1.391 . S
C91 H79 0.950 . S
C91 C87 1.393 . S
C91 C90 1.391 . S
C92 H82 0.950 . S
C92 C93 1.386 . S
C92 C94 1.391 . S
C93 C92 1.386 . S
C93 C97 1.393 . S
C94 H83 0.950 . S
C94 C92 1.391 . S
C94 C95 1.400 . S
C95 C89 1.491 . S
C95 C94 1.400 . S
C95 C96 1.398 . S
C96 H84 0.950 . S
C96 C95 1.398 . S
C96 C97 1.391 . S
C97 H85 0.950 . S
C97 C93 1.393 . S
C97 C96 1.391 . S
H98 C106 0.950 . S
H99 C111 0.950 . S
H100 C108 0.950 . S
H101 C110 0.950 . S
H102 C112 0.950 1_556 S
H103 C114 0.950 1_556 S
H104 C116 0.950 . S
H105 C117 0.950 . S
C106 H98 0.950 . S
C106 C107 1.386 . S
C106 C108 1.391 . S
C107 C106 1.386 . S
C107 C111 1.393 . S
C108 H100 0.950 . S
C108 C106 1.391 . S
C108 C109 1.400 . S
C109 C108 1.400 . S
C109 C110 1.398 . S
C109 C115 1.491 . S
C110 H101 0.950 . S
C110 C109 1.398 . S
C110 C111 1.391 . S
C111 H99 0.950 . S
C111 C107 1.393 . S
C111 C110 1.391 . S
C112 H102 0.950 1_554 S
C112 C113 1.386 . S
C112 C114 1.391 . S
C113 C112 1.386 . S
C113 C117 1.393 . S
C114 H103 0.950 1_554 S
C114 C112 1.391 . S
C114 C115 1.400 . S
C115 C109 1.491 . S
C115 C114 1.400 . S
C115 C116 1.398 . S
C116 H104 0.950 . S
C116 C115 1.398 . S
C116 C117 1.391 . S
C117 H105 0.950 . S
C117 C113 1.393 . S
C117 C116 1.391 . S
H118 C126 0.950 . S
H119 C131 0.950 . S
H120 C128 0.950 . S
H121 C130 0.950 . S
H122 C132 0.950 . S
H123 C134 0.950 . S
H124 C136 0.950 . S
H125 C137 0.950 . S
C126 H118 0.950 . S
C126 C127 1.386 . S
C126 C128 1.391 . S
C127 C126 1.386 . S
C127 C131 1.393 . S
C128 H120 0.950 . S
C128 C126 1.391 . S
C128 C129 1.400 . S
C129 C128 1.400 . S
C129 C130 1.398 . S
C129 C135 1.491 . S
C130 H121 0.950 . S
C130 C129 1.398 . S
C130 C131 1.391 . S
C131 H119 0.950 . S
C131 C127 1.393 . S
C131 C130 1.391 . S
C132 H122 0.950 . S
C132 C133 1.386 . S
C132 C134 1.391 . S
C133 C132 1.386 . S
C133 C137 1.393 . S
C134 H123 0.950 . S
C134 C132 1.391 . S
C134 C135 1.400 . S
C135 C129 1.491 . S
C135 C134 1.400 . S
C135 C136 1.398 . S
C136 H124 0.950 . S
C136 C135 1.398 . S
C136 C137 1.391 . S
C137 H125 0.950 . S
C137 C133 1.393 . S
C137 C136 1.391 . S
H138 C146 0.950 . S
H139 C151 0.950 . S
H140 C148 0.950 . S
H141 C150 0.950 . S
H142 C152 0.950 . S
H143 C154 0.950 . S
H144 C156 0.950 . S
H145 C157 0.950 . S
C146 H138 0.950 . S
C146 C147 1.388 . S
C146 C148 1.391 . S
C147 C146 1.388 . S
C147 C151 1.391 1_554 S
C148 H140 0.950 . S
C148 C146 1.391 . S
C148 C149 1.400 . S
C149 C148 1.400 . S
C149 C150 1.398 1_554 S
C149 C155 1.491 . S
C150 H141 0.950 . S
C150 C149 1.398 1_556 S
C150 C151 1.391 . S
C151 H139 0.950 . S
C151 C147 1.391 1_556 S
C151 C150 1.391 . S
C152 H142 0.950 . S
C152 C153 1.386 1_556 S
C152 C154 1.391 . S
C153 C152 1.386 1_554 S
C153 C157 1.393 . S
C154 H143 0.950 . S
C154 C152 1.391 . S
C154 C155 1.400 1_556 S
C155 C149 1.491 . S
C155 C154 1.400 1_554 S
C155 C156 1.398 . S
C156 H144 0.950 . S
C156 C155 1.398 . S
C156 C157 1.391 . S
C157 H145 0.950 . S
C157 C153 1.393 . S
C157 C156 1.391 . S
H158 C166 0.950 . S
H159 C171 0.950 . S
H160 C168 0.950 . S
H161 C170 0.950 . S
H162 C172 0.950 1_545 S
H163 C174 0.950 . S
H164 C176 0.950 . S
H165 C177 0.950 . S
C166 H158 0.950 . S
C166 C167 1.386 . S
C166 C168 1.391 . S
C167 C166 1.386 . S
C167 C171 1.393 . S
C168 H160 0.950 . S
C168 C166 1.391 . S
C168 C169 1.400 . S
C169 C168 1.400 . S
C169 C170 1.398 . S
C169 C175 1.491 . S
C170 H161 0.950 . S
C170 C169 1.398 . S
C170 C171 1.391 . S
C171 H159 0.950 . S
C171 C167 1.393 . S
C171 C170 1.391 . S
C172 H162 0.950 1_565 S
C172 C173 1.386 . S
C172 C174 1.391 . S
C173 C172 1.386 . S
C173 C177 1.393 . S
C174 H163 0.950 . S
C174 C172 1.391 . S
C174 C175 1.400 . S
C175 C169 1.491 . S
C175 C174 1.400 . S
C175 C176 1.398 . S
C176 H164 0.950 . S
C176 C175 1.398 . S
C176 C177 1.391 . S
C177 H165 0.950 . S
C177 C173 1.393 . S
C177 C176 1.391 . S
H178 C186 0.950 . S
H179 C191 0.950 . S
H180 C188 0.950 . S
H181 C190 0.950 . S
H182 C192 0.950 . S
H183 C194 0.950 . S
H184 C196 0.950 . S
H185 C197 0.950 . S
C186 H178 0.950 . S
C186 C187 1.386 . S
C186 C188 1.391 . S
C187 C186 1.386 . S
C187 C191 1.393 . S
C188 H180 0.950 . S
C188 C186 1.391 . S
C188 C189 1.400 . S
C189 C188 1.400 . S
C189 C190 1.398 . S
C189 C195 1.491 . S
C190 H181 0.950 . S
C190 C189 1.398 . S
C190 C191 1.391 . S
C191 H179 0.950 . S
C191 C187 1.393 . S
C191 C190 1.391 . S
C192 H182 0.950 . S
C192 C193 1.386 . S
C192 C194 1.391 . S
C193 C192 1.386 . S
C193 C197 1.393 . S
C194 H183 0.950 . S
C194 C192 1.391 . S
C194 C195 1.400 . S
C195 C189 1.491 . S
C195 C194 1.400 . S
C195 C196 1.398 . S
C196 H184 0.950 . S
C196 C195 1.398 . S
C196 C197 1.391 . S
C197 H185 0.950 . S
C197 C193 1.393 . S
C197 C196 1.391 . S
H198 C206 0.950 . S
H199 C211 0.950 . S
H200 C208 0.950 . S
H201 C210 0.950 . S
H202 C212 0.950 . S
H203 C214 0.950 . S
H204 C216 0.950 . S
H205 C217 0.950 . S
C206 H198 0.950 . S
C206 C207 1.386 . S
C206 C208 1.391 . S
C207 C206 1.386 . S
C207 C211 1.393 . S
C208 H200 0.950 . S
C208 C206 1.391 . S
C208 C209 1.400 . S
C209 C208 1.400 . S
C209 C210 1.398 . S
C209 C215 1.491 . S
C210 H201 0.950 . S
C210 C209 1.398 . S
C210 C211 1.391 . S
C211 H199 0.950 . S
C211 C207 1.393 . S
C211 C210 1.391 . S
C212 H202 0.950 . S
C212 C213 1.386 . S
C212 C214 1.391 . S
C213 C212 1.386 . S
C213 C217 1.393 . S
C214 H203 0.950 . S
C214 C212 1.391 . S
C214 C215 1.400 . S
C215 C209 1.491 . S
C215 C214 1.400 . S
C215 C216 1.398 . S
C216 H204 0.950 . S
C216 C215 1.398 . S
C216 C217 1.391 . S
C217 H205 0.950 . S
C217 C213 1.393 . S
C217 C216 1.391 . S
H218 C226 0.950 . S
H219 C231 0.950 . S
H220 C228 0.950 . S
H221 C230 0.950 . S
H222 C232 0.950 . S
H223 C234 0.950 . S
H224 C236 0.950 . S
H225 C237 0.950 . S
C226 H218 0.950 . S
C226 C227 1.386 . S
C226 C228 1.391 . S
C227 C226 1.386 . S
C227 C231 1.393 . S
C228 H220 0.950 . S
C228 C226 1.391 . S
C228 C229 1.400 . S
C229 C228 1.400 . S
C229 C230 1.398 . S
C229 C235 1.491 . S
C230 H221 0.950 . S
C230 C229 1.398 . S
C230 C231 1.391 . S
C231 H219 0.950 . S
C231 C227 1.393 . S
C231 C230 1.391 . S
C232 H222 0.950 . S
C232 C233 1.386 . S
C232 C234 1.391 . S
C233 C232 1.386 . S
C233 C237 1.393 . S
C234 H223 0.950 . S
C234 C232 1.391 . S
C234 C235 1.400 . S
C235 C229 1.491 . S
C235 C234 1.400 . S
C235 C236 1.398 . S
C236 H224 0.950 . S
C236 C235 1.398 . S
C236 C237 1.391 . S
C237 H225 0.950 . S
C237 C233 1.393 . S
C237 C236 1.391 . S
H238 C246 0.950 . S
H239 C251 0.950 . S
H240 C248 0.950 . S
H241 C250 0.950 . S
H242 C252 0.950 . S
H243 C254 0.950 . S
H244 C256 0.950 . S
H245 C257 0.950 . S
C246 H238 0.950 . S
C246 C247 1.386 . S
C246 C248 1.391 . S
C247 C246 1.386 . S
C247 C251 1.393 . S
C248 H240 0.950 . S
C248 C246 1.391 . S
C248 C249 1.400 . S
C249 C248 1.400 . S
C249 C250 1.398 . S
C249 C255 1.491 . S
C250 H241 0.950 . S
C250 C249 1.398 . S
C250 C251 1.391 . S
C251 H239 0.950 . S
C251 C247 1.393 . S
C251 C250 1.391 . S
C252 H242 0.950 . S
C252 C253 1.386 . S
C252 C254 1.391 . S
C253 C252 1.386 . S
C253 C257 1.393 . S
C254 H243 0.950 . S
C254 C252 1.391 . S
C254 C255 1.400 . S
C255 C249 1.491 . S
C255 C254 1.400 . S
C255 C256 1.398 . S
C256 H244 0.950 . S
C256 C255 1.398 . S
C256 C257 1.391 . S
C257 H245 0.950 . S
C257 C253 1.393 . S
C257 C256 1.391 . S
H258 C266 0.950 . S
H259 C271 0.950 . S
H260 C268 0.950 . S
H261 C270 0.950 . S
H262 C272 0.950 . S
H263 C274 0.950 . S
H264 C276 0.950 . S
H265 C277 0.950 . S
C266 H258 0.950 . S
C266 C267 1.386 . S
C266 C268 1.391 . S
C267 C266 1.386 . S
C267 C271 1.393 . S
C268 H260 0.950 . S
C268 C266 1.391 . S
C268 C269 1.400 . S
C269 C268 1.400 . S
C269 C270 1.398 . S
C269 C275 1.491 . S
C270 H261 0.950 . S
C270 C269 1.398 . S
C270 C271 1.391 . S
C271 H259 0.950 . S
C271 C267 1.393 . S
C271 C270 1.391 . S
C272 H262 0.950 . S
C272 C273 1.386 . S
C272 C274 1.391 . S
C273 C272 1.386 . S
C273 C277 1.393 . S
C274 H263 0.950 . S
C274 C272 1.391 . S
C274 C275 1.400 . S
C275 C269 1.491 . S
C275 C274 1.400 . S
C275 C276 1.398 . S
C276 H264 0.950 . S
C276 C275 1.398 . S
C276 C277 1.391 . S
C277 H265 0.950 . S
C277 C273 1.393 . S
C277 C276 1.391 . S
H278 C286 0.950 . S
H279 C291 0.950 . S
H280 C288 0.950 . S
H281 C290 0.950 . S
H282 C292 0.950 . S
H283 C294 0.950 . S
H284 C296 0.950 . S
H285 C297 0.950 . S
C286 H278 0.950 . S
C286 C287 1.386 . S
C286 C288 1.391 . S
C287 C286 1.386 . S
C287 C291 1.393 . S
C288 H280 0.950 . S
C288 C286 1.391 . S
C288 C289 1.400 . S
C289 C288 1.400 . S
C289 C290 1.398 . S
C289 C295 1.491 . S
C290 H281 0.950 . S
C290 C289 1.398 . S
C290 C291 1.391 . S
C291 H279 0.950 . S
C291 C287 1.393 . S
C291 C290 1.391 . S
C292 H282 0.950 . S
C292 C293 1.386 . S
C292 C294 1.391 . S
C293 C292 1.386 . S
C293 C297 1.393 . S
C294 H283 0.950 . S
C294 C292 1.391 . S
C294 C295 1.400 . S
C295 C289 1.491 . S
C295 C294 1.400 . S
C295 C296 1.398 . S
C296 H284 0.950 . S
C296 C295 1.398 . S
C296 C297 1.391 . S
C297 H285 0.950 . S
C297 C293 1.393 . S
C297 C296 1.391 . S
H298 C306 0.950 1_554 S
H299 C311 0.950 . S
H300 C308 0.950 . S
H301 C310 0.950 . S
H302 C312 0.950 . S
H303 C314 0.950 . S
H304 C316 0.950 . S
H305 C317 0.950 . S
C306 H298 0.950 1_556 S
C306 C307 1.386 . S
C306 C308 1.391 . S
C307 C306 1.386 . S
C307 C311 1.393 . S
C308 H300 0.950 . S
C308 C306 1.391 . S
C308 C309 1.400 . S
C309 C308 1.400 . S
C309 C310 1.398 . S
C309 C315 1.491 . S
C310 H301 0.950 . S
C310 C309 1.398 . S
C310 C311 1.391 . S
C311 H299 0.950 . S
C311 C307 1.393 . S
C311 C310 1.391 . S
C312 H302 0.950 . S
C312 C313 1.386 . S
C312 C314 1.391 . S
C313 C312 1.386 . S
C313 C317 1.393 . S
C314 H303 0.950 . S
C314 C312 1.391 . S
C314 C315 1.400 . S
C315 C309 1.491 . S
C315 C314 1.400 . S
C315 C316 1.398 . S
C316 H304 0.950 . S
C316 C315 1.398 . S
C316 C317 1.391 . S
C317 H305 0.950 . S
C317 C313 1.393 . S
C317 C316 1.391 . S
C93 C51 1.234 . S
C87 C34 1.446 . S
C107 C7 1.445 . S
C113 C75 1.245 . S
C127 C16 1.586 . S
C133 C54 1.349 . S
C147 C25 1.576 1_554 S
C153 C72 1.375 . S
C173 C52 1.470 . S
C167 C5 1.508 . S
C193 C74 1.501 . S
C187 C13 1.543 . S
C207 C23 1.539 . S
C213 C53 1.466 . S
C227 C32 1.504 . S
C233 C73 1.460 . S
C253 C71 1.485 . S
C247 C14 1.539 . S
C273 C50 1.476 . S
C267 C22 1.549 . S
C293 C70 1.474 . S
C287 C31 1.498 . S
C307 C4 1.508 1_556 S
C313 C49 1.458 . S
