# Generated by pormake.
# Topology pyr, (3,6)-cn, num edge types: 1
# Building blocks:
#     Node 0, Type 0, BuildingBlock: QEWDON_clean_linker_0, # of connection points: 3
#     Node 1, Type 0, BuildingBlock: QEWDON_clean_linker_0, # of connection points: 3
#     Node 2, Type 0, BuildingBlock: QEWDON_clean_linker_0, # of connection points: 3
#     Node 3, Type 0, BuildingBlock: QEWDON_clean_linker_0, # of connection points: 3
#     Node 4, Type 0, BuildingBlock: QEWDON_clean_linker_0, # of connection points: 3
#     Node 5, Type 0, BuildingBlock: QEWDON_clean_linker_0, # of connection points: 3
#     Node 6, Type 0, BuildingBlock: QEWDON_clean_linker_0, # of connection points: 3
#     Node 7, Type 0, BuildingBlock: QEWDON_clean_linker_0, # of connection points: 3
#     Node 8, Type 1, BuildingBlock: BETFAJ_clean_sbu_0, # of connection points: 6
#     Node 9, Type 1, BuildingBlock: BETFAJ_clean_sbu_0, # of connection points: 6
#     Node 10, Type 1, BuildingBlock: BETFAJ_clean_sbu_0, # of connection points: 6
#     Node 11, Type 1, BuildingBlock: BETFAJ_clean_sbu_0, # of connection points: 6
#     Edge 12, Type (0, 1), BuildingBlock: CIFDUS_clean_linker_0, # of connection points: 2
#     Edge 13, Type (0, 1), BuildingBlock: CIFDUS_clean_linker_0, # of connection points: 2
#     Edge 14, Type (0, 1), BuildingBlock: CIFDUS_clean_linker_0, # of connection points: 2
#     Edge 15, Type (0, 1), BuildingBlock: CIFDUS_clean_linker_0, # of connection points: 2
#     Edge 16, Type (0, 1), BuildingBlock: CIFDUS_clean_linker_0, # of connection points: 2
#     Edge 17, Type (0, 1), BuildingBlock: CIFDUS_clean_linker_0, # of connection points: 2
#     Edge 18, Type (0, 1), BuildingBlock: CIFDUS_clean_linker_0, # of connection points: 2
#     Edge 19, Type (0, 1), BuildingBlock: CIFDUS_clean_linker_0, # of connection points: 2
#     Edge 20, Type (0, 1), BuildingBlock: CIFDUS_clean_linker_0, # of connection points: 2
#     Edge 21, Type (0, 1), BuildingBlock: CIFDUS_clean_linker_0, # of connection points: 2
#     Edge 22, Type (0, 1), BuildingBlock: CIFDUS_clean_linker_0, # of connection points: 2
#     Edge 23, Type (0, 1), BuildingBlock: CIFDUS_clean_linker_0, # of connection points: 2
#     Edge 24, Type (0, 1), BuildingBlock: CIFDUS_clean_linker_0, # of connection points: 2
#     Edge 25, Type (0, 1), BuildingBlock: CIFDUS_clean_linker_0, # of connection points: 2
#     Edge 26, Type (0, 1), BuildingBlock: CIFDUS_clean_linker_0, # of connection points: 2
#     Edge 27, Type (0, 1), BuildingBlock: CIFDUS_clean_linker_0, # of connection points: 2
#     Edge 28, Type (0, 1), BuildingBlock: CIFDUS_clean_linker_0, # of connection points: 2
#     Edge 29, Type (0, 1), BuildingBlock: CIFDUS_clean_linker_0, # of connection points: 2
#     Edge 30, Type (0, 1), BuildingBlock: CIFDUS_clean_linker_0, # of connection points: 2
#     Edge 31, Type (0, 1), BuildingBlock: CIFDUS_clean_linker_0, # of connection points: 2
#     Edge 32, Type (0, 1), BuildingBlock: CIFDUS_clean_linker_0, # of connection points: 2
#     Edge 33, Type (0, 1), BuildingBlock: CIFDUS_clean_linker_0, # of connection points: 2
#     Edge 34, Type (0, 1), BuildingBlock: CIFDUS_clean_linker_0, # of connection points: 2
#     Edge 35, Type (0, 1), BuildingBlock: CIFDUS_clean_linker_0, # of connection points: 2
# Relax obj value: 0.191
# Max RMSD: 0.266
# Mean RMSD: 0.196
data_MOF--net-pyr--node1-BETFAJ_clean_sbu_0--node2-QEWDON_clean_linker_0--edge1-CIFDUS_clean_linker_0
_symmetry_space_group_name_H-M    P1
_symmetry_Int_Tables_number       1
_symmetry_cell_setting            triclinic
loop_
_symmetry_equiv_pos_as_xyz
'x, y, z'
_cell_length_a     33.980139
_cell_length_b     36.852242
_cell_length_c     34.838353
_cell_angle_alpha  91.589869
_cell_angle_beta   89.368706
_cell_angle_gamma 111.10243
loop_
_atom_site_label
_atom_site_type_symbol
_atom_site_fract_x
_atom_site_fract_y
_atom_site_fract_z
_atom_type_partial_charge
H0 H 0.46024 0.35894 0.22672 0.0
C1 C 0.43818 0.34502 0.24931 0.0
C2 C 0.43036 0.30596 0.25739 0.0
C3 C 0.41535 0.36523 0.26812 0.0
H4 H 0.3938 0.25702 0.29091 0.0
C5 C 0.40047 0.28748 0.28541 0.0
C6 C 0.37685 0.30716 0.30412 0.0
C7 C 0.38486 0.34622 0.29555 0.0
C8 C 0.41946 0.40438 0.25545 0.0
H9 H 0.36591 0.36136 0.30877 0.0
C10 C 0.38362 0.41105 0.24282 0.0
C11 C 0.38699 0.44734 0.22851 0.0
C12 C 0.45902 0.43449 0.25403 0.0
H13 H 0.48709 0.42982 0.26339 0.0
C14 C 0.4625 0.47092 0.24066 0.0
H15 H 0.3531 0.38768 0.24363 0.0
C16 C 0.42676 0.4774 0.22793 0.0
H17 H 0.43037 0.50561 0.21689 0.0
H18 H 0.49307 0.4941 0.23975 0.0
H19 H 0.19614 0.90179 0.75019 0.0
C20 C 0.21593 0.88736 0.73723 0.0
C21 C 0.25362 0.8902 0.75527 0.0
C22 C 0.2031 0.86528 0.70303 0.0
H23 H 0.3083 0.87379 0.75209 0.0
C24 C 0.27885 0.87126 0.73847 0.0
C25 C 0.26685 0.84955 0.70401 0.0
C26 C 0.22849 0.84607 0.68672 0.0
C27 C 0.16346 0.86302 0.68424 0.0
H28 H 0.21915 0.82964 0.65993 0.0
C29 C 0.15506 0.89713 0.6786 0.0
C30 C 0.11671 0.89525 0.66253 0.0
C31 C 0.13342 0.82691 0.67282 0.0
H32 H 0.1392 0.80023 0.67698 0.0
C33 C 0.09515 0.82493 0.65684 0.0
H34 H 0.17824 0.92517 0.68701 0.0
C35 C 0.08661 0.85888 0.65195 0.0
H36 H 0.0568 0.85682 0.63946 0.0
H37 H 0.07194 0.79699 0.64842 0.0
H38 H 0.73442 0.49462 0.92436 0.0
C39 C 0.7208 0.46451 0.93255 0.0
C40 C 0.74271 0.44894 0.95796 0.0
C41 C 0.67994 0.44236 0.91943 0.0
H42 H 0.73962 0.39695 0.98725 0.0
C43 C 0.72341 0.40935 0.96802 0.0
C44 C 0.68279 0.38593 0.95451 0.0
C45 C 0.66147 0.40334 0.93065 0.0
C46 C 0.65255 0.46191 0.90242 0.0
H47 H 0.62917 0.38721 0.92218 0.0
C48 C 0.65864 0.47862 0.86532 0.0
C49 C 0.63118 0.49718 0.85196 0.0
C50 C 0.61907 0.46397 0.92525 0.0
H51 H 0.61374 0.45172 0.95361 0.0
C52 C 0.59232 0.482 0.91227 0.0
H53 H 0.68422 0.47723 0.84726 0.0
C54 C 0.59822 0.49837 0.87618 0.0
H55 H 0.57626 0.51158 0.86688 0.0
H56 H 0.56667 0.48321 0.93033 0.0
H57 H 0.93722 0.83953 0.40005 0.0
C58 C 0.91022 0.81825 0.41365 0.0
C59 C 0.89707 0.82715 0.45015 0.0
C60 C 0.88738 0.78353 0.39295 0.0
H61 H 0.85008 0.80627 0.49425 0.0
C62 C 0.86072 0.79975 0.4664 0.0
C63 C 0.83702 0.76465 0.44682 0.0
C64 C 0.85079 0.75681 0.40992 0.0
C65 C 0.89782 0.78027 0.35113 0.0
H66 H 0.83226 0.73078 0.39384 0.0
C67 C 0.90908 0.74952 0.3343 0.0
C68 C 0.9222 0.75072 0.29488 0.0
C69 C 0.89846 0.81098 0.32789 0.0
H70 H 0.88958 0.83454 0.33952 0.0
C71 C 0.91133 0.8125 0.28984 0.0
H72 H 0.90821 0.7255 0.35189 0.0
C73 C 0.9237 0.78334 0.27376 0.0
H74 H 0.93544 0.78727 0.24461 0.0
H75 H 0.91251 0.83698 0.27277 0.0
H76 H 0.67883 0.77447 0.99257 0.0
C77 C 0.69148 0.78958 0.96639 0.0
C78 C 0.72727 0.78543 0.94901 0.0
C79 C 0.67315 0.81467 0.95096 0.0
H80 H 0.77272 0.80501 0.90316 0.0
C81 C 0.74374 0.80604 0.91558 0.0
C82 C 0.7256 0.83083 0.8998 0.0
C83 C 0.6902 0.83488 0.9175 0.0
C84 C 0.63783 0.82191 0.97076 0.0
H85 H 0.67629 0.85432 0.90551 0.0
C86 C 0.63946 0.86031 0.97699 0.0
C87 C 0.6054 0.86771 0.99394 0.0
C88 C 0.60209 0.79085 0.98267 0.0
H89 H 0.60013 0.76105 0.97814 0.0
C90 C 0.5681 0.7981 0.99963 0.0
H91 H 0.66714 0.88451 0.96831 0.0
C92 C 0.56953 0.83628 1.005 0.0
H93 H 0.5429 0.84131 1.01827 0.0
H94 H 0.54047 0.77404 1.00846 0.0
H95 H 0.72319 0.15649 0.60438 0.0
C96 C 0.71538 0.15614 0.57426 0.0
C97 C 0.73929 0.14471 0.54669 0.0
C98 C 0.68266 0.16845 0.56307 0.0
H99 H 0.74837 0.13569 0.48655 0.0
C100 C 0.7304 0.14545 0.50764 0.0
C101 C 0.69771 0.15736 0.49576 0.0
C102 C 0.6739 0.16865 0.52368 0.0
C103 C 0.65835 0.18198 0.59229 0.0
H104 H 0.64859 0.17779 0.51466 0.0
C105 C 0.64589 0.21357 0.58475 0.0
C106 C 0.62281 0.22667 0.6119 0.0
C107 C 0.64764 0.16378 0.62789 0.0
H108 H 0.65613 0.13901 0.6345 0.0
C109 C 0.62525 0.17709 0.65524 0.0
H110 H 0.65492 0.22871 0.55798 0.0
C111 C 0.61292 0.20841 0.6474 0.0
H112 H 0.5951 0.21794 0.66877 0.0
H113 H 0.61715 0.16287 0.68252 0.0
H114 H 0.4628 0.84514 0.26597 0.0
C115 C 0.43087 0.82799 0.25726 0.0
C116 C 0.40899 0.84389 0.23231 0.0
C117 C 0.41361 0.78914 0.26925 0.0
H118 H 0.35242 0.83022 0.19857 0.0
C119 C 0.36905 0.81903 0.21855 0.0
C120 C 0.35099 0.77953 0.22929 0.0
C121 C 0.37341 0.76552 0.2557 0.0
C122 C 0.44209 0.77138 0.28744 0.0
H123 H 0.36079 0.73553 0.2644 0.0
C124 C 0.4365 0.75576 0.32506 0.0
C125 C 0.46537 0.73927 0.33958 0.0
C126 C 0.47642 0.77027 0.26528 0.0
H127 H 0.48142 0.78173 0.23658 0.0
C128 C 0.50457 0.75436 0.27941 0.0
H129 H 0.41025 0.7564 0.34261 0.0
C130 C 0.49922 0.73913 0.31599 0.0
H131 H 0.52226 0.72756 0.32613 0.0
H132 H 0.53089 0.75392 0.26186 0.0
H133 H 0.27393 0.49394 0.7828 0.0
C134 C 0.25286 0.46952 0.76619 0.0
C135 C 0.26493 0.46122 0.72887 0.0
C136 C 0.21553 0.44379 0.78343 0.0
H137 H 0.24651 0.42353 0.67923 0.0
C138 C 0.23799 0.42834 0.70845 0.0
C139 C 0.20305 0.40022 0.72577 0.0
C140 C 0.19151 0.40902 0.76301 0.0
C141 C 0.20676 0.4469 0.82567 0.0
H142 H 0.16535 0.3877 0.77751 0.0
C143 C 0.19381 0.47637 0.84318 0.0
C144 C 0.18214 0.47481 0.88307 0.0
C145 C 0.20915 0.41708 0.8486 0.0
H146 H 0.21917 0.39444 0.83637 0.0
C147 C 0.19773 0.41518 0.88708 0.0
H148 H 0.1923 0.49967 0.82574 0.0
C149 C 0.18379 0.44306 0.90389 0.0
H150 H 0.1733 0.43872 0.93338 0.0
H151 H 0.19887 0.39134 0.90393 0.0
Sm152 Sm 0.04139 0.12634 0.56419 0.0
Sm153 Sm 1.00698 0.09179 0.6401 0.0
C154 C 0.06181 0.16676 0.50049 0.0
C155 C 0.10145 0.18968 0.48162 0.0
C156 C 0.10255 0.19273 0.44163 0.0
C157 C 0.14063 0.21201 0.42293 0.0
C158 C 0.17825 0.22861 0.44399 0.0
C159 C 0.17688 0.22614 0.4842 0.0
C160 C 0.13878 0.2066 0.50288 0.0
C161 C 0.08894 0.08809 0.5952 0.0
C162 C 0.06838 0.18504 0.63892 0.0
C163 C 0.98873 0.07042 0.7121 0.0
C164 C 0.95272 0.04413 0.73308 0.0
C165 C 0.91967 1.01528 0.71363 0.0
C166 C 0.88466 0.99149 0.734 0.0
C167 C 0.88216 0.99655 0.77399 0.0
C168 C 0.91539 1.02565 0.7932 0.0
C169 C 0.95039 0.04925 0.77285 0.0
C170 C 0.94677 0.10243 0.59457 0.0
C171 C 0.98468 0.0341 0.56536 0.0
O172 O 0.05315 0.18096 0.53289 0.0
O173 O 0.05381 0.12943 0.50141 0.0
O174 O 0.07185 0.10813 0.6143 0.0
O175 O 0.08543 0.09164 0.55872 0.0
O176 O 0.07773 0.17978 0.60282 0.0
O177 O 0.04103 0.15653 0.65823 0.0
O178 O 1.00829 0.05433 0.68865 0.0
O179 O 0.98296 0.10041 0.69766 0.0
O180 O 0.98423 0.12603 0.59818 0.0
O181 O 0.93978 0.07295 0.61652 0.0
O182 O 0.99357 0.03591 0.60239 0.0
O183 O 0.99208 0.06622 0.54583 0.0
H184 H 0.07404 0.17967 0.42482 0.0
H185 H 0.14069 0.21388 0.39195 0.0
H186 H 0.20543 0.23835 0.50109 0.0
H187 H 0.13858 0.20412 0.5338 0.0
H188 H 0.92087 1.01137 0.68275 0.0
H189 H 0.85939 0.96943 0.71849 0.0
H190 H 0.91462 1.02979 0.82406 0.0
H191 H 0.97561 0.0716 0.78816 0.0
Sm192 Sm 0.58183 0.11886 0.10946 0.0
Sm193 Sm 0.50433 0.10824 0.06886 0.0
C194 C 0.65434 0.14662 0.14701 0.0
C195 C 0.6654 0.15013 0.18791 0.0
C196 C 0.69979 0.1819 0.20164 0.0
C197 C 0.70934 0.18615 0.24084 0.0
C198 C 0.68461 0.15856 0.26689 0.0
C199 C 0.65032 0.12658 0.25278 0.0
C200 C 0.64062 0.12257 0.21375 0.0
C201 C 0.51981 0.04895 0.12857 0.0
C202 C 0.51585 0.15747 0.1472 0.0
C203 C 0.43253 0.08587 1.02987 0.0
C204 C 0.4066 0.05407 1.00461 0.0
C205 C 0.42182 1.0257 0.99039 0.0
C206 C 0.39862 0.99797 0.96313 0.0
C207 C 0.35969 0.99812 0.94987 0.0
C208 C 0.3438 1.02566 0.96562 0.0
C209 C 0.36719 0.0535 0.99268 0.0
C210 C 0.56756 0.17897 0.05381 0.0
C211 C 0.56493 0.06343 0.03644 0.0
O212 O 0.63409 0.16859 0.13579 0.0
O213 O 0.63879 0.11125 0.13255 0.0
O214 O 0.5134 0.0805 0.12415 0.0
O215 O 0.55964 0.05493 0.12654 0.0
O216 O 0.55375 0.15544 0.14841 0.0
O217 O 0.48839 0.13875 0.12069 0.0
O218 O 0.43474 0.07779 0.06588 0.0
O219 O 0.46884 0.10785 1.01586 0.0
O220 O 0.57282 0.1466 0.05475 0.0
O221 O 0.52844 0.17427 0.05982 0.0
O222 O 0.5257 0.06088 0.04193 0.0
O223 O 0.59593 0.09104 0.05407 0.0
H224 H 0.71895 0.20365 0.1821 0.0
H225 H 0.73561 0.21136 0.25079 0.0
H226 H 0.63105 0.10443 0.27186 0.0
H227 H 0.61364 0.09796 0.20378 0.0
H228 H 0.45215 1.02578 0.99955 0.0
H229 H 0.41199 0.97743 0.95137 0.0
H230 H 0.31361 1.02613 0.95656 0.0
H231 H 0.35495 0.07517 1.00361 0.0
Sm232 Sm 0.55187 0.58795 0.57672 0.0
Sm233 Sm 0.55768 0.65956 0.61409 0.0
C234 C 0.56677 0.52779 0.54552 0.0
C235 C 0.57049 0.49174 0.55855 0.0
C236 C 0.58632 0.47013 0.53333 0.0
C237 C 0.59181 0.43658 0.54565 0.0
C238 C 0.58144 0.424 0.58348 0.0
C239 C 0.56549 0.44586 0.60872 0.0
C240 C 0.56009 0.47954 0.59634 0.0
C241 C 0.47661 0.58162 0.61382 0.0
C242 C 0.58772 0.60204 0.66599 0.0
C243 C 0.54588 0.72157 0.64458 0.0
C244 C 0.51314 0.73919 0.64433 0.0
C245 C 0.47395 0.72112 0.66235 0.0
C246 C 0.44423 0.73916 0.66391 0.0
C247 C 0.45295 0.77565 0.64748 0.0
C248 C 0.49171 0.79323 0.62858 0.0
C249 C 0.52156 0.77522 0.62715 0.0
C250 C 0.63324 0.66478 0.57946 0.0
C251 C 0.51865 0.64293 0.52694 0.0
O252 O 0.59656 0.55988 0.55714 0.0
O253 O 0.52922 0.52989 0.54729 0.0
O254 O 0.51325 0.59898 0.62702 0.0
O255 O 0.47902 0.56529 0.58086 0.0
O256 O 0.58296 0.58076 0.63405 0.0
O257 O 0.57794 0.63364 0.66663 0.0
O258 O 0.53664 0.68869 0.66214 0.0
O259 O 0.56686 0.72251 0.61276 0.0
O260 O 0.59714 0.6491 0.56428 0.0
O261 O 0.6298 0.67747 0.61392 0.0
O262 O 0.51536 0.65847 0.56094 0.0
O263 O 0.53805 0.6178 0.52428 0.0
H264 H 0.59492 0.47948 0.50419 0.0
H265 H 0.60496 0.4209 0.52571 0.0
H266 H 0.55695 0.43683 0.63793 0.0
H267 H 0.54804 0.49616 0.61624 0.0
H268 H 0.46645 0.6934 0.67603 0.0
H269 H 0.41501 0.72511 0.67926 0.0
H270 H 0.49921 0.82115 0.61529 0.0
H271 H 0.55152 0.78976 0.61309 0.0
Sm272 Sm 0.05257 0.57431 0.11657 0.0
Sm273 Sm 0.04691 0.64612 0.06375 0.0
C274 C 0.07271 0.51584 0.14032 0.0
C275 C 0.11235 0.51103 0.1518 0.0
C276 C 0.1353 0.49704 0.12525 0.0
C277 C 0.17334 0.49361 0.13592 0.0
C278 C 0.18918 0.50406 0.17337 0.0
C279 C 0.16597 0.51759 0.19999 0.0
C280 C 0.12795 0.5209 0.1894 0.0
C281 C 1.01018 0.61756 0.15462 0.0
C282 C 0.12904 0.66185 0.12182 0.0
C283 C 0.02716 0.70416 0.03822 0.0
C284 C 0.98759 0.7093 1.02868 0.0
C285 C 0.94874 0.6837 0.04242 0.0
C286 C 0.911 0.68707 1.03071 0.0
C287 C 0.91173 0.71534 1.00432 0.0
C288 C 0.95055 0.74081 0.99055 0.0
C289 C 0.98826 0.73795 1.00285 0.0
C290 C 0.09019 0.60343 1.02588 0.0
C291 C 0.96912 0.55944 0.06053 0.0
O292 O 0.06835 0.52166 0.10389 0.0
O293 O 0.05884 0.53734 0.16328 0.0
O294 O 0.02444 0.62026 0.12075 0.0
O295 O 1.01757 0.58896 0.17014 0.0
O296 O 0.11716 0.62388 0.12786 0.0
O297 O 0.10657 0.67711 0.10086 0.0
O298 O 0.03405 0.70049 0.07463 0.0
O299 O 0.03686 0.6797 1.0156 0.0
O300 O 0.07483 0.59983 0.05935 0.0
O301 O 0.08333 0.63243 1.01076 0.0
O302 O 0.98158 0.59737 0.05442 0.0
O303 O 0.99179 0.54368 0.08061 0.0
H304 H 0.12404 0.48901 0.09613 0.0
H305 H 0.19065 0.48328 0.11471 0.0
H306 H 0.17696 0.52519 0.22924 0.0
H307 H 0.1109 0.53135 0.21076 0.0
H308 H 0.94752 0.66057 0.06137 0.0
H309 H 0.88128 0.66694 0.0413 0.0
H310 H 0.95161 0.7628 0.97013 0.0
H311 H 1.01791 0.75752 0.99152 0.0
H312 H 0.35311 0.33161 0.37217 0.0
H313 H 0.31794 0.23493 0.29063 0.0
H314 H 0.25451 0.20163 0.32759 0.0
H315 H 0.20712 0.20122 0.38111 0.0
H316 H 0.24055 0.29818 0.46205 0.0
H317 H 0.30649 0.33016 0.42728 0.0
C318 C 0.33158 0.30322 0.36259 0.0
C319 C 0.34038 0.28578 0.32876 0.0
C320 C 0.2947 0.2844 0.38369 0.0
C321 C 0.31238 0.24878 0.3169 0.0
C322 C 0.27584 0.22983 0.33781 0.0
C323 C 0.22877 0.22945 0.39101 0.0
C324 C 0.21885 0.24752 0.42381 0.0
C325 C 0.2664 0.24761 0.3709 0.0
C326 C 0.24759 0.28367 0.43688 0.0
C327 C 0.28518 0.302 0.41695 0.0
H328 H 0.28377 0.86983 0.81975 0.0
H329 H 0.25485 0.96352 0.77077 0.0
H330 H 0.28304 1.00447 0.8278 0.0
H331 H 0.32031 1.01501 0.88922 0.0
H332 H 0.34901 0.92126 0.93861 0.0
H333 H 0.31716 0.8791 0.88329 0.0
C334 C 0.28363 0.89921 0.82166 0.0
C335 C 0.26755 0.91377 0.79109 0.0
C336 C 0.30017 0.92262 0.85433 0.0
C337 C 0.26684 0.95162 0.79408 0.0
C338 C 0.28318 0.97509 0.82654 0.0
C339 C 0.31888 0.98513 0.88833 0.0
C340 C 0.33718 0.97139 0.91799 0.0
C341 C 0.30043 0.96106 0.85657 0.0
C342 C 0.33571 0.93276 0.91592 0.0
C343 C 0.31734 0.90858 0.8844 0.0
H344 H 0.63075 0.56879 0.83535 0.0
H345 H 0.63596 0.46442 0.78056 0.0
H346 H 0.62488 0.48797 0.71769 0.0
H347 H 0.60684 0.53603 0.67891 0.0
H348 H 0.60074 0.63946 0.73597 0.0
H349 H 0.61855 0.61836 0.79676 0.0
C350 C 0.63018 0.55139 0.80959 0.0
C351 C 0.63419 0.51473 0.81295 0.0
C352 C 0.62284 0.56476 0.77373 0.0
C353 C 0.63351 0.49284 0.77905 0.0
C354 C 0.62662 0.50617 0.74305 0.0
C355 C 0.60978 0.55417 0.70455 0.0
C356 C 0.60196 0.58939 0.70241 0.0
C357 C 0.62013 0.54172 0.74009 0.0
C358 C 0.60617 0.61226 0.73626 0.0
C359 C 0.61647 0.6002 0.77129 0.0
H360 H 0.91756 0.72897 0.21764 0.0
H361 H 0.95924 0.70213 0.32642 0.0
H362 H 0.98821 0.65802 0.29307 0.0
H363 H 1.00559 0.62956 0.23229 0.0
H364 H 0.97138 0.66344 0.12408 0.0
H365 H 0.93763 0.70378 0.15776 0.0
C366 C 0.93378 0.71447 0.2345 0.0
C367 C 0.93649 0.72017 0.2751 0.0
C368 C 0.95248 0.69065 0.2149 0.0
C369 C 0.95598 0.69874 0.29554 0.0
C370 C 0.97316 0.67368 0.27629 0.0
C371 C 0.99086 0.64591 0.21607 0.0
C372 C 0.9912 0.64352 0.17539 0.0
C373 C 0.97221 0.66984 0.23591 0.0
C374 C 0.97202 0.665 0.15507 0.0
C375 C 0.95246 0.68789 0.17449 0.0
H376 H 0.47637 0.26216 0.2776 0.0
H377 H 0.42158 0.29681 0.18064 0.0
H378 H 0.44279 0.25329 0.13821 0.0
H379 H 0.47436 0.20384 0.12903 0.0
H380 H 0.53428 0.17168 0.22382 0.0
H381 H 0.51375 0.21577 0.26704 0.0
C382 C 0.4696 0.26031 0.2471 0.0
C383 C 0.44762 0.28255 0.23206 0.0
C384 C 0.48242 0.23554 0.22274 0.0
C385 C 0.43891 0.28019 0.1926 0.0
C386 C 0.45074 0.25517 0.16844 0.0
C387 C 0.48276 0.20642 0.15922 0.0
C388 C 0.50494 0.1842 0.1736 0.0
C389 C 0.47201 0.23242 0.18328 0.0
C390 C 0.51681 0.18842 0.2124 0.0
C391 C 0.5051 0.21355 0.23698 0.0
H392 H 0.16446 0.95849 0.62333 0.0
H393 H 0.0497 0.91218 0.689 0.0
H394 H 0.0342 0.97108 0.67841 0.0
H395 H 0.05094 1.03302 0.64639 0.0
H396 H 0.16112 0.07678 0.57534 0.0
H397 H 0.18164 1.02187 0.59228 0.0
C398 C 0.13632 0.96163 0.63555 0.0
C399 C 0.10816 0.93129 0.65686 0.0
C400 C 0.12715 0.99507 0.6285 0.0
C401 C 0.07153 0.93519 0.67228 0.0
C402 C 0.06281 0.96883 0.66636 0.0
C403 C 0.07999 1.03126 0.63581 0.0
C404 C 0.10498 0.05933 0.6107 0.0
C405 C 0.09015 0.99871 0.64417 0.0
C406 C 0.14178 0.0557 0.59536 0.0
C407 C 0.15328 1.02421 0.60479 0.0
H408 H 0.81017 0.42951 0.98241 0.0
H409 H 0.76909 0.52748 0.9765 0.0
H410 H 0.83462 0.5695 1.00584 0.0
H411 H 0.90369 0.57924 0.03468 0.0
H412 H 0.94234 0.48066 0.04624 0.0
H413 H 0.87746 0.43845 1.01465 0.0
C414 C 0.81496 0.45988 0.98784 0.0
C415 C 0.784 0.47476 0.97619 0.0
C416 C 0.85253 0.48411 1.00635 0.0
C417 C 0.79213 0.51471 0.9835 0.0
C418 C 0.8297 0.539 1.00096 0.0
C419 C 0.89799 0.54849 1.0304 0.0
C420 C 0.92828 0.53338 0.04293 0.0
C421 C 0.86016 0.5241 1.01257 0.0
C422 C 0.91979 0.4933 0.03723 0.0
C423 C 0.88263 0.46907 1.01893 0.0
H424 H 0.82133 0.74392 0.52194 0.0
H425 H 0.76024 0.72653 0.41156 0.0
H426 H 0.69221 0.69119 0.44177 0.0
H427 H 0.64855 0.66999 0.50098 0.0
H428 H 0.71098 0.69077 0.61093 0.0
H429 H 0.77924 0.71999 0.57968 0.0
C430 C 0.79322 0.73238 0.50433 0.0
C431 C 0.7963 0.7384 0.46437 0.0
C432 C 0.75398 0.71281 0.52203 0.0
C433 C 0.7593 0.72229 0.44223 0.0
C434 C 0.72013 0.7023 0.45962 0.0
C435 C 0.67717 0.68044 0.51798 0.0
C436 C 0.67441 0.67828 0.55843 0.0
C437 C 0.71684 0.69802 0.49968 0.0
C438 C 0.71194 0.6922 0.5799 0.0
C439 C 0.75115 0.709 0.56201 0.0
H440 H 0.36314 0.50976 0.24109 0.0
H441 H 0.32572 0.39797 0.18214 0.0
H442 H 0.26179 0.40599 0.15929 0.0
H443 H 0.21554 0.44389 0.15742 0.0
H444 H 0.25304 0.55602 0.21565 0.0
H445 H 0.31793 0.5488 0.23729 0.0
C446 C 0.3412 0.48738 0.22289 0.0
C447 C 0.34906 0.45324 0.21354 0.0
C448 C 0.30445 0.49216 0.20982 0.0
C449 C 0.32009 0.42427 0.19027 0.0
C450 C 0.28363 0.4289 0.17701 0.0
C451 C 0.23818 0.46696 0.17443 0.0
C452 C 0.22943 0.50037 0.18498 0.0
C453 C 0.27535 0.46259 0.18682 0.0
C454 C 0.25879 0.52977 0.20754 0.0
C455 C 0.29598 0.52575 0.21979 0.0
H456 H 0.69098 0.35084 1.02253 0.0
H457 H 0.62595 0.32475 0.91346 0.0
H458 H 0.58624 0.25909 0.93374 0.0
H459 H 0.56666 0.20908 0.98359 0.0
H460 H 0.63493 0.23259 0.09028 0.0
H461 H 0.67724 0.29831 0.06937 0.0
C462 C 0.66886 0.33085 1.00264 0.0
C463 C 0.66135 0.34401 0.96651 0.0
C464 C 0.6466 0.29211 1.01405 0.0
C465 C 0.63187 0.31676 0.94189 0.0
C466 C 0.60922 0.2787 0.95331 0.0
C467 C 0.5915 0.22835 1.00186 0.0
C468 C 0.59807 0.21574 0.03825 0.0
C469 C 0.61583 0.26613 0.98949 0.0
C470 C 0.62982 0.24126 0.06188 0.0
C471 C 0.65375 0.27903 0.05 0.0
H472 H 0.86389 0.87274 0.4943 0.0
H473 H 0.98251 0.86968 0.45173 0.0
H474 H 0.01967 0.93303 0.48245 0.0
H475 H 0.01902 0.9901 0.52193 0.0
H476 H 0.90097 0.99155 0.56664 0.0
H477 H 0.86341 0.92811 0.53538 0.0
C478 C 0.89794 0.88543 0.4921 0.0
C479 C 0.92001 0.86583 0.47033 0.0
C480 C 0.91941 0.92192 0.5104 0.0
C481 C 0.96422 0.88384 0.46754 0.0
C482 C 0.98569 0.92017 0.4854 0.0
C483 C 0.98507 0.9764 0.52472 0.0
C484 C 0.96267 0.99551 0.54638 0.0
C485 C 0.96369 0.93962 0.50683 0.0
C486 C 0.91878 0.97743 0.55004 0.0
C487 C 0.89734 0.94115 0.53215 0.0
H488 H 0.35097 0.88297 0.69313 0.0
H489 H 0.24604 0.77521 0.67507 0.0
H490 H 0.29439 0.74344 0.6523 0.0
H491 H 0.367 0.74526 0.64275 0.0
H492 H 0.47164 0.85272 0.66452 0.0
H493 H 0.42282 0.88577 0.68013 0.0
C494 C 0.33871 0.85252 0.68415 0.0
C495 C 0.29517 0.83126 0.68627 0.0
C496 C 0.36662 0.83444 0.67179 0.0
C497 C 0.27949 0.79213 0.67367 0.0
C498 C 0.30712 0.77395 0.66089 0.0
C499 C 0.3791 0.77593 0.65085 0.0
C500 C 0.42295 0.79638 0.65268 0.0
C501 C 0.35083 0.79463 0.66067 0.0
C502 C 0.4381 0.83631 0.66246 0.0
C503 C 0.4102 0.8552 0.67174 0.0
H504 H 0.74578 0.90857 0.89556 0.0
H505 H 0.75498 0.80924 0.83311 0.0
H506 H 0.80143 0.85215 0.78592 0.0
H507 H 0.84564 0.91804 0.76704 0.0
H508 H 0.83796 1.01732 0.83081 0.0
H509 H 0.78438 0.97425 0.87285 0.0
C510 C 0.75706 0.8963 0.87105 0.0
C511 C 0.7472 0.85592 0.86778 0.0
C512 C 0.78444 0.92114 0.84465 0.0
C513 C 0.76251 0.84035 0.83625 0.0
C514 C 0.78908 0.86483 0.80938 0.0
C515 C 0.83155 0.93023 0.78962 0.0
C516 C 0.84598 0.97071 0.79612 0.0
C517 C 0.80124 0.90531 0.81396 0.0
C518 C 0.8278 0.98616 0.82571 0.0
C519 C 0.79711 0.9616 0.84965 0.0
H520 H 0.75381 0.17998 0.43676 0.0
H521 H 0.62026 0.13505 0.46131 0.0
H522 H 0.60472 0.1338 0.39301 0.0
H523 H 0.62888 0.14345 0.32634 0.0
H524 H 0.76226 0.18357 0.30133 0.0
H525 H 0.77798 0.18879 0.3699 0.0
C526 C 0.72128 0.16955 0.42719 0.0
C527 C 0.68829 0.15756 0.45422 0.0
C528 C 0.71252 0.16807 0.38781 0.0
C529 C 0.64632 0.14495 0.44128 0.0
C530 C 0.63737 0.14394 0.40217 0.0
C531 C 0.66141 0.15296 0.33581 0.0
C532 C 0.6943 0.16291 0.30863 0.0
C533 C 0.67021 0.15509 0.3752 0.0
C534 C 0.7363 0.17612 0.32155 0.0
C535 C 0.74533 0.17885 0.36077 0.0
H536 H 0.46964 0.66955 0.35771 0.0
H537 H 0.45794 0.77221 0.41047 0.0
H538 H 0.47058 0.75077 0.47394 0.0
H539 H 0.49275 0.7055 0.51382 0.0
H540 H 0.50659 0.60469 0.45789 0.0
H541 H 0.48587 0.62285 0.39701 0.0
C542 C 0.46914 0.68703 0.38316 0.0
C543 C 0.46287 0.7226 0.37901 0.0
C544 C 0.47769 0.67507 0.41928 0.0
C545 C 0.46216 0.74457 0.41255 0.0
C546 C 0.46998 0.73247 0.4489 0.0
C547 C 0.49074 0.68728 0.48841 0.0
C548 C 0.50179 0.65375 0.49088 0.0
C549 C 0.479 0.69822 0.45259 0.0
C550 C 0.49889 0.63075 0.45731 0.0
C551 C 0.48688 0.64109 0.42221 0.0
H552 H 0.18693 0.49605 0.96074 0.0
H553 H 0.14121 0.52098 0.85297 0.0
H554 H 0.11066 0.56331 0.88724 0.0
H555 H 0.09346 0.59104 0.94837 0.0
H556 H 0.1322 0.5595 0.05591 0.0
H557 H 0.16681 0.52036 1.02125 0.0
C558 C 0.16947 0.50967 0.94427 0.0
C559 C 0.16625 0.50402 0.90363 0.0
C560 C 0.14992 0.53253 0.96445 0.0
C561 C 0.14503 0.52437 0.88381 0.0
C562 C 0.12694 0.54843 0.90359 0.0
C563 C 0.10936 0.57545 0.96426 0.0
C564 C 0.10987 0.57808 1.00494 0.0
C565 C 0.12866 0.55234 0.94396 0.0
C566 C 0.13062 0.55761 1.02486 0.0
C567 C 0.15076 0.53546 1.00491 0.0
H568 H 0.54849 0.89855 0.9713 0.0
H569 H 0.6672 0.92748 1.03007 0.0
H570 H 0.66844 0.99339 0.04406 0.0
H571 H 0.6321 0.04047 0.04479 0.0
H572 H 0.51344 1.01105 0.98549 0.0
H573 H 0.51619 0.94805 0.96585 0.0
C574 C 0.57465 0.91943 0.98703 0.0
C575 C 0.60737 0.90821 1.00016 0.0
C576 C 0.57522 0.9572 0.99472 0.0
C577 C 0.64158 0.93558 1.01985 0.0
C578 C 0.64227 0.97319 1.02785 0.0
C579 C 0.60743 1.0207 1.02672 0.0
C580 C 0.57233 1.03026 1.01704 0.0
C581 C 0.60886 0.98411 1.01603 0.0
C582 C 0.54051 1.00421 0.99377 0.0
C583 C 0.54196 0.96807 0.98263 0.0
H584 H 0.82046 0.17164 0.52229 0.0
H585 H 0.73449 0.0889 0.59768 0.0
H586 H 0.79086 0.0667 0.61717 0.0
H587 H 0.86455 0.07179 0.61369 0.0
H588 H 0.95229 0.15742 0.54189 0.0
H589 H 0.89509 0.17736 0.51949 0.0
C590 C 0.81422 0.14865 0.54286 0.0
C591 C 0.77361 0.13179 0.55859 0.0
C592 C 0.84692 0.13657 0.55435 0.0
C593 C 0.7657 0.10236 0.5855 0.0
C594 C 0.7978 0.0896 0.59647 0.0
C595 C 0.8711 0.09463 0.59291 0.0
C596 C 0.91237 0.1131 0.57925 0.0
C597 C 0.8385 0.10659 0.58119 0.0
C598 C 0.92062 0.14288 0.5527 0.0
C599 C 0.88801 0.15428 0.54 0.0
H600 H 0.28247 0.79585 0.20242 0.0
H601 H 0.32752 0.70073 0.21255 0.0
H602 H 0.26357 0.65665 0.18228 0.0
H603 H 0.19488 0.64438 0.15105 0.0
H604 H 0.1529 0.74041 0.13542 0.0
H605 H 0.21583 0.78441 0.16824 0.0
C606 C 0.27894 0.76567 0.19771 0.0
C607 C 0.31055 0.75226 0.21074 0.0
C608 C 0.24238 0.74026 0.17865 0.0
C609 C 0.30394 0.71245 0.20441 0.0
C610 C 0.26729 0.68697 0.18642 0.0
C611 C 0.19945 0.67494 0.15472 0.0
C612 C 0.16878 0.68879 0.14059 0.0
C613 C 0.23628 0.70047 0.17329 0.0
C614 C 0.17577 0.72869 0.14561 0.0
C615 C 0.21183 0.75398 0.16462 0.0
H616 H 0.30934 0.54013 0.71546 0.0
H617 H 0.31862 0.42655 0.70479 0.0
H618 H 0.38366 0.45318 0.66842 0.0
H619 H 0.43631 0.50757 0.63576 0.0
H620 H 0.43214 0.62253 0.64848 0.0
H621 H 0.36753 0.59702 0.68747 0.0
C622 C 0.32604 0.52146 0.70572 0.0
C623 C 0.30836 0.4811 0.71244 0.0
C624 C 0.36431 0.53718 0.68458 0.0
C625 C 0.33083 0.4575 0.69959 0.0
C626 C 0.36817 0.47269 0.67865 0.0
C627 C 0.42126 0.52702 0.64719 0.0
C628 C 0.43859 0.56675 0.63884 0.0
C629 C 0.38477 0.51224 0.67021 0.0
C630 C 0.41921 0.59176 0.65436 0.0
C631 C 0.38223 0.57711 0.67667 0.0
H632 H 0.76552 0.74011 0.91396 0.0
H633 H 0.74358 0.78286 1.02569 0.0
H634 H 0.79521 0.75947 0.05389 0.0
H635 H 0.85445 0.73606 0.04496 0.0
H636 H 0.88174 0.70117 0.93179 0.0
H637 H 0.82091 0.71292 0.90574 0.0
C638 C 0.7718 0.7441 0.94456 0.0
C639 C 0.75113 0.76379 0.96749 0.0
C640 C 0.80316 0.7326 0.96016 0.0
C641 C 0.75878 0.76767 1.00728 0.0
C642 C 0.78877 0.75475 1.02339 0.0
C643 C 0.84642 0.73047 1.01477 0.0
C644 C 0.87222 0.71798 0.99012 0.0
C645 C 0.81231 0.73859 0.99985 0.0
C646 C 0.86214 0.71099 0.95103 0.0
C647 C 0.82748 0.71769 0.93622 0.0
H648 H 0.3989 0.87733 0.16363 0.0
H649 H 0.46496 0.90679 0.27215 0.0
H650 H 0.50337 0.97206 0.25041 0.0
H651 H 0.52179 1.02075 0.19943 0.0
H652 H 0.45161 0.99456 0.09373 0.0
H653 H 0.41055 0.92898 0.11602 0.0
C654 C 0.42091 0.89795 0.18313 0.0
C655 C 0.42927 0.88571 0.21948 0.0
C656 C 0.44224 0.9366 0.17097 0.0
C657 C 0.45854 0.91388 0.24353 0.0
C658 C 0.48041 0.95179 0.23129 0.0
C659 C 0.49676 1.00095 0.1817 0.0
C660 C 0.48939 1.0127 0.14515 0.0
C661 C 0.47306 0.96337 0.1949 0.0
C662 C 0.45734 0.98654 0.12225 0.0
C663 C 0.43416 0.94885 0.1349 0.0
H664 H 0.12102 0.34594 0.73303 0.0
H665 H 0.23932 0.36205 0.6753 0.0
H666 H 0.20788 0.30029 0.64183 0.0
H667 H 0.14739 0.23974 0.62889 0.0
H668 H 0.03232 0.2184 0.6928 0.0
H669 H 0.06209 0.28281 0.72403 0.0
C670 C 0.14027 0.33611 0.71344 0.0
C671 C 0.18252 0.3605 0.7062 0.0
C672 C 0.12255 0.29882 0.69524 0.0
C673 C 0.20626 0.34597 0.68055 0.0
C674 C 0.18846 0.30985 0.66155 0.0
C675 C 0.12883 0.24921 0.64962 0.0
C676 C 0.08755 0.22419 0.65823 0.0
C677 C 0.14664 0.28597 0.6685 0.0
C678 C 0.06423 0.23689 0.68563 0.0
C679 C 0.08123 0.27388 0.70349 0.0
H680 H 0.63029 0.29071 0.6564 0.0
H681 H 0.58485 0.23564 0.54648 0.0
H682 H 0.56608 0.29099 0.52886 0.0
H683 H 0.56479 0.35574 0.54369 0.0
H684 H 0.61283 0.41255 0.65239 0.0
H685 H 0.62729 0.35539 0.67193 0.0
C686 C 0.61581 0.29072 0.62881 0.0
C687 C 0.60915 0.25932 0.60268 0.0
C688 C 0.60549 0.32286 0.61869 0.0
C689 C 0.59073 0.25975 0.56686 0.0
C690 C 0.57988 0.29129 0.55682 0.0
C691 C 0.57866 0.35575 0.57158 0.0
C692 C 0.58797 0.3885 0.59639 0.0
C693 C 0.58764 0.3232 0.58229 0.0
C694 C 0.60501 0.38762 0.63282 0.0
C695 C 0.61357 0.35505 0.64392 0.0
loop_
_geom_bond_atom_site_label_1
_geom_bond_atom_site_label_2
_geom_bond_distance
_geom_bond_site_symmetry_2
_ccdc_geom_bond_type
H0 C1 0.949 . S
C1 H0 0.949 . S
C1 C2 1.395 . S
C1 C3 1.391 . S
C2 C1 1.395 . S
C2 C5 1.390 . S
C3 C1 1.391 . S
C3 C7 1.387 . S
C3 C8 1.491 . S
H4 C5 0.950 . S
C5 C2 1.390 . S
C5 H4 0.950 . S
C5 C6 1.378 . S
C6 C5 1.378 . S
C6 C7 1.409 . S
C7 C3 1.387 . S
C7 C6 1.409 . S
C7 H9 0.951 . S
C8 C3 1.491 . S
C8 C10 1.382 . S
C8 C12 1.404 . S
H9 C7 0.951 . S
C10 C8 1.382 . S
C10 C11 1.390 . S
C10 H15 0.949 . S
C11 C10 1.390 . S
C11 C16 1.399 . S
C12 C8 1.404 . S
C12 H13 0.950 . S
C12 C14 1.375 . S
H13 C12 0.950 . S
C14 C12 1.375 . S
C14 C16 1.382 . S
C14 H18 0.950 . S
H15 C10 0.949 . S
C16 C11 1.399 . S
C16 C14 1.382 . S
C16 H17 0.952 . S
H17 C16 0.952 . S
H18 C14 0.950 . S
H19 C20 0.949 . S
C20 H19 0.949 . S
C20 C21 1.395 . S
C20 C22 1.391 . S
C21 C20 1.395 . S
C21 C24 1.390 . S
C22 C20 1.391 . S
C22 C26 1.387 . S
C22 C27 1.491 . S
H23 C24 0.950 . S
C24 C21 1.390 . S
C24 H23 0.950 . S
C24 C25 1.378 . S
C25 C24 1.378 . S
C25 C26 1.409 . S
C26 C22 1.387 . S
C26 C25 1.409 . S
C26 H28 0.951 . S
C27 C22 1.491 . S
C27 C29 1.382 . S
C27 C31 1.404 . S
H28 C26 0.951 . S
C29 C27 1.382 . S
C29 C30 1.390 . S
C29 H34 0.949 . S
C30 C29 1.390 . S
C30 C35 1.399 . S
C31 C27 1.404 . S
C31 H32 0.950 . S
C31 C33 1.375 . S
H32 C31 0.950 . S
C33 C31 1.375 . S
C33 C35 1.382 . S
C33 H37 0.950 . S
H34 C29 0.949 . S
C35 C30 1.399 . S
C35 C33 1.382 . S
C35 H36 0.952 . S
H36 C35 0.952 . S
H37 C33 0.950 . S
H38 C39 0.949 . S
C39 H38 0.949 . S
C39 C40 1.395 . S
C39 C41 1.391 . S
C40 C39 1.395 . S
C40 C43 1.390 . S
C41 C39 1.391 . S
C41 C45 1.387 . S
C41 C46 1.491 . S
H42 C43 0.950 . S
C43 C40 1.390 . S
C43 H42 0.950 . S
C43 C44 1.378 . S
C44 C43 1.378 . S
C44 C45 1.409 . S
C45 C41 1.387 . S
C45 C44 1.409 . S
C45 H47 0.951 . S
C46 C41 1.491 . S
C46 C48 1.382 . S
C46 C50 1.404 . S
H47 C45 0.951 . S
C48 C46 1.382 . S
C48 C49 1.390 . S
C48 H53 0.949 . S
C49 C48 1.390 . S
C49 C54 1.399 . S
C50 C46 1.404 . S
C50 H51 0.950 . S
C50 C52 1.375 . S
H51 C50 0.950 . S
C52 C50 1.375 . S
C52 C54 1.382 . S
C52 H56 0.950 . S
H53 C48 0.949 . S
C54 C49 1.399 . S
C54 C52 1.382 . S
C54 H55 0.952 . S
H55 C54 0.952 . S
H56 C52 0.950 . S
H57 C58 0.949 . S
C58 H57 0.949 . S
C58 C59 1.395 . S
C58 C60 1.391 . S
C59 C58 1.395 . S
C59 C62 1.390 . S
C60 C58 1.391 . S
C60 C64 1.387 . S
C60 C65 1.491 . S
H61 C62 0.950 . S
C62 C59 1.390 . S
C62 H61 0.950 . S
C62 C63 1.378 . S
C63 C62 1.378 . S
C63 C64 1.409 . S
C64 C60 1.387 . S
C64 C63 1.409 . S
C64 H66 0.951 . S
C65 C60 1.491 . S
C65 C67 1.382 . S
C65 C69 1.404 . S
H66 C64 0.951 . S
C67 C65 1.382 . S
C67 C68 1.390 . S
C67 H72 0.949 . S
C68 C67 1.390 . S
C68 C73 1.399 . S
C69 C65 1.404 . S
C69 H70 0.950 . S
C69 C71 1.375 . S
H70 C69 0.950 . S
C71 C69 1.375 . S
C71 C73 1.382 . S
C71 H75 0.950 . S
H72 C67 0.949 . S
C73 C68 1.399 . S
C73 C71 1.382 . S
C73 H74 0.952 . S
H74 C73 0.952 . S
H75 C71 0.950 . S
H76 C77 0.949 . S
C77 H76 0.949 . S
C77 C78 1.395 . S
C77 C79 1.391 . S
C78 C77 1.395 . S
C78 C81 1.390 . S
C79 C77 1.391 . S
C79 C83 1.387 . S
C79 C84 1.491 . S
H80 C81 0.950 . S
C81 C78 1.390 . S
C81 H80 0.950 . S
C81 C82 1.378 . S
C82 C81 1.378 . S
C82 C83 1.409 . S
C83 C79 1.387 . S
C83 C82 1.409 . S
C83 H85 0.951 . S
C84 C79 1.491 . S
C84 C86 1.382 . S
C84 C88 1.404 . S
H85 C83 0.951 . S
C86 C84 1.382 . S
C86 C87 1.390 . S
C86 H91 0.949 . S
C87 C86 1.390 . S
C87 C92 1.399 . S
C88 C84 1.404 . S
C88 H89 0.950 . S
C88 C90 1.375 . S
H89 C88 0.950 . S
C90 C88 1.375 . S
C90 C92 1.382 . S
C90 H94 0.950 . S
H91 C86 0.949 . S
C92 C87 1.399 . S
C92 C90 1.382 . S
C92 H93 0.952 . S
H93 C92 0.952 . S
H94 C90 0.950 . S
H95 C96 0.949 . S
C96 H95 0.949 . S
C96 C97 1.395 . S
C96 C98 1.391 . S
C97 C96 1.395 . S
C97 C100 1.390 . S
C98 C96 1.391 . S
C98 C102 1.387 . S
C98 C103 1.491 . S
H99 C100 0.950 . S
C100 C97 1.390 . S
C100 H99 0.950 . S
C100 C101 1.378 . S
C101 C100 1.378 . S
C101 C102 1.409 . S
C102 C98 1.387 . S
C102 C101 1.409 . S
C102 H104 0.951 . S
C103 C98 1.491 . S
C103 C105 1.382 . S
C103 C107 1.404 . S
H104 C102 0.951 . S
C105 C103 1.382 . S
C105 C106 1.390 . S
C105 H110 0.949 . S
C106 C105 1.390 . S
C106 C111 1.399 . S
C107 C103 1.404 . S
C107 H108 0.950 . S
C107 C109 1.375 . S
H108 C107 0.950 . S
C109 C107 1.375 . S
C109 C111 1.382 . S
C109 H113 0.950 . S
H110 C105 0.949 . S
C111 C106 1.399 . S
C111 C109 1.382 . S
C111 H112 0.952 . S
H112 C111 0.952 . S
H113 C109 0.950 . S
H114 C115 0.949 . S
C115 H114 0.949 . S
C115 C116 1.395 . S
C115 C117 1.391 . S
C116 C115 1.395 . S
C116 C119 1.390 . S
C117 C115 1.391 . S
C117 C121 1.387 . S
C117 C122 1.491 . S
H118 C119 0.950 . S
C119 C116 1.390 . S
C119 H118 0.950 . S
C119 C120 1.378 . S
C120 C119 1.378 . S
C120 C121 1.409 . S
C121 C117 1.387 . S
C121 C120 1.409 . S
C121 H123 0.951 . S
C122 C117 1.491 . S
C122 C124 1.382 . S
C122 C126 1.404 . S
H123 C121 0.951 . S
C124 C122 1.382 . S
C124 C125 1.390 . S
C124 H129 0.949 . S
C125 C124 1.390 . S
C125 C130 1.399 . S
C126 C122 1.404 . S
C126 H127 0.950 . S
C126 C128 1.375 . S
H127 C126 0.950 . S
C128 C126 1.375 . S
C128 C130 1.382 . S
C128 H132 0.950 . S
H129 C124 0.949 . S
C130 C125 1.399 . S
C130 C128 1.382 . S
C130 H131 0.952 . S
H131 C130 0.952 . S
H132 C128 0.950 . S
H133 C134 0.949 . S
C134 H133 0.949 . S
C134 C135 1.395 . S
C134 C136 1.391 . S
C135 C134 1.395 . S
C135 C138 1.390 . S
C136 C134 1.391 . S
C136 C140 1.387 . S
C136 C141 1.491 . S
H137 C138 0.950 . S
C138 C135 1.390 . S
C138 H137 0.950 . S
C138 C139 1.378 . S
C139 C138 1.378 . S
C139 C140 1.409 . S
C140 C136 1.387 . S
C140 C139 1.409 . S
C140 H142 0.951 . S
C141 C136 1.491 . S
C141 C143 1.382 . S
C141 C145 1.404 . S
H142 C140 0.951 . S
C143 C141 1.382 . S
C143 C144 1.390 . S
C143 H148 0.949 . S
C144 C143 1.390 . S
C144 C149 1.399 . S
C145 C141 1.404 . S
C145 H146 0.950 . S
C145 C147 1.375 . S
H146 C145 0.950 . S
C147 C145 1.375 . S
C147 C149 1.382 . S
C147 H151 0.950 . S
H148 C143 0.949 . S
C149 C144 1.399 . S
C149 C147 1.382 . S
C149 H150 0.952 . S
H150 C149 0.952 . S
H151 C147 0.950 . S
Sm152 C154 2.846 . S
Sm152 O172 2.543 . S
Sm152 O173 2.450 . S
Sm152 O174 2.681 . S
Sm152 O175 2.464 . S
Sm152 O176 2.396 . S
Sm152 O180 2.386 1_455 S
Sm152 O183 2.408 1_445 S
Sm153 C163 2.846 1_545 S
Sm153 O174 2.386 1_655 S
Sm153 O177 2.408 1_655 S
Sm153 O178 2.543 1_545 S
Sm153 O179 2.450 1_545 S
Sm153 O180 2.681 . S
Sm153 O181 2.464 . S
Sm153 O182 2.396 1_545 S
C154 Sm152 2.846 . S
C154 C155 1.506 . S
C154 O172 1.261 . S
C154 O173 1.242 . S
C155 C154 1.506 . S
C155 C156 1.358 . S
C155 C160 1.382 . S
C156 C155 1.358 . S
C156 C157 1.385 . S
C156 H184 0.930 . S
C157 C156 1.385 . S
C157 C158 1.395 . S
C157 H185 0.929 . S
C158 C157 1.395 . S
C158 C159 1.335 . S
C159 C158 1.335 . S
C159 C160 1.398 . S
C159 H186 0.930 . S
C160 C155 1.382 . S
C160 C159 1.398 . S
C160 H187 0.929 . S
C161 O174 1.271 . S
C161 O175 1.251 . S
C162 O176 1.252 . S
C162 O177 1.272 . S
C163 Sm153 2.846 1_565 S
C163 C164 1.506 . S
C163 O178 1.261 . S
C163 O179 1.242 . S
C164 C163 1.506 . S
C164 C165 1.358 . S
C164 C169 1.382 . S
C165 C164 1.358 . S
C165 C166 1.385 . S
C165 H188 0.930 . S
C166 C165 1.385 . S
C166 C167 1.395 . S
C166 H189 0.929 . S
C167 C166 1.395 . S
C167 C168 1.335 . S
C168 C167 1.335 . S
C168 C169 1.398 . S
C168 H190 0.930 . S
C169 C164 1.382 . S
C169 C168 1.398 . S
C169 H191 0.929 . S
C170 O180 1.271 . S
C170 O181 1.251 . S
C171 O182 1.252 . S
C171 O183 1.272 . S
O172 Sm152 2.543 . S
O172 C154 1.261 . S
O173 Sm152 2.450 . S
O173 C154 1.242 . S
O174 Sm152 2.681 . S
O174 Sm153 2.386 1_455 S
O174 C161 1.271 . S
O175 Sm152 2.464 . S
O175 C161 1.251 . S
O176 Sm152 2.396 . S
O176 C162 1.252 . S
O177 Sm153 2.408 1_455 S
O177 C162 1.272 . S
O178 Sm153 2.543 1_565 S
O178 C163 1.261 . S
O179 Sm153 2.450 1_565 S
O179 C163 1.242 . S
O180 Sm152 2.386 1_655 S
O180 Sm153 2.681 . S
O180 C170 1.271 . S
O181 Sm153 2.464 . S
O181 C170 1.251 . S
O182 Sm153 2.396 1_565 S
O182 C171 1.252 . S
O183 Sm152 2.408 1_665 S
O183 C171 1.272 . S
H184 C156 0.930 . S
H185 C157 0.929 . S
H186 C159 0.930 . S
H187 C160 0.929 . S
H188 C165 0.930 . S
H189 C166 0.929 . S
H190 C168 0.930 . S
H191 C169 0.929 . S
Sm192 C194 2.846 . S
Sm192 O212 2.543 . S
Sm192 O213 2.450 . S
Sm192 O214 2.681 1_545 S
Sm192 O215 2.464 1_545 S
Sm192 O216 2.396 . S
Sm192 O220 2.386 . S
Sm192 O223 2.408 . S
Sm193 C203 2.846 1_544 S
Sm193 O214 2.386 1_545 S
Sm193 O217 2.408 . S
Sm193 O218 2.543 1_545 S
Sm193 O219 2.450 1_554 S
Sm193 O220 2.681 . S
Sm193 O221 2.464 . S
Sm193 O222 2.396 . S
C194 Sm192 2.846 . S
C194 C195 1.506 . S
C194 O212 1.261 . S
C194 O213 1.242 . S
C195 C194 1.506 . S
C195 C196 1.358 . S
C195 C200 1.382 . S
C196 C195 1.358 . S
C196 C197 1.385 . S
C196 H224 0.930 . S
C197 C196 1.385 . S
C197 C198 1.395 . S
C197 H225 0.929 . S
C198 C197 1.395 . S
C198 C199 1.335 . S
C199 C198 1.335 . S
C199 C200 1.398 . S
C199 H226 0.930 . S
C200 C195 1.382 . S
C200 C199 1.398 . S
C200 H227 0.929 . S
C201 O214 1.271 . S
C201 O215 1.251 . S
C202 O216 1.252 . S
C202 O217 1.272 . S
C203 Sm193 2.846 1_566 S
C203 C204 1.506 . S
C203 O218 1.261 1_556 S
C203 O219 1.242 1_565 S
C204 C203 1.506 . S
C204 C205 1.358 . S
C204 C209 1.382 . S
C205 C204 1.358 . S
C205 C206 1.385 . S
C205 H228 0.930 . S
C206 C205 1.385 . S
C206 C207 1.395 . S
C206 H229 0.929 . S
C207 C206 1.395 . S
C207 C208 1.335 . S
C208 C207 1.335 . S
C208 C209 1.398 . S
C208 H230 0.930 . S
C209 C204 1.382 . S
C209 C208 1.398 . S
C209 H231 0.929 1_565 S
C210 O220 1.271 . S
C210 O221 1.251 . S
C211 O222 1.252 1_565 S
C211 O223 1.272 1_565 S
O212 Sm192 2.543 . S
O212 C194 1.261 . S
O213 Sm192 2.450 . S
O213 C194 1.242 . S
O214 Sm192 2.681 1_565 S
O214 Sm193 2.386 1_565 S
O214 C201 1.271 . S
O215 Sm192 2.464 1_565 S
O215 C201 1.251 . S
O216 Sm192 2.396 . S
O216 C202 1.252 . S
O217 Sm193 2.408 . S
O217 C202 1.272 . S
O218 Sm193 2.543 1_565 S
O218 C203 1.261 1_554 S
O219 Sm193 2.450 1_556 S
O219 C203 1.242 1_545 S
O220 Sm192 2.386 . S
O220 Sm193 2.681 . S
O220 C210 1.271 . S
O221 Sm193 2.464 . S
O221 C210 1.251 . S
O222 Sm193 2.396 . S
O222 C211 1.252 1_545 S
O223 Sm192 2.408 . S
O223 C211 1.272 1_545 S
H224 C196 0.930 . S
H225 C197 0.929 . S
H226 C199 0.930 . S
H227 C200 0.929 . S
H228 C205 0.930 . S
H229 C206 0.929 . S
H230 C208 0.930 . S
H231 C209 0.929 1_545 S
Sm232 C234 2.846 . S
Sm232 O252 2.543 . S
Sm232 O253 2.450 . S
Sm232 O254 2.681 . S
Sm232 O255 2.464 . S
Sm232 O256 2.396 . S
Sm232 O260 2.386 . S
Sm232 O263 2.408 . S
Sm233 C243 2.846 . S
Sm233 O254 2.386 . S
Sm233 O257 2.408 . S
Sm233 O258 2.543 . S
Sm233 O259 2.450 . S
Sm233 O260 2.681 . S
Sm233 O261 2.464 . S
Sm233 O262 2.396 . S
C234 Sm232 2.846 . S
C234 C235 1.506 . S
C234 O252 1.261 . S
C234 O253 1.242 . S
C235 C234 1.506 . S
C235 C236 1.358 . S
C235 C240 1.382 . S
C236 C235 1.358 . S
C236 C237 1.385 . S
C236 H264 0.930 . S
C237 C236 1.385 . S
C237 C238 1.395 . S
C237 H265 0.929 . S
C238 C237 1.395 . S
C238 C239 1.335 . S
C239 C238 1.335 . S
C239 C240 1.398 . S
C239 H266 0.930 . S
C240 C235 1.382 . S
C240 C239 1.398 . S
C240 H267 0.929 . S
C241 O254 1.271 . S
C241 O255 1.251 . S
C242 O256 1.252 . S
C242 O257 1.272 . S
C243 Sm233 2.846 . S
C243 C244 1.506 . S
C243 O258 1.261 . S
C243 O259 1.242 . S
C244 C243 1.506 . S
C244 C245 1.358 . S
C244 C249 1.382 . S
C245 C244 1.358 . S
C245 C246 1.385 . S
C245 H268 0.930 . S
C246 C245 1.385 . S
C246 C247 1.395 . S
C246 H269 0.929 . S
C247 C246 1.395 . S
C247 C248 1.335 . S
C248 C247 1.335 . S
C248 C249 1.398 . S
C248 H270 0.930 . S
C249 C244 1.382 . S
C249 C248 1.398 . S
C249 H271 0.929 . S
C250 O260 1.271 . S
C250 O261 1.251 . S
C251 O262 1.252 . S
C251 O263 1.272 . S
O252 Sm232 2.543 . S
O252 C234 1.261 . S
O253 Sm232 2.450 . S
O253 C234 1.242 . S
O254 Sm232 2.681 . S
O254 Sm233 2.386 . S
O254 C241 1.271 . S
O255 Sm232 2.464 . S
O255 C241 1.251 . S
O256 Sm232 2.396 . S
O256 C242 1.252 . S
O257 Sm233 2.408 . S
O257 C242 1.272 . S
O258 Sm233 2.543 . S
O258 C243 1.261 . S
O259 Sm233 2.450 . S
O259 C243 1.242 . S
O260 Sm232 2.386 . S
O260 Sm233 2.681 . S
O260 C250 1.271 . S
O261 Sm233 2.464 . S
O261 C250 1.251 . S
O262 Sm233 2.396 . S
O262 C251 1.252 . S
O263 Sm232 2.408 . S
O263 C251 1.272 . S
H264 C236 0.930 . S
H265 C237 0.929 . S
H266 C239 0.930 . S
H267 C240 0.929 . S
H268 C245 0.930 . S
H269 C246 0.929 . S
H270 C248 0.930 . S
H271 C249 0.929 . S
Sm272 C274 2.846 . S
Sm272 O292 2.543 . S
Sm272 O293 2.450 . S
Sm272 O294 2.681 . S
Sm272 O295 2.464 . S
Sm272 O296 2.396 . S
Sm272 O300 2.386 . S
Sm272 O303 2.408 1_455 S
Sm273 C283 2.846 1_454 S
Sm273 O294 2.386 . S
Sm273 O297 2.408 . S
Sm273 O298 2.543 1_455 S
Sm273 O299 2.450 1_554 S
Sm273 O300 2.681 . S
Sm273 O301 2.464 1_554 S
Sm273 O302 2.396 1_454 S
C274 Sm272 2.846 . S
C274 C275 1.506 . S
C274 O292 1.261 . S
C274 O293 1.242 . S
C275 C274 1.506 . S
C275 C276 1.358 . S
C275 C280 1.382 . S
C276 C275 1.358 . S
C276 C277 1.385 . S
C276 H304 0.930 . S
C277 C276 1.385 . S
C277 C278 1.395 . S
C277 H305 0.929 . S
C278 C277 1.395 . S
C278 C279 1.335 . S
C279 C278 1.335 . S
C279 C280 1.398 . S
C279 H306 0.930 . S
C280 C275 1.382 . S
C280 C279 1.398 . S
C280 H307 0.929 . S
C281 O294 1.269 1_655 S
C281 O295 1.245 1_655 S
C282 O296 1.252 . S
C282 O297 1.272 . S
C283 Sm273 2.846 1_656 S
C283 C284 1.506 . S
C283 O298 1.261 1_556 S
C283 O299 1.242 1_655 S
C284 C283 1.506 . S
C284 C285 1.358 . S
C284 C289 1.382 . S
C285 C284 1.358 . S
C285 C286 1.385 . S
C285 H308 0.930 . S
C286 C285 1.385 . S
C286 C287 1.395 . S
C286 H309 0.929 . S
C287 C286 1.395 . S
C287 C288 1.335 . S
C288 C287 1.335 . S
C288 C289 1.398 . S
C288 H310 0.930 . S
C289 C284 1.382 . S
C289 C288 1.398 . S
C289 H311 0.929 . S
C290 O300 1.271 1_556 S
C290 O301 1.251 . S
C291 O302 1.252 . S
C291 O303 1.272 1_556 S
O292 Sm272 2.543 . S
O292 C274 1.261 . S
O293 Sm272 2.450 . S
O293 C274 1.242 . S
O294 Sm272 2.681 . S
O294 Sm273 2.386 . S
O294 C281 1.269 1_455 S
O295 Sm272 2.464 . S
O295 C281 1.245 1_455 S
O296 Sm272 2.396 . S
O296 C282 1.252 . S
O297 Sm273 2.408 . S
O297 C282 1.272 . S
O298 Sm273 2.543 1_655 S
O298 C283 1.261 1_554 S
O299 Sm273 2.450 1_556 S
O299 C283 1.242 1_455 S
O300 Sm272 2.386 . S
O300 Sm273 2.681 . S
O300 C290 1.271 1_554 S
O301 Sm273 2.464 1_556 S
O301 C290 1.251 . S
O302 Sm273 2.396 1_656 S
O302 C291 1.252 . S
O303 Sm272 2.408 1_655 S
O303 C291 1.272 1_554 S
H304 C276 0.930 . S
H305 C277 0.929 . S
H306 C279 0.930 . S
H307 C280 0.929 . S
H308 C285 0.930 . S
H309 C286 0.929 . S
H310 C288 0.930 . S
H311 C289 0.929 . S
H312 C318 0.930 . S
H313 C321 0.930 . S
H314 C322 0.930 . S
H315 C323 0.930 . S
H316 C326 0.930 . S
H317 C327 0.930 . S
C318 H312 0.930 . S
C318 C319 1.355 . S
C318 C320 1.415 . S
C319 C318 1.355 . S
C319 C321 1.419 . S
C320 C318 1.415 . S
C320 C325 1.425 . S
C320 C327 1.409 . S
C321 H313 0.930 . S
C321 C319 1.419 . S
C321 C322 1.362 . S
C322 H314 0.930 . S
C322 C321 1.362 . S
C322 C325 1.409 . S
C323 H315 0.930 . S
C323 C324 1.355 . S
C323 C325 1.415 . S
C324 C323 1.355 . S
C324 C326 1.419 . S
C325 C320 1.425 . S
C325 C322 1.409 . S
C325 C323 1.415 . S
C326 H316 0.930 . S
C326 C324 1.419 . S
C326 C327 1.362 . S
C327 H317 0.930 . S
C327 C320 1.409 . S
C327 C326 1.362 . S
H328 C334 0.930 . S
H329 C337 0.930 . S
H330 C338 0.930 . S
H331 C339 0.930 . S
H332 C342 0.930 . S
H333 C343 0.930 . S
C334 H328 0.930 . S
C334 C335 1.355 . S
C334 C336 1.415 . S
C335 C334 1.355 . S
C335 C337 1.419 . S
C336 C334 1.415 . S
C336 C341 1.425 . S
C336 C343 1.409 . S
C337 H329 0.930 . S
C337 C335 1.419 . S
C337 C338 1.362 . S
C338 H330 0.930 . S
C338 C337 1.362 . S
C338 C341 1.409 . S
C339 H331 0.930 . S
C339 C340 1.355 . S
C339 C341 1.415 . S
C340 C339 1.355 . S
C340 C342 1.419 . S
C341 C336 1.425 . S
C341 C338 1.409 . S
C341 C339 1.415 . S
C342 H332 0.930 . S
C342 C340 1.419 . S
C342 C343 1.362 . S
C343 H333 0.930 . S
C343 C336 1.409 . S
C343 C342 1.362 . S
H344 C350 0.930 . S
H345 C353 0.930 . S
H346 C354 0.930 . S
H347 C355 0.930 . S
H348 C358 0.930 . S
H349 C359 0.930 . S
C350 H344 0.930 . S
C350 C351 1.355 . S
C350 C352 1.415 . S
C351 C350 1.355 . S
C351 C353 1.419 . S
C352 C350 1.415 . S
C352 C357 1.425 . S
C352 C359 1.409 . S
C353 H345 0.930 . S
C353 C351 1.419 . S
C353 C354 1.362 . S
C354 H346 0.930 . S
C354 C353 1.362 . S
C354 C357 1.409 . S
C355 H347 0.930 . S
C355 C356 1.355 . S
C355 C357 1.415 . S
C356 C355 1.355 . S
C356 C358 1.419 . S
C357 C352 1.425 . S
C357 C354 1.409 . S
C357 C355 1.415 . S
C358 H348 0.930 . S
C358 C356 1.419 . S
C358 C359 1.362 . S
C359 H349 0.930 . S
C359 C352 1.409 . S
C359 C358 1.362 . S
H360 C366 0.930 . S
H361 C369 0.930 . S
H362 C370 0.930 . S
H363 C371 0.930 . S
H364 C374 0.930 . S
H365 C375 0.930 . S
C366 H360 0.930 . S
C366 C367 1.355 . S
C366 C368 1.415 . S
C367 C366 1.355 . S
C367 C369 1.419 . S
C368 C366 1.415 . S
C368 C373 1.425 . S
C368 C375 1.409 . S
C369 H361 0.930 . S
C369 C367 1.419 . S
C369 C370 1.362 . S
C370 H362 0.930 . S
C370 C369 1.362 . S
C370 C373 1.409 . S
C371 H363 0.930 . S
C371 C372 1.355 . S
C371 C373 1.415 . S
C372 C371 1.355 . S
C372 C374 1.419 . S
C373 C368 1.425 . S
C373 C370 1.409 . S
C373 C371 1.415 . S
C374 H364 0.930 . S
C374 C372 1.419 . S
C374 C375 1.362 . S
C375 H365 0.930 . S
C375 C368 1.409 . S
C375 C374 1.362 . S
H376 C382 0.930 . S
H377 C385 0.930 . S
H378 C386 0.930 . S
H379 C387 0.930 . S
H380 C390 0.930 . S
H381 C391 0.930 . S
C382 H376 0.930 . S
C382 C383 1.355 . S
C382 C384 1.415 . S
C383 C382 1.355 . S
C383 C385 1.419 . S
C384 C382 1.415 . S
C384 C389 1.425 . S
C384 C391 1.409 . S
C385 H377 0.930 . S
C385 C383 1.419 . S
C385 C386 1.362 . S
C386 H378 0.930 . S
C386 C385 1.362 . S
C386 C389 1.409 . S
C387 H379 0.930 . S
C387 C388 1.355 . S
C387 C389 1.415 . S
C388 C387 1.355 . S
C388 C390 1.419 . S
C389 C384 1.425 . S
C389 C386 1.409 . S
C389 C387 1.415 . S
C390 H380 0.930 . S
C390 C388 1.419 . S
C390 C391 1.362 . S
C391 H381 0.930 . S
C391 C384 1.409 . S
C391 C390 1.362 . S
H392 C398 0.930 . S
H393 C401 0.930 . S
H394 C402 0.930 . S
H395 C403 0.930 . S
H396 C406 0.930 . S
H397 C407 0.930 . S
C398 H392 0.930 . S
C398 C399 1.355 . S
C398 C400 1.415 . S
C399 C398 1.355 . S
C399 C401 1.419 . S
C400 C398 1.415 . S
C400 C405 1.425 . S
C400 C407 1.412 1_565 S
C401 H393 0.930 . S
C401 C399 1.419 . S
C401 C402 1.362 . S
C402 H394 0.930 . S
C402 C401 1.362 . S
C402 C405 1.409 . S
C403 H395 0.930 . S
C403 C404 1.355 1_565 S
C403 C405 1.415 . S
C404 C403 1.355 1_545 S
C404 C406 1.419 . S
C405 C400 1.425 . S
C405 C402 1.409 . S
C405 C403 1.415 . S
C406 H396 0.930 . S
C406 C404 1.419 . S
C406 C407 1.359 . S
C407 H397 0.930 . S
C407 C400 1.412 1_545 S
C407 C406 1.359 . S
H408 C414 0.930 . S
H409 C417 0.930 . S
H410 C418 0.930 . S
H411 C419 0.930 . S
H412 C422 0.930 . S
H413 C423 0.930 . S
C414 H408 0.930 . S
C414 C415 1.355 . S
C414 C416 1.415 . S
C415 C414 1.355 . S
C415 C417 1.419 . S
C416 C414 1.415 . S
C416 C421 1.425 . S
C416 C423 1.409 . S
C417 H409 0.930 . S
C417 C415 1.419 . S
C417 C418 1.362 . S
C418 H410 0.930 . S
C418 C417 1.362 . S
C418 C421 1.409 . S
C419 H411 0.930 . S
C419 C420 1.355 . S
C419 C421 1.415 . S
C420 C419 1.355 . S
C420 C422 1.419 . S
C421 C416 1.425 . S
C421 C418 1.409 . S
C421 C419 1.415 . S
C422 H412 0.930 . S
C422 C420 1.419 . S
C422 C423 1.362 . S
C423 H413 0.930 . S
C423 C416 1.409 . S
C423 C422 1.362 . S
H424 C430 0.930 . S
H425 C433 0.930 . S
H426 C434 0.930 . S
H427 C435 0.930 . S
H428 C438 0.930 . S
H429 C439 0.930 . S
C430 H424 0.930 . S
C430 C431 1.355 . S
C430 C432 1.415 . S
C431 C430 1.355 . S
C431 C433 1.419 . S
C432 C430 1.415 . S
C432 C437 1.425 . S
C432 C439 1.409 . S
C433 H425 0.930 . S
C433 C431 1.419 . S
C433 C434 1.362 . S
C434 H426 0.930 . S
C434 C433 1.362 . S
C434 C437 1.409 . S
C435 H427 0.930 . S
C435 C436 1.355 . S
C435 C437 1.415 . S
C436 C435 1.355 . S
C436 C438 1.419 . S
C437 C432 1.425 . S
C437 C434 1.409 . S
C437 C435 1.415 . S
C438 H428 0.930 . S
C438 C436 1.419 . S
C438 C439 1.362 . S
C439 H429 0.930 . S
C439 C432 1.409 . S
C439 C438 1.362 . S
H440 C446 0.930 . S
H441 C449 0.930 . S
H442 C450 0.930 . S
H443 C451 0.930 . S
H444 C454 0.930 . S
H445 C455 0.930 . S
C446 H440 0.930 . S
C446 C447 1.355 . S
C446 C448 1.415 . S
C447 C446 1.355 . S
C447 C449 1.419 . S
C448 C446 1.415 . S
C448 C453 1.425 . S
C448 C455 1.409 . S
C449 H441 0.930 . S
C449 C447 1.419 . S
C449 C450 1.362 . S
C450 H442 0.930 . S
C450 C449 1.362 . S
C450 C453 1.409 . S
C451 H443 0.930 . S
C451 C452 1.355 . S
C451 C453 1.415 . S
C452 C451 1.355 . S
C452 C454 1.419 . S
C453 C448 1.425 . S
C453 C450 1.409 . S
C453 C451 1.415 . S
C454 H444 0.930 . S
C454 C452 1.419 . S
C454 C455 1.362 . S
C455 H445 0.930 . S
C455 C448 1.409 . S
C455 C454 1.362 . S
H456 C462 0.930 1_554 S
H457 C465 0.930 . S
H458 C466 0.930 . S
H459 C467 0.930 . S
H460 C470 0.930 . S
H461 C471 0.930 . S
C462 H456 0.930 1_556 S
C462 C463 1.355 . S
C462 C464 1.415 1_556 S
C463 C462 1.355 . S
C463 C465 1.419 . S
C464 C462 1.415 1_554 S
C464 C469 1.425 1_554 S
C464 C471 1.409 . S
C465 H457 0.930 . S
C465 C463 1.419 . S
C465 C466 1.362 . S
C466 H458 0.930 . S
C466 C465 1.362 . S
C466 C469 1.409 . S
C467 H459 0.930 . S
C467 C468 1.355 1_556 S
C467 C469 1.415 . S
C468 C467 1.355 1_554 S
C468 C470 1.419 . S
C469 C464 1.425 1_556 S
C469 C466 1.409 . S
C469 C467 1.415 . S
C470 H460 0.930 . S
C470 C468 1.419 . S
C470 C471 1.362 . S
C471 H461 0.930 . S
C471 C464 1.409 . S
C471 C470 1.362 . S
H472 C478 0.930 . S
H473 C481 0.930 . S
H474 C482 0.930 . S
H475 C483 0.930 . S
H476 C486 0.930 . S
H477 C487 0.930 . S
C478 H472 0.930 . S
C478 C479 1.355 . S
C478 C480 1.415 . S
C479 C478 1.355 . S
C479 C481 1.419 . S
C480 C478 1.415 . S
C480 C485 1.425 . S
C480 C487 1.409 . S
C481 H473 0.930 . S
C481 C479 1.419 . S
C481 C482 1.362 . S
C482 H474 0.930 . S
C482 C481 1.362 . S
C482 C485 1.409 . S
C483 H475 0.930 . S
C483 C484 1.355 . S
C483 C485 1.415 . S
C484 C483 1.355 . S
C484 C486 1.419 . S
C485 C480 1.425 . S
C485 C482 1.409 . S
C485 C483 1.415 . S
C486 H476 0.930 . S
C486 C484 1.419 . S
C486 C487 1.362 . S
C487 H477 0.930 . S
C487 C480 1.409 . S
C487 C486 1.362 . S
H488 C494 0.930 . S
H489 C497 0.930 . S
H490 C498 0.930 . S
H491 C499 0.930 . S
H492 C502 0.930 . S
H493 C503 0.930 . S
C494 H488 0.930 . S
C494 C495 1.355 . S
C494 C496 1.415 . S
C495 C494 1.355 . S
C495 C497 1.419 . S
C496 C494 1.415 . S
C496 C501 1.425 . S
C496 C503 1.409 . S
C497 H489 0.930 . S
C497 C495 1.419 . S
C497 C498 1.362 . S
C498 H490 0.930 . S
C498 C497 1.362 . S
C498 C501 1.409 . S
C499 H491 0.930 . S
C499 C500 1.355 . S
C499 C501 1.415 . S
C500 C499 1.355 . S
C500 C502 1.419 . S
C501 C496 1.425 . S
C501 C498 1.409 . S
C501 C499 1.415 . S
C502 H492 0.930 . S
C502 C500 1.419 . S
C502 C503 1.362 . S
C503 H493 0.930 . S
C503 C496 1.409 . S
C503 C502 1.362 . S
H504 C510 0.930 . S
H505 C513 0.930 . S
H506 C514 0.930 . S
H507 C515 0.930 . S
H508 C518 0.930 . S
H509 C519 0.930 . S
C510 H504 0.930 . S
C510 C511 1.355 . S
C510 C512 1.415 . S
C511 C510 1.355 . S
C511 C513 1.419 . S
C512 C510 1.415 . S
C512 C517 1.425 . S
C512 C519 1.409 . S
C513 H505 0.930 . S
C513 C511 1.419 . S
C513 C514 1.362 . S
C514 H506 0.930 . S
C514 C513 1.362 . S
C514 C517 1.409 . S
C515 H507 0.930 . S
C515 C516 1.355 . S
C515 C517 1.415 . S
C516 C515 1.355 . S
C516 C518 1.419 . S
C517 C512 1.425 . S
C517 C514 1.409 . S
C517 C515 1.415 . S
C518 H508 0.930 . S
C518 C516 1.419 . S
C518 C519 1.362 . S
C519 H509 0.930 . S
C519 C512 1.409 . S
C519 C518 1.362 . S
H520 C526 0.930 . S
H521 C529 0.930 . S
H522 C530 0.930 . S
H523 C531 0.930 . S
H524 C534 0.930 . S
H525 C535 0.930 . S
C526 H520 0.930 . S
C526 C527 1.355 . S
C526 C528 1.415 . S
C527 C526 1.355 . S
C527 C529 1.419 . S
C528 C526 1.415 . S
C528 C533 1.425 . S
C528 C535 1.409 . S
C529 H521 0.930 . S
C529 C527 1.419 . S
C529 C530 1.362 . S
C530 H522 0.930 . S
C530 C529 1.362 . S
C530 C533 1.409 . S
C531 H523 0.930 . S
C531 C532 1.355 . S
C531 C533 1.415 . S
C532 C531 1.355 . S
C532 C534 1.419 . S
C533 C528 1.425 . S
C533 C530 1.409 . S
C533 C531 1.415 . S
C534 H524 0.930 . S
C534 C532 1.419 . S
C534 C535 1.362 . S
C535 H525 0.930 . S
C535 C528 1.409 . S
C535 C534 1.362 . S
H536 C542 0.930 . S
H537 C545 0.930 . S
H538 C546 0.930 . S
H539 C547 0.930 . S
H540 C550 0.930 . S
H541 C551 0.930 . S
C542 H536 0.930 . S
C542 C543 1.355 . S
C542 C544 1.415 . S
C543 C542 1.355 . S
C543 C545 1.419 . S
C544 C542 1.415 . S
C544 C549 1.425 . S
C544 C551 1.409 . S
C545 H537 0.930 . S
C545 C543 1.419 . S
C545 C546 1.362 . S
C546 H538 0.930 . S
C546 C545 1.362 . S
C546 C549 1.409 . S
C547 H539 0.930 . S
C547 C548 1.355 . S
C547 C549 1.415 . S
C548 C547 1.355 . S
C548 C550 1.419 . S
C549 C544 1.425 . S
C549 C546 1.409 . S
C549 C547 1.415 . S
C550 H540 0.930 . S
C550 C548 1.419 . S
C550 C551 1.362 . S
C551 H541 0.930 . S
C551 C544 1.409 . S
C551 C550 1.362 . S
H552 C558 0.930 . S
H553 C561 0.930 . S
H554 C562 0.930 . S
H555 C563 0.930 . S
H556 C566 0.930 . S
H557 C567 0.930 . S
C558 H552 0.930 . S
C558 C559 1.355 . S
C558 C560 1.415 . S
C559 C558 1.355 . S
C559 C561 1.419 . S
C560 C558 1.415 . S
C560 C565 1.425 . S
C560 C567 1.409 . S
C561 H553 0.930 . S
C561 C559 1.419 . S
C561 C562 1.362 . S
C562 H554 0.930 . S
C562 C561 1.362 . S
C562 C565 1.409 . S
C563 H555 0.930 . S
C563 C564 1.355 . S
C563 C565 1.415 . S
C564 C563 1.355 . S
C564 C566 1.419 . S
C565 C560 1.425 . S
C565 C562 1.409 . S
C565 C563 1.415 . S
C566 H556 0.930 . S
C566 C564 1.419 . S
C566 C567 1.362 . S
C567 H557 0.930 . S
C567 C560 1.409 . S
C567 C566 1.362 . S
H568 C574 0.930 . S
H569 C577 0.930 . S
H570 C578 0.936 . S
H571 C579 0.930 . S
H572 C582 0.930 . S
H573 C583 0.930 . S
C574 H568 0.930 . S
C574 C575 1.355 . S
C574 C576 1.415 . S
C575 C574 1.355 . S
C575 C577 1.419 . S
C576 C574 1.415 . S
C576 C581 1.425 . S
C576 C583 1.409 . S
C577 H569 0.930 . S
C577 C575 1.419 . S
C577 C578 1.358 1_556 S
C578 H570 0.936 . S
C578 C577 1.358 1_554 S
C578 C581 1.407 1_554 S
C579 H571 0.930 . S
C579 C580 1.355 . S
C579 C581 1.415 1_554 S
C580 C579 1.355 . S
C580 C582 1.419 1_554 S
C581 C576 1.425 . S
C581 C578 1.407 1_556 S
C581 C579 1.415 1_556 S
C582 H572 0.930 . S
C582 C580 1.419 1_556 S
C582 C583 1.362 . S
C583 H573 0.930 . S
C583 C576 1.409 . S
C583 C582 1.362 . S
H584 C590 0.930 . S
H585 C593 0.930 . S
H586 C594 0.930 . S
H587 C595 0.930 . S
H588 C598 0.930 . S
H589 C599 0.930 . S
C590 H584 0.930 . S
C590 C591 1.355 . S
C590 C592 1.415 . S
C591 C590 1.355 . S
C591 C593 1.419 . S
C592 C590 1.415 . S
C592 C597 1.425 . S
C592 C599 1.409 . S
C593 H585 0.930 . S
C593 C591 1.419 . S
C593 C594 1.362 . S
C594 H586 0.930 . S
C594 C593 1.362 . S
C594 C597 1.409 . S
C595 H587 0.930 . S
C595 C596 1.355 . S
C595 C597 1.415 . S
C596 C595 1.355 . S
C596 C598 1.419 . S
C597 C592 1.425 . S
C597 C594 1.409 . S
C597 C595 1.415 . S
C598 H588 0.930 . S
C598 C596 1.419 . S
C598 C599 1.362 . S
C599 H589 0.930 . S
C599 C592 1.409 . S
C599 C598 1.362 . S
H600 C606 0.930 . S
H601 C609 0.930 . S
H602 C610 0.930 . S
H603 C611 0.930 . S
H604 C614 0.930 . S
H605 C615 0.930 . S
C606 H600 0.930 . S
C606 C607 1.355 . S
C606 C608 1.415 . S
C607 C606 1.355 . S
C607 C609 1.419 . S
C608 C606 1.415 . S
C608 C613 1.425 . S
C608 C615 1.409 . S
C609 H601 0.930 . S
C609 C607 1.419 . S
C609 C610 1.362 . S
C610 H602 0.930 . S
C610 C609 1.362 . S
C610 C613 1.409 . S
C611 H603 0.930 . S
C611 C612 1.355 . S
C611 C613 1.415 . S
C612 C611 1.355 . S
C612 C614 1.419 . S
C613 C608 1.425 . S
C613 C610 1.409 . S
C613 C611 1.415 . S
C614 H604 0.930 . S
C614 C612 1.419 . S
C614 C615 1.362 . S
C615 H605 0.930 . S
C615 C608 1.409 . S
C615 C614 1.362 . S
H616 C622 0.930 . S
H617 C625 0.930 . S
H618 C626 0.930 . S
H619 C627 0.930 . S
H620 C630 0.930 . S
H621 C631 0.930 . S
C622 H616 0.930 . S
C622 C623 1.355 . S
C622 C624 1.415 . S
C623 C622 1.355 . S
C623 C625 1.419 . S
C624 C622 1.415 . S
C624 C629 1.425 . S
C624 C631 1.409 . S
C625 H617 0.930 . S
C625 C623 1.419 . S
C625 C626 1.362 . S
C626 H618 0.930 . S
C626 C625 1.362 . S
C626 C629 1.409 . S
C627 H619 0.930 . S
C627 C628 1.355 . S
C627 C629 1.415 . S
C628 C627 1.355 . S
C628 C630 1.419 . S
C629 C624 1.425 . S
C629 C626 1.409 . S
C629 C627 1.415 . S
C630 H620 0.930 . S
C630 C628 1.419 . S
C630 C631 1.362 . S
C631 H621 0.930 . S
C631 C624 1.409 . S
C631 C630 1.362 . S
H632 C638 0.930 . S
H633 C641 0.930 . S
H634 C642 0.930 . S
H635 C643 0.930 . S
H636 C646 0.930 . S
H637 C647 0.930 . S
C638 H632 0.930 . S
C638 C639 1.355 . S
C638 C640 1.415 . S
C639 C638 1.355 . S
C639 C641 1.419 . S
C640 C638 1.415 . S
C640 C645 1.425 . S
C640 C647 1.409 . S
C641 H633 0.930 . S
C641 C639 1.419 . S
C641 C642 1.362 . S
C642 H634 0.930 . S
C642 C641 1.362 . S
C642 C645 1.409 . S
C643 H635 0.930 . S
C643 C644 1.355 . S
C643 C645 1.415 . S
C644 C643 1.355 . S
C644 C646 1.419 . S
C645 C640 1.425 . S
C645 C642 1.409 . S
C645 C643 1.415 . S
C646 H636 0.930 . S
C646 C644 1.419 . S
C646 C647 1.362 . S
C647 H637 0.930 . S
C647 C640 1.409 . S
C647 C646 1.362 . S
H648 C654 0.930 . S
H649 C657 0.930 . S
H650 C658 0.930 . S
H651 C659 0.930 . S
H652 C662 0.930 . S
H653 C663 0.930 . S
C654 H648 0.930 . S
C654 C655 1.355 . S
C654 C656 1.415 . S
C655 C654 1.355 . S
C655 C657 1.419 . S
C656 C654 1.415 . S
C656 C661 1.425 . S
C656 C663 1.409 . S
C657 H649 0.930 . S
C657 C655 1.419 . S
C657 C658 1.362 . S
C658 H650 0.930 . S
C658 C657 1.362 . S
C658 C661 1.409 . S
C659 H651 0.930 . S
C659 C660 1.355 . S
C659 C661 1.415 . S
C660 C659 1.355 . S
C660 C662 1.419 . S
C661 C656 1.425 . S
C661 C658 1.409 . S
C661 C659 1.415 . S
C662 H652 0.930 . S
C662 C660 1.419 . S
C662 C663 1.362 . S
C663 H653 0.930 . S
C663 C656 1.409 . S
C663 C662 1.362 . S
H664 C670 0.930 . S
H665 C673 0.930 . S
H666 C674 0.930 . S
H667 C675 0.930 . S
H668 C678 0.930 . S
H669 C679 0.930 . S
C670 H664 0.930 . S
C670 C671 1.355 . S
C670 C672 1.415 . S
C671 C670 1.355 . S
C671 C673 1.419 . S
C672 C670 1.415 . S
C672 C677 1.425 . S
C672 C679 1.409 . S
C673 H665 0.930 . S
C673 C671 1.419 . S
C673 C674 1.362 . S
C674 H666 0.930 . S
C674 C673 1.362 . S
C674 C677 1.409 . S
C675 H667 0.930 . S
C675 C676 1.355 . S
C675 C677 1.415 . S
C676 C675 1.355 . S
C676 C678 1.419 . S
C677 C672 1.425 . S
C677 C674 1.409 . S
C677 C675 1.415 . S
C678 H668 0.930 . S
C678 C676 1.419 . S
C678 C679 1.362 . S
C679 H669 0.930 . S
C679 C672 1.409 . S
C679 C678 1.362 . S
H680 C686 0.930 . S
H681 C689 0.930 . S
H682 C690 0.930 . S
H683 C691 0.930 . S
H684 C694 0.930 . S
H685 C695 0.930 . S
C686 H680 0.930 . S
C686 C687 1.355 . S
C686 C688 1.415 . S
C687 C686 1.355 . S
C687 C689 1.419 . S
C688 C686 1.415 . S
C688 C693 1.425 . S
C688 C695 1.409 . S
C689 H681 0.930 . S
C689 C687 1.419 . S
C689 C690 1.362 . S
C690 H682 0.930 . S
C690 C689 1.362 . S
C690 C693 1.409 . S
C691 H683 0.930 . S
C691 C692 1.355 . S
C691 C693 1.415 . S
C692 C691 1.355 . S
C692 C694 1.419 . S
C693 C688 1.425 . S
C693 C690 1.409 . S
C693 C691 1.415 . S
C694 H684 0.930 . S
C694 C692 1.419 . S
C694 C695 1.362 . S
C695 H685 0.930 . S
C695 C688 1.409 . S
C695 C694 1.362 . S
C319 C6 1.165 . S
C324 C158 1.225 . S
C335 C21 1.448 . S
C340 C207 1.481 . S
C356 C242 1.953 . S
C351 C49 1.888 . S
C367 C68 2.142 . S
C372 C281 2.170 . S
C388 C202 2.917 . S
C383 C2 2.796 . S
C404 C161 0.322 . S
C399 C30 0.404 . S
C420 C291 1.921 . S
C415 C40 1.985 . S
C436 C250 1.625 . S
C431 C63 1.628 . S
C447 C11 1.380 . S
C452 C278 1.547 . S
C468 C210 2.588 . S
C463 C44 2.678 . S
C479 C59 1.999 . S
C484 C171 1.992 . S
C495 C25 1.400 . S
C500 C247 1.379 . S
C516 C167 1.376 . S
C511 C82 1.398 . S
C527 C101 1.278 . S
C532 C198 1.293 . S
C543 C125 2.305 . S
C548 C251 2.383 . S
C559 C144 1.910 . S
C564 C290 1.991 . S
C575 C87 1.927 . S
C580 C211 2.048 . S
C596 C170 1.632 . S
C591 C97 1.686 . S
C612 C282 1.709 . S
C607 C120 1.792 . S
C628 C241 1.672 . S
C623 C135 1.729 . S
C639 C78 1.910 . S
C644 C287 2.030 . S
C660 C201 1.920 . S
C655 C116 1.979 . S
C676 C162 2.627 . S
C671 C139 2.631 . S
C687 C106 0.927 . S
C692 C238 1.023 . S
