# Generated by pormake.
# Topology anh, (6,3)-cn, num edge types: 1
# Building blocks:
#     Node 0, Type 0, BuildingBlock: BETGAK_clean_sbu_0, # of connection points: 6
#     Node 1, Type 0, BuildingBlock: BETGAK_clean_sbu_0, # of connection points: 6
#     Node 2, Type 0, BuildingBlock: BETGAK_clean_sbu_0, # of connection points: 6
#     Node 3, Type 1, BuildingBlock: MIDCAF_clean_linker_0, # of connection points: 3
#     Node 4, Type 1, BuildingBlock: MIDCAF_clean_linker_0, # of connection points: 3
#     Node 5, Type 1, BuildingBlock: MIDCAF_clean_linker_0, # of connection points: 3
#     Node 6, Type 1, BuildingBlock: MIDCAF_clean_linker_0, # of connection points: 3
#     Node 7, Type 1, BuildingBlock: MIDCAF_clean_linker_0, # of connection points: 3
#     Node 8, Type 1, BuildingBlock: MIDCAF_clean_linker_0, # of connection points: 3
#     Edge 9, Type (0, 1), BuildingBlock: XIVTED_clean_linker_0, # of connection points: 2
#     Edge 10, Type (0, 1), BuildingBlock: XIVTED_clean_linker_0, # of connection points: 2
#     Edge 11, Type (0, 1), BuildingBlock: XIVTED_clean_linker_0, # of connection points: 2
#     Edge 12, Type (0, 1), BuildingBlock: XIVTED_clean_linker_0, # of connection points: 2
#     Edge 13, Type (0, 1), BuildingBlock: XIVTED_clean_linker_0, # of connection points: 2
#     Edge 14, Type (0, 1), BuildingBlock: XIVTED_clean_linker_0, # of connection points: 2
#     Edge 15, Type (0, 1), BuildingBlock: XIVTED_clean_linker_0, # of connection points: 2
#     Edge 16, Type (0, 1), BuildingBlock: XIVTED_clean_linker_0, # of connection points: 2
#     Edge 17, Type (0, 1), BuildingBlock: XIVTED_clean_linker_0, # of connection points: 2
#     Edge 18, Type (0, 1), BuildingBlock: XIVTED_clean_linker_0, # of connection points: 2
#     Edge 19, Type (0, 1), BuildingBlock: XIVTED_clean_linker_0, # of connection points: 2
#     Edge 20, Type (0, 1), BuildingBlock: XIVTED_clean_linker_0, # of connection points: 2
#     Edge 21, Type (0, 1), BuildingBlock: XIVTED_clean_linker_0, # of connection points: 2
#     Edge 22, Type (0, 1), BuildingBlock: XIVTED_clean_linker_0, # of connection points: 2
#     Edge 23, Type (0, 1), BuildingBlock: XIVTED_clean_linker_0, # of connection points: 2
#     Edge 24, Type (0, 1), BuildingBlock: XIVTED_clean_linker_0, # of connection points: 2
#     Edge 25, Type (0, 1), BuildingBlock: XIVTED_clean_linker_0, # of connection points: 2
#     Edge 26, Type (0, 1), BuildingBlock: XIVTED_clean_linker_0, # of connection points: 2
# Relax obj value: 0.185
# Max RMSD: 0.207
# Mean RMSD: 0.156
data_MOF--net-anh--node1-BETGAK_clean_sbu_0--node2-MIDCAF_clean_linker_0--edge1-XIVTED_clean_linker_0
_symmetry_space_group_name_H-M    P1
_symmetry_Int_Tables_number       1
_symmetry_cell_setting            triclinic
loop_
_symmetry_equiv_pos_as_xyz
'x, y, z'
_cell_length_a     36.188321
_cell_length_b     43.697814
_cell_length_c     66.912796
_cell_angle_alpha  92.291158
_cell_angle_beta   89.180167
_cell_angle_gamma 128.50724
loop_
_atom_site_label
_atom_site_type_symbol
_atom_site_fract_x
_atom_site_fract_y
_atom_site_fract_z
_atom_type_partial_charge
La0 La 0.11092 0.5212 0.14013 0.0
La1 La 1.05546 0.54605 0.1559 0.0
C2 C 0.16703 0.51501 0.12169 0.0
C3 C 0.21599 0.53072 0.12618 0.0
C4 C 0.22377 0.50759 0.13628 0.0
C5 C 0.26921 0.52259 0.14198 0.0
C6 C 0.30814 0.56089 0.13746 0.0
C7 C 0.30082 0.58387 0.12689 0.0
C8 C 0.25502 0.569 0.1214 0.0
C9 C 0.10144 0.5189 0.17922 0.0
C10 C 0.16182 0.61267 0.15045 0.0
C11 C 0.99716 0.54744 0.17578 0.0
C12 C 0.94752 0.51488 0.18003 0.0
C13 C 0.9184 0.48644 0.16497 0.0
C14 C 0.87274 0.45367 0.16926 0.0
C15 C 0.85511 0.44828 0.18874 0.0
C16 C 0.8842 0.47685 0.20384 0.0
C17 C 0.93019 0.50985 0.19951 0.0
C18 C 1.06703 0.54901 0.11689 0.0
C19 C 1.00474 0.45565 0.14556 0.0
O20 O 0.1352 0.48924 0.13405 0.0
O21 O 0.16026 0.54009 0.1171 0.0
O22 O 0.10502 0.49555 0.16862 0.0
O23 O 0.10788 0.54441 0.16826 0.0
O24 O 0.16344 0.58601 0.14119 0.0
O25 O 0.12354 0.60284 0.15974 0.0
O26 O 1.00689 0.55728 0.15709 0.0
O27 O 1.02794 0.54515 0.18394 0.0
O28 O 1.06626 0.57408 0.12752 0.0
O29 O 1.0586 0.5227 0.12782 0.0
O30 O 1.00622 0.48189 0.15691 0.0
O31 O 1.04054 0.46643 0.13394 0.0
H32 H 0.19461 0.47785 0.13997 0.0
H33 H 0.27397 0.50382 0.1496 0.0
H34 H 0.33042 0.61335 0.12303 0.0
H35 H 0.25021 0.58751 0.11355 0.0
H36 H 0.93105 0.48916 0.14987 0.0
H37 H 0.85101 0.4328 0.15714 0.0
H38 H 0.87154 0.47356 0.21897 0.0
H39 H 0.9524 0.53116 0.2114 0.0
La40 La 0.63098 0.02344 0.48207 0.0
La41 La 0.56681 0.04255 0.47265 0.0
C42 C 0.66925 0.99693 0.49689 0.0
C43 C 0.65776 0.95861 0.49969 0.0
C44 C 0.6939 0.9554 0.49837 0.0
C45 C 0.68411 0.91939 0.50076 0.0
C46 C 0.6378 0.88572 0.50446 0.0
C47 C 0.60155 0.88907 0.5057 0.0
C48 C 0.61147 0.92521 0.50336 0.0
C49 C 0.62809 0.03619 0.44428 0.0
C50 C 0.52078 0.95479 0.4725 0.0
C51 C 0.53097 0.07195 0.4591 0.0
C52 C 0.54133 0.10995 0.46311 0.0
C53 C 0.57138 0.13454 0.47909 0.0
C54 C 0.58081 0.1704 0.4832 0.0
C55 C 0.56034 0.18243 0.47141 0.0
C56 C 0.53042 0.1577 0.45531 0.0
C57 C 0.52106 0.12176 0.45119 0.0
C58 C 0.57155 0.03126 0.51055 0.0
C59 C 0.67782 0.11177 0.48074 0.0
O60 O 0.67472 0.00744 0.47839 0.0
O61 O 0.64525 1.0051 0.50731 0.0
O62 O 0.66538 0.04546 0.45334 0.0
O63 O 0.5935 0.01799 0.45587 0.0
O64 O 0.5597 0.96571 0.48183 0.0
O65 O 0.51879 0.98077 0.46429 0.0
O66 O 0.51384 0.04876 0.47417 0.0
O67 O 0.56419 0.07324 0.45003 0.0
O68 O 0.53379 0.0217 0.50188 0.0
O69 O 0.60517 0.04891 0.49856 0.0
O70 O 0.63692 0.10033 0.47349 0.0
O71 O 0.68273 0.08646 0.48756 0.0
H72 H 0.72987 0.98089 0.49556 0.0
H73 H 0.71305 0.91812 0.50006 0.0
H74 H 0.56543 0.86372 0.50834 0.0
H75 H 0.58308 0.92709 0.50447 0.0
H76 H 0.58719 0.12581 0.48853 0.0
H77 H 0.60337 0.18831 0.4959 0.0
H78 H 0.51448 0.16623 0.4458 0.0
H79 H 0.49788 0.10315 0.43875 0.0
La80 La 0.63267 0.55893 0.83607 0.0
La81 La 0.56715 0.47219 0.8407 0.0
C82 C 0.67282 0.62779 0.82563 0.0
C83 C 0.66003 0.65352 0.8228 0.0
C84 C 0.68289 0.68833 0.83449 0.0
C85 C 0.67263 0.71387 0.83179 0.0
C86 C 0.63959 0.70537 0.81715 0.0
C87 C 0.61628 0.67018 0.80559 0.0
C88 C 0.62629 0.64446 0.80841 0.0
C89 C 0.62461 0.53562 0.87256 0.0
C90 C 0.5213 0.51325 0.84152 0.0
C91 C 0.52942 0.40408 0.85171 0.0
C92 C 0.54026 0.37721 0.84762 0.0
C93 C 0.5711 0.38444 0.83219 0.0
C94 C 0.58138 0.35888 0.82822 0.0
C95 C 0.56115 0.32565 0.83967 0.0
C96 C 0.53063 0.31882 0.8553 0.0
C97 C 0.5203 0.34445 0.85924 0.0
C98 C 0.57586 0.49425 0.80378 0.0
C99 C 0.67939 0.51832 0.83551 0.0
O100 O 0.6724 0.61866 0.84406 0.0
O101 O 0.65496 0.5979 0.81297 0.0
O102 O 0.66364 0.56579 0.86537 0.0
O103 O 0.59184 0.52115 0.85988 0.0
O104 O 0.5619 0.54395 0.83434 0.0
O105 O 0.51742 0.48322 0.84817 0.0
O106 O 0.51478 0.41158 0.83629 0.0
O107 O 0.56126 0.43584 0.86231 0.0
O108 O 0.53767 0.46319 0.81086 0.0
O109 O 0.60838 0.50973 0.81671 0.0
O110 O 0.6374 0.48612 0.84062 0.0
O111 O 0.68512 0.55014 0.8307 0.0
H112 H 0.70897 0.69592 0.84571 0.0
H113 H 0.69064 0.74029 0.84122 0.0
H114 H 0.59109 0.66287 0.794 0.0
H115 H 0.60801 0.61778 0.79916 0.0
H116 H 0.58694 0.40971 0.82309 0.0
H117 H 0.60444 0.36477 0.81589 0.0
H118 H 0.51495 0.29383 0.86458 0.0
H119 H 0.49672 0.33868 0.87132 0.0
C120 C 0.44172 0.90598 0.19085 0.0
C121 C 0.44621 0.89269 0.17223 0.0
C122 C 0.4894 0.91666 0.16214 0.0
C123 C 0.52739 0.95317 0.17066 0.0
H124 H 0.64668 0.08231 0.15994 0.0
H125 H 0.70503 0.14598 0.14479 0.0
H126 H 0.76048 0.19987 0.20348 0.0
H127 H 0.70397 0.13766 0.21852 0.0
H128 H 0.66536 0.09686 0.25622 0.0
H129 H 0.66759 0.09866 0.29255 0.0
H130 H 0.54082 0.97829 0.29233 0.0
H131 H 0.53787 0.97655 0.25592 0.0
H132 H 0.47481 0.95065 0.21399 0.0
H133 H 0.40921 0.88808 0.19914 0.0
H134 H 0.49378 0.90714 0.14773 0.0
H135 H 0.56053 0.97089 0.1628 0.0
N136 N 0.59779 0.03439 0.19006 0.0
N137 N 0.63405 0.06754 0.2208 0.0
N138 N 0.56497 1.00293 0.22041 0.0
C139 C 0.63336 0.06756 0.2005 0.0
C140 C 0.60026 0.03551 0.23088 0.0
C141 C 0.56336 1.00193 0.2001 0.0
C142 C 0.67005 0.10466 0.1905 0.0
C143 C 0.67161 0.10771 0.16956 0.0
C144 C 0.70498 0.14403 0.16088 0.0
C145 C 0.73671 0.17781 0.17303 0.0
C146 C 0.73595 0.17442 0.19379 0.0
C147 C 0.70338 0.13848 0.20238 0.0
C148 C 0.6015 0.0365 0.25306 0.0
C149 C 0.63785 0.07071 0.26385 0.0
C150 C 0.6393 0.07173 0.28472 0.0
C151 C 0.60448 0.03859 0.29535 0.0
C152 C 0.56789 1.00447 0.2846 0.0
C153 C 0.56642 1.00342 0.2637 0.0
C154 C 0.52295 0.96571 0.18959 0.0
C155 C 0.47954 0.94182 0.19943 0.0
C156 C 0.63265 0.43523 0.54482 0.0
C157 C 0.61402 0.42462 0.52525 0.0
C158 C 0.59889 0.44425 0.51692 0.0
C159 C 0.60216 0.47379 0.52802 0.0
H160 H 0.61686 0.57951 0.52388 0.0
H161 H 0.612 0.62807 0.51021 0.0
H162 H 0.60932 0.66702 0.57017 0.0
H163 H 0.61339 0.61873 0.58377 0.0
H164 H 0.64352 0.59537 0.62031 0.0
H165 H 0.64066 0.59147 0.65666 0.0
H166 H 0.60672 0.47771 0.6508 0.0
H167 H 0.6096 0.4814 0.6145 0.0
H168 H 0.64945 0.47123 0.57108 0.0
H169 H 0.64408 0.42035 0.55176 0.0
H170 H 0.58458 0.43679 0.50183 0.0
H171 H 0.58984 0.48816 0.52129 0.0
N172 N 0.61806 0.53951 0.55188 0.0
N173 N 0.62228 0.56581 0.58385 0.0
N174 N 0.62425 0.51341 0.58048 0.0
C175 C 0.61884 0.56609 0.56367 0.0
C176 C 0.62492 0.5396 0.59238 0.0
C177 C 0.621 0.51316 0.56026 0.0
C178 C 0.61551 0.59506 0.55495 0.0
C179 C 0.61502 0.59834 0.53413 0.0
C180 C 0.61243 0.62626 0.52629 0.0
C181 C 0.60994 0.65125 0.5391 0.0
C182 C 0.61028 0.64779 0.55985 0.0
C183 C 0.61303 0.62016 0.56766 0.0
C184 C 0.62645 0.53857 0.61445 0.0
C185 C 0.63575 0.56961 0.62675 0.0
C186 C 0.63442 0.56754 0.64757 0.0
C187 C 0.62321 0.53421 0.65651 0.0
C188 C 0.61498 0.50358 0.64427 0.0
C189 C 0.61687 0.50583 0.62348 0.0
C190 C 0.61991 0.48375 0.54778 0.0
C191 C 0.63538 0.46426 0.55596 0.0
C192 C 1.00516 0.56389 0.85816 0.0
C193 C 0.96742 0.53124 0.84696 0.0
C194 C 0.96985 0.50093 0.84165 0.0
C195 C 1.00796 0.50255 0.84816 0.0
H196 H 0.18567 0.54853 0.83979 0.0
H197 H 0.24856 0.54466 0.82986 0.0
H198 H 0.22696 0.48489 0.8839 0.0
H199 H 0.1649 0.48833 0.89351 0.0
H200 H 0.17409 0.55966 0.93181 0.0
H201 H 0.16925 0.56372 0.96829 0.0
H202 H 1.0241 0.5176 0.96258 0.0
H203 H 1.02902 0.51437 0.92617 0.0
H204 H 1.06953 0.58974 0.87446 0.0
H205 H 1.00454 0.58759 0.86281 0.0
H206 H 0.94167 0.47545 0.83291 0.0
H207 H 1.00756 0.47789 0.8448 0.0
N208 N 0.1071 0.52653 0.86348 0.0
N209 N 0.13439 0.52858 0.89567 0.0
N210 N 0.07586 0.53548 0.89223 0.0
C211 C 0.13623 0.52486 0.87547 0.0
C212 C 0.10438 0.53378 0.90414 0.0
C213 C 0.0768 0.53199 0.87202 0.0
C214 C 0.17014 0.5188 0.86746 0.0
C215 C 0.1939 0.53396 0.8493 0.0
C216 C 0.23029 0.53209 0.84373 0.0
C217 C 0.24309 0.51444 0.85606 0.0
C218 C 0.21801 0.49824 0.87383 0.0
C219 C 0.18238 0.50047 0.87944 0.0
C220 C 0.10194 0.53672 0.92614 0.0
C221 C 0.14121 0.55051 0.93835 0.0
C222 C 0.13857 0.55302 0.95916 0.0
C223 C 0.09631 0.54092 0.96813 0.0
C224 C 1.05702 0.52697 0.95597 0.0
C225 C 1.05995 0.5253 0.93517 0.0
C226 C 1.0441 0.53431 0.86029 0.0
C227 C 1.04264 0.56522 0.86483 0.0
C228 C 0.2521 0.65848 0.42721 0.0
C229 C 0.2524 0.6696 0.44717 0.0
C230 C 0.21671 0.64159 0.45995 0.0
C231 C 0.17968 0.60368 0.45243 0.0
H232 H 1.06861 0.46791 0.46109 0.0
H233 H 1.00519 0.40746 0.47746 0.0
H234 H 0.90984 0.37882 0.42891 0.0
H235 H 0.97222 0.43834 0.41277 0.0
H236 H 1.02528 0.45859 0.36862 0.0
H237 H 1.01968 0.45606 0.3322 0.0
H238 H 0.14838 0.57531 0.33098 0.0
H239 H 0.1538 0.57822 0.3672 0.0
H240 H 0.21654 0.61406 0.40414 0.0
H241 H 0.27963 0.67927 0.41714 0.0
H242 H 0.21633 0.64953 0.47545 0.0
H243 H 0.15144 0.58315 0.4623 0.0
N244 N 0.10232 0.52506 0.43376 0.0
N245 N 1.06018 0.49014 0.40404 0.0
N246 N 0.13192 0.553 0.40253 0.0
C247 C 1.06388 0.492 0.42434 0.0
C248 C 0.09409 0.52048 0.39303 0.0
C249 C 0.13662 0.55582 0.42275 0.0
C250 C 1.02552 0.45786 0.4356 0.0
C251 C 1.03387 0.44887 0.45412 0.0
C252 C 0.99773 0.41419 0.4634 0.0
C253 C 0.95246 0.38841 0.4545 0.0
C254 C 0.94404 0.3982 0.43631 0.0
C255 C 0.98004 0.43229 0.42697 0.0
C256 C 0.09002 0.51858 0.37091 0.0
C257 C 1.05232 0.48432 0.3606 0.0
C258 C 1.04918 0.48278 0.33972 0.0
C259 C 0.08351 0.51552 0.32871 0.0
C260 C 0.12096 0.54978 0.33902 0.0
C261 C 0.12421 0.5513 0.35984 0.0
C262 C 0.17816 0.59335 0.43207 0.0
C263 C 0.21573 0.62094 0.4198 0.0
C264 C 0.62175 0.13979 0.76777 0.0
C265 C 0.60732 0.1339 0.78779 0.0
C266 C 0.59481 0.10026 0.79694 0.0
C267 C 0.59598 0.07276 0.78617 0.0
H268 H 0.62083 0.98843 0.79077 0.0
H269 H 0.62126 0.93858 0.80581 0.0
H270 H 0.57293 0.87153 0.74975 0.0
H271 H 0.57226 0.92094 0.73472 0.0
H272 H 0.57355 0.95968 0.6954 0.0
H273 H 0.57143 0.96034 0.65898 0.0
H274 H 0.63087 0.08203 0.66285 0.0
H275 H 0.63291 0.08156 0.69926 0.0
H276 H 0.63299 0.11742 0.74146 0.0
H277 H 0.63111 0.16521 0.76024 0.0
H278 H 0.58388 0.09513 0.8124 0.0
H279 H 0.58545 0.04686 0.79356 0.0
N280 N 0.60316 0.01859 0.76298 0.0
N281 N 0.59949 0.99091 0.73155 0.0
N282 N 0.60739 0.04834 0.73367 0.0
C283 C 0.59954 0.99009 0.75182 0.0
C284 C 0.60356 0.01999 0.72236 0.0
C285 C 0.60697 0.04779 0.75396 0.0
C286 C 0.59679 0.95882 0.7615 0.0
C287 C 0.60983 0.96286 0.78171 0.0
C288 C 0.61032 0.93445 0.7903 0.0
C289 C 0.59718 0.90121 0.77894 0.0
C290 C 0.58278 0.89662 0.75894 0.0
C291 C 0.58277 0.92515 0.75029 0.0
C292 C 0.60329 0.02055 0.70026 0.0
C293 C 0.58637 0.98665 0.68851 0.0
C294 C 0.58491 0.98692 0.66767 0.0
C295 C 0.60099 0.02122 0.65814 0.0
C296 C 0.61862 0.05528 0.66983 0.0
C297 C 0.61947 0.05489 0.69068 0.0
C298 C 0.6091 0.07813 0.76595 0.0
C299 C 0.62246 0.11219 0.75696 0.0
C300 C 0.57752 0.32522 0.1206 0.0
C301 C 0.55984 0.31952 0.14016 0.0
C302 C 0.5273 0.32638 0.14434 0.0
C303 C 0.5185 0.34413 0.13037 0.0
H304 H 0.54633 0.4525 0.13981 0.0
H305 H 0.53591 0.49746 0.15624 0.0
H306 H 0.53228 0.5365 0.09842 0.0
H307 H 0.54464 0.4932 0.08226 0.0
H308 H 0.53548 0.3627 0.04003 0.0
H309 H 0.55188 0.3746 0.00417 0.0
H310 H 0.64147 0.4992 0.01741 0.0
H311 H 0.62493 0.48744 0.05277 0.0
H312 H 0.58579 0.34967 0.09228 0.0
H313 H 0.6027 0.32039 0.1167 0.0
H314 H 0.51183 0.32121 0.15901 0.0
H315 H 0.49658 0.35225 0.13467 0.0
N316 N 0.54072 0.40993 0.10936 0.0
N317 N 0.56106 0.44396 0.07995 0.0
N318 N 0.55614 0.38784 0.08022 0.0
C319 C 0.5491 0.44012 0.09946 0.0
C320 C 0.56453 0.41806 0.07021 0.0
C321 C 0.54403 0.38362 0.09987 0.0
C322 C 0.54566 0.46886 0.10971 0.0
C323 C 0.54383 0.47105 0.13067 0.0
C324 C 0.5379 0.49687 0.14008 0.0
C325 C 0.53306 0.52063 0.12871 0.0
C326 C 0.53681 0.5194 0.10779 0.0
C327 C 0.54331 0.49404 0.09844 0.0
C328 C 0.57866 0.42416 0.04908 0.0
C329 C 0.55933 0.39254 0.0352 0.0
C330 C 0.5685 0.39933 0.01476 0.0
C331 C 0.59797 0.43781 0.00806 0.0
C332 C 0.61907 0.46926 0.02213 0.0
C333 C 0.60928 0.4625 0.04238 0.0
C334 C 0.54126 0.35454 0.11182 0.0
C335 C 0.56809 0.34239 0.10653 0.0
H336 H 0.34036 0.55729 0.17327 0.0
H337 H 0.47288 0.49926 0.16007 0.0
H338 H 0.3847 0.59566 0.11311 0.0
H339 H 0.55716 0.59156 0.11845 0.0
H340 H 0.43215 0.52526 0.16899 0.0
H341 H 0.41155 0.56353 0.17854 0.0
C342 C 0.36558 0.56765 0.16129 0.0
C343 C 0.3561 0.57479 0.14252 0.0
C344 C 0.46072 0.54091 0.15846 0.0
C345 C 0.43637 0.58059 0.14816 0.0
C346 C 0.4842 0.52591 0.1533 0.0
C347 C 0.5178 0.54254 0.13806 0.0
C348 C 0.47038 0.57249 0.14811 0.0
C349 C 0.53025 0.57685 0.12975 0.0
C350 C 0.40596 0.57091 0.16424 0.0
C351 C 0.3904 0.58926 0.12769 0.0
N352 N 0.50554 0.58999 0.13444 0.0
N353 N 0.42862 0.59085 0.13068 0.0
H354 H 0.6769 0.17259 0.47423 0.0
H355 H 0.95782 0.33392 0.47008 0.0
H356 H 0.77195 0.14769 0.48754 0.0
H357 H 0.85952 0.35611 0.45872 0.0
H358 H 0.89164 0.26768 0.47998 0.0
H359 H 0.74422 0.24138 0.4717 0.0
C360 C 0.71195 0.18158 0.47676 0.0
C361 C 0.71867 0.15412 0.48097 0.0
C362 C 0.88465 0.28722 0.47553 0.0
C363 C 0.79653 0.2334 0.4779 0.0
C364 C 0.92245 0.32512 0.47002 0.0
C365 C 0.91414 0.35046 0.46336 0.0
C366 C 0.83826 0.27464 0.47439 0.0
C367 C 0.86752 0.33736 0.46341 0.0
C368 C 0.75053 0.22104 0.47531 0.0
C369 C 0.76508 0.16779 0.48423 0.0
N370 N 0.83144 0.30038 0.46866 0.0
N371 N 0.80229 0.20642 0.48243 0.0
H372 H 0.5555 0.68991 0.80756 0.0
H373 H 0.6696 0.91562 0.80127 0.0
H374 H 0.7034 0.78566 0.81839 0.0
H375 H 0.5333 0.82113 0.77572 0.0
H376 H 0.6781 0.86776 0.81264 0.0
H377 H 0.54292 0.7372 0.80022 0.0
C378 C 0.58536 0.7208 0.80838 0.0
C379 C 0.63067 0.73369 0.81354 0.0
C380 C 0.64621 0.85749 0.80465 0.0
C381 C 0.61622 0.78799 0.80548 0.0
C382 C 0.64118 0.88476 0.7983 0.0
C383 C 0.60078 0.87232 0.78746 0.0
C384 C 0.61044 0.81745 0.80025 0.0
C385 C 0.56528 0.83198 0.78382 0.0
C386 C 0.57805 0.74778 0.80429 0.0
C387 C 0.66774 0.77422 0.81476 0.0
N388 N 0.57097 0.80597 0.79016 0.0
N389 N 0.6597 0.79986 0.81073 0.0
H390 H 0.7906 0.44766 0.21107 0.0
H391 H 0.59442 0.27811 0.14061 0.0
H392 H 0.80538 0.37205 0.17478 0.0
H393 H 0.58207 0.35445 0.1777 0.0
H394 H 0.6592 0.29511 0.16213 0.0
H395 H 0.70512 0.39807 0.20882 0.0
C396 C 0.77593 0.42015 0.20311 0.0
C397 C 0.8051 0.41462 0.19243 0.0
C398 C 0.64131 0.3072 0.1659 0.0
C399 C 0.70717 0.35818 0.18925 0.0
C400 C 0.60431 0.29754 0.15357 0.0
C401 C 0.58406 0.31621 0.15673 0.0
C402 C 0.65826 0.33593 0.18135 0.0
C403 C 0.59706 0.33986 0.17426 0.0
C404 C 0.72696 0.39182 0.20172 0.0
C405 C 0.78402 0.37817 0.18253 0.0
N406 N 0.63422 0.34992 0.18555 0.0
N407 N 0.73629 0.35176 0.1807 0.0
H408 H 0.44088 0.92164 0.45002 0.0
H409 H 0.31466 0.7005 0.47919 0.0
H410 H 0.50562 0.89178 0.49005 0.0
H411 H 0.27216 0.73315 0.4298 0.0
H412 H 0.37919 0.77043 0.48702 0.0
H413 H 0.37332 0.85263 0.44596 0.0
C414 C 0.44097 0.90061 0.45801 0.0
C415 C 0.47937 0.91268 0.47029 0.0
C416 C 0.3555 0.76218 0.47456 0.0
C417 C 0.4015 0.8331 0.46572 0.0
C418 C 0.31861 0.72241 0.4702 0.0
C419 C 0.28841 0.7112 0.45376 0.0
C420 C 0.36159 0.79068 0.46252 0.0
C421 C 0.29502 0.7406 0.44248 0.0
C422 C 0.40226 0.86108 0.45566 0.0
C423 C 0.47711 0.88386 0.48029 0.0
N424 N 0.33082 0.77886 0.44704 0.0
N425 N 0.43885 0.84538 0.47777 0.0
H426 H 0.64503 0.34231 0.82834 0.0
H427 H 0.53495 0.11761 0.81132 0.0
H428 H 0.49957 0.24535 0.84003 0.0
H429 H 0.67019 0.21402 0.78869 0.0
H430 H 0.52575 0.16432 0.82657 0.0
H431 H 0.65869 0.29588 0.81805 0.0
C432 C 0.61593 0.31127 0.82875 0.0
C433 C 0.57092 0.29778 0.83488 0.0
C434 C 0.55758 0.17526 0.81838 0.0
C435 C 0.58657 0.24443 0.82336 0.0
C436 C 0.56301 0.14864 0.8098 0.0
C437 C 0.60329 0.16197 0.79863 0.0
C438 C 0.5928 0.21552 0.81586 0.0
C439 C 0.63828 0.20248 0.79695 0.0
C440 C 0.62385 0.28478 0.82296 0.0
C441 C 0.53492 0.25717 0.83557 0.0
N442 N 0.63217 0.22781 0.80541 0.0
N443 N 0.54347 0.23196 0.82977 0.0
H444 H 0.57786 0.83012 0.53144 0.0
H445 H 0.66002 0.69976 0.50803 0.0
H446 H 0.67524 0.85446 0.48464 0.0
H447 H 0.55614 0.67228 0.55213 0.0
H448 H 0.66211 0.75384 0.49754 0.0
H449 H 0.56563 0.76977 0.53762 0.0
C450 C 0.59628 0.8226 0.52229 0.0
C451 C 0.62788 0.84767 0.50757 0.0
C452 C 0.63861 0.73579 0.50942 0.0
C453 C 0.61457 0.77866 0.51482 0.0
C454 C 0.63718 0.70474 0.51533 0.0
C455 C 0.60824 0.68167 0.53114 0.0
C456 C 0.61093 0.74387 0.5194 0.0
C457 C 0.57973 0.68977 0.54016 0.0
C458 C 0.58948 0.78818 0.52591 0.0
C459 C 0.65123 0.83649 0.4964 0.0
N460 N 0.58204 0.7203 0.53426 0.0
N461 N 0.64431 0.80297 0.50033 0.0
H462 H 0.6815 0.45777 0.8428 0.0
H463 H 0.96367 0.58905 0.83521 0.0
H464 H 0.77242 0.57932 0.82775 0.0
H465 H 0.87322 0.46657 0.8483 0.0
H466 H 0.89379 0.58515 0.83111 0.0
H467 H 0.75046 0.45958 0.84366 0.0
C468 C 0.71586 0.48485 0.83959 0.0
C469 C 0.72087 0.51849 0.83523 0.0
C470 C 0.88911 0.55902 0.83476 0.0
C471 C 0.80051 0.52075 0.83626 0.0
C472 C 0.92913 0.56124 0.83716 0.0
C473 C 0.92468 0.52814 0.84223 0.0
C474 C 0.84384 0.52346 0.83752 0.0
C475 C 0.87866 0.49282 0.84423 0.0
C476 C 0.75534 0.48583 0.84008 0.0
C477 C 0.76656 0.55262 0.83119 0.0
N478 N 0.84024 0.4915 0.84203 0.0
N479 N 0.80441 0.55289 0.83188 0.0
H480 H 0.16622 0.67549 0.16167 0.0
H481 H 0.44704 0.83409 0.15618 0.0
H482 H 0.2536 0.64557 0.14019 0.0
H483 H 0.35333 0.86112 0.17031 0.0
H484 H 0.37799 0.76593 0.14813 0.0
H485 H 0.23527 0.74408 0.16347 0.0
C486 C 0.2 0.68331 0.15732 0.0
C487 C 0.20405 0.65456 0.15093 0.0
C488 C 0.37263 0.78693 0.15277 0.0
C489 C 0.28395 0.73372 0.15297 0.0
C490 C 0.41202 0.82586 0.15721 0.0
C491 C 0.40588 0.8532 0.16414 0.0
C492 C 0.32693 0.7754 0.15529 0.0
C493 C 0.3597 0.84089 0.16536 0.0
C494 C 0.23955 0.72267 0.15827 0.0
C495 C 0.24884 0.66674 0.14528 0.0
N496 N 0.32216 0.80296 0.16118 0.0
N497 N 0.28718 0.70542 0.14659 0.0
H498 H 0.49778 0.19826 0.47042 0.0
H499 H 0.67892 0.41184 0.52198 0.0
H500 H 0.64365 0.25275 0.48369 0.0
H501 H 0.53788 0.36333 0.5033 0.0
H502 H 0.6675 0.35485 0.50655 0.0
H503 H 0.51252 0.25937 0.48069 0.0
C504 C 0.53305 0.22317 0.47525 0.0
C505 C 0.56943 0.22015 0.47632 0.0
C506 C 0.63912 0.35674 0.50566 0.0
C507 C 0.58637 0.29016 0.48838 0.0
C508 C 0.64559 0.38923 0.51452 0.0
C509 C 0.60917 0.3922 0.51406 0.0
C510 C 0.59571 0.32667 0.49636 0.0
C511 C 0.56697 0.36231 0.50393 0.0
C512 C 0.54138 0.25803 0.48122 0.0
C513 C 0.61426 0.25338 0.48297 0.0
N514 N 0.56122 0.3306 0.49565 0.0
N515 N 0.62135 0.28682 0.48885 0.0
H516 H 0.43176 0.4549 0.85436 0.0
H517 H 0.33031 0.57241 0.84017 0.0
H518 H 0.51541 0.57074 0.8311 0.0
H519 H 0.248 0.4548 0.86094 0.0
H520 H 0.3976 0.57218 0.83552 0.0
H521 H 0.3641 0.45457 0.85618 0.0
C522 C 0.43604 0.48034 0.84963 0.0
C523 C 0.47971 0.51293 0.84262 0.0
C524 C 0.36473 0.54637 0.84101 0.0
C525 C 0.40157 0.51272 0.84466 0.0
C526 C 0.32607 0.54636 0.84353 0.0
C527 C 0.28321 0.51369 0.85114 0.0
C528 C 0.36068 0.51344 0.84609 0.0
C529 C 0.28037 0.48099 0.8554 0.0
C530 C 0.39718 0.4801 0.85064 0.0
C531 C 0.48262 0.54493 0.83665 0.0
N532 N 0.31839 0.4818 0.85291 0.0
N533 N 0.44425 0.54405 0.83785 0.0
H534 H 0.98562 0.39124 0.12462 0.0
H535 H 0.74527 0.24242 0.18371 0.0
H536 H 0.92696 0.42476 0.16852 0.0
H537 H 0.80386 0.20291 0.14398 0.0
H538 H 0.807 0.30946 0.17427 0.0
H539 H 0.91602 0.32238 0.12804 0.0
C540 C 0.95801 0.38425 0.1348 0.0
C541 C 0.96218 0.41397 0.14625 0.0
C542 C 0.80639 0.28627 0.16742 0.0
C543 C 0.88262 0.33546 0.15017 0.0
C544 C 0.77102 0.24796 0.17279 0.0
C545 C 0.76981 0.21724 0.16474 0.0
C546 C 0.84141 0.29425 0.15402 0.0
C547 C 0.80368 0.22589 0.15051 0.0
C548 C 0.91832 0.34497 0.13673 0.0
C549 C 0.92532 0.40312 0.15923 0.0
N550 N 0.83859 0.26376 0.14576 0.0
N551 N 0.88738 0.36493 0.16084 0.0
H552 H 0.10365 0.6099 0.09216 0.0
H553 H 1.03242 0.48085 0.99177 0.0
H554 H 1.04403 0.48835 0.09219 0.0
H555 H 0.15195 0.60367 0.99428 0.0
H556 H 1.02638 0.48324 0.02828 0.0
H557 H 0.11253 0.60871 0.05568 0.0
C558 C 0.09236 0.58301 0.08446 0.0
C559 C 1.07299 0.54915 0.09508 0.0
C560 C 1.05397 0.50963 0.02083 0.0
C561 C 0.08238 0.54745 0.05365 0.0
C562 C 1.05728 0.50831 7e-05 0.0
C563 C 0.09275 0.54211 0.99014 0.0
C564 C 0.08573 0.54519 0.03166 0.0
C565 C 0.1243 0.57697 0.00149 0.0
C566 C 0.09762 0.5824 0.06374 0.0
C567 C 1.05913 0.51507 0.0845 0.0
N568 N 0.11981 0.57774 0.02169 0.0
N569 N 1.06367 0.51496 0.06432 0.0
H570 H 0.69983 0.07185 0.41774 0.0
H571 H 0.53193 0.00736 0.3221 0.0
H572 H 0.54932 0.00771 0.42175 0.0
H573 H 0.68274 0.07172 0.31915 0.0
H574 H 0.53723 0.00841 0.35858 0.0
H575 H 0.69416 0.0741 0.3816 0.0
C576 C 0.66558 0.05836 0.41097 0.0
C577 C 0.62495 0.03938 0.42266 0.0
C578 C 0.56916 0.02241 0.34994 0.0
C579 C 0.61804 0.04167 0.3813 0.0
C580 C 0.56613 0.02161 0.32911 0.0
C581 C 0.60696 0.03947 0.31753 0.0
C582 C 0.61333 0.04108 0.35926 0.0
C583 C 0.65041 0.05801 0.32745 0.0
C584 C 0.66232 0.05962 0.39034 0.0
C585 C 0.58146 0.02253 0.4132 0.0
N586 N 0.6524 0.05824 0.34771 0.0
N587 N 0.57909 0.0239 0.39302 0.0
H588 H 0.50962 0.4561 0.77416 0.0
H589 H 0.68252 0.58818 0.68615 0.0
H590 H 0.65746 0.55156 0.78478 0.0
H591 H 0.55101 0.47176 0.67672 0.0
H592 H 0.67135 0.58076 0.72246 0.0
H593 H 0.52136 0.46734 0.73839 0.0
C594 C 0.54455 0.47961 0.76894 0.0
C595 C 0.58268 0.50288 0.78238 0.0
C596 C 0.64507 0.55688 0.7124 0.0
C597 C 0.59638 0.51596 0.74148 0.0
C598 C 0.65131 0.56113 0.69174 0.0
C599 C 0.61775 0.53042 0.67847 0.0
C600 C 0.60462 0.52193 0.71974 0.0
C601 C 0.57804 0.49594 0.68644 0.0
C602 C 0.55125 0.48594 0.74853 0.0
C603 C 0.62714 0.53306 0.77486 0.0
N604 N 0.57249 0.49269 0.70654 0.0
N605 N 0.63283 0.53877 0.75485 0.0
H606 H 0.50057 0.98649 0.53679 0.0
H607 H 0.6697 0.07491 0.63284 0.0
H608 H 0.65238 0.06718 0.53278 0.0
H609 H 0.52619 0.96791 0.63339 0.0
H610 H 0.66336 0.07576 0.59649 0.0
H611 H 0.50827 0.98211 0.57267 0.0
C612 C 0.53551 1.00319 0.5435 0.0
C613 C 0.57591 0.0273 0.53193 0.0
C614 C 0.63337 0.05198 0.60456 0.0
C615 C 0.58503 0.02275 0.57283 0.0
C616 C 0.6369 0.05161 0.62528 0.0
C617 C 0.59838 0.02133 0.63608 0.0
C618 C 0.59079 0.02218 0.59464 0.0
C619 C 0.5568 0.99163 0.62557 0.0
C620 C 0.5399 1.0006 0.56392 0.0
C621 C 0.62038 0.04825 0.54125 0.0
N622 N 0.55396 0.99296 0.60544 0.0
N623 N 0.62379 0.04575 0.56122 0.0
H624 H 0.54407 0.47574 0.89055 0.0
H625 H 0.67969 0.49105 0.9883 0.0
H626 H 0.69558 0.55604 0.89791 0.0
H627 H 0.52934 0.40386 0.979 0.0
H628 H 0.6868 0.51215 0.95423 0.0
H629 H 0.53807 0.4467 0.92217 0.0
C630 C 0.57606 0.48716 0.89884 0.0
C631 C 0.62038 0.51826 0.89169 0.0
C632 C 0.6523 0.48808 0.95952 0.0
C633 C 0.6139 0.48542 0.92782 0.0
C634 C 0.64827 0.47601 0.97894 0.0
C635 C 0.60383 0.44587 0.98648 0.0
C636 C 0.61151 0.47015 0.9476 0.0
C637 C 0.56428 0.42709 0.97371 0.0
C638 C 0.57266 0.47054 0.91684 0.0
C639 C 0.66073 0.53216 0.90298 0.0
N640 N 0.56896 0.43988 0.95496 0.0
N641 N 0.65652 0.51571 0.92053 0.0
H642 H 0.11097 0.57435 0.20438 0.0
H643 H 1.06114 0.45579 0.30282 0.0
H644 H 0.07957 0.46155 0.2036 0.0
H645 H 0.10086 0.57169 0.30405 0.0
H646 H 1.06197 0.45534 0.2663 0.0
H647 H 0.10242 0.57223 0.24079 0.0
C648 C 0.10201 0.54906 0.2119 0.0
C649 C 0.09589 0.51805 0.20107 0.0
C650 C 1.07035 0.48083 0.27455 0.0
C651 C 0.08635 0.51546 0.2426 0.0
C652 C 1.06956 0.48098 0.29541 0.0
C653 C 0.08118 0.51391 0.30652 0.0
C654 C 0.08278 0.51381 0.2647 0.0
C655 C 0.09239 0.54593 0.29609 0.0
C656 C 0.09725 0.54788 0.23266 0.0
C657 C 0.08471 0.4861 0.21147 0.0
N658 N 0.09304 0.54513 0.27578 0.0
N659 N 0.08034 0.48563 0.23167 0.0
loop_
_geom_bond_atom_site_label_1
_geom_bond_atom_site_label_2
_geom_bond_distance
_geom_bond_site_symmetry_2
_ccdc_geom_bond_type
La0 C2 2.928 . S
La0 O20 2.521 . S
La0 O21 2.628 . S
La0 O22 2.554 . S
La0 O23 2.757 . S
La0 O24 2.470 . S
La0 O29 2.482 . S
La0 O31 2.503 1_455 S
La1 C11 2.928 . S
La1 O23 2.482 1_655 S
La1 O25 2.503 1_655 S
La1 O26 2.521 . S
La1 O27 2.628 . S
La1 O28 2.554 . S
La1 O29 2.757 1_655 S
La1 O30 2.470 . S
C2 La0 2.928 . S
C2 C3 1.503 . S
C2 O20 1.261 . S
C2 O21 1.243 . S
C3 C2 1.503 . S
C3 C4 1.394 . S
C3 C8 1.373 . S
C4 C3 1.394 . S
C4 C5 1.380 . S
C4 H32 0.930 . S
C5 C4 1.380 . S
C5 C6 1.376 . S
C5 H33 0.930 . S
C6 C5 1.376 . S
C6 C7 1.370 . S
C7 C6 1.370 . S
C7 C8 1.396 . S
C7 H34 0.929 . S
C8 C3 1.373 . S
C8 C7 1.396 . S
C8 H35 0.929 . S
C9 O22 1.240 . S
C9 O23 1.289 . S
C10 O24 1.258 . S
C10 O25 1.256 . S
C11 La1 2.928 . S
C11 C12 1.503 . S
C11 O26 1.261 . S
C11 O27 1.243 . S
C12 C11 1.503 . S
C12 C13 1.394 . S
C12 C17 1.373 . S
C13 C12 1.394 . S
C13 C14 1.380 . S
C13 H36 0.930 . S
C14 C13 1.380 . S
C14 C15 1.376 . S
C14 H37 0.930 . S
C15 C14 1.376 . S
C15 C16 1.370 . S
C16 C15 1.370 . S
C16 C17 1.396 . S
C16 H38 0.929 . S
C17 C12 1.373 . S
C17 C16 1.396 . S
C17 H39 0.929 . S
C18 O28 1.240 1_455 S
C18 O29 1.289 . S
C19 O30 1.258 . S
C19 O31 1.256 . S
O20 La0 2.521 . S
O20 C2 1.261 . S
O21 La0 2.628 . S
O21 C2 1.243 . S
O22 La0 2.554 . S
O22 C9 1.240 . S
O23 La0 2.757 . S
O23 La1 2.482 1_455 S
O23 C9 1.289 . S
O24 La0 2.470 . S
O24 C10 1.258 . S
O25 La1 2.503 1_455 S
O25 C10 1.256 . S
O26 La1 2.521 . S
O26 C11 1.261 . S
O27 La1 2.628 . S
O27 C11 1.243 . S
O28 La1 2.554 . S
O28 C18 1.240 1_655 S
O29 La0 2.482 . S
O29 La1 2.757 1_455 S
O29 C18 1.289 . S
O30 La1 2.470 . S
O30 C19 1.258 . S
O31 La0 2.503 1_655 S
O31 C19 1.256 . S
H32 C4 0.930 . S
H33 C5 0.930 . S
H34 C7 0.929 . S
H35 C8 0.929 . S
H36 C13 0.930 . S
H37 C14 0.930 . S
H38 C16 0.929 . S
H39 C17 0.929 . S
La40 C42 2.928 . S
La40 O60 2.521 . S
La40 O61 2.628 . S
La40 O62 2.554 . S
La40 O63 2.757 1_565 S
La40 O64 2.470 . S
La40 O69 2.482 . S
La40 O71 2.503 1_565 S
La41 C51 2.928 . S
La41 O63 2.482 . S
La41 O65 2.503 1_545 S
La41 O66 2.521 . S
La41 O67 2.628 . S
La41 O68 2.554 . S
La41 O69 2.757 1_545 S
La41 O70 2.470 . S
C42 La40 2.928 . S
C42 C43 1.503 . S
C42 O60 1.261 . S
C42 O61 1.243 . S
C43 C42 1.503 . S
C43 C44 1.394 . S
C43 C48 1.373 . S
C44 C43 1.394 . S
C44 C45 1.380 . S
C44 H72 0.930 . S
C45 C44 1.380 . S
C45 C46 1.376 . S
C45 H73 0.930 . S
C46 C45 1.376 . S
C46 C47 1.370 . S
C47 C46 1.370 . S
C47 C48 1.396 . S
C47 H74 0.929 . S
C48 C43 1.373 . S
C48 C47 1.396 . S
C48 H75 0.929 . S
C49 O62 1.240 1_545 S
C49 O63 1.289 . S
C50 O64 1.258 . S
C50 O65 1.256 . S
C51 La41 2.928 . S
C51 C52 1.503 . S
C51 O66 1.261 . S
C51 O67 1.243 . S
C52 C51 1.503 . S
C52 C53 1.394 . S
C52 C57 1.373 . S
C53 C52 1.394 . S
C53 C54 1.380 . S
C53 H76 0.930 . S
C54 C53 1.380 . S
C54 C55 1.376 . S
C54 H77 0.930 . S
C55 C54 1.376 . S
C55 C56 1.370 . S
C56 C55 1.370 . S
C56 C57 1.396 . S
C56 H78 0.929 . S
C57 C52 1.373 . S
C57 C56 1.396 . S
C57 H79 0.929 . S
C58 O68 1.240 . S
C58 O69 1.289 1_545 S
C59 O70 1.258 . S
C59 O71 1.256 . S
O60 La40 2.521 . S
O60 C42 1.261 . S
O61 La40 2.628 . S
O61 C42 1.243 . S
O62 La40 2.554 . S
O62 C49 1.240 1_565 S
O63 La40 2.757 1_545 S
O63 La41 2.482 . S
O63 C49 1.289 . S
O64 La40 2.470 . S
O64 C50 1.258 . S
O65 La41 2.503 1_565 S
O65 C50 1.256 . S
O66 La41 2.521 . S
O66 C51 1.261 . S
O67 La41 2.628 . S
O67 C51 1.243 . S
O68 La41 2.554 . S
O68 C58 1.240 . S
O69 La40 2.482 . S
O69 La41 2.757 1_565 S
O69 C58 1.289 1_565 S
O70 La41 2.470 . S
O70 C59 1.258 . S
O71 La40 2.503 1_545 S
O71 C59 1.256 . S
H72 C44 0.930 . S
H73 C45 0.930 . S
H74 C47 0.929 . S
H75 C48 0.929 . S
H76 C53 0.930 . S
H77 C54 0.930 . S
H78 C56 0.929 . S
H79 C57 0.929 . S
La80 C82 2.928 . S
La80 O100 2.521 . S
La80 O101 2.628 . S
La80 O102 2.554 . S
La80 O103 2.757 . S
La80 O104 2.470 . S
La80 O109 2.482 . S
La80 O111 2.503 . S
La81 C91 2.928 . S
La81 O103 2.482 . S
La81 O105 2.503 . S
La81 O106 2.521 . S
La81 O107 2.628 . S
La81 O108 2.554 . S
La81 O109 2.757 . S
La81 O110 2.470 . S
C82 La80 2.928 . S
C82 C83 1.503 . S
C82 O100 1.261 . S
C82 O101 1.243 . S
C83 C82 1.503 . S
C83 C84 1.394 . S
C83 C88 1.373 . S
C84 C83 1.394 . S
C84 C85 1.380 . S
C84 H112 0.930 . S
C85 C84 1.380 . S
C85 C86 1.376 . S
C85 H113 0.930 . S
C86 C85 1.376 . S
C86 C87 1.370 . S
C87 C86 1.370 . S
C87 C88 1.396 . S
C87 H114 0.929 . S
C88 C83 1.373 . S
C88 C87 1.396 . S
C88 H115 0.929 . S
C89 O102 1.240 . S
C89 O103 1.289 . S
C90 O104 1.258 . S
C90 O105 1.256 . S
C91 La81 2.928 . S
C91 C92 1.503 . S
C91 O106 1.261 . S
C91 O107 1.243 . S
C92 C91 1.503 . S
C92 C93 1.394 . S
C92 C97 1.373 . S
C93 C92 1.394 . S
C93 C94 1.380 . S
C93 H116 0.930 . S
C94 C93 1.380 . S
C94 C95 1.376 . S
C94 H117 0.930 . S
C95 C94 1.376 . S
C95 C96 1.370 . S
C96 C95 1.370 . S
C96 C97 1.396 . S
C96 H118 0.929 . S
C97 C92 1.373 . S
C97 C96 1.396 . S
C97 H119 0.929 . S
C98 O108 1.240 . S
C98 O109 1.289 . S
C99 O110 1.258 . S
C99 O111 1.256 . S
O100 La80 2.521 . S
O100 C82 1.261 . S
O101 La80 2.628 . S
O101 C82 1.243 . S
O102 La80 2.554 . S
O102 C89 1.240 . S
O103 La80 2.757 . S
O103 La81 2.482 . S
O103 C89 1.289 . S
O104 La80 2.470 . S
O104 C90 1.258 . S
O105 La81 2.503 . S
O105 C90 1.256 . S
O106 La81 2.521 . S
O106 C91 1.261 . S
O107 La81 2.628 . S
O107 C91 1.243 . S
O108 La81 2.554 . S
O108 C98 1.240 . S
O109 La80 2.482 . S
O109 La81 2.757 . S
O109 C98 1.289 . S
O110 La81 2.470 . S
O110 C99 1.258 . S
O111 La80 2.503 . S
O111 C99 1.256 . S
H112 C84 0.930 . S
H113 C85 0.930 . S
H114 C87 0.929 . S
H115 C88 0.929 . S
H116 C93 0.930 . S
H117 C94 0.930 . S
H118 C96 0.929 . S
H119 C97 0.929 . S
C120 C121 1.384 . S
C120 H133 0.947 . S
C120 C155 1.382 . S
C121 C120 1.384 . S
C121 C122 1.378 . S
C122 C121 1.378 . S
C122 C123 1.378 . S
C122 H134 0.952 . S
C123 C122 1.378 . S
C123 H135 0.950 . S
C123 C154 1.383 . S
H124 C143 0.947 . S
H125 C144 0.946 . S
H126 C146 0.953 . S
H127 C147 0.945 . S
H128 C149 0.952 . S
H129 C150 0.949 . S
H130 C152 0.950 . S
H131 C153 0.948 . S
H132 C155 0.951 . S
H133 C120 0.947 . S
H134 C122 0.952 . S
H135 C123 0.950 . S
N136 C139 1.382 . S
N136 C141 1.363 1_545 S
N137 C139 1.371 . S
N137 C140 1.372 . S
N138 C140 1.361 1_565 S
N138 C141 1.377 . S
C139 N136 1.382 . S
C139 N137 1.371 . S
C139 C142 1.480 . S
C140 N137 1.372 . S
C140 N138 1.361 1_545 S
C140 C148 1.457 . S
C141 N136 1.363 1_565 S
C141 N138 1.377 . S
C141 C154 1.479 . S
C142 C139 1.480 . S
C142 C143 1.383 . S
C142 C147 1.385 . S
C143 H124 0.947 . S
C143 C142 1.383 . S
C143 C144 1.388 . S
C144 H125 0.946 . S
C144 C143 1.388 . S
C144 C145 1.384 . S
C145 C144 1.384 . S
C145 C146 1.377 . S
C146 H126 0.953 . S
C146 C145 1.377 . S
C146 C147 1.369 . S
C147 H127 0.945 . S
C147 C142 1.385 . S
C147 C146 1.369 . S
C148 C140 1.457 . S
C148 C149 1.372 . S
C148 C153 1.364 1_545 S
C149 H128 0.952 . S
C149 C148 1.372 . S
C149 C150 1.389 . S
C150 H129 0.949 . S
C150 C149 1.389 . S
C150 C151 1.387 . S
C151 C150 1.387 . S
C151 C152 1.372 1_545 S
C152 H130 0.950 . S
C152 C151 1.372 1_565 S
C152 C153 1.379 . S
C153 H131 0.948 . S
C153 C148 1.364 1_565 S
C153 C152 1.379 . S
C154 C123 1.383 . S
C154 C141 1.479 . S
C154 C155 1.398 . S
C155 C120 1.382 . S
C155 H132 0.951 . S
C155 C154 1.398 . S
C156 C157 1.384 . S
C156 H169 0.947 . S
C156 C191 1.382 . S
C157 C156 1.384 . S
C157 C158 1.378 . S
C158 C157 1.378 . S
C158 C159 1.378 . S
C158 H170 0.952 . S
C159 C158 1.378 . S
C159 H171 0.950 . S
C159 C190 1.383 . S
H160 C179 0.947 . S
H161 C180 0.946 . S
H162 C182 0.953 . S
H163 C183 0.945 . S
H164 C185 0.952 . S
H165 C186 0.949 . S
H166 C188 0.950 . S
H167 C189 0.948 . S
H168 C191 0.951 . S
H169 C156 0.947 . S
H170 C158 0.952 . S
H171 C159 0.950 . S
N172 C175 1.382 . S
N172 C177 1.363 . S
N173 C175 1.371 . S
N173 C176 1.372 . S
N174 C176 1.361 . S
N174 C177 1.377 . S
C175 N172 1.382 . S
C175 N173 1.371 . S
C175 C178 1.480 . S
C176 N173 1.372 . S
C176 N174 1.361 . S
C176 C184 1.457 . S
C177 N172 1.363 . S
C177 N174 1.377 . S
C177 C190 1.479 . S
C178 C175 1.480 . S
C178 C179 1.383 . S
C178 C183 1.385 . S
C179 H160 0.947 . S
C179 C178 1.383 . S
C179 C180 1.388 . S
C180 H161 0.946 . S
C180 C179 1.388 . S
C180 C181 1.384 . S
C181 C180 1.384 . S
C181 C182 1.377 . S
C182 H162 0.953 . S
C182 C181 1.377 . S
C182 C183 1.369 . S
C183 H163 0.945 . S
C183 C178 1.385 . S
C183 C182 1.369 . S
C184 C176 1.457 . S
C184 C185 1.372 . S
C184 C189 1.364 . S
C185 H164 0.952 . S
C185 C184 1.372 . S
C185 C186 1.389 . S
C186 H165 0.949 . S
C186 C185 1.389 . S
C186 C187 1.387 . S
C187 C186 1.387 . S
C187 C188 1.372 . S
C188 H166 0.950 . S
C188 C187 1.372 . S
C188 C189 1.379 . S
C189 H167 0.948 . S
C189 C184 1.364 . S
C189 C188 1.379 . S
C190 C159 1.383 . S
C190 C177 1.479 . S
C190 C191 1.398 . S
C191 C156 1.382 . S
C191 H168 0.951 . S
C191 C190 1.398 . S
C192 C193 1.384 . S
C192 H205 0.947 . S
C192 C227 1.382 . S
C193 C192 1.384 . S
C193 C194 1.378 . S
C194 C193 1.378 . S
C194 C195 1.378 . S
C194 H206 0.952 . S
C195 C194 1.378 . S
C195 H207 0.950 . S
C195 C226 1.383 . S
H196 C215 0.947 . S
H197 C216 0.946 . S
H198 C218 0.953 . S
H199 C219 0.945 . S
H200 C221 0.952 . S
H201 C222 0.949 . S
H202 C224 0.950 1_655 S
H203 C225 0.948 1_655 S
H204 C227 0.951 . S
H205 C192 0.947 . S
H206 C194 0.952 . S
H207 C195 0.950 . S
N208 C211 1.382 . S
N208 C213 1.363 . S
N209 C211 1.371 . S
N209 C212 1.372 . S
N210 C212 1.361 . S
N210 C213 1.377 . S
C211 N208 1.382 . S
C211 N209 1.371 . S
C211 C214 1.480 . S
C212 N209 1.372 . S
C212 N210 1.361 . S
C212 C220 1.457 . S
C213 N208 1.363 . S
C213 N210 1.377 . S
C213 C226 1.479 1_455 S
C214 C211 1.480 . S
C214 C215 1.383 . S
C214 C219 1.385 . S
C215 H196 0.947 . S
C215 C214 1.383 . S
C215 C216 1.388 . S
C216 H197 0.946 . S
C216 C215 1.388 . S
C216 C217 1.384 . S
C217 C216 1.384 . S
C217 C218 1.377 . S
C218 H198 0.953 . S
C218 C217 1.377 . S
C218 C219 1.369 . S
C219 H199 0.945 . S
C219 C214 1.385 . S
C219 C218 1.369 . S
C220 C212 1.457 . S
C220 C221 1.372 . S
C220 C225 1.364 . S
C221 H200 0.952 . S
C221 C220 1.372 . S
C221 C222 1.389 . S
C222 H201 0.949 . S
C222 C221 1.389 . S
C222 C223 1.387 . S
C223 C222 1.387 . S
C223 C224 1.372 . S
C224 H202 0.950 1_455 S
C224 C223 1.372 . S
C224 C225 1.379 . S
C225 H203 0.948 1_455 S
C225 C220 1.364 . S
C225 C224 1.379 . S
C226 C195 1.383 . S
C226 C213 1.479 1_655 S
C226 C227 1.398 . S
C227 C192 1.382 . S
C227 H204 0.951 . S
C227 C226 1.398 . S
C228 C229 1.384 . S
C228 H241 0.947 . S
C228 C263 1.382 . S
C229 C228 1.384 . S
C229 C230 1.378 . S
C230 C229 1.378 . S
C230 C231 1.378 . S
C230 H242 0.952 . S
C231 C230 1.378 . S
C231 H243 0.950 . S
C231 C262 1.383 . S
H232 C251 0.947 . S
H233 C252 0.946 . S
H234 C254 0.953 . S
H235 C255 0.945 . S
H236 C257 0.952 . S
H237 C258 0.949 . S
H238 C260 0.950 . S
H239 C261 0.948 . S
H240 C263 0.951 . S
H241 C228 0.947 . S
H242 C230 0.952 . S
H243 C231 0.950 . S
N244 C247 1.382 1_455 S
N244 C249 1.363 . S
N245 C247 1.371 . S
N245 C248 1.372 1_655 S
N246 C248 1.361 . S
N246 C249 1.377 . S
C247 N244 1.382 1_655 S
C247 N245 1.371 . S
C247 C250 1.480 . S
C248 N245 1.372 1_455 S
C248 N246 1.361 . S
C248 C256 1.457 . S
C249 N244 1.363 . S
C249 N246 1.377 . S
C249 C262 1.479 . S
C250 C247 1.480 . S
C250 C251 1.383 . S
C250 C255 1.385 . S
C251 H232 0.947 . S
C251 C250 1.383 . S
C251 C252 1.388 . S
C252 H233 0.946 . S
C252 C251 1.388 . S
C252 C253 1.384 . S
C253 C252 1.384 . S
C253 C254 1.377 . S
C254 H234 0.953 . S
C254 C253 1.377 . S
C254 C255 1.369 . S
C255 H235 0.945 . S
C255 C250 1.385 . S
C255 C254 1.369 . S
C256 C248 1.457 . S
C256 C257 1.372 1_455 S
C256 C261 1.364 . S
C257 H236 0.952 . S
C257 C256 1.372 1_655 S
C257 C258 1.389 . S
C258 H237 0.949 . S
C258 C257 1.389 . S
C258 C259 1.387 1_655 S
C259 C258 1.387 1_455 S
C259 C260 1.372 . S
C260 H238 0.950 . S
C260 C259 1.372 . S
C260 C261 1.379 . S
C261 H239 0.948 . S
C261 C256 1.364 . S
C261 C260 1.379 . S
C262 C231 1.383 . S
C262 C249 1.479 . S
C262 C263 1.398 . S
C263 C228 1.382 . S
C263 H240 0.951 . S
C263 C262 1.398 . S
C264 C265 1.384 . S
C264 H277 0.947 . S
C264 C299 1.382 . S
C265 C264 1.384 . S
C265 C266 1.378 . S
C266 C265 1.378 . S
C266 C267 1.378 . S
C266 H278 0.952 . S
C267 C266 1.378 . S
C267 H279 0.950 . S
C267 C298 1.383 . S
H268 C287 0.947 . S
H269 C288 0.946 . S
H270 C290 0.953 . S
H271 C291 0.945 . S
H272 C293 0.952 . S
H273 C294 0.949 . S
H274 C296 0.950 . S
H275 C297 0.948 . S
H276 C299 0.951 . S
H277 C264 0.947 . S
H278 C266 0.952 . S
H279 C267 0.950 . S
N280 C283 1.382 1_545 S
N280 C285 1.363 . S
N281 C283 1.371 . S
N281 C284 1.372 1_565 S
N282 C284 1.361 . S
N282 C285 1.377 . S
C283 N280 1.382 1_565 S
C283 N281 1.371 . S
C283 C286 1.480 . S
C284 N281 1.372 1_545 S
C284 N282 1.361 . S
C284 C292 1.457 . S
C285 N280 1.363 . S
C285 N282 1.377 . S
C285 C298 1.479 . S
C286 C283 1.480 . S
C286 C287 1.383 . S
C286 C291 1.385 . S
C287 H268 0.947 . S
C287 C286 1.383 . S
C287 C288 1.388 . S
C288 H269 0.946 . S
C288 C287 1.388 . S
C288 C289 1.384 . S
C289 C288 1.384 . S
C289 C290 1.377 . S
C290 H270 0.953 . S
C290 C289 1.377 . S
C290 C291 1.369 . S
C291 H271 0.945 . S
C291 C286 1.385 . S
C291 C290 1.369 . S
C292 C284 1.457 . S
C292 C293 1.372 1_545 S
C292 C297 1.364 . S
C293 H272 0.952 . S
C293 C292 1.372 1_565 S
C293 C294 1.389 . S
C294 H273 0.949 . S
C294 C293 1.389 . S
C294 C295 1.422 . S
C295 C294 1.422 . S
C295 C296 1.338 1_565 S
C296 H274 0.950 . S
C296 C295 1.338 1_545 S
C296 C297 1.379 . S
C297 H275 0.948 . S
C297 C292 1.364 . S
C297 C296 1.379 . S
C298 C267 1.383 . S
C298 C285 1.479 . S
C298 C299 1.398 . S
C299 C264 1.382 . S
C299 H276 0.951 . S
C299 C298 1.398 . S
C300 C301 1.384 . S
C300 H313 0.947 . S
C300 C335 1.382 . S
C301 C300 1.384 . S
C301 C302 1.378 . S
C302 C301 1.378 . S
C302 C303 1.378 . S
C302 H314 0.952 . S
C303 C302 1.378 . S
C303 H315 0.950 . S
C303 C334 1.383 . S
H304 C323 0.947 . S
H305 C324 0.946 . S
H306 C326 0.953 . S
H307 C327 0.945 . S
H308 C329 0.952 . S
H309 C330 0.949 . S
H310 C332 0.950 . S
H311 C333 0.948 . S
H312 C335 0.951 . S
H313 C300 0.947 . S
H314 C302 0.952 . S
H315 C303 0.950 . S
N316 C319 1.382 . S
N316 C321 1.363 . S
N317 C319 1.371 . S
N317 C320 1.372 . S
N318 C320 1.361 . S
N318 C321 1.377 . S
C319 N316 1.382 . S
C319 N317 1.371 . S
C319 C322 1.480 . S
C320 N317 1.372 . S
C320 N318 1.361 . S
C320 C328 1.457 . S
C321 N316 1.363 . S
C321 N318 1.377 . S
C321 C334 1.479 . S
C322 C319 1.480 . S
C322 C323 1.383 . S
C322 C327 1.385 . S
C323 H304 0.947 . S
C323 C322 1.383 . S
C323 C324 1.388 . S
C324 H305 0.946 . S
C324 C323 1.388 . S
C324 C325 1.384 . S
C325 C324 1.384 . S
C325 C326 1.377 . S
C326 H306 0.953 . S
C326 C325 1.377 . S
C326 C327 1.369 . S
C327 H307 0.945 . S
C327 C322 1.385 . S
C327 C326 1.369 . S
C328 C320 1.457 . S
C328 C329 1.372 . S
C328 C333 1.364 . S
C329 H308 0.952 . S
C329 C328 1.372 . S
C329 C330 1.389 . S
C330 H309 0.949 . S
C330 C329 1.389 . S
C330 C331 1.387 . S
C331 C330 1.387 . S
C331 C332 1.372 . S
C332 H310 0.950 . S
C332 C331 1.372 . S
C332 C333 1.379 . S
C333 H311 0.948 . S
C333 C328 1.364 . S
C333 C332 1.379 . S
C334 C303 1.383 . S
C334 C321 1.479 . S
C334 C335 1.398 . S
C335 C300 1.382 . S
C335 H312 0.951 . S
C335 C334 1.398 . S
H336 C342 0.930 . S
H337 C346 0.930 . S
H338 C351 0.929 . S
H339 C349 0.929 . S
H340 C344 0.929 . S
H341 C350 0.929 . S
C342 H336 0.930 . S
C342 C343 1.367 . S
C342 C350 1.378 . S
C343 C342 1.367 . S
C343 C351 1.433 . S
C344 H340 0.929 . S
C344 C346 1.378 . S
C344 C348 1.350 . S
C345 C348 1.463 . S
C345 C350 1.350 . S
C345 N353 1.427 . S
C346 H337 0.930 . S
C346 C344 1.378 . S
C346 C347 1.367 . S
C347 C346 1.367 . S
C347 C349 1.433 . S
C348 C344 1.350 . S
C348 C345 1.463 . S
C348 N352 1.427 . S
C349 H339 0.929 . S
C349 C347 1.433 . S
C349 N352 1.384 . S
C350 H341 0.929 . S
C350 C342 1.378 . S
C350 C345 1.350 . S
C351 H338 0.929 . S
C351 C343 1.433 . S
C351 N353 1.384 . S
N352 C348 1.427 . S
N352 C349 1.384 . S
N353 C345 1.427 . S
N353 C351 1.384 . S
H354 C360 0.930 . S
H355 C364 0.930 . S
H356 C369 0.929 . S
H357 C367 0.929 . S
H358 C362 0.929 . S
H359 C368 0.929 . S
C360 H354 0.930 . S
C360 C361 1.367 . S
C360 C368 1.378 . S
C361 C360 1.367 . S
C361 C369 1.433 . S
C362 H358 0.929 . S
C362 C364 1.378 . S
C362 C366 1.350 . S
C363 C366 1.463 . S
C363 C368 1.350 . S
C363 N371 1.427 . S
C364 H355 0.930 . S
C364 C362 1.378 . S
C364 C365 1.367 . S
C365 C364 1.367 . S
C365 C367 1.433 . S
C366 C362 1.350 . S
C366 C363 1.463 . S
C366 N370 1.427 . S
C367 H357 0.929 . S
C367 C365 1.433 . S
C367 N370 1.384 . S
C368 H359 0.929 . S
C368 C360 1.378 . S
C368 C363 1.350 . S
C369 H356 0.929 . S
C369 C361 1.433 . S
C369 N371 1.384 . S
N370 C366 1.427 . S
N370 C367 1.384 . S
N371 C363 1.427 . S
N371 C369 1.384 . S
H372 C378 0.930 . S
H373 C382 0.930 . S
H374 C387 0.929 . S
H375 C385 0.929 . S
H376 C380 0.929 . S
H377 C386 0.929 . S
C378 H372 0.930 . S
C378 C379 1.367 . S
C378 C386 1.378 . S
C379 C378 1.367 . S
C379 C387 1.433 . S
C380 H376 0.929 . S
C380 C382 1.378 . S
C380 C384 1.350 . S
C381 C384 1.463 . S
C381 C386 1.350 . S
C381 N389 1.427 . S
C382 H373 0.930 . S
C382 C380 1.378 . S
C382 C383 1.367 . S
C383 C382 1.367 . S
C383 C385 1.433 . S
C384 C380 1.350 . S
C384 C381 1.463 . S
C384 N388 1.427 . S
C385 H375 0.929 . S
C385 C383 1.433 . S
C385 N388 1.384 . S
C386 H377 0.929 . S
C386 C378 1.378 . S
C386 C381 1.350 . S
C387 H374 0.929 . S
C387 C379 1.433 . S
C387 N389 1.384 . S
N388 C384 1.427 . S
N388 C385 1.384 . S
N389 C381 1.427 . S
N389 C387 1.384 . S
H390 C396 0.930 . S
H391 C400 0.930 . S
H392 C405 0.929 . S
H393 C403 0.929 . S
H394 C398 0.929 . S
H395 C404 0.929 . S
C396 H390 0.930 . S
C396 C397 1.367 . S
C396 C404 1.378 . S
C397 C396 1.367 . S
C397 C405 1.433 . S
C398 H394 0.929 . S
C398 C400 1.378 . S
C398 C402 1.350 . S
C399 C402 1.463 . S
C399 C404 1.350 . S
C399 N407 1.427 . S
C400 H391 0.930 . S
C400 C398 1.378 . S
C400 C401 1.367 . S
C401 C400 1.367 . S
C401 C403 1.433 . S
C402 C398 1.350 . S
C402 C399 1.463 . S
C402 N406 1.427 . S
C403 H393 0.929 . S
C403 C401 1.433 . S
C403 N406 1.384 . S
C404 H395 0.929 . S
C404 C396 1.378 . S
C404 C399 1.350 . S
C405 H392 0.929 . S
C405 C397 1.433 . S
C405 N407 1.384 . S
N406 C402 1.427 . S
N406 C403 1.384 . S
N407 C399 1.427 . S
N407 C405 1.384 . S
H408 C414 0.930 . S
H409 C418 0.930 . S
H410 C423 0.929 . S
H411 C421 0.929 . S
H412 C416 0.929 . S
H413 C422 0.929 . S
C414 H408 0.930 . S
C414 C415 1.367 . S
C414 C422 1.378 . S
C415 C414 1.367 . S
C415 C423 1.433 . S
C416 H412 0.929 . S
C416 C418 1.378 . S
C416 C420 1.350 . S
C417 C420 1.463 . S
C417 C422 1.350 . S
C417 N425 1.427 . S
C418 H409 0.930 . S
C418 C416 1.378 . S
C418 C419 1.367 . S
C419 C418 1.367 . S
C419 C421 1.433 . S
C420 C416 1.350 . S
C420 C417 1.463 . S
C420 N424 1.427 . S
C421 H411 0.929 . S
C421 C419 1.433 . S
C421 N424 1.384 . S
C422 H413 0.929 . S
C422 C414 1.378 . S
C422 C417 1.350 . S
C423 H410 0.929 . S
C423 C415 1.433 . S
C423 N425 1.384 . S
N424 C420 1.427 . S
N424 C421 1.384 . S
N425 C417 1.427 . S
N425 C423 1.384 . S
H426 C432 0.930 . S
H427 C436 0.930 . S
H428 C441 0.929 . S
H429 C439 0.929 . S
H430 C434 0.929 . S
H431 C440 0.929 . S
C432 H426 0.930 . S
C432 C433 1.367 . S
C432 C440 1.378 . S
C433 C432 1.367 . S
C433 C441 1.433 . S
C434 H430 0.929 . S
C434 C436 1.378 . S
C434 C438 1.350 . S
C435 C438 1.463 . S
C435 C440 1.350 . S
C435 N443 1.427 . S
C436 H427 0.930 . S
C436 C434 1.378 . S
C436 C437 1.367 . S
C437 C436 1.367 . S
C437 C439 1.433 . S
C438 C434 1.350 . S
C438 C435 1.463 . S
C438 N442 1.427 . S
C439 H429 0.929 . S
C439 C437 1.433 . S
C439 N442 1.384 . S
C440 H431 0.929 . S
C440 C432 1.378 . S
C440 C435 1.350 . S
C441 H428 0.929 . S
C441 C433 1.433 . S
C441 N443 1.384 . S
N442 C438 1.427 . S
N442 C439 1.384 . S
N443 C435 1.427 . S
N443 C441 1.384 . S
H444 C450 0.930 . S
H445 C454 0.930 . S
H446 C459 0.929 . S
H447 C457 0.929 . S
H448 C452 0.929 . S
H449 C458 0.929 . S
C450 H444 0.930 . S
C450 C451 1.367 . S
C450 C458 1.378 . S
C451 C450 1.367 . S
C451 C459 1.433 . S
C452 H448 0.929 . S
C452 C454 1.378 . S
C452 C456 1.350 . S
C453 C456 1.463 . S
C453 C458 1.350 . S
C453 N461 1.427 . S
C454 H445 0.930 . S
C454 C452 1.378 . S
C454 C455 1.367 . S
C455 C454 1.367 . S
C455 C457 1.433 . S
C456 C452 1.350 . S
C456 C453 1.463 . S
C456 N460 1.427 . S
C457 H447 0.929 . S
C457 C455 1.433 . S
C457 N460 1.384 . S
C458 H449 0.929 . S
C458 C450 1.378 . S
C458 C453 1.350 . S
C459 H446 0.929 . S
C459 C451 1.433 . S
C459 N461 1.384 . S
N460 C456 1.427 . S
N460 C457 1.384 . S
N461 C453 1.427 . S
N461 C459 1.384 . S
H462 C468 0.930 . S
H463 C472 0.930 . S
H464 C477 0.929 . S
H465 C475 0.929 . S
H466 C470 0.929 . S
H467 C476 0.929 . S
C468 H462 0.930 . S
C468 C469 1.367 . S
C468 C476 1.378 . S
C469 C468 1.367 . S
C469 C477 1.433 . S
C470 H466 0.929 . S
C470 C472 1.378 . S
C470 C474 1.350 . S
C471 C474 1.463 . S
C471 C476 1.350 . S
C471 N479 1.427 . S
C472 H463 0.930 . S
C472 C470 1.378 . S
C472 C473 1.367 . S
C473 C472 1.367 . S
C473 C475 1.433 . S
C474 C470 1.350 . S
C474 C471 1.463 . S
C474 N478 1.427 . S
C475 H465 0.929 . S
C475 C473 1.433 . S
C475 N478 1.384 . S
C476 H467 0.929 . S
C476 C468 1.378 . S
C476 C471 1.350 . S
C477 H464 0.929 . S
C477 C469 1.433 . S
C477 N479 1.384 . S
N478 C474 1.427 . S
N478 C475 1.384 . S
N479 C471 1.427 . S
N479 C477 1.384 . S
H480 C486 0.930 . S
H481 C490 0.930 . S
H482 C495 0.929 . S
H483 C493 0.929 . S
H484 C488 0.929 . S
H485 C494 0.929 . S
C486 H480 0.930 . S
C486 C487 1.367 . S
C486 C494 1.378 . S
C487 C486 1.367 . S
C487 C495 1.433 . S
C488 H484 0.929 . S
C488 C490 1.378 . S
C488 C492 1.350 . S
C489 C492 1.463 . S
C489 C494 1.350 . S
C489 N497 1.427 . S
C490 H481 0.930 . S
C490 C488 1.378 . S
C490 C491 1.367 . S
C491 C490 1.367 . S
C491 C493 1.433 . S
C492 C488 1.350 . S
C492 C489 1.463 . S
C492 N496 1.427 . S
C493 H483 0.929 . S
C493 C491 1.433 . S
C493 N496 1.384 . S
C494 H485 0.929 . S
C494 C486 1.378 . S
C494 C489 1.350 . S
C495 H482 0.929 . S
C495 C487 1.433 . S
C495 N497 1.384 . S
N496 C492 1.427 . S
N496 C493 1.384 . S
N497 C489 1.427 . S
N497 C495 1.384 . S
H498 C504 0.930 . S
H499 C508 0.930 . S
H500 C513 0.929 . S
H501 C511 0.929 . S
H502 C506 0.929 . S
H503 C512 0.929 . S
C504 H498 0.930 . S
C504 C505 1.367 . S
C504 C512 1.378 . S
C505 C504 1.367 . S
C505 C513 1.433 . S
C506 H502 0.929 . S
C506 C508 1.378 . S
C506 C510 1.350 . S
C507 C510 1.463 . S
C507 C512 1.350 . S
C507 N515 1.427 . S
C508 H499 0.930 . S
C508 C506 1.378 . S
C508 C509 1.367 . S
C509 C508 1.367 . S
C509 C511 1.433 . S
C510 C506 1.350 . S
C510 C507 1.463 . S
C510 N514 1.427 . S
C511 H501 0.929 . S
C511 C509 1.433 . S
C511 N514 1.384 . S
C512 H503 0.929 . S
C512 C504 1.378 . S
C512 C507 1.350 . S
C513 H500 0.929 . S
C513 C505 1.433 . S
C513 N515 1.384 . S
N514 C510 1.427 . S
N514 C511 1.384 . S
N515 C507 1.427 . S
N515 C513 1.384 . S
H516 C522 0.930 . S
H517 C526 0.930 . S
H518 C531 0.929 . S
H519 C529 0.929 . S
H520 C524 0.929 . S
H521 C530 0.929 . S
C522 H516 0.930 . S
C522 C523 1.367 . S
C522 C530 1.378 . S
C523 C522 1.367 . S
C523 C531 1.433 . S
C524 H520 0.929 . S
C524 C526 1.378 . S
C524 C528 1.350 . S
C525 C528 1.463 . S
C525 C530 1.350 . S
C525 N533 1.427 . S
C526 H517 0.930 . S
C526 C524 1.378 . S
C526 C527 1.367 . S
C527 C526 1.367 . S
C527 C529 1.433 . S
C528 C524 1.350 . S
C528 C525 1.463 . S
C528 N532 1.427 . S
C529 H519 0.929 . S
C529 C527 1.433 . S
C529 N532 1.384 . S
C530 H521 0.929 . S
C530 C522 1.378 . S
C530 C525 1.350 . S
C531 H518 0.929 . S
C531 C523 1.433 . S
C531 N533 1.384 . S
N532 C528 1.427 . S
N532 C529 1.384 . S
N533 C525 1.427 . S
N533 C531 1.384 . S
H534 C540 0.930 . S
H535 C544 0.930 . S
H536 C549 0.929 . S
H537 C547 0.929 . S
H538 C542 0.929 . S
H539 C548 0.929 . S
C540 H534 0.930 . S
C540 C541 1.367 . S
C540 C548 1.378 . S
C541 C540 1.367 . S
C541 C549 1.433 . S
C542 H538 0.929 . S
C542 C544 1.378 . S
C542 C546 1.350 . S
C543 C546 1.463 . S
C543 C548 1.350 . S
C543 N551 1.427 . S
C544 H535 0.930 . S
C544 C542 1.378 . S
C544 C545 1.367 . S
C545 C544 1.367 . S
C545 C547 1.433 . S
C546 C542 1.350 . S
C546 C543 1.463 . S
C546 N550 1.427 . S
C547 H537 0.929 . S
C547 C545 1.433 . S
C547 N550 1.384 . S
C548 H539 0.929 . S
C548 C540 1.378 . S
C548 C543 1.350 . S
C549 H536 0.929 . S
C549 C541 1.433 . S
C549 N551 1.384 . S
N550 C546 1.427 . S
N550 C547 1.384 . S
N551 C543 1.427 . S
N551 C549 1.384 . S
H552 C558 0.930 . S
H553 C562 0.930 . S
H554 C567 0.929 . S
H555 C565 0.929 . S
H556 C560 0.929 . S
H557 C566 0.929 . S
C558 H552 0.930 . S
C558 C559 1.367 . S
C558 C566 1.378 . S
C559 C558 1.367 . S
C559 C567 1.433 1_455 S
C560 H556 0.929 . S
C560 C562 1.378 . S
C560 C564 1.350 1_655 S
C561 C564 1.463 . S
C561 C566 1.350 . S
C561 N569 1.427 1_455 S
C562 H553 0.930 . S
C562 C560 1.378 . S
C562 C563 1.346 1_654 S
C563 C562 1.346 1_456 S
C563 C565 1.410 1_556 S
C564 C560 1.350 1_455 S
C564 C561 1.463 . S
C564 N568 1.427 . S
C565 H555 0.929 . S
C565 C563 1.410 1_554 S
C565 N568 1.384 . S
C566 H557 0.929 . S
C566 C558 1.378 . S
C566 C561 1.350 . S
C567 H554 0.929 . S
C567 C559 1.433 1_655 S
C567 N569 1.384 . S
N568 C564 1.427 . S
N568 C565 1.384 . S
N569 C561 1.427 1_655 S
N569 C567 1.384 . S
H570 C576 0.930 . S
H571 C580 0.930 . S
H572 C585 0.929 . S
H573 C583 0.929 . S
H574 C578 0.929 . S
H575 C584 0.929 . S
C576 H570 0.930 . S
C576 C577 1.367 . S
C576 C584 1.378 . S
C577 C576 1.367 . S
C577 C585 1.433 . S
C578 H574 0.929 . S
C578 C580 1.378 . S
C578 C582 1.350 . S
C579 C582 1.463 . S
C579 C584 1.350 . S
C579 N587 1.427 . S
C580 H571 0.930 . S
C580 C578 1.378 . S
C580 C581 1.367 . S
C581 C580 1.367 . S
C581 C583 1.433 . S
C582 C578 1.350 . S
C582 C579 1.463 . S
C582 N586 1.427 . S
C583 H573 0.929 . S
C583 C581 1.433 . S
C583 N586 1.384 . S
C584 H575 0.929 . S
C584 C576 1.378 . S
C584 C579 1.350 . S
C585 H572 0.929 . S
C585 C577 1.433 . S
C585 N587 1.384 . S
N586 C582 1.427 . S
N586 C583 1.384 . S
N587 C579 1.427 . S
N587 C585 1.384 . S
H588 C594 0.930 . S
H589 C598 0.930 . S
H590 C603 0.929 . S
H591 C601 0.929 . S
H592 C596 0.929 . S
H593 C602 0.929 . S
C594 H588 0.930 . S
C594 C595 1.367 . S
C594 C602 1.378 . S
C595 C594 1.367 . S
C595 C603 1.433 . S
C596 H592 0.929 . S
C596 C598 1.378 . S
C596 C600 1.350 . S
C597 C600 1.463 . S
C597 C602 1.350 . S
C597 N605 1.427 . S
C598 H589 0.930 . S
C598 C596 1.378 . S
C598 C599 1.367 . S
C599 C598 1.367 . S
C599 C601 1.433 . S
C600 C596 1.350 . S
C600 C597 1.463 . S
C600 N604 1.427 . S
C601 H591 0.929 . S
C601 C599 1.433 . S
C601 N604 1.384 . S
C602 H593 0.929 . S
C602 C594 1.378 . S
C602 C597 1.350 . S
C603 H590 0.929 . S
C603 C595 1.433 . S
C603 N605 1.384 . S
N604 C600 1.427 . S
N604 C601 1.384 . S
N605 C597 1.427 . S
N605 C603 1.384 . S
H606 C612 0.930 . S
H607 C616 0.930 . S
H608 C621 0.929 . S
H609 C619 0.929 . S
H610 C614 0.929 . S
H611 C620 0.929 . S
C612 H606 0.930 . S
C612 C613 1.367 1_565 S
C612 C620 1.378 . S
C613 C612 1.367 1_545 S
C613 C621 1.433 . S
C614 H610 0.929 . S
C614 C616 1.378 . S
C614 C618 1.379 . S
C615 C618 1.463 . S
C615 C620 1.330 1_545 S
C615 N623 1.450 . S
C616 H607 0.930 . S
C616 C614 1.378 . S
C616 C617 1.367 1_545 S
C617 C616 1.367 1_565 S
C617 C619 1.433 . S
C618 C614 1.379 . S
C618 C615 1.463 . S
C618 N622 1.396 1_545 S
C619 H609 0.929 . S
C619 C617 1.433 . S
C619 N622 1.384 . S
C620 H611 0.929 . S
C620 C612 1.378 . S
C620 C615 1.330 1_565 S
C621 H608 0.929 . S
C621 C613 1.433 . S
C621 N623 1.384 . S
N622 C618 1.396 1_565 S
N622 C619 1.384 . S
N623 C615 1.450 . S
N623 C621 1.384 . S
H624 C630 0.930 . S
H625 C634 0.930 . S
H626 C639 0.929 . S
H627 C637 0.929 . S
H628 C632 0.929 . S
H629 C638 0.929 . S
C630 H624 0.930 . S
C630 C631 1.367 . S
C630 C638 1.378 . S
C631 C630 1.367 . S
C631 C639 1.433 . S
C632 H628 0.929 . S
C632 C634 1.378 . S
C632 C636 1.350 . S
C633 C636 1.463 . S
C633 C638 1.350 . S
C633 N641 1.427 . S
C634 H625 0.930 . S
C634 C632 1.378 . S
C634 C635 1.367 . S
C635 C634 1.367 . S
C635 C637 1.433 . S
C636 C632 1.350 . S
C636 C633 1.463 . S
C636 N640 1.427 . S
C637 H627 0.929 . S
C637 C635 1.433 . S
C637 N640 1.384 . S
C638 H629 0.929 . S
C638 C630 1.378 . S
C638 C633 1.350 . S
C639 H626 0.929 . S
C639 C631 1.433 . S
C639 N641 1.384 . S
N640 C636 1.427 . S
N640 C637 1.384 . S
N641 C633 1.427 . S
N641 C639 1.384 . S
H642 C648 0.930 . S
H643 C652 0.930 . S
H644 C657 0.929 . S
H645 C655 0.929 . S
H646 C650 0.929 . S
H647 C656 0.929 . S
C648 H642 0.930 . S
C648 C649 1.367 . S
C648 C656 1.378 . S
C649 C648 1.367 . S
C649 C657 1.433 . S
C650 H646 0.929 . S
C650 C652 1.378 . S
C650 C654 1.350 1_655 S
C651 C654 1.463 . S
C651 C656 1.350 . S
C651 N659 1.427 . S
C652 H643 0.930 . S
C652 C650 1.378 . S
C652 C653 1.365 . S
C653 C652 1.365 . S
C653 C655 1.435 1_655 S
C654 C650 1.350 1_455 S
C654 C651 1.463 . S
C654 N658 1.427 . S
C655 H645 0.929 . S
C655 C653 1.435 1_455 S
C655 N658 1.384 . S
C656 H647 0.929 . S
C656 C648 1.378 . S
C656 C651 1.350 . S
C657 H644 0.929 . S
C657 C649 1.433 . S
C657 N659 1.384 . S
N658 C654 1.427 . S
N658 C655 1.384 . S
N659 C651 1.427 . S
N659 C657 1.384 . S
C343 C6 0.598 . S
C347 C325 0.549 . S
C361 C59 1.923 . S
C365 C253 1.865 . S
C379 C86 1.223 . S
C383 C289 1.223 . S
C397 C15 0.394 . S
C401 C301 0.306 . S
C419 C229 1.992 . S
C415 C50 2.016 . S
C437 C265 1.311 . S
C433 C95 1.296 . S
C451 C46 1.198 . S
C455 C181 1.209 . S
C469 C99 3.117 . S
C473 C193 3.084 . S
C487 C10 2.041 . S
C491 C121 2.027 . S
C509 C157 1.294 . S
C505 C55 1.282 . S
C527 C217 2.971 . S
C523 C90 3.020 . S
C541 C19 1.910 . S
C545 C145 1.861 . S
C563 C223 1.819 . S
C559 C18 1.709 . S
C577 C49 1.319 . S
C581 C151 1.371 . S
C595 C98 1.443 . S
C599 C187 1.504 . S
C617 C295 1.477 . S
C613 C58 1.445 . S
C635 C331 1.087 1_556 S
C631 C89 1.064 . S
C649 C9 1.328 . S
C653 C259 1.357 1_655 S
