# Generated by pormake.
# Topology llj, (12,3)-cn, num edge types: 1
# Building blocks:
#     Node 0, Type 0, BuildingBlock: QEWDON_clean_sbu_0, # of connection points: 12
#     Node 1, Type 0, BuildingBlock: QEWDON_clean_sbu_0, # of connection points: 12
#     Node 2, Type 1, BuildingBlock: CUQRIR_clean_linker_1, # of connection points: 3
#     Node 3, Type 1, BuildingBlock: CUQRIR_clean_linker_1, # of connection points: 3
#     Node 4, Type 1, BuildingBlock: CUQRIR_clean_linker_1, # of connection points: 3
#     Node 5, Type 1, BuildingBlock: CUQRIR_clean_linker_1, # of connection points: 3
#     Node 6, Type 1, BuildingBlock: CUQRIR_clean_linker_1, # of connection points: 3
#     Node 7, Type 1, BuildingBlock: CUQRIR_clean_linker_1, # of connection points: 3
#     Node 8, Type 1, BuildingBlock: CUQRIR_clean_linker_1, # of connection points: 3
#     Node 9, Type 1, BuildingBlock: CUQRIR_clean_linker_1, # of connection points: 3
#     Edge 10, Type (0, 1), BuildingBlock: UVAHIK_clean_linker_0, # of connection points: 2
#     Edge 11, Type (0, 1), BuildingBlock: UVAHIK_clean_linker_0, # of connection points: 2
#     Edge 12, Type (0, 1), BuildingBlock: UVAHIK_clean_linker_0, # of connection points: 2
#     Edge 13, Type (0, 1), BuildingBlock: UVAHIK_clean_linker_0, # of connection points: 2
#     Edge 14, Type (0, 1), BuildingBlock: UVAHIK_clean_linker_0, # of connection points: 2
#     Edge 15, Type (0, 1), BuildingBlock: UVAHIK_clean_linker_0, # of connection points: 2
#     Edge 16, Type (0, 1), BuildingBlock: UVAHIK_clean_linker_0, # of connection points: 2
#     Edge 17, Type (0, 1), BuildingBlock: UVAHIK_clean_linker_0, # of connection points: 2
#     Edge 18, Type (0, 1), BuildingBlock: UVAHIK_clean_linker_0, # of connection points: 2
#     Edge 19, Type (0, 1), BuildingBlock: UVAHIK_clean_linker_0, # of connection points: 2
#     Edge 20, Type (0, 1), BuildingBlock: UVAHIK_clean_linker_0, # of connection points: 2
#     Edge 21, Type (0, 1), BuildingBlock: UVAHIK_clean_linker_0, # of connection points: 2
#     Edge 22, Type (0, 1), BuildingBlock: UVAHIK_clean_linker_0, # of connection points: 2
#     Edge 23, Type (0, 1), BuildingBlock: UVAHIK_clean_linker_0, # of connection points: 2
#     Edge 24, Type (0, 1), BuildingBlock: UVAHIK_clean_linker_0, # of connection points: 2
#     Edge 25, Type (0, 1), BuildingBlock: UVAHIK_clean_linker_0, # of connection points: 2
#     Edge 26, Type (0, 1), BuildingBlock: UVAHIK_clean_linker_0, # of connection points: 2
#     Edge 27, Type (0, 1), BuildingBlock: UVAHIK_clean_linker_0, # of connection points: 2
#     Edge 28, Type (0, 1), BuildingBlock: UVAHIK_clean_linker_0, # of connection points: 2
#     Edge 29, Type (0, 1), BuildingBlock: UVAHIK_clean_linker_0, # of connection points: 2
#     Edge 30, Type (0, 1), BuildingBlock: UVAHIK_clean_linker_0, # of connection points: 2
#     Edge 31, Type (0, 1), BuildingBlock: UVAHIK_clean_linker_0, # of connection points: 2
#     Edge 32, Type (0, 1), BuildingBlock: UVAHIK_clean_linker_0, # of connection points: 2
#     Edge 33, Type (0, 1), BuildingBlock: UVAHIK_clean_linker_0, # of connection points: 2
# Relax obj value: 0.011
# Max RMSD: 0.121
# Mean RMSD: 0.104
data_MOF--net-llj--node1-QEWDON_clean_sbu_0--node2-CUQRIR_clean_linker_1--edge1-UVAHIK_clean_linker_0
_symmetry_space_group_name_H-M    P1
_symmetry_Int_Tables_number       1
_symmetry_cell_setting            triclinic
loop_
_symmetry_equiv_pos_as_xyz
'x, y, z'
_cell_length_a     47.295517
_cell_length_b     47.27485
_cell_length_c     29.42537
_cell_angle_alpha  90.03682
_cell_angle_beta   90.028712
_cell_angle_gamma 89.616056
loop_
_atom_site_label
_atom_site_type_symbol
_atom_site_fract_x
_atom_site_fract_y
_atom_site_fract_z
_atom_type_partial_charge
Zn0 Zn 0.94943 0.05344 0.95835 0.0
Zn1 Zn 0.95433 0.04889 0.06528 0.0
O2 O 0.97723 0.04476 0.00892 0.0
H3 H 0.99322 0.03214 0.00519 0.0
C4 C 0.94678 0.9701 0.86384 0.0
O5 O 0.96928 0.97941 0.88521 0.0
Zn6 Zn 0.0411 0.94726 0.06555 0.0
Zn7 Zn 0.04322 0.93966 0.95816 0.0
O8 O 0.01769 0.95241 0.0098 0.0
H9 H 0.00247 0.966 0.00661 0.0
Zn10 Zn 0.93861 0.94001 0.95033 0.0
O11 O 0.93999 0.97063 0.99897 0.0
Zn12 Zn 0.9373 0.94915 0.05735 0.0
H13 H 0.94766 0.98933 0.99472 0.0
Zn14 Zn 0.05487 0.05421 0.94925 0.0
O15 O 0.05513 0.02419 0.99907 0.0
H16 H 0.04904 0.00484 0.99561 0.0
Zn17 Zn 0.05772 0.0468 0.0564 0.0
C18 C 0.04771 0.02085 0.86645 0.0
O19 O 0.02772 0.00959 0.89145 0.0
O20 O 0.91479 0.07668 0.97995 0.0
O21 O 0.92084 0.07567 0.05506 0.0
O22 O 0.07771 0.91587 0.97867 0.0
O23 O 0.07303 0.91867 0.05385 0.0
O24 O 0.91945 0.90336 0.97249 0.0
O25 O 0.91609 0.91211 0.04665 0.0
C26 C 0.00588 0.06326 0.11388 0.0
O27 O 0.07337 0.09161 0.96936 0.0
O28 O 0.07877 0.08367 0.04346 0.0
O29 O 0.0229 0.92868 0.89839 0.0
C30 C 0.90727 0.08403 0.0199 0.0
O31 O 0.96801 0.06313 0.89651 0.0
C32 C 0.98949 0.93427 0.1157 0.0
O33 O 0.93044 0.95301 0.8841 0.0
C34 C 0.08564 0.90907 0.01863 0.0
O35 O 0.06244 0.0407 0.88305 0.0
C36 C 0.92319 -0.00082 0.10707 0.0
O37 O 0.97903 0.06361 0.1159 0.0
O38 O 0.01751 0.05479 0.07719 0.0
C39 C 0.91132 0.89638 0.0122 0.0
O40 O 0.01636 0.93416 0.1175 0.0
O41 O 0.97763 0.942 0.07876 0.0
C42 C 0.07238 -0.00227 0.10974 0.0
O43 O 0.91701 0.97316 0.10422 0.0
O44 O 0.94052 0.00938 0.07852 0.0
C45 C 0.08239 0.09911 0.00833 0.0
O46 O 0.07731 0.02399 0.10561 0.0
O47 O 0.05698 0.98603 0.07966 0.0
C48 C 0.00034 0.9144 0.90181 0.0
O49 O 0.99156 0.90695 0.94242 0.0
C50 C 0.99073 0.07724 0.89912 0.0
O51 O -0.00012 0.08499 0.9394 0.0
Zn52 Zn 0.44867 0.54767 0.46539 0.0
Zn53 Zn 0.45184 0.54422 0.57336 0.0
O54 O 0.47519 0.53826 0.51763 0.0
H55 H 0.49082 0.52508 0.51502 0.0
C56 C 0.4457 0.46984 0.37204 0.0
O57 O 0.47111 0.4748 0.3881 0.0
Zn58 Zn 0.54323 0.4484 0.57196 0.0
Zn59 Zn 0.5453 0.43974 0.46463 0.0
O60 O 0.51954 0.45229 0.51598 0.0
H61 H 0.50427 0.46578 0.51221 0.0
Zn62 Zn 0.43885 0.44138 0.46056 0.0
O63 O 0.4376 0.47048 0.5113 0.0
Zn64 Zn 0.43948 0.44657 0.56735 0.0
H65 H 0.44359 0.48984 0.50767 0.0
Zn66 Zn 0.55193 0.55342 0.45458 0.0
O67 O 0.55296 0.52426 0.50553 0.0
H68 H 0.54636 0.50507 0.50232 0.0
Zn69 Zn 0.55454 0.54769 0.56219 0.0
C70 C 0.5474 0.51963 0.37145 0.0
O71 O 0.5258 0.50914 0.39371 0.0
O72 O 0.41449 0.57249 0.48463 0.0
O73 O 0.41938 0.57194 0.55995 0.0
O74 O 0.57932 0.41579 0.48618 0.0
O75 O 0.57462 0.4189 0.56138 0.0
O76 O 0.42301 0.40273 0.4805 0.0
O77 O 0.42028 0.40891 0.55542 0.0
C78 C 0.50301 0.55971 0.62112 0.0
O79 O 0.56841 0.59194 0.47347 0.0
O80 O 0.57384 0.58506 0.54782 0.0
O81 O 0.52558 0.42911 0.40399 0.0
C82 C 0.40667 0.5805 0.52411 0.0
O83 O 0.46809 0.5556 0.40338 0.0
C84 C 0.49183 0.43668 0.62105 0.0
O85 O 0.42833 0.45597 0.39612 0.0
C86 C 0.58712 0.40901 0.52623 0.0
O87 O 0.56188 0.53905 0.38985 0.0
C88 C 0.42464 0.49339 0.62287 0.0
O89 O 0.47628 0.55854 0.62474 0.0
O90 O 0.51416 0.55362 0.58291 0.0
C91 C 0.41606 0.39399 0.51988 0.0
O92 O 0.51856 0.43763 0.62541 0.0
O93 O 0.48088 0.44137 0.58229 0.0
C94 C 0.57144 0.50007 0.61504 0.0
O95 O 0.42105 0.46683 0.62029 0.0
O96 O 0.43763 0.50535 0.59032 0.0
C97 C 0.57691 0.60025 0.51232 0.0
O98 O 0.57466 0.52667 0.61262 0.0
O99 O 0.55826 0.48774 0.58306 0.0
C100 C 0.50255 0.41552 0.40671 0.0
O101 O 0.4929 0.40864 0.44707 0.0
C102 C 0.48892 0.57242 0.40428 0.0
O103 O 0.49626 0.58378 0.44328 0.0
C104 C 0.29493 0.33619 0.9786 0.0
N105 N 0.31826 0.35073 0.99125 0.0
N106 N 0.28278 0.32368 0.01516 0.0
C107 C 0.28593 0.33158 0.93009 0.0
C108 C 0.29969 0.33114 0.05032 0.0
N109 N 0.3213 0.34729 0.03572 0.0
C110 C 0.2948 0.32337 0.09926 0.0
H111 H 0.27 0.34792 0.92085 0.0
H112 H 0.27624 0.31045 0.92573 0.0
H113 H 0.30409 0.33342 0.90646 0.0
H114 H 0.30727 0.30408 0.10746 0.0
H115 H 0.27211 0.31916 0.10576 0.0
H116 H 0.30202 0.34059 0.12204 0.0
C117 C 0.69581 0.32163 0.98582 0.0
N118 N 0.67881 0.3441 0.99463 0.0
N119 N 0.70098 0.30678 0.02439 0.0
C120 C 0.70707 0.31383 0.93958 0.0
C121 C 0.68641 0.32106 0.0569 0.0
N122 N 0.67274 0.34361 0.03863 0.0
C123 C 0.68627 0.31345 0.10652 0.0
H124 H 0.69247 0.2985 0.92356 0.0
H125 H 0.72824 0.30372 0.94245 0.0
H126 H 0.70861 0.33242 0.91692 0.0
H127 H 0.69031 0.29051 0.11137 0.0
H128 H 0.66587 0.31915 0.12268 0.0
H129 H 0.7032 0.32543 0.12398 0.0
C130 C 0.69623 0.65901 0.05738 0.0
N131 N 0.67315 0.64549 0.04124 0.0
N132 N 0.70989 0.6726 0.02336 0.0
C133 C 0.70421 0.66068 0.10679 0.0
C134 C 0.6941 0.66704 0.98599 0.0
N135 N 0.67169 0.65079 0.99702 0.0
C136 C 0.69916 0.67925 0.93947 0.0
H137 H 0.72626 0.66802 0.11125 0.0
H138 H 0.70197 0.63972 0.1232 0.0
H139 H 0.68964 0.67565 0.12421 0.0
H140 H 0.69172 0.66453 0.91269 0.0
H141 H 0.72174 0.68394 0.93357 0.0
H142 H 0.68703 0.69933 0.9363 0.0
C143 C 0.30606 0.67225 0.06467 0.0
N144 N 0.32207 0.6513 0.04634 0.0
N145 N 0.29466 0.68871 0.03157 0.0
C146 C 0.30316 0.67772 0.1148 0.0
C147 C 0.30433 0.67691 0.99249 0.0
N148 N 0.32124 0.65439 0.0015 0.0
C149 C 0.29489 0.68553 0.94557 0.0
H150 H 0.28482 0.66573 0.12794 0.0
H151 H 0.29955 0.70055 0.12162 0.0
H152 H 0.32234 0.67053 0.13333 0.0
H153 H 0.30982 0.70141 0.93192 0.0
H154 H 0.27341 0.69508 0.94638 0.0
H155 H 0.29474 0.6671 0.92221 0.0
C156 C 0.79483 0.82856 0.47447 0.0
N157 N 0.81811 0.84341 0.48642 0.0
N158 N 0.78133 0.81879 0.5119 0.0
C159 C 0.78717 0.82077 0.42641 0.0
C160 C 0.79733 0.82812 0.54694 0.0
N161 N 0.81966 0.84292 0.53147 0.0
C162 C 0.79098 0.82335 0.59643 0.0
H163 H 0.77211 0.83675 0.41284 0.0
H164 H 0.77691 0.79975 0.4251 0.0
H165 H 0.80615 0.82033 0.40427 0.0
H166 H 0.80259 0.80424 0.60819 0.0
H167 H 0.76802 0.8202 0.602 0.0
H168 H 0.79821 0.84156 0.61713 0.0
C169 C 0.19178 0.82341 0.55637 0.0
N170 N 0.17693 0.84505 0.53737 0.0
N171 N 0.2037 0.80689 0.5238 0.0
C172 C 0.19247 0.81685 0.60639 0.0
C173 C 0.19551 0.81923 0.48434 0.0
N174 N 0.17902 0.84217 0.49255 0.0
C175 C 0.20566 0.81041 0.43791 0.0
H176 H 0.21082 0.82763 0.62206 0.0
H177 H 0.19481 0.79376 0.6122 0.0
H178 H 0.17291 0.82447 0.62338 0.0
H179 H 0.19063 0.79491 0.42339 0.0
H180 H 0.22688 0.80034 0.43983 0.0
H181 H 0.20669 0.82884 0.41466 0.0
C182 C 0.19662 0.16422 0.55129 0.0
N183 N 0.17444 0.14975 0.53443 0.0
N184 N 0.21323 0.17385 0.51724 0.0
C185 C 0.20215 0.16848 0.60117 0.0
C186 C 0.20023 0.16461 0.47895 0.0
N187 N 0.17667 0.14979 0.48945 0.0
C188 C 0.20862 0.17296 0.43148 0.0
H189 H 0.19035 0.18748 0.61296 0.0
H190 H 0.22501 0.17156 0.60784 0.0
H191 H 0.19457 0.15007 0.621 0.0
H192 H 0.22384 0.1571 0.41799 0.0
H193 H 0.21894 0.19396 0.43129 0.0
H194 H 0.18998 0.17373 0.40859 0.0
C195 C 0.80427 0.16735 0.55717 0.0
N196 N 0.81769 0.14534 0.53682 0.0
N197 N 0.78856 0.18198 0.52647 0.0
C198 C 0.80721 0.17477 0.60666 0.0
C199 C 0.79276 0.16788 0.48689 0.0
N200 N 0.81029 0.14549 0.4933 0.0
C201 C 0.78071 0.1768 0.4417 0.0
H202 H 0.792 0.19133 0.61751 0.0
H203 H 0.82888 0.18269 0.61295 0.0
H204 H 0.80434 0.15554 0.62772 0.0
H205 H 0.79592 0.1911 0.42475 0.0
H206 H 0.76039 0.18833 0.44617 0.0
H207 H 0.77719 0.15845 0.41908 0.0
C208 C 0.09596 0.14688 0.97918 0.0
C209 C 0.09859 0.12565 0.01232 0.0
C210 C 0.11265 0.17114 0.98127 0.0
C211 C 0.16237 0.21056 0.05744 0.0
H212 H 0.18952 0.24095 0.94319 0.0
C213 C 0.26314 0.27757 0.03763 0.0
C214 C 0.25985 0.30376 0.01568 0.0
C215 C 0.24102 0.25821 0.03854 0.0
C216 C 0.18182 0.23284 0.97529 0.0
H217 H 0.12052 0.11332 0.07396 0.0
H218 H 0.15053 0.1548 0.07655 0.0
H219 H 0.15545 0.2025 0.94268 0.0
H220 H 0.23111 0.33013 0.97693 0.0
H221 H 0.19253 0.29546 0.97664 0.0
H222 H 0.19032 0.23997 0.08967 0.0
C223 C 0.13498 0.15338 0.04967 0.0
C224 C 0.16215 0.21089 0.97514 0.0
C225 C 0.11787 0.12941 0.04807 0.0
C226 C 0.23414 0.31001 0.99385 0.0
C227 C 0.21215 0.29032 0.99385 0.0
C228 C 0.18248 0.23208 0.0575 0.0
C229 C 0.13282 0.1745 0.01604 0.0
C230 C 0.15234 0.19921 0.01624 0.0
C231 C 0.21539 0.26436 0.01653 0.0
C232 C 0.19253 0.24321 0.01644 0.0
H233 H 0.08105 0.14471 0.95145 0.0
H234 H 0.10979 0.18715 0.95536 0.0
H235 H 0.1549 0.20271 0.0898 0.0
H236 H 0.283 0.27195 0.05363 0.0
H237 H 0.24413 0.23813 0.05561 0.0
C238 C 0.88057 0.12115 0.06359 0.0
C239 C 0.88297 0.10366 0.02515 0.0
C240 C 0.85899 0.1415 0.06636 0.0
C241 C 0.80866 0.18093 0.99186 0.0
H242 H 0.77609 0.20499 0.10659 0.0
C243 C 0.71433 0.2583 0.00175 0.0
C244 C 0.71865 0.28205 0.02943 0.0
C245 C 0.73286 0.2352 0.0038 0.0
C246 C 0.78509 0.19846 0.07437 0.0
H247 H 0.86372 0.0926 0.96075 0.0
H248 H 0.82545 0.12697 0.96643 0.0
H249 H 0.81063 0.16629 0.10535 0.0
H250 H 0.74504 0.30015 0.08181 0.0
H251 H 0.77715 0.25923 0.08657 0.0
H252 H 0.78261 0.21275 0.96093 0.0
C253 C 0.84082 0.12598 0.99367 0.0
C254 C 0.80499 0.1764 0.07359 0.0
C255 C 0.86267 0.10606 0.99052 0.0
C256 C 0.74118 0.2819 0.06052 0.0
C257 C 0.75949 0.25858 0.06313 0.0
C258 C 0.78847 0.2026 0.9926 0.0
C259 C 0.83903 0.14447 0.0311 0.0
C260 C 0.81716 0.16739 0.03229 0.0
C261 C 0.75579 0.23525 0.03417 0.0
C262 C 0.77659 0.21166 0.03383 0.0
H263 H 0.89598 0.11987 0.09077 0.0
H264 H 0.8586 0.15549 0.0955 0.0
H265 H 0.81798 0.17525 0.9595 0.0
H266 H 0.69682 0.25784 0.97808 0.0
H267 H 0.72937 0.21734 0.98145 0.0
C268 C 0.87629 0.86716 0.055 0.0
C269 C 0.89469 0.87022 0.0179 0.0
C270 C 0.85865 0.84362 0.05816 0.0
C271 C 0.82815 0.7866 0.98597 0.0
H272 H 0.80302 0.75736 0.10214 0.0
C273 C 0.75807 0.68744 0.00277 0.0
C274 C 0.73298 0.69211 0.02709 0.0
C275 C 0.77972 0.70742 0.00385 0.0
C276 C 0.80991 0.76537 0.06951 0.0
H277 H 0.91015 0.85031 0.95629 0.0
H278 H 0.88051 0.80866 0.96283 0.0
H279 H 0.83836 0.79476 0.10004 0.0
H280 H 0.71101 0.72043 0.07291 0.0
H281 H 0.74935 0.75516 0.07615 0.0
H282 H 0.80005 0.75663 0.95567 0.0
C283 C 0.87872 0.8249 0.98863 0.0
C284 C 0.83002 0.78693 0.0682 0.0
C285 C 0.89594 0.8487 0.98502 0.0
C286 C 0.73029 0.71647 0.05406 0.0
C287 C 0.75214 0.73621 0.05587 0.0
C288 C 0.80848 0.76471 0.98733 0.0
C289 C 0.85935 0.82229 0.02471 0.0
C290 C 0.83919 0.79812 0.02638 0.0
C291 C 0.77685 0.73209 0.03015 0.0
C292 C 0.79895 0.75412 0.02908 0.0
H293 H 0.87473 0.88347 0.08078 0.0
H294 H 0.8438 0.84272 0.0861 0.0
H295 H 0.83406 0.79496 0.95311 0.0
H296 H 0.76064 0.66852 0.98239 0.0
H297 H 0.79869 0.70366 0.98404 0.0
C298 C 0.12986 0.8861 0.98966 0.0
C299 C 0.10951 0.88899 0.02409 0.0
C300 C 0.15168 0.8662 0.99361 0.0
C301 C 0.18696 0.81677 0.07602 0.0
H302 H 0.21227 0.78052 0.96485 0.0
C303 C 0.25189 0.71152 0.0636 0.0
C304 C 0.27618 0.7129 0.03627 0.0
C305 C 0.233 0.7344 0.06556 0.0
C306 C 0.2055 0.79062 0.99611 0.0
H307 H 0.09622 0.87355 0.08997 0.0
H308 H 0.13336 0.83782 0.09597 0.0
H309 H 0.1762 0.81732 0.96128 0.0
H310 H 0.30042 0.73945 0.99111 0.0
H311 H 0.26674 0.77907 0.99292 0.0
H312 H 0.21558 0.78863 0.11068 0.0
C313 C 0.13316 0.85148 0.06646 0.0
C314 C 0.18496 0.81192 0.99416 0.0
C315 C 0.11168 0.87187 0.06294 0.0
C316 C 0.28158 0.73776 0.01177 0.0
C317 C 0.26245 0.76037 0.01297 0.0
C318 C 0.20712 0.79498 0.07799 0.0
C319 C 0.15334 0.84815 0.03161 0.0
C320 C 0.17545 0.82547 0.03404 0.0
C321 C 0.23787 0.75878 0.03954 0.0
C322 C 0.21665 0.78187 0.03799 0.0
H323 H 0.12896 0.89929 0.9596 0.0
H324 H 0.1672 0.865 0.96665 0.0
H325 H 0.18064 0.82691 0.10744 0.0
H326 H 0.24712 0.69244 0.08232 0.0
H327 H 0.21405 0.73265 0.08602 0.0
C328 C 0.59011 0.64761 0.48116 0.0
C329 C 0.59225 0.62727 0.51578 0.0
C330 C 0.60649 0.67208 0.48265 0.0
C331 C 0.65451 0.71367 0.55841 0.0
H332 H 0.68621 0.7384 0.44367 0.0
C333 C 0.75848 0.77546 0.53979 0.0
C334 C 0.7573 0.80033 0.51381 0.0
C335 C 0.73532 0.7574 0.54154 0.0
C336 C 0.67721 0.73191 0.47584 0.0
H337 H 0.6127 0.61689 0.57966 0.0
H338 H 0.6421 0.65873 0.58134 0.0
H339 H 0.65087 0.70115 0.44425 0.0
H340 H 0.73127 0.82585 0.46915 0.0
H341 H 0.69089 0.79338 0.4705 0.0
H342 H 0.68244 0.7434 0.58986 0.0
C343 C 0.62723 0.65643 0.55363 0.0
C344 C 0.65683 0.71068 0.47629 0.0
C345 C 0.61048 0.63225 0.55255 0.0
C346 C 0.73265 0.80668 0.48914 0.0
C347 C 0.70964 0.78827 0.49008 0.0
C348 C 0.6753 0.73449 0.55795 0.0
C349 C 0.62577 0.67651 0.51837 0.0
C350 C 0.64548 0.70096 0.51765 0.0
C351 C 0.7108 0.76356 0.51648 0.0
C352 C 0.68703 0.74351 0.51671 0.0
H353 H 0.57598 0.64449 0.45262 0.0
H354 H 0.60425 0.68734 0.45544 0.0
H355 H 0.64582 0.70728 0.59082 0.0
H356 H 0.77751 0.7698 0.55818 0.0
H357 H 0.73681 0.73821 0.56154 0.0
C358 C 0.38089 0.61892 0.5662 0.0
C359 C 0.38304 0.60105 0.52818 0.0
C360 C 0.35985 0.63984 0.56828 0.0
C361 C 0.30986 0.6795 0.49297 0.0
H362 H 0.27865 0.70546 0.60762 0.0
C363 C 0.21589 0.75756 0.50406 0.0
C364 C 0.22131 0.78212 0.52937 0.0
C365 C 0.23427 0.73435 0.50636 0.0
C366 C 0.28727 0.69839 0.57543 0.0
H367 H 0.36394 0.59008 0.46365 0.0
H368 H 0.32647 0.6254 0.46818 0.0
H369 H 0.31248 0.66617 0.60687 0.0
H370 H 0.24958 0.80142 0.57799 0.0
H371 H 0.28131 0.76025 0.58347 0.0
H372 H 0.2839 0.71128 0.46165 0.0
C373 C 0.34168 0.62428 0.49562 0.0
C374 C 0.30681 0.676 0.5749 0.0
C375 C 0.36306 0.60379 0.49313 0.0
C376 C 0.24481 0.7826 0.55856 0.0
C377 C 0.26294 0.75915 0.56154 0.0
C378 C 0.28996 0.70145 0.49349 0.0
C379 C 0.34008 0.64303 0.53278 0.0
C380 C 0.31853 0.66631 0.53363 0.0
C381 C 0.25811 0.73503 0.53479 0.0
C382 C 0.2786 0.7112 0.53469 0.0
H383 H 0.39607 0.61741 0.59369 0.0
H384 H 0.3597 0.65402 0.59718 0.0
H385 H 0.31882 0.67332 0.46059 0.0
H386 H 0.19761 0.75652 0.482 0.0
H387 H 0.22995 0.71588 0.48575 0.0
C388 C 0.38324 0.3617 0.56112 0.0
C389 C 0.40108 0.36679 0.52394 0.0
C390 C 0.36657 0.33744 0.56247 0.0
C391 C 0.33678 0.28302 0.48511 0.0
H392 H 0.31135 0.25024 0.59861 0.0
C393 C 0.26218 0.18626 0.49651 0.0
C394 C 0.23725 0.19227 0.52066 0.0
C395 C 0.28502 0.20486 0.49827 0.0
C396 C 0.31843 0.25916 0.56672 0.0
H397 H 0.41688 0.34964 0.46044 0.0
H398 H 0.38893 0.30664 0.4638 0.0
H399 H 0.34763 0.2867 0.59966 0.0
H400 H 0.2165 0.22232 0.56526 0.0
H401 H 0.25691 0.25423 0.57006 0.0
H402 H 0.30774 0.25494 0.4524 0.0
C403 C 0.3868 0.32188 0.49107 0.0
C404 C 0.33904 0.2802 0.56722 0.0
C405 C 0.40303 0.34644 0.48928 0.0
C406 C 0.23572 0.21691 0.54723 0.0
C407 C 0.25873 0.23517 0.5498 0.0
C408 C 0.31661 0.26158 0.48461 0.0
C409 C 0.36777 0.31738 0.52709 0.0
C410 C 0.34806 0.29289 0.52647 0.0
C411 C 0.28344 0.22943 0.52499 0.0
C412 C 0.30688 0.2499 0.52544 0.0
H413 H 0.38118 0.37708 0.58827 0.0
H414 H 0.35193 0.33509 0.59045 0.0
H415 H 0.34265 0.29253 0.45305 0.0
H416 H 0.26384 0.16726 0.4761 0.0
H417 H 0.30392 0.20005 0.47889 0.0
C418 C 0.61265 0.3711 0.57006 0.0
C419 C 0.61073 0.38858 0.53158 0.0
C420 C 0.6336 0.35008 0.57282 0.0
C421 C 0.68312 0.30948 0.49806 0.0
H422 H 0.71474 0.28398 0.61267 0.0
C423 C 0.77682 0.23143 0.50779 0.0
C424 C 0.77158 0.20699 0.53334 0.0
C425 C 0.75862 0.25475 0.51067 0.0
C426 C 0.706 0.29094 0.58049 0.0
H427 H 0.63026 0.39899 0.46719 0.0
H428 H 0.66753 0.3636 0.47292 0.0
H429 H 0.68092 0.32335 0.61183 0.0
H430 H 0.74378 0.1877 0.58248 0.0
H431 H 0.71224 0.22908 0.58894 0.0
H432 H 0.70886 0.27753 0.4668 0.0
C433 C 0.65218 0.36499 0.50013 0.0
C434 C 0.68649 0.31337 0.57993 0.0
C435 C 0.63092 0.38552 0.49695 0.0
C436 C 0.74838 0.20656 0.56305 0.0
C437 C 0.73041 0.23011 0.56661 0.0
C438 C 0.70297 0.28751 0.49861 0.0
C439 C 0.65345 0.34646 0.53753 0.0
C440 C 0.67471 0.32294 0.53865 0.0
C441 C 0.73508 0.25419 0.53975 0.0
C442 C 0.71453 0.27797 0.53977 0.0
H443 H 0.59731 0.37294 0.59726 0.0
H444 H 0.6336 0.33613 0.60198 0.0
H445 H 0.67405 0.31553 0.46569 0.0
H446 H 0.79468 0.23215 0.48483 0.0
H447 H 0.76274 0.27314 0.48981 0.0
C448 C 0.05168 0.07533 0.15305 0.0
C449 C 0.02238 0.07103 0.15494 0.0
C450 C 0.06704 0.08137 0.19239 0.0
C451 C 0.06368 0.11654 0.29894 0.0
H452 H 0.12354 0.0663 0.34006 0.0
C453 C 0.12845 0.14347 0.45872 0.0
C454 C 0.15738 0.13686 0.45787 0.0
C455 C 0.11033 0.13273 0.42547 0.0
C456 C 0.1072 0.08082 0.32881 0.0
H457 H 0.98594 0.07127 0.19999 0.0
H458 H 0.01271 0.08318 0.2683 0.0
H459 H 0.09569 0.05378 0.27322 0.0
H460 H 0.19008 0.11351 0.42262 0.0
H461 H 0.15909 0.09607 0.36293 0.0
H462 H 0.07591 0.14449 0.35223 0.0
C463 C 0.02381 0.08091 0.23628 0.0
C464 C 0.09116 0.07347 0.29073 0.0
C465 C 0.00856 0.07416 0.1971 0.0
C466 C 0.1678 0.11892 0.42375 0.0
C467 C 0.14989 0.10867 0.38991 0.0
C468 C 0.08011 0.12424 0.33635 0.0
C469 C 0.0532 0.08421 0.23425 0.0
C470 C 0.06939 0.09136 0.27547 0.0
C471 C 0.1209 0.11569 0.38991 0.0
C472 C 0.10225 0.10658 0.35173 0.0
H473 H 0.06281 0.07438 0.12131 0.0
H474 H 0.08968 0.08439 0.18998 0.0
H475 H 0.04706 0.13071 0.2874 0.0
H476 H 0.11998 0.15774 0.48408 0.0
H477 H 0.08811 0.13822 0.42731 0.0
C478 C 0.92858 0.03268 0.17164 0.0
C479 C 0.91097 0.01638 0.1439 0.0
C480 C 0.91767 0.04669 0.20966 0.0
C481 C 0.85902 0.04339 0.29159 0.0
H482 H 0.88186 0.11972 0.32187 0.0
C483 C 0.80537 0.10966 0.43307 0.0
C484 C 0.82244 0.12784 0.45858 0.0
C485 C 0.81668 0.09477 0.3962 0.0
C486 C 0.87558 0.09824 0.31428 0.0
H487 H 0.86836 0.00106 0.13445 0.0
H488 H 0.84899 0.02578 0.20078 0.0
H489 H 0.89997 0.09739 0.25302 0.0
H490 H 0.86469 0.14374 0.46806 0.0
H491 H 0.88493 0.11729 0.40401 0.0
H492 H 0.83467 0.04421 0.3529 0.0
C493 C 0.87126 0.02792 0.19309 0.0
C494 C 0.88589 0.08549 0.27472 0.0
C495 C 0.88224 0.01398 0.15498 0.0
C496 C 0.85126 0.1299 0.44835 0.0
C497 C 0.86265 0.115 0.41156 0.0
C498 C 0.84875 0.05612 0.33123 0.0
C499 C 0.88892 0.04427 0.22106 0.0
C500 C 0.87768 0.05795 0.26285 0.0
C501 C 0.84536 0.0977 0.38444 0.0
C502 C 0.85687 0.08372 0.34303 0.0
H503 H 0.95107 0.03319 0.16553 0.0
H504 H 0.93199 0.05848 0.23115 0.0
H505 H 0.85269 0.02195 0.28382 0.0
H506 H 0.78312 0.10767 0.44102 0.0
H507 H 0.80272 0.08175 0.37598 0.0
C508 C 0.94389 0.92248 0.1555 0.0
C509 C 0.97322 0.92666 0.15701 0.0
C510 C 0.92879 0.91612 0.19493 0.0
C511 C 0.93281 0.88006 0.30067 0.0
H512 H 0.87236 0.9294 0.34239 0.0
C513 C 0.8667 0.85071 0.45795 0.0
C514 C 0.8377 0.85696 0.45611 0.0
C515 C 0.88516 0.86205 0.42573 0.0
C516 C 0.88889 0.91514 0.33098 0.0
H517 H 0.00996 0.92611 0.20149 0.0
H518 H 0.98362 0.9137 0.26998 0.0
H519 H 0.90036 0.94278 0.27627 0.0
H520 H 0.80524 0.88036 0.42038 0.0
H521 H 0.83684 0.89888 0.36255 0.0
H522 H 0.92056 0.85148 0.35306 0.0
C523 C 0.97231 0.91623 0.23819 0.0
C524 C 0.90502 0.92298 0.29333 0.0
C525 C 0.9873 0.92327 0.19891 0.0
C526 C 0.82756 0.8752 0.42222 0.0
C527 C 0.84582 0.88607 0.38946 0.0
C528 C 0.91629 0.87186 0.33768 0.0
C529 C 0.94291 0.91291 0.23651 0.0
C530 C 0.92694 0.9054 0.27776 0.0
C531 C 0.87488 0.87939 0.39036 0.0
C532 C 0.89388 0.88916 0.35314 0.0
H533 H 0.93253 0.9237 0.12398 0.0
H534 H 0.90614 0.91312 0.19279 0.0
H535 H 0.94955 0.86611 0.2889 0.0
H536 H 0.87497 0.83629 0.48324 0.0
H537 H 0.90741 0.85679 0.42821 0.0
C538 C 0.09812 -0.00295 0.18423 0.0
C539 C 0.08369 0.98225 0.14981 0.0
C540 C 0.10823 0.98297 0.2228 0.0
C541 C 0.12698 0.91136 0.26431 0.0
H542 H 0.121 0.94577 0.38368 0.0
C543 C 0.14824 0.84739 0.42591 0.0
C544 C 0.16574 0.85974 0.4587 0.0
C545 C 0.1375 0.86348 0.39009 0.0
C546 C 0.12302 0.93602 0.35051 0.0
H547 H 0.06874 0.94099 0.12983 0.0
H548 H 0.08578 0.91653 0.19677 0.0
H549 H 0.10401 0.97157 0.31691 0.0
H550 H 0.18508 0.89857 0.48128 0.0
H551 H 0.16607 0.92719 0.41837 0.0
H552 H 0.14573 0.87577 0.29779 0.0
C553 C 0.08971 0.93899 0.19365 0.0
C554 C 0.11335 0.95079 0.31224 0.0
C555 C 0.07968 0.95308 0.15513 0.0
C556 C 0.17148 0.88877 0.4563 0.0
C557 C 0.16062 0.90502 0.42041 0.0
C558 C 0.13649 0.8966 0.30247 0.0
C559 C 0.10417 0.95373 0.22796 0.0
C560 C 0.11504 0.93853 0.2687 0.0
C561 C 0.14402 0.89235 0.38638 0.0
C562 C 0.13442 0.90864 0.34603 0.0
H563 H 0.10155 0.01962 0.18157 0.0
H564 H 0.11951 0.99498 0.2483 0.0
H565 H 0.12921 0.90152 0.23125 0.0
H566 H 0.14335 0.82507 0.42767 0.0
H567 H 0.12432 0.85324 0.36495 0.0
C568 C 0.0728 0.02284 0.79134 0.0
C569 C 0.05511 0.00846 0.82179 0.0
C570 C 0.08231 0.00957 0.75157 0.0
C571 C 0.07385 0.94344 0.6813 0.0
H572 H 0.15216 0.95795 0.6514 0.0
C573 C 0.13372 0.87375 0.55076 0.0
C574 C 0.16202 0.86735 0.56102 0.0
C575 C 0.11915 0.8947 0.57517 0.0
C576 C 0.13034 0.95337 0.65948 0.0
H577 H 0.0324 0.96965 0.83344 0.0
H578 H 0.05002 0.94589 0.76589 0.0
H579 H 0.12855 0.98717 0.70744 0.0
H580 H 0.19755 0.87818 0.6036 0.0
H581 H 0.17201 0.91336 0.64808 0.0
H582 H 0.07639 0.90817 0.63607 0.0
C583 C 0.05603 0.96765 0.77151 0.0
C584 C 0.11651 0.97061 0.69118 0.0
C585 C 0.04607 0.98115 0.81065 0.0
C586 C 0.17562 0.88253 0.59553 0.0
C587 C 0.16101 0.90306 0.62045 0.0
C588 C 0.08785 0.92583 0.65026 0.0
C589 C 0.07481 0.9814 0.74183 0.0
C590 C 0.08824 0.9655 0.70344 0.0
C591 C 0.13247 0.90939 0.61089 0.0
C592 C 0.11654 0.93011 0.63973 0.0
H593 H 0.07978 0.04414 0.79868 0.0
H594 H 0.09604 0.02125 0.72905 0.0
H595 H 0.05187 0.93918 0.68877 0.0
H596 H 0.12274 0.86219 0.52442 0.0
H597 H 0.09738 0.89919 0.56617 0.0
C598 C -0.00194 0.07563 0.81464 0.0
C599 C 0.00732 0.08396 0.85798 0.0
C600 C 0.0144 0.08129 0.77611 0.0
C601 C 0.07061 0.12909 0.73653 0.0
H602 H 0.08026 0.07449 0.63925 0.0
C603 C 0.13124 0.15973 0.57713 0.0
C604 C 0.15081 0.14 0.56045 0.0
C605 C 0.11082 0.15159 0.60852 0.0
C606 C 0.07784 0.08991 0.66622 0.0
H607 H 0.04089 0.10502 0.89483 0.0
H608 H 0.06943 0.11457 0.82814 0.0
H609 H 0.05121 0.06254 0.70522 0.0
H610 H 0.1646 0.09644 0.56207 0.0
H611 H 0.12925 0.08193 0.6185 0.0
H612 H 0.0979 0.15606 0.69902 0.0
C613 C 0.04942 0.10392 0.82363 0.0
C614 C 0.06099 0.08317 0.70379 0.0
C615 C 0.03309 0.09832 0.86197 0.0
C616 C 0.14927 0.11174 0.57433 0.0
C617 C 0.12904 0.10356 0.60643 0.0
C618 C 0.08745 0.13575 0.6993 0.0
C619 C 0.04023 0.09563 0.7802 0.0
C620 C 0.05736 0.10266 0.73949 0.0
C621 C 0.11009 0.12363 0.62486 0.0
C622 C 0.09131 0.11631 0.6636 0.0
H623 H 0.9781 0.06494 0.81045 0.0
H624 H 0.00654 0.07494 0.7431 0.0
H625 H 0.06796 0.14476 0.76308 0.0
H626 H 0.13242 0.18167 0.56673 0.0
H627 H 0.09616 0.16746 0.62108 0.0
C628 C 0.9528 0.00526 0.8011 0.0
C629 C 0.939 0.98145 0.81864 0.0
C630 C 0.94272 0.0186 0.76184 0.0
C631 C 0.87569 0.02642 0.69813 0.0
H632 H 0.92174 0.07201 0.61793 0.0
C633 C 0.82572 0.09568 0.55825 0.0
C634 C 0.83463 0.12389 0.55855 0.0
C635 C 0.84064 0.07512 0.58276 0.0
C636 C 0.90864 0.05934 0.64008 0.0
H637 H 0.90576 0.95104 0.80609 0.0
H638 H 0.88875 0.9737 0.73687 0.0
H639 H 0.94454 0.04025 0.67246 0.0
H640 H 0.86679 0.1527 0.58183 0.0
H641 H 0.89305 0.11681 0.62513 0.0
H642 H 0.83985 0.04567 0.66603 0.0
C643 C 0.90654 0.98294 0.75448 0.0
C644 C 0.92167 0.04119 0.67144 0.0
C645 C 0.91639 0.96984 0.79407 0.0
C646 C 0.85941 0.13108 0.58187 0.0
C647 C 0.87452 0.1105 0.60613 0.0
C648 C 0.86272 0.0443 0.66652 0.0
C649 C 0.91885 0.00817 0.73884 0.0
C650 C 0.90536 0.02489 0.70156 0.0
C651 C 0.86494 0.0824 0.60763 0.0
C652 C 0.87901 0.06136 0.63773 0.0
H653 H 0.97058 0.0144 0.81891 0.0
H654 H 0.95281 0.03793 0.75096 0.0
H655 H 0.86232 0.01474 0.72123 0.0
H656 H 0.80666 0.08983 0.54023 0.0
H657 H 0.83292 0.0536 0.58289 0.0
C658 C 0.99251 0.91553 0.81752 0.0
C659 C 0.98339 0.90752 0.86106 0.0
C660 C 0.97581 0.9102 0.77932 0.0
C661 C 0.91859 0.86372 0.74001 0.0
H662 H 0.91115 0.91815 0.64208 0.0
C663 C 0.86185 0.83306 0.57674 0.0
C664 C 0.84266 0.85275 0.55885 0.0
C665 C 0.88133 0.84121 0.60968 0.0
C666 C 0.91292 0.9028 0.66925 0.0
H667 H 0.94972 0.88713 0.8985 0.0
H668 H 0.92046 0.8781 0.83218 0.0
H669 H 0.93934 0.92991 0.70912 0.0
H670 H 0.82867 0.89626 0.55974 0.0
H671 H 0.86246 0.91082 0.61866 0.0
H672 H 0.89159 0.83697 0.70137 0.0
C673 C 0.94065 0.88836 0.8274 0.0
C674 C 0.92928 0.90942 0.70743 0.0
C675 C 0.95739 0.89363 0.8655 0.0
C676 C 0.84373 0.881 0.57296 0.0
C677 C 0.86304 0.8892 0.60652 0.0
C678 C 0.90224 0.85717 0.70211 0.0
C679 C 0.94968 0.89652 0.78384 0.0
C680 C 0.93227 0.88991 0.74324 0.0
C681 C 0.8815 0.86915 0.6262 0.0
C682 C 0.8993 0.87652 0.6661 0.0
H683 H 0.01262 0.92579 0.81287 0.0
H684 H 0.98362 0.91634 0.7462 0.0
H685 H 0.92071 0.84806 0.76667 0.0
H686 H 0.86102 0.81114 0.56615 0.0
H687 H 0.89566 0.82538 0.62324 0.0
C688 C 0.54706 0.57855 0.65755 0.0
C689 C 0.52013 0.5667 0.66173 0.0
C690 C 0.56253 0.58619 0.69604 0.0
C691 C 0.56705 0.57639 0.82109 0.0
H692 H 0.60867 0.64664 0.8148 0.0
C693 C 0.64742 0.61167 0.95861 0.0
C694 C 0.65019 0.64072 0.96663 0.0
C695 C 0.62939 0.60197 0.92436 0.0
C696 C 0.59688 0.62715 0.81746 0.0
H697 H 0.48813 0.55351 0.70995 0.0
H698 H 0.51479 0.5674 0.77721 0.0
H699 H 0.58214 0.63074 0.74908 0.0
H700 H 0.63515 0.6824 0.9484 0.0
H701 H 0.60299 0.66567 0.88917 0.0
H702 H 0.58134 0.57325 0.89003 0.0
C703 C 0.52432 0.57028 0.7441 0.0
C704 C 0.58202 0.61777 0.77941 0.0
C705 C 0.50893 0.56255 0.70549 0.0
C706 C 0.63351 0.65991 0.94202 0.0
C707 C 0.61532 0.65029 0.90805 0.0
C708 C 0.58187 0.58586 0.85933 0.0
C709 C 0.55123 0.58246 0.73982 0.0
C710 C 0.56702 0.59222 0.78062 0.0
C711 C 0.61366 0.62124 0.89783 0.0
C712 C 0.597 0.61137 0.85796 0.0
H713 H 0.55596 0.58259 0.62461 0.0
H714 H 0.58333 0.59519 0.69142 0.0
H715 H 0.55591 0.55649 0.82308 0.0
H716 H 0.66024 0.59666 0.97743 0.0
H717 H 0.62879 0.57949 0.91733 0.0
C718 C 0.41599 0.53869 0.66551 0.0
C719 C 0.41482 0.50909 0.66364 0.0
C720 C 0.40708 0.55332 0.70416 0.0
C721 C 0.39024 0.54424 0.8267 0.0
H722 H 0.35178 0.61611 0.80906 0.0
C723 C 0.33049 0.60725 0.96813 0.0
C724 C 0.33512 0.63654 0.96862 0.0
C725 C 0.34185 0.59048 0.93333 0.0
C726 C 0.36271 0.59618 0.81454 0.0
H727 H 0.40311 0.47151 0.70148 0.0
H728 H 0.38651 0.4971 0.76835 0.0
H729 H 0.36734 0.58904 0.74333 0.0
H730 H 0.35618 0.67117 0.93516 0.0
H731 H 0.37573 0.64206 0.87378 0.0
H732 H 0.38476 0.55138 0.89825 0.0
C733 C 0.39505 0.50904 0.7402 0.0
C734 C 0.37174 0.58067 0.77687 0.0
C735 C 0.40429 0.49439 0.70157 0.0
C736 C 0.35209 0.64866 0.9349 0.0
C737 C 0.36318 0.63204 0.89994 0.0
C738 C 0.38088 0.55968 0.8645 0.0
C739 C 0.39626 0.53874 0.74191 0.0
C740 C 0.38591 0.55465 0.78239 0.0
C741 C 0.35774 0.60288 0.89831 0.0
C742 C 0.36731 0.58595 0.85872 0.0
H743 H 0.42362 0.55072 0.63717 0.0
H744 H 0.40884 0.57615 0.70442 0.0
H745 H 0.40133 0.52443 0.83229 0.0
H746 H 0.31724 0.59758 0.99369 0.0
H747 H 0.33723 0.56807 0.93274 0.0
C748 C 0.47878 0.44501 0.7022 0.0
C749 C 0.47392 0.43103 0.66085 0.0
C750 C 0.46223 0.43893 0.74034 0.0
C751 C 0.42111 0.38157 0.78966 0.0
H752 H 0.38701 0.4393 0.86613 0.0
C753 C 0.36558 0.35298 0.95688 0.0
C754 C 0.3382 0.36409 0.96148 0.0
C755 C 0.38376 0.36348 0.92356 0.0
C756 C 0.39648 0.42299 0.84509 0.0
H757 H 0.44882 0.39936 0.62695 0.0
H758 H 0.41981 0.38863 0.6934 0.0
H759 H 0.41491 0.4532 0.7996 0.0
H760 H 0.3084 0.39525 0.93675 0.0
H761 H 0.34027 0.41406 0.87843 0.0
H762 H 0.40271 0.35134 0.83468 0.0
C763 C 0.43612 0.40451 0.69632 0.0
C764 C 0.4125 0.43094 0.80722 0.0
C765 C 0.45241 0.41087 0.65816 0.0
C766 C 0.32957 0.38661 0.93367 0.0
C767 C 0.34781 0.39734 0.90058 0.0
C768 C 0.40545 0.37365 0.82772 0.0
C769 C 0.441 0.41831 0.7379 0.0
C770 C 0.42469 0.41026 0.77887 0.0
C771 C 0.37485 0.38541 0.89447 0.0
C772 C 0.39279 0.39424 0.85568 0.0
H773 H 0.49536 0.46063 0.70497 0.0
H774 H 0.46654 0.44975 0.77203 0.0
H775 H 0.43051 0.36519 0.76868 0.0
H776 H 0.37241 0.33536 0.97775 0.0
H777 H 0.40455 0.35403 0.91984 0.0
C778 C 0.59356 0.45793 0.65232 0.0
C779 C 0.58105 0.48475 0.65587 0.0
C780 C 0.60342 0.44391 0.69105 0.0
C781 C 0.59697 0.4418 0.81601 0.0
H782 H 0.66963 0.40355 0.80908 0.0
C783 C 0.63817 0.36331 0.95245 0.0
C784 C 0.66715 0.36363 0.96217 0.0
C785 C 0.62715 0.38033 0.91777 0.0
C786 C 0.64944 0.41437 0.81174 0.0
H787 H 0.56908 0.51828 0.70243 0.0
H788 H 0.58642 0.49391 0.77033 0.0
H789 H 0.65126 0.42834 0.74269 0.0
H790 H 0.70716 0.38298 0.94643 0.0
H791 H 0.68808 0.41297 0.88553 0.0
H792 H 0.59529 0.42787 0.88527 0.0
C793 C 0.5883 0.48344 0.73769 0.0
C794 C 0.63874 0.42826 0.77351 0.0
C795 C 0.57857 0.49747 0.69885 0.0
C796 C 0.6848 0.38221 0.9386 0.0
C797 C 0.67388 0.39918 0.90385 0.0
C798 C 0.60762 0.42776 0.85427 0.0
C799 C 0.601 0.45656 0.73418 0.0
C800 C 0.61234 0.44203 0.77512 0.0
C801 C 0.64502 0.39798 0.89237 0.0
C802 C 0.63397 0.41384 0.85251 0.0
H803 H 0.59668 0.44827 0.61949 0.0
H804 H 0.61303 0.42318 0.6872 0.0
H805 H 0.57649 0.45209 0.81823 0.0
H806 H 0.62432 0.34912 0.97066 0.0
H807 H 0.60487 0.37881 0.90966 0.0
C808 C 0.5425 0.48355 0.30974 0.0
C809 C 0.55611 0.50751 0.32719 0.0
C810 C 0.5527 0.47011 0.27067 0.0
C811 C 0.61951 0.46108 0.20783 0.0
H812 H 0.57235 0.41944 0.12363 0.0
C813 C 0.66809 0.39259 0.06567 0.0
C814 C 0.65721 0.36518 0.06254 0.0
C815 C 0.65406 0.41319 0.09143 0.0
C816 C 0.58578 0.43094 0.14694 0.0
H817 H 0.58977 0.53755 0.3153 0.0
H818 H 0.60743 0.51429 0.24693 0.0
H819 H 0.55039 0.45081 0.17961 0.0
H820 H 0.62269 0.33786 0.08093 0.0
H821 H 0.59801 0.37373 0.12665 0.0
H822 H 0.65483 0.44091 0.17575 0.0
C823 C 0.58934 0.50534 0.26414 0.0
C824 C 0.57322 0.44889 0.17906 0.0
C825 C 0.57914 0.51876 0.30325 0.0
C826 C 0.63147 0.35888 0.08365 0.0
C827 C 0.61733 0.37947 0.10931 0.0
C828 C 0.63204 0.44329 0.17561 0.0
C829 C 0.57674 0.48037 0.24809 0.0
C830 C 0.58992 0.46379 0.21048 0.0
C831 C 0.62875 0.40672 0.1142 0.0
C832 C 0.61532 0.42763 0.14532 0.0
H833 H 0.52458 0.47453 0.32725 0.0
H834 H 0.5425 0.4509 0.25943 0.0
H835 H 0.63308 0.47175 0.23193 0.0
H836 H 0.68783 0.39775 0.04911 0.0
H837 H 0.66318 0.43408 0.094 0.0
C838 C 0.49877 0.56537 0.32109 0.0
C839 C 0.50524 0.57863 0.36257 0.0
C840 C 0.51487 0.57075 0.28216 0.0
C841 C 0.56159 0.62448 0.23287 0.0
H842 H 0.58927 0.56387 0.15554 0.0
C843 C 0.65511 0.60949 0.09418 0.0
C844 C 0.65069 0.63395 0.0682 0.0
C845 C 0.6345 0.60052 0.125 0.0
C846 C 0.58161 0.58099 0.17679 0.0
H847 H 0.53368 0.60804 0.39562 0.0
H848 H 0.56148 0.61759 0.3279 0.0
H849 H 0.55877 0.55286 0.2204 0.0
H850 H 0.62127 0.6675 0.0517 0.0
H851 H 0.58498 0.65193 0.10549 0.0
H852 H 0.58447 0.65262 0.18985 0.0
C853 C 0.54391 0.60309 0.32535 0.0
C854 C 0.56409 0.5747 0.21376 0.0
C855 C 0.528 0.59755 0.36421 0.0
C856 C 0.62492 0.64856 0.0716 0.0
C857 C 0.60438 0.63975 0.10251 0.0
C858 C 0.57874 0.63078 0.19572 0.0
C859 C 0.5375 0.58985 0.28386 0.0
C860 C 0.55435 0.59637 0.24267 0.0
C861 C 0.60924 0.61605 0.13038 0.0
C862 C 0.58925 0.60911 0.16759 0.0
H863 H 0.48132 0.55078 0.31874 0.0
H864 H 0.50933 0.56034 0.25062 0.0
H865 H 0.5541 0.64167 0.25415 0.0
H866 H 0.6749 0.59795 0.09164 0.0
H867 H 0.63893 0.58227 0.14614 0.0
C868 C 0.45599 0.49627 0.30012 0.0
C869 C 0.43663 0.48212 0.32812 0.0
C870 C 0.44674 0.51055 0.26118 0.0
C871 C 0.38431 0.52056 0.18477 0.0
H872 H 0.41399 0.59637 0.17119 0.0
C873 C 0.32248 0.61107 0.09919 0.0
C874 C 0.33715 0.62951 0.07052 0.0
C875 C 0.33701 0.59029 0.12368 0.0
C876 C 0.4058 0.5751 0.17401 0.0
H877 H 0.39263 0.47039 0.33569 0.0
H878 H 0.37641 0.49568 0.26873 0.0
H879 H 0.43559 0.56411 0.22587 0.0
H880 H 0.37813 0.64082 0.04407 0.0
H881 H 0.40397 0.6045 0.08758 0.0
H882 H 0.35369 0.53217 0.13432 0.0
C883 C 0.39881 0.4956 0.27631 0.0
C884 C 0.41823 0.55653 0.20527 0.0
C885 C 0.40809 0.48124 0.31503 0.0
C886 C 0.36656 0.6267 0.06613 0.0
C887 C 0.38122 0.60608 0.09104 0.0
C888 C 0.37175 0.53922 0.15383 0.0
C889 C 0.41789 0.51102 0.24946 0.0
C890 C 0.40721 0.52925 0.21183 0.0
C891 C 0.36657 0.58773 0.12023 0.0
C892 C 0.38197 0.56688 0.14887 0.0
H893 H 0.4782 0.49699 0.30892 0.0
H894 H 0.46211 0.52175 0.24083 0.0
H895 H 0.37566 0.49952 0.1882 0.0
H896 H 0.29975 0.61291 0.10264 0.0
H897 H 0.32519 0.5767 0.14628 0.0
C898 C 0.49636 0.41549 0.32198 0.0
C899 C 0.48594 0.40895 0.36541 0.0
C900 C 0.48003 0.41044 0.28321 0.0
C901 C 0.4213 0.36618 0.24336 0.0
H902 H 0.41676 0.41957 0.14354 0.0
C903 C 0.36345 0.33609 0.08062 0.0
C904 C 0.34484 0.35633 0.06272 0.0
C905 C 0.38344 0.34375 0.11313 0.0
C906 C 0.41776 0.40451 0.17121 0.0
H907 H 0.45033 0.39154 0.40211 0.0
H908 H 0.42187 0.38279 0.33481 0.0
H909 H 0.44503 0.43101 0.21077 0.0
H910 H 0.33283 0.40043 0.06247 0.0
H911 H 0.36757 0.41415 0.12048 0.0
H912 H 0.39347 0.34007 0.20506 0.0
C913 C 0.44272 0.39175 0.33056 0.0
C914 C 0.43415 0.41094 0.20949 0.0
C915 C 0.45902 0.39684 0.36921 0.0
C916 C 0.3473 0.38467 0.07591 0.0
C917 C 0.36716 0.3924 0.10894 0.0
C918 C 0.40497 0.3598 0.20533 0.0
C919 C 0.45304 0.39841 0.28709 0.0
C920 C 0.436 0.39184 0.24605 0.0
C921 C 0.38486 0.3718 0.12896 0.0
C922 C 0.40301 0.3788 0.16869 0.0
H923 H 0.51723 0.4243 0.31793 0.0
H924 H 0.48877 0.4154 0.25017 0.0
H925 H 0.42251 0.35086 0.27065 0.0
H926 H 0.36174 0.31414 0.07051 0.0
H927 H 0.39719 0.32748 0.12693 0.0
loop_
_geom_bond_atom_site_label_1
_geom_bond_atom_site_label_2
_geom_bond_distance
_geom_bond_site_symmetry_2
_ccdc_geom_bond_type
Zn0 O2 1.933 1_556 S
Zn0 O20 1.985 . S
Zn0 O31 1.955 . S
Zn1 O2 1.911 . S
Zn1 O21 1.970 . S
Zn1 O37 1.945 . S
Zn1 O44 1.981 . S
O2 Zn0 1.933 1_554 S
O2 Zn1 1.911 . S
O2 H3 0.841 1_655 S
H3 O2 0.841 1_455 S
C4 O5 1.246 . S
C4 O33 1.276 1_545 S
O5 C4 1.246 . S
Zn6 O8 1.911 . S
Zn6 O23 1.970 . S
Zn6 O40 1.945 . S
Zn6 O47 1.981 . S
Zn7 O8 1.933 1_556 S
Zn7 O22 1.985 . S
Zn7 O29 1.955 . S
O8 Zn6 1.911 . S
O8 Zn7 1.933 1_554 S
O8 H9 0.841 1_455 S
H9 O8 0.841 1_655 S
Zn10 O11 1.933 1_556 S
Zn10 O24 1.985 . S
Zn10 O33 1.955 . S
O11 Zn10 1.933 1_554 S
O11 Zn12 1.911 . S
O11 H13 0.841 1_565 S
Zn12 O11 1.911 . S
Zn12 O25 1.970 . S
Zn12 O41 1.981 . S
Zn12 O43 1.945 . S
H13 O11 0.841 1_545 S
Zn14 O15 1.933 1_556 S
Zn14 O27 1.985 . S
Zn14 O35 1.955 . S
O15 Zn14 1.933 1_554 S
O15 H16 0.841 1_545 S
O15 Zn17 1.911 . S
H16 O15 0.841 1_565 S
Zn17 O15 1.911 . S
Zn17 O28 1.970 . S
Zn17 O38 1.981 . S
Zn17 O46 1.945 . S
C18 O19 1.246 . S
C18 O35 1.276 1_565 S
O19 C18 1.246 . S
O20 Zn0 1.985 . S
O20 C30 1.245 1_556 S
O21 Zn1 1.970 . S
O21 C30 1.263 . S
O22 Zn7 1.985 . S
O22 C34 1.245 1_556 S
O23 Zn6 1.970 . S
O23 C34 1.263 . S
O24 Zn10 1.985 . S
O24 C39 1.245 1_556 S
O25 Zn12 1.970 . S
O25 C39 1.263 . S
C26 O37 1.262 1_455 S
C26 O38 1.245 . S
O27 Zn14 1.985 . S
O27 C45 1.245 1_556 S
O28 Zn17 1.970 . S
O28 C45 1.263 . S
O29 Zn7 1.955 . S
O29 C48 1.276 1_455 S
C30 O20 1.245 1_554 S
C30 O21 1.263 . S
O31 Zn0 1.955 . S
O31 C50 1.276 1_655 S
C32 O40 1.262 1_655 S
C32 O41 1.245 . S
O33 C4 1.276 1_565 S
O33 Zn10 1.955 . S
C34 O22 1.245 1_554 S
C34 O23 1.263 . S
O35 Zn14 1.955 . S
O35 C18 1.276 1_545 S
C36 O43 1.262 1_545 S
C36 O44 1.245 . S
O37 Zn1 1.945 . S
O37 C26 1.262 1_655 S
O38 Zn17 1.981 . S
O38 C26 1.245 . S
C39 O24 1.245 1_554 S
C39 O25 1.263 . S
O40 Zn6 1.945 . S
O40 C32 1.262 1_455 S
O41 Zn12 1.981 . S
O41 C32 1.245 . S
C42 O46 1.262 1_565 S
C42 O47 1.245 . S
O43 Zn12 1.945 . S
O43 C36 1.262 1_565 S
O44 Zn1 1.981 . S
O44 C36 1.245 . S
C45 O27 1.245 1_554 S
C45 O28 1.263 . S
O46 Zn17 1.945 . S
O46 C42 1.262 1_545 S
O47 Zn6 1.981 . S
O47 C42 1.245 . S
C48 O29 1.276 1_655 S
C48 O49 1.246 . S
O49 C48 1.246 . S
C50 O31 1.276 1_455 S
C50 O51 1.246 . S
O51 C50 1.246 . S
Zn52 O54 1.933 . S
Zn52 O72 1.985 . S
Zn52 O83 1.955 . S
Zn53 O54 1.911 . S
Zn53 O73 1.970 . S
Zn53 O89 1.945 . S
Zn53 O96 1.981 . S
O54 Zn52 1.933 . S
O54 Zn53 1.911 . S
O54 H55 0.841 . S
H55 O54 0.841 . S
C56 O57 1.246 . S
C56 O85 1.276 . S
O57 C56 1.246 . S
Zn58 O60 1.911 . S
Zn58 O75 1.970 . S
Zn58 O92 1.945 . S
Zn58 O99 1.981 . S
Zn59 O60 1.933 . S
Zn59 O74 1.985 . S
Zn59 O81 1.955 . S
O60 Zn58 1.911 . S
O60 Zn59 1.933 . S
O60 H61 0.841 . S
H61 O60 0.841 . S
Zn62 O63 1.933 . S
Zn62 O76 1.985 . S
Zn62 O85 1.955 . S
O63 Zn62 1.933 . S
O63 Zn64 1.911 . S
O63 H65 0.841 . S
Zn64 O63 1.911 . S
Zn64 O77 1.970 . S
Zn64 O93 1.981 . S
Zn64 O95 1.945 . S
H65 O63 0.841 . S
Zn66 O67 1.933 . S
Zn66 O79 1.985 . S
Zn66 O87 1.955 . S
O67 Zn66 1.933 . S
O67 H68 0.841 . S
O67 Zn69 1.911 . S
H68 O67 0.841 . S
Zn69 O67 1.911 . S
Zn69 O80 1.970 . S
Zn69 O90 1.981 . S
Zn69 O98 1.945 . S
C70 O71 1.246 . S
C70 O87 1.276 . S
O71 C70 1.246 . S
O72 Zn52 1.985 . S
O72 C82 1.245 . S
O73 Zn53 1.970 . S
O73 C82 1.263 . S
O74 Zn59 1.985 . S
O74 C86 1.245 . S
O75 Zn58 1.970 . S
O75 C86 1.263 . S
O76 Zn62 1.985 . S
O76 C91 1.245 . S
O77 Zn64 1.970 . S
O77 C91 1.263 . S
C78 O89 1.262 . S
C78 O90 1.245 . S
O79 Zn66 1.985 . S
O79 C97 1.245 . S
O80 Zn69 1.970 . S
O80 C97 1.263 . S
O81 Zn59 1.955 . S
O81 C100 1.276 . S
C82 O72 1.245 . S
C82 O73 1.263 . S
O83 Zn52 1.955 . S
O83 C102 1.276 . S
C84 O92 1.262 . S
C84 O93 1.245 . S
O85 C56 1.276 . S
O85 Zn62 1.955 . S
C86 O74 1.245 . S
C86 O75 1.263 . S
O87 Zn66 1.955 . S
O87 C70 1.276 . S
C88 O95 1.262 . S
C88 O96 1.245 . S
O89 Zn53 1.945 . S
O89 C78 1.262 . S
O90 Zn69 1.981 . S
O90 C78 1.245 . S
C91 O76 1.245 . S
C91 O77 1.263 . S
O92 Zn58 1.945 . S
O92 C84 1.262 . S
O93 Zn64 1.981 . S
O93 C84 1.245 . S
C94 O98 1.262 . S
C94 O99 1.245 . S
O95 Zn64 1.945 . S
O95 C88 1.262 . S
O96 Zn53 1.981 . S
O96 C88 1.245 . S
C97 O79 1.245 . S
C97 O80 1.263 . S
O98 Zn69 1.945 . S
O98 C94 1.262 . S
O99 Zn58 1.981 . S
O99 C94 1.245 . S
C100 O81 1.276 . S
C100 O101 1.246 . S
O101 C100 1.246 . S
C102 O83 1.276 . S
C102 O103 1.246 . S
O103 C102 1.246 . S
C104 N105 1.317 . S
C104 N106 1.348 1_556 S
C104 C107 1.485 . S
N105 C104 1.317 . S
N105 N109 1.370 1_556 S
N106 C104 1.348 1_554 S
N106 C108 1.346 . S
C107 C104 1.485 . S
C107 H111 0.960 . S
C107 H112 0.961 . S
C107 H113 0.960 . S
C108 N106 1.346 . S
C108 N109 1.307 . S
C108 C110 1.486 . S
N109 N105 1.370 1_554 S
N109 C108 1.307 . S
C110 C108 1.486 . S
C110 H114 0.960 . S
C110 H115 0.960 . S
C110 H116 0.959 . S
H111 C107 0.960 . S
H112 C107 0.961 . S
H113 C107 0.960 . S
H114 C110 0.960 . S
H115 C110 0.960 . S
H116 C110 0.959 . S
C117 N118 1.317 . S
C117 N119 1.348 1_556 S
C117 C120 1.485 . S
N118 C117 1.317 . S
N118 N122 1.370 1_556 S
N119 C117 1.348 1_554 S
N119 C121 1.346 . S
C120 C117 1.485 . S
C120 H124 0.960 . S
C120 H125 0.961 . S
C120 H126 0.960 . S
C121 N119 1.346 . S
C121 N122 1.307 . S
C121 C123 1.486 . S
N122 N118 1.370 1_554 S
N122 C121 1.307 . S
C123 C121 1.486 . S
C123 H127 0.960 . S
C123 H128 0.960 . S
C123 H129 0.959 . S
H124 C120 0.960 . S
H125 C120 0.961 . S
H126 C120 0.960 . S
H127 C123 0.960 . S
H128 C123 0.960 . S
H129 C123 0.959 . S
C130 N131 1.317 . S
C130 N132 1.348 . S
C130 C133 1.485 . S
N131 C130 1.317 . S
N131 N135 1.370 1_554 S
N132 C130 1.348 . S
N132 C134 1.346 1_554 S
C133 C130 1.485 . S
C133 H137 0.960 . S
C133 H138 0.961 . S
C133 H139 0.960 . S
C134 N132 1.346 1_556 S
C134 N135 1.307 . S
C134 C136 1.486 . S
N135 N131 1.370 1_556 S
N135 C134 1.307 . S
C136 C134 1.486 . S
C136 H140 0.960 . S
C136 H141 0.960 . S
C136 H142 0.959 . S
H137 C133 0.960 . S
H138 C133 0.961 . S
H139 C133 0.960 . S
H140 C136 0.960 . S
H141 C136 0.960 . S
H142 C136 0.959 . S
C143 N144 1.317 . S
C143 N145 1.348 . S
C143 C146 1.485 . S
N144 C143 1.317 . S
N144 N148 1.370 1_554 S
N145 C143 1.348 . S
N145 C147 1.346 1_554 S
C146 C143 1.485 . S
C146 H150 0.960 . S
C146 H151 0.961 . S
C146 H152 0.960 . S
C147 N145 1.346 1_556 S
C147 N148 1.307 . S
C147 C149 1.486 . S
N148 N144 1.370 1_556 S
N148 C147 1.307 . S
C149 C147 1.486 . S
C149 H153 0.960 . S
C149 H154 0.960 . S
C149 H155 0.959 . S
H150 C146 0.960 . S
H151 C146 0.961 . S
H152 C146 0.960 . S
H153 C149 0.960 . S
H154 C149 0.960 . S
H155 C149 0.959 . S
C156 N157 1.317 . S
C156 N158 1.348 . S
C156 C159 1.485 . S
N157 C156 1.317 . S
N157 N161 1.370 . S
N158 C156 1.348 . S
N158 C160 1.346 . S
C159 C156 1.485 . S
C159 H163 0.960 . S
C159 H164 0.961 . S
C159 H165 0.960 . S
C160 N158 1.346 . S
C160 N161 1.307 . S
C160 C162 1.486 . S
N161 N157 1.370 . S
N161 C160 1.307 . S
C162 C160 1.486 . S
C162 H166 0.960 . S
C162 H167 0.960 . S
C162 H168 0.959 . S
H163 C159 0.960 . S
H164 C159 0.961 . S
H165 C159 0.960 . S
H166 C162 0.960 . S
H167 C162 0.960 . S
H168 C162 0.959 . S
C169 N170 1.317 . S
C169 N171 1.348 . S
C169 C172 1.485 . S
N170 C169 1.317 . S
N170 N174 1.370 . S
N171 C169 1.348 . S
N171 C173 1.346 . S
C172 C169 1.485 . S
C172 H176 0.960 . S
C172 H177 0.961 . S
C172 H178 0.960 . S
C173 N171 1.346 . S
C173 N174 1.307 . S
C173 C175 1.486 . S
N174 N170 1.370 . S
N174 C173 1.307 . S
C175 C173 1.486 . S
C175 H179 0.960 . S
C175 H180 0.960 . S
C175 H181 0.959 . S
H176 C172 0.960 . S
H177 C172 0.961 . S
H178 C172 0.960 . S
H179 C175 0.960 . S
H180 C175 0.960 . S
H181 C175 0.959 . S
C182 N183 1.317 . S
C182 N184 1.348 . S
C182 C185 1.485 . S
N183 C182 1.317 . S
N183 N187 1.370 . S
N184 C182 1.348 . S
N184 C186 1.346 . S
C185 C182 1.485 . S
C185 H189 0.960 . S
C185 H190 0.961 . S
C185 H191 0.960 . S
C186 N184 1.346 . S
C186 N187 1.307 . S
C186 C188 1.486 . S
N187 N183 1.370 . S
N187 C186 1.307 . S
C188 C186 1.486 . S
C188 H192 0.960 . S
C188 H193 0.960 . S
C188 H194 0.959 . S
H189 C185 0.960 . S
H190 C185 0.961 . S
H191 C185 0.960 . S
H192 C188 0.960 . S
H193 C188 0.960 . S
H194 C188 0.959 . S
C195 N196 1.317 . S
C195 N197 1.348 . S
C195 C198 1.485 . S
N196 C195 1.317 . S
N196 N200 1.370 . S
N197 C195 1.348 . S
N197 C199 1.346 . S
C198 C195 1.485 . S
C198 H202 0.960 . S
C198 H203 0.961 . S
C198 H204 0.960 . S
C199 N197 1.346 . S
C199 N200 1.307 . S
C199 C201 1.486 . S
N200 N196 1.370 . S
N200 C199 1.307 . S
C201 C199 1.486 . S
C201 H205 0.960 . S
C201 H206 0.960 . S
C201 H207 0.959 . S
H202 C198 0.960 . S
H203 C198 0.961 . S
H204 C198 0.960 . S
H205 C201 0.960 . S
H206 C201 0.960 . S
H207 C201 0.959 . S
C208 C209 1.349 1_556 S
C208 C210 1.327 . S
C208 H233 0.950 . S
C209 C208 1.349 1_554 S
C209 C225 1.349 . S
C210 C208 1.327 . S
C210 C229 1.429 1_556 S
C210 H234 0.950 . S
C211 C228 1.574 . S
C211 C230 1.368 . S
C211 H235 0.949 . S
H212 C216 0.949 . S
C213 C214 1.349 . S
C213 C215 1.327 . S
C213 H236 0.950 . S
C214 C213 1.349 . S
C214 C226 1.349 1_554 S
C215 C213 1.327 . S
C215 C231 1.429 . S
C215 H237 0.950 . S
C216 H212 0.949 . S
C216 C224 1.574 . S
C216 C232 1.368 1_556 S
H217 C225 0.950 . S
H218 C223 0.950 . S
H219 C224 0.949 . S
H220 C226 0.950 . S
H221 C227 0.950 . S
H222 C228 0.949 . S
C223 H218 0.950 . S
C223 C225 1.327 . S
C223 C229 1.429 . S
C224 C216 1.574 . S
C224 H219 0.949 . S
C224 C230 1.368 1_556 S
C225 C209 1.349 . S
C225 H217 0.950 . S
C225 C223 1.327 . S
C226 C214 1.349 1_556 S
C226 H220 0.950 . S
C226 C227 1.327 . S
C227 H221 0.950 . S
C227 C226 1.327 . S
C227 C231 1.429 1_556 S
C228 C211 1.574 . S
C228 H222 0.949 . S
C228 C232 1.368 . S
C229 C210 1.429 1_554 S
C229 C223 1.429 . S
C229 C230 1.523 . S
C230 C211 1.368 . S
C230 C224 1.368 1_554 S
C230 C229 1.523 . S
C231 C215 1.429 . S
C231 C227 1.429 1_554 S
C231 C232 1.523 . S
C232 C216 1.368 1_554 S
C232 C228 1.368 . S
C232 C231 1.523 . S
H233 C208 0.950 . S
H234 C210 0.950 . S
H235 C211 0.949 . S
H236 C213 0.950 . S
H237 C215 0.950 . S
C238 C239 1.349 . S
C238 C240 1.327 . S
C238 H263 0.950 . S
C239 C238 1.349 . S
C239 C255 1.349 1_554 S
C240 C238 1.327 . S
C240 C259 1.429 . S
C240 H264 0.950 . S
C241 C258 1.574 . S
C241 C260 1.368 1_556 S
C241 H265 0.949 . S
H242 C246 0.949 . S
C243 C244 1.349 1_556 S
C243 C245 1.327 . S
C243 H266 0.950 . S
C244 C243 1.349 1_554 S
C244 C256 1.349 . S
C245 C243 1.327 . S
C245 C261 1.429 1_556 S
C245 H267 0.950 . S
C246 H242 0.949 . S
C246 C254 1.574 . S
C246 C262 1.368 . S
H247 C255 0.950 . S
H248 C253 0.950 . S
H249 C254 0.949 . S
H250 C256 0.950 . S
H251 C257 0.950 . S
H252 C258 0.949 . S
C253 H248 0.950 . S
C253 C255 1.327 . S
C253 C259 1.429 1_556 S
C254 C246 1.574 . S
C254 H249 0.949 . S
C254 C260 1.368 . S
C255 C239 1.349 1_556 S
C255 H247 0.950 . S
C255 C253 1.327 . S
C256 C244 1.349 . S
C256 H250 0.950 . S
C256 C257 1.327 . S
C257 H251 0.950 . S
C257 C256 1.327 . S
C257 C261 1.429 . S
C258 C241 1.574 . S
C258 H252 0.949 . S
C258 C262 1.368 1_556 S
C259 C240 1.429 . S
C259 C253 1.429 1_554 S
C259 C260 1.523 . S
C260 C241 1.368 1_554 S
C260 C254 1.368 . S
C260 C259 1.523 . S
C261 C245 1.429 1_554 S
C261 C257 1.429 . S
C261 C262 1.523 . S
C262 C246 1.368 . S
C262 C258 1.368 1_554 S
C262 C261 1.523 . S
H263 C238 0.950 . S
H264 C240 0.950 . S
H265 C241 0.949 . S
H266 C243 0.950 . S
H267 C245 0.950 . S
C268 C269 1.349 . S
C268 C270 1.327 . S
C268 H293 0.950 . S
C269 C268 1.349 . S
C269 C285 1.349 1_554 S
C270 C268 1.327 . S
C270 C289 1.429 . S
C270 H294 0.950 . S
C271 C288 1.574 . S
C271 C290 1.368 1_556 S
C271 H295 0.949 . S
H272 C276 0.949 . S
C273 C274 1.349 1_556 S
C273 C275 1.327 . S
C273 H296 0.950 . S
C274 C273 1.349 1_554 S
C274 C286 1.349 . S
C275 C273 1.327 . S
C275 C291 1.429 1_556 S
C275 H297 0.950 . S
C276 H272 0.949 . S
C276 C284 1.574 . S
C276 C292 1.368 . S
H277 C285 0.950 . S
H278 C283 0.950 . S
H279 C284 0.949 . S
H280 C286 0.950 . S
H281 C287 0.950 . S
H282 C288 0.949 . S
C283 H278 0.950 . S
C283 C285 1.327 . S
C283 C289 1.429 1_556 S
C284 C276 1.574 . S
C284 H279 0.949 . S
C284 C290 1.368 . S
C285 C269 1.349 1_556 S
C285 H277 0.950 . S
C285 C283 1.327 . S
C286 C274 1.349 . S
C286 H280 0.950 . S
C286 C287 1.327 . S
C287 H281 0.950 . S
C287 C286 1.327 . S
C287 C291 1.429 . S
C288 C271 1.574 . S
C288 H282 0.949 . S
C288 C292 1.368 1_556 S
C289 C270 1.429 . S
C289 C283 1.429 1_554 S
C289 C290 1.523 . S
C290 C271 1.368 1_554 S
C290 C284 1.368 . S
C290 C289 1.523 . S
C291 C275 1.429 1_554 S
C291 C287 1.429 . S
C291 C292 1.523 . S
C292 C276 1.368 . S
C292 C288 1.368 1_554 S
C292 C291 1.523 . S
H293 C268 0.950 . S
H294 C270 0.950 . S
H295 C271 0.949 . S
H296 C273 0.950 . S
H297 C275 0.950 . S
C298 C299 1.349 1_556 S
C298 C300 1.327 . S
C298 H323 0.950 . S
C299 C298 1.349 1_554 S
C299 C315 1.349 . S
C300 C298 1.327 . S
C300 C319 1.429 1_556 S
C300 H324 0.950 . S
C301 C318 1.574 . S
C301 C320 1.368 . S
C301 H325 0.949 . S
H302 C306 0.949 . S
C303 C304 1.349 . S
C303 C305 1.327 . S
C303 H326 0.950 . S
C304 C303 1.349 . S
C304 C316 1.349 1_554 S
C305 C303 1.327 . S
C305 C321 1.429 . S
C305 H327 0.950 . S
C306 H302 0.949 . S
C306 C314 1.574 . S
C306 C322 1.368 1_556 S
H307 C315 0.950 . S
H308 C313 0.950 . S
H309 C314 0.949 . S
H310 C316 0.950 . S
H311 C317 0.950 . S
H312 C318 0.949 . S
C313 H308 0.950 . S
C313 C315 1.327 . S
C313 C319 1.429 . S
C314 C306 1.574 . S
C314 H309 0.949 . S
C314 C320 1.368 1_556 S
C315 C299 1.349 . S
C315 H307 0.950 . S
C315 C313 1.327 . S
C316 C304 1.349 1_556 S
C316 H310 0.950 . S
C316 C317 1.327 . S
C317 H311 0.950 . S
C317 C316 1.327 . S
C317 C321 1.429 1_556 S
C318 C301 1.574 . S
C318 H312 0.949 . S
C318 C322 1.368 . S
C319 C300 1.429 1_554 S
C319 C313 1.429 . S
C319 C320 1.523 . S
C320 C301 1.368 . S
C320 C314 1.368 1_554 S
C320 C319 1.523 . S
C321 C305 1.429 . S
C321 C317 1.429 1_554 S
C321 C322 1.523 . S
C322 C306 1.368 1_554 S
C322 C318 1.368 . S
C322 C321 1.523 . S
H323 C298 0.950 . S
H324 C300 0.950 . S
H325 C301 0.949 . S
H326 C303 0.950 . S
H327 C305 0.950 . S
C328 C329 1.349 . S
C328 C330 1.327 . S
C328 H353 0.950 . S
C329 C328 1.349 . S
C329 C345 1.349 . S
C330 C328 1.327 . S
C330 C349 1.429 . S
C330 H354 0.950 . S
C331 C348 1.574 . S
C331 C350 1.368 . S
C331 H355 0.949 . S
H332 C336 0.949 . S
C333 C334 1.349 . S
C333 C335 1.327 . S
C333 H356 0.950 . S
C334 C333 1.349 . S
C334 C346 1.349 . S
C335 C333 1.327 . S
C335 C351 1.429 . S
C335 H357 0.950 . S
C336 H332 0.949 . S
C336 C344 1.574 . S
C336 C352 1.368 . S
H337 C345 0.950 . S
H338 C343 0.950 . S
H339 C344 0.949 . S
H340 C346 0.950 . S
H341 C347 0.950 . S
H342 C348 0.949 . S
C343 H338 0.950 . S
C343 C345 1.327 . S
C343 C349 1.429 . S
C344 C336 1.574 . S
C344 H339 0.949 . S
C344 C350 1.368 . S
C345 C329 1.349 . S
C345 H337 0.950 . S
C345 C343 1.327 . S
C346 C334 1.349 . S
C346 H340 0.950 . S
C346 C347 1.327 . S
C347 H341 0.950 . S
C347 C346 1.327 . S
C347 C351 1.429 . S
C348 C331 1.574 . S
C348 H342 0.949 . S
C348 C352 1.368 . S
C349 C330 1.429 . S
C349 C343 1.429 . S
C349 C350 1.523 . S
C350 C331 1.368 . S
C350 C344 1.368 . S
C350 C349 1.523 . S
C351 C335 1.429 . S
C351 C347 1.429 . S
C351 C352 1.523 . S
C352 C336 1.368 . S
C352 C348 1.368 . S
C352 C351 1.523 . S
H353 C328 0.950 . S
H354 C330 0.950 . S
H355 C331 0.949 . S
H356 C333 0.950 . S
H357 C335 0.950 . S
C358 C359 1.349 . S
C358 C360 1.327 . S
C358 H383 0.950 . S
C359 C358 1.349 . S
C359 C375 1.349 . S
C360 C358 1.327 . S
C360 C379 1.429 . S
C360 H384 0.950 . S
C361 C378 1.574 . S
C361 C380 1.368 . S
C361 H385 0.949 . S
H362 C366 0.949 . S
C363 C364 1.349 . S
C363 C365 1.327 . S
C363 H386 0.950 . S
C364 C363 1.349 . S
C364 C376 1.349 . S
C365 C363 1.327 . S
C365 C381 1.429 . S
C365 H387 0.950 . S
C366 H362 0.949 . S
C366 C374 1.574 . S
C366 C382 1.368 . S
H367 C375 0.950 . S
H368 C373 0.950 . S
H369 C374 0.949 . S
H370 C376 0.950 . S
H371 C377 0.950 . S
H372 C378 0.949 . S
C373 H368 0.950 . S
C373 C375 1.327 . S
C373 C379 1.429 . S
C374 C366 1.574 . S
C374 H369 0.949 . S
C374 C380 1.368 . S
C375 C359 1.349 . S
C375 H367 0.950 . S
C375 C373 1.327 . S
C376 C364 1.349 . S
C376 H370 0.950 . S
C376 C377 1.327 . S
C377 H371 0.950 . S
C377 C376 1.327 . S
C377 C381 1.429 . S
C378 C361 1.574 . S
C378 H372 0.949 . S
C378 C382 1.368 . S
C379 C360 1.429 . S
C379 C373 1.429 . S
C379 C380 1.523 . S
C380 C361 1.368 . S
C380 C374 1.368 . S
C380 C379 1.523 . S
C381 C365 1.429 . S
C381 C377 1.429 . S
C381 C382 1.523 . S
C382 C366 1.368 . S
C382 C378 1.368 . S
C382 C381 1.523 . S
H383 C358 0.950 . S
H384 C360 0.950 . S
H385 C361 0.949 . S
H386 C363 0.950 . S
H387 C365 0.950 . S
C388 C389 1.349 . S
C388 C390 1.327 . S
C388 H413 0.950 . S
C389 C388 1.349 . S
C389 C405 1.349 . S
C390 C388 1.327 . S
C390 C409 1.429 . S
C390 H414 0.950 . S
C391 C408 1.574 . S
C391 C410 1.368 . S
C391 H415 0.949 . S
H392 C396 0.949 . S
C393 C394 1.349 . S
C393 C395 1.327 . S
C393 H416 0.950 . S
C394 C393 1.349 . S
C394 C406 1.349 . S
C395 C393 1.327 . S
C395 C411 1.429 . S
C395 H417 0.950 . S
C396 H392 0.949 . S
C396 C404 1.574 . S
C396 C412 1.368 . S
H397 C405 0.950 . S
H398 C403 0.950 . S
H399 C404 0.949 . S
H400 C406 0.950 . S
H401 C407 0.950 . S
H402 C408 0.949 . S
C403 H398 0.950 . S
C403 C405 1.327 . S
C403 C409 1.429 . S
C404 C396 1.574 . S
C404 H399 0.949 . S
C404 C410 1.368 . S
C405 C389 1.349 . S
C405 H397 0.950 . S
C405 C403 1.327 . S
C406 C394 1.349 . S
C406 H400 0.950 . S
C406 C407 1.327 . S
C407 H401 0.950 . S
C407 C406 1.327 . S
C407 C411 1.429 . S
C408 C391 1.574 . S
C408 H402 0.949 . S
C408 C412 1.368 . S
C409 C390 1.429 . S
C409 C403 1.429 . S
C409 C410 1.523 . S
C410 C391 1.368 . S
C410 C404 1.368 . S
C410 C409 1.523 . S
C411 C395 1.429 . S
C411 C407 1.429 . S
C411 C412 1.523 . S
C412 C396 1.368 . S
C412 C408 1.368 . S
C412 C411 1.523 . S
H413 C388 0.950 . S
H414 C390 0.950 . S
H415 C391 0.949 . S
H416 C393 0.950 . S
H417 C395 0.950 . S
C418 C419 1.349 . S
C418 C420 1.327 . S
C418 H443 0.950 . S
C419 C418 1.349 . S
C419 C435 1.349 . S
C420 C418 1.327 . S
C420 C439 1.429 . S
C420 H444 0.950 . S
C421 C438 1.574 . S
C421 C440 1.368 . S
C421 H445 0.949 . S
H422 C426 0.949 . S
C423 C424 1.349 . S
C423 C425 1.327 . S
C423 H446 0.950 . S
C424 C423 1.349 . S
C424 C436 1.349 . S
C425 C423 1.327 . S
C425 C441 1.429 . S
C425 H447 0.950 . S
C426 H422 0.949 . S
C426 C434 1.574 . S
C426 C442 1.368 . S
H427 C435 0.950 . S
H428 C433 0.950 . S
H429 C434 0.949 . S
H430 C436 0.950 . S
H431 C437 0.950 . S
H432 C438 0.949 . S
C433 H428 0.950 . S
C433 C435 1.327 . S
C433 C439 1.429 . S
C434 C426 1.574 . S
C434 H429 0.949 . S
C434 C440 1.368 . S
C435 C419 1.349 . S
C435 H427 0.950 . S
C435 C433 1.327 . S
C436 C424 1.349 . S
C436 H430 0.950 . S
C436 C437 1.327 . S
C437 H431 0.950 . S
C437 C436 1.327 . S
C437 C441 1.429 . S
C438 C421 1.574 . S
C438 H432 0.949 . S
C438 C442 1.368 . S
C439 C420 1.429 . S
C439 C433 1.429 . S
C439 C440 1.523 . S
C440 C421 1.368 . S
C440 C434 1.368 . S
C440 C439 1.523 . S
C441 C425 1.429 . S
C441 C437 1.429 . S
C441 C442 1.523 . S
C442 C426 1.368 . S
C442 C438 1.368 . S
C442 C441 1.523 . S
H443 C418 0.950 . S
H444 C420 0.950 . S
H445 C421 0.949 . S
H446 C423 0.950 . S
H447 C425 0.950 . S
C448 C449 1.349 . S
C448 C450 1.327 . S
C448 H473 0.950 . S
C449 C448 1.349 . S
C449 C465 1.349 . S
C450 C448 1.327 . S
C450 C469 1.429 . S
C450 H474 0.950 . S
C451 C468 1.574 . S
C451 C470 1.368 . S
C451 H475 0.949 . S
H452 C456 0.949 . S
C453 C454 1.349 . S
C453 C455 1.327 . S
C453 H476 0.950 . S
C454 C453 1.349 . S
C454 C466 1.349 . S
C455 C453 1.327 . S
C455 C471 1.429 . S
C455 H477 0.950 . S
C456 H452 0.949 . S
C456 C464 1.574 . S
C456 C472 1.368 . S
H457 C465 0.950 1_655 S
H458 C463 0.950 . S
H459 C464 0.949 . S
H460 C466 0.950 . S
H461 C467 0.950 . S
H462 C468 0.949 . S
C463 H458 0.950 . S
C463 C465 1.327 . S
C463 C469 1.429 . S
C464 C456 1.574 . S
C464 H459 0.949 . S
C464 C470 1.368 . S
C465 C449 1.349 . S
C465 H457 0.950 1_455 S
C465 C463 1.327 . S
C466 C454 1.349 . S
C466 H460 0.950 . S
C466 C467 1.327 . S
C467 H461 0.950 . S
C467 C466 1.327 . S
C467 C471 1.429 . S
C468 C451 1.574 . S
C468 H462 0.949 . S
C468 C472 1.368 . S
C469 C450 1.429 . S
C469 C463 1.429 . S
C469 C470 1.523 . S
C470 C451 1.368 . S
C470 C464 1.368 . S
C470 C469 1.523 . S
C471 C455 1.429 . S
C471 C467 1.429 . S
C471 C472 1.523 . S
C472 C456 1.368 . S
C472 C468 1.368 . S
C472 C471 1.523 . S
H473 C448 0.950 . S
H474 C450 0.950 . S
H475 C451 0.949 . S
H476 C453 0.950 . S
H477 C455 0.950 . S
C478 C479 1.349 . S
C478 C480 1.327 . S
C478 H503 0.950 . S
C479 C478 1.349 . S
C479 C495 1.349 . S
C480 C478 1.327 . S
C480 C499 1.429 . S
C480 H504 0.950 . S
C481 C498 1.574 . S
C481 C500 1.368 . S
C481 H505 0.949 . S
H482 C486 0.949 . S
C483 C484 1.349 . S
C483 C485 1.327 . S
C483 H506 0.950 . S
C484 C483 1.349 . S
C484 C496 1.349 . S
C485 C483 1.327 . S
C485 C501 1.429 . S
C485 H507 0.950 . S
C486 H482 0.949 . S
C486 C494 1.574 . S
C486 C502 1.368 . S
H487 C495 0.950 . S
H488 C493 0.950 . S
H489 C494 0.949 . S
H490 C496 0.950 . S
H491 C497 0.950 . S
H492 C498 0.949 . S
C493 H488 0.950 . S
C493 C495 1.327 . S
C493 C499 1.429 . S
C494 C486 1.574 . S
C494 H489 0.949 . S
C494 C500 1.368 . S
C495 C479 1.349 . S
C495 H487 0.950 . S
C495 C493 1.327 . S
C496 C484 1.349 . S
C496 H490 0.950 . S
C496 C497 1.327 . S
C497 H491 0.950 . S
C497 C496 1.327 . S
C497 C501 1.429 . S
C498 C481 1.574 . S
C498 H492 0.949 . S
C498 C502 1.368 . S
C499 C480 1.429 . S
C499 C493 1.429 . S
C499 C500 1.523 . S
C500 C481 1.368 . S
C500 C494 1.368 . S
C500 C499 1.523 . S
C501 C485 1.429 . S
C501 C497 1.429 . S
C501 C502 1.523 . S
C502 C486 1.368 . S
C502 C498 1.368 . S
C502 C501 1.523 . S
H503 C478 0.950 . S
H504 C480 0.950 . S
H505 C481 0.949 . S
H506 C483 0.950 . S
H507 C485 0.950 . S
C508 C509 1.349 . S
C508 C510 1.327 . S
C508 H533 0.950 . S
C509 C508 1.349 . S
C509 C525 1.349 . S
C510 C508 1.327 . S
C510 C529 1.429 . S
C510 H534 0.950 . S
C511 C528 1.574 . S
C511 C530 1.368 . S
C511 H535 0.949 . S
H512 C516 0.949 . S
C513 C514 1.349 . S
C513 C515 1.327 . S
C513 H536 0.950 . S
C514 C513 1.349 . S
C514 C526 1.349 . S
C515 C513 1.327 . S
C515 C531 1.429 . S
C515 H537 0.950 . S
C516 H512 0.949 . S
C516 C524 1.574 . S
C516 C532 1.368 . S
H517 C525 0.950 1_455 S
H518 C523 0.950 . S
H519 C524 0.949 . S
H520 C526 0.950 . S
H521 C527 0.950 . S
H522 C528 0.949 . S
C523 H518 0.950 . S
C523 C525 1.327 . S
C523 C529 1.429 . S
C524 C516 1.574 . S
C524 H519 0.949 . S
C524 C530 1.368 . S
C525 C509 1.349 . S
C525 H517 0.950 1_655 S
C525 C523 1.327 . S
C526 C514 1.349 . S
C526 H520 0.950 . S
C526 C527 1.327 . S
C527 H521 0.950 . S
C527 C526 1.327 . S
C527 C531 1.429 . S
C528 C511 1.574 . S
C528 H522 0.949 . S
C528 C532 1.368 . S
C529 C510 1.429 . S
C529 C523 1.429 . S
C529 C530 1.523 . S
C530 C511 1.368 . S
C530 C524 1.368 . S
C530 C529 1.523 . S
C531 C515 1.429 . S
C531 C527 1.429 . S
C531 C532 1.523 . S
C532 C516 1.368 . S
C532 C528 1.368 . S
C532 C531 1.523 . S
H533 C508 0.950 . S
H534 C510 0.950 . S
H535 C511 0.949 . S
H536 C513 0.950 . S
H537 C515 0.950 . S
C538 C539 1.349 . S
C538 C540 1.327 . S
C538 H563 0.950 . S
C539 C538 1.349 . S
C539 C555 1.349 . S
C540 C538 1.327 . S
C540 C559 1.429 . S
C540 H564 0.950 . S
C541 C558 1.574 . S
C541 C560 1.368 . S
C541 H565 0.949 . S
H542 C546 0.949 . S
C543 C544 1.349 . S
C543 C545 1.327 . S
C543 H566 0.950 . S
C544 C543 1.349 . S
C544 C556 1.349 . S
C545 C543 1.327 . S
C545 C561 1.429 . S
C545 H567 0.950 . S
C546 H542 0.949 . S
C546 C554 1.574 . S
C546 C562 1.368 . S
H547 C555 0.950 . S
H548 C553 0.950 . S
H549 C554 0.949 . S
H550 C556 0.950 . S
H551 C557 0.950 . S
H552 C558 0.949 . S
C553 H548 0.950 . S
C553 C555 1.327 . S
C553 C559 1.429 . S
C554 C546 1.574 . S
C554 H549 0.949 . S
C554 C560 1.368 . S
C555 C539 1.349 . S
C555 H547 0.950 . S
C555 C553 1.327 . S
C556 C544 1.349 . S
C556 H550 0.950 . S
C556 C557 1.327 . S
C557 H551 0.950 . S
C557 C556 1.327 . S
C557 C561 1.429 . S
C558 C541 1.574 . S
C558 H552 0.949 . S
C558 C562 1.368 . S
C559 C540 1.429 . S
C559 C553 1.429 . S
C559 C560 1.523 . S
C560 C541 1.368 . S
C560 C554 1.368 . S
C560 C559 1.523 . S
C561 C545 1.429 . S
C561 C557 1.429 . S
C561 C562 1.523 . S
C562 C546 1.368 . S
C562 C558 1.368 . S
C562 C561 1.523 . S
H563 C538 0.950 . S
H564 C540 0.950 . S
H565 C541 0.949 . S
H566 C543 0.950 . S
H567 C545 0.950 . S
C568 C569 1.349 . S
C568 C570 1.327 . S
C568 H593 0.950 1_565 S
C569 C568 1.349 . S
C569 C585 1.349 . S
C570 C568 1.327 . S
C570 C589 1.429 . S
C570 H594 0.950 . S
C571 C588 1.574 . S
C571 C590 1.368 . S
C571 H595 0.949 . S
H572 C576 0.949 . S
C573 C574 1.349 . S
C573 C575 1.327 . S
C573 H596 0.950 . S
C574 C573 1.349 . S
C574 C586 1.349 . S
C575 C573 1.327 . S
C575 C591 1.429 . S
C575 H597 0.950 . S
C576 H572 0.949 . S
C576 C584 1.574 . S
C576 C592 1.368 . S
H577 C585 0.950 . S
H578 C583 0.950 . S
H579 C584 0.949 . S
H580 C586 0.950 . S
H581 C587 0.950 . S
H582 C588 0.949 . S
C583 H578 0.950 . S
C583 C585 1.327 . S
C583 C589 1.429 . S
C584 C576 1.574 . S
C584 H579 0.949 . S
C584 C590 1.368 . S
C585 C569 1.349 . S
C585 H577 0.950 . S
C585 C583 1.327 . S
C586 C574 1.349 . S
C586 H580 0.950 . S
C586 C587 1.327 . S
C587 H581 0.950 . S
C587 C586 1.327 . S
C587 C591 1.429 . S
C588 C571 1.574 . S
C588 H582 0.949 . S
C588 C592 1.368 . S
C589 C570 1.429 . S
C589 C583 1.429 . S
C589 C590 1.523 . S
C590 C571 1.368 . S
C590 C584 1.368 . S
C590 C589 1.523 . S
C591 C575 1.429 . S
C591 C587 1.429 . S
C591 C592 1.523 . S
C592 C576 1.368 . S
C592 C588 1.368 . S
C592 C591 1.523 . S
H593 C568 0.950 1_545 S
H594 C570 0.950 . S
H595 C571 0.949 . S
H596 C573 0.950 . S
H597 C575 0.950 . S
C598 C599 1.349 . S
C598 C600 1.327 . S
C598 H623 0.950 . S
C599 C598 1.349 . S
C599 C615 1.349 . S
C600 C598 1.327 . S
C600 C619 1.429 . S
C600 H624 0.950 . S
C601 C618 1.574 . S
C601 C620 1.368 . S
C601 H625 0.949 . S
H602 C606 0.949 . S
C603 C604 1.349 . S
C603 C605 1.327 . S
C603 H626 0.950 . S
C604 C603 1.349 . S
C604 C616 1.349 . S
C605 C603 1.327 . S
C605 C621 1.429 . S
C605 H627 0.950 . S
C606 H602 0.949 . S
C606 C614 1.574 . S
C606 C622 1.368 . S
H607 C615 0.950 . S
H608 C613 0.950 . S
H609 C614 0.949 . S
H610 C616 0.950 . S
H611 C617 0.950 . S
H612 C618 0.949 . S
C613 H608 0.950 . S
C613 C615 1.327 . S
C613 C619 1.429 . S
C614 C606 1.574 . S
C614 H609 0.949 . S
C614 C620 1.368 . S
C615 C599 1.349 . S
C615 H607 0.950 . S
C615 C613 1.327 . S
C616 C604 1.349 . S
C616 H610 0.950 . S
C616 C617 1.327 . S
C617 H611 0.950 . S
C617 C616 1.327 . S
C617 C621 1.429 . S
C618 C601 1.574 . S
C618 H612 0.949 . S
C618 C622 1.368 . S
C619 C600 1.429 . S
C619 C613 1.429 . S
C619 C620 1.523 . S
C620 C601 1.368 . S
C620 C614 1.368 . S
C620 C619 1.523 . S
C621 C605 1.429 . S
C621 C617 1.429 . S
C621 C622 1.523 . S
C622 C606 1.368 . S
C622 C618 1.368 . S
C622 C621 1.523 . S
H623 C598 0.950 . S
H624 C600 0.950 . S
H625 C601 0.949 . S
H626 C603 0.950 . S
H627 C605 0.950 . S
C628 C629 1.349 . S
C628 C630 1.327 . S
C628 H653 0.950 . S
C629 C628 1.349 . S
C629 C645 1.349 . S
C630 C628 1.327 . S
C630 C649 1.429 . S
C630 H654 0.950 . S
C631 C648 1.574 . S
C631 C650 1.368 . S
C631 H655 0.949 . S
H632 C636 0.949 . S
C633 C634 1.349 . S
C633 C635 1.327 . S
C633 H656 0.950 . S
C634 C633 1.349 . S
C634 C646 1.349 . S
C635 C633 1.327 . S
C635 C651 1.429 . S
C635 H657 0.950 . S
C636 H632 0.949 . S
C636 C644 1.574 . S
C636 C652 1.368 . S
H637 C645 0.950 . S
H638 C643 0.950 . S
H639 C644 0.949 . S
H640 C646 0.950 . S
H641 C647 0.950 . S
H642 C648 0.949 . S
C643 H638 0.950 . S
C643 C645 1.327 . S
C643 C649 1.429 . S
C644 C636 1.574 . S
C644 H639 0.949 . S
C644 C650 1.368 . S
C645 C629 1.349 . S
C645 H637 0.950 . S
C645 C643 1.327 . S
C646 C634 1.349 . S
C646 H640 0.950 . S
C646 C647 1.327 . S
C647 H641 0.950 . S
C647 C646 1.327 . S
C647 C651 1.429 . S
C648 C631 1.574 . S
C648 H642 0.949 . S
C648 C652 1.368 . S
C649 C630 1.429 . S
C649 C643 1.429 . S
C649 C650 1.523 . S
C650 C631 1.368 . S
C650 C644 1.368 . S
C650 C649 1.523 . S
C651 C635 1.429 . S
C651 C647 1.429 . S
C651 C652 1.523 . S
C652 C636 1.368 . S
C652 C648 1.368 . S
C652 C651 1.523 . S
H653 C628 0.950 . S
H654 C630 0.950 . S
H655 C631 0.949 . S
H656 C633 0.950 . S
H657 C635 0.950 . S
C658 C659 1.349 . S
C658 C660 1.327 . S
C658 H683 0.950 . S
C659 C658 1.349 . S
C659 C675 1.349 . S
C660 C658 1.327 . S
C660 C679 1.429 . S
C660 H684 0.950 . S
C661 C678 1.574 . S
C661 C680 1.368 . S
C661 H685 0.949 . S
H662 C666 0.949 . S
C663 C664 1.349 . S
C663 C665 1.327 . S
C663 H686 0.950 . S
C664 C663 1.349 . S
C664 C676 1.349 . S
C665 C663 1.327 . S
C665 C681 1.429 . S
C665 H687 0.950 . S
C666 H662 0.949 . S
C666 C674 1.574 . S
C666 C682 1.368 . S
H667 C675 0.950 . S
H668 C673 0.950 . S
H669 C674 0.949 . S
H670 C676 0.950 . S
H671 C677 0.950 . S
H672 C678 0.949 . S
C673 H668 0.950 . S
C673 C675 1.327 . S
C673 C679 1.429 . S
C674 C666 1.574 . S
C674 H669 0.949 . S
C674 C680 1.368 . S
C675 C659 1.349 . S
C675 H667 0.950 . S
C675 C673 1.327 . S
C676 C664 1.349 . S
C676 H670 0.950 . S
C676 C677 1.327 . S
C677 H671 0.950 . S
C677 C676 1.327 . S
C677 C681 1.429 . S
C678 C661 1.574 . S
C678 H672 0.949 . S
C678 C682 1.368 . S
C679 C660 1.429 . S
C679 C673 1.429 . S
C679 C680 1.523 . S
C680 C661 1.368 . S
C680 C674 1.368 . S
C680 C679 1.523 . S
C681 C665 1.429 . S
C681 C677 1.429 . S
C681 C682 1.523 . S
C682 C666 1.368 . S
C682 C678 1.368 . S
C682 C681 1.523 . S
H683 C658 0.950 . S
H684 C660 0.950 . S
H685 C661 0.949 . S
H686 C663 0.950 . S
H687 C665 0.950 . S
C688 C689 1.349 . S
C688 C690 1.327 . S
C688 H713 0.950 . S
C689 C688 1.349 . S
C689 C705 1.349 . S
C690 C688 1.327 . S
C690 C709 1.429 . S
C690 H714 0.950 . S
C691 C708 1.574 . S
C691 C710 1.368 . S
C691 H715 0.949 . S
H692 C696 0.949 . S
C693 C694 1.349 . S
C693 C695 1.327 . S
C693 H716 0.950 . S
C694 C693 1.349 . S
C694 C706 1.349 . S
C695 C693 1.327 . S
C695 C711 1.429 . S
C695 H717 0.950 . S
C696 H692 0.949 . S
C696 C704 1.574 . S
C696 C712 1.368 . S
H697 C705 0.950 . S
H698 C703 0.950 . S
H699 C704 0.949 . S
H700 C706 0.950 . S
H701 C707 0.950 . S
H702 C708 0.949 . S
C703 H698 0.950 . S
C703 C705 1.327 . S
C703 C709 1.429 . S
C704 C696 1.574 . S
C704 H699 0.949 . S
C704 C710 1.368 . S
C705 C689 1.349 . S
C705 H697 0.950 . S
C705 C703 1.327 . S
C706 C694 1.349 . S
C706 H700 0.950 . S
C706 C707 1.327 . S
C707 H701 0.950 . S
C707 C706 1.327 . S
C707 C711 1.429 . S
C708 C691 1.574 . S
C708 H702 0.949 . S
C708 C712 1.368 . S
C709 C690 1.429 . S
C709 C703 1.429 . S
C709 C710 1.523 . S
C710 C691 1.368 . S
C710 C704 1.368 . S
C710 C709 1.523 . S
C711 C695 1.429 . S
C711 C707 1.429 . S
C711 C712 1.523 . S
C712 C696 1.368 . S
C712 C708 1.368 . S
C712 C711 1.523 . S
H713 C688 0.950 . S
H714 C690 0.950 . S
H715 C691 0.949 . S
H716 C693 0.950 . S
H717 C695 0.950 . S
C718 C719 1.349 . S
C718 C720 1.327 . S
C718 H743 0.950 . S
C719 C718 1.349 . S
C719 C735 1.349 . S
C720 C718 1.327 . S
C720 C739 1.429 . S
C720 H744 0.950 . S
C721 C738 1.574 . S
C721 C740 1.368 . S
C721 H745 0.949 . S
H722 C726 0.949 . S
C723 C724 1.349 . S
C723 C725 1.327 . S
C723 H746 0.950 . S
C724 C723 1.349 . S
C724 C736 1.349 . S
C725 C723 1.327 . S
C725 C741 1.429 . S
C725 H747 0.950 . S
C726 H722 0.949 . S
C726 C734 1.574 . S
C726 C742 1.368 . S
H727 C735 0.950 . S
H728 C733 0.950 . S
H729 C734 0.949 . S
H730 C736 0.950 . S
H731 C737 0.950 . S
H732 C738 0.949 . S
C733 H728 0.950 . S
C733 C735 1.327 . S
C733 C739 1.429 . S
C734 C726 1.574 . S
C734 H729 0.949 . S
C734 C740 1.368 . S
C735 C719 1.349 . S
C735 H727 0.950 . S
C735 C733 1.327 . S
C736 C724 1.349 . S
C736 H730 0.950 . S
C736 C737 1.327 . S
C737 H731 0.950 . S
C737 C736 1.327 . S
C737 C741 1.429 . S
C738 C721 1.574 . S
C738 H732 0.949 . S
C738 C742 1.368 . S
C739 C720 1.429 . S
C739 C733 1.429 . S
C739 C740 1.523 . S
C740 C721 1.368 . S
C740 C734 1.368 . S
C740 C739 1.523 . S
C741 C725 1.429 . S
C741 C737 1.429 . S
C741 C742 1.523 . S
C742 C726 1.368 . S
C742 C738 1.368 . S
C742 C741 1.523 . S
H743 C718 0.950 . S
H744 C720 0.950 . S
H745 C721 0.949 . S
H746 C723 0.950 . S
H747 C725 0.950 . S
C748 C749 1.349 . S
C748 C750 1.327 . S
C748 H773 0.950 . S
C749 C748 1.349 . S
C749 C765 1.349 . S
C750 C748 1.327 . S
C750 C769 1.429 . S
C750 H774 0.950 . S
C751 C768 1.574 . S
C751 C770 1.368 . S
C751 H775 0.949 . S
H752 C756 0.949 . S
C753 C754 1.349 . S
C753 C755 1.327 . S
C753 H776 0.950 . S
C754 C753 1.349 . S
C754 C766 1.349 . S
C755 C753 1.327 . S
C755 C771 1.429 . S
C755 H777 0.950 . S
C756 H752 0.949 . S
C756 C764 1.574 . S
C756 C772 1.368 . S
H757 C765 0.950 . S
H758 C763 0.950 . S
H759 C764 0.949 . S
H760 C766 0.950 . S
H761 C767 0.950 . S
H762 C768 0.949 . S
C763 H758 0.950 . S
C763 C765 1.327 . S
C763 C769 1.429 . S
C764 C756 1.574 . S
C764 H759 0.949 . S
C764 C770 1.368 . S
C765 C749 1.349 . S
C765 H757 0.950 . S
C765 C763 1.327 . S
C766 C754 1.349 . S
C766 H760 0.950 . S
C766 C767 1.327 . S
C767 H761 0.950 . S
C767 C766 1.327 . S
C767 C771 1.429 . S
C768 C751 1.574 . S
C768 H762 0.949 . S
C768 C772 1.368 . S
C769 C750 1.429 . S
C769 C763 1.429 . S
C769 C770 1.523 . S
C770 C751 1.368 . S
C770 C764 1.368 . S
C770 C769 1.523 . S
C771 C755 1.429 . S
C771 C767 1.429 . S
C771 C772 1.523 . S
C772 C756 1.368 . S
C772 C768 1.368 . S
C772 C771 1.523 . S
H773 C748 0.950 . S
H774 C750 0.950 . S
H775 C751 0.949 . S
H776 C753 0.950 . S
H777 C755 0.950 . S
C778 C779 1.349 . S
C778 C780 1.327 . S
C778 H803 0.950 . S
C779 C778 1.349 . S
C779 C795 1.349 . S
C780 C778 1.327 . S
C780 C799 1.429 . S
C780 H804 0.950 . S
C781 C798 1.574 . S
C781 C800 1.368 . S
C781 H805 0.949 . S
H782 C786 0.949 . S
C783 C784 1.349 . S
C783 C785 1.327 . S
C783 H806 0.950 . S
C784 C783 1.349 . S
C784 C796 1.349 . S
C785 C783 1.327 . S
C785 C801 1.429 . S
C785 H807 0.950 . S
C786 H782 0.949 . S
C786 C794 1.574 . S
C786 C802 1.368 . S
H787 C795 0.950 . S
H788 C793 0.950 . S
H789 C794 0.949 . S
H790 C796 0.950 . S
H791 C797 0.950 . S
H792 C798 0.949 . S
C793 H788 0.950 . S
C793 C795 1.327 . S
C793 C799 1.429 . S
C794 C786 1.574 . S
C794 H789 0.949 . S
C794 C800 1.368 . S
C795 C779 1.349 . S
C795 H787 0.950 . S
C795 C793 1.327 . S
C796 C784 1.349 . S
C796 H790 0.950 . S
C796 C797 1.327 . S
C797 H791 0.950 . S
C797 C796 1.327 . S
C797 C801 1.429 . S
C798 C781 1.574 . S
C798 H792 0.949 . S
C798 C802 1.368 . S
C799 C780 1.429 . S
C799 C793 1.429 . S
C799 C800 1.523 . S
C800 C781 1.368 . S
C800 C794 1.368 . S
C800 C799 1.523 . S
C801 C785 1.429 . S
C801 C797 1.429 . S
C801 C802 1.523 . S
C802 C786 1.368 . S
C802 C798 1.368 . S
C802 C801 1.523 . S
H803 C778 0.950 . S
H804 C780 0.950 . S
H805 C781 0.949 . S
H806 C783 0.950 . S
H807 C785 0.950 . S
C808 C809 1.349 . S
C808 C810 1.327 . S
C808 H833 0.950 . S
C809 C808 1.349 . S
C809 C825 1.349 . S
C810 C808 1.327 . S
C810 C829 1.429 . S
C810 H834 0.950 . S
C811 C828 1.574 . S
C811 C830 1.368 . S
C811 H835 0.949 . S
H812 C816 0.949 . S
C813 C814 1.349 . S
C813 C815 1.327 . S
C813 H836 0.950 . S
C814 C813 1.349 . S
C814 C826 1.349 . S
C815 C813 1.327 . S
C815 C831 1.429 . S
C815 H837 0.950 . S
C816 H812 0.949 . S
C816 C824 1.574 . S
C816 C832 1.368 . S
H817 C825 0.950 . S
H818 C823 0.950 . S
H819 C824 0.949 . S
H820 C826 0.950 . S
H821 C827 0.950 . S
H822 C828 0.949 . S
C823 H818 0.950 . S
C823 C825 1.327 . S
C823 C829 1.429 . S
C824 C816 1.574 . S
C824 H819 0.949 . S
C824 C830 1.368 . S
C825 C809 1.349 . S
C825 H817 0.950 . S
C825 C823 1.327 . S
C826 C814 1.349 . S
C826 H820 0.950 . S
C826 C827 1.327 . S
C827 H821 0.950 . S
C827 C826 1.327 . S
C827 C831 1.429 . S
C828 C811 1.574 . S
C828 H822 0.949 . S
C828 C832 1.368 . S
C829 C810 1.429 . S
C829 C823 1.429 . S
C829 C830 1.523 . S
C830 C811 1.368 . S
C830 C824 1.368 . S
C830 C829 1.523 . S
C831 C815 1.429 . S
C831 C827 1.429 . S
C831 C832 1.523 . S
C832 C816 1.368 . S
C832 C828 1.368 . S
C832 C831 1.523 . S
H833 C808 0.950 . S
H834 C810 0.950 . S
H835 C811 0.949 . S
H836 C813 0.950 . S
H837 C815 0.950 . S
C838 C839 1.349 . S
C838 C840 1.327 . S
C838 H863 0.950 . S
C839 C838 1.349 . S
C839 C855 1.349 . S
C840 C838 1.327 . S
C840 C859 1.429 . S
C840 H864 0.950 . S
C841 C858 1.574 . S
C841 C860 1.368 . S
C841 H865 0.949 . S
H842 C846 0.949 . S
C843 C844 1.349 . S
C843 C845 1.327 . S
C843 H866 0.950 . S
C844 C843 1.349 . S
C844 C856 1.349 . S
C845 C843 1.327 . S
C845 C861 1.429 . S
C845 H867 0.950 . S
C846 H842 0.949 . S
C846 C854 1.574 . S
C846 C862 1.368 . S
H847 C855 0.950 . S
H848 C853 0.950 . S
H849 C854 0.949 . S
H850 C856 0.950 . S
H851 C857 0.950 . S
H852 C858 0.949 . S
C853 H848 0.950 . S
C853 C855 1.327 . S
C853 C859 1.429 . S
C854 C846 1.574 . S
C854 H849 0.949 . S
C854 C860 1.368 . S
C855 C839 1.349 . S
C855 H847 0.950 . S
C855 C853 1.327 . S
C856 C844 1.349 . S
C856 H850 0.950 . S
C856 C857 1.327 . S
C857 H851 0.950 . S
C857 C856 1.327 . S
C857 C861 1.429 . S
C858 C841 1.574 . S
C858 H852 0.949 . S
C858 C862 1.368 . S
C859 C840 1.429 . S
C859 C853 1.429 . S
C859 C860 1.523 . S
C860 C841 1.368 . S
C860 C854 1.368 . S
C860 C859 1.523 . S
C861 C845 1.429 . S
C861 C857 1.429 . S
C861 C862 1.523 . S
C862 C846 1.368 . S
C862 C858 1.368 . S
C862 C861 1.523 . S
H863 C838 0.950 . S
H864 C840 0.950 . S
H865 C841 0.949 . S
H866 C843 0.950 . S
H867 C845 0.950 . S
C868 C869 1.349 . S
C868 C870 1.327 . S
C868 H893 0.950 . S
C869 C868 1.349 . S
C869 C885 1.349 . S
C870 C868 1.327 . S
C870 C889 1.429 . S
C870 H894 0.950 . S
C871 C888 1.574 . S
C871 C890 1.368 . S
C871 H895 0.949 . S
H872 C876 0.949 . S
C873 C874 1.349 . S
C873 C875 1.327 . S
C873 H896 0.950 . S
C874 C873 1.349 . S
C874 C886 1.349 . S
C875 C873 1.327 . S
C875 C891 1.429 . S
C875 H897 0.950 . S
C876 H872 0.949 . S
C876 C884 1.574 . S
C876 C892 1.368 . S
H877 C885 0.950 . S
H878 C883 0.950 . S
H879 C884 0.949 . S
H880 C886 0.950 . S
H881 C887 0.950 . S
H882 C888 0.949 . S
C883 H878 0.950 . S
C883 C885 1.327 . S
C883 C889 1.429 . S
C884 C876 1.574 . S
C884 H879 0.949 . S
C884 C890 1.368 . S
C885 C869 1.349 . S
C885 H877 0.950 . S
C885 C883 1.327 . S
C886 C874 1.349 . S
C886 H880 0.950 . S
C886 C887 1.327 . S
C887 H881 0.950 . S
C887 C886 1.327 . S
C887 C891 1.429 . S
C888 C871 1.574 . S
C888 H882 0.949 . S
C888 C892 1.368 . S
C889 C870 1.429 . S
C889 C883 1.429 . S
C889 C890 1.523 . S
C890 C871 1.368 . S
C890 C884 1.368 . S
C890 C889 1.523 . S
C891 C875 1.429 . S
C891 C887 1.429 . S
C891 C892 1.523 . S
C892 C876 1.368 . S
C892 C888 1.368 . S
C892 C891 1.523 . S
H893 C868 0.950 . S
H894 C870 0.950 . S
H895 C871 0.949 . S
H896 C873 0.950 . S
H897 C875 0.950 . S
C898 C899 1.349 . S
C898 C900 1.327 . S
C898 H923 0.950 . S
C899 C898 1.349 . S
C899 C915 1.349 . S
C900 C898 1.327 . S
C900 C919 1.429 . S
C900 H924 0.950 . S
C901 C918 1.574 . S
C901 C920 1.368 . S
C901 H925 0.949 . S
H902 C906 0.949 . S
C903 C904 1.349 . S
C903 C905 1.327 . S
C903 H926 0.950 . S
C904 C903 1.349 . S
C904 C916 1.349 . S
C905 C903 1.327 . S
C905 C921 1.429 . S
C905 H927 0.950 . S
C906 H902 0.949 . S
C906 C914 1.574 . S
C906 C922 1.368 . S
H907 C915 0.950 . S
H908 C913 0.950 . S
H909 C914 0.949 . S
H910 C916 0.950 . S
H911 C917 0.950 . S
H912 C918 0.949 . S
C913 H908 0.950 . S
C913 C915 1.327 . S
C913 C919 1.429 . S
C914 C906 1.574 . S
C914 H909 0.949 . S
C914 C920 1.368 . S
C915 C899 1.349 . S
C915 H907 0.950 . S
C915 C913 1.327 . S
C916 C904 1.349 . S
C916 H910 0.950 . S
C916 C917 1.327 . S
C917 H911 0.950 . S
C917 C916 1.327 . S
C917 C921 1.429 . S
C918 C901 1.574 . S
C918 H912 0.949 . S
C918 C922 1.368 . S
C919 C900 1.429 . S
C919 C913 1.429 . S
C919 C920 1.523 . S
C920 C901 1.368 . S
C920 C914 1.368 . S
C920 C919 1.523 . S
C921 C905 1.429 . S
C921 C917 1.429 . S
C921 C922 1.523 . S
C922 C906 1.368 . S
C922 C918 1.368 . S
C922 C921 1.523 . S
H923 C898 0.950 . S
H924 C900 0.950 . S
H925 C901 0.949 . S
H926 C903 0.950 . S
H927 C905 0.950 . S
C209 C45 1.559 . S
C214 N106 1.569 . S
C239 C30 1.559 . S
C244 N119 1.569 . S
C269 C39 1.559 . S
C274 N132 1.560 . S
C304 N145 1.560 . S
C299 C34 1.559 . S
C329 C97 1.559 . S
C334 N158 1.569 . S
C364 N171 1.560 . S
C359 C82 1.559 . S
C394 N184 1.560 . S
C389 C91 1.559 . S
C424 N197 1.560 . S
C419 C86 1.559 . S
C454 N187 1.539 . S
C449 C26 1.505 . S
C484 N200 1.540 . S
C479 C36 1.506 . S
C514 N157 1.547 . S
C509 C32 1.505 . S
C544 N174 1.541 . S
C539 C42 1.507 . S
C569 C18 1.575 . S
C574 N170 1.614 . S
C604 N183 1.616 . S
C599 C50 1.577 . S
C629 C4 1.577 . S
C634 N196 1.615 . S
C659 C48 1.578 . S
C664 N161 1.629 . S
C694 N135 1.539 . S
C689 C78 1.506 . S
C719 C88 1.506 . S
C724 N148 1.540 . S
C754 N105 1.548 . S
C749 C84 1.506 . S
C784 N118 1.547 . S
C779 C94 1.505 . S
C814 N122 1.629 . S
C809 C70 1.578 . S
C844 N131 1.615 . S
C839 C102 1.577 . S
C869 C56 1.576 . S
C874 N144 1.615 . S
C899 C100 1.577 . S
C904 N109 1.629 . S
