# Generated by pormake.
# Topology pyr, (3,6)-cn, num edge types: 1
# Building blocks:
#     Node 0, Type 0, BuildingBlock: BETDAH_clean_linker_0, # of connection points: 3
#     Node 1, Type 0, BuildingBlock: BETDAH_clean_linker_0, # of connection points: 3
#     Node 2, Type 0, BuildingBlock: BETDAH_clean_linker_0, # of connection points: 3
#     Node 3, Type 0, BuildingBlock: BETDAH_clean_linker_0, # of connection points: 3
#     Node 4, Type 0, BuildingBlock: BETDAH_clean_linker_0, # of connection points: 3
#     Node 5, Type 0, BuildingBlock: BETDAH_clean_linker_0, # of connection points: 3
#     Node 6, Type 0, BuildingBlock: BETDAH_clean_linker_0, # of connection points: 3
#     Node 7, Type 0, BuildingBlock: BETDAH_clean_linker_0, # of connection points: 3
#     Node 8, Type 1, BuildingBlock: GEDQOX_clean_sbu_0, # of connection points: 6
#     Node 9, Type 1, BuildingBlock: GEDQOX_clean_sbu_0, # of connection points: 6
#     Node 10, Type 1, BuildingBlock: GEDQOX_clean_sbu_0, # of connection points: 6
#     Node 11, Type 1, BuildingBlock: GEDQOX_clean_sbu_0, # of connection points: 6
#     Edge 12, Type (0, 1), BuildingBlock: XIVTED_clean_linker_0, # of connection points: 2
#     Edge 13, Type (0, 1), BuildingBlock: XIVTED_clean_linker_0, # of connection points: 2
#     Edge 14, Type (0, 1), BuildingBlock: XIVTED_clean_linker_0, # of connection points: 2
#     Edge 15, Type (0, 1), BuildingBlock: XIVTED_clean_linker_0, # of connection points: 2
#     Edge 16, Type (0, 1), BuildingBlock: XIVTED_clean_linker_0, # of connection points: 2
#     Edge 17, Type (0, 1), BuildingBlock: XIVTED_clean_linker_0, # of connection points: 2
#     Edge 18, Type (0, 1), BuildingBlock: XIVTED_clean_linker_0, # of connection points: 2
#     Edge 19, Type (0, 1), BuildingBlock: XIVTED_clean_linker_0, # of connection points: 2
#     Edge 20, Type (0, 1), BuildingBlock: XIVTED_clean_linker_0, # of connection points: 2
#     Edge 21, Type (0, 1), BuildingBlock: XIVTED_clean_linker_0, # of connection points: 2
#     Edge 22, Type (0, 1), BuildingBlock: XIVTED_clean_linker_0, # of connection points: 2
#     Edge 23, Type (0, 1), BuildingBlock: XIVTED_clean_linker_0, # of connection points: 2
#     Edge 24, Type (0, 1), BuildingBlock: XIVTED_clean_linker_0, # of connection points: 2
#     Edge 25, Type (0, 1), BuildingBlock: XIVTED_clean_linker_0, # of connection points: 2
#     Edge 26, Type (0, 1), BuildingBlock: XIVTED_clean_linker_0, # of connection points: 2
#     Edge 27, Type (0, 1), BuildingBlock: XIVTED_clean_linker_0, # of connection points: 2
#     Edge 28, Type (0, 1), BuildingBlock: XIVTED_clean_linker_0, # of connection points: 2
#     Edge 29, Type (0, 1), BuildingBlock: XIVTED_clean_linker_0, # of connection points: 2
#     Edge 30, Type (0, 1), BuildingBlock: XIVTED_clean_linker_0, # of connection points: 2
#     Edge 31, Type (0, 1), BuildingBlock: XIVTED_clean_linker_0, # of connection points: 2
#     Edge 32, Type (0, 1), BuildingBlock: XIVTED_clean_linker_0, # of connection points: 2
#     Edge 33, Type (0, 1), BuildingBlock: XIVTED_clean_linker_0, # of connection points: 2
#     Edge 34, Type (0, 1), BuildingBlock: XIVTED_clean_linker_0, # of connection points: 2
#     Edge 35, Type (0, 1), BuildingBlock: XIVTED_clean_linker_0, # of connection points: 2
# Relax obj value: 0.196
# Max RMSD: 0.206
# Mean RMSD: 0.150
data_MOF--net-pyr--node1-GEDQOX_clean_sbu_0--node2-BETDAH_clean_linker_0--edge1-XIVTED_clean_linker_0
_symmetry_space_group_name_H-M    P1
_symmetry_Int_Tables_number       1
_symmetry_cell_setting            triclinic
loop_
_symmetry_equiv_pos_as_xyz
'x, y, z'
_cell_length_a     38.699071
_cell_length_b     38.854198
_cell_length_c     36.263715
_cell_angle_alpha  88.557256
_cell_angle_beta   92.051455
_cell_angle_gamma 92.369087
loop_
_atom_site_label
_atom_site_type_symbol
_atom_site_fract_x
_atom_site_fract_y
_atom_site_fract_z
_atom_type_partial_charge
H0 H 0.26545 0.13698 0.23317 0.0
H1 H 0.27496 0.21237 0.14499 0.0
H2 H 0.19233 0.21895 0.22047 0.0
C3 C 0.25603 0.15951 0.21854 0.0
C4 C 0.22602 0.17559 0.23154 0.0
C5 C 0.27419 0.17192 0.1869 0.0
C6 C 0.26149 0.20181 0.16865 0.0
C7 C 0.23238 0.2194 0.18022 0.0
C8 C 0.21477 0.20602 0.21174 0.0
N9 N 0.22357 0.25019 0.15859 0.0
C10 C 0.19738 0.27503 0.15758 0.0
H11 H 0.44765 0.80068 0.81824 0.0
H12 H 0.35422 0.80969 0.87761 0.0
H13 H 0.35487 0.74142 0.7869 0.0
C14 C 0.42076 0.79312 0.82227 0.0
C15 C 0.40384 0.76858 0.79914 0.0
C16 C 0.40312 0.80793 0.85083 0.0
C17 C 0.36831 0.79811 0.85612 0.0
C18 C 0.35077 0.77516 0.83231 0.0
C19 C 0.36854 0.76026 0.80413 0.0
N20 N 0.31491 0.76805 0.83639 0.0
C21 C 0.29201 0.76972 0.80613 0.0
H22 H 0.75603 0.44088 0.96697 0.0
H23 H 0.7447 0.54975 0.94769 0.0
H24 H 0.65519 0.48131 0.94472 0.0
C25 C 0.7397 0.46253 0.96146 0.0
C26 C 0.70361 0.45688 0.95755 0.0
C27 C 0.75493 0.49586 0.95741 0.0
C28 C 0.73355 0.52383 0.95072 0.0
C29 C 0.6978 0.51847 0.94609 0.0
C30 C 0.68289 0.48512 0.94934 0.0
N31 N 0.67732 0.54642 0.93506 0.0
C32 C 0.65947 0.54559 0.90128 0.0
H33 H 0.855 0.85159 0.36285 0.0
H34 H 0.86672 0.90722 0.25935 0.0
H35 H 0.78828 0.82639 0.26964 0.0
C36 C 0.8475 0.85577 0.33404 0.0
C37 C 0.82005 0.83574 0.31855 0.0
C38 C 0.8644 0.88192 0.31317 0.0
C39 C 0.85347 0.88778 0.27619 0.0
C40 C 0.8267 0.86719 0.26016 0.0
C41 C 0.80955 0.84174 0.2817 0.0
N42 N 0.81868 0.87078 0.22185 0.0
C43 C 0.8131 0.84166 0.20067 0.0
H44 H 0.95066 0.84741 0.8285 0.0
H45 H 0.88303 0.85664 0.91977 0.0
H46 H 0.88854 0.93647 0.83607 0.0
C47 C 0.93203 0.86167 0.84268 0.0
C48 C 0.92159 0.89386 0.82684 0.0
C49 C 0.91871 0.84721 0.87626 0.0
C50 C 0.89246 0.86572 0.89338 0.0
C51 C 0.88024 0.89751 0.8784 0.0
C52 C 0.8957 0.91108 0.84567 0.0
N53 N 0.86187 0.92088 0.90094 0.0
C54 C 0.82661 0.92208 0.91136 0.0
H55 H 0.73287 0.22514 0.30238 0.0
H56 H 0.71739 0.3141 0.36717 0.0
H57 H 0.65207 0.29387 0.27115 0.0
C58 C 0.71844 0.24772 0.3076 0.0
C59 C 0.69074 0.25625 0.28349 0.0
C60 C 0.72815 0.26813 0.33805 0.0
C61 C 0.71025 0.29823 0.34377 0.0
C62 C 0.68305 0.3077 0.31923 0.0
C63 C 0.67365 0.28677 0.28923 0.0
N64 N 0.66448 0.338 0.32375 0.0
C65 C 0.66328 0.3557 0.35654 0.0
H66 H 0.29548 0.71922 0.2056 0.0
H67 H 0.26644 0.62342 0.26007 0.0
H68 H 0.35195 0.6858 0.30355 0.0
C69 C 0.29903 0.70091 0.22834 0.0
C70 C 0.32615 0.7063 0.25465 0.0
C71 C 0.27772 0.67093 0.2299 0.0
C72 C 0.28294 0.64662 0.25857 0.0
C73 C 0.30948 0.65172 0.28522 0.0
C74 C 0.33124 0.68159 0.28312 0.0
N75 N 0.31369 0.6261 0.3134 0.0
C76 C 0.34167 0.62575 0.33842 0.0
H77 H 0.24527 0.25474 0.7158 0.0
H78 H 0.25964 0.2836 0.82839 0.0
H79 H 0.21177 0.18495 0.80302 0.0
C80 C 0.24157 0.24884 0.74476 0.0
C81 C 0.22586 0.21709 0.7556 0.0
C82 C 0.25312 0.27316 0.77079 0.0
C83 C 0.25074 0.26477 0.80842 0.0
C84 C 0.2366 0.23249 0.82011 0.0
C85 C 0.22393 0.20903 0.79363 0.0
N86 N 0.23426 0.22333 0.85821 0.0
C87 C 0.24033 0.24726 0.88578 0.0
Nd88 Nd 0.08935 1.00861 0.52354 0.0
Nd89 Nd 0.04506 0.06781 0.52824 0.0
C90 C 0.11787 0.94781 0.52062 0.0
C91 C 0.12841 0.92138 0.54788 0.0
C92 C 0.14427 0.89189 0.53644 0.0
C93 C 0.15732 0.86824 0.56257 0.0
C94 C 0.15466 0.87378 0.60056 0.0
C95 C 0.13776 0.90295 0.61176 0.0
C96 C 0.12485 0.92657 0.58564 0.0
C97 C 0.11904 0.06219 0.56326 0.0
C98 C 0.03487 1.00547 0.59315 0.0
C99 C 1.00839 0.12167 0.5422 0.0
C100 C 0.9867 0.14517 0.52016 0.0
C101 C 0.96689 0.16886 0.53777 0.0
C102 C 0.94139 0.18672 0.51778 0.0
C103 C 0.93514 0.18073 0.48001 0.0
C104 C 0.9564 0.15837 0.46212 0.0
C105 C 0.98201 0.14079 0.48202 0.0
C106 C 1.025 0.02569 0.47097 0.0
C107 C 0.10186 0.07045 0.46183 0.0
O108 O 0.08468 0.95196 0.51594 0.0
O109 O 0.13557 0.97704 0.52235 0.0
O110 O 0.13543 0.04571 0.5392 0.0
O111 O 0.0885 0.05047 0.56555 0.0
O112 O 0.06136 0.99098 0.57806 0.0
O113 O 1.02339 0.03472 0.57839 0.0
O114 O 0.04183 0.12401 0.53737 0.0
O115 O 0.99618 0.08981 0.54373 0.0
O116 O 1.0241 0.05886 0.46919 0.0
O117 O 0.03456 1.01558 0.50283 0.0
O118 O 0.08705 0.08942 0.48659 0.0
O119 O 0.10068 0.0364 0.46677 0.0
H120 H 0.14728 0.88758 0.50734 0.0
H121 H 0.1699 0.84588 0.55306 0.0
H122 H 0.13575 0.90832 0.64075 0.0
H123 H 0.11306 0.94943 0.59499 0.0
H124 H 0.97 0.1723 0.56728 0.0
H125 H 0.92526 0.20364 0.53229 0.0
H126 H 0.9524 0.15358 0.43295 0.0
H127 H 0.99703 0.12256 0.46797 0.0
Nd128 Nd 0.55393 0.02355 0.08108 0.0
Nd129 Nd 0.54906 0.06439 1.02349 0.0
C130 C 0.5595 0.97243 0.13059 0.0
C131 C 0.5357 0.94748 0.14843 0.0
C132 C 0.54672 0.92918 0.18015 0.0
C133 C 0.52432 0.90502 0.19709 0.0
C134 C 0.49053 0.89881 0.18248 0.0
C135 C 0.47953 0.91762 0.15082 0.0
C136 C 0.50191 0.94182 0.134 0.0
C137 C 0.49749 0.06623 0.09186 0.0
C138 C 0.50855 0.99441 1.01049 0.0
C139 C 0.54431 0.11796 0.97688 0.0
C140 C 0.56181 0.1521 0.97415 0.0
C141 C 0.54492 0.17932 0.95621 0.0
C142 C 0.56085 0.21224 0.95466 0.0
C143 C 0.594 0.21833 0.97093 0.0
C144 C 0.61088 0.1909 0.98883 0.0
C145 C 0.59482 0.15808 0.9906 0.0
C146 C 0.60388 1.02014 1.01225 0.0
C147 C 0.59669 0.09148 0.09236 0.0
O148 O 0.5631 0.96882 0.09529 0.0
O149 O 0.55667 1.00447 0.1393 0.0
O150 O 0.52241 0.06001 0.11545 0.0
O151 O 0.50363 0.05134 0.0618 0.0
O152 O 0.52728 0.98585 0.03992 0.0
O153 O 0.50833 0.0267 0.99945 0.0
O154 O 0.52456 0.11287 1.00496 0.0
O155 O 0.56317 0.09173 0.9714 0.0
O156 O 0.57835 0.02603 0.98918 0.0
O157 O 0.59889 0.03586 0.04216 0.0
O158 O 0.57396 0.10115 0.06696 0.0
O159 O 0.59963 0.05853 0.09887 0.0
H160 H 0.5727 0.93351 0.19173 0.0
H161 H 0.53343 0.8913 0.22168 0.0
H162 H 0.45387 0.91312 0.13854 0.0
H163 H 0.49299 0.95587 0.10952 0.0
H164 H 0.51933 0.17514 0.94359 0.0
H165 H 0.54738 0.23286 0.94046 0.0
H166 H 0.63622 0.19498 1.00203 0.0
H167 H 0.60808 0.13743 1.00503 0.0
Nd168 Nd 0.52025 0.54522 0.58381 0.0
Nd169 Nd 0.58446 0.59259 0.5801 0.0
C170 C 0.45744 0.51592 0.58098 0.0
C171 C 0.43269 0.50153 0.60759 0.0
C172 C 0.39713 0.50457 0.60046 0.0
C173 C 0.37327 0.48832 0.62387 0.0
C174 C 0.38465 0.46843 0.65463 0.0
C175 C 0.42043 0.46685 0.66251 0.0
C176 C 0.4442 0.48341 0.63934 0.0
C177 C 0.56689 0.53614 0.64238 0.0
C178 C 0.52088 0.6197 0.62322 0.0
C179 C 0.64584 0.62496 0.58294 0.0
C180 C 0.66992 0.64077 0.55639 0.0
C181 C 0.68095 0.67527 0.56093 0.0
C182 C 0.69938 0.69287 0.53353 0.0
C183 C 0.7075 0.67611 0.50133 0.0
C184 C 0.69817 0.64103 0.49757 0.0
C185 C 0.67917 0.62349 0.52482 0.0
C186 C 0.53629 0.60239 0.52351 0.0
C187 C 0.584 0.51751 0.54053 0.0
O188 O 0.46307 0.54933 0.58073 0.0
O189 O 0.48568 0.499 0.57795 0.0
O190 O 0.54679 0.51153 0.62932 0.0
O191 O 0.5593 0.56418 0.62706 0.0
O192 O 0.50184 0.59753 0.60335 0.0
O193 O 0.55487 0.61799 0.62497 0.0
O194 O 0.64182 0.59131 0.58403 0.0
O195 O 0.61671 0.64051 0.58505 0.0
O196 O 0.55531 0.62734 0.53744 0.0
O197 O 0.54516 0.57404 0.53709 0.0
O198 O 0.60341 0.54146 0.55763 0.0
O199 O 0.54994 0.51745 0.54112 0.0
H200 H 0.38782 0.51882 0.57628 0.0
H201 H 0.34594 0.49069 0.61738 0.0
H202 H 0.43026 0.45149 0.68559 0.0
H203 H 0.47161 0.48105 0.6456 0.0
H204 H 0.67404 0.68903 0.58505 0.0
H205 H 0.70661 0.71986 0.53706 0.0
H206 H 0.70412 0.62772 0.47282 0.0
H207 H 0.6707 0.59692 0.52055 0.0
Nd208 Nd 1.0239 0.55702 0.04974 0.0
Nd209 Nd 0.07701 0.55901 0.99045 0.0
C210 C 0.96985 0.54974 0.09171 0.0
C211 C 0.94609 0.57611 0.10171 0.0
C212 C 0.91482 0.56731 0.11858 0.0
C213 C 0.89148 0.5929 0.12527 0.0
C214 C 0.89907 0.62745 0.11472 0.0
C215 C 0.93061 0.63594 0.09804 0.0
C216 C 0.95382 0.61054 0.09159 0.0
C217 C 0.08048 0.60042 0.06342 0.0
C218 C 1.02318 0.62288 0.98875 0.0
C219 C 0.13347 0.55594 0.95236 0.0
C220 C 0.16319 0.53372 0.95698 0.0
C221 C 0.1722 0.51972 0.99193 0.0
C222 C 0.19383 0.49181 0.99516 0.0
C223 C 0.20669 0.47744 0.96348 0.0
C224 C 0.2 0.49351 0.92888 0.0
C225 C 0.1783 0.52137 0.92567 0.0
C226 C 1.01224 0.53379 0.96958 0.0
C227 C 0.07916 0.49315 0.05311 0.0
O228 O 0.96857 0.5428 0.05654 0.0
O229 O 1.00161 0.55363 0.10526 0.0
O230 O 0.04917 0.60795 0.07082 0.0
O231 O 0.08085 0.57077 0.05043 0.0
O232 O 1.00411 0.60179 1.01014 0.0
O233 O 0.05526 0.61446 0.98145 0.0
O234 O 0.12998 0.57885 0.97778 0.0
O235 O 0.10436 0.53944 0.94333 0.0
O236 O 1.03021 0.55505 0.94891 0.0
O237 O 1.02872 0.52683 0.99906 0.0
O238 O 0.09225 0.50812 1.0229 0.0
O239 O 0.05252 0.50689 0.06888 0.0
H240 H 0.90833 0.54074 0.12613 0.0
H241 H 0.86733 0.58563 0.1381 0.0
H242 H 0.93761 0.66235 0.0903 0.0
H243 H 0.97776 0.61777 0.07829 0.0
H244 H 0.16074 0.52881 1.01651 0.0
H245 H 0.19884 0.48022 1.0222 0.0
H246 H 0.20919 0.48288 0.90388 0.0
H247 H 0.17138 0.53163 0.89846 0.0
H248 H 0.21825 0.10681 0.2567 0.0
H249 H 0.10869 0.14004 0.43907 0.0
H250 H 0.18857 0.20811 0.28562 0.0
H251 H 0.13661 0.03954 0.40597 0.0
H252 H 0.13748 0.16551 0.38453 0.0
H253 H 0.18929 0.08278 0.31102 0.0
C254 C 0.20603 0.12439 0.27435 0.0
C255 C 0.20678 0.16018 0.26551 0.0
C256 C 0.13738 0.13787 0.38909 0.0
C257 C 0.17205 0.13164 0.32959 0.0
C258 C 0.1208 0.12313 0.42056 0.0
C259 C 0.11978 0.08716 0.42803 0.0
C260 C 0.15358 0.11688 0.36408 0.0
C261 C 0.13631 0.06724 0.40214 0.0
C262 C 0.18903 0.11031 0.30569 0.0
C263 C 0.18904 0.18052 0.29017 0.0
N264 N 0.15224 0.08216 0.37195 0.0
N265 N 0.17282 0.16618 0.32059 0.0
H266 H 0.43958 0.86618 0.82886 0.0
H267 H 0.49075 0.92832 0.03214 0.0
H268 H 0.40505 0.81076 0.92617 0.0
H269 H 0.48649 0.9984 0.93801 0.0
H270 H 0.46547 0.88233 0.99344 0.0
H271 H 0.46427 0.91217 0.86812 0.0
C272 C 0.43756 0.86357 0.85852 0.0
C273 C 0.42032 0.83469 0.87436 0.0
C274 C 0.46988 0.90784 0.98135 0.0
C275 C 0.44829 0.88706 0.9193 0.0
C276 C 0.4843 0.93408 1.00339 0.0
C277 C 0.49063 0.96725 0.98827 0.0
C278 C 0.46238 0.91465 0.94377 0.0
C279 C 0.4818 0.97327 0.95084 0.0
C280 C 0.45133 0.88991 0.88084 0.0
C281 C 0.41802 0.83272 0.91291 0.0
N282 N 0.46842 0.94713 0.92978 0.0
N283 N 0.43198 0.85848 0.9341 0.0
H284 H 0.62596 0.49048 0.87072 0.0
H285 H 0.60812 0.58628 0.6732 0.0
H286 H 0.66171 0.5951 0.84832 0.0
H287 H 0.5657 0.48358 0.69456 0.0
H288 H 0.63136 0.58798 0.73646 0.0
H289 H 0.60558 0.48587 0.80593 0.0
C290 C 0.62909 0.51254 0.85206 0.0
C291 C 0.64496 0.54333 0.86441 0.0
C292 C 0.61716 0.56495 0.72739 0.0
C293 C 0.62262 0.53824 0.79082 0.0
C294 C 0.60401 0.56392 0.69121 0.0
C295 C 0.58479 0.53484 0.67884 0.0
C296 C 0.61098 0.5367 0.75149 0.0
C297 C 0.58038 0.5065 0.70314 0.0
C298 C 0.61772 0.50988 0.8152 0.0
C299 C 0.64916 0.57109 0.83957 0.0
N300 N 0.59318 0.50822 0.73852 0.0
N301 N 0.63804 0.5679 0.80385 0.0
H302 H 0.79473 0.77962 0.23044 0.0
H303 H 0.88105 0.68141 0.06901 0.0
H304 H 0.83231 0.82967 0.13149 0.0
H305 H 0.86282 0.63676 0.17709 0.0
H306 H 0.8499 0.73194 0.08539 0.0
H307 H 0.80584 0.72364 0.20493 0.0
C308 C 0.80455 0.7787 0.20293 0.0
C309 C 0.81271 0.80899 0.18287 0.0
C310 C 0.85232 0.71089 0.10535 0.0
C311 C 0.82605 0.7454 0.15386 0.0
C312 C 0.87018 0.6821 0.09609 0.0
C313 C 0.87518 0.65517 0.12204 0.0
C314 C 0.83934 0.7128 0.14083 0.0
C315 C 0.85972 0.65698 0.15631 0.0
C316 C 0.81105 0.74679 0.18845 0.0
C317 C 0.82564 0.80664 0.14758 0.0
N318 N 0.8429 0.68557 0.16491 0.0
N319 N 0.83229 0.7753 0.13426 0.0
H320 H 0.3282 0.13918 0.22627 0.0
H321 H 0.43765 0.08517 0.04972 0.0
H322 H 0.2957 0.16414 0.11429 0.0
H323 H 0.47789 0.08172 0.16187 0.0
H324 H 0.38414 0.10968 0.07178 0.0
H325 H 0.3802 0.11382 0.20295 0.0
C326 C 0.33152 0.13925 0.19676 0.0
C327 C 0.30654 0.15446 0.17272 0.0
C328 C 0.40464 0.10351 0.09164 0.0
C329 C 0.36776 0.12456 0.14506 0.0
C330 C 0.43545 0.08932 0.07894 0.0
C331 C 0.46316 0.08098 0.10363 0.0
C332 C 0.40059 0.10931 0.12968 0.0
C333 C 0.45786 0.08746 0.14132 0.0
C334 C 0.36173 0.12477 0.18333 0.0
C335 C 0.31373 0.15349 0.13455 0.0
N336 N 0.42775 0.1008 0.1529 0.0
N337 N 0.34305 0.13896 0.12221 0.0
H338 H 0.31017 0.77273 0.7351 0.0
H339 H 0.12983 0.85025 0.66698 0.0
H340 H 0.22403 0.78252 0.80555 0.0
H341 H 0.21811 0.84525 0.59814 0.0
H342 H 0.16105 0.81828 0.71561 0.0
H343 H 0.274 0.79169 0.68208 0.0
C344 C 0.28338 0.77834 0.73911 0.0
C345 C 0.26975 0.77611 0.77431 0.0
C346 C 0.17347 0.82387 0.68972 0.0
C347 C 0.22854 0.79826 0.71443 0.0
C348 C 0.1557 0.84224 0.662 0.0
C349 C 0.17149 0.85077 0.62854 0.0
C350 C 0.20737 0.81406 0.68407 0.0
C351 C 0.20481 0.83912 0.62336 0.0
C352 C 0.2628 0.78927 0.709 0.0
C353 C 0.2352 0.78389 0.77857 0.0
N354 N 0.22175 0.82167 0.65096 0.0
N355 N 0.21576 0.79491 0.74896 0.0
H356 H 0.79386 0.5374 0.91144 0.0
H357 H 0.97439 0.48478 1.00641 0.0
H358 H 0.80306 0.46606 1.00415 0.0
H359 H 0.96591 0.56325 0.9207 0.0
H360 H 0.91177 0.47446 1.00243 0.0
H361 H 0.8568 0.54507 0.91186 0.0
C362 C 0.8091 0.52357 0.93211 0.0
C363 C 0.79312 0.50119 0.95797 0.0
C364 C 0.92353 0.49381 0.9843 0.0
C365 C 0.86526 0.50937 0.95809 0.0
C366 C 0.95926 0.49961 0.98648 0.0
C367 C 0.97514 0.52503 0.964 0.0
C368 C 0.9035 0.51355 0.95938 0.0
C369 C 0.95453 0.54341 0.93849 0.0
C370 C 0.84506 0.52776 0.93211 0.0
C371 C 0.81425 0.48334 0.98352 0.0
N372 N 0.91964 0.53745 0.93702 0.0
N373 N 0.84921 0.48786 0.98295 0.0
H374 H 0.75065 0.82582 0.32758 0.0
H375 H 0.76709 0.66366 0.46625 0.0
H376 H 0.84913 0.78475 0.36088 0.0
H377 H 0.68364 0.73374 0.46736 0.0
H378 H 0.79408 0.69985 0.4176 0.0
H379 H 0.72195 0.78354 0.36877 0.0
C380 C 0.76612 0.8076 0.34328 0.0
C381 C 0.80223 0.80882 0.34119 0.0
C382 C 0.76978 0.7071 0.42845 0.0
C383 C 0.76977 0.76057 0.38802 0.0
C384 C 0.75442 0.6865 0.45597 0.0
C385 C 0.72342 0.69611 0.47085 0.0
C386 C 0.75353 0.73696 0.41545 0.0
C387 C 0.70782 0.72583 0.45678 0.0
C388 C 0.74982 0.78368 0.36685 0.0
C389 C 0.82122 0.78481 0.36217 0.0
N390 N 0.72302 0.74522 0.4298 0.0
N391 N 0.80475 0.76161 0.3848 0.0
H392 H 0.20681 0.31055 0.09303 0.0
H393 H 0.06437 0.45569 0.11833 0.0
H394 H 0.1446 0.31153 0.18891 0.0
H395 H 0.13138 0.45422 1.0262 0.0
H396 H 0.09145 0.40349 0.14414 0.0
H397 H 0.17837 0.36207 0.06847 0.0
C398 C 0.187 0.32144 0.10902 0.0
C399 C 0.17833 0.30597 0.14327 0.0
C400 C 0.10031 0.41452 0.11828 0.0
C401 C 0.14488 0.36652 0.11473 0.0
C402 C 0.0847 0.4446 0.10331 0.0
C403 C 0.09526 0.46026 0.06964 0.0
C404 C 0.12702 0.39913 0.09974 0.0
C405 C 0.12205 0.44386 0.05213 0.0
C406 C 0.17067 0.3512 0.09485 0.0
C407 C 0.15235 0.32201 0.1624 0.0
N408 N 0.13666 0.41472 0.06715 0.0
N409 N 0.13674 0.35104 0.14799 0.0
H410 H 0.64264 0.43667 0.98957 0.0
H411 H 0.66093 0.23612 0.95441 0.0
H412 H 0.72794 0.39638 0.93284 0.0
H413 H 0.56542 0.27986 0.98421 0.0
H414 H 0.68824 0.29405 0.95216 0.0
H415 H 0.616 0.37868 0.99315 0.0
C416 C 0.65574 0.4157 0.97773 0.0
C417 C 0.6876 0.42154 0.9608 0.0
C418 C 0.66129 0.29097 0.95914 0.0
C419 C 0.65743 0.35493 0.96537 0.0
C420 C 0.64577 0.25793 0.96062 0.0
C421 C 0.61086 0.25324 0.96943 0.0
C422 C 0.64185 0.31948 0.96688 0.0
C423 C 0.59229 0.2824 0.97689 0.0
C424 C 0.64056 0.38256 0.97994 0.0
C425 C 0.70364 0.39314 0.94663 0.0
N426 N 0.60805 0.31428 0.97556 0.0
N427 N 0.68839 0.36109 0.94925 0.0
H428 H 0.87776 0.95167 0.30606 0.0
H429 H 1.01788 0.95539 0.47252 0.0
H430 H 0.91666 0.85998 0.35979 0.0
H431 H 0.99168 0.04542 0.407 0.0
H432 H 0.98332 0.91953 0.42931 0.0
H433 H 0.92186 0.98622 0.34004 0.0
C434 C 0.89587 0.93876 0.32461 0.0
C435 C 0.89318 0.90293 0.33049 0.0
C436 C 0.98538 0.9471 0.42417 0.0
C437 C 0.94336 0.94232 0.36988 0.0
C438 C 1.00508 0.96752 0.44884 0.0
C439 C 1.00724 1.00336 0.44346 0.0
C440 C 0.96755 0.96273 0.39416 0.0
C441 C 0.99039 1.01785 0.41227 0.0
C442 C 0.92094 0.9585 0.34415 0.0
C443 C 0.91722 0.88762 0.35507 0.0
N444 N 0.97093 0.99752 0.38898 0.0
N445 N 0.94105 0.90741 0.37412 0.0
H446 H 0.47075 0.74715 0.80361 0.0
H447 H 0.45266 0.63659 0.62128 0.0
H448 H 0.3807 0.74871 0.72976 0.0
H449 H 0.5506 0.65933 0.67804 0.0
H450 H 0.42509 0.67588 0.66188 0.0
H451 H 0.50009 0.71399 0.75876 0.0
C452 C 0.45723 0.74098 0.77781 0.0
C453 C 0.423 0.7507 0.77073 0.0
C454 C 0.45266 0.67243 0.66526 0.0
C455 C 0.45635 0.71184 0.71949 0.0
C456 C 0.4684 0.64993 0.64216 0.0
C457 C 0.50399 0.64458 0.6463 0.0
C458 C 0.47255 0.68938 0.69301 0.0
C459 C 0.52309 0.66266 0.67378 0.0
C460 C 0.47398 0.72179 0.75228 0.0
C461 C 0.40677 0.74125 0.73692 0.0
N462 N 0.5071 0.68402 0.69625 0.0
N463 N 0.42346 0.72214 0.71276 0.0
H464 H 0.98695 0.8832 0.79739 0.0
H465 H 0.97492 0.02304 0.62771 0.0
H466 H 0.89673 0.9428 0.77413 0.0
H467 H 0.05539 0.94981 0.63861 0.0
H468 H 0.94793 0.99654 0.68255 0.0
H469 H 1.01312 0.90869 0.74216 0.0
C470 C 0.97209 0.90128 0.78094 0.0
C471 C 0.93871 0.91001 0.79178 0.0
C472 C 0.97149 0.98614 0.67309 0.0
C473 C 0.97027 0.94093 0.72685 0.0
C474 C 0.98715 1.00144 0.64147 0.0
C475 C 1.01791 0.98904 0.6276 0.0
C476 C 0.98645 0.958 0.69219 0.0
C477 C 1.03186 0.96066 0.64753 0.0
C478 C 0.98756 0.91624 0.74904 0.0
C479 C 0.92239 0.93488 0.76838 0.0
N480 N 1.01632 0.94647 0.67837 0.0
N481 N 0.93813 0.94918 0.73771 0.0
H482 H 0.68775 0.18565 0.28599 0.0
H483 H 0.59663 0.16216 0.08682 0.0
H484 H 0.66651 0.27203 0.21257 0.0
H485 H 0.63824 0.07888 0.15329 0.0
H486 H 0.62173 0.20322 0.1316 0.0
H487 H 0.66896 0.1466 0.2373 0.0
C488 C 0.67952 0.19652 0.25949 0.0
C489 C 0.67909 0.23238 0.25346 0.0
C490 C 0.6256 0.17598 0.13616 0.0
C491 C 0.6566 0.18735 0.1974 0.0
C492 C 0.61133 0.15252 0.1106 0.0
C493 C 0.61514 0.11697 0.11644 0.0
C494 C 0.64353 0.16376 0.16791 0.0
C495 C 0.63452 0.10599 0.14767 0.0
C496 C 0.66857 0.17409 0.23166 0.0
C497 C 0.66706 0.24466 0.2187 0.0
N498 N 0.64768 0.12924 0.17233 0.0
N499 N 0.65621 0.22219 0.19202 0.0
H500 H 0.38048 0.6785 0.36767 0.0
H501 H 0.49609 0.55126 0.49244 0.0
H502 H 0.36787 0.56784 0.3675 0.0
H503 H 0.51317 0.66171 0.49049 0.0
H504 H 0.44916 0.55719 0.44637 0.0
H505 H 0.42936 0.67347 0.41238 0.0
C506 C 0.38818 0.65318 0.37712 0.0
C507 C 0.37051 0.62349 0.36428 0.0
C508 C 0.46317 0.58018 0.45586 0.0
C509 C 0.4258 0.61743 0.41502 0.0
C510 C 0.48999 0.57679 0.48215 0.0
C511 C 0.50849 0.60606 0.49512 0.0
C512 C 0.45468 0.61312 0.4425 0.0
C513 C 0.49949 0.63852 0.48105 0.0
C514 C 0.41596 0.65029 0.40254 0.0
C515 C 0.38108 0.59125 0.37704 0.0
N516 N 0.47311 0.64122 0.45546 0.0
N517 N 0.40807 0.58904 0.40181 0.0
H518 H 0.29309 0.29478 0.88668 0.0
H519 H 0.18485 0.42071 1.00362 0.0
H520 H 0.19704 0.26582 0.93776 0.0
H521 H 0.26239 0.4553 0.92689 0.0
H522 H 0.20129 0.36148 0.99591 0.0
H523 H 0.29351 0.35057 0.91699 0.0
C524 C 0.27257 0.29995 0.90509 0.0
C525 C 0.24484 0.27618 0.90974 0.0
C526 C 0.21517 0.38209 0.98132 0.0
C527 C 0.24497 0.33947 0.94407 0.0
C528 C 0.20604 0.41601 0.98595 0.0
C529 C 0.22195 0.443 0.96541 0.0
C530 C 0.24038 0.3751 0.95598 0.0
C531 C 0.249 0.43518 0.94267 0.0
C532 C 0.27275 0.33172 0.92223 0.0
C533 C 0.21881 0.28376 0.93363 0.0
N534 N 0.25705 0.40187 0.93815 0.0
N535 N 0.21927 0.31502 0.94967 0.0
H536 H 0.76142 0.92665 0.87695 0.0
H537 H 0.66878 1.01227 0.04987 0.0
H538 H 0.81473 0.94459 0.98119 0.0
H539 H 0.61678 0.99141 0.94545 0.0
H540 H 0.72162 0.9875 0.0266 0.0
H541 H 0.70859 0.94928 0.90205 0.0
C542 C 0.76209 0.93491 0.90527 0.0
C543 C 0.79308 0.93296 0.92684 0.0
C544 C 0.69865 0.98826 1.00871 0.0
C545 C 0.73157 0.96011 0.95629 0.0
C546 C 0.66818 1.00251 1.02215 0.0
C547 C 0.63748 1.00432 0.99994 0.0
C548 C 0.69914 0.97541 0.97247 0.0
C549 C 0.63928 0.99094 0.96403 0.0
C550 C 0.73169 0.94813 0.9197 0.0
C551 C 0.79172 0.94495 0.96333 0.0
N552 N 0.66899 0.9774 0.95172 0.0
N553 N 0.76198 0.95782 0.97665 0.0
H554 H 0.78064 0.3084 0.37059 0.0
H555 H 0.88757 0.14599 0.43663 0.0
H556 H 0.74128 0.20308 0.36373 0.0
H557 H 0.91252 0.24713 0.47888 0.0
H558 H 0.83622 0.16821 0.40506 0.0
H559 H 0.83069 0.28831 0.4075 0.0
C560 C 0.78228 0.28116 0.37715 0.0
C561 C 0.75695 0.25734 0.3635 0.0
C562 C 0.85285 0.18563 0.42124 0.0
C563 C 0.81427 0.23427 0.40501 0.0
C564 C 0.88237 0.17302 0.43897 0.0
C565 C 0.90448 0.19483 0.46013 0.0
C566 C 0.84538 0.22048 0.42429 0.0
C567 C 0.89607 0.22949 0.46282 0.0
C568 C 0.81091 0.26973 0.39804 0.0
C569 C 0.76056 0.22232 0.37275 0.0
N570 N 0.86724 0.24137 0.44485 0.0
N571 N 0.78878 0.21187 0.39255 0.0
H572 H 0.2693 0.61379 0.18846 0.0
H573 H 0.08477 0.65865 0.10477 0.0
H574 H 0.22597 0.71246 0.20496 0.0
H575 H 0.14672 0.58032 0.06121 0.0
H576 H 0.13557 0.68006 0.14108 0.0
H577 H 0.22369 0.60116 0.14191 0.0
C578 C 0.25009 0.63278 0.18215 0.0
C579 C 0.25103 0.66402 0.20065 0.0
C580 C 0.1381 0.65854 0.12311 0.0
C581 C 0.1988 0.64985 0.1476 0.0
C582 C 0.10919 0.64636 0.10242 0.0
C583 C 0.11154 0.6174 0.08048 0.0
C584 C 0.16924 0.6413 0.12203 0.0
C585 C 0.14373 0.60247 0.07817 0.0
C586 C 0.22425 0.62573 0.15543 0.0
C587 C 0.22593 0.68805 0.19122 0.0
N588 N 0.1712 0.61427 0.09914 0.0
N589 N 0.20046 0.68028 0.1656 0.0
H590 H 0.22926 0.31406 0.71374 0.0
H591 H 0.38688 0.45291 0.7293 0.0
H592 H 0.30954 0.31026 0.7994 0.0
H593 H 0.32571 0.43379 0.62934 0.0
H594 H 0.35071 0.4097 0.76173 0.0
H595 H 0.25653 0.36714 0.68924 0.0
C596 C 0.25262 0.32442 0.72745 0.0
C597 C 0.26757 0.30727 0.75821 0.0
C598 C 0.34504 0.41537 0.73281 0.0
C599 C 0.29855 0.36835 0.73061 0.0
C600 C 0.36572 0.43992 0.7142 0.0
C601 C 0.35975 0.44673 0.6763 0.0
C602 C 0.31802 0.39775 0.71347 0.0
C603 C 0.33131 0.42972 0.65853 0.0
C604 C 0.26802 0.35482 0.71356 0.0
C605 C 0.29719 0.32253 0.77556 0.0
N606 N 0.31173 0.40584 0.67719 0.0
N607 N 0.31193 0.35207 0.76128 0.0
H608 H 0.88735 0.79584 0.92206 0.0
H609 H 0.05339 0.67374 0.94282 0.0
H610 H 0.98498 0.82044 0.87196 0.0
H611 H 0.95767 0.64954 0.99657 0.0
H612 H 1.02853 0.72669 0.91666 0.0
H613 H 0.91185 0.74309 0.94917 0.0
C614 C 0.91391 0.79061 0.91659 0.0
C615 C 0.93349 0.8137 0.89383 0.0
C616 C 1.01281 0.70991 0.93417 0.0
C617 C 0.9623 0.75144 0.92549 0.0
C618 C 1.02714 0.67932 0.94929 0.0
C619 C 1.008 0.65627 0.97233 0.0
C620 C 0.97863 0.71841 0.94165 0.0
C621 C 0.97388 0.6659 0.97915 0.0
C622 C 0.92795 0.75997 0.93216 0.0
C623 C 0.9679 0.80399 0.88825 0.0
N624 N 0.96055 0.69573 0.96408 0.0
N625 N 0.98084 0.77419 0.90368 0.0
H626 H 0.31018 0.77312 0.23842 0.0
H627 H 0.50696 0.83505 0.21029 0.0
H628 H 0.39685 0.70869 0.26189 0.0
H629 H 0.4208 0.90141 0.19293 0.0
H630 H 0.46746 0.78992 0.23405 0.0
H631 H 0.35055 0.82173 0.22605 0.0
C632 C 0.33773 0.76929 0.24116 0.0
C633 C 0.3502 0.73678 0.2509 0.0
C634 C 0.45721 0.81444 0.2253 0.0
C635 C 0.39655 0.79222 0.23678 0.0
C636 C 0.4798 0.84032 0.2119 0.0
C637 C 0.46716 0.87203 0.19933 0.0
C638 C 0.42166 0.82019 0.22599 0.0
C639 C 0.4316 0.87715 0.20165 0.0
C640 C 0.36076 0.79705 0.23423 0.0
C641 C 0.38612 0.73335 0.25463 0.0
N642 N 0.41008 0.85143 0.21447 0.0
N643 N 0.40804 0.76065 0.24722 0.0
H644 H 0.19719 0.23365 0.68702 0.0
H645 H 0.10619 0.06112 0.63631 0.0
H646 H 0.21929 0.1457 0.75838 0.0
H647 H 0.1707 0.11134 0.55486 0.0
H648 H 0.1347 0.09729 0.68399 0.0
H649 H 0.17491 0.19453 0.63972 0.0
C650 C 0.19793 0.20624 0.69285 0.0
C651 C 0.21096 0.19321 0.72697 0.0
C652 C 0.14261 0.10016 0.65568 0.0
C653 C 0.1835 0.14857 0.67313 0.0
C654 C 0.12633 0.07985 0.62855 0.0
C655 C 0.13627 0.0835 0.59181 0.0
C656 C 0.16802 0.12495 0.64561 0.0
C657 C 0.16253 0.10787 0.58301 0.0
C658 C 0.18487 0.18403 0.66576 0.0
C659 C 0.20932 0.15723 0.73294 0.0
N660 N 0.17721 0.12824 0.60973 0.0
N661 N 0.19546 0.13615 0.7064 0.0
H662 H 0.61316 0.3425 0.40478 0.0
H663 H 0.64977 0.51848 0.51348 0.0
H664 H 0.6978 0.41381 0.3801 0.0
H665 H 0.55449 0.45686 0.51673 0.0
H666 H 0.67308 0.47629 0.4725 0.0
H667 H 0.59695 0.3797 0.45436 0.0
C668 C 0.62861 0.36582 0.41033 0.0
C669 C 0.65678 0.37528 0.38869 0.0
C670 C 0.64717 0.47198 0.48245 0.0
C671 C 0.63828 0.41822 0.44475 0.0
C672 C 0.63391 0.49595 0.50592 0.0
C673 C 0.60002 0.49135 0.51829 0.0
C674 C 0.62651 0.44307 0.47172 0.0
C675 C 0.58061 0.46171 0.50757 0.0
C676 C 0.6193 0.38714 0.43842 0.0
C677 C 0.67593 0.40577 0.3965 0.0
N678 N 0.59408 0.43883 0.48492 0.0
N679 N 0.66622 0.42636 0.42386 0.0
loop_
_geom_bond_atom_site_label_1
_geom_bond_atom_site_label_2
_geom_bond_distance
_geom_bond_site_symmetry_2
_ccdc_geom_bond_type
H0 C3 0.929 . S
H1 C6 0.929 . S
H2 C8 0.930 . S
C3 H0 0.929 . S
C3 C4 1.398 . S
C3 C5 1.396 . S
C4 C3 1.398 . S
C4 C8 1.407 . S
C5 C3 1.396 . S
C5 C6 1.394 . S
C6 H1 0.929 . S
C6 C5 1.394 . S
C6 C7 1.382 . S
C7 C6 1.382 . S
C7 C8 1.392 . S
C7 N9 1.420 . S
C8 H2 0.930 . S
C8 C4 1.407 . S
C8 C7 1.392 . S
N9 C7 1.420 . S
N9 C10 1.244 . S
C10 N9 1.244 . S
H11 C14 0.929 . S
H12 C17 0.929 . S
H13 C19 0.930 . S
C14 H11 0.929 . S
C14 C15 1.398 . S
C14 C16 1.396 . S
C15 C14 1.398 . S
C15 C19 1.407 . S
C16 C14 1.396 . S
C16 C17 1.394 . S
C17 H12 0.929 . S
C17 C16 1.394 . S
C17 C18 1.382 . S
C18 C17 1.382 . S
C18 C19 1.392 . S
C18 N20 1.420 . S
C19 H13 0.930 . S
C19 C15 1.407 . S
C19 C18 1.392 . S
N20 C18 1.420 . S
N20 C21 1.244 . S
C21 N20 1.244 . S
H22 C25 0.929 . S
H23 C28 0.929 . S
H24 C30 0.930 . S
C25 H22 0.929 . S
C25 C26 1.398 . S
C25 C27 1.396 . S
C26 C25 1.398 . S
C26 C30 1.407 . S
C27 C25 1.396 . S
C27 C28 1.394 . S
C28 H23 0.929 . S
C28 C27 1.394 . S
C28 C29 1.382 . S
C29 C28 1.382 . S
C29 C30 1.392 . S
C29 N31 1.420 . S
C30 H24 0.930 . S
C30 C26 1.407 . S
C30 C29 1.392 . S
N31 C29 1.420 . S
N31 C32 1.244 . S
C32 N31 1.244 . S
H33 C36 0.929 . S
H34 C39 0.929 . S
H35 C41 0.930 . S
C36 H33 0.929 . S
C36 C37 1.398 . S
C36 C38 1.396 . S
C37 C36 1.398 . S
C37 C41 1.407 . S
C38 C36 1.396 . S
C38 C39 1.394 . S
C39 H34 0.929 . S
C39 C38 1.394 . S
C39 C40 1.382 . S
C40 C39 1.382 . S
C40 C41 1.392 . S
C40 N42 1.420 . S
C41 H35 0.930 . S
C41 C37 1.407 . S
C41 C40 1.392 . S
N42 C40 1.420 . S
N42 C43 1.244 . S
C43 N42 1.244 . S
H44 C47 0.929 . S
H45 C50 0.929 . S
H46 C52 0.930 . S
C47 H44 0.929 . S
C47 C48 1.398 . S
C47 C49 1.396 . S
C48 C47 1.398 . S
C48 C52 1.407 . S
C49 C47 1.396 . S
C49 C50 1.394 . S
C50 H45 0.929 . S
C50 C49 1.394 . S
C50 C51 1.382 . S
C51 C50 1.382 . S
C51 C52 1.392 . S
C51 N53 1.420 . S
C52 H46 0.930 . S
C52 C48 1.407 . S
C52 C51 1.392 . S
N53 C51 1.420 . S
N53 C54 1.244 . S
C54 N53 1.244 . S
H55 C58 0.929 . S
H56 C61 0.929 . S
H57 C63 0.930 . S
C58 H55 0.929 . S
C58 C59 1.398 . S
C58 C60 1.396 . S
C59 C58 1.398 . S
C59 C63 1.407 . S
C60 C58 1.396 . S
C60 C61 1.394 . S
C61 H56 0.929 . S
C61 C60 1.394 . S
C61 C62 1.382 . S
C62 C61 1.382 . S
C62 C63 1.392 . S
C62 N64 1.420 . S
C63 H57 0.930 . S
C63 C59 1.407 . S
C63 C62 1.392 . S
N64 C62 1.420 . S
N64 C65 1.244 . S
C65 N64 1.244 . S
H66 C69 0.929 . S
H67 C72 0.929 . S
H68 C74 0.930 . S
C69 H66 0.929 . S
C69 C70 1.398 . S
C69 C71 1.396 . S
C70 C69 1.398 . S
C70 C74 1.407 . S
C71 C69 1.396 . S
C71 C72 1.394 . S
C72 H67 0.929 . S
C72 C71 1.394 . S
C72 C73 1.382 . S
C73 C72 1.382 . S
C73 C74 1.392 . S
C73 N75 1.420 . S
C74 H68 0.930 . S
C74 C70 1.407 . S
C74 C73 1.392 . S
N75 C73 1.420 . S
N75 C76 1.244 . S
C76 N75 1.244 . S
H77 C80 0.929 . S
H78 C83 0.929 . S
H79 C85 0.930 . S
C80 H77 0.929 . S
C80 C81 1.398 . S
C80 C82 1.396 . S
C81 C80 1.398 . S
C81 C85 1.407 . S
C82 C80 1.396 . S
C82 C83 1.394 . S
C83 H78 0.929 . S
C83 C82 1.394 . S
C83 C84 1.382 . S
C84 C83 1.382 . S
C84 C85 1.392 . S
C84 N86 1.420 . S
C85 H79 0.930 . S
C85 C81 1.407 . S
C85 C84 1.392 . S
N86 C84 1.420 . S
N86 C87 1.244 . S
C87 N86 1.244 . S
Nd88 C90 2.824 1_545 S
Nd88 O108 2.485 1_545 S
Nd88 O109 2.485 1_545 S
Nd88 O110 2.500 . S
Nd88 O111 2.696 . S
Nd88 O112 2.409 1_545 S
Nd88 O117 2.412 1_445 S
Nd88 O119 2.433 . S
Nd89 C99 2.836 . S
Nd89 O111 2.414 1_655 S
Nd89 O113 2.424 . S
Nd89 O114 2.500 . S
Nd89 O115 2.492 . S
Nd89 O116 2.487 1_545 S
Nd89 O117 2.682 1_545 S
Nd89 O118 2.410 . S
C90 Nd88 2.824 1_565 S
C90 C91 1.498 . S
C90 O108 1.258 . S
C90 O109 1.239 . S
C91 C90 1.498 . S
C91 C92 1.366 . S
C91 C96 1.407 . S
C92 C91 1.366 . S
C92 C93 1.392 . S
C92 H120 0.930 . S
C93 C92 1.392 . S
C93 C94 1.398 . S
C93 H121 0.929 . S
C94 C93 1.398 . S
C94 C95 1.352 . S
C95 C94 1.352 . S
C95 C96 1.384 . S
C95 H122 0.930 . S
C96 C91 1.407 . S
C96 C95 1.384 . S
C96 H123 0.929 . S
C97 O110 1.241 . S
C97 O111 1.273 . S
C98 O112 1.251 1_655 S
C98 O113 1.268 1_565 S
C99 Nd89 2.836 . S
C99 C100 1.498 . S
C99 O114 1.258 . S
C99 O115 1.239 . S
C100 C99 1.498 . S
C100 C101 1.366 . S
C100 C105 1.407 . S
C101 C100 1.366 . S
C101 C102 1.392 . S
C101 H124 0.930 . S
C102 C101 1.392 . S
C102 C103 1.398 . S
C102 H125 0.929 . S
C103 C102 1.398 . S
C103 C104 1.352 . S
C104 C103 1.352 . S
C104 C105 1.384 . S
C104 H126 0.930 . S
C105 C100 1.407 . S
C105 C104 1.384 . S
C105 H127 0.929 . S
C106 O116 1.241 . S
C106 O117 1.273 . S
C107 O118 1.251 1_455 S
C107 O119 1.268 . S
O108 Nd88 2.485 1_565 S
O108 C90 1.258 . S
O109 Nd88 2.485 1_565 S
O109 C90 1.239 . S
O110 Nd88 2.500 . S
O110 C97 1.241 . S
O111 Nd88 2.696 . S
O111 Nd89 2.414 1_455 S
O111 C97 1.273 . S
O112 Nd88 2.409 1_565 S
O112 C98 1.251 1_455 S
O113 Nd89 2.424 . S
O113 C98 1.268 1_545 S
O114 Nd89 2.500 . S
O114 C99 1.258 . S
O115 Nd89 2.492 . S
O115 C99 1.239 . S
O116 Nd89 2.487 1_565 S
O116 C106 1.241 . S
O117 Nd88 2.412 1_665 S
O117 Nd89 2.682 1_565 S
O117 C106 1.273 . S
O118 Nd89 2.410 . S
O118 C107 1.251 1_655 S
O119 Nd88 2.433 . S
O119 C107 1.268 . S
H120 C92 0.930 . S
H121 C93 0.929 . S
H122 C95 0.930 . S
H123 C96 0.929 . S
H124 C101 0.930 . S
H125 C102 0.929 . S
H126 C104 0.930 . S
H127 C105 0.929 . S
Nd128 C130 2.836 . S
Nd128 O148 2.500 . S
Nd128 O149 2.492 . S
Nd128 O150 2.487 1_565 S
Nd128 O151 2.682 1_565 S
Nd128 O152 2.410 . S
Nd128 O157 2.414 1_565 S
Nd128 O159 2.424 1_565 S
Nd129 C139 2.836 1_554 S
Nd129 O151 2.414 . S
Nd129 O153 2.424 1_544 S
Nd129 O154 2.500 . S
Nd129 O155 2.492 1_554 S
Nd129 O156 2.487 . S
Nd129 O157 2.682 . S
Nd129 O158 2.410 . S
C130 Nd128 2.836 . S
C130 C131 1.498 . S
C130 O148 1.258 . S
C130 O149 1.239 . S
C131 C130 1.498 . S
C131 C132 1.366 . S
C131 C136 1.407 . S
C132 C131 1.366 . S
C132 C133 1.392 . S
C132 H160 0.930 . S
C133 C132 1.392 . S
C133 C134 1.398 . S
C133 H161 0.929 . S
C134 C133 1.398 . S
C134 C135 1.352 . S
C135 C134 1.352 . S
C135 C136 1.384 . S
C135 H162 0.930 . S
C136 C131 1.407 . S
C136 C135 1.384 . S
C136 H163 0.929 . S
C137 O150 1.241 . S
C137 O151 1.273 . S
C138 O152 1.251 . S
C138 O153 1.268 1_554 S
C139 Nd129 2.836 1_556 S
C139 C140 1.498 . S
C139 O154 1.258 1_556 S
C139 O155 1.239 . S
C140 C139 1.498 . S
C140 C141 1.366 1_556 S
C140 C145 1.407 . S
C141 C140 1.366 1_554 S
C141 C142 1.392 1_554 S
C141 H164 0.930 . S
C142 C141 1.392 1_556 S
C142 C143 1.398 . S
C142 H165 0.929 1_556 S
C143 C142 1.398 . S
C143 C144 1.352 . S
C144 C143 1.352 . S
C144 C145 1.384 . S
C144 H166 0.930 . S
C145 C140 1.407 . S
C145 C144 1.384 . S
C145 H167 0.929 . S
C146 O156 1.241 . S
C146 O157 1.273 . S
C147 O158 1.251 . S
C147 O159 1.268 . S
O148 Nd128 2.500 . S
O148 C130 1.258 . S
O149 Nd128 2.492 . S
O149 C130 1.239 . S
O150 Nd128 2.487 1_545 S
O150 C137 1.241 . S
O151 Nd128 2.682 1_545 S
O151 Nd129 2.414 . S
O151 C137 1.273 . S
O152 Nd128 2.410 . S
O152 C138 1.251 . S
O153 Nd129 2.424 1_566 S
O153 C138 1.268 1_556 S
O154 Nd129 2.500 . S
O154 C139 1.258 1_554 S
O155 Nd129 2.492 1_556 S
O155 C139 1.239 . S
O156 Nd129 2.487 . S
O156 C146 1.241 . S
O157 Nd128 2.414 1_545 S
O157 Nd129 2.682 . S
O157 C146 1.273 . S
O158 Nd129 2.410 . S
O158 C147 1.251 . S
O159 Nd128 2.424 1_545 S
O159 C147 1.268 . S
H160 C132 0.930 . S
H161 C133 0.929 . S
H162 C135 0.930 . S
H163 C136 0.929 . S
H164 C141 0.930 . S
H165 C142 0.929 1_554 S
H166 C144 0.930 . S
H167 C145 0.929 . S
Nd168 C170 2.836 . S
Nd168 O188 2.500 . S
Nd168 O189 2.492 . S
Nd168 O190 2.487 . S
Nd168 O191 2.682 . S
Nd168 O192 2.410 . S
Nd168 O197 2.414 . S
Nd168 O199 2.424 . S
Nd169 C179 2.836 . S
Nd169 O191 2.414 . S
Nd169 O193 2.424 . S
Nd169 O194 2.500 . S
Nd169 O195 2.492 . S
Nd169 O196 2.487 . S
Nd169 O197 2.682 . S
Nd169 O198 2.410 . S
C170 Nd168 2.836 . S
C170 C171 1.498 . S
C170 O188 1.258 . S
C170 O189 1.239 . S
C171 C170 1.498 . S
C171 C172 1.366 . S
C171 C176 1.407 . S
C172 C171 1.366 . S
C172 C173 1.392 . S
C172 H200 0.930 . S
C173 C172 1.392 . S
C173 C174 1.398 . S
C173 H201 0.929 . S
C174 C173 1.398 . S
C174 C175 1.352 . S
C175 C174 1.352 . S
C175 C176 1.384 . S
C175 H202 0.930 . S
C176 C171 1.407 . S
C176 C175 1.384 . S
C176 H203 0.929 . S
C177 O190 1.241 . S
C177 O191 1.273 . S
C178 O192 1.251 . S
C178 O193 1.268 . S
C179 Nd169 2.836 . S
C179 C180 1.498 . S
C179 O194 1.258 . S
C179 O195 1.239 . S
C180 C179 1.498 . S
C180 C181 1.366 . S
C180 C185 1.407 . S
C181 C180 1.366 . S
C181 C182 1.392 . S
C181 H204 0.930 . S
C182 C181 1.392 . S
C182 C183 1.398 . S
C182 H205 0.929 . S
C183 C182 1.398 . S
C183 C184 1.352 . S
C184 C183 1.352 . S
C184 C185 1.384 . S
C184 H206 0.930 . S
C185 C180 1.407 . S
C185 C184 1.384 . S
C185 H207 0.929 . S
C186 O196 1.241 . S
C186 O197 1.273 . S
C187 O198 1.251 . S
C187 O199 1.268 . S
O188 Nd168 2.500 . S
O188 C170 1.258 . S
O189 Nd168 2.492 . S
O189 C170 1.239 . S
O190 Nd168 2.487 . S
O190 C177 1.241 . S
O191 Nd168 2.682 . S
O191 Nd169 2.414 . S
O191 C177 1.273 . S
O192 Nd168 2.410 . S
O192 C178 1.251 . S
O193 Nd169 2.424 . S
O193 C178 1.268 . S
O194 Nd169 2.500 . S
O194 C179 1.258 . S
O195 Nd169 2.492 . S
O195 C179 1.239 . S
O196 Nd169 2.487 . S
O196 C186 1.241 . S
O197 Nd168 2.414 . S
O197 Nd169 2.682 . S
O197 C186 1.273 . S
O198 Nd169 2.410 . S
O198 C187 1.251 . S
O199 Nd168 2.424 . S
O199 C187 1.268 . S
H200 C172 0.930 . S
H201 C173 0.929 . S
H202 C175 0.930 . S
H203 C176 0.929 . S
H204 C181 0.930 . S
H205 C182 0.929 . S
H206 C184 0.930 . S
H207 C185 0.929 . S
Nd208 C210 2.836 1_455 S
Nd208 O228 2.500 1_455 S
Nd208 O229 2.492 . S
Nd208 O230 2.487 . S
Nd208 O231 2.682 . S
Nd208 O232 2.410 . S
Nd208 O237 2.414 1_455 S
Nd208 O239 2.424 . S
Nd209 C219 2.836 . S
Nd209 O231 2.414 1_556 S
Nd209 O233 2.424 . S
Nd209 O234 2.500 . S
Nd209 O235 2.492 . S
Nd209 O236 2.487 1_455 S
Nd209 O237 2.682 1_456 S
Nd209 O238 2.410 . S
C210 Nd208 2.836 1_655 S
C210 C211 1.498 . S
C210 O228 1.258 . S
C210 O229 1.239 1_655 S
C211 C210 1.498 . S
C211 C212 1.366 . S
C211 C216 1.407 . S
C212 C211 1.366 . S
C212 C213 1.392 . S
C212 H240 0.930 . S
C213 C212 1.392 . S
C213 C214 1.398 . S
C213 H241 0.929 . S
C214 C213 1.398 . S
C214 C215 1.352 . S
C215 C214 1.352 . S
C215 C216 1.384 . S
C215 H242 0.930 . S
C216 C211 1.407 . S
C216 C215 1.384 . S
C216 H243 0.929 1_655 S
C217 O230 1.241 . S
C217 O231 1.273 . S
C218 O232 1.251 1_556 S
C218 O233 1.268 . S
C219 Nd209 2.836 . S
C219 C220 1.498 . S
C219 O234 1.258 . S
C219 O235 1.239 . S
C220 C219 1.498 . S
C220 C221 1.366 . S
C220 C225 1.407 . S
C221 C220 1.366 . S
C221 C222 1.392 . S
C221 H244 0.930 . S
C222 C221 1.392 . S
C222 C223 1.398 . S
C222 H245 0.929 . S
C223 C222 1.398 . S
C223 C224 1.352 . S
C224 C223 1.352 . S
C224 C225 1.384 . S
C224 H246 0.930 . S
C225 C220 1.407 . S
C225 C224 1.384 . S
C225 H247 0.929 . S
C226 O236 1.241 . S
C226 O237 1.273 1_556 S
C227 O238 1.251 1_554 S
C227 O239 1.268 . S
O228 Nd208 2.500 1_655 S
O228 C210 1.258 . S
O229 Nd208 2.492 . S
O229 C210 1.239 1_455 S
O230 Nd208 2.487 . S
O230 C217 1.241 . S
O231 Nd208 2.682 . S
O231 Nd209 2.414 1_554 S
O231 C217 1.273 . S
O232 Nd208 2.410 . S
O232 C218 1.251 1_554 S
O233 Nd209 2.424 . S
O233 C218 1.268 . S
O234 Nd209 2.500 . S
O234 C219 1.258 . S
O235 Nd209 2.492 . S
O235 C219 1.239 . S
O236 Nd209 2.487 1_655 S
O236 C226 1.241 . S
O237 Nd208 2.414 1_655 S
O237 Nd209 2.682 1_654 S
O237 C226 1.273 1_554 S
O238 Nd209 2.410 . S
O238 C227 1.251 1_556 S
O239 Nd208 2.424 . S
O239 C227 1.268 . S
H240 C212 0.930 . S
H241 C213 0.929 . S
H242 C215 0.930 . S
H243 C216 0.929 1_455 S
H244 C221 0.930 . S
H245 C222 0.929 . S
H246 C224 0.930 . S
H247 C225 0.929 . S
H248 C254 0.930 . S
H249 C258 0.930 . S
H250 C263 0.929 . S
H251 C261 0.929 . S
H252 C256 0.929 . S
H253 C262 0.929 . S
C254 H248 0.930 . S
C254 C255 1.367 . S
C254 C262 1.378 . S
C255 C254 1.367 . S
C255 C263 1.433 . S
C256 H252 0.929 . S
C256 C258 1.378 . S
C256 C260 1.350 . S
C257 C260 1.463 . S
C257 C262 1.350 . S
C257 N265 1.427 . S
C258 H249 0.930 . S
C258 C256 1.378 . S
C258 C259 1.367 . S
C259 C258 1.367 . S
C259 C261 1.433 . S
C260 C256 1.350 . S
C260 C257 1.463 . S
C260 N264 1.427 . S
C261 H251 0.929 . S
C261 C259 1.433 . S
C261 N264 1.384 . S
C262 H253 0.929 . S
C262 C254 1.378 . S
C262 C257 1.350 . S
C263 H250 0.929 . S
C263 C255 1.433 . S
C263 N265 1.384 . S
N264 C260 1.427 . S
N264 C261 1.384 . S
N265 C257 1.427 . S
N265 C263 1.384 . S
H266 C272 0.930 . S
H267 C276 0.930 . S
H268 C281 0.929 . S
H269 C279 0.929 . S
H270 C274 0.929 . S
H271 C280 0.929 . S
C272 H266 0.930 . S
C272 C273 1.367 . S
C272 C280 1.378 . S
C273 C272 1.367 . S
C273 C281 1.433 . S
C274 H270 0.929 . S
C274 C276 1.378 . S
C274 C278 1.350 . S
C275 C278 1.463 . S
C275 C280 1.350 . S
C275 N283 1.427 . S
C276 H267 0.930 . S
C276 C274 1.378 . S
C276 C277 1.367 . S
C277 C276 1.367 . S
C277 C279 1.433 . S
C278 C274 1.350 . S
C278 C275 1.463 . S
C278 N282 1.427 . S
C279 H269 0.929 . S
C279 C277 1.433 . S
C279 N282 1.384 . S
C280 H271 0.929 . S
C280 C272 1.378 . S
C280 C275 1.350 . S
C281 H268 0.929 . S
C281 C273 1.433 . S
C281 N283 1.384 . S
N282 C278 1.427 . S
N282 C279 1.384 . S
N283 C275 1.427 . S
N283 C281 1.384 . S
H284 C290 0.930 . S
H285 C294 0.930 . S
H286 C299 0.929 . S
H287 C297 0.929 . S
H288 C292 0.929 . S
H289 C298 0.929 . S
C290 H284 0.930 . S
C290 C291 1.367 . S
C290 C298 1.378 . S
C291 C290 1.367 . S
C291 C299 1.433 . S
C292 H288 0.929 . S
C292 C294 1.378 . S
C292 C296 1.350 . S
C293 C296 1.463 . S
C293 C298 1.350 . S
C293 N301 1.427 . S
C294 H285 0.930 . S
C294 C292 1.378 . S
C294 C295 1.367 . S
C295 C294 1.367 . S
C295 C297 1.433 . S
C296 C292 1.350 . S
C296 C293 1.463 . S
C296 N300 1.427 . S
C297 H287 0.929 . S
C297 C295 1.433 . S
C297 N300 1.384 . S
C298 H289 0.929 . S
C298 C290 1.378 . S
C298 C293 1.350 . S
C299 H286 0.929 . S
C299 C291 1.433 . S
C299 N301 1.384 . S
N300 C296 1.427 . S
N300 C297 1.384 . S
N301 C293 1.427 . S
N301 C299 1.384 . S
H302 C308 0.930 . S
H303 C312 0.930 . S
H304 C317 0.929 . S
H305 C315 0.929 . S
H306 C310 0.929 . S
H307 C316 0.929 . S
C308 H302 0.930 . S
C308 C309 1.367 . S
C308 C316 1.378 . S
C309 C308 1.367 . S
C309 C317 1.433 . S
C310 H306 0.929 . S
C310 C312 1.378 . S
C310 C314 1.350 . S
C311 C314 1.463 . S
C311 C316 1.350 . S
C311 N319 1.427 . S
C312 H303 0.930 . S
C312 C310 1.378 . S
C312 C313 1.367 . S
C313 C312 1.367 . S
C313 C315 1.433 . S
C314 C310 1.350 . S
C314 C311 1.463 . S
C314 N318 1.427 . S
C315 H305 0.929 . S
C315 C313 1.433 . S
C315 N318 1.384 . S
C316 H307 0.929 . S
C316 C308 1.378 . S
C316 C311 1.350 . S
C317 H304 0.929 . S
C317 C309 1.433 . S
C317 N319 1.384 . S
N318 C314 1.427 . S
N318 C315 1.384 . S
N319 C311 1.427 . S
N319 C317 1.384 . S
H320 C326 0.930 . S
H321 C330 0.930 . S
H322 C335 0.929 . S
H323 C333 0.929 . S
H324 C328 0.929 . S
H325 C334 0.929 . S
C326 H320 0.930 . S
C326 C327 1.367 . S
C326 C334 1.378 . S
C327 C326 1.367 . S
C327 C335 1.433 . S
C328 H324 0.929 . S
C328 C330 1.378 . S
C328 C332 1.350 . S
C329 C332 1.463 . S
C329 C334 1.350 . S
C329 N337 1.427 . S
C330 H321 0.930 . S
C330 C328 1.378 . S
C330 C331 1.367 . S
C331 C330 1.367 . S
C331 C333 1.433 . S
C332 C328 1.350 . S
C332 C329 1.463 . S
C332 N336 1.427 . S
C333 H323 0.929 . S
C333 C331 1.433 . S
C333 N336 1.384 . S
C334 H325 0.929 . S
C334 C326 1.378 . S
C334 C329 1.350 . S
C335 H322 0.929 . S
C335 C327 1.433 . S
C335 N337 1.384 . S
N336 C332 1.427 . S
N336 C333 1.384 . S
N337 C329 1.427 . S
N337 C335 1.384 . S
H338 C344 0.930 . S
H339 C348 0.930 . S
H340 C353 0.929 . S
H341 C351 0.929 . S
H342 C346 0.929 . S
H343 C352 0.929 . S
C344 H338 0.930 . S
C344 C345 1.367 . S
C344 C352 1.378 . S
C345 C344 1.367 . S
C345 C353 1.433 . S
C346 H342 0.929 . S
C346 C348 1.378 . S
C346 C350 1.350 . S
C347 C350 1.463 . S
C347 C352 1.350 . S
C347 N355 1.427 . S
C348 H339 0.930 . S
C348 C346 1.378 . S
C348 C349 1.367 . S
C349 C348 1.367 . S
C349 C351 1.433 . S
C350 C346 1.350 . S
C350 C347 1.463 . S
C350 N354 1.427 . S
C351 H341 0.929 . S
C351 C349 1.433 . S
C351 N354 1.384 . S
C352 H343 0.929 . S
C352 C344 1.378 . S
C352 C347 1.350 . S
C353 H340 0.929 . S
C353 C345 1.433 . S
C353 N355 1.384 . S
N354 C350 1.427 . S
N354 C351 1.384 . S
N355 C347 1.427 . S
N355 C353 1.384 . S
H356 C362 0.930 . S
H357 C366 0.930 1_554 S
H358 C371 0.929 . S
H359 C369 0.929 . S
H360 C364 0.929 . S
H361 C370 0.929 . S
C362 H356 0.930 . S
C362 C363 1.367 . S
C362 C370 1.378 . S
C363 C362 1.367 . S
C363 C371 1.433 . S
C364 H360 0.929 . S
C364 C366 1.378 . S
C364 C368 1.350 . S
C365 C368 1.463 . S
C365 C370 1.350 . S
C365 N373 1.427 . S
C366 H357 0.930 1_556 S
C366 C364 1.378 . S
C366 C367 1.367 . S
C367 C366 1.367 . S
C367 C369 1.433 . S
C368 C364 1.350 . S
C368 C365 1.463 . S
C368 N372 1.427 . S
C369 H359 0.929 . S
C369 C367 1.433 . S
C369 N372 1.384 . S
C370 H361 0.929 . S
C370 C362 1.378 . S
C370 C365 1.350 . S
C371 H358 0.929 . S
C371 C363 1.433 . S
C371 N373 1.384 . S
N372 C368 1.427 . S
N372 C369 1.384 . S
N373 C365 1.427 . S
N373 C371 1.384 . S
H374 C380 0.930 . S
H375 C384 0.930 . S
H376 C389 0.929 . S
H377 C387 0.929 . S
H378 C382 0.929 . S
H379 C388 0.929 . S
C380 H374 0.930 . S
C380 C381 1.367 . S
C380 C388 1.378 . S
C381 C380 1.367 . S
C381 C389 1.433 . S
C382 H378 0.929 . S
C382 C384 1.378 . S
C382 C386 1.350 . S
C383 C386 1.463 . S
C383 C388 1.350 . S
C383 N391 1.427 . S
C384 H375 0.930 . S
C384 C382 1.378 . S
C384 C385 1.367 . S
C385 C384 1.367 . S
C385 C387 1.433 . S
C386 C382 1.350 . S
C386 C383 1.463 . S
C386 N390 1.427 . S
C387 H377 0.929 . S
C387 C385 1.433 . S
C387 N390 1.384 . S
C388 H379 0.929 . S
C388 C380 1.378 . S
C388 C383 1.350 . S
C389 H376 0.929 . S
C389 C381 1.433 . S
C389 N391 1.384 . S
N390 C386 1.427 . S
N390 C387 1.384 . S
N391 C383 1.427 . S
N391 C389 1.384 . S
H392 C398 0.930 . S
H393 C402 0.930 . S
H394 C407 0.929 . S
H395 C405 0.929 1_556 S
H396 C400 0.929 . S
H397 C406 0.929 . S
C398 H392 0.930 . S
C398 C399 1.367 . S
C398 C406 1.378 . S
C399 C398 1.367 . S
C399 C407 1.433 . S
C400 H396 0.929 . S
C400 C402 1.378 . S
C400 C404 1.350 . S
C401 C404 1.463 . S
C401 C406 1.350 . S
C401 N409 1.427 . S
C402 H393 0.930 . S
C402 C400 1.378 . S
C402 C403 1.367 . S
C403 C402 1.367 . S
C403 C405 1.433 . S
C404 C400 1.350 . S
C404 C401 1.463 . S
C404 N408 1.427 . S
C405 H395 0.929 1_554 S
C405 C403 1.433 . S
C405 N408 1.384 . S
C406 H397 0.929 . S
C406 C398 1.378 . S
C406 C401 1.350 . S
C407 H394 0.929 . S
C407 C399 1.433 . S
C407 N409 1.384 . S
N408 C404 1.427 . S
N408 C405 1.384 . S
N409 C401 1.427 . S
N409 C407 1.384 . S
H410 C416 0.930 . S
H411 C420 0.930 . S
H412 C425 0.929 . S
H413 C423 0.929 . S
H414 C418 0.929 . S
H415 C424 0.929 . S
C416 H410 0.930 . S
C416 C417 1.367 . S
C416 C424 1.378 . S
C417 C416 1.367 . S
C417 C425 1.433 . S
C418 H414 0.929 . S
C418 C420 1.378 . S
C418 C422 1.350 . S
C419 C422 1.463 . S
C419 C424 1.350 . S
C419 N427 1.427 . S
C420 H411 0.930 . S
C420 C418 1.378 . S
C420 C421 1.367 . S
C421 C420 1.367 . S
C421 C423 1.433 . S
C422 C418 1.350 . S
C422 C419 1.463 . S
C422 N426 1.427 . S
C423 H413 0.929 . S
C423 C421 1.433 . S
C423 N426 1.384 . S
C424 H415 0.929 . S
C424 C416 1.378 . S
C424 C419 1.350 . S
C425 H412 0.929 . S
C425 C417 1.433 . S
C425 N427 1.384 . S
N426 C422 1.427 . S
N426 C423 1.384 . S
N427 C419 1.427 . S
N427 C425 1.384 . S
H428 C434 0.930 . S
H429 C438 0.930 . S
H430 C443 0.929 . S
H431 C441 0.929 . S
H432 C436 0.929 . S
H433 C442 0.929 . S
C434 H428 0.930 . S
C434 C435 1.367 . S
C434 C442 1.378 . S
C435 C434 1.367 . S
C435 C443 1.433 . S
C436 H432 0.929 . S
C436 C438 1.378 . S
C436 C440 1.350 . S
C437 C440 1.463 . S
C437 C442 1.350 . S
C437 N445 1.427 . S
C438 H429 0.930 . S
C438 C436 1.378 . S
C438 C439 1.367 . S
C439 C438 1.367 . S
C439 C441 1.433 . S
C440 C436 1.350 . S
C440 C437 1.463 . S
C440 N444 1.427 . S
C441 H431 0.929 . S
C441 C439 1.433 . S
C441 N444 1.384 . S
C442 H433 0.929 . S
C442 C434 1.378 . S
C442 C437 1.350 . S
C443 H430 0.929 . S
C443 C435 1.433 . S
C443 N445 1.384 . S
N444 C440 1.427 . S
N444 C441 1.384 . S
N445 C437 1.427 . S
N445 C443 1.384 . S
H446 C452 0.930 . S
H447 C456 0.930 . S
H448 C461 0.929 . S
H449 C459 0.929 . S
H450 C454 0.929 . S
H451 C460 0.929 . S
C452 H446 0.930 . S
C452 C453 1.367 . S
C452 C460 1.378 . S
C453 C452 1.367 . S
C453 C461 1.433 . S
C454 H450 0.929 . S
C454 C456 1.378 . S
C454 C458 1.350 . S
C455 C458 1.463 . S
C455 C460 1.350 . S
C455 N463 1.427 . S
C456 H447 0.930 . S
C456 C454 1.378 . S
C456 C457 1.367 . S
C457 C456 1.367 . S
C457 C459 1.433 . S
C458 C454 1.350 . S
C458 C455 1.463 . S
C458 N462 1.427 . S
C459 H449 0.929 . S
C459 C457 1.433 . S
C459 N462 1.384 . S
C460 H451 0.929 . S
C460 C452 1.378 . S
C460 C455 1.350 . S
C461 H448 0.929 . S
C461 C453 1.433 . S
C461 N463 1.384 . S
N462 C458 1.427 . S
N462 C459 1.384 . S
N463 C455 1.427 . S
N463 C461 1.384 . S
H464 C470 0.930 . S
H465 C474 0.930 . S
H466 C479 0.929 . S
H467 C477 0.929 . S
H468 C472 0.929 . S
H469 C478 0.929 . S
C470 H464 0.930 . S
C470 C471 1.367 . S
C470 C478 1.378 . S
C471 C470 1.367 . S
C471 C479 1.433 . S
C472 H468 0.929 . S
C472 C474 1.378 . S
C472 C476 1.350 . S
C473 C476 1.463 . S
C473 C478 1.350 . S
C473 N481 1.427 . S
C474 H465 0.930 . S
C474 C472 1.378 . S
C474 C475 1.367 . S
C475 C474 1.367 . S
C475 C477 1.433 . S
C476 C472 1.350 . S
C476 C473 1.463 . S
C476 N480 1.427 . S
C477 H467 0.929 . S
C477 C475 1.433 . S
C477 N480 1.384 . S
C478 H469 0.929 . S
C478 C470 1.378 . S
C478 C473 1.350 . S
C479 H466 0.929 . S
C479 C471 1.433 . S
C479 N481 1.384 . S
N480 C476 1.427 . S
N480 C477 1.384 . S
N481 C473 1.427 . S
N481 C479 1.384 . S
H482 C488 0.930 . S
H483 C492 0.930 . S
H484 C497 0.929 . S
H485 C495 0.929 . S
H486 C490 0.929 . S
H487 C496 0.929 . S
C488 H482 0.930 . S
C488 C489 1.367 . S
C488 C496 1.378 . S
C489 C488 1.367 . S
C489 C497 1.433 . S
C490 H486 0.929 . S
C490 C492 1.378 . S
C490 C494 1.350 . S
C491 C494 1.463 . S
C491 C496 1.350 . S
C491 N499 1.427 . S
C492 H483 0.930 . S
C492 C490 1.378 . S
C492 C493 1.367 . S
C493 C492 1.367 . S
C493 C495 1.433 . S
C494 C490 1.350 . S
C494 C491 1.463 . S
C494 N498 1.427 . S
C495 H485 0.929 . S
C495 C493 1.433 . S
C495 N498 1.384 . S
C496 H487 0.929 . S
C496 C488 1.378 . S
C496 C491 1.350 . S
C497 H484 0.929 . S
C497 C489 1.433 . S
C497 N499 1.384 . S
N498 C494 1.427 . S
N498 C495 1.384 . S
N499 C491 1.427 . S
N499 C497 1.384 . S
H500 C506 0.930 . S
H501 C510 0.930 . S
H502 C515 0.929 . S
H503 C513 0.929 . S
H504 C508 0.929 . S
H505 C514 0.929 . S
C506 H500 0.930 . S
C506 C507 1.367 . S
C506 C514 1.378 . S
C507 C506 1.367 . S
C507 C515 1.433 . S
C508 H504 0.929 . S
C508 C510 1.378 . S
C508 C512 1.350 . S
C509 C512 1.463 . S
C509 C514 1.350 . S
C509 N517 1.427 . S
C510 H501 0.930 . S
C510 C508 1.378 . S
C510 C511 1.367 . S
C511 C510 1.367 . S
C511 C513 1.433 . S
C512 C508 1.350 . S
C512 C509 1.463 . S
C512 N516 1.427 . S
C513 H503 0.929 . S
C513 C511 1.433 . S
C513 N516 1.384 . S
C514 H505 0.929 . S
C514 C506 1.378 . S
C514 C509 1.350 . S
C515 H502 0.929 . S
C515 C507 1.433 . S
C515 N517 1.384 . S
N516 C512 1.427 . S
N516 C513 1.384 . S
N517 C509 1.427 . S
N517 C515 1.384 . S
H518 C524 0.930 . S
H519 C528 0.930 . S
H520 C533 0.929 . S
H521 C531 0.929 . S
H522 C526 0.929 . S
H523 C532 0.929 . S
C524 H518 0.930 . S
C524 C525 1.367 . S
C524 C532 1.378 . S
C525 C524 1.367 . S
C525 C533 1.433 . S
C526 H522 0.929 . S
C526 C528 1.378 . S
C526 C530 1.350 . S
C527 C530 1.463 . S
C527 C532 1.350 . S
C527 N535 1.427 . S
C528 H519 0.930 . S
C528 C526 1.378 . S
C528 C529 1.367 . S
C529 C528 1.367 . S
C529 C531 1.433 . S
C530 C526 1.350 . S
C530 C527 1.463 . S
C530 N534 1.427 . S
C531 H521 0.929 . S
C531 C529 1.433 . S
C531 N534 1.384 . S
C532 H523 0.929 . S
C532 C524 1.378 . S
C532 C527 1.350 . S
C533 H520 0.929 . S
C533 C525 1.433 . S
C533 N535 1.384 . S
N534 C530 1.427 . S
N534 C531 1.384 . S
N535 C527 1.427 . S
N535 C533 1.384 . S
H536 C542 0.930 . S
H537 C546 0.930 . S
H538 C551 0.929 1_554 S
H539 C549 0.929 . S
H540 C544 0.929 . S
H541 C550 0.929 . S
C542 H536 0.930 . S
C542 C543 1.367 . S
C542 C550 1.378 . S
C543 C542 1.367 . S
C543 C551 1.433 . S
C544 H540 0.929 . S
C544 C546 1.378 . S
C544 C548 1.350 1_554 S
C545 C548 1.463 . S
C545 C550 1.350 . S
C545 N553 1.427 . S
C546 H537 0.930 . S
C546 C544 1.378 . S
C546 C547 1.367 . S
C547 C546 1.367 . S
C547 C549 1.433 1_554 S
C548 C544 1.350 1_556 S
C548 C545 1.463 . S
C548 N552 1.427 . S
C549 H539 0.929 . S
C549 C547 1.433 1_556 S
C549 N552 1.384 . S
C550 H541 0.929 . S
C550 C542 1.378 . S
C550 C545 1.350 . S
C551 H538 0.929 1_556 S
C551 C543 1.433 . S
C551 N553 1.384 . S
N552 C548 1.427 . S
N552 C549 1.384 . S
N553 C545 1.427 . S
N553 C551 1.384 . S
H554 C560 0.930 . S
H555 C564 0.930 . S
H556 C569 0.929 . S
H557 C567 0.929 . S
H558 C562 0.929 . S
H559 C568 0.929 . S
C560 H554 0.930 . S
C560 C561 1.367 . S
C560 C568 1.378 . S
C561 C560 1.367 . S
C561 C569 1.433 . S
C562 H558 0.929 . S
C562 C564 1.378 . S
C562 C566 1.350 . S
C563 C566 1.463 . S
C563 C568 1.350 . S
C563 N571 1.427 . S
C564 H555 0.930 . S
C564 C562 1.378 . S
C564 C565 1.367 . S
C565 C564 1.367 . S
C565 C567 1.433 . S
C566 C562 1.350 . S
C566 C563 1.463 . S
C566 N570 1.427 . S
C567 H557 0.929 . S
C567 C565 1.433 . S
C567 N570 1.384 . S
C568 H559 0.929 . S
C568 C560 1.378 . S
C568 C563 1.350 . S
C569 H556 0.929 . S
C569 C561 1.433 . S
C569 N571 1.384 . S
N570 C566 1.427 . S
N570 C567 1.384 . S
N571 C563 1.427 . S
N571 C569 1.384 . S
H572 C578 0.930 . S
H573 C582 0.930 . S
H574 C587 0.929 . S
H575 C585 0.929 . S
H576 C580 0.929 . S
H577 C586 0.929 . S
C578 H572 0.930 . S
C578 C579 1.367 . S
C578 C586 1.378 . S
C579 C578 1.367 . S
C579 C587 1.433 . S
C580 H576 0.929 . S
C580 C582 1.378 . S
C580 C584 1.350 . S
C581 C584 1.463 . S
C581 C586 1.350 . S
C581 N589 1.427 . S
C582 H573 0.930 . S
C582 C580 1.378 . S
C582 C583 1.367 . S
C583 C582 1.367 . S
C583 C585 1.433 . S
C584 C580 1.350 . S
C584 C581 1.463 . S
C584 N588 1.427 . S
C585 H575 0.929 . S
C585 C583 1.433 . S
C585 N588 1.384 . S
C586 H577 0.929 . S
C586 C578 1.378 . S
C586 C581 1.350 . S
C587 H574 0.929 . S
C587 C579 1.433 . S
C587 N589 1.384 . S
N588 C584 1.427 . S
N588 C585 1.384 . S
N589 C581 1.427 . S
N589 C587 1.384 . S
H590 C596 0.930 . S
H591 C600 0.930 . S
H592 C605 0.929 . S
H593 C603 0.929 . S
H594 C598 0.929 . S
H595 C604 0.929 . S
C596 H590 0.930 . S
C596 C597 1.367 . S
C596 C604 1.378 . S
C597 C596 1.367 . S
C597 C605 1.433 . S
C598 H594 0.929 . S
C598 C600 1.378 . S
C598 C602 1.350 . S
C599 C602 1.463 . S
C599 C604 1.350 . S
C599 N607 1.427 . S
C600 H591 0.930 . S
C600 C598 1.378 . S
C600 C601 1.367 . S
C601 C600 1.367 . S
C601 C603 1.433 . S
C602 C598 1.350 . S
C602 C599 1.463 . S
C602 N606 1.427 . S
C603 H593 0.929 . S
C603 C601 1.433 . S
C603 N606 1.384 . S
C604 H595 0.929 . S
C604 C596 1.378 . S
C604 C599 1.350 . S
C605 H592 0.929 . S
C605 C597 1.433 . S
C605 N607 1.384 . S
N606 C602 1.427 . S
N606 C603 1.384 . S
N607 C599 1.427 . S
N607 C605 1.384 . S
H608 C614 0.930 . S
H609 C618 0.930 1_455 S
H610 C623 0.929 . S
H611 C621 0.936 . S
H612 C616 0.929 . S
H613 C622 0.929 . S
C614 H608 0.930 . S
C614 C615 1.367 . S
C614 C622 1.378 . S
C615 C614 1.367 . S
C615 C623 1.433 . S
C616 H612 0.929 . S
C616 C618 1.378 . S
C616 C620 1.350 . S
C617 C620 1.463 . S
C617 C622 1.350 . S
C617 N625 1.427 . S
C618 H609 0.930 1_655 S
C618 C616 1.378 . S
C618 C619 1.367 . S
C619 C618 1.367 . S
C619 C621 1.428 1_556 S
C620 C616 1.350 . S
C620 C617 1.463 . S
C620 N624 1.427 . S
C621 H611 0.936 . S
C621 C619 1.428 1_554 S
C621 N624 1.381 1_554 S
C622 H613 0.929 . S
C622 C614 1.378 . S
C622 C617 1.350 . S
C623 H610 0.929 . S
C623 C615 1.433 . S
C623 N625 1.384 . S
N624 C620 1.427 . S
N624 C621 1.381 1_556 S
N625 C617 1.427 . S
N625 C623 1.384 . S
H626 C632 0.930 . S
H627 C636 0.930 . S
H628 C641 0.929 . S
H629 C639 0.929 . S
H630 C634 0.929 . S
H631 C640 0.929 . S
C632 H626 0.930 . S
C632 C633 1.367 . S
C632 C640 1.378 . S
C633 C632 1.367 . S
C633 C641 1.433 . S
C634 H630 0.929 . S
C634 C636 1.378 . S
C634 C638 1.350 . S
C635 C638 1.463 . S
C635 C640 1.350 . S
C635 N643 1.427 . S
C636 H627 0.930 . S
C636 C634 1.378 . S
C636 C637 1.367 . S
C637 C636 1.367 . S
C637 C639 1.433 . S
C638 C634 1.350 . S
C638 C635 1.463 . S
C638 N642 1.427 . S
C639 H629 0.929 . S
C639 C637 1.433 . S
C639 N642 1.384 . S
C640 H631 0.929 . S
C640 C632 1.378 . S
C640 C635 1.350 . S
C641 H628 0.929 . S
C641 C633 1.433 . S
C641 N643 1.384 . S
N642 C638 1.427 . S
N642 C639 1.384 . S
N643 C635 1.427 . S
N643 C641 1.384 . S
H644 C650 0.930 . S
H645 C654 0.930 . S
H646 C659 0.929 . S
H647 C657 0.929 . S
H648 C652 0.929 . S
H649 C658 0.929 . S
C650 H644 0.930 . S
C650 C651 1.367 . S
C650 C658 1.378 . S
C651 C650 1.367 . S
C651 C659 1.433 . S
C652 H648 0.929 . S
C652 C654 1.378 . S
C652 C656 1.350 . S
C653 C656 1.463 . S
C653 C658 1.350 . S
C653 N661 1.427 . S
C654 H645 0.930 . S
C654 C652 1.378 . S
C654 C655 1.367 . S
C655 C654 1.367 . S
C655 C657 1.433 . S
C656 C652 1.350 . S
C656 C653 1.463 . S
C656 N660 1.427 . S
C657 H647 0.929 . S
C657 C655 1.433 . S
C657 N660 1.384 . S
C658 H649 0.929 . S
C658 C650 1.378 . S
C658 C653 1.350 . S
C659 H646 0.929 . S
C659 C651 1.433 . S
C659 N661 1.384 . S
N660 C656 1.427 . S
N660 C657 1.384 . S
N661 C653 1.427 . S
N661 C659 1.384 . S
H662 C668 0.930 . S
H663 C672 0.930 . S
H664 C677 0.929 . S
H665 C675 0.929 . S
H666 C670 0.929 . S
H667 C676 0.929 . S
C668 H662 0.930 . S
C668 C669 1.367 . S
C668 C676 1.378 . S
C669 C668 1.367 . S
C669 C677 1.433 . S
C670 H666 0.929 . S
C670 C672 1.378 . S
C670 C674 1.350 . S
C671 C674 1.463 . S
C671 C676 1.350 . S
C671 N679 1.427 . S
C672 H663 0.930 . S
C672 C670 1.378 . S
C672 C673 1.367 . S
C673 C672 1.367 . S
C673 C675 1.433 . S
C674 C670 1.350 . S
C674 C671 1.463 . S
C674 N678 1.427 . S
C675 H665 0.929 . S
C675 C673 1.433 . S
C675 N678 1.384 . S
C676 H667 0.929 . S
C676 C668 1.378 . S
C676 C671 1.350 . S
C677 H664 0.929 . S
C677 C669 1.433 . S
C677 N679 1.384 . S
N678 C674 1.427 . S
N678 C675 1.384 . S
N679 C671 1.427 . S
N679 C677 1.384 . S
C255 C4 3.081 . S
C259 C107 3.045 . S
C273 C16 2.415 . S
C277 C138 2.472 1_556 S
C295 C177 0.886 . S
C291 C32 0.918 . S
C309 C43 0.427 . S
C313 C214 0.467 . S
C331 C137 3.276 . S
C327 C5 3.345 . S
C349 C94 1.194 . S
C345 C21 1.190 . S
C367 C226 1.226 . S
C363 C27 1.234 . S
C385 C183 0.976 . S
C381 C37 0.977 . S
C399 C10 2.452 . S
C403 C227 2.449 . S
C421 C143 1.444 . S
C417 C26 1.454 . S
C435 C38 0.259 . S
C439 C106 0.490 . S
C453 C15 2.440 . S
C457 C178 2.474 . S
C475 C98 3.067 . S
C471 C48 3.106 . S
C489 C59 2.170 . S
C493 C147 2.225 . S
C507 C76 1.214 . S
C511 C186 1.202 . S
C525 C87 0.454 . S
C529 C223 0.410 . S
C543 C54 2.769 . S
C547 C146 2.669 1_565 S
C565 C103 1.661 . S
C561 C60 1.652 . S
C583 C217 1.237 . S
C579 C71 1.293 . S
C601 C174 1.010 . S
C597 C82 1.021 . S
C615 C49 2.575 . S
C619 C218 2.580 1_655 S
C637 C134 1.268 . S
C633 C70 1.273 . S
C655 C97 0.588 . S
C651 C81 0.560 . S
C669 C65 2.279 . S
C673 C187 2.315 . S
