# Generated by pormake.
# Topology ptr, (4,4)-cn, num edge types: 1
# Building blocks:
#     Node 0, Type 0, BuildingBlock: GALJAG_clean_sbu_0, # of connection points: 4
#     Node 1, Type 0, BuildingBlock: GALJAG_clean_sbu_0, # of connection points: 4
#     Node 2, Type 0, BuildingBlock: GALJAG_clean_sbu_0, # of connection points: 4
#     Node 3, Type 0, BuildingBlock: GALJAG_clean_sbu_0, # of connection points: 4
#     Node 4, Type 0, BuildingBlock: GALJAG_clean_sbu_0, # of connection points: 4
#     Node 5, Type 0, BuildingBlock: GALJAG_clean_sbu_0, # of connection points: 4
#     Node 6, Type 0, BuildingBlock: GALJAG_clean_sbu_0, # of connection points: 4
#     Node 7, Type 0, BuildingBlock: GALJAG_clean_sbu_0, # of connection points: 4
#     Node 8, Type 0, BuildingBlock: GALJAG_clean_sbu_0, # of connection points: 4
#     Node 9, Type 0, BuildingBlock: GALJAG_clean_sbu_0, # of connection points: 4
#     Node 10, Type 0, BuildingBlock: GALJAG_clean_sbu_0, # of connection points: 4
#     Node 11, Type 0, BuildingBlock: GALJAG_clean_sbu_0, # of connection points: 4
#     Node 12, Type 0, BuildingBlock: GALJAG_clean_sbu_0, # of connection points: 4
#     Node 13, Type 0, BuildingBlock: GALJAG_clean_sbu_0, # of connection points: 4
#     Node 14, Type 0, BuildingBlock: GALJAG_clean_sbu_0, # of connection points: 4
#     Node 15, Type 0, BuildingBlock: GALJAG_clean_sbu_0, # of connection points: 4
#     Node 16, Type 0, BuildingBlock: GALJAG_clean_sbu_0, # of connection points: 4
#     Node 17, Type 0, BuildingBlock: GALJAG_clean_sbu_0, # of connection points: 4
#     Node 18, Type 1, BuildingBlock: AZAVOO_clean_linker_0, # of connection points: 4
#     Node 19, Type 1, BuildingBlock: AZAVOO_clean_linker_0, # of connection points: 4
#     Node 20, Type 1, BuildingBlock: AZAVOO_clean_linker_0, # of connection points: 4
#     Node 21, Type 1, BuildingBlock: AZAVOO_clean_linker_0, # of connection points: 4
#     Node 22, Type 1, BuildingBlock: AZAVOO_clean_linker_0, # of connection points: 4
#     Node 23, Type 1, BuildingBlock: AZAVOO_clean_linker_0, # of connection points: 4
#     Node 24, Type 1, BuildingBlock: AZAVOO_clean_linker_0, # of connection points: 4
#     Node 25, Type 1, BuildingBlock: AZAVOO_clean_linker_0, # of connection points: 4
#     Node 26, Type 1, BuildingBlock: AZAVOO_clean_linker_0, # of connection points: 4
#     Node 27, Type 1, BuildingBlock: AZAVOO_clean_linker_0, # of connection points: 4
#     Node 28, Type 1, BuildingBlock: AZAVOO_clean_linker_0, # of connection points: 4
#     Node 29, Type 1, BuildingBlock: AZAVOO_clean_linker_0, # of connection points: 4
#     Node 30, Type 1, BuildingBlock: AZAVOO_clean_linker_0, # of connection points: 4
#     Node 31, Type 1, BuildingBlock: AZAVOO_clean_linker_0, # of connection points: 4
#     Node 32, Type 1, BuildingBlock: AZAVOO_clean_linker_0, # of connection points: 4
#     Node 33, Type 1, BuildingBlock: AZAVOO_clean_linker_0, # of connection points: 4
#     Node 34, Type 1, BuildingBlock: AZAVOO_clean_linker_0, # of connection points: 4
#     Node 35, Type 1, BuildingBlock: AZAVOO_clean_linker_0, # of connection points: 4
#     Edge 36, Type (0, 1), BuildingBlock: OJICUG_clean_linker_0, # of connection points: 2
#     Edge 37, Type (0, 1), BuildingBlock: OJICUG_clean_linker_0, # of connection points: 2
#     Edge 38, Type (0, 1), BuildingBlock: OJICUG_clean_linker_0, # of connection points: 2
#     Edge 39, Type (0, 1), BuildingBlock: OJICUG_clean_linker_0, # of connection points: 2
#     Edge 40, Type (0, 1), BuildingBlock: OJICUG_clean_linker_0, # of connection points: 2
#     Edge 41, Type (0, 1), BuildingBlock: OJICUG_clean_linker_0, # of connection points: 2
#     Edge 42, Type (0, 1), BuildingBlock: OJICUG_clean_linker_0, # of connection points: 2
#     Edge 43, Type (0, 1), BuildingBlock: OJICUG_clean_linker_0, # of connection points: 2
#     Edge 44, Type (0, 1), BuildingBlock: OJICUG_clean_linker_0, # of connection points: 2
#     Edge 45, Type (0, 1), BuildingBlock: OJICUG_clean_linker_0, # of connection points: 2
#     Edge 46, Type (0, 1), BuildingBlock: OJICUG_clean_linker_0, # of connection points: 2
#     Edge 47, Type (0, 1), BuildingBlock: OJICUG_clean_linker_0, # of connection points: 2
#     Edge 48, Type (0, 1), BuildingBlock: OJICUG_clean_linker_0, # of connection points: 2
#     Edge 49, Type (0, 1), BuildingBlock: OJICUG_clean_linker_0, # of connection points: 2
#     Edge 50, Type (0, 1), BuildingBlock: OJICUG_clean_linker_0, # of connection points: 2
#     Edge 51, Type (0, 1), BuildingBlock: OJICUG_clean_linker_0, # of connection points: 2
#     Edge 52, Type (0, 1), BuildingBlock: OJICUG_clean_linker_0, # of connection points: 2
#     Edge 53, Type (0, 1), BuildingBlock: OJICUG_clean_linker_0, # of connection points: 2
#     Edge 54, Type (0, 1), BuildingBlock: OJICUG_clean_linker_0, # of connection points: 2
#     Edge 55, Type (0, 1), BuildingBlock: OJICUG_clean_linker_0, # of connection points: 2
#     Edge 56, Type (0, 1), BuildingBlock: OJICUG_clean_linker_0, # of connection points: 2
#     Edge 57, Type (0, 1), BuildingBlock: OJICUG_clean_linker_0, # of connection points: 2
#     Edge 58, Type (0, 1), BuildingBlock: OJICUG_clean_linker_0, # of connection points: 2
#     Edge 59, Type (0, 1), BuildingBlock: OJICUG_clean_linker_0, # of connection points: 2
#     Edge 60, Type (0, 1), BuildingBlock: OJICUG_clean_linker_0, # of connection points: 2
#     Edge 61, Type (0, 1), BuildingBlock: OJICUG_clean_linker_0, # of connection points: 2
#     Edge 62, Type (0, 1), BuildingBlock: OJICUG_clean_linker_0, # of connection points: 2
#     Edge 63, Type (0, 1), BuildingBlock: OJICUG_clean_linker_0, # of connection points: 2
#     Edge 64, Type (0, 1), BuildingBlock: OJICUG_clean_linker_0, # of connection points: 2
#     Edge 65, Type (0, 1), BuildingBlock: OJICUG_clean_linker_0, # of connection points: 2
#     Edge 66, Type (0, 1), BuildingBlock: OJICUG_clean_linker_0, # of connection points: 2
#     Edge 67, Type (0, 1), BuildingBlock: OJICUG_clean_linker_0, # of connection points: 2
#     Edge 68, Type (0, 1), BuildingBlock: OJICUG_clean_linker_0, # of connection points: 2
#     Edge 69, Type (0, 1), BuildingBlock: OJICUG_clean_linker_0, # of connection points: 2
#     Edge 70, Type (0, 1), BuildingBlock: OJICUG_clean_linker_0, # of connection points: 2
#     Edge 71, Type (0, 1), BuildingBlock: OJICUG_clean_linker_0, # of connection points: 2
#     Edge 72, Type (0, 1), BuildingBlock: OJICUG_clean_linker_0, # of connection points: 2
#     Edge 73, Type (0, 1), BuildingBlock: OJICUG_clean_linker_0, # of connection points: 2
#     Edge 74, Type (0, 1), BuildingBlock: OJICUG_clean_linker_0, # of connection points: 2
#     Edge 75, Type (0, 1), BuildingBlock: OJICUG_clean_linker_0, # of connection points: 2
#     Edge 76, Type (0, 1), BuildingBlock: OJICUG_clean_linker_0, # of connection points: 2
#     Edge 77, Type (0, 1), BuildingBlock: OJICUG_clean_linker_0, # of connection points: 2
#     Edge 78, Type (0, 1), BuildingBlock: OJICUG_clean_linker_0, # of connection points: 2
#     Edge 79, Type (0, 1), BuildingBlock: OJICUG_clean_linker_0, # of connection points: 2
#     Edge 80, Type (0, 1), BuildingBlock: OJICUG_clean_linker_0, # of connection points: 2
#     Edge 81, Type (0, 1), BuildingBlock: OJICUG_clean_linker_0, # of connection points: 2
#     Edge 82, Type (0, 1), BuildingBlock: OJICUG_clean_linker_0, # of connection points: 2
#     Edge 83, Type (0, 1), BuildingBlock: OJICUG_clean_linker_0, # of connection points: 2
#     Edge 84, Type (0, 1), BuildingBlock: OJICUG_clean_linker_0, # of connection points: 2
#     Edge 85, Type (0, 1), BuildingBlock: OJICUG_clean_linker_0, # of connection points: 2
#     Edge 86, Type (0, 1), BuildingBlock: OJICUG_clean_linker_0, # of connection points: 2
#     Edge 87, Type (0, 1), BuildingBlock: OJICUG_clean_linker_0, # of connection points: 2
#     Edge 88, Type (0, 1), BuildingBlock: OJICUG_clean_linker_0, # of connection points: 2
#     Edge 89, Type (0, 1), BuildingBlock: OJICUG_clean_linker_0, # of connection points: 2
#     Edge 90, Type (0, 1), BuildingBlock: OJICUG_clean_linker_0, # of connection points: 2
#     Edge 91, Type (0, 1), BuildingBlock: OJICUG_clean_linker_0, # of connection points: 2
#     Edge 92, Type (0, 1), BuildingBlock: OJICUG_clean_linker_0, # of connection points: 2
#     Edge 93, Type (0, 1), BuildingBlock: OJICUG_clean_linker_0, # of connection points: 2
#     Edge 94, Type (0, 1), BuildingBlock: OJICUG_clean_linker_0, # of connection points: 2
#     Edge 95, Type (0, 1), BuildingBlock: OJICUG_clean_linker_0, # of connection points: 2
#     Edge 96, Type (0, 1), BuildingBlock: OJICUG_clean_linker_0, # of connection points: 2
#     Edge 97, Type (0, 1), BuildingBlock: OJICUG_clean_linker_0, # of connection points: 2
#     Edge 98, Type (0, 1), BuildingBlock: OJICUG_clean_linker_0, # of connection points: 2
#     Edge 99, Type (0, 1), BuildingBlock: OJICUG_clean_linker_0, # of connection points: 2
#     Edge 100, Type (0, 1), BuildingBlock: OJICUG_clean_linker_0, # of connection points: 2
#     Edge 101, Type (0, 1), BuildingBlock: OJICUG_clean_linker_0, # of connection points: 2
#     Edge 102, Type (0, 1), BuildingBlock: OJICUG_clean_linker_0, # of connection points: 2
#     Edge 103, Type (0, 1), BuildingBlock: OJICUG_clean_linker_0, # of connection points: 2
#     Edge 104, Type (0, 1), BuildingBlock: OJICUG_clean_linker_0, # of connection points: 2
#     Edge 105, Type (0, 1), BuildingBlock: OJICUG_clean_linker_0, # of connection points: 2
#     Edge 106, Type (0, 1), BuildingBlock: OJICUG_clean_linker_0, # of connection points: 2
#     Edge 107, Type (0, 1), BuildingBlock: OJICUG_clean_linker_0, # of connection points: 2
# Relax obj value: 0.036
# Max RMSD: 0.161
# Mean RMSD: 0.100
data_MOF--net-ptr--node1-GALJAG_clean_sbu_0--node2-AZAVOO_clean_linker_0--edge1-OJICUG_clean_linker_0
_symmetry_space_group_name_H-M    P1
_symmetry_Int_Tables_number       1
_symmetry_cell_setting            triclinic
loop_
_symmetry_equiv_pos_as_xyz
'x, y, z'
_cell_length_a     62.570808
_cell_length_b     61.399698
_cell_length_c     55.818863
_cell_angle_alpha  93.080863
_cell_angle_beta   92.759337
_cell_angle_gamma 120.1209
loop_
_atom_site_label
_atom_site_type_symbol
_atom_site_fract_x
_atom_site_fract_y
_atom_site_fract_z
_atom_type_partial_charge
In0 In 0.00264 0.36301 0.02094 0.0
O1 O 0.97817 0.36406 0.04968 0.0
O2 O 0.01142 0.39801 0.04461 0.0
C3 C 0.97037 0.31737 0.99889 0.0
C4 C 0.03696 0.35656 0.04553 0.0
C5 C 0.00662 0.38958 0.98295 0.0
O6 O 0.96495 0.32738 0.01617 0.0
O7 O 0.99222 0.33041 0.99283 0.0
O8 O 0.02366 0.38534 0.98984 0.0
O9 O 0.98807 0.3804 0.99513 0.0
C10 C 0.99228 0.38737 0.05585 0.0
O11 O 0.04244 0.37689 0.03638 0.0
O12 O 0.01455 0.33948 0.04173 0.0
In13 In 0.62703 0.61261 0.06073 0.0
O14 O 0.62499 0.58814 0.09138 0.0
O15 O 0.59274 0.58924 0.07981 0.0
C16 C 0.66981 0.62204 0.04309 0.0
C17 C 0.63845 0.65601 0.08594 0.0
C18 C 0.59946 0.59624 0.01804 0.0
O19 O 0.65471 0.60056 0.04966 0.0
O20 O 0.66348 0.63845 0.04589 0.0
O21 O 0.60691 0.61801 0.02824 0.0
O22 O 0.60557 0.58282 0.02958 0.0
C23 C 0.60253 0.58093 0.09412 0.0
O24 O 0.61879 0.64362 0.07206 0.0
O25 O 0.65219 0.64645 0.08717 0.0
In26 In 0.38477 0.99812 0.01861 0.0
O27 O 0.38823 0.03697 0.01752 0.0
O28 O 0.36117 0.00632 0.99322 0.0
C29 C 0.41556 0.00216 0.05611 0.0
C30 C 0.40673 0.99297 0.98013 0.0
C31 C 0.34238 0.96972 0.03884 0.0
O32 O 0.41341 0.02068 0.05039 0.0
O33 O 0.40289 0.98207 0.04237 0.0
O34 O 0.34891 0.96043 0.02181 0.0
O35 O 0.35727 0.99273 0.04537 0.0
C36 C 0.37084 0.02928 0.00093 0.0
O37 O 0.38624 0.97508 0.98563 0.0
O38 O 0.41614 0.01281 0.99438 0.0
In39 In 0.99494 0.63069 0.04516 0.0
O40 O 0.01949 0.62233 0.02185 0.0
O41 O 0.98104 0.59477 0.02069 0.0
C42 C 0.02759 0.67731 0.06552 0.0
C43 C 0.96627 0.64215 0.01726 0.0
C44 C 0.98681 0.6036 0.08367 0.0
O45 O 0.03396 0.66483 0.05187 0.0
O46 O 0.00473 0.66644 0.06844 0.0
O47 O 0.96902 0.60177 0.07019 0.0
O48 O 0.00805 0.6189 0.07767 0.0
C49 C 0.00184 0.60104 0.01303 0.0
O50 O 0.96021 0.63368 0.03754 0.0
O51 O 0.98657 0.64478 0.01131 0.0
In52 In 0.38024 0.3866 0.00546 0.0
O53 O 0.38942 0.42012 0.98265 0.0
O54 O 0.40456 0.39669 0.97458 0.0
C55 C 0.34258 0.38263 0.03038 0.0
C56 C 0.36117 0.33922 0.98495 0.0
C57 C 0.41645 0.40481 0.04155 0.0
O58 O 0.34338 0.38653 0.00834 0.0
O59 O 0.36067 0.38137 0.03941 0.0
O60 O 0.40415 0.38169 0.03395 0.0
O61 O 0.41107 0.41901 0.03029 0.0
C62 C 0.40283 0.4155 0.96948 0.0
O63 O 0.38122 0.35048 0.99829 0.0
O64 O 0.35046 0.3518 0.98209 0.0
In65 In 0.6143 -0.00035 0.04391 0.0
O66 O 0.61117 0.0218 0.07687 0.0
O67 O 0.58541 0.98225 0.07023 0.0
C68 C 0.65601 0.02805 0.02304 0.0
C69 C 0.63074 0.97008 0.05999 0.0
C70 C 0.58289 0.9957 0.00714 0.0
O71 O 0.64922 0.03766 0.03958 0.0
O72 O 0.6417 0.00473 0.01729 0.0
O73 O 0.58397 0.97673 0.01337 0.0
O74 O 0.59677 0.01606 0.02009 0.0
C75 C 0.59297 0.00227 0.0838 0.0
O76 O 0.61203 0.96151 0.04476 0.0
O77 O 0.64064 0.99325 0.06713 0.0
In78 In 0.66688 0.70074 0.35449 0.0
O79 O 0.64223 0.7015 0.38321 0.0
O80 O 0.67516 0.73567 0.37797 0.0
C81 C 0.63358 0.65569 0.33197 0.0
C82 C 0.7004 0.69353 0.37975 0.0
C83 C 0.6738 0.72811 0.31653 0.0
O84 O 0.62829 0.66628 0.34885 0.0
O85 O 0.65575 0.66786 0.32655 0.0
O86 O 0.68962 0.7224 0.32399 0.0
O87 O 0.65487 0.71996 0.32815 0.0
C88 C 0.65614 0.72484 0.38936 0.0
O89 O 0.70601 0.71436 0.37166 0.0
O90 O 0.67825 0.67627 0.37455 0.0
In91 In 0.29039 0.94329 0.39277 0.0
O92 O 0.2889 0.91937 0.42376 0.0
O93 O 0.2563 0.91972 0.41206 0.0
C94 C 0.33239 0.95106 0.3744 0.0
C95 C 0.30222 0.98688 0.41791 0.0
C96 C 0.26215 0.9277 0.35046 0.0
O97 O 0.31673 0.92978 0.38091 0.0
O98 O 0.32704 0.96816 0.37765 0.0
O99 O 0.27051 0.94962 0.36071 0.0
O100 O 0.26777 0.91376 0.36172 0.0
C101 C 0.26639 0.91185 0.42653 0.0
O102 O 0.28218 0.97416 0.40464 0.0
O103 O 0.31622 0.97762 0.41852 0.0
In104 In 0.05379 0.32855 0.35007 0.0
O105 O 0.05794 0.36784 0.35037 0.0
O106 O 0.03188 0.33856 0.32437 0.0
C107 C 0.08261 0.33133 0.38886 0.0
C108 C 0.07543 0.32216 0.31175 0.0
C109 C 0.01035 0.30031 0.36869 0.0
O110 O 0.08438 0.35092 0.38062 0.0
O111 O 0.06727 0.31076 0.37688 0.0
O112 O 0.0175 0.29106 0.35219 0.0
O113 O 0.02506 0.32335 0.37538 0.0
C114 C 0.04146 0.36121 0.33305 0.0
O115 O 0.05454 0.30492 0.31713 0.0
O116 O 0.08552 0.34187 0.3262 0.0
In117 In 0.66518 0.96418 0.37624 0.0
O118 O 0.69233 0.9633 0.35076 0.0
O119 O 0.65883 0.92897 0.35393 0.0
C120 C 0.6935 0.01054 0.39923 0.0
C121 C 0.63229 0.97034 0.34846 0.0
C122 C 0.65946 0.93741 0.41448 0.0
O123 O 0.70081 0.00218 0.38227 0.0
O124 O 0.67179 0.99555 0.40459 0.0
O125 O 0.64115 0.93636 0.40262 0.0
O126 O 0.6803 0.95182 0.40697 0.0
C127 C 0.67895 0.94002 0.34422 0.0
O128 O 0.62545 0.95426 0.36384 0.0
O129 O 0.65539 0.98321 0.34747 0.0
In130 In 0.04452 0.71845 0.3381 0.0
O131 O 0.05285 0.75178 0.31533 0.0
O132 O 0.06942 0.7296 0.30768 0.0
C133 C 0.00569 0.71281 0.36196 0.0
C134 C 0.02741 0.67168 0.31682 0.0
C135 C 0.0798 0.73736 0.37517 0.0
O136 O 0.00766 0.71844 0.34038 0.0
O137 O 0.02311 0.71043 0.37102 0.0
O138 O 0.06832 0.71431 0.36734 0.0
O139 O 0.07411 0.7512 0.36368 0.0
C140 C 0.06686 0.74788 0.30239 0.0
O141 O 0.04765 0.68369 0.32982 0.0
O142 O 0.01548 0.68314 0.31477 0.0
In143 In 0.2799 0.33296 0.3779 0.0
O144 O 0.2767 0.29429 0.37782 0.0
O145 O 0.30892 0.32629 0.39587 0.0
C146 C 0.24448 0.3257 0.34397 0.0
C147 C 0.26278 0.33887 0.41971 0.0
C148 C 0.31859 0.36296 0.35372 0.0
O149 O 0.24786 0.30789 0.34956 0.0
O150 O 0.25788 0.34647 0.35654 0.0
O151 O 0.3168 0.36962 0.37508 0.0
O152 O 0.30105 0.34168 0.34505 0.0
C153 C 0.29737 0.30279 0.38994 0.0
O154 O 0.27727 0.35769 0.40885 0.0
O155 O 0.25682 0.31765 0.40925 0.0
In156 In 0.33353 0.03303 0.68641 0.0
O157 O 0.37283 0.04131 0.69765 0.0
O158 O 0.34265 0.01222 0.71374 0.0
C159 C 0.33956 0.06068 0.64878 0.0
C160 C 0.32428 0.05892 0.72072 0.0
C161 C 0.30104 0.98719 0.66442 0.0
O162 O 0.35613 0.05612 0.65649 0.0
O163 O 0.32033 0.05131 0.66002 0.0
O164 O 0.29531 0.9981 0.68053 0.0
O165 O 0.3233 -0.00059 0.65938 0.0
C166 C 0.36575 0.02464 0.71245 0.0
O167 O 0.30879 0.03627 0.71327 0.0
O168 O 0.3444 0.06845 0.71086 0.0
In169 In 0.95763 0.2757 0.72399 0.0
O170 O 0.94744 0.30516 0.73565 0.0
O171 O 0.98205 0.3103 0.75005 0.0
C172 C 0.93052 0.25993 0.68098 0.0
C173 C 0.93371 0.24374 0.75748 0.0
C174 C 0.0008 0.28544 0.70697 0.0
O175 O 0.9386 0.28185 0.69109 0.0
O176 O 0.93579 0.24603 0.69274 0.0
O177 O 0.98526 0.2637 0.71263 0.0
O178 O 0.99475 0.302 0.71044 0.0
C179 C 0.96717 0.31851 0.74921 0.0
O180 O 0.95623 0.25138 0.75464 0.0
O181 O 0.92357 0.2517 0.74317 0.0
In182 In 0.7222 0.66608 0.68519 0.0
O183 O 0.7259 0.70504 0.68461 0.0
O184 O 0.69777 0.67454 0.66103 0.0
C185 C 0.75367 0.6721 0.72307 0.0
C186 C 0.74302 0.66048 0.64576 0.0
C187 C 0.68002 0.63642 0.70544 0.0
O188 O 0.75076 0.68992 0.71659 0.0
O189 O 0.74159 0.65163 0.70974 0.0
O190 O 0.68704 0.62764 0.68844 0.0
O191 O 0.69428 0.65957 0.71188 0.0
C192 C 0.70794 0.69755 0.66874 0.0
O193 O 0.72295 0.64266 0.65204 0.0
O194 O 0.75275 0.68049 0.65979 0.0
In195 In 0.3324 0.29847 0.7094 0.0
O196 O 0.3567 0.29663 0.68133 0.0
O197 O 0.32278 0.26288 0.68583 0.0
C198 C 0.36499 0.34339 0.73366 0.0
C199 C 0.30168 0.30777 0.68191 0.0
C200 C 0.32287 0.26724 0.74463 0.0
O201 O 0.37167 0.33092 0.72051 0.0
O202 O 0.34188 0.33338 0.73435 0.0
O203 O 0.30695 0.27253 0.73651 0.0
O204 O 0.34312 0.2777 0.73508 0.0
C205 C 0.34224 0.27341 0.67489 0.0
O206 O 0.29549 0.29733 0.70131 0.0
O207 O 0.32308 0.31339 0.67661 0.0
In208 In 0.70571 0.0566 0.66682 0.0
O209 O 0.70748 0.07911 0.63445 0.0
O210 O 0.74117 0.08506 0.65161 0.0
C211 C 0.66293 0.04672 0.68513 0.0
C212 C 0.69558 0.01296 0.64277 0.0
C213 C 0.73307 0.07231 0.70948 0.0
O214 O 0.67832 0.06841 0.67928 0.0
O215 O 0.66868 0.03004 0.68086 0.0
O216 O 0.73133 0.05422 0.69594 0.0
O217 O 0.72139 0.08248 0.70128 0.0
C218 C 0.73083 0.09043 0.63495 0.0
O219 O 0.7123 0.0237 0.66 0.0
O220 O 0.68411 0.02436 0.63758 0.0
In221 In 0.94573 0.66952 0.71202 0.0
O222 O 0.93761 0.62914 0.71497 0.0
O223 O 0.96778 0.65926 0.73725 0.0
C224 C 0.9164 0.6645 0.67293 0.0
C225 C 0.92564 0.67945 0.74973 0.0
C226 C 0.98846 0.69625 0.69183 0.0
O227 O 0.91596 0.64561 0.68143 0.0
O228 O 0.93099 0.68554 0.68459 0.0
O229 O 0.98015 0.70698 0.70541 0.0
O230 O 0.97532 0.67249 0.68882 0.0
C231 C 0.95546 0.63588 0.73082 0.0
O232 O 0.9482 0.69356 0.74622 0.0
O233 O 0.91344 0.66116 0.73395 0.0
H234 H 0.17539 0.36954 0.99909 0.0
H235 H 0.31101 0.311 0.19273 0.0
H236 H 0.16662 0.3748 0.12785 0.0
H237 H 0.13635 0.38113 0.10549 0.0
H238 H 0.07967 0.30413 0.11444 0.0
H239 H 0.11111 0.29743 0.13488 0.0
H240 H 0.20502 0.37566 0.10135 0.0
H241 H 0.19834 0.38041 0.05887 0.0
H242 H 0.13759 0.30304 0.04945 0.0
H243 H 0.1447 0.29845 0.09189 0.0
H244 H 0.2457 0.37677 0.13965 0.0
H245 H 0.27962 0.39025 0.11356 0.0
H246 H 0.23619 0.3212 0.06712 0.0
H247 H 0.20232 0.30755 0.09367 0.0
H248 H 0.24078 0.36449 0.19119 0.0
H249 H 0.27827 0.36481 0.20648 0.0
H250 H 0.25558 0.29598 0.16138 0.0
H251 H 0.21807 0.29577 0.1464 0.0
H252 H 0.19015 0.35808 0.2122 0.0
H253 H 0.19754 0.35534 0.2547 0.0
H254 H 0.2003 0.28729 0.23705 0.0
H255 H 0.18981 0.28867 0.19471 0.0
H256 H 0.15215 0.36122 0.18212 0.0
H257 H 0.12806 0.35869 0.21616 0.0
H258 H 0.11001 0.2815 0.22194 0.0
H259 H 0.13365 0.284 0.18745 0.0
O260 O 0.1778 0.36722 0.01581 0.0
O261 O 0.14663 0.3274 0.01198 0.0
O262 O 0.30785 0.34746 0.20887 0.0
O263 O 0.29644 0.31147 0.18684 0.0
C264 C 0.16121 0.33093 0.14132 0.0
C265 C 0.17929 0.33367 0.12552 0.0
C266 C 0.20089 0.33381 0.13432 0.0
C267 C 0.20378 0.32972 0.15864 0.0
C268 C 0.18518 0.32579 0.17422 0.0
C269 C 0.1637 0.32618 0.16548 0.0
C270 C 0.14116 0.33555 0.13261 0.0
C271 C 0.14759 0.35935 0.12511 0.0
C272 C 0.13007 0.36298 0.11247 0.0
C273 C 0.10537 0.34308 0.10775 0.0
C274 C 0.0986 0.31972 0.117 0.0
C275 C 0.11642 0.31591 0.12911 0.0
C276 C 0.17551 0.33663 0.09963 0.0
C277 C 0.19045 0.3597 0.09002 0.0
C278 C 0.1865 0.36238 0.06578 0.0
C279 C 0.16745 0.34208 0.05074 0.0
C280 C 0.15245 0.31903 0.06051 0.0
C281 C 0.15647 0.31636 0.08473 0.0
C282 C 0.22166 0.34105 0.11873 0.0
C283 C 0.24361 0.36439 0.12402 0.0
C284 C 0.26289 0.37212 0.10904 0.0
C285 C 0.26049 0.3568 0.08829 0.0
C286 C 0.2384 0.3335 0.08286 0.0
C287 C 0.21917 0.3256 0.09807 0.0
C288 C 0.22664 0.33002 0.16782 0.0
C289 C 0.2439 0.34944 0.18473 0.0
C290 C 0.26532 0.34961 0.19337 0.0
C291 C 0.2699 0.33038 0.18517 0.0
C292 C 0.25261 0.31104 0.1681 0.0
C293 C 0.23119 0.31089 0.15949 0.0
C294 C 0.18925 0.3235 0.20027 0.0
C295 C 0.1916 0.34216 0.21758 0.0
C296 C 0.19631 0.34078 0.24194 0.0
C297 C 0.19998 0.3213 0.24956 0.0
C298 C 0.19726 0.30239 0.23213 0.0
C299 C 0.19163 0.30332 0.20778 0.0
C300 C 0.14471 0.32282 0.18228 0.0
C301 C 0.1423 0.34349 0.19018 0.0
C302 C 0.12884 0.34212 0.20987 0.0
C303 C 0.11751 0.32003 0.22203 0.0
C304 C 0.11845 0.29875 0.21297 0.0
C305 C 0.13193 0.30014 0.19325 0.0
C306 C 0.16326 0.34502 0.02501 0.0
C307 C 0.29257 0.33039 0.19438 0.0
H308 H 0.65654 0.80716 0.00781 0.0
H309 H 0.72215 0.00981 0.2112 0.0
H310 H 0.64286 0.79398 0.13379 0.0
H311 H 0.63187 0.75203 0.11733 0.0
H312 H 0.70178 0.76363 0.14908 0.0
H313 H 0.71366 0.80692 0.16318 0.0
H314 H 0.64601 0.83089 0.10783 0.0
H315 H 0.64338 0.81964 0.0647 0.0
H316 H 0.7185 0.83376 0.0724 0.0
H317 H 0.72101 0.84535 0.11552 0.0
H318 H 0.64214 0.86341 0.14192 0.0
H319 H 0.62926 0.88662 0.11645 0.0
H320 H 0.70363 0.92893 0.0944 0.0
H321 H 0.71637 0.90522 0.11999 0.0
H322 H 0.65665 0.88379 0.19447 0.0
H323 H 0.65982 0.92372 0.20903 0.0
H324 H 0.73414 0.96457 0.18639 0.0
H325 H 0.73077 0.92445 0.17215 0.0
H326 H 0.6557 0.84247 0.21979 0.0
H327 H 0.65524 0.86003 0.25975 0.0
H328 H 0.73361 0.91436 0.26021 0.0
H329 H 0.73346 0.89713 0.21956 0.0
H330 H 0.64932 0.79345 0.19167 0.0
H331 H 0.64614 0.76552 0.22259 0.0
H332 H 0.72379 0.81515 0.24593 0.0
H333 H 0.72698 0.84254 0.21426 0.0
O334 O 0.65804 0.81184 0.02491 0.0
O335 O 0.69668 0.81925 0.02985 0.0
O336 O 0.68216 0.97185 0.21701 0.0
O337 O 0.72038 0.99376 0.20557 0.0
C338 C 0.68597 0.82988 0.1578 0.0
C339 C 0.68567 0.8462 0.14101 0.0
C340 C 0.68737 0.86914 0.14926 0.0
C341 C 0.69178 0.87703 0.17404 0.0
C342 C 0.69316 0.8613 0.19082 0.0
C343 C 0.68979 0.83748 0.18277 0.0
C344 C 0.6793 0.80375 0.14917 0.0
C345 C 0.65602 0.78763 0.13677 0.0
C346 C 0.64954 0.76333 0.1278 0.0
C347 C 0.66584 0.75411 0.13184 0.0
C348 C 0.6889 0.77011 0.14508 0.0
C349 C 0.69568 0.79481 0.15342 0.0
C350 C 0.68385 0.83934 0.11475 0.0
C351 C 0.66201 0.83192 0.10013 0.0
C352 C 0.66049 0.82531 0.07551 0.0
C353 C 0.68076 0.82588 0.06507 0.0
C354 C 0.70257 0.83318 0.07984 0.0
C355 C 0.70406 0.83981 0.10446 0.0
C356 C 0.68011 0.88267 0.13263 0.0
C357 C 0.65556 0.87747 0.13133 0.0
C358 C 0.64821 0.89059 0.11669 0.0
C359 C 0.66542 0.90939 0.10336 0.0
C360 C 0.69004 0.91447 0.10453 0.0
C361 C 0.69733 0.90102 0.11902 0.0
C362 C 0.69357 0.90129 0.18248 0.0
C363 C 0.67362 0.90139 0.19279 0.0
C364 C 0.67548 0.92422 0.20103 0.0
C365 C 0.69728 0.94735 0.19893 0.0
C366 C 0.71712 0.94711 0.18833 0.0
C367 C 0.71525 0.92425 0.18016 0.0
C368 C 0.69459 0.86855 0.21685 0.0
C369 C 0.6729 0.85772 0.22882 0.0
C370 C 0.67273 0.86781 0.25174 0.0
C371 C 0.69437 0.88881 0.26324 0.0
C372 C 0.7165 0.89852 0.25173 0.0
C373 C 0.71656 0.88855 0.22865 0.0
C374 C 0.6884 0.81992 0.20068 0.0
C375 C 0.66573 0.79805 0.20321 0.0
C376 C 0.66391 0.78227 0.22102 0.0
C377 C 0.68469 0.78822 0.23682 0.0
C378 C 0.70753 0.80991 0.23389 0.0
C379 C 0.70935 0.82565 0.21595 0.0
C380 C 0.67908 0.81881 0.03891 0.0
C381 C 0.69938 0.97165 0.20773 0.0
H382 H 0.1339 0.822 0.99755 0.0
H383 H 0.33087 0.00516 0.18096 0.0
H384 H 0.1155 0.83434 0.12437 0.0
H385 H 0.08211 0.7935 0.10536 0.0
H386 H 0.11902 0.75657 0.13584 0.0
H387 H 0.15229 0.7974 0.1547 0.0
H388 H 0.15961 0.8754 0.09388 0.0
H389 H 0.14751 0.8586 0.05159 0.0
H390 H 0.16131 0.7981 0.06639 0.0
H391 H 0.17369 0.81532 0.10853 0.0
H392 H 0.21144 0.92395 0.11712 0.0
H393 H 0.24447 0.94493 0.09028 0.0
H394 H 0.25637 0.88133 0.0886 0.0
H395 H 0.22317 0.86047 0.11507 0.0
H396 H 0.20784 0.93325 0.17755 0.0
H397 H 0.24561 0.97434 0.18714 0.0
H398 H 0.28977 0.94088 0.16835 0.0
H399 H 0.25186 0.89977 0.15925 0.0
H400 H 0.17188 0.89544 0.21322 0.0
H401 H 0.18757 0.90778 0.25597 0.0
H402 H 0.24228 0.886 0.24406 0.0
H403 H 0.22655 0.87372 0.20173 0.0
H404 H 0.12067 0.84474 0.18328 0.0
H405 H 0.09543 0.81946 0.21449 0.0
H406 H 0.15273 0.80279 0.23558 0.0
H407 H 0.17719 0.82716 0.20393 0.0
O408 O 0.13884 0.82838 0.01432 0.0
O409 O 0.14603 0.79755 0.02293 0.0
O410 O 0.2926 0.00424 0.19159 0.0
O411 O 0.31577 0.98888 0.17827 0.0
C412 C 0.15877 0.84356 0.14792 0.0
C413 C 0.17439 0.85664 0.12995 0.0
C414 C 0.19711 0.87914 0.13639 0.0
C415 C 0.20394 0.88907 0.16074 0.0
C416 C 0.18871 0.87561 0.17879 0.0
C417 C 0.16605 0.85284 0.1724 0.0
C418 C 0.1362 0.81874 0.14094 0.0
C419 C 0.11596 0.8173 0.12746 0.0
C420 C 0.097 0.79404 0.1166 0.0
C421 C 0.09821 0.772 0.11892 0.0
C422 C 0.11784 0.77335 0.13353 0.0
C423 C 0.13665 0.79655 0.14454 0.0
C424 C 0.16729 0.84644 0.10426 0.0
C425 C 0.16003 0.85855 0.08791 0.0
C426 C 0.15311 0.84889 0.06379 0.0
C427 C 0.15336 0.82695 0.05562 0.0
C428 C 0.16083 0.81498 0.07209 0.0
C429 C 0.16782 0.82471 0.09618 0.0
C430 C 0.215 0.89077 0.11804 0.0
C431 C 0.22096 0.91446 0.11061 0.0
C432 C 0.23988 0.92641 0.09541 0.0
C433 C 0.25317 0.91485 0.08745 0.0
C434 C 0.24635 0.89061 0.09415 0.0
C435 C 0.22744 0.8787 0.10933 0.0
C436 C 0.22711 0.91362 0.16746 0.0
C437 C 0.2257 0.93481 0.17567 0.0
C438 C 0.24729 0.95825 0.1811 0.0
C439 C 0.2707 0.96093 0.17832 0.0
C440 C 0.27204 0.93951 0.1705 0.0
C441 C 0.25042 0.91603 0.16525 0.0
C442 C 0.19815 0.88376 0.20446 0.0
C443 C 0.18728 0.89343 0.21994 0.0
C444 C 0.19627 0.90051 0.24422 0.0
C445 C 0.21601 0.89766 0.2533 0.0
C446 C 0.22684 0.88807 0.23763 0.0
C447 C 0.21802 0.88124 0.21345 0.0
C448 C 0.15078 0.83785 0.19143 0.0
C449 C 0.12766 0.83555 0.19466 0.0
C450 C 0.11338 0.82128 0.2126 0.0
C451 C 0.12201 0.80903 0.2275 0.0
C452 C 0.14532 0.81162 0.22421 0.0
C453 C 0.15946 0.82574 0.20628 0.0
C454 C 0.14588 0.81667 0.03001 0.0
C455 C 0.29362 0.98599 0.18323 0.0
H456 H 0.30695 0.18399 0.05445 0.0
H457 H 0.33224 0.01561 0.86195 0.0
H458 H 0.27978 0.18175 0.92426 0.0
H459 H 0.29013 0.2235 0.94281 0.0
H460 H 0.36459 0.25496 0.92109 0.0
H461 H 0.35433 0.21336 0.90324 0.0
H462 H 0.2791 0.13583 0.95583 0.0
H463 H 0.28372 0.15066 0.9984 0.0
H464 H 0.35953 0.2084 0.99098 0.0
H465 H 0.35474 0.19315 0.94857 0.0
H466 H 0.28263 0.08589 0.93319 0.0
H467 H 0.2956 0.06169 0.95734 0.0
H468 H 0.37094 0.12469 0.96429 0.0
H469 H 0.35771 0.14874 0.94056 0.0
H470 H 0.27052 0.0775 0.87503 0.0
H471 H 0.27051 0.03851 0.86314 0.0
H472 H 0.34969 0.07707 0.88191 0.0
H473 H 0.34944 0.11596 0.89343 0.0
H474 H 0.27008 0.11166 0.83939 0.0
H475 H 0.27222 0.09507 0.79908 0.0
H476 H 0.35176 0.13007 0.81319 0.0
H477 H 0.34939 0.14692 0.85289 0.0
H478 H 0.27071 0.1614 0.85696 0.0
H479 H 0.27228 0.1862 0.82334 0.0
H480 H 0.35225 0.22138 0.82875 0.0
H481 H 0.35018 0.19553 0.86116 0.0
O482 O 0.30555 0.17837 0.03761 0.0
O483 O 0.34436 0.20782 0.0328 0.0
O484 O 0.29104 0.01186 0.85688 0.0
O485 O 0.3317 0.03075 0.86648 0.0
C486 C 0.31191 0.16915 0.90517 0.0
C487 C 0.3134 0.15459 0.92327 0.0
C488 C 0.31286 0.13181 0.91678 0.0
C489 C 0.30982 0.12305 0.89226 0.0
C490 C 0.30837 0.13762 0.87425 0.0
C491 C 0.30948 0.1607 0.88064 0.0
C492 C 0.31623 0.19469 0.91215 0.0
C493 C 0.29809 0.19785 0.92301 0.0
C494 C 0.30403 0.22161 0.93357 0.0
C495 C 0.32822 0.24231 0.93354 0.0
C496 C 0.34589 0.23923 0.92158 0.0
C497 C 0.33996 0.21561 0.91105 0.0
C498 C 0.31648 0.1636 0.9491 0.0
C499 C 0.29668 0.15166 0.96347 0.0
C500 C 0.29937 0.16019 0.98775 0.0
C501 C 0.32197 0.18079 0.99808 0.0
C502 C 0.34185 0.19256 0.98359 0.0
C503 C 0.33914 0.18396 0.95934 0.0
C504 C 0.31923 0.11902 0.9352 0.0
C505 C 0.30177 0.09463 0.94052 0.0
C506 C 0.30927 0.08081 0.9541 0.0
C507 C 0.33437 0.09118 0.96247 0.0
C508 C 0.35146 0.11624 0.95834 0.0
C509 C 0.34393 0.13003 0.9448 0.0
C510 C 0.30993 0.09942 0.88525 0.0
C511 C 0.28781 0.07744 0.87655 0.0
C512 C 0.28788 0.05523 0.86979 0.0
C513 C 0.3101 0.05466 0.87164 0.0
C514 C 0.33225 0.07682 0.88031 0.0
C515 C 0.33216 0.09903 0.88698 0.0
C516 C 0.30959 0.13041 0.84888 0.0
C517 C 0.28795 0.11612 0.83344 0.0
C518 C 0.28921 0.10654 0.81058 0.0
C519 C 0.31215 0.11118 0.80297 0.0
C520 C 0.33385 0.12645 0.81828 0.0
C521 C 0.33256 0.136 0.84101 0.0
C522 C 0.31036 0.17691 0.86156 0.0
C523 C 0.28851 0.1746 0.85085 0.0
C524 C 0.28949 0.18886 0.83174 0.0
C525 C 0.31239 0.20573 0.82317 0.0
C526 C 0.33423 0.20824 0.83445 0.0
C527 C 0.33317 0.19376 0.85323 0.0
C528 C 0.32474 0.18988 0.02385 0.0
C529 C 0.31027 0.0311 0.86453 0.0
H530 H 0.83326 0.18593 0.05963 0.0
H531 H 0.67901 0.98522 0.85173 0.0
H532 H 0.83641 0.19448 0.92657 0.0
H533 H 0.86965 0.23437 0.94666 0.0
H534 H 0.92017 0.2058 0.9433 0.0
H535 H 0.88654 0.16573 0.92278 0.0
H536 H 0.79983 0.15969 0.95709 0.0
H537 H 0.80879 0.17306 0.00024 0.0
H538 H 0.86176 0.14743 0.00408 0.0
H539 H 0.85241 0.13392 0.96093 0.0
H540 H 0.75718 0.12168 0.9244 0.0
H541 H 0.72469 0.10188 0.952 0.0
H542 H 0.76116 0.0638 0.98082 0.0
H543 H 0.79369 0.08381 0.95315 0.0
H544 H 0.75524 0.11013 0.86914 0.0
H545 H 0.71602 0.07389 0.85157 0.0
H546 H 0.73637 0.02336 0.88324 0.0
H547 H 0.77566 0.05978 0.90044 0.0
H548 H 0.80435 0.15258 0.84841 0.0
H549 H 0.78945 0.14177 0.80603 0.0
H550 H 0.78458 0.06922 0.80977 0.0
H551 H 0.8017 0.0813 0.85186 0.0
H552 H 0.84482 0.19194 0.87722 0.0
H553 H 0.8711 0.21589 0.84628 0.0
H554 H 0.8884 0.15701 0.83101 0.0
H555 H 0.86215 0.13314 0.86236 0.0
O556 O 0.82986 0.18034 0.04262 0.0
O557 O 0.85689 0.16688 0.04362 0.0
O558 O 0.68526 0.02666 0.84181 0.0
O559 O 0.69413 -9e-05 0.85888 0.0
C560 C 0.83788 0.1525 0.91387 0.0
C561 C 0.8202 0.1379 0.9297 0.0
C562 C 0.79744 0.11672 0.92046 0.0
C563 C 0.79269 0.10948 0.89549 0.0
C564 C 0.81072 0.12367 0.87965 0.0
C565 C 0.83345 0.14518 0.88891 0.0
C566 C 0.85915 0.17731 0.92338 0.0
C567 C 0.85474 0.19696 0.92993 0.0
C568 C 0.87366 0.2196 0.94155 0.0
C569 C 0.89737 0.223 0.94687 0.0
C570 C 0.90205 0.20365 0.93937 0.0
C571 C 0.88297 0.18085 0.9277 0.0
C572 C 0.82527 0.14559 0.95599 0.0
C573 C 0.81316 0.15675 0.96734 0.0
C574 C 0.81842 0.16447 0.99197 0.0
C575 C 0.83597 0.16127 0.00563 0.0
C576 C 0.84811 0.15013 0.9941 0.0
C577 C 0.8428 0.14238 0.96949 0.0
C578 C 0.77756 0.10392 0.9367 0.0
C579 C 0.75807 0.109 0.93666 0.0
C580 C 0.73975 0.09795 0.95257 0.0
C581 C 0.74053 0.08145 0.96859 0.0
C582 C 0.76012 0.07641 0.96858 0.0
C583 C 0.77861 0.0877 0.95282 0.0
C584 C 0.76835 0.08754 0.88586 0.0
C585 C 0.75118 0.09122 0.87224 0.0
C586 C 0.7288 0.07049 0.86225 0.0
C587 C 0.72312 0.04571 0.86589 0.0
C588 C 0.74018 0.04217 0.88002 0.0
C589 C 0.76261 0.06292 0.88991 0.0
C590 C 0.80434 0.11785 0.85321 0.0
C591 C 0.80093 0.13473 0.83988 0.0
C592 C 0.79191 0.12826 0.81573 0.0
C593 C 0.78532 0.10439 0.80452 0.0
C594 C 0.78962 0.08783 0.8177 0.0
C595 C 0.79924 0.09461 0.84181 0.0
C596 C 0.85172 0.1609 0.87216 0.0
C597 C 0.85475 0.18448 0.86764 0.0
C598 C 0.86954 0.19799 0.84979 0.0
C599 C 0.88162 0.18819 0.83615 0.0
C600 C 0.87941 0.16504 0.84137 0.0
C601 C 0.86443 0.15141 0.85918 0.0
C602 C 0.8416 0.16962 0.03176 0.0
C603 C 0.69966 0.0236 0.85481 0.0
H604 H 0.86926 0.68035 0.07221 0.0
H605 H 0.66784 0.63664 0.88576 0.0
H606 H 0.88516 0.7077 0.95237 0.0
H607 H 0.91684 0.70237 0.97443 0.0
H608 H 0.89163 0.63169 0.93192 0.0
H609 H 0.8592 0.63644 0.91069 0.0
H610 H 0.8392 0.7007 0.97911 0.0
H611 H 0.85195 0.69863 0.02067 0.0
H612 H 0.84687 0.62719 0.99991 0.0
H613 H 0.83372 0.62929 0.95853 0.0
H614 H 0.7874 0.69383 0.95102 0.0
H615 H 0.75565 0.68289 0.97913 0.0
H616 H 0.75309 0.61187 0.98699 0.0
H617 H 0.7833 0.62219 0.95724 0.0
H618 H 0.79157 0.70435 0.89608 0.0
H619 H 0.75163 0.70166 0.88683 0.0
H620 H 0.71375 0.6224 0.89908 0.0
H621 H 0.75381 0.62531 0.90807 0.0
H622 H 0.83655 0.71177 0.86533 0.0
H623 H 0.82504 0.71312 0.82309 0.0
H624 H 0.7686 0.63406 0.81975 0.0
H625 H 0.78098 0.63273 0.86156 0.0
H626 H 0.88146 0.715 0.88716 0.0
H627 H 0.90371 0.71897 0.85106 0.0
H628 H 0.8561 0.63881 0.83134 0.0
H629 H 0.83372 0.6353 0.86687 0.0
O630 O 0.86379 0.68058 0.05575 0.0
O631 O 0.86133 0.64413 0.04404 0.0
O632 O 0.70424 0.67905 0.88313 0.0
O633 O 0.68387 0.63806 0.88851 0.0
C634 C 0.84612 0.67143 0.92278 0.0
C635 C 0.82915 0.66724 0.94035 0.0
C636 C 0.80592 0.6648 0.93377 0.0
C637 C 0.79981 0.66716 0.90969 0.0
C638 C 0.81665 0.67121 0.89211 0.0
C639 C 0.83967 0.67301 0.89861 0.0
C640 C 0.86979 0.67242 0.92997 0.0
C641 C 0.88698 0.69147 0.94727 0.0
C642 C 0.90488 0.68832 0.95998 0.0
C643 C 0.90635 0.66649 0.95499 0.0
C644 C 0.8908 0.64869 0.93602 0.0
C645 C 0.87248 0.65153 0.9237 0.0
C646 C 0.83568 0.66523 0.9658 0.0
C647 C 0.84065 0.68453 0.98364 0.0
C648 C 0.84802 0.68333 0.00733 0.0
C649 C 0.85054 0.6628 0.01359 0.0
C650 C 0.84517 0.6433 0.99569 0.0
C651 C 0.8377 0.64446 0.97204 0.0
C652 C 0.78762 0.6588 0.952 0.0
C653 C 0.77984 0.67586 0.95873 0.0
C654 C 0.76189 0.66966 0.9751 0.0
C655 C 0.75175 0.64647 0.98555 0.0
C656 C 0.76008 0.62969 0.97911 0.0
C657 C 0.77762 0.63568 0.96231 0.0
C658 C 0.77556 0.66506 0.90283 0.0
C659 C 0.77462 0.68639 0.89655 0.0
C660 C 0.75179 0.68481 0.89136 0.0
C661 C 0.72948 0.66184 0.89236 0.0
C662 C 0.73055 0.6404 0.89823 0.0
C663 C 0.7534 0.64199 0.90338 0.0
C664 C 0.80957 0.67217 0.86652 0.0
C665 C 0.82184 0.69473 0.85536 0.0
C666 C 0.81513 0.69548 0.83128 0.0
C667 C 0.7959 0.67368 0.81795 0.0
C668 C 0.78376 0.6511 0.82927 0.0
C669 C 0.79059 0.65034 0.85326 0.0
C670 C 0.85601 0.67487 0.87953 0.0
C671 C 0.87624 0.69828 0.87521 0.0
C672 C 0.88885 0.70051 0.8546 0.0
C673 C 0.88138 0.67929 0.83809 0.0
C674 C 0.86193 0.65565 0.84332 0.0
C675 C 0.84931 0.6535 0.86376 0.0
C676 C 0.85885 0.66184 0.03867 0.0
C677 C 0.70517 0.66026 0.88764 0.0
H678 H 0.83564 0.70482 0.33065 0.0
H679 H 0.97264 0.6416 0.51905 0.0
H680 H 0.83013 0.71051 0.46013 0.0
H681 H 0.79949 0.71707 0.43879 0.0
H682 H 0.74293 0.64015 0.4481 0.0
H683 H 0.77465 0.63325 0.46766 0.0
H684 H 0.86774 0.71064 0.43214 0.0
H685 H 0.86007 0.71547 0.3899 0.0
H686 H 0.79841 0.63857 0.38138 0.0
H687 H 0.80649 0.63388 0.42356 0.0
H688 H 0.90908 0.71084 0.46925 0.0
H689 H 0.94291 0.7229 0.44325 0.0
H690 H 0.89754 0.65429 0.39679 0.0
H691 H 0.86375 0.64195 0.42333 0.0
H692 H 0.90578 0.69877 0.52016 0.0
H693 H 0.94286 0.69775 0.53432 0.0
H694 H 0.91694 0.62809 0.4894 0.0
H695 H 0.8798 0.62919 0.47559 0.0
H696 H 0.85761 0.69469 0.54276 0.0
H697 H 0.86879 0.69353 0.58481 0.0
H698 H 0.86652 0.62289 0.56686 0.0
H699 H 0.85305 0.62317 0.5251 0.0
H700 H 0.8179 0.69787 0.51443 0.0
H701 H 0.79478 0.69624 0.54902 0.0
H702 H 0.77598 0.6189 0.55541 0.0
H703 H 0.79848 0.62046 0.52028 0.0
O704 O 0.83841 0.70246 0.34728 0.0
O705 O 0.80679 0.66288 0.34391 0.0
O706 O 0.97096 0.67866 0.53609 0.0
O707 O 0.95827 0.64262 0.51357 0.0
C708 C 0.8248 0.66649 0.47304 0.0
C709 C 0.84223 0.66882 0.45656 0.0
C710 C 0.86381 0.66852 0.46454 0.0
C711 C 0.86728 0.66433 0.48869 0.0
C712 C 0.84939 0.66095 0.50497 0.0
C713 C 0.828 0.6619 0.49713 0.0
C714 C 0.80469 0.67131 0.46509 0.0
C715 C 0.81104 0.69514 0.45775 0.0
C716 C 0.79333 0.6989 0.44569 0.0
C717 C 0.76856 0.67909 0.44135 0.0
C718 C 0.7619 0.65568 0.45043 0.0
C719 C 0.77989 0.65176 0.46201 0.0
C720 C 0.83781 0.67183 0.43084 0.0
C721 C 0.85273 0.69479 0.42105 0.0
C722 C 0.84823 0.69753 0.39695 0.0
C723 C 0.82865 0.67739 0.38225 0.0
C724 C 0.81367 0.65444 0.39219 0.0
C725 C 0.81824 0.65171 0.41626 0.0
C726 C 0.88407 0.67536 0.44838 0.0
C727 C 0.90648 0.69828 0.45358 0.0
C728 C 0.92572 0.70521 0.43867 0.0
C729 C 0.92281 0.68952 0.41803 0.0
C730 C 0.90015 0.66681 0.41249 0.0
C731 C 0.88096 0.65969 0.42766 0.0
C732 C 0.89002 0.66395 0.497 0.0
C733 C 0.9081 0.68325 0.51349 0.0
C734 C 0.92929 0.68266 0.52149 0.0
C735 C 0.93283 0.66279 0.51303 0.0
C736 C 0.91477 0.64362 0.49631 0.0
C737 C 0.89356 0.64422 0.48837 0.0
C738 C 0.85442 0.65898 0.53084 0.0
C739 C 0.85882 0.67859 0.54804 0.0
C740 C 0.86562 0.67808 0.57205 0.0
C741 C 0.86901 0.65833 0.57929 0.0
C742 C 0.86386 0.63828 0.5621 0.0
C743 C 0.85641 0.63851 0.53814 0.0
C744 C 0.80989 0.65928 0.51476 0.0
C745 C 0.80811 0.68031 0.52279 0.0
C746 C 0.79521 0.67946 0.54282 0.0
C747 C 0.78387 0.65757 0.55528 0.0
C748 C 0.78437 0.63601 0.54623 0.0
C749 C 0.79724 0.63687 0.52615 0.0
C750 C 0.82388 0.68037 0.35666 0.0
C751 C 0.95521 0.66194 0.52163 0.0
H752 H 0.31928 0.13602 0.33919 0.0
H753 H 0.38473 0.34093 0.53988 0.0
H754 H 0.30548 0.12413 0.46547 0.0
H755 H 0.29484 0.08217 0.44936 0.0
H756 H 0.36502 0.09463 0.48124 0.0
H757 H 0.37651 0.13788 0.49514 0.0
H758 H 0.30887 0.16144 0.43875 0.0
H759 H 0.30622 0.14955 0.39575 0.0
H760 H 0.38085 0.16239 0.40412 0.0
H761 H 0.38338 0.17459 0.44708 0.0
H762 H 0.30558 0.19595 0.47275 0.0
H763 H 0.29385 0.21945 0.44652 0.0
H764 H 0.36776 0.25744 0.42275 0.0
H765 H 0.37939 0.2336 0.44931 0.0
H766 H 0.31884 0.21486 0.52457 0.0
H767 H 0.32215 0.25502 0.53848 0.0
H768 H 0.39654 0.29524 0.51594 0.0
H769 H 0.39305 0.2549 0.50235 0.0
H770 H 0.31721 0.17371 0.55022 0.0
H771 H 0.31623 0.1919 0.58971 0.0
H772 H 0.39481 0.24573 0.59095 0.0
H773 H 0.39516 0.22796 0.55075 0.0
H774 H 0.31214 0.124 0.52364 0.0
H775 H 0.30977 0.09673 0.55494 0.0
H776 H 0.38724 0.14793 0.5779 0.0
H777 H 0.38962 0.17462 0.54585 0.0
O778 O 0.32078 0.14091 0.35624 0.0
O779 O 0.35916 0.14767 0.36152 0.0
O780 O 0.34464 0.3032 0.5459 0.0
O781 O 0.38291 0.32479 0.5345 0.0
C782 C 0.34848 0.16043 0.48927 0.0
C783 C 0.34827 0.17652 0.47214 0.0
C784 C 0.34993 0.19955 0.47996 0.0
C785 C 0.35396 0.20763 0.50469 0.0
C786 C 0.35514 0.19209 0.5218 0.0
C787 C 0.35207 0.16831 0.51417 0.0
C788 C 0.34198 0.13428 0.48102 0.0
C789 C 0.31874 0.11794 0.46863 0.0
C790 C 0.31249 0.09366 0.45983 0.0
C791 C 0.32898 0.08471 0.46399 0.0
C792 C 0.352 0.10092 0.4772 0.0
C793 C 0.35854 0.12558 0.48542 0.0
C794 C 0.34646 0.16925 0.44597 0.0
C795 C 0.32475 0.16201 0.43122 0.0
C796 C 0.32322 0.15505 0.40668 0.0
C797 C 0.34336 0.1551 0.39647 0.0
C798 C 0.36503 0.16221 0.41138 0.0
C799 C 0.36653 0.16919 0.43592 0.0
C800 C 0.34328 0.21316 0.46284 0.0
C801 C 0.31915 0.20916 0.46167 0.0
C802 C 0.31244 0.22241 0.44655 0.0
C803 C 0.32985 0.24011 0.43247 0.0
C804 C 0.35402 0.24389 0.43345 0.0
C805 C 0.36067 0.23036 0.4485 0.0
C806 C 0.3558 0.23203 0.51269 0.0
C807 C 0.33587 0.23238 0.52278 0.0
C808 C 0.3378 0.25533 0.53064 0.0
C809 C 0.35966 0.27835 0.52839 0.0
C810 C 0.37948 0.27787 0.518 0.0
C811 C 0.37754 0.25489 0.5102 0.0
C812 C 0.35623 0.19956 0.5477 0.0
C813 C 0.33432 0.189 0.55934 0.0
C814 C 0.33386 0.19945 0.58198 0.0
C815 C 0.35541 0.22052 0.59351 0.0
C816 C 0.37775 0.2299 0.5824 0.0
C817 C 0.3781 0.2196 0.55958 0.0
C818 C 0.35107 0.15119 0.53241 0.0
C819 C 0.32868 0.1291 0.5352 0.0
C820 C 0.32732 0.11369 0.55324 0.0
C821 C 0.34829 0.12024 0.56902 0.0
C822 C 0.37084 0.1422 0.56589 0.0
C823 C 0.3722 0.15755 0.54772 0.0
C824 C 0.34167 0.14769 0.37039 0.0
C825 C 0.36185 0.30279 0.53681 0.0
H826 H 0.79852 0.14804 0.3286 0.0
H827 H 0.00678 0.32295 0.50365 0.0
H828 H 0.78639 0.16977 0.4508 0.0
H829 H 0.75068 0.12992 0.43263 0.0
H830 H 0.77565 0.08805 0.47358 0.0
H831 H 0.812 0.12774 0.49071 0.0
H832 H 0.83093 0.2067 0.4226 0.0
H833 H 0.81704 0.18818 0.38092 0.0
H834 H 0.82156 0.12298 0.39932 0.0
H835 H 0.83579 0.1419 0.44083 0.0
H836 H 0.87982 0.25295 0.44754 0.0
H837 H 0.91238 0.27419 0.42042 0.0
H838 H 0.92339 0.21 0.41612 0.0
H839 H 0.89034 0.18871 0.44274 0.0
H840 H 0.88407 0.26497 0.5072 0.0
H841 H 0.92487 0.30332 0.51487 0.0
H842 H 0.95972 0.26034 0.49454 0.0
H843 H 0.91889 0.22207 0.48745 0.0
H844 H 0.8439 0.2296 0.54211 0.0
H845 H 0.8596 0.24233 0.58476 0.0
H846 H 0.9099 0.21429 0.57487 0.0
H847 H 0.89393 0.20139 0.53262 0.0
H848 H 0.79151 0.18321 0.51388 0.0
H849 H 0.76585 0.16235 0.54663 0.0
H850 H 0.81565 0.13568 0.56729 0.0
H851 H 0.84122 0.15689 0.53497 0.0
O852 O 0.80428 0.15513 0.34512 0.0
O853 O 0.80661 0.1219 0.3556 0.0
O854 O 0.9724 0.3281 0.51713 0.0
O855 O 0.99055 0.30787 0.50192 0.0
C856 C 0.82611 0.17509 0.4785 0.0
C857 C 0.84203 0.18658 0.46016 0.0
C858 C 0.86568 0.20807 0.46611 0.0
C859 C 0.87365 0.21802 0.49037 0.0
C860 C 0.85811 0.20613 0.50875 0.0
C861 C 0.83423 0.18477 0.50282 0.0
C862 C 0.80181 0.15167 0.47207 0.0
C863 C 0.78385 0.15202 0.45627 0.0
C864 C 0.76354 0.12938 0.44595 0.0
C865 C 0.76061 0.10619 0.4519 0.0
C866 C 0.77754 0.10583 0.46903 0.0
C867 C 0.79815 0.12844 0.4789 0.0
C868 C 0.83428 0.1756 0.43472 0.0
C869 C 0.82906 0.1885 0.41753 0.0
C870 C 0.82106 0.17783 0.39377 0.0
C871 C 0.81812 0.15406 0.38679 0.0
C872 C 0.82358 0.1413 0.40408 0.0
C873 C 0.83169 0.15203 0.4278 0.0
C874 C 0.88287 0.2194 0.44714 0.0
C875 C 0.88897 0.24334 0.44034 0.0
C876 C 0.90768 0.25547 0.425 0.0
C877 C 0.92072 0.24392 0.41635 0.0
C878 C 0.91361 0.21934 0.42226 0.0
C879 C 0.89479 0.20717 0.43751 0.0
C880 C 0.89853 0.24082 0.49654 0.0
C881 C 0.90056 0.26385 0.50466 0.0
C882 C 0.92387 0.28572 0.50896 0.0
C883 C 0.94554 0.28492 0.50509 0.0
C884 C 0.94341 0.26166 0.49749 0.0
C885 C 0.92011 0.23978 0.49341 0.0
C886 C 0.86785 0.21465 0.53434 0.0
C887 C 0.85833 0.22628 0.54924 0.0
C888 C 0.86735 0.2336 0.57349 0.0
C889 C 0.88586 0.22916 0.58315 0.0
C890 C 0.89538 0.21762 0.56804 0.0
C891 C 0.88646 0.21045 0.54388 0.0
C892 C 0.81832 0.17175 0.52224 0.0
C893 C 0.7968 0.17286 0.52556 0.0
C894 C 0.78215 0.16086 0.54418 0.0
C895 C 0.78882 0.14754 0.55975 0.0
C896 C 0.81026 0.14625 0.55603 0.0
C897 C 0.82485 0.15824 0.5375 0.0
C898 C 0.80934 0.14265 0.3616 0.0
C899 C 0.97025 0.30829 0.50853 0.0
H900 H 0.98797 0.52286 0.38875 0.0
H901 H 0.00886 0.35224 0.19665 0.0
H902 H 0.95165 0.51353 0.26122 0.0
H903 H 0.96089 0.55521 0.27874 0.0
H904 H 0.03179 0.58955 0.24861 0.0
H905 H 0.02259 0.54796 0.2315 0.0
H906 H 0.95473 0.47041 0.29191 0.0
H907 H 0.96187 0.48689 0.33424 0.0
H908 H 0.0351 0.54663 0.32127 0.0
H909 H 0.02783 0.52974 0.2791 0.0
H910 H 0.9556 0.42105 0.26755 0.0
H911 H 0.96831 0.39648 0.29138 0.0
H912 H 0.04405 0.45863 0.29759 0.0
H913 H 0.03107 0.48311 0.27409 0.0
H914 H 0.94391 0.41067 0.21005 0.0
H915 H 0.94515 0.37229 0.19856 0.0
H916 H 0.02463 0.41339 0.21583 0.0
H917 H 0.02312 0.45166 0.22693 0.0
H918 H 0.94036 0.44339 0.17464 0.0
H919 H 0.94087 0.42447 0.13482 0.0
H920 H 0.02071 0.46047 0.14581 0.0
H921 H 0.01995 0.47916 0.18516 0.0
H922 H 0.94297 0.50264 0.20067 0.0
H923 H 0.94296 0.52995 0.17007 0.0
H924 H 0.01619 0.54638 0.15379 0.0
H925 H 0.01639 0.52014 0.1849 0.0
O926 O 0.98555 0.51661 0.37197 0.0
O927 O 0.02296 0.54705 0.3643 0.0
O928 O 0.96697 0.34689 0.19223 0.0
O929 O 0.00782 0.36712 0.20106 0.0
C930 C 0.98322 0.50263 0.23846 0.0
C931 C 0.98615 0.48901 0.25676 0.0
C932 C 0.98601 0.46639 0.25055 0.0
C933 C 0.98256 0.45715 0.22614 0.0
C934 C 0.97998 0.47091 0.2079 0.0
C935 C 0.98026 0.49366 0.21398 0.0
C936 C 0.98644 0.52783 0.24508 0.0
C937 C 0.96888 0.53017 0.25795 0.0
C938 C 0.97417 0.5539 0.2679 0.0
C939 C 0.99715 0.57546 0.2652 0.0
C940 C 0.01407 0.57315 0.25117 0.0
C941 C 0.00875 0.54951 0.24118 0.0
C942 C 0.99066 0.49903 0.28244 0.0
C943 C 0.9723 0.48703 0.29828 0.0
C944 C 0.97643 0.49651 0.32243 0.0
C945 C 0.99903 0.51814 0.33113 0.0
C946 C 0.01746 0.52999 0.31516 0.0
C947 C 0.01332 0.52045 0.29105 0.0
C948 C 0.99243 0.45378 0.26912 0.0
C949 C 0.97478 0.42956 0.27467 0.0
C950 C 0.98213 0.41553 0.28807 0.0
C951 C 0.00726 0.42551 0.29605 0.0
C952 C 0.02456 0.45049 0.29187 0.0
C953 C 0.01718 0.4645 0.27847 0.0
C954 C 0.98338 0.43383 0.21946 0.0
C955 C 0.96154 0.4113 0.21132 0.0
C956 C 0.96232 0.38943 0.2048 0.0
C957 C 0.985 0.38976 0.20633 0.0
C958 C 0.00686 0.41245 0.21448 0.0
C959 C 0.00605 0.43431 0.22091 0.0
C960 C 0.98014 0.46277 0.18254 0.0
C961 C 0.95792 0.44759 0.16807 0.0
C962 C 0.95825 0.43668 0.14553 0.0
C963 C 0.98083 0.44105 0.13722 0.0
C964 C 0.00306 0.45709 0.1515 0.0
C965 C 0.00269 0.46776 0.17398 0.0
C966 C 0.97955 0.50916 0.19477 0.0
C967 C 0.95893 0.51212 0.19038 0.0
C968 C 0.95892 0.52762 0.17285 0.0
C969 C 0.97962 0.54046 0.15954 0.0
C970 C 0.0001 0.53714 0.16394 0.0
C971 C 0.00012 0.52183 0.18147 0.0
C972 C 0.00333 0.52821 0.35676 0.0
C973 C 0.98595 0.36659 0.19943 0.0
H974 H 0.48194 0.52299 0.38932 0.0
H975 H 0.35383 0.31294 0.18831 0.0
H976 H 0.49945 0.5303 0.26013 0.0
H977 H 0.53196 0.57098 0.2797 0.0
H978 H 0.58391 0.54407 0.27883 0.0
H979 H 0.55113 0.50334 0.25885 0.0
H980 H 0.4578 0.49239 0.286 0.0
H981 H 0.46238 0.50689 0.32863 0.0
H982 H 0.52102 0.48992 0.34116 0.0
H983 H 0.51604 0.47521 0.29852 0.0
H984 H 0.41757 0.44797 0.24752 0.0
H985 H 0.3829 0.42789 0.2726 0.0
H986 H 0.42559 0.4066 0.31863 0.0
H987 H 0.4601 0.42611 0.29292 0.0
H988 H 0.4224 0.43891 0.19809 0.0
H989 H 0.38529 0.39999 0.18106 0.0
H990 H 0.40984 0.3562 0.21976 0.0
H991 H 0.44706 0.39531 0.23643 0.0
H992 H 0.46519 0.48067 0.18091 0.0
H993 H 0.45543 0.46907 0.13776 0.0
H994 H 0.47445 0.41077 0.14427 0.0
H995 H 0.48318 0.42203 0.18789 0.0
H996 H 0.50771 0.52567 0.20948 0.0
H997 H 0.53442 0.55022 0.17904 0.0
H998 H 0.55976 0.49673 0.17022 0.0
H999 H 0.53325 0.47248 0.20119 0.0
O1000 O 0.48037 0.51707 0.37254 0.0
O1001 O 0.51048 0.50812 0.378 0.0
O1002 O 0.35668 0.35203 0.17512 0.0
O1003 O 0.36836 0.32863 0.19476 0.0
C1004 C 0.50247 0.48881 0.24842 0.0
C1005 C 0.48382 0.47393 0.26333 0.0
C1006 C 0.46239 0.45152 0.25338 0.0
C1007 C 0.46006 0.44354 0.22868 0.0
C1008 C 0.47883 0.45843 0.21386 0.0
C1009 C 0.5001 0.48101 0.22375 0.0
C1010 C 0.52299 0.51395 0.25829 0.0
C1011 C 0.51792 0.5333 0.26403 0.0
C1012 C 0.53643 0.5564 0.27532 0.0
C1013 C 0.56038 0.56056 0.28107 0.0
C1014 C 0.56565 0.5414 0.27452 0.0
C1015 C 0.54702 0.51819 0.26318 0.0
C1016 C 0.48644 0.48255 0.28926 0.0
C1017 C 0.47148 0.49165 0.29803 0.0
C1018 C 0.47421 0.5 0.32237 0.0
C1019 C 0.49204 0.49953 0.33832 0.0
C1020 C 0.50708 0.4905 0.32938 0.0
C1021 C 0.50429 0.4821 0.30505 0.0
C1022 C 0.44119 0.43814 0.26818 0.0
C1023 C 0.4193 0.43859 0.26276 0.0
C1024 C 0.39964 0.42733 0.27717 0.0
C1025 C 0.4017 0.41583 0.29753 0.0
C1026 C 0.42371 0.41559 0.30313 0.0
C1027 C 0.44328 0.42651 0.28842 0.0
C1028 C 0.43757 0.4199 0.21824 0.0
C1029 C 0.41987 0.42089 0.20265 0.0
C1030 C 0.39862 0.39863 0.19306 0.0
C1031 C 0.39462 0.37496 0.199 0.0
C1032 C 0.41236 0.37409 0.21476 0.0
C1033 C 0.43363 0.39638 0.22431 0.0
C1034 C 0.47476 0.45211 0.18743 0.0
C1035 C 0.46747 0.46556 0.17293 0.0
C1036 C 0.46214 0.45902 0.1482 0.0
C1037 C 0.46422 0.439 0.13739 0.0
C1038 C 0.47232 0.42606 0.15199 0.0
C1039 C 0.47742 0.43249 0.17687 0.0
C1040 C 0.5187 0.49742 0.20763 0.0
C1041 C 0.51947 0.51959 0.2014 0.0
C1042 C 0.53451 0.5334 0.18383 0.0
C1043 C 0.54898 0.52523 0.17209 0.0
C1044 C 0.54893 0.50355 0.17907 0.0
C1045 C 0.53381 0.48968 0.19667 0.0
C1046 C 0.49493 0.50847 0.36415 0.0
C1047 C 0.37205 0.35126 0.18887 0.0
H1048 H 0.52991 0.00516 0.40274 0.0
H1049 H 0.33018 0.96078 0.20895 0.0
H1050 H 0.54847 0.02841 0.27653 0.0
H1051 H 0.58078 0.02362 0.29794 0.0
H1052 H 0.54483 0.94571 0.26844 0.0
H1053 H 0.51268 0.95074 0.2469 0.0
H1054 H 0.50346 0.02445 0.30745 0.0
H1055 H 0.51571 0.02338 0.34949 0.0
H1056 H 0.50247 0.94776 0.33292 0.0
H1057 H 0.48987 0.94893 0.29106 0.0
H1058 H 0.44973 0.01742 0.28074 0.0
H1059 H 0.41835 0.00829 0.30896 0.0
H1060 H 0.41276 0.93607 0.31803 0.0
H1061 H 0.44256 0.94459 0.28816 0.0
H1062 H 0.45378 0.02704 0.226 0.0
H1063 H 0.41456 0.02513 0.21474 0.0
H1064 H 0.37466 0.94592 0.22714 0.0
H1065 H 0.41404 0.94805 0.23817 0.0
H1066 H 0.49994 0.0334 0.19658 0.0
H1067 H 0.4887 0.0371 0.1549 0.0
H1068 H 0.42838 0.95961 0.1499 0.0
H1069 H 0.44024 0.95593 0.19114 0.0
H1070 H 0.54647 0.03085 0.2226 0.0
H1071 H 0.57138 0.03392 0.18894 0.0
H1072 H 0.51267 0.9606 0.15779 0.0
H1073 H 0.48893 0.95719 0.19202 0.0
O1074 O 0.52481 0.00511 0.38607 0.0
O1075 O 0.51798 0.96636 0.37655 0.0
O1076 O 0.36732 0.00311 0.20839 0.0
O1077 O 0.34595 0.96201 0.21316 0.0
C1078 C 0.50565 0.99072 0.25293 0.0
C1079 C 0.4892 0.98797 0.2706 0.0
C1080 C 0.46645 0.98657 0.26403 0.0
C1081 C 0.46058 0.989 0.23991 0.0
C1082 C 0.47726 0.99228 0.22232 0.0
C1083 C 0.49963 0.99265 0.22874 0.0
C1084 C 0.52835 0.98995 0.26011 0.0
C1085 C 0.54812 0.01061 0.27399 0.0
C1086 C 0.56643 0.00779 0.28631 0.0
C1087 C 0.56506 0.98419 0.28508 0.0
C1088 C 0.54611 0.964 0.26991 0.0
C1089 C 0.52798 0.96693 0.25735 0.0
C1090 C 0.49598 0.98686 0.29621 0.0
C1091 C 0.50313 0.00765 0.31299 0.0
C1092 C 0.51016 0.007 0.33696 0.0
C1093 C 0.51016 0.98552 0.34456 0.0
C1094 C 0.50276 0.96462 0.32767 0.0
C1095 C 0.49564 0.96527 0.30374 0.0
C1096 C 0.44841 0.98167 0.28233 0.0
C1097 C 0.44159 -0.00042 0.28874 0.0
C1098 C 0.42385 0.99441 0.30518 0.0
C1099 C 0.41296 0.97141 0.316 0.0
C1100 C 0.42034 0.95377 0.30986 0.0
C1101 C 0.43766 0.95875 0.29301 0.0
C1102 C 0.43673 0.98771 0.23294 0.0
C1103 C 0.43655 0.00928 0.22619 0.0
C1104 C 0.41412 0.00815 0.21982 0.0
C1105 C 0.39146 0.98537 0.22009 0.0
C1106 C 0.39176 0.96376 0.22676 0.0
C1107 C 0.41421 0.96492 0.23312 0.0
C1108 C 0.47081 0.99445 0.19691 0.0
C1109 C 0.48442 0.01722 0.18636 0.0
C1110 C 0.47789 0.01932 0.16263 0.0
C1111 C 0.45765 0.99865 0.14905 0.0
C1112 C 0.44429 0.97578 0.15968 0.0
C1113 C 0.45085 0.9737 0.18333 0.0
C1114 C 0.5159 0.99379 0.20975 0.0
C1115 C 0.53933 0.01528 0.2087 0.0
C1116 C 0.55336 0.01713 0.18928 0.0
C1117 C 0.54409 0.99755 0.17051 0.0
C1118 C 0.52074 0.97588 0.17201 0.0
C1119 C 0.50698 0.97393 0.19151 0.0
C1120 C 0.51786 0.98498 0.36999 0.0
C1121 C 0.36758 0.98412 0.2135 0.0
H1122 H 0.48325 0.03558 0.66855 0.0
H1123 H 0.64439 0.99249 0.8692 0.0
H1124 H 0.48672 0.04391 0.81035 0.0
H1125 H 0.45499 0.04892 0.78823 0.0
H1126 H 0.41503 0.96907 0.76505 0.0
H1127 H 0.44687 0.96422 0.78749 0.0
H1128 H 0.5123 0.04647 0.7716 0.0
H1129 H 0.50204 0.04932 0.72947 0.0
H1130 H 0.48222 0.97149 0.71271 0.0
H1131 H 0.49225 0.96883 0.75502 0.0
H1132 H 0.55741 0.05064 0.78006 0.0
H1133 H 0.58701 0.06059 0.74984 0.0
H1134 H 0.57778 0.98591 0.75151 0.0
H1135 H 0.54631 0.97549 0.7799 0.0
H1136 H 0.57642 0.04536 0.84284 0.0
H1137 H 0.61557 0.04966 0.85908 0.0
H1138 H 0.58622 0.96993 0.83989 0.0
H1139 H 0.54724 0.96596 0.82373 0.0
H1140 H 0.52724 0.03261 0.87865 0.0
H1141 H 0.53791 0.0302 0.92057 0.0
H1142 H 0.53301 0.95853 0.90097 0.0
H1143 H 0.5198 0.96004 0.85959 0.0
H1144 H 0.48667 0.03454 0.85282 0.0
H1145 H 0.46297 0.03166 0.88716 0.0
H1146 H 0.44227 0.95332 0.88983 0.0
H1147 H 0.46532 0.95617 0.85471 0.0
O1148 O 0.48726 0.03405 0.68511 0.0
O1149 O 0.47763 0.9941 0.67736 0.0
O1150 O 0.64456 0.03285 0.86976 0.0
O1151 O 0.62952 0.99157 0.86204 0.0
C1152 C 0.49094 0.00218 0.80888 0.0
C1153 C 0.50824 0.00533 0.79205 0.0
C1154 C 0.5305 0.00611 0.79949 0.0
C1155 C 0.53501 0.00268 0.82363 0.0
C1156 C 0.51734 0.9987 0.84034 0.0
C1157 C 0.4953 0.99859 0.833 0.0
C1158 C 0.46884 0.00363 0.80083 0.0
C1159 C 0.47062 0.02734 0.80128 0.0
C1160 C 0.45274 0.03024 0.7883 0.0
C1161 C 0.43274 0.00944 0.7747 0.0
C1162 C 0.43019 0.98539 0.77549 0.0
C1163 C 0.44822 0.98254 0.78839 0.0
C1164 C 0.50279 0.00738 0.76634 0.0
C1165 C 0.50562 0.03003 0.75881 0.0
C1166 C 0.49981 0.03162 0.73473 0.0
C1167 C 0.49124 0.01061 0.71773 0.0
C1168 C 0.48872 0.98801 0.72535 0.0
C1169 C 0.49447 0.98644 0.74946 0.0
C1170 C 0.54975 0.01237 0.78226 0.0
C1171 C 0.56166 0.03639 0.77369 0.0
C1172 C 0.57885 0.04211 0.75656 0.0
C1173 C 0.58504 0.02414 0.74807 0.0
C1174 C 0.57325 0.00016 0.75709 0.0
C1175 C 0.55555 0.99425 0.77375 0.0
C1176 C 0.55913 0.0054 0.83204 0.0
C1177 C 0.57862 0.02893 0.84198 0.0
C1178 C 0.6009 0.03129 0.85128 0.0
C1179 C 0.60399 0.0101 0.85084 0.0
C1180 C 0.58446 0.98661 0.84055 0.0
C1181 C 0.56222 0.9843 0.83122 0.0
C1182 C 0.52292 0.99659 0.86602 0.0
C1183 C 0.52796 0.01614 0.88356 0.0
C1184 C 0.53442 0.01486 0.90751 0.0
C1185 C 0.5368 0.99435 0.91432 0.0
C1186 C 0.53114 0.9745 0.89667 0.0
C1187 C 0.52397 0.97549 0.87284 0.0
C1188 C 0.47744 0.99548 0.851 0.0
C1189 C 0.47627 0.01651 0.86021 0.0
C1190 C 0.46309 0.01493 0.88015 0.0
C1191 C 0.45099 0.99234 0.89146 0.0
C1192 C 0.45122 0.97094 0.88147 0.0
C1193 C 0.46437 0.97252 0.86142 0.0
C1194 C 0.48495 0.01232 0.69218 0.0
C1195 C 0.6273 0.01231 0.8614 0.0
H1196 H 0.96845 0.46458 0.67602 0.0
H1197 H 0.01971 0.65905 0.88026 0.0
H1198 H 0.96066 0.44932 0.80194 0.0
H1199 H 0.95263 0.40878 0.78425 0.0
H1200 H 0.02532 0.42587 0.81352 0.0
H1201 H 0.0341 0.46783 0.82888 0.0
H1202 H 0.96015 0.48708 0.77712 0.0
H1203 H 0.95651 0.47618 0.73377 0.0
H1204 H 0.03228 0.4921 0.73889 0.0
H1205 H 0.03579 0.50329 0.78222 0.0
H1206 H 0.95607 0.52135 0.81162 0.0
H1207 H 0.94488 0.54672 0.78732 0.0
H1208 H 0.01877 0.58504 0.76358 0.0
H1209 H 0.0298 0.55938 0.78799 0.0
H1210 H 0.96917 0.53362 0.86783 0.0
H1211 H 0.96776 0.57093 0.88317 0.0
H1212 H 0.03696 0.61894 0.85296 0.0
H1213 H 0.03832 0.58148 0.83805 0.0
H1214 H 0.97733 0.49275 0.89314 0.0
H1215 H 0.97819 0.50933 0.93401 0.0
H1216 H 0.04675 0.57762 0.92389 0.0
H1217 H 0.04682 0.55973 0.88393 0.0
H1218 H 0.97039 0.44824 0.85958 0.0
H1219 H 0.97135 0.42145 0.88986 0.0
H1220 H 0.04795 0.47707 0.91177 0.0
H1221 H 0.04706 0.50341 0.88066 0.0
O1222 O 0.97035 0.46913 0.69319 0.0
O1223 O 0.00935 0.47748 0.6968 0.0
O1224 O 0.98442 0.61848 0.88985 0.0
O1225 O 0.01982 0.64398 0.87442 0.0
C1226 C 0.00298 0.48715 0.82549 0.0
C1227 C 0.00069 0.50286 0.80917 0.0
C1228 C 0.00064 0.52475 0.81799 0.0
C1229 C 0.00484 0.53216 0.8429 0.0
C1230 C 0.00876 0.5174 0.85921 0.0
C1231 C 0.00733 0.49458 0.85055 0.0
C1232 C 0.99814 0.46177 0.8163 0.0
C1233 C 0.97502 0.44448 0.80418 0.0
C1234 C 0.97029 0.42098 0.79447 0.0
C1235 C 0.98824 0.41371 0.79743 0.0
C1236 C 0.01118 0.43085 0.81035 0.0
C1237 C 0.01618 0.45478 0.81944 0.0
C1238 C 0.99835 0.49631 0.78277 0.0
C1239 C 0.97605 0.48852 0.76881 0.0
C1240 C 0.97397 0.48214 0.74406 0.0
C1241 C 0.99413 0.48334 0.73284 0.0
C1242 C 0.01642 0.49103 0.74694 0.0
C1243 C 0.01847 0.49744 0.77168 0.0
C1244 C 0.99372 0.53868 0.80152 0.0
C1245 C 0.9697 0.53499 0.80088 0.0
C1246 C 0.96331 0.54934 0.78693 0.0
C1247 C 0.98098 0.56778 0.77361 0.0
C1248 C 0.00489 0.57099 0.77381 0.0
C1249 C 0.01118 0.55639 0.7876 0.0
C1250 C 0.0039 0.55488 0.85193 0.0
C1251 C 0.98405 0.55223 0.86464 0.0
C1252 C 0.98327 0.57356 0.87332 0.0
C1253 C 0.00227 0.59794 0.8693 0.0
C1254 C 0.02204 0.60047 0.85639 0.0
C1255 C 0.02284 0.57911 0.8478 0.0
C1256 C 0.01197 0.52505 0.88548 0.0
C1257 C 0.99308 0.51081 0.90014 0.0
C1258 C 0.99338 0.5206 0.92339 0.0
C1259 C 0.01219 0.54518 0.93217 0.0
C1260 C 0.03201 0.55861 0.91798 0.0
C1261 C 0.03203 0.54848 0.89498 0.0
C1262 C 0.00866 0.47773 0.86789 0.0
C1263 C 0.98751 0.45442 0.87061 0.0
C1264 C 0.98804 0.43927 0.88807 0.0
C1265 C 0.00967 0.44726 0.90335 0.0
C1266 C 0.03108 0.47031 0.90013 0.0
C1267 C 0.03057 0.48544 0.88252 0.0
C1268 C 0.99184 0.4765 0.70655 0.0
C1269 C 0.00154 0.62067 0.87851 0.0
H1270 H 0.46758 0.48389 0.66587 0.0
H1271 H 0.67431 0.6626 0.83972 0.0
H1272 H 0.45377 0.49972 0.79199 0.0
H1273 H 0.41982 0.45867 0.77406 0.0
H1274 H 0.45573 0.42169 0.80658 0.0
H1275 H 0.48964 0.46274 0.8242 0.0
H1276 H 0.49745 0.53982 0.7612 0.0
H1277 H 0.4838 0.52207 0.71927 0.0
H1278 H 0.49613 0.46071 0.73448 0.0
H1279 H 0.51004 0.47886 0.77624 0.0
H1280 H 0.54942 0.58805 0.78421 0.0
H1281 H 0.5822 0.6094 0.75729 0.0
H1282 H 0.59378 0.54559 0.75367 0.0
H1283 H 0.56067 0.52426 0.7802 0.0
H1284 H 0.55156 0.59972 0.84381 0.0
H1285 H 0.59143 0.63924 0.85114 0.0
H1286 H 0.62932 0.59916 0.83145 0.0
H1287 H 0.58942 0.55973 0.8247 0.0
H1288 H 0.51175 0.56246 0.8791 0.0
H1289 H 0.52715 0.57563 0.92181 0.0
H1290 H 0.58108 0.55232 0.912 0.0
H1291 H 0.56549 0.53905 0.8697 0.0
H1292 H 0.45987 0.51203 0.85055 0.0
H1293 H 0.43406 0.48741 0.88177 0.0
H1294 H 0.4902 0.46958 0.90416 0.0
H1295 H 0.51528 0.49336 0.87255 0.0
O1296 O 0.47319 0.49067 0.68249 0.0
O1297 O 0.47969 0.45945 0.69129 0.0
O1298 O 0.63889 0.6659 0.85313 0.0
O1299 O 0.65845 0.64705 0.83821 0.0
C1300 C 0.49701 0.50885 0.81566 0.0
C1301 C 0.51238 0.52117 0.79725 0.0
C1302 C 0.53555 0.54329 0.80313 0.0
C1303 C 0.54326 0.55343 0.82739 0.0
C1304 C 0.52802 0.541 0.84581 0.0
C1305 C 0.50482 0.51867 0.83996 0.0
C1306 C 0.47409 0.48412 0.80936 0.0
C1307 C 0.4539 0.48265 0.79576 0.0
C1308 C 0.43459 0.45925 0.78555 0.0
C1309 C 0.43536 0.4371 0.78873 0.0
C1310 C 0.45487 0.43854 0.80361 0.0
C1311 C 0.47407 0.46188 0.81389 0.0
C1312 C 0.50454 0.51052 0.77175 0.0
C1313 C 0.49725 0.52259 0.75539 0.0
C1314 C 0.48943 0.51238 0.73148 0.0
C1315 C 0.4888 0.48991 0.72353 0.0
C1316 C 0.49633 0.47799 0.74001 0.0
C1317 C 0.50422 0.48827 0.76388 0.0
C1318 C 0.55278 0.5547 0.78419 0.0
C1319 C 0.55874 0.57854 0.7772 0.0
C1320 C 0.57757 0.59073 0.76198 0.0
C1321 C 0.59081 0.57931 0.75357 0.0
C1322 C 0.58383 0.55482 0.75963 0.0
C1323 C 0.56496 0.54263 0.77482 0.0
C1324 C 0.5676 0.57694 0.83349 0.0
C1325 C 0.56852 0.59949 0.84134 0.0
C1326 C 0.5913 0.62203 0.84545 0.0
C1327 C 0.61354 0.62238 0.84164 0.0
C1328 C 0.61254 0.59959 0.83434 0.0
C1329 C 0.58978 0.57705 0.83046 0.0
C1330 C 0.53759 0.5499 0.87137 0.0
C1331 C 0.52693 0.56031 0.88626 0.0
C1332 C 0.53577 0.56787 0.91053 0.0
C1333 C 0.55519 0.56483 0.92022 0.0
C1334 C 0.56587 0.55456 0.90512 0.0
C1335 C 0.55716 0.54718 0.88094 0.0
C1336 C 0.48949 0.50457 0.85936 0.0
C1337 C 0.46653 0.5028 0.86227 0.0
C1338 C 0.45191 0.48889 0.88019 0.0
C1339 C 0.46001 0.47644 0.8954 0.0
C1340 C 0.48321 0.4786 0.89254 0.0
C1341 C 0.49771 0.49239 0.87464 0.0
C1342 C 0.48031 0.47902 0.69817 0.0
C1343 C 0.63767 0.64644 0.8448 0.0
H1344 H 0.65192 0.86011 0.7239 0.0
H1345 H 0.66358 0.68004 0.53699 0.0
H1346 H 0.62192 0.85431 0.59368 0.0
H1347 H 0.63206 0.89719 0.60818 0.0
H1348 H 0.70511 0.92719 0.58325 0.0
H1349 H 0.69484 0.88438 0.56878 0.0
H1350 H 0.62104 0.80883 0.62654 0.0
H1351 H 0.62699 0.82507 0.66881 0.0
H1352 H 0.70212 0.88255 0.65856 0.0
H1353 H 0.696 0.86592 0.61641 0.0
H1354 H 0.62137 0.75802 0.60484 0.0
H1355 H 0.63361 0.73311 0.62874 0.0
H1356 H 0.70986 0.79416 0.63389 0.0
H1357 H 0.69737 0.81891 0.61041 0.0
H1358 H 0.60769 0.74804 0.5473 0.0
H1359 H 0.60521 0.70751 0.53704 0.0
H1360 H 0.6844 0.74294 0.55425 0.0
H1361 H 0.68663 0.78338 0.56412 0.0
H1362 H 0.6076 0.78184 0.51075 0.0
H1363 H 0.60707 0.76296 0.47048 0.0
H1364 H 0.68613 0.79318 0.48204 0.0
H1365 H 0.68641 0.81168 0.52191 0.0
H1366 H 0.61485 0.84316 0.53595 0.0
H1367 H 0.61654 0.8699 0.50416 0.0
H1368 H 0.68768 0.88001 0.48776 0.0
H1369 H 0.68639 0.85467 0.52034 0.0
O1370 O 0.64998 0.85398 0.70713 0.0
O1371 O 0.68841 0.88326 0.70088 0.0
O1372 O 0.62341 0.67858 0.53195 0.0
O1373 O 0.66403 0.69583 0.54085 0.0
C1374 C 0.65289 0.84048 0.57414 0.0
C1375 C 0.65416 0.82635 0.59279 0.0
C1376 C 0.65252 0.80288 0.58706 0.0
C1377 C 0.64863 0.79307 0.56279 0.0
C1378 C 0.64745 0.80721 0.54421 0.0
C1379 C 0.6497 0.831 0.5498 0.0
C1380 C 0.65764 0.86637 0.58018 0.0
C1381 C 0.63992 0.87024 0.59099 0.0
C1382 C 0.64571 0.89464 0.59919 0.0
C1383 C 0.6694 0.91539 0.5969 0.0
C1384 C 0.68681 0.91147 0.58537 0.0
C1385 C 0.68092 0.88714 0.57697 0.0
C1386 C 0.65798 0.83637 0.61839 0.0
C1387 C 0.63875 0.82493 0.63348 0.0
C1388 C 0.64221 0.83426 0.6576 0.0
C1389 C 0.66501 0.85517 0.66705 0.0
C1390 C 0.68431 0.86648 0.65185 0.0
C1391 C 0.68083 0.85709 0.62775 0.0
C1392 C 0.65849 0.79021 0.60592 0.0
C1393 C 0.64056 0.76623 0.61179 0.0
C1394 C 0.64765 0.75198 0.62521 0.0
C1395 C 0.67278 0.76153 0.63291 0.0
C1396 C 0.69036 0.78632 0.62844 0.0
C1397 C 0.68325 0.80053 0.61505 0.0
C1398 C 0.64729 0.76854 0.5566 0.0
C1399 C 0.62446 0.74697 0.5488 0.0
C1400 C 0.62311 0.72387 0.54299 0.0
C1401 C 0.64462 0.72197 0.54489 0.0
C1402 C 0.66749 0.74372 0.55263 0.0
C1403 C 0.66881 0.76682 0.55835 0.0
C1404 C 0.64709 0.79827 0.51899 0.0
C1405 C 0.62479 0.78467 0.50429 0.0
C1406 C 0.6245 0.77382 0.48148 0.0
C1407 C 0.64658 0.77677 0.47315 0.0
C1408 C 0.66891 0.79097 0.48781 0.0
C1409 C 0.66912 0.8015 0.51057 0.0
C1410 C 0.65033 0.8467 0.53021 0.0
C1411 C 0.63077 0.85124 0.52545 0.0
C1412 C 0.63172 0.86638 0.50718 0.0
C1413 C 0.65225 0.87716 0.49332 0.0
C1414 C 0.67175 0.87242 0.49824 0.0
C1415 C 0.6709 0.85758 0.51664 0.0
C1416 C 0.6686 0.86506 0.69268 0.0
C1417 C 0.64328 0.69746 0.53882 0.0
H1418 H 0.15656 0.85231 0.72624 0.0
H1419 H 0.01698 0.64731 0.52034 0.0
H1420 H 0.16689 0.86162 0.59404 0.0
H1421 H 0.19977 0.90225 0.61325 0.0
H1422 H 0.25121 0.87471 0.61187 0.0
H1423 H 0.21801 0.83401 0.59213 0.0
H1424 H 0.12813 0.82506 0.62292 0.0
H1425 H 0.13478 0.83856 0.666 0.0
H1426 H 0.19056 0.81693 0.67382 0.0
H1427 H 0.18352 0.80325 0.63073 0.0
H1428 H 0.08714 0.7848 0.58909 0.0
H1429 H 0.05446 0.76495 0.61643 0.0
H1430 H 0.09389 0.73184 0.64971 0.0
H1431 H 0.12656 0.7518 0.62217 0.0
H1432 H 0.08694 0.7731 0.53638 0.0
H1433 H 0.04885 0.73521 0.51916 0.0
H1434 H 0.07435 0.6885 0.55058 0.0
H1435 H 0.11249 0.72658 0.56746 0.0
H1436 H 0.12818 0.81191 0.51613 0.0
H1437 H 0.11731 0.80057 0.47299 0.0
H1438 H 0.13907 0.74406 0.47698 0.0
H1439 H 0.1488 0.75494 0.52057 0.0
H1440 H 0.17292 0.85687 0.54303 0.0
H1441 H 0.19912 0.88135 0.51223 0.0
H1442 H 0.22474 0.82811 0.50297 0.0
H1443 H 0.19868 0.80391 0.53423 0.0
O1444 O 0.15414 0.84675 0.70926 0.0
O1445 O 0.18272 0.83539 0.7123 0.0
O1446 O 0.01997 0.68748 0.51055 0.0
O1447 O 0.03179 0.66261 0.52705 0.0
C1448 C 0.16935 0.81993 0.58223 0.0
C1449 C 0.15131 0.80497 0.59761 0.0
C1450 C 0.12934 0.783 0.58796 0.0
C1451 C 0.12577 0.77551 0.56306 0.0
C1452 C 0.14405 0.79028 0.54778 0.0
C1453 C 0.16589 0.81246 0.55738 0.0
C1454 C 0.19014 0.84497 0.59189 0.0
C1455 C 0.18533 0.86447 0.59771 0.0
C1456 C 0.20406 0.88755 0.60882 0.0
C1457 C 0.22797 0.89152 0.61436 0.0
C1458 C 0.23298 0.87219 0.60772 0.0
C1459 C 0.21412 0.849 0.59653 0.0
C1460 C 0.15517 0.81295 0.6238 0.0
C1461 C 0.14161 0.82306 0.63402 0.0
C1462 C 0.14553 0.83085 0.65861 0.0
C1463 C 0.16317 0.82878 0.67337 0.0
C1464 C 0.1768 0.81874 0.66298 0.0
C1465 C 0.17282 0.81091 0.6384 0.0
C1466 C 0.10901 0.76949 0.60357 0.0
C1467 C 0.08858 0.77308 0.60216 0.0
C1468 C 0.07014 0.76202 0.61795 0.0
C1469 C 0.07177 0.74703 0.63527 0.0
C1470 C 0.09216 0.74324 0.63645 0.0
C1471 C 0.11075 0.75452 0.62077 0.0
C1472 C 0.10254 0.75253 0.55292 0.0
C1473 C 0.08432 0.75466 0.53937 0.0
C1474 C 0.06256 0.73299 0.52964 0.0
C1475 C 0.05859 0.70881 0.53342 0.0
C1476 C 0.07683 0.70681 0.54726 0.0
C1477 C 0.09861 0.72851 0.55693 0.0
C1478 C 0.13909 0.78411 0.52137 0.0
C1479 C 0.13073 0.7972 0.50759 0.0
C1480 C 0.12477 0.79083 0.48287 0.0
C1481 C 0.12735 0.7714 0.47137 0.0
C1482 C 0.13651 0.75885 0.48525 0.0
C1483 C 0.14218 0.76507 0.5101 0.0
C1484 C 0.18406 0.82875 0.54091 0.0
C1485 C 0.1846 0.85081 0.53472 0.0
C1486 C 0.19936 0.86459 0.51697 0.0
C1487 C 0.21379 0.85649 0.50505 0.0
C1488 C 0.21394 0.83488 0.51197 0.0
C1489 C 0.19908 0.82104 0.52973 0.0
C1490 C 0.16734 0.83714 0.69948 0.0
C1491 C 0.03559 0.68573 0.52297 0.0
H1492 H 0.20075 0.34687 0.73884 0.0
H1493 H 0.99911 0.29294 0.54713 0.0
H1494 H 0.21798 0.37105 0.61837 0.0
H1495 H 0.24986 0.36579 0.64023 0.0
H1496 H 0.2236 0.29438 0.59873 0.0
H1497 H 0.19089 0.29895 0.57785 0.0
H1498 H 0.17174 0.36555 0.64439 0.0
H1499 H 0.18408 0.36425 0.68633 0.0
H1500 H 0.1787 0.2923 0.66757 0.0
H1501 H 0.16597 0.29364 0.6258 0.0
H1502 H 0.11993 0.35794 0.61634 0.0
H1503 H 0.08768 0.34686 0.64392 0.0
H1504 H 0.08479 0.2757 0.65187 0.0
H1505 H 0.11554 0.28618 0.62265 0.0
H1506 H 0.12203 0.36749 0.56563 0.0
H1507 H 0.08118 0.3625 0.55573 0.0
H1508 H 0.04733 0.28175 0.55924 0.0
H1509 H 0.08834 0.28704 0.56893 0.0
H1510 H 0.1548 0.37453 0.5346 0.0
H1511 H 0.14005 0.37411 0.49316 0.0
H1512 H 0.11525 0.29429 0.48178 0.0
H1513 H 0.12782 0.29466 0.5238 0.0
H1514 H 0.21328 0.37813 0.55184 0.0
H1515 H 0.23844 0.3807 0.51849 0.0
H1516 H 0.19206 0.2999 0.50123 0.0
H1517 H 0.1683 0.29754 0.53517 0.0
O1518 O 0.19546 0.34681 0.72224 0.0
O1519 O 0.19278 0.31004 0.71157 0.0
O1520 O 0.03384 0.33706 0.54903 0.0
O1521 O 0.01555 0.29538 0.55017 0.0
C1522 C 0.17869 0.3348 0.58896 0.0
C1523 C 0.16175 0.33129 0.6064 0.0
C1524 C 0.13864 0.32893 0.59947 0.0
C1525 C 0.13269 0.33086 0.57523 0.0
C1526 C 0.14955 0.33442 0.55783 0.0
C1527 C 0.17241 0.33603 0.56461 0.0
C1528 C 0.20211 0.33541 0.59647 0.0
C1529 C 0.21956 0.35462 0.61348 0.0
C1530 C 0.23758 0.35155 0.62606 0.0
C1531 C 0.23888 0.32961 0.62118 0.0
C1532 C 0.22289 0.31147 0.60267 0.0
C1533 C 0.20444 0.31423 0.59053 0.0
C1534 C 0.16812 0.32978 0.63205 0.0
C1535 C 0.17306 0.34945 0.64944 0.0
C1536 C 0.18018 0.34869 0.67335 0.0
C1537 C 0.18249 0.32822 0.68028 0.0
C1538 C 0.17717 0.30836 0.66283 0.0
C1539 C 0.16994 0.3091 0.63896 0.0
C1540 C 0.12 0.32284 0.61737 0.0
C1541 C 0.11216 0.33989 0.62392 0.0
C1542 C 0.09394 0.33361 0.64001 0.0
C1543 C 0.08355 0.31034 0.65033 0.0
C1544 C 0.09195 0.29357 0.64407 0.0
C1545 C 0.10978 0.29965 0.62757 0.0
C1546 C 0.10809 0.32761 0.56784 0.0
C1547 C 0.10579 0.34872 0.56393 0.0
C1548 C 0.08243 0.34582 0.55841 0.0
C1549 C 0.06096 0.32171 0.55677 0.0
C1550 C 0.06345 0.30057 0.56038 0.0
C1551 C 0.08683 0.30351 0.56588 0.0
C1552 C 0.14237 0.33464 0.53215 0.0
C1553 C 0.14609 0.357 0.52306 0.0
C1554 C 0.13787 0.35672 0.49922 0.0
C1555 C 0.12625 0.33412 0.48384 0.0
C1556 C 0.12343 0.31196 0.49302 0.0
C1557 C 0.13097 0.31214 0.51701 0.0
C1558 C 0.189 0.33765 0.54584 0.0
C1559 C 0.20895 0.36101 0.54101 0.0
C1560 C 0.2231 0.36245 0.52181 0.0
C1561 C 0.21736 0.34052 0.50706 0.0
C1562 C 0.19747 0.31715 0.51236 0.0
C1563 C 0.18364 0.31574 0.53165 0.0
C1564 C 0.19052 0.32771 0.7056 0.0
C1565 C 0.03603 0.31862 0.55169 0.0
C1566 C 0.00305 0.42752 0.07966 0.0
C1567 C 0.98745 0.40124 0.07518 0.0
H1568 H 0.01272 0.46082 0.10243 0.0
C1569 C 0.96806 0.38845 0.08989 0.0
H1570 H 0.01798 0.43793 0.06843 0.0
C1571 C 0.96511 0.40161 0.10948 0.0
C1572 C 0.98147 0.42774 0.11459 0.0
H1573 H 0.95572 0.3682 0.08677 0.0
H1574 H 0.95076 0.39114 0.12125 0.0
C1575 C 6e-05 0.44064 0.09912 0.0
C1576 C 0.6003 0.55763 0.13049 0.0
C1577 C 0.58882 0.56527 0.11333 0.0
H1578 H 0.59668 0.53896 0.16278 0.0
C1579 C 0.56406 0.55886 0.1152 0.0
H1580 H 0.61937 0.56234 0.12948 0.0
C1581 C 0.55122 0.54566 0.13413 0.0
C1582 C 0.56278 0.53852 0.15167 0.0
H1583 H 0.55463 0.56434 0.10219 0.0
H1584 H 0.53214 0.54103 0.13503 0.0
C1585 C 0.58733 0.54426 0.1495 0.0
C1586 C 0.43132 0.9817 0.08375 0.0
C1587 C 0.42949 0.00287 0.07858 0.0
H1588 H 0.44216 0.964 0.10982 0.0
C1589 C 0.43902 0.02362 0.09601 0.0
H1590 H 0.42429 0.96548 0.07061 0.0
C1591 C 0.44904 0.02267 0.11863 0.0
C1592 C 0.44976 0.00096 0.12422 0.0
H1593 H 0.4378 0.04017 0.09256 0.0
H1594 H 0.45516 0.03847 0.13207 0.0
C1595 C 0.4414 0.98078 0.10628 0.0
C1596 C 0.44139 0.01227 0.9536 0.0
C1597 C 0.41835 0.99172 0.95801 0.0
H1598 H 0.4698 0.02837 0.92948 0.0
C1599 C 0.40625 0.97088 0.94062 0.0
H1600 H 0.45127 0.02856 0.96669 0.0
C1601 C 0.41682 0.97088 0.91902 0.0
C1602 C 0.43965 0.99175 0.91443 0.0
H1603 H 0.38842 0.95481 0.94348 0.0
H1604 H 0.40688 0.9548 0.90573 0.0
C1605 C 0.45192 0.01226 0.93214 0.0
C1606 C 0.02854 0.41464 0.94883 0.0
C1607 C 0.00786 0.40422 0.96241 0.0
H1608 H 0.0453 0.43634 0.91922 0.0
C1609 C 0.98798 0.408 0.95638 0.0
H1610 H 0.04412 0.41201 0.9531 0.0
C1611 C 0.98868 0.42187 0.93722 0.0
C1612 C 0.00925 0.43229 0.92351 0.0
H1613 H 0.97183 0.40033 0.96657 0.0
H1614 H 0.9732 0.42478 0.93338 0.0
C1615 C 0.02925 0.42862 0.92954 0.0
C1616 C 0.57983 0.56368 0.98304 0.0
C1617 C 0.58606 0.58755 0.99383 0.0
H1618 H 0.56489 0.53772 0.95142 0.0
C1619 C 0.58057 0.60334 0.98077 0.0
H1620 H 0.5837 0.55103 0.99268 0.0
C1621 C 0.56977 0.59568 0.95705 0.0
C1622 C 0.56445 0.57219 0.94598 0.0
H1623 H 0.58516 0.62184 0.98867 0.0
H1624 H 0.5664 0.60849 0.94709 0.0
C1625 C 0.56918 0.5561 0.95937 0.0
C1626 C 0.02827 0.59002 0.98864 0.0
C1627 C 0.00472 0.58539 0.99392 0.0
H1628 H 0.04916 0.58021 0.96571 0.0
C1629 C 0.98369 0.56635 0.97993 0.0
H1630 H 0.04478 0.6045 0.99929 0.0
C1631 C 0.98615 0.5529 0.9604 0.0
C1632 C 0.00972 0.55777 0.9546 0.0
H1633 H 0.96529 0.56249 0.98348 0.0
H1634 H 0.96952 0.53941 0.94928 0.0
C1635 C 0.03074 0.57618 0.96931 0.0
C1636 C 0.42885 0.42273 0.93512 0.0
C1637 C 0.41616 0.43084 0.94988 0.0
H1638 H 0.45205 0.43037 0.90621 0.0
C1639 C 0.41709 0.45372 0.94604 0.0
H1640 H 0.42833 0.40506 0.93744 0.0
C1641 C 0.43101 0.46848 0.92811 0.0
C1642 C 0.44421 0.46057 0.91375 0.0
H1643 H 0.40749 0.46044 0.95715 0.0
H1644 H 0.43194 0.48634 0.9259 0.0
C1645 C 0.44262 0.43734 0.91728 0.0
C1646 C 0.55071 0.97211 0.97245 0.0
C1647 C 0.56895 0.99508 0.98478 0.0
H1648 H 0.52541 0.95381 0.94105 0.0
C1649 C 0.57537 0.01774 0.97458 0.0
H1650 H 0.54536 0.95436 0.97999 0.0
C1651 C 0.56461 0.01746 0.95202 0.0
C1652 C 0.54669 0.9945 0.93924 0.0
H1653 H 0.58957 0.03575 0.98354 0.0
H1654 H 0.57118 0.0353 0.94429 0.0
C1655 C 0.53949 0.97184 0.95002 0.0
C1656 C 0.584 0.02399 0.1181 0.0
C1657 C 0.58177 0.00198 0.10657 0.0
H1658 H 0.57334 0.03987 0.14708 0.0
C1659 C 0.56839 0.979 0.11687 0.0
H1660 H 0.59427 0.04196 0.11053 0.0
C1661 C 0.55702 0.97786 0.138 0.0
C1662 C 0.55824 -0.00042 0.14917 0.0
H1663 H 0.56674 0.96178 0.10863 0.0
H1664 H 0.54717 0.95981 0.14549 0.0
C1665 C 0.57216 0.02278 0.13913 0.0
C1666 C 0.00414 0.59546 0.12085 0.0
C1667 C 0.98365 0.58851 0.10433 0.0
H1668 H 0.0187 0.58625 0.15152 0.0
C1669 C 0.96108 0.56648 0.10706 0.0
H1670 H 0.02171 0.61252 0.1194 0.0
C1671 C 0.95943 0.55108 0.12539 0.0
C1672 C 0.98031 0.55758 0.14133 0.0
H1673 H 0.945 0.56069 0.09454 0.0
H1674 H 0.94211 0.53367 0.12651 0.0
C1675 C 0.00246 0.58029 0.13918 0.0
C1676 C 0.43118 0.3963 0.08025 0.0
C1677 C 0.43264 0.41376 0.06422 0.0
H1678 H 0.4395 0.39047 0.11603 0.0
C1679 C 0.44728 0.43971 0.07138 0.0
H1680 H 0.41996 0.37615 0.07523 0.0
C1681 C 0.45899 0.448 0.0947 0.0
C1682 C 0.4559 0.43049 0.11145 0.0
H1683 H 0.4489 0.45358 0.05928 0.0
H1684 H 0.46971 0.46814 0.09985 0.0
C1685 C 0.44253 0.40455 0.10367 0.0
C1686 C 0.66774 0.76453 0.41443 0.0
C1687 C 0.65153 0.73844 0.40912 0.0
H1688 H 0.67847 0.79721 0.43863 0.0
C1689 C 0.63199 0.72551 0.42364 0.0
H1690 H 0.68282 0.77506 0.40341 0.0
C1691 C 0.62951 0.73827 0.44388 0.0
C1692 C 0.64658 0.76409 0.44986 0.0
H1693 H 0.61919 0.7054 0.41989 0.0
H1694 H 0.61503 0.72768 0.45548 0.0
C1695 C 0.66528 0.77722 0.43459 0.0
C1696 C 0.26467 0.88894 0.46305 0.0
C1697 C 0.25294 0.89635 0.44592 0.0
H1698 H 0.26146 0.8705 0.49542 0.0
C1699 C 0.22818 0.88983 0.44799 0.0
H1700 H 0.28376 0.89375 0.46189 0.0
C1701 C 0.21557 0.87672 0.46706 0.0
C1702 C 0.22737 0.86977 0.48454 0.0
H1703 H 0.21856 0.89514 0.43503 0.0
H1704 H 0.19648 0.87198 0.46811 0.0
C1705 C 0.25194 0.87564 0.48218 0.0
C1706 C 0.11646 0.35395 0.4224 0.0
C1707 C 0.09513 0.33191 0.41219 0.0
H1708 H 0.14375 0.37171 0.45245 0.0
C1709 C 0.0846 0.31052 0.42521 0.0
H1710 H 0.12495 0.3707 0.41269 0.0
C1711 C 0.09471 0.3113 0.44827 0.0
C1712 C 0.11609 0.33331 0.45877 0.0
H1713 H 0.06789 0.29338 0.41794 0.0
H1714 H 0.08517 0.29474 0.45806 0.0
C1715 C 0.12704 0.35454 0.44532 0.0
C1716 C 0.10923 0.34116 0.28422 0.0
C1717 C 0.08652 0.32058 0.28935 0.0
H1718 H 0.13676 0.35699 0.25916 0.0
C1719 C 0.07411 0.29944 0.27232 0.0
H1720 H 0.1193 0.35772 0.29697 0.0
C1721 C 0.08409 0.2991 0.25043 0.0
C1722 C 0.10658 0.31998 0.24513 0.0
H1723 H 0.05652 0.28334 0.27573 0.0
H1724 H 0.074 0.28272 0.23748 0.0
C1725 C 0.11912 0.34086 0.26241 0.0
C1726 C 0.69789 0.75209 0.28289 0.0
C1727 C 0.6769 0.74328 0.29597 0.0
H1728 H 0.71674 0.77304 0.25363 0.0
C1729 C 0.6586 0.74923 0.28941 0.0
H1730 H 0.71226 0.74775 0.28756 0.0
C1731 C 0.66119 0.7637 0.2702 0.0
C1732 C 0.68211 0.77254 0.25701 0.0
H1733 H 0.64226 0.74283 0.29922 0.0
H1734 H 0.64693 0.76832 0.26595 0.0
C1735 C 0.70048 0.76663 0.26356 0.0
C1736 C 0.24264 0.93541 0.31403 0.0
C1737 C 0.24822 0.91934 0.32649 0.0
H1738 H 0.22787 0.94106 0.28096 0.0
C1739 C 0.2415 0.89547 0.31531 0.0
H1740 H 0.24757 0.9539 0.32225 0.0
C1741 C 0.23034 0.8882 0.29181 0.0
C1742 C 0.22555 0.90458 0.279 0.0
H1743 H 0.24543 0.8826 0.32449 0.0
H1744 H 0.22578 0.86986 0.28349 0.0
C1745 C 0.23129 0.92804 0.29049 0.0
C1746 C 0.67288 0.90049 0.32247 0.0
C1747 C 0.68532 0.927 0.3254 0.0
H1748 H 0.66682 0.86758 0.3012 0.0
C1749 C 0.7026 0.94088 0.30918 0.0
H1750 H 0.65966 0.88935 0.33492 0.0
C1751 C 0.7063 0.92845 0.28952 0.0
C1752 C 0.69308 0.90186 0.28591 0.0
H1753 H 0.71238 0.96135 0.311 0.0
H1754 H 0.71862 0.93979 0.27654 0.0
C1755 C 0.6769 0.88805 0.30307 0.0
C1756 C 0.09262 0.75556 0.26777 0.0
C1757 C 0.07976 0.7633 0.28268 0.0
H1758 H 0.11538 0.76346 0.23847 0.0
C1759 C 0.07999 0.78583 0.27879 0.0
H1760 H 0.09261 0.73815 0.27011 0.0
C1761 C 0.09339 0.80062 0.26064 0.0
C1762 C 0.10673 0.79307 0.24609 0.0
H1763 H 0.07023 0.79225 0.29002 0.0
H1764 H 0.09379 0.81823 0.25841 0.0
C1765 C 0.10583 0.77017 0.24968 0.0
C1766 C 0.21346 0.30055 0.30885 0.0
C1767 C 0.22969 0.32395 0.32178 0.0
H1768 H 0.19042 0.28117 0.27635 0.0
C1769 C 0.23425 0.34622 0.31178 0.0
H1770 H 0.20959 0.28308 0.31619 0.0
C1771 C 0.22409 0.34525 0.28871 0.0
C1772 C 0.20854 0.32192 0.27517 0.0
H1773 H 0.24691 0.36458 0.32118 0.0
H1774 H 0.22956 0.36299 0.28116 0.0
C1775 C 0.20276 0.29953 0.28588 0.0
C1776 C 0.24582 0.32109 0.45787 0.0
C1777 C 0.2534 0.34093 0.44297 0.0
H1778 H 0.2298 0.306 0.49021 0.0
C1779 C 0.2509 0.36176 0.45011 0.0
H1780 H 0.24793 0.30499 0.453 0.0
C1781 C 0.23979 0.36206 0.47126 0.0
C1782 C 0.23139 0.34172 0.48583 0.0
H1783 H 0.25661 0.37729 0.43888 0.0
H1784 H 0.23698 0.37777 0.47568 0.0
C1785 C 0.23526 0.32162 0.47916 0.0
C1786 C 0.67813 0.92876 0.45052 0.0
C1787 C 0.65701 0.92273 0.43532 0.0
H1788 H 0.69306 0.91981 0.4811 0.0
C1789 C 0.63398 0.90228 0.43988 0.0
H1790 H 0.6961 0.94462 0.44762 0.0
C1791 C 0.63228 0.88763 0.45889 0.0
C1792 C 0.65356 0.89335 0.47384 0.0
H1793 H 0.61741 0.89719 0.4284 0.0
H1794 H 0.61443 0.87145 0.46143 0.0
C1795 C 0.6764 0.91439 0.46963 0.0
C1796 C 0.09489 0.72911 0.41383 0.0
C1797 C 0.09559 0.74652 0.39811 0.0
H1798 H 0.10379 0.72317 0.44935 0.0
C1799 C 0.10923 0.77243 0.4057 0.0
H1800 H 0.08443 0.70899 0.40849 0.0
C1801 C 0.12084 0.78067 0.42907 0.0
C1802 C 0.11867 0.76313 0.44544 0.0
H1803 H 0.11024 0.78627 0.39387 0.0
H1804 H 0.13088 0.80076 0.43451 0.0
C1805 C 0.10614 0.73729 0.43728 0.0
C1806 C 0.33659 0.0987 0.74625 0.0
C1807 C 0.31973 0.07288 0.74018 0.0
H1808 H 0.34696 0.13131 0.77043 0.0
C1809 C 0.29912 0.06031 0.75355 0.0
H1810 H 0.3525 0.10893 0.73607 0.0
C1811 C 0.29608 0.07304 0.77338 0.0
C1812 C 0.31351 0.09864 0.7801 0.0
H1813 H 0.28582 0.04039 0.74923 0.0
H1814 H 0.28069 0.06252 0.78406 0.0
C1815 C 0.33345 0.11148 0.76596 0.0
C1816 C 0.93156 0.21923 0.79292 0.0
C1817 C 0.92032 0.22814 0.77686 0.0
H1818 H 0.92803 0.19941 0.82444 0.0
C1819 C 0.89613 0.223 0.78002 0.0
H1820 H 0.95019 0.22293 0.7909 0.0
C1821 C 0.88366 0.20987 0.79914 0.0
C1822 C 0.89499 0.20138 0.81552 0.0
H1823 H 0.88689 0.22952 0.76792 0.0
H1824 H 0.86507 0.20633 0.80112 0.0
C1825 C 0.91891 0.20579 0.81205 0.0
C1826 C 0.77621 0.6952 0.76279 0.0
C1827 C 0.76759 0.67402 0.74604 0.0
H1828 H 0.79151 0.71158 0.7987 0.0
C1829 C 0.77024 0.65362 0.75241 0.0
H1830 H 0.77432 0.71117 0.75844 0.0
C1831 C 0.7803 0.65393 0.77543 0.0
C1832 C 0.78779 0.67457 0.79266 0.0
H1833 H 0.76388 0.63707 0.73985 0.0
H1834 H 0.7818 0.63776 0.77986 0.0
C1835 C 0.78614 0.69546 0.78587 0.0
C1836 C 0.77595 0.67971 0.6173 0.0
C1837 C 0.7537 0.65893 0.62304 0.0
H1838 H 0.80294 0.69545 0.59172 0.0
C1839 C 0.7414 0.63742 0.60642 0.0
H1840 H 0.78594 0.69655 0.62972 0.0
C1841 C 0.75107 0.63688 0.58438 0.0
C1842 C 0.77318 0.65787 0.5785 0.0
H1843 H 0.72415 0.62115 0.61028 0.0
H1844 H 0.74102 0.62019 0.57179 0.0
C1845 C 0.78558 0.67918 0.59536 0.0
C1846 C 0.32323 0.0809 0.62168 0.0
C1847 C 0.34214 0.07585 0.62831 0.0
H1848 H 0.31055 0.09914 0.59816 0.0
C1849 C 0.36321 0.08542 0.61529 0.0
H1850 H 0.3068 0.07391 0.63145 0.0
C1851 C 0.36527 0.09978 0.59595 0.0
C1852 C 0.34628 0.10479 0.58931 0.0
H1853 H 0.37805 0.08176 0.61999 0.0
H1854 H 0.38159 0.10671 0.58604 0.0
C1855 C 0.32529 0.09523 0.60246 0.0
C1856 C 0.91008 0.22735 0.64602 0.0
C1857 C 0.91723 0.25152 0.6567 0.0
H1858 H 0.89426 0.20125 0.61453 0.0
C1859 C 0.91264 0.26784 0.64352 0.0
H1860 H 0.91325 0.21429 0.65576 0.0
C1861 C 0.90176 0.26035 0.61981 0.0
C1862 C 0.89543 0.23648 0.60887 0.0
H1863 H 0.91795 0.28659 0.65132 0.0
H1864 H 0.89909 0.27354 0.60979 0.0
C1865 C 0.89933 0.21992 0.62237 0.0
C1866 C 0.36432 0.27332 0.63888 0.0
C1867 C 0.34716 0.25984 0.65535 0.0
H1868 H 0.37995 0.27159 0.60619 0.0
C1869 C 0.33405 0.23332 0.65244 0.0
H1870 H 0.3746 0.2938 0.64067 0.0
C1871 C 0.33758 0.22049 0.63301 0.0
C1872 C 0.35396 0.23393 0.61584 0.0
H1873 H 0.3209 0.22248 0.66506 0.0
H1874 H 0.32716 0.20002 0.63127 0.0
C1875 C 0.36754 0.26052 0.61922 0.0
C1876 C 0.77112 0.12135 0.62021 0.0
C1877 C 0.74514 0.10717 0.61661 0.0
H1878 H 0.80517 0.14571 0.60542 0.0
C1879 C 0.73338 0.10776 0.59478 0.0
H1880 H 0.78071 0.12145 0.63695 0.0
C1881 C 0.74748 0.12143 0.57647 0.0
C1882 C 0.77357 0.13482 0.57974 0.0
H1883 H 0.71336 0.09693 0.59151 0.0
H1884 H 0.73797 0.1207 0.55945 0.0
C1885 C 0.78516 0.13511 0.60206 0.0
C1886 C 0.90896 0.68466 0.63854 0.0
C1887 C 0.90263 0.66268 0.64999 0.0
H1888 H 0.90408 0.70049 0.60719 0.0
C1889 C 0.88428 0.63918 0.63863 0.0
H1890 H 0.92323 0.70304 0.64675 0.0
C1891 C 0.87275 0.6377 0.61599 0.0
C1892 C 0.87963 0.65969 0.60415 0.0
H1893 H 0.87901 0.62193 0.64713 0.0
H1894 H 0.8586 0.61933 0.60772 0.0
C1895 C 0.89778 0.68318 0.61585 0.0
C1896 C 0.92947 0.69705 0.7924 0.0
C1897 C 0.91456 0.6823 0.77159 0.0
H1898 H 0.93073 0.7074 0.83001 0.0
C1899 C 0.88874 0.66822 0.7724 0.0
H1900 H 0.94946 0.70802 0.79228 0.0
C1901 C 0.87806 0.66801 0.79379 0.0
C1902 C 0.89296 0.68163 0.81501 0.0
H1903 H 0.87675 0.65687 0.75657 0.0
H1904 H 0.85807 0.65682 0.79376 0.0
C1905 C 0.91875 0.69669 0.81397 0.0
C1906 C 0.30032 0.24504 0.77976 0.0
C1907 C 0.31868 0.25026 0.76384 0.0
H1908 H 0.28426 0.22738 0.81144 0.0
C1909 C 0.33397 0.2398 0.76682 0.0
H1910 H 0.28832 0.25294 0.77785 0.0
C1911 C 0.33138 0.22485 0.78561 0.0
C1912 C 0.31373 0.22034 0.80225 0.0
H1913 H 0.34805 0.24321 0.7546 0.0
H1914 H 0.34333 0.21687 0.78709 0.0
C1915 C 0.29796 0.23033 0.79891 0.0
C1916 C 0.74289 0.09611 0.74972 0.0
C1917 C 0.74691 0.08059 0.73345 0.0
H1918 H 0.75106 0.11497 0.78495 0.0
C1919 C 0.7638 0.07292 0.74048 0.0
H1920 H 0.72974 0.10206 0.7449 0.0
C1921 C 0.77659 0.08085 0.76342 0.0
C1922 C 0.77247 0.09633 0.77981 0.0
H1923 H 0.76725 0.06097 0.72821 0.0
H1924 H 0.78981 0.07499 0.76822 0.0
C1925 C 0.75532 0.10369 0.77267 0.0
C1926 C 0.05214 0.32933 0.06184 0.0
C1927 C 0.05478 0.35331 0.06083 0.0
H1928 H 0.06645 0.3074 0.07655 0.0
C1929 C 0.07363 0.37383 0.07559 0.0
H1930 H 0.03766 0.3132 0.05058 0.0
C1931 C 0.08947 0.37037 0.09138 0.0
C1932 C 0.08733 0.34644 0.09217 0.0
H1933 H 0.07567 0.39242 0.07544 0.0
H1934 H 0.10323 0.38652 0.10308 0.0
C1935 C 0.06846 0.32598 0.07705 0.0
C1936 C 0.6272 0.68525 0.10674 0.0
C1937 C 0.64545 0.6804 0.09893 0.0
H1938 H 0.61929 0.71161 0.12463 0.0
C1939 C 0.6705 0.69926 0.10305 0.0
H1940 H 0.60777 0.6708 0.10401 0.0
C1941 C 0.67717 0.72307 0.11396 0.0
C1942 C 0.65894 0.72826 0.1216 0.0
H1943 H 0.68489 0.6959 0.09702 0.0
H1944 H 0.69659 0.73754 0.11566 0.0
C1945 C 0.63388 0.70877 0.11835 0.0
C1946 C 0.31383 0.96754 0.06933 0.0
C1947 C 0.31915 0.95534 0.05051 0.0
H1948 H 0.28911 0.96432 0.09577 0.0
C1949 C 0.30224 0.92977 0.0433 0.0
H1950 H 0.3265 0.98724 0.07537 0.0
C1951 C 0.2805 0.9166 0.05494 0.0
C1952 C 0.27532 0.92883 0.07393 0.0
H1953 H 0.30584 0.91994 0.02878 0.0
H1954 H 0.26774 0.89688 0.04907 0.0
C1955 C 0.29223 0.95446 0.0809 0.0
C1956 C 0.34309 0.03559 0.97232 0.0
C1957 C 0.3617 0.04537 0.9915 0.0
H1958 H 0.32011 0.04241 0.94806 0.0
C1959 C 0.37091 0.0702 0.00165 0.0
H1960 H 0.33564 0.01652 0.96408 0.0
C1961 C 0.3617 0.08501 0.99264 0.0
C1962 C 0.34314 0.07522 0.97332 0.0
H1963 H 0.38516 0.07816 0.01655 0.0
H1964 H 0.36906 0.10409 0.0008 0.0
C1965 C 0.33396 0.05034 0.9633 0.0
C1966 C 0.92818 0.27911 0.99361 0.0
C1967 C 0.95228 0.29258 0.98631 0.0
H1968 H 0.89209 0.24632 0.98705 0.0
C1969 C 0.95865 0.28248 0.96656 0.0
H1970 H 0.92279 0.28633 0.00887 0.0
C1971 C 0.941 0.25955 0.95397 0.0
C1972 C 0.91669 0.24645 0.96089 0.0
H1973 H 0.97715 0.29248 0.96059 0.0
H1974 H 0.94616 0.25244 0.93845 0.0
C1975 C 0.91058 0.25627 0.98104 0.0
C1976 C 0.69296 0.60832 0.01693 0.0
C1977 C 0.69217 0.62742 0.03109 0.0
H1978 H 0.71183 0.59938 0.99075 0.0
C1979 C 0.71192 0.65239 0.03173 0.0
H1980 H 0.67779 0.58895 0.01596 0.0
C1981 C 0.73176 0.65836 0.01782 0.0
C1982 C 0.732 0.63958 0.00243 0.0
H1983 H 0.7118 0.66743 0.0427 0.0
H1984 H 0.74669 0.67784 0.01884 0.0
C1985 C 0.71255 0.61436 0.00253 0.0
C1986 C 0.95439 0.65021 0.97675 0.0
C1987 C 0.95097 0.64853 0.00145 0.0
H1988 H 0.94264 0.65697 0.94256 0.0
C1989 C 0.93309 0.65322 0.01079 0.0
H1990 H 0.96801 0.6466 0.96907 0.0
C1991 C 0.91902 0.65968 0.99571 0.0
C1992 C 0.92228 0.66106 0.97098 0.0
H1993 H 0.93013 0.65211 0.02976 0.0
H1994 H 0.90524 0.66314 0.00326 0.0
C1995 C 0.93994 0.65612 0.96159 0.0
C1996 C 0.36575 0.30187 0.97516 0.0
C1997 C 0.35176 0.31383 0.97274 0.0
H1998 H 0.36906 0.26977 0.96476 0.0
C1999 C 0.32935 0.30171 0.95796 0.0
H2000 H 0.38303 0.31069 0.98652 0.0
C2001 C 0.32134 0.27819 0.94543 0.0
C2002 C 0.33576 0.26663 0.94737 0.0
H2003 H 0.31819 0.31053 0.95583 0.0
H2004 H 0.30423 0.26934 0.93381 0.0
C2005 C 0.35785 0.27853 0.96259 0.0
C2006 C 0.69075 0.06884 0.01105 0.0
C2007 C 0.67882 0.04244 0.01088 0.0
H2008 H 0.71984 0.10206 0.99755 0.0
C2009 C 0.68816 0.02927 0.99786 0.0
H2010 H 0.68388 0.0794 0.02094 0.0
C2011 C 0.70868 0.04213 0.98479 0.0
C2012 C 0.72015 0.0684 0.98422 0.0
H2013 H 0.67939 0.00889 0.9975 0.0
H2014 H 0.71507 0.03138 0.97446 0.0
C2015 C 0.71117 0.08173 0.99762 0.0
C2016 C 0.6634 0.96593 0.08301 0.0
C2017 C 0.64045 0.9544 0.06917 0.0
H2018 H 0.68941 0.96059 0.10446 0.0
C2019 C 0.6267 0.92797 0.06494 0.0
H2020 H 0.67447 0.98631 0.08641 0.0
C2021 C 0.63528 0.91326 0.07532 0.0
C2022 C 0.65785 0.92479 0.08982 0.0
H2023 H 0.609 0.91864 0.05425 0.0
H2024 H 0.62405 0.89285 0.0724 0.0
C2025 C 0.67208 0.95125 0.09315 0.0
C2026 C 0.07116 0.71121 0.07833 0.0
C2027 C 0.04561 0.70207 0.07829 0.0
H2028 H 0.10781 0.74054 0.09135 0.0
C2029 C 0.0374 0.71626 0.09141 0.0
H2030 H 0.07801 0.70067 0.06839 0.0
C2031 C 0.05446 0.73911 0.1045 0.0
C2032 C 0.07999 0.74796 0.10495 0.0
H2033 H 0.01779 0.70964 0.09169 0.0
H2034 H 0.0477 0.74962 0.11463 0.0
C2035 C 0.08818 0.73389 0.09162 0.0
C2036 C 0.32531 0.38017 0.06994 0.0
C2037 C 0.32175 0.37822 0.0447 0.0
H2038 H 0.30877 0.37488 0.10335 0.0
C2039 C 0.29796 0.37002 0.03371 0.0
H2040 H 0.34344 0.38638 0.07891 0.0
C2041 C 0.27792 0.36311 0.04781 0.0
C2042 C 0.28152 0.36472 0.07307 0.0
H2043 H 0.2947 0.36817 0.01428 0.0
H2044 H 0.25963 0.35646 0.03899 0.0
C2045 C 0.30547 0.37363 0.08395 0.0
C2046 C 0.71516 0.66584 0.39591 0.0
C2047 C 0.71784 0.68988 0.39525 0.0
H2048 H 0.72945 0.64368 0.41017 0.0
C2049 C 0.73661 0.71018 0.41031 0.0
H2050 H 0.70075 0.64988 0.38443 0.0
C2051 C 0.75242 0.70649 0.4259 0.0
C2052 C 0.75033 0.68255 0.42622 0.0
H2053 H 0.73871 0.72881 0.41044 0.0
H2054 H 0.76622 0.72249 0.43774 0.0
C2055 C 0.73143 0.66227 0.41096 0.0
C2056 C 0.33415 0.03025 0.43499 0.0
C2057 C 0.30916 0.0112 0.43104 0.0
H2058 H 0.36002 0.06863 0.44756 0.0
C2059 C 0.29082 0.01578 0.43914 0.0
H2060 H 0.3486 0.0271 0.42875 0.0
C2061 C 0.29735 0.03923 0.4508 0.0
C2062 C 0.32232 0.05891 0.45384 0.0
H2063 H 0.27143 0.00118 0.43657 0.0
H2064 H 0.28271 0.04188 0.45724 0.0
C2065 C 0.34067 0.05399 0.44598 0.0
C2066 C 0.97013 0.26014 0.37229 0.0
C2067 C 0.98691 0.28565 0.37995 0.0
H2068 H 0.93567 0.22693 0.3775 0.0
C2069 C 0.9814 0.29736 0.39903 0.0
H2070 H 0.9739 0.25067 0.35758 0.0
C2071 C 0.95978 0.28387 0.41046 0.0
C2072 C 0.94297 0.2583 0.40303 0.0
H2073 H 0.994 0.31698 0.40545 0.0
H2074 H 0.95658 0.29337 0.42559 0.0
C2075 C 0.94833 0.24657 0.38374 0.0
C2076 C 0.0148 0.36902 0.30449 0.0
C2077 C 0.03311 0.37804 0.3239 0.0
H2078 H 0.99254 0.37698 0.28045 0.0
C2079 C 0.0427 0.40278 0.33453 0.0
H2080 H 0.00709 0.35006 0.29586 0.0
C2081 C 0.0341 0.41821 0.32581 0.0
C2082 C 0.01573 0.4091 0.30638 0.0
H2083 H 0.05675 0.41016 0.34959 0.0
H2084 H 0.04172 0.4372 0.33432 0.0
C2085 C 0.00625 0.38436 0.29582 0.0
C2086 C 0.59082 0.61824 0.32615 0.0
C2087 C 0.61516 0.63108 0.31932 0.0
H2088 H 0.55457 0.58567 0.31962 0.0
C2089 C 0.62161 0.62034 0.30016 0.0
H2090 H 0.58536 0.62599 0.34094 0.0
C2091 C 0.60392 0.59729 0.28783 0.0
C2092 C 0.57947 0.58463 0.29444 0.0
H2093 H 0.64027 0.62986 0.29453 0.0
H2094 H 0.60924 0.58964 0.27285 0.0
C2095 C 0.57316 0.59523 0.31385 0.0
C2096 C 0.37455 0.98009 0.36215 0.0
C2097 C 0.35428 0.95547 0.36199 0.0
H2098 H 0.40943 0.00429 0.34874 0.0
C2099 C 0.35416 0.93572 0.34805 0.0
H2100 H 0.37514 0.99563 0.37293 0.0
C2101 C 0.37342 0.94076 0.33347 0.0
C2102 C 0.39344 0.96561 0.33295 0.0
H2103 H 0.33858 0.91659 0.34745 0.0
H2104 H 0.37201 0.92529 0.32192 0.0
C2105 C 0.39406 0.98507 0.34804 0.0
C2106 C 0.58932 0.95644 0.3307 0.0
C2107 C 0.61492 0.97377 0.33242 0.0
H2108 H 0.55347 0.94612 0.31415 0.0
C2109 C 0.62405 0.99434 0.31821 0.0
H2110 H 0.58179 0.9404 0.3414 0.0
C2111 C 0.6079 0.99765 0.30272 0.0
C2112 C 0.58233 0.98026 0.30087 0.0
H2113 H 0.64371 0.00801 0.31914 0.0
H2114 H 0.61542 0.01371 0.29204 0.0
C2115 C 0.57318 0.95959 0.31497 0.0
C2116 C 0.9957 0.633 0.29108 0.0
C2117 C 0.01906 0.64671 0.30416 0.0
H2118 H 0.97035 0.59948 0.26836 0.0
C2119 C 0.03488 0.63668 0.30455 0.0
H2120 H 0.98315 0.64032 0.2905 0.0
C2121 C 0.02767 0.61358 0.29181 0.0
C2122 C 0.00444 0.59995 0.27854 0.0
H2123 H 0.05298 0.64681 0.31451 0.0
H2124 H 0.04022 0.60626 0.29251 0.0
C2125 C 0.98837 0.60969 0.27847 0.0
C2126 C 0.36308 0.39601 0.35107 0.0
C2127 C 0.33973 0.37806 0.33972 0.0
H2128 H 0.40139 0.42192 0.34645 0.0
C2129 C 0.33684 0.3732 0.31455 0.0
H2130 H 0.36577 0.39993 0.37048 0.0
C2131 C 0.35694 0.38581 0.30093 0.0
C2132 C 0.38045 0.40327 0.31223 0.0
H2133 H 0.31901 0.35946 0.30534 0.0
H2134 H 0.35424 0.38148 0.28156 0.0
C2135 C 0.38341 0.40837 0.33741 0.0
C2136 C 0.29183 0.26008 0.39484 0.0
C2137 C 0.30683 0.2865 0.39798 0.0
H2138 H 0.28762 0.22452 0.40307 0.0
C2139 C 0.33051 0.29738 0.41031 0.0
H2140 H 0.27356 0.2512 0.38529 0.0
C2141 C 0.33857 0.28216 0.42039 0.0
C2142 C 0.32303 0.2558 0.41842 0.0
H2143 H 0.34253 0.31772 0.41288 0.0
H2144 H 0.35643 0.29111 0.43078 0.0
C2145 C 0.29985 0.24485 0.40504 0.0
C2146 C 0.7054 0.04078 0.43591 0.0
C2147 C 0.7095 0.03564 0.41227 0.0
H2148 H 0.71887 0.06742 0.46731 0.0
C2149 C 0.72968 0.05437 0.40146 0.0
H2150 H 0.69002 0.02657 0.44465 0.0
C2151 C 0.74569 0.07774 0.41418 0.0
C2152 C 0.74203 0.08254 0.43802 0.0
H2153 H 0.73319 0.05088 0.38324 0.0
H2154 H 0.76141 0.09182 0.40567 0.0
C2155 C 0.72179 0.06401 0.44884 0.0
C2156 C 0.9614 0.70194 0.36439 0.0
C2157 C 0.98458 0.7084 0.37582 0.0
H2158 H 0.92333 0.69046 0.36889 0.0
C2159 C 0.98731 0.70913 0.40103 0.0
H2160 H 0.95879 0.70108 0.34497 0.0
C2161 C 0.96729 0.70332 0.41459 0.0
C2162 C 0.94396 0.69631 0.40325 0.0
H2163 H 0.00495 0.71402 0.41034 0.0
H2164 H 0.96994 0.70376 0.43397 0.0
C2165 C 0.94114 0.69569 0.37802 0.0
C2166 C 0.37368 0.00032 0.7426 0.0
C2167 C 0.38298 0.0204 0.72779 0.0
H2168 H 0.38215 0.98117 0.76914 0.0
C2169 C 0.40871 0.03667 0.72833 0.0
H2170 H 0.35391 0.98746 0.74256 0.0
C2171 C 0.42483 0.03313 0.74365 0.0
C2172 C 0.41552 0.01316 0.75861 0.0
H2173 H 0.41639 0.05228 0.7171 0.0
H2174 H 0.44463 0.04588 0.74363 0.0
C2175 C 0.38981 0.99667 0.75778 0.0
C2176 C 0.99721 0.36247 0.76644 0.0
C2177 C 0.97272 0.34226 0.76261 0.0
H2178 H 0.02128 0.40113 0.77943 0.0
C2179 C 0.95352 0.34505 0.77127 0.0
H2180 H 0.0123 0.3607 0.75977 0.0
C2181 C 0.9587 0.36784 0.78345 0.0
C2182 C 0.98311 0.38867 0.78646 0.0
H2183 H 0.93452 0.32952 0.76881 0.0
H2184 H 0.94343 0.36903 0.7904 0.0
C2185 C 0.00233 0.38557 0.77792 0.0
C2186 C 0.64027 0.59584 0.70948 0.0
C2187 C 0.65694 0.62136 0.71715 0.0
H2188 H 0.60592 0.56248 0.71472 0.0
C2189 C 0.65146 0.6329 0.73642 0.0
H2190 H 0.64401 0.5865 0.69462 0.0
C2191 C 0.62989 0.61928 0.74789 0.0
C2192 C 0.61313 0.59374 0.74035 0.0
H2193 H 0.66397 0.65253 0.74286 0.0
H2194 H 0.62665 0.62867 0.76307 0.0
C2195 C 0.61853 0.58212 0.721 0.0
C2196 C 0.709 0.73896 0.67034 0.0
C2197 C 0.6989 0.71402 0.6601 0.0
H2198 H 0.70824 0.77347 0.67019 0.0
C2199 C 0.67964 0.7046 0.64158 0.0
H2200 H 0.72375 0.74664 0.68476 0.0
C2201 C 0.67085 0.71989 0.63321 0.0
C2202 C 0.68101 0.74493 0.64326 0.0
H2203 H 0.6715 0.68545 0.6333 0.0
H2204 H 0.65652 0.71225 0.61839 0.0
C2205 C 0.70013 0.75429 0.662 0.0
C2206 C 0.28932 0.95139 0.63312 0.0
C2207 C 0.28286 0.96226 0.65215 0.0
H2208 H 0.2769 0.92044 0.60603 0.0
C2209 C 0.2586 0.94935 0.65916 0.0
H2210 H 0.30793 0.96096 0.62737 0.0
C2211 C 0.24098 0.92621 0.6471 0.0
C2212 C 0.24721 0.91553 0.6277 0.0
H2213 H 0.25314 0.95718 0.67389 0.0
H2214 H 0.22243 0.91666 0.65299 0.0
C2215 C 0.27163 0.92818 0.62099 0.0
C2216 C 0.04308 0.31596 0.69599 0.0
C2217 C 0.02331 0.29097 0.69511 0.0
H2218 H 0.07805 0.34152 0.6835 0.0
C2219 C 0.02423 0.27198 0.6809 0.0
H2220 H 0.04287 0.33093 0.70699 0.0
C2221 C 0.04402 0.27814 0.66674 0.0
C2222 C 0.06352 0.30336 0.6669 0.0
H2223 H 0.00905 0.2526 0.67974 0.0
H2224 H 0.04342 0.26323 0.65494 0.0
C2225 C 0.06311 0.32204 0.68228 0.0
C2226 C 0.26605 0.31527 0.67586 0.0
C2227 C 0.28543 0.3132 0.66645 0.0
H2228 H 0.2364 0.32274 0.66876 0.0
C2229 C 0.28955 0.31681 0.64205 0.0
H2230 H 0.26256 0.31266 0.69461 0.0
C2231 C 0.27438 0.32211 0.62725 0.0
C2232 C 0.25528 0.32453 0.63677 0.0
H2233 H 0.30433 0.31524 0.63433 0.0
H2234 H 0.27765 0.32452 0.60844 0.0
C2235 C 0.25125 0.32117 0.66118 0.0
C2236 C 0.70491 0.97847 0.63398 0.0
C2237 C 0.68932 0.98849 0.63023 0.0
H2238 H 0.71077 0.94743 0.62621 0.0
C2239 C 0.66739 0.97461 0.61493 0.0
H2240 H 0.72192 0.98876 0.6457 0.0
C2241 C 0.66092 0.95087 0.60393 0.0
C2242 C 0.67647 0.94082 0.60779 0.0
H2243 H 0.65501 0.98189 0.61177 0.0
H2244 H 0.6438 0.94038 0.59239 0.0
C2245 C 0.69861 0.95491 0.62275 0.0
C2246 C 0.02134 0.69669 0.66816 0.0
C2247 C 0.01114 0.71004 0.67931 0.0
H2248 H 0.04856 0.69799 0.64558 0.0
C2249 C 0.0219 0.73604 0.67706 0.0
H2250 H 0.01345 0.67661 0.66965 0.0
C2251 C 0.04197 0.74826 0.6631 0.0
C2252 C 0.05174 0.73471 0.65146 0.0
H2253 H 0.01437 0.74675 0.68545 0.0
H2254 H 0.04971 0.76824 0.66121 0.0
C2255 C 0.04151 0.70892 0.65448 0.0
C2256 C 0.94614 0.5919 0.73663 0.0
C2257 C 0.96209 0.61815 0.74083 0.0
H2258 H 0.93973 0.5552 0.74374 0.0
C2259 C 0.98468 0.62758 0.7549 0.0
H2260 H 0.92865 0.58417 0.72578 0.0
C2261 C 0.9911 0.61112 0.76488 0.0
C2262 C 0.97495 0.5849 0.76118 0.0
H2263 H 0.9974 0.64775 0.75834 0.0
H2264 H 0.00839 0.61894 0.7761 0.0
C2265 C 0.95245 0.57539 0.74688 0.0
C2266 C 0.37462 0.38192 0.76022 0.0
C2267 C 0.38285 0.36743 0.74765 0.0
H2268 H 0.38486 0.41543 0.78321 0.0
C2269 C 0.40832 0.37592 0.74884 0.0
H2270 H 0.35506 0.3758 0.75961 0.0
C2271 C 0.42526 0.39838 0.76245 0.0
C2272 C 0.41708 0.41291 0.77501 0.0
H2273 H 0.4152 0.36515 0.73933 0.0
H2274 H 0.44484 0.40462 0.76283 0.0
C2275 C 0.39162 0.40456 0.77367 0.0
C2276 C 0.62122 0.01712 0.69823 0.0
C2277 C 0.64158 0.04174 0.69877 0.0
H2278 H 0.5869 0.99246 0.71237 0.0
C2279 C 0.64261 0.0609 0.71448 0.0
H2280 H 0.61999 0.00202 0.68618 0.0
C2281 C 0.62419 0.0553 0.73026 0.0
C2282 C 0.60397 0.03047 0.73026 0.0
H2283 H 0.65834 0.07998 0.71549 0.0
H2284 H 0.62642 0.07032 0.74304 0.0
C2285 C 0.60245 0.01162 0.71353 0.0
loop_
_geom_bond_atom_site_label_1
_geom_bond_atom_site_label_2
_geom_bond_distance
_geom_bond_site_symmetry_2
_ccdc_geom_bond_type
In0 O1 2.286 1_455 S
In0 O2 2.327 . S
In0 O6 2.258 1_455 S
In0 O7 2.328 1_454 S
In0 O8 2.270 1_554 S
In0 O9 2.317 1_454 S
In0 O11 2.307 . S
In0 O12 2.332 . S
O1 In0 2.286 1_655 S
O1 C10 1.251 . S
O2 In0 2.327 . S
O2 C10 1.232 1_455 S
C3 O6 1.252 1_556 S
C3 O7 1.260 . S
C4 O11 1.240 . S
C4 O12 1.252 . S
C5 O8 1.252 . S
C5 O9 1.260 1_455 S
O6 In0 2.258 1_655 S
O6 C3 1.252 1_554 S
O7 In0 2.328 1_656 S
O7 C3 1.260 . S
O8 In0 2.270 1_556 S
O8 C5 1.252 . S
O9 In0 2.317 1_656 S
O9 C5 1.260 1_655 S
C10 O1 1.251 . S
C10 O2 1.232 1_655 S
O11 In0 2.307 . S
O11 C4 1.240 . S
O12 In0 2.332 . S
O12 C4 1.252 . S
In13 O14 2.294 . S
In13 O15 2.326 . S
In13 O19 2.266 . S
In13 O20 2.326 . S
In13 O21 2.266 . S
In13 O22 2.326 . S
In13 O24 2.294 . S
In13 O25 2.326 . S
O14 In13 2.294 . S
O14 C23 1.240 . S
O15 In13 2.326 . S
O15 C23 1.252 . S
C16 O19 1.252 . S
C16 O20 1.260 . S
C17 O24 1.240 . S
C17 O25 1.252 . S
C18 O21 1.252 . S
C18 O22 1.260 . S
O19 In13 2.266 . S
O19 C16 1.252 . S
O20 In13 2.326 . S
O20 C16 1.260 . S
O21 In13 2.266 . S
O21 C18 1.252 . S
O22 In13 2.326 . S
O22 C18 1.260 . S
C23 O14 1.240 . S
C23 O15 1.252 . S
O24 In13 2.294 . S
O24 C17 1.240 . S
O25 In13 2.326 . S
O25 C17 1.252 . S
In26 O27 2.310 . S
In26 O28 2.335 1_554 S
In26 O32 2.270 . S
In26 O33 2.314 1_545 S
In26 O34 2.256 1_545 S
In26 O35 2.328 1_545 S
In26 O37 2.284 1_544 S
In26 O38 2.327 1_554 S
O27 In26 2.310 . S
O27 C36 1.240 1_554 S
O28 In26 2.335 1_556 S
O28 C36 1.252 . S
C29 O32 1.252 . S
C29 O33 1.260 1_545 S
C30 O37 1.240 . S
C30 O38 1.252 1_565 S
C31 O34 1.252 . S
C31 O35 1.260 . S
O32 In26 2.270 . S
O32 C29 1.252 . S
O33 In26 2.314 1_565 S
O33 C29 1.260 1_565 S
O34 In26 2.256 1_565 S
O34 C31 1.252 . S
O35 In26 2.328 1_565 S
O35 C31 1.260 . S
C36 O27 1.240 1_556 S
C36 O28 1.252 . S
O37 In26 2.284 1_566 S
O37 C30 1.240 . S
O38 In26 2.327 1_556 S
O38 C30 1.252 1_545 S
In39 O40 2.292 . S
In39 O41 2.326 1_455 S
In39 O45 2.265 . S
In39 O46 2.326 . S
In39 O47 2.267 1_455 S
In39 O48 2.324 . S
In39 O50 2.296 1_455 S
In39 O51 2.327 1_455 S
O40 In39 2.292 . S
O40 C49 1.269 . S
O41 In39 2.326 1_655 S
O41 C49 1.235 1_655 S
C42 O45 1.252 . S
C42 O46 1.260 . S
C43 O50 1.240 . S
C43 O51 1.252 . S
C44 O47 1.252 . S
C44 O48 1.260 1_655 S
O45 In39 2.265 . S
O45 C42 1.252 . S
O46 In39 2.326 . S
O46 C42 1.260 . S
O47 In39 2.267 1_655 S
O47 C44 1.252 . S
O48 In39 2.324 . S
O48 C44 1.260 1_455 S
C49 O40 1.269 . S
C49 O41 1.235 1_455 S
O50 In39 2.296 1_655 S
O50 C43 1.240 . S
O51 In39 2.327 1_655 S
O51 C43 1.252 . S
In52 O53 2.294 1_554 S
In52 O54 2.326 1_554 S
In52 O58 2.266 . S
In52 O59 2.326 . S
In52 O60 2.266 . S
In52 O61 2.326 . S
In52 O63 2.294 1_554 S
In52 O64 2.326 1_554 S
O53 In52 2.294 1_556 S
O53 C62 1.240 . S
O54 In52 2.326 1_556 S
O54 C62 1.252 . S
C55 O58 1.252 . S
C55 O59 1.260 . S
C56 O63 1.240 . S
C56 O64 1.252 . S
C57 O60 1.252 . S
C57 O61 1.260 . S
O58 In52 2.266 . S
O58 C55 1.252 . S
O59 In52 2.326 . S
O59 C55 1.260 . S
O60 In52 2.266 . S
O60 C57 1.252 . S
O61 In52 2.326 . S
O61 C57 1.260 . S
C62 O53 1.240 . S
C62 O54 1.252 . S
O63 In52 2.294 1_556 S
O63 C56 1.240 . S
O64 In52 2.326 1_556 S
O64 C56 1.252 . S
In65 O66 2.293 . S
In65 O67 2.326 1_545 S
In65 O71 2.265 . S
In65 O72 2.326 . S
In65 O73 2.267 1_545 S
In65 O74 2.324 . S
In65 O76 2.296 1_545 S
In65 O77 2.327 1_545 S
O66 In65 2.293 . S
O66 C75 1.240 . S
O67 In65 2.326 1_565 S
O67 C75 1.252 1_565 S
C68 O71 1.252 . S
C68 O72 1.260 . S
C69 O76 1.240 . S
C69 O77 1.252 . S
C70 O73 1.252 . S
C70 O74 1.260 1_565 S
O71 In65 2.265 . S
O71 C68 1.252 . S
O72 In65 2.326 . S
O72 C68 1.260 . S
O73 In65 2.267 1_565 S
O73 C70 1.252 . S
O74 In65 2.324 . S
O74 C70 1.260 1_545 S
C75 O66 1.240 . S
C75 O67 1.252 1_545 S
O76 In65 2.296 1_565 S
O76 C69 1.240 . S
O77 In65 2.327 1_565 S
O77 C69 1.252 . S
In78 O79 2.294 . S
In78 O80 2.326 . S
In78 O84 2.266 . S
In78 O85 2.326 . S
In78 O86 2.266 . S
In78 O87 2.326 . S
In78 O89 2.294 . S
In78 O90 2.326 . S
O79 In78 2.294 . S
O79 C88 1.240 . S
O80 In78 2.326 . S
O80 C88 1.252 . S
C81 O84 1.252 . S
C81 O85 1.260 . S
C82 O89 1.240 . S
C82 O90 1.252 . S
C83 O86 1.252 . S
C83 O87 1.260 . S
O84 In78 2.266 . S
O84 C81 1.252 . S
O85 In78 2.326 . S
O85 C81 1.260 . S
O86 In78 2.266 . S
O86 C83 1.252 . S
O87 In78 2.326 . S
O87 C83 1.260 . S
C88 O79 1.240 . S
C88 O80 1.252 . S
O89 In78 2.294 . S
O89 C82 1.240 . S
O90 In78 2.326 . S
O90 C82 1.252 . S
In91 O92 2.294 . S
In91 O93 2.326 . S
In91 O97 2.266 . S
In91 O98 2.326 . S
In91 O99 2.266 . S
In91 O100 2.326 . S
In91 O102 2.294 . S
In91 O103 2.326 . S
O92 In91 2.294 . S
O92 C101 1.240 . S
O93 In91 2.326 . S
O93 C101 1.252 . S
C94 O97 1.252 . S
C94 O98 1.260 . S
C95 O102 1.240 . S
C95 O103 1.252 . S
C96 O99 1.252 . S
C96 O100 1.260 . S
O97 In91 2.266 . S
O97 C94 1.252 . S
O98 In91 2.326 . S
O98 C94 1.260 . S
O99 In91 2.266 . S
O99 C96 1.252 . S
O100 In91 2.326 . S
O100 C96 1.260 . S
C101 O92 1.240 . S
C101 O93 1.252 . S
O102 In91 2.294 . S
O102 C95 1.240 . S
O103 In91 2.326 . S
O103 C95 1.252 . S
In104 O105 2.294 . S
In104 O106 2.326 . S
In104 O110 2.266 . S
In104 O111 2.326 . S
In104 O112 2.266 . S
In104 O113 2.326 . S
In104 O115 2.294 . S
In104 O116 2.326 . S
O105 In104 2.294 . S
O105 C114 1.240 . S
O106 In104 2.326 . S
O106 C114 1.252 . S
C107 O110 1.252 . S
C107 O111 1.260 . S
C108 O115 1.240 . S
C108 O116 1.252 . S
C109 O112 1.252 . S
C109 O113 1.260 . S
O110 In104 2.266 . S
O110 C107 1.252 . S
O111 In104 2.326 . S
O111 C107 1.260 . S
O112 In104 2.266 . S
O112 C109 1.252 . S
O113 In104 2.326 . S
O113 C109 1.260 . S
C114 O105 1.240 . S
C114 O106 1.252 . S
O115 In104 2.294 . S
O115 C108 1.240 . S
O116 In104 2.326 . S
O116 C108 1.252 . S
In117 O118 2.294 . S
In117 O119 2.326 . S
In117 O123 2.266 . S
In117 O124 2.326 . S
In117 O125 2.266 . S
In117 O126 2.326 . S
In117 O128 2.294 . S
In117 O129 2.326 . S
O118 In117 2.294 . S
O118 C127 1.240 . S
O119 In117 2.326 . S
O119 C127 1.252 . S
C120 O123 1.252 1_545 S
C120 O124 1.260 1_545 S
C121 O128 1.240 . S
C121 O129 1.252 . S
C122 O125 1.252 . S
C122 O126 1.260 . S
O123 In117 2.266 . S
O123 C120 1.252 1_565 S
O124 In117 2.326 . S
O124 C120 1.260 1_565 S
O125 In117 2.266 . S
O125 C122 1.252 . S
O126 In117 2.326 . S
O126 C122 1.260 . S
C127 O118 1.240 . S
C127 O119 1.252 . S
O128 In117 2.294 . S
O128 C121 1.240 . S
O129 In117 2.326 . S
O129 C121 1.252 . S
In130 O131 2.294 . S
In130 O132 2.326 . S
In130 O136 2.266 . S
In130 O137 2.326 . S
In130 O138 2.266 . S
In130 O139 2.326 . S
In130 O141 2.294 . S
In130 O142 2.326 . S
O131 In130 2.294 . S
O131 C140 1.240 . S
O132 In130 2.326 . S
O132 C140 1.252 . S
C133 O136 1.252 . S
C133 O137 1.260 . S
C134 O141 1.240 . S
C134 O142 1.252 . S
C135 O138 1.252 . S
C135 O139 1.260 . S
O136 In130 2.266 . S
O136 C133 1.252 . S
O137 In130 2.326 . S
O137 C133 1.260 . S
O138 In130 2.266 . S
O138 C135 1.252 . S
O139 In130 2.326 . S
O139 C135 1.260 . S
C140 O131 1.240 . S
C140 O132 1.252 . S
O141 In130 2.294 . S
O141 C134 1.240 . S
O142 In130 2.326 . S
O142 C134 1.252 . S
In143 O144 2.294 . S
In143 O145 2.326 . S
In143 O149 2.266 . S
In143 O150 2.326 . S
In143 O151 2.266 . S
In143 O152 2.326 . S
In143 O154 2.294 . S
In143 O155 2.326 . S
O144 In143 2.294 . S
O144 C153 1.240 . S
O145 In143 2.326 . S
O145 C153 1.252 . S
C146 O149 1.252 . S
C146 O150 1.260 . S
C147 O154 1.240 . S
C147 O155 1.252 . S
C148 O151 1.252 . S
C148 O152 1.260 . S
O149 In143 2.266 . S
O149 C146 1.252 . S
O150 In143 2.326 . S
O150 C146 1.260 . S
O151 In143 2.266 . S
O151 C148 1.252 . S
O152 In143 2.326 . S
O152 C148 1.260 . S
C153 O144 1.240 . S
C153 O145 1.252 . S
O154 In143 2.294 . S
O154 C147 1.240 . S
O155 In143 2.326 . S
O155 C147 1.252 . S
In156 O157 2.294 . S
In156 O158 2.326 . S
In156 O162 2.266 . S
In156 O163 2.326 . S
In156 O164 2.266 . S
In156 O165 2.326 . S
In156 O167 2.294 . S
In156 O168 2.326 . S
O157 In156 2.294 . S
O157 C166 1.240 . S
O158 In156 2.326 . S
O158 C166 1.252 . S
C159 O162 1.252 . S
C159 O163 1.260 . S
C160 O167 1.240 . S
C160 O168 1.252 . S
C161 O164 1.252 1_565 S
C161 O165 1.260 1_565 S
O162 In156 2.266 . S
O162 C159 1.252 . S
O163 In156 2.326 . S
O163 C159 1.260 . S
O164 In156 2.266 . S
O164 C161 1.252 1_545 S
O165 In156 2.326 . S
O165 C161 1.260 1_545 S
C166 O157 1.240 . S
C166 O158 1.252 . S
O167 In156 2.294 . S
O167 C160 1.240 . S
O168 In156 2.326 . S
O168 C160 1.252 . S
In169 O170 2.294 . S
In169 O171 2.326 . S
In169 O175 2.266 . S
In169 O176 2.326 . S
In169 O177 2.266 . S
In169 O178 2.326 . S
In169 O180 2.294 . S
In169 O181 2.326 . S
O170 In169 2.294 . S
O170 C179 1.240 . S
O171 In169 2.326 . S
O171 C179 1.252 . S
C172 O175 1.252 . S
C172 O176 1.260 . S
C173 O180 1.240 . S
C173 O181 1.252 . S
C174 O177 1.252 . S
C174 O178 1.260 . S
O175 In169 2.266 . S
O175 C172 1.252 . S
O176 In169 2.326 . S
O176 C172 1.260 . S
O177 In169 2.266 . S
O177 C174 1.252 . S
O178 In169 2.326 . S
O178 C174 1.260 . S
C179 O170 1.240 . S
C179 O171 1.252 . S
O180 In169 2.294 . S
O180 C173 1.240 . S
O181 In169 2.326 . S
O181 C173 1.252 . S
In182 O183 2.294 . S
In182 O184 2.326 . S
In182 O188 2.266 . S
In182 O189 2.326 . S
In182 O190 2.266 . S
In182 O191 2.326 . S
In182 O193 2.294 . S
In182 O194 2.326 . S
O183 In182 2.294 . S
O183 C192 1.240 . S
O184 In182 2.326 . S
O184 C192 1.252 . S
C185 O188 1.252 . S
C185 O189 1.260 . S
C186 O193 1.240 . S
C186 O194 1.252 . S
C187 O190 1.252 . S
C187 O191 1.260 . S
O188 In182 2.266 . S
O188 C185 1.252 . S
O189 In182 2.326 . S
O189 C185 1.260 . S
O190 In182 2.266 . S
O190 C187 1.252 . S
O191 In182 2.326 . S
O191 C187 1.260 . S
C192 O183 1.240 . S
C192 O184 1.252 . S
O193 In182 2.294 . S
O193 C186 1.240 . S
O194 In182 2.326 . S
O194 C186 1.252 . S
In195 O196 2.294 . S
In195 O197 2.326 . S
In195 O201 2.266 . S
In195 O202 2.326 . S
In195 O203 2.266 . S
In195 O204 2.326 . S
In195 O206 2.294 . S
In195 O207 2.326 . S
O196 In195 2.294 . S
O196 C205 1.240 . S
O197 In195 2.326 . S
O197 C205 1.252 . S
C198 O201 1.252 . S
C198 O202 1.260 . S
C199 O206 1.240 . S
C199 O207 1.252 . S
C200 O203 1.252 . S
C200 O204 1.260 . S
O201 In195 2.266 . S
O201 C198 1.252 . S
O202 In195 2.326 . S
O202 C198 1.260 . S
O203 In195 2.266 . S
O203 C200 1.252 . S
O204 In195 2.326 . S
O204 C200 1.260 . S
C205 O196 1.240 . S
C205 O197 1.252 . S
O206 In195 2.294 . S
O206 C199 1.240 . S
O207 In195 2.326 . S
O207 C199 1.252 . S
In208 O209 2.294 . S
In208 O210 2.326 . S
In208 O214 2.266 . S
In208 O215 2.326 . S
In208 O216 2.266 . S
In208 O217 2.326 . S
In208 O219 2.294 . S
In208 O220 2.326 . S
O209 In208 2.294 . S
O209 C218 1.240 . S
O210 In208 2.326 . S
O210 C218 1.252 . S
C211 O214 1.252 . S
C211 O215 1.260 . S
C212 O219 1.240 . S
C212 O220 1.252 . S
C213 O216 1.252 . S
C213 O217 1.260 . S
O214 In208 2.266 . S
O214 C211 1.252 . S
O215 In208 2.326 . S
O215 C211 1.260 . S
O216 In208 2.266 . S
O216 C213 1.252 . S
O217 In208 2.326 . S
O217 C213 1.260 . S
C218 O209 1.240 . S
C218 O210 1.252 . S
O219 In208 2.294 . S
O219 C212 1.240 . S
O220 In208 2.326 . S
O220 C212 1.252 . S
In221 O222 2.294 . S
In221 O223 2.326 . S
In221 O227 2.266 . S
In221 O228 2.326 . S
In221 O229 2.266 . S
In221 O230 2.326 . S
In221 O232 2.294 . S
In221 O233 2.326 . S
O222 In221 2.294 . S
O222 C231 1.240 . S
O223 In221 2.326 . S
O223 C231 1.252 . S
C224 O227 1.252 . S
C224 O228 1.260 . S
C225 O232 1.240 . S
C225 O233 1.252 . S
C226 O229 1.252 . S
C226 O230 1.260 . S
O227 In221 2.266 . S
O227 C224 1.252 . S
O228 In221 2.326 . S
O228 C224 1.260 . S
O229 In221 2.266 . S
O229 C226 1.252 . S
O230 In221 2.326 . S
O230 C226 1.260 . S
C231 O222 1.240 . S
C231 O223 1.252 . S
O232 In221 2.294 . S
O232 C225 1.240 . S
O233 In221 2.326 . S
O233 C225 1.252 . S
H234 O260 0.855 1_556 S
H235 O263 0.854 . S
H236 C271 0.930 . S
H237 C272 0.930 . S
H238 C274 0.930 . S
H239 C275 0.930 . S
H240 C277 0.931 . S
H241 C278 0.930 . S
H242 C280 0.930 . S
H243 C281 0.929 . S
H244 C283 0.930 . S
H245 C284 0.931 . S
H246 C286 0.930 . S
H247 C287 0.929 . S
H248 C289 0.931 . S
H249 C290 0.930 . S
H250 C292 0.930 . S
H251 C293 0.932 . S
H252 C295 0.930 . S
H253 C296 0.929 . S
H254 C298 0.931 . S
H255 C299 0.930 . S
H256 C301 0.929 . S
H257 C302 0.931 . S
H258 C304 0.930 . S
H259 C305 0.929 . S
O260 H234 0.855 1_554 S
O260 C306 1.300 . S
O261 C306 1.209 . S
O262 C307 1.199 . S
O263 H235 0.854 . S
O263 C307 1.297 . S
C264 C265 1.404 . S
C264 C269 1.397 . S
C264 C270 1.492 . S
C265 C264 1.404 . S
C265 C266 1.396 . S
C265 C276 1.492 . S
C266 C265 1.396 . S
C266 C267 1.397 . S
C266 C282 1.509 . S
C267 C266 1.397 . S
C267 C268 1.412 . S
C267 C288 1.485 . S
C268 C267 1.412 . S
C268 C269 1.388 . S
C268 C294 1.490 . S
C269 C264 1.397 . S
C269 C268 1.388 . S
C269 C300 1.519 . S
C270 C264 1.492 . S
C270 C271 1.363 . S
C270 C275 1.390 . S
C271 H236 0.930 . S
C271 C270 1.363 . S
C271 C272 1.372 . S
C272 H237 0.930 . S
C272 C271 1.372 . S
C272 C273 1.383 . S
C273 C272 1.383 . S
C273 C274 1.395 . S
C274 H238 0.930 . S
C274 C273 1.395 . S
C274 C275 1.362 . S
C275 H239 0.930 . S
C275 C270 1.390 . S
C275 C274 1.362 . S
C276 C265 1.492 . S
C276 C277 1.377 . S
C276 C281 1.397 . S
C277 H240 0.931 . S
C277 C276 1.377 . S
C277 C278 1.376 . S
C278 H241 0.930 . S
C278 C277 1.376 . S
C278 C279 1.376 . S
C279 C278 1.376 . S
C279 C280 1.378 . S
C279 C306 1.486 . S
C280 H242 0.930 . S
C280 C279 1.378 . S
C280 C281 1.376 . S
C281 H243 0.929 . S
C281 C276 1.397 . S
C281 C280 1.376 . S
C282 C266 1.509 . S
C282 C283 1.391 . S
C282 C287 1.386 . S
C283 H244 0.930 . S
C283 C282 1.391 . S
C283 C284 1.375 . S
C284 H245 0.931 . S
C284 C283 1.375 . S
C284 C285 1.375 . S
C285 C284 1.375 . S
C285 C286 1.361 . S
C286 H246 0.930 . S
C286 C285 1.361 . S
C286 C287 1.399 . S
C287 H247 0.929 . S
C287 C282 1.386 . S
C287 C286 1.399 . S
C288 C267 1.485 . S
C288 C289 1.394 . S
C288 C293 1.360 . S
C289 H248 0.931 . S
C289 C288 1.394 . S
C289 C290 1.372 . S
C290 H249 0.930 . S
C290 C289 1.372 . S
C290 C291 1.397 . S
C291 C290 1.397 . S
C291 C292 1.390 . S
C291 C307 1.476 . S
C292 H250 0.930 . S
C292 C291 1.390 . S
C292 C293 1.366 . S
C293 H251 0.932 . S
C293 C288 1.360 . S
C293 C292 1.366 . S
C294 C268 1.490 . S
C294 C295 1.380 . S
C294 C299 1.386 . S
C295 H252 0.930 . S
C295 C294 1.380 . S
C295 C296 1.381 . S
C296 H253 0.929 . S
C296 C295 1.381 . S
C296 C297 1.371 . S
C297 C296 1.371 . S
C297 C298 1.380 . S
C298 H254 0.931 . S
C298 C297 1.380 . S
C298 C299 1.387 . S
C299 H255 0.930 . S
C299 C294 1.386 . S
C299 C298 1.387 . S
C300 C269 1.519 . S
C300 C301 1.377 . S
C300 C305 1.361 . S
C301 H256 0.929 . S
C301 C300 1.377 . S
C301 C302 1.386 . S
C302 H257 0.931 . S
C302 C301 1.386 . S
C302 C303 1.363 . S
C303 C302 1.363 . S
C303 C304 1.385 . S
C304 H258 0.930 . S
C304 C303 1.385 . S
C304 C305 1.396 . S
C305 H259 0.929 . S
C305 C300 1.361 . S
C305 C304 1.396 . S
C306 O260 1.300 . S
C306 O261 1.209 . S
C306 C279 1.486 . S
C307 O262 1.199 . S
C307 O263 1.297 . S
C307 C291 1.476 . S
H308 O334 0.856 . S
H309 O337 0.854 1_545 S
H310 C345 0.930 . S
H311 C346 0.930 . S
H312 C348 0.930 . S
H313 C349 0.930 . S
H314 C351 0.931 . S
H315 C352 0.930 . S
H316 C354 0.930 . S
H317 C355 0.929 . S
H318 C357 0.930 . S
H319 C358 0.931 . S
H320 C360 0.930 . S
H321 C361 0.929 . S
H322 C363 0.931 . S
H323 C364 0.930 . S
H324 C366 0.930 . S
H325 C367 0.932 . S
H326 C369 0.930 . S
H327 C370 0.929 . S
H328 C372 0.931 . S
H329 C373 0.930 . S
H330 C375 0.929 . S
H331 C376 0.931 . S
H332 C378 0.930 . S
H333 C379 0.929 . S
O334 H308 0.856 . S
O334 C380 1.300 . S
O335 C380 1.209 . S
O336 C381 1.199 . S
O337 H309 0.854 1_565 S
O337 C381 1.297 . S
C338 C339 1.404 . S
C338 C343 1.397 . S
C338 C344 1.492 . S
C339 C338 1.404 . S
C339 C340 1.396 . S
C339 C350 1.492 . S
C340 C339 1.396 . S
C340 C341 1.397 . S
C340 C356 1.509 . S
C341 C340 1.397 . S
C341 C342 1.412 . S
C341 C362 1.485 . S
C342 C341 1.412 . S
C342 C343 1.388 . S
C342 C368 1.490 . S
C343 C338 1.397 . S
C343 C342 1.388 . S
C343 C374 1.519 . S
C344 C338 1.492 . S
C344 C345 1.363 . S
C344 C349 1.390 . S
C345 H310 0.930 . S
C345 C344 1.363 . S
C345 C346 1.372 . S
C346 H311 0.930 . S
C346 C345 1.372 . S
C346 C347 1.383 . S
C347 C346 1.383 . S
C347 C348 1.395 . S
C348 H312 0.930 . S
C348 C347 1.395 . S
C348 C349 1.362 . S
C349 H313 0.930 . S
C349 C344 1.390 . S
C349 C348 1.362 . S
C350 C339 1.492 . S
C350 C351 1.377 . S
C350 C355 1.397 . S
C351 H314 0.931 . S
C351 C350 1.377 . S
C351 C352 1.376 . S
C352 H315 0.930 . S
C352 C351 1.376 . S
C352 C353 1.376 . S
C353 C352 1.376 . S
C353 C354 1.378 . S
C353 C380 1.486 . S
C354 H316 0.930 . S
C354 C353 1.378 . S
C354 C355 1.376 . S
C355 H317 0.929 . S
C355 C350 1.397 . S
C355 C354 1.376 . S
C356 C340 1.509 . S
C356 C357 1.391 . S
C356 C361 1.386 . S
C357 H318 0.930 . S
C357 C356 1.391 . S
C357 C358 1.375 . S
C358 H319 0.931 . S
C358 C357 1.375 . S
C358 C359 1.375 . S
C359 C358 1.375 . S
C359 C360 1.361 . S
C360 H320 0.930 . S
C360 C359 1.361 . S
C360 C361 1.399 . S
C361 H321 0.929 . S
C361 C356 1.386 . S
C361 C360 1.399 . S
C362 C341 1.485 . S
C362 C363 1.394 . S
C362 C367 1.360 . S
C363 H322 0.931 . S
C363 C362 1.394 . S
C363 C364 1.372 . S
C364 H323 0.930 . S
C364 C363 1.372 . S
C364 C365 1.397 . S
C365 C364 1.397 . S
C365 C366 1.390 . S
C365 C381 1.476 . S
C366 H324 0.930 . S
C366 C365 1.390 . S
C366 C367 1.366 . S
C367 H325 0.932 . S
C367 C362 1.360 . S
C367 C366 1.366 . S
C368 C342 1.490 . S
C368 C369 1.380 . S
C368 C373 1.386 . S
C369 H326 0.930 . S
C369 C368 1.380 . S
C369 C370 1.381 . S
C370 H327 0.929 . S
C370 C369 1.381 . S
C370 C371 1.371 . S
C371 C370 1.371 . S
C371 C372 1.380 . S
C372 H328 0.931 . S
C372 C371 1.380 . S
C372 C373 1.387 . S
C373 H329 0.930 . S
C373 C368 1.386 . S
C373 C372 1.387 . S
C374 C343 1.519 . S
C374 C375 1.377 . S
C374 C379 1.361 . S
C375 H330 0.929 . S
C375 C374 1.377 . S
C375 C376 1.386 . S
C376 H331 0.931 . S
C376 C375 1.386 . S
C376 C377 1.363 . S
C377 C376 1.363 . S
C377 C378 1.385 . S
C378 H332 0.930 . S
C378 C377 1.385 . S
C378 C379 1.396 . S
C379 H333 0.929 . S
C379 C374 1.361 . S
C379 C378 1.396 . S
C380 O334 1.300 . S
C380 O335 1.209 . S
C380 C353 1.486 . S
C381 O336 1.199 . S
C381 O337 1.297 . S
C381 C365 1.476 . S
H382 O408 0.856 . S
H383 O411 0.854 . S
H384 C419 0.930 . S
H385 C420 0.930 . S
H386 C422 0.930 . S
H387 C423 0.930 . S
H388 C425 0.931 . S
H389 C426 0.930 . S
H390 C428 0.930 . S
H391 C429 0.929 . S
H392 C431 0.930 . S
H393 C432 0.931 . S
H394 C434 0.930 . S
H395 C435 0.929 . S
H396 C437 0.931 . S
H397 C438 0.930 . S
H398 C440 0.930 . S
H399 C441 0.932 . S
H400 C443 0.930 . S
H401 C444 0.929 . S
H402 C446 0.931 . S
H403 C447 0.930 . S
H404 C449 0.929 . S
H405 C450 0.931 . S
H406 C452 0.930 . S
H407 C453 0.929 . S
O408 H382 0.856 . S
O408 C454 1.300 . S
O409 C454 1.209 . S
O410 C455 1.199 . S
O411 H383 0.854 . S
O411 C455 1.297 . S
C412 C413 1.404 . S
C412 C417 1.397 . S
C412 C418 1.492 . S
C413 C412 1.404 . S
C413 C414 1.396 . S
C413 C424 1.492 . S
C414 C413 1.396 . S
C414 C415 1.397 . S
C414 C430 1.509 . S
C415 C414 1.397 . S
C415 C416 1.412 . S
C415 C436 1.485 . S
C416 C415 1.412 . S
C416 C417 1.388 . S
C416 C442 1.490 . S
C417 C412 1.397 . S
C417 C416 1.388 . S
C417 C448 1.519 . S
C418 C412 1.492 . S
C418 C419 1.363 . S
C418 C423 1.390 . S
C419 H384 0.930 . S
C419 C418 1.363 . S
C419 C420 1.372 . S
C420 H385 0.930 . S
C420 C419 1.372 . S
C420 C421 1.383 . S
C421 C420 1.383 . S
C421 C422 1.395 . S
C422 H386 0.930 . S
C422 C421 1.395 . S
C422 C423 1.362 . S
C423 H387 0.930 . S
C423 C418 1.390 . S
C423 C422 1.362 . S
C424 C413 1.492 . S
C424 C425 1.377 . S
C424 C429 1.397 . S
C425 H388 0.931 . S
C425 C424 1.377 . S
C425 C426 1.376 . S
C426 H389 0.930 . S
C426 C425 1.376 . S
C426 C427 1.376 . S
C427 C426 1.376 . S
C427 C428 1.378 . S
C427 C454 1.486 . S
C428 H390 0.930 . S
C428 C427 1.378 . S
C428 C429 1.376 . S
C429 H391 0.929 . S
C429 C424 1.397 . S
C429 C428 1.376 . S
C430 C414 1.509 . S
C430 C431 1.391 . S
C430 C435 1.386 . S
C431 H392 0.930 . S
C431 C430 1.391 . S
C431 C432 1.375 . S
C432 H393 0.931 . S
C432 C431 1.375 . S
C432 C433 1.375 . S
C433 C432 1.375 . S
C433 C434 1.361 . S
C434 H394 0.930 . S
C434 C433 1.361 . S
C434 C435 1.399 . S
C435 H395 0.929 . S
C435 C430 1.386 . S
C435 C434 1.399 . S
C436 C415 1.485 . S
C436 C437 1.394 . S
C436 C441 1.360 . S
C437 H396 0.931 . S
C437 C436 1.394 . S
C437 C438 1.372 . S
C438 H397 0.930 . S
C438 C437 1.372 . S
C438 C439 1.397 . S
C439 C438 1.397 . S
C439 C440 1.390 . S
C439 C455 1.476 . S
C440 H398 0.930 . S
C440 C439 1.390 . S
C440 C441 1.366 . S
C441 H399 0.932 . S
C441 C436 1.360 . S
C441 C440 1.366 . S
C442 C416 1.490 . S
C442 C443 1.380 . S
C442 C447 1.386 . S
C443 H400 0.930 . S
C443 C442 1.380 . S
C443 C444 1.381 . S
C444 H401 0.929 . S
C444 C443 1.381 . S
C444 C445 1.371 . S
C445 C444 1.371 . S
C445 C446 1.380 . S
C446 H402 0.931 . S
C446 C445 1.380 . S
C446 C447 1.387 . S
C447 H403 0.930 . S
C447 C442 1.386 . S
C447 C446 1.387 . S
C448 C417 1.519 . S
C448 C449 1.377 . S
C448 C453 1.361 . S
C449 H404 0.929 . S
C449 C448 1.377 . S
C449 C450 1.386 . S
C450 H405 0.931 . S
C450 C449 1.386 . S
C450 C451 1.363 . S
C451 C450 1.363 . S
C451 C452 1.385 . S
C452 H406 0.930 . S
C452 C451 1.385 . S
C452 C453 1.396 . S
C453 H407 0.929 . S
C453 C448 1.361 . S
C453 C452 1.396 . S
C454 O408 1.300 . S
C454 O409 1.209 . S
C454 C427 1.486 . S
C455 O410 1.199 . S
C455 O411 1.297 . S
C455 C439 1.476 . S
H456 O482 0.856 . S
H457 O485 0.854 . S
H458 C493 0.930 . S
H459 C494 0.930 . S
H460 C496 0.930 . S
H461 C497 0.930 . S
H462 C499 0.931 . S
H463 C500 0.930 . S
H464 C502 0.930 . S
H465 C503 0.929 . S
H466 C505 0.930 . S
H467 C506 0.931 . S
H468 C508 0.930 . S
H469 C509 0.929 . S
H470 C511 0.931 . S
H471 C512 0.930 . S
H472 C514 0.930 . S
H473 C515 0.932 . S
H474 C517 0.930 . S
H475 C518 0.929 . S
H476 C520 0.931 . S
H477 C521 0.930 . S
H478 C523 0.929 . S
H479 C524 0.931 . S
H480 C526 0.930 . S
H481 C527 0.929 . S
O482 H456 0.856 . S
O482 C528 1.300 . S
O483 C528 1.209 . S
O484 C529 1.199 . S
O485 H457 0.854 . S
O485 C529 1.297 . S
C486 C487 1.404 . S
C486 C491 1.397 . S
C486 C492 1.492 . S
C487 C486 1.404 . S
C487 C488 1.396 . S
C487 C498 1.492 . S
C488 C487 1.396 . S
C488 C489 1.397 . S
C488 C504 1.509 . S
C489 C488 1.397 . S
C489 C490 1.412 . S
C489 C510 1.485 . S
C490 C489 1.412 . S
C490 C491 1.388 . S
C490 C516 1.490 . S
C491 C486 1.397 . S
C491 C490 1.388 . S
C491 C522 1.519 . S
C492 C486 1.492 . S
C492 C493 1.363 . S
C492 C497 1.390 . S
C493 H458 0.930 . S
C493 C492 1.363 . S
C493 C494 1.372 . S
C494 H459 0.930 . S
C494 C493 1.372 . S
C494 C495 1.383 . S
C495 C494 1.383 . S
C495 C496 1.395 . S
C496 H460 0.930 . S
C496 C495 1.395 . S
C496 C497 1.362 . S
C497 H461 0.930 . S
C497 C492 1.390 . S
C497 C496 1.362 . S
C498 C487 1.492 . S
C498 C499 1.377 . S
C498 C503 1.397 . S
C499 H462 0.931 . S
C499 C498 1.377 . S
C499 C500 1.376 . S
C500 H463 0.930 . S
C500 C499 1.376 . S
C500 C501 1.376 . S
C501 C500 1.376 . S
C501 C502 1.378 . S
C501 C528 1.486 1_556 S
C502 H464 0.930 . S
C502 C501 1.378 . S
C502 C503 1.376 . S
C503 H465 0.929 . S
C503 C498 1.397 . S
C503 C502 1.376 . S
C504 C488 1.509 . S
C504 C505 1.391 . S
C504 C509 1.386 . S
C505 H466 0.930 . S
C505 C504 1.391 . S
C505 C506 1.375 . S
C506 H467 0.931 . S
C506 C505 1.375 . S
C506 C507 1.375 . S
C507 C506 1.375 . S
C507 C508 1.361 . S
C508 H468 0.930 . S
C508 C507 1.361 . S
C508 C509 1.399 . S
C509 H469 0.929 . S
C509 C504 1.386 . S
C509 C508 1.399 . S
C510 C489 1.485 . S
C510 C511 1.394 . S
C510 C515 1.360 . S
C511 H470 0.931 . S
C511 C510 1.394 . S
C511 C512 1.372 . S
C512 H471 0.930 . S
C512 C511 1.372 . S
C512 C513 1.397 . S
C513 C512 1.397 . S
C513 C514 1.390 . S
C513 C529 1.476 . S
C514 H472 0.930 . S
C514 C513 1.390 . S
C514 C515 1.366 . S
C515 H473 0.932 . S
C515 C510 1.360 . S
C515 C514 1.366 . S
C516 C490 1.490 . S
C516 C517 1.380 . S
C516 C521 1.386 . S
C517 H474 0.930 . S
C517 C516 1.380 . S
C517 C518 1.381 . S
C518 H475 0.929 . S
C518 C517 1.381 . S
C518 C519 1.371 . S
C519 C518 1.371 . S
C519 C520 1.380 . S
C520 H476 0.931 . S
C520 C519 1.380 . S
C520 C521 1.387 . S
C521 H477 0.930 . S
C521 C516 1.386 . S
C521 C520 1.387 . S
C522 C491 1.519 . S
C522 C523 1.377 . S
C522 C527 1.361 . S
C523 H478 0.929 . S
C523 C522 1.377 . S
C523 C524 1.386 . S
C524 H479 0.931 . S
C524 C523 1.386 . S
C524 C525 1.363 . S
C525 C524 1.363 . S
C525 C526 1.385 . S
C526 H480 0.930 . S
C526 C525 1.385 . S
C526 C527 1.396 . S
C527 H481 0.929 . S
C527 C522 1.361 . S
C527 C526 1.396 . S
C528 O482 1.300 . S
C528 O483 1.209 . S
C528 C501 1.486 1_554 S
C529 O484 1.199 . S
C529 O485 1.297 . S
C529 C513 1.476 . S
H530 O556 0.856 . S
H531 O559 0.869 . S
H532 C567 0.930 . S
H533 C568 0.930 . S
H534 C570 0.930 . S
H535 C571 0.930 . S
H536 C573 0.931 . S
H537 C574 0.929 . S
H538 C576 0.930 . S
H539 C577 0.929 . S
H540 C579 0.930 . S
H541 C580 0.931 . S
H542 C582 0.930 . S
H543 C583 0.929 . S
H544 C585 0.931 . S
H545 C586 0.930 . S
H546 C588 0.930 . S
H547 C589 0.932 . S
H548 C591 0.930 . S
H549 C592 0.929 . S
H550 C594 0.931 . S
H551 C595 0.930 . S
H552 C597 0.929 . S
H553 C598 0.931 . S
H554 C600 0.930 . S
H555 C601 0.929 . S
O556 H530 0.856 . S
O556 C602 1.300 . S
O557 C602 1.209 . S
O558 C603 1.199 . S
O559 H531 0.869 . S
O559 C603 1.256 1_565 S
C560 C561 1.404 . S
C560 C565 1.397 . S
C560 C566 1.492 . S
C561 C560 1.404 . S
C561 C562 1.396 . S
C561 C572 1.492 . S
C562 C561 1.396 . S
C562 C563 1.397 . S
C562 C578 1.509 . S
C563 C562 1.397 . S
C563 C564 1.412 . S
C563 C584 1.485 . S
C564 C563 1.412 . S
C564 C565 1.388 . S
C564 C590 1.490 . S
C565 C560 1.397 . S
C565 C564 1.388 . S
C565 C596 1.519 . S
C566 C560 1.492 . S
C566 C567 1.363 . S
C566 C571 1.390 . S
C567 H532 0.930 . S
C567 C566 1.363 . S
C567 C568 1.372 . S
C568 H533 0.930 . S
C568 C567 1.372 . S
C568 C569 1.383 . S
C569 C568 1.383 . S
C569 C570 1.395 . S
C570 H534 0.930 . S
C570 C569 1.395 . S
C570 C571 1.362 . S
C571 H535 0.930 . S
C571 C566 1.390 . S
C571 C570 1.362 . S
C572 C561 1.492 . S
C572 C573 1.377 . S
C572 C577 1.397 . S
C573 H536 0.931 . S
C573 C572 1.377 . S
C573 C574 1.376 . S
C574 H537 0.929 . S
C574 C573 1.376 . S
C574 C575 1.376 1_556 S
C575 C574 1.376 1_554 S
C575 C576 1.378 1_554 S
C575 C602 1.486 . S
C576 H538 0.930 . S
C576 C575 1.378 1_556 S
C576 C577 1.376 . S
C577 H539 0.929 . S
C577 C572 1.397 . S
C577 C576 1.376 . S
C578 C562 1.509 . S
C578 C579 1.391 . S
C578 C583 1.386 . S
C579 H540 0.930 . S
C579 C578 1.391 . S
C579 C580 1.375 . S
C580 H541 0.931 . S
C580 C579 1.375 . S
C580 C581 1.375 . S
C581 C580 1.375 . S
C581 C582 1.361 . S
C582 H542 0.930 . S
C582 C581 1.361 . S
C582 C583 1.399 . S
C583 H543 0.929 . S
C583 C578 1.386 . S
C583 C582 1.399 . S
C584 C563 1.485 . S
C584 C585 1.394 . S
C584 C589 1.360 . S
C585 H544 0.931 . S
C585 C584 1.394 . S
C585 C586 1.372 . S
C586 H545 0.930 . S
C586 C585 1.372 . S
C586 C587 1.397 . S
C587 C586 1.397 . S
C587 C588 1.390 . S
C587 C603 1.476 . S
C588 H546 0.930 . S
C588 C587 1.390 . S
C588 C589 1.366 . S
C589 H547 0.932 . S
C589 C584 1.360 . S
C589 C588 1.366 . S
C590 C564 1.490 . S
C590 C591 1.380 . S
C590 C595 1.386 . S
C591 H548 0.930 . S
C591 C590 1.380 . S
C591 C592 1.381 . S
C592 H549 0.929 . S
C592 C591 1.381 . S
C592 C593 1.371 . S
C593 C592 1.371 . S
C593 C594 1.380 . S
C594 H550 0.931 . S
C594 C593 1.380 . S
C594 C595 1.387 . S
C595 H551 0.930 . S
C595 C590 1.386 . S
C595 C594 1.387 . S
C596 C565 1.519 . S
C596 C597 1.377 . S
C596 C601 1.361 . S
C597 H552 0.929 . S
C597 C596 1.377 . S
C597 C598 1.386 . S
C598 H553 0.931 . S
C598 C597 1.386 . S
C598 C599 1.363 . S
C599 C598 1.363 . S
C599 C600 1.385 . S
C600 H554 0.930 . S
C600 C599 1.385 . S
C600 C601 1.396 . S
C601 H555 0.929 . S
C601 C596 1.361 . S
C601 C600 1.396 . S
C602 O556 1.300 . S
C602 O557 1.209 . S
C602 C575 1.486 . S
C603 O558 1.199 . S
C603 O559 1.256 1_545 S
C603 C587 1.476 . S
H604 O630 0.856 . S
H605 O633 0.854 . S
H606 C641 0.930 . S
H607 C642 0.930 . S
H608 C644 0.930 . S
H609 C645 0.930 . S
H610 C647 0.931 . S
H611 C648 0.930 . S
H612 C650 0.930 . S
H613 C651 0.929 . S
H614 C653 0.930 . S
H615 C654 0.931 . S
H616 C656 0.930 . S
H617 C657 0.929 . S
H618 C659 0.931 . S
H619 C660 0.930 . S
H620 C662 0.930 . S
H621 C663 0.932 . S
H622 C665 0.930 . S
H623 C666 0.929 . S
H624 C668 0.931 . S
H625 C669 0.930 . S
H626 C671 0.929 . S
H627 C672 0.931 . S
H628 C674 0.930 . S
H629 C675 0.929 . S
O630 H604 0.856 . S
O630 C676 1.300 . S
O631 C676 1.209 . S
O632 C677 1.199 . S
O633 H605 0.854 . S
O633 C677 1.297 . S
C634 C635 1.404 . S
C634 C639 1.397 . S
C634 C640 1.492 . S
C635 C634 1.404 . S
C635 C636 1.396 . S
C635 C646 1.492 . S
C636 C635 1.396 . S
C636 C637 1.397 . S
C636 C652 1.509 . S
C637 C636 1.397 . S
C637 C638 1.412 . S
C637 C658 1.485 . S
C638 C637 1.412 . S
C638 C639 1.388 . S
C638 C664 1.490 . S
C639 C634 1.397 . S
C639 C638 1.388 . S
C639 C670 1.519 . S
C640 C634 1.492 . S
C640 C641 1.363 . S
C640 C645 1.390 . S
C641 H606 0.930 . S
C641 C640 1.363 . S
C641 C642 1.372 . S
C642 H607 0.930 . S
C642 C641 1.372 . S
C642 C643 1.383 . S
C643 C642 1.383 . S
C643 C644 1.395 . S
C644 H608 0.930 . S
C644 C643 1.395 . S
C644 C645 1.362 . S
C645 H609 0.930 . S
C645 C640 1.390 . S
C645 C644 1.362 . S
C646 C635 1.492 . S
C646 C647 1.377 . S
C646 C651 1.397 . S
C647 H610 0.931 . S
C647 C646 1.377 . S
C647 C648 1.376 1_556 S
C648 H611 0.930 . S
C648 C647 1.376 1_554 S
C648 C649 1.376 . S
C649 C648 1.376 . S
C649 C650 1.378 1_554 S
C649 C676 1.486 . S
C650 H612 0.930 . S
C650 C649 1.378 1_556 S
C650 C651 1.376 . S
C651 H613 0.929 . S
C651 C646 1.397 . S
C651 C650 1.376 . S
C652 C636 1.509 . S
C652 C653 1.391 . S
C652 C657 1.386 . S
C653 H614 0.930 . S
C653 C652 1.391 . S
C653 C654 1.375 . S
C654 H615 0.931 . S
C654 C653 1.375 . S
C654 C655 1.375 . S
C655 C654 1.375 . S
C655 C656 1.361 . S
C656 H616 0.930 . S
C656 C655 1.361 . S
C656 C657 1.399 . S
C657 H617 0.929 . S
C657 C652 1.386 . S
C657 C656 1.399 . S
C658 C637 1.485 . S
C658 C659 1.394 . S
C658 C663 1.360 . S
C659 H618 0.931 . S
C659 C658 1.394 . S
C659 C660 1.372 . S
C660 H619 0.930 . S
C660 C659 1.372 . S
C660 C661 1.397 . S
C661 C660 1.397 . S
C661 C662 1.390 . S
C661 C677 1.476 . S
C662 H620 0.930 . S
C662 C661 1.390 . S
C662 C663 1.366 . S
C663 H621 0.932 . S
C663 C658 1.360 . S
C663 C662 1.366 . S
C664 C638 1.490 . S
C664 C665 1.380 . S
C664 C669 1.386 . S
C665 H622 0.930 . S
C665 C664 1.380 . S
C665 C666 1.381 . S
C666 H623 0.929 . S
C666 C665 1.381 . S
C666 C667 1.371 . S
C667 C666 1.371 . S
C667 C668 1.380 . S
C668 H624 0.931 . S
C668 C667 1.380 . S
C668 C669 1.387 . S
C669 H625 0.930 . S
C669 C664 1.386 . S
C669 C668 1.387 . S
C670 C639 1.519 . S
C670 C671 1.377 . S
C670 C675 1.361 . S
C671 H626 0.929 . S
C671 C670 1.377 . S
C671 C672 1.386 . S
C672 H627 0.931 . S
C672 C671 1.386 . S
C672 C673 1.363 . S
C673 C672 1.363 . S
C673 C674 1.385 . S
C674 H628 0.930 . S
C674 C673 1.385 . S
C674 C675 1.396 . S
C675 H629 0.929 . S
C675 C670 1.361 . S
C675 C674 1.396 . S
C676 O630 1.300 . S
C676 O631 1.209 . S
C676 C649 1.486 . S
C677 O632 1.199 . S
C677 O633 1.297 . S
C677 C661 1.476 . S
H678 O704 0.856 . S
H679 O707 0.854 . S
H680 C715 0.930 . S
H681 C716 0.930 . S
H682 C718 0.930 . S
H683 C719 0.930 . S
H684 C721 0.931 . S
H685 C722 0.930 . S
H686 C724 0.930 . S
H687 C725 0.929 . S
H688 C727 0.930 . S
H689 C728 0.931 . S
H690 C730 0.930 . S
H691 C731 0.929 . S
H692 C733 0.931 . S
H693 C734 0.930 . S
H694 C736 0.930 . S
H695 C737 0.932 . S
H696 C739 0.930 . S
H697 C740 0.929 . S
H698 C742 0.931 . S
H699 C743 0.930 . S
H700 C745 0.929 . S
H701 C746 0.931 . S
H702 C748 0.930 . S
H703 C749 0.929 . S
O704 H678 0.856 . S
O704 C750 1.300 . S
O705 C750 1.209 . S
O706 C751 1.199 . S
O707 H679 0.854 . S
O707 C751 1.297 . S
C708 C709 1.404 . S
C708 C713 1.397 . S
C708 C714 1.492 . S
C709 C708 1.404 . S
C709 C710 1.396 . S
C709 C720 1.492 . S
C710 C709 1.396 . S
C710 C711 1.397 . S
C710 C726 1.509 . S
C711 C710 1.397 . S
C711 C712 1.412 . S
C711 C732 1.485 . S
C712 C711 1.412 . S
C712 C713 1.388 . S
C712 C738 1.490 . S
C713 C708 1.397 . S
C713 C712 1.388 . S
C713 C744 1.519 . S
C714 C708 1.492 . S
C714 C715 1.363 . S
C714 C719 1.390 . S
C715 H680 0.930 . S
C715 C714 1.363 . S
C715 C716 1.372 . S
C716 H681 0.930 . S
C716 C715 1.372 . S
C716 C717 1.383 . S
C717 C716 1.383 . S
C717 C718 1.395 . S
C718 H682 0.930 . S
C718 C717 1.395 . S
C718 C719 1.362 . S
C719 H683 0.930 . S
C719 C714 1.390 . S
C719 C718 1.362 . S
C720 C709 1.492 . S
C720 C721 1.377 . S
C720 C725 1.397 . S
C721 H684 0.931 . S
C721 C720 1.377 . S
C721 C722 1.376 . S
C722 H685 0.930 . S
C722 C721 1.376 . S
C722 C723 1.376 . S
C723 C722 1.376 . S
C723 C724 1.378 . S
C723 C750 1.486 . S
C724 H686 0.930 . S
C724 C723 1.378 . S
C724 C725 1.376 . S
C725 H687 0.929 . S
C725 C720 1.397 . S
C725 C724 1.376 . S
C726 C710 1.509 . S
C726 C727 1.391 . S
C726 C731 1.386 . S
C727 H688 0.930 . S
C727 C726 1.391 . S
C727 C728 1.375 . S
C728 H689 0.931 . S
C728 C727 1.375 . S
C728 C729 1.375 . S
C729 C728 1.375 . S
C729 C730 1.361 . S
C730 H690 0.930 . S
C730 C729 1.361 . S
C730 C731 1.399 . S
C731 H691 0.929 . S
C731 C726 1.386 . S
C731 C730 1.399 . S
C732 C711 1.485 . S
C732 C733 1.394 . S
C732 C737 1.360 . S
C733 H692 0.931 . S
C733 C732 1.394 . S
C733 C734 1.372 . S
C734 H693 0.930 . S
C734 C733 1.372 . S
C734 C735 1.397 . S
C735 C734 1.397 . S
C735 C736 1.390 . S
C735 C751 1.476 . S
C736 H694 0.930 . S
C736 C735 1.390 . S
C736 C737 1.366 . S
C737 H695 0.932 . S
C737 C732 1.360 . S
C737 C736 1.366 . S
C738 C712 1.490 . S
C738 C739 1.380 . S
C738 C743 1.386 . S
C739 H696 0.930 . S
C739 C738 1.380 . S
C739 C740 1.381 . S
C740 H697 0.929 . S
C740 C739 1.381 . S
C740 C741 1.371 . S
C741 C740 1.371 . S
C741 C742 1.380 . S
C742 H698 0.931 . S
C742 C741 1.380 . S
C742 C743 1.387 . S
C743 H699 0.930 . S
C743 C738 1.386 . S
C743 C742 1.387 . S
C744 C713 1.519 . S
C744 C745 1.377 . S
C744 C749 1.361 . S
C745 H700 0.929 . S
C745 C744 1.377 . S
C745 C746 1.386 . S
C746 H701 0.931 . S
C746 C745 1.386 . S
C746 C747 1.363 . S
C747 C746 1.363 . S
C747 C748 1.385 . S
C748 H702 0.930 . S
C748 C747 1.385 . S
C748 C749 1.396 . S
C749 H703 0.929 . S
C749 C744 1.361 . S
C749 C748 1.396 . S
C750 O704 1.300 . S
C750 O705 1.209 . S
C750 C723 1.486 . S
C751 O706 1.199 . S
C751 O707 1.297 . S
C751 C735 1.476 . S
H752 O778 0.856 . S
H753 O781 0.854 . S
H754 C789 0.930 . S
H755 C790 0.930 . S
H756 C792 0.930 . S
H757 C793 0.930 . S
H758 C795 0.931 . S
H759 C796 0.930 . S
H760 C798 0.930 . S
H761 C799 0.929 . S
H762 C801 0.930 . S
H763 C802 0.931 . S
H764 C804 0.930 . S
H765 C805 0.929 . S
H766 C807 0.931 . S
H767 C808 0.930 . S
H768 C810 0.930 . S
H769 C811 0.932 . S
H770 C813 0.930 . S
H771 C814 0.929 . S
H772 C816 0.931 . S
H773 C817 0.930 . S
H774 C819 0.929 . S
H775 C820 0.931 . S
H776 C822 0.930 . S
H777 C823 0.929 . S
O778 H752 0.856 . S
O778 C824 1.300 . S
O779 C824 1.209 . S
O780 C825 1.199 . S
O781 H753 0.854 . S
O781 C825 1.297 . S
C782 C783 1.404 . S
C782 C787 1.397 . S
C782 C788 1.492 . S
C783 C782 1.404 . S
C783 C784 1.396 . S
C783 C794 1.492 . S
C784 C783 1.396 . S
C784 C785 1.397 . S
C784 C800 1.509 . S
C785 C784 1.397 . S
C785 C786 1.412 . S
C785 C806 1.485 . S
C786 C785 1.412 . S
C786 C787 1.388 . S
C786 C812 1.490 . S
C787 C782 1.397 . S
C787 C786 1.388 . S
C787 C818 1.519 . S
C788 C782 1.492 . S
C788 C789 1.363 . S
C788 C793 1.390 . S
C789 H754 0.930 . S
C789 C788 1.363 . S
C789 C790 1.372 . S
C790 H755 0.930 . S
C790 C789 1.372 . S
C790 C791 1.383 . S
C791 C790 1.383 . S
C791 C792 1.395 . S
C792 H756 0.930 . S
C792 C791 1.395 . S
C792 C793 1.362 . S
C793 H757 0.930 . S
C793 C788 1.390 . S
C793 C792 1.362 . S
C794 C783 1.492 . S
C794 C795 1.377 . S
C794 C799 1.397 . S
C795 H758 0.931 . S
C795 C794 1.377 . S
C795 C796 1.376 . S
C796 H759 0.930 . S
C796 C795 1.376 . S
C796 C797 1.376 . S
C797 C796 1.376 . S
C797 C798 1.378 . S
C797 C824 1.486 . S
C798 H760 0.930 . S
C798 C797 1.378 . S
C798 C799 1.376 . S
C799 H761 0.929 . S
C799 C794 1.397 . S
C799 C798 1.376 . S
C800 C784 1.509 . S
C800 C801 1.391 . S
C800 C805 1.386 . S
C801 H762 0.930 . S
C801 C800 1.391 . S
C801 C802 1.375 . S
C802 H763 0.931 . S
C802 C801 1.375 . S
C802 C803 1.375 . S
C803 C802 1.375 . S
C803 C804 1.361 . S
C804 H764 0.930 . S
C804 C803 1.361 . S
C804 C805 1.399 . S
C805 H765 0.929 . S
C805 C800 1.386 . S
C805 C804 1.399 . S
C806 C785 1.485 . S
C806 C807 1.394 . S
C806 C811 1.360 . S
C807 H766 0.931 . S
C807 C806 1.394 . S
C807 C808 1.372 . S
C808 H767 0.930 . S
C808 C807 1.372 . S
C808 C809 1.397 . S
C809 C808 1.397 . S
C809 C810 1.390 . S
C809 C825 1.476 . S
C810 H768 0.930 . S
C810 C809 1.390 . S
C810 C811 1.366 . S
C811 H769 0.932 . S
C811 C806 1.360 . S
C811 C810 1.366 . S
C812 C786 1.490 . S
C812 C813 1.380 . S
C812 C817 1.386 . S
C813 H770 0.930 . S
C813 C812 1.380 . S
C813 C814 1.381 . S
C814 H771 0.929 . S
C814 C813 1.381 . S
C814 C815 1.371 . S
C815 C814 1.371 . S
C815 C816 1.380 . S
C816 H772 0.931 . S
C816 C815 1.380 . S
C816 C817 1.387 . S
C817 H773 0.930 . S
C817 C812 1.386 . S
C817 C816 1.387 . S
C818 C787 1.519 . S
C818 C819 1.377 . S
C818 C823 1.361 . S
C819 H774 0.929 . S
C819 C818 1.377 . S
C819 C820 1.386 . S
C820 H775 0.931 . S
C820 C819 1.386 . S
C820 C821 1.363 . S
C821 C820 1.363 . S
C821 C822 1.385 . S
C822 H776 0.930 . S
C822 C821 1.385 . S
C822 C823 1.396 . S
C823 H777 0.929 . S
C823 C818 1.361 . S
C823 C822 1.396 . S
C824 O778 1.300 . S
C824 O779 1.209 . S
C824 C797 1.486 . S
C825 O780 1.199 . S
C825 O781 1.297 . S
C825 C809 1.476 . S
H826 O852 0.856 . S
H827 O855 0.854 . S
H828 C863 0.930 . S
H829 C864 0.930 . S
H830 C866 0.930 . S
H831 C867 0.930 . S
H832 C869 0.931 . S
H833 C870 0.930 . S
H834 C872 0.930 . S
H835 C873 0.929 . S
H836 C875 0.930 . S
H837 C876 0.931 . S
H838 C878 0.930 . S
H839 C879 0.929 . S
H840 C881 0.931 . S
H841 C882 0.930 . S
H842 C884 0.930 . S
H843 C885 0.932 . S
H844 C887 0.930 . S
H845 C888 0.929 . S
H846 C890 0.931 . S
H847 C891 0.930 . S
H848 C893 0.929 . S
H849 C894 0.931 . S
H850 C896 0.930 . S
H851 C897 0.929 . S
O852 H826 0.856 . S
O852 C898 1.300 . S
O853 C898 1.209 . S
O854 C899 1.199 . S
O855 H827 0.854 . S
O855 C899 1.297 . S
C856 C857 1.404 . S
C856 C861 1.397 . S
C856 C862 1.492 . S
C857 C856 1.404 . S
C857 C858 1.396 . S
C857 C868 1.492 . S
C858 C857 1.396 . S
C858 C859 1.397 . S
C858 C874 1.509 . S
C859 C858 1.397 . S
C859 C860 1.412 . S
C859 C880 1.485 . S
C860 C859 1.412 . S
C860 C861 1.388 . S
C860 C886 1.490 . S
C861 C856 1.397 . S
C861 C860 1.388 . S
C861 C892 1.519 . S
C862 C856 1.492 . S
C862 C863 1.363 . S
C862 C867 1.390 . S
C863 H828 0.930 . S
C863 C862 1.363 . S
C863 C864 1.372 . S
C864 H829 0.930 . S
C864 C863 1.372 . S
C864 C865 1.383 . S
C865 C864 1.383 . S
C865 C866 1.395 . S
C866 H830 0.930 . S
C866 C865 1.395 . S
C866 C867 1.362 . S
C867 H831 0.930 . S
C867 C862 1.390 . S
C867 C866 1.362 . S
C868 C857 1.492 . S
C868 C869 1.377 . S
C868 C873 1.397 . S
C869 H832 0.931 . S
C869 C868 1.377 . S
C869 C870 1.376 . S
C870 H833 0.930 . S
C870 C869 1.376 . S
C870 C871 1.376 . S
C871 C870 1.376 . S
C871 C872 1.378 . S
C871 C898 1.486 . S
C872 H834 0.930 . S
C872 C871 1.378 . S
C872 C873 1.376 . S
C873 H835 0.929 . S
C873 C868 1.397 . S
C873 C872 1.376 . S
C874 C858 1.509 . S
C874 C875 1.391 . S
C874 C879 1.386 . S
C875 H836 0.930 . S
C875 C874 1.391 . S
C875 C876 1.375 . S
C876 H837 0.931 . S
C876 C875 1.375 . S
C876 C877 1.375 . S
C877 C876 1.375 . S
C877 C878 1.361 . S
C878 H838 0.930 . S
C878 C877 1.361 . S
C878 C879 1.399 . S
C879 H839 0.929 . S
C879 C874 1.386 . S
C879 C878 1.399 . S
C880 C859 1.485 . S
C880 C881 1.394 . S
C880 C885 1.360 . S
C881 H840 0.931 . S
C881 C880 1.394 . S
C881 C882 1.372 . S
C882 H841 0.930 . S
C882 C881 1.372 . S
C882 C883 1.397 . S
C883 C882 1.397 . S
C883 C884 1.390 . S
C883 C899 1.476 . S
C884 H842 0.930 . S
C884 C883 1.390 . S
C884 C885 1.366 . S
C885 H843 0.932 . S
C885 C880 1.360 . S
C885 C884 1.366 . S
C886 C860 1.490 . S
C886 C887 1.380 . S
C886 C891 1.386 . S
C887 H844 0.930 . S
C887 C886 1.380 . S
C887 C888 1.381 . S
C888 H845 0.929 . S
C888 C887 1.381 . S
C888 C889 1.371 . S
C889 C888 1.371 . S
C889 C890 1.380 . S
C890 H846 0.931 . S
C890 C889 1.380 . S
C890 C891 1.387 . S
C891 H847 0.930 . S
C891 C886 1.386 . S
C891 C890 1.387 . S
C892 C861 1.519 . S
C892 C893 1.377 . S
C892 C897 1.361 . S
C893 H848 0.929 . S
C893 C892 1.377 . S
C893 C894 1.386 . S
C894 H849 0.931 . S
C894 C893 1.386 . S
C894 C895 1.363 . S
C895 C894 1.363 . S
C895 C896 1.385 . S
C896 H850 0.930 . S
C896 C895 1.385 . S
C896 C897 1.396 . S
C897 H851 0.929 . S
C897 C892 1.361 . S
C897 C896 1.396 . S
C898 O852 1.300 . S
C898 O853 1.209 . S
C898 C871 1.486 . S
C899 O854 1.199 . S
C899 O855 1.297 . S
C899 C883 1.476 . S
H900 O926 0.856 . S
H901 O929 0.854 . S
H902 C937 0.930 . S
H903 C938 0.930 . S
H904 C940 0.930 . S
H905 C941 0.930 . S
H906 C943 0.931 . S
H907 C944 0.930 1_655 S
H908 C946 0.930 . S
H909 C947 0.929 . S
H910 C949 0.930 . S
H911 C950 0.931 1_655 S
H912 C952 0.930 . S
H913 C953 0.929 . S
H914 C955 0.931 . S
H915 C956 0.930 . S
H916 C958 0.930 . S
H917 C959 0.932 . S
H918 C961 0.930 . S
H919 C962 0.929 . S
H920 C964 0.931 . S
H921 C965 0.930 . S
H922 C967 0.929 . S
H923 C968 0.931 . S
H924 C970 0.930 . S
H925 C971 0.929 . S
O926 H900 0.856 . S
O926 C972 1.300 . S
O927 C972 1.209 . S
O928 C973 1.199 1_655 S
O929 H901 0.854 . S
O929 C973 1.297 . S
C930 C931 1.404 . S
C930 C935 1.394 . S
C930 C936 1.492 . S
C931 C930 1.404 . S
C931 C932 1.396 . S
C931 C942 1.492 . S
C932 C931 1.396 . S
C932 C933 1.397 . S
C932 C948 1.509 . S
C933 C932 1.397 . S
C933 C934 1.418 . S
C933 C954 1.485 . S
C934 C933 1.418 . S
C934 C935 1.409 . S
C934 C960 1.490 1_455 S
C935 C930 1.394 . S
C935 C934 1.409 . S
C935 C966 1.485 1_455 S
C936 C930 1.492 . S
C936 C937 1.363 1_455 S
C936 C941 1.390 . S
C937 H902 0.930 . S
C937 C936 1.363 1_655 S
C937 C938 1.372 . S
C938 H903 0.930 . S
C938 C937 1.372 . S
C938 C939 1.383 . S
C939 C938 1.383 . S
C939 C940 1.395 1_655 S
C940 H904 0.930 . S
C940 C939 1.395 1_455 S
C940 C941 1.362 . S
C941 H905 0.930 . S
C941 C936 1.390 . S
C941 C940 1.362 . S
C942 C931 1.492 . S
C942 C943 1.377 1_455 S
C942 C947 1.397 . S
C943 H906 0.931 . S
C943 C942 1.377 1_655 S
C943 C944 1.376 1_655 S
C944 H907 0.930 1_455 S
C944 C943 1.376 1_455 S
C944 C945 1.376 . S
C945 C944 1.376 . S
C945 C946 1.378 . S
C945 C972 1.486 . S
C946 H908 0.930 . S
C946 C945 1.378 . S
C946 C947 1.376 . S
C947 H909 0.929 . S
C947 C942 1.397 . S
C947 C946 1.376 . S
C948 C932 1.509 . S
C948 C949 1.391 1_455 S
C948 C953 1.386 . S
C949 H910 0.930 . S
C949 C948 1.391 1_655 S
C949 C950 1.375 1_655 S
C950 H911 0.931 1_455 S
C950 C949 1.375 1_455 S
C950 C951 1.375 . S
C951 C950 1.375 . S
C951 C952 1.361 . S
C952 H912 0.930 . S
C952 C951 1.361 . S
C952 C953 1.399 . S
C953 H913 0.929 . S
C953 C948 1.386 . S
C953 C952 1.399 . S
C954 C933 1.485 . S
C954 C955 1.394 1_455 S
C954 C959 1.360 . S
C955 H914 0.931 . S
C955 C954 1.394 1_655 S
C955 C956 1.372 . S
C956 H915 0.930 . S
C956 C955 1.372 . S
C956 C957 1.397 1_655 S
C957 C956 1.397 1_455 S
C957 C958 1.390 . S
C957 C973 1.476 . S
C958 H916 0.930 . S
C958 C957 1.390 . S
C958 C959 1.366 . S
C959 H917 0.932 . S
C959 C954 1.360 . S
C959 C958 1.366 . S
C960 C934 1.490 1_655 S
C960 C961 1.380 . S
C960 C965 1.386 1_655 S
C961 H918 0.930 . S
C961 C960 1.380 . S
C961 C962 1.381 . S
C962 H919 0.929 . S
C962 C961 1.381 . S
C962 C963 1.371 . S
C963 C962 1.371 . S
C963 C964 1.380 1_655 S
C964 H920 0.931 . S
C964 C963 1.380 1_455 S
C964 C965 1.387 . S
C965 H921 0.930 . S
C965 C960 1.386 1_455 S
C965 C964 1.387 . S
C966 C935 1.485 1_655 S
C966 C967 1.420 . S
C966 C971 1.333 1_655 S
C967 H922 0.929 . S
C967 C966 1.420 . S
C967 C968 1.386 . S
C968 H923 0.931 . S
C968 C967 1.386 . S
C968 C969 1.396 . S
C969 C968 1.396 . S
C969 C970 1.336 1_655 S
C970 H924 0.930 . S
C970 C969 1.336 1_455 S
C970 C971 1.396 . S
C971 H925 0.929 . S
C971 C966 1.333 1_455 S
C971 C970 1.396 . S
C972 O926 1.300 . S
C972 O927 1.209 . S
C972 C945 1.486 . S
C973 O928 1.199 1_455 S
C973 O929 1.297 . S
C973 C957 1.476 . S
H974 O1000 0.856 . S
H975 O1003 0.854 . S
H976 C1011 0.930 . S
H977 C1012 0.930 . S
H978 C1014 0.930 . S
H979 C1015 0.930 . S
H980 C1017 0.931 . S
H981 C1018 0.930 . S
H982 C1020 0.930 . S
H983 C1021 0.929 . S
H984 C1023 0.930 . S
H985 C1024 0.931 . S
H986 C1026 0.930 . S
H987 C1027 0.929 . S
H988 C1029 0.931 . S
H989 C1030 0.930 . S
H990 C1032 0.930 . S
H991 C1033 0.932 . S
H992 C1035 0.930 . S
H993 C1036 0.929 . S
H994 C1038 0.931 . S
H995 C1039 0.930 . S
H996 C1041 0.929 . S
H997 C1042 0.931 . S
H998 C1044 0.930 . S
H999 C1045 0.929 . S
O1000 H974 0.856 . S
O1000 C1046 1.300 . S
O1001 C1046 1.209 . S
O1002 C1047 1.199 . S
O1003 H975 0.854 . S
O1003 C1047 1.297 . S
C1004 C1005 1.404 . S
C1004 C1009 1.397 . S
C1004 C1010 1.492 . S
C1005 C1004 1.404 . S
C1005 C1006 1.396 . S
C1005 C1016 1.492 . S
C1006 C1005 1.396 . S
C1006 C1007 1.397 . S
C1006 C1022 1.509 . S
C1007 C1006 1.397 . S
C1007 C1008 1.412 . S
C1007 C1028 1.485 . S
C1008 C1007 1.412 . S
C1008 C1009 1.388 . S
C1008 C1034 1.490 . S
C1009 C1004 1.397 . S
C1009 C1008 1.388 . S
C1009 C1040 1.519 . S
C1010 C1004 1.492 . S
C1010 C1011 1.363 . S
C1010 C1015 1.390 . S
C1011 H976 0.930 . S
C1011 C1010 1.363 . S
C1011 C1012 1.372 . S
C1012 H977 0.930 . S
C1012 C1011 1.372 . S
C1012 C1013 1.383 . S
C1013 C1012 1.383 . S
C1013 C1014 1.395 . S
C1014 H978 0.930 . S
C1014 C1013 1.395 . S
C1014 C1015 1.362 . S
C1015 H979 0.930 . S
C1015 C1010 1.390 . S
C1015 C1014 1.362 . S
C1016 C1005 1.492 . S
C1016 C1017 1.377 . S
C1016 C1021 1.397 . S
C1017 H980 0.931 . S
C1017 C1016 1.377 . S
C1017 C1018 1.376 . S
C1018 H981 0.930 . S
C1018 C1017 1.376 . S
C1018 C1019 1.376 . S
C1019 C1018 1.376 . S
C1019 C1020 1.378 . S
C1019 C1046 1.486 . S
C1020 H982 0.930 . S
C1020 C1019 1.378 . S
C1020 C1021 1.376 . S
C1021 H983 0.929 . S
C1021 C1016 1.397 . S
C1021 C1020 1.376 . S
C1022 C1006 1.509 . S
C1022 C1023 1.391 . S
C1022 C1027 1.386 . S
C1023 H984 0.930 . S
C1023 C1022 1.391 . S
C1023 C1024 1.375 . S
C1024 H985 0.931 . S
C1024 C1023 1.375 . S
C1024 C1025 1.375 . S
C1025 C1024 1.375 . S
C1025 C1026 1.361 . S
C1026 H986 0.930 . S
C1026 C1025 1.361 . S
C1026 C1027 1.399 . S
C1027 H987 0.929 . S
C1027 C1022 1.386 . S
C1027 C1026 1.399 . S
C1028 C1007 1.485 . S
C1028 C1029 1.394 . S
C1028 C1033 1.360 . S
C1029 H988 0.931 . S
C1029 C1028 1.394 . S
C1029 C1030 1.372 . S
C1030 H989 0.930 . S
C1030 C1029 1.372 . S
C1030 C1031 1.397 . S
C1031 C1030 1.397 . S
C1031 C1032 1.390 . S
C1031 C1047 1.476 . S
C1032 H990 0.930 . S
C1032 C1031 1.390 . S
C1032 C1033 1.366 . S
C1033 H991 0.932 . S
C1033 C1028 1.360 . S
C1033 C1032 1.366 . S
C1034 C1008 1.490 . S
C1034 C1035 1.380 . S
C1034 C1039 1.386 . S
C1035 H992 0.930 . S
C1035 C1034 1.380 . S
C1035 C1036 1.381 . S
C1036 H993 0.929 . S
C1036 C1035 1.381 . S
C1036 C1037 1.371 . S
C1037 C1036 1.371 . S
C1037 C1038 1.380 . S
C1038 H994 0.931 . S
C1038 C1037 1.380 . S
C1038 C1039 1.387 . S
C1039 H995 0.930 . S
C1039 C1034 1.386 . S
C1039 C1038 1.387 . S
C1040 C1009 1.519 . S
C1040 C1041 1.377 . S
C1040 C1045 1.361 . S
C1041 H996 0.929 . S
C1041 C1040 1.377 . S
C1041 C1042 1.386 . S
C1042 H997 0.931 . S
C1042 C1041 1.386 . S
C1042 C1043 1.363 . S
C1043 C1042 1.363 . S
C1043 C1044 1.385 . S
C1044 H998 0.930 . S
C1044 C1043 1.385 . S
C1044 C1045 1.396 . S
C1045 H999 0.929 . S
C1045 C1040 1.361 . S
C1045 C1044 1.396 . S
C1046 O1000 1.300 . S
C1046 O1001 1.209 . S
C1046 C1019 1.486 . S
C1047 O1002 1.199 . S
C1047 O1003 1.297 . S
C1047 C1031 1.476 . S
H1048 O1074 0.856 . S
H1049 O1077 0.854 . S
H1050 C1085 0.930 . S
H1051 C1086 0.930 . S
H1052 C1088 0.930 . S
H1053 C1089 0.930 . S
H1054 C1091 0.931 . S
H1055 C1092 0.953 . S
H1056 C1094 0.930 . S
H1057 C1095 0.929 . S
H1058 C1097 0.930 . S
H1059 C1098 0.931 . S
H1060 C1100 0.930 . S
H1061 C1101 0.929 . S
H1062 C1103 0.931 . S
H1063 C1104 0.930 . S
H1064 C1106 0.930 . S
H1065 C1107 0.932 . S
H1066 C1109 0.930 . S
H1067 C1110 0.929 . S
H1068 C1112 0.931 . S
H1069 C1113 0.930 . S
H1070 C1115 0.929 . S
H1071 C1116 0.931 . S
H1072 C1118 0.930 . S
H1073 C1119 0.929 . S
O1074 H1048 0.856 . S
O1074 C1120 1.300 . S
O1075 C1120 1.209 . S
O1076 C1121 1.199 1_545 S
O1077 H1049 0.854 . S
O1077 C1121 1.297 . S
C1078 C1079 1.404 . S
C1078 C1083 1.413 . S
C1078 C1084 1.492 . S
C1079 C1078 1.404 . S
C1079 C1080 1.396 . S
C1079 C1090 1.492 . S
C1080 C1079 1.396 . S
C1080 C1081 1.397 . S
C1080 C1096 1.509 . S
C1081 C1080 1.397 . S
C1081 C1082 1.411 . S
C1081 C1102 1.485 . S
C1082 C1081 1.411 . S
C1082 C1083 1.367 . S
C1082 C1108 1.488 1_565 S
C1083 C1078 1.413 . S
C1083 C1082 1.367 . S
C1083 C1114 1.533 1_565 S
C1084 C1078 1.492 . S
C1084 C1085 1.363 1_565 S
C1084 C1089 1.390 . S
C1085 H1050 0.930 . S
C1085 C1084 1.363 1_545 S
C1085 C1086 1.372 . S
C1086 H1051 0.930 . S
C1086 C1085 1.372 . S
C1086 C1087 1.383 . S
C1087 C1086 1.383 . S
C1087 C1088 1.395 1_545 S
C1088 H1052 0.930 . S
C1088 C1087 1.395 1_565 S
C1088 C1089 1.362 . S
C1089 H1053 0.930 . S
C1089 C1084 1.390 . S
C1089 C1088 1.362 . S
C1090 C1079 1.492 . S
C1090 C1091 1.377 1_565 S
C1090 C1095 1.397 . S
C1091 H1054 0.931 . S
C1091 C1090 1.377 1_545 S
C1091 C1092 1.388 . S
C1092 H1055 0.953 . S
C1092 C1091 1.388 . S
C1092 C1093 1.341 1_545 S
C1093 C1092 1.341 1_565 S
C1093 C1094 1.378 . S
C1093 C1120 1.486 . S
C1094 H1056 0.930 . S
C1094 C1093 1.378 . S
C1094 C1095 1.376 . S
C1095 H1057 0.929 . S
C1095 C1090 1.397 . S
C1095 C1094 1.376 . S
C1096 C1080 1.509 . S
C1096 C1097 1.391 1_565 S
C1096 C1101 1.386 . S
C1097 H1058 0.930 . S
C1097 C1096 1.391 1_545 S
C1097 C1098 1.375 . S
C1098 H1059 0.931 . S
C1098 C1097 1.375 . S
C1098 C1099 1.375 1_545 S
C1099 C1098 1.375 1_565 S
C1099 C1100 1.361 . S
C1100 H1060 0.930 . S
C1100 C1099 1.361 . S
C1100 C1101 1.399 . S
C1101 H1061 0.929 . S
C1101 C1096 1.386 . S
C1101 C1100 1.399 . S
C1102 C1081 1.485 . S
C1102 C1103 1.394 1_565 S
C1102 C1107 1.360 . S
C1103 H1062 0.931 . S
C1103 C1102 1.394 1_545 S
C1103 C1104 1.372 . S
C1104 H1063 0.930 . S
C1104 C1103 1.372 . S
C1104 C1105 1.397 1_545 S
C1105 C1104 1.397 1_565 S
C1105 C1106 1.390 . S
C1105 C1121 1.476 . S
C1106 H1064 0.930 . S
C1106 C1105 1.390 . S
C1106 C1107 1.366 . S
C1107 H1065 0.932 . S
C1107 C1102 1.360 . S
C1107 C1106 1.366 . S
C1108 C1082 1.488 1_545 S
C1108 C1109 1.380 . S
C1108 C1113 1.386 1_545 S
C1109 H1066 0.930 . S
C1109 C1108 1.380 . S
C1109 C1110 1.381 . S
C1110 H1067 0.929 . S
C1110 C1109 1.381 . S
C1110 C1111 1.371 . S
C1111 C1110 1.371 . S
C1111 C1112 1.380 1_545 S
C1112 H1068 0.931 . S
C1112 C1111 1.380 1_565 S
C1112 C1113 1.387 . S
C1113 H1069 0.930 . S
C1113 C1108 1.386 1_565 S
C1113 C1112 1.387 . S
C1114 C1083 1.533 1_545 S
C1114 C1115 1.377 . S
C1114 C1119 1.360 1_545 S
C1115 H1070 0.929 . S
C1115 C1114 1.377 . S
C1115 C1116 1.386 . S
C1116 H1071 0.931 . S
C1116 C1115 1.386 . S
C1116 C1117 1.363 1_545 S
C1117 C1116 1.363 1_565 S
C1117 C1118 1.385 . S
C1118 H1072 0.930 . S
C1118 C1117 1.385 . S
C1118 C1119 1.396 . S
C1119 H1073 0.929 . S
C1119 C1114 1.360 1_565 S
C1119 C1118 1.396 . S
C1120 O1074 1.300 . S
C1120 O1075 1.209 . S
C1120 C1093 1.486 . S
C1121 O1076 1.199 1_565 S
C1121 O1077 1.297 . S
C1121 C1105 1.476 . S
H1122 O1148 0.856 . S
H1123 O1151 0.854 . S
H1124 C1159 0.930 . S
H1125 C1160 0.930 . S
H1126 C1162 0.930 . S
H1127 C1163 0.930 . S
H1128 C1165 0.931 . S
H1129 C1166 0.930 . S
H1130 C1168 0.930 . S
H1131 C1169 0.929 . S
H1132 C1171 0.930 . S
H1133 C1172 0.931 . S
H1134 C1174 0.930 . S
H1135 C1175 0.929 . S
H1136 C1177 0.931 . S
H1137 C1178 0.930 . S
H1138 C1180 0.930 . S
H1139 C1181 0.932 . S
H1140 C1183 0.930 . S
H1141 C1184 0.929 . S
H1142 C1186 0.931 . S
H1143 C1187 0.930 . S
H1144 C1189 0.929 . S
H1145 C1190 0.931 . S
H1146 C1192 0.930 . S
H1147 C1193 0.929 . S
O1148 H1122 0.856 . S
O1148 C1194 1.300 . S
O1149 C1194 1.209 1_565 S
O1150 C1195 1.199 1_545 S
O1151 H1123 0.854 . S
O1151 C1195 1.297 . S
C1152 C1153 1.404 . S
C1152 C1157 1.397 1_545 S
C1152 C1158 1.492 . S
C1153 C1152 1.404 . S
C1153 C1154 1.396 . S
C1153 C1164 1.492 . S
C1154 C1153 1.396 . S
C1154 C1155 1.396 1_545 S
C1154 C1170 1.509 . S
C1155 C1154 1.396 1_565 S
C1155 C1156 1.421 . S
C1155 C1176 1.488 . S
C1156 C1155 1.421 . S
C1156 C1157 1.372 . S
C1156 C1182 1.487 . S
C1157 C1152 1.397 1_565 S
C1157 C1156 1.372 . S
C1157 C1188 1.519 . S
C1158 C1152 1.492 . S
C1158 C1159 1.363 . S
C1158 C1163 1.390 1_545 S
C1159 H1124 0.930 . S
C1159 C1158 1.363 . S
C1159 C1160 1.372 . S
C1160 H1125 0.930 . S
C1160 C1159 1.372 . S
C1160 C1161 1.383 . S
C1161 C1160 1.383 . S
C1161 C1162 1.395 1_545 S
C1162 H1126 0.930 . S
C1162 C1161 1.395 1_565 S
C1162 C1163 1.362 . S
C1163 H1127 0.930 . S
C1163 C1158 1.390 1_565 S
C1163 C1162 1.362 . S
C1164 C1153 1.492 . S
C1164 C1165 1.377 . S
C1164 C1169 1.397 1_545 S
C1165 H1128 0.931 . S
C1165 C1164 1.377 . S
C1165 C1166 1.376 . S
C1166 H1129 0.930 . S
C1166 C1165 1.376 . S
C1166 C1167 1.376 . S
C1167 C1166 1.376 . S
C1167 C1168 1.378 1_545 S
C1167 C1194 1.486 . S
C1168 H1130 0.930 . S
C1168 C1167 1.378 1_565 S
C1168 C1169 1.376 . S
C1169 H1131 0.929 . S
C1169 C1164 1.397 1_565 S
C1169 C1168 1.376 . S
C1170 C1154 1.509 . S
C1170 C1171 1.391 . S
C1170 C1175 1.386 1_545 S
C1171 H1132 0.930 . S
C1171 C1170 1.391 . S
C1171 C1172 1.375 . S
C1172 H1133 0.931 . S
C1172 C1171 1.375 . S
C1172 C1173 1.375 . S
C1173 C1172 1.375 . S
C1173 C1174 1.361 1_545 S
C1174 H1134 0.930 . S
C1174 C1173 1.361 1_565 S
C1174 C1175 1.399 . S
C1175 H1135 0.929 . S
C1175 C1170 1.386 1_565 S
C1175 C1174 1.399 . S
C1176 C1155 1.488 . S
C1176 C1177 1.394 1_565 S
C1176 C1181 1.360 . S
C1177 H1136 0.931 . S
C1177 C1176 1.394 1_545 S
C1177 C1178 1.372 . S
C1178 H1137 0.930 . S
C1178 C1177 1.372 . S
C1178 C1179 1.397 1_545 S
C1179 C1178 1.397 1_565 S
C1179 C1180 1.390 . S
C1179 C1195 1.476 . S
C1180 H1138 0.930 . S
C1180 C1179 1.390 . S
C1180 C1181 1.366 . S
C1181 H1139 0.932 . S
C1181 C1176 1.360 . S
C1181 C1180 1.366 . S
C1182 C1156 1.487 . S
C1182 C1183 1.342 1_565 S
C1182 C1187 1.434 . S
C1183 H1140 0.930 . S
C1183 C1182 1.342 1_545 S
C1183 C1184 1.381 . S
C1184 H1141 0.929 . S
C1184 C1183 1.381 . S
C1184 C1185 1.380 . S
C1185 C1184 1.380 . S
C1185 C1186 1.373 1_545 S
C1186 H1142 0.931 . S
C1186 C1185 1.373 1_565 S
C1186 C1187 1.387 . S
C1187 H1143 0.930 . S
C1187 C1182 1.434 . S
C1187 C1186 1.387 . S
C1188 C1157 1.519 . S
C1188 C1189 1.377 1_565 S
C1188 C1193 1.361 . S
C1189 H1144 0.929 . S
C1189 C1188 1.377 1_545 S
C1189 C1190 1.386 . S
C1190 H1145 0.931 . S
C1190 C1189 1.386 . S
C1190 C1191 1.363 1_545 S
C1191 C1190 1.363 1_565 S
C1191 C1192 1.385 . S
C1192 H1146 0.930 . S
C1192 C1191 1.385 . S
C1192 C1193 1.396 . S
C1193 H1147 0.929 . S
C1193 C1188 1.361 . S
C1193 C1192 1.396 . S
C1194 O1148 1.300 . S
C1194 O1149 1.209 1_545 S
C1194 C1167 1.486 . S
C1195 O1150 1.199 1_565 S
C1195 O1151 1.297 . S
C1195 C1179 1.476 . S
H1196 O1222 0.856 . S
H1197 O1225 0.854 . S
H1198 C1233 0.930 . S
H1199 C1234 0.930 . S
H1200 C1236 0.930 . S
H1201 C1237 0.930 . S
H1202 C1239 0.931 . S
H1203 C1240 0.930 . S
H1204 C1242 0.930 . S
H1205 C1243 0.929 . S
H1206 C1245 0.930 . S
H1207 C1246 0.931 . S
H1208 C1248 0.930 . S
H1209 C1249 0.929 . S
H1210 C1251 0.931 . S
H1211 C1252 0.930 . S
H1212 C1254 0.930 . S
H1213 C1255 0.932 . S
H1214 C1257 0.930 . S
H1215 C1258 0.929 . S
H1216 C1260 0.931 . S
H1217 C1261 0.930 . S
H1218 C1263 0.929 . S
H1219 C1264 0.931 . S
H1220 C1266 0.930 . S
H1221 C1267 0.929 . S
O1222 H1196 0.856 . S
O1222 C1268 1.300 . S
O1223 C1268 1.209 1_455 S
O1224 C1269 1.199 1_655 S
O1225 H1197 0.854 . S
O1225 C1269 1.297 . S
C1226 C1227 1.404 . S
C1226 C1231 1.396 1_655 S
C1226 C1232 1.492 . S
C1227 C1226 1.404 . S
C1227 C1228 1.396 . S
C1227 C1238 1.492 . S
C1228 C1227 1.396 . S
C1228 C1229 1.396 . S
C1228 C1244 1.509 . S
C1229 C1228 1.396 . S
C1229 C1230 1.394 1_655 S
C1229 C1250 1.489 1_655 S
C1230 C1229 1.394 1_455 S
C1230 C1231 1.413 . S
C1230 C1256 1.485 . S
C1231 C1226 1.396 1_455 S
C1231 C1230 1.413 . S
C1231 C1262 1.517 . S
C1232 C1226 1.492 . S
C1232 C1233 1.363 . S
C1232 C1237 1.390 1_655 S
C1233 H1198 0.930 . S
C1233 C1232 1.363 . S
C1233 C1234 1.372 . S
C1234 H1199 0.930 . S
C1234 C1233 1.372 . S
C1234 C1235 1.383 . S
C1235 C1234 1.383 . S
C1235 C1236 1.395 1_655 S
C1236 H1200 0.930 . S
C1236 C1235 1.395 1_455 S
C1236 C1237 1.362 . S
C1237 H1201 0.930 . S
C1237 C1232 1.390 1_455 S
C1237 C1236 1.362 . S
C1238 C1227 1.492 . S
C1238 C1239 1.377 . S
C1238 C1243 1.397 1_655 S
C1239 H1202 0.931 . S
C1239 C1238 1.377 . S
C1239 C1240 1.376 . S
C1240 H1203 0.930 . S
C1240 C1239 1.376 . S
C1240 C1241 1.376 . S
C1241 C1240 1.376 . S
C1241 C1242 1.378 1_655 S
C1241 C1268 1.486 . S
C1242 H1204 0.930 . S
C1242 C1241 1.378 1_455 S
C1242 C1243 1.376 . S
C1243 H1205 0.929 . S
C1243 C1238 1.397 1_455 S
C1243 C1242 1.376 . S
C1244 C1228 1.509 . S
C1244 C1245 1.391 . S
C1244 C1249 1.386 1_655 S
C1245 H1206 0.930 . S
C1245 C1244 1.391 . S
C1245 C1246 1.375 . S
C1246 H1207 0.931 . S
C1246 C1245 1.375 . S
C1246 C1247 1.375 . S
C1247 C1246 1.375 . S
C1247 C1248 1.361 1_655 S
C1248 H1208 0.930 . S
C1248 C1247 1.361 1_455 S
C1248 C1249 1.399 . S
C1249 H1209 0.929 . S
C1249 C1244 1.386 1_455 S
C1249 C1248 1.399 . S
C1250 C1229 1.489 1_455 S
C1250 C1251 1.394 1_455 S
C1250 C1255 1.360 . S
C1251 H1210 0.931 . S
C1251 C1250 1.394 1_655 S
C1251 C1252 1.372 . S
C1252 H1211 0.930 . S
C1252 C1251 1.372 . S
C1252 C1253 1.397 1_655 S
C1253 C1252 1.397 1_455 S
C1253 C1254 1.390 . S
C1253 C1269 1.476 . S
C1254 H1212 0.930 . S
C1254 C1253 1.390 . S
C1254 C1255 1.366 . S
C1255 H1213 0.932 . S
C1255 C1250 1.360 . S
C1255 C1254 1.366 . S
C1256 C1230 1.485 . S
C1256 C1257 1.380 1_455 S
C1256 C1261 1.386 . S
C1257 H1214 0.930 . S
C1257 C1256 1.380 1_655 S
C1257 C1258 1.381 . S
C1258 H1215 0.929 . S
C1258 C1257 1.381 . S
C1258 C1259 1.371 1_655 S
C1259 C1258 1.371 1_455 S
C1259 C1260 1.380 . S
C1260 H1216 0.931 . S
C1260 C1259 1.380 . S
C1260 C1261 1.387 . S
C1261 H1217 0.930 . S
C1261 C1256 1.386 . S
C1261 C1260 1.387 . S
C1262 C1231 1.517 . S
C1262 C1263 1.377 1_455 S
C1262 C1267 1.361 . S
C1263 H1218 0.929 . S
C1263 C1262 1.377 1_655 S
C1263 C1264 1.386 . S
C1264 H1219 0.931 . S
C1264 C1263 1.386 . S
C1264 C1265 1.363 1_655 S
C1265 C1264 1.363 1_455 S
C1265 C1266 1.385 . S
C1266 H1220 0.930 . S
C1266 C1265 1.385 . S
C1266 C1267 1.396 . S
C1267 H1221 0.929 . S
C1267 C1262 1.361 . S
C1267 C1266 1.396 . S
C1268 O1222 1.300 . S
C1268 O1223 1.209 1_655 S
C1268 C1241 1.486 . S
C1269 O1224 1.199 1_455 S
C1269 O1225 1.297 . S
C1269 C1253 1.476 . S
H1270 O1296 0.856 . S
H1271 O1299 0.854 . S
H1272 C1307 0.930 . S
H1273 C1308 0.930 . S
H1274 C1310 0.930 . S
H1275 C1311 0.930 . S
H1276 C1313 0.931 . S
H1277 C1314 0.930 . S
H1278 C1316 0.930 . S
H1279 C1317 0.929 . S
H1280 C1319 0.930 . S
H1281 C1320 0.931 . S
H1282 C1322 0.930 . S
H1283 C1323 0.929 . S
H1284 C1325 0.931 . S
H1285 C1326 0.930 . S
H1286 C1328 0.930 . S
H1287 C1329 0.932 . S
H1288 C1331 0.930 . S
H1289 C1332 0.929 . S
H1290 C1334 0.931 . S
H1291 C1335 0.930 . S
H1292 C1337 0.929 . S
H1293 C1338 0.931 . S
H1294 C1340 0.930 . S
H1295 C1341 0.929 . S
O1296 H1270 0.856 . S
O1296 C1342 1.300 . S
O1297 C1342 1.209 . S
O1298 C1343 1.199 . S
O1299 H1271 0.854 . S
O1299 C1343 1.297 . S
C1300 C1301 1.404 . S
C1300 C1305 1.397 . S
C1300 C1306 1.492 . S
C1301 C1300 1.404 . S
C1301 C1302 1.396 . S
C1301 C1312 1.492 . S
C1302 C1301 1.396 . S
C1302 C1303 1.397 . S
C1302 C1318 1.509 . S
C1303 C1302 1.397 . S
C1303 C1304 1.412 . S
C1303 C1324 1.485 . S
C1304 C1303 1.412 . S
C1304 C1305 1.388 . S
C1304 C1330 1.490 . S
C1305 C1300 1.397 . S
C1305 C1304 1.388 . S
C1305 C1336 1.519 . S
C1306 C1300 1.492 . S
C1306 C1307 1.363 . S
C1306 C1311 1.390 . S
C1307 H1272 0.930 . S
C1307 C1306 1.363 . S
C1307 C1308 1.372 . S
C1308 H1273 0.930 . S
C1308 C1307 1.372 . S
C1308 C1309 1.383 . S
C1309 C1308 1.383 . S
C1309 C1310 1.395 . S
C1310 H1274 0.930 . S
C1310 C1309 1.395 . S
C1310 C1311 1.362 . S
C1311 H1275 0.930 . S
C1311 C1306 1.390 . S
C1311 C1310 1.362 . S
C1312 C1301 1.492 . S
C1312 C1313 1.377 . S
C1312 C1317 1.397 . S
C1313 H1276 0.931 . S
C1313 C1312 1.377 . S
C1313 C1314 1.376 . S
C1314 H1277 0.930 . S
C1314 C1313 1.376 . S
C1314 C1315 1.376 . S
C1315 C1314 1.376 . S
C1315 C1316 1.378 . S
C1315 C1342 1.486 . S
C1316 H1278 0.930 . S
C1316 C1315 1.378 . S
C1316 C1317 1.376 . S
C1317 H1279 0.929 . S
C1317 C1312 1.397 . S
C1317 C1316 1.376 . S
C1318 C1302 1.509 . S
C1318 C1319 1.391 . S
C1318 C1323 1.386 . S
C1319 H1280 0.930 . S
C1319 C1318 1.391 . S
C1319 C1320 1.375 . S
C1320 H1281 0.931 . S
C1320 C1319 1.375 . S
C1320 C1321 1.375 . S
C1321 C1320 1.375 . S
C1321 C1322 1.361 . S
C1322 H1282 0.930 . S
C1322 C1321 1.361 . S
C1322 C1323 1.399 . S
C1323 H1283 0.929 . S
C1323 C1318 1.386 . S
C1323 C1322 1.399 . S
C1324 C1303 1.485 . S
C1324 C1325 1.394 . S
C1324 C1329 1.360 . S
C1325 H1284 0.931 . S
C1325 C1324 1.394 . S
C1325 C1326 1.372 . S
C1326 H1285 0.930 . S
C1326 C1325 1.372 . S
C1326 C1327 1.397 . S
C1327 C1326 1.397 . S
C1327 C1328 1.390 . S
C1327 C1343 1.476 . S
C1328 H1286 0.930 . S
C1328 C1327 1.390 . S
C1328 C1329 1.366 . S
C1329 H1287 0.932 . S
C1329 C1324 1.360 . S
C1329 C1328 1.366 . S
C1330 C1304 1.490 . S
C1330 C1331 1.380 . S
C1330 C1335 1.386 . S
C1331 H1288 0.930 . S
C1331 C1330 1.380 . S
C1331 C1332 1.381 . S
C1332 H1289 0.929 . S
C1332 C1331 1.381 . S
C1332 C1333 1.371 . S
C1333 C1332 1.371 . S
C1333 C1334 1.380 . S
C1334 H1290 0.931 . S
C1334 C1333 1.380 . S
C1334 C1335 1.387 . S
C1335 H1291 0.930 . S
C1335 C1330 1.386 . S
C1335 C1334 1.387 . S
C1336 C1305 1.519 . S
C1336 C1337 1.377 . S
C1336 C1341 1.361 . S
C1337 H1292 0.929 . S
C1337 C1336 1.377 . S
C1337 C1338 1.386 . S
C1338 H1293 0.931 . S
C1338 C1337 1.386 . S
C1338 C1339 1.363 . S
C1339 C1338 1.363 . S
C1339 C1340 1.385 . S
C1340 H1294 0.930 . S
C1340 C1339 1.385 . S
C1340 C1341 1.396 . S
C1341 H1295 0.929 . S
C1341 C1336 1.361 . S
C1341 C1340 1.396 . S
C1342 O1296 1.300 . S
C1342 O1297 1.209 . S
C1342 C1315 1.486 . S
C1343 O1298 1.199 . S
C1343 O1299 1.297 . S
C1343 C1327 1.476 . S
H1344 O1370 0.856 . S
H1345 O1373 0.854 . S
H1346 C1381 0.930 . S
H1347 C1382 0.930 . S
H1348 C1384 0.930 . S
H1349 C1385 0.930 . S
H1350 C1387 0.931 . S
H1351 C1388 0.930 . S
H1352 C1390 0.930 . S
H1353 C1391 0.929 . S
H1354 C1393 0.930 . S
H1355 C1394 0.931 . S
H1356 C1396 0.930 . S
H1357 C1397 0.929 . S
H1358 C1399 0.931 . S
H1359 C1400 0.930 . S
H1360 C1402 0.930 . S
H1361 C1403 0.932 . S
H1362 C1405 0.930 . S
H1363 C1406 0.929 . S
H1364 C1408 0.931 . S
H1365 C1409 0.930 . S
H1366 C1411 0.929 . S
H1367 C1412 0.931 . S
H1368 C1414 0.930 . S
H1369 C1415 0.929 . S
O1370 H1344 0.856 . S
O1370 C1416 1.300 . S
O1371 C1416 1.209 . S
O1372 C1417 1.199 . S
O1373 H1345 0.854 . S
O1373 C1417 1.297 . S
C1374 C1375 1.404 . S
C1374 C1379 1.397 . S
C1374 C1380 1.492 . S
C1375 C1374 1.404 . S
C1375 C1376 1.396 . S
C1375 C1386 1.492 . S
C1376 C1375 1.396 . S
C1376 C1377 1.397 . S
C1376 C1392 1.509 . S
C1377 C1376 1.397 . S
C1377 C1378 1.412 . S
C1377 C1398 1.485 . S
C1378 C1377 1.412 . S
C1378 C1379 1.388 . S
C1378 C1404 1.490 . S
C1379 C1374 1.397 . S
C1379 C1378 1.388 . S
C1379 C1410 1.519 . S
C1380 C1374 1.492 . S
C1380 C1381 1.363 . S
C1380 C1385 1.390 . S
C1381 H1346 0.930 . S
C1381 C1380 1.363 . S
C1381 C1382 1.372 . S
C1382 H1347 0.930 . S
C1382 C1381 1.372 . S
C1382 C1383 1.383 . S
C1383 C1382 1.383 . S
C1383 C1384 1.395 . S
C1384 H1348 0.930 . S
C1384 C1383 1.395 . S
C1384 C1385 1.362 . S
C1385 H1349 0.930 . S
C1385 C1380 1.390 . S
C1385 C1384 1.362 . S
C1386 C1375 1.492 . S
C1386 C1387 1.377 . S
C1386 C1391 1.397 . S
C1387 H1350 0.931 . S
C1387 C1386 1.377 . S
C1387 C1388 1.376 . S
C1388 H1351 0.930 . S
C1388 C1387 1.376 . S
C1388 C1389 1.376 . S
C1389 C1388 1.376 . S
C1389 C1390 1.378 . S
C1389 C1416 1.486 . S
C1390 H1352 0.930 . S
C1390 C1389 1.378 . S
C1390 C1391 1.376 . S
C1391 H1353 0.929 . S
C1391 C1386 1.397 . S
C1391 C1390 1.376 . S
C1392 C1376 1.509 . S
C1392 C1393 1.391 . S
C1392 C1397 1.386 . S
C1393 H1354 0.930 . S
C1393 C1392 1.391 . S
C1393 C1394 1.375 . S
C1394 H1355 0.931 . S
C1394 C1393 1.375 . S
C1394 C1395 1.375 . S
C1395 C1394 1.375 . S
C1395 C1396 1.361 . S
C1396 H1356 0.930 . S
C1396 C1395 1.361 . S
C1396 C1397 1.399 . S
C1397 H1357 0.929 . S
C1397 C1392 1.386 . S
C1397 C1396 1.399 . S
C1398 C1377 1.485 . S
C1398 C1399 1.394 . S
C1398 C1403 1.360 . S
C1399 H1358 0.931 . S
C1399 C1398 1.394 . S
C1399 C1400 1.372 . S
C1400 H1359 0.930 . S
C1400 C1399 1.372 . S
C1400 C1401 1.397 . S
C1401 C1400 1.397 . S
C1401 C1402 1.390 . S
C1401 C1417 1.476 . S
C1402 H1360 0.930 . S
C1402 C1401 1.390 . S
C1402 C1403 1.366 . S
C1403 H1361 0.932 . S
C1403 C1398 1.360 . S
C1403 C1402 1.366 . S
C1404 C1378 1.490 . S
C1404 C1405 1.380 . S
C1404 C1409 1.386 . S
C1405 H1362 0.930 . S
C1405 C1404 1.380 . S
C1405 C1406 1.381 . S
C1406 H1363 0.929 . S
C1406 C1405 1.381 . S
C1406 C1407 1.371 . S
C1407 C1406 1.371 . S
C1407 C1408 1.380 . S
C1408 H1364 0.931 . S
C1408 C1407 1.380 . S
C1408 C1409 1.387 . S
C1409 H1365 0.930 . S
C1409 C1404 1.386 . S
C1409 C1408 1.387 . S
C1410 C1379 1.519 . S
C1410 C1411 1.377 . S
C1410 C1415 1.361 . S
C1411 H1366 0.929 . S
C1411 C1410 1.377 . S
C1411 C1412 1.386 . S
C1412 H1367 0.931 . S
C1412 C1411 1.386 . S
C1412 C1413 1.363 . S
C1413 C1412 1.363 . S
C1413 C1414 1.385 . S
C1414 H1368 0.930 . S
C1414 C1413 1.385 . S
C1414 C1415 1.396 . S
C1415 H1369 0.929 . S
C1415 C1410 1.361 . S
C1415 C1414 1.396 . S
C1416 O1370 1.300 . S
C1416 O1371 1.209 . S
C1416 C1389 1.486 . S
C1417 O1372 1.199 . S
C1417 O1373 1.297 . S
C1417 C1401 1.476 . S
H1418 O1444 0.856 . S
H1419 O1447 0.854 . S
H1420 C1455 0.930 . S
H1421 C1456 0.930 . S
H1422 C1458 0.930 . S
H1423 C1459 0.930 . S
H1424 C1461 0.931 . S
H1425 C1462 0.930 . S
H1426 C1464 0.930 . S
H1427 C1465 0.929 . S
H1428 C1467 0.930 . S
H1429 C1468 0.931 . S
H1430 C1470 0.930 . S
H1431 C1471 0.929 . S
H1432 C1473 0.931 . S
H1433 C1474 0.930 . S
H1434 C1476 0.930 . S
H1435 C1477 0.932 . S
H1436 C1479 0.930 . S
H1437 C1480 0.929 . S
H1438 C1482 0.931 . S
H1439 C1483 0.930 . S
H1440 C1485 0.929 . S
H1441 C1486 0.931 . S
H1442 C1488 0.930 . S
H1443 C1489 0.929 . S
O1444 H1418 0.856 . S
O1444 C1490 1.300 . S
O1445 C1490 1.209 . S
O1446 C1491 1.199 . S
O1447 H1419 0.854 . S
O1447 C1491 1.297 . S
C1448 C1449 1.404 . S
C1448 C1453 1.397 . S
C1448 C1454 1.492 . S
C1449 C1448 1.404 . S
C1449 C1450 1.396 . S
C1449 C1460 1.492 . S
C1450 C1449 1.396 . S
C1450 C1451 1.397 . S
C1450 C1466 1.509 . S
C1451 C1450 1.397 . S
C1451 C1452 1.412 . S
C1451 C1472 1.485 . S
C1452 C1451 1.412 . S
C1452 C1453 1.388 . S
C1452 C1478 1.490 . S
C1453 C1448 1.397 . S
C1453 C1452 1.388 . S
C1453 C1484 1.519 . S
C1454 C1448 1.492 . S
C1454 C1455 1.363 . S
C1454 C1459 1.390 . S
C1455 H1420 0.930 . S
C1455 C1454 1.363 . S
C1455 C1456 1.372 . S
C1456 H1421 0.930 . S
C1456 C1455 1.372 . S
C1456 C1457 1.383 . S
C1457 C1456 1.383 . S
C1457 C1458 1.395 . S
C1458 H1422 0.930 . S
C1458 C1457 1.395 . S
C1458 C1459 1.362 . S
C1459 H1423 0.930 . S
C1459 C1454 1.390 . S
C1459 C1458 1.362 . S
C1460 C1449 1.492 . S
C1460 C1461 1.377 . S
C1460 C1465 1.397 . S
C1461 H1424 0.931 . S
C1461 C1460 1.377 . S
C1461 C1462 1.376 . S
C1462 H1425 0.930 . S
C1462 C1461 1.376 . S
C1462 C1463 1.376 . S
C1463 C1462 1.376 . S
C1463 C1464 1.378 . S
C1463 C1490 1.486 . S
C1464 H1426 0.930 . S
C1464 C1463 1.378 . S
C1464 C1465 1.376 . S
C1465 H1427 0.929 . S
C1465 C1460 1.397 . S
C1465 C1464 1.376 . S
C1466 C1450 1.509 . S
C1466 C1467 1.391 . S
C1466 C1471 1.386 . S
C1467 H1428 0.930 . S
C1467 C1466 1.391 . S
C1467 C1468 1.375 . S
C1468 H1429 0.931 . S
C1468 C1467 1.375 . S
C1468 C1469 1.375 . S
C1469 C1468 1.375 . S
C1469 C1470 1.361 . S
C1470 H1430 0.930 . S
C1470 C1469 1.361 . S
C1470 C1471 1.399 . S
C1471 H1431 0.929 . S
C1471 C1466 1.386 . S
C1471 C1470 1.399 . S
C1472 C1451 1.485 . S
C1472 C1473 1.394 . S
C1472 C1477 1.360 . S
C1473 H1432 0.931 . S
C1473 C1472 1.394 . S
C1473 C1474 1.372 . S
C1474 H1433 0.930 . S
C1474 C1473 1.372 . S
C1474 C1475 1.397 . S
C1475 C1474 1.397 . S
C1475 C1476 1.390 . S
C1475 C1491 1.476 . S
C1476 H1434 0.930 . S
C1476 C1475 1.390 . S
C1476 C1477 1.366 . S
C1477 H1435 0.932 . S
C1477 C1472 1.360 . S
C1477 C1476 1.366 . S
C1478 C1452 1.490 . S
C1478 C1479 1.380 . S
C1478 C1483 1.386 . S
C1479 H1436 0.930 . S
C1479 C1478 1.380 . S
C1479 C1480 1.381 . S
C1480 H1437 0.929 . S
C1480 C1479 1.381 . S
C1480 C1481 1.371 . S
C1481 C1480 1.371 . S
C1481 C1482 1.380 . S
C1482 H1438 0.931 . S
C1482 C1481 1.380 . S
C1482 C1483 1.387 . S
C1483 H1439 0.930 . S
C1483 C1478 1.386 . S
C1483 C1482 1.387 . S
C1484 C1453 1.519 . S
C1484 C1485 1.377 . S
C1484 C1489 1.361 . S
C1485 H1440 0.929 . S
C1485 C1484 1.377 . S
C1485 C1486 1.386 . S
C1486 H1441 0.931 . S
C1486 C1485 1.386 . S
C1486 C1487 1.363 . S
C1487 C1486 1.363 . S
C1487 C1488 1.385 . S
C1488 H1442 0.930 . S
C1488 C1487 1.385 . S
C1488 C1489 1.396 . S
C1489 H1443 0.929 . S
C1489 C1484 1.361 . S
C1489 C1488 1.396 . S
C1490 O1444 1.300 . S
C1490 O1445 1.209 . S
C1490 C1463 1.486 . S
C1491 O1446 1.199 . S
C1491 O1447 1.297 . S
C1491 C1475 1.476 . S
H1492 O1518 0.856 . S
H1493 O1521 0.854 . S
H1494 C1529 0.930 . S
H1495 C1530 0.930 . S
H1496 C1532 0.930 . S
H1497 C1533 0.930 . S
H1498 C1535 0.931 . S
H1499 C1536 0.930 . S
H1500 C1538 0.930 . S
H1501 C1539 0.929 . S
H1502 C1541 0.930 . S
H1503 C1542 0.931 . S
H1504 C1544 0.930 . S
H1505 C1545 0.929 . S
H1506 C1547 0.931 . S
H1507 C1548 0.930 . S
H1508 C1550 0.930 . S
H1509 C1551 0.932 . S
H1510 C1553 0.930 . S
H1511 C1554 0.929 . S
H1512 C1556 0.931 . S
H1513 C1557 0.930 . S
H1514 C1559 0.929 . S
H1515 C1560 0.931 . S
H1516 C1562 0.930 . S
H1517 C1563 0.929 . S
O1518 H1492 0.856 . S
O1518 C1564 1.300 . S
O1519 C1564 1.209 . S
O1520 C1565 1.199 . S
O1521 H1493 0.854 . S
O1521 C1565 1.297 . S
C1522 C1523 1.404 . S
C1522 C1527 1.397 . S
C1522 C1528 1.492 . S
C1523 C1522 1.404 . S
C1523 C1524 1.396 . S
C1523 C1534 1.492 . S
C1524 C1523 1.396 . S
C1524 C1525 1.397 . S
C1524 C1540 1.509 . S
C1525 C1524 1.397 . S
C1525 C1526 1.412 . S
C1525 C1546 1.485 . S
C1526 C1525 1.412 . S
C1526 C1527 1.388 . S
C1526 C1552 1.490 . S
C1527 C1522 1.397 . S
C1527 C1526 1.388 . S
C1527 C1558 1.519 . S
C1528 C1522 1.492 . S
C1528 C1529 1.363 . S
C1528 C1533 1.390 . S
C1529 H1494 0.930 . S
C1529 C1528 1.363 . S
C1529 C1530 1.372 . S
C1530 H1495 0.930 . S
C1530 C1529 1.372 . S
C1530 C1531 1.383 . S
C1531 C1530 1.383 . S
C1531 C1532 1.395 . S
C1532 H1496 0.930 . S
C1532 C1531 1.395 . S
C1532 C1533 1.362 . S
C1533 H1497 0.930 . S
C1533 C1528 1.390 . S
C1533 C1532 1.362 . S
C1534 C1523 1.492 . S
C1534 C1535 1.377 . S
C1534 C1539 1.397 . S
C1535 H1498 0.931 . S
C1535 C1534 1.377 . S
C1535 C1536 1.376 . S
C1536 H1499 0.930 . S
C1536 C1535 1.376 . S
C1536 C1537 1.376 . S
C1537 C1536 1.376 . S
C1537 C1538 1.378 . S
C1537 C1564 1.486 . S
C1538 H1500 0.930 . S
C1538 C1537 1.378 . S
C1538 C1539 1.376 . S
C1539 H1501 0.929 . S
C1539 C1534 1.397 . S
C1539 C1538 1.376 . S
C1540 C1524 1.509 . S
C1540 C1541 1.391 . S
C1540 C1545 1.386 . S
C1541 H1502 0.930 . S
C1541 C1540 1.391 . S
C1541 C1542 1.375 . S
C1542 H1503 0.931 . S
C1542 C1541 1.375 . S
C1542 C1543 1.375 . S
C1543 C1542 1.375 . S
C1543 C1544 1.361 . S
C1544 H1504 0.930 . S
C1544 C1543 1.361 . S
C1544 C1545 1.399 . S
C1545 H1505 0.929 . S
C1545 C1540 1.386 . S
C1545 C1544 1.399 . S
C1546 C1525 1.485 . S
C1546 C1547 1.394 . S
C1546 C1551 1.360 . S
C1547 H1506 0.931 . S
C1547 C1546 1.394 . S
C1547 C1548 1.372 . S
C1548 H1507 0.930 . S
C1548 C1547 1.372 . S
C1548 C1549 1.397 . S
C1549 C1548 1.397 . S
C1549 C1550 1.390 . S
C1549 C1565 1.476 . S
C1550 H1508 0.930 . S
C1550 C1549 1.390 . S
C1550 C1551 1.366 . S
C1551 H1509 0.932 . S
C1551 C1546 1.360 . S
C1551 C1550 1.366 . S
C1552 C1526 1.490 . S
C1552 C1553 1.380 . S
C1552 C1557 1.386 . S
C1553 H1510 0.930 . S
C1553 C1552 1.380 . S
C1553 C1554 1.381 . S
C1554 H1511 0.929 . S
C1554 C1553 1.381 . S
C1554 C1555 1.371 . S
C1555 C1554 1.371 . S
C1555 C1556 1.380 . S
C1556 H1512 0.931 . S
C1556 C1555 1.380 . S
C1556 C1557 1.387 . S
C1557 H1513 0.930 . S
C1557 C1552 1.386 . S
C1557 C1556 1.387 . S
C1558 C1527 1.519 . S
C1558 C1559 1.377 . S
C1558 C1563 1.361 . S
C1559 H1514 0.929 . S
C1559 C1558 1.377 . S
C1559 C1560 1.386 . S
C1560 H1515 0.931 . S
C1560 C1559 1.386 . S
C1560 C1561 1.363 . S
C1561 C1560 1.363 . S
C1561 C1562 1.385 . S
C1562 H1516 0.930 . S
C1562 C1561 1.385 . S
C1562 C1563 1.396 . S
C1563 H1517 0.929 . S
C1563 C1558 1.361 . S
C1563 C1562 1.396 . S
C1564 O1518 1.300 . S
C1564 O1519 1.209 . S
C1564 C1537 1.486 . S
C1565 O1520 1.199 . S
C1565 O1521 1.297 . S
C1565 C1549 1.476 . S
C1566 C1567 1.397 1_455 S
C1566 H1570 0.964 . S
C1566 C1575 1.367 1_455 S
C1567 C1566 1.397 1_655 S
C1567 C1569 1.387 . S
H1568 C1575 0.950 . S
C1569 C1567 1.387 . S
C1569 C1571 1.390 . S
C1569 H1573 0.950 . S
H1570 C1566 0.964 . S
C1571 C1569 1.390 . S
C1571 C1572 1.387 . S
C1571 H1574 0.950 . S
C1572 C1571 1.387 . S
C1572 C1575 1.387 . S
H1573 C1569 0.950 . S
H1574 C1571 0.950 . S
C1575 C1566 1.367 1_655 S
C1575 H1568 0.950 . S
C1575 C1572 1.387 . S
C1576 C1577 1.387 . S
C1576 H1580 0.950 . S
C1576 C1585 1.390 . S
C1577 C1576 1.387 . S
C1577 C1579 1.387 . S
H1578 C1585 0.950 . S
C1579 C1577 1.387 . S
C1579 C1581 1.390 . S
C1579 H1583 0.950 . S
H1580 C1576 0.950 . S
C1581 C1579 1.390 . S
C1581 C1582 1.387 . S
C1581 H1584 0.950 . S
C1582 C1581 1.387 . S
C1582 C1585 1.387 . S
H1583 C1579 0.950 . S
H1584 C1581 0.950 . S
C1585 C1576 1.390 . S
C1585 H1578 0.950 . S
C1585 C1582 1.387 . S
C1586 C1587 1.387 1_565 S
C1586 H1590 0.950 . S
C1586 C1595 1.390 . S
C1587 C1586 1.387 1_545 S
C1587 C1589 1.387 . S
H1588 C1595 0.950 . S
C1589 C1587 1.387 . S
C1589 C1591 1.390 . S
C1589 H1593 0.950 . S
H1590 C1586 0.950 . S
C1591 C1589 1.390 . S
C1591 C1592 1.387 . S
C1591 H1594 0.950 . S
C1592 C1591 1.387 . S
C1592 C1595 1.387 1_545 S
H1593 C1589 0.950 . S
H1594 C1591 0.950 . S
C1595 C1586 1.390 . S
C1595 H1588 0.950 . S
C1595 C1592 1.387 1_565 S
C1596 C1597 1.387 1_545 S
C1596 H1600 0.950 . S
C1596 C1605 1.390 . S
C1597 C1596 1.387 1_565 S
C1597 C1599 1.387 . S
H1598 C1605 0.950 . S
C1599 C1597 1.387 . S
C1599 C1601 1.390 . S
C1599 H1603 0.950 . S
H1600 C1596 0.950 . S
C1601 C1599 1.390 . S
C1601 C1602 1.387 . S
C1601 H1604 0.950 . S
C1602 C1601 1.387 . S
C1602 C1605 1.387 1_565 S
H1603 C1599 0.950 . S
H1604 C1601 0.950 . S
C1605 C1596 1.390 . S
C1605 H1598 0.950 . S
C1605 C1602 1.387 1_545 S
C1606 C1607 1.387 . S
C1606 H1610 0.950 . S
C1606 C1615 1.390 . S
C1607 C1606 1.387 . S
C1607 C1609 1.387 1_455 S
H1608 C1615 0.950 . S
C1609 C1607 1.387 1_655 S
C1609 C1611 1.390 . S
C1609 H1613 0.950 . S
H1610 C1606 0.950 . S
C1611 C1609 1.390 . S
C1611 C1612 1.387 1_655 S
C1611 H1614 0.950 . S
C1612 C1611 1.387 1_455 S
C1612 C1615 1.387 . S
H1613 C1609 0.950 . S
H1614 C1611 0.950 . S
C1615 C1606 1.390 . S
C1615 H1608 0.950 . S
C1615 C1612 1.387 . S
C1616 C1617 1.387 . S
C1616 H1620 0.950 . S
C1616 C1625 1.390 . S
C1617 C1616 1.387 . S
C1617 C1619 1.387 . S
H1618 C1625 0.950 . S
C1619 C1617 1.387 . S
C1619 C1621 1.390 . S
C1619 H1623 0.950 . S
H1620 C1616 0.950 . S
C1621 C1619 1.390 . S
C1621 C1622 1.387 . S
C1621 H1624 0.950 . S
C1622 C1621 1.387 . S
C1622 C1625 1.387 . S
H1623 C1619 0.950 . S
H1624 C1621 0.950 . S
C1625 C1616 1.390 . S
C1625 H1618 0.950 . S
C1625 C1622 1.387 . S
C1626 C1627 1.387 . S
C1626 H1630 0.950 . S
C1626 C1635 1.390 . S
C1627 C1626 1.387 . S
C1627 C1629 1.387 1_455 S
H1628 C1635 0.950 . S
C1629 C1627 1.387 1_655 S
C1629 C1631 1.390 . S
C1629 H1633 0.950 . S
H1630 C1626 0.950 . S
C1631 C1629 1.390 . S
C1631 C1632 1.387 1_655 S
C1631 H1634 0.950 . S
C1632 C1631 1.387 1_455 S
C1632 C1635 1.387 . S
H1633 C1629 0.950 . S
H1634 C1631 0.950 . S
C1635 C1626 1.390 . S
C1635 H1628 0.950 . S
C1635 C1632 1.387 . S
C1636 C1637 1.387 . S
C1636 H1640 0.950 . S
C1636 C1645 1.390 . S
C1637 C1636 1.387 . S
C1637 C1639 1.387 . S
H1638 C1645 0.950 . S
C1639 C1637 1.387 . S
C1639 C1641 1.390 . S
C1639 H1643 0.950 . S
H1640 C1636 0.950 . S
C1641 C1639 1.390 . S
C1641 C1642 1.387 . S
C1641 H1644 0.950 . S
C1642 C1641 1.387 . S
C1642 C1645 1.387 . S
H1643 C1639 0.950 . S
H1644 C1641 0.950 . S
C1645 C1636 1.390 . S
C1645 H1638 0.950 . S
C1645 C1642 1.387 . S
C1646 C1647 1.387 . S
C1646 H1650 0.950 . S
C1646 C1655 1.390 . S
C1647 C1646 1.387 . S
C1647 C1649 1.387 1_565 S
H1648 C1655 0.950 . S
C1649 C1647 1.387 1_545 S
C1649 C1651 1.390 . S
C1649 H1653 0.950 . S
H1650 C1646 0.950 . S
C1651 C1649 1.390 . S
C1651 C1652 1.392 . S
C1651 H1654 0.950 . S
C1652 C1651 1.392 . S
C1652 C1655 1.379 1_545 S
H1653 C1649 0.950 . S
H1654 C1651 0.950 . S
C1655 C1646 1.390 . S
C1655 H1648 0.950 . S
C1655 C1652 1.379 1_565 S
C1656 C1657 1.387 . S
C1656 H1660 0.950 . S
C1656 C1665 1.390 . S
C1657 C1656 1.387 . S
C1657 C1659 1.387 1_545 S
H1658 C1665 0.950 . S
C1659 C1657 1.387 1_565 S
C1659 C1661 1.390 . S
C1659 H1663 0.950 . S
H1660 C1656 0.950 . S
C1661 C1659 1.390 . S
C1661 C1662 1.388 1_565 S
C1661 H1664 0.950 . S
C1662 C1661 1.388 1_545 S
C1662 C1665 1.387 . S
H1663 C1659 0.950 . S
H1664 C1661 0.950 . S
C1665 C1656 1.390 . S
C1665 H1658 0.950 . S
C1665 C1662 1.387 . S
C1666 C1667 1.387 1_455 S
C1666 H1670 0.950 . S
C1666 C1675 1.390 . S
C1667 C1666 1.387 1_655 S
C1667 C1669 1.387 . S
H1668 C1675 0.950 . S
C1669 C1667 1.387 . S
C1669 C1671 1.390 . S
C1669 H1673 0.950 . S
H1670 C1666 0.950 . S
C1671 C1669 1.390 . S
C1671 C1672 1.428 . S
C1671 H1674 0.950 . S
C1672 C1671 1.428 . S
C1672 C1675 1.363 1_655 S
H1673 C1669 0.950 . S
H1674 C1671 0.950 . S
C1675 C1666 1.390 . S
C1675 H1668 0.950 . S
C1675 C1672 1.363 1_455 S
C1676 C1677 1.387 . S
C1676 H1680 0.950 . S
C1676 C1685 1.390 . S
C1677 C1676 1.387 . S
C1677 C1679 1.387 . S
H1678 C1685 0.950 . S
C1679 C1677 1.387 . S
C1679 C1681 1.390 . S
C1679 H1683 0.950 . S
H1680 C1676 0.950 . S
C1681 C1679 1.390 . S
C1681 C1682 1.387 . S
C1681 H1684 0.950 . S
C1682 C1681 1.387 . S
C1682 C1685 1.387 . S
H1683 C1679 0.950 . S
H1684 C1681 0.950 . S
C1685 C1676 1.390 . S
C1685 H1678 0.950 . S
C1685 C1682 1.387 . S
C1686 C1687 1.387 . S
C1686 H1690 0.950 . S
C1686 C1695 1.390 . S
C1687 C1686 1.387 . S
C1687 C1689 1.387 . S
H1688 C1695 0.950 . S
C1689 C1687 1.387 . S
C1689 C1691 1.390 . S
C1689 H1693 0.950 . S
H1690 C1686 0.950 . S
C1691 C1689 1.390 . S
C1691 C1692 1.387 . S
C1691 H1694 0.950 . S
C1692 C1691 1.387 . S
C1692 C1695 1.387 . S
H1693 C1689 0.950 . S
H1694 C1691 0.950 . S
C1695 C1686 1.390 . S
C1695 H1688 0.950 . S
C1695 C1692 1.387 . S
C1696 C1697 1.387 . S
C1696 H1700 0.950 . S
C1696 C1705 1.390 . S
C1697 C1696 1.387 . S
C1697 C1699 1.387 . S
H1698 C1705 0.950 . S
C1699 C1697 1.387 . S
C1699 C1701 1.390 . S
C1699 H1703 0.950 . S
H1700 C1696 0.950 . S
C1701 C1699 1.390 . S
C1701 C1702 1.387 . S
C1701 H1704 0.950 . S
C1702 C1701 1.387 . S
C1702 C1705 1.387 . S
H1703 C1699 0.950 . S
H1704 C1701 0.950 . S
C1705 C1696 1.390 . S
C1705 H1698 0.950 . S
C1705 C1702 1.387 . S
C1706 C1707 1.387 . S
C1706 H1710 0.950 . S
C1706 C1715 1.390 . S
C1707 C1706 1.387 . S
C1707 C1709 1.387 . S
H1708 C1715 0.950 . S
C1709 C1707 1.387 . S
C1709 C1711 1.390 . S
C1709 H1713 0.950 . S
H1710 C1706 0.950 . S
C1711 C1709 1.390 . S
C1711 C1712 1.387 . S
C1711 H1714 0.950 . S
C1712 C1711 1.387 . S
C1712 C1715 1.387 . S
H1713 C1709 0.950 . S
H1714 C1711 0.950 . S
C1715 C1706 1.390 . S
C1715 H1708 0.950 . S
C1715 C1712 1.387 . S
C1716 C1717 1.387 . S
C1716 H1720 0.950 . S
C1716 C1725 1.390 . S
C1717 C1716 1.387 . S
C1717 C1719 1.387 . S
H1718 C1725 0.950 . S
C1719 C1717 1.387 . S
C1719 C1721 1.390 . S
C1719 H1723 0.950 . S
H1720 C1716 0.950 . S
C1721 C1719 1.390 . S
C1721 C1722 1.387 . S
C1721 H1724 0.950 . S
C1722 C1721 1.387 . S
C1722 C1725 1.387 . S
H1723 C1719 0.950 . S
H1724 C1721 0.950 . S
C1725 C1716 1.390 . S
C1725 H1718 0.950 . S
C1725 C1722 1.387 . S
C1726 C1727 1.387 . S
C1726 H1730 0.950 . S
C1726 C1735 1.390 . S
C1727 C1726 1.387 . S
C1727 C1729 1.387 . S
H1728 C1735 0.950 . S
C1729 C1727 1.387 . S
C1729 C1731 1.390 . S
C1729 H1733 0.950 . S
H1730 C1726 0.950 . S
C1731 C1729 1.390 . S
C1731 C1732 1.387 . S
C1731 H1734 0.950 . S
C1732 C1731 1.387 . S
C1732 C1735 1.387 . S
H1733 C1729 0.950 . S
H1734 C1731 0.950 . S
C1735 C1726 1.390 . S
C1735 H1728 0.950 . S
C1735 C1732 1.387 . S
C1736 C1737 1.387 . S
C1736 H1740 0.950 . S
C1736 C1745 1.390 . S
C1737 C1736 1.387 . S
C1737 C1739 1.387 . S
H1738 C1745 0.950 . S
C1739 C1737 1.387 . S
C1739 C1741 1.390 . S
C1739 H1743 0.950 . S
H1740 C1736 0.950 . S
C1741 C1739 1.390 . S
C1741 C1742 1.387 . S
C1741 H1744 0.950 . S
C1742 C1741 1.387 . S
C1742 C1745 1.387 . S
H1743 C1739 0.950 . S
H1744 C1741 0.950 . S
C1745 C1736 1.390 . S
C1745 H1738 0.950 . S
C1745 C1742 1.387 . S
C1746 C1747 1.387 . S
C1746 H1750 0.950 . S
C1746 C1755 1.390 . S
C1747 C1746 1.387 . S
C1747 C1749 1.387 . S
H1748 C1755 0.950 . S
C1749 C1747 1.387 . S
C1749 C1751 1.390 . S
C1749 H1753 0.950 . S
H1750 C1746 0.950 . S
C1751 C1749 1.390 . S
C1751 C1752 1.387 . S
C1751 H1754 0.950 . S
C1752 C1751 1.387 . S
C1752 C1755 1.387 . S
H1753 C1749 0.950 . S
H1754 C1751 0.950 . S
C1755 C1746 1.390 . S
C1755 H1748 0.950 . S
C1755 C1752 1.387 . S
C1756 C1757 1.387 . S
C1756 H1760 0.950 . S
C1756 C1765 1.390 . S
C1757 C1756 1.387 . S
C1757 C1759 1.387 . S
H1758 C1765 0.950 . S
C1759 C1757 1.387 . S
C1759 C1761 1.390 . S
C1759 H1763 0.950 . S
H1760 C1756 0.950 . S
C1761 C1759 1.390 . S
C1761 C1762 1.387 . S
C1761 H1764 0.950 . S
C1762 C1761 1.387 . S
C1762 C1765 1.387 . S
H1763 C1759 0.950 . S
H1764 C1761 0.950 . S
C1765 C1756 1.390 . S
C1765 H1758 0.950 . S
C1765 C1762 1.387 . S
C1766 C1767 1.387 . S
C1766 H1770 0.950 . S
C1766 C1775 1.390 . S
C1767 C1766 1.387 . S
C1767 C1769 1.387 . S
H1768 C1775 0.950 . S
C1769 C1767 1.387 . S
C1769 C1771 1.390 . S
C1769 H1773 0.950 . S
H1770 C1766 0.950 . S
C1771 C1769 1.390 . S
C1771 C1772 1.387 . S
C1771 H1774 0.950 . S
C1772 C1771 1.387 . S
C1772 C1775 1.387 . S
H1773 C1769 0.950 . S
H1774 C1771 0.950 . S
C1775 C1766 1.390 . S
C1775 H1768 0.950 . S
C1775 C1772 1.387 . S
C1776 C1777 1.387 . S
C1776 H1780 0.950 . S
C1776 C1785 1.390 . S
C1777 C1776 1.387 . S
C1777 C1779 1.387 . S
H1778 C1785 0.950 . S
C1779 C1777 1.387 . S
C1779 C1781 1.390 . S
C1779 H1783 0.950 . S
H1780 C1776 0.950 . S
C1781 C1779 1.390 . S
C1781 C1782 1.387 . S
C1781 H1784 0.950 . S
C1782 C1781 1.387 . S
C1782 C1785 1.387 . S
H1783 C1779 0.950 . S
H1784 C1781 0.950 . S
C1785 C1776 1.390 . S
C1785 H1778 0.950 . S
C1785 C1782 1.387 . S
C1786 C1787 1.387 . S
C1786 H1790 0.950 . S
C1786 C1795 1.390 . S
C1787 C1786 1.387 . S
C1787 C1789 1.387 . S
H1788 C1795 0.950 . S
C1789 C1787 1.387 . S
C1789 C1791 1.390 . S
C1789 H1793 0.950 . S
H1790 C1786 0.950 . S
C1791 C1789 1.390 . S
C1791 C1792 1.387 . S
C1791 H1794 0.950 . S
C1792 C1791 1.387 . S
C1792 C1795 1.387 . S
H1793 C1789 0.950 . S
H1794 C1791 0.950 . S
C1795 C1786 1.390 . S
C1795 H1788 0.950 . S
C1795 C1792 1.387 . S
C1796 C1797 1.387 . S
C1796 H1800 0.950 . S
C1796 C1805 1.390 . S
C1797 C1796 1.387 . S
C1797 C1799 1.387 . S
H1798 C1805 0.950 . S
C1799 C1797 1.387 . S
C1799 C1801 1.390 . S
C1799 H1803 0.950 . S
H1800 C1796 0.950 . S
C1801 C1799 1.390 . S
C1801 C1802 1.387 . S
C1801 H1804 0.950 . S
C1802 C1801 1.387 . S
C1802 C1805 1.387 . S
H1803 C1799 0.950 . S
H1804 C1801 0.950 . S
C1805 C1796 1.390 . S
C1805 H1798 0.950 . S
C1805 C1802 1.387 . S
C1806 C1807 1.387 . S
C1806 H1810 0.950 . S
C1806 C1815 1.390 . S
C1807 C1806 1.387 . S
C1807 C1809 1.387 . S
H1808 C1815 0.950 . S
C1809 C1807 1.387 . S
C1809 C1811 1.390 . S
C1809 H1813 0.950 . S
H1810 C1806 0.950 . S
C1811 C1809 1.390 . S
C1811 C1812 1.387 . S
C1811 H1814 0.950 . S
C1812 C1811 1.387 . S
C1812 C1815 1.387 . S
H1813 C1809 0.950 . S
H1814 C1811 0.950 . S
C1815 C1806 1.390 . S
C1815 H1808 0.950 . S
C1815 C1812 1.387 . S
C1816 C1817 1.387 . S
C1816 H1820 0.950 . S
C1816 C1825 1.390 . S
C1817 C1816 1.387 . S
C1817 C1819 1.387 . S
H1818 C1825 0.950 . S
C1819 C1817 1.387 . S
C1819 C1821 1.390 . S
C1819 H1823 0.950 . S
H1820 C1816 0.950 . S
C1821 C1819 1.390 . S
C1821 C1822 1.387 . S
C1821 H1824 0.950 . S
C1822 C1821 1.387 . S
C1822 C1825 1.387 . S
H1823 C1819 0.950 . S
H1824 C1821 0.950 . S
C1825 C1816 1.390 . S
C1825 H1818 0.950 . S
C1825 C1822 1.387 . S
C1826 C1827 1.387 . S
C1826 H1830 0.950 . S
C1826 C1835 1.390 . S
C1827 C1826 1.387 . S
C1827 C1829 1.387 . S
H1828 C1835 0.950 . S
C1829 C1827 1.387 . S
C1829 C1831 1.390 . S
C1829 H1833 0.950 . S
H1830 C1826 0.950 . S
C1831 C1829 1.390 . S
C1831 C1832 1.387 . S
C1831 H1834 0.950 . S
C1832 C1831 1.387 . S
C1832 C1835 1.387 . S
H1833 C1829 0.950 . S
H1834 C1831 0.950 . S
C1835 C1826 1.390 . S
C1835 H1828 0.950 . S
C1835 C1832 1.387 . S
C1836 C1837 1.387 . S
C1836 H1840 0.950 . S
C1836 C1845 1.390 . S
C1837 C1836 1.387 . S
C1837 C1839 1.387 . S
H1838 C1845 0.950 . S
C1839 C1837 1.387 . S
C1839 C1841 1.390 . S
C1839 H1843 0.950 . S
H1840 C1836 0.950 . S
C1841 C1839 1.390 . S
C1841 C1842 1.387 . S
C1841 H1844 0.950 . S
C1842 C1841 1.387 . S
C1842 C1845 1.387 . S
H1843 C1839 0.950 . S
H1844 C1841 0.950 . S
C1845 C1836 1.390 . S
C1845 H1838 0.950 . S
C1845 C1842 1.387 . S
C1846 C1847 1.387 . S
C1846 H1850 0.950 . S
C1846 C1855 1.390 . S
C1847 C1846 1.387 . S
C1847 C1849 1.387 . S
H1848 C1855 0.950 . S
C1849 C1847 1.387 . S
C1849 C1851 1.390 . S
C1849 H1853 0.950 . S
H1850 C1846 0.950 . S
C1851 C1849 1.390 . S
C1851 C1852 1.387 . S
C1851 H1854 0.950 . S
C1852 C1851 1.387 . S
C1852 C1855 1.387 . S
H1853 C1849 0.950 . S
H1854 C1851 0.950 . S
C1855 C1846 1.390 . S
C1855 H1848 0.950 . S
C1855 C1852 1.387 . S
C1856 C1857 1.387 . S
C1856 H1860 0.950 . S
C1856 C1865 1.390 . S
C1857 C1856 1.387 . S
C1857 C1859 1.387 . S
H1858 C1865 0.950 . S
C1859 C1857 1.387 . S
C1859 C1861 1.390 . S
C1859 H1863 0.950 . S
H1860 C1856 0.950 . S
C1861 C1859 1.390 . S
C1861 C1862 1.387 . S
C1861 H1864 0.950 . S
C1862 C1861 1.387 . S
C1862 C1865 1.387 . S
H1863 C1859 0.950 . S
H1864 C1861 0.950 . S
C1865 C1856 1.390 . S
C1865 H1858 0.950 . S
C1865 C1862 1.387 . S
C1866 C1867 1.387 . S
C1866 H1870 0.950 . S
C1866 C1875 1.390 . S
C1867 C1866 1.387 . S
C1867 C1869 1.387 . S
H1868 C1875 0.950 . S
C1869 C1867 1.387 . S
C1869 C1871 1.390 . S
C1869 H1873 0.950 . S
H1870 C1866 0.950 . S
C1871 C1869 1.390 . S
C1871 C1872 1.387 . S
C1871 H1874 0.950 . S
C1872 C1871 1.387 . S
C1872 C1875 1.387 . S
H1873 C1869 0.950 . S
H1874 C1871 0.950 . S
C1875 C1866 1.390 . S
C1875 H1868 0.950 . S
C1875 C1872 1.387 . S
C1876 C1877 1.387 . S
C1876 H1880 0.950 . S
C1876 C1885 1.390 . S
C1877 C1876 1.387 . S
C1877 C1879 1.387 . S
H1878 C1885 0.950 . S
C1879 C1877 1.387 . S
C1879 C1881 1.390 . S
C1879 H1883 0.950 . S
H1880 C1876 0.950 . S
C1881 C1879 1.390 . S
C1881 C1882 1.387 . S
C1881 H1884 0.950 . S
C1882 C1881 1.387 . S
C1882 C1885 1.387 . S
H1883 C1879 0.950 . S
H1884 C1881 0.950 . S
C1885 C1876 1.390 . S
C1885 H1878 0.950 . S
C1885 C1882 1.387 . S
C1886 C1887 1.387 . S
C1886 H1890 0.950 . S
C1886 C1895 1.390 . S
C1887 C1886 1.387 . S
C1887 C1889 1.387 . S
H1888 C1895 0.950 . S
C1889 C1887 1.387 . S
C1889 C1891 1.390 . S
C1889 H1893 0.950 . S
H1890 C1886 0.950 . S
C1891 C1889 1.390 . S
C1891 C1892 1.387 . S
C1891 H1894 0.950 . S
C1892 C1891 1.387 . S
C1892 C1895 1.387 . S
H1893 C1889 0.950 . S
H1894 C1891 0.950 . S
C1895 C1886 1.390 . S
C1895 H1888 0.950 . S
C1895 C1892 1.387 . S
C1896 C1897 1.387 . S
C1896 H1900 0.950 . S
C1896 C1905 1.390 . S
C1897 C1896 1.387 . S
C1897 C1899 1.387 . S
H1898 C1905 0.950 . S
C1899 C1897 1.387 . S
C1899 C1901 1.390 . S
C1899 H1903 0.950 . S
H1900 C1896 0.950 . S
C1901 C1899 1.390 . S
C1901 C1902 1.387 . S
C1901 H1904 0.950 . S
C1902 C1901 1.387 . S
C1902 C1905 1.387 . S
H1903 C1899 0.950 . S
H1904 C1901 0.950 . S
C1905 C1896 1.390 . S
C1905 H1898 0.950 . S
C1905 C1902 1.387 . S
C1906 C1907 1.387 . S
C1906 H1910 0.950 . S
C1906 C1915 1.390 . S
C1907 C1906 1.387 . S
C1907 C1909 1.387 . S
H1908 C1915 0.950 . S
C1909 C1907 1.387 . S
C1909 C1911 1.390 . S
C1909 H1913 0.950 . S
H1910 C1906 0.950 . S
C1911 C1909 1.390 . S
C1911 C1912 1.387 . S
C1911 H1914 0.950 . S
C1912 C1911 1.387 . S
C1912 C1915 1.387 . S
H1913 C1909 0.950 . S
H1914 C1911 0.950 . S
C1915 C1906 1.390 . S
C1915 H1908 0.950 . S
C1915 C1912 1.387 . S
C1916 C1917 1.387 . S
C1916 H1920 0.950 . S
C1916 C1925 1.390 . S
C1917 C1916 1.387 . S
C1917 C1919 1.387 . S
H1918 C1925 0.950 . S
C1919 C1917 1.387 . S
C1919 C1921 1.390 . S
C1919 H1923 0.950 . S
H1920 C1916 0.950 . S
C1921 C1919 1.390 . S
C1921 C1922 1.387 . S
C1921 H1924 0.950 . S
C1922 C1921 1.387 . S
C1922 C1925 1.387 . S
H1923 C1919 0.950 . S
H1924 C1921 0.950 . S
C1925 C1916 1.390 . S
C1925 H1918 0.950 . S
C1925 C1922 1.387 . S
C1926 C1927 1.387 . S
C1926 H1930 0.950 . S
C1926 C1935 1.390 . S
C1927 C1926 1.387 . S
C1927 C1929 1.387 . S
H1928 C1935 0.950 . S
C1929 C1927 1.387 . S
C1929 C1931 1.390 . S
C1929 H1933 0.950 . S
H1930 C1926 0.950 . S
C1931 C1929 1.390 . S
C1931 C1932 1.387 . S
C1931 H1934 0.950 . S
C1932 C1931 1.387 . S
C1932 C1935 1.387 . S
H1933 C1929 0.950 . S
H1934 C1931 0.950 . S
C1935 C1926 1.390 . S
C1935 H1928 0.950 . S
C1935 C1932 1.387 . S
C1936 C1937 1.387 . S
C1936 H1940 0.950 . S
C1936 C1945 1.390 . S
C1937 C1936 1.387 . S
C1937 C1939 1.387 . S
H1938 C1945 0.950 . S
C1939 C1937 1.387 . S
C1939 C1941 1.390 . S
C1939 H1943 0.950 . S
H1940 C1936 0.950 . S
C1941 C1939 1.390 . S
C1941 C1942 1.387 . S
C1941 H1944 0.950 . S
C1942 C1941 1.387 . S
C1942 C1945 1.387 . S
H1943 C1939 0.950 . S
H1944 C1941 0.950 . S
C1945 C1936 1.390 . S
C1945 H1938 0.950 . S
C1945 C1942 1.387 . S
C1946 C1947 1.387 . S
C1946 H1950 0.950 . S
C1946 C1955 1.390 . S
C1947 C1946 1.387 . S
C1947 C1949 1.387 . S
H1948 C1955 0.950 . S
C1949 C1947 1.387 . S
C1949 C1951 1.390 . S
C1949 H1953 0.950 . S
H1950 C1946 0.950 . S
C1951 C1949 1.390 . S
C1951 C1952 1.387 . S
C1951 H1954 0.950 . S
C1952 C1951 1.387 . S
C1952 C1955 1.387 . S
H1953 C1949 0.950 . S
H1954 C1951 0.950 . S
C1955 C1946 1.390 . S
C1955 H1948 0.950 . S
C1955 C1952 1.387 . S
C1956 C1957 1.387 . S
C1956 H1960 0.950 . S
C1956 C1965 1.390 . S
C1957 C1956 1.387 . S
C1957 C1959 1.387 1_556 S
H1958 C1965 0.950 . S
C1959 C1957 1.387 1_554 S
C1959 C1961 1.388 1_554 S
C1959 H1963 0.950 . S
H1960 C1956 0.950 . S
C1961 C1959 1.388 1_556 S
C1961 C1962 1.396 . S
C1961 H1964 0.943 1_556 S
C1962 C1961 1.396 . S
C1962 C1965 1.387 . S
H1963 C1959 0.950 . S
H1964 C1961 0.943 1_554 S
C1965 C1956 1.390 . S
C1965 H1958 0.950 . S
C1965 C1962 1.387 . S
C1966 C1967 1.387 . S
C1966 H1970 0.950 1_556 S
C1966 C1975 1.390 . S
C1967 C1966 1.387 . S
C1967 C1969 1.387 . S
H1968 C1975 0.950 . S
C1969 C1967 1.387 . S
C1969 C1971 1.390 . S
C1969 H1973 0.950 . S
H1970 C1966 0.950 1_554 S
C1971 C1969 1.390 . S
C1971 C1972 1.387 . S
C1971 H1974 0.950 . S
C1972 C1971 1.387 . S
C1972 C1975 1.387 . S
H1973 C1969 0.950 . S
H1974 C1971 0.950 . S
C1975 C1966 1.390 . S
C1975 H1968 0.950 . S
C1975 C1972 1.387 . S
C1976 C1977 1.387 . S
C1976 H1980 0.950 1_554 S
C1976 C1985 1.390 1_554 S
C1977 C1976 1.387 . S
C1977 C1979 1.387 . S
H1978 C1985 0.950 . S
C1979 C1977 1.387 . S
C1979 C1981 1.390 . S
C1979 H1983 0.950 . S
H1980 C1976 0.950 1_556 S
C1981 C1979 1.390 . S
C1981 C1982 1.387 1_554 S
C1981 H1984 0.950 . S
C1982 C1981 1.387 1_556 S
C1982 C1985 1.387 . S
H1983 C1979 0.950 . S
H1984 C1981 0.950 . S
C1985 C1976 1.390 1_556 S
C1985 H1978 0.950 . S
C1985 C1982 1.387 . S
C1986 C1987 1.387 . S
C1986 H1990 0.950 . S
C1986 C1995 1.390 . S
C1987 C1986 1.387 . S
C1987 C1989 1.387 1_556 S
H1988 C1995 0.950 . S
C1989 C1987 1.387 1_554 S
C1989 C1991 1.390 1_554 S
C1989 H1993 0.950 . S
H1990 C1986 0.950 . S
C1991 C1989 1.390 1_556 S
C1991 C1992 1.387 . S
C1991 H1994 0.950 . S
C1992 C1991 1.387 . S
C1992 C1995 1.387 . S
H1993 C1989 0.950 . S
H1994 C1991 0.950 . S
C1995 C1986 1.390 . S
C1995 H1988 0.950 . S
C1995 C1992 1.387 . S
C1996 C1997 1.387 . S
C1996 H2000 0.950 . S
C1996 C2005 1.390 . S
C1997 C1996 1.387 . S
C1997 C1999 1.387 . S
H1998 C2005 0.950 . S
C1999 C1997 1.387 . S
C1999 C2001 1.390 . S
C1999 H2003 0.950 . S
H2000 C1996 0.950 . S
C2001 C1999 1.390 . S
C2001 C2002 1.387 . S
C2001 H2004 0.950 . S
C2002 C2001 1.387 . S
C2002 C2005 1.387 . S
H2003 C1999 0.950 . S
H2004 C2001 0.950 . S
C2005 C1996 1.390 . S
C2005 H1998 0.950 . S
C2005 C2002 1.387 . S
C2006 C2007 1.387 . S
C2006 H2010 0.950 . S
C2006 C2015 1.390 . S
C2007 C2006 1.387 . S
C2007 C2009 1.387 1_554 S
H2008 C2015 0.950 . S
C2009 C2007 1.387 1_556 S
C2009 C2011 1.390 . S
C2009 H2013 0.950 . S
H2010 C2006 0.950 . S
C2011 C2009 1.390 . S
C2011 C2012 1.387 . S
C2011 H2014 0.950 . S
C2012 C2011 1.387 . S
C2012 C2015 1.387 1_556 S
H2013 C2009 0.950 . S
H2014 C2011 0.950 . S
C2015 C2006 1.390 . S
C2015 H2008 0.950 . S
C2015 C2012 1.387 1_554 S
C2016 C2017 1.387 . S
C2016 H2020 0.950 . S
C2016 C2025 1.390 . S
C2017 C2016 1.387 . S
C2017 C2019 1.387 . S
H2018 C2025 0.950 . S
C2019 C2017 1.387 . S
C2019 C2021 1.390 . S
C2019 H2023 0.950 . S
H2020 C2016 0.950 . S
C2021 C2019 1.390 . S
C2021 C2022 1.387 . S
C2021 H2024 0.950 . S
C2022 C2021 1.387 . S
C2022 C2025 1.387 . S
H2023 C2019 0.950 . S
H2024 C2021 0.950 . S
C2025 C2016 1.390 . S
C2025 H2018 0.950 . S
C2025 C2022 1.387 . S
C2026 C2027 1.387 . S
C2026 H2030 0.950 . S
C2026 C2035 1.390 . S
C2027 C2026 1.387 . S
C2027 C2029 1.387 . S
H2028 C2035 0.950 . S
C2029 C2027 1.387 . S
C2029 C2031 1.390 . S
C2029 H2033 0.950 . S
H2030 C2026 0.950 . S
C2031 C2029 1.390 . S
C2031 C2032 1.387 . S
C2031 H2034 0.950 . S
C2032 C2031 1.387 . S
C2032 C2035 1.387 . S
H2033 C2029 0.950 . S
H2034 C2031 0.950 . S
C2035 C2026 1.390 . S
C2035 H2028 0.950 . S
C2035 C2032 1.387 . S
C2036 C2037 1.387 . S
C2036 H2040 0.950 . S
C2036 C2045 1.390 . S
C2037 C2036 1.387 . S
C2037 C2039 1.387 . S
H2038 C2045 0.950 . S
C2039 C2037 1.387 . S
C2039 C2041 1.390 . S
C2039 H2043 0.950 . S
H2040 C2036 0.950 . S
C2041 C2039 1.390 . S
C2041 C2042 1.387 . S
C2041 H2044 0.950 . S
C2042 C2041 1.387 . S
C2042 C2045 1.387 . S
H2043 C2039 0.950 . S
H2044 C2041 0.950 . S
C2045 C2036 1.390 . S
C2045 H2038 0.950 . S
C2045 C2042 1.387 . S
C2046 C2047 1.387 . S
C2046 H2050 0.950 . S
C2046 C2055 1.390 . S
C2047 C2046 1.387 . S
C2047 C2049 1.387 . S
H2048 C2055 0.950 . S
C2049 C2047 1.387 . S
C2049 C2051 1.390 . S
C2049 H2053 0.950 . S
H2050 C2046 0.950 . S
C2051 C2049 1.390 . S
C2051 C2052 1.387 . S
C2051 H2054 0.950 . S
C2052 C2051 1.387 . S
C2052 C2055 1.387 . S
H2053 C2049 0.950 . S
H2054 C2051 0.950 . S
C2055 C2046 1.390 . S
C2055 H2048 0.950 . S
C2055 C2052 1.387 . S
C2056 C2057 1.387 . S
C2056 H2060 0.950 . S
C2056 C2065 1.390 . S
C2057 C2056 1.387 . S
C2057 C2059 1.387 . S
H2058 C2065 0.950 . S
C2059 C2057 1.387 . S
C2059 C2061 1.390 . S
C2059 H2063 0.950 . S
H2060 C2056 0.950 . S
C2061 C2059 1.390 . S
C2061 C2062 1.387 . S
C2061 H2064 0.950 . S
C2062 C2061 1.387 . S
C2062 C2065 1.387 . S
H2063 C2059 0.950 . S
H2064 C2061 0.950 . S
C2065 C2056 1.390 . S
C2065 H2058 0.950 . S
C2065 C2062 1.387 . S
C2066 C2067 1.387 . S
C2066 H2070 0.950 . S
C2066 C2075 1.390 . S
C2067 C2066 1.387 . S
C2067 C2069 1.387 . S
H2068 C2075 0.950 . S
C2069 C2067 1.387 . S
C2069 C2071 1.390 . S
C2069 H2073 0.950 . S
H2070 C2066 0.950 . S
C2071 C2069 1.390 . S
C2071 C2072 1.387 . S
C2071 H2074 0.950 . S
C2072 C2071 1.387 . S
C2072 C2075 1.387 . S
H2073 C2069 0.950 . S
H2074 C2071 0.950 . S
C2075 C2066 1.390 . S
C2075 H2068 0.950 . S
C2075 C2072 1.387 . S
C2076 C2077 1.387 . S
C2076 H2080 0.950 . S
C2076 C2085 1.390 . S
C2077 C2076 1.387 . S
C2077 C2079 1.387 . S
H2078 C2085 0.950 . S
C2079 C2077 1.387 . S
C2079 C2081 1.390 . S
C2079 H2083 0.950 . S
H2080 C2076 0.950 . S
C2081 C2079 1.390 . S
C2081 C2082 1.387 . S
C2081 H2084 0.950 . S
C2082 C2081 1.387 . S
C2082 C2085 1.387 . S
H2083 C2079 0.950 . S
H2084 C2081 0.950 . S
C2085 C2076 1.390 . S
C2085 H2078 0.950 . S
C2085 C2082 1.387 . S
C2086 C2087 1.387 . S
C2086 H2090 0.950 . S
C2086 C2095 1.390 . S
C2087 C2086 1.387 . S
C2087 C2089 1.387 . S
H2088 C2095 0.950 . S
C2089 C2087 1.387 . S
C2089 C2091 1.390 . S
C2089 H2093 0.950 . S
H2090 C2086 0.950 . S
C2091 C2089 1.390 . S
C2091 C2092 1.387 . S
C2091 H2094 0.950 . S
C2092 C2091 1.387 . S
C2092 C2095 1.387 . S
H2093 C2089 0.950 . S
H2094 C2091 0.950 . S
C2095 C2086 1.390 . S
C2095 H2088 0.950 . S
C2095 C2092 1.387 . S
C2096 C2097 1.387 . S
C2096 H2100 0.950 1_565 S
C2096 C2105 1.390 . S
C2097 C2096 1.387 . S
C2097 C2099 1.387 . S
H2098 C2105 0.950 1_545 S
C2099 C2097 1.387 . S
C2099 C2101 1.390 . S
C2099 H2103 0.950 . S
H2100 C2096 0.950 1_545 S
C2101 C2099 1.390 . S
C2101 C2102 1.387 . S
C2101 H2104 0.950 . S
C2102 C2101 1.387 . S
C2102 C2105 1.387 . S
H2103 C2099 0.950 . S
H2104 C2101 0.950 . S
C2105 C2096 1.390 . S
C2105 H2098 0.950 1_565 S
C2105 C2102 1.387 . S
C2106 C2107 1.387 . S
C2106 H2110 0.950 . S
C2106 C2115 1.390 . S
C2107 C2106 1.387 . S
C2107 C2109 1.387 1_565 S
H2108 C2115 0.950 . S
C2109 C2107 1.387 1_545 S
C2109 C2111 1.390 . S
C2109 H2113 0.950 . S
H2110 C2106 0.950 . S
C2111 C2109 1.390 . S
C2111 C2112 1.387 1_545 S
C2111 H2114 0.950 . S
C2112 C2111 1.387 1_565 S
C2112 C2115 1.387 . S
H2113 C2109 0.950 . S
H2114 C2111 0.950 . S
C2115 C2106 1.390 . S
C2115 H2108 0.950 . S
C2115 C2112 1.387 . S
C2116 C2117 1.421 . S
C2116 H2120 0.913 1_455 S
C2116 C2125 1.395 1_455 S
C2117 C2116 1.421 . S
C2117 C2119 1.387 . S
H2118 C2125 0.950 . S
C2119 C2117 1.387 . S
C2119 C2121 1.390 . S
C2119 H2123 0.950 . S
H2120 C2116 0.913 1_655 S
C2121 C2119 1.390 . S
C2121 C2122 1.387 . S
C2121 H2124 0.950 . S
C2122 C2121 1.387 . S
C2122 C2125 1.387 1_455 S
H2123 C2119 0.950 . S
H2124 C2121 0.950 . S
C2125 C2116 1.395 1_655 S
C2125 H2118 0.950 . S
C2125 C2122 1.387 1_655 S
C2126 C2127 1.387 . S
C2126 H2130 0.950 . S
C2126 C2135 1.390 . S
C2127 C2126 1.387 . S
C2127 C2129 1.387 . S
H2128 C2135 0.950 . S
C2129 C2127 1.387 . S
C2129 C2131 1.390 . S
C2129 H2133 0.950 . S
H2130 C2126 0.950 . S
C2131 C2129 1.390 . S
C2131 C2132 1.387 . S
C2131 H2134 0.950 . S
C2132 C2131 1.387 . S
C2132 C2135 1.387 . S
H2133 C2129 0.950 . S
H2134 C2131 0.950 . S
C2135 C2126 1.390 . S
C2135 H2128 0.950 . S
C2135 C2132 1.387 . S
C2136 C2137 1.387 . S
C2136 H2140 0.950 . S
C2136 C2145 1.390 . S
C2137 C2136 1.387 . S
C2137 C2139 1.387 . S
H2138 C2145 0.950 . S
C2139 C2137 1.387 . S
C2139 C2141 1.390 . S
C2139 H2143 0.950 . S
H2140 C2136 0.950 . S
C2141 C2139 1.390 . S
C2141 C2142 1.387 . S
C2141 H2144 0.950 . S
C2142 C2141 1.387 . S
C2142 C2145 1.387 . S
H2143 C2139 0.950 . S
H2144 C2141 0.950 . S
C2145 C2136 1.390 . S
C2145 H2138 0.950 . S
C2145 C2142 1.387 . S
C2146 C2147 1.387 . S
C2146 H2150 0.950 . S
C2146 C2155 1.390 . S
C2147 C2146 1.387 . S
C2147 C2149 1.387 . S
H2148 C2155 0.950 . S
C2149 C2147 1.387 . S
C2149 C2151 1.390 . S
C2149 H2153 0.950 . S
H2150 C2146 0.950 . S
C2151 C2149 1.390 . S
C2151 C2152 1.387 . S
C2151 H2154 0.950 . S
C2152 C2151 1.387 . S
C2152 C2155 1.387 . S
H2153 C2149 0.950 . S
H2154 C2151 0.950 . S
C2155 C2146 1.390 . S
C2155 H2148 0.950 . S
C2155 C2152 1.387 . S
C2156 C2157 1.387 . S
C2156 H2160 0.950 . S
C2156 C2165 1.390 . S
C2157 C2156 1.387 . S
C2157 C2159 1.387 . S
H2158 C2165 0.950 . S
C2159 C2157 1.387 . S
C2159 C2161 1.390 . S
C2159 H2163 0.950 . S
H2160 C2156 0.950 . S
C2161 C2159 1.390 . S
C2161 C2162 1.387 . S
C2161 H2164 0.950 . S
C2162 C2161 1.387 . S
C2162 C2165 1.387 . S
H2163 C2159 0.950 . S
H2164 C2161 0.950 . S
C2165 C2156 1.390 . S
C2165 H2158 0.950 . S
C2165 C2162 1.387 . S
C2166 C2167 1.387 . S
C2166 H2170 0.950 1_545 S
C2166 C2175 1.401 . S
C2167 C2166 1.387 . S
C2167 C2169 1.387 . S
H2168 C2175 0.935 1_565 S
C2169 C2167 1.387 . S
C2169 C2171 1.390 . S
C2169 H2173 0.950 . S
H2170 C2166 0.950 1_565 S
C2171 C2169 1.390 . S
C2171 C2172 1.387 . S
C2171 H2174 0.950 . S
C2172 C2171 1.387 . S
C2172 C2175 1.391 . S
H2173 C2169 0.950 . S
H2174 C2171 0.950 . S
C2175 C2166 1.401 . S
C2175 H2168 0.935 1_545 S
C2175 C2172 1.391 . S
C2176 C2177 1.387 . S
C2176 H2180 0.950 1_655 S
C2176 C2185 1.390 . S
C2177 C2176 1.387 . S
C2177 C2179 1.387 . S
H2178 C2185 0.950 1_455 S
C2179 C2177 1.387 . S
C2179 C2181 1.390 . S
C2179 H2183 0.950 . S
H2180 C2176 0.950 1_455 S
C2181 C2179 1.390 . S
C2181 C2182 1.387 . S
C2181 H2184 0.950 . S
C2182 C2181 1.387 . S
C2182 C2185 1.387 . S
H2183 C2179 0.950 . S
H2184 C2181 0.950 . S
C2185 C2176 1.390 . S
C2185 H2178 0.950 1_655 S
C2185 C2182 1.387 . S
C2186 C2187 1.387 . S
C2186 H2190 0.950 . S
C2186 C2195 1.390 . S
C2187 C2186 1.387 . S
C2187 C2189 1.387 . S
H2188 C2195 0.950 . S
C2189 C2187 1.387 . S
C2189 C2191 1.390 . S
C2189 H2193 0.950 . S
H2190 C2186 0.950 . S
C2191 C2189 1.390 . S
C2191 C2192 1.387 . S
C2191 H2194 0.950 . S
C2192 C2191 1.387 . S
C2192 C2195 1.387 . S
H2193 C2189 0.950 . S
H2194 C2191 0.950 . S
C2195 C2186 1.390 . S
C2195 H2188 0.950 . S
C2195 C2192 1.387 . S
C2196 C2197 1.387 . S
C2196 H2200 0.950 . S
C2196 C2205 1.390 . S
C2197 C2196 1.387 . S
C2197 C2199 1.387 . S
H2198 C2205 0.950 . S
C2199 C2197 1.387 . S
C2199 C2201 1.390 . S
C2199 H2203 0.950 . S
H2200 C2196 0.950 . S
C2201 C2199 1.390 . S
C2201 C2202 1.387 . S
C2201 H2204 0.950 . S
C2202 C2201 1.387 . S
C2202 C2205 1.387 . S
H2203 C2199 0.950 . S
H2204 C2201 0.950 . S
C2205 C2196 1.390 . S
C2205 H2198 0.950 . S
C2205 C2202 1.387 . S
C2206 C2207 1.387 . S
C2206 H2210 0.950 . S
C2206 C2215 1.390 . S
C2207 C2206 1.387 . S
C2207 C2209 1.387 . S
H2208 C2215 0.950 . S
C2209 C2207 1.387 . S
C2209 C2211 1.390 . S
C2209 H2213 0.950 . S
H2210 C2206 0.950 . S
C2211 C2209 1.390 . S
C2211 C2212 1.387 . S
C2211 H2214 0.950 . S
C2212 C2211 1.387 . S
C2212 C2215 1.387 . S
H2213 C2209 0.950 . S
H2214 C2211 0.950 . S
C2215 C2206 1.390 . S
C2215 H2208 0.950 . S
C2215 C2212 1.387 . S
C2216 C2217 1.387 . S
C2216 H2220 0.950 . S
C2216 C2225 1.390 . S
C2217 C2216 1.387 . S
C2217 C2219 1.387 . S
H2218 C2225 0.950 . S
C2219 C2217 1.387 . S
C2219 C2221 1.390 . S
C2219 H2223 0.950 . S
H2220 C2216 0.950 . S
C2221 C2219 1.390 . S
C2221 C2222 1.387 . S
C2221 H2224 0.950 . S
C2222 C2221 1.387 . S
C2222 C2225 1.387 . S
H2223 C2219 0.950 . S
H2224 C2221 0.950 . S
C2225 C2216 1.390 . S
C2225 H2218 0.950 . S
C2225 C2222 1.387 . S
C2226 C2227 1.387 . S
C2226 H2230 0.950 . S
C2226 C2235 1.390 . S
C2227 C2226 1.387 . S
C2227 C2229 1.387 . S
H2228 C2235 0.950 . S
C2229 C2227 1.387 . S
C2229 C2231 1.390 . S
C2229 H2233 0.950 . S
H2230 C2226 0.950 . S
C2231 C2229 1.390 . S
C2231 C2232 1.387 . S
C2231 H2234 0.950 . S
C2232 C2231 1.387 . S
C2232 C2235 1.387 . S
H2233 C2229 0.950 . S
H2234 C2231 0.950 . S
C2235 C2226 1.390 . S
C2235 H2228 0.950 . S
C2235 C2232 1.387 . S
C2236 C2237 1.387 . S
C2236 H2240 0.950 . S
C2236 C2245 1.390 . S
C2237 C2236 1.387 . S
C2237 C2239 1.387 . S
H2238 C2245 0.950 . S
C2239 C2237 1.387 . S
C2239 C2241 1.390 . S
C2239 H2243 0.950 . S
H2240 C2236 0.950 . S
C2241 C2239 1.390 . S
C2241 C2242 1.387 . S
C2241 H2244 0.950 . S
C2242 C2241 1.387 . S
C2242 C2245 1.387 . S
H2243 C2239 0.950 . S
H2244 C2241 0.950 . S
C2245 C2236 1.390 . S
C2245 H2238 0.950 . S
C2245 C2242 1.387 . S
C2246 C2247 1.387 . S
C2246 H2250 0.950 . S
C2246 C2255 1.390 . S
C2247 C2246 1.387 . S
C2247 C2249 1.387 . S
H2248 C2255 0.950 . S
C2249 C2247 1.387 . S
C2249 C2251 1.390 . S
C2249 H2253 0.950 . S
H2250 C2246 0.950 . S
C2251 C2249 1.390 . S
C2251 C2252 1.387 . S
C2251 H2254 0.950 . S
C2252 C2251 1.387 . S
C2252 C2255 1.387 . S
H2253 C2249 0.950 . S
H2254 C2251 0.950 . S
C2255 C2246 1.390 . S
C2255 H2248 0.950 . S
C2255 C2252 1.387 . S
C2256 C2257 1.387 . S
C2256 H2260 0.950 . S
C2256 C2265 1.390 . S
C2257 C2256 1.387 . S
C2257 C2259 1.387 . S
H2258 C2265 0.950 . S
C2259 C2257 1.387 . S
C2259 C2261 1.390 . S
C2259 H2263 0.950 . S
H2260 C2256 0.950 . S
C2261 C2259 1.390 . S
C2261 C2262 1.387 . S
C2261 H2264 0.950 1_655 S
C2262 C2261 1.387 . S
C2262 C2265 1.387 . S
H2263 C2259 0.950 . S
H2264 C2261 0.950 1_455 S
C2265 C2256 1.390 . S
C2265 H2258 0.950 . S
C2265 C2262 1.387 . S
C2266 C2267 1.387 . S
C2266 H2270 0.950 . S
C2266 C2275 1.390 . S
C2267 C2266 1.387 . S
C2267 C2269 1.387 . S
H2268 C2275 0.950 . S
C2269 C2267 1.387 . S
C2269 C2271 1.390 . S
C2269 H2273 0.950 . S
H2270 C2266 0.950 . S
C2271 C2269 1.390 . S
C2271 C2272 1.387 . S
C2271 H2274 0.950 . S
C2272 C2271 1.387 . S
C2272 C2275 1.387 . S
H2273 C2269 0.950 . S
H2274 C2271 0.950 . S
C2275 C2266 1.390 . S
C2275 H2268 0.950 . S
C2275 C2272 1.387 . S
C2276 C2277 1.387 . S
C2276 H2280 0.939 1_545 S
C2276 C2285 1.390 1_545 S
C2277 C2276 1.387 . S
C2277 C2279 1.387 . S
H2278 C2285 0.950 . S
C2279 C2277 1.387 . S
C2279 C2281 1.390 . S
C2279 H2283 0.950 . S
H2280 C2276 0.939 1_565 S
C2281 C2279 1.390 . S
C2281 C2282 1.387 . S
C2281 H2284 0.950 . S
C2282 C2281 1.387 . S
C2282 C2285 1.387 1_545 S
H2283 C2279 0.950 . S
H2284 C2281 0.950 . S
C2285 C2276 1.390 1_565 S
C2285 H2278 0.950 . S
C2285 C2282 1.387 1_565 S
C1567 C10 1.397 . S
C1572 C963 1.281 . S
C1577 C23 1.646 . S
C1582 C1043 1.588 . S
C1592 C1111 1.421 . S
C1587 C29 1.479 . S
C1597 C30 1.826 . S
C1602 C1191 1.776 . S
C1607 C5 1.634 . S
C1612 C1265 1.594 . S
C1617 C18 1.675 1_556 S
C1622 C1333 1.581 . S
C1627 C49 1.251 1_556 S
C1632 C1259 1.199 . S
C1642 C1339 1.503 . S
C1637 C62 1.507 . S
C1652 C1185 1.369 . S
C1647 C70 1.385 1_556 S
C1657 C75 1.758 . S
C1662 C1117 1.741 1_545 S
C1672 C969 1.534 . S
C1667 C44 1.537 . S
C1677 C57 1.479 . S
C1682 C1037 1.460 . S
C1687 C88 1.527 . S
C1692 C1407 1.394 . S
C1697 C101 1.684 . S
C1702 C1487 1.618 . S
C1712 C1555 1.527 . S
C1707 C107 1.621 . S
C1717 C108 1.941 . S
C1722 C303 1.859 . S
C1727 C83 1.749 . S
C1732 C377 1.677 . S
C1737 C96 1.695 . S
C1742 C445 1.595 . S
C1747 C127 1.266 . S
C1752 C371 1.215 . S
C1757 C140 1.528 . S
C1762 C451 1.522 . S
C1772 C297 1.406 . S
C1767 C146 1.422 . S
C1782 C1561 1.814 . S
C1777 C147 1.836 . S
C1792 C1413 1.575 . S
C1787 C122 1.585 . S
C1802 C1481 1.491 . S
C1797 C135 1.509 . S
C1807 C160 1.480 . S
C1812 C519 1.351 . S
C1817 C173 1.681 . S
C1822 C599 1.615 . S
C1827 C185 1.618 . S
C1832 C667 1.525 . S
C1837 C186 1.979 . S
C1842 C747 1.895 . S
C1852 C821 1.681 . S
C1847 C159 1.754 . S
C1862 C889 1.623 . S
C1857 C172 1.722 . S
C1872 C815 1.262 . S
C1867 C205 1.312 . S
C1882 C895 1.521 . S
C1877 C218 1.529 . S
C1887 C224 1.416 . S
C1892 C741 1.399 . S
C1902 C673 1.778 . S
C1897 C225 1.799 . S
C1907 C200 1.587 . S
C1912 C525 1.577 . S
C1922 C593 1.468 . S
C1917 C213 1.486 . S
C1932 C273 1.861 . S
C1927 C4 1.916 . S
C1937 C17 1.476 . S
C1942 C347 1.458 . S
C1952 C433 1.487 . S
C1947 C31 1.493 . S
C1962 C507 1.309 . S
C1957 C36 1.349 . S
C1972 C569 1.577 . S
C1967 C3 1.599 . S
C1982 C655 1.539 . S
C1977 C16 1.548 . S
C1987 C43 2.062 1_556 S
C1992 C643 1.949 . S
C1997 C56 1.659 . S
C2002 C495 1.573 . S
C2007 C68 1.698 . S
C2012 C581 1.650 . S
C2017 C69 1.588 . S
C2022 C359 1.498 . S
C2032 C421 1.695 . S
C2027 C42 1.785 . S
C2037 C55 1.751 . S
C2042 C285 1.698 . S
C2052 C717 1.849 . S
C2047 C82 1.903 . S
C2057 C95 1.536 1_545 S
C2062 C791 1.517 . S
C2067 C109 1.517 1_655 S
C2072 C877 1.504 . S
C2082 C951 1.255 . S
C2077 C114 1.285 . S
C2087 C81 1.580 . S
C2092 C1013 1.559 . S
C2097 C94 1.505 . S
C2102 C1099 1.501 . S
C2107 C121 1.925 . S
C2112 C1087 1.831 1_565 S
C2117 C134 1.547 . S
C2122 C939 1.490 1_455 S
C2132 C1025 1.622 . S
C2127 C148 1.670 . S
C2137 C153 1.597 . S
C2142 C803 1.500 . S
C2147 C120 1.801 . S
C2152 C865 1.710 . S
C2162 C729 1.729 . S
C2157 C133 1.786 1_655 S
C2172 C1161 1.795 . S
C2167 C166 1.845 . S
C2177 C179 1.436 . S
C2182 C1235 1.420 . S
C2187 C187 1.480 . S
C2192 C1321 1.470 . S
C2202 C1395 1.317 . S
C2197 C192 1.358 . S
C2212 C1457 1.602 . S
C2207 C161 1.623 . S
C2217 C174 1.586 1_455 S
C2222 C1543 1.575 . S
C2227 C199 2.051 . S
C2232 C1531 1.935 . S
C2237 C212 1.714 1_565 S
C2242 C1383 1.626 . S
C2252 C1469 1.656 . S
C2247 C226 1.712 1_455 S
C2262 C1247 1.371 . S
C2257 C231 1.438 . S
C2272 C1309 1.668 . S
C2267 C198 1.753 . S
C2277 C211 1.616 . S
C2282 C1173 1.585 . S
