# Generated by pormake.
# Topology zzz, (3,6)-cn, num edge types: 1
# Building blocks:
#     Node 0, Type 0, BuildingBlock: QEWDON_clean_linker_0, # of connection points: 3
#     Node 1, Type 0, BuildingBlock: QEWDON_clean_linker_0, # of connection points: 3
#     Node 2, Type 0, BuildingBlock: QEWDON_clean_linker_0, # of connection points: 3
#     Node 3, Type 0, BuildingBlock: QEWDON_clean_linker_0, # of connection points: 3
#     Node 4, Type 0, BuildingBlock: QEWDON_clean_linker_0, # of connection points: 3
#     Node 5, Type 0, BuildingBlock: QEWDON_clean_linker_0, # of connection points: 3
#     Node 6, Type 0, BuildingBlock: QEWDON_clean_linker_0, # of connection points: 3
#     Node 7, Type 0, BuildingBlock: QEWDON_clean_linker_0, # of connection points: 3
#     Node 8, Type 1, BuildingBlock: FUNLAD_clean_sbu_0, # of connection points: 6
#     Node 9, Type 1, BuildingBlock: FUNLAD_clean_sbu_0, # of connection points: 6
#     Node 10, Type 1, BuildingBlock: FUNLAD_clean_sbu_0, # of connection points: 6
#     Node 11, Type 1, BuildingBlock: FUNLAD_clean_sbu_0, # of connection points: 6
#     Edge 12, Type (0, 1), BuildingBlock: AJUNOK_clean_linker_0, # of connection points: 2
#     Edge 13, Type (0, 1), BuildingBlock: AJUNOK_clean_linker_0, # of connection points: 2
#     Edge 14, Type (0, 1), BuildingBlock: AJUNOK_clean_linker_0, # of connection points: 2
#     Edge 15, Type (0, 1), BuildingBlock: AJUNOK_clean_linker_0, # of connection points: 2
#     Edge 16, Type (0, 1), BuildingBlock: AJUNOK_clean_linker_0, # of connection points: 2
#     Edge 17, Type (0, 1), BuildingBlock: AJUNOK_clean_linker_0, # of connection points: 2
#     Edge 18, Type (0, 1), BuildingBlock: AJUNOK_clean_linker_0, # of connection points: 2
#     Edge 19, Type (0, 1), BuildingBlock: AJUNOK_clean_linker_0, # of connection points: 2
#     Edge 20, Type (0, 1), BuildingBlock: AJUNOK_clean_linker_0, # of connection points: 2
#     Edge 21, Type (0, 1), BuildingBlock: AJUNOK_clean_linker_0, # of connection points: 2
#     Edge 22, Type (0, 1), BuildingBlock: AJUNOK_clean_linker_0, # of connection points: 2
#     Edge 23, Type (0, 1), BuildingBlock: AJUNOK_clean_linker_0, # of connection points: 2
#     Edge 24, Type (0, 1), BuildingBlock: AJUNOK_clean_linker_0, # of connection points: 2
#     Edge 25, Type (0, 1), BuildingBlock: AJUNOK_clean_linker_0, # of connection points: 2
#     Edge 26, Type (0, 1), BuildingBlock: AJUNOK_clean_linker_0, # of connection points: 2
#     Edge 27, Type (0, 1), BuildingBlock: AJUNOK_clean_linker_0, # of connection points: 2
#     Edge 28, Type (0, 1), BuildingBlock: AJUNOK_clean_linker_0, # of connection points: 2
#     Edge 29, Type (0, 1), BuildingBlock: AJUNOK_clean_linker_0, # of connection points: 2
#     Edge 30, Type (0, 1), BuildingBlock: AJUNOK_clean_linker_0, # of connection points: 2
#     Edge 31, Type (0, 1), BuildingBlock: AJUNOK_clean_linker_0, # of connection points: 2
#     Edge 32, Type (0, 1), BuildingBlock: AJUNOK_clean_linker_0, # of connection points: 2
#     Edge 33, Type (0, 1), BuildingBlock: AJUNOK_clean_linker_0, # of connection points: 2
#     Edge 34, Type (0, 1), BuildingBlock: AJUNOK_clean_linker_0, # of connection points: 2
#     Edge 35, Type (0, 1), BuildingBlock: AJUNOK_clean_linker_0, # of connection points: 2
# Relax obj value: 0.077
# Max RMSD: 0.173
# Mean RMSD: 0.066
data_MOF--net-zzz--node1-FUNLAD_clean_sbu_0--node2-QEWDON_clean_linker_0--edge1-AJUNOK_clean_linker_0
_symmetry_space_group_name_H-M    P1
_symmetry_Int_Tables_number       1
_symmetry_cell_setting            triclinic
loop_
_symmetry_equiv_pos_as_xyz
'x, y, z'
_cell_length_a     40.9545
_cell_length_b     46.844001
_cell_length_c     13.160777
_cell_angle_alpha  83.435901
_cell_angle_beta   82.858785
_cell_angle_gamma 87.32455
loop_
_atom_site_label
_atom_site_type_symbol
_atom_site_fract_x
_atom_site_fract_y
_atom_site_fract_z
_atom_type_partial_charge
H0 H 0.83691 0.5215 0.1582 0.0
C1 C 0.84619 0.52054 0.23212 0.0
C2 C 0.87754 0.50795 0.24183 0.0
C3 C 0.82845 0.53422 0.31292 0.0
H4 H 0.91594 0.50008 0.33974 0.0
C5 C 0.89092 0.50826 0.33397 0.0
C6 C 0.87441 0.52225 0.41435 0.0
C7 C 0.84308 0.53508 0.40464 0.0
C8 C 0.79673 0.55014 0.29537 0.0
H9 H 0.83065 0.546 0.46746 0.0
C10 C 0.77569 0.54068 0.22932 0.0
C11 C 0.74813 0.55757 0.2021 0.0
C12 C 0.78853 0.57623 0.33752 0.0
H13 H 0.80423 0.5847 0.38645 0.0
C14 C 0.76048 0.59245 0.31377 0.0
H15 H 0.78104 0.52052 0.19682 0.0
C16 C 0.74053 0.58336 0.24602 0.0
H17 H 0.71904 0.59644 0.22813 0.0
H18 H 0.75452 0.61248 0.3466 0.0
H19 H 1.0001 0.81345 0.00586 0.0
C20 C 0.995 0.82404 0.07531 0.0
C21 C 1.00464 0.85244 0.07361 0.0
C22 C 0.97825 0.80989 0.1668 0.0
H23 H 1.00194 0.88961 0.15553 0.0
C24 C 0.99564 0.86718 0.1591 0.0
C25 C 0.98228 0.85316 0.25244 0.0
C26 C 0.97343 0.82443 0.25705 0.0
C27 C 0.96478 0.78066 0.16785 0.0
H28 H 0.9634 0.81346 0.33043 0.0
C29 C 0.98036 0.75998 0.10561 0.0
C30 C 0.96568 0.73344 0.10309 0.0
C31 C 0.93478 0.77381 0.22867 0.0
H32 H 0.92155 0.78919 0.27536 0.0
C33 C 0.92078 0.7473 0.22814 0.0
H34 H 1.00353 0.76447 0.0584 0.0
C35 C 0.936 0.72728 0.16572 0.0
H36 H 0.92452 0.70688 0.16619 0.0
H37 H 0.89774 0.74239 0.2754 0.0
H38 H 0.7469 1.00513 0.04585 0.0
C39 C 0.73381 1.00811 0.12085 0.0
C40 C 0.70027 0.01697 0.12905 0.0
C41 C 0.7497 1.0014 0.21062 0.0
H42 H 0.65681 0.02536 0.23185 0.0
C43 C 0.68292 0.01949 0.22582 0.0
C44 C 0.69739 0.01206 0.31556 0.0
C45 C 0.73084 1.00315 0.30844 0.0
C46 C 0.7845 0.98929 0.20416 0.0
H47 H 0.74196 0.9973 0.37874 0.0
C48 C 0.81071 1.00118 0.13253 0.0
C49 C 0.84329 0.98924 0.13294 0.0
C50 C 0.7915 0.96498 0.27218 0.0
H51 H 0.77216 0.95484 0.32601 0.0
C52 C 0.82332 0.95307 0.27134 0.0
H53 H 0.80604 0.01992 0.07942 0.0
C54 C 0.84897 0.96513 0.20298 0.0
H55 H 0.87354 0.95556 0.20475 0.0
H56 H 0.82817 0.93439 0.32441 0.0
H57 H 0.53147 0.69563 0.04283 0.0
C58 C 0.53089 0.68425 0.11947 0.0
C59 C 0.5171 0.65686 0.14026 0.0
C60 C 0.5465 0.69576 0.19483 0.0
H61 H 0.50827 0.62027 0.25347 0.0
C62 C 0.5176 0.64185 0.23816 0.0
C63 C 0.53319 0.65256 0.31345 0.0
C64 C 0.5476 0.67952 0.29208 0.0
C65 C 0.56564 0.72252 0.16776 0.0
H66 H 0.56015 0.68754 0.35033 0.0
C67 C 0.55304 0.74752 0.1123 0.0
C68 C 0.57264 0.77194 0.08455 0.0
C69 C 0.59781 0.72256 0.19487 0.0
H70 H 0.60849 0.70366 0.23539 0.0
C71 C 0.61699 0.74666 0.16812 0.0
H72 H 0.52833 0.74797 0.09071 0.0
C73 C 0.60458 0.77114 0.1135 0.0
H74 H 0.61992 0.78968 0.0944 0.0
H75 H 0.64169 0.74633 0.18954 0.0
H76 H 0.2321 0.53867 0.34241 0.0
C77 C 0.22101 0.5313 0.27999 0.0
C78 C 0.18663 0.53102 0.28697 0.0
C79 C 0.24075 0.52262 0.19234 0.0
H80 H 0.1451 0.52163 0.21322 0.0
C81 C 0.17178 0.52205 0.20704 0.0
C82 C 0.19052 0.51343 0.11951 0.0
C83 C 0.22506 0.51381 0.11137 0.0
C84 C 0.27744 0.52342 0.18535 0.0
H85 H 0.23939 0.50695 0.04308 0.0
C86 C 0.29383 0.51774 0.27444 0.0
C87 C 0.32822 0.51991 0.26853 0.0
C88 C 0.29632 0.5309 0.08995 0.0
H89 H 0.28475 0.53605 0.02023 0.0
C90 C 0.33044 0.53278 0.08359 0.0
H91 H 0.28001 0.51138 0.34859 0.0
C92 C 0.34629 0.52753 0.17207 0.0
H93 H 0.37266 0.53005 0.16527 0.0
H94 H 0.34462 0.53885 0.00985 0.0
H95 H 0.01778 0.21754 0.58147 0.0
C96 C 0.03114 0.20807 0.51649 0.0
C97 C 0.04794 0.1816 0.53294 0.0
C98 C 0.02931 0.22102 0.41519 0.0
H99 H 0.07952 0.14989 0.46353 0.0
C100 C 0.06561 0.16996 0.44917 0.0
C101 C 0.05641 0.1778 0.35083 0.0
C102 C 0.03973 0.2046 0.33208 0.0
C103 C 1.01324 0.25004 0.39941 0.0
H104 H 0.03366 0.21199 0.25554 0.0
C105 C 0.02134 0.27224 0.45511 0.0
C106 C 1.0051 0.29937 0.44511 0.0
C107 C 0.98899 0.25553 0.33239 0.0
H108 H 0.98198 0.23886 0.28953 0.0
C109 C 0.97276 0.28244 0.32253 0.0
H110 H 0.04013 0.26837 0.50672 0.0
C111 C 0.98057 0.30418 0.37891 0.0
H112 H 0.96775 0.3249 0.36989 0.0
H113 H 0.9539 0.28641 0.27138 0.0
H114 H 0.32607 1.00422 0.54964 0.0
C115 C 0.33883 1.01011 0.47348 0.0
C116 C 0.3719 0.01818 0.46272 0.0
C117 C 0.32312 1.00787 0.38504 0.0
H118 H 0.41475 0.02976 0.35765 0.0
C119 C 0.3889 0.02464 0.36483 0.0
C120 C 0.3747 0.0214 0.27643 0.0
C121 C 0.3417 0.01314 0.28627 0.0
C122 C 0.28923 0.99616 0.39479 0.0
H123 H 0.33083 1.01015 0.21741 0.0
C124 C 0.26202 1.00652 0.46057 0.0
C125 C 0.23027 0.99518 0.46327 0.0
C126 C 0.2842 0.97383 0.33609 0.0
H127 H 0.30444 0.96494 0.28699 0.0
C128 C 0.25327 0.96231 0.34058 0.0
H129 H 0.26525 0.02376 0.50634 0.0
C130 C 0.22657 0.97292 0.403 0.0
H131 H 0.20275 0.96365 0.40427 0.0
H132 H 0.24992 0.94509 0.29496 0.0
H133 H 0.55174 0.33554 0.51916 0.0
C134 C 0.54126 0.34745 0.45474 0.0
C135 C 0.53321 0.37691 0.45667 0.0
C136 C 0.53773 0.334 0.36615 0.0
H137 H 0.51545 0.4155 0.37352 0.0
C138 C 0.52058 0.39255 0.37269 0.0
C139 C 0.51778 0.37995 0.28356 0.0
C140 C 0.52622 0.35066 0.28019 0.0
C141 C 0.55001 0.30379 0.35714 0.0
H142 H 0.52515 0.34121 0.20929 0.0
C143 C 0.54094 0.2809 0.43401 0.0
C144 C 0.55222 0.25246 0.42 0.0
C145 C 0.57116 0.29783 0.26884 0.0
H146 H 0.57905 0.31494 0.20958 0.0
C147 C 0.58265 0.26985 0.25607 0.0
H148 H 0.52457 0.285 0.50239 0.0
C149 C 0.57313 0.2473 0.33069 0.0
H150 H 0.58207 0.22565 0.31868 0.0
H151 H 0.59889 0.26561 0.18769 0.0
C152 C 0.04423 0.95657 0.87406 0.0
N153 N 1.01471 0.99016 0.60046 0.0
C154 C 0.03774 0.96901 0.58074 0.0
C155 C 0.03031 0.9454 0.5351 0.0
C156 C 0.99984 0.94399 0.49779 0.0
C157 C 0.97753 0.96781 0.50843 0.0
C158 C 0.98504 0.99031 0.56358 0.0
Zn159 Zn 0.02589 1.00993 0.72422 0.0
C160 C 0.97054 0.01246 0.88951 0.0
N161 N 0.06078 0.03468 0.99003 0.0
C162 C 0.08573 0.05355 0.96839 0.0
C163 C 0.03895 0.03564 0.07639 0.0
C164 C 0.039 0.05837 0.1364 0.0
C165 C 0.06255 0.07978 0.10972 0.0
C166 C 0.08737 0.07602 0.02841 0.0
Zn167 Zn 0.04718 0.01608 0.86772 0.0
O168 O 0.03348 0.96747 0.79187 0.0
C169 C 0.10216 0.01388 0.69973 0.0
O170 O 0.0532 0.97309 0.935 0.0
H171 H 0.01967 0.02028 0.09418 0.0
H172 H 0.06087 0.96816 0.61221 0.0
H173 H 0.1028 0.05307 0.89924 0.0
O174 O 0.07687 0.01277 0.65334 0.0
O175 O 0.09788 0.01435 0.79683 0.0
H176 H 0.96662 1.0069 0.58122 0.0
O177 O 0.04127 0.05856 0.79971 0.0
O178 O 0.01773 0.05305 0.66214 0.0
O179 O 0.99532 0.01678 0.93516 0.0
O180 O 0.97565 1.00817 0.79495 0.0
C181 C 0.02894 0.06945 0.7198 0.0
H182 H 0.04832 0.9278 0.53491 0.0
H183 H 0.95423 0.96901 0.47751 0.0
H184 H 0.01951 0.05994 0.19929 0.0
H185 H 0.10707 0.09099 0.00799 0.0
C186 C 0.48403 0.01255 0.68415 0.0
N187 N 0.53439 0.08426 0.74592 0.0
C188 C 0.50516 0.09906 0.73899 0.0
C189 C 0.50445 0.12817 0.69972 0.0
C190 C 0.53409 0.1423 0.66692 0.0
C191 C 0.56383 0.12686 0.67943 0.0
C192 C 0.56343 0.09781 0.71895 0.0
Zn193 Zn 0.53533 0.03993 0.78466 0.0
C194 C 0.48644 0.02004 0.95912 0.0
N195 N 0.53797 0.94733 0.84779 0.0
C196 C 0.5382 0.92844 0.77628 0.0
C197 C 0.53885 0.93768 0.94909 0.0
C198 C 0.54062 0.90822 0.98162 0.0
C199 C 0.54167 0.88819 0.90954 0.0
C200 C 0.54003 0.89867 0.80562 0.0
Zn201 Zn 0.5368 0.99157 0.8083 0.0
O202 O 0.49635 0.03625 0.69562 0.0
C203 C 0.58559 0.01176 0.63298 0.0
O204 O 0.49778 0.98905 0.71815 0.0
H205 H 0.53864 0.95291 0.00503 0.0
H206 H 0.48228 0.08808 0.76103 0.0
H207 H 0.53726 0.93645 0.69624 0.0
O208 O 0.57206 0.03542 0.65747 0.0
O209 O 0.57428 0.98829 0.67996 0.0
H210 H 0.58646 0.08582 0.72462 0.0
O211 O 0.57582 0.99517 0.89714 0.0
O212 O 0.57451 0.04233 0.87473 0.0
O213 O 0.4994 0.99616 0.93471 0.0
O214 O 0.49844 0.04332 0.913 0.0
C215 C 0.58831 0.01881 0.90815 0.0
H216 H 0.48093 0.13935 0.69316 0.0
H217 H 0.58726 0.1368 0.65469 0.0
H218 H 0.54211 0.90121 0.06229 0.0
H219 H 0.54027 0.88403 0.74754 0.0
C220 C 0.54048 0.47066 0.69079 0.0
N221 N 0.45038 0.51548 0.75026 0.0
C222 C 0.43839 0.48961 0.73822 0.0
C223 C 0.41359 0.48812 0.67515 0.0
C224 C 0.40103 0.51349 0.62424 0.0
C225 C 0.41145 0.53997 0.64646 0.0
C226 C 0.43634 0.54049 0.7099 0.0
Zn227 Zn 0.49619 0.51654 0.79913 0.0
C228 C 0.50985 0.47469 0.96399 0.0
N229 N 0.59605 0.51875 0.85595 0.0
C230 C 0.62525 0.52312 0.79527 0.0
C231 C 0.59431 0.51782 0.96039 0.0
C232 C 0.62219 0.52114 0.00772 0.0
C233 C 0.65241 0.52623 0.94772 0.0
C234 C 0.65396 0.5271 0.83996 0.0
Zn235 Zn 0.55072 0.51689 0.80306 0.0
O236 O 0.51195 0.48185 0.71278 0.0
C237 C 0.53736 0.55849 0.63737 0.0
O238 O 0.56554 0.48228 0.71486 0.0
H239 H 0.57093 0.5155 0.00795 0.0
H240 H 0.44976 0.46996 0.77102 0.0
H241 H 0.62615 0.52428 0.71242 0.0
O242 O 0.50958 0.54781 0.6714 0.0
O243 O 0.56292 0.54826 0.67637 0.0
H244 H 0.44622 0.56084 0.72002 0.0
O245 O 0.53508 0.55149 0.88824 0.0
O246 O 0.48155 0.55142 0.88673 0.0
O247 O 0.53739 0.48526 0.92742 0.0
O248 O 0.48393 0.48516 0.92772 0.0
C249 C 0.50677 0.56309 0.90906 0.0
H250 H 0.40573 0.46728 0.66137 0.0
H251 H 0.40233 0.56001 0.60879 0.0
H252 H 0.61982 0.52093 0.09074 0.0
H253 H 0.67693 0.53112 0.7911 0.0
C254 C 0.08045 0.53211 0.60734 0.0
N255 N 0.03789 0.45198 0.71542 0.0
C256 C 0.04252 0.44996 0.61207 0.0
C257 C 0.04063 0.42357 0.5739 0.0
C258 C 0.03314 0.39894 0.64221 0.0
C259 C 0.02865 0.40134 0.74846 0.0
C260 C 0.03149 0.42818 0.78373 0.0
Zn261 Zn 0.03531 0.49306 0.761 0.0
C262 C 0.08612 0.50638 0.8779 0.0
N263 N 0.02719 0.58175 0.81673 0.0
C264 C 0.02042 0.60494 0.74946 0.0
C265 C 0.02926 0.58469 0.91748 0.0
C266 C 0.02329 0.61143 0.95487 0.0
C267 C 1.01487 0.63551 0.88837 0.0
C268 C 1.01421 0.63215 0.78379 0.0
Zn269 Zn 0.03125 0.54064 0.77275 0.0
O270 O 0.07176 0.5066 0.63898 0.0
C271 C 0.98046 0.52651 0.65527 0.0
O272 O 0.06512 0.55333 0.64534 0.0
H273 H 0.03447 0.56603 0.97006 0.0
H274 H 0.04644 0.46905 0.55829 0.0
H275 H 0.01895 0.60222 0.66966 0.0
O276 O 0.99626 0.50272 0.67057 0.0
O277 O 0.99061 0.54889 0.68617 0.0
H278 H 0.02749 0.43012 0.86546 0.0
O279 O 0.9971 0.52749 0.89916 0.0
O280 O 0.99938 0.48108 0.88538 0.0
O281 O 0.07229 0.53094 0.85743 0.0
O282 O 0.07404 0.48399 0.85294 0.0
C283 C 0.98647 0.50248 0.92836 0.0
H284 H 0.0436 0.42264 0.49136 0.0
H285 H 0.0226 0.38275 0.80334 0.0
H286 H 0.02384 0.61298 0.03614 0.0
H287 H 1.00832 0.65026 0.72952 0.0
C288 C 0.19536 1.0006 0.63338 0.0
C289 C 0.19993 1.00601 0.52512 0.0
C290 C 0.16405 1.0044 0.69014 0.0
C291 C 0.13601 0.01345 0.64071 0.0
H292 H 0.21567 0.99189 0.67398 0.0
H293 H 0.16153 0.99888 0.77285 0.0
S294 S 0.136 0.03397 0.3594 0.0
N295 N 0.17449 0.02351 0.37195 0.0
N296 N 0.11616 0.03054 0.47706 0.0
C297 C 0.14087 0.02048 0.53294 0.0
C298 C 0.17261 0.01678 0.47572 0.0
C299 C 0.55887 0.21985 0.5815 0.0
C300 C 0.54211 0.22734 0.49483 0.0
C301 C 0.55512 0.19277 0.63961 0.0
C302 C 0.53439 0.17224 0.61329 0.0
H303 H 0.57626 0.23443 0.60127 0.0
H304 H 0.56932 0.18753 0.70379 0.0
S305 S 0.48465 0.18195 0.39367 0.0
N306 N 0.50358 0.2126 0.38672 0.0
N307 N 0.49641 0.16189 0.49509 0.0
C308 C 0.51656 0.18006 0.52889 0.0
C309 C 0.52052 0.20752 0.4698 0.0
C310 C 0.33379 0.53054 0.44848 0.0
C311 C 0.34521 0.51561 0.36319 0.0
C312 C 0.35136 0.52918 0.53425 0.0
C313 C 0.3807 0.51246 0.53863 0.0
H314 H 0.31175 0.54424 0.44727 0.0
H315 H 0.34224 0.54166 0.59686 0.0
S316 S 0.42053 0.46853 0.33748 0.0
N317 N 0.38714 0.48277 0.29053 0.0
N318 N 0.42018 0.48044 0.45084 0.0
C319 C 0.39186 0.4968 0.45522 0.0
C320 C 0.37414 0.49834 0.36779 0.0
C321 C 0.9894 0.33585 0.5696 0.0
C322 C 1.0137 0.32293 0.50263 0.0
C323 C 0.99636 0.35958 0.61876 0.0
C324 C 0.0277 0.37155 0.60103 0.0
H325 H 0.96469 0.32777 0.5829 0.0
H326 H 0.97676 0.36933 0.66777 0.0
S327 S 0.09998 0.34536 0.43439 0.0
N328 N 0.07054 0.32332 0.42369 0.0
N329 N 0.08341 0.36832 0.51409 0.0
C330 C 0.05233 0.35853 0.53573 0.0
C331 C 0.0454 0.33409 0.48714 0.0
C332 C 0.87899 0.99542 0.96134 0.0
C333 C 0.87257 1.00131 0.06461 0.0
C334 C 0.91019 1.0002 0.90391 0.0
C335 C 0.93642 1.01083 0.94761 0.0
H336 H 0.86036 0.9856 0.92645 0.0
H337 H 0.91415 0.99431 0.826 0.0
S338 S 0.93106 0.03194 0.21332 0.0
N339 N 0.89423 0.01994 0.20614 0.0
N340 N 0.95229 0.02921 0.09949 0.0
C341 C 0.92957 0.0181 0.04946 0.0
C342 C 0.8979 0.01324 0.10748 0.0
C343 C 0.53444 0.81548 0.07404 0.0
C344 C 0.56053 0.79897 0.02793 0.0
C345 C 0.52751 0.8439 0.03279 0.0
C346 C 0.54621 0.85679 0.94334 0.0
H347 H 0.52051 0.80697 0.14562 0.0
H348 H 0.508 0.8562 0.07308 0.0
S349 S 0.6156 0.82162 0.7896 0.0
N350 N 0.60373 0.79678 0.88475 0.0
N351 N 0.59091 0.84996 0.80751 0.0
C352 C 0.57121 0.83985 0.89368 0.0
C353 C 0.57833 0.81105 0.93595 0.0
C354 C 0.71268 0.52138 0.14659 0.0
C355 C 0.72711 0.54842 0.12808 0.0
C356 C 0.68985 0.51366 0.0841 0.0
C357 C 0.68103 0.53251 -0.00017 0.0
H358 H 0.71795 0.50661 0.21252 0.0
H359 H 0.67814 0.49317 0.10387 0.0
S360 S 0.71406 0.60473 0.9134 0.0
N361 N 0.73273 0.59325 0.01543 0.0
N362 N 0.68987 0.5787 0.89809 0.0
C363 C 0.69657 0.55897 0.97741 0.0
C364 C 0.71954 0.56696 0.04162 0.0
C365 C 1.01138 0.6985 0.05008 0.0
C366 C 0.98055 0.71174 0.0354 0.0
C367 C 0.02301 0.67451 -0.00088 0.0
C368 C 1.00441 0.66317 0.93072 0.0
H369 H 0.02584 0.70583 0.10502 0.0
H370 H 0.04635 0.66429 0.0154 0.0
S371 S 0.92303 0.69154 0.8612 0.0
N372 N 0.93253 0.71295 0.94371 0.0
N373 N 0.95416 0.66801 0.84845 0.0
C374 C 0.97424 0.67717 0.91203 0.0
C375 C 0.96238 0.70138 0.9643 0.0
C376 C 1.00833 0.1454 0.60862 0.0
C377 C 0.03685 0.16004 0.61915 0.0
C378 C 1.00532 0.11611 0.64347 0.0
C379 C 0.03013 0.10091 0.6935 0.0
H380 H 0.99027 0.15561 0.56142 0.0
H381 H 0.98425 0.10505 0.62705 0.0
S382 S 0.10662 0.13094 0.75666 0.0
N383 N 0.08814 0.15828 0.69355 0.0
N384 N 0.08199 0.10366 0.76445 0.0
C385 C 0.05682 0.11624 0.71543 0.0
C386 C 0.06014 0.14583 0.67785 0.0
C387 C 0.40656 0.04091 0.56951 0.0
C388 C 0.39224 0.0159 0.54853 0.0
C389 C 0.43589 0.03946 0.61467 0.0
C390 C 0.45224 0.01291 0.64018 0.0
H391 H 0.39639 0.06185 0.54329 0.0
H392 H 0.44638 0.05949 0.62605 0.0
S393 S 0.42273 0.94097 0.60951 0.0
N394 N 0.39493 0.9638 0.56285 0.0
N395 N 0.44989 0.9608 0.64933 0.0
C396 C 0.43689 0.98761 0.62582 0.0
C397 C 0.40689 0.98918 0.57996 0.0
C398 C 0.51415 0.40099 0.61134 0.0
C399 C 0.54037 0.39354 0.53933 0.0
C400 C 0.51538 0.42523 0.66352 0.0
C401 C 0.54283 0.44304 0.64524 0.0
H402 H 0.49149 0.38938 0.62113 0.0
H403 H 0.49391 0.43079 0.7152 0.0
S404 S 0.61916 0.43094 0.47077 0.0
N405 N 0.59552 0.40429 0.45743 0.0
N406 N 0.59809 0.44985 0.557 0.0
C407 C 0.57029 0.43451 0.57945 0.0
C408 C 0.56895 0.40976 0.52595 0.0
C409 C 0.13824 0.557 0.37159 0.0
C410 C 0.16512 0.53732 0.38042 0.0
C411 C 0.11137 0.55661 0.44874 0.0
C412 C 0.11057 0.53619 0.53548 0.0
H413 H 0.137 0.57132 0.30134 0.0
H414 H 0.09027 0.57091 0.43712 0.0
S415 S 0.17715 0.48371 0.60314 0.0
N416 N 0.19114 0.49973 0.48867 0.0
N417 N 0.14058 0.49888 0.63376 0.0
C418 C 0.13849 0.51824 0.54938 0.0
C419 C 0.16592 0.5189 0.47174 0.0
C420 C 1.00722 0.88336 0.90966 0.0
C421 C 0.02433 0.86875 0.98671 0.0
C422 C 1.01583 0.91116 0.867 0.0
C423 C 0.04145 0.92526 0.90157 0.0
H424 H 0.98455 0.87498 0.89242 0.0
H425 H 1.00018 0.92263 0.81427 0.0
S426 S 0.09914 0.8927 0.08042 0.0
N427 N 0.07263 0.86736 0.07751 0.0
N428 N 0.0879 0.92025 0.00081 0.0
C429 C 0.06151 0.9093 0.96743 0.0
C430 C 0.05346 0.88062 0.00778 0.0
C431 C 0.6615 0.04454 0.02093 0.0
C432 C 0.67995 0.01895 0.04304 0.0
C433 C 0.6323 0.04446 0.97529 0.0
C434 C 0.62024 0.0187 0.95117 0.0
H435 H 0.66831 0.06435 0.04672 0.0
H436 H 0.61835 0.06453 0.96333 0.0
S437 S 0.66197 0.94652 0.98189 0.0
N438 N 0.68599 0.96782 0.02869 0.0
N439 N 0.63141 0.96738 0.94219 0.0
C440 C 0.63986 0.99332 0.96606 0.0
C441 C 0.6697 0.99355 0.01169 0.0
C442 C 0.48082 0.62288 0.0765 0.0
C443 C 0.50874 0.64021 0.05801 0.0
C444 C 0.47888 0.59875 0.0233 0.0
C445 C 0.50487 0.59126 0.95029 0.0
H446 H 0.46173 0.62654 0.13884 0.0
H447 H 0.45821 0.58481 0.04489 0.0
S448 S 0.57975 0.633 0.85732 0.0
N449 N 0.56031 0.65051 0.95009 0.0
N450 N 0.55633 0.60588 0.84845 0.0
C451 C 0.53099 0.61027 0.92284 0.0
C452 C 0.53295 0.63469 0.97677 0.0
C453 C 0.90509 0.52359 0.06845 0.0
C454 C 0.90007 0.5016 0.15002 0.0
C455 C 0.93267 0.52285 -0.00464 0.0
C456 C 0.95615 0.50002 0.00049 0.0
H457 H 0.88906 0.54266 0.06538 0.0
H458 H 0.93622 0.54094 0.93632 0.0
S459 S 0.95167 0.43496 0.18915 0.0
N460 N 0.91864 0.45468 0.22529 0.0
N461 N 0.97075 0.45322 0.08551 0.0
C462 C 0.95007 0.47664 0.07595 0.0
C463 C 0.92195 0.47748 0.15149 0.0
C464 C 0.04852 0.12647 0.32869 0.0
C465 C 0.0571 0.1543 0.28257 0.0
C466 C 0.05109 0.10283 0.27273 0.0
C467 C 0.06082 0.10579 0.16626 0.0
H468 H 0.03997 0.12259 0.41014 0.0
H469 H 0.04558 0.08196 0.31426 0.0
S470 S 0.08109 0.17452 0.00377 0.0
N471 N 0.07372 0.18377 0.12212 0.0
N472 N 0.07569 0.13954 0.01377 0.0
C473 C 0.06767 0.13374 0.11712 0.0
C474 C 0.06613 0.15792 0.17561 0.0
C475 C 0.41567 0.04717 0.1448 0.0
C476 C 0.39739 0.0224 0.17867 0.0
C477 C 0.4441 0.04636 0.07309 0.0
C478 C 0.45582 0.02058 0.0337 0.0
H479 H 0.40883 0.06703 0.17812 0.0
H480 H 0.45756 0.0659 0.05109 0.0
S481 S 0.41546 0.95008 0.09314 0.0
N482 N 0.39196 0.97181 0.16368 0.0
N483 N 0.44516 0.96997 0.02929 0.0
C484 C 0.43687 0.9959 0.06391 0.0
C485 C 0.40773 0.99691 0.13599 0.0
C486 C 0.54259 0.41305 0.13948 0.0
C487 C 0.51422 0.39969 0.18957 0.0
C488 C 0.54052 0.43712 0.06735 0.0
C489 C 0.5099 0.44891 0.04141 0.0
H490 H 0.56662 0.40568 0.16023 0.0
H491 H 0.56339 0.44678 0.03305 0.0
S492 S 0.42823 0.41964 0.14443 0.0
N493 N 0.45463 0.39854 0.20584 0.0
N494 N 0.45048 0.44353 0.06657 0.0
C495 C 0.48124 0.43485 0.08775 0.0
C496 C 0.48345 0.41033 0.16278 0.0
C497 C 0.15038 0.48333 0.05715 0.0
C498 C 0.17218 0.50626 0.03652 0.0
C499 C 0.12348 0.48236 0.00117 0.0
C500 C 0.11723 0.50465 0.92456 0.0
H501 H 0.15265 0.46732 0.12241 0.0
H502 H 0.10624 0.46524 0.02302 0.0
S503 S 0.17003 0.56674 0.83012 0.0
N504 N 0.18813 0.54956 0.92582 0.0
N505 N 0.13757 0.54799 0.82081 0.0
C506 C 0.14045 0.52629 0.89744 0.0
C507 C 0.16802 0.527 0.95329 0.0
C508 C 1.0155 0.87702 0.35675 0.0
C509 C 0.98405 0.86876 0.34295 0.0
C510 C 0.01984 0.90148 0.40356 0.0
C511 C 0.99296 0.91772 0.44833 0.0
H512 H 0.03717 0.86649 0.31954 0.0
H513 H 0.04491 0.90821 0.3986 0.0
S514 S 0.90483 0.90103 0.44995 0.0
N515 N 0.92525 0.87685 0.38238 0.0
N516 N 0.93299 0.92039 0.48705 0.0
C517 C 0.96105 0.90775 0.44407 0.0
C518 C 0.95671 0.88367 0.38907 0.0
C519 C 0.6608 0.98601 0.45937 0.0
C520 C 0.67508 0.01184 0.41369 0.0
C521 C 0.63204 0.98606 0.53048 0.0
C522 C 0.61619 0.01199 0.55759 0.0
H523 H 0.67082 0.96568 0.43545 0.0
H524 H 0.6217 0.96561 0.56216 0.0
S525 S 0.64526 0.08547 0.46242 0.0
N526 N 0.67233 0.06381 0.40333 0.0
N527 N 0.61867 0.06431 0.53589 0.0
C528 C 0.63116 0.03794 0.51483 0.0
C529 C 0.66045 0.03776 0.44336 0.0
C530 C 0.50741 0.62291 0.46799 0.0
C531 C 0.53626 0.63328 0.40941 0.0
C532 C 0.50838 0.59904 0.54177 0.0
C533 C 0.53829 0.58437 0.56035 0.0
H534 H 0.48366 0.6325 0.45286 0.0
H535 H 0.4852 0.59173 0.58302 0.0
S536 S 0.62116 0.6042 0.43101 0.0
N537 N 0.59579 0.62809 0.37692 0.0
N538 N 0.59786 0.58329 0.51766 0.0
C539 C 0.56761 0.59542 0.50578 0.0
C540 C 0.56653 0.61985 0.42991 0.0
C541 C 0.91001 0.55141 0.49946 0.0
C542 C 0.89325 0.52579 0.50044 0.0
C543 C 0.93747 0.55206 0.55362 0.0
C544 C 0.94925 0.52696 0.60872 0.0
H545 H 0.90347 0.57041 0.45017 0.0
H546 H 0.95067 0.57182 0.54713 0.0
S547 S 0.91062 0.45567 0.64701 0.0
N548 N 0.88792 0.47585 0.56974 0.0
N549 N 0.93913 0.47679 0.67184 0.0
C550 C 0.93098 0.50185 0.61648 0.0
C551 C 0.90304 0.50135 0.56231 0.0
loop_
_geom_bond_atom_site_label_1
_geom_bond_atom_site_label_2
_geom_bond_distance
_geom_bond_site_symmetry_2
_ccdc_geom_bond_type
H0 C1 0.949 . S
C1 H0 0.949 . S
C1 C2 1.395 . S
C1 C3 1.391 . S
C2 C1 1.395 . S
C2 C5 1.390 . S
C3 C1 1.391 . S
C3 C7 1.387 . S
C3 C8 1.491 . S
H4 C5 0.950 . S
C5 C2 1.390 . S
C5 H4 0.950 . S
C5 C6 1.378 . S
C6 C5 1.378 . S
C6 C7 1.409 . S
C7 C3 1.387 . S
C7 C6 1.409 . S
C7 H9 0.951 . S
C8 C3 1.491 . S
C8 C10 1.382 . S
C8 C12 1.404 . S
H9 C7 0.951 . S
C10 C8 1.382 . S
C10 C11 1.390 . S
C10 H15 0.949 . S
C11 C10 1.390 . S
C11 C16 1.399 . S
C12 C8 1.404 . S
C12 H13 0.950 . S
C12 C14 1.375 . S
H13 C12 0.950 . S
C14 C12 1.375 . S
C14 C16 1.382 . S
C14 H18 0.950 . S
H15 C10 0.949 . S
C16 C11 1.399 . S
C16 C14 1.382 . S
C16 H17 0.952 . S
H17 C16 0.952 . S
H18 C14 0.950 . S
H19 C20 0.949 . S
C20 H19 0.949 . S
C20 C21 1.395 . S
C20 C22 1.391 1_556 S
C21 C20 1.395 . S
C21 C24 1.390 1_556 S
C22 C20 1.391 1_554 S
C22 C26 1.387 . S
C22 C27 1.491 . S
H23 C24 0.950 1_455 S
C24 C21 1.390 1_554 S
C24 H23 0.950 1_655 S
C24 C25 1.378 . S
C25 C24 1.378 . S
C25 C26 1.409 . S
C26 C22 1.387 . S
C26 C25 1.409 . S
C26 H28 0.951 . S
C27 C22 1.491 . S
C27 C29 1.382 1_554 S
C27 C31 1.404 . S
H28 C26 0.951 . S
C29 C27 1.382 1_556 S
C29 C30 1.390 . S
C29 H34 0.949 1_655 S
C30 C29 1.390 . S
C30 C35 1.399 1_556 S
C31 C27 1.404 . S
C31 H32 0.950 . S
C31 C33 1.375 . S
H32 C31 0.950 . S
C33 C31 1.375 . S
C33 C35 1.382 . S
C33 H37 0.950 . S
H34 C29 0.949 1_455 S
C35 C30 1.399 1_554 S
C35 C33 1.382 . S
C35 H36 0.952 . S
H36 C35 0.952 . S
H37 C33 0.950 . S
H38 C39 0.949 . S
C39 H38 0.949 . S
C39 C40 1.395 . S
C39 C41 1.391 . S
C40 C39 1.395 . S
C40 C43 1.390 . S
C41 C39 1.391 . S
C41 C45 1.387 . S
C41 C46 1.491 . S
H42 C43 0.950 . S
C43 C40 1.390 . S
C43 H42 0.950 . S
C43 C44 1.378 . S
C44 C43 1.378 . S
C44 C45 1.409 . S
C45 C41 1.387 . S
C45 C44 1.409 . S
C45 H47 0.951 . S
C46 C41 1.491 . S
C46 C48 1.382 . S
C46 C50 1.404 . S
H47 C45 0.951 . S
C48 C46 1.382 . S
C48 C49 1.390 . S
C48 H53 0.949 1_565 S
C49 C48 1.390 . S
C49 C54 1.399 . S
C50 C46 1.404 . S
C50 H51 0.950 . S
C50 C52 1.375 . S
H51 C50 0.950 . S
C52 C50 1.375 . S
C52 C54 1.382 . S
C52 H56 0.950 . S
H53 C48 0.949 1_545 S
C54 C49 1.399 . S
C54 C52 1.382 . S
C54 H55 0.952 . S
H55 C54 0.952 . S
H56 C52 0.950 . S
H57 C58 0.949 . S
C58 H57 0.949 . S
C58 C59 1.395 . S
C58 C60 1.391 . S
C59 C58 1.395 . S
C59 C62 1.390 . S
C60 C58 1.391 . S
C60 C64 1.387 . S
C60 C65 1.491 . S
H61 C62 0.950 . S
C62 C59 1.390 . S
C62 H61 0.950 . S
C62 C63 1.378 . S
C63 C62 1.378 . S
C63 C64 1.409 . S
C64 C60 1.387 . S
C64 C63 1.409 . S
C64 H66 0.951 . S
C65 C60 1.491 . S
C65 C67 1.382 . S
C65 C69 1.404 . S
H66 C64 0.951 . S
C67 C65 1.382 . S
C67 C68 1.390 . S
C67 H72 0.949 . S
C68 C67 1.390 . S
C68 C73 1.399 . S
C69 C65 1.404 . S
C69 H70 0.950 . S
C69 C71 1.375 . S
H70 C69 0.950 . S
C71 C69 1.375 . S
C71 C73 1.382 . S
C71 H75 0.950 . S
H72 C67 0.949 . S
C73 C68 1.399 . S
C73 C71 1.382 . S
C73 H74 0.952 . S
H74 C73 0.952 . S
H75 C71 0.950 . S
H76 C77 0.949 . S
C77 H76 0.949 . S
C77 C78 1.395 . S
C77 C79 1.391 . S
C78 C77 1.395 . S
C78 C81 1.390 . S
C79 C77 1.391 . S
C79 C83 1.387 . S
C79 C84 1.491 . S
H80 C81 0.950 . S
C81 C78 1.390 . S
C81 H80 0.950 . S
C81 C82 1.378 . S
C82 C81 1.378 . S
C82 C83 1.409 . S
C83 C79 1.387 . S
C83 C82 1.409 . S
C83 H85 0.951 . S
C84 C79 1.491 . S
C84 C86 1.382 . S
C84 C88 1.404 . S
H85 C83 0.951 . S
C86 C84 1.382 . S
C86 C87 1.390 . S
C86 H91 0.949 . S
C87 C86 1.390 . S
C87 C92 1.399 . S
C88 C84 1.404 . S
C88 H89 0.950 . S
C88 C90 1.375 . S
H89 C88 0.950 . S
C90 C88 1.375 . S
C90 C92 1.382 . S
C90 H94 0.950 . S
H91 C86 0.949 . S
C92 C87 1.399 . S
C92 C90 1.382 . S
C92 H93 0.952 . S
H93 C92 0.952 . S
H94 C90 0.950 . S
H95 C96 0.949 . S
C96 H95 0.949 . S
C96 C97 1.395 . S
C96 C98 1.391 . S
C97 C96 1.395 . S
C97 C100 1.390 . S
C98 C96 1.391 . S
C98 C102 1.387 . S
C98 C103 1.491 . S
H99 C100 0.950 . S
C100 C97 1.390 . S
C100 H99 0.950 . S
C100 C101 1.378 . S
C101 C100 1.378 . S
C101 C102 1.409 . S
C102 C98 1.387 . S
C102 C101 1.409 . S
C102 H104 0.951 . S
C103 C98 1.491 . S
C103 C105 1.382 . S
C103 C107 1.404 1_455 S
H104 C102 0.951 . S
C105 C103 1.382 . S
C105 C106 1.390 . S
C105 H110 0.949 . S
C106 C105 1.390 . S
C106 C111 1.399 1_455 S
C107 C103 1.404 1_655 S
C107 H108 0.950 . S
C107 C109 1.375 . S
H108 C107 0.950 . S
C109 C107 1.375 . S
C109 C111 1.382 . S
C109 H113 0.950 . S
H110 C105 0.949 . S
C111 C106 1.399 1_655 S
C111 C109 1.382 . S
C111 H112 0.952 . S
H112 C111 0.952 . S
H113 C109 0.950 . S
H114 C115 0.949 . S
C115 H114 0.949 . S
C115 C116 1.395 . S
C115 C117 1.391 . S
C116 C115 1.395 . S
C116 C119 1.390 . S
C117 C115 1.391 . S
C117 C121 1.387 . S
C117 C122 1.491 . S
H118 C119 0.950 . S
C119 C116 1.390 . S
C119 H118 0.950 . S
C119 C120 1.378 . S
C120 C119 1.378 . S
C120 C121 1.409 . S
C121 C117 1.387 . S
C121 C120 1.409 . S
C121 H123 0.951 . S
C122 C117 1.491 . S
C122 C124 1.382 . S
C122 C126 1.404 1_545 S
H123 C121 0.951 . S
C124 C122 1.382 . S
C124 C125 1.390 . S
C124 H129 0.949 . S
C125 C124 1.390 . S
C125 C130 1.399 1_545 S
C126 C122 1.404 1_565 S
C126 H127 0.950 . S
C126 C128 1.375 . S
H127 C126 0.950 . S
C128 C126 1.375 . S
C128 C130 1.382 . S
C128 H132 0.950 . S
H129 C124 0.949 . S
C130 C125 1.399 1_565 S
C130 C128 1.382 . S
C130 H131 0.952 . S
H131 C130 0.952 . S
H132 C128 0.950 . S
H133 C134 0.949 . S
C134 H133 0.949 . S
C134 C135 1.395 . S
C134 C136 1.391 . S
C135 C134 1.395 . S
C135 C138 1.390 . S
C136 C134 1.391 . S
C136 C140 1.387 . S
C136 C141 1.491 . S
H137 C138 0.950 . S
C138 C135 1.390 . S
C138 H137 0.950 . S
C138 C139 1.378 . S
C139 C138 1.378 . S
C139 C140 1.409 . S
C140 C136 1.387 . S
C140 C139 1.409 . S
C140 H142 0.951 . S
C141 C136 1.491 . S
C141 C143 1.382 . S
C141 C145 1.404 . S
H142 C140 0.951 . S
C143 C141 1.382 . S
C143 C144 1.390 . S
C143 H148 0.949 . S
C144 C143 1.390 . S
C144 C149 1.399 . S
C145 C141 1.404 . S
C145 H146 0.950 . S
C145 C147 1.375 . S
H146 C145 0.950 . S
C147 C145 1.375 . S
C147 C149 1.382 . S
C147 H151 0.950 . S
H148 C143 0.949 . S
C149 C144 1.399 . S
C149 C147 1.382 . S
C149 H150 0.952 . S
H150 C149 0.952 . S
H151 C147 0.950 . S
C152 O168 1.251 . S
C152 O170 1.254 . S
N153 C154 1.333 . S
N153 C158 1.307 1_455 S
N153 Zn159 2.020 . S
C154 N153 1.333 . S
C154 C155 1.379 . S
C154 H172 0.952 . S
C155 C154 1.379 . S
C155 C156 1.390 1_455 S
C155 H182 0.949 . S
C156 C155 1.390 1_655 S
C156 C157 1.357 . S
C157 C156 1.357 . S
C157 C158 1.370 . S
C157 H183 0.950 . S
C158 N153 1.307 1_655 S
C158 C157 1.370 . S
C158 H176 0.948 1_565 S
Zn159 N153 2.020 . S
Zn159 O168 2.039 . S
Zn159 O174 2.034 . S
Zn159 O178 2.025 1_565 S
Zn159 O180 2.024 1_455 S
C160 O179 1.246 . S
C160 O180 1.249 1_545 S
N161 C162 1.307 . S
N161 C163 1.333 . S
N161 Zn167 2.020 1_554 S
C162 N161 1.307 . S
C162 C166 1.370 . S
C162 H173 0.948 . S
C163 N161 1.333 . S
C163 C164 1.379 . S
C163 H171 0.952 1_554 S
C164 C163 1.379 . S
C164 C165 1.390 . S
C164 H184 0.949 . S
C165 C164 1.390 . S
C165 C166 1.357 . S
C166 C162 1.370 . S
C166 C165 1.357 . S
C166 H185 0.950 . S
Zn167 N161 2.020 1_556 S
Zn167 O170 2.025 1_545 S
Zn167 O175 2.024 . S
Zn167 O177 2.039 . S
Zn167 O179 2.034 1_455 S
O168 C152 1.251 . S
O168 Zn159 2.039 . S
C169 O174 1.246 1_545 S
C169 O175 1.249 . S
O170 C152 1.254 . S
O170 Zn167 2.025 1_565 S
H171 C163 0.952 1_556 S
H172 C154 0.952 . S
H173 C162 0.948 . S
O174 Zn159 2.034 . S
O174 C169 1.246 1_565 S
O175 Zn167 2.024 . S
O175 C169 1.249 . S
H176 C158 0.948 1_545 S
O177 Zn167 2.039 . S
O177 C181 1.251 . S
O178 Zn159 2.025 1_545 S
O178 C181 1.254 . S
O179 C160 1.246 . S
O179 Zn167 2.034 1_655 S
O180 Zn159 2.024 1_655 S
O180 C160 1.249 1_565 S
C181 O177 1.251 . S
C181 O178 1.254 . S
H182 C155 0.949 . S
H183 C157 0.950 . S
H184 C164 0.949 . S
H185 C166 0.950 . S
C186 O202 1.251 . S
C186 O204 1.254 1_545 S
N187 C188 1.333 . S
N187 C192 1.307 . S
N187 Zn193 2.020 . S
C188 N187 1.333 . S
C188 C189 1.379 . S
C188 H206 0.952 . S
C189 C188 1.379 . S
C189 C190 1.390 . S
C189 H216 0.949 . S
C190 C189 1.390 . S
C190 C191 1.357 . S
C191 C190 1.357 . S
C191 C192 1.370 . S
C191 H217 0.950 . S
C192 N187 1.307 . S
C192 C191 1.370 . S
C192 H210 0.948 . S
Zn193 N187 2.020 . S
Zn193 O202 2.039 . S
Zn193 O208 2.034 . S
Zn193 O212 2.025 . S
Zn193 O214 2.024 . S
C194 O213 1.246 1_545 S
C194 O214 1.249 . S
N195 C196 1.307 . S
N195 C197 1.333 . S
N195 Zn201 2.020 . S
C196 N195 1.307 . S
C196 C200 1.370 . S
C196 H207 0.948 . S
C197 N195 1.333 . S
C197 C198 1.379 . S
C197 H205 0.952 . S
C198 C197 1.379 . S
C198 C199 1.390 . S
C198 H218 0.949 1_556 S
C199 C198 1.390 . S
C199 C200 1.357 . S
C200 C196 1.370 . S
C200 C199 1.357 . S
C200 H219 0.950 . S
Zn201 N195 2.020 . S
Zn201 O204 2.025 . S
Zn201 O209 2.024 . S
Zn201 O211 2.039 . S
Zn201 O213 2.034 . S
O202 C186 1.251 . S
O202 Zn193 2.039 . S
C203 O208 1.246 1_565 S
C203 O209 1.249 . S
O204 C186 1.254 1_565 S
O204 Zn201 2.025 . S
H205 C197 0.952 . S
H206 C188 0.952 . S
H207 C196 0.948 . S
O208 Zn193 2.034 . S
O208 C203 1.246 1_545 S
O209 Zn201 2.024 . S
O209 C203 1.249 . S
H210 C192 0.948 . S
O211 Zn201 2.039 . S
O211 C215 1.251 1_565 S
O212 Zn193 2.025 . S
O212 C215 1.254 . S
O213 C194 1.246 1_565 S
O213 Zn201 2.034 . S
O214 Zn193 2.024 . S
O214 C194 1.249 . S
C215 O211 1.251 1_545 S
C215 O212 1.254 . S
H216 C189 0.949 . S
H217 C191 0.950 . S
H218 C198 0.949 1_554 S
H219 C200 0.950 . S
C220 O236 1.251 . S
C220 O238 1.254 . S
N221 C222 1.333 . S
N221 C226 1.307 . S
N221 Zn227 2.020 . S
C222 N221 1.333 . S
C222 C223 1.379 . S
C222 H240 0.952 . S
C223 C222 1.379 . S
C223 C224 1.390 . S
C223 H250 0.949 . S
C224 C223 1.390 . S
C224 C225 1.357 . S
C225 C224 1.357 . S
C225 C226 1.370 . S
C225 H251 0.950 . S
C226 N221 1.307 . S
C226 C225 1.370 . S
C226 H244 0.948 . S
Zn227 N221 2.020 . S
Zn227 O236 2.039 . S
Zn227 O242 2.034 . S
Zn227 O246 2.025 . S
Zn227 O248 2.024 . S
C228 O247 1.246 . S
C228 O248 1.249 . S
N229 C230 1.307 . S
N229 C231 1.333 . S
N229 Zn235 2.020 . S
C230 N229 1.307 . S
C230 C234 1.370 . S
C230 H241 0.948 . S
C231 N229 1.333 . S
C231 C232 1.379 . S
C231 H239 0.952 . S
C232 C231 1.379 . S
C232 C233 1.390 . S
C232 H252 0.949 . S
C233 C232 1.390 . S
C233 C234 1.357 . S
C234 C230 1.370 . S
C234 C233 1.357 . S
C234 H253 0.950 . S
Zn235 N229 2.020 . S
Zn235 O238 2.025 . S
Zn235 O243 2.024 . S
Zn235 O245 2.039 . S
Zn235 O247 2.034 . S
O236 C220 1.251 . S
O236 Zn227 2.039 . S
C237 O242 1.246 . S
C237 O243 1.249 . S
O238 C220 1.254 . S
O238 Zn235 2.025 . S
H239 C231 0.952 . S
H240 C222 0.952 . S
H241 C230 0.948 . S
O242 Zn227 2.034 . S
O242 C237 1.246 . S
O243 Zn235 2.024 . S
O243 C237 1.249 . S
H244 C226 0.948 . S
O245 Zn235 2.039 . S
O245 C249 1.251 . S
O246 Zn227 2.025 . S
O246 C249 1.254 . S
O247 C228 1.246 . S
O247 Zn235 2.034 . S
O248 Zn227 2.024 . S
O248 C228 1.249 . S
C249 O245 1.251 . S
C249 O246 1.254 . S
H250 C223 0.949 . S
H251 C225 0.950 . S
H252 C232 0.949 . S
H253 C234 0.950 . S
C254 O270 1.251 . S
C254 O272 1.254 . S
N255 C256 1.333 . S
N255 C260 1.302 1_455 S
N255 Zn261 2.020 . S
C256 N255 1.333 . S
C256 C257 1.379 . S
C256 H274 0.952 . S
C257 C256 1.379 . S
C257 C258 1.390 . S
C257 H284 0.949 . S
C258 C257 1.390 . S
C258 C259 1.353 1_455 S
C259 C258 1.353 1_655 S
C259 C260 1.370 . S
C259 H285 0.955 . S
C260 N255 1.302 1_655 S
C260 C259 1.370 . S
C260 H278 0.953 . S
Zn261 N255 2.020 . S
Zn261 O270 2.039 . S
Zn261 O276 2.034 1_455 S
Zn261 O280 2.025 1_455 S
Zn261 O282 2.024 . S
C262 O281 1.246 . S
C262 O282 1.249 . S
N263 C264 1.307 . S
N263 C265 1.333 . S
N263 Zn269 2.020 . S
C264 N263 1.307 . S
C264 C268 1.370 . S
C264 H275 0.948 . S
C265 N263 1.333 . S
C265 C266 1.379 . S
C265 H273 0.952 1_455 S
C266 C265 1.379 . S
C266 C267 1.402 . S
C266 H286 0.939 1_455 S
C267 C266 1.402 . S
C267 C268 1.357 . S
C268 C264 1.370 . S
C268 C267 1.357 . S
C268 H287 0.950 . S
Zn269 N263 2.020 . S
Zn269 O272 2.025 . S
Zn269 O277 2.024 1_455 S
Zn269 O279 2.039 1_455 S
Zn269 O281 2.034 . S
O270 C254 1.251 . S
O270 Zn261 2.039 . S
C271 O276 1.246 . S
C271 O277 1.249 . S
O272 C254 1.254 . S
O272 Zn269 2.025 . S
H273 C265 0.952 1_655 S
H274 C256 0.952 . S
H275 C264 0.948 . S
O276 Zn261 2.034 1_655 S
O276 C271 1.246 . S
O277 Zn269 2.024 1_655 S
O277 C271 1.249 . S
H278 C260 0.953 . S
O279 Zn269 2.039 1_655 S
O279 C283 1.251 . S
O280 Zn261 2.025 1_655 S
O280 C283 1.254 . S
O281 C262 1.246 . S
O281 Zn269 2.034 . S
O282 Zn261 2.024 . S
O282 C262 1.249 . S
C283 O279 1.251 . S
C283 O280 1.254 . S
H284 C257 0.949 . S
H285 C259 0.955 . S
H286 C266 0.939 1_655 S
H287 C268 0.950 . S
C288 C289 1.369 . S
C288 C290 1.419 . S
C288 H292 0.930 . S
C289 C288 1.369 . S
C289 C298 1.429 . S
C290 C288 1.419 . S
C290 C291 1.363 . S
C290 H293 0.929 . S
C291 C290 1.363 . S
C291 C297 1.428 . S
H292 C288 0.930 . S
H293 C290 0.929 . S
S294 N295 1.613 . S
S294 N296 1.610 . S
N295 S294 1.613 . S
N295 C298 1.350 . S
N296 S294 1.610 . S
N296 C297 1.351 . S
C297 C291 1.428 . S
C297 N296 1.351 . S
C297 C298 1.434 . S
C298 C289 1.429 . S
C298 N295 1.350 . S
C298 C297 1.434 . S
C299 C300 1.369 . S
C299 C301 1.419 . S
C299 H303 0.930 . S
C300 C299 1.369 . S
C300 C309 1.429 . S
C301 C299 1.419 . S
C301 C302 1.363 . S
C301 H304 0.929 . S
C302 C301 1.363 . S
C302 C308 1.428 . S
H303 C299 0.930 . S
H304 C301 0.929 . S
S305 N306 1.613 . S
S305 N307 1.610 . S
N306 S305 1.613 . S
N306 C309 1.350 . S
N307 S305 1.610 . S
N307 C308 1.351 . S
C308 C302 1.428 . S
C308 N307 1.351 . S
C308 C309 1.434 . S
C309 C300 1.429 . S
C309 N306 1.350 . S
C309 C308 1.434 . S
C310 C311 1.369 . S
C310 C312 1.419 . S
C310 H314 0.930 . S
C311 C310 1.369 . S
C311 C320 1.429 . S
C312 C310 1.419 . S
C312 C313 1.363 . S
C312 H315 0.929 . S
C313 C312 1.363 . S
C313 C319 1.428 . S
H314 C310 0.930 . S
H315 C312 0.929 . S
S316 N317 1.613 . S
S316 N318 1.610 . S
N317 S316 1.613 . S
N317 C320 1.350 . S
N318 S316 1.610 . S
N318 C319 1.351 . S
C319 C313 1.428 . S
C319 N318 1.351 . S
C319 C320 1.434 . S
C320 C311 1.429 . S
C320 N317 1.350 . S
C320 C319 1.434 . S
C321 C322 1.369 . S
C321 C323 1.417 1_455 S
C321 H325 0.930 1_455 S
C322 C321 1.369 . S
C322 C331 1.429 . S
C323 C321 1.417 1_655 S
C323 C324 1.351 1_655 S
C323 H326 0.944 . S
C324 C323 1.351 1_455 S
C324 C330 1.428 . S
H325 C321 0.930 1_655 S
H326 C323 0.944 . S
S327 N328 1.613 . S
S327 N329 1.610 . S
N328 S327 1.613 . S
N328 C331 1.350 . S
N329 S327 1.610 . S
N329 C330 1.351 . S
C330 C324 1.428 . S
C330 N329 1.351 . S
C330 C331 1.434 . S
C331 C322 1.429 . S
C331 N328 1.350 . S
C331 C330 1.434 . S
C332 C333 1.369 . S
C332 C334 1.419 . S
C332 H336 0.930 . S
C333 C332 1.369 . S
C333 C342 1.429 1_565 S
C334 C332 1.419 . S
C334 C335 1.363 1_565 S
C334 H337 0.929 . S
C335 C334 1.363 1_545 S
C335 C341 1.428 . S
H336 C332 0.930 . S
H337 C334 0.929 . S
S338 N339 1.613 . S
S338 N340 1.610 . S
N339 S338 1.613 . S
N339 C342 1.350 . S
N340 S338 1.610 . S
N340 C341 1.351 . S
C341 C335 1.428 . S
C341 N340 1.351 . S
C341 C342 1.434 . S
C342 C333 1.429 1_545 S
C342 N339 1.350 . S
C342 C341 1.434 . S
C343 C344 1.369 1_556 S
C343 C345 1.419 . S
C343 H347 0.930 1_556 S
C344 C343 1.369 1_554 S
C344 C353 1.429 . S
C345 C343 1.419 . S
C345 C346 1.363 . S
C345 H348 0.929 . S
C346 C345 1.363 . S
C346 C352 1.428 . S
H347 C343 0.930 1_554 S
H348 C345 0.929 . S
S349 N350 1.613 . S
S349 N351 1.610 1_554 S
N350 S349 1.613 . S
N350 C353 1.350 . S
N351 S349 1.610 1_556 S
N351 C352 1.351 . S
C352 C346 1.428 . S
C352 N351 1.351 . S
C352 C353 1.434 1_556 S
C353 C344 1.429 . S
C353 N350 1.350 . S
C353 C352 1.434 1_554 S
C354 C355 1.369 . S
C354 C356 1.419 1_554 S
C354 H358 0.930 . S
C355 C354 1.369 . S
C355 C364 1.429 . S
C356 C354 1.419 1_556 S
C356 C357 1.363 . S
C356 H359 0.929 . S
C357 C356 1.363 . S
C357 C363 1.428 . S
H358 C354 0.930 . S
H359 C356 0.929 . S
S360 N361 1.613 . S
S360 N362 1.610 1_554 S
N361 S360 1.613 . S
N361 C364 1.350 . S
N362 S360 1.610 1_556 S
N362 C363 1.351 . S
C363 C357 1.428 . S
C363 N362 1.351 . S
C363 C364 1.434 1_556 S
C364 C355 1.429 . S
C364 N361 1.350 . S
C364 C363 1.434 1_554 S
C365 C366 1.377 . S
C365 C367 1.419 . S
C365 H369 0.930 . S
C366 C365 1.377 . S
C366 C375 1.422 1_455 S
C367 C365 1.419 . S
C367 C368 1.363 . S
C367 H370 0.929 . S
C368 C367 1.363 . S
C368 C374 1.428 1_455 S
H369 C365 0.930 . S
H370 C367 0.929 . S
S371 N372 1.613 . S
S371 N373 1.610 1_554 S
N372 S371 1.613 . S
N372 C375 1.350 1_554 S
N373 S371 1.610 1_556 S
N373 C374 1.351 . S
C374 C368 1.428 1_655 S
C374 N373 1.351 . S
C374 C375 1.434 . S
C375 C366 1.422 1_655 S
C375 N372 1.350 1_556 S
C375 C374 1.434 . S
C376 C377 1.369 1_655 S
C376 C378 1.419 . S
C376 H380 0.930 . S
C377 C376 1.369 1_455 S
C377 C386 1.429 . S
C378 C376 1.419 . S
C378 C379 1.363 1_655 S
C378 H381 0.929 . S
C379 C378 1.363 1_455 S
C379 C385 1.428 . S
H380 C376 0.930 . S
H381 C378 0.929 . S
S382 N383 1.613 . S
S382 N384 1.610 . S
N383 S382 1.613 . S
N383 C386 1.350 . S
N384 S382 1.610 . S
N384 C385 1.351 . S
C385 C379 1.428 . S
C385 N384 1.351 . S
C385 C386 1.434 . S
C386 C377 1.429 . S
C386 N383 1.350 . S
C386 C385 1.434 . S
C387 C388 1.369 . S
C387 C389 1.419 . S
C387 H391 0.930 . S
C388 C387 1.369 . S
C388 C397 1.429 . S
C389 C387 1.419 . S
C389 C390 1.363 . S
C389 H392 0.929 . S
C390 C389 1.363 . S
C390 C396 1.428 1_545 S
H391 C387 0.930 . S
H392 C389 0.929 . S
S393 N394 1.613 . S
S393 N395 1.610 . S
N394 S393 1.613 . S
N394 C397 1.350 1_565 S
N395 S393 1.610 . S
N395 C396 1.351 . S
C396 C390 1.428 1_565 S
C396 N395 1.351 . S
C396 C397 1.434 1_565 S
C397 C388 1.429 . S
C397 N394 1.350 1_545 S
C397 C396 1.434 1_545 S
C398 C399 1.369 . S
C398 C400 1.419 . S
C398 H402 0.930 . S
C399 C398 1.369 . S
C399 C408 1.429 . S
C400 C398 1.419 . S
C400 C401 1.363 . S
C400 H403 0.929 . S
C401 C400 1.363 . S
C401 C407 1.428 . S
H402 C398 0.930 . S
H403 C400 0.929 . S
S404 N405 1.613 . S
S404 N406 1.610 . S
N405 S404 1.613 . S
N405 C408 1.350 . S
N406 S404 1.610 . S
N406 C407 1.351 . S
C407 C401 1.428 . S
C407 N406 1.351 . S
C407 C408 1.434 . S
C408 C399 1.429 . S
C408 N405 1.350 . S
C408 C407 1.434 . S
C409 C410 1.369 . S
C409 C411 1.419 . S
C409 H413 0.930 . S
C410 C409 1.369 . S
C410 C419 1.429 . S
C411 C409 1.419 . S
C411 C412 1.363 . S
C411 H414 0.929 . S
C412 C411 1.363 . S
C412 C418 1.428 . S
H413 C409 0.930 . S
H414 C411 0.929 . S
S415 N416 1.613 . S
S415 N417 1.610 . S
N416 S415 1.613 . S
N416 C419 1.350 . S
N417 S415 1.610 . S
N417 C418 1.351 . S
C418 C412 1.428 . S
C418 N417 1.351 . S
C418 C419 1.434 . S
C419 C410 1.429 . S
C419 N416 1.350 . S
C419 C418 1.434 . S
C420 C421 1.369 . S
C420 C422 1.419 . S
C420 H424 0.930 . S
C421 C420 1.369 . S
C421 C430 1.429 1_655 S
C422 C420 1.419 . S
C422 C423 1.363 1_655 S
C422 H425 0.929 . S
C423 C422 1.363 1_455 S
C423 C429 1.428 . S
H424 C420 0.930 . S
H425 C422 0.929 . S
S426 N427 1.613 . S
S426 N428 1.610 . S
N427 S426 1.613 . S
N427 C430 1.350 1_554 S
N428 S426 1.610 . S
N428 C429 1.351 1_554 S
C429 C423 1.428 . S
C429 N428 1.351 1_556 S
C429 C430 1.434 . S
C430 C421 1.429 1_455 S
C430 N427 1.350 1_556 S
C430 C429 1.434 . S
C431 C432 1.365 1_545 S
C431 C433 1.420 . S
C431 H435 0.934 . S
C432 C431 1.365 1_565 S
C432 C441 1.429 1_554 S
C433 C431 1.420 . S
C433 C434 1.363 1_554 S
C433 H436 0.929 . S
C434 C433 1.363 1_556 S
C434 C440 1.428 1_545 S
H435 C431 0.934 . S
H436 C433 0.929 . S
S437 N438 1.613 . S
S437 N439 1.610 . S
N438 S437 1.613 . S
N438 C441 1.350 . S
N439 S437 1.610 . S
N439 C440 1.351 . S
C440 C434 1.428 1_565 S
C440 N439 1.351 . S
C440 C441 1.434 . S
C441 C432 1.429 1_556 S
C441 N438 1.350 . S
C441 C440 1.434 . S
C442 C443 1.369 1_556 S
C442 C444 1.419 . S
C442 H446 0.930 . S
C443 C442 1.369 1_554 S
C443 C452 1.429 . S
C444 C442 1.419 . S
C444 C445 1.363 . S
C444 H447 0.929 . S
C445 C444 1.363 . S
C445 C451 1.428 . S
H446 C442 0.930 . S
H447 C444 0.929 . S
S448 N449 1.613 . S
S448 N450 1.610 1_554 S
N449 S448 1.613 . S
N449 C452 1.350 . S
N450 S448 1.610 1_556 S
N450 C451 1.351 . S
C451 C445 1.428 . S
C451 N450 1.351 . S
C451 C452 1.434 1_556 S
C452 C443 1.429 . S
C452 N449 1.350 . S
C452 C451 1.434 1_554 S
C453 C454 1.369 . S
C453 C455 1.419 . S
C453 H457 0.930 . S
C454 C453 1.369 . S
C454 C463 1.429 . S
C455 C453 1.419 . S
C455 C456 1.363 1_554 S
C455 H458 0.929 . S
C456 C455 1.363 1_556 S
C456 C462 1.428 . S
H457 C453 0.930 . S
H458 C455 0.929 . S
S459 N460 1.613 1_556 S
S459 N461 1.610 . S
N460 S459 1.613 1_554 S
N460 C463 1.350 . S
N461 S459 1.610 . S
N461 C462 1.351 . S
C462 C456 1.428 . S
C462 N461 1.351 . S
C462 C463 1.434 1_556 S
C463 C454 1.429 . S
C463 N460 1.350 . S
C463 C462 1.434 1_554 S
C464 C465 1.369 . S
C464 C466 1.419 . S
C464 H468 0.930 . S
C465 C464 1.369 . S
C465 C474 1.429 . S
C466 C464 1.419 . S
C466 C467 1.363 . S
C466 H469 0.929 . S
C467 C466 1.363 . S
C467 C473 1.428 . S
H468 C464 0.930 . S
H469 C466 0.929 . S
S470 N471 1.613 . S
S470 N472 1.610 . S
N471 S470 1.613 . S
N471 C474 1.350 . S
N472 S470 1.610 . S
N472 C473 1.351 . S
C473 C467 1.428 . S
C473 N472 1.351 . S
C473 C474 1.434 . S
C474 C465 1.429 . S
C474 N471 1.350 . S
C474 C473 1.434 . S
C475 C476 1.369 . S
C475 C477 1.419 . S
C475 H479 0.930 . S
C476 C475 1.369 . S
C476 C485 1.429 . S
C477 C475 1.419 . S
C477 C478 1.363 . S
C477 H480 0.929 1_554 S
C478 C477 1.363 . S
C478 C484 1.435 . S
H479 C475 0.930 . S
H480 C477 0.929 1_556 S
S481 N482 1.613 . S
S481 N483 1.610 . S
N482 S481 1.613 . S
N482 C485 1.350 1_565 S
N483 S481 1.610 . S
N483 C484 1.343 1_565 S
C484 C478 1.435 . S
C484 N483 1.343 1_545 S
C484 C485 1.436 . S
C485 C476 1.429 . S
C485 N482 1.350 1_545 S
C485 C484 1.436 . S
C486 C487 1.369 . S
C486 C488 1.419 . S
C486 H490 0.930 . S
C487 C486 1.369 . S
C487 C496 1.429 . S
C488 C486 1.419 . S
C488 C489 1.363 . S
C488 H491 0.929 . S
C489 C488 1.363 . S
C489 C495 1.428 . S
H490 C486 0.930 . S
H491 C488 0.929 . S
S492 N493 1.613 . S
S492 N494 1.610 . S
N493 S492 1.613 . S
N493 C496 1.350 . S
N494 S492 1.610 . S
N494 C495 1.351 . S
C495 C489 1.428 . S
C495 N494 1.351 . S
C495 C496 1.434 . S
C496 C487 1.429 . S
C496 N493 1.350 . S
C496 C495 1.434 . S
C497 C498 1.369 . S
C497 C499 1.419 . S
C497 H501 0.930 . S
C498 C497 1.369 . S
C498 C507 1.429 . S
C499 C497 1.419 . S
C499 C500 1.363 . S
C499 H502 0.929 . S
C500 C499 1.363 . S
C500 C506 1.428 1_554 S
H501 C497 0.930 . S
H502 C499 0.929 . S
S503 N504 1.613 1_556 S
S503 N505 1.610 . S
N504 S503 1.613 1_554 S
N504 C507 1.350 . S
N505 S503 1.610 . S
N505 C506 1.351 . S
C506 C500 1.428 1_556 S
C506 N505 1.351 . S
C506 C507 1.434 1_556 S
C507 C498 1.429 . S
C507 N504 1.350 . S
C507 C506 1.434 1_554 S
C508 C509 1.369 1_455 S
C508 C510 1.419 . S
C508 H512 0.930 . S
C509 C508 1.369 1_655 S
C509 C518 1.429 . S
C510 C508 1.419 . S
C510 C511 1.363 1_455 S
C510 H513 0.929 . S
C511 C510 1.363 1_655 S
C511 C517 1.428 . S
H512 C508 0.930 . S
H513 C510 0.929 . S
S514 N515 1.613 . S
S514 N516 1.610 . S
N515 S514 1.613 . S
N515 C518 1.350 . S
N516 S514 1.610 . S
N516 C517 1.351 . S
C517 C511 1.428 . S
C517 N516 1.351 . S
C517 C518 1.434 . S
C518 C509 1.429 . S
C518 N515 1.350 . S
C518 C517 1.434 . S
C519 C520 1.369 . S
C519 C521 1.419 . S
C519 H523 0.930 . S
C520 C519 1.369 . S
C520 C529 1.429 1_565 S
C521 C519 1.419 . S
C521 C522 1.363 . S
C521 H524 0.929 . S
C522 C521 1.363 . S
C522 C528 1.428 1_565 S
H523 C519 0.930 . S
H524 C521 0.929 . S
S525 N526 1.613 . S
S525 N527 1.610 . S
N526 S525 1.613 . S
N526 C529 1.350 . S
N527 S525 1.610 . S
N527 C528 1.351 . S
C528 C522 1.428 1_545 S
C528 N527 1.351 . S
C528 C529 1.434 . S
C529 C520 1.429 1_545 S
C529 N526 1.350 . S
C529 C528 1.434 . S
C530 C531 1.369 . S
C530 C532 1.419 . S
C530 H534 0.930 . S
C531 C530 1.369 . S
C531 C540 1.429 . S
C532 C530 1.419 . S
C532 C533 1.363 . S
C532 H535 0.929 . S
C533 C532 1.363 . S
C533 C539 1.428 . S
H534 C530 0.930 . S
H535 C532 0.929 . S
S536 N537 1.613 . S
S536 N538 1.610 . S
N537 S536 1.613 . S
N537 C540 1.350 . S
N538 S536 1.610 . S
N538 C539 1.351 . S
C539 C533 1.428 . S
C539 N538 1.351 . S
C539 C540 1.434 . S
C540 C531 1.429 . S
C540 N537 1.350 . S
C540 C539 1.434 . S
C541 C542 1.369 . S
C541 C543 1.419 . S
C541 H545 0.930 . S
C542 C541 1.369 . S
C542 C551 1.429 . S
C543 C541 1.419 . S
C543 C544 1.363 . S
C543 H546 0.929 . S
C544 C543 1.363 . S
C544 C550 1.428 . S
H545 C541 0.930 . S
H546 C543 0.929 . S
S547 N548 1.613 . S
S547 N549 1.610 . S
N548 S547 1.613 . S
N548 C551 1.350 . S
N549 S547 1.610 . S
N549 C550 1.351 . S
C550 C544 1.428 . S
C550 N549 1.351 . S
C550 C551 1.434 . S
C551 C542 1.429 . S
C551 N548 1.350 . S
C551 C550 1.434 . S
C289 C125 1.763 . S
C291 C169 1.894 . S
C302 C190 1.536 . S
C300 C144 1.439 . S
C313 C224 1.458 . S
C311 C87 1.442 . S
C324 C258 1.532 . S
C322 C106 1.413 . S
C335 C160 1.894 . S
C333 C49 1.817 1_556 S
C344 C68 1.441 . S
C346 C199 1.537 . S
C355 C11 1.490 . S
C357 C233 1.459 . S
C366 C30 1.456 1_455 S
C368 C267 1.532 . S
C379 C181 0.923 . S
C377 C97 0.850 . S
C390 C186 1.381 . S
C388 C116 1.330 . S
C401 C220 1.268 . S
C399 C135 1.235 . S
C410 C78 0.718 . S
C412 C254 0.709 . S
C421 C21 0.843 . S
C423 C152 0.928 . S
C434 C215 1.381 . S
C432 C40 1.331 . S
C445 C249 1.265 . S
C443 C59 1.233 . S
C454 C2 0.710 . S
C456 C283 0.713 . S
C465 C101 1.354 . S
C467 C165 1.373 . S
C476 C120 1.719 . S
C478 C194 1.757 1_554 S
C489 C228 1.558 1_554 S
C487 C139 1.542 . S
C500 C262 1.654 1_554 S
C498 C82 1.619 . S
C509 C25 1.352 . S
C511 C156 1.373 . S
C522 C203 1.757 . S
C520 C44 1.726 . S
C533 C237 1.557 . S
C531 C63 1.536 . S
C542 C6 1.617 . S
C544 C271 1.654 . S
