# Generated by pormake.
# Topology ctn, (3,4)-cn, num edge types: 1
# Building blocks:
#     Node 0, Type 0, BuildingBlock: BETDAH_clean_linker_0, # of connection points: 3
#     Node 1, Type 0, BuildingBlock: BETDAH_clean_linker_0, # of connection points: 3
#     Node 2, Type 0, BuildingBlock: BETDAH_clean_linker_0, # of connection points: 3
#     Node 3, Type 0, BuildingBlock: BETDAH_clean_linker_0, # of connection points: 3
#     Node 4, Type 0, BuildingBlock: BETDAH_clean_linker_0, # of connection points: 3
#     Node 5, Type 0, BuildingBlock: BETDAH_clean_linker_0, # of connection points: 3
#     Node 6, Type 0, BuildingBlock: BETDAH_clean_linker_0, # of connection points: 3
#     Node 7, Type 0, BuildingBlock: BETDAH_clean_linker_0, # of connection points: 3
#     Node 8, Type 0, BuildingBlock: BETDAH_clean_linker_0, # of connection points: 3
#     Node 9, Type 0, BuildingBlock: BETDAH_clean_linker_0, # of connection points: 3
#     Node 10, Type 0, BuildingBlock: BETDAH_clean_linker_0, # of connection points: 3
#     Node 11, Type 0, BuildingBlock: BETDAH_clean_linker_0, # of connection points: 3
#     Node 12, Type 0, BuildingBlock: BETDAH_clean_linker_0, # of connection points: 3
#     Node 13, Type 0, BuildingBlock: BETDAH_clean_linker_0, # of connection points: 3
#     Node 14, Type 0, BuildingBlock: BETDAH_clean_linker_0, # of connection points: 3
#     Node 15, Type 0, BuildingBlock: BETDAH_clean_linker_0, # of connection points: 3
#     Node 16, Type 1, BuildingBlock: UXUYUI_clean_sbu_0, # of connection points: 4
#     Node 17, Type 1, BuildingBlock: UXUYUI_clean_sbu_0, # of connection points: 4
#     Node 18, Type 1, BuildingBlock: UXUYUI_clean_sbu_0, # of connection points: 4
#     Node 19, Type 1, BuildingBlock: UXUYUI_clean_sbu_0, # of connection points: 4
#     Node 20, Type 1, BuildingBlock: UXUYUI_clean_sbu_0, # of connection points: 4
#     Node 21, Type 1, BuildingBlock: UXUYUI_clean_sbu_0, # of connection points: 4
#     Node 22, Type 1, BuildingBlock: UXUYUI_clean_sbu_0, # of connection points: 4
#     Node 23, Type 1, BuildingBlock: UXUYUI_clean_sbu_0, # of connection points: 4
#     Node 24, Type 1, BuildingBlock: UXUYUI_clean_sbu_0, # of connection points: 4
#     Node 25, Type 1, BuildingBlock: UXUYUI_clean_sbu_0, # of connection points: 4
#     Node 26, Type 1, BuildingBlock: UXUYUI_clean_sbu_0, # of connection points: 4
#     Node 27, Type 1, BuildingBlock: UXUYUI_clean_sbu_0, # of connection points: 4
#     Edge 28, Type (0, 1), BuildingBlock: CIFDUS_clean_linker_0, # of connection points: 2
#     Edge 29, Type (0, 1), BuildingBlock: CIFDUS_clean_linker_0, # of connection points: 2
#     Edge 30, Type (0, 1), BuildingBlock: CIFDUS_clean_linker_0, # of connection points: 2
#     Edge 31, Type (0, 1), BuildingBlock: CIFDUS_clean_linker_0, # of connection points: 2
#     Edge 32, Type (0, 1), BuildingBlock: CIFDUS_clean_linker_0, # of connection points: 2
#     Edge 33, Type (0, 1), BuildingBlock: CIFDUS_clean_linker_0, # of connection points: 2
#     Edge 34, Type (0, 1), BuildingBlock: CIFDUS_clean_linker_0, # of connection points: 2
#     Edge 35, Type (0, 1), BuildingBlock: CIFDUS_clean_linker_0, # of connection points: 2
#     Edge 36, Type (0, 1), BuildingBlock: CIFDUS_clean_linker_0, # of connection points: 2
#     Edge 37, Type (0, 1), BuildingBlock: CIFDUS_clean_linker_0, # of connection points: 2
#     Edge 38, Type (0, 1), BuildingBlock: CIFDUS_clean_linker_0, # of connection points: 2
#     Edge 39, Type (0, 1), BuildingBlock: CIFDUS_clean_linker_0, # of connection points: 2
#     Edge 40, Type (0, 1), BuildingBlock: CIFDUS_clean_linker_0, # of connection points: 2
#     Edge 41, Type (0, 1), BuildingBlock: CIFDUS_clean_linker_0, # of connection points: 2
#     Edge 42, Type (0, 1), BuildingBlock: CIFDUS_clean_linker_0, # of connection points: 2
#     Edge 43, Type (0, 1), BuildingBlock: CIFDUS_clean_linker_0, # of connection points: 2
#     Edge 44, Type (0, 1), BuildingBlock: CIFDUS_clean_linker_0, # of connection points: 2
#     Edge 45, Type (0, 1), BuildingBlock: CIFDUS_clean_linker_0, # of connection points: 2
#     Edge 46, Type (0, 1), BuildingBlock: CIFDUS_clean_linker_0, # of connection points: 2
#     Edge 47, Type (0, 1), BuildingBlock: CIFDUS_clean_linker_0, # of connection points: 2
#     Edge 48, Type (0, 1), BuildingBlock: CIFDUS_clean_linker_0, # of connection points: 2
#     Edge 49, Type (0, 1), BuildingBlock: CIFDUS_clean_linker_0, # of connection points: 2
#     Edge 50, Type (0, 1), BuildingBlock: CIFDUS_clean_linker_0, # of connection points: 2
#     Edge 51, Type (0, 1), BuildingBlock: CIFDUS_clean_linker_0, # of connection points: 2
#     Edge 52, Type (0, 1), BuildingBlock: CIFDUS_clean_linker_0, # of connection points: 2
#     Edge 53, Type (0, 1), BuildingBlock: CIFDUS_clean_linker_0, # of connection points: 2
#     Edge 54, Type (0, 1), BuildingBlock: CIFDUS_clean_linker_0, # of connection points: 2
#     Edge 55, Type (0, 1), BuildingBlock: CIFDUS_clean_linker_0, # of connection points: 2
#     Edge 56, Type (0, 1), BuildingBlock: CIFDUS_clean_linker_0, # of connection points: 2
#     Edge 57, Type (0, 1), BuildingBlock: CIFDUS_clean_linker_0, # of connection points: 2
#     Edge 58, Type (0, 1), BuildingBlock: CIFDUS_clean_linker_0, # of connection points: 2
#     Edge 59, Type (0, 1), BuildingBlock: CIFDUS_clean_linker_0, # of connection points: 2
#     Edge 60, Type (0, 1), BuildingBlock: CIFDUS_clean_linker_0, # of connection points: 2
#     Edge 61, Type (0, 1), BuildingBlock: CIFDUS_clean_linker_0, # of connection points: 2
#     Edge 62, Type (0, 1), BuildingBlock: CIFDUS_clean_linker_0, # of connection points: 2
#     Edge 63, Type (0, 1), BuildingBlock: CIFDUS_clean_linker_0, # of connection points: 2
#     Edge 64, Type (0, 1), BuildingBlock: CIFDUS_clean_linker_0, # of connection points: 2
#     Edge 65, Type (0, 1), BuildingBlock: CIFDUS_clean_linker_0, # of connection points: 2
#     Edge 66, Type (0, 1), BuildingBlock: CIFDUS_clean_linker_0, # of connection points: 2
#     Edge 67, Type (0, 1), BuildingBlock: CIFDUS_clean_linker_0, # of connection points: 2
#     Edge 68, Type (0, 1), BuildingBlock: CIFDUS_clean_linker_0, # of connection points: 2
#     Edge 69, Type (0, 1), BuildingBlock: CIFDUS_clean_linker_0, # of connection points: 2
#     Edge 70, Type (0, 1), BuildingBlock: CIFDUS_clean_linker_0, # of connection points: 2
#     Edge 71, Type (0, 1), BuildingBlock: CIFDUS_clean_linker_0, # of connection points: 2
#     Edge 72, Type (0, 1), BuildingBlock: CIFDUS_clean_linker_0, # of connection points: 2
#     Edge 73, Type (0, 1), BuildingBlock: CIFDUS_clean_linker_0, # of connection points: 2
#     Edge 74, Type (0, 1), BuildingBlock: CIFDUS_clean_linker_0, # of connection points: 2
#     Edge 75, Type (0, 1), BuildingBlock: CIFDUS_clean_linker_0, # of connection points: 2
# Relax obj value: 0.052
# Max RMSD: 0.164
# Mean RMSD: 0.105
data_MOF--net-ctn--node1-UXUYUI_clean_sbu_0--node2-BETDAH_clean_linker_0--edge1-CIFDUS_clean_linker_0
_symmetry_space_group_name_H-M    P1
_symmetry_Int_Tables_number       1
_symmetry_cell_setting            triclinic
loop_
_symmetry_equiv_pos_as_xyz
'x, y, z'
_cell_length_a     60.179712
_cell_length_b     59.967344
_cell_length_c     60.759024
_cell_angle_alpha  98.168554
_cell_angle_beta   90.161419
_cell_angle_gamma 94.736075
loop_
_atom_site_label
_atom_site_type_symbol
_atom_site_fract_x
_atom_site_fract_y
_atom_site_fract_z
_atom_type_partial_charge
H0 H 0.07704 0.01608 0.09674 0.0
H1 H 0.10562 0.03552 0.03696 0.0
H2 H 0.05345 0.07226 0.06862 0.0
C3 C 0.0778 0.02722 0.08415 0.0
C4 C 0.06318 0.04458 0.085 0.0
C5 C 0.09349 0.02411 0.06717 0.0
C6 C 0.09401 0.03807 0.05053 0.0
C7 C 0.07973 0.05531 0.05089 0.0
C8 C 0.06437 0.05873 0.06822 0.0
N9 N 0.08137 0.06836 0.03312 0.0
C10 C 0.07157 0.08831 0.03177 0.0
H11 H 0.33476 0.69231 0.26745 0.0
H12 H 0.35392 0.7581 0.25027 0.0
H13 H 0.29915 0.71738 0.21554 0.0
C14 C 0.33264 0.70523 0.257 0.0
C15 C 0.31536 0.7021 0.24086 0.0
C16 C 0.34659 0.72534 0.26057 0.0
C17 C 0.34319 0.74248 0.24779 0.0
C18 C 0.32631 0.73977 0.23155 0.0
C19 C 0.31231 0.71953 0.22803 0.0
N20 N 0.32396 0.75815 0.21961 0.0
C21 C 0.31041 0.7581 0.20106 0.0
H22 H 0.02063 0.45613 0.07304 0.0
H23 H 0.9917 0.52018 0.07633 0.0
H24 H 0.98608 0.47259 0.01651 0.0
C25 C 0.01071 0.4676 0.06584 0.0
C26 C 1.00292 0.4614 0.04386 0.0
C27 C 0.00704 0.48885 0.07791 0.0
C28 C 0.99481 0.50374 0.06757 0.0
C29 C 0.98753 0.49785 0.04534 0.0
C30 C 0.99178 0.47688 0.03365 0.0
N31 N 0.97804 0.51346 0.03344 0.0
C32 C 0.96092 0.5266 0.04104 0.0
H33 H 0.77931 0.82318 0.20214 0.0
H34 H 0.71651 0.79554 0.2253 0.0
H35 H 0.74782 0.85815 0.25863 0.0
C36 C 0.76561 0.82412 0.21367 0.0
C37 C 0.76569 0.84276 0.23049 0.0
C38 C 0.74783 0.80703 0.21129 0.0
C39 C 0.73046 0.8083 0.22693 0.0
C40 C 0.7306 0.82682 0.24403 0.0
C41 C 0.74799 0.84395 0.24544 0.0
N42 N 0.71313 0.82968 0.25957 0.0
C43 C 0.69817 0.81274 0.26558 0.0
H44 H 0.07287 0.01902 0.45896 0.0
H45 H 0.08301 0.97008 0.50263 0.0
H46 H 0.02608 0.96067 0.45829 0.0
C47 C 0.06717 1.00363 0.46544 0.0
C48 C 0.04776 0.99091 0.4566 0.0
C49 C 0.07996 0.99621 0.48191 0.0
C50 C 0.07307 0.97593 0.49004 0.0
C51 C 0.05343 0.96317 0.48149 0.0
C52 C 0.04114 0.97066 0.46474 0.0
N53 N 0.04565 0.94233 0.48849 0.0
C54 C 0.05149 0.93457 0.50805 0.0
H55 H 0.26151 0.69758 0.84108 0.0
H56 H 0.21664 0.73613 0.80939 0.0
H57 H 0.2455 0.67998 0.77146 0.0
C58 C 0.25256 0.70053 0.8264 0.0
C59 C 0.25493 0.68637 0.80622 0.0
C60 C 0.23878 0.71856 0.82773 0.0
C61 C 0.22723 0.72228 0.80854 0.0
C62 C 0.22961 0.70818 0.78826 0.0
C63 C 0.24352 0.69052 0.78726 0.0
N64 N 0.21897 0.71143 0.76823 0.0
C65 C 0.20029 0.72331 0.76662 0.0
H66 H 0.94515 0.56011 0.51896 0.0
H67 H 0.00706 0.56799 0.48383 0.0
H68 H 0.96392 0.5072 0.46896 0.0
C69 C 0.95678 0.55382 0.50647 0.0
C70 C 0.95166 0.53251 0.49378 0.0
C71 C 0.97683 0.5669 0.50323 0.0
C72 C 0.99169 0.55824 0.48681 0.0
C73 C 0.98696 0.53663 0.47458 0.0
C74 C 0.96717 0.52396 0.47831 0.0
N75 N 1.00206 0.5264 0.45916 0.0
C76 C 0.01766 0.53773 0.447 0.0
H77 H 0.83933 0.76535 0.82799 0.0
H78 H 0.81167 0.79951 0.77775 0.0
H79 H 0.77168 0.78423 0.83257 0.0
C80 C 0.82559 0.77317 0.8215 0.0
C81 C 0.80534 0.77394 0.83315 0.0
C82 C 0.82825 0.78264 0.80159 0.0
C83 C 0.81035 0.79295 0.79347 0.0
C84 C 0.79018 0.79377 0.80482 0.0
C85 C 0.78772 0.78428 0.8245 0.0
N86 N 0.77139 0.80113 0.79478 0.0
C87 C 0.76611 0.82347 0.79828 0.0
H88 H 0.33776 0.26262 0.3099 0.0
H89 H 0.30606 0.31406 0.28147 0.0
H90 H 0.27333 0.28155 0.33243 0.0
C91 C 0.3239 0.27294 0.3092 0.0
C92 C 0.30578 0.27042 0.3235 0.0
C93 C 0.32414 0.28849 0.29379 0.0
C94 C 0.30605 0.30196 0.29311 0.0
C95 C 0.28783 0.29951 0.30728 0.0
C96 C 0.28776 0.28363 0.32206 0.0
N97 N 0.26883 0.31203 0.30683 0.0
C98 C 0.26763 0.33187 0.29763 0.0
H99 H 0.52386 0.94426 0.57329 0.0
H100 H 0.50769 0.01224 0.5954 0.0
H101 H 0.48056 0.97684 0.53351 0.0
C102 C 0.51472 0.95863 0.57102 0.0
C103 C 0.5018 0.95805 0.55156 0.0
C104 C 0.51709 0.97814 0.5869 0.0
C105 C 0.50607 0.99704 0.5833 0.0
C106 C 0.49258 0.99658 0.56443 0.0
C107 C 0.49048 0.97706 0.54846 0.0
N108 N 0.48235 0.01652 0.56174 0.0
C109 C 0.46298 0.01735 0.54948 0.0
H110 H 0.29354 0.30552 0.69659 0.0
H111 H 0.24812 0.25135 0.71292 0.0
H112 H 0.26344 0.31019 0.76122 0.0
C113 C 0.28246 0.29834 0.70826 0.0
C114 C 0.28019 0.31033 0.72971 0.0
C115 C 0.27078 0.27715 0.70182 0.0
C116 C 0.25658 0.26809 0.71716 0.0
C117 C 0.25343 0.28004 0.73827 0.0
C118 C 0.26507 0.30137 0.74454 0.0
N119 N 0.24014 0.26888 0.7533 0.0
C120 C 0.22687 0.27913 0.76978 0.0
H121 H 0.82829 0.20753 0.7769 0.0
H122 H 0.8639 0.24476 0.73073 0.0
H123 H 0.79968 0.21045 0.71228 0.0
C124 C 0.82901 0.2138 0.76101 0.0
C125 C 0.81146 0.20759 0.74543 0.0
C126 C 0.84786 0.22742 0.75596 0.0
C127 C 0.84909 0.23487 0.73512 0.0
C128 C 0.83168 0.22909 0.71951 0.0
C129 C 0.81281 0.21549 0.72466 0.0
N130 N 0.83481 0.23477 0.69784 0.0
C131 C 0.82049 0.24729 0.68758 0.0
H132 H 0.56085 0.50927 0.60222 0.0
H133 H 0.57585 0.52151 0.53563 0.0
H134 H 0.52145 0.55223 0.56943 0.0
C135 C 0.55756 0.51777 0.58813 0.0
C136 C 0.53938 0.53128 0.58853 0.0
C137 C 0.5712 0.51453 0.56935 0.0
C138 C 0.56629 0.52472 0.55068 0.0
C139 C 0.54855 0.53837 0.55083 0.0
C140 C 0.53532 0.54188 0.56976 0.0
N141 N 0.54212 0.54555 0.53072 0.0
C142 C 0.54505 0.56787 0.52683 0.0
H143 H 0.56925 0.51581 0.95881 0.0
H144 H 0.58907 0.47263 1.00512 0.0
H145 H 0.53705 0.44884 0.9569 0.0
C146 C 0.56698 0.50006 0.96568 0.0
C147 C 0.55122 0.48295 0.95589 0.0
C148 C 0.58091 0.49645 0.98327 0.0
C149 C 0.5783 0.47568 0.99174 0.0
C150 C 0.56223 0.4586 0.98226 0.0
C151 C 0.54914 0.46226 0.96426 0.0
N152 N 0.55969 0.4369 0.98914 0.0
C153 C 0.56292 0.43223 0.01063 0.0
H154 H 0.78198 0.21811 0.34323 0.0
H155 H 0.72157 0.24303 0.32141 0.0
H156 H 0.74428 0.18157 0.28738 0.0
C157 C 0.768 0.21669 0.33167 0.0
C158 C 0.7652 0.19793 0.31491 0.0
C159 C 0.75223 0.23299 0.33434 0.0
C160 C 0.73378 0.23061 0.31956 0.0
C161 C 0.73103 0.212 0.30259 0.0
C162 C 0.74662 0.19583 0.30055 0.0
N163 N 0.71256 0.20827 0.28758 0.0
C164 C 0.69798 0.22408 0.28351 0.0
H165 H 0.4394 0.06423 0.02637 0.0
H166 H 0.50148 0.07253 0.99191 0.0
H167 H 0.46216 0.00887 0.98166 0.0
C168 C 0.45143 0.05756 0.01449 0.0
C169 C 0.4481 0.03495 1.00434 0.0
C170 C 0.47064 0.07134 0.01024 0.0
C171 C 0.48659 0.06222 0.99531 0.0
C172 C 0.48345 0.03957 0.98518 0.0
C173 C 0.46439 0.02619 0.98985 0.0
N174 N 0.49945 0.02906 0.97103 0.0
C175 C 0.51469 0.03983 0.95803 0.0
Li176 Li 0.28589 0.88964 0.02347 0.0
Li177 Li 0.26772 0.86112 0.04315 0.0
Li178 Li 0.25976 0.86083 1.0026 0.0
Li179 Li 0.24665 0.8912 0.03203 0.0
C180 C 0.30759 0.84888 0.0104 0.0
N181 N 0.34748 0.83278 0.99573 0.0
C182 C 0.32341 0.84427 0.02567 0.0
C183 C 0.31193 0.84495 0.98764 0.0
C184 C 0.34351 0.83624 0.01793 0.0
C185 C 0.33223 0.83691 0.98057 0.0
C186 C 0.28488 0.89893 0.07194 0.0
C187 C 0.28958 0.91418 0.11073 0.0
N188 N 0.31076 0.90778 0.11029 0.0
C189 C 0.30668 0.89256 0.07184 0.0
C190 C 0.27624 0.9099 0.0915 0.0
C191 C 0.31951 0.89716 0.0914 0.0
C192 C 0.3147 0.92964 0.03471 0.0
N193 N 0.31272 0.90937 0.02124 0.0
C194 C 0.3478 0.91818 1.00467 0.0
C195 C 0.32867 0.90366 1.00615 0.0
C196 C 0.35045 0.93904 0.0186 0.0
C197 C 0.33349 0.94481 0.03364 0.0
H198 H 0.30158 0.93411 0.04622 0.0
H199 H 0.32648 0.88806 0.99493 0.0
C200 C 0.2791 0.82096 0.05729 0.0
N201 N 0.27131 0.84128 0.06471 0.0
C202 C 0.28374 0.80621 0.07223 0.0
C203 C 0.2713 0.83311 0.10212 0.0
C204 C 0.26695 0.84737 0.08659 0.0
C205 C 0.28018 0.81236 0.09506 0.0
H206 H 0.28212 0.81639 0.03975 0.0
H207 H 0.2605 0.86348 0.0921 0.0
C208 C 0.27148 0.90967 0.9915 0.0
N209 N 0.29447 0.9414 0.96949 0.0
C210 C 0.27118 0.93269 0.99941 0.0
C211 C 0.28331 0.90276 0.97232 0.0
C212 C 0.28296 0.94848 0.98807 0.0
C213 C 0.29486 0.91908 0.96144 0.0
C214 C 0.22174 0.85151 0.04167 0.0
C215 C 0.20703 0.83239 0.03536 0.0
C216 C 0.21992 0.86422 0.06264 0.0
C217 C 0.19066 0.8263 0.05016 0.0
C218 C 0.20333 0.85757 0.07696 0.0
N219 N 0.18916 0.83891 0.07048 0.0
C220 C 0.25884 0.82019 0.97302 0.0
C221 C 0.24331 0.84994 0.95806 0.0
C222 C 0.25557 0.80597 0.95278 0.0
N223 N 0.25301 0.8418 0.97516 0.0
C224 C 0.23952 0.83621 0.93755 0.0
C225 C 0.2459 0.81393 0.93458 0.0
H226 H 0.26658 0.8142 0.98692 0.0
H227 H 0.23875 0.86718 0.96028 0.0
C228 C 0.23057 0.93137 0.05224 0.0
N229 N 0.22408 0.91122 0.03979 0.0
C230 C 0.21531 0.94755 0.05749 0.0
C231 C 0.18675 0.92175 0.03745 0.0
C232 C 0.20263 0.90604 0.03252 0.0
C233 C 0.19312 0.94298 0.04981 0.0
H234 H 0.24777 0.93502 0.05773 0.0
H235 H 0.19797 0.8899 0.02255 0.0
O236 O 0.28762 0.85634 0.01763 0.0
O237 O 0.27189 0.89435 0.05308 0.0
O238 O 0.2607 0.89394 1.00279 0.0
O239 O 0.23796 0.85758 0.02743 0.0
H240 H 0.32016 0.84666 0.04331 0.0
H241 H 0.29994 0.84845 0.97557 0.0
H242 H 0.35592 0.83268 0.02957 0.0
H243 H 0.33588 0.83399 0.96302 0.0
H244 H 0.2831 0.92258 0.12602 0.0
H245 H 0.31365 0.88428 0.0568 0.0
H246 H 0.25934 0.91487 0.09184 0.0
H247 H 0.33642 0.89232 0.09156 0.0
H248 H 0.36023 0.9133 0.99247 0.0
H249 H 0.33486 0.96075 0.04466 0.0
H250 H 0.29026 0.79026 0.06599 0.0
H251 H 0.26847 0.83865 0.11957 0.0
H252 H 0.26218 0.93826 0.01431 0.0
H253 H 0.2838 0.88499 0.96608 0.0
H254 H 0.28303 0.96635 0.99408 0.0
H255 H 0.30421 0.91399 0.94666 0.0
H256 H 0.20829 0.82236 0.01919 0.0
H257 H 0.23123 0.87901 0.06785 0.0
H258 H 0.17915 0.81153 0.0455 0.0
H259 H 0.20174 0.86723 0.09324 0.0
H260 H 0.26115 0.78912 0.9513 0.0
H261 H 0.23169 0.84303 0.92419 0.0
H262 H 0.22089 0.96356 0.06728 0.0
H263 H 0.16989 0.91761 0.03101 0.0
Li264 Li 0.14489 0.52598 0.28459 0.0
Li265 Li 0.1685 0.50016 0.26187 0.0
Li266 Li 0.17042 0.54071 0.2586 0.0
Li267 Li 0.13778 0.51543 0.24436 0.0
C268 C 0.19755 0.53801 0.29098 0.0
N269 N 0.2379 0.56299 0.30069 0.0
C270 C 0.21734 0.52937 0.28307 0.0
C271 C 0.19825 0.55932 0.30386 0.0
C272 C 0.23759 0.54226 0.28818 0.0
C273 C 0.21883 0.5717 0.30857 0.0
C274 C 0.13453 0.47454 0.27335 0.0
C275 C 0.13161 0.43406 0.26304 0.0
N276 N 0.1342 0.43155 0.28478 0.0
C277 C 0.13708 0.47158 0.2956 0.0
C278 C 0.13169 0.45566 0.25693 0.0
C279 C 0.13688 0.44969 0.30103 0.0
C280 C 0.10753 0.5267 0.3122 0.0
N281 N 0.13003 0.5313 0.31247 0.0
C282 C 0.13016 0.54223 0.35191 0.0
C283 C 0.14148 0.5389 0.33177 0.0
C284 C 0.10685 0.53778 0.35212 0.0
C285 C 0.09554 0.53001 0.33187 0.0
H286 H 0.0989 0.52031 0.29666 0.0
H287 H 0.1594 0.54215 0.33157 0.0
C288 C 0.18941 0.46029 0.24374 0.0
N289 N 0.18523 0.47424 0.26268 0.0
C290 C 0.20053 0.44086 0.24473 0.0
C291 C 0.2036 0.45088 0.28461 0.0
C292 C 0.19227 0.47002 0.28286 0.0
C293 C 0.20766 0.43584 0.26539 0.0
H294 H 0.18396 0.46407 0.22786 0.0
H295 H 0.18876 0.48138 0.29768 0.0
C296 C 0.1226 0.55824 0.27234 0.0
N297 N 0.08977 0.58193 0.2943 0.0
C298 C 0.10041 0.55408 0.265 0.0
C299 C 0.12809 0.57456 0.29079 0.0
C300 C 0.08406 0.56623 0.27632 0.0
C301 C 0.11125 0.58631 0.3017 0.0
C302 C 0.16726 0.50968 0.21197 0.0
C303 C 0.1739 0.52611 0.19859 0.0
C304 C 0.15763 0.4886 0.20211 0.0
C305 C 0.17081 0.52114 0.17556 0.0
C306 C 0.15478 0.4843 0.17903 0.0
N307 N 0.16139 0.50052 0.16634 0.0
C308 C 0.20915 0.56278 0.24195 0.0
C309 C 0.18417 0.58741 0.26041 0.0
C310 C 0.22353 0.58117 0.23771 0.0
N311 N 0.18988 0.56621 0.25308 0.0
C312 C 0.19819 0.60626 0.25684 0.0
C313 C 0.21821 0.60336 0.24526 0.0
H314 H 0.21328 0.54572 0.23625 0.0
H315 H 0.16879 0.58972 0.26919 0.0
C316 C 0.09793 0.49367 0.22332 0.0
N317 N 0.1148 0.50988 0.22191 0.0
C318 C 0.08103 0.48938 0.20706 0.0
C319 C 0.0992 0.51857 0.18821 0.0
C320 C 0.1154 0.52266 0.20512 0.0
C321 C 0.08164 0.50165 0.1889 0.0
H322 H 0.09752 0.48413 0.23716 0.0
H323 H 0.12868 0.53588 0.2047 0.0
O324 O 0.17752 0.52597 0.28556 0.0
O325 O 0.13547 0.49583 0.26761 0.0
O326 O 0.1388 0.54625 0.26169 0.0
O327 O 0.16997 0.5143 0.23458 0.0
H328 H 0.21707 0.51303 0.27286 0.0
H329 H 0.18305 0.56638 0.30985 0.0
H330 H 0.25304 0.53584 0.2821 0.0
H331 H 0.21962 0.58827 0.31839 0.0
H332 H 0.12956 0.41929 0.25049 0.0
H333 H 0.13951 0.48601 0.30849 0.0
H334 H 0.12976 0.45767 0.23963 0.0
H335 H 0.13896 0.44714 0.31816 0.0
H336 H 0.13952 0.54823 0.36715 0.0
H337 H 0.07766 0.52593 0.3313 0.0
H338 H 0.20352 0.42988 0.22947 0.0
H339 H 0.20857 0.44756 0.3009 0.0
H340 H 0.0958 0.54153 0.25079 0.0
H341 H 0.1451 0.57775 0.29696 0.0
H342 H 0.06682 0.56313 0.27086 0.0
H343 H 0.11525 0.59881 0.31612 0.0
H344 H 0.18115 0.5426 0.2059 0.0
H345 H 0.15196 0.47585 0.21221 0.0
H346 H 0.17583 0.53371 0.16502 0.0
H347 H 0.1472 0.46812 0.17122 0.0
H348 H 0.23854 0.57796 0.22844 0.0
H349 H 0.19348 0.62292 0.26342 0.0
H350 H 0.06763 0.4766 0.20882 0.0
H351 H 0.1008 0.52833 0.17454 0.0
Li352 Li 0.75423 0.6329 0.01105 0.0
Li353 Li 0.77102 0.66676 0.0369 0.0
Li354 Li 0.77823 0.66096 0.99508 0.0
Li355 Li 0.7941 0.63773 0.01912 0.0
C356 C 0.72698 0.66525 0.00961 0.0
N357 N 0.681 0.66321 0.00696 0.0
C358 C 0.71462 0.6714 0.02863 0.0
C359 C 0.71597 0.6582 0.98922 0.0
C360 C 0.69138 0.67024 0.02694 0.0
C361 C 0.69271 0.65722 0.98823 0.0
C362 C 0.77617 0.61737 0.05088 0.0
C363 C 0.79794 0.60449 0.07926 0.0
N364 N 0.79181 0.58271 0.07046 0.0
C365 C 0.77012 0.59485 0.04209 0.0
C366 C 0.79023 0.62225 0.0696 0.0
C367 C 0.77817 0.57757 0.05224 0.0
C368 C 0.72814 0.59405 0.9897 0.0
N369 N 0.72861 0.61123 0.00695 0.0
C370 C 0.694 0.59594 0.02027 0.0
C371 C 0.71212 0.61233 0.02224 0.0
C372 C 0.69311 0.57794 1.00267 0.0
C373 C 0.71048 0.57718 0.98723 0.0
H374 H 0.74173 0.59312 0.97813 0.0
H375 H 0.71324 0.6257 0.03625 0.0
C376 C 0.76122 0.70952 0.05812 0.0
N377 N 0.76609 0.68872 0.06207 0.0
C378 C 0.75799 0.72651 0.07579 0.0
C379 C 0.76489 0.70041 0.10137 0.0
C380 C 0.76763 0.68381 0.08316 0.0
C381 C 0.76015 0.72224 0.09787 0.0
H382 H 0.75987 0.7129 0.04116 0.0
H383 H 0.77125 0.66708 0.08589 0.0
C384 C 0.78313 0.62446 0.96787 0.0
N385 N 0.79191 0.61979 0.92289 0.0
C386 C 0.80492 0.62228 0.96041 0.0
C387 C 0.76582 0.6242 0.95243 0.0
C388 C 0.80901 0.61992 0.93761 0.0
C389 C 0.7706 0.62186 0.92977 0.0
C390 C 0.82091 0.67672 0.02773 0.0
C391 C 0.83856 0.67053 0.01388 0.0
C392 C 0.82544 0.68879 0.0489 0.0
C393 C 0.86047 0.67643 0.0215 0.0
C394 C 0.84759 0.6944 0.0559 0.0
N395 N 0.86449 0.68814 0.04218 0.0
C396 C 0.76687 0.68745 0.9612 0.0
C397 C 0.80411 0.67747 0.96065 0.0
C398 C 0.77069 0.69866 0.94264 0.0
N399 N 0.78346 0.67696 0.96971 0.0
C400 C 0.80859 0.68824 0.94202 0.0
C401 C 0.79177 0.69898 0.93267 0.0
H402 H 0.75064 0.6871 0.96876 0.0
H403 H 0.81713 0.6693 0.96771 0.0
C404 C 0.81959 0.60057 0.01006 0.0
N405 N 0.8191 0.62049 0.02379 0.0
C406 C 0.83738 0.58723 0.01105 0.0
C407 C 0.85332 0.61427 0.04138 0.0
C408 C 0.83513 0.62711 0.03981 0.0
C409 C 0.85486 0.59428 0.02649 0.0
H410 H 0.80621 0.59512 0.99811 0.0
H411 H 0.83399 0.64248 0.05125 0.0
O412 O 0.74973 0.66596 0.01099 0.0
O413 O 0.76894 0.6345 0.04076 0.0
O414 O 0.77883 0.62723 0.99017 0.0
O415 O 0.79931 0.67132 0.02056 0.0
H416 H 0.72283 0.67675 0.04458 0.0
H417 H 0.72525 0.65339 0.97434 0.0
H418 H 0.6816 0.67484 0.04155 0.0
H419 H 0.68396 0.65168 0.97258 0.0
H420 H 0.80896 0.60804 0.09366 0.0
H421 H 0.75954 0.5907 0.02743 0.0
H422 H 0.79561 0.63953 0.07628 0.0
H423 H 0.77367 0.56007 0.04557 0.0
H424 H 0.68115 0.59699 0.03273 0.0
H425 H 0.71043 0.56366 0.97336 0.0
H426 H 0.75384 0.74283 0.07212 0.0
H427 H 0.76699 0.69625 0.11797 0.0
H428 H 0.81861 0.62284 0.97209 0.0
H429 H 0.7489 0.62596 0.95787 0.0
H430 H 0.8258 0.61836 0.93163 0.0
H431 H 0.75737 0.62174 0.91766 0.0
H432 H 0.83542 0.66074 0.99767 0.0
H433 H 0.81203 0.6938 0.05982 0.0
H434 H 0.87428 0.67156 0.01104 0.0
H435 H 0.85133 0.70371 0.07226 0.0
H436 H 0.75719 0.70664 0.93594 0.0
H437 H 0.82517 0.68832 0.93513 0.0
H438 H 0.83752 0.5716 0.99968 0.0
H439 H 0.86633 0.62028 0.05364 0.0
Li440 Li 0.90961 0.05558 0.27784 0.0
Li441 Li 0.93471 0.03164 0.29192 0.0
Li442 Li 0.93663 0.04002 0.25158 0.0
Li443 Li 0.90456 0.0153 0.26563 0.0
C444 C 0.94619 0.08296 0.28867 0.0
N445 N 0.9524 0.12824 0.30586 0.0
C446 C 0.93995 0.09034 0.31045 0.0
C447 C 0.9557 0.09856 0.27565 0.0
C448 C 0.94317 0.11332 0.31882 0.0
C449 C 0.9587 0.1214 0.28465 0.0
C450 C 0.89801 0.02384 0.31588 0.0
C451 C 0.89372 0.99328 0.33782 0.0
N452 N 0.89048 0.00841 0.35619 0.0
C453 C 0.8945 0.03907 0.33496 0.0
C454 C 0.8975 1.00075 0.31729 0.0
C455 C 0.89077 0.03095 0.35519 0.0
C456 C 0.87414 0.07806 0.29824 0.0
N457 N 0.89225 0.08127 0.28539 0.0
C458 C 0.88309 0.11885 0.28232 0.0
C459 C 0.89684 0.10115 0.27729 0.0
C460 C 0.86429 0.11602 0.29567 0.0
C461 C 0.86002 0.09528 0.30374 0.0
H462 H 0.87035 0.06191 0.30388 0.0
H463 H 0.91084 0.10313 0.26646 0.0
C464 C 0.96763 0.0094 0.31121 0.0
N465 N 0.9528 0.02525 0.31603 0.0
C466 C 0.98026 1.00278 0.3281 0.0
C467 C 0.96283 0.02954 0.35466 0.0
C468 C 0.95062 0.03572 0.3372 0.0
C469 C 0.97772 0.01263 0.35027 0.0
H470 H 0.9696 1.00177 0.2942 0.0
H471 H 0.9392 0.04867 0.34068 0.0
C472 C 0.88941 0.05278 0.23886 0.0
N473 N 0.85954 0.08046 0.22467 0.0
C474 C 0.86681 0.04963 0.24382 0.0
C475 C 0.89682 0.06983 0.22653 0.0
C476 C 0.85197 0.06387 0.23657 0.0
C477 C 0.88145 0.08368 0.21952 0.0
C478 C 0.9395 0.98841 0.25544 0.0
C479 C 0.9454 0.98261 0.23325 0.0
C480 C 0.93616 0.97153 0.26905 0.0
C481 C 0.94752 0.95994 0.22496 0.0
C482 C 0.93841 0.94906 0.26013 0.0
N483 N 0.94398 0.94377 0.23845 0.0
C484 C 0.97772 0.05215 0.23283 0.0
C485 C 0.94961 0.03742 0.20611 0.0
C486 C 0.99337 0.05395 0.21611 0.0
N487 N 0.95639 0.04383 0.22761 0.0
C488 C 0.9648 0.03867 0.18882 0.0
C489 C 0.98716 0.04677 0.1937 0.0
H490 H 0.98266 0.05709 0.25008 0.0
H491 H 0.93255 0.03071 0.20244 0.0
C492 C 0.86395 0.99065 0.27062 0.0
N493 N 0.88255 0.99035 0.25797 0.0
C494 C 0.84694 0.97325 0.26667 0.0
C495 C 0.86811 0.95566 0.23625 0.0
C496 C 0.88474 0.97351 0.24076 0.0
C497 C 0.84889 0.95537 0.24933 0.0
H498 H 0.86232 1.00446 0.28387 0.0
H499 H 0.89924 0.97397 0.23039 0.0
O500 O 0.94305 0.06056 0.28013 0.0
O501 O 0.90188 0.03151 0.29594 0.0
O502 O 0.90427 0.03944 0.24635 0.0
O503 O 0.93732 0.01053 0.26382 0.0
H504 H 0.93233 0.07851 0.32062 0.0
H505 H 0.96053 0.09313 0.25872 0.0
H506 H 0.93826 0.1193 0.3356 0.0
H507 H 0.96596 0.13369 0.27475 0.0
H508 H 0.89333 0.97545 0.33914 0.0
H509 H 0.89504 0.05704 0.33426 0.0
H510 H 0.8999 0.9887 0.30269 0.0
H511 H 0.8882 0.04257 0.3701 0.0
H512 H 0.88681 0.13433 0.27531 0.0
H513 H 0.84584 0.0923 0.31419 0.0
H514 H 0.99193 0.99011 0.3238 0.0
H515 H 0.96022 0.03758 0.37146 0.0
H516 H 0.86086 0.03653 0.25344 0.0
H517 H 0.9143 0.0725 0.22264 0.0
H518 H 0.83446 0.06178 0.24044 0.0
H519 H 0.88695 0.09705 0.21007 0.0
H520 H 0.94818 0.99542 0.22251 0.0
H521 H 0.93202 0.97573 0.28635 0.0
H522 H 0.95197 0.9552 0.20779 0.0
H523 H 0.9358 0.93583 0.27046 0.0
H524 H 0.01022 0.06075 0.22076 0.0
H525 H 0.95922 0.03264 0.17191 0.0
H526 H 0.83251 0.97369 0.27728 0.0
H527 H 0.87011 0.94245 0.22245 0.0
Li528 Li 0.28034 0.14773 0.51876 0.0
Li529 Li 0.26283 0.11632 0.49328 0.0
Li530 Li 0.30349 0.12051 0.49703 0.0
Li531 Li 0.28424 0.14615 0.4767 0.0
C532 C 0.28713 0.11033 0.54044 0.0
N533 N 0.29946 0.10121 0.58192 0.0
C534 C 0.27171 0.09945 0.55339 0.0
C535 C 0.3089 0.11624 0.54849 0.0
C536 C 0.27823 0.0951 0.57435 0.0
C537 C 0.3148 0.11157 0.56951 0.0
C538 C 0.23508 0.14739 0.49087 0.0
C539 C 0.20452 0.13897 0.46448 0.0
N540 N 0.1899 0.14255 0.4814 0.0
C541 C 0.2198 0.15111 0.508 0.0
C542 C 0.22745 0.14138 0.46892 0.0
C543 C 0.197 0.14854 0.50286 0.0
C544 C 0.28653 0.18859 0.54906 0.0
N545 N 0.27646 0.1672 0.54591 0.0
C546 C 0.25923 0.17337 0.58142 0.0
C547 C 0.26279 0.15952 0.56147 0.0
C548 C 0.26974 0.19541 0.58536 0.0
C549 C 0.28354 0.20298 0.56885 0.0
H550 H 0.29677 0.19453 0.53615 0.0
H551 H 0.25448 0.14269 0.55829 0.0
C552 C 0.23213 0.08071 0.4719 0.0
N553 N 0.23685 0.09537 0.49084 0.0
C554 C 0.21344 0.06505 0.47072 0.0
C555 C 0.20471 0.08005 0.50845 0.0
C556 C 0.22357 0.09535 0.5089 0.0
C557 C 0.19945 0.06451 0.4892 0.0
H558 H 0.24289 0.08116 0.45774 0.0
H559 H 0.22767 0.10727 0.52372 0.0
C560 C 0.3274 0.16572 0.5065 0.0
N561 N 0.36828 0.1892 0.51779 0.0
C562 C 0.34028 0.17488 0.4903 0.0
C563 C 0.3352 0.16889 0.52851 0.0
C564 C 0.36093 0.18658 0.49632 0.0
C565 C 0.35594 0.18071 0.53387 0.0
C566 C 0.29845 0.10786 0.4509 0.0
C567 C 0.31882 0.12053 0.44962 0.0
C568 C 0.29189 0.09041 0.43377 0.0
C569 C 0.33232 0.11559 0.43121 0.0
C570 C 0.30584 0.08598 0.41561 0.0
N571 N 0.3256 0.09856 0.41471 0.0
C572 C 0.32566 0.08177 0.50086 0.0
C573 C 0.35043 0.11363 0.49668 0.0
C574 C 0.34357 0.06874 0.50301 0.0
N575 N 0.32936 0.10386 0.49803 0.0
C576 C 0.3688 0.10128 0.49886 0.0
C577 C 0.36556 0.07853 0.50228 0.0
H578 H 0.30873 0.07437 0.50177 0.0
H579 H 0.3531 0.13108 0.49421 0.0
C580 C 0.29222 0.18745 0.46086 0.0
N581 N 0.28646 0.16518 0.45385 0.0
C582 C 0.29441 0.20284 0.44563 0.0
C583 C 0.28441 0.17222 0.41608 0.0
C584 C 0.28247 0.15734 0.43194 0.0
C585 C 0.29039 0.19537 0.42286 0.0
H586 H 0.29522 0.19324 0.47839 0.0
H587 H 0.27763 0.1396 0.42677 0.0
O588 O 0.28094 0.11477 0.51989 0.0
O589 O 0.25741 0.14919 0.49559 0.0
O590 O 0.30706 0.15424 0.50089 0.0
O591 O 0.2849 0.11246 0.46874 0.0
H592 H 0.25486 0.09449 0.54738 0.0
H593 H 0.32121 0.12414 0.53857 0.0
H594 H 0.26641 0.08682 0.58458 0.0
H595 H 0.3316 0.11611 0.57592 0.0
H596 H 0.19834 0.13418 0.44759 0.0
H597 H 0.22549 0.15571 0.52508 0.0
H598 H 0.23912 0.13834 0.45551 0.0
H599 H 0.18495 0.15123 0.51595 0.0
H600 H 0.2485 0.16682 0.59371 0.0
H601 H 0.29163 0.21998 0.57103 0.0
H602 H 0.20985 0.05366 0.45541 0.0
H603 H 0.19456 0.08017 0.52314 0.0
H604 H 0.33448 0.17294 0.47323 0.0
H605 H 0.32527 0.1626 0.54144 0.0
H606 H 0.3711 0.19361 0.48392 0.0
H607 H 0.36216 0.18322 0.55084 0.0
H608 H 0.32415 0.13399 0.4627 0.0
H609 H 0.27617 0.08041 0.43448 0.0
H610 H 0.34814 0.12529 0.43004 0.0
H611 H 0.30096 0.07254 0.40223 0.0
H612 H 0.34019 0.05121 0.50529 0.0
H613 H 0.38537 0.10973 0.49847 0.0
H614 H 0.29936 0.22042 0.45167 0.0
H615 H 0.28084 0.16571 0.39877 0.0
Li616 Li 0.42345 0.51924 0.80162 0.0
Li617 Li 0.39541 0.53923 0.78583 0.0
Li618 Li 0.39432 0.49827 0.77772 0.0
Li619 Li 0.42312 0.52185 0.76206 0.0
C620 C 0.38518 0.50326 0.82259 0.0
N621 N 0.37372 0.47542 0.85403 0.0
C622 C 0.36707 0.50749 0.83645 0.0
C623 C 0.39749 0.48488 0.82474 0.0
C624 C 0.36153 0.49322 0.85224 0.0
C625 C 0.39143 0.47101 0.84072 0.0
C626 C 0.43384 0.56509 0.80315 0.0
C627 C 0.4576 0.59863 0.81678 0.0
N628 N 0.44513 0.60165 0.83544 0.0
C629 C 0.42124 0.56857 0.82245 0.0
C630 C 0.45215 0.58026 0.80026 0.0
C631 C 0.42722 0.58713 0.83857 0.0
C632 C 0.46294 0.51074 0.82264 0.0
N633 N 0.44259 0.51859 0.8267 0.0
C634 C 0.44995 0.52413 0.8659 0.0
C635 C 0.43594 0.52535 0.84781 0.0
C636 C 0.47096 0.51575 0.86225 0.0
C637 C 0.47744 0.50911 0.84024 0.0
H638 H 0.46786 0.50563 0.80569 0.0
H639 H 0.41963 0.53144 0.85064 0.0
C640 C 0.35569 0.55915 0.79769 0.0
N641 N 0.37686 0.56383 0.79094 0.0
C642 C 0.34128 0.57634 0.80185 0.0
C643 C 0.37074 0.60288 0.79204 0.0
C644 C 0.38454 0.58515 0.78795 0.0
C645 C 0.34877 0.59859 0.79907 0.0
H646 H 0.35002 0.54202 0.79987 0.0
H647 H 0.40139 0.58843 0.78238 0.0
C648 C 0.43168 0.47711 0.76081 0.0
N649 N 0.44133 0.44175 0.72888 0.0
C650 C 0.41819 0.47126 0.74176 0.0
C651 C 0.45004 0.46493 0.76364 0.0
C652 C 0.42335 0.45335 0.72581 0.0
C653 C 0.45466 0.44712 0.74731 0.0
C654 C 0.3855 0.53325 0.7408 0.0
C655 C 0.36748 0.52671 0.72612 0.0
C656 C 0.39853 0.5534 0.73943 0.0
C657 C 0.36275 0.54048 0.71028 0.0
C658 C 0.39326 0.56671 0.72337 0.0
N659 N 0.37563 0.56003 0.70925 0.0
C660 C 0.35346 0.47241 0.76565 0.0
C661 C 0.38165 0.45121 0.77741 0.0
C662 C 0.33852 0.45304 0.76208 0.0
N663 N 0.37459 0.47113 0.77308 0.0
C664 C 0.3673 0.43147 0.77409 0.0
C665 C 0.3454 0.43214 0.76619 0.0
H666 H 0.34825 0.48848 0.76241 0.0
H667 H 0.39848 0.45061 0.78344 0.0
C668 C 0.46241 0.53618 0.7411 0.0
N669 N 0.44205 0.52471 0.73705 0.0
C670 C 0.47713 0.53866 0.72369 0.0
C671 C 0.44976 0.51728 0.69818 0.0
C672 C 0.43545 0.51549 0.71607 0.0
C673 C 0.47102 0.52897 0.70181 0.0
H674 H 0.46725 0.54338 0.75793 0.0
H675 H 0.41912 0.50657 0.71319 0.0
O676 O 0.39071 0.51711 0.80705 0.0
O677 O 0.42839 0.54703 0.78707 0.0
O678 O 0.42702 0.49459 0.77671 0.0
O679 O 0.39025 0.51987 0.75637 0.0
H680 H 0.3574 0.52167 0.83502 0.0
H681 H 0.4116 0.48136 0.81422 0.0
H682 H 0.34754 0.49629 0.86308 0.0
H683 H 0.4008 0.45673 0.84255 0.0
H684 H 0.47173 0.61049 0.81476 0.0
H685 H 0.40693 0.55715 0.82496 0.0
H686 H 0.46204 0.57789 0.7854 0.0
H687 H 0.41761 0.59 0.85358 0.0
H688 H 0.44418 0.5292 0.88259 0.0
H689 H 0.49359 0.50282 0.83666 0.0
H690 H 0.32454 0.57231 0.80741 0.0
H691 H 0.3771 0.6197 0.78938 0.0
H692 H 0.40386 0.48041 0.73927 0.0
H693 H 0.46062 0.46919 0.77833 0.0
H694 H 0.41306 0.44867 0.71098 0.0
H695 H 0.46883 0.43757 0.74929 0.0
H696 H 0.35725 0.51113 0.72696 0.0
H697 H 0.41259 0.55874 0.75058 0.0
H698 H 0.34883 0.53563 0.69881 0.0
H699 H 0.4032 0.58234 0.72213 0.0
H700 H 0.32191 0.45435 0.75576 0.0
H701 H 0.37327 0.41585 0.77781 0.0
H702 H 0.49309 0.5482 0.72739 0.0
H703 H 0.44431 0.50919 0.68177 0.0
Li704 Li 0.7816 0.40514 0.53121 0.0
Li705 Li 0.76594 0.37619 0.55334 0.0
Li706 Li 0.75829 0.3734 0.51186 0.0
Li707 Li 0.74042 0.40118 0.53837 0.0
C708 C 0.80955 0.37308 0.52549 0.0
N709 N 0.85531 0.37559 0.52087 0.0
C710 C 0.82326 0.36973 0.54312 0.0
C711 C 0.81908 0.37746 0.50543 0.0
C712 C 0.84637 0.37111 0.54047 0.0
C713 C 0.84225 0.37875 0.50345 0.0
C714 C 0.76316 0.41897 0.58144 0.0
C715 C 0.74062 0.42459 0.61421 0.0
N716 N 0.75767 0.43813 0.625 0.0
C717 C 0.78038 0.43313 0.59277 0.0
C718 C 0.74305 0.4148 0.59217 0.0
C719 C 0.77732 0.44258 0.61482 0.0
C720 C 0.80716 0.43977 0.51282 0.0
N721 N 0.80672 0.42648 0.52919 0.0
C722 C 0.84244 0.44333 0.54287 0.0
C723 C 0.82375 0.42816 0.54425 0.0
C724 C 0.84355 0.45713 0.52596 0.0
C725 C 0.82547 0.45527 0.5109 0.0
H726 H 0.79326 0.43838 0.50127 0.0
H727 H 0.82289 0.41757 0.55726 0.0
C728 C 0.76604 0.33708 0.57479 0.0
N729 N 0.7723 0.35962 0.57703 0.0
C730 C 0.77235 0.32416 0.59087 0.0
C731 C 0.79097 0.35798 0.61149 0.0
C732 C 0.7844 0.37019 0.595 0.0
C733 C 0.78534 0.33454 0.60938 0.0
H734 H 0.75667 0.32902 0.56017 0.0
H735 H 0.78964 0.38797 0.59622 0.0
C736 C 0.74975 0.40679 0.48911 0.0
N737 N 0.73636 0.40706 0.44563 0.0
C738 C 0.72771 0.41033 0.48424 0.0
C739 C 0.76503 0.40362 0.4719 0.0
C740 C 0.72126 0.41037 0.46214 0.0
C741 C 0.75792 0.40373 0.45002 0.0
C742 C 0.71764 0.3581 0.54314 0.0
C743 C 0.70143 0.34794 0.52754 0.0
C744 C 0.71375 0.358 0.5658 0.0
C745 C 0.68136 0.33833 0.5349 0.0
C746 C 0.69348 0.34821 0.5725 0.0
N747 N 0.67782 0.33869 0.55704 0.0
C748 C 0.77049 0.33923 0.47786 0.0
C749 C 0.7348 0.35172 0.47259 0.0
C750 C 0.76801 0.324 0.45816 0.0
N751 N 0.75403 0.35276 0.48465 0.0
C752 C 0.73167 0.33683 0.45272 0.0
C753 C 0.74838 0.32261 0.44524 0.0
H754 H 0.7855 0.34011 0.48786 0.0
H755 H 0.72187 0.3625 0.47836 0.0
C756 C 0.72013 0.44098 0.5514 0.0
N757 N 0.71521 0.41857 0.54432 0.0
C758 C 0.70314 0.45554 0.55509 0.0
C759 C 0.67618 0.42372 0.54425 0.0
C760 C 0.69373 0.40976 0.54074 0.0
C761 C 0.68079 0.44701 0.55133 0.0
H762 H 0.73736 0.4476 0.55394 0.0
H763 H 0.69015 0.39205 0.53463 0.0
O764 O 0.78692 0.37219 0.52789 0.0
O765 O 0.76592 0.40962 0.55984 0.0
O766 O 0.75632 0.40648 0.51062 0.0
O767 O 0.73744 0.36743 0.53618 0.0
H768 H 0.81617 0.36626 0.55873 0.0
H769 H 0.80869 0.38001 0.4916 0.0
H770 H 0.8572 0.36868 0.55402 0.0
H771 H 0.84986 0.38228 0.48807 0.0
H772 H 0.72514 0.42149 0.62271 0.0
H773 H 0.79598 0.43671 0.58466 0.0
H774 H 0.72936 0.40438 0.58351 0.0
H775 H 0.79055 0.45347 0.62383 0.0
H776 H 0.85603 0.44393 0.55471 0.0
H777 H 0.82533 0.46583 0.49785 0.0
H778 H 0.76787 0.30611 0.58834 0.0
H779 H 0.80074 0.3668 0.62555 0.0
H780 H 0.71568 0.41287 0.49736 0.0
H781 H 0.78216 0.40094 0.47539 0.0
H782 H 0.70423 0.41298 0.45812 0.0
H783 H 0.76953 0.40115 0.43652 0.0
H784 H 0.70423 0.34761 0.50994 0.0
H785 H 0.72631 0.36519 0.5781 0.0
H786 H 0.6686 0.33057 0.52301 0.0
H787 H 0.69024 0.3481 0.58998 0.0
H788 H 0.78119 0.31312 0.45335 0.0
H789 H 0.71635 0.33659 0.44327 0.0
H790 H 0.70749 0.47331 0.56076 0.0
H791 H 0.65923 0.41646 0.5408 0.0
Li792 Li 0.67292 1.00127 0.78 0.0
Li793 Li 0.64538 0.02674 0.79655 0.0
Li794 Li 0.64675 0.01581 0.7554 0.0
Li795 Li 0.67629 0.04137 0.77508 0.0
C796 C 0.62901 0.97667 0.78239 0.0
N797 N 0.60662 0.93651 0.79024 0.0
C798 C 0.62401 0.97307 0.80413 0.0
C799 C 0.62233 0.95996 0.76462 0.0
C800 C 0.61276 0.95262 0.80776 0.0
C801 C 0.61112 0.93974 0.76895 0.0
C802 C 0.68392 0.04516 0.82059 0.0
C803 C 0.67875 0.08195 0.84082 0.0
N804 N 0.69572 0.07956 0.8549 0.0
C805 C 0.7013 0.04307 0.83525 0.0
C806 C 0.67253 0.06475 0.82337 0.0
C807 C 0.70702 0.06065 0.8525 0.0
C808 C 0.71005 0.97524 0.77373 0.0
N809 N 0.6898 0.97599 0.78359 0.0
C810 C 0.69373 0.94041 0.79619 0.0
C811 C 0.68176 0.95927 0.79511 0.0
C812 C 0.71427 0.93875 0.78538 0.0
C813 C 0.72253 0.95668 0.77429 0.0
H814 H 0.71638 0.98895 0.76508 0.0
H815 H 0.66595 0.96036 0.8033 0.0
C816 C 0.60483 0.03905 0.81518 0.0
N817 N 0.62514 0.03281 0.82049 0.0
C818 C 0.5886 0.04239 0.83142 0.0
C819 C 0.61456 0.03318 0.85849 0.0
C820 C 0.63036 0.03009 0.84169 0.0
C821 C 0.59319 0.0391 0.85339 0.0
H822 H 0.60112 0.04101 0.79817 0.0
H823 H 0.64657 0.0249 0.84544 0.0
C824 C 0.68454 1.00003 0.73407 0.0
N825 N 0.69435 0.97032 0.69702 0.0
C826 C 0.69876 1.00733 0.71791 0.0
C827 C 0.67532 0.97764 0.7314 0.0
C828 C 0.7035 0.99205 0.69928 0.0
C829 C 0.68049 0.96287 0.71256 0.0
C830 C 0.63999 0.06142 0.75856 0.0
C831 C 0.6534 0.06309 0.74003 0.0
C832 C 0.62229 0.07508 0.76245 0.0
C833 C 0.64883 0.07837 0.72562 0.0
C834 C 0.61825 0.09016 0.74764 0.0
N835 N 0.63148 0.09148 0.72969 0.0
C836 C 0.6071 1.00174 0.73001 0.0
C837 C 0.63783 0.01408 0.70923 0.0
C838 C 0.59333 0.99849 0.71103 0.0
N839 N 0.62889 0.00951 0.72879 0.0
C840 C 0.62467 0.01128 0.68995 0.0
C841 C 0.60205 1.00361 0.69074 0.0
H842 H 0.60033 0.99851 0.74583 0.0
H843 H 0.65509 0.02046 0.70863 0.0
C844 C 0.71663 0.06183 0.76184 0.0
N845 N 0.69703 0.06657 0.77174 0.0
C846 C 0.73152 0.07923 0.75634 0.0
C847 C 0.70614 0.10623 0.77203 0.0
C848 C 0.69167 0.08826 0.77715 0.0
C849 C 0.72621 0.10179 0.76113 0.0
H850 H 0.72046 0.04443 0.75774 0.0
H851 H 0.67585 0.09159 0.78478 0.0
O852 O 0.63971 0.99674 0.77848 0.0
O853 O 0.67823 0.02808 0.8036 0.0
O854 O 0.67956 0.01488 0.75227 0.0
O855 O 0.64406 0.04652 0.77289 0.0
H856 H 0.62903 0.98578 0.81807 0.0
H857 H 0.62565 0.96258 0.74765 0.0
H858 H 0.60894 0.94955 0.82451 0.0
H859 H 0.60592 0.92664 0.75536 0.0
H860 H 0.67008 0.09719 0.84316 0.0
H861 H 0.71028 0.02801 0.8333 0.0
H862 H 0.65902 0.06668 0.81222 0.0
H863 H 0.72044 0.05926 0.86398 0.0
H864 H 0.68665 0.92699 0.80487 0.0
H865 H 0.73847 0.95634 0.76607 0.0
H866 H 0.5725 0.04724 0.82674 0.0
H867 H 0.61879 0.03013 0.87507 0.0
H868 H 0.70591 0.02466 0.71965 0.0
H869 H 0.66443 0.97171 0.7438 0.0
H870 H 0.71443 0.99747 0.6866 0.0
H871 H 0.6735 0.94548 0.71032 0.0
H872 H 0.66723 0.05273 0.73679 0.0
H873 H 0.61178 0.07404 0.77675 0.0
H874 H 0.65907 0.07981 0.7112 0.0
H875 H 0.60459 0.10083 0.75043 0.0
H876 H 0.57591 0.99275 0.71237 0.0
H877 H 0.63208 0.01525 0.67461 0.0
H878 H 0.74696 0.07506 0.74828 0.0
H879 H 0.7013 0.12333 0.77587 0.0
Li880 Li 0.05711 0.26189 0.88841 0.0
Li881 Li 0.03326 0.28069 0.9164 0.0
Li882 Li 0.03803 0.23934 0.91548 0.0
Li883 Li 0.015 0.25336 0.88733 0.0
C884 C 0.08234 0.264 0.92783 0.0
N885 N 0.12575 0.26028 0.94087 0.0
C886 C 0.09558 0.28315 0.93752 0.0
C887 C 0.09107 0.24292 0.92509 0.0
C888 C 0.11752 0.28093 0.9439 0.0
C889 C 0.11307 0.2414 0.93171 0.0
C890 C 0.03081 0.304 0.88254 0.0
C891 C 0.00801 0.33547 0.88503 0.0
N892 N 0.02627 0.34926 0.88123 0.0
C893 C 0.04931 0.31843 0.87845 0.0
C894 C 0.00995 0.31252 0.88565 0.0
C895 C 0.04668 0.34128 0.87792 0.0
C896 C 0.08209 0.25419 0.84936 0.0
N897 N 0.08264 0.26604 0.87018 0.0
C898 C 0.11773 0.28542 0.86303 0.0
C899 C 0.09996 0.28148 0.87719 0.0
C900 C 0.11758 0.27347 0.84137 0.0
C901 C 0.09949 0.25752 0.83471 0.0
H902 H 0.06793 0.24235 0.844 0.0
H903 H 0.0997 0.29126 0.89353 0.0
C904 C 0.01242 0.31141 0.94813 0.0
N905 N 0.03063 0.3086 0.93516 0.0
C906 C 0.00989 0.33222 0.96106 0.0
C907 C 0.04506 0.3467 0.94732 0.0
C908 C 0.047 0.32557 0.93481 0.0
C909 C 0.02623 0.35027 0.96056 0.0
H910 H 0.99977 0.29758 0.94829 0.0
H911 H 0.06143 0.32277 0.92455 0.0
C912 C 0.04424 0.21144 0.8729 0.0
N913 N 0.05503 0.16927 0.85345 0.0
C914 C 0.0276 0.19547 0.86303 0.0
C915 C 0.06641 0.20606 0.87259 0.0
C916 C 0.03338 0.17421 0.85337 0.0
C917 C 0.07152 0.18463 0.86275 0.0
C918 C 0.98845 0.24951 0.92288 0.0
C919 C 0.98186 0.22864 0.92959 0.0
C920 C 0.97231 0.26403 0.91897 0.0
C921 C 0.95919 0.22251 0.932 0.0
C922 C 0.9498 0.25727 0.92153 0.0
N923 N 0.94376 0.23682 0.92792 0.0
C924 C 0.04509 0.22158 0.95539 0.0
C925 C 0.03489 0.19365 0.92466 0.0
C926 C 0.04555 0.20503 0.96945 0.0
N927 N 0.03985 0.21564 0.93343 0.0
C928 C 0.03532 0.17658 0.93802 0.0
C929 C 0.04056 0.18211 0.96083 0.0
H930 H 0.04867 0.23923 0.96203 0.0
H931 H 0.03026 0.18927 0.90735 0.0
C932 C 0.98675 0.2589 0.85158 0.0
N933 N 0.98949 0.24606 0.86795 0.0
C934 C 0.96831 0.25425 0.83713 0.0
C935 C 0.95578 0.22326 0.85667 0.0
C936 C 0.97463 0.22829 0.87049 0.0
C937 C 0.95237 0.23628 0.83962 0.0
H938 H 0.99901 0.27268 0.84961 0.0
H939 H 0.97739 0.21799 0.88328 0.0
O940 O 0.06083 0.26591 0.92149 0.0
O941 O 0.03314 0.28167 0.88358 0.0
O942 O 0.03883 0.23234 0.8824 0.0
O943 O 0.01057 0.25574 0.92031 0.0
H944 H 0.08902 0.29957 0.93996 0.0
H945 H 0.08094 0.22787 0.91811 0.0
H946 H 0.128 0.29564 0.95128 0.0
H947 H 0.12005 0.22518 0.92963 0.0
H948 H 0.99199 0.34232 0.88756 0.0
H949 H 0.06555 0.3121 0.87592 0.0
H950 H 0.99544 0.30154 0.8886 0.0
H951 H 0.06089 0.35267 0.87493 0.0
H952 H 0.1311 0.29813 0.86879 0.0
H953 H 0.09874 0.24768 0.8183 0.0
H954 H 0.99506 0.33431 0.97095 0.0
H955 H 0.05818 0.36008 0.94669 0.0
H956 H 0.01039 0.19938 0.86295 0.0
H957 H 0.07959 0.21836 0.87962 0.0
H958 H 0.02065 0.16165 0.8458 0.0
H959 H 0.0886 0.18024 0.86243 0.0
H960 H 0.99408 0.21723 0.93281 0.0
H961 H 0.97709 0.28028 0.91389 0.0
H962 H 0.95385 0.20636 0.93708 0.0
H963 H 0.93714 0.26828 0.91842 0.0
H964 H 0.0494 0.21022 0.98694 0.0
H965 H 0.0317 0.15919 0.93045 0.0
H966 H 0.9668 0.26446 0.82396 0.0
H967 H 0.94394 0.2094 0.8595 0.0
Li968 Li 0.54944 0.75552 0.39488 0.0
Li969 Li 0.52534 0.77478 0.42469 0.0
Li970 Li 0.53283 0.73401 0.42328 0.0
Li971 Li 0.5097 0.74576 0.39538 0.0
C972 C 0.57489 0.75537 0.43423 0.0
N973 N 0.61578 0.74312 0.4468 0.0
C974 C 0.58607 0.76724 0.45304 0.0
C975 C 0.58446 0.73726 0.42182 0.0
C976 C 0.60675 0.76079 0.45912 0.0
C977 C 0.60516 0.73133 0.42845 0.0
C978 C 0.51363 0.78099 0.37457 0.0
C979 C 0.48076 0.79417 0.35958 0.0
N980 N 0.48883 0.78932 0.33872 0.0
C981 C 0.52163 0.77621 0.35299 0.0
C982 C 0.49307 0.79013 0.37793 0.0
C983 C 0.50884 0.78053 0.33508 0.0
C984 C 0.5774 0.74694 0.3573 0.0
N985 N 0.57495 0.76041 0.37698 0.0
C986 C 0.60873 0.78265 0.3714 0.0
C987 C 0.59013 0.77798 0.3842 0.0
C988 C 0.6117 0.76919 0.35086 0.0
C989 C 0.59572 0.7511 0.34386 0.0
H990 H 0.56499 0.73313 0.35193 0.0
H991 H 0.58767 0.7885 0.39985 0.0
C992 C 0.52633 0.80199 0.46634 0.0
N993 N 0.52138 0.80179 0.44449 0.0
C994 C 0.52267 0.82081 0.48187 0.0
C995 C 0.50879 0.83889 0.45212 0.0
C996 C 0.51309 0.81985 0.43712 0.0
C997 C 0.51346 0.83957 0.47494 0.0
H998 H 0.533 0.78741 0.47171 0.0
H999 H 0.50944 0.81935 0.41964 0.0
C1000 C 0.52669 0.70253 0.3851 0.0
N1001 N 0.51247 0.65724 0.37487 0.0
C1002 C 0.50624 0.69423 0.3928 0.0
C1003 C 0.53993 0.68782 0.37217 0.0
C1004 C 0.49933 0.67128 0.38745 0.0
C1005 C 0.53245 0.66497 0.36718 0.0
C1006 C 0.48355 0.7475 0.436 0.0
C1007 C 0.47349 0.72723 0.44159 0.0
C1008 C 0.47213 0.76706 0.43959 0.0
C1009 C 0.45203 0.72679 0.45031 0.0
C1010 C 0.45069 0.76591 0.44834 0.0
N1011 N 0.44117 0.74597 0.45346 0.0
C1012 C 0.52611 0.71414 0.46206 0.0
C1013 C 0.54758 0.6929 0.4354 0.0
C1014 C 0.52608 0.69741 0.47588 0.0
N1015 N 0.53635 0.71141 0.44206 0.0
C1016 C 0.54811 0.67579 0.44879 0.0
C1017 C 0.5369 0.67773 0.46917 0.0
H1018 H 0.51751 0.72914 0.46706 0.0
H1019 H 0.55572 0.69114 0.41949 0.0
C1020 C 0.48838 0.72648 0.35478 0.0
N1021 N 0.48435 0.73701 0.37556 0.0
C1022 C 0.4711 0.7212 0.339 0.0
C1023 C 0.44578 0.73758 0.36627 0.0
C1024 C 0.46349 0.74246 0.3815 0.0
C1025 C 0.44949 0.72701 0.34462 0.0
H1026 H 0.50517 0.7227 0.35027 0.0
H1027 H 0.4606 0.75126 0.39778 0.0
O1028 O 0.5546 0.76144 0.42814 0.0
O1029 O 0.52562 0.77621 0.39224 0.0
O1030 O 0.53398 0.72488 0.39035 0.0
O1031 O 0.50475 0.74839 0.42786 0.0
H1032 H 0.57884 0.78129 0.46283 0.0
H1033 H 0.57601 0.72785 0.40724 0.0
H1034 H 0.61562 0.76983 0.47364 0.0
H1035 H 0.61276 0.71735 0.419 0.0
H1036 H 0.46471 0.801 0.36192 0.0
H1037 H 0.53745 0.76905 0.35008 0.0
H1038 H 0.48639 0.79351 0.39447 0.0
H1039 H 0.51478 0.77681 0.31828 0.0
H1040 H 0.62041 0.79698 0.37732 0.0
H1041 H 0.59741 0.74022 0.32824 0.0
H1042 H 0.52711 0.82062 0.49911 0.0
H1043 H 0.50145 0.85268 0.44589 0.0
H1044 H 0.49578 0.70541 0.4027 0.0
H1045 H 0.55587 0.69399 0.36617 0.0
H1046 H 0.48351 0.66464 0.3933 0.0
H1047 H 0.54253 0.65337 0.35723 0.0
H1048 H 0.48218 0.712 0.43935 0.0
H1049 H 0.47954 0.78286 0.43531 0.0
H1050 H 0.44404 0.7112 0.45464 0.0
H1051 H 0.44162 0.78088 0.45102 0.0
H1052 H 0.5175 0.69975 0.49158 0.0
H1053 H 0.55652 0.66084 0.44289 0.0
H1054 H 0.47477 0.71332 0.3224 0.0
H1055 H 0.42935 0.74223 0.37135 0.0
Li1056 Li 0.01514 0.79178 0.63963 0.0
Li1057 Li 0.99009 0.77758 0.66736 0.0
Li1058 Li 0.03048 0.76862 0.66571 0.0
Li1059 Li 1.00313 0.75085 0.63689 0.0
C1060 C 0.0173 0.82116 0.68012 0.0
N1061 N 0.01616 0.86689 0.69439 0.0
C1062 C 0.9991 0.83241 0.67466 0.0
C1063 C 0.035 0.83317 0.69275 0.0
C1064 C 0.9988 0.85553 0.68205 0.0
C1065 C 0.03409 0.85628 0.69983 0.0
C1066 C 0.96378 0.78174 0.63047 0.0
C1067 C 0.92412 0.77189 0.62727 0.0
N1068 N 0.92121 0.79277 0.62202 0.0
C1069 C 0.96042 0.80304 0.62487 0.0
C1070 C 0.94552 0.76596 0.63153 0.0
C1071 C 0.93876 0.80832 0.62072 0.0
C1072 C 0.01614 0.80918 0.59969 0.0
N1073 N 0.0228 0.81482 0.62129 0.0
C1074 C 0.04161 0.84949 0.61319 0.0
C1075 C 0.03532 0.83454 0.62828 0.0
C1076 C 0.03521 0.84391 0.59068 0.0
C1077 C 0.0221 0.82352 0.58409 0.0
H1078 H 0.00641 0.7933 0.59452 0.0
H1079 H 0.04096 0.83846 0.64538 0.0
C1080 C 0.96603 0.77249 0.70636 0.0
N1081 N 0.96596 0.78308 0.68798 0.0
C1082 C 0.94903 0.775 0.72199 0.0
C1083 C 0.93214 0.79941 0.69965 0.0
C1084 C 0.94952 0.79654 0.68455 0.0
C1085 C 0.93165 0.78857 0.71875 0.0
H1086 H 0.97934 0.76203 0.70891 0.0
H1087 H 0.94971 0.80505 0.67008 0.0
C1088 C 0.05443 0.77272 0.62696 0.0
N1089 N 0.09667 0.78776 0.61491 0.0
C1090 C 0.06422 0.76187 0.608 0.0
C1091 C 0.0661 0.79122 0.63979 0.0
C1092 C 0.0856 0.76973 0.60218 0.0
C1093 C 0.08743 0.79857 0.63342 0.0
C1094 C 0.99543 0.72689 0.67088 0.0
C1095 C 0.01018 0.71101 0.67477 0.0
C1096 C 0.97261 0.72044 0.66852 0.0
C1097 C 1.00185 0.68875 0.67584 0.0
C1098 C 0.96493 0.69802 0.66969 0.0
N1099 N 0.97959 0.68276 0.67327 0.0
C1100 C 0.06187 0.77499 0.70218 0.0
C1101 C 0.06948 0.7478 0.67145 0.0
C1102 C 0.08174 0.77156 0.71281 0.0
N1103 N 0.05634 0.76334 0.68177 0.0
C1104 C 0.08948 0.74397 0.68133 0.0
C1105 C 0.096 0.75613 0.70216 0.0
H1106 H 0.05101 0.78715 0.71007 0.0
H1107 H 0.06453 0.7386 0.65533 0.0
C1108 C 0.97981 0.72331 0.60065 0.0
N1109 N 0.99597 0.72374 0.61641 0.0
C1110 C 0.97478 0.7039 0.58522 0.0
C1111 C 1.00326 0.68573 0.60235 0.0
C1112 C 0.0079 0.70559 0.61729 0.0
C1113 C 0.98649 0.68463 0.58595 0.0
H1114 H 0.971 0.73817 0.59983 0.0
H1115 H 0.02111 0.70655 0.62955 0.0
O1116 O 0.0181 0.79863 0.67276 0.0
O1117 O 0.98487 0.77627 0.63456 0.0
O1118 O 0.03349 0.76522 0.6328 0.0
O1119 O 1.0033 0.74867 0.66948 0.0
H1120 H 0.9855 0.82344 0.66459 0.0
H1121 H 0.04936 0.82476 0.69689 0.0
H1122 H 0.98481 0.86445 0.67791 0.0
H1123 H 0.04768 0.86579 0.70961 0.0
H1124 H 0.90982 0.75988 0.62812 0.0
H1125 H 0.97436 0.81544 0.62388 0.0
H1126 H 0.94783 0.74932 0.63558 0.0
H1127 H 0.93591 0.82478 0.61648 0.0
H1128 H 0.05191 0.86489 0.61895 0.0
H1129 H 0.01651 0.81864 0.567 0.0
H1130 H 0.94967 0.76659 0.73658 0.0
H1131 H 0.91905 0.8098 0.69617 0.0
H1132 H 0.05538 0.74753 0.5979 0.0
H1133 H 0.05879 0.79983 0.65452 0.0
H1134 H 0.0934 0.7615 0.58755 0.0
H1135 H 0.09665 0.81286 0.6432 0.0
H1136 H 0.02789 0.7158 0.67673 0.0
H1137 H 0.96097 0.73262 0.66583 0.0
H1138 H 0.01308 0.67623 0.67867 0.0
H1139 H 0.94732 0.69275 0.66779 0.0
H1140 H 0.08618 0.78128 0.72885 0.0
H1141 H 0.09978 0.73163 0.67273 0.0
H1142 H 0.9621 0.70417 0.57262 0.0
H1143 H 0.01264 0.67135 0.60382 0.0
Li1144 Li 0.52175 0.29685 0.14725 0.0
Li1145 Li 0.49674 0.27889 0.17312 0.0
Li1146 Li 0.53812 0.27375 0.17208 0.0
Li1147 Li 0.513 0.25402 0.14197 0.0
C1148 C 0.52594 0.32467 0.18678 0.0
N1149 N 0.53229 0.37095 0.19898 0.0
C1150 C 0.50801 0.33699 0.19422 0.0
C1151 C 0.54716 0.33585 0.18585 0.0
C1152 C 0.51154 0.36038 0.20025 0.0
C1153 C 0.55001 0.35927 0.19199 0.0
C1154 C 0.47087 0.2797 0.1345 0.0
C1155 C 0.43393 0.26188 0.12546 0.0
N1156 N 0.42691 0.28226 0.12253 0.0
C1157 C 0.46336 0.3004 0.1311 0.0
C1158 C 0.45611 0.26022 0.13139 0.0
C1159 C 0.44105 0.30137 0.12517 0.0
C1160 C 0.54169 0.31988 0.11392 0.0
N1161 N 0.52739 0.32225 0.13123 0.0
C1162 C 0.5204 0.35922 0.1237 0.0
C1163 C 0.51683 0.34149 0.13632 0.0
C1164 C 0.5349 0.35713 0.10554 0.0
C1165 C 0.54577 0.33717 0.10088 0.0
H1166 H 0.54957 0.3043 0.10985 0.0
H1167 H 0.50523 0.34295 0.14986 0.0
C1168 C 0.47138 0.27043 0.21046 0.0
N1169 N 0.47153 0.2819 0.19269 0.0
C1170 C 0.4539 0.27174 0.22556 0.0
C1171 C 0.43712 0.29713 0.20424 0.0
C1172 C 0.45491 0.29522 0.18945 0.0
C1173 C 0.43642 0.28529 0.22266 0.0
H1174 H 0.48492 0.26025 0.21298 0.0
H1175 H 0.45561 0.30477 0.17568 0.0
C1176 C 0.564 0.2702 0.13579 0.0
N1177 N 0.609 0.26591 0.12959 0.0
C1178 C 0.57136 0.24959 0.12615 0.0
C1179 C 0.5795 0.28873 0.14194 0.0
C1180 C 0.59419 0.24773 0.12324 0.0
C1181 C 0.60218 0.28619 0.13876 0.0
C1182 C 0.5035 0.23007 0.17744 0.0
C1183 C 0.51689 0.21465 0.18496 0.0
C1184 C 0.48077 0.22405 0.17348 0.0
C1185 C 0.50735 0.19327 0.18798 0.0
C1186 C 0.47185 0.20253 0.17672 0.0
N1187 N 0.48523 0.1877 0.1838 0.0
C1188 C 0.57252 0.28509 0.20591 0.0
C1189 C 0.57374 0.24995 0.18271 0.0
C1190 C 0.59192 0.28143 0.21723 0.0
N1191 N 0.56401 0.26949 0.18887 0.0
C1192 C 0.59322 0.24576 0.19332 0.0
C1193 C 0.60266 0.26166 0.21073 0.0
H1194 H 0.56434 0.3004 0.21064 0.0
H1195 H 0.56641 0.23764 0.1694 0.0
C1196 C 0.49654 0.22625 0.10196 0.0
N1197 N 0.50872 0.22686 0.12097 0.0
C1198 C 0.49408 0.20649 0.0865 0.0
C1199 C 0.51693 0.18847 0.11031 0.0
C1200 C 0.51897 0.20853 0.12525 0.0
C1201 C 0.5044 0.18721 0.09054 0.0
H1202 H 0.48893 0.24118 0.09869 0.0
H1203 H 0.52904 0.20957 0.14016 0.0
O1204 O 0.52277 0.30176 0.18076 0.0
O1205 O 0.4927 0.27844 0.14023 0.0
O1206 O 0.54174 0.27223 0.13919 0.0
O1207 O 0.51261 0.25102 0.17419 0.0
H1208 H 0.49152 0.32861 0.1952 0.0
H1209 H 0.56128 0.32657 0.18049 0.0
H1210 H 0.49779 0.37014 0.20591 0.0
H1211 H 0.56632 0.36815 0.19124 0.0
H1212 H 0.42232 0.24695 0.12308 0.0
H1213 H 0.47457 0.3156 0.13321 0.0
H1214 H 0.46174 0.24395 0.13331 0.0
H1215 H 0.43498 0.31733 0.12268 0.0
H1216 H 0.51171 0.37431 0.128 0.0
H1217 H 0.55672 0.33455 0.0868 0.0
H1218 H 0.45405 0.26205 0.2393 0.0
H1219 H 0.42432 0.30814 0.2015 0.0
H1220 H 0.5596 0.23513 0.12111 0.0
H1221 H 0.57406 0.30487 0.14909 0.0
H1222 H 0.60012 0.23183 0.11595 0.0
H1223 H 0.61436 0.30036 0.14358 0.0
H1224 H 0.53447 0.21909 0.18834 0.0
H1225 H 0.47009 0.23595 0.1682 0.0
H1226 H 0.51755 0.18112 0.19366 0.0
H1227 H 0.45428 0.19765 0.17367 0.0
H1228 H 0.59869 0.29409 0.23059 0.0
H1229 H 0.60074 0.23011 0.18805 0.0
H1230 H 0.48454 0.20647 0.07136 0.0
H1231 H 0.52501 0.17405 0.11433 0.0
H1232 H 0.24394 0.76452 0.83506 0.0
H1233 H 0.22997 0.70623 0.86845 0.0
H1234 H 0.22971 0.73063 0.90429 0.0
H1235 H 0.23478 0.76833 0.92623 0.0
H1236 H 0.25117 0.82653 0.89307 0.0
H1237 H 0.24856 0.80248 0.85712 0.0
C1238 C 0.24056 0.75724 0.85018 0.0
C1239 C 0.23699 0.73363 0.84915 0.0
C1240 C 0.24085 0.77135 0.87078 0.0
C1241 C 0.23291 0.72435 0.86887 0.0
C1242 C 0.23274 0.73829 0.88935 0.0
C1243 C 0.23796 0.7758 0.91119 0.0
C1244 C 0.24323 0.7993 0.91253 0.0
C1245 C 0.237 0.76179 0.89054 0.0
C1246 C 0.24677 0.8086 0.89269 0.0
C1247 C 0.24547 0.79481 0.87205 0.0
H1248 H 0.06048 0.52884 0.44391 0.0
H1249 H 0.00924 0.56056 0.41328 0.0
H1250 H 0.03331 0.56512 0.38143 0.0
H1251 H 0.06747 0.5565 0.36077 0.0
H1252 H 0.11829 0.52372 0.39112 0.0
H1253 H 0.09613 0.52345 0.42471 0.0
C1254 C 0.05492 0.53728 0.43048 0.0
C1255 C 0.03336 0.54459 0.43083 0.0
C1256 C 0.06868 0.53939 0.4121 0.0
C1257 C 0.02597 0.55512 0.41333 0.0
C1258 C 0.03964 0.55753 0.39508 0.0
C1259 C 0.07373 0.54943 0.3748 0.0
C1260 C 0.09442 0.53996 0.37335 0.0
C1261 C 0.06078 0.54914 0.39401 0.0
C1262 C 0.10249 0.53122 0.39182 0.0
C1263 C 0.08976 0.53094 0.411 0.0
H1264 H 0.81868 0.73344 0.8417 0.0
H1265 H 0.78435 0.79047 0.87117 0.0
H1266 H 0.77675 0.7723 0.90416 0.0
H1267 H 0.77957 0.74004 0.92471 0.0
H1268 H 0.81424 0.68321 0.89542 0.0
H1269 H 0.82223 0.70157 0.86259 0.0
C1270 C 0.8098 0.74204 0.85545 0.0
C1271 C 0.80205 0.7633 0.85383 0.0
C1272 C 0.80549 0.73149 0.87447 0.0
C1273 C 0.79027 0.77399 0.87177 0.0
C1274 C 0.78597 0.76364 0.89071 0.0
C1275 C 0.78874 0.73161 0.91107 0.0
C1276 C 0.79627 0.71026 0.91258 0.0
C1277 C 0.79334 0.74231 0.8922 0.0
C1278 C 0.80843 0.69974 0.89485 0.0
C1279 C 0.81294 0.7102 0.876 0.0
H1280 H 0.02877 0.96524 0.41962 0.0
H1281 H 0.03752 0.03393 0.45305 0.0
H1282 H 0.01699 0.04673 0.42311 0.0
H1283 H 0.9968 0.03849 0.38728 0.0
H1284 H 0.98679 0.96952 0.35471 0.0
H1285 H 0.00758 0.95684 0.38445 0.0
C1286 C 0.02596 0.98298 0.42052 0.0
C1287 C 0.03472 0.99857 0.4386 0.0
C1288 C 0.014 0.99022 0.40332 0.0
C1289 C 0.03123 0.02157 0.43922 0.0
C1290 C 0.01939 0.02891 0.42216 0.0
C1291 C 0.99894 0.02065 0.38678 0.0
C1292 C 0.99028 1.00504 0.36865 0.0
C1293 C 0.01073 0.01339 0.4041 0.0
C1294 C 0.99357 0.98201 0.3682 0.0
C1295 C 1.00533 0.97469 0.3853 0.0
H1296 H 0.23935 0.25189 0.67442 0.0
H1297 H 0.30983 0.27258 0.67912 0.0
H1298 H 0.31554 0.24995 0.64323 0.0
H1299 H 0.30081 0.22299 0.61118 0.0
H1300 H 0.23051 0.20152 0.60703 0.0
H1301 H 0.22457 0.22531 0.64226 0.0
C1302 C 0.25599 0.25136 0.66768 0.0
C1303 C 0.2741 0.26397 0.67953 0.0
C1304 C 0.25924 0.23799 0.64719 0.0
C1305 C 0.2955 0.26334 0.67029 0.0
C1306 C 0.29883 0.25024 0.64982 0.0
C1307 C 0.28415 0.2237 0.61788 0.0
C1308 C 0.26615 0.21042 0.60651 0.0
C1309 C 0.28085 0.23738 0.63819 0.0
C1310 C 0.24472 0.21132 0.61558 0.0
C1311 C 0.24128 0.22501 0.63567 0.0
H1312 H 0.54957 0.5328 0.63282 0.0
H1313 H 0.4939 0.53311 0.58783 0.0
H1314 H 0.46832 0.5339 0.61882 0.0
H1315 H 0.46137 0.53297 0.65845 0.0
H1316 H 0.51664 0.52857 0.70272 0.0
H1317 H 0.54253 0.53082 0.67226 0.0
C1318 C 0.53184 0.53282 0.62966 0.0
C1319 C 0.52388 0.53294 0.60782 0.0
C1320 C 0.51701 0.53249 0.64749 0.0
C1321 C 0.50077 0.53348 0.60437 0.0
C1322 C 0.486 0.53368 0.62211 0.0
C1323 C 0.47903 0.53224 0.66148 0.0
C1324 C 0.48686 0.53064 0.68305 0.0
C1325 C 0.49389 0.53292 0.6437 0.0
C1326 C 0.50998 0.53022 0.68652 0.0
C1327 C 0.52487 0.53131 0.66901 0.0
H1328 H 0.83929 0.28462 0.67442 0.0
H1329 H 0.77774 0.2423 0.67201 0.0
H1330 H 0.76083 0.26616 0.64789 0.0
H1331 H 0.76431 0.29849 0.62652 0.0
H1332 H 0.82689 0.3396 0.62837 0.0
H1333 H 0.84253 0.31705 0.65387 0.0
C1334 C 0.82209 0.28083 0.66874 0.0
C1335 C 0.80963 0.26198 0.6749 0.0
C1336 C 0.81272 0.29441 0.65479 0.0
C1337 C 0.78749 0.25692 0.66745 0.0
C1338 C 0.77791 0.27049 0.65365 0.0
C1339 C 0.78138 0.30248 0.63246 0.0
C1340 C 0.7943 0.32088 0.62556 0.0
C1341 C 0.79047 0.28917 0.647 0.0
C1342 C 0.81635 0.32588 0.63365 0.0
C1343 C 0.82542 0.31286 0.64814 0.0
H1344 H 0.54781 0.01202 0.60361 0.0
H1345 H 0.51913 0.94637 0.61487 0.0
H1346 H 0.54275 0.94838 0.64811 0.0
H1347 H 0.57148 0.96908 0.67415 0.0
H1348 H 0.60005 0.03463 0.66236 0.0
H1349 H 0.57649 0.03244 0.62924 0.0
C1350 C 0.54661 0.99822 0.61344 0.0
C1351 C 0.53165 0.97914 0.60688 0.0
C1352 C 0.56024 0.99949 0.63243 0.0
C1353 C 0.53061 0.9612 0.61953 0.0
C1354 C 0.54403 0.96239 0.63857 0.0
C1355 C 0.57243 0.9829 0.66436 0.0
C1356 C 0.58752 1.00196 0.67067 0.0
C1357 C 0.55887 0.98149 0.64522 0.0
C1358 C 0.58877 0.01966 0.65771 0.0
C1359 C 0.57523 0.01847 0.63883 0.0
H1360 H 0.86996 0.19816 0.77618 0.0
H1361 H 0.86834 0.26898 0.7712 0.0
H1362 H 0.90015 0.27811 0.79708 0.0
H1363 H 0.9283 0.26587 0.82104 0.0
H1364 H 0.93159 0.19458 0.82366 0.0
H1365 H 0.89897 0.18582 0.79924 0.0
C1366 C 0.87652 0.21559 0.78093 0.0
C1367 C 0.86681 0.23291 0.77197 0.0
C1368 C 0.89502 0.22063 0.79546 0.0
C1369 C 0.87562 0.2554 0.77791 0.0
C1370 C 0.89375 0.2606 0.7927 0.0
C1371 C 0.92213 0.24837 0.81609 0.0
C1372 C 0.9325 0.23098 0.82442 0.0
C1373 C 0.90366 0.24334 0.8015 0.0
C1374 C 0.92382 0.20844 0.81801 0.0
C1375 C 0.90522 0.20334 0.80384 0.0
H1376 H 0.49455 0.91368 0.55641 0.0
H1377 H 0.50941 0.95787 0.50732 0.0
H1378 H 0.51392 0.92519 0.47912 0.0
H1379 H 0.51631 0.88432 0.46921 0.0
H1380 H 0.4995 0.84001 0.51799 0.0
H1381 H 0.49372 0.87252 0.54558 0.0
C1382 C 0.4986 0.9161 0.53948 0.0
C1383 C 0.50172 0.93813 0.53396 0.0
C1384 C 0.50123 0.89725 0.52339 0.0
C1385 C 0.50674 0.94106 0.51193 0.0
C1386 C 0.5095 0.92239 0.49585 0.0
C1387 C 0.51099 0.88162 0.48572 0.0
C1388 C 0.50873 0.85955 0.49142 0.0
C1389 C 0.50714 0.90042 0.50148 0.0
C1390 C 0.50207 0.8567 0.51313 0.0
C1391 C 0.4985 0.87531 0.52894 0.0
H1392 H 0.18366 0.28132 0.7616 0.0
H1393 H 0.23235 0.28607 0.81444 0.0
H1394 H 0.20252 0.28622 0.84194 0.0
H1395 H 0.16246 0.28098 0.85026 0.0
H1396 H 0.11392 0.27577 0.79692 0.0
H1397 H 0.14372 0.27959 0.7703 0.0
C1398 C 0.18766 0.28299 0.77922 0.0
C1399 C 0.20998 0.28398 0.78618 0.0
C1400 C 0.17043 0.28248 0.79475 0.0
C1401 C 0.21517 0.28565 0.80889 0.0
C1402 C 0.19813 0.28551 0.82453 0.0
C1403 C 0.15837 0.28107 0.83289 0.0
C1404 C 0.13591 0.2777 0.82562 0.0
C1405 C 0.17566 0.28333 0.81759 0.0
C1406 C 0.13102 0.27773 0.80295 0.0
C1407 C 0.14806 0.2801 0.78771 0.0
H1408 H 0.51337 0.59608 0.52292 0.0
H1409 H 0.58302 0.58735 0.51237 0.0
H1410 H 0.58711 0.62143 0.49419 0.0
H1411 H 0.57019 0.65237 0.47929 0.0
H1412 H 0.50024 0.66062 0.48945 0.0
H1413 H 0.49695 0.62836 0.50995 0.0
C1414 C 0.52948 0.60197 0.51696 0.0
C1415 C 0.54793 0.58955 0.51901 0.0
C1416 C 0.53159 0.62138 0.50632 0.0
C1417 C 0.56869 0.59694 0.51106 0.0
C1418 C 0.57098 0.6163 0.50058 0.0
C1419 C 0.55424 0.6471 0.48602 0.0
C1420 C 0.53549 0.65888 0.48276 0.0
C1421 C 0.55244 0.62843 0.49774 0.0
C1422 C 0.515 0.65202 0.49187 0.0
C1423 C 0.51306 0.63348 0.50351 0.0
H1424 H 0.85098 0.81512 0.78129 0.0
H1425 H 0.85225 0.74569 0.79211 0.0
H1426 H 0.88463 0.74154 0.7681 0.0
H1427 H 0.91124 0.75699 0.74229 0.0
H1428 H 0.9103 0.82676 0.73218 0.0
H1429 H 0.87888 0.83117 0.75717 0.0
C1430 C 0.85835 0.79908 0.77841 0.0
C1431 C 0.8491 0.78073 0.78846 0.0
C1432 C 0.87689 0.79676 0.76445 0.0
C1433 C 0.85912 0.76017 0.78479 0.0
C1434 C 0.87755 0.75773 0.77091 0.0
C1435 C 0.90443 0.77328 0.74577 0.0
C1436 C 0.91313 0.79142 0.73504 0.0
C1437 C 0.88643 0.77584 0.76044 0.0
C1438 C 0.90375 0.8123 0.73969 0.0
C1439 C 0.88583 0.81492 0.75416 0.0
H1440 H 0.05976 0.89144 0.50654 0.0
H1441 H 0.04459 0.95037 0.55125 0.0
H1442 H 0.03969 0.92763 0.58177 0.0
H1443 H 0.03616 0.8901 0.59454 0.0
H1444 H 0.05058 0.83119 0.54901 0.0
H1445 H 0.05927 0.85467 0.52004 0.0
C1446 C 0.05592 0.89932 0.52313 0.0
C1447 C 0.05279 0.92245 0.52689 0.0
C1448 C 0.05261 0.88604 0.54032 0.0
C1449 C 0.04737 0.93257 0.54821 0.0
C1450 C 0.04439 0.91954 0.56555 0.0
C1451 C 0.04154 0.88247 0.57839 0.0
C1452 C 0.04237 0.85883 0.57389 0.0
C1453 C 0.04643 0.89612 0.56166 0.0
C1454 C 0.04929 0.84924 0.5528 0.0
C1455 C 0.05441 0.86267 0.53623 0.0
H1456 H 0.19337 0.73575 0.72722 0.0
H1457 H 0.16303 0.73108 0.79064 0.0
H1458 H 0.12788 0.74246 0.77667 0.0
H1459 H 0.10515 0.75088 0.74522 0.0
H1460 H 0.13597 0.75427 0.6816 0.0
H1461 H 0.17154 0.74623 0.69673 0.0
C1462 C 0.17911 0.73764 0.73803 0.0
C1463 C 0.18058 0.73286 0.75986 0.0
C1464 C 0.15902 0.74367 0.72973 0.0
C1465 C 0.16213 0.73495 0.77379 0.0
C1466 C 0.14207 0.74131 0.76576 0.0
C1467 C 0.11974 0.75015 0.7348 0.0
C1468 C 0.11785 0.75291 0.71224 0.0
C1469 C 0.1402 0.74531 0.74359 0.0
C1470 C 0.13688 0.75179 0.69889 0.0
C1471 C 0.15726 0.74731 0.70755 0.0
H1472 H 0.94862 0.59888 0.51927 0.0
H1473 H 0.01792 0.58504 0.51986 0.0
H1474 H 0.02707 0.62043 0.5444 0.0
H1475 H 0.01538 0.65481 0.56666 0.0
H1476 H 0.94558 0.66686 0.56867 0.0
H1477 H 0.93678 0.63266 0.54232 0.0
C1478 C 0.96572 0.60339 0.52491 0.0
C1479 C 0.98249 0.58909 0.51757 0.0
C1480 C 0.97083 0.62352 0.53959 0.0
C1481 C 1.00462 0.59572 0.52479 0.0
C1482 C 0.00988 0.61592 0.53906 0.0
C1483 C 0.99818 0.64989 0.56159 0.0
C1484 C 0.98122 0.66361 0.56977 0.0
C1485 C 0.9931 0.62986 0.54674 0.0
C1486 C 0.95911 0.657 0.56249 0.0
C1487 C 0.954 0.63729 0.54749 0.0
H1488 H 0.76182 0.88804 0.2376 0.0
H1489 H 0.81068 0.83899 0.22734 0.0
H1490 H 0.84072 0.86943 0.23133 0.0
H1491 H 0.85312 0.91005 0.23925 0.0
H1492 H 0.80394 0.95884 0.24959 0.0
H1493 H 0.77407 0.92843 0.24444 0.0
C1494 C 0.77905 0.88399 0.23638 0.0
C1495 C 0.78398 0.86125 0.23231 0.0
C1496 C 0.7962 0.90155 0.23884 0.0
C1497 C 0.8064 0.85634 0.23031 0.0
C1498 C 0.82359 0.87374 0.23271 0.0
C1499 C 0.83587 0.91403 0.24012 0.0
C1500 C 0.83082 0.93672 0.24498 0.0
C1501 C 0.81869 0.89642 0.23711 0.0
C1502 C 0.80834 0.94154 0.24626 0.0
C1503 C 0.79122 0.92416 0.2432 0.0
H1504 H 0.81082 0.20337 0.31591 0.0
H1505 H 0.75539 0.15229 0.30839 0.0
H1506 H 0.78103 0.1227 0.30185 0.0
H1507 H 0.81895 0.11126 0.29698 0.0
H1508 H 0.87479 0.16185 0.30522 0.0
H1509 H 0.84925 0.19163 0.31252 0.0
C1510 C 0.8044 0.18575 0.3131 0.0
C1511 C 0.78119 0.18009 0.31247 0.0
C1512 C 0.81928 0.16871 0.30927 0.0
C1513 C 0.77314 0.15716 0.30861 0.0
C1514 C 0.78779 0.1402 0.30494 0.0
C1515 C 0.82562 0.12876 0.3007 0.0
C1516 C 0.84882 0.13422 0.30056 0.0
C1517 C 0.81087 0.14577 0.30503 0.0
C1518 C 0.85702 0.15711 0.30494 0.0
C1519 C 0.84242 0.17417 0.30926 0.0
H1520 H 0.4452 0.99038 0.00972 0.0
H1521 H 0.40504 0.04668 0.00891 0.0
H1522 H 0.3715 0.02237 0.01444 0.0
H1523 H 0.35327 0.98456 0.01762 0.0
H1524 H 0.39352 0.92816 0.01672 0.0
H1525 H 0.42721 0.95296 0.01321 0.0
C1526 C 0.42911 0.99735 0.01054 0.0
C1527 C 0.42774 0.02037 0.00875 0.0
C1528 C 0.40983 0.98319 0.01324 0.0
C1529 C 0.40672 0.02912 0.01045 0.0
C1530 C 0.38747 0.01518 0.01344 0.0
C1531 C 0.36945 0.97778 0.01687 0.0
C1532 C 0.37087 0.95453 0.01734 0.0
C1533 C 0.38879 0.99213 0.01465 0.0
C1534 C 0.39194 0.94593 0.01611 0.0
C1535 C 0.41122 0.96012 0.0142 0.0
H1536 H 0.23701 0.33715 0.26716 0.0
H1537 H 0.28534 0.37363 0.31417 0.0
H1538 H 0.27169 0.40961 0.30761 0.0
H1539 H 0.24407 0.43035 0.29047 0.0
H1540 H 0.19523 0.3935 0.24395 0.0
H1541 H 0.21107 0.35811 0.2481 0.0
C1542 C 0.24481 0.35307 0.27555 0.0
C1543 C 0.26223 0.35297 0.29092 0.0
C1544 C 0.23661 0.37357 0.27193 0.0
C1545 C 0.27206 0.37349 0.30205 0.0
C1546 C 0.26415 0.394 0.29843 0.0
C1547 C 0.23694 0.41457 0.28122 0.0
C1548 C 0.21841 0.4146 0.26699 0.0
C1549 C 0.24609 0.39421 0.28376 0.0
C1550 C 0.20958 0.39402 0.25487 0.0
C1551 C 0.21856 0.37374 0.25731 0.0
H1552 H 0.12206 0.9854 0.47286 0.0
H1553 H 0.0844 0.03778 0.50636 0.0
H1554 H 0.11841 0.06336 0.51272 0.0
H1555 H 0.15813 0.07187 0.5056 0.0
H1556 H 0.19576 0.0199 0.47086 0.0
H1557 H 0.16255 0.99324 0.46782 0.0
C1558 C 0.12153 1.00223 0.48205 0.0
C1559 C 0.10096 0.00969 0.48948 0.0
C1560 C 0.14104 0.01705 0.48496 0.0
C1561 C 0.10019 0.03168 0.50084 0.0
C1562 C 0.11957 0.04633 0.50427 0.0
C1563 C 0.15918 0.05461 0.49768 0.0
C1564 C 0.17943 0.04799 0.48834 0.0
C1565 C 0.14 0.03937 0.49594 0.0
C1566 C 0.18033 0.02561 0.47785 0.0
C1567 C 0.16138 0.01028 0.47624 0.0
H1568 H 0.795 0.16909 0.7195 0.0
H1569 H 0.78658 0.20952 0.78302 0.0
H1570 H 0.75881 0.18076 0.79324 0.0
H1571 H 0.73858 0.14307 0.78497 0.0
H1572 H 0.74766 0.10237 0.72166 0.0
H1573 H 0.77353 0.13217 0.71057 0.0
C1574 C 0.78676 0.17176 0.7354 0.0
C1575 C 0.79277 0.1914 0.75046 0.0
C1576 C 0.77114 0.15496 0.74133 0.0
C1577 C 0.78227 0.19448 0.77119 0.0
C1578 C 0.76642 0.17804 0.77704 0.0
C1579 C 0.74603 0.14084 0.76865 0.0
C1580 C 0.74131 0.12042 0.75426 0.0
C1581 C 0.76099 0.15803 0.76239 0.0
C1582 C 0.75129 0.11773 0.73324 0.0
C1583 C 0.76599 0.13483 0.72681 0.0
H1584 H 0.45868 0.03968 0.51469 0.0
H1585 H 0.42164 1.00761 0.56381 0.0
H1586 H 0.38735 0.02251 0.55238 0.0
H1587 H 0.36903 0.04792 0.53116 0.0
H1588 H 0.40608 0.07992 0.48173 0.0
H1589 H 0.43926 0.06198 0.49062 0.0
C1590 C 0.44293 0.03556 0.52244 0.0
C1591 C 0.44241 0.0225 0.53986 0.0
C1592 C 0.42344 0.04452 0.51602 0.0
C1593 C 0.42219 0.01746 0.55016 0.0
C1594 C 0.40268 0.02612 0.54375 0.0
C1595 C 0.38418 0.05061 0.52195 0.0
C1596 C 0.38503 0.06555 0.50598 0.0
C1597 C 0.40322 0.04014 0.52707 0.0
C1598 C 0.40501 0.06896 0.49446 0.0
C1599 C 0.424 0.05858 0.49943 0.0
H1600 H 0.61282 0.52226 0.55321 0.0
H1601 H 0.57161 0.47331 0.58387 0.0
H1602 H 0.60192 0.44839 0.58151 0.0
H1603 H 0.63993 0.44006 0.5699 0.0
H1604 H 0.68062 0.48877 0.53839 0.0
H1605 H 0.65076 0.51412 0.54191 0.0
C1606 C 0.61043 0.50609 0.55929 0.0
C1607 C 0.58994 0.4997 0.56868 0.0
C1608 C 0.62786 0.49175 0.55771 0.0
C1609 C 0.58727 0.47882 0.5768 0.0
C1610 C 0.60456 0.46447 0.57532 0.0
C1611 C 0.64221 0.45617 0.5637 0.0
C1612 C 0.66254 0.46247 0.55392 0.0
C1613 C 0.62488 0.47069 0.56567 0.0
C1614 C 0.6653 0.48358 0.54626 0.0
C1615 C 0.64816 0.49806 0.54814 0.0
H1616 H 0.72032 0.24777 0.36323 0.0
H1617 H 0.7898 0.26021 0.34801 0.0
H1618 H 0.79462 0.28939 0.38052 0.0
H1619 H 0.77932 0.31072 0.41378 0.0
H1620 H 0.71011 0.29718 0.42976 0.0
H1621 H 0.70488 0.26955 0.39624 0.0
C1622 C 0.73643 0.2571 0.36687 0.0
C1623 C 0.75467 0.25182 0.35321 0.0
C1624 C 0.73915 0.27369 0.38574 0.0
C1625 C 0.77554 0.26382 0.35835 0.0
C1626 C 0.77829 0.28053 0.37692 0.0
C1627 C 0.76312 0.30163 0.41005 0.0
C1628 C 0.74517 0.30612 0.4244 0.0
C1629 C 0.76028 0.28543 0.39088 0.0
C1630 C 0.72419 0.2944 0.41896 0.0
C1631 C 0.7212 0.27843 0.39983 0.0
H1632 H 0.50883 0.03 0.91429 0.0
H1633 H 0.55617 0.0611 0.96498 0.0
H1634 H 0.5848 0.06489 0.93665 0.0
H1635 H 0.59685 0.05676 0.89762 0.0
H1636 H 0.54929 0.02384 0.84755 0.0
H1637 H 0.52024 0.02365 0.87531 0.0
C1638 C 0.52532 0.03802 0.91899 0.0
C1639 C 0.5305 0.04552 0.94146 0.0
C1640 C 0.54167 0.03964 0.90272 0.0
C1641 C 0.55189 0.05552 0.94763 0.0
C1642 C 0.56824 0.0575 0.93147 0.0
C1643 C 0.58013 0.04956 0.89279 0.0
C1644 C 0.57536 0.04035 0.87044 0.0
C1645 C 0.56345 0.04917 0.90899 0.0
C1646 C 0.55347 0.03136 0.86448 0.0
C1647 C 0.53682 0.03108 0.8804 0.0
H1648 H 0.29073 0.27603 0.36606 0.0
H1649 H 0.31979 0.22746 0.31765 0.0
H1650 H 0.31794 0.20017 0.34402 0.0
H1651 H 0.30744 0.18982 0.38076 0.0
H1652 H 0.27668 0.23811 0.42814 0.0
H1653 H 0.27967 0.26558 0.40217 0.0
C1654 C 0.29647 0.25941 0.36112 0.0
C1655 C 0.30533 0.25389 0.33978 0.0
C1656 C 0.29503 0.24365 0.37623 0.0
C1657 C 0.31314 0.23237 0.334 0.0
C1658 C 0.31192 0.21665 0.34904 0.0
C1659 C 0.3012 0.20627 0.38534 0.0
C1660 C 0.29196 0.21183 0.40652 0.0
C1661 C 0.30277 0.22205 0.37017 0.0
C1662 C 0.28424 0.2334 0.41218 0.0
C1663 C 0.28581 0.24914 0.39726 0.0
H1664 H 0.52863 0.51942 0.95029 0.0
H1665 H 0.54312 0.45365 0.91759 0.0
H1666 H 0.51992 0.45813 0.88576 0.0
H1667 H 0.49495 0.48034 0.86745 0.0
H1668 H 0.48018 0.54609 0.89992 0.0
H1669 H 0.50397 0.542 0.93157 0.0
C1670 C 0.52683 0.50617 0.9361 0.0
C1671 C 0.53751 0.48619 0.93637 0.0
C1672 C 0.51334 0.50881 0.91784 0.0
C1673 C 0.53484 0.46907 0.91795 0.0
C1674 C 0.52166 0.47165 0.89969 0.0
C1675 C 0.49713 0.49389 0.88134 0.0
C1676 C 0.48582 0.5135 0.88128 0.0
C1677 C 0.51075 0.49139 0.89949 0.0
C1678 C 0.48852 0.53072 0.89962 0.0
C1679 C 0.5022 0.52844 0.91768 0.0
H1680 H 0.76074 0.81028 0.16884 0.0
H1681 H 0.73343 0.76199 0.21 0.0
H1682 H 0.73376 0.73179 0.17841 0.0
H1683 H 0.74286 0.71894 0.13932 0.0
H1684 H 0.77351 0.76727 0.09979 0.0
H1685 H 0.77086 0.79746 0.13061 0.0
C1686 C 0.75517 0.79312 0.17112 0.0
C1687 C 0.7473 0.78851 0.19198 0.0
C1688 C 0.75595 0.77576 0.1531 0.0
C1689 C 0.73944 0.76619 0.19419 0.0
C1690 C 0.73977 0.74884 0.17614 0.0
C1691 C 0.74919 0.73601 0.13745 0.0
C1692 C 0.75824 0.74065 0.11699 0.0
C1693 C 0.74819 0.7534 0.15555 0.0
C1694 C 0.76598 0.76307 0.11499 0.0
C1695 C 0.76467 0.78042 0.13274 0.0
H1696 H 0.06912 0.04032 0.12874 0.0
H1697 H 0.01985 0.0556 0.08256 0.0
H1698 H 0.99241 0.05871 0.11215 0.0
H1699 H 0.98197 0.05575 0.15092 0.0
H1700 H 0.03081 0.03741 0.19592 0.0
H1701 H 0.05865 0.03677 0.16699 0.0
C1702 C 0.05233 0.04409 0.12499 0.0
C1703 C 0.04665 0.04757 0.10329 0.0
C1704 C 0.03646 0.04532 0.14194 0.0
C1705 C 0.02489 0.05307 0.09909 0.0
C1706 C 0.00908 0.05467 0.11599 0.0
C1707 C 0.99864 0.05143 0.1544 0.0
C1708 C 1.00415 0.04678 0.17578 0.0
C1709 C 0.01461 0.05059 0.13745 0.0
C1710 C 0.02604 0.04156 0.17989 0.0
C1711 C 0.04201 0.04098 0.16325 0.0
H1712 H 0.32792 0.75841 0.16086 0.0
H1713 H 0.26872 0.77109 0.1986 0.0
H1714 H 0.25301 0.78778 0.168 0.0
H1715 H 0.25796 0.80206 0.13202 0.0
H1716 H 0.31818 0.79056 0.0952 0.0
H1717 H 0.33151 0.76985 0.12365 0.0
C1718 C 0.31133 0.76432 0.16204 0.0
C1719 C 0.29928 0.76341 0.18164 0.0
C1720 C 0.30275 0.77433 0.14464 0.0
C1721 C 0.27805 0.77141 0.18341 0.0
C1722 C 0.2692 0.78112 0.16602 0.0
C1723 C 0.27395 0.79493 0.13019 0.0
C1724 C 0.28708 0.79799 0.11152 0.0
C1725 C 0.28169 0.78324 0.14681 0.0
C1726 C 0.30762 0.78832 0.10925 0.0
C1727 C 0.31534 0.77657 0.1256 0.0
H1728 H 0.0143 0.4624 0.11009 0.0
H1729 H 0.02445 0.5313 0.09653 0.0
H1730 H 0.04614 0.54171 0.13086 0.0
H1731 H 0.06508 0.53069 0.16295 0.0
H1732 H 0.05961 0.46047 0.17292 0.0
H1733 H 0.03344 0.45133 0.14183 0.0
C1734 C 0.02138 0.47969 0.11442 0.0
C1735 C 0.01779 0.49589 0.10035 0.0
C1736 C 0.03491 0.48537 0.1336 0.0
C1737 C 0.02654 0.51838 0.10694 0.0
C1738 C 0.03926 0.52435 0.12652 0.0
C1739 C 0.05843 0.5133 0.15828 0.0
C1740 C 0.0646 0.49637 0.17049 0.0
C1741 C 0.04405 0.50785 0.13965 0.0
C1742 C 0.05508 0.47408 0.16431 0.0
C1743 C 0.04019 0.46872 0.1463 0.0
H1744 H 0.37677 0.69589 0.26858 0.0
H1745 H 0.35655 0.76253 0.2914 0.0
H1746 H 0.38649 0.76883 0.31935 0.0
H1747 H 0.41869 0.7557 0.33695 0.0
H1748 H 0.43914 0.6891 0.31443 0.0
H1749 H 0.40892 0.68251 0.28664 0.0
C1750 C 0.37883 0.7117 0.27981 0.0
C1751 C 0.36449 0.72873 0.27789 0.0
C1752 C 0.39616 0.71525 0.29581 0.0
C1753 C 0.36752 0.74925 0.29238 0.0
C1754 C 0.38458 0.75284 0.30841 0.0
C1755 C 0.41638 0.73964 0.32613 0.0
C1756 C 0.43107 0.72287 0.32783 0.0
C1757 C 0.39903 0.73599 0.31023 0.0
C1758 C 0.42815 0.70234 0.31335 0.0
C1759 C 0.41082 0.69853 0.29753 0.0
H1760 H 0.01771 0.45206 1.00153 0.0
H1761 H 0.99701 0.42035 0.0584 0.0
H1762 H 1.00259 0.38318 0.03779 0.0
H1763 H 0.01285 0.35966 1.00339 0.0
H1764 H 0.03344 0.39145 0.94653 0.0
H1765 H 0.0284 0.42861 0.96734 0.0
C1766 C 0.01429 0.43699 0.00935 0.0
C1767 C 0.00685 0.43894 0.03142 0.0
C1768 C 0.01754 0.41571 0.99742 0.0
C1769 C 1.00289 0.4193 0.04148 0.0
C1770 C 1.00597 0.39805 0.02968 0.0
C1771 C 0.01611 0.37473 0.99554 0.0
C1772 C 0.02348 0.3728 0.97345 0.0
C1773 C 0.0132 0.39604 0.00761 0.0
C1774 C 0.02797 0.3925 0.96359 0.0
C1775 C 0.02499 0.41374 0.97543 0.0
H1776 H 0.70074 0.80375 0.30709 0.0
H1777 H 0.65835 0.79333 0.24873 0.0
H1778 H 0.62784 0.77699 0.26979 0.0
H1779 H 0.61232 0.76934 0.30585 0.0
H1780 H 0.6549 0.78092 0.36433 0.0
H1781 H 0.68622 0.7932 0.34229 0.0
C1782 C 0.68495 0.79738 0.29893 0.0
C1783 C 0.68168 0.7994 0.27647 0.0
C1784 C 0.66746 0.78859 0.31128 0.0
C1785 C 0.66117 0.79158 0.266 0.0
C1786 C 0.64373 0.78244 0.27809 0.0
C1787 C 0.62855 0.77416 0.31369 0.0
C1788 C 0.63116 0.77445 0.3368 0.0
C1789 C 0.64652 0.78137 0.30089 0.0
C1790 C 0.65229 0.78095 0.34669 0.0
C1791 C 0.67026 0.78787 0.33407 0.0
H1792 H 0.03672 0.09302 1.00578 0.0
H1793 H 0.09305 0.12954 0.04216 0.0
H1794 H 0.08751 0.16295 0.02441 0.0
H1795 H 0.06936 0.17992 0.9953 0.0
H1796 H 0.01263 0.14336 0.95909 0.0
H1797 H 0.01573 0.11178 0.97979 0.0
C1798 C 0.04732 0.10856 0.01023 0.0
C1799 C 0.06508 0.10911 0.02533 0.0
C1800 C 0.04429 0.12747 0.9996 0.0
C1801 C 0.07907 0.12902 0.03077 0.0
C1802 C 0.07603 0.14799 0.02046 0.0
C1803 C 0.05735 0.16529 0.99222 0.0
C1804 C 0.04105 0.16397 0.97527 0.0
C1805 C 0.05909 0.14718 1.00436 0.0
C1806 C 0.02578 0.14468 0.97153 0.0
C1807 C 0.0274 0.12663 0.98351 0.0
H1808 H 0.36872 0.28925 0.3026 0.0
H1809 H 0.32173 0.29068 0.24918 0.0
H1810 H 0.35217 0.29049 0.22262 0.0
H1811 H 0.39198 0.28796 0.21424 0.0
H1812 H 0.43893 0.28711 0.26794 0.0
H1813 H 0.40864 0.28847 0.29449 0.0
C1814 C 0.36512 0.28948 0.28513 0.0
C1815 C 0.34291 0.2899 0.27793 0.0
C1816 C 0.3827 0.2892 0.2699 0.0
C1817 C 0.33865 0.29058 0.25526 0.0
C1818 C 0.35605 0.2903 0.24002 0.0
C1819 C 0.39567 0.28837 0.23178 0.0
C1820 C 0.41781 0.28718 0.23892 0.0
C1821 C 0.37814 0.2894 0.24711 0.0
C1822 C 0.42209 0.28749 0.26177 0.0
C1823 C 0.40476 0.28845 0.27705 0.0
H1824 H 0.52763 0.4253 0.03598 0.0
H1825 H 0.59767 0.41622 0.0299 0.0
H1826 H 0.59563 0.39324 0.06033 0.0
H1827 H 0.57301 0.37299 0.08628 0.0
H1828 H 0.50246 0.381 0.09089 0.0
H1829 H 0.50563 0.40739 0.06381 0.0
C1830 C 0.54251 0.4187 0.04175 0.0
C1831 C 0.56281 0.42251 0.03106 0.0
C1832 C 0.54104 0.40514 0.05885 0.0
C1833 C 0.58196 0.41365 0.03822 0.0
C1834 C 0.58073 0.40039 0.05546 0.0
C1835 C 0.55834 0.38056 0.08141 0.0
C1836 C 0.5375 0.37486 0.0906 0.0
C1837 C 0.56021 0.39553 0.06551 0.0
C1838 C 0.51876 0.38518 0.08434 0.0
C1839 C 0.52051 0.40019 0.06869 0.0
H1840 H 0.69335 0.22924 0.24119 0.0
H1841 H 0.66479 0.24517 0.3058 0.0
H1842 H 0.6331 0.26038 0.289 0.0
H1843 H 0.61197 0.26566 0.25527 0.0
H1844 H 0.64044 0.2479 0.19071 0.0
H1845 H 0.67374 0.23695 0.20802 0.0
C1846 C 0.68037 0.23651 0.25157 0.0
C1847 C 0.68128 0.23639 0.27459 0.0
C1848 C 0.6621 0.2446 0.24172 0.0
C1849 C 0.66437 0.24541 0.28801 0.0
C1850 C 0.64625 0.25393 0.27838 0.0
C1851 C 0.62564 0.25974 0.24507 0.0
C1852 C 0.62366 0.25738 0.22173 0.0
C1853 C 0.64468 0.25313 0.25517 0.0
C1854 C 0.64144 0.24954 0.20868 0.0
C1855 C 0.6605 0.24334 0.21856 0.0
H1856 H 0.50894 0.09252 0.03014 0.0
H1857 H 0.44018 0.10286 0.01777 0.0
H1858 H 0.44467 0.13979 0.04087 0.0
H1859 H 0.46749 0.1682 0.06636 0.0
H1860 H 0.53648 0.1582 0.0782 0.0
H1861 H 0.53249 0.12218 0.05362 0.0
C1862 C 0.49505 0.10302 0.03217 0.0
C1863 C 0.47421 0.09482 0.02232 0.0
C1864 C 0.49771 0.12424 0.04561 0.0
C1865 C 0.45632 0.10859 0.02539 0.0
C1866 C 0.45888 0.12975 0.03857 0.0
C1867 C 0.48177 0.15834 0.06332 0.0
C1868 C 0.50219 0.16591 0.07437 0.0
C1869 C 0.4794 0.13761 0.04906 0.0
C1870 C 0.52041 0.15266 0.07034 0.0
C1871 C 0.5182 0.13208 0.05614 0.0
H1872 H 0.26918 0.35137 0.751 0.0
H1873 H 0.32487 0.31596 0.7242 0.0
H1874 H 0.34978 0.3502 0.73328 0.0
H1875 H 0.35571 0.39041 0.74751 0.0
H1876 H 0.3006 0.42648 0.77472 0.0
H1877 H 0.27555 0.39197 0.76661 0.0
C1878 C 0.2868 0.35117 0.74736 0.0
C1879 C 0.2951 0.3312 0.73674 0.0
C1880 C 0.30114 0.37109 0.75252 0.0
C1881 C 0.31798 0.3312 0.73204 0.0
C1882 C 0.33227 0.35076 0.73729 0.0
C1883 C 0.33829 0.39071 0.75198 0.0
C1884 C 0.33012 0.41107 0.76175 0.0
C1885 C 0.32402 0.37084 0.74732 0.0
C1886 C 0.30734 0.41114 0.76695 0.0
C1887 C 0.29301 0.39136 0.76244 0.0
H1888 H 0.29761 0.68703 0.82161 0.0
H1889 H 0.24458 0.64293 0.78696 0.0
H1890 H 0.26869 0.61181 0.78214 0.0
H1891 H 0.3052 0.59745 0.78661 0.0
H1892 H 0.35856 0.64149 0.8208 0.0
H1893 H 0.33407 0.67229 0.82687 0.0
C1894 C 0.2913 0.67052 0.81324 0.0
C1895 C 0.26937 0.66728 0.80462 0.0
C1896 C 0.30537 0.65274 0.81029 0.0
C1897 C 0.26147 0.64588 0.79356 0.0
C1898 C 0.27523 0.62808 0.79084 0.0
C1899 C 0.3114 0.61371 0.79561 0.0
C1900 C 0.33369 0.61714 0.80322 0.0
C1901 C 0.29726 0.63136 0.79896 0.0
C1902 C 0.34155 0.63846 0.81454 0.0
C1903 C 0.32752 0.65605 0.81812 0.0
H1904 H 0.93071 0.525 0.53236 0.0
H1905 H 0.92439 0.5094 0.46094 0.0
H1906 H 0.89056 0.48499 0.46458 0.0
H1907 H 0.86351 0.46696 0.48788 0.0
H1908 H 0.86875 0.48325 0.55932 0.0
H1909 H 0.90225 0.50832 0.5558 0.0
C1910 C 0.92176 0.51649 0.5176 0.0
C1911 C 0.93023 0.51891 0.49641 0.0
C1912 C 0.9022 0.50242 0.51979 0.0
C1913 C 0.91849 0.50756 0.47747 0.0
C1914 C 0.89907 0.49365 0.47952 0.0
C1915 C 0.87173 0.47623 0.50271 0.0
C1916 C 0.86355 0.47308 0.52383 0.0
C1917 C 0.89089 0.49078 0.50058 0.0
C1918 C 0.8748 0.485 0.54283 0.0
C1919 C 0.89391 0.49949 0.54084 0.0
H1920 H 0.76449 0.84942 0.76604 0.0
H1921 H 0.74955 0.8468 0.83492 0.0
H1922 H 0.7327 0.88299 0.83743 0.0
H1923 H 0.72082 0.91448 0.81939 0.0
H1924 H 0.7352 0.91642 0.7501 0.0
H1925 H 0.7539 0.88165 0.74841 0.0
C1926 C 0.75777 0.85701 0.78163 0.0
C1927 C 0.75825 0.84577 0.80032 0.0
C1928 C 0.74796 0.87763 0.78282 0.0
C1929 C 0.7494 0.85542 0.82041 0.0
C1930 C 0.73972 0.876 0.82179 0.0
C1931 C 0.72801 0.90727 0.80392 0.0
C1932 C 0.72655 0.91809 0.7849 0.0
C1933 C 0.73863 0.88711 0.803 0.0
C1934 C 0.73628 0.90865 0.76507 0.0
C1935 C 0.74687 0.88866 0.76403 0.0
H1936 H 0.62504 0.49078 0.98575 0.0
H1937 H 0.57782 0.54125 0.99756 0.0
H1938 H 0.60837 0.57091 1.00581 0.0
H1939 H 0.6486 0.58275 0.00706 0.0
H1940 H 0.69579 0.53234 0.99357 0.0
H1941 H 0.66529 0.50247 0.98847 0.0
C1942 C 0.62149 0.50823 0.99057 0.0
C1943 C 0.59926 0.51385 0.99121 0.0
C1944 C 0.63916 0.52524 0.99466 0.0
C1945 C 0.59484 0.53656 0.99702 0.0
C1946 C 0.61229 0.55351 1.00165 0.0
C1947 C 0.6522 0.56521 1.00327 0.0
C1948 C 0.67445 0.55982 1.00057 0.0
C1949 C 0.63453 0.5481 1.00011 0.0
C1950 C 0.67881 0.53699 0.99541 0.0
C1951 C 0.66138 0.51988 0.99261 0.0
H1952 H 0.27001 0.69767 0.23535 0.0
H1953 H 0.3265 0.65887 0.24118 0.0
H1954 H 0.30156 0.62497 0.24262 0.0
H1955 H 0.26383 0.60698 0.24502 0.0
H1956 H 0.20718 0.64501 0.23694 0.0
H1957 H 0.23211 0.67851 0.23374 0.0
C1958 C 0.2769 0.68172 0.23647 0.0
C1959 C 0.30013 0.68097 0.23848 0.0
C1960 C 0.26243 0.66216 0.23722 0.0
C1961 C 0.30869 0.6601 0.24008 0.0
C1962 C 0.29444 0.64065 0.24084 0.0
C1963 C 0.25683 0.6224 0.2421 0.0
C1964 C 0.23352 0.62336 0.24154 0.0
C1965 C 0.27127 0.64158 0.23989 0.0
C1966 C 0.22498 0.64377 0.23805 0.0
C1967 C 0.23925 0.66297 0.23601 0.0
H1968 H 0.93828 0.53745 0.00744 0.0
H1969 H 0.94118 0.54509 0.07892 0.0
H1970 H 0.90831 0.56719 0.08096 0.0
H1971 H 0.87848 0.58386 0.06191 0.0
H1972 H 0.87666 0.57585 0.99014 0.0
H1973 H 0.90922 0.55423 0.98865 0.0
C1974 C 0.93166 0.54403 0.02344 0.0
C1975 C 0.94189 0.53984 0.043 0.0
C1976 C 0.91292 0.55652 0.02437 0.0
C1977 C 0.9334 0.54826 0.06369 0.0
C1978 C 0.91466 0.56084 0.06481 0.0
C1979 C 0.88532 0.57749 0.04598 0.0
C1980 C 0.87495 0.58132 0.02616 0.0
C1981 C 0.90425 0.56505 0.04521 0.0
C1982 C 0.88397 0.57281 1.00564 0.0
C1983 C 0.90271 0.56055 1.00475 0.0
H1984 H 0.13777 0.02874 0.0592 0.0
H1985 H 0.08527 0.97983 0.07377 0.0
H1986 H 0.11151 0.95042 0.07029 0.0
H1987 H 0.14925 0.93838 0.06165 0.0
H1988 H 0.20114 0.98768 0.0463 0.0
H1989 H 0.17527 0.01708 0.05148 0.0
C1990 C 0.13204 0.01161 0.06153 0.0
C1991 C 0.10956 1.00645 0.06655 0.0
C1992 C 0.14712 0.99484 0.05932 0.0
C1993 C 0.10251 0.98429 0.07001 0.0
C1994 C 0.11748 0.96744 0.06788 0.0
C1995 C 0.15485 0.95555 0.05938 0.0
C1996 C 0.17715 0.96078 0.05363 0.0
C1997 C 0.13979 0.97247 0.06228 0.0
C1998 C 0.1842 0.98319 0.05103 0.0
C1999 C 0.16937 1.00003 0.05385 0.0
loop_
_geom_bond_atom_site_label_1
_geom_bond_atom_site_label_2
_geom_bond_distance
_geom_bond_site_symmetry_2
_ccdc_geom_bond_type
H0 C3 0.929 . S
H1 C6 0.929 . S
H2 C8 0.930 . S
C3 H0 0.929 . S
C3 C4 1.398 . S
C3 C5 1.396 . S
C4 C3 1.398 . S
C4 C8 1.407 . S
C5 C3 1.396 . S
C5 C6 1.394 . S
C6 H1 0.929 . S
C6 C5 1.394 . S
C6 C7 1.382 . S
C7 C6 1.382 . S
C7 C8 1.392 . S
C7 N9 1.420 . S
C8 H2 0.930 . S
C8 C4 1.407 . S
C8 C7 1.392 . S
N9 C7 1.420 . S
N9 C10 1.244 . S
C10 N9 1.244 . S
H11 C14 0.929 . S
H12 C17 0.929 . S
H13 C19 0.930 . S
C14 H11 0.929 . S
C14 C15 1.398 . S
C14 C16 1.396 . S
C15 C14 1.398 . S
C15 C19 1.407 . S
C16 C14 1.396 . S
C16 C17 1.394 . S
C17 H12 0.929 . S
C17 C16 1.394 . S
C17 C18 1.382 . S
C18 C17 1.382 . S
C18 C19 1.392 . S
C18 N20 1.420 . S
C19 H13 0.930 . S
C19 C15 1.407 . S
C19 C18 1.392 . S
N20 C18 1.420 . S
N20 C21 1.244 . S
C21 N20 1.244 . S
H22 C25 0.929 . S
H23 C28 0.929 . S
H24 C30 0.930 1_556 S
C25 H22 0.929 . S
C25 C26 1.398 1_455 S
C25 C27 1.396 . S
C26 C25 1.398 1_655 S
C26 C30 1.407 . S
C27 C25 1.396 . S
C27 C28 1.394 1_455 S
C28 H23 0.929 . S
C28 C27 1.394 1_655 S
C28 C29 1.382 . S
C29 C28 1.382 . S
C29 C30 1.392 . S
C29 N31 1.420 . S
C30 H24 0.930 1_554 S
C30 C26 1.407 . S
C30 C29 1.392 . S
N31 C29 1.420 . S
N31 C32 1.244 . S
C32 N31 1.244 . S
H33 C36 0.929 . S
H34 C39 0.929 . S
H35 C41 0.930 . S
C36 H33 0.929 . S
C36 C37 1.398 . S
C36 C38 1.396 . S
C37 C36 1.398 . S
C37 C41 1.407 . S
C38 C36 1.396 . S
C38 C39 1.394 . S
C39 H34 0.929 . S
C39 C38 1.394 . S
C39 C40 1.382 . S
C40 C39 1.382 . S
C40 C41 1.392 . S
C40 N42 1.420 . S
C41 H35 0.930 . S
C41 C37 1.407 . S
C41 C40 1.392 . S
N42 C40 1.420 . S
N42 C43 1.244 . S
C43 N42 1.244 . S
H44 C47 0.929 1_545 S
H45 C50 0.929 . S
H46 C52 0.930 . S
C47 H44 0.929 1_565 S
C47 C48 1.398 . S
C47 C49 1.396 . S
C48 C47 1.398 . S
C48 C52 1.407 . S
C49 C47 1.396 . S
C49 C50 1.394 . S
C50 H45 0.929 . S
C50 C49 1.394 . S
C50 C51 1.382 . S
C51 C50 1.382 . S
C51 C52 1.392 . S
C51 N53 1.420 . S
C52 H46 0.930 . S
C52 C48 1.407 . S
C52 C51 1.392 . S
N53 C51 1.420 . S
N53 C54 1.244 . S
C54 N53 1.244 . S
H55 C58 0.929 . S
H56 C61 0.929 . S
H57 C63 0.930 . S
C58 H55 0.929 . S
C58 C59 1.398 . S
C58 C60 1.396 . S
C59 C58 1.398 . S
C59 C63 1.407 . S
C60 C58 1.396 . S
C60 C61 1.394 . S
C61 H56 0.929 . S
C61 C60 1.394 . S
C61 C62 1.382 . S
C62 C61 1.382 . S
C62 C63 1.392 . S
C62 N64 1.420 . S
C63 H57 0.930 . S
C63 C59 1.407 . S
C63 C62 1.392 . S
N64 C62 1.420 . S
N64 C65 1.244 . S
C65 N64 1.244 . S
H66 C69 0.929 . S
H67 C72 0.930 1_455 S
H68 C74 0.930 . S
C69 H66 0.929 . S
C69 C70 1.398 . S
C69 C71 1.396 . S
C70 C69 1.398 . S
C70 C74 1.407 . S
C71 C69 1.396 . S
C71 C72 1.393 . S
C72 H67 0.930 1_655 S
C72 C71 1.393 . S
C72 C73 1.381 . S
C73 C72 1.381 . S
C73 C74 1.392 . S
C73 N75 1.420 1_655 S
C74 H68 0.930 . S
C74 C70 1.407 . S
C74 C73 1.392 . S
N75 C73 1.420 1_455 S
N75 C76 1.244 . S
C76 N75 1.244 . S
H77 C80 0.929 . S
H78 C83 0.929 . S
H79 C85 0.930 . S
C80 H77 0.929 . S
C80 C81 1.398 . S
C80 C82 1.396 . S
C81 C80 1.398 . S
C81 C85 1.407 . S
C82 C80 1.396 . S
C82 C83 1.394 . S
C83 H78 0.929 . S
C83 C82 1.394 . S
C83 C84 1.382 . S
C84 C83 1.382 . S
C84 C85 1.392 . S
C84 N86 1.420 . S
C85 H79 0.930 . S
C85 C81 1.407 . S
C85 C84 1.392 . S
N86 C84 1.420 . S
N86 C87 1.244 . S
C87 N86 1.244 . S
H88 C91 0.929 . S
H89 C94 0.929 . S
H90 C96 0.930 . S
C91 H88 0.929 . S
C91 C92 1.398 . S
C91 C93 1.396 . S
C92 C91 1.398 . S
C92 C96 1.407 . S
C93 C91 1.396 . S
C93 C94 1.394 . S
C94 H89 0.929 . S
C94 C93 1.394 . S
C94 C95 1.382 . S
C95 C94 1.382 . S
C95 C96 1.392 . S
C95 N97 1.420 . S
C96 H90 0.930 . S
C96 C92 1.407 . S
C96 C95 1.392 . S
N97 C95 1.420 . S
N97 C98 1.244 . S
C98 N97 1.244 . S
H99 C102 0.929 . S
H100 C105 0.905 1_545 S
H101 C107 0.930 . S
C102 H99 0.929 . S
C102 C103 1.398 . S
C102 C104 1.396 . S
C103 C102 1.398 . S
C103 C107 1.407 . S
C104 C102 1.396 . S
C104 C105 1.416 . S
C105 H100 0.905 1_565 S
C105 C104 1.416 . S
C105 C106 1.385 . S
C106 C105 1.385 . S
C106 C107 1.392 . S
C106 N108 1.420 1_565 S
C107 H101 0.930 . S
C107 C103 1.407 . S
C107 C106 1.392 . S
N108 C106 1.420 1_545 S
N108 C109 1.244 . S
C109 N108 1.244 . S
H110 C113 0.929 . S
H111 C116 0.929 . S
H112 C118 0.930 . S
C113 H110 0.929 . S
C113 C114 1.398 . S
C113 C115 1.396 . S
C114 C113 1.398 . S
C114 C118 1.407 . S
C115 C113 1.396 . S
C115 C116 1.394 . S
C116 H111 0.929 . S
C116 C115 1.394 . S
C116 C117 1.382 . S
C117 C116 1.382 . S
C117 C118 1.392 . S
C117 N119 1.420 . S
C118 H112 0.930 . S
C118 C114 1.407 . S
C118 C117 1.392 . S
N119 C117 1.420 . S
N119 C120 1.244 . S
C120 N119 1.244 . S
H121 C124 0.929 . S
H122 C127 0.929 . S
H123 C129 0.930 . S
C124 H121 0.929 . S
C124 C125 1.398 . S
C124 C126 1.396 . S
C125 C124 1.398 . S
C125 C129 1.407 . S
C126 C124 1.396 . S
C126 C127 1.394 . S
C127 H122 0.929 . S
C127 C126 1.394 . S
C127 C128 1.382 . S
C128 C127 1.382 . S
C128 C129 1.392 . S
C128 N130 1.420 . S
C129 H123 0.930 . S
C129 C125 1.407 . S
C129 C128 1.392 . S
N130 C128 1.420 . S
N130 C131 1.244 . S
C131 N130 1.244 . S
H132 C135 0.929 . S
H133 C138 0.929 . S
H134 C140 0.930 . S
C135 H132 0.929 . S
C135 C136 1.398 . S
C135 C137 1.396 . S
C136 C135 1.398 . S
C136 C140 1.407 . S
C137 C135 1.396 . S
C137 C138 1.394 . S
C138 H133 0.929 . S
C138 C137 1.394 . S
C138 C139 1.382 . S
C139 C138 1.382 . S
C139 C140 1.392 . S
C139 N141 1.420 . S
C140 H134 0.930 . S
C140 C136 1.407 . S
C140 C139 1.392 . S
N141 C139 1.420 . S
N141 C142 1.244 . S
C142 N141 1.244 . S
H143 C146 0.929 . S
H144 C149 0.929 . S
H145 C151 0.930 . S
C146 H143 0.929 . S
C146 C147 1.398 . S
C146 C148 1.396 . S
C147 C146 1.398 . S
C147 C151 1.407 . S
C148 C146 1.396 . S
C148 C149 1.394 1_556 S
C149 H144 0.929 . S
C149 C148 1.394 1_554 S
C149 C150 1.382 . S
C150 C149 1.382 . S
C150 C151 1.392 1_554 S
C150 N152 1.420 . S
C151 H145 0.930 . S
C151 C147 1.407 . S
C151 C150 1.392 1_556 S
N152 C150 1.420 . S
N152 C153 1.244 . S
C153 N152 1.244 . S
H154 C157 0.929 . S
H155 C160 0.929 . S
H156 C162 0.930 . S
C157 H154 0.929 . S
C157 C158 1.398 . S
C157 C159 1.396 . S
C158 C157 1.398 . S
C158 C162 1.407 . S
C159 C157 1.396 . S
C159 C160 1.394 . S
C160 H155 0.929 . S
C160 C159 1.394 . S
C160 C161 1.382 . S
C161 C160 1.382 . S
C161 C162 1.392 . S
C161 N163 1.420 . S
C162 H156 0.930 . S
C162 C158 1.407 . S
C162 C161 1.392 . S
N163 C161 1.420 . S
N163 C164 1.244 . S
C164 N163 1.244 . S
H165 C168 0.929 1_554 S
H166 C171 0.929 . S
H167 C173 0.930 1_565 S
C168 H165 0.929 1_556 S
C168 C169 1.398 . S
C168 C170 1.396 . S
C169 C168 1.398 . S
C169 C173 1.407 . S
C170 C168 1.396 . S
C170 C171 1.394 . S
C171 H166 0.929 . S
C171 C170 1.394 . S
C171 C172 1.382 . S
C172 C171 1.382 . S
C172 C173 1.392 . S
C172 N174 1.420 . S
C173 H167 0.930 1_545 S
C173 C169 1.407 . S
C173 C172 1.392 . S
N174 C172 1.420 . S
N174 C175 1.244 . S
C175 N174 1.244 . S
Li176 N193 1.990 . S
Li176 O236 1.956 . S
Li176 O237 1.970 . S
Li176 O238 1.961 . S
Li177 N201 1.990 . S
Li177 O236 1.970 . S
Li177 O237 1.956 . S
Li177 O239 1.961 . S
Li178 N223 1.990 1_554 S
Li178 O236 1.961 . S
Li178 O238 1.956 . S
Li178 O239 1.970 . S
Li179 N229 1.990 . S
Li179 O237 1.961 . S
Li179 O238 1.970 . S
Li179 O239 1.956 . S
C180 C182 1.348 . S
C180 C183 1.356 . S
C180 O236 1.325 . S
N181 C184 1.314 . S
N181 C185 1.279 . S
C182 C180 1.348 . S
C182 C184 1.353 . S
C182 H240 0.929 . S
C183 C180 1.356 . S
C183 C185 1.358 . S
C183 H241 0.930 1_554 S
C184 N181 1.314 . S
C184 C182 1.353 . S
C184 H242 0.930 . S
C185 N181 1.279 . S
C185 C183 1.358 . S
C185 H243 0.930 1_554 S
C186 C189 1.348 . S
C186 C190 1.356 . S
C186 O237 1.325 . S
C187 N188 1.279 . S
C187 C190 1.358 . S
C187 H244 0.930 . S
N188 C187 1.279 . S
N188 C191 1.314 . S
C189 C186 1.348 . S
C189 C191 1.353 . S
C189 H245 0.929 . S
C190 C186 1.356 . S
C190 C187 1.358 . S
C190 H246 0.930 . S
C191 N188 1.314 . S
C191 C189 1.353 . S
C191 H247 0.930 . S
C192 N193 1.314 . S
C192 C197 1.353 . S
C192 H198 0.930 . S
N193 Li176 1.990 . S
N193 C192 1.314 . S
N193 C195 1.279 . S
C194 C195 1.358 . S
C194 C196 1.356 . S
C194 H248 0.930 . S
C195 N193 1.279 . S
C195 C194 1.358 . S
C195 H199 0.930 . S
C196 C194 1.356 . S
C196 C197 1.348 . S
C197 C192 1.353 . S
C197 C196 1.348 . S
C197 H249 0.929 . S
H198 C192 0.930 . S
H199 C195 0.930 . S
C200 N201 1.314 . S
C200 C202 1.353 . S
C200 H206 0.930 . S
N201 Li177 1.990 . S
N201 C200 1.314 . S
N201 C204 1.279 . S
C202 C200 1.353 . S
C202 C205 1.348 . S
C202 H250 0.929 . S
C203 C204 1.358 . S
C203 C205 1.356 . S
C203 H251 0.930 . S
C204 N201 1.279 . S
C204 C203 1.358 . S
C204 H207 0.930 . S
C205 C202 1.348 . S
C205 C203 1.356 . S
H206 C200 0.930 . S
H207 C204 0.930 . S
C208 C210 1.348 . S
C208 C211 1.356 . S
C208 O238 1.325 1_556 S
N209 C212 1.314 . S
N209 C213 1.279 . S
C210 C208 1.348 . S
C210 C212 1.353 . S
C210 H252 0.907 1_556 S
C211 C208 1.356 . S
C211 C213 1.358 . S
C211 H253 0.930 . S
C212 N209 1.314 . S
C212 C210 1.353 . S
C212 H254 0.930 . S
C213 N209 1.279 . S
C213 C211 1.358 . S
C213 H255 0.930 . S
C214 C215 1.348 . S
C214 C216 1.356 . S
C214 O239 1.325 . S
C215 C214 1.348 . S
C215 C217 1.353 . S
C215 H256 0.929 . S
C216 C214 1.356 . S
C216 C218 1.358 . S
C216 H257 0.930 . S
C217 C215 1.353 . S
C217 N219 1.314 . S
C217 H258 0.930 . S
C218 C216 1.358 . S
C218 N219 1.279 . S
C218 H259 0.930 . S
N219 C217 1.314 . S
N219 C218 1.279 . S
C220 C222 1.353 . S
C220 N223 1.314 . S
C220 H226 0.930 . S
C221 N223 1.279 . S
C221 C224 1.358 . S
C221 H227 0.930 . S
C222 C220 1.353 . S
C222 C225 1.348 . S
C222 H260 0.929 . S
N223 Li178 1.990 1_556 S
N223 C220 1.314 . S
N223 C221 1.279 . S
C224 C221 1.358 . S
C224 C225 1.356 . S
C224 H261 0.930 . S
C225 C222 1.348 . S
C225 C224 1.356 . S
H226 C220 0.930 . S
H227 C221 0.930 . S
C228 N229 1.314 . S
C228 C230 1.353 . S
C228 H234 0.930 . S
N229 Li179 1.990 . S
N229 C228 1.314 . S
N229 C232 1.279 . S
C230 C228 1.353 . S
C230 C233 1.348 . S
C230 H262 0.929 . S
C231 C232 1.358 . S
C231 C233 1.356 . S
C231 H263 0.930 . S
C232 N229 1.279 . S
C232 C231 1.358 . S
C232 H235 0.930 . S
C233 C230 1.348 . S
C233 C231 1.356 . S
H234 C228 0.930 . S
H235 C232 0.930 . S
O236 Li176 1.956 . S
O236 Li177 1.970 . S
O236 Li178 1.961 . S
O236 C180 1.325 . S
O237 Li176 1.970 . S
O237 Li177 1.956 . S
O237 Li179 1.961 . S
O237 C186 1.325 . S
O238 Li176 1.961 . S
O238 Li178 1.956 . S
O238 Li179 1.970 . S
O238 C208 1.325 1_554 S
O239 Li177 1.961 . S
O239 Li178 1.970 . S
O239 Li179 1.956 . S
O239 C214 1.325 . S
H240 C182 0.929 . S
H241 C183 0.930 1_556 S
H242 C184 0.930 . S
H243 C185 0.930 1_556 S
H244 C187 0.930 . S
H245 C189 0.929 . S
H246 C190 0.930 . S
H247 C191 0.930 . S
H248 C194 0.930 . S
H249 C197 0.929 . S
H250 C202 0.929 . S
H251 C203 0.930 . S
H252 C210 0.907 1_554 S
H253 C211 0.930 . S
H254 C212 0.930 . S
H255 C213 0.930 . S
H256 C215 0.929 . S
H257 C216 0.930 . S
H258 C217 0.930 . S
H259 C218 0.930 . S
H260 C222 0.929 . S
H261 C224 0.930 . S
H262 C230 0.929 . S
H263 C231 0.930 . S
Li264 N281 1.990 . S
Li264 O324 1.956 . S
Li264 O325 1.970 . S
Li264 O326 1.961 . S
Li265 N289 1.990 . S
Li265 O324 1.970 . S
Li265 O325 1.956 . S
Li265 O327 1.961 . S
Li266 N311 1.990 . S
Li266 O324 1.961 . S
Li266 O326 1.956 . S
Li266 O327 1.970 . S
Li267 N317 1.990 . S
Li267 O325 1.961 . S
Li267 O326 1.970 . S
Li267 O327 1.956 . S
C268 C270 1.348 . S
C268 C271 1.356 . S
C268 O324 1.325 . S
N269 C272 1.314 . S
N269 C273 1.279 . S
C270 C268 1.348 . S
C270 C272 1.353 . S
C270 H328 0.929 . S
C271 C268 1.356 . S
C271 C273 1.358 . S
C271 H329 0.930 . S
C272 N269 1.314 . S
C272 C270 1.353 . S
C272 H330 0.930 . S
C273 N269 1.279 . S
C273 C271 1.358 . S
C273 H331 0.930 . S
C274 C277 1.348 . S
C274 C278 1.356 . S
C274 O325 1.325 . S
C275 N276 1.279 . S
C275 C278 1.358 . S
C275 H332 0.930 . S
N276 C275 1.279 . S
N276 C279 1.314 . S
C277 C274 1.348 . S
C277 C279 1.353 . S
C277 H333 0.929 . S
C278 C274 1.356 . S
C278 C275 1.358 . S
C278 H334 0.930 . S
C279 N276 1.314 . S
C279 C277 1.353 . S
C279 H335 0.930 . S
C280 N281 1.314 . S
C280 C285 1.353 . S
C280 H286 0.930 . S
N281 Li264 1.990 . S
N281 C280 1.314 . S
N281 C283 1.279 . S
C282 C283 1.358 . S
C282 C284 1.356 . S
C282 H336 0.930 . S
C283 N281 1.279 . S
C283 C282 1.358 . S
C283 H287 0.930 . S
C284 C282 1.356 . S
C284 C285 1.348 . S
C285 C280 1.353 . S
C285 C284 1.348 . S
C285 H337 0.929 . S
H286 C280 0.930 . S
H287 C283 0.930 . S
C288 N289 1.314 . S
C288 C290 1.353 . S
C288 H294 0.930 . S
N289 Li265 1.990 . S
N289 C288 1.314 . S
N289 C292 1.279 . S
C290 C288 1.353 . S
C290 C293 1.348 . S
C290 H338 0.929 . S
C291 C292 1.358 . S
C291 C293 1.356 . S
C291 H339 0.930 . S
C292 N289 1.279 . S
C292 C291 1.358 . S
C292 H295 0.930 . S
C293 C290 1.348 . S
C293 C291 1.356 . S
H294 C288 0.930 . S
H295 C292 0.930 . S
C296 C298 1.348 . S
C296 C299 1.356 . S
C296 O326 1.325 . S
N297 C300 1.314 . S
N297 C301 1.279 . S
C298 C296 1.348 . S
C298 C300 1.353 . S
C298 H340 0.929 . S
C299 C296 1.356 . S
C299 C301 1.358 . S
C299 H341 0.930 . S
C300 N297 1.314 . S
C300 C298 1.353 . S
C300 H342 0.930 . S
C301 N297 1.279 . S
C301 C299 1.358 . S
C301 H343 0.930 . S
C302 C303 1.348 . S
C302 C304 1.356 . S
C302 O327 1.325 . S
C303 C302 1.348 . S
C303 C305 1.353 . S
C303 H344 0.929 . S
C304 C302 1.356 . S
C304 C306 1.358 . S
C304 H345 0.930 . S
C305 C303 1.353 . S
C305 N307 1.314 . S
C305 H346 0.930 . S
C306 C304 1.358 . S
C306 N307 1.279 . S
C306 H347 0.930 . S
N307 C305 1.314 . S
N307 C306 1.279 . S
C308 C310 1.353 . S
C308 N311 1.314 . S
C308 H314 0.930 . S
C309 N311 1.279 . S
C309 C312 1.358 . S
C309 H315 0.930 . S
C310 C308 1.353 . S
C310 C313 1.348 . S
C310 H348 0.929 . S
N311 Li266 1.990 . S
N311 C308 1.314 . S
N311 C309 1.279 . S
C312 C309 1.358 . S
C312 C313 1.356 . S
C312 H349 0.930 . S
C313 C310 1.348 . S
C313 C312 1.356 . S
H314 C308 0.930 . S
H315 C309 0.930 . S
C316 N317 1.314 . S
C316 C318 1.353 . S
C316 H322 0.930 . S
N317 Li267 1.990 . S
N317 C316 1.314 . S
N317 C320 1.279 . S
C318 C316 1.353 . S
C318 C321 1.348 . S
C318 H350 0.929 . S
C319 C320 1.358 . S
C319 C321 1.356 . S
C319 H351 0.930 . S
C320 N317 1.279 . S
C320 C319 1.358 . S
C320 H323 0.930 . S
C321 C318 1.348 . S
C321 C319 1.356 . S
H322 C316 0.930 . S
H323 C320 0.930 . S
O324 Li264 1.956 . S
O324 Li265 1.970 . S
O324 Li266 1.961 . S
O324 C268 1.325 . S
O325 Li264 1.970 . S
O325 Li265 1.956 . S
O325 Li267 1.961 . S
O325 C274 1.325 . S
O326 Li264 1.961 . S
O326 Li266 1.956 . S
O326 Li267 1.970 . S
O326 C296 1.325 . S
O327 Li265 1.961 . S
O327 Li266 1.970 . S
O327 Li267 1.956 . S
O327 C302 1.325 . S
H328 C270 0.929 . S
H329 C271 0.930 . S
H330 C272 0.930 . S
H331 C273 0.930 . S
H332 C275 0.930 . S
H333 C277 0.929 . S
H334 C278 0.930 . S
H335 C279 0.930 . S
H336 C282 0.930 . S
H337 C285 0.929 . S
H338 C290 0.929 . S
H339 C291 0.930 . S
H340 C298 0.929 . S
H341 C299 0.930 . S
H342 C300 0.930 . S
H343 C301 0.930 . S
H344 C303 0.929 . S
H345 C304 0.930 . S
H346 C305 0.930 . S
H347 C306 0.930 . S
H348 C310 0.929 . S
H349 C312 0.930 . S
H350 C318 0.929 . S
H351 C319 0.930 . S
Li352 N369 1.990 . S
Li352 O412 1.960 1_556 S
Li352 O413 1.970 1_556 S
Li352 O414 1.961 . S
Li353 N377 1.990 . S
Li353 O412 2.000 . S
Li353 O413 1.956 . S
Li353 O415 1.961 . S
Li354 N399 1.990 . S
Li354 O412 1.935 1_556 S
Li354 O414 1.956 . S
Li354 O415 1.970 1_556 S
Li355 N405 1.990 . S
Li355 O413 1.961 . S
Li355 O414 1.970 1_554 S
Li355 O415 1.956 . S
C356 C358 1.321 1_556 S
C356 C359 1.388 . S
C356 O412 1.317 1_556 S
N357 C360 1.314 1_556 S
N357 C361 1.279 . S
C358 C356 1.321 1_554 S
C358 C360 1.353 . S
C358 H416 0.929 . S
C359 C356 1.388 . S
C359 C361 1.358 . S
C359 H417 0.930 . S
C360 N357 1.314 1_554 S
C360 C358 1.353 . S
C360 H418 0.930 . S
C361 N357 1.279 . S
C361 C359 1.358 . S
C361 H419 0.930 . S
C362 C365 1.348 . S
C362 C366 1.356 . S
C362 O413 1.325 . S
C363 N364 1.279 . S
C363 C366 1.358 . S
C363 H420 0.930 . S
N364 C363 1.279 . S
N364 C367 1.314 . S
C365 C362 1.348 . S
C365 C367 1.353 . S
C365 H421 0.929 . S
C366 C362 1.356 . S
C366 C363 1.358 . S
C366 H422 0.930 . S
C367 N364 1.314 . S
C367 C365 1.353 . S
C367 H423 0.930 . S
C368 N369 1.314 . S
C368 C373 1.353 . S
C368 H374 0.930 . S
N369 Li352 1.990 . S
N369 C368 1.314 . S
N369 C371 1.279 . S
C370 C371 1.358 . S
C370 C372 1.356 . S
C370 H424 0.930 . S
C371 N369 1.279 . S
C371 C370 1.358 . S
C371 H375 0.930 1_556 S
C372 C370 1.356 . S
C372 C373 1.348 . S
C373 C368 1.353 . S
C373 C372 1.348 . S
C373 H425 0.929 . S
H374 C368 0.930 . S
H375 C371 0.930 1_554 S
C376 N377 1.314 . S
C376 C378 1.353 . S
C376 H382 0.930 . S
N377 Li353 1.990 . S
N377 C376 1.314 . S
N377 C380 1.279 . S
C378 C376 1.353 . S
C378 C381 1.348 . S
C378 H426 0.929 . S
C379 C380 1.358 . S
C379 C381 1.356 . S
C379 H427 0.930 . S
C380 N377 1.279 . S
C380 C379 1.358 . S
C380 H383 0.930 . S
C381 C378 1.348 . S
C381 C379 1.356 . S
H382 C376 0.930 . S
H383 C380 0.930 . S
C384 C386 1.348 . S
C384 C387 1.356 . S
C384 O414 1.325 . S
N385 C388 1.314 . S
N385 C389 1.279 . S
C386 C384 1.348 . S
C386 C388 1.353 . S
C386 H428 0.929 . S
C387 C384 1.356 . S
C387 C389 1.358 . S
C387 H429 0.930 . S
C388 N385 1.314 . S
C388 C386 1.353 . S
C388 H430 0.930 . S
C389 N385 1.279 . S
C389 C387 1.358 . S
C389 H431 0.930 . S
C390 C391 1.348 1_554 S
C390 C392 1.356 . S
C390 O415 1.325 . S
C391 C390 1.348 1_556 S
C391 C393 1.353 . S
C391 H432 0.929 . S
C392 C390 1.356 . S
C392 C394 1.358 . S
C392 H433 0.930 . S
C393 C391 1.353 . S
C393 N395 1.314 1_556 S
C393 H434 0.930 . S
C394 C392 1.358 . S
C394 N395 1.279 . S
C394 H435 0.930 . S
N395 C393 1.314 1_554 S
N395 C394 1.279 . S
C396 C398 1.353 . S
C396 N399 1.314 . S
C396 H402 0.930 . S
C397 N399 1.279 . S
C397 C400 1.358 . S
C397 H403 0.930 . S
C398 C396 1.353 . S
C398 C401 1.348 . S
C398 H436 0.929 . S
N399 Li354 1.990 . S
N399 C396 1.314 . S
N399 C397 1.279 . S
C400 C397 1.358 . S
C400 C401 1.356 . S
C400 H437 0.930 . S
C401 C398 1.348 . S
C401 C400 1.356 . S
H402 C396 0.930 . S
H403 C397 0.930 . S
C404 N405 1.314 . S
C404 C406 1.353 . S
C404 H410 0.930 . S
N405 Li355 1.990 . S
N405 C404 1.314 . S
N405 C408 1.279 . S
C406 C404 1.353 . S
C406 C409 1.348 . S
C406 H438 0.929 . S
C407 C408 1.358 . S
C407 C409 1.356 . S
C407 H439 0.930 . S
C408 N405 1.279 . S
C408 C407 1.358 . S
C408 H411 0.930 . S
C409 C406 1.348 . S
C409 C407 1.356 . S
H410 C404 0.930 . S
H411 C408 0.930 . S
O412 Li352 1.960 1_554 S
O412 Li353 2.000 . S
O412 Li354 1.935 1_554 S
O412 C356 1.317 1_554 S
O413 Li352 1.970 1_554 S
O413 Li353 1.956 . S
O413 Li355 1.961 . S
O413 C362 1.325 . S
O414 Li352 1.961 . S
O414 Li354 1.956 . S
O414 Li355 1.970 1_556 S
O414 C384 1.325 . S
O415 Li353 1.961 . S
O415 Li354 1.970 1_554 S
O415 Li355 1.956 . S
O415 C390 1.325 . S
H416 C358 0.929 . S
H417 C359 0.930 . S
H418 C360 0.930 . S
H419 C361 0.930 . S
H420 C363 0.930 . S
H421 C365 0.929 . S
H422 C366 0.930 . S
H423 C367 0.930 . S
H424 C370 0.930 . S
H425 C373 0.929 . S
H426 C378 0.929 . S
H427 C379 0.930 . S
H428 C386 0.929 . S
H429 C387 0.930 . S
H430 C388 0.930 . S
H431 C389 0.930 . S
H432 C391 0.929 . S
H433 C392 0.930 . S
H434 C393 0.930 . S
H435 C394 0.930 . S
H436 C398 0.929 . S
H437 C400 0.930 . S
H438 C406 0.929 . S
H439 C407 0.930 . S
Li440 N457 1.990 . S
Li440 O500 1.956 . S
Li440 O501 1.970 . S
Li440 O502 1.961 . S
Li441 N465 1.990 . S
Li441 O500 1.970 . S
Li441 O501 1.956 . S
Li441 O503 1.961 1_545 S
Li442 N487 1.990 . S
Li442 O500 1.961 . S
Li442 O502 1.956 . S
Li442 O503 1.970 1_545 S
Li443 N493 1.990 . S
Li443 O501 1.961 1_565 S
Li443 O502 1.970 1_565 S
Li443 O503 1.956 . S
C444 C446 1.348 . S
C444 C447 1.356 . S
C444 O500 1.325 . S
N445 C448 1.314 . S
N445 C449 1.279 . S
C446 C444 1.348 . S
C446 C448 1.353 . S
C446 H504 0.929 . S
C447 C444 1.356 . S
C447 C449 1.358 . S
C447 H505 0.930 . S
C448 N445 1.314 . S
C448 C446 1.353 . S
C448 H506 0.930 . S
C449 N445 1.279 . S
C449 C447 1.358 . S
C449 H507 0.930 . S
C450 C453 1.348 . S
C450 C454 1.356 1_545 S
C450 O501 1.325 . S
C451 N452 1.279 1_565 S
C451 C454 1.358 . S
C451 H508 0.930 . S
N452 C451 1.279 1_545 S
N452 C455 1.314 . S
C453 C450 1.348 . S
C453 C455 1.353 . S
C453 H509 0.929 . S
C454 C450 1.356 1_565 S
C454 C451 1.358 . S
C454 H510 0.930 . S
C455 N452 1.314 . S
C455 C453 1.353 . S
C455 H511 0.930 . S
C456 N457 1.314 . S
C456 C461 1.353 . S
C456 H462 0.930 . S
N457 Li440 1.990 . S
N457 C456 1.314 . S
N457 C459 1.279 . S
C458 C459 1.358 . S
C458 C460 1.356 . S
C458 H512 0.930 . S
C459 N457 1.279 . S
C459 C458 1.358 . S
C459 H463 0.930 . S
C460 C458 1.356 . S
C460 C461 1.348 . S
C461 C456 1.353 . S
C461 C460 1.348 . S
C461 H513 0.929 . S
H462 C456 0.930 . S
H463 C459 0.930 . S
C464 N465 1.314 . S
C464 C466 1.353 . S
C464 H470 0.930 . S
N465 Li441 1.990 . S
N465 C464 1.314 . S
N465 C468 1.279 . S
C466 C464 1.353 . S
C466 C469 1.348 . S
C466 H514 0.929 1_655 S
C467 C468 1.358 . S
C467 C469 1.356 . S
C467 H515 0.930 . S
C468 N465 1.279 . S
C468 C467 1.358 . S
C468 H471 0.930 . S
C469 C466 1.348 . S
C469 C467 1.356 . S
H470 C464 0.930 . S
H471 C468 0.930 . S
C472 C474 1.348 . S
C472 C475 1.356 . S
C472 O502 1.325 . S
N473 C476 1.314 . S
N473 C477 1.279 . S
C474 C472 1.348 . S
C474 C476 1.353 . S
C474 H516 0.929 1_545 S
C475 C472 1.356 . S
C475 C477 1.358 . S
C475 H517 0.930 . S
C476 N473 1.314 . S
C476 C474 1.353 . S
C476 H518 0.930 1_545 S
C477 N473 1.279 . S
C477 C475 1.358 . S
C477 H519 0.930 . S
C478 C479 1.348 . S
C478 C480 1.356 . S
C478 O503 1.325 . S
C479 C478 1.348 . S
C479 C481 1.353 . S
C479 H520 0.929 . S
C480 C478 1.356 . S
C480 C482 1.358 . S
C480 H521 0.930 . S
C481 C479 1.353 . S
C481 N483 1.314 . S
C481 H522 0.930 . S
C482 C480 1.358 . S
C482 N483 1.279 . S
C482 H523 0.930 . S
N483 C481 1.314 . S
N483 C482 1.279 . S
C484 C486 1.353 . S
C484 N487 1.314 . S
C484 H490 0.930 . S
C485 N487 1.279 . S
C485 C488 1.358 . S
C485 H491 0.930 . S
C486 C484 1.353 . S
C486 C489 1.348 . S
C486 H524 0.929 1_655 S
N487 Li442 1.990 . S
N487 C484 1.314 . S
N487 C485 1.279 . S
C488 C485 1.358 . S
C488 C489 1.356 . S
C488 H525 0.930 . S
C489 C486 1.348 . S
C489 C488 1.356 . S
H490 C484 0.930 . S
H491 C485 0.930 . S
C492 N493 1.314 . S
C492 C494 1.353 . S
C492 H498 0.930 . S
N493 Li443 1.990 . S
N493 C492 1.314 . S
N493 C496 1.279 . S
C494 C492 1.353 . S
C494 C497 1.348 . S
C494 H526 0.929 . S
C495 C496 1.358 . S
C495 C497 1.356 . S
C495 H527 0.930 . S
C496 N493 1.279 . S
C496 C495 1.358 . S
C496 H499 0.930 . S
C497 C494 1.348 . S
C497 C495 1.356 . S
H498 C492 0.930 . S
H499 C496 0.930 . S
O500 Li440 1.956 . S
O500 Li441 1.970 . S
O500 Li442 1.961 . S
O500 C444 1.325 . S
O501 Li440 1.970 . S
O501 Li441 1.956 . S
O501 Li443 1.961 1_545 S
O501 C450 1.325 . S
O502 Li440 1.961 . S
O502 Li442 1.956 . S
O502 Li443 1.970 1_545 S
O502 C472 1.325 . S
O503 Li441 1.961 1_565 S
O503 Li442 1.970 1_565 S
O503 Li443 1.956 . S
O503 C478 1.325 . S
H504 C446 0.929 . S
H505 C447 0.930 . S
H506 C448 0.930 . S
H507 C449 0.930 . S
H508 C451 0.930 . S
H509 C453 0.929 . S
H510 C454 0.930 . S
H511 C455 0.930 . S
H512 C458 0.930 . S
H513 C461 0.929 . S
H514 C466 0.929 1_455 S
H515 C467 0.930 . S
H516 C474 0.929 1_565 S
H517 C475 0.930 . S
H518 C476 0.930 1_565 S
H519 C477 0.930 . S
H520 C479 0.929 . S
H521 C480 0.930 . S
H522 C481 0.930 . S
H523 C482 0.930 . S
H524 C486 0.929 1_455 S
H525 C488 0.930 . S
H526 C494 0.929 . S
H527 C495 0.930 . S
Li528 N545 1.990 . S
Li528 O588 1.956 . S
Li528 O589 1.970 . S
Li528 O590 1.961 . S
Li529 N553 1.990 . S
Li529 O588 1.970 . S
Li529 O589 1.956 . S
Li529 O591 1.961 . S
Li530 N575 1.990 . S
Li530 O588 1.961 . S
Li530 O590 1.956 . S
Li530 O591 1.970 . S
Li531 N581 1.990 . S
Li531 O589 1.961 . S
Li531 O590 1.970 . S
Li531 O591 1.956 . S
C532 C534 1.348 . S
C532 C535 1.356 . S
C532 O588 1.325 . S
N533 C536 1.314 . S
N533 C537 1.279 . S
C534 C532 1.348 . S
C534 C536 1.353 . S
C534 H592 0.929 . S
C535 C532 1.356 . S
C535 C537 1.358 . S
C535 H593 0.930 . S
C536 N533 1.314 . S
C536 C534 1.353 . S
C536 H594 0.930 . S
C537 N533 1.279 . S
C537 C535 1.358 . S
C537 H595 0.930 . S
C538 C541 1.348 . S
C538 C542 1.356 . S
C538 O589 1.325 . S
C539 N540 1.279 . S
C539 C542 1.358 . S
C539 H596 0.930 . S
N540 C539 1.279 . S
N540 C543 1.314 . S
C541 C538 1.348 . S
C541 C543 1.353 . S
C541 H597 0.929 . S
C542 C538 1.356 . S
C542 C539 1.358 . S
C542 H598 0.930 . S
C543 N540 1.314 . S
C543 C541 1.353 . S
C543 H599 0.930 . S
C544 N545 1.314 . S
C544 C549 1.353 . S
C544 H550 0.930 . S
N545 Li528 1.990 . S
N545 C544 1.314 . S
N545 C547 1.279 . S
C546 C547 1.358 . S
C546 C548 1.356 . S
C546 H600 0.930 . S
C547 N545 1.279 . S
C547 C546 1.358 . S
C547 H551 0.930 . S
C548 C546 1.356 . S
C548 C549 1.348 . S
C549 C544 1.353 . S
C549 C548 1.348 . S
C549 H601 0.929 . S
H550 C544 0.930 . S
H551 C547 0.930 . S
C552 N553 1.314 . S
C552 C554 1.353 . S
C552 H558 0.930 . S
N553 Li529 1.990 . S
N553 C552 1.314 . S
N553 C556 1.279 . S
C554 C552 1.353 . S
C554 C557 1.348 . S
C554 H602 0.929 . S
C555 C556 1.358 . S
C555 C557 1.356 . S
C555 H603 0.930 . S
C556 N553 1.279 . S
C556 C555 1.358 . S
C556 H559 0.930 . S
C557 C554 1.348 . S
C557 C555 1.356 . S
H558 C552 0.930 . S
H559 C556 0.930 . S
C560 C562 1.348 . S
C560 C563 1.356 . S
C560 O590 1.325 . S
N561 C564 1.314 . S
N561 C565 1.279 . S
C562 C560 1.348 . S
C562 C564 1.353 . S
C562 H604 0.929 . S
C563 C560 1.356 . S
C563 C565 1.358 . S
C563 H605 0.930 . S
C564 N561 1.314 . S
C564 C562 1.353 . S
C564 H606 0.930 . S
C565 N561 1.279 . S
C565 C563 1.358 . S
C565 H607 0.930 . S
C566 C567 1.348 . S
C566 C568 1.356 . S
C566 O591 1.325 . S
C567 C566 1.348 . S
C567 C569 1.353 . S
C567 H608 0.929 . S
C568 C566 1.356 . S
C568 C570 1.358 . S
C568 H609 0.930 . S
C569 C567 1.353 . S
C569 N571 1.314 . S
C569 H610 0.930 . S
C570 C568 1.358 . S
C570 N571 1.279 . S
C570 H611 0.930 . S
N571 C569 1.314 . S
N571 C570 1.279 . S
C572 C574 1.353 . S
C572 N575 1.314 . S
C572 H578 0.930 . S
C573 N575 1.279 . S
C573 C576 1.358 . S
C573 H579 0.930 . S
C574 C572 1.353 . S
C574 C577 1.348 . S
C574 H612 0.929 . S
N575 Li530 1.990 . S
N575 C572 1.314 . S
N575 C573 1.279 . S
C576 C573 1.358 . S
C576 C577 1.356 . S
C576 H613 0.930 . S
C577 C574 1.348 . S
C577 C576 1.356 . S
H578 C572 0.930 . S
H579 C573 0.930 . S
C580 N581 1.314 . S
C580 C582 1.353 . S
C580 H586 0.930 . S
N581 Li531 1.990 . S
N581 C580 1.314 . S
N581 C584 1.279 . S
C582 C580 1.353 . S
C582 C585 1.348 . S
C582 H614 0.929 . S
C583 C584 1.358 . S
C583 C585 1.356 . S
C583 H615 0.930 . S
C584 N581 1.279 . S
C584 C583 1.358 . S
C584 H587 0.930 . S
C585 C582 1.348 . S
C585 C583 1.356 . S
H586 C580 0.930 . S
H587 C584 0.930 . S
O588 Li528 1.956 . S
O588 Li529 1.970 . S
O588 Li530 1.961 . S
O588 C532 1.325 . S
O589 Li528 1.970 . S
O589 Li529 1.956 . S
O589 Li531 1.961 . S
O589 C538 1.325 . S
O590 Li528 1.961 . S
O590 Li530 1.956 . S
O590 Li531 1.970 . S
O590 C560 1.325 . S
O591 Li529 1.961 . S
O591 Li530 1.970 . S
O591 Li531 1.956 . S
O591 C566 1.325 . S
H592 C534 0.929 . S
H593 C535 0.930 . S
H594 C536 0.930 . S
H595 C537 0.930 . S
H596 C539 0.930 . S
H597 C541 0.929 . S
H598 C542 0.930 . S
H599 C543 0.930 . S
H600 C546 0.930 . S
H601 C549 0.929 . S
H602 C554 0.929 . S
H603 C555 0.930 . S
H604 C562 0.929 . S
H605 C563 0.930 . S
H606 C564 0.930 . S
H607 C565 0.930 . S
H608 C567 0.929 . S
H609 C568 0.930 . S
H610 C569 0.930 . S
H611 C570 0.930 . S
H612 C574 0.929 . S
H613 C576 0.930 . S
H614 C582 0.929 . S
H615 C583 0.930 . S
Li616 N633 1.990 . S
Li616 O676 1.956 . S
Li616 O677 1.970 . S
Li616 O678 1.961 . S
Li617 N641 1.990 . S
Li617 O676 1.970 . S
Li617 O677 1.956 . S
Li617 O679 1.961 . S
Li618 N663 1.990 . S
Li618 O676 1.961 . S
Li618 O678 1.956 . S
Li618 O679 1.970 . S
Li619 N669 1.990 . S
Li619 O677 1.961 . S
Li619 O678 1.970 . S
Li619 O679 1.956 . S
C620 C622 1.348 . S
C620 C623 1.356 . S
C620 O676 1.325 . S
N621 C624 1.314 . S
N621 C625 1.279 . S
C622 C620 1.348 . S
C622 C624 1.353 . S
C622 H680 0.929 . S
C623 C620 1.356 . S
C623 C625 1.358 . S
C623 H681 0.930 . S
C624 N621 1.314 . S
C624 C622 1.353 . S
C624 H682 0.930 . S
C625 N621 1.279 . S
C625 C623 1.358 . S
C625 H683 0.930 . S
C626 C629 1.348 . S
C626 C630 1.356 . S
C626 O677 1.325 . S
C627 N628 1.279 . S
C627 C630 1.358 . S
C627 H684 0.930 . S
N628 C627 1.279 . S
N628 C631 1.314 . S
C629 C626 1.348 . S
C629 C631 1.353 . S
C629 H685 0.929 . S
C630 C626 1.356 . S
C630 C627 1.358 . S
C630 H686 0.930 . S
C631 N628 1.314 . S
C631 C629 1.353 . S
C631 H687 0.930 . S
C632 N633 1.314 . S
C632 C637 1.353 . S
C632 H638 0.930 . S
N633 Li616 1.990 . S
N633 C632 1.314 . S
N633 C635 1.279 . S
C634 C635 1.358 . S
C634 C636 1.356 . S
C634 H688 0.930 . S
C635 N633 1.279 . S
C635 C634 1.358 . S
C635 H639 0.930 . S
C636 C634 1.356 . S
C636 C637 1.348 . S
C637 C632 1.353 . S
C637 C636 1.348 . S
C637 H689 0.929 . S
H638 C632 0.930 . S
H639 C635 0.930 . S
C640 N641 1.314 . S
C640 C642 1.353 . S
C640 H646 0.930 . S
N641 Li617 1.990 . S
N641 C640 1.314 . S
N641 C644 1.279 . S
C642 C640 1.353 . S
C642 C645 1.348 . S
C642 H690 0.929 . S
C643 C644 1.358 . S
C643 C645 1.356 . S
C643 H691 0.930 . S
C644 N641 1.279 . S
C644 C643 1.358 . S
C644 H647 0.930 . S
C645 C642 1.348 . S
C645 C643 1.356 . S
H646 C640 0.930 . S
H647 C644 0.930 . S
C648 C650 1.348 . S
C648 C651 1.356 . S
C648 O678 1.325 . S
N649 C652 1.314 . S
N649 C653 1.279 . S
C650 C648 1.348 . S
C650 C652 1.353 . S
C650 H692 0.929 . S
C651 C648 1.356 . S
C651 C653 1.358 . S
C651 H693 0.930 . S
C652 N649 1.314 . S
C652 C650 1.353 . S
C652 H694 0.930 . S
C653 N649 1.279 . S
C653 C651 1.358 . S
C653 H695 0.930 . S
C654 C655 1.348 . S
C654 C656 1.356 . S
C654 O679 1.325 . S
C655 C654 1.348 . S
C655 C657 1.353 . S
C655 H696 0.929 . S
C656 C654 1.356 . S
C656 C658 1.358 . S
C656 H697 0.930 . S
C657 C655 1.353 . S
C657 N659 1.314 . S
C657 H698 0.930 . S
C658 C656 1.358 . S
C658 N659 1.279 . S
C658 H699 0.930 . S
N659 C657 1.314 . S
N659 C658 1.279 . S
C660 C662 1.353 . S
C660 N663 1.314 . S
C660 H666 0.930 . S
C661 N663 1.279 . S
C661 C664 1.358 . S
C661 H667 0.930 . S
C662 C660 1.353 . S
C662 C665 1.348 . S
C662 H700 0.929 . S
N663 Li618 1.990 . S
N663 C660 1.314 . S
N663 C661 1.279 . S
C664 C661 1.358 . S
C664 C665 1.356 . S
C664 H701 0.930 . S
C665 C662 1.348 . S
C665 C664 1.356 . S
H666 C660 0.930 . S
H667 C661 0.930 . S
C668 N669 1.314 . S
C668 C670 1.353 . S
C668 H674 0.930 . S
N669 Li619 1.990 . S
N669 C668 1.314 . S
N669 C672 1.279 . S
C670 C668 1.353 . S
C670 C673 1.348 . S
C670 H702 0.929 . S
C671 C672 1.358 . S
C671 C673 1.356 . S
C671 H703 0.930 . S
C672 N669 1.279 . S
C672 C671 1.358 . S
C672 H675 0.930 . S
C673 C670 1.348 . S
C673 C671 1.356 . S
H674 C668 0.930 . S
H675 C672 0.930 . S
O676 Li616 1.956 . S
O676 Li617 1.970 . S
O676 Li618 1.961 . S
O676 C620 1.325 . S
O677 Li616 1.970 . S
O677 Li617 1.956 . S
O677 Li619 1.961 . S
O677 C626 1.325 . S
O678 Li616 1.961 . S
O678 Li618 1.956 . S
O678 Li619 1.970 . S
O678 C648 1.325 . S
O679 Li617 1.961 . S
O679 Li618 1.970 . S
O679 Li619 1.956 . S
O679 C654 1.325 . S
H680 C622 0.929 . S
H681 C623 0.930 . S
H682 C624 0.930 . S
H683 C625 0.930 . S
H684 C627 0.930 . S
H685 C629 0.929 . S
H686 C630 0.930 . S
H687 C631 0.930 . S
H688 C634 0.930 . S
H689 C637 0.929 . S
H690 C642 0.929 . S
H691 C643 0.930 . S
H692 C650 0.929 . S
H693 C651 0.930 . S
H694 C652 0.930 . S
H695 C653 0.930 . S
H696 C655 0.929 . S
H697 C656 0.930 . S
H698 C657 0.930 . S
H699 C658 0.930 . S
H700 C662 0.929 . S
H701 C664 0.930 . S
H702 C670 0.929 . S
H703 C671 0.930 . S
Li704 N721 1.990 . S
Li704 O764 1.956 . S
Li704 O765 1.970 . S
Li704 O766 1.961 . S
Li705 N729 1.990 . S
Li705 O764 1.970 . S
Li705 O765 1.956 . S
Li705 O767 1.961 . S
Li706 N751 1.990 . S
Li706 O764 1.961 . S
Li706 O766 1.956 . S
Li706 O767 1.970 . S
Li707 N757 1.990 . S
Li707 O765 1.961 . S
Li707 O766 1.970 . S
Li707 O767 1.956 . S
C708 C710 1.348 . S
C708 C711 1.356 . S
C708 O764 1.325 . S
N709 C712 1.314 . S
N709 C713 1.279 . S
C710 C708 1.348 . S
C710 C712 1.353 . S
C710 H768 0.929 . S
C711 C708 1.356 . S
C711 C713 1.358 . S
C711 H769 0.930 . S
C712 N709 1.314 . S
C712 C710 1.353 . S
C712 H770 0.930 . S
C713 N709 1.279 . S
C713 C711 1.358 . S
C713 H771 0.930 . S
C714 C717 1.348 . S
C714 C718 1.356 . S
C714 O765 1.325 . S
C715 N716 1.279 . S
C715 C718 1.358 . S
C715 H772 0.930 . S
N716 C715 1.279 . S
N716 C719 1.314 . S
C717 C714 1.348 . S
C717 C719 1.353 . S
C717 H773 0.929 . S
C718 C714 1.356 . S
C718 C715 1.358 . S
C718 H774 0.930 . S
C719 N716 1.314 . S
C719 C717 1.353 . S
C719 H775 0.930 . S
C720 N721 1.314 . S
C720 C725 1.353 . S
C720 H726 0.930 . S
N721 Li704 1.990 . S
N721 C720 1.314 . S
N721 C723 1.279 . S
C722 C723 1.358 . S
C722 C724 1.356 . S
C722 H776 0.930 . S
C723 N721 1.279 . S
C723 C722 1.358 . S
C723 H727 0.930 . S
C724 C722 1.356 . S
C724 C725 1.348 . S
C725 C720 1.353 . S
C725 C724 1.348 . S
C725 H777 0.929 . S
H726 C720 0.930 . S
H727 C723 0.930 . S
C728 N729 1.314 . S
C728 C730 1.353 . S
C728 H734 0.930 . S
N729 Li705 1.990 . S
N729 C728 1.314 . S
N729 C732 1.279 . S
C730 C728 1.353 . S
C730 C733 1.348 . S
C730 H778 0.929 . S
C731 C732 1.358 . S
C731 C733 1.356 . S
C731 H779 0.930 . S
C732 N729 1.279 . S
C732 C731 1.358 . S
C732 H735 0.930 . S
C733 C730 1.348 . S
C733 C731 1.356 . S
H734 C728 0.930 . S
H735 C732 0.930 . S
C736 C738 1.348 . S
C736 C739 1.356 . S
C736 O766 1.325 . S
N737 C740 1.314 . S
N737 C741 1.279 . S
C738 C736 1.348 . S
C738 C740 1.353 . S
C738 H780 0.929 . S
C739 C736 1.356 . S
C739 C741 1.358 . S
C739 H781 0.930 . S
C740 N737 1.314 . S
C740 C738 1.353 . S
C740 H782 0.930 . S
C741 N737 1.279 . S
C741 C739 1.358 . S
C741 H783 0.930 . S
C742 C743 1.348 . S
C742 C744 1.356 . S
C742 O767 1.325 . S
C743 C742 1.348 . S
C743 C745 1.353 . S
C743 H784 0.929 . S
C744 C742 1.356 . S
C744 C746 1.358 . S
C744 H785 0.930 . S
C745 C743 1.353 . S
C745 N747 1.314 . S
C745 H786 0.930 . S
C746 C744 1.358 . S
C746 N747 1.279 . S
C746 H787 0.930 . S
N747 C745 1.314 . S
N747 C746 1.279 . S
C748 C750 1.353 . S
C748 N751 1.314 . S
C748 H754 0.930 . S
C749 N751 1.279 . S
C749 C752 1.358 . S
C749 H755 0.930 . S
C750 C748 1.353 . S
C750 C753 1.348 . S
C750 H788 0.929 . S
N751 Li706 1.990 . S
N751 C748 1.314 . S
N751 C749 1.279 . S
C752 C749 1.358 . S
C752 C753 1.356 . S
C752 H789 0.930 . S
C753 C750 1.348 . S
C753 C752 1.356 . S
H754 C748 0.930 . S
H755 C749 0.930 . S
C756 N757 1.314 . S
C756 C758 1.353 . S
C756 H762 0.930 . S
N757 Li707 1.990 . S
N757 C756 1.314 . S
N757 C760 1.279 . S
C758 C756 1.353 . S
C758 C761 1.348 . S
C758 H790 0.929 . S
C759 C760 1.358 . S
C759 C761 1.356 . S
C759 H791 0.930 . S
C760 N757 1.279 . S
C760 C759 1.358 . S
C760 H763 0.930 . S
C761 C758 1.348 . S
C761 C759 1.356 . S
H762 C756 0.930 . S
H763 C760 0.930 . S
O764 Li704 1.956 . S
O764 Li705 1.970 . S
O764 Li706 1.961 . S
O764 C708 1.325 . S
O765 Li704 1.970 . S
O765 Li705 1.956 . S
O765 Li707 1.961 . S
O765 C714 1.325 . S
O766 Li704 1.961 . S
O766 Li706 1.956 . S
O766 Li707 1.970 . S
O766 C736 1.325 . S
O767 Li705 1.961 . S
O767 Li706 1.970 . S
O767 Li707 1.956 . S
O767 C742 1.325 . S
H768 C710 0.929 . S
H769 C711 0.930 . S
H770 C712 0.930 . S
H771 C713 0.930 . S
H772 C715 0.930 . S
H773 C717 0.929 . S
H774 C718 0.930 . S
H775 C719 0.930 . S
H776 C722 0.930 . S
H777 C725 0.929 . S
H778 C730 0.929 . S
H779 C731 0.930 . S
H780 C738 0.929 . S
H781 C739 0.930 . S
H782 C740 0.930 . S
H783 C741 0.930 . S
H784 C743 0.929 . S
H785 C744 0.930 . S
H786 C745 0.930 . S
H787 C746 0.930 . S
H788 C750 0.929 . S
H789 C752 0.930 . S
H790 C758 0.929 . S
H791 C759 0.930 . S
Li792 N809 1.990 . S
Li792 O852 1.956 . S
Li792 O853 1.970 1_565 S
Li792 O854 1.961 . S
Li793 N817 1.990 . S
Li793 O852 1.970 1_545 S
Li793 O853 1.956 . S
Li793 O855 1.961 . S
Li794 N839 1.990 . S
Li794 O852 1.961 . S
Li794 O854 1.956 . S
Li794 O855 1.970 1_565 S
Li795 N845 1.990 . S
Li795 O853 1.961 . S
Li795 O854 1.970 1_545 S
Li795 O855 1.956 . S
C796 C798 1.348 . S
C796 C799 1.356 . S
C796 O852 1.325 . S
N797 C800 1.314 . S
N797 C801 1.279 . S
C798 C796 1.348 . S
C798 C800 1.353 . S
C798 H856 0.929 . S
C799 C796 1.356 . S
C799 C801 1.358 . S
C799 H857 0.930 . S
C800 N797 1.314 . S
C800 C798 1.353 . S
C800 H858 0.930 . S
C801 N797 1.279 . S
C801 C799 1.358 . S
C801 H859 0.930 . S
C802 C805 1.348 1_545 S
C802 C806 1.356 . S
C802 O853 1.325 . S
C803 N804 1.279 . S
C803 C806 1.358 . S
C803 H860 0.930 . S
N804 C803 1.279 . S
N804 C807 1.314 1_545 S
C805 C802 1.348 1_565 S
C805 C807 1.353 . S
C805 H861 0.929 . S
C806 C802 1.356 . S
C806 C803 1.358 . S
C806 H862 0.930 . S
C807 N804 1.314 1_565 S
C807 C805 1.353 . S
C807 H863 0.930 . S
C808 N809 1.314 . S
C808 C813 1.353 . S
C808 H814 0.930 . S
N809 Li792 1.990 . S
N809 C808 1.314 . S
N809 C811 1.279 . S
C810 C811 1.358 . S
C810 C812 1.356 . S
C810 H864 0.930 . S
C811 N809 1.279 . S
C811 C810 1.358 . S
C811 H815 0.930 . S
C812 C810 1.356 . S
C812 C813 1.348 . S
C813 C808 1.353 . S
C813 C812 1.348 . S
C813 H865 0.929 . S
H814 C808 0.930 . S
H815 C811 0.930 . S
C816 N817 1.314 . S
C816 C818 1.353 . S
C816 H822 0.930 . S
N817 Li793 1.990 . S
N817 C816 1.314 . S
N817 C820 1.279 . S
C818 C816 1.353 . S
C818 C821 1.348 . S
C818 H866 0.929 . S
C819 C820 1.358 . S
C819 C821 1.356 . S
C819 H867 0.930 . S
C820 N817 1.279 . S
C820 C819 1.358 . S
C820 H823 0.930 . S
C821 C818 1.348 . S
C821 C819 1.356 . S
H822 C816 0.930 . S
H823 C820 0.930 . S
C824 C826 1.348 1_565 S
C824 C827 1.356 . S
C824 O854 1.325 . S
N825 C828 1.314 1_565 S
N825 C829 1.279 . S
C826 C824 1.348 1_545 S
C826 C828 1.353 . S
C826 H868 0.929 . S
C827 C824 1.356 . S
C827 C829 1.358 . S
C827 H869 0.930 . S
C828 N825 1.314 1_545 S
C828 C826 1.353 . S
C828 H870 0.930 . S
C829 N825 1.279 . S
C829 C827 1.358 . S
C829 H871 0.930 . S
C830 C831 1.348 . S
C830 C832 1.356 . S
C830 O855 1.325 . S
C831 C830 1.348 . S
C831 C833 1.353 . S
C831 H872 0.929 . S
C832 C830 1.356 . S
C832 C834 1.358 . S
C832 H873 0.930 . S
C833 C831 1.353 . S
C833 N835 1.314 . S
C833 H874 0.930 . S
C834 C832 1.358 . S
C834 N835 1.279 . S
C834 H875 0.930 . S
N835 C833 1.314 . S
N835 C834 1.279 . S
C836 C838 1.353 . S
C836 N839 1.314 . S
C836 H842 0.930 . S
C837 N839 1.279 . S
C837 C840 1.358 . S
C837 H843 0.930 . S
C838 C836 1.353 . S
C838 C841 1.348 . S
C838 H876 0.929 . S
N839 Li794 1.990 . S
N839 C836 1.314 . S
N839 C837 1.279 . S
C840 C837 1.358 . S
C840 C841 1.356 . S
C840 H877 0.930 . S
C841 C838 1.348 . S
C841 C840 1.356 . S
H842 C836 0.930 . S
H843 C837 0.930 . S
C844 N845 1.314 . S
C844 C846 1.353 . S
C844 H850 0.930 . S
N845 Li795 1.990 . S
N845 C844 1.314 . S
N845 C848 1.279 . S
C846 C844 1.353 . S
C846 C849 1.348 . S
C846 H878 0.929 . S
C847 C848 1.358 . S
C847 C849 1.356 . S
C847 H879 0.930 . S
C848 N845 1.279 . S
C848 C847 1.358 . S
C848 H851 0.930 . S
C849 C846 1.348 . S
C849 C847 1.356 . S
H850 C844 0.930 . S
H851 C848 0.930 . S
O852 Li792 1.956 . S
O852 Li793 1.970 1_565 S
O852 Li794 1.961 . S
O852 C796 1.325 . S
O853 Li792 1.970 1_545 S
O853 Li793 1.956 . S
O853 Li795 1.961 . S
O853 C802 1.325 . S
O854 Li792 1.961 . S
O854 Li794 1.956 . S
O854 Li795 1.970 1_565 S
O854 C824 1.325 . S
O855 Li793 1.961 . S
O855 Li794 1.970 1_545 S
O855 Li795 1.956 . S
O855 C830 1.325 . S
H856 C798 0.929 . S
H857 C799 0.930 . S
H858 C800 0.930 . S
H859 C801 0.930 . S
H860 C803 0.930 . S
H861 C805 0.929 . S
H862 C806 0.930 . S
H863 C807 0.930 . S
H864 C810 0.930 . S
H865 C813 0.929 . S
H866 C818 0.929 . S
H867 C819 0.930 . S
H868 C826 0.929 . S
H869 C827 0.930 . S
H870 C828 0.930 . S
H871 C829 0.930 . S
H872 C831 0.929 . S
H873 C832 0.930 . S
H874 C833 0.930 . S
H875 C834 0.930 . S
H876 C838 0.929 . S
H877 C840 0.930 . S
H878 C846 0.929 . S
H879 C847 0.930 . S
Li880 N897 1.990 . S
Li880 O940 1.956 . S
Li880 O941 1.970 . S
Li880 O942 1.961 . S
Li881 N905 1.990 . S
Li881 O940 1.970 . S
Li881 O941 1.956 . S
Li881 O943 1.961 1_455 S
Li882 N927 1.990 . S
Li882 O940 1.961 . S
Li882 O942 1.956 . S
Li882 O943 1.970 1_455 S
Li883 N933 1.990 . S
Li883 O941 1.961 1_655 S
Li883 O942 1.970 1_655 S
Li883 O943 1.956 . S
C884 C886 1.348 . S
C884 C887 1.356 . S
C884 O940 1.325 . S
N885 C888 1.314 . S
N885 C889 1.279 . S
C886 C884 1.348 . S
C886 C888 1.353 . S
C886 H944 0.929 . S
C887 C884 1.356 . S
C887 C889 1.358 . S
C887 H945 0.930 . S
C888 N885 1.314 . S
C888 C886 1.353 . S
C888 H946 0.930 . S
C889 N885 1.279 . S
C889 C887 1.358 . S
C889 H947 0.930 . S
C890 C893 1.348 . S
C890 C894 1.356 1_455 S
C890 O941 1.325 . S
C891 N892 1.279 1_655 S
C891 C894 1.358 . S
C891 H948 0.930 . S
N892 C891 1.279 1_455 S
N892 C895 1.314 . S
C893 C890 1.348 . S
C893 C895 1.353 . S
C893 H949 0.929 . S
C894 C890 1.356 1_655 S
C894 C891 1.358 . S
C894 H950 0.930 . S
C895 N892 1.314 . S
C895 C893 1.353 . S
C895 H951 0.930 . S
C896 N897 1.314 . S
C896 C901 1.353 . S
C896 H902 0.930 . S
N897 Li880 1.990 . S
N897 C896 1.314 . S
N897 C899 1.279 . S
C898 C899 1.358 . S
C898 C900 1.356 . S
C898 H952 0.930 . S
C899 N897 1.279 . S
C899 C898 1.358 . S
C899 H903 0.930 . S
C900 C898 1.356 . S
C900 C901 1.348 . S
C901 C896 1.353 . S
C901 C900 1.348 . S
C901 H953 0.929 . S
H902 C896 0.930 . S
H903 C899 0.930 . S
C904 N905 1.314 . S
C904 C906 1.353 . S
C904 H910 0.930 . S
N905 Li881 1.990 . S
N905 C904 1.314 . S
N905 C908 1.279 . S
C906 C904 1.353 . S
C906 C909 1.348 . S
C906 H954 0.929 1_455 S
C907 C908 1.358 . S
C907 C909 1.356 . S
C907 H955 0.930 . S
C908 N905 1.279 . S
C908 C907 1.358 . S
C908 H911 0.930 . S
C909 C906 1.348 . S
C909 C907 1.356 . S
H910 C904 0.930 . S
H911 C908 0.930 . S
C912 C914 1.348 . S
C912 C915 1.356 . S
C912 O942 1.325 . S
N913 C916 1.314 . S
N913 C917 1.279 . S
C914 C912 1.348 . S
C914 C916 1.353 . S
C914 H956 0.929 1_455 S
C915 C912 1.356 . S
C915 C917 1.358 . S
C915 H957 0.930 . S
C916 N913 1.314 . S
C916 C914 1.353 . S
C916 H958 0.930 1_455 S
C917 N913 1.279 . S
C917 C915 1.358 . S
C917 H959 0.930 . S
C918 C919 1.348 . S
C918 C920 1.356 . S
C918 O943 1.325 . S
C919 C918 1.348 . S
C919 C921 1.353 . S
C919 H960 0.929 . S
C920 C918 1.356 . S
C920 C922 1.358 . S
C920 H961 0.930 . S
C921 C919 1.353 . S
C921 N923 1.314 . S
C921 H962 0.930 . S
C922 C920 1.358 . S
C922 N923 1.279 . S
C922 H963 0.930 . S
N923 C921 1.314 . S
N923 C922 1.279 . S
C924 C926 1.353 . S
C924 N927 1.314 . S
C924 H930 0.930 . S
C925 N927 1.279 . S
C925 C928 1.358 . S
C925 H931 0.930 . S
C926 C924 1.353 . S
C926 C929 1.348 . S
C926 H964 0.929 . S
N927 Li882 1.990 . S
N927 C924 1.314 . S
N927 C925 1.279 . S
C928 C925 1.358 . S
C928 C929 1.356 . S
C928 H965 0.930 . S
C929 C926 1.348 . S
C929 C928 1.356 . S
H930 C924 0.930 . S
H931 C925 0.930 . S
C932 N933 1.314 . S
C932 C934 1.353 . S
C932 H938 0.930 . S
N933 Li883 1.990 . S
N933 C932 1.314 . S
N933 C936 1.279 . S
C934 C932 1.353 . S
C934 C937 1.348 . S
C934 H966 0.929 . S
C935 C936 1.358 . S
C935 C937 1.356 . S
C935 H967 0.930 . S
C936 N933 1.279 . S
C936 C935 1.358 . S
C936 H939 0.930 . S
C937 C934 1.348 . S
C937 C935 1.356 . S
H938 C932 0.930 . S
H939 C936 0.930 . S
O940 Li880 1.956 . S
O940 Li881 1.970 . S
O940 Li882 1.961 . S
O940 C884 1.325 . S
O941 Li880 1.970 . S
O941 Li881 1.956 . S
O941 Li883 1.961 1_455 S
O941 C890 1.325 . S
O942 Li880 1.961 . S
O942 Li882 1.956 . S
O942 Li883 1.970 1_455 S
O942 C912 1.325 . S
O943 Li881 1.961 1_655 S
O943 Li882 1.970 1_655 S
O943 Li883 1.956 . S
O943 C918 1.325 . S
H944 C886 0.929 . S
H945 C887 0.930 . S
H946 C888 0.930 . S
H947 C889 0.930 . S
H948 C891 0.930 . S
H949 C893 0.929 . S
H950 C894 0.930 . S
H951 C895 0.930 . S
H952 C898 0.930 . S
H953 C901 0.929 . S
H954 C906 0.929 1_655 S
H955 C907 0.930 . S
H956 C914 0.929 1_655 S
H957 C915 0.930 . S
H958 C916 0.930 1_655 S
H959 C917 0.930 . S
H960 C919 0.929 . S
H961 C920 0.930 . S
H962 C921 0.930 . S
H963 C922 0.930 . S
H964 C926 0.929 . S
H965 C928 0.930 . S
H966 C934 0.929 . S
H967 C935 0.930 . S
Li968 N985 1.990 . S
Li968 O1028 1.956 . S
Li968 O1029 1.970 . S
Li968 O1030 1.961 . S
Li969 N993 1.990 . S
Li969 O1028 1.970 . S
Li969 O1029 1.956 . S
Li969 O1031 1.961 . S
Li970 N1015 1.990 . S
Li970 O1028 1.961 . S
Li970 O1030 1.956 . S
Li970 O1031 1.970 . S
Li971 N1021 1.990 . S
Li971 O1029 1.961 . S
Li971 O1030 1.970 . S
Li971 O1031 1.956 . S
C972 C974 1.348 . S
C972 C975 1.356 . S
C972 O1028 1.325 . S
N973 C976 1.314 . S
N973 C977 1.279 . S
C974 C972 1.348 . S
C974 C976 1.353 . S
C974 H1032 0.929 . S
C975 C972 1.356 . S
C975 C977 1.358 . S
C975 H1033 0.930 . S
C976 N973 1.314 . S
C976 C974 1.353 . S
C976 H1034 0.930 . S
C977 N973 1.279 . S
C977 C975 1.358 . S
C977 H1035 0.930 . S
C978 C981 1.348 . S
C978 C982 1.356 . S
C978 O1029 1.325 . S
C979 N980 1.279 . S
C979 C982 1.358 . S
C979 H1036 0.930 . S
N980 C979 1.279 . S
N980 C983 1.314 . S
C981 C978 1.348 . S
C981 C983 1.353 . S
C981 H1037 0.929 . S
C982 C978 1.356 . S
C982 C979 1.358 . S
C982 H1038 0.930 . S
C983 N980 1.314 . S
C983 C981 1.353 . S
C983 H1039 0.930 . S
C984 N985 1.314 . S
C984 C989 1.353 . S
C984 H990 0.930 . S
N985 Li968 1.990 . S
N985 C984 1.314 . S
N985 C987 1.279 . S
C986 C987 1.358 . S
C986 C988 1.356 . S
C986 H1040 0.930 . S
C987 N985 1.279 . S
C987 C986 1.358 . S
C987 H991 0.930 . S
C988 C986 1.356 . S
C988 C989 1.348 . S
C989 C984 1.353 . S
C989 C988 1.348 . S
C989 H1041 0.929 . S
H990 C984 0.930 . S
H991 C987 0.930 . S
C992 N993 1.314 . S
C992 C994 1.353 . S
C992 H998 0.930 . S
N993 Li969 1.990 . S
N993 C992 1.314 . S
N993 C996 1.279 . S
C994 C992 1.353 . S
C994 C997 1.348 . S
C994 H1042 0.929 . S
C995 C996 1.358 . S
C995 C997 1.356 . S
C995 H1043 0.930 . S
C996 N993 1.279 . S
C996 C995 1.358 . S
C996 H999 0.930 . S
C997 C994 1.348 . S
C997 C995 1.356 . S
H998 C992 0.930 . S
H999 C996 0.930 . S
C1000 C1002 1.348 . S
C1000 C1003 1.356 . S
C1000 O1030 1.325 . S
N1001 C1004 1.314 . S
N1001 C1005 1.279 . S
C1002 C1000 1.348 . S
C1002 C1004 1.353 . S
C1002 H1044 0.929 . S
C1003 C1000 1.356 . S
C1003 C1005 1.358 . S
C1003 H1045 0.930 . S
C1004 N1001 1.314 . S
C1004 C1002 1.353 . S
C1004 H1046 0.930 . S
C1005 N1001 1.279 . S
C1005 C1003 1.358 . S
C1005 H1047 0.930 . S
C1006 C1007 1.348 . S
C1006 C1008 1.356 . S
C1006 O1031 1.325 . S
C1007 C1006 1.348 . S
C1007 C1009 1.353 . S
C1007 H1048 0.929 . S
C1008 C1006 1.356 . S
C1008 C1010 1.358 . S
C1008 H1049 0.930 . S
C1009 C1007 1.353 . S
C1009 N1011 1.314 . S
C1009 H1050 0.930 . S
C1010 C1008 1.358 . S
C1010 N1011 1.279 . S
C1010 H1051 0.930 . S
N1011 C1009 1.314 . S
N1011 C1010 1.279 . S
C1012 C1014 1.353 . S
C1012 N1015 1.314 . S
C1012 H1018 0.930 . S
C1013 N1015 1.279 . S
C1013 C1016 1.358 . S
C1013 H1019 0.930 . S
C1014 C1012 1.353 . S
C1014 C1017 1.348 . S
C1014 H1052 0.929 . S
N1015 Li970 1.990 . S
N1015 C1012 1.314 . S
N1015 C1013 1.279 . S
C1016 C1013 1.358 . S
C1016 C1017 1.356 . S
C1016 H1053 0.930 . S
C1017 C1014 1.348 . S
C1017 C1016 1.356 . S
H1018 C1012 0.930 . S
H1019 C1013 0.930 . S
C1020 N1021 1.314 . S
C1020 C1022 1.353 . S
C1020 H1026 0.930 . S
N1021 Li971 1.990 . S
N1021 C1020 1.314 . S
N1021 C1024 1.279 . S
C1022 C1020 1.353 . S
C1022 C1025 1.348 . S
C1022 H1054 0.929 . S
C1023 C1024 1.358 . S
C1023 C1025 1.356 . S
C1023 H1055 0.930 . S
C1024 N1021 1.279 . S
C1024 C1023 1.358 . S
C1024 H1027 0.930 . S
C1025 C1022 1.348 . S
C1025 C1023 1.356 . S
H1026 C1020 0.930 . S
H1027 C1024 0.930 . S
O1028 Li968 1.956 . S
O1028 Li969 1.970 . S
O1028 Li970 1.961 . S
O1028 C972 1.325 . S
O1029 Li968 1.970 . S
O1029 Li969 1.956 . S
O1029 Li971 1.961 . S
O1029 C978 1.325 . S
O1030 Li968 1.961 . S
O1030 Li970 1.956 . S
O1030 Li971 1.970 . S
O1030 C1000 1.325 . S
O1031 Li969 1.961 . S
O1031 Li970 1.970 . S
O1031 Li971 1.956 . S
O1031 C1006 1.325 . S
H1032 C974 0.929 . S
H1033 C975 0.930 . S
H1034 C976 0.930 . S
H1035 C977 0.930 . S
H1036 C979 0.930 . S
H1037 C981 0.929 . S
H1038 C982 0.930 . S
H1039 C983 0.930 . S
H1040 C986 0.930 . S
H1041 C989 0.929 . S
H1042 C994 0.929 . S
H1043 C995 0.930 . S
H1044 C1002 0.929 . S
H1045 C1003 0.930 . S
H1046 C1004 0.930 . S
H1047 C1005 0.930 . S
H1048 C1007 0.929 . S
H1049 C1008 0.930 . S
H1050 C1009 0.930 . S
H1051 C1010 0.930 . S
H1052 C1014 0.929 . S
H1053 C1016 0.930 . S
H1054 C1022 0.929 . S
H1055 C1023 0.930 . S
Li1056 N1073 1.990 . S
Li1056 O1116 1.956 . S
Li1056 O1117 1.970 1_455 S
Li1056 O1118 1.961 . S
Li1057 N1081 1.990 . S
Li1057 O1116 1.970 1_655 S
Li1057 O1117 1.956 . S
Li1057 O1119 1.985 . S
Li1058 N1103 1.990 . S
Li1058 O1116 1.961 . S
Li1058 O1118 1.956 . S
Li1058 O1119 1.940 1_455 S
Li1059 N1109 1.987 1_455 S
Li1059 O1117 1.937 1_455 S
Li1059 O1118 2.002 . S
Li1059 O1119 1.953 1_455 S
C1060 C1062 1.348 1_455 S
C1060 C1063 1.356 . S
C1060 O1116 1.325 . S
N1061 C1064 1.314 1_455 S
N1061 C1065 1.279 . S
C1062 C1060 1.348 1_655 S
C1062 C1064 1.353 . S
C1062 H1120 0.929 . S
C1063 C1060 1.356 . S
C1063 C1065 1.358 . S
C1063 H1121 0.930 . S
C1064 N1061 1.314 1_655 S
C1064 C1062 1.353 . S
C1064 H1122 0.930 . S
C1065 N1061 1.279 . S
C1065 C1063 1.358 . S
C1065 H1123 0.930 . S
C1066 C1069 1.348 . S
C1066 C1070 1.356 . S
C1066 O1117 1.325 . S
C1067 N1068 1.279 . S
C1067 C1070 1.358 . S
C1067 H1124 0.930 . S
N1068 C1067 1.279 . S
N1068 C1071 1.314 . S
C1069 C1066 1.348 . S
C1069 C1071 1.353 . S
C1069 H1125 0.929 . S
C1070 C1066 1.356 . S
C1070 C1067 1.358 . S
C1070 H1126 0.930 . S
C1071 N1068 1.314 . S
C1071 C1069 1.353 . S
C1071 H1127 0.930 . S
C1072 N1073 1.314 . S
C1072 C1077 1.353 . S
C1072 H1078 0.930 . S
N1073 Li1056 1.990 . S
N1073 C1072 1.314 . S
N1073 C1075 1.279 . S
C1074 C1075 1.358 . S
C1074 C1076 1.356 . S
C1074 H1128 0.930 . S
C1075 N1073 1.279 . S
C1075 C1074 1.358 . S
C1075 H1079 0.930 . S
C1076 C1074 1.356 . S
C1076 C1077 1.348 . S
C1077 C1072 1.353 . S
C1077 C1076 1.348 . S
C1077 H1129 0.929 . S
H1078 C1072 0.930 . S
H1079 C1075 0.930 . S
C1080 N1081 1.314 . S
C1080 C1082 1.353 . S
C1080 H1086 0.930 . S
N1081 Li1057 1.990 . S
N1081 C1080 1.314 . S
N1081 C1084 1.279 . S
C1082 C1080 1.353 . S
C1082 C1085 1.348 . S
C1082 H1130 0.929 . S
C1083 C1084 1.358 . S
C1083 C1085 1.356 . S
C1083 H1131 0.930 . S
C1084 N1081 1.279 . S
C1084 C1083 1.358 . S
C1084 H1087 0.930 . S
C1085 C1082 1.348 . S
C1085 C1083 1.356 . S
H1086 C1080 0.930 . S
H1087 C1084 0.930 . S
C1088 C1090 1.348 . S
C1088 C1091 1.356 . S
C1088 O1118 1.325 . S
N1089 C1092 1.314 . S
N1089 C1093 1.279 . S
C1090 C1088 1.348 . S
C1090 C1092 1.353 . S
C1090 H1132 0.929 . S
C1091 C1088 1.356 . S
C1091 C1093 1.358 . S
C1091 H1133 0.930 . S
C1092 N1089 1.314 . S
C1092 C1090 1.353 . S
C1092 H1134 0.930 . S
C1093 N1089 1.279 . S
C1093 C1091 1.358 . S
C1093 H1135 0.930 . S
C1094 C1095 1.348 1_655 S
C1094 C1096 1.356 . S
C1094 O1119 1.331 . S
C1095 C1094 1.348 1_455 S
C1095 C1097 1.353 . S
C1095 H1136 0.929 . S
C1096 C1094 1.356 . S
C1096 C1098 1.358 . S
C1096 H1137 0.930 . S
C1097 C1095 1.353 . S
C1097 N1099 1.314 1_455 S
C1097 H1138 0.930 . S
C1098 C1096 1.358 . S
C1098 N1099 1.279 . S
C1098 H1139 0.930 . S
N1099 C1097 1.314 1_655 S
N1099 C1098 1.279 . S
C1100 C1102 1.353 . S
C1100 N1103 1.314 . S
C1100 H1106 0.930 . S
C1101 N1103 1.279 . S
C1101 C1104 1.358 . S
C1101 H1107 0.930 . S
C1102 C1100 1.353 . S
C1102 C1105 1.348 . S
C1102 H1140 0.929 . S
N1103 Li1058 1.990 . S
N1103 C1100 1.314 . S
N1103 C1101 1.279 . S
C1104 C1101 1.358 . S
C1104 C1105 1.356 . S
C1104 H1141 0.930 . S
C1105 C1102 1.348 . S
C1105 C1104 1.356 . S
H1106 C1100 0.930 . S
H1107 C1101 0.930 . S
C1108 N1109 1.314 . S
C1108 C1110 1.353 . S
C1108 H1114 0.930 . S
N1109 Li1059 1.987 1_655 S
N1109 C1108 1.314 . S
N1109 C1112 1.279 . S
C1110 C1108 1.353 . S
C1110 C1113 1.348 . S
C1110 H1142 0.929 . S
C1111 C1112 1.358 . S
C1111 C1113 1.356 . S
C1111 H1143 0.930 . S
C1112 N1109 1.279 . S
C1112 C1111 1.358 . S
C1112 H1115 0.930 . S
C1113 C1110 1.348 . S
C1113 C1111 1.356 . S
H1114 C1108 0.930 . S
H1115 C1112 0.930 . S
O1116 Li1056 1.956 . S
O1116 Li1057 1.970 1_455 S
O1116 Li1058 1.961 . S
O1116 C1060 1.325 . S
O1117 Li1056 1.970 1_655 S
O1117 Li1057 1.956 . S
O1117 Li1059 1.937 1_655 S
O1117 C1066 1.325 . S
O1118 Li1056 1.961 . S
O1118 Li1058 1.956 . S
O1118 Li1059 2.002 . S
O1118 C1088 1.325 . S
O1119 Li1057 1.985 . S
O1119 Li1058 1.940 1_655 S
O1119 Li1059 1.953 1_655 S
O1119 C1094 1.331 . S
H1120 C1062 0.929 . S
H1121 C1063 0.930 . S
H1122 C1064 0.930 . S
H1123 C1065 0.930 . S
H1124 C1067 0.930 . S
H1125 C1069 0.929 . S
H1126 C1070 0.930 . S
H1127 C1071 0.930 . S
H1128 C1074 0.930 . S
H1129 C1077 0.929 . S
H1130 C1082 0.929 . S
H1131 C1083 0.930 . S
H1132 C1090 0.929 . S
H1133 C1091 0.930 . S
H1134 C1092 0.930 . S
H1135 C1093 0.930 . S
H1136 C1095 0.929 . S
H1137 C1096 0.930 . S
H1138 C1097 0.930 . S
H1139 C1098 0.930 . S
H1140 C1102 0.929 . S
H1141 C1104 0.930 . S
H1142 C1110 0.929 . S
H1143 C1111 0.930 . S
Li1144 N1161 1.990 . S
Li1144 O1204 1.956 . S
Li1144 O1205 1.970 . S
Li1144 O1206 1.961 . S
Li1145 N1169 1.990 . S
Li1145 O1204 1.970 . S
Li1145 O1205 1.956 . S
Li1145 O1207 1.961 . S
Li1146 N1191 1.990 . S
Li1146 O1204 1.961 . S
Li1146 O1206 1.956 . S
Li1146 O1207 1.970 . S
Li1147 N1197 1.990 . S
Li1147 O1205 1.961 . S
Li1147 O1206 1.970 . S
Li1147 O1207 1.956 . S
C1148 C1150 1.348 . S
C1148 C1151 1.356 . S
C1148 O1204 1.325 . S
N1149 C1152 1.314 . S
N1149 C1153 1.279 . S
C1150 C1148 1.348 . S
C1150 C1152 1.353 . S
C1150 H1208 0.929 . S
C1151 C1148 1.356 . S
C1151 C1153 1.358 . S
C1151 H1209 0.930 . S
C1152 N1149 1.314 . S
C1152 C1150 1.353 . S
C1152 H1210 0.930 . S
C1153 N1149 1.279 . S
C1153 C1151 1.358 . S
C1153 H1211 0.930 . S
C1154 C1157 1.348 . S
C1154 C1158 1.356 . S
C1154 O1205 1.325 . S
C1155 N1156 1.279 . S
C1155 C1158 1.358 . S
C1155 H1212 0.930 . S
N1156 C1155 1.279 . S
N1156 C1159 1.314 . S
C1157 C1154 1.348 . S
C1157 C1159 1.353 . S
C1157 H1213 0.929 . S
C1158 C1154 1.356 . S
C1158 C1155 1.358 . S
C1158 H1214 0.930 . S
C1159 N1156 1.314 . S
C1159 C1157 1.353 . S
C1159 H1215 0.930 . S
C1160 N1161 1.314 . S
C1160 C1165 1.353 . S
C1160 H1166 0.930 . S
N1161 Li1144 1.990 . S
N1161 C1160 1.314 . S
N1161 C1163 1.279 . S
C1162 C1163 1.358 . S
C1162 C1164 1.356 . S
C1162 H1216 0.930 . S
C1163 N1161 1.279 . S
C1163 C1162 1.358 . S
C1163 H1167 0.930 . S
C1164 C1162 1.356 . S
C1164 C1165 1.348 . S
C1165 C1160 1.353 . S
C1165 C1164 1.348 . S
C1165 H1217 0.929 . S
H1166 C1160 0.930 . S
H1167 C1163 0.930 . S
C1168 N1169 1.314 . S
C1168 C1170 1.353 . S
C1168 H1174 0.930 . S
N1169 Li1145 1.990 . S
N1169 C1168 1.314 . S
N1169 C1172 1.279 . S
C1170 C1168 1.353 . S
C1170 C1173 1.348 . S
C1170 H1218 0.929 . S
C1171 C1172 1.358 . S
C1171 C1173 1.356 . S
C1171 H1219 0.930 . S
C1172 N1169 1.279 . S
C1172 C1171 1.358 . S
C1172 H1175 0.930 . S
C1173 C1170 1.348 . S
C1173 C1171 1.356 . S
H1174 C1168 0.930 . S
H1175 C1172 0.930 . S
C1176 C1178 1.348 . S
C1176 C1179 1.356 . S
C1176 O1206 1.325 . S
N1177 C1180 1.314 . S
N1177 C1181 1.279 . S
C1178 C1176 1.348 . S
C1178 C1180 1.353 . S
C1178 H1220 0.929 . S
C1179 C1176 1.356 . S
C1179 C1181 1.358 . S
C1179 H1221 0.930 . S
C1180 N1177 1.314 . S
C1180 C1178 1.353 . S
C1180 H1222 0.930 . S
C1181 N1177 1.279 . S
C1181 C1179 1.358 . S
C1181 H1223 0.930 . S
C1182 C1183 1.348 . S
C1182 C1184 1.356 . S
C1182 O1207 1.325 . S
C1183 C1182 1.348 . S
C1183 C1185 1.353 . S
C1183 H1224 0.929 . S
C1184 C1182 1.356 . S
C1184 C1186 1.358 . S
C1184 H1225 0.930 . S
C1185 C1183 1.353 . S
C1185 N1187 1.314 . S
C1185 H1226 0.930 . S
C1186 C1184 1.358 . S
C1186 N1187 1.279 . S
C1186 H1227 0.930 . S
N1187 C1185 1.314 . S
N1187 C1186 1.279 . S
C1188 C1190 1.353 . S
C1188 N1191 1.314 . S
C1188 H1194 0.930 . S
C1189 N1191 1.279 . S
C1189 C1192 1.358 . S
C1189 H1195 0.930 . S
C1190 C1188 1.353 . S
C1190 C1193 1.348 . S
C1190 H1228 0.929 . S
N1191 Li1146 1.990 . S
N1191 C1188 1.314 . S
N1191 C1189 1.279 . S
C1192 C1189 1.358 . S
C1192 C1193 1.356 . S
C1192 H1229 0.930 . S
C1193 C1190 1.348 . S
C1193 C1192 1.356 . S
H1194 C1188 0.930 . S
H1195 C1189 0.930 . S
C1196 N1197 1.314 . S
C1196 C1198 1.353 . S
C1196 H1202 0.930 . S
N1197 Li1147 1.990 . S
N1197 C1196 1.314 . S
N1197 C1200 1.279 . S
C1198 C1196 1.353 . S
C1198 C1201 1.348 . S
C1198 H1230 0.929 . S
C1199 C1200 1.358 . S
C1199 C1201 1.356 . S
C1199 H1231 0.930 . S
C1200 N1197 1.279 . S
C1200 C1199 1.358 . S
C1200 H1203 0.930 . S
C1201 C1198 1.348 . S
C1201 C1199 1.356 . S
H1202 C1196 0.930 . S
H1203 C1200 0.930 . S
O1204 Li1144 1.956 . S
O1204 Li1145 1.970 . S
O1204 Li1146 1.961 . S
O1204 C1148 1.325 . S
O1205 Li1144 1.970 . S
O1205 Li1145 1.956 . S
O1205 Li1147 1.961 . S
O1205 C1154 1.325 . S
O1206 Li1144 1.961 . S
O1206 Li1146 1.956 . S
O1206 Li1147 1.970 . S
O1206 C1176 1.325 . S
O1207 Li1145 1.961 . S
O1207 Li1146 1.970 . S
O1207 Li1147 1.956 . S
O1207 C1182 1.325 . S
H1208 C1150 0.929 . S
H1209 C1151 0.930 . S
H1210 C1152 0.930 . S
H1211 C1153 0.930 . S
H1212 C1155 0.930 . S
H1213 C1157 0.929 . S
H1214 C1158 0.930 . S
H1215 C1159 0.930 . S
H1216 C1162 0.930 . S
H1217 C1165 0.929 . S
H1218 C1170 0.929 . S
H1219 C1171 0.930 . S
H1220 C1178 0.929 . S
H1221 C1179 0.930 . S
H1222 C1180 0.930 . S
H1223 C1181 0.930 . S
H1224 C1183 0.929 . S
H1225 C1184 0.930 . S
H1226 C1185 0.930 . S
H1227 C1186 0.930 . S
H1228 C1190 0.929 . S
H1229 C1192 0.930 . S
H1230 C1198 0.929 . S
H1231 C1199 0.930 . S
H1232 C1238 0.930 . S
H1233 C1241 0.930 . S
H1234 C1242 0.930 . S
H1235 C1243 0.930 . S
H1236 C1246 0.930 . S
H1237 C1247 0.930 . S
C1238 H1232 0.930 . S
C1238 C1239 1.355 . S
C1238 C1240 1.415 . S
C1239 C1238 1.355 . S
C1239 C1241 1.419 . S
C1240 C1238 1.415 . S
C1240 C1245 1.425 . S
C1240 C1247 1.409 . S
C1241 H1233 0.930 . S
C1241 C1239 1.419 . S
C1241 C1242 1.362 . S
C1242 H1234 0.930 . S
C1242 C1241 1.362 . S
C1242 C1245 1.409 . S
C1243 H1235 0.930 . S
C1243 C1244 1.355 . S
C1243 C1245 1.415 . S
C1244 C1243 1.355 . S
C1244 C1246 1.419 . S
C1245 C1240 1.425 . S
C1245 C1242 1.409 . S
C1245 C1243 1.415 . S
C1246 H1236 0.930 . S
C1246 C1244 1.419 . S
C1246 C1247 1.362 . S
C1247 H1237 0.930 . S
C1247 C1240 1.409 . S
C1247 C1246 1.362 . S
H1248 C1254 0.930 . S
H1249 C1257 0.930 . S
H1250 C1258 0.930 . S
H1251 C1259 0.930 . S
H1252 C1262 0.930 . S
H1253 C1263 0.930 . S
C1254 H1248 0.930 . S
C1254 C1255 1.355 . S
C1254 C1256 1.415 . S
C1255 C1254 1.355 . S
C1255 C1257 1.419 . S
C1256 C1254 1.415 . S
C1256 C1261 1.425 . S
C1256 C1263 1.409 . S
C1257 H1249 0.930 . S
C1257 C1255 1.419 . S
C1257 C1258 1.362 . S
C1258 H1250 0.930 . S
C1258 C1257 1.362 . S
C1258 C1261 1.409 . S
C1259 H1251 0.930 . S
C1259 C1260 1.355 . S
C1259 C1261 1.415 . S
C1260 C1259 1.355 . S
C1260 C1262 1.419 . S
C1261 C1256 1.425 . S
C1261 C1258 1.409 . S
C1261 C1259 1.415 . S
C1262 H1252 0.930 . S
C1262 C1260 1.419 . S
C1262 C1263 1.362 . S
C1263 H1253 0.930 . S
C1263 C1256 1.409 . S
C1263 C1262 1.362 . S
H1264 C1270 0.930 . S
H1265 C1273 0.930 . S
H1266 C1274 0.930 . S
H1267 C1275 0.930 . S
H1268 C1278 0.930 . S
H1269 C1279 0.930 . S
C1270 H1264 0.930 . S
C1270 C1271 1.355 . S
C1270 C1272 1.415 . S
C1271 C1270 1.355 . S
C1271 C1273 1.419 . S
C1272 C1270 1.415 . S
C1272 C1277 1.425 . S
C1272 C1279 1.409 . S
C1273 H1265 0.930 . S
C1273 C1271 1.419 . S
C1273 C1274 1.362 . S
C1274 H1266 0.930 . S
C1274 C1273 1.362 . S
C1274 C1277 1.409 . S
C1275 H1267 0.930 . S
C1275 C1276 1.355 . S
C1275 C1277 1.415 . S
C1276 C1275 1.355 . S
C1276 C1278 1.419 . S
C1277 C1272 1.425 . S
C1277 C1274 1.409 . S
C1277 C1275 1.415 . S
C1278 H1268 0.930 . S
C1278 C1276 1.419 . S
C1278 C1279 1.362 . S
C1279 H1269 0.930 . S
C1279 C1272 1.409 . S
C1279 C1278 1.362 . S
H1280 C1286 0.930 . S
H1281 C1289 0.930 . S
H1282 C1290 0.930 . S
H1283 C1291 0.937 . S
H1284 C1294 0.930 . S
H1285 C1295 0.930 . S
C1286 H1280 0.930 . S
C1286 C1287 1.355 . S
C1286 C1288 1.415 . S
C1287 C1286 1.355 . S
C1287 C1289 1.419 1_565 S
C1288 C1286 1.415 . S
C1288 C1293 1.425 1_565 S
C1288 C1295 1.409 . S
C1289 H1281 0.930 . S
C1289 C1287 1.419 1_545 S
C1289 C1290 1.362 . S
C1290 H1282 0.930 . S
C1290 C1289 1.362 . S
C1290 C1293 1.409 . S
C1291 H1283 0.937 . S
C1291 C1292 1.362 . S
C1291 C1293 1.401 1_655 S
C1292 C1291 1.362 . S
C1292 C1294 1.419 1_545 S
C1293 C1288 1.425 1_545 S
C1293 C1290 1.409 . S
C1293 C1291 1.401 1_455 S
C1294 H1284 0.930 . S
C1294 C1292 1.419 1_565 S
C1294 C1295 1.362 1_655 S
C1295 H1285 0.930 . S
C1295 C1288 1.409 . S
C1295 C1294 1.362 1_455 S
H1296 C1302 0.930 . S
H1297 C1305 0.930 . S
H1298 C1306 0.930 . S
H1299 C1307 0.930 . S
H1300 C1310 0.930 . S
H1301 C1311 0.930 . S
C1302 H1296 0.930 . S
C1302 C1303 1.355 . S
C1302 C1304 1.415 . S
C1303 C1302 1.355 . S
C1303 C1305 1.419 . S
C1304 C1302 1.415 . S
C1304 C1309 1.425 . S
C1304 C1311 1.409 . S
C1305 H1297 0.930 . S
C1305 C1303 1.419 . S
C1305 C1306 1.362 . S
C1306 H1298 0.930 . S
C1306 C1305 1.362 . S
C1306 C1309 1.409 . S
C1307 H1299 0.930 . S
C1307 C1308 1.355 . S
C1307 C1309 1.415 . S
C1308 C1307 1.355 . S
C1308 C1310 1.419 . S
C1309 C1304 1.425 . S
C1309 C1306 1.409 . S
C1309 C1307 1.415 . S
C1310 H1300 0.930 . S
C1310 C1308 1.419 . S
C1310 C1311 1.362 . S
C1311 H1301 0.930 . S
C1311 C1304 1.409 . S
C1311 C1310 1.362 . S
H1312 C1318 0.930 . S
H1313 C1321 0.930 . S
H1314 C1322 0.930 . S
H1315 C1323 0.930 . S
H1316 C1326 0.930 . S
H1317 C1327 0.930 . S
C1318 H1312 0.930 . S
C1318 C1319 1.355 . S
C1318 C1320 1.415 . S
C1319 C1318 1.355 . S
C1319 C1321 1.419 . S
C1320 C1318 1.415 . S
C1320 C1325 1.425 . S
C1320 C1327 1.409 . S
C1321 H1313 0.930 . S
C1321 C1319 1.419 . S
C1321 C1322 1.362 . S
C1322 H1314 0.930 . S
C1322 C1321 1.362 . S
C1322 C1325 1.409 . S
C1323 H1315 0.930 . S
C1323 C1324 1.355 . S
C1323 C1325 1.415 . S
C1324 C1323 1.355 . S
C1324 C1326 1.419 . S
C1325 C1320 1.425 . S
C1325 C1322 1.409 . S
C1325 C1323 1.415 . S
C1326 H1316 0.930 . S
C1326 C1324 1.419 . S
C1326 C1327 1.362 . S
C1327 H1317 0.930 . S
C1327 C1320 1.409 . S
C1327 C1326 1.362 . S
H1328 C1334 0.930 . S
H1329 C1337 0.930 . S
H1330 C1338 0.930 . S
H1331 C1339 0.930 . S
H1332 C1342 0.930 . S
H1333 C1343 0.930 . S
C1334 H1328 0.930 . S
C1334 C1335 1.355 . S
C1334 C1336 1.415 . S
C1335 C1334 1.355 . S
C1335 C1337 1.419 . S
C1336 C1334 1.415 . S
C1336 C1341 1.425 . S
C1336 C1343 1.409 . S
C1337 H1329 0.930 . S
C1337 C1335 1.419 . S
C1337 C1338 1.362 . S
C1338 H1330 0.930 . S
C1338 C1337 1.362 . S
C1338 C1341 1.409 . S
C1339 H1331 0.930 . S
C1339 C1340 1.355 . S
C1339 C1341 1.415 . S
C1340 C1339 1.355 . S
C1340 C1342 1.419 . S
C1341 C1336 1.425 . S
C1341 C1338 1.409 . S
C1341 C1339 1.415 . S
C1342 H1332 0.930 . S
C1342 C1340 1.419 . S
C1342 C1343 1.362 . S
C1343 H1333 0.930 . S
C1343 C1336 1.409 . S
C1343 C1342 1.362 . S
H1344 C1350 0.930 . S
H1345 C1353 0.930 . S
H1346 C1354 0.930 . S
H1347 C1355 0.930 . S
H1348 C1358 0.930 . S
H1349 C1359 0.948 . S
C1350 H1344 0.930 . S
C1350 C1351 1.355 . S
C1350 C1352 1.415 . S
C1351 C1350 1.355 . S
C1351 C1353 1.419 . S
C1352 C1350 1.415 . S
C1352 C1357 1.425 . S
C1352 C1359 1.409 . S
C1353 H1345 0.930 . S
C1353 C1351 1.419 . S
C1353 C1354 1.362 . S
C1354 H1346 0.930 . S
C1354 C1353 1.362 . S
C1354 C1357 1.409 . S
C1355 H1347 0.930 . S
C1355 C1356 1.355 . S
C1355 C1357 1.415 . S
C1356 C1355 1.355 . S
C1356 C1358 1.419 . S
C1357 C1352 1.425 . S
C1357 C1354 1.409 . S
C1357 C1355 1.415 . S
C1358 H1348 0.930 . S
C1358 C1356 1.419 . S
C1358 C1359 1.362 . S
C1359 H1349 0.948 . S
C1359 C1352 1.409 . S
C1359 C1358 1.362 . S
H1360 C1366 0.930 . S
H1361 C1369 0.930 . S
H1362 C1370 0.930 . S
H1363 C1371 0.930 . S
H1364 C1374 0.930 . S
H1365 C1375 0.930 . S
C1366 H1360 0.930 . S
C1366 C1367 1.355 . S
C1366 C1368 1.415 . S
C1367 C1366 1.355 . S
C1367 C1369 1.419 . S
C1368 C1366 1.415 . S
C1368 C1373 1.425 . S
C1368 C1375 1.409 . S
C1369 H1361 0.930 . S
C1369 C1367 1.419 . S
C1369 C1370 1.362 . S
C1370 H1362 0.930 . S
C1370 C1369 1.362 . S
C1370 C1373 1.409 . S
C1371 H1363 0.930 . S
C1371 C1372 1.355 . S
C1371 C1373 1.415 . S
C1372 C1371 1.355 . S
C1372 C1374 1.419 . S
C1373 C1368 1.425 . S
C1373 C1370 1.409 . S
C1373 C1371 1.415 . S
C1374 H1364 0.930 . S
C1374 C1372 1.419 . S
C1374 C1375 1.362 . S
C1375 H1365 0.930 . S
C1375 C1368 1.409 . S
C1375 C1374 1.362 . S
H1376 C1382 0.930 . S
H1377 C1385 0.930 . S
H1378 C1386 0.930 . S
H1379 C1387 0.930 . S
H1380 C1390 0.930 . S
H1381 C1391 0.930 . S
C1382 H1376 0.930 . S
C1382 C1383 1.355 . S
C1382 C1384 1.415 . S
C1383 C1382 1.355 . S
C1383 C1385 1.419 . S
C1384 C1382 1.415 . S
C1384 C1389 1.425 . S
C1384 C1391 1.409 . S
C1385 H1377 0.930 . S
C1385 C1383 1.419 . S
C1385 C1386 1.362 . S
C1386 H1378 0.930 . S
C1386 C1385 1.362 . S
C1386 C1389 1.409 . S
C1387 H1379 0.930 . S
C1387 C1388 1.355 . S
C1387 C1389 1.415 . S
C1388 C1387 1.355 . S
C1388 C1390 1.419 . S
C1389 C1384 1.425 . S
C1389 C1386 1.409 . S
C1389 C1387 1.415 . S
C1390 H1380 0.930 . S
C1390 C1388 1.419 . S
C1390 C1391 1.362 . S
C1391 H1381 0.930 . S
C1391 C1384 1.409 . S
C1391 C1390 1.362 . S
H1392 C1398 0.930 . S
H1393 C1401 0.930 . S
H1394 C1402 0.930 . S
H1395 C1403 0.930 . S
H1396 C1406 0.930 . S
H1397 C1407 0.930 . S
C1398 H1392 0.930 . S
C1398 C1399 1.355 . S
C1398 C1400 1.415 . S
C1399 C1398 1.355 . S
C1399 C1401 1.419 . S
C1400 C1398 1.415 . S
C1400 C1405 1.425 . S
C1400 C1407 1.409 . S
C1401 H1393 0.930 . S
C1401 C1399 1.419 . S
C1401 C1402 1.362 . S
C1402 H1394 0.930 . S
C1402 C1401 1.362 . S
C1402 C1405 1.409 . S
C1403 H1395 0.930 . S
C1403 C1404 1.355 . S
C1403 C1405 1.415 . S
C1404 C1403 1.355 . S
C1404 C1406 1.419 . S
C1405 C1400 1.425 . S
C1405 C1402 1.409 . S
C1405 C1403 1.415 . S
C1406 H1396 0.930 . S
C1406 C1404 1.419 . S
C1406 C1407 1.362 . S
C1407 H1397 0.930 . S
C1407 C1400 1.409 . S
C1407 C1406 1.362 . S
H1408 C1414 0.930 . S
H1409 C1417 0.930 . S
H1410 C1418 0.930 . S
H1411 C1419 0.930 . S
H1412 C1422 0.930 . S
H1413 C1423 0.930 . S
C1414 H1408 0.930 . S
C1414 C1415 1.355 . S
C1414 C1416 1.415 . S
C1415 C1414 1.355 . S
C1415 C1417 1.419 . S
C1416 C1414 1.415 . S
C1416 C1421 1.425 . S
C1416 C1423 1.409 . S
C1417 H1409 0.930 . S
C1417 C1415 1.419 . S
C1417 C1418 1.362 . S
C1418 H1410 0.930 . S
C1418 C1417 1.362 . S
C1418 C1421 1.409 . S
C1419 H1411 0.930 . S
C1419 C1420 1.355 . S
C1419 C1421 1.415 . S
C1420 C1419 1.355 . S
C1420 C1422 1.419 . S
C1421 C1416 1.425 . S
C1421 C1418 1.409 . S
C1421 C1419 1.415 . S
C1422 H1412 0.930 . S
C1422 C1420 1.419 . S
C1422 C1423 1.362 . S
C1423 H1413 0.930 . S
C1423 C1416 1.409 . S
C1423 C1422 1.362 . S
H1424 C1430 0.930 . S
H1425 C1433 0.930 . S
H1426 C1434 0.930 . S
H1427 C1435 0.930 . S
H1428 C1438 0.930 . S
H1429 C1439 0.930 . S
C1430 H1424 0.930 . S
C1430 C1431 1.355 . S
C1430 C1432 1.415 . S
C1431 C1430 1.355 . S
C1431 C1433 1.419 . S
C1432 C1430 1.415 . S
C1432 C1437 1.425 . S
C1432 C1439 1.409 . S
C1433 H1425 0.930 . S
C1433 C1431 1.419 . S
C1433 C1434 1.362 . S
C1434 H1426 0.930 . S
C1434 C1433 1.362 . S
C1434 C1437 1.409 . S
C1435 H1427 0.930 . S
C1435 C1436 1.355 . S
C1435 C1437 1.415 . S
C1436 C1435 1.355 . S
C1436 C1438 1.419 . S
C1437 C1432 1.425 . S
C1437 C1434 1.409 . S
C1437 C1435 1.415 . S
C1438 H1428 0.930 . S
C1438 C1436 1.419 . S
C1438 C1439 1.362 . S
C1439 H1429 0.930 . S
C1439 C1432 1.409 . S
C1439 C1438 1.362 . S
H1440 C1446 0.930 . S
H1441 C1449 0.930 . S
H1442 C1450 0.930 . S
H1443 C1451 0.930 . S
H1444 C1454 0.930 . S
H1445 C1455 0.930 . S
C1446 H1440 0.930 . S
C1446 C1447 1.355 . S
C1446 C1448 1.415 . S
C1447 C1446 1.355 . S
C1447 C1449 1.419 . S
C1448 C1446 1.415 . S
C1448 C1453 1.425 . S
C1448 C1455 1.409 . S
C1449 H1441 0.930 . S
C1449 C1447 1.419 . S
C1449 C1450 1.362 . S
C1450 H1442 0.930 . S
C1450 C1449 1.362 . S
C1450 C1453 1.409 . S
C1451 H1443 0.930 . S
C1451 C1452 1.355 . S
C1451 C1453 1.415 . S
C1452 C1451 1.355 . S
C1452 C1454 1.419 . S
C1453 C1448 1.425 . S
C1453 C1450 1.409 . S
C1453 C1451 1.415 . S
C1454 H1444 0.930 . S
C1454 C1452 1.419 . S
C1454 C1455 1.362 . S
C1455 H1445 0.930 . S
C1455 C1448 1.409 . S
C1455 C1454 1.362 . S
H1456 C1462 0.930 . S
H1457 C1465 0.930 . S
H1458 C1466 0.930 . S
H1459 C1467 0.930 . S
H1460 C1470 0.930 . S
H1461 C1471 0.930 . S
C1462 H1456 0.930 . S
C1462 C1463 1.355 . S
C1462 C1464 1.415 . S
C1463 C1462 1.355 . S
C1463 C1465 1.419 . S
C1464 C1462 1.415 . S
C1464 C1469 1.425 . S
C1464 C1471 1.409 . S
C1465 H1457 0.930 . S
C1465 C1463 1.419 . S
C1465 C1466 1.362 . S
C1466 H1458 0.930 . S
C1466 C1465 1.362 . S
C1466 C1469 1.409 . S
C1467 H1459 0.930 . S
C1467 C1468 1.355 . S
C1467 C1469 1.415 . S
C1468 C1467 1.355 . S
C1468 C1470 1.419 . S
C1469 C1464 1.425 . S
C1469 C1466 1.409 . S
C1469 C1467 1.415 . S
C1470 H1460 0.930 . S
C1470 C1468 1.419 . S
C1470 C1471 1.362 . S
C1471 H1461 0.930 . S
C1471 C1464 1.409 . S
C1471 C1470 1.362 . S
H1472 C1478 0.930 . S
H1473 C1481 0.930 . S
H1474 C1482 0.930 . S
H1475 C1483 0.930 . S
H1476 C1486 0.930 . S
H1477 C1487 0.930 . S
C1478 H1472 0.930 . S
C1478 C1479 1.355 . S
C1478 C1480 1.415 . S
C1479 C1478 1.355 . S
C1479 C1481 1.419 1_655 S
C1480 C1478 1.415 . S
C1480 C1485 1.442 . S
C1480 C1487 1.409 . S
C1481 H1473 0.930 . S
C1481 C1479 1.419 1_455 S
C1481 C1482 1.362 . S
C1482 H1474 0.930 . S
C1482 C1481 1.362 . S
C1482 C1485 1.395 1_455 S
C1483 H1475 0.930 . S
C1483 C1484 1.355 1_455 S
C1483 C1485 1.413 1_455 S
C1484 C1483 1.355 1_655 S
C1484 C1486 1.419 . S
C1485 C1480 1.442 . S
C1485 C1482 1.395 1_655 S
C1485 C1483 1.413 1_655 S
C1486 H1476 0.930 . S
C1486 C1484 1.419 . S
C1486 C1487 1.362 . S
C1487 H1477 0.930 . S
C1487 C1480 1.409 . S
C1487 C1486 1.362 . S
H1488 C1494 0.930 . S
H1489 C1497 0.930 . S
H1490 C1498 0.930 . S
H1491 C1499 0.930 . S
H1492 C1502 0.930 . S
H1493 C1503 0.930 . S
C1494 H1488 0.930 . S
C1494 C1495 1.355 . S
C1494 C1496 1.415 . S
C1495 C1494 1.355 . S
C1495 C1497 1.419 . S
C1496 C1494 1.415 . S
C1496 C1501 1.425 . S
C1496 C1503 1.409 . S
C1497 H1489 0.930 . S
C1497 C1495 1.419 . S
C1497 C1498 1.362 . S
C1498 H1490 0.930 . S
C1498 C1497 1.362 . S
C1498 C1501 1.409 . S
C1499 H1491 0.930 . S
C1499 C1500 1.355 . S
C1499 C1501 1.415 . S
C1500 C1499 1.355 . S
C1500 C1502 1.419 . S
C1501 C1496 1.425 . S
C1501 C1498 1.409 . S
C1501 C1499 1.415 . S
C1502 H1492 0.930 . S
C1502 C1500 1.419 . S
C1502 C1503 1.362 . S
C1503 H1493 0.930 . S
C1503 C1496 1.409 . S
C1503 C1502 1.362 . S
H1504 C1510 0.930 . S
H1505 C1513 0.930 . S
H1506 C1514 0.930 . S
H1507 C1515 0.930 . S
H1508 C1518 0.930 . S
H1509 C1519 0.930 . S
C1510 H1504 0.930 . S
C1510 C1511 1.355 . S
C1510 C1512 1.415 . S
C1511 C1510 1.355 . S
C1511 C1513 1.419 . S
C1512 C1510 1.415 . S
C1512 C1517 1.425 . S
C1512 C1519 1.409 . S
C1513 H1505 0.930 . S
C1513 C1511 1.419 . S
C1513 C1514 1.362 . S
C1514 H1506 0.930 . S
C1514 C1513 1.362 . S
C1514 C1517 1.409 . S
C1515 H1507 0.930 . S
C1515 C1516 1.355 . S
C1515 C1517 1.415 . S
C1516 C1515 1.355 . S
C1516 C1518 1.419 . S
C1517 C1512 1.425 . S
C1517 C1514 1.409 . S
C1517 C1515 1.415 . S
C1518 H1508 0.930 . S
C1518 C1516 1.419 . S
C1518 C1519 1.362 . S
C1519 H1509 0.930 . S
C1519 C1512 1.409 . S
C1519 C1518 1.362 . S
H1520 C1526 0.930 . S
H1521 C1529 0.930 . S
H1522 C1530 0.930 . S
H1523 C1531 0.930 . S
H1524 C1534 0.930 . S
H1525 C1535 0.930 . S
C1526 H1520 0.930 . S
C1526 C1527 1.355 1_565 S
C1526 C1528 1.415 1_556 S
C1527 C1526 1.355 1_545 S
C1527 C1529 1.419 . S
C1528 C1526 1.415 1_554 S
C1528 C1533 1.425 . S
C1528 C1535 1.409 . S
C1529 H1521 0.930 . S
C1529 C1527 1.419 . S
C1529 C1530 1.362 . S
C1530 H1522 0.930 . S
C1530 C1529 1.362 . S
C1530 C1533 1.409 1_546 S
C1531 H1523 0.930 . S
C1531 C1532 1.355 . S
C1531 C1533 1.415 . S
C1532 C1531 1.355 . S
C1532 C1534 1.419 . S
C1533 C1528 1.425 . S
C1533 C1530 1.409 1_564 S
C1533 C1531 1.415 . S
C1534 H1524 0.930 . S
C1534 C1532 1.419 . S
C1534 C1535 1.362 . S
C1535 H1525 0.930 . S
C1535 C1528 1.409 . S
C1535 C1534 1.362 . S
H1536 C1542 0.930 . S
H1537 C1545 0.930 . S
H1538 C1546 0.930 . S
H1539 C1547 0.930 . S
H1540 C1550 0.930 . S
H1541 C1551 0.930 . S
C1542 H1536 0.930 . S
C1542 C1543 1.355 . S
C1542 C1544 1.415 . S
C1543 C1542 1.355 . S
C1543 C1545 1.419 . S
C1544 C1542 1.415 . S
C1544 C1549 1.425 . S
C1544 C1551 1.409 . S
C1545 H1537 0.930 . S
C1545 C1543 1.419 . S
C1545 C1546 1.362 . S
C1546 H1538 0.930 . S
C1546 C1545 1.362 . S
C1546 C1549 1.409 . S
C1547 H1539 0.930 . S
C1547 C1548 1.355 . S
C1547 C1549 1.415 . S
C1548 C1547 1.355 . S
C1548 C1550 1.419 . S
C1549 C1544 1.425 . S
C1549 C1546 1.409 . S
C1549 C1547 1.415 . S
C1550 H1540 0.930 . S
C1550 C1548 1.419 . S
C1550 C1551 1.362 . S
C1551 H1541 0.930 . S
C1551 C1544 1.409 . S
C1551 C1550 1.362 . S
H1552 C1558 0.930 1_565 S
H1553 C1561 0.930 . S
H1554 C1562 0.930 . S
H1555 C1563 0.930 . S
H1556 C1566 0.930 . S
H1557 C1567 0.930 . S
C1558 H1552 0.930 1_545 S
C1558 C1559 1.355 . S
C1558 C1560 1.415 . S
C1559 C1558 1.355 . S
C1559 C1561 1.419 . S
C1560 C1558 1.415 . S
C1560 C1565 1.425 . S
C1560 C1567 1.409 . S
C1561 H1553 0.930 . S
C1561 C1559 1.419 . S
C1561 C1562 1.362 . S
C1562 H1554 0.930 . S
C1562 C1561 1.362 . S
C1562 C1565 1.409 . S
C1563 H1555 0.930 . S
C1563 C1564 1.355 . S
C1563 C1565 1.415 . S
C1564 C1563 1.355 . S
C1564 C1566 1.419 . S
C1565 C1560 1.425 . S
C1565 C1562 1.409 . S
C1565 C1563 1.415 . S
C1566 H1556 0.930 . S
C1566 C1564 1.419 . S
C1566 C1567 1.362 . S
C1567 H1557 0.930 . S
C1567 C1560 1.409 . S
C1567 C1566 1.362 . S
H1568 C1574 0.930 . S
H1569 C1577 0.930 . S
H1570 C1578 0.930 . S
H1571 C1579 0.930 . S
H1572 C1582 0.930 . S
H1573 C1583 0.930 . S
C1574 H1568 0.930 . S
C1574 C1575 1.355 . S
C1574 C1576 1.415 . S
C1575 C1574 1.355 . S
C1575 C1577 1.419 . S
C1576 C1574 1.415 . S
C1576 C1581 1.425 . S
C1576 C1583 1.409 . S
C1577 H1569 0.930 . S
C1577 C1575 1.419 . S
C1577 C1578 1.362 . S
C1578 H1570 0.930 . S
C1578 C1577 1.362 . S
C1578 C1581 1.409 . S
C1579 H1571 0.930 . S
C1579 C1580 1.355 . S
C1579 C1581 1.415 . S
C1580 C1579 1.355 . S
C1580 C1582 1.419 . S
C1581 C1576 1.425 . S
C1581 C1578 1.409 . S
C1581 C1579 1.415 . S
C1582 H1572 0.930 . S
C1582 C1580 1.419 . S
C1582 C1583 1.362 . S
C1583 H1573 0.930 . S
C1583 C1576 1.409 . S
C1583 C1582 1.362 . S
H1584 C1590 0.930 . S
H1585 C1593 0.930 . S
H1586 C1594 0.930 . S
H1587 C1595 0.930 . S
H1588 C1598 0.930 . S
H1589 C1599 0.930 . S
C1590 H1584 0.930 . S
C1590 C1591 1.355 . S
C1590 C1592 1.415 . S
C1591 C1590 1.355 . S
C1591 C1593 1.419 . S
C1592 C1590 1.415 . S
C1592 C1597 1.425 . S
C1592 C1599 1.409 . S
C1593 H1585 0.930 . S
C1593 C1591 1.419 . S
C1593 C1594 1.362 . S
C1594 H1586 0.930 . S
C1594 C1593 1.362 . S
C1594 C1597 1.409 . S
C1595 H1587 0.930 . S
C1595 C1596 1.355 . S
C1595 C1597 1.415 . S
C1596 C1595 1.355 . S
C1596 C1598 1.419 . S
C1597 C1592 1.425 . S
C1597 C1594 1.409 . S
C1597 C1595 1.415 . S
C1598 H1588 0.930 . S
C1598 C1596 1.419 . S
C1598 C1599 1.362 . S
C1599 H1589 0.930 . S
C1599 C1592 1.409 . S
C1599 C1598 1.362 . S
H1600 C1606 0.930 . S
H1601 C1609 0.930 . S
H1602 C1610 0.930 . S
H1603 C1611 0.930 . S
H1604 C1614 0.930 . S
H1605 C1615 0.930 . S
C1606 H1600 0.930 . S
C1606 C1607 1.355 . S
C1606 C1608 1.415 . S
C1607 C1606 1.355 . S
C1607 C1609 1.419 . S
C1608 C1606 1.415 . S
C1608 C1613 1.425 . S
C1608 C1615 1.409 . S
C1609 H1601 0.930 . S
C1609 C1607 1.419 . S
C1609 C1610 1.362 . S
C1610 H1602 0.930 . S
C1610 C1609 1.362 . S
C1610 C1613 1.409 . S
C1611 H1603 0.930 . S
C1611 C1612 1.355 . S
C1611 C1613 1.415 . S
C1612 C1611 1.355 . S
C1612 C1614 1.419 . S
C1613 C1608 1.425 . S
C1613 C1610 1.409 . S
C1613 C1611 1.415 . S
C1614 H1604 0.930 . S
C1614 C1612 1.419 . S
C1614 C1615 1.362 . S
C1615 H1605 0.930 . S
C1615 C1608 1.409 . S
C1615 C1614 1.362 . S
H1616 C1622 0.930 . S
H1617 C1625 0.930 . S
H1618 C1626 0.930 . S
H1619 C1627 0.930 . S
H1620 C1630 0.930 . S
H1621 C1631 0.930 . S
C1622 H1616 0.930 . S
C1622 C1623 1.355 . S
C1622 C1624 1.415 . S
C1623 C1622 1.355 . S
C1623 C1625 1.419 . S
C1624 C1622 1.415 . S
C1624 C1629 1.425 . S
C1624 C1631 1.409 . S
C1625 H1617 0.930 . S
C1625 C1623 1.419 . S
C1625 C1626 1.362 . S
C1626 H1618 0.930 . S
C1626 C1625 1.362 . S
C1626 C1629 1.409 . S
C1627 H1619 0.930 . S
C1627 C1628 1.355 . S
C1627 C1629 1.415 . S
C1628 C1627 1.355 . S
C1628 C1630 1.419 . S
C1629 C1624 1.425 . S
C1629 C1626 1.409 . S
C1629 C1627 1.415 . S
C1630 H1620 0.930 . S
C1630 C1628 1.419 . S
C1630 C1631 1.362 . S
C1631 H1621 0.930 . S
C1631 C1624 1.409 . S
C1631 C1630 1.362 . S
H1632 C1638 0.930 . S
H1633 C1641 0.930 . S
H1634 C1642 0.930 . S
H1635 C1643 0.930 . S
H1636 C1646 0.930 1_565 S
H1637 C1647 0.930 1_565 S
C1638 H1632 0.930 . S
C1638 C1639 1.355 . S
C1638 C1640 1.415 . S
C1639 C1638 1.355 . S
C1639 C1641 1.419 . S
C1640 C1638 1.415 . S
C1640 C1645 1.425 . S
C1640 C1647 1.409 . S
C1641 H1633 0.930 . S
C1641 C1639 1.419 . S
C1641 C1642 1.362 . S
C1642 H1634 0.930 . S
C1642 C1641 1.362 . S
C1642 C1645 1.409 . S
C1643 H1635 0.930 . S
C1643 C1644 1.355 . S
C1643 C1645 1.415 . S
C1644 C1643 1.355 . S
C1644 C1646 1.419 . S
C1645 C1640 1.425 . S
C1645 C1642 1.409 . S
C1645 C1643 1.415 . S
C1646 H1636 0.930 1_545 S
C1646 C1644 1.419 . S
C1646 C1647 1.362 . S
C1647 H1637 0.930 1_545 S
C1647 C1640 1.409 . S
C1647 C1646 1.362 . S
H1648 C1654 0.930 . S
H1649 C1657 0.930 . S
H1650 C1658 0.930 . S
H1651 C1659 0.930 . S
H1652 C1662 0.930 . S
H1653 C1663 0.930 . S
C1654 H1648 0.930 . S
C1654 C1655 1.355 . S
C1654 C1656 1.415 . S
C1655 C1654 1.355 . S
C1655 C1657 1.419 . S
C1656 C1654 1.415 . S
C1656 C1661 1.425 . S
C1656 C1663 1.409 . S
C1657 H1649 0.930 . S
C1657 C1655 1.419 . S
C1657 C1658 1.362 . S
C1658 H1650 0.930 . S
C1658 C1657 1.362 . S
C1658 C1661 1.409 . S
C1659 H1651 0.930 . S
C1659 C1660 1.355 . S
C1659 C1661 1.415 . S
C1660 C1659 1.355 . S
C1660 C1662 1.419 . S
C1661 C1656 1.425 . S
C1661 C1658 1.409 . S
C1661 C1659 1.415 . S
C1662 H1652 0.930 . S
C1662 C1660 1.419 . S
C1662 C1663 1.362 . S
C1663 H1653 0.930 . S
C1663 C1656 1.409 . S
C1663 C1662 1.362 . S
H1664 C1670 0.930 . S
H1665 C1673 0.930 . S
H1666 C1674 0.930 . S
H1667 C1675 0.930 . S
H1668 C1678 0.930 . S
H1669 C1679 0.930 . S
C1670 H1664 0.930 . S
C1670 C1671 1.355 . S
C1670 C1672 1.415 . S
C1671 C1670 1.355 . S
C1671 C1673 1.419 . S
C1672 C1670 1.415 . S
C1672 C1677 1.425 . S
C1672 C1679 1.409 . S
C1673 H1665 0.930 . S
C1673 C1671 1.419 . S
C1673 C1674 1.362 . S
C1674 H1666 0.930 . S
C1674 C1673 1.362 . S
C1674 C1677 1.409 . S
C1675 H1667 0.930 . S
C1675 C1676 1.355 . S
C1675 C1677 1.415 . S
C1676 C1675 1.355 . S
C1676 C1678 1.419 . S
C1677 C1672 1.425 . S
C1677 C1674 1.409 . S
C1677 C1675 1.415 . S
C1678 H1668 0.930 . S
C1678 C1676 1.419 . S
C1678 C1679 1.362 . S
C1679 H1669 0.930 . S
C1679 C1672 1.409 . S
C1679 C1678 1.362 . S
H1680 C1686 0.930 . S
H1681 C1689 0.930 . S
H1682 C1690 0.930 . S
H1683 C1691 0.930 . S
H1684 C1694 0.930 . S
H1685 C1695 0.930 . S
C1686 H1680 0.930 . S
C1686 C1687 1.355 . S
C1686 C1688 1.415 . S
C1687 C1686 1.355 . S
C1687 C1689 1.419 . S
C1688 C1686 1.415 . S
C1688 C1693 1.425 . S
C1688 C1695 1.409 . S
C1689 H1681 0.930 . S
C1689 C1687 1.419 . S
C1689 C1690 1.362 . S
C1690 H1682 0.930 . S
C1690 C1689 1.362 . S
C1690 C1693 1.409 . S
C1691 H1683 0.930 . S
C1691 C1692 1.355 . S
C1691 C1693 1.415 . S
C1692 C1691 1.355 . S
C1692 C1694 1.419 . S
C1693 C1688 1.425 . S
C1693 C1690 1.409 . S
C1693 C1691 1.415 . S
C1694 H1684 0.930 . S
C1694 C1692 1.419 . S
C1694 C1695 1.362 . S
C1695 H1685 0.930 . S
C1695 C1688 1.409 . S
C1695 C1694 1.362 . S
H1696 C1702 0.930 . S
H1697 C1705 0.930 . S
H1698 C1706 0.930 . S
H1699 C1707 0.930 . S
H1700 C1710 0.930 . S
H1701 C1711 0.930 . S
C1702 H1696 0.930 . S
C1702 C1703 1.355 . S
C1702 C1704 1.415 . S
C1703 C1702 1.355 . S
C1703 C1705 1.419 . S
C1704 C1702 1.415 . S
C1704 C1709 1.425 . S
C1704 C1711 1.409 . S
C1705 H1697 0.930 . S
C1705 C1703 1.419 . S
C1705 C1706 1.362 1_455 S
C1706 H1698 0.930 . S
C1706 C1705 1.362 1_655 S
C1706 C1709 1.409 1_655 S
C1707 H1699 0.930 . S
C1707 C1708 1.355 . S
C1707 C1709 1.415 1_655 S
C1708 C1707 1.355 . S
C1708 C1710 1.419 1_655 S
C1709 C1704 1.425 . S
C1709 C1706 1.409 1_455 S
C1709 C1707 1.415 1_455 S
C1710 H1700 0.930 . S
C1710 C1708 1.419 1_455 S
C1710 C1711 1.362 . S
C1711 H1701 0.930 . S
C1711 C1704 1.409 . S
C1711 C1710 1.362 . S
H1712 C1718 0.930 . S
H1713 C1721 0.930 . S
H1714 C1722 0.930 . S
H1715 C1723 0.930 . S
H1716 C1726 0.930 . S
H1717 C1727 0.930 . S
C1718 H1712 0.930 . S
C1718 C1719 1.355 . S
C1718 C1720 1.415 . S
C1719 C1718 1.355 . S
C1719 C1721 1.419 . S
C1720 C1718 1.415 . S
C1720 C1725 1.425 . S
C1720 C1727 1.409 . S
C1721 H1713 0.930 . S
C1721 C1719 1.419 . S
C1721 C1722 1.362 . S
C1722 H1714 0.930 . S
C1722 C1721 1.362 . S
C1722 C1725 1.409 . S
C1723 H1715 0.930 . S
C1723 C1724 1.355 . S
C1723 C1725 1.415 . S
C1724 C1723 1.355 . S
C1724 C1726 1.419 . S
C1725 C1720 1.425 . S
C1725 C1722 1.409 . S
C1725 C1723 1.415 . S
C1726 H1716 0.930 . S
C1726 C1724 1.419 . S
C1726 C1727 1.362 . S
C1727 H1717 0.930 . S
C1727 C1720 1.409 . S
C1727 C1726 1.362 . S
H1728 C1734 0.930 . S
H1729 C1737 0.930 . S
H1730 C1738 0.930 . S
H1731 C1739 0.930 . S
H1732 C1742 0.930 . S
H1733 C1743 0.930 . S
C1734 H1728 0.930 . S
C1734 C1735 1.355 . S
C1734 C1736 1.415 . S
C1735 C1734 1.355 . S
C1735 C1737 1.419 . S
C1736 C1734 1.415 . S
C1736 C1741 1.425 . S
C1736 C1743 1.409 . S
C1737 H1729 0.930 . S
C1737 C1735 1.419 . S
C1737 C1738 1.362 . S
C1738 H1730 0.930 . S
C1738 C1737 1.362 . S
C1738 C1741 1.409 . S
C1739 H1731 0.930 . S
C1739 C1740 1.355 . S
C1739 C1741 1.415 . S
C1740 C1739 1.355 . S
C1740 C1742 1.419 . S
C1741 C1736 1.425 . S
C1741 C1738 1.409 . S
C1741 C1739 1.415 . S
C1742 H1732 0.930 . S
C1742 C1740 1.419 . S
C1742 C1743 1.362 . S
C1743 H1733 0.930 . S
C1743 C1736 1.409 . S
C1743 C1742 1.362 . S
H1744 C1750 0.930 . S
H1745 C1753 0.930 . S
H1746 C1754 0.930 . S
H1747 C1755 0.930 . S
H1748 C1758 0.930 . S
H1749 C1759 0.930 . S
C1750 H1744 0.930 . S
C1750 C1751 1.355 . S
C1750 C1752 1.415 . S
C1751 C1750 1.355 . S
C1751 C1753 1.419 . S
C1752 C1750 1.415 . S
C1752 C1757 1.425 . S
C1752 C1759 1.409 . S
C1753 H1745 0.930 . S
C1753 C1751 1.419 . S
C1753 C1754 1.362 . S
C1754 H1746 0.930 . S
C1754 C1753 1.362 . S
C1754 C1757 1.409 . S
C1755 H1747 0.930 . S
C1755 C1756 1.355 . S
C1755 C1757 1.415 . S
C1756 C1755 1.355 . S
C1756 C1758 1.419 . S
C1757 C1752 1.425 . S
C1757 C1754 1.409 . S
C1757 C1755 1.415 . S
C1758 H1748 0.930 . S
C1758 C1756 1.419 . S
C1758 C1759 1.362 . S
C1759 H1749 0.930 . S
C1759 C1752 1.409 . S
C1759 C1758 1.362 . S
H1760 C1766 0.930 . S
H1761 C1769 0.930 . S
H1762 C1770 0.930 . S
H1763 C1771 0.933 . S
H1764 C1774 0.930 . S
H1765 C1775 0.930 . S
C1766 H1760 0.930 . S
C1766 C1767 1.347 1_456 S
C1766 C1768 1.415 . S
C1767 C1766 1.347 1_654 S
C1767 C1769 1.423 . S
C1768 C1766 1.415 . S
C1768 C1773 1.430 . S
C1768 C1775 1.409 . S
C1769 H1761 0.930 . S
C1769 C1767 1.423 . S
C1769 C1770 1.362 . S
C1770 H1762 0.930 . S
C1770 C1769 1.362 . S
C1770 C1773 1.399 1_654 S
C1771 H1763 0.933 . S
C1771 C1772 1.355 . S
C1771 C1773 1.423 . S
C1772 C1771 1.355 . S
C1772 C1774 1.419 . S
C1773 C1768 1.430 . S
C1773 C1770 1.399 1_456 S
C1773 C1771 1.423 . S
C1774 H1764 0.930 . S
C1774 C1772 1.419 . S
C1774 C1775 1.362 . S
C1775 H1765 0.930 . S
C1775 C1768 1.409 . S
C1775 C1774 1.362 . S
H1776 C1782 0.930 . S
H1777 C1785 0.930 . S
H1778 C1786 0.930 . S
H1779 C1787 0.930 . S
H1780 C1790 0.930 . S
H1781 C1791 0.930 . S
C1782 H1776 0.930 . S
C1782 C1783 1.355 . S
C1782 C1784 1.415 . S
C1783 C1782 1.355 . S
C1783 C1785 1.419 . S
C1784 C1782 1.415 . S
C1784 C1789 1.425 . S
C1784 C1791 1.409 . S
C1785 H1777 0.930 . S
C1785 C1783 1.419 . S
C1785 C1786 1.362 . S
C1786 H1778 0.930 . S
C1786 C1785 1.362 . S
C1786 C1789 1.409 . S
C1787 H1779 0.930 . S
C1787 C1788 1.355 . S
C1787 C1789 1.415 . S
C1788 C1787 1.355 . S
C1788 C1790 1.419 . S
C1789 C1784 1.425 . S
C1789 C1786 1.409 . S
C1789 C1787 1.415 . S
C1790 H1780 0.930 . S
C1790 C1788 1.419 . S
C1790 C1791 1.362 . S
C1791 H1781 0.930 . S
C1791 C1784 1.409 . S
C1791 C1790 1.362 . S
H1792 C1798 0.937 . S
H1793 C1801 0.930 . S
H1794 C1802 0.930 . S
H1795 C1803 0.930 . S
H1796 C1806 0.930 1_655 S
H1797 C1807 0.930 1_655 S
C1798 H1792 0.937 . S
C1798 C1799 1.355 1_556 S
C1798 C1800 1.415 . S
C1799 C1798 1.355 1_554 S
C1799 C1801 1.419 . S
C1800 C1798 1.415 . S
C1800 C1805 1.425 . S
C1800 C1807 1.409 . S
C1801 H1793 0.930 . S
C1801 C1799 1.419 . S
C1801 C1802 1.362 1_554 S
C1802 H1794 0.930 . S
C1802 C1801 1.362 1_556 S
C1802 C1805 1.409 . S
C1803 H1795 0.930 . S
C1803 C1804 1.355 . S
C1803 C1805 1.415 . S
C1804 C1803 1.355 . S
C1804 C1806 1.419 . S
C1805 C1800 1.425 . S
C1805 C1802 1.409 . S
C1805 C1803 1.415 . S
C1806 H1796 0.930 1_455 S
C1806 C1804 1.419 . S
C1806 C1807 1.362 . S
C1807 H1797 0.930 1_455 S
C1807 C1800 1.409 . S
C1807 C1806 1.362 . S
H1808 C1814 0.930 . S
H1809 C1817 0.930 . S
H1810 C1818 0.930 . S
H1811 C1819 0.930 . S
H1812 C1822 0.930 . S
H1813 C1823 0.930 . S
C1814 H1808 0.930 . S
C1814 C1815 1.355 . S
C1814 C1816 1.415 . S
C1815 C1814 1.355 . S
C1815 C1817 1.419 . S
C1816 C1814 1.415 . S
C1816 C1821 1.425 . S
C1816 C1823 1.409 . S
C1817 H1809 0.930 . S
C1817 C1815 1.419 . S
C1817 C1818 1.362 . S
C1818 H1810 0.930 . S
C1818 C1817 1.362 . S
C1818 C1821 1.409 . S
C1819 H1811 0.930 . S
C1819 C1820 1.355 . S
C1819 C1821 1.415 . S
C1820 C1819 1.355 . S
C1820 C1822 1.419 . S
C1821 C1816 1.425 . S
C1821 C1818 1.409 . S
C1821 C1819 1.415 . S
C1822 H1812 0.930 . S
C1822 C1820 1.419 . S
C1822 C1823 1.362 . S
C1823 H1813 0.930 . S
C1823 C1816 1.409 . S
C1823 C1822 1.362 . S
H1824 C1830 0.930 . S
H1825 C1833 0.930 . S
H1826 C1834 0.930 . S
H1827 C1835 0.930 . S
H1828 C1838 0.930 . S
H1829 C1839 0.930 . S
C1830 H1824 0.930 . S
C1830 C1831 1.355 . S
C1830 C1832 1.415 . S
C1831 C1830 1.355 . S
C1831 C1833 1.419 . S
C1832 C1830 1.415 . S
C1832 C1837 1.425 . S
C1832 C1839 1.409 . S
C1833 H1825 0.930 . S
C1833 C1831 1.419 . S
C1833 C1834 1.362 . S
C1834 H1826 0.930 . S
C1834 C1833 1.362 . S
C1834 C1837 1.409 . S
C1835 H1827 0.930 . S
C1835 C1836 1.355 . S
C1835 C1837 1.415 . S
C1836 C1835 1.355 . S
C1836 C1838 1.419 . S
C1837 C1832 1.425 . S
C1837 C1834 1.409 . S
C1837 C1835 1.415 . S
C1838 H1828 0.930 . S
C1838 C1836 1.419 . S
C1838 C1839 1.362 . S
C1839 H1829 0.930 . S
C1839 C1832 1.409 . S
C1839 C1838 1.362 . S
H1840 C1846 0.930 . S
H1841 C1849 0.930 . S
H1842 C1850 0.930 . S
H1843 C1851 0.930 . S
H1844 C1854 0.930 . S
H1845 C1855 0.930 . S
C1846 H1840 0.930 . S
C1846 C1847 1.355 . S
C1846 C1848 1.415 . S
C1847 C1846 1.355 . S
C1847 C1849 1.419 . S
C1848 C1846 1.415 . S
C1848 C1853 1.425 . S
C1848 C1855 1.409 . S
C1849 H1841 0.930 . S
C1849 C1847 1.419 . S
C1849 C1850 1.362 . S
C1850 H1842 0.930 . S
C1850 C1849 1.362 . S
C1850 C1853 1.409 . S
C1851 H1843 0.930 . S
C1851 C1852 1.355 . S
C1851 C1853 1.415 . S
C1852 C1851 1.355 . S
C1852 C1854 1.419 . S
C1853 C1848 1.425 . S
C1853 C1850 1.409 . S
C1853 C1851 1.415 . S
C1854 H1844 0.930 . S
C1854 C1852 1.419 . S
C1854 C1855 1.362 . S
C1855 H1845 0.930 . S
C1855 C1848 1.409 . S
C1855 C1854 1.362 . S
H1856 C1862 0.930 . S
H1857 C1865 0.930 . S
H1858 C1866 0.930 . S
H1859 C1867 0.930 . S
H1860 C1870 0.930 . S
H1861 C1871 0.930 . S
C1862 H1856 0.930 . S
C1862 C1863 1.355 . S
C1862 C1864 1.415 . S
C1863 C1862 1.355 . S
C1863 C1865 1.419 . S
C1864 C1862 1.415 . S
C1864 C1869 1.425 . S
C1864 C1871 1.409 . S
C1865 H1857 0.930 . S
C1865 C1863 1.419 . S
C1865 C1866 1.362 . S
C1866 H1858 0.930 . S
C1866 C1865 1.362 . S
C1866 C1869 1.409 . S
C1867 H1859 0.930 . S
C1867 C1868 1.355 . S
C1867 C1869 1.415 . S
C1868 C1867 1.355 . S
C1868 C1870 1.419 . S
C1869 C1864 1.425 . S
C1869 C1866 1.409 . S
C1869 C1867 1.415 . S
C1870 H1860 0.930 . S
C1870 C1868 1.419 . S
C1870 C1871 1.362 . S
C1871 H1861 0.930 . S
C1871 C1864 1.409 . S
C1871 C1870 1.362 . S
H1872 C1878 0.930 . S
H1873 C1881 0.930 . S
H1874 C1882 0.930 . S
H1875 C1883 0.930 . S
H1876 C1886 0.930 . S
H1877 C1887 0.930 . S
C1878 H1872 0.930 . S
C1878 C1879 1.355 . S
C1878 C1880 1.415 . S
C1879 C1878 1.355 . S
C1879 C1881 1.419 . S
C1880 C1878 1.415 . S
C1880 C1885 1.425 . S
C1880 C1887 1.409 . S
C1881 H1873 0.930 . S
C1881 C1879 1.419 . S
C1881 C1882 1.362 . S
C1882 H1874 0.930 . S
C1882 C1881 1.362 . S
C1882 C1885 1.409 . S
C1883 H1875 0.930 . S
C1883 C1884 1.355 . S
C1883 C1885 1.415 . S
C1884 C1883 1.355 . S
C1884 C1886 1.419 . S
C1885 C1880 1.425 . S
C1885 C1882 1.409 . S
C1885 C1883 1.415 . S
C1886 H1876 0.930 . S
C1886 C1884 1.419 . S
C1886 C1887 1.362 . S
C1887 H1877 0.930 . S
C1887 C1880 1.409 . S
C1887 C1886 1.362 . S
H1888 C1894 0.930 . S
H1889 C1897 0.930 . S
H1890 C1898 0.930 . S
H1891 C1899 0.930 . S
H1892 C1902 0.930 . S
H1893 C1903 0.930 . S
C1894 H1888 0.930 . S
C1894 C1895 1.355 . S
C1894 C1896 1.415 . S
C1895 C1894 1.355 . S
C1895 C1897 1.419 . S
C1896 C1894 1.415 . S
C1896 C1901 1.425 . S
C1896 C1903 1.409 . S
C1897 H1889 0.930 . S
C1897 C1895 1.419 . S
C1897 C1898 1.362 . S
C1898 H1890 0.930 . S
C1898 C1897 1.362 . S
C1898 C1901 1.409 . S
C1899 H1891 0.930 . S
C1899 C1900 1.355 . S
C1899 C1901 1.415 . S
C1900 C1899 1.355 . S
C1900 C1902 1.419 . S
C1901 C1896 1.425 . S
C1901 C1898 1.409 . S
C1901 C1899 1.415 . S
C1902 H1892 0.930 . S
C1902 C1900 1.419 . S
C1902 C1903 1.362 . S
C1903 H1893 0.930 . S
C1903 C1896 1.409 . S
C1903 C1902 1.362 . S
H1904 C1910 0.930 . S
H1905 C1913 0.930 . S
H1906 C1914 0.930 . S
H1907 C1915 0.930 . S
H1908 C1918 0.930 . S
H1909 C1919 0.930 . S
C1910 H1904 0.930 . S
C1910 C1911 1.355 . S
C1910 C1912 1.415 . S
C1911 C1910 1.355 . S
C1911 C1913 1.419 . S
C1912 C1910 1.415 . S
C1912 C1917 1.425 . S
C1912 C1919 1.409 . S
C1913 H1905 0.930 . S
C1913 C1911 1.419 . S
C1913 C1914 1.362 . S
C1914 H1906 0.930 . S
C1914 C1913 1.362 . S
C1914 C1917 1.409 . S
C1915 H1907 0.930 . S
C1915 C1916 1.355 . S
C1915 C1917 1.415 . S
C1916 C1915 1.355 . S
C1916 C1918 1.419 . S
C1917 C1912 1.425 . S
C1917 C1914 1.409 . S
C1917 C1915 1.415 . S
C1918 H1908 0.930 . S
C1918 C1916 1.419 . S
C1918 C1919 1.362 . S
C1919 H1909 0.930 . S
C1919 C1912 1.409 . S
C1919 C1918 1.362 . S
H1920 C1926 0.930 . S
H1921 C1929 0.930 . S
H1922 C1930 0.930 . S
H1923 C1931 0.930 . S
H1924 C1934 0.930 . S
H1925 C1935 0.930 . S
C1926 H1920 0.930 . S
C1926 C1927 1.355 . S
C1926 C1928 1.415 . S
C1927 C1926 1.355 . S
C1927 C1929 1.419 . S
C1928 C1926 1.415 . S
C1928 C1933 1.425 . S
C1928 C1935 1.409 . S
C1929 H1921 0.930 . S
C1929 C1927 1.419 . S
C1929 C1930 1.362 . S
C1930 H1922 0.930 . S
C1930 C1929 1.362 . S
C1930 C1933 1.409 . S
C1931 H1923 0.930 . S
C1931 C1932 1.355 . S
C1931 C1933 1.415 . S
C1932 C1931 1.355 . S
C1932 C1934 1.419 . S
C1933 C1928 1.425 . S
C1933 C1930 1.409 . S
C1933 C1931 1.415 . S
C1934 H1924 0.930 . S
C1934 C1932 1.419 . S
C1934 C1935 1.362 . S
C1935 H1925 0.930 . S
C1935 C1928 1.409 . S
C1935 C1934 1.362 . S
H1936 C1942 0.930 . S
H1937 C1945 0.930 . S
H1938 C1946 0.930 . S
H1939 C1947 0.930 . S
H1940 C1950 0.930 . S
H1941 C1951 0.930 . S
C1942 H1936 0.930 . S
C1942 C1943 1.361 . S
C1942 C1944 1.415 . S
C1943 C1942 1.361 . S
C1943 C1945 1.419 1_556 S
C1944 C1942 1.415 . S
C1944 C1949 1.425 . S
C1944 C1951 1.409 . S
C1945 H1937 0.930 . S
C1945 C1943 1.419 1_554 S
C1945 C1946 1.362 . S
C1946 H1938 0.930 . S
C1946 C1945 1.362 . S
C1946 C1949 1.409 1_554 S
C1947 H1939 0.930 . S
C1947 C1948 1.355 . S
C1947 C1949 1.415 . S
C1948 C1947 1.355 . S
C1948 C1950 1.419 . S
C1949 C1944 1.425 . S
C1949 C1946 1.409 1_556 S
C1949 C1947 1.415 . S
C1950 H1940 0.930 . S
C1950 C1948 1.419 . S
C1950 C1951 1.362 . S
C1951 H1941 0.930 . S
C1951 C1944 1.409 . S
C1951 C1950 1.362 . S
H1952 C1958 0.930 . S
H1953 C1961 0.930 . S
H1954 C1962 0.930 . S
H1955 C1963 0.930 . S
H1956 C1966 0.930 . S
H1957 C1967 0.930 . S
C1958 H1952 0.930 . S
C1958 C1959 1.355 . S
C1958 C1960 1.415 . S
C1959 C1958 1.355 . S
C1959 C1961 1.419 . S
C1960 C1958 1.415 . S
C1960 C1965 1.425 . S
C1960 C1967 1.409 . S
C1961 H1953 0.930 . S
C1961 C1959 1.419 . S
C1961 C1962 1.362 . S
C1962 H1954 0.930 . S
C1962 C1961 1.362 . S
C1962 C1965 1.409 . S
C1963 H1955 0.930 . S
C1963 C1964 1.355 . S
C1963 C1965 1.415 . S
C1964 C1963 1.355 . S
C1964 C1966 1.419 . S
C1965 C1960 1.425 . S
C1965 C1962 1.409 . S
C1965 C1963 1.415 . S
C1966 H1956 0.930 . S
C1966 C1964 1.419 . S
C1966 C1967 1.362 . S
C1967 H1957 0.930 . S
C1967 C1960 1.409 . S
C1967 C1966 1.362 . S
H1968 C1974 0.930 1_556 S
H1969 C1977 0.930 . S
H1970 C1978 0.930 . S
H1971 C1979 0.930 . S
H1972 C1982 0.930 . S
H1973 C1983 0.930 . S
C1974 H1968 0.930 1_554 S
C1974 C1975 1.355 . S
C1974 C1976 1.415 . S
C1975 C1974 1.355 . S
C1975 C1977 1.419 . S
C1976 C1974 1.415 . S
C1976 C1981 1.425 . S
C1976 C1983 1.409 1_554 S
C1977 H1969 0.930 . S
C1977 C1975 1.419 . S
C1977 C1978 1.362 . S
C1978 H1970 0.930 . S
C1978 C1977 1.362 . S
C1978 C1981 1.409 . S
C1979 H1971 0.930 . S
C1979 C1980 1.355 . S
C1979 C1981 1.415 . S
C1980 C1979 1.355 . S
C1980 C1982 1.419 1_554 S
C1981 C1976 1.425 . S
C1981 C1978 1.409 . S
C1981 C1979 1.415 . S
C1982 H1972 0.930 . S
C1982 C1980 1.419 1_556 S
C1982 C1983 1.362 . S
C1983 H1973 0.930 . S
C1983 C1976 1.409 1_556 S
C1983 C1982 1.362 . S
H1984 C1990 0.930 . S
H1985 C1993 0.930 . S
H1986 C1994 0.930 . S
H1987 C1995 0.930 . S
H1988 C1998 0.942 . S
H1989 C1999 0.930 . S
C1990 H1984 0.930 . S
C1990 C1991 1.355 . S
C1990 C1992 1.415 . S
C1991 C1990 1.355 . S
C1991 C1993 1.419 1_545 S
C1992 C1990 1.415 . S
C1992 C1997 1.425 1_545 S
C1992 C1999 1.409 . S
C1993 H1985 0.930 . S
C1993 C1991 1.419 1_565 S
C1993 C1994 1.362 . S
C1994 H1986 0.930 . S
C1994 C1993 1.362 . S
C1994 C1997 1.409 . S
C1995 H1987 0.930 . S
C1995 C1996 1.355 . S
C1995 C1997 1.415 . S
C1996 C1995 1.355 . S
C1996 C1998 1.419 . S
C1997 C1992 1.425 1_565 S
C1997 C1994 1.409 . S
C1997 C1995 1.415 . S
C1998 H1988 0.942 . S
C1998 C1996 1.419 . S
C1998 C1999 1.362 1_565 S
C1999 H1989 0.930 . S
C1999 C1992 1.409 . S
C1999 C1998 1.362 1_545 S
C1244 C225 1.569 . S
C1239 C60 1.578 . S
C1260 C284 1.312 . S
C1255 C76 1.297 . S
C1271 C81 1.696 . S
C1276 C401 1.693 . S
C1292 C469 1.596 . S
C1287 C48 1.613 . S
C1308 C548 1.520 . S
C1303 C115 1.515 . S
C1324 C673 1.595 . S
C1319 C136 1.593 . S
C1335 C131 1.358 . S
C1340 C733 1.353 . S
C1356 C841 1.570 . S
C1351 C104 1.552 . S
C1367 C126 1.574 . S
C1372 C937 1.575 . S
C1388 C997 1.448 . S
C1383 C103 1.449 . S
C1399 C120 1.433 . S
C1404 C900 1.429 . S
C1420 C1017 1.422 . S
C1415 C142 1.417 . S
C1431 C82 1.477 . S
C1436 C1085 1.485 . S
C1447 C54 1.836 . S
C1452 C1076 1.832 . S
C1463 C65 1.386 . S
C1468 C1105 1.402 . S
C1479 C71 1.294 . S
C1484 C1113 1.294 . S
C1495 C37 1.590 . S
C1500 C497 1.584 . S
C1511 C158 2.005 . S
C1516 C460 2.003 . S
C1532 C196 1.396 . S
C1527 C169 1.399 . S
C1548 C293 1.277 . S
C1543 C98 1.274 . S
C1559 C49 1.737 1_545 S
C1564 C557 1.765 . S
C1580 C849 1.438 . S
C1575 C125 1.439 . S
C1596 C577 1.409 . S
C1591 C109 1.401 . S
C1612 C761 1.816 . S
C1607 C137 1.803 . S
C1628 C753 1.585 . S
C1623 C159 1.578 . S
C1639 C175 1.309 . S
C1644 C821 1.322 . S
C1655 C92 1.704 . S
C1660 C585 1.702 . S
C1676 C636 1.631 . S
C1671 C147 1.634 . S
C1687 C38 1.542 . S
C1692 C381 1.539 . S
C1708 C489 1.595 . S
C1703 C4 1.594 . S
C1724 C205 1.338 . S
C1719 C21 1.344 . S
C1740 C321 1.587 . S
C1735 C27 1.574 . S
C1751 C16 1.536 . S
C1756 C1025 1.544 . S
C1767 C26 1.435 . S
C1772 C909 1.423 . S
C1783 C43 1.407 . S
C1788 C988 1.419 . S
C1799 C10 1.416 . S
C1804 C929 1.428 . S
C1820 C1173 1.487 . S
C1815 C93 1.489 . S
C1836 C1164 1.833 . S
C1831 C153 1.819 . S
C1852 C1193 1.406 . S
C1847 C164 1.397 . S
C1863 C170 1.254 1_554 S
C1868 C1201 1.282 . S
C1879 C114 1.590 . S
C1884 C665 1.584 . S
C1900 C645 2.001 . S
C1895 C59 2.002 . S
C1916 C724 1.409 . S
C1911 C70 1.410 . S
C1932 C812 1.277 . S
C1927 C87 1.274 . S
C1943 C148 1.744 . S
C1948 C372 1.768 . S
C1964 C313 1.424 . S
C1959 C15 1.428 . S
C1975 C32 1.402 . S
C1980 C409 1.403 . S
C1996 C233 1.818 . S
C1991 C5 1.805 . S
