# Generated by pormake.
# Topology anh, (6,3)-cn, num edge types: 1
# Building blocks:
#     Node 0, Type 0, BuildingBlock: MIFKUJ_clean_sbu_0, # of connection points: 6
#     Node 1, Type 0, BuildingBlock: MIFKUJ_clean_sbu_0, # of connection points: 6
#     Node 2, Type 0, BuildingBlock: MIFKUJ_clean_sbu_0, # of connection points: 6
#     Node 3, Type 1, BuildingBlock: BELTOD_clean_linker_0, # of connection points: 3
#     Node 4, Type 1, BuildingBlock: BELTOD_clean_linker_0, # of connection points: 3
#     Node 5, Type 1, BuildingBlock: BELTOD_clean_linker_0, # of connection points: 3
#     Node 6, Type 1, BuildingBlock: BELTOD_clean_linker_0, # of connection points: 3
#     Node 7, Type 1, BuildingBlock: BELTOD_clean_linker_0, # of connection points: 3
#     Node 8, Type 1, BuildingBlock: BELTOD_clean_linker_0, # of connection points: 3
#     Edge 9, Type (0, 1), BuildingBlock: MIFKUJ_clean_linker_0, # of connection points: 2
#     Edge 10, Type (0, 1), BuildingBlock: MIFKUJ_clean_linker_0, # of connection points: 2
#     Edge 11, Type (0, 1), BuildingBlock: MIFKUJ_clean_linker_0, # of connection points: 2
#     Edge 12, Type (0, 1), BuildingBlock: MIFKUJ_clean_linker_0, # of connection points: 2
#     Edge 13, Type (0, 1), BuildingBlock: MIFKUJ_clean_linker_0, # of connection points: 2
#     Edge 14, Type (0, 1), BuildingBlock: MIFKUJ_clean_linker_0, # of connection points: 2
#     Edge 15, Type (0, 1), BuildingBlock: MIFKUJ_clean_linker_0, # of connection points: 2
#     Edge 16, Type (0, 1), BuildingBlock: MIFKUJ_clean_linker_0, # of connection points: 2
#     Edge 17, Type (0, 1), BuildingBlock: MIFKUJ_clean_linker_0, # of connection points: 2
#     Edge 18, Type (0, 1), BuildingBlock: MIFKUJ_clean_linker_0, # of connection points: 2
#     Edge 19, Type (0, 1), BuildingBlock: MIFKUJ_clean_linker_0, # of connection points: 2
#     Edge 20, Type (0, 1), BuildingBlock: MIFKUJ_clean_linker_0, # of connection points: 2
#     Edge 21, Type (0, 1), BuildingBlock: MIFKUJ_clean_linker_0, # of connection points: 2
#     Edge 22, Type (0, 1), BuildingBlock: MIFKUJ_clean_linker_0, # of connection points: 2
#     Edge 23, Type (0, 1), BuildingBlock: MIFKUJ_clean_linker_0, # of connection points: 2
#     Edge 24, Type (0, 1), BuildingBlock: MIFKUJ_clean_linker_0, # of connection points: 2
#     Edge 25, Type (0, 1), BuildingBlock: MIFKUJ_clean_linker_0, # of connection points: 2
#     Edge 26, Type (0, 1), BuildingBlock: MIFKUJ_clean_linker_0, # of connection points: 2
# Relax obj value: 0.123
# Max RMSD: 0.176
# Mean RMSD: 0.132
data_MOF--net-anh--node1-MIFKUJ_clean_sbu_0--node2-BELTOD_clean_linker_0--edge1-MIFKUJ_clean_linker_0
_symmetry_space_group_name_H-M    P1
_symmetry_Int_Tables_number       1
_symmetry_cell_setting            triclinic
loop_
_symmetry_equiv_pos_as_xyz
'x, y, z'
_cell_length_a     43.293125
_cell_length_b     43.279709
_cell_length_c     74.014069
_cell_angle_alpha  94.029639
_cell_angle_beta   90.778738
_cell_angle_gamma 119.91785
loop_
_atom_site_label
_atom_site_type_symbol
_atom_site_fract_x
_atom_site_fract_y
_atom_site_fract_z
_atom_type_partial_charge
Zn0 Zn 0.02226 0.57414 0.16333 0.0
Zn1 Zn 0.95109 0.49722 0.15973 0.0
C2 C 0.08072 0.56331 0.17098 0.0
O3 O 0.08397 0.58498 0.18516 0.0
C4 C 0.90192 0.51848 0.14839 0.0
O5 O 0.90262 0.50062 0.13344 0.0
O6 O 0.05733 0.62675 0.16425 0.0
O7 O 0.99078 0.56276 0.14074 0.0
O8 O 0.97654 0.50648 0.13646 0.0
C9 C 0.07567 0.63641 0.15034 0.0
O10 O 0.06865 0.61242 0.13665 0.0
O11 O 0.05415 0.55237 0.15968 0.0
C12 C 0.89314 0.43747 0.17208 0.0
O13 O 0.89962 0.46266 0.18503 0.0
O14 O 0.91298 0.44541 0.15866 0.0
O15 O 0.98036 0.50556 0.18276 0.0
O16 O 1.00054 0.56338 0.1877 0.0
O17 O 0.92269 0.52302 0.16191 0.0
C18 C 0.98606 0.53625 0.13012 0.0
C19 C 0.99122 0.53333 0.19371 0.0
Zn20 Zn 0.5273 0.04901 0.50224 0.0
Zn21 Zn 0.52027 0.96694 0.50268 0.0
C22 C 0.59773 0.10767 0.51019 0.0
O23 O 0.58103 0.11348 0.52353 0.0
C24 C 0.45283 0.91844 0.48436 0.0
O25 O 0.47409 0.91752 0.4721 0.0
O26 O 0.51066 0.08447 0.50083 0.0
O27 O 0.50537 0.01391 0.47999 0.0
O28 O 0.54401 0.99543 0.48175 0.0
C29 C 0.51967 0.1028 0.48719 0.0
O30 O 0.53553 0.09479 0.47418 0.0
O31 O 0.58055 0.07952 0.49938 0.0
C32 C 0.51329 0.90063 0.5107 0.0
O33 O 0.48621 0.89899 0.51928 0.0
O34 O 0.53293 0.92816 0.5025 0.0
O35 O 0.5332 0.99075 0.52791 0.0
O36 O 0.51966 0.0338 0.5278 0.0
O37 O 0.46651 0.9402 0.49848 0.0
C38 C 0.52559 0.0043 0.47224 0.0
C39 C 0.52731 0.01374 0.5363 0.0
Zn40 Zn 0.55385 0.52555 0.83791 0.0
Zn41 Zn 0.47478 0.50944 0.8318 0.0
C42 C 0.5506 0.45998 0.84428 0.0
O43 O 0.57488 0.4822 0.85678 0.0
C44 C 0.48505 0.57527 0.82127 0.0
O45 O 0.46814 0.55337 0.80679 0.0
O46 O 0.60719 0.54797 0.84058 0.0
O47 O 0.54543 0.54375 0.8153 0.0
O48 O 0.49215 0.49742 0.80854 0.0
C49 C 0.62207 0.53965 0.82796 0.0
O50 O 0.60227 0.51831 0.81386 0.0
O51 O 0.53527 0.47175 0.83429 0.0
C52 C 0.40387 0.48714 0.84174 0.0
O53 O 0.41942 0.49362 0.85802 0.0
O54 O 0.42193 0.48962 0.82797 0.0
O55 O 0.48284 0.49233 0.85531 0.0
O56 O 0.53748 0.53714 0.86134 0.0
O57 O 0.49315 0.56314 0.83464 0.0
C58 C 0.52167 0.52188 0.80348 0.0
C59 C 0.50806 0.51329 0.86679 0.0
P60 P 0.54675 0.9688 0.21563 0.0
H61 H 0.5159 0.9648 0.17956 0.0
H62 H 0.45452 0.93262 0.16642 0.0
H63 H 0.41709 0.89066 0.21797 0.0
H64 H 0.47803 0.92337 0.23103 0.0
H65 H 0.61964 0.00549 0.20375 0.0
H66 H 0.65731 0.06517 0.19369 0.0
H67 H 0.57057 0.08682 0.19914 0.0
H68 H 0.53257 0.02661 0.20873 0.0
H69 H 0.55103 0.92699 0.2439 0.0
H70 H 0.54239 0.0216 0.24106 0.0
O71 O 0.56356 0.94257 0.20951 0.0
H72 H 0.54789 0.93165 0.27682 0.0
H73 H 0.54045 0.02717 0.27393 0.0
C74 C 0.50146 0.9472 0.20638 0.0
C75 C 0.49436 0.94912 0.18808 0.0
C76 C 0.45931 0.93048 0.18055 0.0
C77 C 0.43086 0.90928 0.19118 0.0
C78 C 0.43824 0.90738 0.20951 0.0
C79 C 0.47321 0.92604 0.217 0.0
C80 C 0.5733 0.01161 0.20689 0.0
C81 C 0.60851 0.02281 0.2025 0.0
C82 C 0.62997 0.05685 0.19672 0.0
C83 C 0.61674 0.08045 0.19561 0.0
C84 C 0.58136 0.06909 0.19991 0.0
C85 C 0.55971 0.03478 0.20538 0.0
C86 C 0.54776 0.97439 0.24003 0.0
C87 C 0.54917 0.94918 0.25038 0.0
C88 C 0.54741 0.95191 0.26923 0.0
C89 C 0.54404 0.97987 0.27806 0.0
C90 C 0.54266 0.00508 0.26758 0.0
C91 C 0.54424 0.00219 0.24874 0.0
P92 P 0.66596 0.57998 0.5617 0.0
H93 H 0.69634 0.55077 0.53522 0.0
H94 H 0.67428 0.49057 0.52033 0.0
H95 H 0.57646 0.45267 0.54823 0.0
H96 H 0.59842 0.5127 0.56284 0.0
H97 H 0.69503 0.65646 0.56044 0.0
H98 H 0.6718 0.69157 0.54728 0.0
H99 H 0.57929 0.59399 0.52446 0.0
H100 H 0.60254 0.55907 0.53776 0.0
H101 H 0.69707 0.57616 0.59615 0.0
H102 H 0.60107 0.5734 0.57706 0.0
O103 O 0.7105 0.60172 0.56266 0.0
H104 H 0.67541 0.5676 0.62682 0.0
H105 H 0.57931 0.56479 0.60762 0.0
C106 C 0.64933 0.53601 0.55041 0.0
C107 C 0.67017 0.52946 0.53812 0.0
C108 C 0.65757 0.49509 0.52965 0.0
C109 C 0.6237 0.46688 0.53318 0.0
C110 C 0.60252 0.47389 0.54512 0.0
C111 C 0.61523 0.50817 0.55364 0.0
C112 C 0.65083 0.60524 0.54984 0.0
C113 C 0.67011 0.64267 0.55229 0.0
C114 C 0.65685 0.66269 0.54473 0.0
C115 C 0.62379 0.64551 0.53477 0.0
C116 C 0.60477 0.60794 0.53212 0.0
C117 C 0.61818 0.58796 0.53962 0.0
C118 C 0.65099 0.57607 0.58442 0.0
C119 C 0.67155 0.57415 0.5986 0.0
C120 C 0.65916 0.56925 0.6161 0.0
C121 C 0.6257 0.56559 0.61959 0.0
C122 C 0.60508 0.5673 0.60529 0.0
C123 C 0.61766 0.57255 0.58786 0.0
P124 P 0.09309 0.65114 0.88854 0.0
H125 H 0.14725 0.6679 0.8619 0.0
H126 H 0.17556 0.63511 0.84928 0.0
H127 H 0.10471 0.54405 0.87783 0.0
H128 H 0.07719 0.57742 0.89074 0.0
H129 H 0.06277 0.69711 0.88437 0.0
H130 H 0.00494 0.68549 0.87219 0.0
H131 H 0.97544 0.57566 0.85657 0.0
H132 H 0.03386 0.58792 0.86825 0.0
H133 H 0.1407 0.66686 0.92028 0.0
H134 H 0.02714 0.60874 0.90734 0.0
O135 O 0.12363 0.6945 0.889 0.0
H136 H 0.13017 0.65023 0.95152 0.0
H137 H 0.01653 0.59169 0.93824 0.0
C138 C 0.11071 0.62534 0.87753 0.0
C139 C 0.13769 0.6408 0.86534 0.0
C140 C 0.15365 0.62189 0.85802 0.0
C141 C 0.14265 0.58706 0.86269 0.0
C142 C 0.11429 0.57107 0.87424 0.0
C143 C 0.09845 0.59006 0.88158 0.0
C144 C 0.05284 0.64357 0.87693 0.0
C145 C 0.04417 0.67076 0.87793 0.0
C146 C 0.0109 0.66394 0.87116 0.0
C147 C 0.9854 0.62955 0.86351 0.0
C148 C 0.99458 0.60256 0.86213 0.0
C149 C 0.02802 0.60952 0.86883 0.0
C150 C 0.08476 0.63967 0.91158 0.0
C151 C 0.11354 0.65072 0.92419 0.0
C152 C 0.10749 0.64095 0.94197 0.0
C153 C 0.07249 0.61984 0.94739 0.0
C154 C 0.04376 0.60854 0.9346 0.0
C155 C 0.04985 0.61825 0.91685 0.0
P156 P 0.04346 0.47617 0.44066 0.0
H157 H 0.0662 0.50824 0.47825 0.0
H158 H 0.10973 0.56937 0.49074 0.0
H159 H 0.12142 0.6047 0.4368 0.0
H160 H 0.07845 0.54463 0.42465 0.0
H161 H 0.01274 0.40084 0.44545 0.0
H162 H 0.95655 0.3566 0.45675 0.0
H163 H 0.93072 0.43929 0.47102 0.0
H164 H 0.98796 0.48397 0.4599 0.0
H165 H 0.06096 0.45529 0.40541 0.0
H166 H 0.99437 0.49665 0.42543 0.0
O167 O 0.07195 0.46076 0.44034 0.0
H168 H 0.04572 0.46031 0.37432 0.0
H169 H 0.97862 0.50139 0.39423 0.0
C170 C 0.06821 0.52186 0.45058 0.0
C171 C 0.07737 0.52947 0.46925 0.0
C172 C 0.10253 0.56434 0.47633 0.0
C173 C 0.11905 0.59209 0.46479 0.0
C174 C 0.10878 0.58437 0.44619 0.0
C175 C 0.08393 0.54971 0.43918 0.0
C176 C 0.00485 0.44581 0.45213 0.0
C177 C 0.99544 0.40972 0.45138 0.0
C178 C 0.96302 0.3843 0.45764 0.0
C179 C 0.93892 0.3943 0.46461 0.0
C180 C 0.9488 0.43076 0.46584 0.0
C181 C 0.98147 0.45631 0.45952 0.0
C182 C 0.0287 0.47552 0.41771 0.0
C183 C 0.04259 0.46491 0.40312 0.0
C184 C 0.03374 0.46768 0.38532 0.0
C185 C 0.011 0.4813 0.38182 0.0
C186 C 0.99646 0.49112 0.3965 0.0
C187 C 0.00519 0.48814 0.41431 0.0
P188 P 0.57523 0.04479 0.79385 0.0
H189 H 0.58931 0.08686 0.82873 0.0
H190 H 0.57378 0.13201 0.8391 0.0
H191 H 0.50129 0.10097 0.79193 0.0
H192 H 0.51588 0.05509 0.78211 0.0
H193 H 0.60647 1.00045 0.78684 0.0
H194 H 0.5898 0.93975 0.79316 0.0
H195 H 0.4993 0.9306 0.82134 0.0
H196 H 0.51628 0.99211 0.81479 0.0
H197 H 0.60257 0.09975 0.76856 0.0
H198 H 0.53249 0.98543 0.76586 0.0
O199 O 0.61902 0.07039 0.79882 0.0
H200 H 0.59387 0.09821 0.73576 0.0
H201 H 0.52503 0.98331 0.73304 0.0
C202 C 0.55431 0.06803 0.80448 0.0
C203 C 0.56919 0.08898 0.82094 0.0
C204 C 0.56061 0.11516 0.82673 0.0
C205 C 0.53703 0.12097 0.81609 0.0
C206 C 0.5196 0.09748 0.80048 0.0
C207 C 0.52805 0.07115 0.79479 0.0
C208 C 0.56279 0.00086 0.80046 0.0
C209 C 0.58318 0.98557 0.79452 0.0
C210 C 0.57346 0.95073 0.79802 0.0
C211 C 0.54307 0.93024 0.80762 0.0
C212 C 0.52293 0.94582 0.81396 0.0
C213 C 0.53257 0.98088 0.81024 0.0
C214 C 0.56881 0.04268 0.7696 0.0
C215 C 0.58567 0.07425 0.76085 0.0
C216 C 0.58078 0.07327 0.74207 0.0
C217 C 0.55898 0.04058 0.73166 0.0
C218 C 0.54172 0.00902 0.74059 0.0
C219 C 0.54634 0.01012 0.7594 0.0
P220 P 0.45275 0.46279 0.11927 0.0
H221 H 0.48438 0.44363 0.14855 0.0
H222 H 0.54636 0.46504 0.15828 0.0
H223 H 0.58071 0.55247 0.12436 0.0
H224 H 0.51856 0.53072 0.11457 0.0
H225 H 0.37657 0.42897 0.11354 0.0
H226 H 0.33306 0.44733 0.12064 0.0
H227 H 0.41695 0.5473 0.14703 0.0
H228 H 0.46078 0.52826 0.13992 0.0
H229 H 0.45651 0.41713 0.08931 0.0
H230 H 0.46043 0.5188 0.09664 0.0
O231 O 0.43375 0.41932 0.12232 0.0
H232 H 0.46378 0.42351 0.0568 0.0
H233 H 0.46808 0.52549 0.06415 0.0
C234 C 0.49677 0.48512 0.13054 0.0
C235 C 0.50512 0.46792 0.14353 0.0
C236 C 0.5407 0.48026 0.14913 0.0
C237 C 0.56863 0.51009 0.14183 0.0
C238 C 0.55989 0.52894 0.12993 0.0
C239 C 0.52427 0.51665 0.12441 0.0
C240 C 0.42177 0.47697 0.12646 0.0
C241 C 0.38564 0.45469 0.12105 0.0
C242 C 0.36079 0.46542 0.12495 0.0
C243 C 0.3715 0.49892 0.13428 0.0
C244 C 0.40782 0.52122 0.13992 0.0
C245 C 0.43288 0.51041 0.13589 0.0
C246 C 0.45741 0.46725 0.09532 0.0
C247 C 0.4587 0.44071 0.08391 0.0
C248 C 0.46282 0.44435 0.06534 0.0
C249 C 0.46637 0.47494 0.05796 0.0
C250 C 0.46558 0.50173 0.0695 0.0
C251 C 0.46101 0.49784 0.08802 0.0
H252 H 0.0922 0.53428 0.13939 0.0
H253 H 0.14261 0.52513 0.13317 0.0
H254 H 0.1853 0.56502 0.18819 0.0
H255 H 0.13542 0.57485 0.19439 0.0
H256 H 0.23703 0.5935 0.16531 0.0
H257 H 0.1431 0.4748 0.1741 0.0
H258 H 0.08329 0.42134 0.16874 0.0
H259 H 0.10424 0.40897 0.11295 0.0
H260 H 0.16403 0.46266 0.11792 0.0
H261 H 0.3632 0.53155 0.16562 0.0
H262 H 0.31521 0.54469 0.17184 0.0
H263 H 0.27076 0.50453 0.11708 0.0
H264 H 0.31841 0.49136 0.11085 0.0
H265 H 0.22006 0.47643 0.14019 0.0
H266 H 0.31425 0.59489 0.13138 0.0
H267 H 0.37389 0.6486 0.13666 0.0
H268 H 0.35254 0.66169 0.19231 0.0
H269 H 0.29293 0.60774 0.18742 0.0
C270 C 0.11209 0.5407 0.15023 0.0
C271 C 0.10962 0.55504 0.16743 0.0
C272 C 0.14095 0.53549 0.14665 0.0
C273 C 0.16767 0.54406 0.16026 0.0
C274 C 0.16509 0.5582 0.17746 0.0
C275 C 0.13641 0.56362 0.18101 0.0
C276 C 0.19849 0.53865 0.15658 0.0
C277 C 0.23332 0.56778 0.16002 0.0
C278 C 0.19378 0.50532 0.14934 0.0
C279 C 0.1579 0.47294 0.14634 0.0
C280 C 0.13485 0.46083 0.16065 0.0
C281 C 0.10097 0.43046 0.15769 0.0
C282 C 0.08994 0.41183 0.1405 0.0
C283 C 0.11281 0.42346 0.12625 0.0
C284 C 0.1467 0.45384 0.12913 0.0
C285 C 0.3435 0.52606 0.15484 0.0
C286 C 0.34449 0.51012 0.13779 0.0
C287 C 0.31604 0.53355 0.1584 0.0
C288 C 0.28927 0.52563 0.14492 0.0
C289 C 0.29086 0.51064 0.12776 0.0
C290 C 0.31813 0.50306 0.12422 0.0
C291 C 0.25867 0.53134 0.1488 0.0
C292 C 0.22383 0.5022 0.14544 0.0
C293 C 0.26342 0.56467 0.15609 0.0
C294 C 0.29928 0.59704 0.15908 0.0
C295 C 0.3224 0.60903 0.14479 0.0
C296 C 0.35617 0.63956 0.1477 0.0
C297 C 0.36704 0.65849 0.16483 0.0
C298 C 0.34411 0.64697 0.17906 0.0
C299 C 0.31032 0.61643 0.17622 0.0
H300 H 0.39319 0.68212 0.16705 0.0
H301 H 0.0637 0.38832 0.13824 0.0
H302 H 0.64241 0.16856 0.53168 0.0
H303 H 0.69991 0.21814 0.52438 0.0
H304 H 0.69443 0.15998 0.47356 0.0
H305 H 0.63628 0.11049 0.48057 0.0
H306 H 0.76102 0.19169 0.49179 0.0
H307 H 0.67647 0.22562 0.47317 0.0
H308 H 0.62749 0.23877 0.47612 0.0
H309 H 0.68805 0.32082 0.51892 0.0
H310 H 0.73741 0.30795 0.51633 0.0
H311 H 0.8942 0.32964 0.4461 0.0
H312 H 0.83704 0.28208 0.45495 0.0
H313 H 0.84481 0.34761 0.5034 0.0
H314 H 0.9024 0.39566 0.49454 0.0
H315 H 0.77757 0.31298 0.48772 0.0
H316 H 0.86317 0.28014 0.50556 0.0
H317 H 0.91282 0.26821 0.50151 0.0
H318 H 0.84996 0.1839 0.46003 0.0
H319 H 0.80009 0.19567 0.46364 0.0
C320 C 0.65325 0.16634 0.51889 0.0
C321 C 0.63441 0.13577 0.50658 0.0
C322 C 0.68619 0.19473 0.51476 0.0
C323 C 0.7012 0.19302 0.4983 0.0
C324 C 0.68321 0.16194 0.4863 0.0
C325 C 0.65003 0.13363 0.49035 0.0
C326 C 0.73567 0.22366 0.49366 0.0
C327 C 0.76453 0.21811 0.49069 0.0
C328 C 0.7405 0.25838 0.49273 0.0
C329 C 0.71052 0.26557 0.49467 0.0
C330 C 0.67921 0.2462 0.48335 0.0
C331 C 0.65143 0.25371 0.48491 0.0
C332 C 0.65465 0.28065 0.49768 0.0
C333 C 0.68562 0.30001 0.509 0.0
C334 C 0.71354 0.29265 0.50748 0.0
C335 C 0.88393 0.33392 0.45871 0.0
C336 C 0.90317 0.36628 0.46976 0.0
C337 C 0.85117 0.30668 0.46375 0.0
C338 C 0.83691 0.31094 0.48002 0.0
C339 C 0.85538 0.34365 0.49082 0.0
C340 C 0.88824 0.37109 0.48574 0.0
C341 C 0.80291 0.28096 0.48573 0.0
C342 C 0.77415 0.28662 0.48893 0.0
C343 C 0.79813 0.24631 0.48691 0.0
C344 C 0.828 0.239 0.48477 0.0
C345 C 0.86002 0.25922 0.49548 0.0
C346 C 0.88819 0.25247 0.49328 0.0
C347 C 0.88458 0.22537 0.48049 0.0
C348 C 0.85274 0.20491 0.46991 0.0
C349 C 0.8245 0.21159 0.47205 0.0
H350 H 0.90642 0.22018 0.4788 0.0
H351 H 0.63316 0.28651 0.49881 0.0
H352 H 0.48854 0.6129 0.79274 0.0
H353 H 0.49829 0.67362 0.7934 0.0
H354 H 0.5071 0.68311 0.85186 0.0
H355 H 0.49781 0.6221 0.85131 0.0
H356 H 0.4609 0.70678 0.83554 0.0
H357 H 0.57986 0.72575 0.83292 0.0
H358 H 0.62653 0.71446 0.82095 0.0
H359 H 0.61071 0.74322 0.76869 0.0
H360 H 0.56354 0.75417 0.78027 0.0
H361 H 0.52442 0.89666 0.83917 0.0
H362 H 0.51366 0.8366 0.84409 0.0
H363 H 0.52728 0.819 0.78736 0.0
H364 H 0.53862 0.87888 0.78254 0.0
H365 H 0.56476 0.80043 0.80641 0.0
H366 H 0.44416 0.77734 0.80715 0.0
H367 H 0.39463 0.78568 0.81739 0.0
H368 H 0.41038 0.76252 0.87109 0.0
H369 H 0.46036 0.75451 0.86123 0.0
C370 C 0.49275 0.62791 0.80577 0.0
C371 C 0.49269 0.61278 0.82198 0.0
C372 C 0.49831 0.66263 0.80611 0.0
C373 C 0.50356 0.68294 0.82267 0.0
C374 C 0.50315 0.66788 0.83893 0.0
C375 C 0.49813 0.63319 0.8386 0.0
C376 C 0.50976 0.71997 0.82271 0.0
C377 C 0.48394 0.72757 0.82951 0.0
C378 C 0.53933 0.7467 0.8144 0.0
C379 C 0.56797 0.74052 0.80744 0.0
C380 C 0.58614 0.72941 0.81884 0.0
C381 C 0.61272 0.72312 0.81213 0.0
C382 C 0.62153 0.72805 0.79406 0.0
C383 C 0.60384 0.73939 0.78268 0.0
C384 C 0.57721 0.74569 0.78932 0.0
C385 C 0.52459 0.8797 0.82774 0.0
C386 C 0.53264 0.8926 0.8105 0.0
C387 C 0.51843 0.84536 0.83055 0.0
C388 C 0.51966 0.82309 0.8161 0.0
C389 C 0.52651 0.83565 0.79879 0.0
C390 C 0.53296 0.86992 0.79603 0.0
C391 C 0.51552 0.7874 0.81893 0.0
C392 C 0.54183 0.77996 0.81265 0.0
C393 C 0.48616 0.76075 0.82752 0.0
C394 C 0.45631 0.7658 0.83351 0.0
C395 C 0.4373 0.77438 0.82119 0.0
C396 C 0.40909 0.77897 0.82691 0.0
C397 C 0.39945 0.77476 0.8449 0.0
C398 C 0.41794 0.76586 0.85718 0.0
C399 C 0.44619 0.76128 0.85153 0.0
H400 H 0.37758 0.77829 0.8493 0.0
H401 H 0.64211 0.72315 0.78889 0.0
H402 H 0.87507 0.53184 0.17944 0.0
H403 H 0.82248 0.5391 0.18163 0.0
H404 H 0.81242 0.53409 0.12331 0.0
H405 H 0.86458 0.5265 0.12101 0.0
H406 H 0.79936 0.58627 0.14148 0.0
H407 H 0.76484 0.46106 0.14273 0.0
H408 H 0.76906 0.41185 0.15522 0.0
H409 H 0.73888 0.43652 0.20691 0.0
H410 H 0.73508 0.48631 0.19479 0.0
H411 H 0.61987 0.5279 0.11716 0.0
H412 H 0.67998 0.53757 0.12169 0.0
H413 H 0.66335 0.52174 0.17841 0.0
H414 H 0.60265 0.51157 0.17388 0.0
H415 H 0.69281 0.48555 0.16529 0.0
H416 H 0.72013 0.60606 0.16363 0.0
H417 H 0.71814 0.65715 0.1521 0.0
H418 H 0.76342 0.64413 0.10289 0.0
H419 H 0.76522 0.59262 0.11401 0.0
C420 C 0.86207 0.53301 0.16711 0.0
C421 C 0.87384 0.52841 0.15004 0.0
C422 C 0.83195 0.537 0.16838 0.0
C423 C 0.81337 0.53682 0.15262 0.0
C424 C 0.82634 0.5343 0.13563 0.0
C425 C 0.85609 0.52984 0.13434 0.0
C426 C 0.77893 0.53646 0.15359 0.0
C427 C 0.77598 0.56423 0.14661 0.0
C428 C 0.74874 0.50817 0.16076 0.0
C429 C 0.75006 0.47764 0.16791 0.0
C430 C 0.75932 0.45612 0.15679 0.0
C431 C 0.76162 0.42812 0.1638 0.0
C432 C 0.75435 0.42113 0.18186 0.0
C433 C 0.74458 0.44202 0.19293 0.0
C434 C 0.74233 0.47012 0.18599 0.0
C435 C 0.62918 0.52723 0.1307 0.0
C436 C 0.60644 0.51924 0.14519 0.0
C437 C 0.66367 0.53274 0.13328 0.0
C438 C 0.67658 0.53092 0.15046 0.0
C439 C 0.65411 0.52335 0.16503 0.0
C440 C 0.6194 0.51755 0.16242 0.0
C441 C 0.71284 0.53519 0.15287 0.0
C442 C 0.71619 0.50802 0.16043 0.0
C443 C 0.7435 0.56424 0.14637 0.0
C444 C 0.74256 0.59529 0.13962 0.0
C445 C 0.72943 0.61392 0.1503 0.0
C446 C 0.72837 0.64299 0.14384 0.0
C447 C 0.74058 0.65384 0.12676 0.0
C448 C 0.75395 0.63568 0.11612 0.0
C449 C 0.75504 0.60657 0.1225 0.0
H450 H 0.73974 0.67635 0.12179 0.0
H451 H 0.75622 0.39948 0.18727 0.0
H452 H 0.40476 0.90198 0.5109 0.0
H453 H 0.34533 0.84894 0.51071 0.0
H454 H 0.35533 0.81758 0.45547 0.0
H455 H 0.41485 0.87014 0.45561 0.0
H456 H 0.28227 0.82021 0.4915 0.0
H457 H 0.32464 0.72901 0.45072 0.0
H458 H 0.37948 0.72623 0.44572 0.0
H459 H 0.42523 0.78525 0.49735 0.0
H460 H 0.37053 0.78798 0.50278 0.0
H461 H 0.13283 0.65759 0.45501 0.0
H462 H 0.18712 0.71518 0.46197 0.0
H463 H 0.22766 0.66641 0.49704 0.0
H464 H 0.17408 0.60827 0.48942 0.0
H465 H 0.27665 0.70407 0.4758 0.0
H466 H 0.2021 0.72747 0.51381 0.0
H467 H 0.14888 0.73064 0.52242 0.0
H468 H 0.16912 0.80614 0.48316 0.0
H469 H 0.22221 0.80305 0.47413 0.0
C470 C 0.39407 0.88413 0.49859 0.0
C471 C 0.41474 0.89006 0.48333 0.0
C472 C 0.36007 0.85381 0.49852 0.0
C473 C 0.34618 0.82891 0.48321 0.0
C474 C 0.36581 0.83605 0.46757 0.0
C475 C 0.39981 0.86621 0.46765 0.0
C476 C 0.31229 0.79443 0.48387 0.0
C477 C 0.28095 0.79478 0.48807 0.0
C478 C 0.31084 0.76119 0.48004 0.0
C479 C 0.34356 0.75894 0.47707 0.0
C480 C 0.34632 0.74122 0.46105 0.0
C481 C 0.37741 0.7397 0.45813 0.0
C482 C 0.40587 0.75566 0.47118 0.0
C483 C 0.40324 0.77303 0.48723 0.0
C484 C 0.3722 0.77459 0.49022 0.0
C485 C 0.15317 0.65911 0.46431 0.0
C486 C 0.14913 0.62814 0.47153 0.0
C487 C 0.18412 0.69223 0.46844 0.0
C488 C 0.21157 0.69532 0.4801 0.0
C489 C 0.20693 0.66476 0.48798 0.0
C490 C 0.17603 0.63155 0.48377 0.0
C491 C 0.24612 0.7297 0.48287 0.0
C492 C 0.27777 0.72938 0.47933 0.0
C493 C 0.24793 0.76283 0.48782 0.0
C494 C 0.216 0.7648 0.49319 0.0
C495 C 0.19506 0.74454 0.50691 0.0
C496 C 0.16493 0.74636 0.51189 0.0
C497 C 0.15558 0.76852 0.50332 0.0
C498 C 0.17638 0.78897 0.48978 0.0
C499 C 0.20652 0.78723 0.48474 0.0
H500 H 0.13225 0.7699 0.50719 0.0
H501 H 0.42992 0.7545 0.46889 0.0
H502 H 0.59448 0.43543 0.85436 0.0
H503 H 0.58598 0.37548 0.8482 0.0
H504 H 0.48388 0.34032 0.82078 0.0
H505 H 0.49261 0.401 0.82655 0.0
H506 H 0.48719 0.29246 0.8475 0.0
H507 H 0.54143 0.35178 0.79521 0.0
H508 H 0.58538 0.40075 0.77843 0.0
H509 H 0.66947 0.38746 0.80095 0.0
H510 H 0.62625 0.3393 0.81844 0.0
H511 H 0.47716 0.1278 0.81232 0.0
H512 H 0.474 0.18282 0.81609 0.0
H513 H 0.58595 0.24276 0.83283 0.0
H514 H 0.58968 0.18847 0.82842 0.0
H515 H 0.57143 0.27625 0.80865 0.0
H516 H 0.51898 0.2219 0.8632 0.0
H517 H 0.47596 0.17404 0.88093 0.0
H518 H 0.3893 0.17783 0.85433 0.0
H519 H 0.43181 0.22543 0.83626 0.0
C520 C 0.57006 0.41498 0.84711 0.0
C521 C 0.54416 0.42297 0.84096 0.0
C522 C 0.56531 0.38072 0.84356 0.0
C523 C 0.53434 0.35349 0.83403 0.0
C524 C 0.50795 0.361 0.8282 0.0
C525 C 0.51302 0.39564 0.83144 0.0
C526 C 0.53047 0.3176 0.82988 0.0
C527 C 0.5051 0.28863 0.83873 0.0
C528 C 0.55434 0.31291 0.81871 0.0
C529 C 0.58058 0.34215 0.80833 0.0
C530 C 0.56937 0.35965 0.79683 0.0
C531 C 0.59418 0.38731 0.78719 0.0
C532 C 0.63026 0.39743 0.78874 0.0
C533 C 0.64157 0.37983 0.79989 0.0
C534 C 0.61693 0.35237 0.8097 0.0
C535 C 0.50111 0.15268 0.81683 0.0
C536 C 0.53365 0.15348 0.82013 0.0
C537 C 0.49919 0.18412 0.81911 0.0
C538 C 0.52971 0.21704 0.82484 0.0
C539 C 0.56201 0.21777 0.8284 0.0
C540 C 0.56397 0.18648 0.82609 0.0
C541 C 0.52864 0.25105 0.82661 0.0
C542 C 0.55318 0.2798 0.81728 0.0
C543 C 0.50409 0.25551 0.83739 0.0
C544 C 0.47853 0.22691 0.84823 0.0
C545 C 0.49072 0.21231 0.86102 0.0
C546 C 0.46644 0.18527 0.87116 0.0
C547 C 0.42991 0.17282 0.86872 0.0
C548 C 0.4176 0.18745 0.85618 0.0
C549 C 0.44177 0.21447 0.846 0.0
H550 H 0.41115 0.1519 0.87658 0.0
H551 H 0.64943 0.41878 0.78122 0.0
H552 H 0.57092 0.8983 0.49761 0.0
H553 H 0.58408 0.84974 0.49866 0.0
H554 H 0.48541 0.78677 0.52434 0.0
H555 H 0.47245 0.83555 0.52372 0.0
H556 H 0.53837 0.78595 0.54172 0.0
H557 H 0.49532 0.76568 0.48017 0.0
H558 H 0.49068 0.78122 0.44923 0.0
H559 H 0.6 0.81087 0.442 0.0
H560 H 0.60548 0.79599 0.47302 0.0
H561 H 0.55534 0.63176 0.53734 0.0
H562 H 0.53133 0.67007 0.52976 0.0
H563 H 0.63312 0.74593 0.5106 0.0
H564 H 0.65723 0.70742 0.5179 0.0
H565 H 0.57358 0.73579 0.48881 0.0
H566 H 0.61603 0.76005 0.55205 0.0
H567 H 0.61864 0.74303 0.5829 0.0
H568 H 0.50627 0.70332 0.58637 0.0
H569 H 0.50292 0.71965 0.55541 0.0
C570 C 0.55193 0.87405 0.50339 0.0
C571 C 0.52073 0.87083 0.51066 0.0
C572 C 0.55937 0.84621 0.50388 0.0
C573 C 0.53555 0.81448 0.51142 0.0
C574 C 0.50417 0.81103 0.51847 0.0
C575 C 0.49682 0.83895 0.51811 0.0
C576 C 0.5444 0.78574 0.51285 0.0
C577 C 0.54539 0.77452 0.53007 0.0
C578 C 0.55409 0.77121 0.49771 0.0
C579 C 0.55089 0.77998 0.47899 0.0
C580 C 0.51846 0.77576 0.47204 0.0
C581 C 0.51567 0.78441 0.45448 0.0
C582 C 0.54505 0.79709 0.44367 0.0
C583 C 0.57727 0.80106 0.45039 0.0
C584 C 0.58022 0.79248 0.46796 0.0
C585 C 0.57239 0.65619 0.53113 0.0
C586 C 0.60824 0.66674 0.52831 0.0
C587 C 0.55868 0.67812 0.5269 0.0
C588 C 0.58059 0.71093 0.5198 0.0
C589 C 0.61584 0.72069 0.5161 0.0
C590 C 0.62963 0.69886 0.52041 0.0
C591 C 0.56771 0.7364 0.51765 0.0
C592 C 0.56611 0.74703 0.50036 0.0
C593 C 0.55707 0.75018 0.53268 0.0
C594 C 0.55916 0.74072 0.55136 0.0
C595 C 0.59184 0.74744 0.55934 0.0
C596 C 0.59345 0.73796 0.57685 0.0
C597 C 0.56262 0.72201 0.58657 0.0
C598 C 0.53012 0.71562 0.57882 0.0
C599 C 0.52835 0.725 0.5613 0.0
H600 H 0.56392 0.71468 0.60013 0.0
H601 H 0.54284 0.80379 0.43008 0.0
H602 H 0.65971 0.51936 0.80561 0.0
H603 H 0.72241 0.53598 0.80956 0.0
H604 H 0.73402 0.60278 0.85818 0.0
H605 H 0.67132 0.58642 0.85433 0.0
H606 H 0.79083 0.63509 0.83632 0.0
H607 H 0.72164 0.52183 0.86093 0.0
H608 H 0.67479 0.45839 0.86021 0.0
H609 H 0.72646 0.4311 0.81807 0.0
H610 H 0.77294 0.49453 0.81809 0.0
H611 H 0.94463 0.65289 0.88099 0.0
H612 H 0.88422 0.63899 0.87237 0.0
H613 H 0.88197 0.57299 0.82534 0.0
H614 H 0.94294 0.5873 0.83371 0.0
H615 H 0.82102 0.54003 0.84407 0.0
H616 H 0.8909 0.65279 0.81988 0.0
H617 H 0.9376 0.71625 0.82038 0.0
H618 H 0.88523 0.74418 0.86187 0.0
H619 H 0.83845 0.68078 0.86182 0.0
C620 C 0.67564 0.53782 0.81707 0.0
C621 C 0.66051 0.55146 0.82972 0.0
C622 C 0.71143 0.54718 0.81933 0.0
C623 C 0.7327 0.57031 0.83425 0.0
C624 C 0.718 0.58485 0.84658 0.0
C625 C 0.68216 0.57538 0.84439 0.0
C626 C 0.77 0.57854 0.83736 0.0
C627 C 0.79744 0.61437 0.83818 0.0
C628 C 0.77855 0.55131 0.83933 0.0
C629 C 0.75056 0.51307 0.83934 0.0
C630 C 0.72277 0.50238 0.85134 0.0
C631 C 0.69625 0.4664 0.85106 0.0
C632 C 0.69751 0.44073 0.83904 0.0
C633 C 0.72533 0.451 0.82729 0.0
C634 C 0.75175 0.48699 0.82741 0.0
C635 C 0.93162 0.63591 0.86863 0.0
C636 C 0.94881 0.62148 0.85795 0.0
C637 C 0.89698 0.62787 0.86377 0.0
C638 C 0.87877 0.60528 0.84811 0.0
C639 C 0.89562 0.59053 0.83747 0.0
C640 C 0.93039 0.59866 0.8423 0.0
C641 C 0.84186 0.59663 0.84317 0.0
C642 C 0.81445 0.56073 0.84204 0.0
C643 C 0.83331 0.62376 0.84091 0.0
C644 C 0.86133 0.66197 0.84095 0.0
C645 C 0.88948 0.67242 0.82921 0.0
C646 C 0.91595 0.70839 0.8294 0.0
C647 C 0.91443 0.73422 0.84118 0.0
C648 C 0.88639 0.72414 0.85277 0.0
C649 C 0.85987 0.68819 0.85265 0.0
H650 H 0.93494 0.76206 0.8413 0.0
H651 H 0.67702 0.41288 0.83889 0.0
H652 H 0.12049 0.66396 0.12304 0.0
H653 H 0.17958 0.71758 0.12527 0.0
H654 H 0.16309 0.74321 0.18036 0.0
H655 H 0.10405 0.68936 0.17832 0.0
H656 H 0.20124 0.80435 0.15963 0.0
H657 H 0.20246 0.69712 0.17501 0.0
H658 H 0.18763 0.63449 0.16816 0.0
H659 H 0.24761 0.66287 0.12039 0.0
H660 H 0.26242 0.72569 0.12684 0.0
H661 H 0.36953 0.89881 0.20642 0.0
H662 H 0.30824 0.85879 0.19464 0.0
H663 H 0.34657 0.83225 0.1458 0.0
H664 H 0.40811 0.87111 0.15789 0.0
H665 H 0.29755 0.77376 0.15849 0.0
H666 H 0.30492 0.88279 0.14542 0.0
H667 H 0.31821 0.94517 0.15093 0.0
H668 H 0.24211 0.9147 0.19221 0.0
H669 H 0.22872 0.8522 0.18714 0.0
C670 C 0.1292 0.68129 0.13554 0.0
C671 C 0.10798 0.67206 0.15063 0.0
C672 C 0.16288 0.71197 0.13675 0.0
C673 C 0.17575 0.73398 0.15305 0.0
C674 C 0.15353 0.72645 0.16767 0.0
C675 C 0.11988 0.69562 0.1665 0.0
C676 C 0.21369 0.76215 0.15566 0.0
C677 C 0.22241 0.79784 0.15947 0.0
C678 C 0.24115 0.75349 0.15488 0.0
C679 C 0.23327 0.716 0.15131 0.0
C680 C 0.21236 0.68997 0.163 0.0
C681 C 0.20395 0.65443 0.15919 0.0
C682 C 0.21656 0.64466 0.14381 0.0
C683 C 0.23781 0.67047 0.13228 0.0
C684 C 0.24625 0.70605 0.13602 0.0
C685 C 0.36495 0.88452 0.19316 0.0
C686 C 0.39373 0.88799 0.18315 0.0
C687 C 0.32986 0.86198 0.18633 0.0
C688 C 0.32276 0.84278 0.16924 0.0
C689 C 0.35143 0.84692 0.15899 0.0
C690 C 0.38659 0.86937 0.16586 0.0
C691 C 0.28546 0.81635 0.16283 0.0
C692 C 0.2767 0.78072 0.15835 0.0
C693 C 0.25806 0.82521 0.16284 0.0
C694 C 0.266 0.86281 0.16598 0.0
C695 C 0.29121 0.88942 0.15577 0.0
C696 C 0.29873 0.92481 0.1588 0.0
C697 C 0.28106 0.93391 0.17193 0.0
C698 C 0.25579 0.90762 0.18204 0.0
C699 C 0.24818 0.87219 0.17908 0.0
H700 H 0.28691 0.96132 0.17425 0.0
H701 H 0.20989 0.61711 0.14084 0.0
H702 H 0.55247 0.15637 0.46487 0.0
H703 H 0.56313 0.21724 0.46998 0.0
H704 H 0.49711 0.18755 0.51594 0.0
H705 H 0.48697 0.12663 0.51119 0.0
H706 H 0.52965 0.25388 0.47252 0.0
H707 H 0.53877 0.25635 0.55051 0.0
H708 H 0.54644 0.22273 0.57405 0.0
H709 H 0.60229 0.1892 0.53748 0.0
H710 H 0.59558 0.223 0.51386 0.0
H711 H 0.55717 0.41825 0.51822 0.0
H712 H 0.53506 0.35557 0.50743 0.0
H713 H 0.63936 0.36947 0.51913 0.0
H714 H 0.66144 0.4319 0.53025 0.0
H715 H 0.58714 0.31135 0.53339 0.0
H716 H 0.61013 0.36155 0.47603 0.0
H717 H 0.6057 0.39643 0.4522 0.0
H718 H 0.49206 0.32668 0.4468 0.0
H719 H 0.49576 0.29166 0.4708 0.0
C720 C 0.53959 0.16253 0.47585 0.0
C721 C 0.5195 0.13689 0.48787 0.0
C722 C 0.54571 0.19739 0.47874 0.0
C723 C 0.53184 0.20718 0.49367 0.0
C724 C 0.50883 0.18075 0.50461 0.0
C725 C 0.50299 0.14593 0.50185 0.0
C726 C 0.54472 0.24555 0.49882 0.0
C727 C 0.54196 0.26639 0.48587 0.0
C728 C 0.56142 0.26204 0.51616 0.0
C729 C 0.56641 0.24206 0.53035 0.0
C730 C 0.5529 0.24198 0.54753 0.0
C731 C 0.55709 0.22287 0.56089 0.0
C732 C 0.57484 0.20381 0.55725 0.0
C733 C 0.58862 0.20399 0.54028 0.0
C734 C 0.58467 0.22318 0.5269 0.0
C735 C 0.57539 0.40794 0.51842 0.0
C736 C 0.61101 0.42992 0.52512 0.0
C737 C 0.56281 0.37226 0.51213 0.0
C738 C 0.58563 0.35798 0.51244 0.0
C739 C 0.62136 0.38005 0.51877 0.0
C740 C 0.63399 0.41574 0.52499 0.0
C741 C 0.57182 0.31954 0.50715 0.0
C742 C 0.57449 0.29874 0.52009 0.0
C743 C 0.55548 0.30325 0.48979 0.0
C744 C 0.55319 0.32422 0.47534 0.0
C745 C 0.58416 0.35384 0.46987 0.0
C746 C 0.58179 0.37359 0.45631 0.0
C747 C 0.54861 0.36384 0.44802 0.0
C748 C 0.51774 0.33424 0.45325 0.0
C749 C 0.51996 0.31441 0.46682 0.0
H750 H 0.54683 0.37916 0.43752 0.0
H751 H 0.57794 0.1889 0.56759 0.0
H752 H 0.37256 0.49446 0.8112 0.0
H753 H 0.31998 0.50158 0.80955 0.0
H754 H 0.30335 0.48148 0.86584 0.0
H755 H 0.35578 0.47432 0.86763 0.0
H756 H 0.23954 0.45155 0.84443 0.0
H757 H 0.35106 0.5642 0.85545 0.0
H758 H 0.41172 0.60943 0.84806 0.0
H759 H 0.37011 0.62134 0.79768 0.0
H760 H 0.30925 0.57567 0.80462 0.0
H761 H 0.16202 0.54806 0.88256 0.0
H762 H 0.19823 0.52157 0.87357 0.0
H763 H 0.20525 0.55846 0.82031 0.0
H764 H 0.16859 0.58496 0.82921 0.0
H765 H 0.26967 0.57551 0.83442 0.0
H766 H 0.1564 0.46937 0.8259 0.0
H767 H 0.09598 0.42433 0.8336 0.0
H768 H 0.14018 0.40014 0.87913 0.0
H769 H 0.20087 0.44541 0.87187 0.0
C770 C 0.3572 0.49065 0.8231 0.0
C771 C 0.36853 0.48426 0.83962 0.0
C772 C 0.32725 0.49485 0.82214 0.0
C773 C 0.30817 0.49256 0.83765 0.0
C774 C 0.31781 0.48343 0.85374 0.0
C775 C 0.34785 0.47949 0.85476 0.0
C776 C 0.28066 0.50331 0.83779 0.0
C777 C 0.24601 0.47862 0.84226 0.0
C778 C 0.28909 0.53844 0.83452 0.0
C779 C 0.32565 0.56617 0.83044 0.0
C780 C 0.35488 0.57623 0.84272 0.0
C781 C 0.3893 0.60197 0.83863 0.0
C782 C 0.39477 0.61816 0.82239 0.0
C783 C 0.36583 0.60871 0.81024 0.0
C784 C 0.33137 0.58289 0.81423 0.0
C785 C 0.17051 0.54986 0.86879 0.0
C786 C 0.16228 0.56854 0.85659 0.0
C787 C 0.19129 0.53471 0.86367 0.0
C788 C 0.20412 0.53766 0.84619 0.0
C789 C 0.19556 0.55581 0.83386 0.0
C790 C 0.17473 0.57102 0.83898 0.0
C791 C 0.2285 0.52392 0.84142 0.0
C792 C 0.26275 0.54815 0.83616 0.0
C793 C 0.21968 0.48837 0.84398 0.0
C794 C 0.18321 0.46098 0.84839 0.0
C795 C 0.15324 0.45464 0.83763 0.0
C796 C 0.11893 0.42903 0.84191 0.0
C797 C 0.11424 0.40943 0.85686 0.0
C798 C 0.14386 0.41535 0.86755 0.0
C799 C 0.17823 0.44095 0.86334 0.0
H800 H 0.08766 0.38961 0.86015 0.0
H801 H 0.4214 0.63809 0.81925 0.0
H802 H 0.84883 0.41234 0.19986 0.0
H803 H 0.79968 0.3517 0.20214 0.0
H804 H 0.81996 0.3187 0.14939 0.0
H805 H 0.86926 0.37962 0.14691 0.0
H806 H 0.74862 0.29146 0.1535 0.0
H807 H 0.84766 0.29871 0.18602 0.0
H808 H 0.89867 0.32207 0.20835 0.0
H809 H 0.82879 0.30523 0.25183 0.0
H810 H 0.77747 0.28277 0.22973 0.0
H811 H 0.65867 0.10213 0.16667 0.0
H812 H 0.70229 0.16378 0.16079 0.0
H813 H 0.673 0.20351 0.20874 0.0
H814 H 0.629 0.14206 0.21451 0.0
H815 H 0.7486 0.22647 0.20613 0.0
H816 H 0.64922 0.21904 0.17211 0.0
H817 H 0.59929 0.19262 0.14895 0.0
H818 H 0.67189 0.20601 0.10725 0.0
H819 H 0.72223 0.23202 0.13022 0.0
C820 C 0.84288 0.39225 0.1887 0.0
C821 C 0.86313 0.40073 0.17324 0.0
C822 C 0.81479 0.35757 0.19005 0.0
C823 C 0.80643 0.33064 0.17601 0.0
C824 C 0.82605 0.33913 0.16038 0.0
C825 C 0.85429 0.37387 0.15903 0.0
C826 C 0.77761 0.29351 0.17788 0.0
C827 C 0.74882 0.27707 0.16488 0.0
C828 C 0.77774 0.27493 0.19285 0.0
C829 C 0.80874 0.28943 0.20619 0.0
C830 C 0.84322 0.30048 0.20033 0.0
C831 C 0.8722 0.31351 0.21295 0.0
C832 C 0.86699 0.3152 0.23149 0.0
C833 C 0.8328 0.30396 0.23745 0.0
C834 C 0.80376 0.29118 0.22488 0.0
C835 C 0.66129 0.12412 0.17579 0.0
C836 C 0.64058 0.11749 0.19103 0.0
C837 C 0.68601 0.15919 0.17239 0.0
C838 C 0.69069 0.18803 0.18433 0.0
C839 C 0.66958 0.18151 0.19936 0.0
C840 C 0.64444 0.14652 0.20259 0.0
C841 C 0.71951 0.22476 0.18193 0.0
C842 C 0.74841 0.241 0.1948 0.0
C843 C 0.71967 0.24285 0.16674 0.0
C844 C 0.68944 0.22708 0.15292 0.0
C845 C 0.6545 0.21598 0.15803 0.0
C846 C 0.62613 0.20117 0.14493 0.0
C847 C 0.6324 0.19753 0.12665 0.0
C848 C 0.66707 0.20878 0.12142 0.0
C849 C 0.69553 0.22358 0.13448 0.0
H850 H 0.61041 0.18609 0.11652 0.0
H851 H 0.88945 0.32518 0.24125 0.0
H852 H 0.98001 0.48594 0.10346 0.0
H853 H 0.99719 0.49542 0.07203 0.0
H854 H 0.02826 0.60681 0.08192 0.0
H855 H 0.01074 0.59761 0.11313 0.0
H856 H 0.97288 0.51993 0.04464 0.0
H857 H 0.1062 0.65522 0.06017 0.0
H858 H 0.15439 0.68445 0.0843 0.0
H859 H 0.12924 0.58181 0.10098 0.0
H860 H 0.08136 0.55193 0.07678 0.0
H861 H 0.0215 0.61936 0.96886 0.0
H862 H 0.00892 0.60044 -0.0005 0.0
H863 H 0.09565 0.5783 0.9994 0.0
H864 H 0.10837 0.59713 0.96862 0.0
H865 H 0.09553 0.61207 0.03129 0.0
H866 H 0.0111 0.51008 0.99334 0.0
H867 H 0.96429 0.47664 0.96891 0.0
H868 H 0.89411 0.50465 0.99674 0.0
H869 H 0.9407 0.53872 0.02122 0.0
C870 C 0.9903 0.5124 0.09891 0.0
C871 C 0.99425 0.54107 0.11084 0.0
C872 C 1.00012 0.51775 0.08098 0.0
C873 C 0.01446 0.55191 0.07479 0.0
C874 C 0.01777 0.58037 0.08655 0.0
C875 C 0.00762 0.57499 0.10436 0.0
C876 C 0.02561 0.55805 0.05597 0.0
C877 C 0.99971 0.53994 0.04169 0.0
C878 C 0.0609 0.5835 0.05218 0.0
C879 C 0.08995 0.60133 0.06671 0.0
C880 C 0.11106 0.63886 0.06891 0.0
C881 C 0.13836 0.65555 0.0826 0.0
C882 C 0.14492 0.635 0.09413 0.0
C883 C 0.12414 0.59771 0.09204 0.0
C884 C 0.09688 0.58088 0.07835 0.0
C885 C 0.03775 0.61023 0.97529 0.0
C886 C 0.06575 0.60947 0.96625 0.0
C887 C 0.03057 0.59947 0.99281 0.0
C888 C 0.05102 0.58747 0.00162 0.0
C889 C 0.07952 0.58742 0.99283 0.0
C890 C 0.08679 0.59827 0.97527 0.0
C891 C 0.0424 0.57495 0.02 0.0
C892 C 0.06877 0.59185 0.03421 0.0
C893 C 0.00773 0.54781 0.0237 0.0
C894 C 0.97951 0.52717 0.00906 0.0
C895 C 0.98578 0.50932 0.99419 0.0
C896 C 0.95927 0.49022 0.98034 0.0
C897 C 0.92627 0.48857 0.98125 0.0
C898 C 0.91969 0.50597 0.99604 0.0
C899 C 0.94613 0.52514 0.00992 0.0
H900 H 0.90578 0.47377 0.97052 0.0
H901 H 0.16603 0.64798 0.10473 0.0
H902 H 0.48953 0.02081 0.44754 0.0
H903 H 0.49213 0.01728 0.4145 0.0
H904 H 0.56732 0.9799 0.41873 0.0
H905 H 0.56515 0.98362 0.4517 0.0
H906 H 0.58775 0.03122 0.3953 0.0
H907 H 0.48115 0.92227 0.40619 0.0
H908 H 0.42238 0.88654 0.41882 0.0
H909 H 0.37991 0.93877 0.38804 0.0
H910 H 0.43862 0.97528 0.37546 0.0
H911 H 0.58111 0.96726 0.30407 0.0
H912 H 0.57674 0.97138 0.33691 0.0
H913 H 0.4981 0.00379 0.33035 0.0
H914 H 0.50111 0.99816 0.29743 0.0
H915 H 0.47895 0.95635 0.35499 0.0
H916 H 0.5853 0.06495 0.34388 0.0
H917 H 0.64432 0.10152 0.33167 0.0
H918 H 0.68736 0.05053 0.36305 0.0
H919 H 0.62844 0.01329 0.37526 0.0
C920 C 0.5066 0.01182 0.44144 0.0
C921 C 0.52704 0.00239 0.45226 0.0
C922 C 0.50798 0.00973 0.42256 0.0
C923 C 0.5297 0.99803 0.41417 0.0
C924 C 0.55041 0.989 0.42494 0.0
C925 C 0.54903 0.99105 0.44379 0.0
C926 C 0.53095 0.99518 0.39415 0.0
C927 C 0.56404 0.01453 0.38648 0.0
C928 C 0.49985 0.97405 0.38267 0.0
C929 C 0.46439 0.95176 0.39002 0.0
C930 C 0.45935 0.92633 0.40221 0.0
C931 C 0.42604 0.90591 0.40935 0.0
C932 C 0.39745 0.91044 0.40426 0.0
C933 C 0.40209 0.93533 0.39199 0.0
C934 C 0.43538 0.95588 0.38484 0.0
C935 C 0.56259 0.97489 0.30958 0.0
C936 C 0.54158 0.98253 0.29808 0.0
C937 C 0.5604 0.9776 0.32838 0.0
C938 C 0.53748 0.98842 0.33611 0.0
C939 C 0.5161 0.99558 0.32469 0.0
C940 C 0.51814 0.9927 0.30588 0.0
C941 C 0.53583 0.99226 0.35611 0.0
C942 C 0.50266 0.97312 0.36379 0.0
C943 C 0.56687 0.01362 0.36762 0.0
C944 C 0.60237 0.03611 0.36036 0.0
C945 C 0.60728 0.06135 0.34808 0.0
C946 C 0.64073 0.08223 0.34117 0.0
C947 C 0.66955 0.07829 0.34655 0.0
C948 C 0.665 0.05352 0.35888 0.0
C949 C 0.6316 0.03255 0.36581 0.0
H950 H 0.69542 0.09448 0.34119 0.0
H951 H 0.37169 0.89462 0.40981 0.0
H952 H 0.47798 0.47966 0.77403 0.0
H953 H 0.49127 0.48547 0.74195 0.0
H954 H 0.59475 0.57747 0.757 0.0
H955 H 0.58169 0.57213 0.78889 0.0
H956 H 0.56328 0.58911 0.7289 0.0
H957 H 0.58622 0.4967 0.74547 0.0
H958 H 0.57152 0.43962 0.75762 0.0
H959 H 0.48667 0.38241 0.71652 0.0
H960 H 0.50056 0.43929 0.70428 0.0
H961 H 0.66188 0.60142 0.65165 0.0
H962 H 0.6395 0.59211 0.68215 0.0
H963 H 0.53689 0.50754 0.65977 0.0
H964 H 0.5592 0.51659 0.62919 0.0
H965 H 0.5623 0.48998 0.6904 0.0
H966 H 0.54418 0.58442 0.67256 0.0
H967 H 0.56156 0.64246 0.66077 0.0
H968 H 0.64048 0.6969 0.70481 0.0
H969 H 0.62395 0.63911 0.71672 0.0
C970 C 0.5035 0.50116 0.77049 0.0
C971 C 0.52879 0.52536 0.78402 0.0
C972 C 0.5111 0.50439 0.75217 0.0
C973 C 0.54411 0.53176 0.74712 0.0
C974 C 0.56909 0.5562 0.76059 0.0
C975 C 0.56158 0.55301 0.77884 0.0
C976 C 0.55313 0.53494 0.72784 0.0
C977 C 0.5633 0.56752 0.72053 0.0
C978 C 0.55247 0.50651 0.71682 0.0
C979 C 0.54415 0.47228 0.72409 0.0
C980 C 0.56423 0.47198 0.73911 0.0
C981 C 0.55609 0.43966 0.746 0.0
C982 C 0.52811 0.40741 0.73788 0.0
C983 C 0.50829 0.40742 0.72282 0.0
C984 C 0.5163 0.43969 0.71589 0.0
C985 C 0.63462 0.58073 0.65325 0.0
C986 C 0.61224 0.5598 0.63807 0.0
C987 C 0.62182 0.57558 0.67064 0.0
C988 C 0.58647 0.54933 0.67315 0.0
C989 C 0.56421 0.52799 0.65807 0.0
C990 C 0.5769 0.53336 0.64064 0.0
C991 C 0.5729 0.5443 0.69159 0.0
C992 C 0.56188 0.5114 0.69873 0.0
C993 C 0.5731 0.57255 0.70253 0.0
C994 C 0.58302 0.60738 0.69544 0.0
C995 C 0.56545 0.60874 0.67965 0.0
C996 C 0.57511 0.6416 0.67296 0.0
C997 C 0.60216 0.67334 0.68201 0.0
C998 C 0.61955 0.67229 0.6978 0.0
C999 C 0.61002 0.63948 0.70453 0.0
H1000 H 0.6096 0.69876 0.67681 0.0
H1001 H 0.52185 0.38241 0.74324 0.0
H1002 H 0.53065 0.96785 0.55867 0.0
H1003 H 0.5342 0.97287 0.59173 0.0
H1004 H 0.53325 0.07219 0.59264 0.0
H1005 H 0.52878 0.06691 0.55945 0.0
H1006 H 0.58254 0.0191 0.61546 0.0
H1007 H 0.49388 0.08227 0.6304 0.0
H1008 H 0.44192 0.08255 0.61648 0.0
H1009 H 0.40755 0.97961 0.58819 0.0
H1010 H 0.45903 0.97851 0.60212 0.0
H1011 H 0.6095 0.08016 0.70814 0.0
H1012 H 0.60269 0.07725 0.67522 0.0
H1013 H 0.49269 0.99401 0.67648 0.0
H1014 H 0.49863 0.99828 0.70954 0.0
H1015 H 0.49756 0.03749 0.6526 0.0
H1016 H 0.55986 0.97532 0.6654 0.0
H1017 H 0.60733 0.96747 0.67927 0.0
H1018 H 0.68625 0.05462 0.65181 0.0
H1019 H 0.63926 0.0633 0.63796 0.0
C1020 C 0.53111 0.99077 0.56587 0.0
C1021 C 0.52934 0.01695 0.5564 0.0
C1022 C 0.53322 0.99362 0.5848 0.0
C1023 C 0.53373 0.02275 0.59471 0.0
C1024 C 0.53227 0.04914 0.58531 0.0
C1025 C 0.52983 0.04614 0.56633 0.0
C1026 C 0.53631 0.02556 0.61486 0.0
C1027 C 0.56398 0.02319 0.62356 0.0
C1028 C 0.51177 0.03028 0.62548 0.0
C1029 C 0.48053 0.03052 0.61715 0.0
C1030 C 0.47517 0.05966 0.62125 0.0
C1031 C 0.44581 0.05996 0.61335 0.0
C1032 C 0.42152 0.03118 0.60141 0.0
C1033 C 0.42646 0.00196 0.59738 0.0
C1034 C 0.45575 0.00151 0.60526 0.0
C1035 C 0.58364 0.06165 0.70149 0.0
C1036 C 0.55466 0.03931 0.71157 0.0
C1037 C 0.57992 0.05972 0.68261 0.0
C1038 C 0.54735 0.03497 0.67332 0.0
C1039 C 0.51815 0.0132 0.68333 0.0
C1040 C 0.52172 0.01538 0.70224 0.0
C1041 C 0.54392 0.03125 0.65317 0.0
C1042 C 0.51618 0.03354 0.64448 0.0
C1043 C 0.56778 0.02541 0.64253 0.0
C1044 C 0.59608 0.02017 0.65078 0.0
C1045 C 0.58736 0.99297 0.66242 0.0
C1046 C 0.61418 0.98835 0.67026 0.0
C1047 C 0.64979 0.01059 0.66646 0.0
C1048 C 0.65866 0.03744 0.65477 0.0
C1049 C 0.63194 0.04221 0.6469 0.0
H1050 H 0.67052 0.00697 0.67254 0.0
H1051 H 0.39882 0.03148 0.5953 0.0
H1052 H 0.55241 0.55869 0.89506 0.0
H1053 H 0.54505 0.55199 0.92745 0.0
H1054 H 0.44672 0.45199 0.91544 0.0
H1055 H 0.45333 0.45907 0.883 0.0
H1056 H 0.43854 0.48905 0.94239 0.0
H1057 H 0.52604 0.45566 0.92862 0.0
H1058 H 0.58166 0.46262 0.91643 0.0
H1059 H 0.64325 0.55636 0.9532 0.0
H1060 H 0.58793 0.55028 0.96544 0.0
H1061 H 0.42781 0.42534 0.02976 0.0
H1062 H 0.43505 0.43204 0.99723 0.0
H1063 H 0.52238 0.53993 0.00923 0.0
H1064 H 0.51523 0.53339 0.04181 0.0
H1065 H 0.53606 0.49826 0.98254 0.0
H1066 H 0.4462 0.52988 0.99605 0.0
H1067 H 0.38957 0.52029 0.00813 0.0
H1068 H 0.33125 0.42558 0.97155 0.0
H1069 H 0.38762 0.43432 0.95943 0.0
C1070 C 0.52921 0.53525 0.8993 0.0
C1071 C 0.50354 0.50933 0.88644 0.0
C1072 C 0.52512 0.53137 0.91783 0.0
C1073 C 0.49563 0.50118 0.9239 0.0
C1074 C 0.46974 0.47547 0.91109 0.0
C1075 C 0.47361 0.47952 0.89254 0.0
C1076 C 0.49165 0.49655 0.9436 0.0
C1077 C 0.4597 0.49056 0.9511 0.0
C1078 C 0.51946 0.49909 0.95506 0.0
C1079 C 0.55281 0.5027 0.94783 0.0
C1080 C 0.55143 0.47791 0.93402 0.0
C1081 C 0.5829 0.48168 0.92711 0.0
C1082 C 0.61597 0.50996 0.934 0.0
C1083 C 0.61761 0.53449 0.94786 0.0
C1084 C 0.58621 0.53088 0.95479 0.0
C1085 C 0.44865 0.45041 0.02545 0.0
C1086 C 0.47091 0.47888 0.03828 0.0
C1087 C 0.45264 0.45426 0.0069 0.0
C1088 C 0.47912 0.48654 0.00087 0.0
C1089 C 0.50175 0.51483 0.01364 0.0
C1090 C 0.4975 0.51115 0.0322 0.0
C1091 C 0.48307 0.49084 0.98121 0.0
C1092 C 0.51497 0.49672 0.97376 0.0
C1093 C 0.45508 0.48776 0.96976 0.0
C1094 C 0.42116 0.48255 0.97697 0.0
C1095 C 0.42133 0.50683 0.99069 0.0
C1096 C 0.38927 0.50158 0.99753 0.0
C1097 C 0.35684 0.47229 0.99065 0.0
C1098 C 0.3564 0.44823 0.97689 0.0
C1099 C 0.38839 0.45333 0.97002 0.0
H1100 H 0.33205 0.46827 0.99595 0.0
H1101 H 0.64031 0.51284 0.92863 0.0
H1102 H 0.98119 0.47517 0.21051 0.0
H1103 H 0.9817 0.46903 0.24295 0.0
H1104 H 0.00361 0.57749 0.25419 0.0
H1105 H 0.00411 0.58424 0.22159 0.0
H1106 H 0.04337 0.56418 0.27639 0.0
H1107 H 0.92026 0.50508 0.25693 0.0
H1108 H 0.86621 0.46286 0.23792 0.0
H1109 H 0.87324 0.37444 0.25608 0.0
H1110 H 0.92803 0.416 0.27458 0.0
H1111 H 0.01071 0.53945 0.36974 0.0
H1112 H 0.00334 0.5502 0.33836 0.0
H1113 H 0.9891 0.4469 0.3199 0.0
H1114 H 0.99568 0.43565 0.35126 0.0
H1115 H 0.94209 0.46138 0.30219 0.0
H1116 H 0.06884 0.52092 0.31809 0.0
H1117 H 0.12373 0.56286 0.33662 0.0
H1118 H 0.10832 0.65044 0.3255 0.0
H1119 H 0.05303 0.60891 0.30709 0.0
C1120 C 0.98616 0.4978 0.21984 0.0
C1121 C 0.99241 0.53016 0.21345 0.0
C1122 C 0.98627 0.49416 0.23841 0.0
C1123 C 0.99198 0.52255 0.25101 0.0
C1124 C 0.99893 0.55516 0.24471 0.0
C1125 C 0.99915 0.55896 0.22608 0.0
C1126 C 0.99098 0.51809 0.27073 0.0
C1127 C 0.02092 0.54208 0.28208 0.0
C1128 C 0.96185 0.48894 0.27812 0.0
C1129 C 0.92856 0.46377 0.26705 0.0
C1130 C 0.91053 0.47664 0.25671 0.0
C1131 C 0.87976 0.45278 0.24597 0.0
C1132 C 0.8664 0.41594 0.24566 0.0
C1133 C 0.88373 0.40292 0.25615 0.0
C1134 C 0.91469 0.42663 0.26676 0.0
C1135 C 0.0054 0.51877 0.35902 0.0
C1136 C 0.00393 0.48675 0.36296 0.0
C1137 C 1.00148 0.52508 0.3411 0.0
C1138 C 0.99608 0.49951 0.3268 0.0
C1139 C 0.99334 0.46701 0.33074 0.0
C1140 C 0.99737 0.46074 0.34864 0.0
C1141 C 0.99468 0.50704 0.30767 0.0
C1142 C 0.96428 0.48368 0.29647 0.0
C1143 C 0.02328 0.53678 0.30042 0.0
C1144 C 0.0566 0.56177 0.31139 0.0
C1145 C 0.07701 0.54908 0.31972 0.0
C1146 C 0.10822 0.57278 0.33018 0.0
C1147 C 0.11945 0.60928 0.33228 0.0
C1148 C 0.09955 0.62216 0.32388 0.0
C1149 C 0.06829 0.59856 0.31343 0.0
H1150 H 0.14362 0.62758 0.34038 0.0
H1151 H 0.84256 0.39748 0.23736 0.0
loop_
_geom_bond_atom_site_label_1
_geom_bond_atom_site_label_2
_geom_bond_distance
_geom_bond_site_symmetry_2
_ccdc_geom_bond_type
Zn0 O6 1.969 . S
Zn0 O7 1.965 . S
Zn0 O11 2.024 . S
Zn0 O16 1.969 . S
Zn1 O8 1.969 . S
Zn1 O14 1.969 . S
Zn1 O15 1.965 . S
Zn1 O17 2.024 . S
C2 O3 1.229 . S
C2 O11 1.058 . S
O3 C2 1.229 . S
C4 O5 1.229 . S
C4 O17 1.058 . S
O5 C4 1.229 . S
O6 Zn0 1.969 . S
O6 C9 1.267 . S
O7 Zn0 1.965 . S
O7 C18 1.260 1_455 S
O8 Zn1 1.969 . S
O8 C18 1.258 . S
C9 O6 1.267 . S
C9 O10 1.228 . S
O10 C9 1.228 . S
O11 Zn0 2.024 . S
O11 C2 1.058 . S
C12 O13 1.228 . S
C12 O14 1.267 . S
O13 C12 1.228 . S
O14 Zn1 1.969 . S
O14 C12 1.267 . S
O15 Zn1 1.965 . S
O15 C19 1.260 1_655 S
O16 Zn0 1.969 . S
O16 C19 1.258 . S
O17 Zn1 2.024 . S
O17 C4 1.058 . S
C18 O7 1.260 1_655 S
C18 O8 1.258 . S
C19 O15 1.260 1_455 S
C19 O16 1.258 . S
Zn20 O26 1.969 . S
Zn20 O27 1.965 . S
Zn20 O31 2.024 . S
Zn20 O36 1.969 . S
Zn21 O28 1.969 . S
Zn21 O34 1.969 . S
Zn21 O35 1.965 . S
Zn21 O37 2.024 . S
C22 O23 1.229 . S
C22 O31 1.058 . S
O23 C22 1.229 . S
C24 O25 1.229 . S
C24 O37 1.058 . S
O25 C24 1.229 . S
O26 Zn20 1.969 . S
O26 C29 1.267 . S
O27 Zn20 1.965 . S
O27 C38 1.260 . S
O28 Zn21 1.969 . S
O28 C38 1.258 1_565 S
C29 O26 1.267 . S
C29 O30 1.228 . S
O30 C29 1.228 . S
O31 Zn20 2.024 . S
O31 C22 1.058 . S
C32 O33 1.228 . S
C32 O34 1.267 . S
O33 C32 1.228 . S
O34 Zn21 1.969 . S
O34 C32 1.267 . S
O35 Zn21 1.965 . S
O35 C39 1.260 1_565 S
O36 Zn20 1.969 . S
O36 C39 1.258 . S
O37 Zn21 2.024 . S
O37 C24 1.058 . S
C38 O27 1.260 . S
C38 O28 1.258 1_545 S
C39 O35 1.260 1_545 S
C39 O36 1.258 . S
Zn40 O46 1.969 . S
Zn40 O47 1.965 . S
Zn40 O51 2.024 . S
Zn40 O56 1.969 . S
Zn41 O48 1.969 . S
Zn41 O54 1.969 . S
Zn41 O55 1.965 . S
Zn41 O57 2.024 . S
C42 O43 1.229 . S
C42 O51 1.058 . S
O43 C42 1.229 . S
C44 O45 1.229 . S
C44 O57 1.058 . S
O45 C44 1.229 . S
O46 Zn40 1.969 . S
O46 C49 1.267 . S
O47 Zn40 1.965 . S
O47 C58 1.260 . S
O48 Zn41 1.969 . S
O48 C58 1.258 . S
C49 O46 1.267 . S
C49 O50 1.228 . S
O50 C49 1.228 . S
O51 Zn40 2.024 . S
O51 C42 1.058 . S
C52 O53 1.228 . S
C52 O54 1.267 . S
O53 C52 1.228 . S
O54 Zn41 1.969 . S
O54 C52 1.267 . S
O55 Zn41 1.965 . S
O55 C59 1.260 . S
O56 Zn40 1.969 . S
O56 C59 1.258 . S
O57 Zn41 2.024 . S
O57 C44 1.058 . S
C58 O47 1.260 . S
C58 O48 1.258 . S
C59 O55 1.260 . S
C59 O56 1.258 . S
P60 O71 1.490 1_545 S
P60 C74 1.812 1_545 S
P60 C80 1.803 . S
P60 C86 1.819 . S
H61 C75 0.941 . S
H62 C76 0.939 . S
H63 C78 0.940 . S
H64 C79 0.940 1_545 S
H65 C81 0.939 . S
H66 C82 0.942 . S
H67 C84 0.940 . S
H68 C85 0.939 . S
H69 C87 0.941 . S
H70 C91 0.939 . S
O71 P60 1.490 1_565 S
H72 C88 0.939 . S
H73 C90 0.940 . S
C74 P60 1.812 1_565 S
C74 C75 1.389 . S
C74 C79 1.391 . S
C75 H61 0.941 . S
C75 C74 1.389 . S
C75 C76 1.397 . S
C76 H62 0.939 . S
C76 C75 1.397 . S
C76 C77 1.378 . S
C77 C76 1.378 . S
C77 C78 1.378 . S
C78 H63 0.940 . S
C78 C77 1.378 . S
C78 C79 1.396 . S
C79 H64 0.940 1_565 S
C79 C74 1.391 . S
C79 C78 1.396 . S
C80 P60 1.803 . S
C80 C81 1.378 . S
C80 C85 1.400 . S
C81 H65 0.939 . S
C81 C80 1.378 . S
C81 C82 1.361 . S
C82 H66 0.942 . S
C82 C81 1.361 . S
C82 C83 1.369 . S
C83 C82 1.369 . S
C83 C84 1.404 . S
C84 H67 0.940 . S
C84 C83 1.404 . S
C84 C85 1.389 . S
C85 H68 0.939 . S
C85 C80 1.400 . S
C85 C84 1.389 . S
C86 P60 1.819 . S
C86 C87 1.391 1_545 S
C86 C91 1.391 . S
C87 H69 0.941 . S
C87 C86 1.391 1_565 S
C87 C88 1.396 . S
C88 H72 0.939 . S
C88 C87 1.396 . S
C88 C89 1.397 1_565 S
C89 C88 1.397 1_545 S
C89 C90 1.385 . S
C90 H73 0.940 . S
C90 C89 1.385 . S
C90 C91 1.388 . S
C91 H70 0.939 . S
C91 C86 1.391 . S
C91 C90 1.388 . S
P92 O103 1.490 . S
P92 C106 1.812 . S
P92 C112 1.803 . S
P92 C118 1.819 . S
H93 C107 0.941 . S
H94 C108 0.939 . S
H95 C110 0.940 . S
H96 C111 0.940 . S
H97 C113 0.939 . S
H98 C114 0.942 . S
H99 C116 0.940 . S
H100 C117 0.939 . S
H101 C119 0.941 . S
H102 C123 0.939 . S
O103 P92 1.490 . S
H104 C120 0.939 . S
H105 C122 0.940 . S
C106 P92 1.812 . S
C106 C107 1.389 . S
C106 C111 1.391 . S
C107 H93 0.941 . S
C107 C106 1.389 . S
C107 C108 1.397 . S
C108 H94 0.939 . S
C108 C107 1.397 . S
C108 C109 1.378 . S
C109 C108 1.378 . S
C109 C110 1.378 . S
C110 H95 0.940 . S
C110 C109 1.378 . S
C110 C111 1.396 . S
C111 H96 0.940 . S
C111 C106 1.391 . S
C111 C110 1.396 . S
C112 P92 1.803 . S
C112 C113 1.378 . S
C112 C117 1.400 . S
C113 H97 0.939 . S
C113 C112 1.378 . S
C113 C114 1.361 . S
C114 H98 0.942 . S
C114 C113 1.361 . S
C114 C115 1.369 . S
C115 C114 1.369 . S
C115 C116 1.404 . S
C116 H99 0.940 . S
C116 C115 1.404 . S
C116 C117 1.389 . S
C117 H100 0.939 . S
C117 C112 1.400 . S
C117 C116 1.389 . S
C118 P92 1.819 . S
C118 C119 1.391 . S
C118 C123 1.391 . S
C119 H101 0.941 . S
C119 C118 1.391 . S
C119 C120 1.396 . S
C120 H104 0.939 . S
C120 C119 1.396 . S
C120 C121 1.397 . S
C121 C120 1.397 . S
C121 C122 1.385 . S
C122 H105 0.940 . S
C122 C121 1.385 . S
C122 C123 1.388 . S
C123 H102 0.939 . S
C123 C118 1.391 . S
C123 C122 1.388 . S
P124 O135 1.490 . S
P124 C138 1.812 . S
P124 C144 1.803 . S
P124 C150 1.819 . S
H125 C139 0.941 . S
H126 C140 0.939 . S
H127 C142 0.940 . S
H128 C143 0.940 . S
H129 C145 0.939 1_455 S
H130 C146 0.942 . S
H131 C148 0.940 . S
H132 C149 0.939 1_455 S
H133 C151 0.941 . S
H134 C155 0.939 1_655 S
O135 P124 1.490 . S
H136 C152 0.939 . S
H137 C154 0.940 1_655 S
C138 P124 1.812 . S
C138 C139 1.389 . S
C138 C143 1.391 . S
C139 H125 0.941 . S
C139 C138 1.389 . S
C139 C140 1.397 . S
C140 H126 0.939 . S
C140 C139 1.397 . S
C140 C141 1.378 . S
C141 C140 1.378 . S
C141 C142 1.378 . S
C142 H127 0.940 . S
C142 C141 1.378 . S
C142 C143 1.396 . S
C143 H128 0.940 . S
C143 C138 1.391 . S
C143 C142 1.396 . S
C144 P124 1.803 . S
C144 C145 1.378 1_455 S
C144 C149 1.400 1_455 S
C145 H129 0.939 1_655 S
C145 C144 1.378 1_655 S
C145 C146 1.361 . S
C146 H130 0.942 . S
C146 C145 1.361 . S
C146 C147 1.369 . S
C147 C146 1.369 . S
C147 C148 1.404 . S
C148 H131 0.940 . S
C148 C147 1.404 . S
C148 C149 1.389 . S
C149 H132 0.939 1_655 S
C149 C144 1.400 1_655 S
C149 C148 1.389 . S
C150 P124 1.819 . S
C150 C151 1.391 . S
C150 C155 1.391 . S
C151 H133 0.941 . S
C151 C150 1.391 . S
C151 C152 1.396 . S
C152 H136 0.939 . S
C152 C151 1.396 . S
C152 C153 1.397 . S
C153 C152 1.397 . S
C153 C154 1.385 . S
C154 H137 0.940 1_455 S
C154 C153 1.385 . S
C154 C155 1.388 . S
C155 H134 0.939 1_455 S
C155 C150 1.391 . S
C155 C154 1.388 . S
P156 O167 1.490 . S
P156 C170 1.812 . S
P156 C176 1.803 . S
P156 C182 1.819 . S
H157 C171 0.941 . S
H158 C172 0.939 . S
H159 C174 0.940 . S
H160 C175 0.940 . S
H161 C177 0.939 . S
H162 C178 0.942 . S
H163 C180 0.940 . S
H164 C181 0.939 . S
H165 C183 0.941 . S
H166 C187 0.939 . S
O167 P156 1.490 . S
H168 C184 0.939 . S
H169 C186 0.940 . S
C170 P156 1.812 . S
C170 C171 1.389 . S
C170 C175 1.391 . S
C171 H157 0.941 . S
C171 C170 1.389 . S
C171 C172 1.397 . S
C172 H158 0.939 . S
C172 C171 1.397 . S
C172 C173 1.378 . S
C173 C172 1.378 . S
C173 C174 1.378 . S
C174 H159 0.940 . S
C174 C173 1.378 . S
C174 C175 1.396 . S
C175 H160 0.940 . S
C175 C170 1.391 . S
C175 C174 1.396 . S
C176 P156 1.803 . S
C176 C177 1.378 1_455 S
C176 C181 1.400 1_455 S
C177 H161 0.939 . S
C177 C176 1.378 1_655 S
C177 C178 1.361 . S
C178 H162 0.942 . S
C178 C177 1.361 . S
C178 C179 1.369 . S
C179 C178 1.369 . S
C179 C180 1.404 . S
C180 H163 0.940 . S
C180 C179 1.404 . S
C180 C181 1.389 . S
C181 H164 0.939 . S
C181 C176 1.400 1_655 S
C181 C180 1.389 . S
C182 P156 1.819 . S
C182 C183 1.391 . S
C182 C187 1.391 1_455 S
C183 H165 0.941 . S
C183 C182 1.391 . S
C183 C184 1.396 . S
C184 H168 0.939 . S
C184 C183 1.396 . S
C184 C185 1.397 . S
C185 C184 1.397 . S
C185 C186 1.385 1_455 S
C186 H169 0.940 . S
C186 C185 1.385 1_655 S
C186 C187 1.388 . S
C187 H166 0.939 . S
C187 C182 1.391 1_655 S
C187 C186 1.388 . S
P188 O199 1.490 . S
P188 C202 1.812 . S
P188 C208 1.803 . S
P188 C214 1.819 . S
H189 C203 0.941 . S
H190 C204 0.939 . S
H191 C206 0.940 . S
H192 C207 0.940 . S
H193 C209 0.939 . S
H194 C210 0.942 . S
H195 C212 0.940 . S
H196 C213 0.939 . S
H197 C215 0.941 . S
H198 C219 0.939 1_565 S
O199 P188 1.490 . S
H200 C216 0.939 . S
H201 C218 0.940 . S
C202 P188 1.812 . S
C202 C203 1.389 . S
C202 C207 1.391 . S
C203 H189 0.941 . S
C203 C202 1.389 . S
C203 C204 1.397 . S
C204 H190 0.939 . S
C204 C203 1.397 . S
C204 C205 1.378 . S
C205 C204 1.378 . S
C205 C206 1.378 . S
C206 H191 0.940 . S
C206 C205 1.378 . S
C206 C207 1.396 . S
C207 H192 0.940 . S
C207 C202 1.391 . S
C207 C206 1.396 . S
C208 P188 1.803 . S
C208 C209 1.378 1_545 S
C208 C213 1.400 1_545 S
C209 H193 0.939 . S
C209 C208 1.378 1_565 S
C209 C210 1.361 . S
C210 H194 0.942 . S
C210 C209 1.361 . S
C210 C211 1.369 . S
C211 C210 1.369 . S
C211 C212 1.404 . S
C212 H195 0.940 . S
C212 C211 1.404 . S
C212 C213 1.389 . S
C213 H196 0.939 . S
C213 C208 1.400 1_565 S
C213 C212 1.389 . S
C214 P188 1.819 . S
C214 C215 1.391 . S
C214 C219 1.391 . S
C215 H197 0.941 . S
C215 C214 1.391 . S
C215 C216 1.396 . S
C216 H200 0.939 . S
C216 C215 1.396 . S
C216 C217 1.397 . S
C217 C216 1.397 . S
C217 C218 1.385 1_545 S
C218 H201 0.940 . S
C218 C217 1.385 1_565 S
C218 C219 1.388 1_565 S
C219 H198 0.939 1_545 S
C219 C214 1.391 . S
C219 C218 1.388 1_545 S
P220 O231 1.490 . S
P220 C234 1.812 . S
P220 C240 1.803 . S
P220 C246 1.819 . S
H221 C235 0.941 . S
H222 C236 0.939 . S
H223 C238 0.940 . S
H224 C239 0.940 . S
H225 C241 0.939 . S
H226 C242 0.942 . S
H227 C244 0.940 . S
H228 C245 0.939 . S
H229 C247 0.941 . S
H230 C251 0.939 . S
O231 P220 1.490 . S
H232 C248 0.939 . S
H233 C250 0.940 . S
C234 P220 1.812 . S
C234 C235 1.389 . S
C234 C239 1.391 . S
C235 H221 0.941 . S
C235 C234 1.389 . S
C235 C236 1.397 . S
C236 H222 0.939 . S
C236 C235 1.397 . S
C236 C237 1.378 . S
C237 C236 1.378 . S
C237 C238 1.378 . S
C238 H223 0.940 . S
C238 C237 1.378 . S
C238 C239 1.396 . S
C239 H224 0.940 . S
C239 C234 1.391 . S
C239 C238 1.396 . S
C240 P220 1.803 . S
C240 C241 1.378 . S
C240 C245 1.400 . S
C241 H225 0.939 . S
C241 C240 1.378 . S
C241 C242 1.361 . S
C242 H226 0.942 . S
C242 C241 1.361 . S
C242 C243 1.369 . S
C243 C242 1.369 . S
C243 C244 1.404 . S
C244 H227 0.940 . S
C244 C243 1.404 . S
C244 C245 1.389 . S
C245 H228 0.939 . S
C245 C240 1.400 . S
C245 C244 1.389 . S
C246 P220 1.819 . S
C246 C247 1.391 . S
C246 C251 1.391 . S
C247 H229 0.941 . S
C247 C246 1.391 . S
C247 C248 1.396 . S
C248 H232 0.939 . S
C248 C247 1.396 . S
C248 C249 1.397 . S
C249 C248 1.397 . S
C249 C250 1.385 . S
C250 H233 0.940 . S
C250 C249 1.385 . S
C250 C251 1.388 . S
C251 H230 0.939 . S
C251 C246 1.391 . S
C251 C250 1.388 . S
H252 C270 0.951 . S
H253 C272 0.951 . S
H254 C274 0.950 . S
H255 C275 0.950 . S
H256 C277 0.950 . S
H257 C280 0.950 . S
H258 C281 0.950 . S
H259 C283 0.950 . S
H260 C284 0.950 . S
H261 C285 0.951 . S
H262 C287 0.951 . S
H263 C289 0.950 . S
H264 C290 0.950 . S
H265 C292 0.950 . S
H266 C295 0.950 . S
H267 C296 0.950 . S
H268 C298 0.950 . S
H269 C299 0.950 . S
C270 H252 0.951 . S
C270 C271 1.366 . S
C270 C272 1.388 . S
C271 C270 1.366 . S
C271 C275 1.385 . S
C272 H253 0.951 . S
C272 C270 1.388 . S
C272 C273 1.366 . S
C273 C272 1.366 . S
C273 C274 1.414 . S
C273 C276 1.499 . S
C274 H254 0.950 . S
C274 C273 1.414 . S
C274 C275 1.374 . S
C275 H255 0.950 . S
C275 C271 1.385 . S
C275 C274 1.374 . S
C276 C273 1.499 . S
C276 C277 1.373 . S
C276 C278 1.389 . S
C277 H256 0.950 . S
C277 C276 1.373 . S
C277 C293 1.377 . S
C278 C276 1.389 . S
C278 C279 1.524 . S
C278 C292 1.377 . S
C279 C278 1.524 . S
C279 C280 1.397 . S
C279 C284 1.363 . S
C280 H257 0.950 . S
C280 C279 1.397 . S
C280 C281 1.334 . S
C281 H258 0.950 . S
C281 C280 1.334 . S
C281 C282 1.287 . S
C282 C281 1.287 . S
C282 C283 1.524 . S
C282 H301 0.913 . S
C283 H259 0.950 . S
C283 C282 1.524 . S
C283 C284 1.415 . S
C284 H260 0.950 . S
C284 C279 1.363 . S
C284 C283 1.415 . S
C285 H261 0.951 . S
C285 C286 1.366 . S
C285 C287 1.388 . S
C286 C285 1.366 . S
C286 C290 1.385 . S
C287 H262 0.951 . S
C287 C285 1.388 . S
C287 C288 1.366 . S
C288 C287 1.366 . S
C288 C289 1.414 . S
C288 C291 1.499 . S
C289 H263 0.950 . S
C289 C288 1.414 . S
C289 C290 1.374 . S
C290 H264 0.950 . S
C290 C286 1.385 . S
C290 C289 1.374 . S
C291 C288 1.499 . S
C291 C292 1.373 . S
C291 C293 1.389 . S
C292 H265 0.950 . S
C292 C278 1.377 . S
C292 C291 1.373 . S
C293 C277 1.377 . S
C293 C291 1.389 . S
C293 C294 1.524 . S
C294 C293 1.524 . S
C294 C295 1.397 . S
C294 C299 1.363 . S
C295 H266 0.950 . S
C295 C294 1.397 . S
C295 C296 1.334 . S
C296 H267 0.950 . S
C296 C295 1.334 . S
C296 C297 1.287 . S
C297 C296 1.287 . S
C297 C298 1.524 . S
C297 H300 0.999 . S
C298 H268 0.950 . S
C298 C297 1.524 . S
C298 C299 1.415 . S
C299 H269 0.950 . S
C299 C294 1.363 . S
C299 C298 1.415 . S
H300 C297 0.999 . S
H301 C282 0.913 . S
H302 C320 0.951 . S
H303 C322 0.951 . S
H304 C324 0.950 . S
H305 C325 0.950 . S
H306 C327 0.950 . S
H307 C330 0.950 . S
H308 C331 0.950 . S
H309 C333 0.950 . S
H310 C334 0.950 . S
H311 C335 0.951 . S
H312 C337 0.951 . S
H313 C339 0.950 . S
H314 C340 0.950 . S
H315 C342 0.950 . S
H316 C345 0.950 . S
H317 C346 0.950 . S
H318 C348 0.950 . S
H319 C349 0.950 . S
C320 H302 0.951 . S
C320 C321 1.366 . S
C320 C322 1.388 . S
C321 C320 1.366 . S
C321 C325 1.385 . S
C322 H303 0.951 . S
C322 C320 1.388 . S
C322 C323 1.366 . S
C323 C322 1.366 . S
C323 C324 1.414 . S
C323 C326 1.499 . S
C324 H304 0.950 . S
C324 C323 1.414 . S
C324 C325 1.374 . S
C325 H305 0.950 . S
C325 C321 1.385 . S
C325 C324 1.374 . S
C326 C323 1.499 . S
C326 C327 1.373 . S
C326 C328 1.389 . S
C327 H306 0.950 . S
C327 C326 1.373 . S
C327 C343 1.377 . S
C328 C326 1.389 . S
C328 C329 1.524 . S
C328 C342 1.377 . S
C329 C328 1.524 . S
C329 C330 1.397 . S
C329 C334 1.363 . S
C330 H307 0.950 . S
C330 C329 1.397 . S
C330 C331 1.334 . S
C331 H308 0.950 . S
C331 C330 1.334 . S
C331 C332 1.287 . S
C332 C331 1.287 . S
C332 C333 1.524 . S
C332 H351 0.913 . S
C333 H309 0.950 . S
C333 C332 1.524 . S
C333 C334 1.415 . S
C334 H310 0.950 . S
C334 C329 1.363 . S
C334 C333 1.415 . S
C335 H311 0.951 . S
C335 C336 1.366 . S
C335 C337 1.388 . S
C336 C335 1.366 . S
C336 C340 1.385 . S
C337 H312 0.951 . S
C337 C335 1.388 . S
C337 C338 1.366 . S
C338 C337 1.366 . S
C338 C339 1.414 . S
C338 C341 1.499 . S
C339 H313 0.950 . S
C339 C338 1.414 . S
C339 C340 1.374 . S
C340 H314 0.950 . S
C340 C336 1.385 . S
C340 C339 1.374 . S
C341 C338 1.499 . S
C341 C342 1.373 . S
C341 C343 1.389 . S
C342 H315 0.950 . S
C342 C328 1.377 . S
C342 C341 1.373 . S
C343 C327 1.377 . S
C343 C341 1.389 . S
C343 C344 1.524 . S
C344 C343 1.524 . S
C344 C345 1.397 . S
C344 C349 1.363 . S
C345 H316 0.950 . S
C345 C344 1.397 . S
C345 C346 1.334 . S
C346 H317 0.950 . S
C346 C345 1.334 . S
C346 C347 1.287 . S
C347 C346 1.287 . S
C347 C348 1.524 . S
C347 H350 0.999 . S
C348 H318 0.950 . S
C348 C347 1.524 . S
C348 C349 1.415 . S
C349 H319 0.950 . S
C349 C344 1.363 . S
C349 C348 1.415 . S
H350 C347 0.999 . S
H351 C332 0.913 . S
H352 C370 0.951 . S
H353 C372 0.951 . S
H354 C374 0.950 . S
H355 C375 0.950 . S
H356 C377 0.950 . S
H357 C380 0.950 . S
H358 C381 0.950 . S
H359 C383 0.950 . S
H360 C384 0.950 . S
H361 C385 0.951 . S
H362 C387 0.951 . S
H363 C389 0.950 . S
H364 C390 0.950 . S
H365 C392 0.950 . S
H366 C395 0.950 . S
H367 C396 0.950 . S
H368 C398 0.950 . S
H369 C399 0.950 . S
C370 H352 0.951 . S
C370 C371 1.366 . S
C370 C372 1.388 . S
C371 C370 1.366 . S
C371 C375 1.385 . S
C372 H353 0.951 . S
C372 C370 1.388 . S
C372 C373 1.366 . S
C373 C372 1.366 . S
C373 C374 1.414 . S
C373 C376 1.499 . S
C374 H354 0.950 . S
C374 C373 1.414 . S
C374 C375 1.374 . S
C375 H355 0.950 . S
C375 C371 1.385 . S
C375 C374 1.374 . S
C376 C373 1.499 . S
C376 C377 1.373 . S
C376 C378 1.389 . S
C377 H356 0.950 . S
C377 C376 1.373 . S
C377 C393 1.377 . S
C378 C376 1.389 . S
C378 C379 1.524 . S
C378 C392 1.377 . S
C379 C378 1.524 . S
C379 C380 1.397 . S
C379 C384 1.363 . S
C380 H357 0.950 . S
C380 C379 1.397 . S
C380 C381 1.334 . S
C381 H358 0.950 . S
C381 C380 1.334 . S
C381 C382 1.287 . S
C382 C381 1.287 . S
C382 C383 1.524 . S
C382 H401 0.913 . S
C383 H359 0.950 . S
C383 C382 1.524 . S
C383 C384 1.415 . S
C384 H360 0.950 . S
C384 C379 1.363 . S
C384 C383 1.415 . S
C385 H361 0.951 . S
C385 C386 1.366 . S
C385 C387 1.388 . S
C386 C385 1.366 . S
C386 C390 1.385 . S
C387 H362 0.951 . S
C387 C385 1.388 . S
C387 C388 1.366 . S
C388 C387 1.366 . S
C388 C389 1.414 . S
C388 C391 1.499 . S
C389 H363 0.950 . S
C389 C388 1.414 . S
C389 C390 1.374 . S
C390 H364 0.950 . S
C390 C386 1.385 . S
C390 C389 1.374 . S
C391 C388 1.499 . S
C391 C392 1.373 . S
C391 C393 1.389 . S
C392 H365 0.950 . S
C392 C378 1.377 . S
C392 C391 1.373 . S
C393 C377 1.377 . S
C393 C391 1.389 . S
C393 C394 1.524 . S
C394 C393 1.524 . S
C394 C395 1.397 . S
C394 C399 1.363 . S
C395 H366 0.950 . S
C395 C394 1.397 . S
C395 C396 1.334 . S
C396 H367 0.950 . S
C396 C395 1.334 . S
C396 C397 1.287 . S
C397 C396 1.287 . S
C397 C398 1.524 . S
C397 H400 0.999 . S
C398 H368 0.950 . S
C398 C397 1.524 . S
C398 C399 1.415 . S
C399 H369 0.950 . S
C399 C394 1.363 . S
C399 C398 1.415 . S
H400 C397 0.999 . S
H401 C382 0.913 . S
H402 C420 0.951 . S
H403 C422 0.951 . S
H404 C424 0.950 . S
H405 C425 0.950 . S
H406 C427 0.950 . S
H407 C430 0.950 . S
H408 C431 0.950 . S
H409 C433 0.950 . S
H410 C434 0.950 . S
H411 C435 0.951 . S
H412 C437 0.951 . S
H413 C439 0.950 . S
H414 C440 0.950 . S
H415 C442 0.950 . S
H416 C445 0.950 . S
H417 C446 0.950 . S
H418 C448 0.950 . S
H419 C449 0.950 . S
C420 H402 0.951 . S
C420 C421 1.366 . S
C420 C422 1.388 . S
C421 C420 1.366 . S
C421 C425 1.385 . S
C422 H403 0.951 . S
C422 C420 1.388 . S
C422 C423 1.366 . S
C423 C422 1.366 . S
C423 C424 1.414 . S
C423 C426 1.499 . S
C424 H404 0.950 . S
C424 C423 1.414 . S
C424 C425 1.374 . S
C425 H405 0.950 . S
C425 C421 1.385 . S
C425 C424 1.374 . S
C426 C423 1.499 . S
C426 C427 1.373 . S
C426 C428 1.389 . S
C427 H406 0.950 . S
C427 C426 1.373 . S
C427 C443 1.377 . S
C428 C426 1.389 . S
C428 C429 1.524 . S
C428 C442 1.377 . S
C429 C428 1.524 . S
C429 C430 1.397 . S
C429 C434 1.363 . S
C430 H407 0.950 . S
C430 C429 1.397 . S
C430 C431 1.334 . S
C431 H408 0.950 . S
C431 C430 1.334 . S
C431 C432 1.287 . S
C432 C431 1.287 . S
C432 C433 1.524 . S
C432 H451 0.913 . S
C433 H409 0.950 . S
C433 C432 1.524 . S
C433 C434 1.415 . S
C434 H410 0.950 . S
C434 C429 1.363 . S
C434 C433 1.415 . S
C435 H411 0.951 . S
C435 C436 1.366 . S
C435 C437 1.388 . S
C436 C435 1.366 . S
C436 C440 1.385 . S
C437 H412 0.951 . S
C437 C435 1.388 . S
C437 C438 1.366 . S
C438 C437 1.366 . S
C438 C439 1.414 . S
C438 C441 1.499 . S
C439 H413 0.950 . S
C439 C438 1.414 . S
C439 C440 1.374 . S
C440 H414 0.950 . S
C440 C436 1.385 . S
C440 C439 1.374 . S
C441 C438 1.499 . S
C441 C442 1.373 . S
C441 C443 1.389 . S
C442 H415 0.950 . S
C442 C428 1.377 . S
C442 C441 1.373 . S
C443 C427 1.377 . S
C443 C441 1.389 . S
C443 C444 1.524 . S
C444 C443 1.524 . S
C444 C445 1.397 . S
C444 C449 1.363 . S
C445 H416 0.950 . S
C445 C444 1.397 . S
C445 C446 1.334 . S
C446 H417 0.950 . S
C446 C445 1.334 . S
C446 C447 1.287 . S
C447 C446 1.287 . S
C447 C448 1.524 . S
C447 H450 0.999 . S
C448 H418 0.950 . S
C448 C447 1.524 . S
C448 C449 1.415 . S
C449 H419 0.950 . S
C449 C444 1.363 . S
C449 C448 1.415 . S
H450 C447 0.999 . S
H451 C432 0.913 . S
H452 C470 0.951 . S
H453 C472 0.951 . S
H454 C474 0.950 . S
H455 C475 0.950 . S
H456 C477 0.950 . S
H457 C480 0.950 . S
H458 C481 0.950 . S
H459 C483 0.950 . S
H460 C484 0.950 . S
H461 C485 0.951 . S
H462 C487 0.951 . S
H463 C489 0.950 . S
H464 C490 0.950 . S
H465 C492 0.950 . S
H466 C495 0.950 . S
H467 C496 0.950 . S
H468 C498 0.950 . S
H469 C499 0.950 . S
C470 H452 0.951 . S
C470 C471 1.366 . S
C470 C472 1.388 . S
C471 C470 1.366 . S
C471 C475 1.385 . S
C472 H453 0.951 . S
C472 C470 1.388 . S
C472 C473 1.366 . S
C473 C472 1.366 . S
C473 C474 1.414 . S
C473 C476 1.499 . S
C474 H454 0.950 . S
C474 C473 1.414 . S
C474 C475 1.374 . S
C475 H455 0.950 . S
C475 C471 1.385 . S
C475 C474 1.374 . S
C476 C473 1.499 . S
C476 C477 1.373 . S
C476 C478 1.389 . S
C477 H456 0.950 . S
C477 C476 1.373 . S
C477 C493 1.377 . S
C478 C476 1.389 . S
C478 C479 1.524 . S
C478 C492 1.377 . S
C479 C478 1.524 . S
C479 C480 1.397 . S
C479 C484 1.363 . S
C480 H457 0.950 . S
C480 C479 1.397 . S
C480 C481 1.334 . S
C481 H458 0.950 . S
C481 C480 1.334 . S
C481 C482 1.287 . S
C482 C481 1.287 . S
C482 C483 1.524 . S
C482 H501 0.913 . S
C483 H459 0.950 . S
C483 C482 1.524 . S
C483 C484 1.415 . S
C484 H460 0.950 . S
C484 C479 1.363 . S
C484 C483 1.415 . S
C485 H461 0.951 . S
C485 C486 1.366 . S
C485 C487 1.388 . S
C486 C485 1.366 . S
C486 C490 1.385 . S
C487 H462 0.951 . S
C487 C485 1.388 . S
C487 C488 1.366 . S
C488 C487 1.366 . S
C488 C489 1.414 . S
C488 C491 1.499 . S
C489 H463 0.950 . S
C489 C488 1.414 . S
C489 C490 1.374 . S
C490 H464 0.950 . S
C490 C486 1.385 . S
C490 C489 1.374 . S
C491 C488 1.499 . S
C491 C492 1.373 . S
C491 C493 1.389 . S
C492 H465 0.950 . S
C492 C478 1.377 . S
C492 C491 1.373 . S
C493 C477 1.377 . S
C493 C491 1.389 . S
C493 C494 1.524 . S
C494 C493 1.524 . S
C494 C495 1.397 . S
C494 C499 1.363 . S
C495 H466 0.950 . S
C495 C494 1.397 . S
C495 C496 1.334 . S
C496 H467 0.950 . S
C496 C495 1.334 . S
C496 C497 1.287 . S
C497 C496 1.287 . S
C497 C498 1.524 . S
C497 H500 0.999 . S
C498 H468 0.950 . S
C498 C497 1.524 . S
C498 C499 1.415 . S
C499 H469 0.950 . S
C499 C494 1.363 . S
C499 C498 1.415 . S
H500 C497 0.999 . S
H501 C482 0.913 . S
H502 C520 0.951 . S
H503 C522 0.951 . S
H504 C524 0.950 . S
H505 C525 0.950 . S
H506 C527 0.950 . S
H507 C530 0.950 . S
H508 C531 0.950 . S
H509 C533 0.950 . S
H510 C534 0.950 . S
H511 C535 0.951 . S
H512 C537 0.951 . S
H513 C539 0.950 . S
H514 C540 0.950 . S
H515 C542 0.950 . S
H516 C545 0.950 . S
H517 C546 0.950 . S
H518 C548 0.950 . S
H519 C549 0.950 . S
C520 H502 0.951 . S
C520 C521 1.366 . S
C520 C522 1.388 . S
C521 C520 1.366 . S
C521 C525 1.385 . S
C522 H503 0.951 . S
C522 C520 1.388 . S
C522 C523 1.366 . S
C523 C522 1.366 . S
C523 C524 1.414 . S
C523 C526 1.499 . S
C524 H504 0.950 . S
C524 C523 1.414 . S
C524 C525 1.374 . S
C525 H505 0.950 . S
C525 C521 1.385 . S
C525 C524 1.374 . S
C526 C523 1.499 . S
C526 C527 1.373 . S
C526 C528 1.389 . S
C527 H506 0.950 . S
C527 C526 1.373 . S
C527 C543 1.377 . S
C528 C526 1.389 . S
C528 C529 1.524 . S
C528 C542 1.377 . S
C529 C528 1.524 . S
C529 C530 1.397 . S
C529 C534 1.363 . S
C530 H507 0.950 . S
C530 C529 1.397 . S
C530 C531 1.334 . S
C531 H508 0.950 . S
C531 C530 1.334 . S
C531 C532 1.287 . S
C532 C531 1.287 . S
C532 C533 1.524 . S
C532 H551 0.913 . S
C533 H509 0.950 . S
C533 C532 1.524 . S
C533 C534 1.415 . S
C534 H510 0.950 . S
C534 C529 1.363 . S
C534 C533 1.415 . S
C535 H511 0.951 . S
C535 C536 1.366 . S
C535 C537 1.388 . S
C536 C535 1.366 . S
C536 C540 1.385 . S
C537 H512 0.951 . S
C537 C535 1.388 . S
C537 C538 1.366 . S
C538 C537 1.366 . S
C538 C539 1.414 . S
C538 C541 1.499 . S
C539 H513 0.950 . S
C539 C538 1.414 . S
C539 C540 1.374 . S
C540 H514 0.950 . S
C540 C536 1.385 . S
C540 C539 1.374 . S
C541 C538 1.499 . S
C541 C542 1.373 . S
C541 C543 1.389 . S
C542 H515 0.950 . S
C542 C528 1.377 . S
C542 C541 1.373 . S
C543 C527 1.377 . S
C543 C541 1.389 . S
C543 C544 1.524 . S
C544 C543 1.524 . S
C544 C545 1.397 . S
C544 C549 1.363 . S
C545 H516 0.950 . S
C545 C544 1.397 . S
C545 C546 1.334 . S
C546 H517 0.950 . S
C546 C545 1.334 . S
C546 C547 1.287 . S
C547 C546 1.287 . S
C547 C548 1.524 . S
C547 H550 0.999 . S
C548 H518 0.950 . S
C548 C547 1.524 . S
C548 C549 1.415 . S
C549 H519 0.950 . S
C549 C544 1.363 . S
C549 C548 1.415 . S
H550 C547 0.999 . S
H551 C532 0.913 . S
H552 C570 0.951 . S
H553 C572 0.951 . S
H554 C574 0.950 . S
H555 C575 0.950 . S
H556 C577 0.950 . S
H557 C580 0.950 . S
H558 C581 0.950 . S
H559 C583 0.950 . S
H560 C584 0.950 . S
H561 C585 0.951 . S
H562 C587 0.951 . S
H563 C589 0.950 . S
H564 C590 0.950 . S
H565 C592 0.950 . S
H566 C595 0.950 . S
H567 C596 0.950 . S
H568 C598 0.950 . S
H569 C599 0.950 . S
C570 H552 0.951 . S
C570 C571 1.366 . S
C570 C572 1.388 . S
C571 C570 1.366 . S
C571 C575 1.385 . S
C572 H553 0.951 . S
C572 C570 1.388 . S
C572 C573 1.366 . S
C573 C572 1.366 . S
C573 C574 1.414 . S
C573 C576 1.499 . S
C574 H554 0.950 . S
C574 C573 1.414 . S
C574 C575 1.374 . S
C575 H555 0.950 . S
C575 C571 1.385 . S
C575 C574 1.374 . S
C576 C573 1.499 . S
C576 C577 1.373 . S
C576 C578 1.389 . S
C577 H556 0.950 . S
C577 C576 1.373 . S
C577 C593 1.377 . S
C578 C576 1.389 . S
C578 C579 1.524 . S
C578 C592 1.377 . S
C579 C578 1.524 . S
C579 C580 1.397 . S
C579 C584 1.363 . S
C580 H557 0.950 . S
C580 C579 1.397 . S
C580 C581 1.334 . S
C581 H558 0.950 . S
C581 C580 1.334 . S
C581 C582 1.287 . S
C582 C581 1.287 . S
C582 C583 1.524 . S
C582 H601 0.913 . S
C583 H559 0.950 . S
C583 C582 1.524 . S
C583 C584 1.415 . S
C584 H560 0.950 . S
C584 C579 1.363 . S
C584 C583 1.415 . S
C585 H561 0.951 . S
C585 C586 1.366 . S
C585 C587 1.388 . S
C586 C585 1.366 . S
C586 C590 1.385 . S
C587 H562 0.951 . S
C587 C585 1.388 . S
C587 C588 1.366 . S
C588 C587 1.366 . S
C588 C589 1.414 . S
C588 C591 1.499 . S
C589 H563 0.950 . S
C589 C588 1.414 . S
C589 C590 1.374 . S
C590 H564 0.950 . S
C590 C586 1.385 . S
C590 C589 1.374 . S
C591 C588 1.499 . S
C591 C592 1.373 . S
C591 C593 1.389 . S
C592 H565 0.950 . S
C592 C578 1.377 . S
C592 C591 1.373 . S
C593 C577 1.377 . S
C593 C591 1.389 . S
C593 C594 1.524 . S
C594 C593 1.524 . S
C594 C595 1.397 . S
C594 C599 1.363 . S
C595 H566 0.950 . S
C595 C594 1.397 . S
C595 C596 1.334 . S
C596 H567 0.950 . S
C596 C595 1.334 . S
C596 C597 1.287 . S
C597 C596 1.287 . S
C597 C598 1.524 . S
C597 H600 0.999 . S
C598 H568 0.950 . S
C598 C597 1.524 . S
C598 C599 1.415 . S
C599 H569 0.950 . S
C599 C594 1.363 . S
C599 C598 1.415 . S
H600 C597 0.999 . S
H601 C582 0.913 . S
H602 C620 0.951 . S
H603 C622 0.951 . S
H604 C624 0.950 . S
H605 C625 0.950 . S
H606 C627 0.950 . S
H607 C630 0.950 . S
H608 C631 0.950 . S
H609 C633 0.950 . S
H610 C634 0.950 . S
H611 C635 0.951 . S
H612 C637 0.951 . S
H613 C639 0.950 . S
H614 C640 0.950 . S
H615 C642 0.950 . S
H616 C645 0.950 . S
H617 C646 0.950 . S
H618 C648 0.950 . S
H619 C649 0.950 . S
C620 H602 0.951 . S
C620 C621 1.366 . S
C620 C622 1.388 . S
C621 C620 1.366 . S
C621 C625 1.385 . S
C622 H603 0.951 . S
C622 C620 1.388 . S
C622 C623 1.366 . S
C623 C622 1.366 . S
C623 C624 1.414 . S
C623 C626 1.499 . S
C624 H604 0.950 . S
C624 C623 1.414 . S
C624 C625 1.374 . S
C625 H605 0.950 . S
C625 C621 1.385 . S
C625 C624 1.374 . S
C626 C623 1.499 . S
C626 C627 1.373 . S
C626 C628 1.389 . S
C627 H606 0.950 . S
C627 C626 1.373 . S
C627 C643 1.377 . S
C628 C626 1.389 . S
C628 C629 1.524 . S
C628 C642 1.377 . S
C629 C628 1.524 . S
C629 C630 1.397 . S
C629 C634 1.363 . S
C630 H607 0.950 . S
C630 C629 1.397 . S
C630 C631 1.334 . S
C631 H608 0.950 . S
C631 C630 1.334 . S
C631 C632 1.287 . S
C632 C631 1.287 . S
C632 C633 1.524 . S
C632 H651 0.913 . S
C633 H609 0.950 . S
C633 C632 1.524 . S
C633 C634 1.415 . S
C634 H610 0.950 . S
C634 C629 1.363 . S
C634 C633 1.415 . S
C635 H611 0.951 . S
C635 C636 1.366 . S
C635 C637 1.388 . S
C636 C635 1.366 . S
C636 C640 1.385 . S
C637 H612 0.951 . S
C637 C635 1.388 . S
C637 C638 1.366 . S
C638 C637 1.366 . S
C638 C639 1.414 . S
C638 C641 1.499 . S
C639 H613 0.950 . S
C639 C638 1.414 . S
C639 C640 1.374 . S
C640 H614 0.950 . S
C640 C636 1.385 . S
C640 C639 1.374 . S
C641 C638 1.499 . S
C641 C642 1.373 . S
C641 C643 1.389 . S
C642 H615 0.950 . S
C642 C628 1.377 . S
C642 C641 1.373 . S
C643 C627 1.377 . S
C643 C641 1.389 . S
C643 C644 1.524 . S
C644 C643 1.524 . S
C644 C645 1.397 . S
C644 C649 1.363 . S
C645 H616 0.950 . S
C645 C644 1.397 . S
C645 C646 1.334 . S
C646 H617 0.950 . S
C646 C645 1.334 . S
C646 C647 1.287 . S
C647 C646 1.287 . S
C647 C648 1.524 . S
C647 H650 0.999 . S
C648 H618 0.950 . S
C648 C647 1.524 . S
C648 C649 1.415 . S
C649 H619 0.950 . S
C649 C644 1.363 . S
C649 C648 1.415 . S
H650 C647 0.999 . S
H651 C632 0.913 . S
H652 C670 0.951 . S
H653 C672 0.951 . S
H654 C674 0.950 . S
H655 C675 0.950 . S
H656 C677 0.950 . S
H657 C680 0.950 . S
H658 C681 0.950 . S
H659 C683 0.950 . S
H660 C684 0.950 . S
H661 C685 0.951 . S
H662 C687 0.951 . S
H663 C689 0.950 . S
H664 C690 0.950 . S
H665 C692 0.950 . S
H666 C695 0.950 . S
H667 C696 0.950 . S
H668 C698 0.950 . S
H669 C699 0.950 . S
C670 H652 0.951 . S
C670 C671 1.366 . S
C670 C672 1.388 . S
C671 C670 1.366 . S
C671 C675 1.385 . S
C672 H653 0.951 . S
C672 C670 1.388 . S
C672 C673 1.366 . S
C673 C672 1.366 . S
C673 C674 1.414 . S
C673 C676 1.499 . S
C674 H654 0.950 . S
C674 C673 1.414 . S
C674 C675 1.374 . S
C675 H655 0.950 . S
C675 C671 1.385 . S
C675 C674 1.374 . S
C676 C673 1.499 . S
C676 C677 1.373 . S
C676 C678 1.389 . S
C677 H656 0.950 . S
C677 C676 1.373 . S
C677 C693 1.377 . S
C678 C676 1.389 . S
C678 C679 1.524 . S
C678 C692 1.377 . S
C679 C678 1.524 . S
C679 C680 1.397 . S
C679 C684 1.363 . S
C680 H657 0.950 . S
C680 C679 1.397 . S
C680 C681 1.334 . S
C681 H658 0.950 . S
C681 C680 1.334 . S
C681 C682 1.287 . S
C682 C681 1.287 . S
C682 C683 1.524 . S
C682 H701 0.913 . S
C683 H659 0.950 . S
C683 C682 1.524 . S
C683 C684 1.415 . S
C684 H660 0.950 . S
C684 C679 1.363 . S
C684 C683 1.415 . S
C685 H661 0.951 . S
C685 C686 1.366 . S
C685 C687 1.388 . S
C686 C685 1.366 . S
C686 C690 1.385 . S
C687 H662 0.951 . S
C687 C685 1.388 . S
C687 C688 1.366 . S
C688 C687 1.366 . S
C688 C689 1.414 . S
C688 C691 1.499 . S
C689 H663 0.950 . S
C689 C688 1.414 . S
C689 C690 1.374 . S
C690 H664 0.950 . S
C690 C686 1.385 . S
C690 C689 1.374 . S
C691 C688 1.499 . S
C691 C692 1.373 . S
C691 C693 1.389 . S
C692 H665 0.950 . S
C692 C678 1.377 . S
C692 C691 1.373 . S
C693 C677 1.377 . S
C693 C691 1.389 . S
C693 C694 1.524 . S
C694 C693 1.524 . S
C694 C695 1.397 . S
C694 C699 1.363 . S
C695 H666 0.950 . S
C695 C694 1.397 . S
C695 C696 1.334 . S
C696 H667 0.950 . S
C696 C695 1.334 . S
C696 C697 1.287 . S
C697 C696 1.287 . S
C697 C698 1.524 . S
C697 H700 0.999 . S
C698 H668 0.950 . S
C698 C697 1.524 . S
C698 C699 1.415 . S
C699 H669 0.950 . S
C699 C694 1.363 . S
C699 C698 1.415 . S
H700 C697 0.999 . S
H701 C682 0.913 . S
H702 C720 0.951 . S
H703 C722 0.951 . S
H704 C724 0.950 . S
H705 C725 0.950 . S
H706 C727 0.950 . S
H707 C730 0.950 . S
H708 C731 0.950 . S
H709 C733 0.950 . S
H710 C734 0.950 . S
H711 C735 0.951 . S
H712 C737 0.951 . S
H713 C739 0.950 . S
H714 C740 0.950 . S
H715 C742 0.950 . S
H716 C745 0.950 . S
H717 C746 0.950 . S
H718 C748 0.950 . S
H719 C749 0.950 . S
C720 H702 0.951 . S
C720 C721 1.366 . S
C720 C722 1.388 . S
C721 C720 1.366 . S
C721 C725 1.385 . S
C722 H703 0.951 . S
C722 C720 1.388 . S
C722 C723 1.366 . S
C723 C722 1.366 . S
C723 C724 1.414 . S
C723 C726 1.499 . S
C724 H704 0.950 . S
C724 C723 1.414 . S
C724 C725 1.374 . S
C725 H705 0.950 . S
C725 C721 1.385 . S
C725 C724 1.374 . S
C726 C723 1.499 . S
C726 C727 1.373 . S
C726 C728 1.389 . S
C727 H706 0.950 . S
C727 C726 1.373 . S
C727 C743 1.377 . S
C728 C726 1.389 . S
C728 C729 1.524 . S
C728 C742 1.377 . S
C729 C728 1.524 . S
C729 C730 1.397 . S
C729 C734 1.363 . S
C730 H707 0.950 . S
C730 C729 1.397 . S
C730 C731 1.334 . S
C731 H708 0.950 . S
C731 C730 1.334 . S
C731 C732 1.287 . S
C732 C731 1.287 . S
C732 C733 1.524 . S
C732 H751 0.913 . S
C733 H709 0.950 . S
C733 C732 1.524 . S
C733 C734 1.415 . S
C734 H710 0.950 . S
C734 C729 1.363 . S
C734 C733 1.415 . S
C735 H711 0.951 . S
C735 C736 1.366 . S
C735 C737 1.388 . S
C736 C735 1.366 . S
C736 C740 1.385 . S
C737 H712 0.951 . S
C737 C735 1.388 . S
C737 C738 1.366 . S
C738 C737 1.366 . S
C738 C739 1.414 . S
C738 C741 1.499 . S
C739 H713 0.950 . S
C739 C738 1.414 . S
C739 C740 1.374 . S
C740 H714 0.950 . S
C740 C736 1.385 . S
C740 C739 1.374 . S
C741 C738 1.499 . S
C741 C742 1.373 . S
C741 C743 1.389 . S
C742 H715 0.950 . S
C742 C728 1.377 . S
C742 C741 1.373 . S
C743 C727 1.377 . S
C743 C741 1.389 . S
C743 C744 1.524 . S
C744 C743 1.524 . S
C744 C745 1.397 . S
C744 C749 1.363 . S
C745 H716 0.950 . S
C745 C744 1.397 . S
C745 C746 1.334 . S
C746 H717 0.950 . S
C746 C745 1.334 . S
C746 C747 1.287 . S
C747 C746 1.287 . S
C747 C748 1.524 . S
C747 H750 0.999 . S
C748 H718 0.950 . S
C748 C747 1.524 . S
C748 C749 1.415 . S
C749 H719 0.950 . S
C749 C744 1.363 . S
C749 C748 1.415 . S
H750 C747 0.999 . S
H751 C732 0.913 . S
H752 C770 0.951 . S
H753 C772 0.951 . S
H754 C774 0.950 . S
H755 C775 0.950 . S
H756 C777 0.950 . S
H757 C780 0.950 . S
H758 C781 0.950 . S
H759 C783 0.950 . S
H760 C784 0.950 . S
H761 C785 0.951 . S
H762 C787 0.951 . S
H763 C789 0.950 . S
H764 C790 0.950 . S
H765 C792 0.950 . S
H766 C795 0.950 . S
H767 C796 0.950 . S
H768 C798 0.950 . S
H769 C799 0.950 . S
C770 H752 0.951 . S
C770 C771 1.366 . S
C770 C772 1.388 . S
C771 C770 1.366 . S
C771 C775 1.385 . S
C772 H753 0.951 . S
C772 C770 1.388 . S
C772 C773 1.366 . S
C773 C772 1.366 . S
C773 C774 1.414 . S
C773 C776 1.499 . S
C774 H754 0.950 . S
C774 C773 1.414 . S
C774 C775 1.374 . S
C775 H755 0.950 . S
C775 C771 1.385 . S
C775 C774 1.374 . S
C776 C773 1.499 . S
C776 C777 1.373 . S
C776 C778 1.389 . S
C777 H756 0.950 . S
C777 C776 1.373 . S
C777 C793 1.377 . S
C778 C776 1.389 . S
C778 C779 1.524 . S
C778 C792 1.377 . S
C779 C778 1.524 . S
C779 C780 1.397 . S
C779 C784 1.363 . S
C780 H757 0.950 . S
C780 C779 1.397 . S
C780 C781 1.334 . S
C781 H758 0.950 . S
C781 C780 1.334 . S
C781 C782 1.287 . S
C782 C781 1.287 . S
C782 C783 1.524 . S
C782 H801 0.913 . S
C783 H759 0.950 . S
C783 C782 1.524 . S
C783 C784 1.415 . S
C784 H760 0.950 . S
C784 C779 1.363 . S
C784 C783 1.415 . S
C785 H761 0.951 . S
C785 C786 1.366 . S
C785 C787 1.388 . S
C786 C785 1.366 . S
C786 C790 1.385 . S
C787 H762 0.951 . S
C787 C785 1.388 . S
C787 C788 1.366 . S
C788 C787 1.366 . S
C788 C789 1.414 . S
C788 C791 1.499 . S
C789 H763 0.950 . S
C789 C788 1.414 . S
C789 C790 1.374 . S
C790 H764 0.950 . S
C790 C786 1.385 . S
C790 C789 1.374 . S
C791 C788 1.499 . S
C791 C792 1.373 . S
C791 C793 1.389 . S
C792 H765 0.950 . S
C792 C778 1.377 . S
C792 C791 1.373 . S
C793 C777 1.377 . S
C793 C791 1.389 . S
C793 C794 1.524 . S
C794 C793 1.524 . S
C794 C795 1.397 . S
C794 C799 1.363 . S
C795 H766 0.950 . S
C795 C794 1.397 . S
C795 C796 1.334 . S
C796 H767 0.950 . S
C796 C795 1.334 . S
C796 C797 1.287 . S
C797 C796 1.287 . S
C797 C798 1.524 . S
C797 H800 0.999 . S
C798 H768 0.950 . S
C798 C797 1.524 . S
C798 C799 1.415 . S
C799 H769 0.950 . S
C799 C794 1.363 . S
C799 C798 1.415 . S
H800 C797 0.999 . S
H801 C782 0.913 . S
H802 C820 0.951 . S
H803 C822 0.951 . S
H804 C824 0.950 . S
H805 C825 0.950 . S
H806 C827 0.950 . S
H807 C830 0.950 . S
H808 C831 0.950 . S
H809 C833 0.950 . S
H810 C834 0.950 . S
H811 C835 0.951 . S
H812 C837 0.951 . S
H813 C839 0.950 . S
H814 C840 0.950 . S
H815 C842 0.950 . S
H816 C845 0.950 . S
H817 C846 0.950 . S
H818 C848 0.950 . S
H819 C849 0.950 . S
C820 H802 0.951 . S
C820 C821 1.366 . S
C820 C822 1.388 . S
C821 C820 1.366 . S
C821 C825 1.385 . S
C822 H803 0.951 . S
C822 C820 1.388 . S
C822 C823 1.366 . S
C823 C822 1.366 . S
C823 C824 1.414 . S
C823 C826 1.499 . S
C824 H804 0.950 . S
C824 C823 1.414 . S
C824 C825 1.374 . S
C825 H805 0.950 . S
C825 C821 1.385 . S
C825 C824 1.374 . S
C826 C823 1.499 . S
C826 C827 1.373 . S
C826 C828 1.389 . S
C827 H806 0.950 . S
C827 C826 1.373 . S
C827 C843 1.377 . S
C828 C826 1.389 . S
C828 C829 1.524 . S
C828 C842 1.377 . S
C829 C828 1.524 . S
C829 C830 1.397 . S
C829 C834 1.363 . S
C830 H807 0.950 . S
C830 C829 1.397 . S
C830 C831 1.334 . S
C831 H808 0.950 . S
C831 C830 1.334 . S
C831 C832 1.287 . S
C832 C831 1.287 . S
C832 C833 1.524 . S
C832 H851 0.913 . S
C833 H809 0.950 . S
C833 C832 1.524 . S
C833 C834 1.415 . S
C834 H810 0.950 . S
C834 C829 1.363 . S
C834 C833 1.415 . S
C835 H811 0.951 . S
C835 C836 1.366 . S
C835 C837 1.388 . S
C836 C835 1.366 . S
C836 C840 1.385 . S
C837 H812 0.951 . S
C837 C835 1.388 . S
C837 C838 1.366 . S
C838 C837 1.366 . S
C838 C839 1.414 . S
C838 C841 1.499 . S
C839 H813 0.950 . S
C839 C838 1.414 . S
C839 C840 1.374 . S
C840 H814 0.950 . S
C840 C836 1.385 . S
C840 C839 1.374 . S
C841 C838 1.499 . S
C841 C842 1.373 . S
C841 C843 1.389 . S
C842 H815 0.950 . S
C842 C828 1.377 . S
C842 C841 1.373 . S
C843 C827 1.377 . S
C843 C841 1.389 . S
C843 C844 1.524 . S
C844 C843 1.524 . S
C844 C845 1.397 . S
C844 C849 1.363 . S
C845 H816 0.950 . S
C845 C844 1.397 . S
C845 C846 1.334 . S
C846 H817 0.950 . S
C846 C845 1.334 . S
C846 C847 1.287 . S
C847 C846 1.287 . S
C847 C848 1.524 . S
C847 H850 0.999 . S
C848 H818 0.950 . S
C848 C847 1.524 . S
C848 C849 1.415 . S
C849 H819 0.950 . S
C849 C844 1.363 . S
C849 C848 1.415 . S
H850 C847 0.999 . S
H851 C832 0.913 . S
H852 C870 0.951 . S
H853 C872 0.951 . S
H854 C874 0.950 . S
H855 C875 0.950 . S
H856 C877 0.950 . S
H857 C880 0.950 . S
H858 C881 0.950 . S
H859 C883 0.950 . S
H860 C884 0.950 . S
H861 C885 0.943 1_655 S
H862 C887 0.978 . S
H863 C889 0.950 1_554 S
H864 C890 0.950 . S
H865 C892 0.950 . S
H866 C895 0.950 . S
H867 C896 0.950 . S
H868 C898 0.950 . S
H869 C899 0.950 . S
C870 H852 0.951 . S
C870 C871 1.366 . S
C870 C872 1.388 . S
C871 C870 1.366 . S
C871 C875 1.385 1_455 S
C872 H853 0.951 . S
C872 C870 1.388 . S
C872 C873 1.366 . S
C873 C872 1.366 . S
C873 C874 1.414 1_455 S
C873 C876 1.499 . S
C874 H854 0.950 . S
C874 C873 1.414 1_655 S
C874 C875 1.374 . S
C875 H855 0.950 . S
C875 C871 1.385 1_655 S
C875 C874 1.374 . S
C876 C873 1.499 . S
C876 C877 1.373 1_455 S
C876 C878 1.389 . S
C877 H856 0.950 . S
C877 C876 1.373 1_655 S
C877 C893 1.377 . S
C878 C876 1.389 . S
C878 C879 1.524 . S
C878 C892 1.377 . S
C879 C878 1.524 . S
C879 C880 1.397 . S
C879 C884 1.363 . S
C880 H857 0.950 . S
C880 C879 1.397 . S
C880 C881 1.334 . S
C881 H858 0.950 . S
C881 C880 1.334 . S
C881 C882 1.287 . S
C882 C881 1.287 . S
C882 C883 1.524 . S
C882 H901 0.913 . S
C883 H859 0.950 . S
C883 C882 1.524 . S
C883 C884 1.415 . S
C884 H860 0.950 . S
C884 C879 1.363 . S
C884 C883 1.415 . S
C885 H861 0.943 1_455 S
C885 C886 1.374 . S
C885 C887 1.387 1_455 S
C886 C885 1.374 . S
C886 C890 1.385 . S
C887 H862 0.978 . S
C887 C885 1.387 1_655 S
C887 C888 1.366 1_656 S
C888 C887 1.366 1_454 S
C888 C889 1.414 1_554 S
C888 C891 1.499 . S
C889 H863 0.950 1_556 S
C889 C888 1.414 1_556 S
C889 C890 1.374 . S
C890 H864 0.950 . S
C890 C886 1.385 . S
C890 C889 1.374 . S
C891 C888 1.499 . S
C891 C892 1.373 . S
C891 C893 1.389 1_455 S
C892 H865 0.950 . S
C892 C878 1.377 . S
C892 C891 1.373 . S
C893 C877 1.377 . S
C893 C891 1.389 1_655 S
C893 C894 1.524 . S
C894 C893 1.524 . S
C894 C895 1.397 . S
C894 C899 1.363 . S
C895 H866 0.950 . S
C895 C894 1.397 . S
C895 C896 1.334 1_554 S
C896 H867 0.950 . S
C896 C895 1.334 1_556 S
C896 C897 1.278 1_556 S
C897 C896 1.278 1_554 S
C897 C898 1.561 . S
C897 H900 0.970 1_554 S
C898 H868 0.950 . S
C898 C897 1.561 . S
C898 C899 1.415 . S
C899 H869 0.950 . S
C899 C894 1.363 . S
C899 C898 1.415 . S
H900 C897 0.970 1_556 S
H901 C882 0.913 . S
H902 C920 0.951 . S
H903 C922 0.951 . S
H904 C924 0.950 . S
H905 C925 0.950 . S
H906 C927 0.950 . S
H907 C930 0.950 1_565 S
H908 C931 0.950 1_565 S
H909 C933 0.950 . S
H910 C934 0.950 . S
H911 C935 0.951 1_565 S
H912 C937 0.951 1_565 S
H913 C939 0.950 . S
H914 C940 0.950 . S
H915 C942 0.950 . S
H916 C945 0.950 . S
H917 C946 0.950 . S
H918 C948 0.950 . S
H919 C949 0.950 . S
C920 H902 0.951 . S
C920 C921 1.366 . S
C920 C922 1.388 . S
C921 C920 1.366 . S
C921 C925 1.385 1_545 S
C922 H903 0.951 . S
C922 C920 1.388 . S
C922 C923 1.366 . S
C923 C922 1.366 . S
C923 C924 1.414 1_545 S
C923 C926 1.499 . S
C924 H904 0.950 . S
C924 C923 1.414 1_565 S
C924 C925 1.374 . S
C925 H905 0.950 . S
C925 C921 1.385 1_565 S
C925 C924 1.374 . S
C926 C923 1.499 . S
C926 C927 1.373 . S
C926 C928 1.389 . S
C927 H906 0.950 . S
C927 C926 1.373 . S
C927 C943 1.377 . S
C928 C926 1.389 . S
C928 C929 1.524 . S
C928 C942 1.377 . S
C929 C928 1.524 . S
C929 C930 1.397 . S
C929 C934 1.363 . S
C930 H907 0.950 1_545 S
C930 C929 1.397 . S
C930 C931 1.334 . S
C931 H908 0.950 1_545 S
C931 C930 1.334 . S
C931 C932 1.287 . S
C932 C931 1.287 . S
C932 C933 1.524 . S
C932 H951 0.913 . S
C933 H909 0.950 . S
C933 C932 1.524 . S
C933 C934 1.415 . S
C934 H910 0.950 . S
C934 C929 1.363 . S
C934 C933 1.415 . S
C935 H911 0.951 1_545 S
C935 C936 1.366 . S
C935 C937 1.388 . S
C936 C935 1.366 . S
C936 C940 1.385 . S
C937 H912 0.951 1_545 S
C937 C935 1.388 . S
C937 C938 1.366 . S
C938 C937 1.366 . S
C938 C939 1.414 . S
C938 C941 1.499 . S
C939 H913 0.950 . S
C939 C938 1.414 . S
C939 C940 1.374 . S
C940 H914 0.950 . S
C940 C936 1.385 . S
C940 C939 1.374 . S
C941 C938 1.499 . S
C941 C942 1.373 . S
C941 C943 1.389 . S
C942 H915 0.950 . S
C942 C928 1.377 . S
C942 C941 1.373 . S
C943 C927 1.377 . S
C943 C941 1.389 . S
C943 C944 1.524 . S
C944 C943 1.524 . S
C944 C945 1.397 . S
C944 C949 1.363 1_545 S
C945 H916 0.950 . S
C945 C944 1.397 . S
C945 C946 1.334 . S
C946 H917 0.950 . S
C946 C945 1.334 . S
C946 C947 1.287 . S
C947 C946 1.287 . S
C947 C948 1.524 1_545 S
C947 H950 0.999 . S
C948 H918 0.950 . S
C948 C947 1.524 1_565 S
C948 C949 1.415 . S
C949 H919 0.950 . S
C949 C944 1.363 1_565 S
C949 C948 1.415 . S
H950 C947 0.999 . S
H951 C932 0.913 . S
H952 C970 0.951 . S
H953 C972 0.951 . S
H954 C974 0.950 . S
H955 C975 0.950 . S
H956 C977 0.950 . S
H957 C980 0.950 . S
H958 C981 0.950 . S
H959 C983 0.950 . S
H960 C984 0.950 . S
H961 C985 0.951 . S
H962 C987 0.951 . S
H963 C989 0.950 . S
H964 C990 0.950 . S
H965 C992 0.950 . S
H966 C995 0.950 . S
H967 C996 0.950 . S
H968 C998 0.950 . S
H969 C999 0.950 . S
C970 H952 0.951 . S
C970 C971 1.366 . S
C970 C972 1.388 . S
C971 C970 1.366 . S
C971 C975 1.385 . S
C972 H953 0.951 . S
C972 C970 1.388 . S
C972 C973 1.366 . S
C973 C972 1.366 . S
C973 C974 1.414 . S
C973 C976 1.499 . S
C974 H954 0.950 . S
C974 C973 1.414 . S
C974 C975 1.374 . S
C975 H955 0.950 . S
C975 C971 1.385 . S
C975 C974 1.374 . S
C976 C973 1.499 . S
C976 C977 1.373 . S
C976 C978 1.389 . S
C977 H956 0.950 . S
C977 C976 1.373 . S
C977 C993 1.377 . S
C978 C976 1.389 . S
C978 C979 1.524 . S
C978 C992 1.377 . S
C979 C978 1.524 . S
C979 C980 1.397 . S
C979 C984 1.363 . S
C980 H957 0.950 . S
C980 C979 1.397 . S
C980 C981 1.334 . S
C981 H958 0.950 . S
C981 C980 1.334 . S
C981 C982 1.287 . S
C982 C981 1.287 . S
C982 C983 1.524 . S
C982 H1001 0.913 . S
C983 H959 0.950 . S
C983 C982 1.524 . S
C983 C984 1.415 . S
C984 H960 0.950 . S
C984 C979 1.363 . S
C984 C983 1.415 . S
C985 H961 0.951 . S
C985 C986 1.366 . S
C985 C987 1.388 . S
C986 C985 1.366 . S
C986 C990 1.385 . S
C987 H962 0.951 . S
C987 C985 1.388 . S
C987 C988 1.366 . S
C988 C987 1.366 . S
C988 C989 1.414 . S
C988 C991 1.499 . S
C989 H963 0.950 . S
C989 C988 1.414 . S
C989 C990 1.374 . S
C990 H964 0.950 . S
C990 C986 1.385 . S
C990 C989 1.374 . S
C991 C988 1.499 . S
C991 C992 1.373 . S
C991 C993 1.389 . S
C992 H965 0.950 . S
C992 C978 1.377 . S
C992 C991 1.373 . S
C993 C977 1.377 . S
C993 C991 1.389 . S
C993 C994 1.524 . S
C994 C993 1.524 . S
C994 C995 1.397 . S
C994 C999 1.363 . S
C995 H966 0.950 . S
C995 C994 1.397 . S
C995 C996 1.334 . S
C996 H967 0.950 . S
C996 C995 1.334 . S
C996 C997 1.287 . S
C997 C996 1.287 . S
C997 C998 1.524 . S
C997 H1000 0.999 . S
C998 H968 0.950 . S
C998 C997 1.524 . S
C998 C999 1.415 . S
C999 H969 0.950 . S
C999 C994 1.363 . S
C999 C998 1.415 . S
H1000 C997 0.999 . S
H1001 C982 0.913 . S
H1002 C1020 0.951 . S
H1003 C1022 0.951 . S
H1004 C1024 0.950 . S
H1005 C1025 0.950 . S
H1006 C1027 0.950 . S
H1007 C1030 0.950 . S
H1008 C1031 0.950 . S
H1009 C1033 0.950 . S
H1010 C1034 0.950 . S
H1011 C1035 0.951 . S
H1012 C1037 0.951 . S
H1013 C1039 0.950 . S
H1014 C1040 0.950 . S
H1015 C1042 0.950 1_565 S
H1016 C1045 0.950 1_565 S
H1017 C1046 0.950 1_565 S
H1018 C1048 0.950 . S
H1019 C1049 0.950 . S
C1020 H1002 0.951 . S
C1020 C1021 1.366 1_565 S
C1020 C1022 1.388 . S
C1021 C1020 1.366 1_545 S
C1021 C1025 1.385 . S
C1022 H1003 0.951 . S
C1022 C1020 1.388 . S
C1022 C1023 1.366 1_565 S
C1023 C1022 1.366 1_545 S
C1023 C1024 1.414 . S
C1023 C1026 1.499 . S
C1024 H1004 0.950 . S
C1024 C1023 1.414 . S
C1024 C1025 1.374 . S
C1025 H1005 0.950 . S
C1025 C1021 1.385 . S
C1025 C1024 1.374 . S
C1026 C1023 1.499 . S
C1026 C1027 1.373 . S
C1026 C1028 1.389 . S
C1027 H1006 0.950 . S
C1027 C1026 1.373 . S
C1027 C1043 1.377 . S
C1028 C1026 1.389 . S
C1028 C1029 1.524 1_545 S
C1028 C1042 1.377 . S
C1029 C1028 1.524 1_565 S
C1029 C1030 1.397 1_565 S
C1029 C1034 1.363 . S
C1030 H1007 0.950 . S
C1030 C1029 1.397 1_545 S
C1030 C1031 1.334 . S
C1031 H1008 0.950 . S
C1031 C1030 1.334 . S
C1031 C1032 1.287 1_545 S
C1032 C1031 1.287 1_565 S
C1032 C1033 1.524 . S
C1032 H1051 0.913 . S
C1033 H1009 0.950 . S
C1033 C1032 1.524 . S
C1033 C1034 1.415 . S
C1034 H1010 0.950 . S
C1034 C1029 1.363 . S
C1034 C1033 1.415 . S
C1035 H1011 0.951 . S
C1035 C1036 1.366 . S
C1035 C1037 1.388 . S
C1036 C1035 1.366 . S
C1036 C1040 1.385 1_545 S
C1037 H1012 0.951 . S
C1037 C1035 1.388 . S
C1037 C1038 1.366 . S
C1038 C1037 1.366 . S
C1038 C1039 1.414 1_545 S
C1038 C1041 1.499 . S
C1039 H1013 0.950 . S
C1039 C1038 1.414 1_565 S
C1039 C1040 1.374 . S
C1040 H1014 0.950 . S
C1040 C1036 1.385 1_565 S
C1040 C1039 1.374 . S
C1041 C1038 1.499 . S
C1041 C1042 1.373 . S
C1041 C1043 1.389 . S
C1042 H1015 0.950 1_545 S
C1042 C1028 1.377 . S
C1042 C1041 1.373 . S
C1043 C1027 1.377 . S
C1043 C1041 1.389 . S
C1043 C1044 1.524 . S
C1044 C1043 1.524 . S
C1044 C1045 1.397 . S
C1044 C1049 1.363 . S
C1045 H1016 0.950 1_545 S
C1045 C1044 1.397 . S
C1045 C1046 1.334 . S
C1046 H1017 0.950 1_545 S
C1046 C1045 1.334 . S
C1046 C1047 1.287 . S
C1047 C1046 1.287 . S
C1047 C1048 1.524 . S
C1047 H1050 0.999 . S
C1048 H1018 0.950 . S
C1048 C1047 1.524 . S
C1048 C1049 1.415 . S
C1049 H1019 0.950 . S
C1049 C1044 1.363 . S
C1049 C1048 1.415 . S
H1050 C1047 0.999 . S
H1051 C1032 0.913 . S
H1052 C1070 0.951 . S
H1053 C1072 0.951 . S
H1054 C1074 0.950 . S
H1055 C1075 0.950 . S
H1056 C1077 0.950 . S
H1057 C1080 0.950 . S
H1058 C1081 0.950 . S
H1059 C1083 0.950 . S
H1060 C1084 0.950 . S
H1061 C1085 0.951 . S
H1062 C1087 0.951 1_556 S
H1063 C1089 0.950 . S
H1064 C1090 0.950 . S
H1065 C1092 0.950 . S
H1066 C1095 0.950 . S
H1067 C1096 0.950 . S
H1068 C1098 0.950 . S
H1069 C1099 0.950 . S
C1070 H1052 0.951 . S
C1070 C1071 1.366 . S
C1070 C1072 1.388 . S
C1071 C1070 1.366 . S
C1071 C1075 1.385 . S
C1072 H1053 0.951 . S
C1072 C1070 1.388 . S
C1072 C1073 1.366 . S
C1073 C1072 1.366 . S
C1073 C1074 1.414 . S
C1073 C1076 1.499 . S
C1074 H1054 0.950 . S
C1074 C1073 1.414 . S
C1074 C1075 1.374 . S
C1075 H1055 0.950 . S
C1075 C1071 1.385 . S
C1075 C1074 1.374 . S
C1076 C1073 1.499 . S
C1076 C1077 1.373 . S
C1076 C1078 1.389 . S
C1077 H1056 0.950 . S
C1077 C1076 1.373 . S
C1077 C1093 1.377 . S
C1078 C1076 1.389 . S
C1078 C1079 1.524 . S
C1078 C1092 1.377 . S
C1079 C1078 1.524 . S
C1079 C1080 1.397 . S
C1079 C1084 1.363 . S
C1080 H1057 0.950 . S
C1080 C1079 1.397 . S
C1080 C1081 1.334 . S
C1081 H1058 0.950 . S
C1081 C1080 1.334 . S
C1081 C1082 1.287 . S
C1082 C1081 1.287 . S
C1082 C1083 1.524 . S
C1082 H1101 0.913 . S
C1083 H1059 0.950 . S
C1083 C1082 1.524 . S
C1083 C1084 1.415 . S
C1084 H1060 0.950 . S
C1084 C1079 1.363 . S
C1084 C1083 1.415 . S
C1085 H1061 0.951 . S
C1085 C1086 1.366 . S
C1085 C1087 1.388 . S
C1086 C1085 1.366 . S
C1086 C1090 1.385 . S
C1087 H1062 0.951 1_554 S
C1087 C1085 1.388 . S
C1087 C1088 1.366 1_554 S
C1088 C1087 1.366 1_556 S
C1088 C1089 1.414 1_556 S
C1088 C1091 1.499 . S
C1089 H1063 0.950 . S
C1089 C1088 1.414 1_554 S
C1089 C1090 1.374 . S
C1090 H1064 0.950 . S
C1090 C1086 1.385 . S
C1090 C1089 1.374 . S
C1091 C1088 1.499 . S
C1091 C1092 1.373 . S
C1091 C1093 1.389 . S
C1092 H1065 0.950 . S
C1092 C1078 1.377 . S
C1092 C1091 1.373 . S
C1093 C1077 1.377 . S
C1093 C1091 1.389 . S
C1093 C1094 1.524 . S
C1094 C1093 1.524 . S
C1094 C1095 1.397 . S
C1094 C1099 1.363 . S
C1095 H1066 0.950 . S
C1095 C1094 1.397 . S
C1095 C1096 1.334 . S
C1096 H1067 0.950 . S
C1096 C1095 1.334 . S
C1096 C1097 1.287 . S
C1097 C1096 1.287 . S
C1097 C1098 1.524 . S
C1097 H1100 0.999 . S
C1098 H1068 0.950 . S
C1098 C1097 1.524 . S
C1098 C1099 1.415 . S
C1099 H1069 0.950 . S
C1099 C1094 1.363 . S
C1099 C1098 1.415 . S
H1100 C1097 0.999 . S
H1101 C1082 0.913 . S
H1102 C1120 0.951 . S
H1103 C1122 0.951 . S
H1104 C1124 0.950 . S
H1105 C1125 0.950 . S
H1106 C1127 0.950 . S
H1107 C1130 0.950 . S
H1108 C1131 0.950 . S
H1109 C1133 0.950 . S
H1110 C1134 0.923 1_455 S
H1111 C1135 0.951 . S
H1112 C1137 0.951 . S
H1113 C1139 0.950 . S
H1114 C1140 0.950 . S
H1115 C1142 0.950 . S
H1116 C1145 0.950 . S
H1117 C1146 0.950 . S
H1118 C1148 0.950 . S
H1119 C1149 0.950 . S
C1120 H1102 0.951 . S
C1120 C1121 1.366 1_455 S
C1120 C1122 1.388 . S
C1121 C1120 1.366 1_655 S
C1121 C1125 1.384 . S
C1122 H1103 0.951 . S
C1122 C1120 1.388 . S
C1122 C1123 1.383 . S
C1123 C1122 1.383 . S
C1123 C1124 1.396 1_455 S
C1123 C1126 1.499 . S
C1124 H1104 0.950 . S
C1124 C1123 1.396 1_655 S
C1124 C1125 1.374 . S
C1125 H1105 0.950 . S
C1125 C1121 1.384 . S
C1125 C1124 1.374 . S
C1126 C1123 1.499 . S
C1126 C1127 1.373 . S
C1126 C1128 1.389 1_455 S
C1127 H1106 0.950 . S
C1127 C1126 1.373 . S
C1127 C1143 1.377 . S
C1128 C1126 1.389 1_655 S
C1128 C1129 1.524 . S
C1128 C1142 1.377 . S
C1129 C1128 1.524 . S
C1129 C1130 1.397 . S
C1129 C1134 1.363 . S
C1130 H1107 0.950 . S
C1130 C1129 1.397 . S
C1130 C1131 1.334 . S
C1131 H1108 0.950 . S
C1131 C1130 1.334 . S
C1131 C1132 1.287 . S
C1132 C1131 1.287 . S
C1132 C1133 1.524 . S
C1132 H1151 0.913 . S
C1133 H1109 0.950 . S
C1133 C1132 1.524 . S
C1133 C1134 1.415 . S
C1134 H1110 0.923 1_655 S
C1134 C1129 1.363 . S
C1134 C1133 1.415 . S
C1135 H1111 0.951 . S
C1135 C1136 1.366 1_655 S
C1135 C1137 1.388 . S
C1136 C1135 1.366 1_455 S
C1136 C1140 1.385 . S
C1137 H1112 0.951 . S
C1137 C1135 1.388 . S
C1137 C1138 1.366 1_655 S
C1138 C1137 1.366 1_455 S
C1138 C1139 1.414 . S
C1138 C1141 1.499 . S
C1139 H1113 0.950 . S
C1139 C1138 1.414 . S
C1139 C1140 1.374 . S
C1140 H1114 0.950 . S
C1140 C1136 1.385 . S
C1140 C1139 1.374 . S
C1141 C1138 1.499 . S
C1141 C1142 1.373 1_455 S
C1141 C1143 1.389 . S
C1142 H1115 0.950 . S
C1142 C1128 1.377 . S
C1142 C1141 1.373 1_655 S
C1143 C1127 1.377 . S
C1143 C1141 1.389 . S
C1143 C1144 1.524 . S
C1144 C1143 1.524 . S
C1144 C1145 1.397 . S
C1144 C1149 1.363 . S
C1145 H1116 0.950 . S
C1145 C1144 1.397 . S
C1145 C1146 1.334 . S
C1146 H1117 0.950 . S
C1146 C1145 1.334 . S
C1146 C1147 1.287 . S
C1147 C1146 1.287 . S
C1147 C1148 1.524 . S
C1147 H1150 0.999 . S
C1148 H1118 0.950 . S
C1148 C1147 1.524 . S
C1148 C1149 1.415 . S
C1149 H1119 0.950 . S
C1149 C1144 1.363 . S
C1149 C1148 1.415 . S
H1150 C1147 0.999 . S
H1151 C1132 0.913 . S
C271 C2 1.250 . S
C286 C243 1.300 . S
C321 C22 1.263 . S
C336 C179 1.320 . S
C371 C44 1.310 . S
C386 C211 1.372 . S
C421 C4 1.482 . S
C436 C237 1.558 . S
C486 C173 1.545 . S
C471 C24 1.486 . S
C536 C205 1.485 . S
C521 C42 1.415 . S
C571 C32 1.259 . S
C586 C115 1.271 . S
C621 C49 1.166 . S
C636 C147 1.167 . S
C671 C9 1.160 . S
C686 C77 1.160 . S
C736 C109 1.163 . S
C721 C29 1.133 . S
C786 C141 1.251 . S
C771 C52 1.208 . S
C821 C12 1.193 . S
C836 C83 1.209 . S
C886 C153 1.419 . S
C871 C18 1.433 1_455 S
C921 C38 1.423 . S
C936 C89 1.404 . S
C971 C58 1.422 . S
C986 C121 1.425 . S
C1036 C217 1.468 . S
C1021 C39 1.483 . S
C1086 C249 1.460 . S
C1071 C59 1.466 . S
C1121 C19 1.468 1_655 S
C1136 C185 1.462 . S
