# Generated by pormake.
# Topology zzz, (3,6)-cn, num edge types: 1
# Building blocks:
#     Node 0, Type 0, BuildingBlock: VETTIZ_charged_linker_0, # of connection points: 3
#     Node 1, Type 0, BuildingBlock: VETTIZ_charged_linker_0, # of connection points: 3
#     Node 2, Type 0, BuildingBlock: VETTIZ_charged_linker_0, # of connection points: 3
#     Node 3, Type 0, BuildingBlock: VETTIZ_charged_linker_0, # of connection points: 3
#     Node 4, Type 0, BuildingBlock: VETTIZ_charged_linker_0, # of connection points: 3
#     Node 5, Type 0, BuildingBlock: VETTIZ_charged_linker_0, # of connection points: 3
#     Node 6, Type 0, BuildingBlock: VETTIZ_charged_linker_0, # of connection points: 3
#     Node 7, Type 0, BuildingBlock: VETTIZ_charged_linker_0, # of connection points: 3
#     Node 8, Type 1, BuildingBlock: PAMTOO_clean_sbu_0, # of connection points: 6
#     Node 9, Type 1, BuildingBlock: PAMTOO_clean_sbu_0, # of connection points: 6
#     Node 10, Type 1, BuildingBlock: PAMTOO_clean_sbu_0, # of connection points: 6
#     Node 11, Type 1, BuildingBlock: PAMTOO_clean_sbu_0, # of connection points: 6
#     Edge 12, Type (0, 1), BuildingBlock: KIFKEQ_clean_linker_1, # of connection points: 2
#     Edge 13, Type (0, 1), BuildingBlock: KIFKEQ_clean_linker_1, # of connection points: 2
#     Edge 14, Type (0, 1), BuildingBlock: KIFKEQ_clean_linker_1, # of connection points: 2
#     Edge 15, Type (0, 1), BuildingBlock: KIFKEQ_clean_linker_1, # of connection points: 2
#     Edge 16, Type (0, 1), BuildingBlock: KIFKEQ_clean_linker_1, # of connection points: 2
#     Edge 17, Type (0, 1), BuildingBlock: KIFKEQ_clean_linker_1, # of connection points: 2
#     Edge 18, Type (0, 1), BuildingBlock: KIFKEQ_clean_linker_1, # of connection points: 2
#     Edge 19, Type (0, 1), BuildingBlock: KIFKEQ_clean_linker_1, # of connection points: 2
#     Edge 20, Type (0, 1), BuildingBlock: KIFKEQ_clean_linker_1, # of connection points: 2
#     Edge 21, Type (0, 1), BuildingBlock: KIFKEQ_clean_linker_1, # of connection points: 2
#     Edge 22, Type (0, 1), BuildingBlock: KIFKEQ_clean_linker_1, # of connection points: 2
#     Edge 23, Type (0, 1), BuildingBlock: KIFKEQ_clean_linker_1, # of connection points: 2
#     Edge 24, Type (0, 1), BuildingBlock: KIFKEQ_clean_linker_1, # of connection points: 2
#     Edge 25, Type (0, 1), BuildingBlock: KIFKEQ_clean_linker_1, # of connection points: 2
#     Edge 26, Type (0, 1), BuildingBlock: KIFKEQ_clean_linker_1, # of connection points: 2
#     Edge 27, Type (0, 1), BuildingBlock: KIFKEQ_clean_linker_1, # of connection points: 2
#     Edge 28, Type (0, 1), BuildingBlock: KIFKEQ_clean_linker_1, # of connection points: 2
#     Edge 29, Type (0, 1), BuildingBlock: KIFKEQ_clean_linker_1, # of connection points: 2
#     Edge 30, Type (0, 1), BuildingBlock: KIFKEQ_clean_linker_1, # of connection points: 2
#     Edge 31, Type (0, 1), BuildingBlock: KIFKEQ_clean_linker_1, # of connection points: 2
#     Edge 32, Type (0, 1), BuildingBlock: KIFKEQ_clean_linker_1, # of connection points: 2
#     Edge 33, Type (0, 1), BuildingBlock: KIFKEQ_clean_linker_1, # of connection points: 2
#     Edge 34, Type (0, 1), BuildingBlock: KIFKEQ_clean_linker_1, # of connection points: 2
#     Edge 35, Type (0, 1), BuildingBlock: KIFKEQ_clean_linker_1, # of connection points: 2
# Relax obj value: 0.355
# Max RMSD: 0.280
# Mean RMSD: 0.222
data_MOF--net-zzz--node1-PAMTOO_clean_sbu_0--node2-VETTIZ_charged_linker_0--edge1-KIFKEQ_clean_linker_1
_symmetry_space_group_name_H-M    P1
_symmetry_Int_Tables_number       1
_symmetry_cell_setting            triclinic
loop_
_symmetry_equiv_pos_as_xyz
'x, y, z'
_cell_length_a     64.498637
_cell_length_b     56.068116
_cell_length_c     21.114531
_cell_angle_alpha  90.878237
_cell_angle_beta   81.607322
_cell_angle_gamma 84.636821
loop_
_atom_site_label
_atom_site_type_symbol
_atom_site_fract_x
_atom_site_fract_y
_atom_site_fract_z
_atom_type_partial_charge
C0 C 0.82791 0.54166 0.46045 0.0
C1 C 0.84152 0.55451 0.49245 0.0
C2 C 0.83889 0.57974 0.4942 0.0
C3 C 0.81383 0.57899 0.42064 0.0
C4 C 0.81346 0.55466 0.42622 0.0
C5 C 0.79567 0.54617 0.39383 0.0
H6 H 0.72395 0.57706 0.18915 0.0
C7 C 0.79989 0.58759 0.37603 0.0
C8 C 0.78775 0.5692 0.36244 0.0
H9 H 0.73023 0.50992 0.285 0.0
H10 H 0.75848 0.5241 0.33708 0.0
H11 H 0.72888 0.61341 0.30639 0.0
H12 H 0.76326 0.58104 0.14047 0.0
H13 H 0.78369 0.59657 0.16309 0.0
H14 H 0.75984 0.61265 0.14396 0.0
H15 H 0.72797 0.61962 0.22345 0.0
H16 H 0.74494 0.63454 0.26843 0.0
C17 C 0.77882 0.538 0.4463 0.0
C18 C 0.80477 0.5262 0.34383 0.0
C19 C 0.8292 0.64232 0.20938 0.0
C20 C 0.82207 0.64849 0.15117 0.0
C21 C 0.80014 0.651 0.15003 0.0
C22 C 0.7864 0.64226 0.20008 0.0
C23 C 0.79485 0.63065 0.25025 0.0
C24 C 0.81539 0.63301 0.25805 0.0
C25 C 0.82129 0.62056 0.31645 0.0
C26 C 0.80152 0.60767 0.33665 0.0
C27 C 0.78678 0.61256 0.2949 0.0
C28 C 0.82497 0.63987 0.36566 0.0
C29 C 0.84113 0.60269 0.29735 0.0
C30 C 0.73093 0.56548 0.22256 0.0
C31 C 0.72436 0.54261 0.23404 0.0
C32 C 0.73479 0.52778 0.27564 0.0
C33 C 0.75104 0.53609 0.30624 0.0
C34 C 0.7571 0.55933 0.29455 0.0
C35 C 0.74716 0.57331 0.25234 0.0
C36 C 0.7562 0.59674 0.24047 0.0
C37 C 0.7723 0.59558 0.2863 0.0
C38 C 0.77304 0.57357 0.31815 0.0
C39 C 0.73859 0.61728 0.26035 0.0
C40 C 0.76628 0.59693 0.16867 0.0
H41 H 0.82201 0.61121 0.46416 0.0
H42 H 0.82864 0.52232 0.4619 0.0
H43 H 0.81813 0.53227 0.31059 0.0
H44 H 0.79297 0.52115 0.31442 0.0
H45 H 0.81064 0.5099 0.36756 0.0
H46 H 0.7753 0.55143 0.48668 0.0
H47 H 0.78438 0.52062 0.46567 0.0
H48 H 0.76374 0.53612 0.42895 0.0
H49 H 0.84573 0.64139 0.21375 0.0
H50 H 0.7939 0.65727 0.10771 0.0
H51 H 0.76996 0.64333 0.19614 0.0
H52 H 0.8305 0.65615 0.34178 0.0
H53 H 0.8376 0.63352 0.39353 0.0
H54 H 0.81028 0.64556 0.39892 0.0
H55 H 0.83853 0.5897 0.25963 0.0
H56 H 0.84545 0.59244 0.33859 0.0
H57 H 0.85506 0.61216 0.27918 0.0
H58 H 0.84823 0.58994 0.52139 0.0
C59 C 0.82469 0.59203 0.45941 0.0
C60 C 0.1255 0.75698 0.06942 0.0
C61 C 0.13542 0.77777 0.07949 0.0
C62 C 0.13237 0.78833 0.14171 0.0
C63 C 0.10587 0.76167 0.17666 0.0
C64 C 0.11058 0.74947 0.11832 0.0
C65 C 0.09614 0.7302 0.11263 0.0
H66 H 1.0053 0.68215 0.21492 0.0
C67 C 0.08662 0.75299 0.21167 0.0
C68 C 0.08086 0.73447 0.17486 0.0
H69 H 0.05467 0.65823 0.05978 0.0
H70 H 0.07542 0.689 0.08732 0.0
H71 H 0.02667 0.71803 0.36365 0.0
H72 H 1.00929 0.74151 0.19747 0.0
H73 H 1.00681 0.75346 0.27633 0.0
H74 H 0.99396 0.72722 0.26139 0.0
H75 H 0.03853 0.69169 0.32083 0.0
H76 H 0.01043 0.69846 0.32946 0.0
C77 C 0.1094 0.70552 0.11035 0.0
C78 C 0.08505 0.73511 0.05303 0.0
C79 C 0.05068 0.80027 0.40878 0.0
C80 C 0.03098 0.80069 0.44714 0.0
C81 C 0.01718 0.78378 0.43347 0.0
C82 C 0.02315 0.76671 0.38252 0.0
C83 C 0.043 0.76679 0.34434 0.0
C84 C 0.05625 0.78353 0.35823 0.0
C85 C 0.07609 0.78262 0.31136 0.0
C86 C 0.073 0.76219 0.2672 0.0
C87 C 0.05367 0.75268 0.28632 0.0
C88 C 0.09491 0.77619 0.34803 0.0
C89 C 0.07654 0.80701 0.27713 0.0
C90 C 0.02056 0.68382 0.18711 0.0
C91 C 0.02843 0.66791 0.13487 0.0
C92 C 0.0484 0.67029 0.10009 0.0
C93 C 0.06045 0.68817 0.11617 0.0
C94 C 0.05253 0.70412 0.16757 0.0
C95 C 0.0331 0.70172 0.20317 0.0
C96 C 0.02822 0.71997 0.25831 0.0
C97 C 0.04802 0.73328 0.24972 0.0
C98 C 0.06186 0.72406 0.1953 0.0
C99 C 0.02569 0.70646 0.32171 0.0
C100 C 1.00845 0.73643 0.24845 0.0
H101 H 0.11539 0.78996 0.23534 0.0
H102 H 0.12793 0.748 0.0228 0.0
H103 H 0.09591 0.72992 0.00813 0.0
H104 H 0.07972 0.75451 0.05108 0.0
H105 H 0.07079 0.72571 0.053 0.0
H106 H 0.12464 0.7068 0.12842 0.0
H107 H 0.11314 0.69788 0.0607 0.0
H108 H 0.10135 0.69243 0.14159 0.0
H109 H 0.06143 0.81344 0.41627 0.0
H110 H 1.00183 0.78374 0.4622 0.0
H111 H 0.01206 0.7543 0.37432 0.0
H112 H 0.09099 0.76267 0.38483 0.0
H113 H 0.09909 0.79225 0.373 0.0
H114 H 0.10905 0.76787 0.31669 0.0
H115 H 0.06059 0.81689 0.28109 0.0
H116 H 0.08177 0.80488 0.22492 0.0
H117 H 0.08678 0.81892 0.29794 0.0
H118 H 0.1397 0.8043 0.15168 0.0
C119 C 0.1178 0.78027 0.19031 0.0
C120 C 0.82288 0.00657 0.16535 0.0
C121 C 0.83541 0.02027 0.12101 0.0
C122 C 0.82544 0.04053 0.09505 0.0
C123 C 0.79142 0.03098 0.14599 0.0
C124 C 0.80073 0.01294 0.17903 0.0
C125 C 0.78391 1.00188 0.22513 0.0
H126 H 0.67897 0.98651 0.29634 0.0
C127 C 0.76851 0.03051 0.1579 0.0
C128 C 0.76345 0.01541 0.20941 0.0
H129 H 0.71466 0.00556 0.44441 0.0
H130 H 0.74481 0.0111 0.36166 0.0
H131 H 0.68885 0.0347 0.23936 0.0
H132 H 0.7146 0.96287 0.1798 0.0
H133 H 0.71379 0.9791 0.10948 0.0
H134 H 0.68954 0.97511 0.16143 0.0
H135 H 0.67386 0.01279 0.20916 0.0
H136 H 0.68881 0.03155 0.15671 0.0
C137 C 0.78734 0.00644 0.29461 0.0
C138 C 0.78453 0.97486 0.20999 0.0
C139 C 0.72769 0.0593 0.97957 0.0
C140 C 0.70909 0.05236 0.96069 0.0
C141 C 0.69921 0.03352 0.99207 0.0
C142 C 0.70691 0.02282 0.04433 0.0
C143 C 0.72448 0.03126 0.06601 0.0
C144 C 0.73544 0.04795 0.03131 0.0
C145 C 0.7556 0.05188 0.05628 0.0
C146 C 0.75397 0.03585 0.11443 0.0
C147 C 0.73521 0.02483 0.12105 0.0
C148 C 0.75482 0.07856 0.07687 0.0
C149 C 0.77443 0.04357 1.00335 0.0
C150 C 0.69328 0.99117 0.3124 0.0
C151 C 0.69402 0.99543 0.37787 0.0
C152 C 0.71346 1.00145 0.39491 0.0
C153 C 0.73111 0.00416 0.34739 0.0
C154 C 0.7295 1.00068 0.28217 0.0
C155 C 0.71027 0.99564 0.26607 0.0
C156 C 0.7081 1.00198 0.19821 0.0
C157 C 0.72889 0.01219 0.17707 0.0
C158 C 0.74226 0.00918 0.22371 0.0
C159 C 0.68893 0.02114 0.20026 0.0
C160 C 0.70625 0.97867 0.15998 0.0
H161 H 0.797 0.06183 0.08775 0.0
H162 H 0.83008 0.99144 0.18813 0.0
H163 H 0.78261 0.97163 0.15916 0.0
H164 H 0.77162 0.96698 0.24096 0.0
H165 H 0.79974 0.96536 0.21842 0.0
H166 H 0.78363 0.02573 0.30868 0.0
H167 H 0.80398 1.00108 0.30035 0.0
H168 H 0.77746 0.99559 0.32797 0.0
H169 H 0.73587 0.07329 0.95495 0.0
H170 H 0.68489 0.02782 0.97803 0.0
H171 H 0.69844 0.00901 0.06749 0.0
H172 H 0.73918 0.08488 0.10452 0.0
H173 H 0.75754 0.08993 0.03436 0.0
H174 H 0.76656 0.0817 0.10856 0.0
H175 H 0.76942 0.0406 0.95588 0.0
H176 H 0.78277 0.02631 0.01493 0.0
H177 H 0.78588 0.05717 0.99526 0.0
H178 H 0.83445 0.0518 0.06251 0.0
C179 C 0.80369 0.04603 0.10789 0.0
C180 C 0.53534 0.72031 0.40745 0.0
C181 C 0.54509 0.69719 0.41968 0.0
C182 C 0.56157 0.68655 0.37392 0.0
C183 C 0.55409 0.71701 0.29955 0.0
C184 C 0.54101 0.73046 0.34659 0.0
C185 C 0.53598 0.75566 0.32175 0.0
H186 H 0.53795 0.82053 0.04214 0.0
C187 C 0.55412 0.72874 0.23872 0.0
C188 C 0.54487 0.75244 0.24979 0.0
H189 H 0.52479 0.85247 0.23249 0.0
H190 H 0.52845 0.81219 0.27804 0.0
H191 H 0.57621 0.7848 0.05936 0.0
H192 H 0.51016 0.7811 0.06926 0.0
H193 H 0.52015 0.75118 0.0526 0.0
H194 H 0.52752 0.77391 0.99622 0.0
H195 H 0.56199 0.78581 0.99222 0.0
H196 H 0.57303 0.75781 0.01958 0.0
C197 C 0.54801 0.77312 0.35606 0.0
C198 C 0.51212 0.7628 0.33254 0.0
C199 C 0.55119 0.67277 0.0519 0.0
C200 C 0.54728 0.67677 0.98901 0.0
C201 C 0.5476 0.70007 0.96536 0.0
C202 C 0.55063 0.71927 1.00508 0.0
C203 C 0.55299 0.71517 0.06935 0.0
C204 C 0.55407 0.6921 0.09101 0.0
C205 C 0.55724 0.6909 0.16001 0.0
C206 C 0.55644 0.71761 0.17726 0.0
C207 C 0.55324 0.73149 0.12465 0.0
C208 C 0.57889 0.67677 0.16352 0.0
C209 C 0.53873 0.67902 0.19802 0.0
C210 C 0.5363 0.81921 0.09376 0.0
C211 C 0.53188 0.83984 0.13326 0.0
C212 C 0.5287 0.8369 0.20055 0.0
C213 C 0.53114 0.81368 0.22693 0.0
C214 C 0.53684 0.79335 0.18562 0.0
C215 C 0.53887 0.79669 0.12017 0.0
C216 C 0.54398 0.77393 0.0815 0.0
C217 C 0.547 0.75631 0.13334 0.0
C218 C 0.54248 0.76717 0.19536 0.0
C219 C 0.56481 0.77557 0.03527 0.0
C220 C 0.52463 0.76973 0.04782 0.0
H221 H 0.57955 0.68879 0.28158 0.0
H222 H 0.52379 0.72986 0.44357 0.0
H223 H 0.50384 0.74937 0.30921 0.0
H224 H 0.50838 0.7805 0.31206 0.0
H225 H 0.50589 0.7639 0.38452 0.0
H226 H 0.56505 0.76673 0.35057 0.0
H227 H 0.54182 0.77454 0.40809 0.0
H228 H 0.5468 0.79123 0.33669 0.0
H229 H 0.5511 0.65504 0.07143 0.0
H230 H 0.54515 0.70351 0.91652 0.0
H231 H 0.55052 0.73663 0.98457 0.0
H232 H 0.58494 0.66568 0.11943 0.0
H233 H 0.57786 0.66383 0.20284 0.0
H234 H 0.59104 0.68905 0.16986 0.0
H235 H 0.52343 0.68927 0.19342 0.0
H236 H 0.54 0.67793 0.2495 0.0
H237 H 0.53833 0.66034 0.18032 0.0
H238 H 0.57019 0.66975 0.3832 0.0
C239 C 0.56638 0.6967 0.31445 0.0
C240 C 0.301 0.47278 0.14932 0.0
C241 C 0.31681 0.46067 0.18096 0.0
C242 C 0.31562 0.43617 0.19423 0.0
C243 C 0.28094 0.43871 0.16554 0.0
C244 C 0.28335 0.46067 0.1395 0.0
C245 C 0.2652 0.46752 0.10214 0.0
H246 H 0.16265 0.44802 0.07434 0.0
C247 C 0.25953 0.43299 0.16515 0.0
C248 C 0.25008 0.44851 0.12384 0.0
H249 H 0.20178 0.49152 0.94979 0.0
H250 H 0.23091 0.48146 0.01001 0.0
H251 H 0.19608 0.40272 0.08644 0.0
H252 H 0.17169 0.46614 0.19184 0.0
H253 H 0.18576 0.45176 0.24812 0.0
H254 H 0.16408 0.43827 0.22111 0.0
H255 H 0.17017 0.41015 0.13048 0.0
H256 H 0.19106 0.39584 0.16858 0.0
C257 C 0.27406 0.46452 0.03027 0.0
C258 C 0.25535 0.49314 0.12122 0.0
C259 C 0.22455 0.41109 0.38077 0.0
C260 C 0.20304 0.4144 0.40562 0.0
C261 C 0.18828 0.41132 0.36364 0.0
C262 C 0.1947 0.40976 0.29731 0.0
C263 C 0.21576 0.4124 0.27319 0.0
C264 C 0.23061 0.41123 0.31429 0.0
C265 C 0.25209 0.41562 0.28093 0.0
C266 C 0.24706 0.42138 0.21366 0.0
C267 C 0.2256 0.42056 0.21074 0.0
C268 C 0.26713 0.39255 0.28301 0.0
C269 C 0.25967 0.43738 0.31433 0.0
C270 C 0.17746 0.45539 0.05934 0.0
C271 C 0.17976 0.47054 0.00694 0.0
C272 C 0.19954 0.47953 0.98941 0.0
C273 C 0.21649 0.47355 0.02392 0.0
C274 C 0.2138 0.45812 0.07586 0.0
C275 C 0.19438 0.44953 0.09269 0.0
C276 C 0.19351 0.43445 0.15081 0.0
C277 C 0.21628 0.43303 0.1622 0.0
C278 C 0.22824 0.44734 0.1192 0.0
C279 C 0.18726 0.40944 0.13355 0.0
C280 C 0.17801 0.44816 0.20586 0.0
H281 H 0.29715 0.40627 0.19476 0.0
H282 H 0.30222 0.49102 0.13422 0.0
H283 H 0.25025 0.49482 0.17385 0.0
H284 H 0.2414 0.49795 0.09751 0.0
H285 H 0.26688 0.50638 0.10758 0.0
H286 H 0.28391 0.44713 0.02022 0.0
H287 H 0.28407 0.4791 0.01498 0.0
H288 H 0.26165 0.46438 0.99968 0.0
H289 H 0.23622 0.41192 0.41251 0.0
H290 H 0.17155 0.41288 0.38098 0.0
H291 H 0.18283 0.40854 0.26718 0.0
H292 H 0.26186 0.38139 0.32429 0.0
H293 H 0.28314 0.39671 0.28985 0.0
H294 H 0.26814 0.38126 0.23874 0.0
H295 H 0.24826 0.45351 0.31397 0.0
H296 H 0.27522 0.44195 0.29147 0.0
H297 H 0.26153 0.43362 0.36474 0.0
H298 H 0.32788 0.42601 0.21528 0.0
C299 C 0.2978 0.425 0.18534 0.0
C300 C 0.89894 0.24654 0.4362 0.0
C301 C 0.89021 0.22479 0.4287 0.0
C302 C 0.8933 0.21351 0.36738 0.0
C303 C 0.91835 0.24142 0.32878 0.0
C304 C 0.91328 0.25427 0.38612 0.0
C305 C 0.92706 0.27429 0.39022 0.0
H306 H 0.01938 0.31948 0.29889 0.0
C307 C 0.93739 0.25038 0.29312 0.0
C308 C 0.94256 0.26968 0.32857 0.0
H309 H 0.96743 0.34715 0.44187 0.0
H310 H 0.9462 0.31753 0.40957 0.0
H311 H 0.01346 0.26151 0.31538 0.0
H312 H 0.99899 0.28441 0.14461 0.0
H313 H 0.01556 0.30325 0.1801 0.0
H314 H 0.98771 0.31132 0.18538 0.0
H315 H 0.03006 0.27505 0.25293 0.0
H316 H 0.01709 0.24904 0.23681 0.0
C317 C 0.93799 0.27084 0.45067 0.0
C318 C 0.91317 0.29845 0.38987 0.0
C319 C 0.9754 0.20169 0.10025 0.0
C320 C 0.99549 0.20113 0.06415 0.0
C321 C 1.009 0.2182 0.07875 0.0
C322 C 1.00238 0.23564 0.12837 0.0
C323 C 0.98219 0.2357 0.16452 0.0
C324 C 0.96922 0.21873 0.15001 0.0
C325 C 0.9491 0.21966 0.19587 0.0
C326 C 0.95154 0.24069 0.2391 0.0
C327 C 0.9709 0.25026 0.22088 0.0
C328 C 0.94873 0.19561 0.23176 0.0
C329 C 0.93052 0.22519 0.1578 0.0
C330 C 1.00344 0.31889 0.32305 0.0
C331 C 0.99504 0.33528 0.37377 0.0
C332 C 0.97416 0.33452 0.40328 0.0
C333 C 0.96187 0.31731 0.38456 0.0
C334 C 0.97054 0.30036 0.33619 0.0
C335 C 0.99068 0.30169 0.30434 0.0
C336 C 0.99612 0.28299 0.25042 0.0
C337 C 0.97605 0.27018 0.2566 0.0
C338 C 0.96151 0.28021 0.30847 0.0
C339 C 0.01528 0.26624 0.26401 0.0
C340 C 0.99995 0.29603 0.18648 0.0
H341 H 0.90981 0.21173 0.2729 0.0
H342 H 0.89636 0.25595 0.48226 0.0
H343 H 0.8978 0.29616 0.37366 0.0
H344 H 0.92068 0.31113 0.35593 0.0
H345 H 0.90965 0.30712 0.4384 0.0
H346 H 0.94429 0.2518 0.45384 0.0
H347 H 0.92674 0.27578 0.49494 0.0
H348 H 0.95154 0.28139 0.45109 0.0
H349 H 0.96489 0.18836 0.0918 0.0
H350 H 0.02464 0.21805 0.05178 0.0
H351 H 0.0133 0.24813 0.1374 0.0
H352 H 0.96457 0.18541 0.22679 0.0
H353 H 0.93803 0.1837 0.21319 0.0
H354 H 0.94406 0.19831 0.28412 0.0
H355 H 0.93414 0.23913 0.12196 0.0
H356 H 0.91588 0.23251 0.18854 0.0
H357 H 0.92734 0.20892 0.13156 0.0
H358 H 0.8867 0.19683 0.3596 0.0
C359 C 0.90719 0.22186 0.31726 0.0
C360 C 0.31165 0.98935 0.10178 0.0
C361 C 0.3327 0.97998 0.07758 0.0
C362 C 0.34182 0.96053 0.10826 0.0
C363 C 0.31034 0.96011 0.18623 0.0
C364 C 0.30057 0.97879 0.15624 0.0
C365 C 0.27782 0.9847 0.18928 0.0
H366 H 0.20366 0.96044 0.44772 0.0
C367 C 0.29582 0.95334 0.24239 0.0
C368 C 0.27637 0.96743 0.24547 0.0
H369 H 0.19155 0.00851 0.29686 0.0
H370 H 0.22844 1.00026 0.24612 0.0
H371 H 0.22774 0.91903 0.35869 0.0
H372 H 0.24686 0.97668 0.46563 0.0
H373 H 0.26592 0.95263 0.47034 0.0
H374 H 0.23878 0.94988 0.50291 0.0
H375 H 0.22578 0.91974 0.44436 0.0
H376 H 0.2492 0.90679 0.39388 0.0
C377 C 0.26285 0.97912 0.14168 0.0
C378 C 0.27463 0.01107 0.21292 0.0
C379 C 0.32554 0.89392 0.39241 0.0
C380 C 0.31795 0.88671 0.4542 0.0
C381 C 0.29687 0.89366 0.48039 0.0
C382 C 0.28381 0.90834 0.44634 0.0
C383 C 0.29202 0.91654 0.38587 0.0
C384 C 0.31249 0.909 0.3598 0.0
C385 C 0.31917 0.92066 0.29764 0.0
C386 C 0.29938 0.93674 0.29067 0.0
C387 C 0.28354 0.93409 0.34193 0.0
C388 C 0.32406 0.9006 0.24451 0.0
C389 C 0.33795 0.93529 0.3066 0.0
C390 C 0.20852 0.96903 0.40311 0.0
C391 C 0.19422 0.98465 0.37599 0.0
C392 C 0.20202 0.99613 0.31905 0.0
C393 C 0.22337 0.9912 0.2893 0.0
C394 C 0.23715 0.97461 0.31659 0.0
C395 C 0.22929 0.9641 0.37296 0.0
C396 C 0.24511 0.94682 0.39703 0.0
C397 C 0.2638 0.94773 0.34541 0.0
C398 C 0.25971 0.96428 0.29769 0.0
C399 C 0.23662 0.92176 0.39921 0.0
C400 C 0.24939 0.95676 0.46253 0.0
H401 H 0.33923 0.93603 0.18202 0.0
H402 H 0.30406 0.00412 0.07863 0.0
H403 H 0.28673 0.0148 0.2433 0.0
H404 H 0.25904 0.01549 0.24205 0.0
H405 H 0.27602 0.02325 0.17181 0.0
H406 H 0.26704 0.96067 0.12073 0.0
H407 H 0.26391 0.99189 0.10186 0.0
H408 H 0.24631 0.98004 0.16484 0.0
H409 H 0.34185 0.88946 0.37168 0.0
H410 H 0.29073 0.88838 0.5281 0.0
H411 H 0.26802 0.91331 0.46944 0.0
H412 H 0.31444 0.88534 0.25619 0.0
H413 H 0.34087 0.89334 0.23833 0.0
H414 H 0.31999 0.90666 0.19781 0.0
H415 H 0.33699 0.94172 0.35717 0.0
H416 H 0.33819 0.95187 0.27904 0.0
H417 H 0.35326 0.92428 0.29369 0.0
H418 H 0.35779 0.953 0.09111 0.0
C419 C 0.3309 0.95065 0.16162 0.0
C420 C 0.48959 0.28705 0.03678 0.0
C421 C 0.48061 0.31068 0.02565 0.0
C422 C 0.46545 0.3222 0.07404 0.0
C423 C 0.4726 0.29105 0.14686 0.0
C424 C 0.48447 0.2771 0.09831 0.0
C425 C 0.48884 0.25163 0.12242 0.0
H426 H 0.48476 0.18472 0.39946 0.0
C427 C 0.47262 0.27893 0.20724 0.0
C428 C 0.48082 0.2549 0.19497 0.0
H429 H 0.4981 0.1542 0.20771 0.0
H430 H 0.49552 0.19489 0.16402 0.0
H431 H 0.51471 0.2227 0.37328 0.0
H432 H 0.44811 0.22323 0.38399 0.0
H433 H 0.45276 0.24926 0.42552 0.0
H434 H 0.46243 0.22032 0.45078 0.0
H435 H 0.49769 0.22982 0.44706 0.0
H436 H 0.50589 0.2528 0.39246 0.0
C437 C 0.5125 0.2434 0.1091 0.0
C438 C 0.47568 0.235 0.08959 0.0
C439 C 0.47673 0.33291 0.39706 0.0
C440 C 0.48047 0.32834 0.45982 0.0
C441 C 0.47996 0.30485 0.48209 0.0
C442 C 0.4767 0.28607 0.44125 0.0
C443 C 0.47431 0.29079 0.37726 0.0
C444 C 0.47363 0.31402 0.35688 0.0
C445 C 0.47022 0.31602 0.28827 0.0
C446 C 0.47069 0.28952 0.26928 0.0
C447 C 0.47357 0.27506 0.32108 0.0
C448 C 0.48876 0.32797 0.25069 0.0
C449 C 0.44858 0.3305 0.2866 0.0
C450 C 0.48676 0.18655 0.34793 0.0
C451 C 0.49095 0.16625 0.30736 0.0
C452 C 0.49441 0.16961 0.2403 0.0
C453 C 0.49261 0.19306 0.21503 0.0
C454 C 0.48736 0.21318 0.25728 0.0
C455 C 0.48505 0.20935 0.32258 0.0
C456 C 0.48101 0.23194 0.36221 0.0
C457 C 0.47881 0.25011 0.31119 0.0
C458 C 0.48279 0.23963 0.24867 0.0
C459 C 0.50067 0.23454 0.39585 0.0
C460 C 0.46006 0.23124 0.40852 0.0
H461 H 0.44878 0.32089 0.16807 0.0
H462 H 0.50006 0.27687 0.99914 0.0
H463 H 0.45883 0.24224 0.09665 0.0
H464 H 0.47639 0.21687 0.109 0.0
H465 H 0.48134 0.2334 0.03725 0.0
H466 H 0.52159 0.25631 0.13126 0.0
H467 H 0.51813 0.24219 0.05674 0.0
H468 H 0.51591 0.22557 0.12918 0.0
H469 H 0.47699 0.35077 0.37847 0.0
H470 H 0.48235 0.30097 0.53074 0.0
H471 H 0.47655 0.26856 0.46082 0.0
H472 H 0.50401 0.31746 0.25437 0.0
H473 H 0.48937 0.34646 0.26948 0.0
H474 H 0.48739 0.32958 0.19941 0.0
H475 H 0.44222 0.3402 0.33271 0.0
H476 H 0.43651 0.31861 0.27666 0.0
H477 H 0.44974 0.34466 0.25041 0.0
H478 H 0.45743 0.33956 0.06664 0.0
C479 C 0.46107 0.31216 0.13372 0.0
Dy480 Dy 1.00167 0.01253 0.70194 0.0
Dy481 Dy 0.02862 0.98899 0.81001 0.0
C482 C 0.05218 1.00051 0.66719 0.0
O483 O 1.00061 0.97281 0.6922 0.0
O484 O 0.0288 0.95874 0.74031 0.0
O485 O 0.99633 0.03761 0.62782 0.0
O486 O 0.97422 0.01145 0.65532 0.0
O487 O 0.99446 0.98607 0.84969 0.0
O488 O 0.97961 0.01653 0.79515 0.0
O489 O 0.01936 0.02702 0.84326 0.0
O490 O 0.01282 0.04402 0.74915 0.0
O491 O 0.03385 0.96241 0.88004 0.0
O492 O 0.05427 0.99106 0.8648 0.0
C493 C 0.01441 0.95535 0.70409 0.0
O494 O 0.03399 0.00373 0.64566 0.0
O495 O 0.05324 0.99755 0.7285 0.0
C496 C 0.96051 0.04867 0.62199 0.0
C497 C 0.92676 0.08427 0.6201 0.0
C498 C 0.93931 0.07542 0.5628 0.0
C499 C 0.95595 0.05776 0.56382 0.0
C500 C 0.94811 0.05727 0.6795 0.0
C501 C 0.93133 0.07494 0.67856 0.0
C502 C 0.97816 0.03017 0.62147 0.0
C503 C 0.97832 1.00149 0.84246 0.0
C504 C 0.0165 0.04594 0.80855 0.0
C505 C 0.07003 0.95299 0.88662 0.0
C506 C 0.10508 0.91867 0.88487 0.0
C507 C 0.08814 0.91391 0.85296 0.0
C508 C 0.07087 0.93093 0.85351 0.0
C509 C 0.08724 0.95826 0.91613 0.0
C510 C 0.10466 0.94133 0.91501 0.0
C511 C 0.05133 0.97053 0.89118 0.0
H512 H 0.93668 0.08261 0.51702 0.0
H513 H 0.96543 0.05137 0.51908 0.0
H514 H 0.95145 0.05038 0.72498 0.0
H515 H 0.92199 0.08132 0.72347 0.0
H516 H 0.08767 0.8966 0.83006 0.0
H517 H 0.05794 0.92651 0.82945 0.0
H518 H 0.08705 0.97532 0.94111 0.0
H519 H 0.11755 0.94577 0.93917 0.0
Dy520 Dy 0.50362 0.97967 0.67336 0.0
Dy521 Dy 0.51252 0.02467 0.76263 0.0
C522 C 0.50074 0.03274 0.62359 0.0
O523 O 0.53876 0.97966 0.65107 0.0
O524 O 0.54331 0.01594 0.69672 0.0
O525 O 0.48757 0.96711 0.59872 0.0
O526 O 0.5089 0.94237 0.64226 0.0
O527 O 0.52201 0.99231 0.8177 0.0
O528 O 0.50572 0.96379 0.76924 0.0
O529 O 0.48016 0.01696 0.80729 0.0
O530 O 0.47151 0.99317 0.72711 0.0
O531 O 0.51979 0.04141 0.84869 0.0
O532 O 0.51514 0.06279 0.76705 0.0
C533 C 0.55068 0.99684 0.66036 0.0
O534 O 0.50874 0.01069 0.60861 0.0
O535 O 0.49517 0.03921 0.68416 0.0
C536 C 0.47927 0.92727 0.60881 0.0
C537 C 0.44757 0.89613 0.60636 0.0
C538 C 0.44411 0.91666 0.64719 0.0
C539 C 0.45986 0.93206 0.64853 0.0
C540 C 0.48329 0.90614 0.57108 0.0
C541 C 0.4676 0.89061 0.57002 0.0
C542 C 0.4949 0.9448 0.60349 0.0
C543 C 0.51528 0.97085 0.81612 0.0
C544 C 0.46636 0.00529 0.78225 0.0
C545 C 0.54252 0.07121 0.82195 0.0
C546 C 0.58227 0.08868 0.81419 0.0
C547 C 0.58044 0.06511 0.79371 0.0
C548 C 0.56079 0.05647 0.79788 0.0
C549 C 0.54412 0.09483 0.84208 0.0
C550 C 0.56395 0.10348 0.8388 0.0
C551 C 0.52197 0.06201 0.82203 0.0
H552 H 0.42884 0.92165 0.67527 0.0
H553 H 0.45656 0.94823 0.67848 0.0
H554 H 0.4983 0.90206 0.54071 0.0
H555 H 0.47089 0.87476 0.53888 0.0
H556 H 0.59429 0.05305 0.77626 0.0
H557 H 0.55988 0.03813 0.78269 0.0
H558 H 0.5301 0.1065 0.86034 0.0
H559 H 0.56498 0.12164 0.85544 0.0
Dy560 Dy 0.5397 0.50155 0.75206 0.0
Dy561 Dy 0.49247 0.50338 0.68349 0.0
C562 C 0.50941 0.45771 0.76968 0.0
O563 O 0.54726 0.47236 0.67685 0.0
O564 O 0.52425 0.49382 0.62733 0.0
O565 O 0.55025 0.50124 0.84488 0.0
O566 O 0.5727 0.5059 0.75818 0.0
O567 O 0.50282 0.54026 0.67188 0.0
O568 O 0.53778 0.53466 0.68972 0.0
O569 O 0.4846 0.53168 0.76119 0.0
O570 O 0.50822 0.51078 0.81065 0.0
O571 O 0.45985 0.49848 0.67172 0.0
O572 O 0.4833 0.50561 0.58939 0.0
C573 C 0.53543 0.4734 0.63162 0.0
O574 O 0.52809 0.46552 0.77123 0.0
O575 O 0.49399 0.46996 0.74459 0.0
C576 C 0.5864 0.50557 0.86159 0.0
C577 C 0.61761 0.50954 0.94255 0.0
C578 C 0.59899 0.49902 0.96425 0.0
C579 C 0.58355 0.49719 0.92445 0.0
C580 C 0.60516 0.51566 0.8393 0.0
C581 C 0.62052 0.51774 0.87938 0.0
C582 C 0.56958 0.50431 0.82059 0.0
C583 C 0.52173 0.54775 0.67002 0.0
C584 C 0.49642 0.53078 0.8066 0.0
C585 C 0.44809 0.50127 0.565 0.0
C586 C 0.41926 0.49889 0.47532 0.0
C587 C 0.43817 0.50961 0.45963 0.0
C588 C 0.45237 0.51069 0.50363 0.0
C589 C 0.42905 0.491 0.58159 0.0
C590 C 0.41483 0.48977 0.53729 0.0
C591 C 0.46387 0.50165 0.60991 0.0
H592 H 0.59607 0.49274 0.01269 0.0
H593 H 0.56929 0.48931 0.94315 0.0
H594 H 0.60783 0.5223 0.79118 0.0
H595 H 0.63473 0.52575 0.86081 0.0
H596 H 0.44205 0.51732 0.4132 0.0
H597 H 0.46681 0.51891 0.48934 0.0
H598 H 0.42532 0.48348 0.62836 0.0
H599 H 0.40061 0.48112 0.55121 0.0
Dy600 Dy 0.02374 0.5234 0.68593 0.0
Dy601 Dy 0.99858 0.49183 0.79544 0.0
C602 C 0.01855 0.46752 0.66103 0.0
O603 O 0.98957 0.53294 0.67695 0.0
O604 O 0.97605 0.50041 0.72636 0.0
O605 O 0.04321 0.52589 0.59479 0.0
O606 O 0.03271 0.55798 0.65345 0.0
O607 O 0.99113 0.53077 0.82256 0.0
O608 O 0.02313 0.54128 0.7812 0.0
O609 O 0.03114 0.48998 0.82168 0.0
O610 O 0.04974 0.50364 0.73008 0.0
O611 O 0.99212 0.48337 0.89539 0.0
O612 O 0.97419 0.46885 0.82778 0.0
C613 C 0.97421 0.51904 0.69005 0.0
O614 O 0.01854 0.48915 0.63781 0.0
O615 O 0.01493 0.46415 0.72309 0.0
C616 C 0.06818 0.55253 0.60287 0.0
C617 C 0.11155 0.54082 0.60124 0.0
C618 C 0.10318 0.54331 0.54348 0.0
C619 C 0.0816 0.54913 0.54437 0.0
C620 C 0.07692 0.5533 0.66001 0.0
C621 C 0.09852 0.54771 0.65908 0.0
C622 C 0.04595 0.54828 0.60515 0.0
C623 C 1.00622 0.54471 0.82381 0.0
C624 C 0.04903 0.49425 0.78712 0.0
C625 C 0.95518 0.48914 0.92057 0.0
C626 C 0.92396 0.52777 0.95261 0.0
C627 C 0.92098 0.50963 0.90918 0.0
C628 C 0.93646 0.49047 0.89326 0.0
C629 C 0.95694 0.50594 0.96932 0.0
C630 C 0.94159 0.52519 0.98462 0.0
C631 C 0.97442 0.47502 0.88757 0.0
H632 H 0.11276 0.5381 0.49803 0.0
H633 H 0.07516 0.54831 0.49985 0.0
H634 H 0.06689 0.55579 0.70593 0.0
H635 H 0.10467 0.5464 0.70412 0.0
H636 H 0.90739 0.51109 0.88429 0.0
H637 H 0.9345 0.47781 0.85582 0.0
H638 H 0.971 0.50537 0.99194 0.0
H639 H 0.94397 0.53865 0.01956 0.0
H640 H 0.16621 0.02615 0.3947 0.0
H641 H 0.17037 0.95045 0.43151 0.0
H642 H 0.13125 0.03114 0.46128 0.0
H643 H 0.13635 0.95569 0.49924 0.0
H644 H 0.09136 0.98054 0.68416 0.0
H645 H 0.12415 0.97788 0.60908 0.0
H646 H 0.0922 0.01612 0.47013 0.0
H647 H 0.05902 0.01837 0.5451 0.0
C648 C 0.15969 0.01055 0.41612 0.0
C649 C 0.17157 0.98798 0.40843 0.0
C650 C 0.13966 0.01343 0.45461 0.0
C651 C 0.13112 0.99388 0.48688 0.0
C652 C 0.14256 0.97125 0.47653 0.0
C653 C 0.16222 0.9683 0.43757 0.0
C654 C 0.09122 0.98848 0.63775 0.0
C655 C 0.07236 0.99961 0.62099 0.0
C656 C 0.11008 0.98688 0.59448 0.0
C657 C 0.11091 0.99676 0.53331 0.0
C658 C 0.0922 0.00841 0.51684 0.0
C659 C 0.07314 0.00957 0.55978 0.0
H660 H 0.45913 0.14946 0.38725 0.0
H661 H 0.52342 0.12996 0.3016 0.0
H662 H 0.46104 0.11603 0.45927 0.0
H663 H 0.52551 0.09623 0.37443 0.0
H664 H 0.51588 0.0277 0.49452 0.0
H665 H 0.51309 0.05726 0.41119 0.0
H666 H 0.47828 0.10798 0.55253 0.0
H667 H 0.48099 0.07854 0.63543 0.0
C668 C 0.47357 0.1376 0.38279 0.0
C669 C 0.49108 0.14235 0.33831 0.0
C670 C 0.47477 0.11857 0.42479 0.0
C671 C 0.49356 0.10356 0.42396 0.0
C672 C 0.51074 0.10733 0.37663 0.0
C673 C 0.50954 0.12657 0.33443 0.0
C674 C 0.50751 0.04512 0.50783 0.0
C675 C 0.49856 0.05057 0.57205 0.0
C676 C 0.50604 0.06217 0.45993 0.0
C677 C 0.49535 0.0851 0.47459 0.0
C678 C 0.48635 0.09045 0.53882 0.0
C679 C 0.488 0.07353 0.58671 0.0
H680 H 0.35907 0.44712 0.16544 0.0
H681 H 0.31186 0.50069 0.25943 0.0
H682 H 0.38399 0.45898 0.23321 0.0
H683 H 0.33704 0.51328 0.32657 0.0
H684 H 0.37575 0.50246 0.49453 0.0
H685 H 0.35222 0.49734 0.41596 0.0
H686 H 0.40578 0.48677 0.26622 0.0
H687 H 0.4293 0.49055 0.34505 0.0
C688 C 0.35427 0.46207 0.19915 0.0
C689 C 0.33347 0.47296 0.20692 0.0
C690 C 0.36859 0.46892 0.23828 0.0
C691 C 0.36256 0.48691 0.28649 0.0
C692 C 0.34219 0.49902 0.29101 0.0
C693 C 0.32783 0.49215 0.25162 0.0
C694 C 0.38257 0.49886 0.44496 0.0
C695 C 0.40458 0.49683 0.42672 0.0
C696 C 0.36899 0.4963 0.39949 0.0
C697 C 0.37696 0.49165 0.33424 0.0
C698 C 0.39894 0.49007 0.31589 0.0
C699 C 0.4125 0.49254 0.36131 0.0
H700 H 0.02235 0.32864 0.45971 0.0
H701 H 0.99315 0.38256 0.34936 0.0
H702 H 0.03319 0.36002 0.52648 0.0
H703 H 1.00359 0.41396 0.4159 0.0
H704 H 0.03001 0.46759 0.53122 0.0
H705 H 0.03064 0.4348 0.45395 0.0
H706 H 0.01314 0.3876 0.60836 0.0
H707 H 0.01289 0.42036 0.68602 0.0
C708 C 0.01904 0.34724 0.44821 0.0
C709 C 1.00729 0.35329 0.39885 0.0
C710 C 0.02491 0.36521 0.487 0.0
C711 C 0.01906 0.38955 0.47715 0.0
C712 C 1.0086 0.39547 0.42461 0.0
C713 C 1.00268 0.37752 0.38614 0.0
C714 C 0.02651 0.45016 0.54894 0.0
C715 C 0.02112 0.44673 0.615 0.0
C716 C 0.02684 0.43135 0.50444 0.0
C717 C 0.02177 0.40857 0.52469 0.0
C718 C 0.01736 0.40483 0.59095 0.0
C719 C 0.01707 0.42368 0.63558 0.0
H720 H 0.85624 0.97724 0.07053 0.0
H721 H 0.86682 0.04996 0.11554 0.0
H722 H 0.89172 0.97118 0.00777 0.0
H723 H 0.90183 0.04409 0.05271 0.0
H724 H 0.9458 0.03717 0.85948 0.0
H725 H 0.91317 0.03951 0.93462 0.0
H726 H 0.93197 0.97053 0.00694 0.0
H727 H 0.96504 0.96826 0.93164 0.0
C728 C 0.86633 0.99168 0.06881 0.0
C729 C 0.85853 0.01413 0.09801 0.0
C730 C 0.88665 0.98828 0.03234 0.0
C731 C 0.89957 0.00732 0.02378 0.0
C732 C 0.89224 0.02917 0.0568 0.0
C733 C 0.87217 0.03247 0.09343 0.0
C734 C 0.94312 0.02245 0.89133 0.0
C735 C 0.95827 1.00255 0.88922 0.0
C736 C 0.92436 0.02386 0.9349 0.0
C737 C 0.91985 0.00529 0.97749 0.0
C738 C 0.93482 0.98517 0.97492 0.0
C739 C 0.95386 0.98392 0.93186 0.0
H740 H 0.56069 0.85436 0.03827 0.0
H741 H 0.50128 0.87871 0.15284 0.0
H742 H 0.55648 0.88766 0.9669 0.0
H743 H 0.49746 0.91292 0.08164 0.0
H744 H 0.51996 0.98088 0.94172 0.0
H745 H 0.52388 0.95223 0.02763 0.0
H746 H 0.52168 0.89367 0.895 0.0
H747 H 0.51717 0.92199 0.81012 0.0
C748 C 0.54692 0.86717 0.04919 0.0
C749 C 0.53119 0.86359 0.1011 0.0
C750 C 0.54453 0.88626 0.0081 0.0
C751 C 0.52658 0.90278 0.01819 0.0
C752 C 0.51151 0.90045 0.07275 0.0
C753 C 0.51375 0.88096 0.11375 0.0
C754 C 0.5203 0.96189 0.93094 0.0
C755 C 0.51831 0.9538 0.86871 0.0
C756 C 0.52238 0.94553 0.9803 0.0
C757 C 0.52301 0.9207 0.96811 0.0
C758 C 0.52119 0.91268 0.90593 0.0
C759 C 0.51863 0.92896 0.85723 0.0
H760 H 0.68764 0.56867 0.21849 0.0
H761 H 0.72185 0.4992 0.17273 0.0
H762 H 0.66218 0.55945 0.14955 0.0
H763 H 0.69594 0.48976 0.10382 0.0
H764 H 0.63254 0.47739 0.02668 0.0
H765 H 0.6575 0.48346 0.10128 0.0
H766 H 0.66367 0.55485 0.03202 0.0
H767 H 0.63869 0.54891 0.95829 0.0
C768 C 0.68967 0.55131 0.19399 0.0
C769 C 0.70706 0.53484 0.20052 0.0
C770 C 0.67506 0.54605 0.15421 0.0
C771 C 0.67719 0.52405 0.11999 0.0
C772 C 0.69383 0.50691 0.12937 0.0
C773 C 0.70864 0.51227 0.16911 0.0
C774 C 0.63921 0.4944 0.02748 0.0
C775 C 0.63353 0.51268 0.98638 0.0
C776 C 0.65364 0.49779 0.06994 0.0
C777 C 0.66251 0.5197 0.07311 0.0
C778 C 0.65697 0.53785 0.03155 0.0
C779 C 0.64278 0.53436 0.98869 0.0
H780 H 0.03807 0.62043 0.14549 0.0
H781 H 0.99422 0.67172 0.07197 0.0
H782 H 0.02853 0.58897 0.07693 0.0
H783 H 0.98445 0.64002 1.00333 0.0
H784 H 0.97199 0.56267 0.91084 0.0
H785 H 0.97175 0.59152 1.00039 0.0
H786 H 0.03854 0.59486 0.94677 0.0
H787 H 0.03878 0.56693 0.85742 0.0
C788 C 0.02559 0.62466 0.11704 0.0
C789 C 0.01677 0.6484 0.11419 0.0
C790 C 0.02025 0.60673 0.0775 0.0
C791 C 1.00592 0.61218 0.03454 0.0
C792 C 0.99543 0.63537 0.03642 0.0
C793 C 1.00091 0.65344 0.0759 0.0
C794 C 0.98654 0.56976 0.91812 0.0
C795 C 1.00538 0.56261 0.87684 0.0
C796 C 0.98639 0.58617 0.96925 0.0
C797 C 1.00518 0.59514 0.98068 0.0
C798 C 0.02389 0.58799 0.93938 0.0
C799 C 0.02398 0.5721 0.8879 0.0
H800 H 0.85787 0.19546 0.44713 0.0
H801 H 0.90742 0.22146 0.53866 0.0
H802 H 0.8562 0.16212 0.52015 0.0
H803 H 0.90624 0.18843 0.60929 0.0
H804 H 0.9164 0.12335 0.7026 0.0
H805 H 0.89577 0.16039 0.6834 0.0
H806 H 0.88029 0.12818 0.51092 0.0
H807 H 0.89937 0.09085 0.53312 0.0
C808 C 0.86791 0.19452 0.48407 0.0
C809 C 0.88319 0.21074 0.48568 0.0
C810 C 0.86705 0.17535 0.52577 0.0
C811 C 0.88167 0.17191 0.56909 0.0
C812 C 0.89472 0.19018 0.57674 0.0
C813 C 0.89542 0.20938 0.53568 0.0
C814 C 0.90785 0.12387 0.66208 0.0
C815 C 0.91018 0.10441 0.618 0.0
C816 C 0.89616 0.14525 0.65065 0.0
C817 C 0.88696 0.14774 0.59428 0.0
C818 C 0.88717 0.12725 0.55471 0.0
C819 C 0.89851 0.10582 0.56674 0.0
H820 H 0.34771 0.84871 0.42283 0.0
H821 H 0.32303 0.9008 0.57404 0.0
H822 H 0.37931 0.83995 0.4728 0.0
H823 H 0.35462 0.89271 0.62291 0.0
H824 H 0.41479 0.88349 0.69422 0.0
H825 H 0.38159 0.87029 0.67065 0.0
H826 H 0.40652 0.86611 0.4689 0.0
H827 H 0.43926 0.8791 0.49222 0.0
C828 C 0.34877 0.8577 0.46788 0.0
C829 C 0.33316 0.87574 0.49397 0.0
C830 C 0.36688 0.85279 0.49636 0.0
C831 C 0.36979 0.86611 0.55084 0.0
C832 C 0.35297 0.88203 0.5811 0.0
C833 C 0.33479 0.88674 0.55297 0.0
C834 C 0.41326 0.87922 0.64502 0.0
C835 C 0.42956 0.88274 0.59504 0.0
C836 C 0.39428 0.87161 0.63154 0.0
C837 C 0.39124 0.86742 0.56784 0.0
C838 C 0.40828 0.86882 0.51865 0.0
C839 C 0.42718 0.87639 0.53207 0.0
H840 H 0.51083 0.32661 0.53863 0.0
H841 H 0.46335 0.37463 0.46912 0.0
H842 H 0.52381 0.36059 0.58908 0.0
H843 H 0.47752 0.40839 0.51241 0.0
H844 H 0.49514 0.46606 0.62446 0.0
H845 H 0.48075 0.42995 0.59992 0.0
H846 H 0.54359 0.39316 0.5648 0.0
H847 H 0.55774 0.42983 0.59751 0.0
C848 C 0.50302 0.34437 0.53479 0.0
C849 C 0.48622 0.348 0.49929 0.0
C850 C 0.51073 0.36389 0.56256 0.0
C851 C 0.50194 0.38737 0.55449 0.0
C852 C 0.48458 0.39069 0.52106 0.0
C853 C 0.47659 0.37127 0.49507 0.0
C854 C 0.50596 0.4505 0.61119 0.0
C855 C 0.52756 0.45105 0.61169 0.0
C856 C 0.49768 0.42954 0.5968 0.0
C857 C 0.51097 0.4086 0.57837 0.0
C858 C 0.53278 0.40889 0.57918 0.0
C859 C 0.54097 0.42992 0.59685 0.0
H860 H 0.16754 0.41099 0.49411 0.0
H861 H 0.22255 0.4501 0.45524 0.0
H862 H 0.15045 0.44337 0.56692 0.0
H863 H 0.20575 0.48173 0.52947 0.0
H864 H 0.14893 0.54231 0.52106 0.0
H865 H 0.17673 0.50946 0.49984 0.0
H866 H 0.14711 0.47167 0.65996 0.0
H867 H 0.1191 0.50404 0.67945 0.0
C868 C 0.17633 0.42594 0.50296 0.0
C869 C 0.19616 0.42812 0.46718 0.0
C870 C 0.1666 0.44446 0.5452 0.0
C871 C 0.17662 0.46538 0.5525 0.0
C872 C 0.19754 0.46601 0.52379 0.0
C873 C 0.20724 0.44758 0.48158 0.0
C874 C 0.14879 0.52739 0.55305 0.0
C875 C 0.13168 0.52571 0.60157 0.0
C876 C 0.16479 0.50859 0.54129 0.0
C877 C 0.16389 0.48778 0.57777 0.0
C878 C 0.14808 0.48735 0.63071 0.0
C879 C 0.13214 0.50613 0.64241 0.0
H880 H 0.16871 0.80581 0.07075 0.0
H881 H 0.12185 0.78224 0.96318 0.0
H882 H 0.1722 0.84037 1.00242 0.0
H883 H 0.12576 0.816 0.89495 0.0
H884 H 0.1236 0.8828 0.79842 0.0
H885 H 0.14266 0.84527 0.82375 0.0
H886 H 0.14295 0.87277 0.01577 0.0
H887 H 0.12367 0.90964 0.99144 0.0
C888 C 0.15976 0.80743 0.03119 0.0
C889 C 0.14436 0.79174 0.02433 0.0
C890 C 0.16185 0.82718 0.99188 0.0
C891 C 0.14877 0.83132 0.94465 0.0
C892 C 0.13604 0.81346 0.93104 0.0
C893 C 0.13381 0.7939 0.97057 0.0
C894 C 0.12813 0.88099 0.84564 0.0
C895 C 0.12154 0.89903 0.8934 0.0
C896 C 0.13922 0.85958 0.85989 0.0
C897 C 0.14407 0.8559 0.92198 0.0
C898 C 0.13968 0.87503 0.96723 0.0
C899 C 0.12848 0.89629 0.95322 0.0
H900 H 0.69605 0.03464 0.85446 0.0
H901 H 0.69735 0.10021 0.96266 0.0
H902 H 0.66877 0.05379 0.79917 0.0
H903 H 0.66998 0.11974 0.90679 0.0
H904 H 0.59658 0.11025 0.91346 0.0
H905 H 0.6332 0.1103 0.92841 0.0
H906 H 0.65291 0.08383 0.73358 0.0
H907 H 0.61606 0.08361 0.71896 0.0
C908 C 0.69107 0.0535 0.86429 0.0
C909 C 0.69845 0.06588 0.9133 0.0
C910 C 0.67552 0.0646 0.83236 0.0
C911 C 0.66694 0.08823 0.8494 0.0
C912 C 0.67612 0.10144 0.89325 0.0
C913 C 0.69185 0.09033 0.92489 0.0
C914 C 0.6087 0.10548 0.87295 0.0
C915 C 0.60354 0.09633 0.81566 0.0
C916 C 0.62977 0.10556 0.88137 0.0
C917 C 0.64597 0.09652 0.83255 0.0
C918 C 0.64075 0.09043 0.77243 0.0
C919 C 0.61969 0.09028 0.76411 0.0
H920 H 0.56456 0.63047 0.98118 0.0
H921 H 0.51664 0.67784 0.91151 0.0
H922 H 0.55118 0.59644 0.93545 0.0
H923 H 0.50428 0.64366 0.86003 0.0
H924 H 0.47251 0.57273 0.84787 0.0
H925 H 0.48531 0.60965 0.885 0.0
H926 H 0.54932 0.57666 0.84124 0.0
H927 H 0.53643 0.54022 0.81016 0.0
C928 C 0.55136 0.63364 0.955 0.0
C929 C 0.54151 0.6568 0.95067 0.0
C930 C 0.54382 0.61411 0.92785 0.0
C931 C 0.5266 0.61725 0.89383 0.0
C932 C 0.51734 0.64057 0.88676 0.0
C933 C 0.52468 0.66019 0.91519 0.0
C934 C 0.48926 0.57351 0.84727 0.0
C935 C 0.50347 0.55333 0.82827 0.0
C936 C 0.49664 0.59466 0.86762 0.0
C937 C 0.51838 0.59599 0.86739 0.0
C938 C 0.53245 0.5761 0.84481 0.0
C939 C 0.52504 0.555 0.82695 0.0
H940 H 0.81482 0.62877 0.03749 0.0
H941 H 0.864 0.65731 0.12597 0.0
H942 H 0.84098 0.60399 0.96592 0.0
H943 H 0.89007 0.63069 0.05829 0.0
H944 H 0.93413 0.57388 0.94951 0.0
H945 H 0.9104 0.61056 0.96948 0.0
H946 H 0.85732 0.56804 0.99813 0.0
H947 H 0.88107 0.5317 0.97559 0.0
C948 C 0.83121 0.63055 0.04055 0.0
C949 C 0.83716 0.64407 0.09057 0.0
C950 C 0.84628 0.61581 0.99999 0.0
C951 C 0.8675 0.6141 0.00914 0.0
C952 C 0.87381 0.63093 0.05081 0.0
C953 C 0.85875 0.64616 0.09026 0.0
C954 C 0.91735 0.57251 0.95964 0.0
C955 C 0.9094 0.54997 0.96195 0.0
C956 C 0.90374 0.59352 0.97089 0.0
C957 C 0.88188 0.59243 0.98552 0.0
C958 C 0.87398 0.5698 0.98557 0.0
C959 C 0.88758 0.54884 0.97344 0.0
H960 H 0.97375 0.1868 0.97115 0.0
H961 H 0.03205 0.17105 0.04646 0.0
H962 H 0.98134 0.15057 0.90335 0.0
H963 H 0.03993 0.13482 0.97749 0.0
H964 H 1.0057 0.0899 0.76024 0.0
H965 H 1.0038 0.12928 0.81311 0.0
H966 H 0.02512 0.0961 0.97836 0.0
H967 H 0.02728 0.05689 0.92549 0.0
C968 C 0.98842 0.1758 0.97219 0.0
C969 C 1.00223 0.1817 0.01448 0.0
C970 C 0.99284 0.15507 0.93301 0.0
C971 C 0.01116 0.1396 0.93528 0.0
C972 C 0.02554 0.14617 0.97516 0.0
C973 C 0.02116 0.16706 0.01414 0.0
C974 C 1.01019 0.09101 0.80759 0.0
C975 C 0.01652 0.07013 0.83866 0.0
C976 C 1.00902 0.11361 0.83802 0.0
C977 C 0.01429 0.11592 0.9001 0.0
C978 C 0.02121 0.09509 0.93028 0.0
C979 C 0.02226 0.07252 0.90007 0.0
H980 H 0.34997 0.02313 0.06646 0.0
H981 H 0.34824 0.9564 0.96482 0.0
H982 H 0.38044 0.03213 0.98987 0.0
H983 H 0.37891 0.96463 0.88992 0.0
H984 H 0.43178 0.98635 0.74493 0.0
H985 H 0.39698 0.98431 0.80677 0.0
H986 H 0.4166 0.02085 0.9663 0.0
H987 H 0.451 0.02364 0.90358 0.0
C988 C 0.35562 0.01079 0.02637 0.0
C989 C 0.34633 0.98926 0.02125 0.0
C990 C 0.37347 0.01564 0.98301 0.0
C991 C 0.38271 0.999 0.93343 0.0
C992 C 0.37246 0.97818 0.92634 0.0
C993 C 0.35466 0.97343 0.96939 0.0
C994 C 0.42863 0.99418 0.79297 0.0
C995 C 0.44446 0.00514 0.8188 0.0
C996 C 0.40857 0.99287 0.82897 0.0
C997 C 0.40359 1.0023 0.89244 0.0
C998 C 0.41936 0.01368 0.91761 0.0
C999 C 0.43934 0.01514 0.88147 0.0
H1000 H 0.45475 0.33379 0.94965 0.0
H1001 H 0.52009 0.32168 0.97302 0.0
H1002 H 0.46233 0.36747 0.88223 0.0
H1003 H 0.52819 0.35468 0.90192 0.0
H1004 H 0.53094 0.43405 0.85622 0.0
H1005 H 0.52546 0.39582 0.90475 0.0
H1006 H 0.4753 0.38735 0.79343 0.0
H1007 H 0.48025 0.42648 0.74721 0.0
C1008 C 0.47098 0.33776 0.9382 0.0
C1009 C 0.48677 0.32495 0.96728 0.0
C1010 C 0.47539 0.35727 0.89919 0.0
C1011 C 0.49588 0.36462 0.88697 0.0
C1012 C 0.51205 0.35034 0.91139 0.0
C1013 C 0.50754 0.3309 0.95116 0.0
C1014 C 0.51872 0.42407 0.84186 0.0
C1015 C 0.50593 0.43369 0.79797 0.0
C1016 C 0.51569 0.40178 0.86945 0.0
C1017 C 0.49992 0.38791 0.85358 0.0
C1018 C 0.48738 0.39736 0.80841 0.0
C1019 C 0.49023 0.41993 0.78148 0.0
H1020 H 0.17904 0.47307 0.87653 0.0
H1021 H 0.13845 0.48171 0.05854 0.0
H1022 H 0.1481 0.4785 0.82121 0.0
H1023 H 0.10777 0.48704 1.00382 0.0
H1024 H 0.05582 0.46842 0.89315 0.0
H1025 H 0.08765 0.46366 0.94332 0.0
H1026 H 0.11904 0.50655 0.79789 0.0
H1027 H 0.08711 0.51091 0.74727 0.0
C1028 C 0.16358 0.47645 0.90477 0.0
C1029 C 0.16133 0.4766 0.97213 0.0
C1030 C 0.14579 0.4795 0.87306 0.0
C1031 C 0.12527 0.48278 0.9079 0.0
C1032 C 0.12318 0.48387 0.97517 0.0
C1033 C 0.14087 0.48089 1.00667 0.0
C1034 C 0.06954 0.47668 0.87144 0.0
C1035 C 0.06893 0.48989 0.81552 0.0
C1036 C 0.08783 0.4741 0.90056 0.0
C1037 C 0.10606 0.48478 0.87494 0.0
C1038 C 0.10551 0.49773 0.81854 0.0
C1039 C 0.0872 0.50024 0.78939 0.0
H1040 H 0.99359 0.82925 0.47719 0.0
H1041 H 0.05535 0.81559 0.53231 0.0
H1042 H 0.98683 0.86495 0.54799 0.0
H1043 H 0.04929 0.85168 0.59943 0.0
H1044 H 0.0322 0.91248 0.74058 0.0
H1045 H 0.03274 0.87306 0.69017 0.0
H1046 H 0.99687 0.90421 0.54902 0.0
H1047 H 0.99547 0.94339 0.60164 0.0
C1048 C 1.00558 0.83363 0.50522 0.0
C1049 C 0.0251 0.81972 0.49847 0.0
C1050 C 1.00186 0.85434 0.5451 0.0
C1051 C 0.01761 0.86162 0.579 0.0
C1052 C 0.03663 0.84678 0.57489 0.0
C1053 C 0.04023 0.8261 0.53566 0.0
C1054 C 0.02429 0.91088 0.69905 0.0
C1055 C 0.01394 0.93116 0.67488 0.0
C1056 C 0.02467 0.88822 0.66982 0.0
C1057 C 0.01503 0.88526 0.61481 0.0
C1058 C 1.00421 0.90554 0.59171 0.0
C1059 C 1.00356 0.92814 0.62161 0.0
H1060 H 0.68808 0.98449 0.50796 0.0
H1061 H 0.65331 0.00918 0.35735 0.0
H1062 H 0.65458 0.98455 0.58105 0.0
H1063 H 0.62051 0.00751 0.42843 0.0
H1064 H 0.56728 0.9704 0.55128 0.0
H1065 H 0.60234 0.97007 0.48863 0.0
H1066 H 0.61989 0.01907 0.62622 0.0
H1067 H 0.58447 0.02003 0.68839 0.0
C1068 C 0.67351 0.98983 0.49 0.0
C1069 C 0.67381 0.99608 0.42531 0.0
C1070 C 0.65427 0.98978 0.53201 0.0
C1071 C 0.6348 0.99561 0.51025 0.0
C1072 C 0.63513 1.0024 0.44648 0.0
C1073 C 0.65418 0.00302 0.40527 0.0
C1074 C 0.57859 0.98097 0.5688 0.0
C1075 C 0.57283 0.99528 0.62518 0.0
C1076 C 0.59873 0.9808 0.53266 0.0
C1077 C 0.61401 0.99447 0.55239 0.0
C1078 C 0.60859 0.00817 0.60987 0.0
C1079 C 0.58821 0.0088 0.64535 0.0
H1080 H 0.50831 0.67657 0.44675 0.0
H1081 H 0.56758 0.68189 0.51415 0.0
H1082 H 0.50233 0.64193 0.51313 0.0
H1083 H 0.56144 0.64785 0.58293 0.0
H1084 H 0.5587 0.56752 0.6255 0.0
H1085 H 0.5627 0.60624 0.57597 0.0
H1086 H 0.49515 0.62289 0.60931 0.0
H1087 H 0.49125 0.58397 0.65619 0.0
C1088 C 0.51959 0.67106 0.47829 0.0
C1089 C 0.53822 0.68237 0.47593 0.0
C1090 C 0.5163 0.65092 0.51625 0.0
C1091 C 0.53153 0.64146 0.55339 0.0
C1092 C 0.54951 0.65394 0.5542 0.0
C1093 C 0.55286 0.67391 0.51576 0.0
C1094 C 0.54471 0.5795 0.62256 0.0
C1095 C 0.52465 0.57227 0.6443 0.0
C1096 C 0.54697 0.60194 0.59436 0.0
C1097 C 0.52925 0.61807 0.58767 0.0
C1098 C 0.50924 0.61105 0.6117 0.0
C1099 C 0.507 0.58858 0.63914 0.0
H1100 H 0.87943 0.53483 0.43184 0.0
H1101 H 0.84417 0.55049 0.6196 0.0
H1102 H 0.91163 0.52563 0.47956 0.0
H1103 H 0.8762 0.54107 0.66774 0.0
H1104 H 0.93605 0.50295 0.73233 0.0
H1105 H 0.90373 0.50822 0.68473 0.0
H1106 H 0.93457 0.55033 0.53642 0.0
H1107 H 0.96707 0.54513 0.58435 0.0
C1108 C 0.87846 0.53544 0.48351 0.0
C1109 C 0.85922 0.54279 0.52215 0.0
C1110 C 0.89695 0.5306 0.51081 0.0
C1111 C 0.89659 0.5328 0.57752 0.0
C1112 C 0.87707 0.53901 0.61631 0.0
C1113 C 0.85867 0.54421 0.58888 0.0
C1114 C 0.93599 0.5134 0.68961 0.0
C1115 C 0.95425 0.52362 0.66221 0.0
C1116 C 0.91738 0.51647 0.66241 0.0
C1117 C 0.91652 0.52955 0.60643 0.0
C1118 C 0.93474 0.53986 0.57907 0.0
C1119 C 0.95332 0.5371 0.60689 0.0
loop_
_geom_bond_atom_site_label_1
_geom_bond_atom_site_label_2
_geom_bond_distance
_geom_bond_site_symmetry_2
_ccdc_geom_bond_type
C0 C1 1.391 . S
C0 C4 1.391 . S
C0 H42 0.948 . S
C1 C0 1.391 . S
C1 C2 1.391 . S
C2 C1 1.391 . S
C2 H58 0.947 . S
C2 C59 1.392 . S
C3 C4 1.391 . S
C3 C7 1.397 . S
C3 C59 1.419 . S
C4 C0 1.391 . S
C4 C3 1.391 . S
C4 C5 1.399 . S
C5 C4 1.399 . S
C5 C8 1.396 . S
C5 C17 1.453 . S
C5 C18 1.684 . S
H6 C30 0.948 . S
C7 C3 1.397 . S
C7 C8 1.394 . S
C7 C26 1.723 . S
C8 C5 1.396 . S
C8 C7 1.394 . S
C8 C38 1.723 . S
H9 C32 0.947 . S
H10 C33 0.948 . S
H11 C39 0.982 . S
H12 C40 0.979 . S
H13 C40 0.980 . S
H14 C40 0.983 . S
H15 C39 0.979 . S
H16 C39 0.977 . S
C17 C5 1.453 . S
C17 H46 0.982 . S
C17 H47 0.979 . S
C17 H48 0.977 . S
C18 C5 1.684 . S
C18 H43 0.979 . S
C18 H44 0.980 . S
C18 H45 0.983 . S
C19 C20 1.391 . S
C19 C24 1.391 . S
C19 H49 0.948 . S
C20 C19 1.391 . S
C20 C21 1.391 . S
C21 C20 1.391 . S
C21 C22 1.392 . S
C21 H50 0.947 . S
C22 C21 1.392 . S
C22 C23 1.419 . S
C22 H51 0.948 . S
C23 C22 1.419 . S
C23 C24 1.391 . S
C23 C27 1.397 . S
C24 C19 1.391 . S
C24 C23 1.391 . S
C24 C25 1.399 . S
C25 C24 1.399 . S
C25 C26 1.396 . S
C25 C28 1.453 . S
C25 C29 1.684 . S
C26 C7 1.723 . S
C26 C25 1.396 . S
C26 C27 1.394 . S
C27 C23 1.397 . S
C27 C26 1.394 . S
C27 C37 1.723 . S
C28 C25 1.453 . S
C28 H52 0.982 . S
C28 H53 0.979 . S
C28 H54 0.977 . S
C29 C25 1.684 . S
C29 H55 0.979 . S
C29 H56 0.980 . S
C29 H57 0.983 . S
C30 H6 0.948 . S
C30 C31 1.391 . S
C30 C35 1.391 . S
C31 C30 1.391 . S
C31 C32 1.391 . S
C32 H9 0.947 . S
C32 C31 1.391 . S
C32 C33 1.392 . S
C33 H10 0.948 . S
C33 C32 1.392 . S
C33 C34 1.419 . S
C34 C33 1.419 . S
C34 C35 1.391 . S
C34 C38 1.397 . S
C35 C30 1.391 . S
C35 C34 1.391 . S
C35 C36 1.399 . S
C36 C35 1.399 . S
C36 C37 1.396 . S
C36 C39 1.453 . S
C36 C40 1.684 . S
C37 C27 1.723 . S
C37 C36 1.396 . S
C37 C38 1.394 . S
C38 C8 1.723 . S
C38 C34 1.397 . S
C38 C37 1.394 . S
C39 H11 0.982 . S
C39 H15 0.979 . S
C39 H16 0.977 . S
C39 C36 1.453 . S
C40 H12 0.979 . S
C40 H13 0.980 . S
C40 H14 0.983 . S
C40 C36 1.684 . S
H41 C59 0.948 . S
H42 C0 0.948 . S
H43 C18 0.979 . S
H44 C18 0.980 . S
H45 C18 0.983 . S
H46 C17 0.982 . S
H47 C17 0.979 . S
H48 C17 0.977 . S
H49 C19 0.948 . S
H50 C21 0.947 . S
H51 C22 0.948 . S
H52 C28 0.982 . S
H53 C28 0.979 . S
H54 C28 0.977 . S
H55 C29 0.979 . S
H56 C29 0.980 . S
H57 C29 0.983 . S
H58 C2 0.947 . S
C59 C2 1.392 . S
C59 C3 1.419 . S
C59 H41 0.948 . S
C60 C61 1.391 . S
C60 C64 1.391 . S
C60 H102 0.948 . S
C61 C60 1.391 . S
C61 C62 1.391 . S
C62 C61 1.391 . S
C62 H118 0.947 . S
C62 C119 1.392 . S
C63 C64 1.391 . S
C63 C67 1.397 . S
C63 C119 1.419 . S
C64 C60 1.391 . S
C64 C63 1.391 . S
C64 C65 1.399 . S
C65 C64 1.399 . S
C65 C68 1.396 . S
C65 C77 1.453 1_655 S
C65 C78 1.684 . S
H66 C90 0.948 . S
C67 C63 1.397 . S
C67 C68 1.394 . S
C67 C86 1.723 . S
C68 C65 1.396 . S
C68 C67 1.394 . S
C68 C98 1.723 . S
H69 C92 0.947 . S
H70 C93 0.948 . S
H71 C99 0.982 . S
H72 C100 0.979 . S
H73 C100 0.980 . S
H74 C100 0.983 . S
H75 C99 0.979 . S
H76 C99 0.977 . S
C77 C65 1.453 1_455 S
C77 H106 0.982 . S
C77 H107 0.979 . S
C77 H108 0.977 . S
C78 C65 1.684 . S
C78 H103 0.979 . S
C78 H104 0.980 . S
C78 H105 0.983 . S
C79 C80 1.391 . S
C79 C84 1.391 . S
C79 H109 0.948 . S
C80 C79 1.391 . S
C80 C81 1.391 . S
C81 C80 1.391 . S
C81 C82 1.392 . S
C81 H110 0.947 . S
C82 C81 1.392 . S
C82 C83 1.419 . S
C82 H111 0.948 . S
C83 C82 1.419 . S
C83 C84 1.391 . S
C83 C87 1.397 . S
C84 C79 1.391 . S
C84 C83 1.391 . S
C84 C85 1.399 . S
C85 C84 1.399 . S
C85 C86 1.396 . S
C85 C88 1.453 1_655 S
C85 C89 1.684 . S
C86 C67 1.723 . S
C86 C85 1.396 . S
C86 C87 1.394 . S
C87 C83 1.397 . S
C87 C86 1.394 . S
C87 C97 1.723 . S
C88 C85 1.453 1_455 S
C88 H112 0.982 . S
C88 H113 0.979 . S
C88 H114 0.977 . S
C89 C85 1.684 . S
C89 H115 0.979 . S
C89 H116 0.980 . S
C89 H117 0.983 . S
C90 H66 0.948 . S
C90 C91 1.391 . S
C90 C95 1.391 . S
C91 C90 1.391 . S
C91 C92 1.391 . S
C92 H69 0.947 . S
C92 C91 1.391 . S
C92 C93 1.392 . S
C93 H70 0.948 . S
C93 C92 1.392 . S
C93 C94 1.419 . S
C94 C93 1.419 . S
C94 C95 1.391 . S
C94 C98 1.397 . S
C95 C90 1.391 . S
C95 C94 1.391 . S
C95 C96 1.399 . S
C96 C95 1.399 . S
C96 C97 1.396 . S
C96 C99 1.453 1_655 S
C96 C100 1.684 . S
C97 C87 1.723 . S
C97 C96 1.396 . S
C97 C98 1.394 . S
C98 C68 1.723 . S
C98 C94 1.397 . S
C98 C97 1.394 . S
C99 H71 0.982 . S
C99 H75 0.979 . S
C99 H76 0.977 . S
C99 C96 1.453 1_455 S
C100 H72 0.979 . S
C100 H73 0.980 . S
C100 H74 0.983 . S
C100 C96 1.684 . S
H101 C119 0.948 . S
H102 C60 0.948 . S
H103 C78 0.979 . S
H104 C78 0.980 . S
H105 C78 0.983 . S
H106 C77 0.982 . S
H107 C77 0.979 . S
H108 C77 0.977 . S
H109 C79 0.948 . S
H110 C81 0.947 . S
H111 C82 0.948 . S
H112 C88 0.982 . S
H113 C88 0.979 . S
H114 C88 0.977 . S
H115 C89 0.979 . S
H116 C89 0.980 . S
H117 C89 0.983 . S
H118 C62 0.947 . S
C119 C62 1.392 . S
C119 C63 1.419 . S
C119 H101 0.948 . S
C120 C121 1.391 . S
C120 C124 1.391 . S
C120 H162 0.948 . S
C121 C120 1.391 . S
C121 C122 1.391 . S
C122 C121 1.391 . S
C122 H178 0.947 . S
C122 C179 1.392 . S
C123 C124 1.391 . S
C123 C127 1.397 1_565 S
C123 C179 1.419 . S
C124 C120 1.391 . S
C124 C123 1.391 . S
C124 C125 1.399 . S
C125 C124 1.399 . S
C125 C128 1.396 1_565 S
C125 C137 1.453 1_565 S
C125 C138 1.684 . S
H126 C150 0.948 . S
C127 C123 1.397 1_545 S
C127 C128 1.394 . S
C127 C146 1.723 . S
C128 C125 1.396 1_545 S
C128 C127 1.394 . S
C128 C158 1.722 . S
H129 C152 0.947 . S
H130 C153 0.948 . S
H131 C159 0.982 . S
H132 C160 0.979 . S
H133 C160 0.980 . S
H134 C160 0.983 . S
H135 C159 0.979 . S
H136 C159 0.977 . S
C137 C125 1.453 1_545 S
C137 H166 0.982 . S
C137 H167 0.979 . S
C137 H168 0.977 . S
C138 C125 1.684 . S
C138 H163 0.979 . S
C138 H164 0.980 . S
C138 H165 0.983 . S
C139 C140 1.391 . S
C139 C144 1.391 . S
C139 H169 0.948 . S
C140 C139 1.391 . S
C140 C141 1.391 . S
C141 C140 1.391 . S
C141 C142 1.392 . S
C141 H170 0.947 . S
C142 C141 1.392 . S
C142 C143 1.419 . S
C142 H171 0.948 . S
C143 C142 1.419 . S
C143 C144 1.391 . S
C143 C147 1.397 1_565 S
C144 C139 1.391 . S
C144 C143 1.391 . S
C144 C145 1.399 . S
C145 C144 1.399 . S
C145 C146 1.396 1_565 S
C145 C148 1.453 1_565 S
C145 C149 1.684 . S
C146 C127 1.723 . S
C146 C145 1.396 1_545 S
C146 C147 1.394 . S
C147 C143 1.397 1_545 S
C147 C146 1.394 . S
C147 C157 1.723 . S
C148 C145 1.453 1_545 S
C148 H172 0.982 . S
C148 H173 0.979 . S
C148 H174 0.977 . S
C149 C145 1.684 . S
C149 H175 0.979 . S
C149 H176 0.980 . S
C149 H177 0.983 . S
C150 H126 0.948 . S
C150 C151 1.391 . S
C150 C155 1.391 . S
C151 C150 1.391 . S
C151 C152 1.391 . S
C152 H129 0.947 . S
C152 C151 1.391 . S
C152 C153 1.392 . S
C153 H130 0.948 . S
C153 C152 1.392 . S
C153 C154 1.419 . S
C154 C153 1.419 . S
C154 C155 1.391 . S
C154 C158 1.397 1_565 S
C155 C150 1.391 . S
C155 C154 1.391 . S
C155 C156 1.399 . S
C156 C155 1.399 . S
C156 C157 1.396 1_565 S
C156 C159 1.453 1_565 S
C156 C160 1.684 . S
C157 C147 1.723 . S
C157 C156 1.396 1_545 S
C157 C158 1.394 . S
C158 C128 1.722 . S
C158 C154 1.397 1_545 S
C158 C157 1.394 . S
C159 H131 0.982 . S
C159 H135 0.979 . S
C159 H136 0.977 . S
C159 C156 1.453 1_545 S
C160 H132 0.979 . S
C160 H133 0.980 . S
C160 H134 0.983 . S
C160 C156 1.684 . S
H161 C179 0.948 . S
H162 C120 0.948 . S
H163 C138 0.979 . S
H164 C138 0.980 . S
H165 C138 0.983 . S
H166 C137 0.982 . S
H167 C137 0.979 . S
H168 C137 0.977 . S
H169 C139 0.948 . S
H170 C141 0.947 . S
H171 C142 0.948 . S
H172 C148 0.982 . S
H173 C148 0.979 . S
H174 C148 0.977 . S
H175 C149 0.979 . S
H176 C149 0.980 . S
H177 C149 0.983 . S
H178 C122 0.947 . S
C179 C122 1.392 . S
C179 C123 1.419 . S
C179 H161 0.948 . S
C180 C181 1.391 . S
C180 C184 1.391 . S
C180 H222 0.948 . S
C181 C180 1.391 . S
C181 C182 1.391 . S
C182 C181 1.391 . S
C182 H238 0.947 . S
C182 C239 1.392 . S
C183 C184 1.391 . S
C183 C187 1.397 . S
C183 C239 1.419 . S
C184 C180 1.391 . S
C184 C183 1.391 . S
C184 C185 1.399 . S
C185 C184 1.399 . S
C185 C188 1.396 . S
C185 C197 1.453 . S
C185 C198 1.684 . S
H186 C210 0.948 1_556 S
C187 C183 1.397 . S
C187 C188 1.394 . S
C187 C206 1.723 . S
C188 C185 1.396 . S
C188 C187 1.394 . S
C188 C218 1.723 . S
H189 C212 0.947 . S
H190 C213 0.948 . S
H191 C219 0.982 . S
H192 C220 0.979 . S
H193 C220 0.980 . S
H194 C220 0.983 . S
H195 C219 0.979 . S
H196 C219 0.977 . S
C197 C185 1.453 . S
C197 H226 0.982 . S
C197 H227 0.979 . S
C197 H228 0.977 . S
C198 C185 1.684 . S
C198 H223 0.979 . S
C198 H224 0.980 . S
C198 H225 0.983 . S
C199 C200 1.391 . S
C199 C204 1.391 1_556 S
C199 H229 0.948 . S
C200 C199 1.391 . S
C200 C201 1.391 . S
C201 C200 1.391 . S
C201 C202 1.392 . S
C201 H230 0.947 . S
C202 C201 1.392 . S
C202 C203 1.419 1_556 S
C202 H231 0.948 . S
C203 C202 1.419 1_554 S
C203 C204 1.391 . S
C203 C207 1.397 . S
C204 C199 1.391 1_554 S
C204 C203 1.391 . S
C204 C205 1.399 . S
C205 C204 1.399 . S
C205 C206 1.396 . S
C205 C208 1.453 . S
C205 C209 1.684 . S
C206 C187 1.723 . S
C206 C205 1.396 . S
C206 C207 1.394 . S
C207 C203 1.397 . S
C207 C206 1.394 . S
C207 C217 1.723 . S
C208 C205 1.453 . S
C208 H232 0.982 . S
C208 H233 0.979 . S
C208 H234 0.977 . S
C209 C205 1.684 . S
C209 H235 0.979 . S
C209 H236 0.980 . S
C209 H237 0.983 . S
C210 H186 0.948 1_554 S
C210 C211 1.391 . S
C210 C215 1.391 . S
C211 C210 1.391 . S
C211 C212 1.391 . S
C212 H189 0.947 . S
C212 C211 1.391 . S
C212 C213 1.392 . S
C213 H190 0.948 . S
C213 C212 1.392 . S
C213 C214 1.419 . S
C214 C213 1.419 . S
C214 C215 1.391 . S
C214 C218 1.397 . S
C215 C210 1.391 . S
C215 C214 1.391 . S
C215 C216 1.399 . S
C216 C215 1.399 . S
C216 C217 1.396 . S
C216 C219 1.453 1_554 S
C216 C220 1.684 1_554 S
C217 C207 1.723 . S
C217 C216 1.396 . S
C217 C218 1.394 . S
C218 C188 1.723 . S
C218 C214 1.397 . S
C218 C217 1.394 . S
C219 H191 0.982 . S
C219 H195 0.979 . S
C219 H196 0.977 . S
C219 C216 1.453 1_556 S
C220 H192 0.979 . S
C220 H193 0.980 . S
C220 H194 0.983 . S
C220 C216 1.684 1_556 S
H221 C239 0.948 . S
H222 C180 0.948 . S
H223 C198 0.979 . S
H224 C198 0.980 . S
H225 C198 0.983 . S
H226 C197 0.982 . S
H227 C197 0.979 . S
H228 C197 0.977 . S
H229 C199 0.948 . S
H230 C201 0.947 . S
H231 C202 0.948 . S
H232 C208 0.982 . S
H233 C208 0.979 . S
H234 C208 0.977 . S
H235 C209 0.979 . S
H236 C209 0.980 . S
H237 C209 0.983 . S
H238 C182 0.947 . S
C239 C182 1.392 . S
C239 C183 1.419 . S
C239 H221 0.948 . S
C240 C241 1.391 1_556 S
C240 C244 1.391 . S
C240 H282 0.948 . S
C241 C240 1.391 1_554 S
C241 C242 1.391 . S
C242 C241 1.391 . S
C242 H298 0.947 . S
C242 C299 1.392 . S
C243 C244 1.391 1_554 S
C243 C247 1.397 . S
C243 C299 1.419 . S
C244 C240 1.391 . S
C244 C243 1.391 1_556 S
C244 C245 1.399 . S
C245 C244 1.399 . S
C245 C248 1.396 . S
C245 C257 1.453 . S
C245 C258 1.684 . S
H246 C270 0.948 . S
C247 C243 1.397 . S
C247 C248 1.394 1_554 S
C247 C266 1.723 . S
C248 C245 1.396 . S
C248 C247 1.394 1_556 S
C248 C278 1.723 . S
H249 C272 0.947 . S
H250 C273 0.948 . S
H251 C279 0.982 . S
H252 C280 0.979 . S
H253 C280 0.980 . S
H254 C280 0.983 . S
H255 C279 0.979 . S
H256 C279 0.977 . S
C257 C245 1.453 . S
C257 H286 0.982 . S
C257 H287 0.979 . S
C257 H288 0.977 . S
C258 C245 1.684 . S
C258 H283 0.979 . S
C258 H284 0.980 . S
C258 H285 0.983 . S
C259 C260 1.391 . S
C259 C264 1.391 . S
C259 H289 0.948 . S
C260 C259 1.391 . S
C260 C261 1.391 . S
C261 C260 1.391 . S
C261 C262 1.392 . S
C261 H290 0.947 . S
C262 C261 1.392 . S
C262 C263 1.419 . S
C262 H291 0.948 . S
C263 C262 1.419 . S
C263 C264 1.391 . S
C263 C267 1.397 . S
C264 C259 1.391 . S
C264 C263 1.391 . S
C264 C265 1.399 . S
C265 C264 1.399 . S
C265 C266 1.396 . S
C265 C268 1.453 . S
C265 C269 1.684 . S
C266 C247 1.723 . S
C266 C265 1.396 . S
C266 C267 1.394 . S
C267 C263 1.397 . S
C267 C266 1.394 . S
C267 C277 1.723 1_554 S
C268 C265 1.453 . S
C268 H292 0.982 . S
C268 H293 0.979 . S
C268 H294 0.977 . S
C269 C265 1.684 . S
C269 H295 0.979 . S
C269 H296 0.980 . S
C269 H297 0.983 . S
C270 H246 0.948 . S
C270 C271 1.391 . S
C270 C275 1.391 . S
C271 C270 1.391 . S
C271 C272 1.391 . S
C272 H249 0.947 . S
C272 C271 1.391 . S
C272 C273 1.392 . S
C273 H250 0.948 . S
C273 C272 1.392 . S
C273 C274 1.419 . S
C274 C273 1.419 . S
C274 C275 1.391 . S
C274 C278 1.397 . S
C275 C270 1.391 . S
C275 C274 1.391 . S
C275 C276 1.399 . S
C276 C275 1.399 . S
C276 C277 1.396 . S
C276 C279 1.453 . S
C276 C280 1.684 . S
C277 C267 1.723 1_556 S
C277 C276 1.396 . S
C277 C278 1.394 . S
C278 C248 1.723 . S
C278 C274 1.397 . S
C278 C277 1.394 . S
C279 H251 0.982 . S
C279 H255 0.979 . S
C279 H256 0.977 . S
C279 C276 1.453 . S
C280 H252 0.979 . S
C280 H253 0.980 . S
C280 H254 0.983 . S
C280 C276 1.684 . S
H281 C299 0.948 . S
H282 C240 0.948 . S
H283 C258 0.979 . S
H284 C258 0.980 . S
H285 C258 0.983 . S
H286 C257 0.982 . S
H287 C257 0.979 . S
H288 C257 0.977 . S
H289 C259 0.948 . S
H290 C261 0.947 . S
H291 C262 0.948 . S
H292 C268 0.982 . S
H293 C268 0.979 . S
H294 C268 0.977 . S
H295 C269 0.979 . S
H296 C269 0.980 . S
H297 C269 0.983 . S
H298 C242 0.947 . S
C299 C242 1.392 . S
C299 C243 1.419 . S
C299 H281 0.948 . S
C300 C301 1.391 . S
C300 C304 1.391 . S
C300 H342 0.948 . S
C301 C300 1.391 . S
C301 C302 1.391 . S
C302 C301 1.391 . S
C302 H358 0.947 . S
C302 C359 1.392 . S
C303 C304 1.391 . S
C303 C307 1.397 . S
C303 C359 1.419 . S
C304 C300 1.391 . S
C304 C303 1.391 . S
C304 C305 1.399 . S
C305 C304 1.399 . S
C305 C308 1.396 . S
C305 C317 1.453 . S
C305 C318 1.684 1_455 S
H306 C330 0.948 . S
C307 C303 1.397 . S
C307 C308 1.394 . S
C307 C326 1.723 . S
C308 C305 1.396 . S
C308 C307 1.394 . S
C308 C338 1.723 . S
H309 C332 0.947 . S
H310 C333 0.948 . S
H311 C339 0.982 . S
H312 C340 0.979 . S
H313 C340 0.980 1_556 S
H314 C340 0.983 . S
H315 C339 0.979 . S
H316 C339 0.977 1_556 S
C317 C305 1.453 . S
C317 H346 0.982 . S
C317 H347 0.979 . S
C317 H348 0.977 . S
C318 C305 1.684 1_655 S
C318 H343 0.979 . S
C318 H344 0.980 . S
C318 H345 0.983 . S
C319 C320 1.391 . S
C319 C324 1.391 . S
C319 H349 0.948 . S
C320 C319 1.391 . S
C320 C321 1.391 . S
C321 C320 1.391 . S
C321 C322 1.392 . S
C321 H350 0.947 . S
C322 C321 1.392 . S
C322 C323 1.419 . S
C322 H351 0.948 . S
C323 C322 1.419 . S
C323 C324 1.391 . S
C323 C327 1.397 1_556 S
C324 C319 1.391 . S
C324 C323 1.391 . S
C324 C325 1.399 1_556 S
C325 C324 1.399 1_554 S
C325 C326 1.396 . S
C325 C328 1.453 . S
C325 C329 1.684 1_455 S
C326 C307 1.723 . S
C326 C325 1.396 . S
C326 C327 1.394 . S
C327 C323 1.397 1_554 S
C327 C326 1.394 . S
C327 C337 1.723 . S
C328 C325 1.453 . S
C328 H352 0.982 . S
C328 H353 0.979 . S
C328 H354 0.977 . S
C329 C325 1.684 1_655 S
C329 H355 0.979 . S
C329 H356 0.980 . S
C329 H357 0.983 . S
C330 H306 0.948 . S
C330 C331 1.391 . S
C330 C335 1.391 . S
C331 C330 1.391 . S
C331 C332 1.391 . S
C332 H309 0.947 . S
C332 C331 1.391 . S
C332 C333 1.392 . S
C333 H310 0.948 . S
C333 C332 1.392 . S
C333 C334 1.419 . S
C334 C333 1.419 . S
C334 C335 1.391 . S
C334 C338 1.397 . S
C335 C330 1.391 . S
C335 C334 1.391 . S
C335 C336 1.399 . S
C336 C335 1.399 . S
C336 C337 1.396 . S
C336 C339 1.453 . S
C336 C340 1.684 1_455 S
C337 C327 1.723 . S
C337 C336 1.396 . S
C337 C338 1.394 . S
C338 C308 1.723 . S
C338 C334 1.397 . S
C338 C337 1.394 . S
C339 H311 0.982 . S
C339 H315 0.979 . S
C339 H316 0.977 1_554 S
C339 C336 1.453 . S
C340 H312 0.979 . S
C340 H313 0.980 1_554 S
C340 H314 0.983 . S
C340 C336 1.684 1_655 S
H341 C359 0.948 . S
H342 C300 0.948 . S
H343 C318 0.979 . S
H344 C318 0.980 . S
H345 C318 0.983 . S
H346 C317 0.982 . S
H347 C317 0.979 . S
H348 C317 0.977 . S
H349 C319 0.948 . S
H350 C321 0.947 . S
H351 C322 0.948 . S
H352 C328 0.982 . S
H353 C328 0.979 . S
H354 C328 0.977 . S
H355 C329 0.979 . S
H356 C329 0.980 . S
H357 C329 0.983 . S
H358 C302 0.947 . S
C359 C302 1.392 . S
C359 C303 1.419 . S
C359 H341 0.948 . S
C360 C361 1.391 . S
C360 C364 1.391 1_556 S
C360 H402 0.948 . S
C361 C360 1.391 . S
C361 C362 1.391 . S
C362 C361 1.391 . S
C362 H418 0.947 . S
C362 C419 1.392 1_556 S
C363 C364 1.391 . S
C363 C367 1.397 1_545 S
C363 C419 1.419 . S
C364 C360 1.391 1_554 S
C364 C363 1.391 . S
C364 C365 1.399 . S
C365 C364 1.399 . S
C365 C368 1.396 1_545 S
C365 C377 1.453 1_545 S
C365 C378 1.684 . S
H366 C390 0.948 . S
C367 C363 1.397 1_565 S
C367 C368 1.394 . S
C367 C386 1.723 . S
C368 C365 1.396 1_565 S
C368 C367 1.394 . S
C368 C398 1.723 . S
H369 C392 0.947 . S
H370 C393 0.948 . S
H371 C399 0.982 . S
H372 C400 0.979 . S
H373 C400 0.980 . S
H374 C400 0.983 . S
H375 C399 0.979 . S
H376 C399 0.977 . S
C377 C365 1.453 1_565 S
C377 H406 0.982 . S
C377 H407 0.979 1_554 S
C377 H408 0.977 . S
C378 C365 1.684 . S
C378 H403 0.979 . S
C378 H404 0.980 . S
C378 H405 0.983 1_554 S
C379 C380 1.391 . S
C379 C384 1.391 . S
C379 H409 0.948 . S
C380 C379 1.391 . S
C380 C381 1.391 . S
C381 C380 1.391 . S
C381 C382 1.392 . S
C381 H410 0.947 . S
C382 C381 1.392 . S
C382 C383 1.419 . S
C382 H411 0.948 . S
C383 C382 1.419 . S
C383 C384 1.391 . S
C383 C387 1.397 1_545 S
C384 C379 1.391 . S
C384 C383 1.391 . S
C384 C385 1.399 . S
C385 C384 1.399 . S
C385 C386 1.396 1_545 S
C385 C388 1.453 1_545 S
C385 C389 1.684 . S
C386 C367 1.723 . S
C386 C385 1.396 1_565 S
C386 C387 1.394 . S
C387 C383 1.397 1_565 S
C387 C386 1.394 . S
C387 C397 1.722 . S
C388 C385 1.453 1_565 S
C388 H412 0.982 . S
C388 H413 0.979 . S
C388 H414 0.977 . S
C389 C385 1.684 . S
C389 H415 0.979 . S
C389 H416 0.980 . S
C389 H417 0.983 . S
C390 H366 0.948 . S
C390 C391 1.391 . S
C390 C395 1.391 . S
C391 C390 1.391 . S
C391 C392 1.391 . S
C392 H369 0.947 . S
C392 C391 1.391 . S
C392 C393 1.392 . S
C393 H370 0.948 . S
C393 C392 1.392 . S
C393 C394 1.419 . S
C394 C393 1.419 . S
C394 C395 1.391 . S
C394 C398 1.397 1_545 S
C395 C390 1.391 . S
C395 C394 1.391 . S
C395 C396 1.399 . S
C396 C395 1.399 . S
C396 C397 1.396 1_545 S
C396 C399 1.453 1_545 S
C396 C400 1.684 . S
C397 C387 1.722 . S
C397 C396 1.396 1_565 S
C397 C398 1.394 . S
C398 C368 1.723 . S
C398 C394 1.397 1_565 S
C398 C397 1.394 . S
C399 H371 0.982 . S
C399 H375 0.979 . S
C399 H376 0.977 . S
C399 C396 1.453 1_565 S
C400 H372 0.979 . S
C400 H373 0.980 . S
C400 H374 0.983 . S
C400 C396 1.684 . S
H401 C419 0.948 . S
H402 C360 0.948 . S
H403 C378 0.979 . S
H404 C378 0.980 . S
H405 C378 0.983 1_556 S
H406 C377 0.982 . S
H407 C377 0.979 1_556 S
H408 C377 0.977 . S
H409 C379 0.948 . S
H410 C381 0.947 . S
H411 C382 0.948 . S
H412 C388 0.982 . S
H413 C388 0.979 . S
H414 C388 0.977 . S
H415 C389 0.979 . S
H416 C389 0.980 . S
H417 C389 0.983 . S
H418 C362 0.947 . S
C419 C362 1.392 1_554 S
C419 C363 1.419 . S
C419 H401 0.948 . S
C420 C421 1.391 . S
C420 C424 1.391 . S
C420 H462 0.948 . S
C421 C420 1.391 . S
C421 C422 1.391 . S
C422 C421 1.391 . S
C422 H478 0.947 . S
C422 C479 1.392 . S
C423 C424 1.391 . S
C423 C427 1.397 . S
C423 C479 1.419 . S
C424 C420 1.391 . S
C424 C423 1.391 . S
C424 C425 1.399 . S
C425 C424 1.399 . S
C425 C428 1.396 . S
C425 C437 1.453 . S
C425 C438 1.684 . S
H426 C450 0.948 . S
C427 C423 1.397 . S
C427 C428 1.394 . S
C427 C446 1.723 . S
C428 C425 1.396 . S
C428 C427 1.394 . S
C428 C458 1.723 . S
H429 C452 0.947 . S
H430 C453 0.948 . S
H431 C459 0.982 . S
H432 C460 0.979 . S
H433 C460 0.980 . S
H434 C460 0.983 . S
H435 C459 0.979 . S
H436 C459 0.977 . S
C437 C425 1.453 . S
C437 H466 0.982 . S
C437 H467 0.979 . S
C437 H468 0.977 . S
C438 C425 1.684 . S
C438 H463 0.979 . S
C438 H464 0.980 . S
C438 H465 0.983 . S
C439 C440 1.391 . S
C439 C444 1.391 . S
C439 H469 0.948 . S
C440 C439 1.391 . S
C440 C441 1.391 . S
C441 C440 1.391 . S
C441 C442 1.392 . S
C441 H470 0.947 . S
C442 C441 1.392 . S
C442 C443 1.419 . S
C442 H471 0.948 . S
C443 C442 1.419 . S
C443 C444 1.391 . S
C443 C447 1.397 . S
C444 C439 1.391 . S
C444 C443 1.391 . S
C444 C445 1.399 . S
C445 C444 1.399 . S
C445 C446 1.396 . S
C445 C448 1.453 . S
C445 C449 1.684 . S
C446 C427 1.723 . S
C446 C445 1.396 . S
C446 C447 1.394 . S
C447 C443 1.397 . S
C447 C446 1.394 . S
C447 C457 1.723 . S
C448 C445 1.453 . S
C448 H472 0.982 . S
C448 H473 0.979 . S
C448 H474 0.977 . S
C449 C445 1.684 . S
C449 H475 0.979 . S
C449 H476 0.980 . S
C449 H477 0.983 . S
C450 H426 0.948 . S
C450 C451 1.391 . S
C450 C455 1.391 . S
C451 C450 1.391 . S
C451 C452 1.391 . S
C452 H429 0.947 . S
C452 C451 1.391 . S
C452 C453 1.392 . S
C453 H430 0.948 . S
C453 C452 1.392 . S
C453 C454 1.419 . S
C454 C453 1.419 . S
C454 C455 1.391 . S
C454 C458 1.397 . S
C455 C450 1.391 . S
C455 C454 1.391 . S
C455 C456 1.399 . S
C456 C455 1.399 . S
C456 C457 1.396 . S
C456 C459 1.453 . S
C456 C460 1.684 . S
C457 C447 1.723 . S
C457 C456 1.396 . S
C457 C458 1.394 . S
C458 C428 1.723 . S
C458 C454 1.397 . S
C458 C457 1.394 . S
C459 H431 0.982 . S
C459 H435 0.979 . S
C459 H436 0.977 . S
C459 C456 1.453 . S
C460 H432 0.979 . S
C460 H433 0.980 . S
C460 H434 0.983 . S
C460 C456 1.684 . S
H461 C479 0.948 . S
H462 C420 0.948 . S
H463 C438 0.979 . S
H464 C438 0.980 . S
H465 C438 0.983 . S
H466 C437 0.982 . S
H467 C437 0.979 . S
H468 C437 0.977 . S
H469 C439 0.948 . S
H470 C441 0.947 . S
H471 C442 0.948 . S
H472 C448 0.982 . S
H473 C448 0.979 . S
H474 C448 0.977 . S
H475 C449 0.979 . S
H476 C449 0.980 . S
H477 C449 0.983 . S
H478 C422 0.947 . S
C479 C422 1.392 . S
C479 C423 1.419 . S
C479 H461 0.948 . S
Dy480 O483 2.307 1_545 S
Dy480 O485 2.395 1_655 S
Dy480 O486 2.379 . S
Dy480 O488 2.339 . S
Dy480 O490 2.298 . S
Dy480 O494 2.275 1_655 S
Dy480 C502 2.738 . S
Dy481 O484 2.298 . S
Dy481 O487 2.275 1_455 S
Dy481 O489 2.307 1_565 S
Dy481 O491 2.395 . S
Dy481 O492 2.379 . S
Dy481 O495 2.339 . S
Dy481 C511 2.738 . S
C482 O494 1.254 1_565 S
C482 O495 1.257 . S
O483 Dy480 2.307 1_565 S
O483 C493 1.266 . S
O484 Dy481 2.298 . S
O484 C493 1.236 1_455 S
O485 Dy480 2.395 1_455 S
O485 C502 1.255 1_455 S
O486 Dy480 2.379 . S
O486 C502 1.249 . S
O487 Dy481 2.275 1_655 S
O487 C503 1.254 1_565 S
O488 Dy480 2.339 . S
O488 C503 1.257 . S
O489 Dy481 2.307 1_545 S
O489 C504 1.266 . S
O490 Dy480 2.298 . S
O490 C504 1.236 1_655 S
O491 Dy481 2.395 . S
O491 C511 1.255 . S
O492 Dy481 2.379 . S
O492 C511 1.249 . S
C493 O483 1.266 . S
C493 O484 1.236 1_655 S
O494 Dy480 2.275 1_455 S
O494 C482 1.254 1_545 S
O495 Dy481 2.339 . S
O495 C482 1.257 . S
C496 C499 1.344 1_655 S
C496 C500 1.328 . S
C496 C502 1.516 . S
C497 C498 1.304 1_655 S
C497 C501 1.323 . S
C498 C497 1.304 1_455 S
C498 C499 1.371 . S
C498 H512 0.930 . S
C499 C496 1.344 1_455 S
C499 C498 1.371 . S
C499 H513 0.931 . S
C500 C496 1.328 . S
C500 C501 1.433 . S
C500 H514 0.931 . S
C501 C497 1.323 . S
C501 C500 1.433 . S
C501 H515 0.933 . S
C502 Dy480 2.738 . S
C502 O485 1.255 1_655 S
C502 O486 1.249 . S
C502 C496 1.516 . S
C503 O487 1.254 1_545 S
C503 O488 1.257 . S
C504 O489 1.266 . S
C504 O490 1.236 1_455 S
C505 C508 1.344 . S
C505 C509 1.328 . S
C505 C511 1.516 . S
C506 C507 1.304 . S
C506 C510 1.323 . S
C507 C506 1.304 . S
C507 C508 1.371 . S
C507 H516 0.930 1_455 S
C508 C505 1.344 . S
C508 C507 1.371 . S
C508 H517 0.931 1_455 S
C509 C505 1.328 . S
C509 C510 1.433 . S
C509 H518 0.931 . S
C510 C506 1.323 . S
C510 C509 1.433 . S
C510 H519 0.933 . S
C511 Dy481 2.738 . S
C511 O491 1.255 . S
C511 O492 1.249 . S
C511 C505 1.516 . S
H512 C498 0.930 . S
H513 C499 0.931 . S
H514 C500 0.931 . S
H515 C501 0.933 . S
H516 C507 0.930 1_655 S
H517 C508 0.931 1_655 S
H518 C509 0.931 . S
H519 C510 0.933 . S
Dy520 O523 2.307 . S
Dy520 O525 2.395 1_565 S
Dy520 O526 2.379 . S
Dy520 O528 2.339 . S
Dy520 O530 2.298 . S
Dy520 O534 2.275 1_565 S
Dy520 C542 2.738 . S
Dy521 O524 2.298 . S
Dy521 O527 2.275 1_545 S
Dy521 O529 2.307 . S
Dy521 O531 2.395 1_545 S
Dy521 O532 2.379 . S
Dy521 O535 2.339 . S
Dy521 C551 2.738 . S
C522 O534 1.254 . S
C522 O535 1.257 . S
O523 Dy520 2.307 . S
O523 C533 1.266 . S
O524 Dy521 2.298 . S
O524 C533 1.236 1_545 S
O525 Dy520 2.395 1_545 S
O525 C542 1.255 1_545 S
O526 Dy520 2.379 . S
O526 C542 1.249 . S
O527 Dy521 2.275 1_565 S
O527 C543 1.254 . S
O528 Dy520 2.339 . S
O528 C543 1.257 . S
O529 Dy521 2.307 . S
O529 C544 1.266 . S
O530 Dy520 2.298 . S
O530 C544 1.236 1_565 S
O531 Dy521 2.395 1_565 S
O531 C551 1.255 1_565 S
O532 Dy521 2.379 . S
O532 C551 1.249 . S
C533 O523 1.266 . S
C533 O524 1.236 1_565 S
O534 Dy520 2.275 1_545 S
O534 C522 1.254 . S
O535 Dy521 2.339 . S
O535 C522 1.257 . S
C536 C539 1.335 1_565 S
C536 C540 1.328 . S
C536 C542 1.516 . S
C537 C538 1.304 . S
C537 C541 1.323 . S
C538 C537 1.304 . S
C538 C539 1.369 1_565 S
C538 H552 0.930 1_565 S
C539 C536 1.335 1_545 S
C539 C538 1.369 1_545 S
C539 H553 0.942 . S
C540 C536 1.328 . S
C540 C541 1.433 . S
C540 H554 0.931 . S
C541 C537 1.323 . S
C541 C540 1.433 . S
C541 H555 0.933 . S
C542 Dy520 2.738 . S
C542 O525 1.255 1_565 S
C542 O526 1.249 . S
C542 C536 1.516 . S
C543 O527 1.254 . S
C543 O528 1.257 . S
C544 O529 1.266 . S
C544 O530 1.236 1_545 S
C545 C548 1.343 1_545 S
C545 C549 1.328 . S
C545 C551 1.516 . S
C546 C547 1.304 . S
C546 C550 1.323 . S
C547 C546 1.304 . S
C547 C548 1.371 1_545 S
C547 H556 0.930 1_545 S
C548 C545 1.343 1_565 S
C548 C547 1.371 1_565 S
C548 H557 0.932 . S
C549 C545 1.328 . S
C549 C550 1.433 . S
C549 H558 0.931 . S
C550 C546 1.323 . S
C550 C549 1.433 . S
C550 H559 0.933 . S
C551 Dy521 2.738 . S
C551 O531 1.255 1_545 S
C551 O532 1.249 . S
C551 C545 1.516 . S
H552 C538 0.930 1_545 S
H553 C539 0.942 . S
H554 C540 0.931 . S
H555 C541 0.933 . S
H556 C547 0.930 1_565 S
H557 C548 0.932 . S
H558 C549 0.931 . S
H559 C550 0.933 . S
Dy560 O563 2.307 . S
Dy560 O565 2.395 . S
Dy560 O566 2.379 . S
Dy560 O568 2.339 . S
Dy560 O570 2.298 . S
Dy560 O574 2.275 . S
Dy560 C582 2.738 . S
Dy561 O564 2.298 . S
Dy561 O567 2.275 . S
Dy561 O569 2.307 . S
Dy561 O571 2.395 . S
Dy561 O572 2.379 . S
Dy561 O575 2.339 . S
Dy561 C591 2.738 . S
C562 O574 1.254 . S
C562 O575 1.257 . S
O563 Dy560 2.307 . S
O563 C573 1.266 . S
O564 Dy561 2.298 . S
O564 C573 1.236 . S
O565 Dy560 2.395 . S
O565 C582 1.255 . S
O566 Dy560 2.379 . S
O566 C582 1.249 . S
O567 Dy561 2.275 . S
O567 C583 1.254 . S
O568 Dy560 2.339 . S
O568 C583 1.257 . S
O569 Dy561 2.307 . S
O569 C584 1.266 . S
O570 Dy560 2.298 . S
O570 C584 1.236 . S
O571 Dy561 2.395 . S
O571 C591 1.255 . S
O572 Dy561 2.379 . S
O572 C591 1.249 . S
C573 O563 1.266 . S
C573 O564 1.236 . S
O574 Dy560 2.275 . S
O574 C562 1.254 . S
O575 Dy561 2.339 . S
O575 C562 1.257 . S
C576 C579 1.344 . S
C576 C580 1.328 . S
C576 C582 1.516 . S
C577 C578 1.304 . S
C577 C581 1.323 . S
C578 C577 1.304 . S
C578 C579 1.371 . S
C578 H592 0.930 . S
C579 C576 1.344 . S
C579 C578 1.371 . S
C579 H593 0.931 . S
C580 C576 1.328 . S
C580 C581 1.433 . S
C580 H594 0.931 . S
C581 C577 1.323 . S
C581 C580 1.433 . S
C581 H595 0.933 . S
C582 Dy560 2.738 . S
C582 O565 1.255 . S
C582 O566 1.249 . S
C582 C576 1.516 . S
C583 O567 1.254 . S
C583 O568 1.257 . S
C584 O569 1.266 . S
C584 O570 1.236 . S
C585 C588 1.344 . S
C585 C589 1.328 . S
C585 C591 1.516 . S
C586 C587 1.304 . S
C586 C590 1.323 . S
C587 C586 1.304 . S
C587 C588 1.371 . S
C587 H596 0.930 . S
C588 C585 1.344 . S
C588 C587 1.371 . S
C588 H597 0.931 . S
C589 C585 1.328 . S
C589 C590 1.433 . S
C589 H598 0.931 . S
C590 C586 1.323 . S
C590 C589 1.433 . S
C590 H599 0.933 . S
C591 Dy561 2.738 . S
C591 O571 1.255 . S
C591 O572 1.249 . S
C591 C585 1.516 . S
H592 C578 0.930 . S
H593 C579 0.931 . S
H594 C580 0.931 . S
H595 C581 0.933 . S
H596 C587 0.930 . S
H597 C588 0.931 . S
H598 C589 0.931 . S
H599 C590 0.933 . S
Dy600 O603 2.307 1_455 S
Dy600 O605 2.395 . S
Dy600 O606 2.379 . S
Dy600 O608 2.339 . S
Dy600 O610 2.298 . S
Dy600 O614 2.275 . S
Dy600 C622 2.738 . S
Dy601 O604 2.298 . S
Dy601 O607 2.272 1_655 S
Dy601 O609 2.307 1_655 S
Dy601 O611 2.395 . S
Dy601 O612 2.379 . S
Dy601 O615 2.339 . S
Dy601 C631 2.738 . S
C602 O614 1.254 . S
C602 O615 1.257 1_455 S
O603 Dy600 2.307 1_655 S
O603 C613 1.266 . S
O604 Dy601 2.298 . S
O604 C613 1.236 . S
O605 Dy600 2.395 . S
O605 C622 1.255 . S
O606 Dy600 2.379 . S
O606 C622 1.249 . S
O607 Dy601 2.272 1_455 S
O607 C623 1.257 . S
O608 Dy600 2.339 . S
O608 C623 1.257 . S
O609 Dy601 2.307 1_455 S
O609 C624 1.266 . S
O610 Dy600 2.298 . S
O610 C624 1.236 . S
O611 Dy601 2.395 . S
O611 C631 1.255 . S
O612 Dy601 2.379 . S
O612 C631 1.249 . S
C613 O603 1.266 . S
C613 O604 1.236 . S
O614 Dy600 2.275 . S
O614 C602 1.254 . S
O615 Dy601 2.339 . S
O615 C602 1.257 1_655 S
C616 C619 1.344 . S
C616 C620 1.328 . S
C616 C622 1.516 . S
C617 C618 1.304 . S
C617 C621 1.323 . S
C618 C617 1.304 . S
C618 C619 1.371 . S
C618 H632 0.930 . S
C619 C616 1.344 . S
C619 C618 1.371 . S
C619 H633 0.931 . S
C620 C616 1.328 . S
C620 C621 1.433 . S
C620 H634 0.931 . S
C621 C617 1.323 . S
C621 C620 1.433 . S
C621 H635 0.933 . S
C622 Dy600 2.738 . S
C622 O605 1.255 . S
C622 O606 1.249 . S
C622 C616 1.516 . S
C623 O607 1.257 . S
C623 O608 1.257 . S
C624 O609 1.266 . S
C624 O610 1.236 . S
C625 C628 1.344 . S
C625 C629 1.328 . S
C625 C631 1.516 . S
C626 C627 1.304 . S
C626 C630 1.323 . S
C627 C626 1.304 . S
C627 C628 1.371 . S
C627 H636 0.930 1_556 S
C628 C625 1.344 . S
C628 C627 1.371 . S
C628 H637 0.931 . S
C629 C625 1.328 . S
C629 C630 1.433 . S
C629 H638 0.931 . S
C630 C626 1.323 . S
C630 C629 1.433 . S
C630 H639 0.933 . S
C631 Dy601 2.738 . S
C631 O611 1.255 . S
C631 O612 1.249 . S
C631 C625 1.516 . S
H632 C618 0.930 . S
H633 C619 0.931 . S
H634 C620 0.931 . S
H635 C621 0.933 . S
H636 C627 0.930 1_554 S
H637 C628 0.931 . S
H638 C629 0.931 . S
H639 C630 0.933 . S
H640 C648 0.950 . S
H641 C653 0.950 . S
H642 C650 0.950 . S
H643 C652 0.950 . S
H644 C654 0.950 . S
H645 C656 0.950 . S
H646 C658 0.950 . S
H647 C659 0.950 . S
C648 H640 0.950 . S
C648 C649 1.379 1_545 S
C648 C650 1.391 . S
C649 C648 1.379 1_565 S
C649 C653 1.400 . S
C650 H642 0.950 . S
C650 C648 1.391 . S
C650 C651 1.399 . S
C651 C650 1.399 . S
C651 C652 1.399 1_545 S
C651 C657 1.493 . S
C652 H643 0.950 . S
C652 C651 1.399 1_565 S
C652 C653 1.391 . S
C653 H641 0.950 . S
C653 C649 1.400 . S
C653 C652 1.391 . S
C654 H644 0.950 . S
C654 C655 1.352 1_565 S
C654 C656 1.391 . S
C655 C654 1.352 1_545 S
C655 C659 1.431 . S
C656 H645 0.950 . S
C656 C654 1.391 . S
C656 C657 1.379 1_565 S
C657 C651 1.493 . S
C657 C656 1.379 1_545 S
C657 C658 1.418 . S
C658 H646 0.950 . S
C658 C657 1.418 . S
C658 C659 1.391 . S
C659 H647 0.950 . S
C659 C655 1.431 . S
C659 C658 1.391 . S
H660 C668 0.950 . S
H661 C673 0.950 . S
H662 C670 0.950 . S
H663 C672 0.950 . S
H664 C674 0.950 . S
H665 C676 0.950 . S
H666 C678 0.950 . S
H667 C679 0.950 . S
C668 H660 0.950 . S
C668 C669 1.386 . S
C668 C670 1.391 . S
C669 C668 1.386 . S
C669 C673 1.393 . S
C670 H662 0.950 . S
C670 C668 1.391 . S
C670 C671 1.400 . S
C671 C670 1.400 . S
C671 C672 1.398 . S
C671 C677 1.491 . S
C672 H663 0.950 . S
C672 C671 1.398 . S
C672 C673 1.391 . S
C673 H661 0.950 . S
C673 C669 1.393 . S
C673 C672 1.391 . S
C674 H664 0.950 . S
C674 C675 1.386 . S
C674 C676 1.391 . S
C675 C674 1.386 . S
C675 C679 1.393 . S
C676 H665 0.950 . S
C676 C674 1.391 . S
C676 C677 1.400 . S
C677 C671 1.491 . S
C677 C676 1.400 . S
C677 C678 1.398 . S
C678 H666 0.950 . S
C678 C677 1.398 . S
C678 C679 1.391 . S
C679 H667 0.950 . S
C679 C675 1.393 . S
C679 C678 1.391 . S
H680 C688 0.950 . S
H681 C693 0.950 . S
H682 C690 0.950 . S
H683 C692 0.950 . S
H684 C694 0.950 . S
H685 C696 0.950 . S
H686 C698 0.950 . S
H687 C699 0.950 . S
C688 H680 0.950 . S
C688 C689 1.386 . S
C688 C690 1.391 . S
C689 C688 1.386 . S
C689 C693 1.393 . S
C690 H682 0.950 . S
C690 C688 1.391 . S
C690 C691 1.400 . S
C691 C690 1.400 . S
C691 C692 1.398 . S
C691 C697 1.491 . S
C692 H683 0.950 . S
C692 C691 1.398 . S
C692 C693 1.391 . S
C693 H681 0.950 . S
C693 C689 1.393 . S
C693 C692 1.391 . S
C694 H684 0.950 . S
C694 C695 1.386 . S
C694 C696 1.391 . S
C695 C694 1.386 . S
C695 C699 1.393 . S
C696 H685 0.950 . S
C696 C694 1.391 . S
C696 C697 1.400 . S
C697 C691 1.491 . S
C697 C696 1.400 . S
C697 C698 1.398 . S
C698 H686 0.950 . S
C698 C697 1.398 . S
C698 C699 1.391 . S
C699 H687 0.950 . S
C699 C695 1.393 . S
C699 C698 1.391 . S
H700 C708 0.950 . S
H701 C713 0.950 . S
H702 C710 0.950 . S
H703 C712 0.950 . S
H704 C714 0.950 . S
H705 C716 0.950 . S
H706 C718 0.950 . S
H707 C719 0.950 . S
C708 H700 0.950 . S
C708 C709 1.386 . S
C708 C710 1.391 . S
C709 C708 1.386 . S
C709 C713 1.393 1_455 S
C710 H702 0.950 . S
C710 C708 1.391 . S
C710 C711 1.400 . S
C711 C710 1.400 . S
C711 C712 1.398 1_455 S
C711 C717 1.491 . S
C712 H703 0.950 . S
C712 C711 1.398 1_655 S
C712 C713 1.391 . S
C713 H701 0.950 . S
C713 C709 1.393 1_655 S
C713 C712 1.391 . S
C714 H704 0.950 . S
C714 C715 1.386 1_655 S
C714 C716 1.391 . S
C715 C714 1.386 1_455 S
C715 C719 1.393 . S
C716 H705 0.950 . S
C716 C714 1.391 . S
C716 C717 1.400 1_655 S
C717 C711 1.491 . S
C717 C716 1.400 1_455 S
C717 C718 1.398 . S
C718 H706 0.950 . S
C718 C717 1.398 . S
C718 C719 1.391 . S
C719 H707 0.950 . S
C719 C715 1.393 . S
C719 C718 1.391 . S
H720 C728 0.950 . S
H721 C733 0.950 . S
H722 C730 0.950 . S
H723 C732 0.950 . S
H724 C734 0.950 . S
H725 C736 0.950 . S
H726 C738 0.950 . S
H727 C739 0.950 . S
C728 H720 0.950 . S
C728 C729 1.393 . S
C728 C730 1.391 . S
C729 C728 1.393 . S
C729 C733 1.385 1_565 S
C730 H722 0.950 . S
C730 C728 1.391 . S
C730 C731 1.408 . S
C731 C730 1.408 . S
C731 C732 1.392 1_565 S
C731 C737 1.490 1_564 S
C732 H723 0.950 . S
C732 C731 1.392 1_545 S
C732 C733 1.391 . S
C733 H721 0.950 . S
C733 C729 1.385 1_545 S
C733 C732 1.391 . S
C734 H724 0.950 . S
C734 C735 1.383 . S
C734 C736 1.391 . S
C735 C734 1.383 . S
C735 C739 1.396 1_545 S
C736 H725 0.950 . S
C736 C734 1.391 . S
C736 C737 1.397 . S
C737 C731 1.490 1_546 S
C737 C736 1.397 . S
C737 C738 1.401 1_545 S
C738 H726 0.950 . S
C738 C737 1.401 1_565 S
C738 C739 1.391 . S
C739 H727 0.950 . S
C739 C735 1.396 1_565 S
C739 C738 1.391 . S
H740 C748 0.950 . S
H741 C753 0.950 . S
H742 C750 0.950 . S
H743 C752 0.950 1_554 S
H744 C754 0.950 . S
H745 C756 0.950 . S
H746 C758 0.950 . S
H747 C759 0.950 . S
C748 H740 0.950 . S
C748 C749 1.386 1_556 S
C748 C750 1.391 . S
C749 C748 1.386 1_554 S
C749 C753 1.393 . S
C750 H742 0.950 . S
C750 C748 1.391 . S
C750 C751 1.400 . S
C751 C750 1.400 . S
C751 C752 1.398 . S
C751 C757 1.491 . S
C752 H743 0.950 1_556 S
C752 C751 1.398 . S
C752 C753 1.391 1_556 S
C753 H741 0.950 . S
C753 C749 1.393 . S
C753 C752 1.391 1_554 S
C754 H744 0.950 . S
C754 C755 1.386 . S
C754 C756 1.391 . S
C755 C754 1.386 . S
C755 C759 1.393 . S
C756 H745 0.950 . S
C756 C754 1.391 . S
C756 C757 1.400 . S
C757 C751 1.491 . S
C757 C756 1.400 . S
C757 C758 1.398 . S
C758 H746 0.950 . S
C758 C757 1.398 . S
C758 C759 1.391 . S
C759 H747 0.950 . S
C759 C755 1.393 . S
C759 C758 1.391 . S
H760 C768 0.950 . S
H761 C773 0.950 . S
H762 C770 0.950 . S
H763 C772 0.950 . S
H764 C774 0.950 . S
H765 C776 0.950 . S
H766 C778 0.950 . S
H767 C779 0.950 1_556 S
C768 H760 0.950 . S
C768 C769 1.386 . S
C768 C770 1.391 . S
C769 C768 1.386 . S
C769 C773 1.393 . S
C770 H762 0.950 . S
C770 C768 1.391 . S
C770 C771 1.400 . S
C771 C770 1.400 . S
C771 C772 1.398 . S
C771 C777 1.491 . S
C772 H763 0.950 . S
C772 C771 1.398 . S
C772 C773 1.391 . S
C773 H761 0.950 . S
C773 C769 1.393 . S
C773 C772 1.391 . S
C774 H764 0.950 . S
C774 C775 1.386 . S
C774 C776 1.391 . S
C775 C774 1.386 . S
C775 C779 1.393 . S
C776 H765 0.950 . S
C776 C774 1.391 . S
C776 C777 1.400 . S
C777 C771 1.491 . S
C777 C776 1.400 . S
C777 C778 1.398 . S
C778 H766 0.950 . S
C778 C777 1.398 . S
C778 C779 1.391 . S
C779 H767 0.950 1_554 S
C779 C775 1.393 . S
C779 C778 1.391 . S
H780 C788 0.950 . S
H781 C793 0.950 . S
H782 C790 0.950 . S
H783 C792 0.950 . S
H784 C794 0.950 . S
H785 C796 0.950 1_554 S
H786 C798 0.950 . S
H787 C799 0.950 . S
C788 H780 0.950 . S
C788 C789 1.386 1_455 S
C788 C790 1.391 . S
C789 C788 1.386 1_655 S
C789 C793 1.393 . S
C790 H782 0.950 . S
C790 C788 1.391 . S
C790 C791 1.400 1_455 S
C791 C790 1.400 1_655 S
C791 C792 1.398 . S
C791 C797 1.491 . S
C792 H783 0.950 . S
C792 C791 1.398 . S
C792 C793 1.391 . S
C793 H781 0.950 . S
C793 C789 1.393 . S
C793 C792 1.391 . S
C794 H784 0.950 . S
C794 C795 1.356 1_655 S
C794 C796 1.391 . S
C795 C794 1.356 1_455 S
C795 C799 1.427 . S
C796 H785 0.950 1_556 S
C796 C794 1.391 . S
C796 C797 1.400 1_556 S
C797 C791 1.491 . S
C797 C796 1.400 1_554 S
C797 C798 1.398 1_654 S
C798 H786 0.950 . S
C798 C797 1.398 1_456 S
C798 C799 1.391 . S
C799 H787 0.950 . S
C799 C795 1.427 . S
C799 C798 1.391 . S
H800 C808 0.939 1_655 S
H801 C813 0.950 . S
H802 C810 0.950 . S
H803 C812 0.950 . S
H804 C814 0.950 1_455 S
H805 C816 0.950 . S
H806 C818 0.950 . S
H807 C819 0.950 . S
C808 H800 0.939 1_455 S
C808 C809 1.402 . S
C808 C810 1.385 1_455 S
C809 C808 1.402 . S
C809 C813 1.393 . S
C810 H802 0.950 . S
C810 C808 1.385 1_655 S
C810 C811 1.400 1_655 S
C811 C810 1.400 1_455 S
C811 C812 1.398 . S
C811 C817 1.491 1_455 S
C812 H803 0.950 . S
C812 C811 1.398 . S
C812 C813 1.391 . S
C813 H801 0.950 . S
C813 C809 1.393 . S
C813 C812 1.391 . S
C814 H804 0.950 1_655 S
C814 C815 1.386 . S
C814 C816 1.391 1_655 S
C815 C814 1.386 . S
C815 C819 1.393 . S
C816 H805 0.950 . S
C816 C814 1.391 1_455 S
C816 C817 1.400 1_455 S
C817 C811 1.491 1_655 S
C817 C816 1.400 1_655 S
C817 C818 1.398 . S
C818 H806 0.950 . S
C818 C817 1.398 . S
C818 C819 1.391 . S
C819 H807 0.950 . S
C819 C815 1.393 . S
C819 C818 1.391 . S
H820 C828 0.950 . S
H821 C833 0.950 . S
H822 C830 0.950 . S
H823 C832 0.946 1_545 S
H824 C834 0.950 . S
H825 C836 0.950 . S
H826 C838 0.950 . S
H827 C839 0.950 . S
C828 H820 0.950 . S
C828 C829 1.386 1_565 S
C828 C830 1.391 . S
C829 C828 1.386 1_545 S
C829 C833 1.393 . S
C830 H822 0.950 . S
C830 C828 1.391 . S
C830 C831 1.400 . S
C831 C830 1.400 . S
C831 C832 1.410 . S
C831 C837 1.491 . S
C832 H823 0.946 1_565 S
C832 C831 1.410 . S
C832 C833 1.386 1_565 S
C833 H821 0.950 . S
C833 C829 1.393 . S
C833 C832 1.386 1_545 S
C834 H824 0.950 . S
C834 C835 1.386 . S
C834 C836 1.391 . S
C835 C834 1.386 . S
C835 C839 1.393 . S
C836 H825 0.950 . S
C836 C834 1.391 . S
C836 C837 1.400 . S
C837 C831 1.491 . S
C837 C836 1.400 . S
C837 C838 1.398 . S
C838 H826 0.950 . S
C838 C837 1.398 . S
C838 C839 1.391 . S
C839 H827 0.950 . S
C839 C835 1.393 . S
C839 C838 1.391 . S
H840 C848 0.950 . S
H841 C853 0.950 . S
H842 C850 0.950 . S
H843 C852 0.950 . S
H844 C854 0.950 . S
H845 C856 0.950 . S
H846 C858 0.950 . S
H847 C859 0.950 . S
C848 H840 0.950 . S
C848 C849 1.386 . S
C848 C850 1.391 . S
C849 C848 1.386 . S
C849 C853 1.393 . S
C850 H842 0.950 . S
C850 C848 1.391 . S
C850 C851 1.400 . S
C851 C850 1.400 . S
C851 C852 1.398 . S
C851 C857 1.491 . S
C852 H843 0.950 . S
C852 C851 1.398 . S
C852 C853 1.391 . S
C853 H841 0.950 . S
C853 C849 1.393 . S
C853 C852 1.391 . S
C854 H844 0.950 . S
C854 C855 1.386 . S
C854 C856 1.391 . S
C855 C854 1.386 . S
C855 C859 1.393 . S
C856 H845 0.950 . S
C856 C854 1.391 . S
C856 C857 1.400 . S
C857 C851 1.491 . S
C857 C856 1.400 . S
C857 C858 1.398 . S
C858 H846 0.950 . S
C858 C857 1.398 . S
C858 C859 1.391 . S
C859 H847 0.950 . S
C859 C855 1.393 . S
C859 C858 1.391 . S
H860 C868 0.950 . S
H861 C873 0.950 . S
H862 C870 0.950 . S
H863 C872 0.950 . S
H864 C874 0.950 . S
H865 C876 0.950 . S
H866 C878 0.950 . S
H867 C879 0.950 . S
C868 H860 0.950 . S
C868 C869 1.386 . S
C868 C870 1.391 . S
C869 C868 1.386 . S
C869 C873 1.393 . S
C870 H862 0.950 . S
C870 C868 1.391 . S
C870 C871 1.400 . S
C871 C870 1.400 . S
C871 C872 1.398 . S
C871 C877 1.491 . S
C872 H863 0.950 . S
C872 C871 1.398 . S
C872 C873 1.391 . S
C873 H861 0.950 . S
C873 C869 1.393 . S
C873 C872 1.391 . S
C874 H864 0.950 . S
C874 C875 1.386 . S
C874 C876 1.391 . S
C875 C874 1.386 . S
C875 C879 1.393 . S
C876 H865 0.950 . S
C876 C874 1.391 . S
C876 C877 1.400 . S
C877 C871 1.491 . S
C877 C876 1.400 . S
C877 C878 1.398 . S
C878 H866 0.950 . S
C878 C877 1.398 . S
C878 C879 1.391 . S
C879 H867 0.950 . S
C879 C875 1.393 . S
C879 C878 1.391 . S
H880 C888 0.950 . S
H881 C893 0.950 . S
H882 C890 0.950 . S
H883 C892 0.950 . S
H884 C894 0.962 . S
H885 C896 0.950 1_655 S
H886 C898 0.950 . S
H887 C899 0.950 . S
C888 H880 0.950 . S
C888 C889 1.386 1_455 S
C888 C890 1.391 . S
C889 C888 1.386 1_655 S
C889 C893 1.393 . S
C890 H882 0.950 . S
C890 C888 1.391 . S
C890 C891 1.400 . S
C891 C890 1.400 . S
C891 C892 1.398 1_455 S
C891 C897 1.491 . S
C892 H883 0.950 . S
C892 C891 1.398 1_655 S
C892 C893 1.391 . S
C893 H881 0.950 . S
C893 C889 1.393 . S
C893 C892 1.391 . S
C894 H884 0.962 . S
C894 C895 1.386 . S
C894 C896 1.391 . S
C895 C894 1.386 . S
C895 C899 1.393 1_556 S
C896 H885 0.950 1_455 S
C896 C894 1.391 . S
C896 C897 1.400 1_556 S
C897 C891 1.491 . S
C897 C896 1.400 1_554 S
C897 C898 1.398 . S
C898 H886 0.950 . S
C898 C897 1.398 . S
C898 C899 1.391 . S
C899 H887 0.950 . S
C899 C895 1.393 1_554 S
C899 C898 1.391 . S
H900 C908 0.950 . S
H901 C913 0.950 . S
H902 C910 0.950 . S
H903 C912 0.950 . S
H904 C914 0.950 1_554 S
H905 C916 0.950 . S
H906 C918 0.950 1_565 S
H907 C919 0.950 1_565 S
C908 H900 0.950 . S
C908 C909 1.386 . S
C908 C910 1.391 1_554 S
C909 C908 1.386 . S
C909 C913 1.393 1_565 S
C910 H902 0.950 . S
C910 C908 1.391 1_556 S
C910 C911 1.400 1_566 S
C911 C910 1.400 1_544 S
C911 C912 1.398 . S
C911 C917 1.491 1_554 S
C912 H903 0.950 . S
C912 C911 1.398 . S
C912 C913 1.391 . S
C913 H901 0.950 . S
C913 C909 1.393 1_545 S
C913 C912 1.391 . S
C914 H904 0.950 1_556 S
C914 C915 1.386 . S
C914 C916 1.391 1_556 S
C915 C914 1.386 . S
C915 C919 1.393 . S
C916 H905 0.950 . S
C916 C914 1.391 1_554 S
C916 C917 1.400 1_554 S
C917 C911 1.491 1_556 S
C917 C916 1.400 1_556 S
C917 C918 1.398 . S
C918 H906 0.950 1_545 S
C918 C917 1.398 . S
C918 C919 1.391 . S
C919 H907 0.950 1_545 S
C919 C915 1.393 . S
C919 C918 1.391 . S
H920 C928 0.950 . S
H921 C933 0.950 . S
H922 C930 0.950 . S
H923 C932 0.950 . S
H924 C934 0.950 . S
H925 C936 0.950 . S
H926 C938 0.950 . S
H927 C939 0.950 . S
C928 H920 0.950 . S
C928 C929 1.386 . S
C928 C930 1.391 . S
C929 C928 1.386 . S
C929 C933 1.393 . S
C930 H922 0.950 . S
C930 C928 1.391 . S
C930 C931 1.400 . S
C931 C930 1.400 . S
C931 C932 1.398 . S
C931 C937 1.491 . S
C932 H923 0.950 . S
C932 C931 1.398 . S
C932 C933 1.391 . S
C933 H921 0.950 . S
C933 C929 1.393 . S
C933 C932 1.391 . S
C934 H924 0.950 . S
C934 C935 1.386 . S
C934 C936 1.391 . S
C935 C934 1.386 . S
C935 C939 1.393 . S
C936 H925 0.950 . S
C936 C934 1.391 . S
C936 C937 1.400 . S
C937 C931 1.491 . S
C937 C936 1.400 . S
C937 C938 1.398 . S
C938 H926 0.950 . S
C938 C937 1.398 . S
C938 C939 1.391 . S
C939 H927 0.950 . S
C939 C935 1.393 . S
C939 C938 1.391 . S
H940 C948 0.950 . S
H941 C953 0.950 . S
H942 C950 0.950 . S
H943 C952 0.950 . S
H944 C954 0.950 . S
H945 C956 0.950 . S
H946 C958 0.950 . S
H947 C959 0.950 . S
C948 H940 0.950 . S
C948 C949 1.386 . S
C948 C950 1.391 . S
C949 C948 1.386 . S
C949 C953 1.393 . S
C950 H942 0.950 . S
C950 C948 1.391 . S
C950 C951 1.400 . S
C951 C950 1.400 . S
C951 C952 1.398 . S
C951 C957 1.491 . S
C952 H943 0.950 . S
C952 C951 1.398 . S
C952 C953 1.391 . S
C953 H941 0.950 . S
C953 C949 1.393 . S
C953 C952 1.391 . S
C954 H944 0.950 . S
C954 C955 1.386 . S
C954 C956 1.391 . S
C955 C954 1.386 . S
C955 C959 1.393 1_554 S
C956 H945 0.950 . S
C956 C954 1.391 . S
C956 C957 1.400 . S
C957 C951 1.491 . S
C957 C956 1.400 . S
C957 C958 1.398 . S
C958 H946 0.950 . S
C958 C957 1.398 . S
C958 C959 1.391 1_554 S
C959 H947 0.950 . S
C959 C955 1.393 1_556 S
C959 C958 1.391 1_556 S
H960 C968 0.950 . S
H961 C973 0.950 . S
H962 C970 0.950 . S
H963 C972 0.950 . S
H964 C974 0.950 . S
H965 C976 0.950 . S
H966 C978 0.950 . S
H967 C979 0.950 . S
C968 H960 0.950 . S
C968 C969 1.386 1_655 S
C968 C970 1.391 . S
C969 C968 1.386 1_455 S
C969 C973 1.393 . S
C970 H962 0.950 . S
C970 C968 1.391 . S
C970 C971 1.400 1_655 S
C971 C970 1.400 1_455 S
C971 C972 1.398 . S
C971 C977 1.491 . S
C972 H963 0.950 . S
C972 C971 1.398 . S
C972 C973 1.391 . S
C973 H961 0.950 . S
C973 C969 1.393 . S
C973 C972 1.391 . S
C974 H964 0.950 . S
C974 C975 1.386 . S
C974 C976 1.391 . S
C975 C974 1.386 . S
C975 C979 1.393 1_455 S
C976 H965 0.950 . S
C976 C974 1.391 . S
C976 C977 1.400 . S
C977 C971 1.491 . S
C977 C976 1.400 . S
C977 C978 1.398 1_455 S
C978 H966 0.950 . S
C978 C977 1.398 1_655 S
C978 C979 1.391 . S
C979 H967 0.950 . S
C979 C975 1.393 1_655 S
C979 C978 1.391 . S
H980 C988 0.950 . S
H981 C993 0.950 . S
H982 C990 0.950 . S
H983 C992 0.950 . S
H984 C994 0.950 . S
H985 C996 0.950 . S
H986 C998 0.950 . S
H987 C999 0.950 . S
C988 H980 0.950 . S
C988 C989 1.386 . S
C988 C990 1.391 . S
C989 C988 1.386 . S
C989 C993 1.393 1_545 S
C990 H982 0.950 . S
C990 C988 1.391 . S
C990 C991 1.400 . S
C991 C990 1.400 . S
C991 C992 1.398 1_545 S
C991 C997 1.491 . S
C992 H983 0.950 . S
C992 C991 1.398 1_565 S
C992 C993 1.391 . S
C993 H981 0.950 . S
C993 C989 1.393 1_565 S
C993 C992 1.391 . S
C994 H984 0.950 . S
C994 C995 1.386 1_565 S
C994 C996 1.391 . S
C995 C994 1.386 1_545 S
C995 C999 1.393 . S
C996 H985 0.950 . S
C996 C994 1.391 . S
C996 C997 1.400 1_565 S
C997 C991 1.491 . S
C997 C996 1.400 1_545 S
C997 C998 1.398 . S
C998 H986 0.950 . S
C998 C997 1.398 . S
C998 C999 1.391 . S
C999 H987 0.950 . S
C999 C995 1.393 . S
C999 C998 1.391 . S
H1000 C1008 0.950 . S
H1001 C1013 0.950 . S
H1002 C1010 0.950 . S
H1003 C1012 0.950 . S
H1004 C1014 0.950 . S
H1005 C1016 0.950 1_554 S
H1006 C1018 0.950 . S
H1007 C1019 0.950 . S
C1008 H1000 0.950 . S
C1008 C1009 1.386 1_556 S
C1008 C1010 1.391 . S
C1009 C1008 1.386 1_554 S
C1009 C1013 1.393 . S
C1010 H1002 0.950 . S
C1010 C1008 1.391 . S
C1010 C1011 1.400 . S
C1011 C1010 1.400 . S
C1011 C1012 1.398 1_556 S
C1011 C1017 1.491 . S
C1012 H1003 0.950 . S
C1012 C1011 1.398 1_554 S
C1012 C1013 1.391 . S
C1013 H1001 0.950 . S
C1013 C1009 1.393 . S
C1013 C1012 1.391 . S
C1014 H1004 0.950 . S
C1014 C1015 1.386 . S
C1014 C1016 1.391 . S
C1015 C1014 1.386 . S
C1015 C1019 1.393 . S
C1016 H1005 0.950 1_556 S
C1016 C1014 1.391 . S
C1016 C1017 1.400 . S
C1017 C1011 1.491 . S
C1017 C1016 1.400 . S
C1017 C1018 1.398 . S
C1018 H1006 0.950 . S
C1018 C1017 1.398 . S
C1018 C1019 1.391 . S
C1019 H1007 0.950 . S
C1019 C1015 1.393 . S
C1019 C1018 1.391 . S
H1020 C1028 0.950 . S
H1021 C1033 0.950 . S
H1022 C1030 0.950 . S
H1023 C1032 0.950 . S
H1024 C1034 0.950 . S
H1025 C1036 0.950 . S
H1026 C1038 0.950 . S
H1027 C1039 0.950 . S
C1028 H1020 0.950 . S
C1028 C1029 1.386 . S
C1028 C1030 1.391 . S
C1029 C1028 1.386 . S
C1029 C1033 1.393 . S
C1030 H1022 0.950 . S
C1030 C1028 1.391 . S
C1030 C1031 1.400 . S
C1031 C1030 1.400 . S
C1031 C1032 1.398 . S
C1031 C1037 1.491 . S
C1032 H1023 0.950 . S
C1032 C1031 1.398 . S
C1032 C1033 1.391 . S
C1033 H1021 0.950 . S
C1033 C1029 1.393 . S
C1033 C1032 1.391 . S
C1034 H1024 0.950 . S
C1034 C1035 1.386 . S
C1034 C1036 1.391 . S
C1035 C1034 1.386 . S
C1035 C1039 1.393 . S
C1036 H1025 0.950 . S
C1036 C1034 1.391 . S
C1036 C1037 1.400 . S
C1037 C1031 1.491 . S
C1037 C1036 1.400 . S
C1037 C1038 1.398 . S
C1038 H1026 0.950 . S
C1038 C1037 1.398 . S
C1038 C1039 1.391 . S
C1039 H1027 0.950 . S
C1039 C1035 1.393 . S
C1039 C1038 1.391 . S
H1040 C1048 0.950 . S
H1041 C1053 0.950 . S
H1042 C1050 0.950 . S
H1043 C1052 0.950 . S
H1044 C1054 0.950 . S
H1045 C1056 0.950 . S
H1046 C1058 0.950 . S
H1047 C1059 0.950 . S
C1048 H1040 0.950 . S
C1048 C1049 1.386 . S
C1048 C1050 1.391 . S
C1049 C1048 1.386 . S
C1049 C1053 1.393 1_655 S
C1050 H1042 0.950 . S
C1050 C1048 1.391 . S
C1050 C1051 1.400 . S
C1051 C1050 1.400 . S
C1051 C1052 1.398 1_655 S
C1051 C1057 1.491 . S
C1052 H1043 0.950 . S
C1052 C1051 1.398 1_455 S
C1052 C1053 1.391 . S
C1053 H1041 0.950 . S
C1053 C1049 1.393 1_455 S
C1053 C1052 1.391 . S
C1054 H1044 0.950 . S
C1054 C1055 1.386 1_455 S
C1054 C1056 1.391 . S
C1055 C1054 1.386 1_655 S
C1055 C1059 1.393 . S
C1056 H1045 0.950 . S
C1056 C1054 1.391 . S
C1056 C1057 1.400 1_455 S
C1057 C1051 1.491 . S
C1057 C1056 1.400 1_655 S
C1057 C1058 1.398 . S
C1058 H1046 0.950 . S
C1058 C1057 1.398 . S
C1058 C1059 1.391 . S
C1059 H1047 0.950 . S
C1059 C1055 1.393 . S
C1059 C1058 1.391 . S
H1060 C1068 0.950 . S
H1061 C1073 0.950 . S
H1062 C1070 0.950 . S
H1063 C1072 0.950 . S
H1064 C1074 0.950 . S
H1065 C1076 0.950 . S
H1066 C1078 0.950 . S
H1067 C1079 0.950 . S
C1068 H1060 0.950 . S
C1068 C1069 1.403 . S
C1068 C1070 1.391 . S
C1069 C1068 1.403 . S
C1069 C1073 1.381 1_565 S
C1070 H1062 0.950 . S
C1070 C1068 1.391 . S
C1070 C1071 1.400 . S
C1071 C1070 1.400 . S
C1071 C1072 1.398 1_565 S
C1071 C1077 1.491 . S
C1072 H1063 0.950 . S
C1072 C1071 1.398 1_545 S
C1072 C1073 1.391 . S
C1073 H1061 0.950 . S
C1073 C1069 1.381 1_545 S
C1073 C1072 1.391 . S
C1074 H1064 0.950 . S
C1074 C1075 1.386 1_545 S
C1074 C1076 1.391 . S
C1075 C1074 1.386 1_565 S
C1075 C1079 1.393 . S
C1076 H1065 0.950 . S
C1076 C1074 1.391 . S
C1076 C1077 1.400 1_545 S
C1077 C1071 1.491 . S
C1077 C1076 1.400 1_565 S
C1077 C1078 1.398 . S
C1078 H1066 0.950 . S
C1078 C1077 1.398 . S
C1078 C1079 1.391 . S
C1079 H1067 0.950 . S
C1079 C1075 1.393 . S
C1079 C1078 1.391 . S
H1080 C1088 0.950 . S
H1081 C1093 0.950 . S
H1082 C1090 0.950 . S
H1083 C1092 0.950 . S
H1084 C1094 0.950 . S
H1085 C1096 0.950 . S
H1086 C1098 0.950 . S
H1087 C1099 0.950 . S
C1088 H1080 0.950 . S
C1088 C1089 1.386 . S
C1088 C1090 1.391 . S
C1089 C1088 1.386 . S
C1089 C1093 1.393 . S
C1090 H1082 0.950 . S
C1090 C1088 1.391 . S
C1090 C1091 1.400 . S
C1091 C1090 1.400 . S
C1091 C1092 1.398 . S
C1091 C1097 1.491 . S
C1092 H1083 0.950 . S
C1092 C1091 1.398 . S
C1092 C1093 1.391 . S
C1093 H1081 0.950 . S
C1093 C1089 1.393 . S
C1093 C1092 1.391 . S
C1094 H1084 0.950 . S
C1094 C1095 1.386 . S
C1094 C1096 1.391 . S
C1095 C1094 1.386 . S
C1095 C1099 1.393 . S
C1096 H1085 0.950 . S
C1096 C1094 1.391 . S
C1096 C1097 1.400 . S
C1097 C1091 1.491 . S
C1097 C1096 1.400 . S
C1097 C1098 1.398 . S
C1098 H1086 0.950 . S
C1098 C1097 1.398 . S
C1098 C1099 1.391 . S
C1099 H1087 0.950 . S
C1099 C1095 1.393 . S
C1099 C1098 1.391 . S
H1100 C1108 0.950 . S
H1101 C1113 0.950 . S
H1102 C1110 0.950 . S
H1103 C1112 0.950 . S
H1104 C1114 0.950 . S
H1105 C1116 0.950 . S
H1106 C1118 0.950 . S
H1107 C1119 0.950 . S
C1108 H1100 0.950 . S
C1108 C1109 1.386 . S
C1108 C1110 1.391 . S
C1109 C1108 1.386 . S
C1109 C1113 1.393 . S
C1110 H1102 0.950 . S
C1110 C1108 1.391 . S
C1110 C1111 1.400 . S
C1111 C1110 1.400 . S
C1111 C1112 1.398 . S
C1111 C1117 1.491 . S
C1112 H1103 0.950 . S
C1112 C1111 1.398 . S
C1112 C1113 1.391 . S
C1113 H1101 0.950 . S
C1113 C1109 1.393 . S
C1113 C1112 1.391 . S
C1114 H1104 0.950 . S
C1114 C1115 1.386 . S
C1114 C1116 1.391 . S
C1115 C1114 1.386 . S
C1115 C1119 1.393 . S
C1116 H1105 0.950 . S
C1116 C1114 1.391 . S
C1116 C1117 1.400 . S
C1117 C1111 1.491 . S
C1117 C1116 1.400 . S
C1117 C1118 1.398 . S
C1118 H1106 0.950 . S
C1118 C1117 1.398 . S
C1118 C1119 1.391 . S
C1119 H1107 0.950 . S
C1119 C1115 1.393 . S
C1119 C1118 1.391 . S
C649 C391 2.110 1_565 S
C655 C482 2.123 1_545 S
C675 C522 2.147 . S
C669 C451 2.146 . S
C695 C586 2.496 . S
C689 C241 2.185 . S
C715 C602 2.161 . S
C709 C331 1.783 . S
C735 C503 2.122 . S
C729 C121 1.882 . S
C749 C211 2.093 . S
C755 C543 2.155 . S
C769 C31 2.492 . S
C775 C577 2.495 1_554 S
C789 C91 1.790 . S
C795 C623 2.161 . S
C815 C497 0.436 . S
C809 C301 0.506 . S
C835 C537 0.574 . S
C829 C380 0.510 . S
C855 C573 0.516 . S
C849 C440 0.377 . S
C869 C260 0.659 . S
C875 C617 0.636 . S
C889 C61 0.431 . S
C895 C506 0.388 . S
C915 C546 0.554 . S
C909 C140 0.551 . S
C935 C584 0.502 . S
C929 C200 0.522 . S
C949 C20 0.701 . S
C955 C626 0.694 1_554 S
C969 C320 2.751 . S
C975 C504 2.923 . S
C989 C361 2.204 . S
C995 C544 2.712 . S
C1015 C562 1.963 . S
C1009 C421 1.784 . S
C1035 C624 3.323 . S
C1029 C271 3.088 . S
C1049 C80 2.752 . S
C1055 C493 2.934 . S
C1075 C533 2.719 . S
C1069 C151 2.565 . S
C1095 C583 1.946 . S
C1089 C181 1.720 . S
C1109 C1 2.703 . S
C1115 C613 3.324 . S
