# Generated by pormake.
# Topology pto, (3,4)-cn, num edge types: 1
# Building blocks:
#     Node 0, Type 0, BuildingBlock: BETDAH_clean_linker_0, # of connection points: 3
#     Node 1, Type 0, BuildingBlock: BETDAH_clean_linker_0, # of connection points: 3
#     Node 2, Type 0, BuildingBlock: BETDAH_clean_linker_0, # of connection points: 3
#     Node 3, Type 0, BuildingBlock: BETDAH_clean_linker_0, # of connection points: 3
#     Node 4, Type 0, BuildingBlock: BETDAH_clean_linker_0, # of connection points: 3
#     Node 5, Type 0, BuildingBlock: BETDAH_clean_linker_0, # of connection points: 3
#     Node 6, Type 0, BuildingBlock: BETDAH_clean_linker_0, # of connection points: 3
#     Node 7, Type 0, BuildingBlock: BETDAH_clean_linker_0, # of connection points: 3
#     Node 8, Type 1, BuildingBlock: NAWXER_clean_sbu_0, # of connection points: 4
#     Node 9, Type 1, BuildingBlock: NAWXER_clean_sbu_0, # of connection points: 4
#     Node 10, Type 1, BuildingBlock: NAWXER_clean_sbu_0, # of connection points: 4
#     Node 11, Type 1, BuildingBlock: NAWXER_clean_sbu_0, # of connection points: 4
#     Node 12, Type 1, BuildingBlock: NAWXER_clean_sbu_0, # of connection points: 4
#     Node 13, Type 1, BuildingBlock: NAWXER_clean_sbu_0, # of connection points: 4
#     Edge 14, Type (0, 1), BuildingBlock: KIFKEQ_clean_linker_1, # of connection points: 2
#     Edge 15, Type (0, 1), BuildingBlock: KIFKEQ_clean_linker_1, # of connection points: 2
#     Edge 16, Type (0, 1), BuildingBlock: KIFKEQ_clean_linker_1, # of connection points: 2
#     Edge 17, Type (0, 1), BuildingBlock: KIFKEQ_clean_linker_1, # of connection points: 2
#     Edge 18, Type (0, 1), BuildingBlock: KIFKEQ_clean_linker_1, # of connection points: 2
#     Edge 19, Type (0, 1), BuildingBlock: KIFKEQ_clean_linker_1, # of connection points: 2
#     Edge 20, Type (0, 1), BuildingBlock: KIFKEQ_clean_linker_1, # of connection points: 2
#     Edge 21, Type (0, 1), BuildingBlock: KIFKEQ_clean_linker_1, # of connection points: 2
#     Edge 22, Type (0, 1), BuildingBlock: KIFKEQ_clean_linker_1, # of connection points: 2
#     Edge 23, Type (0, 1), BuildingBlock: KIFKEQ_clean_linker_1, # of connection points: 2
#     Edge 24, Type (0, 1), BuildingBlock: KIFKEQ_clean_linker_1, # of connection points: 2
#     Edge 25, Type (0, 1), BuildingBlock: KIFKEQ_clean_linker_1, # of connection points: 2
#     Edge 26, Type (0, 1), BuildingBlock: KIFKEQ_clean_linker_1, # of connection points: 2
#     Edge 27, Type (0, 1), BuildingBlock: KIFKEQ_clean_linker_1, # of connection points: 2
#     Edge 28, Type (0, 1), BuildingBlock: KIFKEQ_clean_linker_1, # of connection points: 2
#     Edge 29, Type (0, 1), BuildingBlock: KIFKEQ_clean_linker_1, # of connection points: 2
#     Edge 30, Type (0, 1), BuildingBlock: KIFKEQ_clean_linker_1, # of connection points: 2
#     Edge 31, Type (0, 1), BuildingBlock: KIFKEQ_clean_linker_1, # of connection points: 2
#     Edge 32, Type (0, 1), BuildingBlock: KIFKEQ_clean_linker_1, # of connection points: 2
#     Edge 33, Type (0, 1), BuildingBlock: KIFKEQ_clean_linker_1, # of connection points: 2
#     Edge 34, Type (0, 1), BuildingBlock: KIFKEQ_clean_linker_1, # of connection points: 2
#     Edge 35, Type (0, 1), BuildingBlock: KIFKEQ_clean_linker_1, # of connection points: 2
#     Edge 36, Type (0, 1), BuildingBlock: KIFKEQ_clean_linker_1, # of connection points: 2
#     Edge 37, Type (0, 1), BuildingBlock: KIFKEQ_clean_linker_1, # of connection points: 2
# Relax obj value: 0.010
# Max RMSD: 0.137
# Mean RMSD: 0.057
data_MOF--net-pto--node1-NAWXER_clean_sbu_0--node2-BETDAH_clean_linker_0--edge1-KIFKEQ_clean_linker_1
_symmetry_space_group_name_H-M    P1
_symmetry_Int_Tables_number       1
_symmetry_cell_setting            triclinic
loop_
_symmetry_equiv_pos_as_xyz
'x, y, z'
_cell_length_a     43.435083
_cell_length_b     39.906291
_cell_length_c     38.558887
_cell_angle_alpha  109.09095
_cell_angle_beta   95.270822
_cell_angle_gamma 99.362249
loop_
_atom_site_label
_atom_site_type_symbol
_atom_site_fract_x
_atom_site_fract_y
_atom_site_fract_z
_atom_type_partial_charge
H0 H 0.30743 0.20659 0.41383 0.0
H1 H 0.3162 0.31889 0.42421 0.0
H2 H 0.27069 0.27996 0.50132 0.0
C3 C 0.30262 0.23322 0.42727 0.0
C4 C 0.28734 0.2395 0.45878 0.0
C5 C 0.31322 0.26161 0.41427 0.0
C6 C 0.30721 0.29623 0.43259 0.0
C7 C 0.29165 0.30257 0.46364 0.0
C8 C 0.2819 0.27436 0.47663 0.0
N9 N 0.28982 0.33827 0.48514 0.0
C10 C 0.26703 0.35557 0.47529 0.0
H11 H 0.29814 0.70883 0.88853 0.0
H12 H 0.35183 0.75389 0.82035 0.0
H13 H 0.25098 0.74365 0.80694 0.0
C14 C 0.29905 0.721 0.86719 0.0
C15 C 0.271 0.7254 0.84942 0.0
C16 C 0.32825 0.7315 0.85705 0.0
C17 C 0.32937 0.74633 0.8288 0.0
C18 C 0.30178 0.75114 0.81091 0.0
C19 C 0.27249 0.74074 0.82128 0.0
N20 N 0.30438 0.76408 0.78094 0.0
C21 C 0.28557 0.78568 0.77127 0.0
H22 H 0.84832 0.72954 0.42848 0.0
H23 H 0.76265 0.71266 0.35363 0.0
H24 H 0.81649 0.62914 0.33645 0.0
C25 C 0.83159 0.71263 0.40395 0.0
C26 C 0.83587 0.6777 0.38395 0.0
C27 C 0.80506 0.7253 0.39338 0.0
C28 C 0.78306 0.70304 0.36191 0.0
C29 C 0.78738 0.66831 0.34143 0.0
C30 C 0.81343 0.65587 0.3528 0.0
N31 N 0.76582 0.64464 0.30966 0.0
C32 C 0.74531 0.65564 0.28777 0.0
H33 H 0.83001 0.28723 0.91495 0.0
H34 H 0.74607 0.25238 0.95598 0.0
H35 H 0.80482 0.35795 0.0137 0.0
C36 C 0.81437 0.29204 0.93562 0.0
C37 C 0.82083 0.32539 0.96491 0.0
C38 C 0.78735 0.26553 0.93189 0.0
C39 C 0.76672 0.27274 0.95833 0.0
C40 C 0.7732 0.30609 0.9881 0.0
C41 C 0.80002 0.33225 0.99088 0.0
N42 N 0.75363 0.31457 0.01599 0.0
C43 C 0.72632 0.29208 0.01802 0.0
H44 H 0.80664 0.70236 0.89001 0.0
H45 H 0.84274 0.69577 0.78836 0.0
H46 H 0.77749 0.76492 0.82502 0.0
C47 C 0.80807 0.71118 0.86633 0.0
C48 C 0.78935 0.73523 0.86071 0.0
C49 C 0.82724 0.6967 0.8402 0.0
C50 C 0.828 0.70675 0.80871 0.0
C51 C 0.81095 0.73198 0.80375 0.0
C52 C 0.79153 0.74624 0.82965 0.0
N53 N 0.81278 0.74115 0.77146 0.0
C54 C 0.81629 0.77643 0.77185 0.0
H55 H 0.79606 0.32688 0.38735 0.0
H56 H 0.84133 0.25018 0.41801 0.0
H57 H 0.74034 0.22896 0.39135 0.0
C58 C 0.79439 0.30173 0.39281 0.0
C59 C 0.7646 0.27974 0.38875 0.0
C60 C 0.82218 0.29107 0.40281 0.0
C61 C 0.82004 0.25865 0.41031 0.0
C62 C 0.79037 0.23662 0.40671 0.0
C63 C 0.76297 0.24691 0.39532 0.0
N64 N 0.78733 0.20296 0.41231 0.0
C65 C 0.80566 0.19739 0.44059 0.0
H66 H 0.353 0.28292 0.92842 0.0
H67 H 0.30554 0.36338 0.99088 0.0
H68 H 0.27343 0.30864 0.87399 0.0
C69 C 0.3351 0.29902 0.92899 0.0
C70 C 0.31382 0.29258 0.89658 0.0
C71 C 0.33238 0.32457 0.96296 0.0
C72 C 0.30804 0.34381 0.96464 0.0
C73 C 0.28685 0.33833 0.9328 0.0
C74 C 0.28985 0.31289 0.89864 0.0
N75 N 0.2625 0.35842 0.93684 0.0
C76 C 0.24107 0.35914 0.90817 0.0
H77 H 0.27844 0.74233 0.36172 0.0
H78 H 0.35677 0.76724 0.30794 0.0
H79 H 0.2942 0.66245 0.26226 0.0
C80 C 0.29215 0.73398 0.33942 0.0
C81 C 0.28304 0.69922 0.31233 0.0
C82 C 0.31867 0.75836 0.33791 0.0
C83 C 0.33631 0.74821 0.30892 0.0
C84 C 0.32728 0.7135 0.28135 0.0
C85 C 0.30077 0.68926 0.2833 0.0
N86 N 0.34429 0.70184 0.25141 0.0
C87 C 0.36857 0.72403 0.24334 0.0
C88 C 0.01396 0.45507 0.37806 0.0
C89 C 0.09319 0.54197 0.35174 0.0
O90 O 0.02806 0.48193 0.40692 0.0
Zn91 Zn 0.06386 0.52995 0.42131 0.0
O92 O 0.02131 0.45305 0.34632 0.0
Zn93 Zn 0.0531 0.49762 0.3632 0.0
O94 O 0.08923 0.48405 0.39425 0.0
O95 O 0.09659 0.52024 0.45275 0.0
O96 O 0.076 0.51317 0.32816 0.0
O97 O 0.09037 0.55045 0.38617 0.0
O98 O 0.04041 0.56779 0.44169 0.0
O99 O 0.0248 0.53736 0.38184 0.0
C100 C 0.10374 0.49417 0.42758 0.0
C101 C 0.02193 0.56207 0.41183 0.0
C102 C 1.00273 0.49359 0.92852 0.0
C103 C 0.08114 0.5833 0.90452 0.0
O104 O 0.02356 0.51848 0.95264 0.0
Zn105 Zn 0.04356 0.53813 0.9181 0.0
O106 O 1.00268 0.48854 0.89395 0.0
Zn107 Zn 0.02876 0.51091 0.85952 0.0
O108 O 0.04956 0.47237 0.83299 0.0
O109 O 0.06991 0.49907 0.89226 0.0
O110 O 0.06499 0.55896 0.87492 0.0
O111 O 0.07653 0.58181 0.93616 0.0
O112 O 1.00532 0.55525 0.89353 0.0
O113 O 0.99555 0.5242 0.83315 0.0
C114 C 0.07022 0.47596 0.86022 0.0
C115 C 0.98925 0.54793 0.86138 0.0
C116 C 0.27024 0.96588 0.64853 0.0
C117 C 0.27295 0.04894 0.57824 0.0
O118 O 0.24657 0.97161 0.63093 0.0
Zn119 Zn 0.2699 0.00611 0.61185 0.0
O120 O 0.29817 0.98171 0.64762 0.0
Zn121 Zn 0.3207 0.01854 0.62352 0.0
O122 O 0.34252 0.05936 0.66662 0.0
O123 O 0.29046 0.05115 0.66149 0.0
O124 O 0.30011 0.04645 0.59197 0.0
O125 O 0.24818 0.02969 0.58252 0.0
O126 O 0.29282 0.97283 0.57157 0.0
O127 O 0.34441 0.98976 0.58894 0.0
C128 C 0.31793 0.06891 0.67897 0.0
C129 C 0.32078 0.96904 0.56552 0.0
C130 C 0.6036 0.70112 0.09369 0.0
C131 C 0.527 0.70996 0.99766 0.0
O132 O 0.58502 0.67542 0.06776 0.0
Zn133 Zn 0.56615 0.70458 0.04372 0.0
O134 O 0.60425 0.73386 0.09547 0.0
Zn135 Zn 0.58126 0.7621 0.06582 0.0
O136 O 0.56054 0.79138 0.10421 0.0
O137 O 0.53999 0.73269 0.08389 0.0
O138 O 0.54361 0.74094 0.0186 0.0
O139 O 0.53243 0.68123 1.00234 0.0
O140 O 0.60332 0.7258 0.01916 0.0
O141 O 0.61579 0.78511 0.04738 0.0
C142 C 0.53979 0.76508 0.10462 0.0
C143 C 0.62025 0.75666 0.02302 0.0
C144 C 0.82778 0.98613 0.68665 0.0
C145 C 0.82893 0.06951 0.61751 0.0
O146 O 0.8004 0.98661 0.67144 0.0
Zn147 Zn 0.77927 0.01241 0.63729 0.0
O148 O 0.85229 0.00572 0.6822 0.0
Zn149 Zn 0.82997 0.0274 0.65201 0.0
O150 O 0.80395 0.05702 0.69158 0.0
O151 O 0.75277 0.03866 0.67013 0.0
O152 O 0.85278 0.06314 0.63407 0.0
O153 O 0.8012 0.05243 0.61718 0.0
O154 O 0.76106 0.97095 0.59193 0.0
O155 O 0.81305 0.98137 0.60304 0.0
C156 C 0.77525 0.05887 0.69566 0.0
C157 C 0.78691 0.96221 0.58303 0.0
C158 C 0.56528 0.31022 0.26188 0.0
C159 C 0.48258 0.31845 0.17239 0.0
O160 O 0.54907 0.27922 0.24077 0.0
Zn161 Zn 0.51075 0.25753 0.19575 0.0
O162 O 0.55873 0.33883 0.25806 0.0
Zn163 Zn 0.52376 0.31544 0.21763 0.0
O164 O 0.48756 0.29203 0.24217 0.0
O165 O 0.47886 0.23252 0.216 0.0
O166 O 0.50224 0.34465 0.1966 0.0
O167 O 0.48346 0.28572 0.16973 0.0
O168 O 0.53109 0.23051 0.15524 0.0
O169 O 0.54679 0.2898 0.17267 0.0
C170 C 0.47248 0.26053 0.23923 0.0
C171 C 0.5479 0.25792 0.15134 0.0
H172 H 0.22408 0.37813 0.51862 0.0
H173 H 0.25816 0.3782 0.41714 0.0
H174 H 0.18493 0.41303 0.50816 0.0
H175 H 0.21953 0.41369 0.40671 0.0
H176 H 0.1235 0.43852 0.37865 0.0
H177 H 0.16303 0.40566 0.39077 0.0
H178 H 0.18014 0.47297 0.50679 0.0
H179 H 0.13977 0.5058 0.49474 0.0
C180 C 0.22308 0.38574 0.49408 0.0
C181 C 0.2437 0.37549 0.46847 0.0
C182 C 0.20093 0.40595 0.48823 0.0
C183 C 0.19908 0.4162 0.45661 0.0
C184 C 0.22003 0.40586 0.43109 0.0
C185 C 0.24217 0.38568 0.43701 0.0
C186 C 0.13564 0.4465 0.40683 0.0
C187 C 0.12841 0.4749 0.43576 0.0
C188 C 0.15853 0.42771 0.41369 0.0
C189 C 0.17491 0.43674 0.44969 0.0
C190 C 0.16774 0.46513 0.47876 0.0
C191 C 0.14474 0.48407 0.47186 0.0
H192 H 0.2198 0.67921 0.80199 0.0
H193 H 0.25346 0.73937 0.91817 0.0
H194 H 0.17242 0.6495 0.81768 0.0
H195 H 0.20526 0.71113 0.93422 0.0
H196 H 0.13731 0.61748 0.95047 0.0
H197 H 0.18143 0.65624 0.9384 0.0
H198 H 0.12442 0.6523 0.83849 0.0
H199 H 0.08129 0.6119 0.84964 0.0
C200 C 0.21657 0.68678 0.83087 0.0
C201 C 0.24027 0.7115 0.85885 0.0
C202 C 0.1893 0.66985 0.84001 0.0
C203 C 0.18479 0.67767 0.87738 0.0
C204 C 0.20805 0.70372 0.90523 0.0
C205 C 0.23557 0.72019 0.89608 0.0
C206 C 0.13419 0.6254 0.92626 0.0
C207 C 0.10603 0.61143 0.90082 0.0
C208 C 0.15945 0.64777 0.9193 0.0
C209 C 0.15686 0.6572 0.88708 0.0
C210 C 0.12782 0.64487 0.86296 0.0
C211 C 0.1029 0.62195 0.86952 0.0
H212 H 0.89778 0.714 0.40906 0.0
H213 H 0.83677 0.6094 0.38409 0.0
H214 H 0.94371 0.68832 0.4203 0.0
H215 H 0.88255 0.58386 0.39426 0.0
H216 H 0.97184 0.54454 0.35717 0.0
H217 H 0.92777 0.57467 0.35554 0.0
H218 H 0.96826 0.6549 0.4628 0.0
H219 H 0.01286 0.62425 0.46482 0.0
C220 C 0.89406 0.68575 0.40653 0.0
C221 C 0.86358 0.66362 0.39498 0.0
C222 C 0.92037 0.67109 0.41293 0.0
C223 C 0.91669 0.63402 0.40764 0.0
C224 C 0.88613 0.6124 0.39791 0.0
C225 C 0.85992 0.62703 0.39189 0.0
C226 C 0.97159 0.56865 0.38048 0.0
C227 C 0.99593 0.58193 0.4112 0.0
C228 C 0.94616 0.58578 0.37959 0.0
C229 C 0.94446 0.61692 0.40916 0.0
C230 C 0.96905 0.6309 0.43963 0.0
C231 C 0.99445 0.61332 0.44082 0.0
H232 H 0.82234 0.39529 0.96966 0.0
H233 H 0.88223 0.31807 0.9649 0.0
H234 H 0.86752 0.43921 0.96633 0.0
H235 H 0.92758 0.36234 0.96238 0.0
H236 H 1.00426 0.471 0.98886 0.0
H237 H 0.96087 0.43237 0.00367 0.0
H238 H 0.89976 0.43023 0.90789 0.0
H239 H 0.94286 0.46749 0.89252 0.0
C240 C 0.84531 0.38806 0.96872 0.0
C241 C 0.84884 0.35331 0.96735 0.0
C242 C 0.87107 0.41309 0.96676 0.0
C243 C 0.90095 0.40409 0.96421 0.0
C244 C 0.90484 0.36999 0.96468 0.0
C245 C 0.87892 0.34467 0.96586 0.0
C246 C 0.98149 0.46232 0.97118 0.0
C247 C 0.97695 0.47196 0.93942 0.0
C248 C 0.95679 0.44027 0.97958 0.0
C249 C 0.92703 0.42859 0.95697 0.0
C250 C 0.92239 0.43912 0.9259 0.0
C251 C 0.94714 0.46022 0.91701 0.0
H252 H 0.29889 0.24719 0.53182 0.0
H253 H 0.26018 0.16722 0.42365 0.0
H254 H 0.29107 0.20043 0.55959 0.0
H255 H 0.25279 0.11995 0.45178 0.0
H256 H 0.2227 0.05524 0.53271 0.0
H257 H 0.22235 0.10079 0.50232 0.0
H258 H 0.31981 0.14797 0.55101 0.0
H259 H 0.32039 0.10321 0.58076 0.0
C260 C 0.28818 0.21971 0.51402 0.0
C261 C 0.28016 0.21094 0.4755 0.0
C262 C 0.28391 0.19289 0.52993 0.0
C263 C 0.27146 0.15658 0.5078 0.0
C264 C 0.26227 0.14779 0.46946 0.0
C265 C 0.26678 0.17474 0.45338 0.0
C266 C 0.24397 0.07538 0.53682 0.0
C267 C 0.27153 0.07559 0.55919 0.0
C268 C 0.2438 0.10126 0.51934 0.0
C269 C 0.271 0.12803 0.52463 0.0
C270 C 0.29841 0.12797 0.54682 0.0
C271 C 0.29872 0.10209 0.56372 0.0
H272 H 0.37911 0.78362 0.89678 0.0
H273 H 0.34345 0.66834 0.85846 0.0
H274 H 0.42754 0.7762 0.92792 0.0
H275 H 0.39277 0.66006 0.88728 0.0
H276 H 0.47041 0.6623 0.97754 0.0
H277 H 0.42258 0.66636 0.9423 0.0
H278 H 0.47466 0.75813 0.92145 0.0
H279 H 0.5217 0.75537 0.95903 0.0
C280 C 0.38197 0.7566 0.89474 0.0
C281 C 0.35769 0.72658 0.87549 0.0
C282 C 0.40987 0.75216 0.91221 0.0
C283 C 0.41452 0.71741 0.91006 0.0
C284 C 0.39008 0.68731 0.89026 0.0
C285 C 0.36185 0.69192 0.87352 0.0
C286 C 0.47162 0.68298 0.96493 0.0
C287 C 0.49967 0.70861 0.97111 0.0
C288 C 0.44417 0.68534 0.94457 0.0
C289 C 0.44433 0.71293 0.9292 0.0
C290 C 0.4731 0.73722 0.93373 0.0
C291 C 0.50027 0.73541 0.95489 0.0
H292 H 0.7524 0.74197 0.42309 0.0
H293 H 0.84657 0.78993 0.41475 0.0
H294 H 0.74637 0.80032 0.46584 0.0
H295 H 0.84024 0.84863 0.45582 0.0
H296 H 0.83768 0.93172 0.56716 0.0
H297 H 0.84014 0.87614 0.51889 0.0
H298 H 0.74101 0.86126 0.47784 0.0
H299 H 0.73826 0.91696 0.52801 0.0
C300 C 0.77156 0.76526 0.42988 0.0
C301 C 0.80009 0.76144 0.41604 0.0
C302 C 0.76808 0.79878 0.45423 0.0
C303 C 0.79296 0.82931 0.46486 0.0
C304 C 0.82087 0.82563 0.44926 0.0
C305 C 0.82451 0.79206 0.42551 0.0
C306 C 0.81633 0.91689 0.54777 0.0
C307 C 0.78775 0.92898 0.5515 0.0
C308 C 0.81783 0.88493 0.51969 0.0
C309 C 0.79088 0.86412 0.49395 0.0
C310 C 0.76222 0.87635 0.49731 0.0
C311 C 0.76064 0.90839 0.52591 0.0
H312 H 0.72111 0.25424 0.06444 0.0
H313 H 0.66707 0.2931 0.99183 0.0
H314 H 0.6734 0.23752 0.08945 0.0
H315 H 0.61919 0.27611 0.01633 0.0
H316 H 0.56679 0.30672 0.11886 0.0
H317 H 0.60662 0.306 0.07861 0.0
H318 H 0.618 0.2008 0.07969 0.0
H319 H 0.57753 0.20154 0.12046 0.0
C320 C 0.69873 0.25801 0.053 0.0
C321 C 0.69748 0.2748 0.0263 0.0
C322 C 0.67142 0.24839 0.0672 0.0
C323 C 0.64255 0.2558 0.05512 0.0
C324 C 0.64113 0.27041 0.02649 0.0
C325 C 0.66841 0.27992 0.01228 0.0
C326 C 0.5774 0.28314 0.11013 0.0
C327 C 0.56918 0.25429 0.12303 0.0
C328 C 0.60008 0.28258 0.08674 0.0
C329 C 0.61548 0.25331 0.07584 0.0
C330 C 0.60658 0.22377 0.08771 0.0
C331 C 0.58335 0.2241 0.11084 0.0
H332 H 0.2525 0.77238 0.70378 0.0
H333 H 0.29196 0.85684 0.80861 0.0
H334 H 0.2427 0.81805 0.67665 0.0
H335 H 0.282 0.90262 0.78188 0.0
H336 H 0.31322 0.96309 0.70266 0.0
H337 H 0.30972 0.92047 0.73553 0.0
H338 H 0.2154 0.8695 0.6765 0.0
H339 H 0.21892 0.91267 0.64318 0.0
C340 C 0.25799 0.80071 0.72129 0.0
C341 C 0.27276 0.81133 0.7582 0.0
C342 C 0.2524 0.82685 0.70583 0.0
C343 C 0.26189 0.86398 0.72701 0.0
C344 C 0.27477 0.87426 0.76473 0.0
C345 C 0.28023 0.84813 0.78015 0.0
C346 C 0.29156 0.94305 0.69681 0.0
C347 C 0.26641 0.94117 0.67011 0.0
C348 C 0.28945 0.91877 0.71597 0.0
C349 C 0.26221 0.89168 0.70881 0.0
C350 C 0.23672 0.89006 0.68256 0.0
C351 C 0.23869 0.91482 0.66361 0.0
H352 H 0.73158 0.61681 0.21521 0.0
H353 H 0.71236 0.70942 0.29957 0.0
H354 H 0.69669 0.6274 0.16811 0.0
H355 H 0.67677 0.71993 0.25268 0.0
H356 H 0.64552 0.75054 0.15206 0.0
H357 H 0.67916 0.73944 0.19939 0.0
H358 H 0.64135 0.62449 0.14831 0.0
H359 H 0.60798 0.63554 0.10033 0.0
C360 C 0.71965 0.63938 0.22354 0.0
C361 C 0.72445 0.66241 0.26067 0.0
C362 C 0.69953 0.6453 0.1967 0.0
C363 C 0.68384 0.67445 0.20659 0.0
C364 C 0.68875 0.69747 0.24405 0.0
C365 C 0.70893 0.69146 0.27092 0.0
C366 C 0.64434 0.72286 0.15082 0.0
C367 C 0.62408 0.69391 0.12228 0.0
C368 C 0.6635 0.71653 0.17819 0.0
C369 C 0.66293 0.6811 0.17776 0.0
C370 C 0.64264 0.6521 0.14924 0.0
C371 C 0.62342 0.65844 0.12181 0.0
H372 H 0.82984 0.22438 0.90498 0.0
H373 H 0.73107 0.22807 0.88652 0.0
H374 H 0.82205 0.17168 0.8491 0.0
H375 H 0.72273 0.17355 0.83091 0.0
H376 H 0.73591 0.10767 0.70839 0.0
H377 H 0.73491 0.15474 0.76802 0.0
H378 H 0.79984 0.10967 0.82284 0.0
H379 H 0.80199 0.06447 0.7634 0.0
C380 C 0.8063 0.21364 0.88912 0.0
C381 C 0.78116 0.23069 0.90004 0.0
C382 C 0.80169 0.18299 0.85721 0.0
C383 C 0.77167 0.16808 0.8354 0.0
C384 C 0.7462 0.18447 0.84685 0.0
C385 C 0.75089 0.21543 0.87893 0.0
C386 C 0.74946 0.10769 0.73343 0.0
C387 C 0.76937 0.08297 0.73144 0.0
C388 C 0.74888 0.13451 0.76759 0.0
C389 C 0.76787 0.13655 0.80021 0.0
C390 C 0.78572 0.10976 0.79823 0.0
C391 C 0.78679 0.08366 0.76422 0.0
H392 H 0.3597 0.22178 0.40225 0.0
H393 H 0.31229 0.28972 0.35811 0.0
H394 H 0.39577 0.21814 0.35692 0.0
H395 H 0.34882 0.28654 0.31324 0.0
H396 H 0.44676 0.31504 0.28101 0.0
H397 H 0.40602 0.31157 0.31956 0.0
H398 H 0.4 0.19622 0.28873 0.0
H399 H 0.44119 0.19964 0.24981 0.0
C400 C 0.35649 0.23534 0.38243 0.0
C401 C 0.33309 0.25623 0.38406 0.0
C402 C 0.37728 0.2333 0.35647 0.0
C403 C 0.37535 0.2523 0.3317 0.0
C404 C 0.35125 0.27207 0.33238 0.0
C405 C 0.33034 0.27393 0.35814 0.0
C406 C 0.43681 0.28885 0.2823 0.0
C407 C 0.44736 0.25761 0.26235 0.0
C408 C 0.41321 0.28684 0.30421 0.0
C409 C 0.39961 0.2536 0.30705 0.0
C410 C 0.41012 0.22226 0.28719 0.0
C411 C 0.43362 0.2242 0.26484 0.0
H412 H 0.87009 0.70638 0.90049 0.0
H413 H 0.82932 0.63051 0.79119 0.0
H414 H 0.90795 0.66865 0.90556 0.0
H415 H 0.86614 0.59174 0.7966 0.0
H416 H 0.96129 0.55649 0.79905 0.0
H417 H 0.92003 0.59048 0.79502 0.0
H418 H 0.91618 0.61431 0.91215 0.0
H419 H 0.9583 0.5819 0.91635 0.0
C420 C 0.8688 0.68111 0.87796 0.0
C421 C 0.84699 0.67134 0.84543 0.0
C422 C 0.89043 0.6594 0.8808 0.0
C423 C 0.89035 0.62718 0.85132 0.0
C424 C 0.86745 0.61673 0.81946 0.0
C425 C 0.84616 0.63871 0.81645 0.0
C426 C 0.95151 0.56896 0.82383 0.0
C427 C 0.96321 0.56684 0.85803 0.0
C428 C 0.9277 0.58825 0.82155 0.0
C429 C 0.91474 0.60533 0.85332 0.0
C430 C 0.92599 0.60226 0.88728 0.0
C431 C 0.95008 0.5835 0.88965 0.0
H432 H 0.84284 0.36386 0.43685 0.0
H433 H 0.87087 0.26786 0.36829 0.0
H434 H 0.89117 0.4012 0.43121 0.0
H435 H 0.91958 0.3053 0.36281 0.0
H436 H 0.97722 0.39431 0.32409 0.0
H437 H 0.9329 0.35237 0.33215 0.0
H438 H 0.94932 0.41242 0.45005 0.0
H439 H 0.99315 0.45416 0.44222 0.0
C440 C 0.85958 0.35077 0.42094 0.0
C441 C 0.85319 0.31304 0.40305 0.0
C442 C 0.88729 0.37208 0.41782 0.0
C443 C 0.90909 0.35613 0.39647 0.0
C444 C 0.90305 0.31829 0.37919 0.0
C445 C 0.87542 0.29689 0.38266 0.0
C446 C 0.9715 0.39833 0.35173 0.0
C447 C 0.98856 0.42778 0.38241 0.0
C448 C 0.94626 0.37423 0.35637 0.0
C449 C 0.93755 0.37934 0.39171 0.0
C450 C 0.95521 0.40812 0.42243 0.0
C451 C 0.98042 0.43197 0.41787 0.0
H452 H 0.24935 0.40961 0.87616 0.0
H453 H 0.17927 0.32741 0.89051 0.0
H454 H 0.20747 0.43437 0.85242 0.0
H455 H 0.13718 0.35214 0.86689 0.0
H456 H 0.06817 0.40574 0.81495 0.0
H457 H 0.11044 0.37119 0.81429 0.0
H458 H 0.17182 0.46638 0.89482 0.0
H459 H 0.13001 0.50018 0.89594 0.0
C460 C 0.22495 0.39606 0.87282 0.0
C461 C 0.21727 0.36674 0.88494 0.0
C462 C 0.20102 0.41026 0.85944 0.0
C463 C 0.16909 0.39537 0.85817 0.0
C464 C 0.16155 0.36395 0.86725 0.0
C465 C 0.18557 0.34985 0.88081 0.0
C466 C 0.09092 0.4192 0.83196 0.0
C467 C 0.09583 0.45546 0.85572 0.0
C468 C 0.11498 0.39951 0.83165 0.0
C469 C 0.14446 0.41621 0.85429 0.0
C470 C 0.14958 0.45291 0.87664 0.0
C471 C 0.12551 0.47218 0.87755 0.0
H472 H 0.26831 0.68487 0.37378 0.0
H473 H 0.23494 0.65557 0.25669 0.0
H474 H 0.22115 0.64634 0.37974 0.0
H475 H 0.1872 0.61694 0.2627 0.0
H476 H 0.12119 0.52459 0.28866 0.0
H477 H 0.16705 0.56137 0.27638 0.0
H478 H 0.16583 0.6486 0.37807 0.0
H479 H 0.12097 0.61194 0.39062 0.0
C480 C 0.25077 0.67028 0.34931 0.0
C481 C 0.25515 0.67362 0.31488 0.0
C482 C 0.22368 0.64825 0.35272 0.0
C483 C 0.20011 0.62905 0.32181 0.0
C484 C 0.20493 0.63132 0.28701 0.0
C485 C 0.23224 0.65341 0.28357 0.0
C486 C 0.13054 0.55181 0.30804 0.0
C487 C 0.11777 0.56519 0.34085 0.0
C488 C 0.15677 0.57286 0.30103 0.0
C489 C 0.17049 0.60763 0.32666 0.0
C490 C 0.15644 0.62156 0.35829 0.0
C491 C 0.13055 0.60059 0.36537 0.0
H492 H 0.7903 0.83385 0.80432 0.0
H493 H 0.85588 0.79687 0.73012 0.0
H494 H 0.79763 0.89114 0.79231 0.0
H495 H 0.8628 0.85337 0.71721 0.0
H496 H 0.88047 0.96486 0.71078 0.0
H497 H 0.88169 0.91877 0.73981 0.0
H498 H 0.78083 0.90583 0.73873 0.0
H499 H 0.77973 0.95192 0.71084 0.0
C500 C 0.8065 0.83832 0.78576 0.0
C501 C 0.82241 0.81135 0.76785 0.0
C502 C 0.81067 0.87091 0.77878 0.0
C503 C 0.8307 0.87676 0.75364 0.0
C504 C 0.84758 0.85004 0.73708 0.0
C505 C 0.84342 0.81759 0.74415 0.0
C506 C 0.85872 0.95256 0.71739 0.0
C507 C 0.82997 0.96167 0.70805 0.0
C508 C 0.85937 0.92608 0.73384 0.0
C509 C 0.83132 0.90848 0.7414 0.0
C510 C 0.80294 0.91907 0.73375 0.0
C511 C 0.80228 0.9453 0.71731 0.0
H512 H 0.75562 0.31111 0.33608 0.0
H513 H 0.70719 0.27191 0.41267 0.0
H514 H 0.70686 0.32448 0.31252 0.0
H515 H 0.65817 0.28458 0.38833 0.0
H516 H 0.57531 0.25823 0.29016 0.0
H517 H 0.62332 0.25612 0.32651 0.0
H518 H 0.66577 0.36289 0.32951 0.0
H519 H 0.61738 0.36508 0.29292 0.0
C520 C 0.73476 0.30595 0.34841 0.0
C521 C 0.73534 0.29019 0.37615 0.0
C522 C 0.70679 0.31366 0.33489 0.0
C523 C 0.67871 0.30553 0.34855 0.0
C524 C 0.67943 0.2908 0.37704 0.0
C525 C 0.70745 0.28336 0.39079 0.0
C526 C 0.59468 0.28153 0.29906 0.0
C527 C 0.59268 0.31172 0.28847 0.0
C528 C 0.62212 0.2804 0.3201 0.0
C529 C 0.64834 0.30927 0.3307 0.0
C530 C 0.64596 0.34015 0.32144 0.0
C531 C 0.61824 0.34149 0.30074 0.0
H532 H 0.36676 0.27156 0.86957 0.0
H533 H 0.26479 0.24575 0.84432 0.0
H534 H 0.36918 0.21753 0.81832 0.0
H535 H 0.26734 0.1937 0.79105 0.0
H536 H 0.27639 0.08056 0.72769 0.0
H537 H 0.27653 0.13568 0.77892 0.0
H538 H 0.36339 0.18702 0.75444 0.0
H539 H 0.36397 0.1307 0.70433 0.0
C540 C 0.34482 0.25462 0.85287 0.0
C541 C 0.31553 0.26285 0.86169 0.0
C542 C 0.34625 0.22379 0.82302 0.0
C543 C 0.31845 0.20069 0.8007 0.0
C544 C 0.28927 0.21015 0.8082 0.0
C545 C 0.28781 0.24058 0.83845 0.0
C546 C 0.29569 0.10354 0.73357 0.0
C547 C 0.32017 0.1014 0.71211 0.0
C548 C 0.2956 0.13539 0.76268 0.0
C549 C 0.31964 0.16629 0.77058 0.0
C550 C 0.34459 0.1638 0.74951 0.0
C551 C 0.34498 0.13154 0.72076 0.0
H552 H 0.43115 0.73984 0.26856 0.0
H553 H 0.36112 0.74958 0.1876 0.0
H554 H 0.47325 0.76099 0.23773 0.0
H555 H 0.40299 0.77093 0.15681 0.0
H556 H 0.47904 0.73095 0.08313 0.0
H557 H 0.43736 0.73175 0.12111 0.0
H558 H 0.50091 0.8112 0.21542 0.0
H559 H 0.54303 0.81068 0.17662 0.0
C560 C 0.42494 0.74761 0.24482 0.0
C561 C 0.3932 0.74311 0.23014 0.0
C562 C 0.44894 0.75987 0.22732 0.0
C563 C 0.44136 0.76738 0.19473 0.0
C564 C 0.40948 0.76511 0.18172 0.0
C565 C 0.38558 0.753 0.19929 0.0
C566 C 0.48396 0.74915 0.11179 0.0
C567 C 0.51418 0.77065 0.12708 0.0
C568 C 0.46002 0.74981 0.13348 0.0
C569 C 0.46585 0.7716 0.17122 0.0
C570 C 0.49584 0.79417 0.18637 0.0
C571 C 0.5198 0.79404 0.16425 0.0
H572 H 0.83938 0.14535 0.43576 0.0
H573 H 0.80092 0.22711 0.51261 0.0
H574 H 0.85195 0.12065 0.48459 0.0
H575 H 0.8136 0.20282 0.56163 0.0
H576 H 0.78514 0.1062 0.60307 0.0
H577 H 0.78704 0.14408 0.56492 0.0
H578 H 0.88177 0.13 0.54835 0.0
H579 H 0.8799 0.09178 0.58715 0.0
C580 C 0.83462 0.15868 0.4635 0.0
C581 C 0.8193 0.18799 0.47076 0.0
C582 C 0.84186 0.14467 0.49145 0.0
C583 C 0.83351 0.15962 0.52686 0.0
C584 C 0.82003 0.19054 0.53453 0.0
C585 C 0.81294 0.20456 0.50664 0.0
C586 C 0.80659 0.11154 0.59176 0.0
C587 C 0.8323 0.09583 0.59789 0.0
C588 C 0.80777 0.13354 0.57013 0.0
C589 C 0.83458 0.14011 0.55368 0.0
C590 C 0.86078 0.12531 0.56065 0.0
C591 C 0.85977 0.10362 0.58293 0.0
H592 H 0.39673 0.33762 0.97308 0.0
H593 H 0.31683 0.32275 0.02924 0.0
H594 H 0.43248 0.34171 0.02798 0.0
H595 H 0.35254 0.32651 0.08397 0.0
H596 H 0.42571 0.27521 0.13824 0.0
H597 H 0.38868 0.28206 0.09075 0.0
H598 H 0.44968 0.38216 0.09915 0.0
H599 H 0.48676 0.37566 0.14747 0.0
C600 C 0.38692 0.33555 0.99731 0.0
C601 C 0.35411 0.32976 0.99701 0.0
C602 C 0.40732 0.33819 0.02873 0.0
C603 C 0.39518 0.33445 0.06009 0.0
C604 C 0.36241 0.32944 0.06007 0.0
C605 C 0.34206 0.32741 0.0289 0.0
C606 C 0.43105 0.29893 0.13031 0.0
C607 C 0.45912 0.32487 0.1464 0.0
C608 C 0.40978 0.30292 0.10331 0.0
C609 C 0.41641 0.33261 0.09137 0.0
C610 C 0.44416 0.359 0.10792 0.0
C611 C 0.46521 0.35537 0.13559 0.0
H612 H 0.36198 0.78081 0.40057 0.0
H613 H 0.29262 0.816 0.34084 0.0
H614 H 0.36678 0.83587 0.45491 0.0
H615 H 0.29778 0.87139 0.39447 0.0
H616 H 0.27431 0.92399 0.51034 0.0
H617 H 0.27917 0.87764 0.45342 0.0
H618 H 0.38068 0.90356 0.48386 0.0
H619 H 0.37582 0.95039 0.54196 0.0
C620 C 0.34862 0.80104 0.3988 0.0
C621 C 0.32701 0.79457 0.36684 0.0
C622 C 0.35135 0.8325 0.42977 0.0
C623 C 0.33233 0.85772 0.42914 0.0
C624 C 0.31235 0.85216 0.39603 0.0
C625 C 0.30956 0.82073 0.36525 0.0
C626 C 0.29778 0.92009 0.50508 0.0
C627 C 0.3247 0.94098 0.53083 0.0
C628 C 0.30056 0.89364 0.47213 0.0
C629 C 0.33034 0.88723 0.46383 0.0
C630 C 0.35741 0.90793 0.48952 0.0
C631 C 0.35462 0.93472 0.52271 0.0
H632 H 0.72753 0.73451 0.83995 0.0
H633 H 0.79722 0.75924 0.9369 0.0
H634 H 0.68661 0.74457 0.87939 0.0
H635 H 0.75608 0.76925 0.97644 0.0
H636 H 0.673 0.81006 0.03557 0.0
H637 H 0.71474 0.81015 0.99666 0.0
H638 H 0.66417 0.70724 0.91758 0.0
H639 H 0.62298 0.70684 0.95631 0.0
C640 C 0.73423 0.74286 0.86976 0.0
C641 C 0.76558 0.74599 0.88533 0.0
C642 C 0.71076 0.74833 0.89229 0.0
C643 C 0.71816 0.75748 0.93092 0.0
C644 C 0.74976 0.7624 0.94675 0.0
C645 C 0.77322 0.75644 0.92413 0.0
C646 C 0.67076 0.78765 0.00973 0.0
C647 C 0.64477 0.7584 0.99904 0.0
C648 C 0.69467 0.78763 0.98761 0.0
C649 C 0.69259 0.75877 0.95407 0.0
C650 C 0.66623 0.73003 0.94308 0.0
C651 C 0.64274 0.72971 0.9654 0.0
loop_
_geom_bond_atom_site_label_1
_geom_bond_atom_site_label_2
_geom_bond_distance
_geom_bond_site_symmetry_2
_ccdc_geom_bond_type
H0 C3 0.929 . S
H1 C6 0.929 . S
H2 C8 0.930 . S
C3 H0 0.929 . S
C3 C4 1.398 . S
C3 C5 1.396 . S
C4 C3 1.398 . S
C4 C8 1.407 . S
C5 C3 1.396 . S
C5 C6 1.394 . S
C6 H1 0.929 . S
C6 C5 1.394 . S
C6 C7 1.382 . S
C7 C6 1.382 . S
C7 C8 1.392 . S
C7 N9 1.420 . S
C8 H2 0.930 . S
C8 C4 1.407 . S
C8 C7 1.392 . S
N9 C7 1.420 . S
N9 C10 1.244 . S
C10 N9 1.244 . S
H11 C14 0.929 . S
H12 C17 0.929 . S
H13 C19 0.930 . S
C14 H11 0.929 . S
C14 C15 1.398 . S
C14 C16 1.396 . S
C15 C14 1.398 . S
C15 C19 1.407 . S
C16 C14 1.396 . S
C16 C17 1.394 . S
C17 H12 0.929 . S
C17 C16 1.394 . S
C17 C18 1.382 . S
C18 C17 1.382 . S
C18 C19 1.392 . S
C18 N20 1.420 . S
C19 H13 0.930 . S
C19 C15 1.407 . S
C19 C18 1.392 . S
N20 C18 1.420 . S
N20 C21 1.244 . S
C21 N20 1.244 . S
H22 C25 0.929 . S
H23 C28 0.929 . S
H24 C30 0.930 . S
C25 H22 0.929 . S
C25 C26 1.398 . S
C25 C27 1.396 . S
C26 C25 1.398 . S
C26 C30 1.407 . S
C27 C25 1.396 . S
C27 C28 1.394 . S
C28 H23 0.929 . S
C28 C27 1.394 . S
C28 C29 1.382 . S
C29 C28 1.382 . S
C29 C30 1.392 . S
C29 N31 1.420 . S
C30 H24 0.930 . S
C30 C26 1.407 . S
C30 C29 1.392 . S
N31 C29 1.420 . S
N31 C32 1.244 . S
C32 N31 1.244 . S
H33 C36 0.929 . S
H34 C39 0.929 . S
H35 C41 0.930 1_554 S
C36 H33 0.929 . S
C36 C37 1.398 . S
C36 C38 1.396 . S
C37 C36 1.398 . S
C37 C41 1.407 . S
C38 C36 1.396 . S
C38 C39 1.394 . S
C39 H34 0.929 . S
C39 C38 1.394 . S
C39 C40 1.382 . S
C40 C39 1.382 . S
C40 C41 1.392 . S
C40 N42 1.420 1_556 S
C41 H35 0.930 1_556 S
C41 C37 1.407 . S
C41 C40 1.392 . S
N42 C40 1.420 1_554 S
N42 C43 1.244 . S
C43 N42 1.244 . S
H44 C47 0.929 . S
H45 C50 0.929 . S
H46 C52 0.930 . S
C47 H44 0.929 . S
C47 C48 1.398 . S
C47 C49 1.396 . S
C48 C47 1.398 . S
C48 C52 1.407 . S
C49 C47 1.396 . S
C49 C50 1.394 . S
C50 H45 0.929 . S
C50 C49 1.394 . S
C50 C51 1.382 . S
C51 C50 1.382 . S
C51 C52 1.392 . S
C51 N53 1.420 . S
C52 H46 0.930 . S
C52 C48 1.407 . S
C52 C51 1.392 . S
N53 C51 1.420 . S
N53 C54 1.244 . S
C54 N53 1.244 . S
H55 C58 0.929 . S
H56 C61 0.929 . S
H57 C63 0.930 . S
C58 H55 0.929 . S
C58 C59 1.398 . S
C58 C60 1.396 . S
C59 C58 1.398 . S
C59 C63 1.407 . S
C60 C58 1.396 . S
C60 C61 1.394 . S
C61 H56 0.929 . S
C61 C60 1.394 . S
C61 C62 1.382 . S
C62 C61 1.382 . S
C62 C63 1.392 . S
C62 N64 1.420 . S
C63 H57 0.930 . S
C63 C59 1.407 . S
C63 C62 1.392 . S
N64 C62 1.420 . S
N64 C65 1.244 . S
C65 N64 1.244 . S
H66 C69 0.929 . S
H67 C72 0.929 . S
H68 C74 0.930 . S
C69 H66 0.929 . S
C69 C70 1.398 . S
C69 C71 1.396 . S
C70 C69 1.398 . S
C70 C74 1.407 . S
C71 C69 1.396 . S
C71 C72 1.394 . S
C72 H67 0.929 . S
C72 C71 1.394 . S
C72 C73 1.382 . S
C73 C72 1.382 . S
C73 C74 1.392 . S
C73 N75 1.420 . S
C74 H68 0.930 . S
C74 C70 1.407 . S
C74 C73 1.392 . S
N75 C73 1.420 . S
N75 C76 1.244 . S
C76 N75 1.244 . S
H77 C80 0.929 . S
H78 C83 0.929 . S
H79 C85 0.930 . S
C80 H77 0.929 . S
C80 C81 1.398 . S
C80 C82 1.396 . S
C81 C80 1.398 . S
C81 C85 1.407 . S
C82 C80 1.396 . S
C82 C83 1.394 . S
C83 H78 0.929 . S
C83 C82 1.394 . S
C83 C84 1.382 . S
C84 C83 1.382 . S
C84 C85 1.392 . S
C84 N86 1.420 . S
C85 H79 0.930 . S
C85 C81 1.407 . S
C85 C84 1.392 . S
N86 C84 1.420 . S
N86 C87 1.244 . S
C87 N86 1.244 . S
C88 O90 1.247 1_655 S
C88 O92 1.258 . S
C89 O96 1.247 . S
C89 O97 1.258 . S
O90 C88 1.247 1_455 S
O90 Zn91 2.028 . S
Zn91 O90 2.028 . S
Zn91 O95 2.035 . S
Zn91 O97 2.035 . S
Zn91 O98 2.028 . S
O92 C88 1.258 . S
O92 Zn93 2.035 1_655 S
Zn93 O92 2.035 1_455 S
Zn93 O94 2.028 . S
Zn93 O96 2.028 . S
Zn93 O99 2.035 1_455 S
O94 Zn93 2.028 . S
O94 C100 1.247 . S
O95 Zn91 2.035 . S
O95 C100 1.258 . S
O96 C89 1.247 . S
O96 Zn93 2.028 . S
O97 C89 1.258 . S
O97 Zn91 2.035 . S
O98 Zn91 2.028 . S
O98 C101 1.247 1_455 S
O99 Zn93 2.035 1_655 S
O99 C101 1.258 . S
C100 O94 1.247 . S
C100 O95 1.258 . S
C101 O98 1.247 1_655 S
C101 O99 1.258 . S
C102 O104 1.247 1_655 S
C102 O106 1.258 . S
C103 O110 1.247 . S
C103 O111 1.258 . S
O104 C102 1.247 1_455 S
O104 Zn105 2.028 . S
Zn105 O104 2.028 . S
Zn105 O109 2.035 . S
Zn105 O111 2.035 . S
Zn105 O112 2.028 . S
O106 C102 1.258 . S
O106 Zn107 2.035 1_655 S
Zn107 O106 2.035 1_455 S
Zn107 O108 2.028 . S
Zn107 O110 2.028 . S
Zn107 O113 2.035 . S
O108 Zn107 2.028 . S
O108 C114 1.247 . S
O109 Zn105 2.035 . S
O109 C114 1.258 . S
O110 C103 1.247 . S
O110 Zn107 2.028 . S
O111 C103 1.258 . S
O111 Zn105 2.035 . S
O112 Zn105 2.028 . S
O112 C115 1.247 1_455 S
O113 Zn107 2.035 . S
O113 C115 1.258 1_455 S
C114 O108 1.247 . S
C114 O109 1.258 . S
C115 O112 1.247 1_655 S
C115 O113 1.258 1_655 S
C116 O118 1.247 . S
C116 O120 1.258 1_565 S
C117 O124 1.247 . S
C117 O125 1.258 . S
O118 C116 1.247 . S
O118 Zn119 2.028 1_565 S
Zn119 O118 2.028 1_545 S
Zn119 O123 2.035 . S
Zn119 O125 2.035 . S
Zn119 O126 2.028 1_545 S
O120 C116 1.258 1_545 S
O120 Zn121 2.035 . S
Zn121 O120 2.035 . S
Zn121 O122 2.028 . S
Zn121 O124 2.028 . S
Zn121 O127 2.035 1_545 S
O122 Zn121 2.028 . S
O122 C128 1.247 . S
O123 Zn119 2.035 . S
O123 C128 1.258 . S
O124 C117 1.247 . S
O124 Zn121 2.028 . S
O125 C117 1.258 . S
O125 Zn119 2.035 . S
O126 Zn119 2.028 1_565 S
O126 C129 1.247 . S
O127 Zn121 2.035 1_565 S
O127 C129 1.258 . S
C128 O122 1.247 . S
C128 O123 1.258 . S
C129 O126 1.247 . S
C129 O127 1.258 . S
C130 O132 1.247 . S
C130 O134 1.258 . S
C131 O138 1.247 . S
C131 O139 1.258 . S
O132 C130 1.247 . S
O132 Zn133 2.028 1_554 S
Zn133 O132 2.028 1_556 S
Zn133 O137 2.035 1_556 S
Zn133 O139 2.035 . S
Zn133 O140 2.028 . S
O134 C130 1.258 . S
O134 Zn135 2.035 . S
Zn135 O134 2.035 . S
Zn135 O136 2.028 . S
Zn135 O138 2.028 1_554 S
Zn135 O141 2.035 1_554 S
O136 Zn135 2.028 . S
O136 C142 1.247 . S
O137 Zn133 2.035 1_554 S
O137 C142 1.258 . S
O138 C131 1.247 . S
O138 Zn135 2.028 1_556 S
O139 C131 1.258 . S
O139 Zn133 2.035 . S
O140 Zn133 2.028 . S
O140 C143 1.247 . S
O141 Zn135 2.035 1_556 S
O141 C143 1.258 . S
C142 O136 1.247 . S
C142 O137 1.258 . S
C143 O140 1.247 . S
C143 O141 1.258 . S
C144 O146 1.247 . S
C144 O148 1.258 . S
C145 O152 1.247 . S
C145 O153 1.258 . S
O146 C144 1.247 . S
O146 Zn147 2.028 1_565 S
Zn147 O146 2.028 1_545 S
Zn147 O151 2.035 . S
Zn147 O153 2.035 . S
Zn147 O154 2.028 1_545 S
O148 C144 1.258 . S
O148 Zn149 2.035 1_565 S
Zn149 O148 2.035 1_545 S
Zn149 O150 2.028 . S
Zn149 O152 2.028 . S
Zn149 O155 2.035 1_545 S
O150 Zn149 2.028 . S
O150 C156 1.247 . S
O151 Zn147 2.035 . S
O151 C156 1.258 . S
O152 C145 1.247 . S
O152 Zn149 2.028 . S
O153 C145 1.258 . S
O153 Zn147 2.035 . S
O154 Zn147 2.028 1_565 S
O154 C157 1.247 . S
O155 Zn149 2.035 1_565 S
O155 C157 1.258 . S
C156 O150 1.247 . S
C156 O151 1.258 . S
C157 O154 1.247 . S
C157 O155 1.258 . S
C158 O160 1.247 . S
C158 O162 1.258 . S
C159 O166 1.247 . S
C159 O167 1.258 . S
O160 C158 1.247 . S
O160 Zn161 2.028 . S
Zn161 O160 2.028 . S
Zn161 O165 2.035 . S
Zn161 O167 2.035 . S
Zn161 O168 2.028 . S
O162 C158 1.258 . S
O162 Zn163 2.035 . S
Zn163 O162 2.035 . S
Zn163 O164 2.028 . S
Zn163 O166 2.028 . S
Zn163 O169 2.035 . S
O164 Zn163 2.028 . S
O164 C170 1.247 . S
O165 Zn161 2.035 . S
O165 C170 1.258 . S
O166 C159 1.247 . S
O166 Zn163 2.028 . S
O167 C159 1.258 . S
O167 Zn161 2.035 . S
O168 Zn161 2.028 . S
O168 C171 1.247 . S
O169 Zn163 2.035 . S
O169 C171 1.258 . S
C170 O164 1.247 . S
C170 O165 1.258 . S
C171 O168 1.247 . S
C171 O169 1.258 . S
H172 C180 0.950 . S
H173 C185 0.950 . S
H174 C182 0.950 . S
H175 C184 0.950 . S
H176 C186 0.950 . S
H177 C188 0.950 . S
H178 C190 0.950 . S
H179 C191 0.950 . S
C180 H172 0.950 . S
C180 C181 1.386 . S
C180 C182 1.391 . S
C181 C180 1.386 . S
C181 C185 1.393 . S
C182 H174 0.950 . S
C182 C180 1.391 . S
C182 C183 1.400 . S
C183 C182 1.400 . S
C183 C184 1.398 . S
C183 C189 1.491 . S
C184 H175 0.950 . S
C184 C183 1.398 . S
C184 C185 1.391 . S
C185 H173 0.950 . S
C185 C181 1.393 . S
C185 C184 1.391 . S
C186 H176 0.950 . S
C186 C187 1.386 . S
C186 C188 1.391 . S
C187 C186 1.386 . S
C187 C191 1.393 . S
C188 H177 0.950 . S
C188 C186 1.391 . S
C188 C189 1.400 . S
C189 C183 1.491 . S
C189 C188 1.400 . S
C189 C190 1.398 . S
C190 H178 0.950 . S
C190 C189 1.398 . S
C190 C191 1.391 . S
C191 H179 0.950 . S
C191 C187 1.393 . S
C191 C190 1.391 . S
H192 C200 0.950 . S
H193 C205 0.950 . S
H194 C202 0.950 . S
H195 C204 0.950 . S
H196 C206 0.950 . S
H197 C208 0.950 . S
H198 C210 0.950 . S
H199 C211 0.950 . S
C200 H192 0.950 . S
C200 C201 1.386 . S
C200 C202 1.391 . S
C201 C200 1.386 . S
C201 C205 1.393 . S
C202 H194 0.950 . S
C202 C200 1.391 . S
C202 C203 1.400 . S
C203 C202 1.400 . S
C203 C204 1.398 . S
C203 C209 1.491 . S
C204 H195 0.950 . S
C204 C203 1.398 . S
C204 C205 1.391 . S
C205 H193 0.950 . S
C205 C201 1.393 . S
C205 C204 1.391 . S
C206 H196 0.950 . S
C206 C207 1.386 . S
C206 C208 1.391 . S
C207 C206 1.386 . S
C207 C211 1.393 . S
C208 H197 0.950 . S
C208 C206 1.391 . S
C208 C209 1.400 . S
C209 C203 1.491 . S
C209 C208 1.400 . S
C209 C210 1.398 . S
C210 H198 0.950 . S
C210 C209 1.398 . S
C210 C211 1.391 . S
C211 H199 0.950 . S
C211 C207 1.393 . S
C211 C210 1.391 . S
H212 C220 0.950 . S
H213 C225 0.950 . S
H214 C222 0.950 . S
H215 C224 0.950 . S
H216 C226 0.950 . S
H217 C228 0.950 . S
H218 C230 0.950 . S
H219 C231 0.950 . S
C220 H212 0.950 . S
C220 C221 1.386 . S
C220 C222 1.391 . S
C221 C220 1.386 . S
C221 C225 1.393 . S
C222 H214 0.950 . S
C222 C220 1.391 . S
C222 C223 1.400 . S
C223 C222 1.400 . S
C223 C224 1.398 . S
C223 C229 1.491 . S
C224 H215 0.950 . S
C224 C223 1.398 . S
C224 C225 1.391 . S
C225 H213 0.950 . S
C225 C221 1.393 . S
C225 C224 1.391 . S
C226 H216 0.950 . S
C226 C227 1.386 . S
C226 C228 1.391 . S
C227 C226 1.386 . S
C227 C231 1.393 . S
C228 H217 0.950 . S
C228 C226 1.391 . S
C228 C229 1.400 . S
C229 C223 1.491 . S
C229 C228 1.400 . S
C229 C230 1.398 . S
C230 H218 0.950 . S
C230 C229 1.398 . S
C230 C231 1.391 . S
C231 H219 0.950 . S
C231 C227 1.393 . S
C231 C230 1.391 . S
H232 C240 0.950 . S
H233 C245 0.950 . S
H234 C242 0.950 . S
H235 C244 0.950 . S
H236 C246 0.950 . S
H237 C248 0.950 . S
H238 C250 0.950 . S
H239 C251 0.950 . S
C240 H232 0.950 . S
C240 C241 1.386 . S
C240 C242 1.391 . S
C241 C240 1.386 . S
C241 C245 1.393 . S
C242 H234 0.950 . S
C242 C240 1.391 . S
C242 C243 1.400 . S
C243 C242 1.400 . S
C243 C244 1.398 . S
C243 C249 1.491 . S
C244 H235 0.950 . S
C244 C243 1.398 . S
C244 C245 1.391 . S
C245 H233 0.950 . S
C245 C241 1.393 . S
C245 C244 1.391 . S
C246 H236 0.950 . S
C246 C247 1.386 . S
C246 C248 1.391 . S
C247 C246 1.386 . S
C247 C251 1.393 . S
C248 H237 0.950 . S
C248 C246 1.391 . S
C248 C249 1.400 . S
C249 C243 1.491 . S
C249 C248 1.400 . S
C249 C250 1.398 . S
C250 H238 0.950 . S
C250 C249 1.398 . S
C250 C251 1.391 . S
C251 H239 0.950 . S
C251 C247 1.393 . S
C251 C250 1.391 . S
H252 C260 0.950 . S
H253 C265 0.950 . S
H254 C262 0.950 . S
H255 C264 0.950 . S
H256 C266 0.950 . S
H257 C268 0.950 . S
H258 C270 0.950 . S
H259 C271 0.950 . S
C260 H252 0.950 . S
C260 C261 1.386 . S
C260 C262 1.391 . S
C261 C260 1.386 . S
C261 C265 1.393 . S
C262 H254 0.950 . S
C262 C260 1.391 . S
C262 C263 1.400 . S
C263 C262 1.400 . S
C263 C264 1.398 . S
C263 C269 1.491 . S
C264 H255 0.950 . S
C264 C263 1.398 . S
C264 C265 1.391 . S
C265 H253 0.950 . S
C265 C261 1.393 . S
C265 C264 1.391 . S
C266 H256 0.950 . S
C266 C267 1.386 . S
C266 C268 1.391 . S
C267 C266 1.386 . S
C267 C271 1.393 . S
C268 H257 0.950 . S
C268 C266 1.391 . S
C268 C269 1.400 . S
C269 C263 1.491 . S
C269 C268 1.400 . S
C269 C270 1.398 . S
C270 H258 0.950 . S
C270 C269 1.398 . S
C270 C271 1.391 . S
C271 H259 0.950 . S
C271 C267 1.393 . S
C271 C270 1.391 . S
H272 C280 0.950 . S
H273 C285 0.950 . S
H274 C282 0.950 . S
H275 C284 0.950 . S
H276 C286 0.950 . S
H277 C288 0.950 . S
H278 C290 0.950 . S
H279 C291 0.950 . S
C280 H272 0.950 . S
C280 C281 1.386 . S
C280 C282 1.391 . S
C281 C280 1.386 . S
C281 C285 1.393 . S
C282 H274 0.950 . S
C282 C280 1.391 . S
C282 C283 1.400 . S
C283 C282 1.400 . S
C283 C284 1.398 . S
C283 C289 1.491 . S
C284 H275 0.950 . S
C284 C283 1.398 . S
C284 C285 1.391 . S
C285 H273 0.950 . S
C285 C281 1.393 . S
C285 C284 1.391 . S
C286 H276 0.950 . S
C286 C287 1.386 . S
C286 C288 1.391 . S
C287 C286 1.386 . S
C287 C291 1.393 . S
C288 H277 0.950 . S
C288 C286 1.391 . S
C288 C289 1.400 . S
C289 C283 1.491 . S
C289 C288 1.400 . S
C289 C290 1.398 . S
C290 H278 0.950 . S
C290 C289 1.398 . S
C290 C291 1.391 . S
C291 H279 0.950 . S
C291 C287 1.393 . S
C291 C290 1.391 . S
H292 C300 0.950 . S
H293 C305 0.950 . S
H294 C302 0.950 . S
H295 C304 0.950 . S
H296 C306 0.950 . S
H297 C308 0.950 . S
H298 C310 0.950 . S
H299 C311 0.950 . S
C300 H292 0.950 . S
C300 C301 1.386 . S
C300 C302 1.391 . S
C301 C300 1.386 . S
C301 C305 1.393 . S
C302 H294 0.950 . S
C302 C300 1.391 . S
C302 C303 1.400 . S
C303 C302 1.400 . S
C303 C304 1.398 . S
C303 C309 1.491 . S
C304 H295 0.950 . S
C304 C303 1.398 . S
C304 C305 1.391 . S
C305 H293 0.950 . S
C305 C301 1.393 . S
C305 C304 1.391 . S
C306 H296 0.950 . S
C306 C307 1.386 . S
C306 C308 1.391 . S
C307 C306 1.386 . S
C307 C311 1.393 . S
C308 H297 0.950 . S
C308 C306 1.391 . S
C308 C309 1.400 . S
C309 C303 1.491 . S
C309 C308 1.400 . S
C309 C310 1.398 . S
C310 H298 0.950 . S
C310 C309 1.398 . S
C310 C311 1.391 . S
C311 H299 0.950 . S
C311 C307 1.393 . S
C311 C310 1.391 . S
H312 C320 0.950 . S
H313 C325 0.950 . S
H314 C322 0.950 . S
H315 C324 0.950 . S
H316 C326 0.950 . S
H317 C328 0.950 . S
H318 C330 0.950 . S
H319 C331 0.950 . S
C320 H312 0.950 . S
C320 C321 1.386 . S
C320 C322 1.391 . S
C321 C320 1.386 . S
C321 C325 1.393 . S
C322 H314 0.950 . S
C322 C320 1.391 . S
C322 C323 1.400 . S
C323 C322 1.400 . S
C323 C324 1.398 . S
C323 C329 1.491 . S
C324 H315 0.950 . S
C324 C323 1.398 . S
C324 C325 1.391 . S
C325 H313 0.950 . S
C325 C321 1.393 . S
C325 C324 1.391 . S
C326 H316 0.950 . S
C326 C327 1.386 . S
C326 C328 1.391 . S
C327 C326 1.386 . S
C327 C331 1.393 . S
C328 H317 0.950 . S
C328 C326 1.391 . S
C328 C329 1.400 . S
C329 C323 1.491 . S
C329 C328 1.400 . S
C329 C330 1.398 . S
C330 H318 0.950 . S
C330 C329 1.398 . S
C330 C331 1.391 . S
C331 H319 0.950 . S
C331 C327 1.393 . S
C331 C330 1.391 . S
H332 C340 0.950 . S
H333 C345 0.950 . S
H334 C342 0.950 . S
H335 C344 0.950 . S
H336 C346 0.950 . S
H337 C348 0.950 . S
H338 C350 0.950 . S
H339 C351 0.950 . S
C340 H332 0.950 . S
C340 C341 1.386 . S
C340 C342 1.391 . S
C341 C340 1.386 . S
C341 C345 1.393 . S
C342 H334 0.950 . S
C342 C340 1.391 . S
C342 C343 1.400 . S
C343 C342 1.400 . S
C343 C344 1.398 . S
C343 C349 1.491 . S
C344 H335 0.950 . S
C344 C343 1.398 . S
C344 C345 1.391 . S
C345 H333 0.950 . S
C345 C341 1.393 . S
C345 C344 1.391 . S
C346 H336 0.950 . S
C346 C347 1.386 . S
C346 C348 1.391 . S
C347 C346 1.386 . S
C347 C351 1.393 . S
C348 H337 0.950 . S
C348 C346 1.391 . S
C348 C349 1.400 . S
C349 C343 1.491 . S
C349 C348 1.400 . S
C349 C350 1.398 . S
C350 H338 0.950 . S
C350 C349 1.398 . S
C350 C351 1.391 . S
C351 H339 0.950 . S
C351 C347 1.393 . S
C351 C350 1.391 . S
H352 C360 0.950 . S
H353 C365 0.950 . S
H354 C362 0.950 . S
H355 C364 0.950 . S
H356 C366 0.950 . S
H357 C368 0.950 . S
H358 C370 0.950 . S
H359 C371 0.950 . S
C360 H352 0.950 . S
C360 C361 1.386 . S
C360 C362 1.391 . S
C361 C360 1.386 . S
C361 C365 1.393 . S
C362 H354 0.950 . S
C362 C360 1.391 . S
C362 C363 1.400 . S
C363 C362 1.400 . S
C363 C364 1.398 . S
C363 C369 1.491 . S
C364 H355 0.950 . S
C364 C363 1.398 . S
C364 C365 1.391 . S
C365 H353 0.950 . S
C365 C361 1.393 . S
C365 C364 1.391 . S
C366 H356 0.950 . S
C366 C367 1.386 . S
C366 C368 1.391 . S
C367 C366 1.386 . S
C367 C371 1.393 . S
C368 H357 0.950 . S
C368 C366 1.391 . S
C368 C369 1.400 . S
C369 C363 1.491 . S
C369 C368 1.400 . S
C369 C370 1.398 . S
C370 H358 0.950 . S
C370 C369 1.398 . S
C370 C371 1.391 . S
C371 H359 0.950 . S
C371 C367 1.393 . S
C371 C370 1.391 . S
H372 C380 0.950 . S
H373 C385 0.950 . S
H374 C382 0.950 . S
H375 C384 0.950 . S
H376 C386 0.950 . S
H377 C388 0.950 . S
H378 C390 0.950 . S
H379 C391 0.950 . S
C380 H372 0.950 . S
C380 C381 1.386 . S
C380 C382 1.391 . S
C381 C380 1.386 . S
C381 C385 1.393 . S
C382 H374 0.950 . S
C382 C380 1.391 . S
C382 C383 1.400 . S
C383 C382 1.400 . S
C383 C384 1.398 . S
C383 C389 1.491 . S
C384 H375 0.950 . S
C384 C383 1.398 . S
C384 C385 1.391 . S
C385 H373 0.950 . S
C385 C381 1.393 . S
C385 C384 1.391 . S
C386 H376 0.950 . S
C386 C387 1.386 . S
C386 C388 1.391 . S
C387 C386 1.386 . S
C387 C391 1.393 . S
C388 H377 0.950 . S
C388 C386 1.391 . S
C388 C389 1.400 . S
C389 C383 1.491 . S
C389 C388 1.400 . S
C389 C390 1.398 . S
C390 H378 0.950 . S
C390 C389 1.398 . S
C390 C391 1.391 . S
C391 H379 0.950 . S
C391 C387 1.393 . S
C391 C390 1.391 . S
H392 C400 0.950 . S
H393 C405 0.950 . S
H394 C402 0.950 . S
H395 C404 0.950 . S
H396 C406 0.950 . S
H397 C408 0.950 . S
H398 C410 0.950 . S
H399 C411 0.950 . S
C400 H392 0.950 . S
C400 C401 1.386 . S
C400 C402 1.391 . S
C401 C400 1.386 . S
C401 C405 1.393 . S
C402 H394 0.950 . S
C402 C400 1.391 . S
C402 C403 1.400 . S
C403 C402 1.400 . S
C403 C404 1.398 . S
C403 C409 1.491 . S
C404 H395 0.950 . S
C404 C403 1.398 . S
C404 C405 1.391 . S
C405 H393 0.950 . S
C405 C401 1.393 . S
C405 C404 1.391 . S
C406 H396 0.950 . S
C406 C407 1.386 . S
C406 C408 1.391 . S
C407 C406 1.386 . S
C407 C411 1.393 . S
C408 H397 0.950 . S
C408 C406 1.391 . S
C408 C409 1.400 . S
C409 C403 1.491 . S
C409 C408 1.400 . S
C409 C410 1.398 . S
C410 H398 0.950 . S
C410 C409 1.398 . S
C410 C411 1.391 . S
C411 H399 0.950 . S
C411 C407 1.393 . S
C411 C410 1.391 . S
H412 C420 0.950 . S
H413 C425 0.950 . S
H414 C422 0.950 . S
H415 C424 0.950 . S
H416 C426 0.950 . S
H417 C428 0.950 . S
H418 C430 0.950 . S
H419 C431 0.950 . S
C420 H412 0.950 . S
C420 C421 1.386 . S
C420 C422 1.391 . S
C421 C420 1.386 . S
C421 C425 1.393 . S
C422 H414 0.950 . S
C422 C420 1.391 . S
C422 C423 1.400 . S
C423 C422 1.400 . S
C423 C424 1.398 . S
C423 C429 1.491 . S
C424 H415 0.950 . S
C424 C423 1.398 . S
C424 C425 1.391 . S
C425 H413 0.950 . S
C425 C421 1.393 . S
C425 C424 1.391 . S
C426 H416 0.950 . S
C426 C427 1.386 . S
C426 C428 1.391 . S
C427 C426 1.386 . S
C427 C431 1.393 . S
C428 H417 0.950 . S
C428 C426 1.391 . S
C428 C429 1.400 . S
C429 C423 1.491 . S
C429 C428 1.400 . S
C429 C430 1.398 . S
C430 H418 0.950 . S
C430 C429 1.398 . S
C430 C431 1.391 . S
C431 H419 0.950 . S
C431 C427 1.393 . S
C431 C430 1.391 . S
H432 C440 0.950 . S
H433 C445 0.950 . S
H434 C442 0.950 . S
H435 C444 0.950 . S
H436 C446 0.950 . S
H437 C448 0.950 . S
H438 C450 0.950 . S
H439 C451 0.950 . S
C440 H432 0.950 . S
C440 C441 1.386 . S
C440 C442 1.391 . S
C441 C440 1.386 . S
C441 C445 1.393 . S
C442 H434 0.950 . S
C442 C440 1.391 . S
C442 C443 1.400 . S
C443 C442 1.400 . S
C443 C444 1.398 . S
C443 C449 1.491 . S
C444 H435 0.950 . S
C444 C443 1.398 . S
C444 C445 1.391 . S
C445 H433 0.950 . S
C445 C441 1.393 . S
C445 C444 1.391 . S
C446 H436 0.950 . S
C446 C447 1.386 . S
C446 C448 1.391 . S
C447 C446 1.386 . S
C447 C451 1.393 . S
C448 H437 0.950 . S
C448 C446 1.391 . S
C448 C449 1.400 . S
C449 C443 1.491 . S
C449 C448 1.400 . S
C449 C450 1.398 . S
C450 H438 0.950 . S
C450 C449 1.398 . S
C450 C451 1.391 . S
C451 H439 0.950 . S
C451 C447 1.393 . S
C451 C450 1.391 . S
H452 C460 0.950 . S
H453 C465 0.950 . S
H454 C462 0.950 . S
H455 C464 0.950 . S
H456 C466 0.950 . S
H457 C468 0.950 . S
H458 C470 0.950 . S
H459 C471 0.950 . S
C460 H452 0.950 . S
C460 C461 1.386 . S
C460 C462 1.391 . S
C461 C460 1.386 . S
C461 C465 1.393 . S
C462 H454 0.950 . S
C462 C460 1.391 . S
C462 C463 1.400 . S
C463 C462 1.400 . S
C463 C464 1.398 . S
C463 C469 1.491 . S
C464 H455 0.950 . S
C464 C463 1.398 . S
C464 C465 1.391 . S
C465 H453 0.950 . S
C465 C461 1.393 . S
C465 C464 1.391 . S
C466 H456 0.950 . S
C466 C467 1.386 . S
C466 C468 1.391 . S
C467 C466 1.386 . S
C467 C471 1.393 . S
C468 H457 0.950 . S
C468 C466 1.391 . S
C468 C469 1.400 . S
C469 C463 1.491 . S
C469 C468 1.400 . S
C469 C470 1.398 . S
C470 H458 0.950 . S
C470 C469 1.398 . S
C470 C471 1.391 . S
C471 H459 0.950 . S
C471 C467 1.393 . S
C471 C470 1.391 . S
H472 C480 0.950 . S
H473 C485 0.950 . S
H474 C482 0.950 . S
H475 C484 0.950 . S
H476 C486 0.950 . S
H477 C488 0.950 . S
H478 C490 0.950 . S
H479 C491 0.950 . S
C480 H472 0.950 . S
C480 C481 1.386 . S
C480 C482 1.391 . S
C481 C480 1.386 . S
C481 C485 1.393 . S
C482 H474 0.950 . S
C482 C480 1.391 . S
C482 C483 1.400 . S
C483 C482 1.400 . S
C483 C484 1.398 . S
C483 C489 1.491 . S
C484 H475 0.950 . S
C484 C483 1.398 . S
C484 C485 1.391 . S
C485 H473 0.950 . S
C485 C481 1.393 . S
C485 C484 1.391 . S
C486 H476 0.950 . S
C486 C487 1.386 . S
C486 C488 1.391 . S
C487 C486 1.386 . S
C487 C491 1.393 . S
C488 H477 0.950 . S
C488 C486 1.391 . S
C488 C489 1.400 . S
C489 C483 1.491 . S
C489 C488 1.400 . S
C489 C490 1.398 . S
C490 H478 0.950 . S
C490 C489 1.398 . S
C490 C491 1.391 . S
C491 H479 0.950 . S
C491 C487 1.393 . S
C491 C490 1.391 . S
H492 C500 0.950 . S
H493 C505 0.950 . S
H494 C502 0.950 . S
H495 C504 0.950 . S
H496 C506 0.950 . S
H497 C508 0.950 . S
H498 C510 0.950 . S
H499 C511 0.950 . S
C500 H492 0.950 . S
C500 C501 1.386 . S
C500 C502 1.391 . S
C501 C500 1.386 . S
C501 C505 1.393 . S
C502 H494 0.950 . S
C502 C500 1.391 . S
C502 C503 1.400 . S
C503 C502 1.400 . S
C503 C504 1.398 . S
C503 C509 1.491 . S
C504 H495 0.950 . S
C504 C503 1.398 . S
C504 C505 1.391 . S
C505 H493 0.950 . S
C505 C501 1.393 . S
C505 C504 1.391 . S
C506 H496 0.950 . S
C506 C507 1.386 . S
C506 C508 1.391 . S
C507 C506 1.386 . S
C507 C511 1.393 . S
C508 H497 0.950 . S
C508 C506 1.391 . S
C508 C509 1.400 . S
C509 C503 1.491 . S
C509 C508 1.400 . S
C509 C510 1.398 . S
C510 H498 0.950 . S
C510 C509 1.398 . S
C510 C511 1.391 . S
C511 H499 0.950 . S
C511 C507 1.393 . S
C511 C510 1.391 . S
H512 C520 0.950 . S
H513 C525 0.950 . S
H514 C522 0.950 . S
H515 C524 0.950 . S
H516 C526 0.950 . S
H517 C528 0.950 . S
H518 C530 0.950 . S
H519 C531 0.950 . S
C520 H512 0.950 . S
C520 C521 1.386 . S
C520 C522 1.391 . S
C521 C520 1.386 . S
C521 C525 1.393 . S
C522 H514 0.950 . S
C522 C520 1.391 . S
C522 C523 1.400 . S
C523 C522 1.400 . S
C523 C524 1.398 . S
C523 C529 1.491 . S
C524 H515 0.950 . S
C524 C523 1.398 . S
C524 C525 1.391 . S
C525 H513 0.950 . S
C525 C521 1.393 . S
C525 C524 1.391 . S
C526 H516 0.950 . S
C526 C527 1.386 . S
C526 C528 1.391 . S
C527 C526 1.386 . S
C527 C531 1.393 . S
C528 H517 0.950 . S
C528 C526 1.391 . S
C528 C529 1.400 . S
C529 C523 1.491 . S
C529 C528 1.400 . S
C529 C530 1.398 . S
C530 H518 0.950 . S
C530 C529 1.398 . S
C530 C531 1.391 . S
C531 H519 0.950 . S
C531 C527 1.393 . S
C531 C530 1.391 . S
H532 C540 0.950 . S
H533 C545 0.950 . S
H534 C542 0.950 . S
H535 C544 0.950 . S
H536 C546 0.950 . S
H537 C548 0.950 . S
H538 C550 0.950 . S
H539 C551 0.950 . S
C540 H532 0.950 . S
C540 C541 1.386 . S
C540 C542 1.391 . S
C541 C540 1.386 . S
C541 C545 1.393 . S
C542 H534 0.950 . S
C542 C540 1.391 . S
C542 C543 1.400 . S
C543 C542 1.400 . S
C543 C544 1.398 . S
C543 C549 1.491 . S
C544 H535 0.950 . S
C544 C543 1.398 . S
C544 C545 1.391 . S
C545 H533 0.950 . S
C545 C541 1.393 . S
C545 C544 1.391 . S
C546 H536 0.950 . S
C546 C547 1.386 . S
C546 C548 1.391 . S
C547 C546 1.386 . S
C547 C551 1.393 . S
C548 H537 0.950 . S
C548 C546 1.391 . S
C548 C549 1.400 . S
C549 C543 1.491 . S
C549 C548 1.400 . S
C549 C550 1.398 . S
C550 H538 0.950 . S
C550 C549 1.398 . S
C550 C551 1.391 . S
C551 H539 0.950 . S
C551 C547 1.393 . S
C551 C550 1.391 . S
H552 C560 0.950 . S
H553 C565 0.950 . S
H554 C562 0.950 . S
H555 C564 0.950 . S
H556 C566 0.950 . S
H557 C568 0.950 . S
H558 C570 0.950 . S
H559 C571 0.950 . S
C560 H552 0.950 . S
C560 C561 1.386 . S
C560 C562 1.391 . S
C561 C560 1.386 . S
C561 C565 1.393 . S
C562 H554 0.950 . S
C562 C560 1.391 . S
C562 C563 1.400 . S
C563 C562 1.400 . S
C563 C564 1.398 . S
C563 C569 1.491 . S
C564 H555 0.950 . S
C564 C563 1.398 . S
C564 C565 1.391 . S
C565 H553 0.950 . S
C565 C561 1.393 . S
C565 C564 1.391 . S
C566 H556 0.950 . S
C566 C567 1.386 . S
C566 C568 1.391 . S
C567 C566 1.386 . S
C567 C571 1.393 . S
C568 H557 0.950 . S
C568 C566 1.391 . S
C568 C569 1.400 . S
C569 C563 1.491 . S
C569 C568 1.400 . S
C569 C570 1.398 . S
C570 H558 0.950 . S
C570 C569 1.398 . S
C570 C571 1.391 . S
C571 H559 0.950 . S
C571 C567 1.393 . S
C571 C570 1.391 . S
H572 C580 0.950 . S
H573 C585 0.950 . S
H574 C582 0.950 . S
H575 C584 0.950 . S
H576 C586 0.950 . S
H577 C588 0.950 . S
H578 C590 0.950 . S
H579 C591 0.950 . S
C580 H572 0.950 . S
C580 C581 1.386 . S
C580 C582 1.391 . S
C581 C580 1.386 . S
C581 C585 1.393 . S
C582 H574 0.950 . S
C582 C580 1.391 . S
C582 C583 1.400 . S
C583 C582 1.400 . S
C583 C584 1.398 . S
C583 C589 1.491 . S
C584 H575 0.950 . S
C584 C583 1.398 . S
C584 C585 1.391 . S
C585 H573 0.950 . S
C585 C581 1.393 . S
C585 C584 1.391 . S
C586 H576 0.950 . S
C586 C587 1.386 . S
C586 C588 1.391 . S
C587 C586 1.386 . S
C587 C591 1.393 . S
C588 H577 0.950 . S
C588 C586 1.391 . S
C588 C589 1.400 . S
C589 C583 1.491 . S
C589 C588 1.400 . S
C589 C590 1.398 . S
C590 H578 0.950 . S
C590 C589 1.398 . S
C590 C591 1.391 . S
C591 H579 0.950 . S
C591 C587 1.393 . S
C591 C590 1.391 . S
H592 C600 0.950 . S
H593 C605 0.950 . S
H594 C602 0.950 . S
H595 C604 0.950 . S
H596 C606 0.950 . S
H597 C608 0.950 . S
H598 C610 0.950 . S
H599 C611 0.950 . S
C600 H592 0.950 . S
C600 C601 1.386 . S
C600 C602 1.391 1_556 S
C601 C600 1.386 . S
C601 C605 1.393 1_556 S
C602 H594 0.950 . S
C602 C600 1.391 1_554 S
C602 C603 1.400 . S
C603 C602 1.400 . S
C603 C604 1.398 . S
C603 C609 1.491 . S
C604 H595 0.950 . S
C604 C603 1.398 . S
C604 C605 1.391 . S
C605 H593 0.950 . S
C605 C601 1.393 1_554 S
C605 C604 1.391 . S
C606 H596 0.950 . S
C606 C607 1.386 . S
C606 C608 1.391 . S
C607 C606 1.386 . S
C607 C611 1.393 . S
C608 H597 0.950 . S
C608 C606 1.391 . S
C608 C609 1.400 . S
C609 C603 1.491 . S
C609 C608 1.400 . S
C609 C610 1.398 . S
C610 H598 0.950 . S
C610 C609 1.398 . S
C610 C611 1.391 . S
C611 H599 0.950 . S
C611 C607 1.393 . S
C611 C610 1.391 . S
H612 C620 0.950 . S
H613 C625 0.950 . S
H614 C622 0.950 . S
H615 C624 0.950 . S
H616 C626 0.950 . S
H617 C628 0.950 . S
H618 C630 0.950 . S
H619 C631 0.950 . S
C620 H612 0.950 . S
C620 C621 1.386 . S
C620 C622 1.391 . S
C621 C620 1.386 . S
C621 C625 1.393 . S
C622 H614 0.950 . S
C622 C620 1.391 . S
C622 C623 1.400 . S
C623 C622 1.400 . S
C623 C624 1.398 . S
C623 C629 1.491 . S
C624 H615 0.950 . S
C624 C623 1.398 . S
C624 C625 1.391 . S
C625 H613 0.950 . S
C625 C621 1.393 . S
C625 C624 1.391 . S
C626 H616 0.950 . S
C626 C627 1.386 . S
C626 C628 1.391 . S
C627 C626 1.386 . S
C627 C631 1.393 . S
C628 H617 0.950 . S
C628 C626 1.391 . S
C628 C629 1.400 . S
C629 C623 1.491 . S
C629 C628 1.400 . S
C629 C630 1.398 . S
C630 H618 0.950 . S
C630 C629 1.398 . S
C630 C631 1.391 . S
C631 H619 0.950 . S
C631 C627 1.393 . S
C631 C630 1.391 . S
H632 C640 0.950 . S
H633 C645 0.950 . S
H634 C642 0.950 . S
H635 C644 0.950 . S
H636 C646 0.950 . S
H637 C648 0.950 . S
H638 C650 0.950 . S
H639 C651 0.950 . S
C640 H632 0.950 . S
C640 C641 1.386 . S
C640 C642 1.391 . S
C641 C640 1.386 . S
C641 C645 1.393 . S
C642 H634 0.950 . S
C642 C640 1.391 . S
C642 C643 1.400 . S
C643 C642 1.400 . S
C643 C644 1.398 . S
C643 C649 1.491 . S
C644 H635 0.950 . S
C644 C643 1.398 . S
C644 C645 1.391 . S
C645 H633 0.950 . S
C645 C641 1.393 . S
C645 C644 1.391 . S
C646 H636 0.950 . S
C646 C647 1.386 . S
C646 C648 1.391 . S
C647 C646 1.386 . S
C647 C651 1.393 . S
C648 H637 0.950 . S
C648 C646 1.391 . S
C648 C649 1.400 . S
C649 C643 1.491 . S
C649 C648 1.400 . S
C649 C650 1.398 . S
C650 H638 0.950 . S
C650 C649 1.398 . S
C650 C651 1.391 . S
C651 H639 0.950 . S
C651 C647 1.393 . S
C651 C650 1.391 . S
C187 C100 1.519 . S
C181 C10 1.510 . S
C207 C103 1.684 . S
C201 C15 1.683 . S
C227 C101 1.414 . S
C221 C26 1.414 . S
C247 C102 1.488 . S
C241 C37 1.508 . S
C267 C117 1.758 . S
C261 C4 1.760 . S
C287 C131 1.670 . S
C281 C16 1.653 . S
C301 C27 1.595 . S
C307 C157 1.601 . S
C327 C171 1.402 . S
C321 C43 1.403 . S
C347 C116 1.682 . S
C341 C21 1.669 . S
C361 C32 1.442 . S
C367 C130 1.432 . S
C387 C156 1.597 . S
C381 C38 1.585 . S
C407 C170 1.574 . S
C401 C5 1.565 . S
C421 C49 1.739 . S
C427 C115 1.738 . S
C447 C88 1.588 . S
C441 C60 1.585 . S
C461 C76 1.577 . S
C467 C114 1.571 . S
C481 C81 1.528 . S
C487 C89 1.545 . S
C507 C144 1.478 . S
C501 C54 1.470 . S
C527 C158 1.595 . S
C521 C59 1.597 . S
C547 C128 1.598 . S
C541 C70 1.601 . S
C561 C87 1.623 . S
C567 C142 1.616 . S
C587 C145 1.539 . S
C581 C65 1.534 . S
C607 C159 1.622 . S
C601 C71 1.608 . S
C627 C129 1.599 . S
C621 C82 1.596 . S
C641 C48 1.714 . S
C647 C143 1.699 . S
