# Generated by pormake.
# Topology nom, (4,4)-cn, num edge types: 1
# Building blocks:
#     Node 0, Type 0, BuildingBlock: KUFVIS_clean_linker_0, # of connection points: 4
#     Node 1, Type 0, BuildingBlock: KUFVIS_clean_linker_0, # of connection points: 4
#     Node 2, Type 0, BuildingBlock: KUFVIS_clean_linker_0, # of connection points: 4
#     Node 3, Type 0, BuildingBlock: KUFVIS_clean_linker_0, # of connection points: 4
#     Node 4, Type 0, BuildingBlock: KUFVIS_clean_linker_0, # of connection points: 4
#     Node 5, Type 0, BuildingBlock: KUFVIS_clean_linker_0, # of connection points: 4
#     Node 6, Type 1, BuildingBlock: NAHDIM_clean_sbu_0, # of connection points: 4
#     Node 7, Type 1, BuildingBlock: NAHDIM_clean_sbu_0, # of connection points: 4
#     Node 8, Type 1, BuildingBlock: NAHDIM_clean_sbu_0, # of connection points: 4
#     Node 9, Type 1, BuildingBlock: NAHDIM_clean_sbu_0, # of connection points: 4
#     Node 10, Type 1, BuildingBlock: NAHDIM_clean_sbu_0, # of connection points: 4
#     Node 11, Type 1, BuildingBlock: NAHDIM_clean_sbu_0, # of connection points: 4
#     Edge 12, Type (0, 1), BuildingBlock: UVAHIK_clean_linker_0, # of connection points: 2
#     Edge 13, Type (0, 1), BuildingBlock: UVAHIK_clean_linker_0, # of connection points: 2
#     Edge 14, Type (0, 1), BuildingBlock: UVAHIK_clean_linker_0, # of connection points: 2
#     Edge 15, Type (0, 1), BuildingBlock: UVAHIK_clean_linker_0, # of connection points: 2
#     Edge 16, Type (0, 1), BuildingBlock: UVAHIK_clean_linker_0, # of connection points: 2
#     Edge 17, Type (0, 1), BuildingBlock: UVAHIK_clean_linker_0, # of connection points: 2
#     Edge 18, Type (0, 1), BuildingBlock: UVAHIK_clean_linker_0, # of connection points: 2
#     Edge 19, Type (0, 1), BuildingBlock: UVAHIK_clean_linker_0, # of connection points: 2
#     Edge 20, Type (0, 1), BuildingBlock: UVAHIK_clean_linker_0, # of connection points: 2
#     Edge 21, Type (0, 1), BuildingBlock: UVAHIK_clean_linker_0, # of connection points: 2
#     Edge 22, Type (0, 1), BuildingBlock: UVAHIK_clean_linker_0, # of connection points: 2
#     Edge 23, Type (0, 1), BuildingBlock: UVAHIK_clean_linker_0, # of connection points: 2
#     Edge 24, Type (0, 1), BuildingBlock: UVAHIK_clean_linker_0, # of connection points: 2
#     Edge 25, Type (0, 1), BuildingBlock: UVAHIK_clean_linker_0, # of connection points: 2
#     Edge 26, Type (0, 1), BuildingBlock: UVAHIK_clean_linker_0, # of connection points: 2
#     Edge 27, Type (0, 1), BuildingBlock: UVAHIK_clean_linker_0, # of connection points: 2
#     Edge 28, Type (0, 1), BuildingBlock: UVAHIK_clean_linker_0, # of connection points: 2
#     Edge 29, Type (0, 1), BuildingBlock: UVAHIK_clean_linker_0, # of connection points: 2
#     Edge 30, Type (0, 1), BuildingBlock: UVAHIK_clean_linker_0, # of connection points: 2
#     Edge 31, Type (0, 1), BuildingBlock: UVAHIK_clean_linker_0, # of connection points: 2
#     Edge 32, Type (0, 1), BuildingBlock: UVAHIK_clean_linker_0, # of connection points: 2
#     Edge 33, Type (0, 1), BuildingBlock: UVAHIK_clean_linker_0, # of connection points: 2
#     Edge 34, Type (0, 1), BuildingBlock: UVAHIK_clean_linker_0, # of connection points: 2
#     Edge 35, Type (0, 1), BuildingBlock: UVAHIK_clean_linker_0, # of connection points: 2
# Relax obj value: 0.021
# Max RMSD: 0.122
# Mean RMSD: 0.082
data_MOF--net-nom--node1-NAHDIM_clean_sbu_0--node2-KUFVIS_clean_linker_0--edge1-UVAHIK_clean_linker_0
_symmetry_space_group_name_H-M    P1
_symmetry_Int_Tables_number       1
_symmetry_cell_setting            triclinic
loop_
_symmetry_equiv_pos_as_xyz
'x, y, z'
_cell_length_a     57.974385
_cell_length_b     59.671873
_cell_length_c     60.040017
_cell_angle_alpha  90.120022
_cell_angle_beta   90.575016
_cell_angle_gamma 120.99236
loop_
_atom_site_label
_atom_site_type_symbol
_atom_site_fract_x
_atom_site_fract_y
_atom_site_fract_z
_atom_type_partial_charge
H0 H 0.10773 0.58588 0.32466 0.0
H1 H 0.04312 0.55614 0.27684 0.0
H2 H 0.02723 0.53383 0.34618 0.0
H3 H 0.98793 0.53099 0.33763 0.0
H4 H 0.92535 0.47863 0.29258 0.0
H5 H 1.00733 0.5158 0.27193 0.0
C6 C 0.08637 0.57406 0.32083 0.0
C7 C 0.06826 0.56093 0.33795 0.0
C8 C 0.07745 0.57178 0.29876 0.0
C9 C 0.04978 0.55696 0.29388 0.0
C10 C 0.03106 0.5429 0.31083 0.0
C11 C 0.0408 0.54482 0.33287 0.0
C12 C 1.00167 0.52562 0.30556 0.0
C13 C 0.98206 0.52109 0.32163 0.0
C14 C 0.95462 0.50352 0.31724 0.0
C15 C 0.94662 0.49131 0.29635 0.0
C16 C 0.96549 0.49619 0.27987 0.0
C17 C 0.99295 0.51305 0.28458 0.0
H18 H 0.51738 0.10283 0.49259 0.0
H19 H 0.51153 0.04609 0.44599 0.0
H20 H 0.48689 0.0246 0.51454 0.0
H21 H 0.4905 0.99142 0.50872 0.0
H22 H 0.47154 0.93155 0.46057 0.0
H23 H 0.48542 1.00533 0.4383 0.0
C24 C 0.51124 0.08268 0.48891 0.0
C25 C 0.50249 0.06443 0.50607 0.0
C26 C 0.5138 0.07584 0.46722 0.0
C27 C 0.50792 0.05033 0.46265 0.0
C28 C 0.4976 0.03088 0.47938 0.0
C29 C 0.49492 0.03849 0.50114 0.0
C30 C 0.49008 1.00308 0.47423 0.0
C31 C 0.48726 0.98555 0.49142 0.0
C32 C 0.48021 0.95978 0.48649 0.0
C33 C 0.47726 0.95157 0.46433 0.0
C34 C 0.47954 0.96816 0.44703 0.0
C35 C 0.48516 0.9935 0.452 0.0
H36 H 0.51576 0.43121 0.62484 0.0
H37 H 0.48859 0.46829 0.66984 0.0
H38 H 0.50319 0.49164 0.60074 0.0
H39 H 0.46934 0.49925 0.60698 0.0
H40 H 0.47008 0.55714 0.64962 0.0
H41 H 0.50167 0.51082 0.67422 0.0
C42 C 0.50908 0.44493 0.6277 0.0
C43 C 0.50919 0.46031 0.6101 0.0
C44 C 0.50201 0.44794 0.64923 0.0
C45 C 0.49455 0.46654 0.65321 0.0
C46 C 0.49452 0.48242 0.63576 0.0
C47 C 0.50226 0.47926 0.61428 0.0
C48 C 0.48707 0.50266 0.63989 0.0
C49 C 0.47479 0.50947 0.62285 0.0
C50 C 0.46946 0.52963 0.62617 0.0
C51 C 0.47532 0.54234 0.64682 0.0
C52 C 0.48622 0.53514 0.66431 0.0
C53 C 0.49239 0.51555 0.66076 0.0
H54 H 0.10415 0.55075 0.78838 0.0
H55 H 0.04398 0.50361 0.83592 0.0
H56 H 0.02098 0.51456 0.76976 0.0
H57 H 0.98409 0.47517 0.77711 0.0
H58 H 0.92366 0.4576 0.82573 0.0
H59 H 1.00674 0.50502 0.84465 0.0
C60 C 0.08309 0.53892 0.79277 0.0
C61 C 0.06327 0.53344 0.77666 0.0
C62 C 0.07627 0.52841 0.81414 0.0
C63 C 0.04901 0.51208 0.81947 0.0
C64 C 0.0285 0.5071 0.80375 0.0
C65 C 0.03606 0.51775 0.78219 0.0
C66 C 0.99942 0.49203 0.81005 0.0
C67 C 0.979 0.47723 0.79399 0.0
C68 C 0.95174 0.46541 0.79956 0.0
C69 C 0.94477 0.46735 0.82138 0.0
C70 C 0.96449 0.48108 0.83774 0.0
C71 C 0.99173 0.49351 0.83203 0.0
H72 H 0.5113 0.92912 -0.00641 0.0
H73 H 0.5357 0.98891 0.9447 0.0
H74 H 0.52163 1.00302 0.01266 0.0
H75 H 0.55458 0.04417 0.00441 0.0
H76 H 0.5557 0.09775 0.95652 0.0
H77 H 0.52282 0.01764 0.93768 0.0
C78 C 0.51709 0.94901 0.98942 0.0
C79 C 0.51673 0.96549 0.00585 0.0
C80 C 0.52342 0.95725 0.9674 0.0
C81 C 0.5301 0.98266 0.96171 0.0
C82 C 0.52998 0.99982 0.97797 0.0
C83 C 0.52274 0.99069 -1e-05 0.0
C84 C 0.53708 0.02702 0.97204 0.0
C85 C 0.54933 0.04758 0.98793 0.0
C86 C 0.55524 0.07288 0.98258 0.0
C87 C 0.54979 0.07791 0.96102 0.0
C88 C 0.53884 0.05824 0.94471 0.0
C89 C 0.53205 0.03278 0.95034 0.0
H90 H 0.48832 0.58087 0.12638 0.0
H91 H 0.52772 0.55888 0.17494 0.0
H92 H 0.51161 0.52587 0.10835 0.0
H93 H 0.55164 0.52759 0.11612 0.0
H94 H 0.56162 0.47918 0.16317 0.0
H95 H 0.51953 0.5175 0.1826 0.0
C96 C 0.49758 0.56964 0.13086 0.0
C97 C 0.49911 0.55334 0.11494 0.0
C98 C 0.50777 0.57165 0.15248 0.0
C99 C 0.51957 0.55694 0.15827 0.0
C100 C 0.52147 0.54042 0.1424 0.0
C101 C 0.51113 0.53888 0.12069 0.0
C102 C 0.53354 0.5243 0.14842 0.0
C103 C 0.54793 0.51892 0.1325 0.0
C104 C 0.55757 0.50221 0.13761 0.0
C105 C 0.55347 0.49143 0.15889 0.0
C106 C 0.54036 0.49738 0.17517 0.0
C107 C 0.53028 0.51366 0.16996 0.0
C108 C 0.6343 0.33178 0.38504 0.0
O109 O 0.6587 0.34572 0.37706 0.0
O110 O 0.67937 0.39987 0.38928 0.0
Zn111 Zn 0.63877 0.38257 0.39038 0.0
O112 O 0.62692 0.39354 0.41783 0.0
C113 C 0.63682 0.41363 0.35388 0.0
O114 O 0.66121 0.43092 0.3609 0.0
O115 O 0.62215 0.34331 0.39143 0.0
C116 C 0.62655 0.41466 0.41883 0.0
O117 O 0.6352 0.43068 0.40187 0.0
C118 C 0.69637 0.42197 0.39776 0.0
O119 O 0.68783 0.43562 0.40822 0.0
O120 O 0.62407 0.39156 0.3634 0.0
C121 C 0.32892 0.70185 0.56395 0.0
O122 O 0.33851 0.68652 0.5679 0.0
O123 O 0.2975 0.63322 0.56472 0.0
Zn124 Zn 0.27745 0.65253 0.56168 0.0
O125 O 0.25428 0.64145 0.53374 0.0
C126 C 0.23719 0.61928 0.59237 0.0
O127 O 0.24005 0.60183 0.5814 0.0
O128 O 0.30368 0.69176 0.56105 0.0
C129 C 0.24196 0.61812 0.52622 0.0
O130 O 0.24566 0.6005 0.53593 0.0
C131 C 0.30845 0.62838 0.54864 0.0
O132 O 0.30669 0.63591 0.52847 0.0
O133 O 0.25214 0.6433 0.58756 0.0
C134 C 0.61851 0.30895 0.72065 0.0
O135 O 0.63912 0.31552 0.70767 0.0
O136 O 0.66788 0.29179 0.73114 0.0
Zn137 Zn 0.62738 0.26705 0.73053 0.0
O138 O 0.6139 0.24524 0.70223 0.0
C139 C 0.62926 0.23341 0.76469 0.0
O140 O 0.65317 0.24128 0.75656 0.0
O141 O 0.60964 0.28855 0.73247 0.0
C142 C 0.61331 0.22373 0.70013 0.0
O143 O 0.62335 0.2162 0.71612 0.0
C144 C 0.68552 0.28776 0.72277 0.0
O145 O 0.67789 0.26557 0.71241 0.0
O146 O 0.61532 0.24244 0.75669 0.0
C147 C 0.41153 0.70093 0.88231 0.0
O148 O 0.38979 0.69041 0.86963 0.0
O149 O 0.35814 0.63265 0.88484 0.0
Zn150 Zn 0.39822 0.64686 0.88848 0.0
O151 O 0.40588 0.63224 0.91599 0.0
C152 C 0.40221 0.63021 0.84329 0.0
O153 O 0.3797 0.62979 0.83912 0.0
O154 O 0.41851 0.6862 0.89168 0.0
C155 C 0.40684 0.61143 0.915 0.0
O156 O 0.40164 0.59874 0.89595 0.0
C157 C 0.34066 0.60855 0.88731 0.0
O158 O 0.34871 0.59221 0.89224 0.0
O159 O 0.41306 0.63709 0.8625 0.0
C160 C 0.7325 0.41676 0.07624 0.0
O161 O 0.74289 0.41339 0.09457 0.0
O162 O 0.7291 0.35006 0.05311 0.0
Zn163 Zn 0.75596 0.38879 0.0562 0.0
O164 O 0.77935 0.39608 0.08355 0.0
C165 C 0.80024 0.39772 0.02907 0.0
O166 O 0.80323 0.38454 0.04518 0.0
O167 O 0.73565 0.40804 0.05789 0.0
C168 C 0.80039 0.41856 0.0858 0.0
O169 O 0.80544 0.43648 0.0708 0.0
C170 C 0.73408 0.33254 0.05919 0.0
O171 O 0.75773 0.3396 0.06798 0.0
O172 O 0.78058 0.40151 0.02968 0.0
C173 C 0.4048 0.72222 0.23702 0.0
O174 O 0.38454 0.71358 0.2508 0.0
O175 O 0.35104 0.736 0.2254 0.0
Zn176 Zn 0.39123 0.76195 0.22623 0.0
O177 O 0.40322 0.78577 0.19955 0.0
C178 C 0.38615 0.7911 0.26255 0.0
O179 O 0.36193 0.78169 0.25396 0.0
O180 O 0.41109 0.74234 0.22542 0.0
C181 C 0.40201 0.80644 0.19843 0.0
O182 O 0.39137 0.81246 0.21488 0.0
C183 C 0.33402 0.7394 0.21471 0.0
O184 O 0.34246 0.76081 0.2031 0.0
O185 O 0.40184 0.78459 0.25394 0.0
C186 C 0.09823 0.60329 0.26715 0.0
C187 C 0.09776 0.58424 0.28113 0.0
C188 C 0.12031 0.61807 0.25332 0.0
C189 C 0.18241 0.62213 0.23122 0.0
H190 H 0.21325 0.69694 0.2376 0.0
C191 C 0.29589 0.69597 0.22683 0.0
C192 C 0.30486 0.72009 0.2164 0.0
C193 C 0.26841 0.67827 0.22946 0.0
C194 C 0.20471 0.67612 0.23527 0.0
H195 H 0.11874 0.56437 0.29064 0.0
H196 H 0.15705 0.58995 0.26676 0.0
H197 H 0.1678 0.66712 0.25064 0.0
H198 H 0.29195 0.74431 0.20011 0.0
H199 H 0.24389 0.71342 0.20493 0.0
H200 H 0.21988 0.63118 0.21684 0.0
C201 C 0.14059 0.5936 0.26621 0.0
C202 C 0.17859 0.659 0.24268 0.0
C203 C 0.11873 0.57905 0.28004 0.0
C204 C 0.28571 0.7259 0.20826 0.0
C205 C 0.25819 0.70827 0.21107 0.0
C206 C 0.20855 0.63923 0.22393 0.0
C207 C 0.14206 0.6138 0.25314 0.0
C208 C 0.16746 0.63179 0.2414 0.0
C209 C 0.24926 0.68435 0.22186 0.0
C210 C 0.22027 0.66639 0.2265 0.0
H211 H 0.08227 0.60764 0.26778 0.0
H212 H 0.12074 0.63334 0.24328 0.0
H213 H 0.17423 0.60128 0.22959 0.0
H214 H 0.3101 0.69086 0.23326 0.0
H215 H 0.26219 0.66015 0.23811 0.0
C216 C 0.54737 0.10394 0.43843 0.0
C217 C 0.52343 0.0962 0.44986 0.0
C218 C 0.55903 0.1266 0.42544 0.0
C219 C 0.54618 0.17643 0.40034 0.0
H220 H 0.62143 0.22473 0.41457 0.0
C221 C 0.59482 0.28796 0.39475 0.0
C222 C 0.62146 0.30307 0.38739 0.0
C223 C 0.58304 0.26106 0.39787 0.0
C224 C 0.60055 0.21137 0.41005 0.0
H225 H 0.49199 0.10481 0.45566 0.0
H226 H 0.51207 0.14407 0.43308 0.0
H227 H 0.60006 0.17954 0.42688 0.0
H228 H 0.65644 0.30161 0.3771 0.0
H229 H 0.63583 0.2546 0.38261 0.0
H230 H 0.54645 0.20855 0.38425 0.0
C231 C 0.52194 0.13284 0.43392 0.0
C232 C 0.58829 0.1854 0.41706 0.0
C233 C 0.51047 0.11042 0.44697 0.0
C234 C 0.63589 0.29056 0.38284 0.0
C235 C 0.62414 0.26364 0.38608 0.0
C236 C 0.55841 0.20238 0.39338 0.0
C237 C 0.54677 0.14168 0.42354 0.0
C238 C 0.56077 0.16781 0.41282 0.0
C239 C 0.59763 0.24861 0.39378 0.0
C240 C 0.58555 0.22033 0.39867 0.0
H241 H 0.5578 0.09336 0.44055 0.0
H242 H 0.57804 0.13277 0.41746 0.0
H243 H 0.52507 0.16326 0.39647 0.0
H244 H 0.58311 0.29694 0.3984 0.0
H245 H 0.56271 0.25013 0.40412 0.0
C246 C 0.46877 0.56352 0.60268 0.0
C247 C 0.45652 0.53719 0.60884 0.0
C248 C 0.45417 0.57246 0.59103 0.0
C249 C 0.39012 0.55338 0.56123 0.0
H250 H 0.39809 0.61438 0.59181 0.0
C251 C 0.33526 0.60876 0.53533 0.0
C252 C 0.32428 0.61569 0.55296 0.0
C253 C 0.35132 0.59797 0.53967 0.0
C254 C 0.39559 0.59733 0.58311 0.0
H255 H 0.42023 0.49913 0.60634 0.0
H256 H 0.3944 0.51478 0.58602 0.0
H257 H 0.42732 0.59793 0.60191 0.0
H258 H 0.32096 0.61607 0.58892 0.0
H259 H 0.34902 0.59749 0.59641 0.0
H260 H 0.35781 0.55268 0.54277 0.0
C261 C 0.41537 0.52848 0.58999 0.0
C262 C 0.41258 0.58808 0.58868 0.0
C263 C 0.43011 0.51948 0.60158 0.0
C264 C 0.3292 0.61109 0.57495 0.0
C265 C 0.34538 0.60055 0.57926 0.0
C266 C 0.37317 0.56284 0.55549 0.0
C267 C 0.42692 0.55529 0.58552 0.0
C268 C 0.40994 0.56589 0.57797 0.0
C269 C 0.3569 0.59419 0.56171 0.0
C270 C 0.37552 0.58468 0.56665 0.0
H271 H 0.48917 0.57749 0.60806 0.0
H272 H 0.46379 0.59312 0.5874 0.0
H273 H 0.38764 0.53626 0.55268 0.0
H274 H 0.33175 0.61196 0.5182 0.0
H275 H 0.36003 0.59332 0.52583 0.0
C276 C 0.91159 0.45978 0.77927 0.0
C277 C 0.92975 0.45125 0.78303 0.0
C278 C 0.88708 0.44362 0.76838 0.0
C279 C 0.84634 0.38315 0.73515 0.0
H280 H 0.78797 0.37853 0.76982 0.0
C281 C 0.73429 0.301 0.7223 0.0
C282 C 0.71449 0.30751 0.72581 0.0
C283 C 0.76148 0.31929 0.72668 0.0
C284 C 0.80392 0.37983 0.75963 0.0
H285 H 0.93753 0.41996 0.77723 0.0
H286 H 0.89435 0.39139 0.75801 0.0
H287 H 0.83413 0.40956 0.78067 0.0
H288 H 0.70783 0.33872 0.73559 0.0
H289 H 0.75506 0.37071 0.74257 0.0
H290 H 0.81587 0.35326 0.71408 0.0
C291 C 0.8992 0.4107 0.76336 0.0
C292 C 0.83047 0.39765 0.76591 0.0
C293 C 0.9239 0.42702 0.77427 0.0
C294 C 0.72253 0.33295 0.733 0.0
C295 C 0.74966 0.35127 0.73713 0.0
C296 C 0.81961 0.36535 0.72871 0.0
C297 C 0.88009 0.41845 0.76116 0.0
C298 C 0.85201 0.39963 0.75374 0.0
C299 C 0.76947 0.34456 0.73449 0.0
C300 C 0.79804 0.36353 0.74087 0.0
H301 H 0.91573 0.47842 0.78591 0.0
H302 H 0.87302 0.45035 0.76654 0.0
H303 H 0.86253 0.38425 0.72545 0.0
H304 H 0.72873 0.28154 0.71679 0.0
H305 H 0.77609 0.31332 0.72463 0.0
C306 C 0.50087 0.92878 0.93412 0.0
C307 C 0.52112 0.93802 0.9506 0.0
C308 C 0.49343 0.90563 0.92242 0.0
C309 C 0.49283 0.84475 0.93261 0.0
H310 H 0.4645 0.82643 0.87229 0.0
C311 C 0.45166 0.7409 0.8985 0.0
C312 C 0.42728 0.72956 0.8864 0.0
C313 C 0.4659 0.76763 0.90343 0.0
C314 C 0.47221 0.83124 0.88921 0.0
H315 H 0.55111 0.93195 0.96648 0.0
H316 H 0.5389 0.89216 0.94556 0.0
H317 H 0.4858 0.87191 0.88506 0.0
H318 H 0.39916 0.73763 0.86944 0.0
H319 H 0.42377 0.78426 0.87845 0.0
H320 H 0.47876 0.80426 0.93711 0.0
C321 C 0.52818 0.90221 0.94203 0.0
C322 C 0.48447 0.85729 0.8965 0.0
C323 C 0.53541 0.92514 0.95383 0.0
C324 C 0.41785 0.74573 0.87882 0.0
C325 C 0.43207 0.77252 0.88386 0.0
C326 C 0.48061 0.81884 0.92537 0.0
C327 C 0.50623 0.89147 0.927 0.0
C328 C 0.49485 0.86433 0.91834 0.0
C329 C 0.45606 0.78372 0.89653 0.0
C330 C 0.47003 0.81167 0.90363 0.0
H331 H 0.48938 0.93826 0.93156 0.0
H332 H 0.4764 0.8979 0.91101 0.0
H333 H 0.4999 0.84925 0.94972 0.0
H334 H 0.45967 0.72908 0.90439 0.0
H335 H 0.48457 0.77567 0.91285 0.0
C336 C 0.56623 0.47055 0.11779 0.0
C337 C 0.57312 0.49653 0.1215 0.0
C338 C 0.5837 0.465 0.10656 0.0
C339 C 0.62153 0.4573 0.07741 0.0
H340 H 0.69423 0.49734 0.10136 0.0
C341 C 0.70234 0.43052 0.05837 0.0
C342 C 0.71658 0.42978 0.0772 0.0
C343 C 0.68633 0.44176 0.05974 0.0
C344 C 0.67405 0.48603 0.09445 0.0
H345 H 0.6028 0.53706 0.11522 0.0
H346 H 0.63352 0.5274 0.0954 0.0
H347 H 0.66217 0.51104 0.10943 0.0
H348 H 0.72564 0.44087 0.11205 0.0
H349 H 0.69774 0.4603 0.11443 0.0
H350 H 0.63308 0.43155 0.06337 0.0
C351 C 0.61464 0.51132 0.10133 0.0
C352 C 0.65575 0.49407 0.09883 0.0
C353 C 0.59699 0.51686 0.11246 0.0
C354 C 0.71494 0.44106 0.09723 0.0
C355 C 0.69909 0.45241 0.09855 0.0
C356 C 0.63987 0.44931 0.07296 0.0
C357 C 0.60856 0.48535 0.0989 0.0
C358 C 0.62905 0.47938 0.0909 0.0
C359 C 0.68439 0.45269 0.07989 0.0
C360 C 0.66611 0.46316 0.08198 0.0
H361 H 0.5479 0.45453 0.1246 0.0
H362 H 0.57845 0.44481 0.10519 0.0
H363 H 0.60118 0.4457 0.07088 0.0
H364 H 0.70322 0.42205 0.04266 0.0
H365 H 0.6754 0.44184 0.04503 0.0
C366 C 0.44892 0.93163 0.51596 0.0
C367 C 0.47264 0.93995 0.50405 0.0
C368 C 0.43712 0.90812 0.52769 0.0
C369 C 0.43552 0.84531 0.52557 0.0
H370 H 0.38624 0.82767 0.57463 0.0
C371 C 0.3754 0.7408 0.56029 0.0
C372 C 0.34751 0.73043 0.56176 0.0
C373 C 0.39291 0.76752 0.55685 0.0
C374 C 0.39996 0.83237 0.56092 0.0
H375 H 0.50391 0.93169 0.49645 0.0
H376 H 0.48433 0.89148 0.51803 0.0
H377 H 0.41468 0.87336 0.56375 0.0
H378 H 0.31626 0.74018 0.56161 0.0
H379 H 0.34697 0.78696 0.55579 0.0
H380 H 0.42079 0.80435 0.52279 0.0
C381 C 0.47412 0.9024 0.51768 0.0
C382 C 0.41623 0.85853 0.55462 0.0
C383 C 0.48562 0.92563 0.5056 0.0
C384 C 0.33762 0.74753 0.56045 0.0
C385 C 0.35521 0.77434 0.55728 0.0
C386 C 0.41958 0.81929 0.53207 0.0
C387 C 0.449 0.89263 0.52795 0.0
C388 C 0.43393 0.86533 0.53659 0.0
C389 C 0.38298 0.78453 0.55509 0.0
C390 C 0.40131 0.81248 0.54956 0.0
H391 H 0.43836 0.94218 0.51468 0.0
H392 H 0.41772 0.9013 0.53518 0.0
H393 H 0.4483 0.84948 0.51127 0.0
H394 H 0.3837 0.7282 0.56127 0.0
H395 H 0.41424 0.77487 0.55538 0.0
C396 C 0.49423 0.40575 0.66438 0.0
C397 C 0.50472 0.43265 0.66741 0.0
C398 C 0.50281 0.39244 0.67798 0.0
C399 C 0.52176 0.36623 0.71011 0.0
H400 H 0.59958 0.40603 0.71531 0.0
C401 C 0.5827 0.3174 0.73411 0.0
C402 C 0.60527 0.32459 0.7208 0.0
C403 C 0.56959 0.33161 0.73334 0.0
C404 C 0.57783 0.39463 0.71402 0.0
H405 H 0.53036 0.46623 0.68831 0.0
H406 H 0.54505 0.44284 0.71253 0.0
H407 H 0.57569 0.42806 0.70483 0.0
H408 H 0.63206 0.35267 0.69661 0.0
H409 H 0.60907 0.37705 0.69499 0.0
H410 H 0.52415 0.33247 0.71782 0.0
C411 C 0.53058 0.43213 0.69933 0.0
C412 C 0.56404 0.40735 0.70835 0.0
C413 C 0.52194 0.44547 0.68566 0.0
C414 C 0.61476 0.34659 0.7071 0.0
C415 C 0.60168 0.36074 0.70632 0.0
C416 C 0.53558 0.35347 0.7157 0.0
C417 C 0.52209 0.40575 0.69496 0.0
C418 C 0.53589 0.39317 0.70556 0.0
C419 C 0.57879 0.35333 0.71928 0.0
C420 C 0.56387 0.36739 0.71695 0.0
H421 H 0.48083 0.39541 0.65046 0.0
H422 H 0.4959 0.37223 0.67397 0.0
H423 H 0.50005 0.35476 0.70844 0.0
H424 H 0.57494 0.30061 0.74494 0.0
H425 H 0.55217 0.32551 0.74369 0.0
C426 C 0.10114 0.51472 0.83985 0.0
C427 C 0.09829 0.53463 0.83031 0.0
C428 C 0.12492 0.52086 0.8513 0.0
C429 C 0.18849 0.57623 0.87556 0.0
H430 H 0.21965 0.53583 0.85558 0.0
C431 C 0.30269 0.6162 0.87913 0.0
C432 C 0.31156 0.59891 0.88448 0.0
C433 C 0.27526 0.60695 0.8761 0.0
C434 C 0.21112 0.54708 0.86166 0.0
H435 H 0.11698 0.57649 0.8265 0.0
H436 H 0.15825 0.58725 0.84638 0.0
H437 H 0.17329 0.52165 0.8455 0.0
H438 H 0.29844 0.55836 0.89116 0.0
H439 H 0.25063 0.5423 0.88596 0.0
H440 H 0.22663 0.60208 0.89116 0.0
C441 C 0.14233 0.56693 0.8452 0.0
C442 C 0.18447 0.53889 0.85593 0.0
C443 C 0.11874 0.56079 0.8337 0.0
C444 C 0.29233 0.57222 0.88696 0.0
C445 C 0.26491 0.56297 0.88389 0.0
C446 C 0.21515 0.58443 0.88127 0.0
C447 C 0.14611 0.54703 0.85352 0.0
C448 C 0.173 0.55366 0.8624 0.0
C449 C 0.25603 0.5802 0.87831 0.0
C450 C 0.22698 0.57026 0.874 0.0
H451 H 0.08569 0.49439 0.83735 0.0
H452 H 0.12708 0.5051 0.85776 0.0
H453 H 0.18015 0.58785 0.88109 0.0
H454 H 0.31695 0.63688 0.87708 0.0
H455 H 0.26917 0.62072 0.8715 0.0
C456 C 0.59373 0.10157 0.00838 0.0
C457 C 0.56892 0.09505 -0.00145 0.0
C458 C 0.60946 0.12571 0.01927 0.0
C459 C 0.62055 0.1918 0.01608 0.0
H460 H 0.66642 0.20639 0.06809 0.0
C461 C 0.68733 0.29683 0.04894 0.0
C462 C 0.71365 0.30451 0.05578 0.0
C463 C 0.66833 0.27051 0.04483 0.0
C464 C 0.65388 0.20264 0.05343 0.0
H465 H 0.53999 0.10736 -0.00594 0.0
H466 H 0.56711 0.14916 0.01335 0.0
H467 H 0.63504 0.16103 0.05679 0.0
H468 H 0.74049 0.29045 0.06411 0.0
H469 H 0.70752 0.24458 0.0564 0.0
H470 H 0.63967 0.23311 0.01218 0.0
C471 C 0.57479 0.13606 0.01221 0.0
C472 C 0.63586 0.17666 0.04702 0.0
C473 C 0.55918 0.11208 0.00131 0.0
C474 C 0.72037 0.28519 0.05887 0.0
C475 C 0.70139 0.25884 0.05459 0.0
C476 C 0.63857 0.21765 0.02239 0.0
C477 C 0.60058 0.14362 0.0205 0.0
C478 C 0.61899 0.17097 0.02825 0.0
C479 C 0.67521 0.2512 0.04725 0.0
C480 C 0.65551 0.22347 0.04113 0.0
H481 H 0.60176 0.08885 0.00632 0.0
H482 H 0.62926 0.13098 0.02543 0.0
H483 H 0.60833 0.18815 0.00122 0.0
H484 H 0.68139 0.31117 0.04663 0.0
H485 H 0.64821 0.26532 0.03964 0.0
C486 C 0.49079 0.5789 0.18842 0.0
C487 C 0.50526 0.58899 0.1687 0.0
C488 C 0.48376 0.59403 0.20134 0.0
C489 C 0.49686 0.66155 0.20966 0.0
H490 H 0.42061 0.6264 0.22217 0.0
C491 C 0.44062 0.71703 0.219 0.0
C492 C 0.41937 0.70802 0.23415 0.0
C493 C 0.45351 0.70301 0.21536 0.0
C494 C 0.44205 0.63647 0.21924 0.0
H495 H 0.5253 0.62315 0.14776 0.0
H496 H 0.51333 0.64958 0.17026 0.0
H497 H 0.44004 0.60111 0.20904 0.0
H498 H 0.39552 0.67749 0.25782 0.0
H499 H 0.41817 0.65308 0.25154 0.0
H500 H 0.49873 0.69703 0.21924 0.0
C501 C 0.50735 0.63011 0.17588 0.0
C502 C 0.45321 0.62193 0.21173 0.0
C503 C 0.51412 0.61496 0.16292 0.0
C504 C 0.41173 0.68493 0.24596 0.0
C505 C 0.42464 0.67087 0.24229 0.0
C506 C 0.48572 0.67607 0.21721 0.0
C507 C 0.49136 0.61958 0.19486 0.0
C508 C 0.4806 0.63439 0.20628 0.0
C509 C 0.44552 0.67961 0.22678 0.0
C510 C 0.45803 0.66382 0.22152 0.0
H511 H 0.4836 0.55887 0.19312 0.0
H512 H 0.47164 0.58546 0.21599 0.0
H513 H 0.51812 0.67167 0.20593 0.0
H514 H 0.44704 0.73472 0.20961 0.0
H515 H 0.46921 0.71013 0.20304 0.0
C516 C 0.93208 0.51808 0.34438 0.0
C517 C 0.93371 0.49784 0.33399 0.0
C518 C 0.90965 0.51239 0.3572 0.0
C519 C 0.84856 0.45741 0.38354 0.0
H520 H 0.81587 0.49804 0.36811 0.0
C521 C 0.73476 0.41627 0.38735 0.0
C522 C 0.72556 0.43242 0.39531 0.0
C523 C 0.76221 0.4262 0.38443 0.0
C524 C 0.82493 0.48677 0.37292 0.0
H525 H 0.91431 0.45584 0.33009 0.0
H526 H 0.87528 0.44588 0.35209 0.0
H527 H 0.86135 0.51241 0.35582 0.0
H528 H 0.73805 0.47165 0.40668 0.0
H529 H 0.78611 0.48908 0.40127 0.0
H530 H 0.81157 0.43111 0.39973 0.0
C531 C 0.89116 0.46614 0.35058 0.0
C532 C 0.85105 0.49505 0.36594 0.0
C533 C 0.91343 0.47183 0.33778 0.0
C534 C 0.74449 0.45869 0.40052 0.0
C535 C 0.77198 0.46871 0.39736 0.0
C536 C 0.82239 0.44905 0.39037 0.0
C537 C 0.8886 0.48634 0.35996 0.0
C538 C 0.86289 0.48005 0.37062 0.0
C539 C 0.78111 0.45257 0.38922 0.0
C540 C 0.81004 0.46326 0.38461 0.0
H541 H 0.94743 0.53832 0.34166 0.0
H542 H 0.90843 0.52838 0.36443 0.0
H543 H 0.85727 0.44568 0.38782 0.0
H544 H 0.72073 0.39593 0.38322 0.0
H545 H 0.76859 0.41336 0.37784 0.0
C546 C 0.09566 0.58916 0.36984 0.0
C547 C 0.07878 0.56398 0.36099 0.0
C548 C 0.109 0.59261 0.39015 0.0
C549 C 0.13687 0.56163 0.42404 0.0
H550 H 0.14902 0.61514 0.46725 0.0
C551 C 0.2053 0.58396 0.50185 0.0
C552 C 0.22201 0.61042 0.50785 0.0
C553 C 0.18541 0.57651 0.48537 0.0
C554 C 0.14601 0.60027 0.45524 0.0
H555 H 0.06165 0.5226 0.36666 0.0
H556 H 0.0852 0.52861 0.40239 0.0
H557 H 0.11679 0.60466 0.4368 0.0
H558 H 0.2313 0.64986 0.50092 0.0
H559 H 0.19709 0.63695 0.47183 0.0
H560 H 0.16671 0.5578 0.44198 0.0
C561 C 0.0881 0.54565 0.39354 0.0
C562 C 0.12744 0.59418 0.43789 0.0
C563 C 0.07448 0.54219 0.37326 0.0
C564 C 0.21868 0.6293 0.49677 0.0
C565 C 0.19889 0.62186 0.48022 0.0
C566 C 0.15557 0.56781 0.44133 0.0
C567 C 0.10591 0.57095 0.40194 0.0
C568 C 0.123 0.5751 0.42189 0.0
C569 C 0.18186 0.59536 0.47444 0.0
C570 C 0.16071 0.58753 0.45692 0.0
H571 H 0.09923 0.60625 0.36065 0.0
H572 H 0.12276 0.61234 0.39606 0.0
H573 H 0.13416 0.54709 0.41178 0.0
H574 H 0.20722 0.5689 0.51016 0.0
H575 H 0.17249 0.55592 0.48149 0.0
C576 C 0.51735 0.06781 0.54587 0.0
C577 C 0.50393 0.07361 0.52933 0.0
C578 C 0.52447 0.0813 0.56624 0.0
C579 C 0.54222 0.14568 0.58736 0.0
H580 H 0.54417 0.11774 0.6451 0.0
C581 C 0.58443 0.21162 0.66564 0.0
C582 C 0.59969 0.20634 0.68072 0.0
C583 C 0.57034 0.19433 0.64807 0.0
C584 C 0.54401 0.12588 0.62903 0.0
H585 H 0.48507 0.0961 0.52194 0.0
H586 H 0.49739 0.11956 0.55751 0.0
H587 H 0.52179 0.08794 0.61365 0.0
H588 H 0.61252 0.17899 0.68893 0.0
H589 H 0.58861 0.14926 0.65798 0.0
H590 H 0.56508 0.18358 0.60237 0.0
C591 C 0.50294 0.10504 0.55456 0.0
C592 C 0.53107 0.10878 0.61107 0.0
C593 C 0.49579 0.09154 0.53426 0.0
C594 C 0.60086 0.18359 0.67766 0.0
C595 C 0.58693 0.1664 0.66002 0.0
C596 C 0.55528 0.16275 0.60524 0.0
C597 C 0.5183 0.10082 0.5704 0.0
C598 C 0.53016 0.11852 0.59001 0.0
C599 C 0.57135 0.17145 0.64507 0.0
C600 C 0.55653 0.15311 0.62627 0.0
H601 H 0.52406 0.05424 0.54248 0.0
H602 H 0.53637 0.07767 0.57808 0.0
H603 H 0.54236 0.15384 0.57123 0.0
H604 H 0.58294 0.22888 0.66762 0.0
H605 H 0.5583 0.1987 0.63705 0.0
C606 C 0.47486 0.53096 0.70469 0.0
C607 C 0.48867 0.54695 0.68656 0.0
C608 C 0.47079 0.54179 0.72387 0.0
C609 C 0.46946 0.57099 0.76537 0.0
H610 H 0.44672 0.61987 0.74987 0.0
C611 C 0.43763 0.62075 0.83122 0.0
C612 C 0.41461 0.62205 0.82609 0.0
C613 C 0.44917 0.61267 0.81516 0.0
C614 C 0.45292 0.60618 0.75447 0.0
H615 H 0.51139 0.58688 0.67501 0.0
H616 H 0.50491 0.6059 0.70866 0.0
H617 H 0.46441 0.60416 0.7212 0.0
H618 H 0.38569 0.61587 0.80003 0.0
H619 H 0.4058 0.60171 0.77202 0.0
H620 H 0.45706 0.57247 0.79858 0.0
C621 C 0.49655 0.58496 0.70789 0.0
C622 C 0.46345 0.59746 0.73811 0.0
C623 C 0.50047 0.57414 0.68872 0.0
C624 C 0.40345 0.61517 0.80451 0.0
C625 C 0.41507 0.60718 0.78843 0.0
C626 C 0.45899 0.57982 0.7818 0.0
C627 C 0.48058 0.56879 0.72524 0.0
C628 C 0.47164 0.57958 0.74329 0.0
C629 C 0.43804 0.60582 0.79358 0.0
C630 C 0.45029 0.59727 0.77646 0.0
H631 H 0.46537 0.50991 0.70333 0.0
H632 H 0.45834 0.52877 0.7369 0.0
H633 H 0.47567 0.5573 0.7699 0.0
H634 H 0.44675 0.6259 0.8477 0.0
H635 H 0.46701 0.61209 0.81958 0.0
C636 C 0.96555 0.47328 0.87862 0.0
C637 C 0.95595 0.48157 0.86081 0.0
C638 C 0.95349 0.46872 0.89951 0.0
C639 C 0.90585 0.47842 0.93343 0.0
H640 H 0.88503 0.41008 0.95675 0.0
C641 C 0.81769 0.42362 -0.00602 0.0
C642 C 0.82044 0.40923 0.01121 0.0
C643 C 0.83715 0.43495 0.97745 0.0
C644 C 0.89101 0.4294 0.95072 0.0
H645 H 0.92784 0.4936 0.8512 0.0
H646 H 0.9068 0.48566 0.88751 0.0
H647 H 0.91576 0.42737 0.92559 0.0
H648 H 0.84592 0.39562 0.02468 0.0
H649 H 0.8799 0.4155 -0.00403 0.0
H650 H 0.88056 0.48014 0.95828 0.0
C651 C 0.92355 0.48264 0.8855 0.0
C652 C 0.90872 0.43936 0.93288 0.0
C653 C 0.93547 0.48703 0.86465 0.0
C654 C 0.84308 0.40645 0.01156 0.0
C655 C 0.86255 0.41778 -0.00494 0.0
C656 C 0.88815 0.46847 0.9513 0.0
C657 C 0.9318 0.47259 0.90296 0.0
C658 C 0.91596 0.46377 0.92376 0.0
C659 C 0.85982 0.43216 0.9778 0.0
C660 C 0.88014 0.44363 0.95989 0.0
H661 H 0.98126 0.46886 0.87604 0.0
H662 H 0.96051 0.4613 0.91274 0.0
H663 H 0.91131 0.49743 0.92695 0.0
H664 H 0.80048 0.42614 -0.00678 0.0
H665 H 0.83421 0.44554 0.9642 0.0
C666 C 0.48935 0.95796 0.0403 0.0
C667 C 0.50887 0.95536 0.02878 0.0
C668 C 0.47875 0.94441 0.06019 0.0
C669 C 0.46448 0.88372 0.08556 0.0
H670 H 0.45528 0.91126 0.14111 0.0
C671 C 0.43033 0.82121 0.16435 0.0
C672 C 0.41339 0.82403 0.17916 0.0
C673 C 0.44183 0.8383 0.14654 0.0
C674 C 0.45731 0.90317 0.1256 0.0
H675 H 0.53426 0.93853 0.03001 0.0
H676 H 0.51549 0.91468 0.06441 0.0
H677 H 0.47648 0.94059 0.10961 0.0
H678 H 0.39495 0.84681 0.18677 0.0
H679 H 0.41432 0.87616 0.1552 0.0
H680 H 0.44484 0.8463 0.10097 0.0
C681 C 0.50813 0.92682 0.05794 0.0
C682 C 0.46956 0.92002 0.10765 0.0
C683 C 0.51884 0.94045 0.03827 0.0
C684 C 0.40801 0.8442 0.17567 0.0
C685 C 0.41928 0.86114 0.15766 0.0
C686 C 0.45195 0.86687 0.10331 0.0
C687 C 0.48741 0.92801 0.06869 0.0
C688 C 0.47361 0.91046 0.08761 0.0
C689 C 0.43639 0.85843 0.14288 0.0
C690 C 0.44856 0.87639 0.12369 0.0
H691 H 0.48122 0.96922 0.03333 0.0
H692 H 0.46277 0.94562 0.06823 0.0
H693 H 0.46688 0.87577 0.0701 0.0
H694 H 0.4351 0.80605 0.16671 0.0
H695 H 0.45535 0.83592 0.13583 0.0
C696 C 0.55631 0.50503 0.21454 0.0
C697 C 0.53935 0.48769 0.19791 0.0
C698 C 0.56146 0.49547 0.23403 0.0
C699 C 0.56201 0.43659 0.25211 0.0
H700 H 0.58491 0.47385 0.30855 0.0
C701 C 0.59885 0.40148 0.32685 0.0
C702 C 0.62325 0.42071 0.3367 0.0
C703 C 0.58551 0.40839 0.3113 0.0
C704 C 0.57858 0.46328 0.29285 0.0
H705 H 0.51281 0.44703 0.189 0.0
H706 H 0.52052 0.43016 0.22353 0.0
H707 H 0.56446 0.48762 0.2801 0.0
H708 H 0.6527 0.46227 0.33807 0.0
H709 H 0.62927 0.47429 0.31104 0.0
H710 H 0.57615 0.41229 0.26494 0.0
C711 C 0.53066 0.45112 0.22136 0.0
C712 C 0.5669 0.47117 0.27652 0.0
C713 C 0.52588 0.46071 0.20174 0.0
C714 C 0.63401 0.44697 0.3307 0.0
C715 C 0.62048 0.45391 0.31539 0.0
C716 C 0.57334 0.42853 0.26853 0.0
C717 C 0.54951 0.46835 0.23728 0.0
C718 C 0.55891 0.45822 0.25576 0.0
C719 C 0.5961 0.43469 0.30555 0.0
C720 C 0.58219 0.44208 0.28889 0.0
H721 H 0.56721 0.52592 0.2117 0.0
H722 H 0.57626 0.50938 0.24573 0.0
H723 H 0.55671 0.42644 0.23622 0.0
H724 H 0.59003 0.38108 0.33115 0.0
H725 H 0.5667 0.3932 0.304 0.0
C726 C 0.45323 0.95661 0.41124 0.0
C727 C 0.47427 0.9578 0.42397 0.0
C728 C 0.44495 0.94228 0.39127 0.0
C729 C 0.4642 0.91041 0.34841 0.0
H730 H 0.38785 0.85894 0.34573 0.0
C731 C 0.42107 0.81989 0.2909 0.0
C732 C 0.39597 0.81105 0.28052 0.0
C733 C 0.43089 0.83967 0.30709 0.0
C734 C 0.40914 0.87344 0.34595 0.0
H735 H 0.50427 0.94652 0.42537 0.0
H736 H 0.49015 0.92185 0.3904 0.0
H737 H 0.40546 0.89226 0.37493 0.0
H738 H 0.3615 0.81608 0.27901 0.0
H739 H 0.37881 0.85084 0.3069 0.0
H740 H 0.46798 0.89155 0.31952 0.0
C741 C 0.47997 0.93185 0.39575 0.0
C742 C 0.41922 0.89257 0.36269 0.0
C743 C 0.488 0.94587 0.41578 0.0
C744 C 0.38083 0.82229 0.2868 0.0
C745 C 0.39073 0.8422 0.30286 0.0
C746 C 0.4541 0.8914 0.33155 0.0
C747 C 0.45784 0.92923 0.38363 0.0
C748 C 0.44691 0.911 0.36431 0.0
C749 C 0.41594 0.85122 0.31316 0.0
C750 C 0.4265 0.87239 0.33032 0.0
H751 H 0.44223 0.96549 0.41734 0.0
H752 H 0.42798 0.94075 0.38215 0.0
H753 H 0.48561 0.92453 0.34914 0.0
H754 H 0.4332 0.81157 0.2865 0.0
H755 H 0.45014 0.84573 0.31498 0.0
C756 C 0.53629 0.47865 0.57526 0.0
C757 C 0.51781 0.45694 0.58775 0.0
C758 C 0.54722 0.47512 0.5558 0.0
C759 C 0.5643 0.42945 0.53232 0.0
H760 H 0.57002 0.46286 0.47568 0.0
C761 C 0.59988 0.40108 0.45389 0.0
C762 C 0.61532 0.42062 0.43842 0.0
C763 C 0.58818 0.40639 0.4718 0.0
C764 C 0.56899 0.4537 0.49148 0.0
H765 H 0.49474 0.41455 0.58867 0.0
H766 H 0.51418 0.4085 0.55505 0.0
H767 H 0.5485 0.47096 0.50696 0.0
H768 H 0.63111 0.46122 0.42982 0.0
H769 H 0.6115 0.47075 0.46149 0.0
H770 H 0.58526 0.4127 0.51735 0.0
C771 C 0.52047 0.42819 0.56047 0.0
C772 C 0.55654 0.45826 0.50932 0.0
C773 C 0.50939 0.43168 0.5797 0.0
C774 C 0.61918 0.4457 0.44142 0.0
C775 C 0.60775 0.4511 0.45949 0.0
C776 C 0.57703 0.42517 0.51465 0.0
C777 C 0.53998 0.44986 0.54865 0.0
C778 C 0.5538 0.44591 0.5298 0.0
C779 C 0.59194 0.43147 0.47485 0.0
C780 C 0.57928 0.43697 0.4939 0.0
H781 H 0.5433 0.49835 0.58109 0.0
H782 H 0.56226 0.49214 0.54696 0.0
H783 H 0.56288 0.42006 0.5481 0.0
H784 H 0.59632 0.38149 0.45193 0.0
H785 H 0.57574 0.39061 0.48301 0.0
C786 C 0.09126 0.56966 0.75047 0.0
C787 C 0.07176 0.54325 0.75381 0.0
C788 C 0.10404 0.57793 0.72999 0.0
C789 C 0.12533 0.55187 0.68564 0.0
H790 H 0.14874 0.61826 0.657 0.0
C791 C 0.1955 0.58424 0.61032 0.0
C792 C 0.21582 0.61071 0.60917 0.0
C793 C 0.17501 0.57587 0.62588 0.0
C794 C 0.14259 0.59976 0.66493 0.0
H795 H 0.04898 0.50511 0.7381 0.0
H796 H 0.07144 0.51956 0.70215 0.0
H797 H 0.11622 0.60389 0.68715 0.0
H798 H 0.23055 0.64923 0.6234 0.0
H799 H 0.19529 0.6345 0.65119 0.0
H800 H 0.15243 0.54809 0.66438 0.0
C801 C 0.07686 0.53382 0.71541 0.0
C802 C 0.12381 0.59147 0.68207 0.0
C803 C 0.06385 0.5256 0.73586 0.0
C804 C 0.21515 0.6287 0.62388 0.0
C805 C 0.19478 0.62026 0.63967 0.0
C806 C 0.14426 0.56024 0.66871 0.0
C807 C 0.09775 0.55987 0.71255 0.0
C808 C 0.11518 0.56754 0.69272 0.0
C809 C 0.17448 0.5937 0.64092 0.0
C810 C 0.15335 0.58441 0.65825 0.0
H811 H 0.09765 0.58361 0.7641 0.0
H812 H 0.12014 0.59809 0.72834 0.0
H813 H 0.11952 0.53358 0.69385 0.0
H814 H 0.19522 0.56992 0.59903 0.0
H815 H 0.15947 0.55538 0.626 0.0
C816 C 0.5521 0.06105 0.905 0.0
C817 C 0.53787 0.06565 0.92137 0.0
C818 C 0.55772 0.07406 0.88465 0.0
C819 C 0.54296 0.11494 0.84796 0.0
H820 H 0.62019 0.15428 0.83958 0.0
C821 C 0.59454 0.20705 0.7932 0.0
C822 C 0.61753 0.21229 0.78132 0.0
C823 C 0.58298 0.18649 0.80837 0.0
C824 C 0.59853 0.14314 0.84127 0.0
H825 H 0.51618 0.08535 0.92869 0.0
H826 H 0.52562 0.1078 0.89298 0.0
H827 H 0.60104 0.12051 0.8677 0.0
H828 H 0.64612 0.19979 0.77569 0.0
H829 H 0.62556 0.16353 0.80156 0.0
H830 H 0.5404 0.1376 0.82153 0.0
C831 C 0.53257 0.09431 0.89586 0.0
C832 C 0.58756 0.12374 0.85744 0.0
C833 C 0.52722 0.08153 0.9163 0.0
C834 C 0.62861 0.19647 0.78481 0.0
C835 C 0.61683 0.17568 0.79972 0.0
C836 C 0.5539 0.13416 0.83153 0.0
C837 C 0.54893 0.09163 0.88028 0.0
C838 C 0.55972 0.10971 0.86118 0.0
C839 C 0.59391 0.17045 0.81178 0.0
C840 C 0.58191 0.14882 0.82823 0.0
H841 H 0.56069 0.04904 0.90858 0.0
H842 H 0.57015 0.07147 0.8728 0.0
H843 H 0.52141 0.10434 0.85048 0.0
H844 H 0.58558 0.21896 0.7909 0.0
H845 H 0.56568 0.18344 0.81764 0.0
C846 C 0.50488 0.55818 0.07365 0.0
C847 C 0.48827 0.55199 0.09226 0.0
C848 C 0.49583 0.56088 0.0527 0.0
C849 C 0.43554 0.54616 0.01967 0.0
H850 H 0.48258 0.6129 -0.0083 0.0
C851 C 0.41177 0.57725 0.9349 0.0
C852 C 0.41514 0.60234 0.9347 0.0
C853 C 0.42059 0.56903 0.95317 0.0
C854 C 0.46928 0.59417 -0.00069 0.0
H855 H 0.44881 0.54218 0.10355 0.0
H856 H 0.4328 0.54646 0.06691 0.0
H857 H 0.49816 0.6005 0.0248 0.0
H858 H 0.4303 0.63842 0.95353 0.0
H859 H 0.44598 0.62413 0.9853 0.0
H860 H 0.40649 0.54008 -0.00567 0.0
C861 C 0.4528 0.54937 0.06846 0.0
C862 C 0.47828 0.58696 0.01808 0.0
C863 C 0.46198 0.54705 0.08941 0.0
C864 C 0.42737 0.61897 0.95319 0.0
C865 C 0.43651 0.61087 0.9713 0.0
C866 C 0.42666 0.55323 0.0007 0.0
C867 C 0.46988 0.557 0.05002 0.0
C868 C 0.46134 0.56308 0.02867 0.0
C869 C 0.43331 0.58588 0.97143 0.0
C870 C 0.44328 0.57752 0.9906 0.0
H871 H 0.52527 0.56219 0.07551 0.0
H872 H 0.50931 0.56663 0.0387 0.0
H873 H 0.42212 0.52761 0.0275 0.0
H874 H 0.40238 0.56397 0.92092 0.0
H875 H 0.41795 0.54969 0.95284 0.0
C876 C 0.9629 0.50082 0.2387 0.0
C877 C 0.95573 0.48464 0.25743 0.0
C878 C 0.94907 0.491 0.21845 0.0
C879 C 0.88194 0.4399 0.19916 0.0
H880 H 0.91141 0.46311 0.14031 0.0
C881 C 0.81463 0.40494 0.12025 0.0
C882 C 0.81946 0.42425 0.10452 0.0
C883 C 0.83279 0.41036 0.13784 0.0
C884 C 0.9029 0.45656 0.15666 0.0
H885 H 0.93041 0.44511 0.2693 0.0
H886 H 0.90672 0.42776 0.23385 0.0
H887 H 0.94177 0.47545 0.17255 0.0
H888 H 0.84728 0.46431 0.09481 0.0
H889 H 0.87871 0.47383 0.12565 0.0
H890 H 0.84313 0.42152 0.18347 0.0
C891 C 0.92241 0.44818 0.23489 0.0
C892 C 0.92028 0.4636 0.1751 0.0
C893 C 0.93608 0.45803 0.25512 0.0
C894 C 0.84294 0.449 0.10666 0.0
C895 C 0.86109 0.4544 0.12423 0.0
C896 C 0.86462 0.43287 0.18076 0.0
C897 C 0.92795 0.46479 0.21659 0.0
C898 C 0.90997 0.45556 0.1966 0.0
C899 C 0.85618 0.43518 0.14008 0.0
C900 C 0.87485 0.44136 0.15934 0.0
H901 H 0.97785 0.52146 0.24012 0.0
H902 H 0.95377 0.50437 0.20473 0.0
H903 H 0.87324 0.43384 0.21551 0.0
H904 H 0.79682 0.38562 0.119 0.0
H905 H 0.82856 0.39504 0.14964 0.0
loop_
_geom_bond_atom_site_label_1
_geom_bond_atom_site_label_2
_geom_bond_distance
_geom_bond_site_symmetry_2
_ccdc_geom_bond_type
H0 C6 0.930 . S
H1 C9 0.931 . S
H2 C11 0.931 . S
H3 C13 0.930 . S
H4 C15 0.930 . S
H5 C17 0.931 . S
C6 H0 0.930 . S
C6 C7 1.380 . S
C6 C8 1.394 . S
C7 C6 1.380 . S
C7 C11 1.382 . S
C8 C6 1.394 . S
C8 C9 1.400 . S
C9 H1 0.931 . S
C9 C8 1.400 . S
C9 C10 1.375 . S
C10 C9 1.375 . S
C10 C11 1.415 . S
C10 C12 1.501 1_455 S
C11 H2 0.931 . S
C11 C7 1.382 . S
C11 C10 1.415 . S
C12 C10 1.501 1_655 S
C12 C13 1.384 . S
C12 C17 1.408 . S
C13 H3 0.930 . S
C13 C12 1.384 . S
C13 C14 1.389 . S
C14 C13 1.389 . S
C14 C15 1.405 . S
C15 H4 0.930 . S
C15 C14 1.405 . S
C15 C16 1.364 . S
C16 C15 1.364 . S
C16 C17 1.400 . S
C17 H5 0.931 . S
C17 C12 1.408 . S
C17 C16 1.400 . S
H18 C24 0.930 . S
H19 C27 0.931 . S
H20 C29 0.931 . S
H21 C31 0.930 . S
H22 C33 0.930 . S
H23 C35 0.931 1_545 S
C24 H18 0.930 . S
C24 C25 1.380 . S
C24 C26 1.394 . S
C25 C24 1.380 . S
C25 C29 1.382 . S
C26 C24 1.394 . S
C26 C27 1.400 . S
C27 H19 0.931 . S
C27 C26 1.400 . S
C27 C28 1.375 . S
C28 C27 1.375 . S
C28 C29 1.415 . S
C28 C30 1.501 1_545 S
C29 H20 0.931 . S
C29 C25 1.382 . S
C29 C28 1.415 . S
C30 C28 1.501 1_565 S
C30 C31 1.384 . S
C30 C35 1.408 . S
C31 H21 0.930 . S
C31 C30 1.384 . S
C31 C32 1.389 . S
C32 C31 1.389 . S
C32 C33 1.405 . S
C33 H22 0.930 . S
C33 C32 1.405 . S
C33 C34 1.364 . S
C34 C33 1.364 . S
C34 C35 1.400 . S
C35 H23 0.931 1_565 S
C35 C30 1.408 . S
C35 C34 1.400 . S
H36 C42 0.930 . S
H37 C45 0.931 . S
H38 C47 0.931 . S
H39 C49 0.930 . S
H40 C51 0.930 . S
H41 C53 0.931 . S
C42 H36 0.930 . S
C42 C43 1.380 . S
C42 C44 1.394 . S
C43 C42 1.380 . S
C43 C47 1.382 . S
C44 C42 1.394 . S
C44 C45 1.400 . S
C45 H37 0.931 . S
C45 C44 1.400 . S
C45 C46 1.375 . S
C46 C45 1.375 . S
C46 C47 1.415 . S
C46 C48 1.501 . S
C47 H38 0.931 . S
C47 C43 1.382 . S
C47 C46 1.415 . S
C48 C46 1.501 . S
C48 C49 1.384 . S
C48 C53 1.408 . S
C49 H39 0.930 . S
C49 C48 1.384 . S
C49 C50 1.389 . S
C50 C49 1.389 . S
C50 C51 1.405 . S
C51 H40 0.930 . S
C51 C50 1.405 . S
C51 C52 1.364 . S
C52 C51 1.364 . S
C52 C53 1.400 . S
C53 H41 0.931 . S
C53 C48 1.408 . S
C53 C52 1.400 . S
H54 C60 0.930 . S
H55 C63 0.931 . S
H56 C65 0.931 . S
H57 C67 0.930 . S
H58 C69 0.930 . S
H59 C71 0.931 . S
C60 H54 0.930 . S
C60 C61 1.380 . S
C60 C62 1.394 . S
C61 C60 1.380 . S
C61 C65 1.382 . S
C62 C60 1.394 . S
C62 C63 1.400 . S
C63 H55 0.931 . S
C63 C62 1.400 . S
C63 C64 1.375 . S
C64 C63 1.375 . S
C64 C65 1.415 . S
C64 C66 1.501 1_455 S
C65 H56 0.931 . S
C65 C61 1.382 . S
C65 C64 1.415 . S
C66 C64 1.501 1_655 S
C66 C67 1.384 . S
C66 C71 1.408 . S
C67 H57 0.930 . S
C67 C66 1.384 . S
C67 C68 1.389 . S
C68 C67 1.389 . S
C68 C69 1.405 . S
C69 H58 0.930 . S
C69 C68 1.405 . S
C69 C70 1.364 . S
C70 C69 1.364 . S
C70 C71 1.400 . S
C71 H59 0.931 . S
C71 C66 1.408 . S
C71 C70 1.400 . S
H72 C78 0.930 . S
H73 C81 0.931 . S
H74 C83 0.931 1_545 S
H75 C85 0.930 . S
H76 C87 0.930 . S
H77 C89 0.931 . S
C78 H72 0.930 . S
C78 C79 1.380 . S
C78 C80 1.394 1_554 S
C79 C78 1.380 . S
C79 C83 1.382 . S
C80 C78 1.394 1_556 S
C80 C81 1.400 . S
C81 H73 0.931 . S
C81 C80 1.400 . S
C81 C82 1.375 . S
C82 C81 1.375 . S
C82 C83 1.415 1_556 S
C82 C84 1.501 1_565 S
C83 H74 0.931 1_565 S
C83 C79 1.382 . S
C83 C82 1.415 1_554 S
C84 C82 1.501 1_545 S
C84 C85 1.384 1_556 S
C84 C89 1.408 . S
C85 H75 0.930 . S
C85 C84 1.384 1_554 S
C85 C86 1.389 1_554 S
C86 C85 1.389 1_556 S
C86 C87 1.405 . S
C87 H76 0.930 . S
C87 C86 1.405 . S
C87 C88 1.364 . S
C88 C87 1.364 . S
C88 C89 1.400 . S
C89 H77 0.931 . S
C89 C84 1.408 . S
C89 C88 1.400 . S
H90 C96 0.930 . S
H91 C99 0.931 . S
H92 C101 0.931 . S
H93 C103 0.930 . S
H94 C105 0.930 . S
H95 C107 0.931 . S
C96 H90 0.930 . S
C96 C97 1.380 . S
C96 C98 1.394 . S
C97 C96 1.380 . S
C97 C101 1.382 . S
C98 C96 1.394 . S
C98 C99 1.400 . S
C99 H91 0.931 . S
C99 C98 1.400 . S
C99 C100 1.375 . S
C100 C99 1.375 . S
C100 C101 1.415 . S
C100 C102 1.501 . S
C101 H92 0.931 . S
C101 C97 1.382 . S
C101 C100 1.415 . S
C102 C100 1.501 . S
C102 C103 1.384 . S
C102 C107 1.408 . S
C103 H93 0.930 . S
C103 C102 1.384 . S
C103 C104 1.389 . S
C104 C103 1.389 . S
C104 C105 1.405 . S
C105 H94 0.930 . S
C105 C104 1.405 . S
C105 C106 1.364 . S
C106 C105 1.364 . S
C106 C107 1.400 . S
C107 H95 0.931 . S
C107 C102 1.408 . S
C107 C106 1.400 . S
C108 O109 1.160 . S
C108 O115 1.185 . S
O109 C108 1.160 . S
O110 Zn111 1.899 . S
O110 C118 1.284 . S
Zn111 O110 1.899 . S
Zn111 O112 2.032 . S
Zn111 O115 2.086 . S
Zn111 O120 1.977 . S
O112 Zn111 2.032 . S
O112 C116 1.278 . S
C113 O114 1.203 . S
C113 O120 1.267 . S
O114 C113 1.203 . S
O115 C108 1.185 . S
O115 Zn111 2.086 . S
C116 O112 1.278 . S
C116 O117 1.211 . S
O117 C116 1.211 . S
C118 O110 1.284 . S
C118 O119 1.273 . S
O119 C118 1.273 . S
O120 Zn111 1.977 . S
O120 C113 1.267 . S
C121 O122 1.160 . S
C121 O128 1.185 . S
O122 C121 1.160 . S
O123 Zn124 1.899 . S
O123 C131 1.284 . S
Zn124 O123 1.899 . S
Zn124 O125 2.032 . S
Zn124 O128 2.086 . S
Zn124 O133 1.977 . S
O125 Zn124 2.032 . S
O125 C129 1.278 . S
C126 O127 1.203 . S
C126 O133 1.267 . S
O127 C126 1.203 . S
O128 C121 1.185 . S
O128 Zn124 2.086 . S
C129 O125 1.278 . S
C129 O130 1.211 . S
O130 C129 1.211 . S
C131 O123 1.284 . S
C131 O132 1.273 . S
O132 C131 1.273 . S
O133 Zn124 1.977 . S
O133 C126 1.267 . S
C134 O135 1.160 . S
C134 O141 1.185 . S
O135 C134 1.160 . S
O136 Zn137 1.899 . S
O136 C144 1.284 . S
Zn137 O136 1.899 . S
Zn137 O138 2.032 . S
Zn137 O141 2.086 . S
Zn137 O146 1.977 . S
O138 Zn137 2.032 . S
O138 C142 1.278 . S
C139 O140 1.203 . S
C139 O146 1.267 . S
O140 C139 1.203 . S
O141 C134 1.185 . S
O141 Zn137 2.086 . S
C142 O138 1.278 . S
C142 O143 1.211 . S
O143 C142 1.211 . S
C144 O136 1.284 . S
C144 O145 1.273 . S
O145 C144 1.273 . S
O146 Zn137 1.977 . S
O146 C139 1.267 . S
C147 O148 1.160 . S
C147 O154 1.185 . S
O148 C147 1.160 . S
O149 Zn150 1.899 . S
O149 C157 1.284 . S
Zn150 O149 1.899 . S
Zn150 O151 2.032 . S
Zn150 O154 2.086 . S
Zn150 O159 1.977 . S
O151 Zn150 2.032 . S
O151 C155 1.278 . S
C152 O153 1.203 . S
C152 O159 1.267 . S
O153 C152 1.203 . S
O154 C147 1.185 . S
O154 Zn150 2.086 . S
C155 O151 1.278 . S
C155 O156 1.211 . S
O156 C155 1.211 . S
C157 O149 1.284 . S
C157 O158 1.273 . S
O158 C157 1.273 . S
O159 Zn150 1.977 . S
O159 C152 1.267 . S
C160 O161 1.160 . S
C160 O167 1.185 . S
O161 C160 1.160 . S
O162 Zn163 1.899 . S
O162 C170 1.284 . S
Zn163 O162 1.899 . S
Zn163 O164 2.032 . S
Zn163 O167 2.086 . S
Zn163 O172 1.977 . S
O164 Zn163 2.032 . S
O164 C168 1.278 . S
C165 O166 1.203 . S
C165 O172 1.267 . S
O166 C165 1.203 . S
O167 C160 1.185 . S
O167 Zn163 2.086 . S
C168 O164 1.278 . S
C168 O169 1.211 . S
O169 C168 1.211 . S
C170 O162 1.284 . S
C170 O171 1.273 . S
O171 C170 1.273 . S
O172 Zn163 1.977 . S
O172 C165 1.267 . S
C173 O174 1.160 . S
C173 O180 1.185 . S
O174 C173 1.160 . S
O175 Zn176 1.899 . S
O175 C183 1.284 . S
Zn176 O175 1.899 . S
Zn176 O177 2.032 . S
Zn176 O180 2.086 . S
Zn176 O185 1.977 . S
O177 Zn176 2.032 . S
O177 C181 1.278 . S
C178 O179 1.203 . S
C178 O185 1.267 . S
O179 C178 1.203 . S
O180 C173 1.185 . S
O180 Zn176 2.086 . S
C181 O177 1.278 . S
C181 O182 1.211 . S
O182 C181 1.211 . S
C183 O175 1.284 . S
C183 O184 1.273 . S
O184 C183 1.273 . S
O185 Zn176 1.977 . S
O185 C178 1.267 . S
C186 C187 1.349 . S
C186 C188 1.327 . S
C186 H211 0.950 . S
C187 C186 1.349 . S
C187 C203 1.349 . S
C188 C186 1.327 . S
C188 C207 1.429 . S
C188 H212 0.950 . S
C189 C206 1.574 . S
C189 C208 1.368 . S
C189 H213 0.949 . S
H190 C194 0.949 . S
C191 C192 1.349 . S
C191 C193 1.327 . S
C191 H214 0.950 . S
C192 C191 1.349 . S
C192 C204 1.349 . S
C193 C191 1.327 . S
C193 C209 1.429 . S
C193 H215 0.950 . S
C194 H190 0.949 . S
C194 C202 1.574 . S
C194 C210 1.368 . S
H195 C203 0.950 . S
H196 C201 0.950 . S
H197 C202 0.949 . S
H198 C204 0.950 . S
H199 C205 0.950 . S
H200 C206 0.949 . S
C201 H196 0.950 . S
C201 C203 1.327 . S
C201 C207 1.429 . S
C202 C194 1.574 . S
C202 H197 0.949 . S
C202 C208 1.368 . S
C203 C187 1.349 . S
C203 H195 0.950 . S
C203 C201 1.327 . S
C204 C192 1.349 . S
C204 H198 0.950 . S
C204 C205 1.327 . S
C205 H199 0.950 . S
C205 C204 1.327 . S
C205 C209 1.429 . S
C206 C189 1.574 . S
C206 H200 0.949 . S
C206 C210 1.368 . S
C207 C188 1.429 . S
C207 C201 1.429 . S
C207 C208 1.523 . S
C208 C189 1.368 . S
C208 C202 1.368 . S
C208 C207 1.523 . S
C209 C193 1.429 . S
C209 C205 1.429 . S
C209 C210 1.523 . S
C210 C194 1.368 . S
C210 C206 1.368 . S
C210 C209 1.523 . S
H211 C186 0.950 . S
H212 C188 0.950 . S
H213 C189 0.949 . S
H214 C191 0.950 . S
H215 C193 0.950 . S
C216 C217 1.349 . S
C216 C218 1.327 . S
C216 H241 0.950 . S
C217 C216 1.349 . S
C217 C233 1.349 . S
C218 C216 1.327 . S
C218 C237 1.429 . S
C218 H242 0.950 . S
C219 C236 1.574 . S
C219 C238 1.368 . S
C219 H243 0.949 . S
H220 C224 0.949 . S
C221 C222 1.349 . S
C221 C223 1.327 . S
C221 H244 0.950 . S
C222 C221 1.349 . S
C222 C234 1.349 . S
C223 C221 1.327 . S
C223 C239 1.429 . S
C223 H245 0.950 . S
C224 H220 0.949 . S
C224 C232 1.574 . S
C224 C240 1.368 . S
H225 C233 0.950 . S
H226 C231 0.950 . S
H227 C232 0.949 . S
H228 C234 0.950 . S
H229 C235 0.950 . S
H230 C236 0.949 . S
C231 H226 0.950 . S
C231 C233 1.327 . S
C231 C237 1.429 . S
C232 C224 1.574 . S
C232 H227 0.949 . S
C232 C238 1.368 . S
C233 C217 1.349 . S
C233 H225 0.950 . S
C233 C231 1.327 . S
C234 C222 1.349 . S
C234 H228 0.950 . S
C234 C235 1.327 . S
C235 H229 0.950 . S
C235 C234 1.327 . S
C235 C239 1.429 . S
C236 C219 1.574 . S
C236 H230 0.949 . S
C236 C240 1.368 . S
C237 C218 1.429 . S
C237 C231 1.429 . S
C237 C238 1.523 . S
C238 C219 1.368 . S
C238 C232 1.368 . S
C238 C237 1.523 . S
C239 C223 1.429 . S
C239 C235 1.429 . S
C239 C240 1.523 . S
C240 C224 1.368 . S
C240 C236 1.368 . S
C240 C239 1.523 . S
H241 C216 0.950 . S
H242 C218 0.950 . S
H243 C219 0.949 . S
H244 C221 0.950 . S
H245 C223 0.950 . S
C246 C247 1.349 . S
C246 C248 1.327 . S
C246 H271 0.950 . S
C247 C246 1.349 . S
C247 C263 1.349 . S
C248 C246 1.327 . S
C248 C267 1.429 . S
C248 H272 0.950 . S
C249 C266 1.574 . S
C249 C268 1.368 . S
C249 H273 0.949 . S
H250 C254 0.949 . S
C251 C252 1.349 . S
C251 C253 1.327 . S
C251 H274 0.950 . S
C252 C251 1.349 . S
C252 C264 1.349 . S
C253 C251 1.327 . S
C253 C269 1.429 . S
C253 H275 0.950 . S
C254 H250 0.949 . S
C254 C262 1.574 . S
C254 C270 1.368 . S
H255 C263 0.950 . S
H256 C261 0.950 . S
H257 C262 0.949 . S
H258 C264 0.950 . S
H259 C265 0.950 . S
H260 C266 0.949 . S
C261 H256 0.950 . S
C261 C263 1.327 . S
C261 C267 1.429 . S
C262 C254 1.574 . S
C262 H257 0.949 . S
C262 C268 1.368 . S
C263 C247 1.349 . S
C263 H255 0.950 . S
C263 C261 1.327 . S
C264 C252 1.349 . S
C264 H258 0.950 . S
C264 C265 1.327 . S
C265 H259 0.950 . S
C265 C264 1.327 . S
C265 C269 1.429 . S
C266 C249 1.574 . S
C266 H260 0.949 . S
C266 C270 1.368 . S
C267 C248 1.429 . S
C267 C261 1.429 . S
C267 C268 1.523 . S
C268 C249 1.368 . S
C268 C262 1.368 . S
C268 C267 1.523 . S
C269 C253 1.429 . S
C269 C265 1.429 . S
C269 C270 1.523 . S
C270 C254 1.368 . S
C270 C266 1.368 . S
C270 C269 1.523 . S
H271 C246 0.950 . S
H272 C248 0.950 . S
H273 C249 0.949 . S
H274 C251 0.950 . S
H275 C253 0.950 . S
C276 C277 1.349 . S
C276 C278 1.327 . S
C276 H301 0.950 . S
C277 C276 1.349 . S
C277 C293 1.349 . S
C278 C276 1.327 . S
C278 C297 1.429 . S
C278 H302 0.950 . S
C279 C296 1.574 . S
C279 C298 1.368 . S
C279 H303 0.949 . S
H280 C284 0.949 . S
C281 C282 1.349 . S
C281 C283 1.327 . S
C281 H304 0.950 . S
C282 C281 1.349 . S
C282 C294 1.349 . S
C283 C281 1.327 . S
C283 C299 1.429 . S
C283 H305 0.950 . S
C284 H280 0.949 . S
C284 C292 1.574 . S
C284 C300 1.368 . S
H285 C293 0.950 . S
H286 C291 0.950 . S
H287 C292 0.949 . S
H288 C294 0.950 . S
H289 C295 0.950 . S
H290 C296 0.949 . S
C291 H286 0.950 . S
C291 C293 1.327 . S
C291 C297 1.429 . S
C292 C284 1.574 . S
C292 H287 0.949 . S
C292 C298 1.368 . S
C293 C277 1.349 . S
C293 H285 0.950 . S
C293 C291 1.327 . S
C294 C282 1.349 . S
C294 H288 0.950 . S
C294 C295 1.327 . S
C295 H289 0.950 . S
C295 C294 1.327 . S
C295 C299 1.429 . S
C296 C279 1.574 . S
C296 H290 0.949 . S
C296 C300 1.368 . S
C297 C278 1.429 . S
C297 C291 1.429 . S
C297 C298 1.523 . S
C298 C279 1.368 . S
C298 C292 1.368 . S
C298 C297 1.523 . S
C299 C283 1.429 . S
C299 C295 1.429 . S
C299 C300 1.523 . S
C300 C284 1.368 . S
C300 C296 1.368 . S
C300 C299 1.523 . S
H301 C276 0.950 . S
H302 C278 0.950 . S
H303 C279 0.949 . S
H304 C281 0.950 . S
H305 C283 0.950 . S
C306 C307 1.349 . S
C306 C308 1.327 . S
C306 H331 0.950 . S
C307 C306 1.349 . S
C307 C323 1.349 . S
C308 C306 1.327 . S
C308 C327 1.429 . S
C308 H332 0.950 . S
C309 C326 1.574 . S
C309 C328 1.368 . S
C309 H333 0.949 . S
H310 C314 0.949 . S
C311 C312 1.349 . S
C311 C313 1.327 . S
C311 H334 0.950 . S
C312 C311 1.349 . S
C312 C324 1.349 . S
C313 C311 1.327 . S
C313 C329 1.429 . S
C313 H335 0.950 . S
C314 H310 0.949 . S
C314 C322 1.574 . S
C314 C330 1.368 . S
H315 C323 0.950 . S
H316 C321 0.950 . S
H317 C322 0.949 . S
H318 C324 0.950 . S
H319 C325 0.950 . S
H320 C326 0.949 . S
C321 H316 0.950 . S
C321 C323 1.327 . S
C321 C327 1.429 . S
C322 C314 1.574 . S
C322 H317 0.949 . S
C322 C328 1.368 . S
C323 C307 1.349 . S
C323 H315 0.950 . S
C323 C321 1.327 . S
C324 C312 1.349 . S
C324 H318 0.950 . S
C324 C325 1.327 . S
C325 H319 0.950 . S
C325 C324 1.327 . S
C325 C329 1.429 . S
C326 C309 1.574 . S
C326 H320 0.949 . S
C326 C330 1.368 . S
C327 C308 1.429 . S
C327 C321 1.429 . S
C327 C328 1.523 . S
C328 C309 1.368 . S
C328 C322 1.368 . S
C328 C327 1.523 . S
C329 C313 1.429 . S
C329 C325 1.429 . S
C329 C330 1.523 . S
C330 C314 1.368 . S
C330 C326 1.368 . S
C330 C329 1.523 . S
H331 C306 0.950 . S
H332 C308 0.950 . S
H333 C309 0.949 . S
H334 C311 0.950 . S
H335 C313 0.950 . S
C336 C337 1.349 . S
C336 C338 1.327 . S
C336 H361 0.950 . S
C337 C336 1.349 . S
C337 C353 1.349 . S
C338 C336 1.327 . S
C338 C357 1.429 . S
C338 H362 0.950 . S
C339 C356 1.574 . S
C339 C358 1.368 . S
C339 H363 0.949 . S
H340 C344 0.949 . S
C341 C342 1.349 . S
C341 C343 1.327 . S
C341 H364 0.950 . S
C342 C341 1.349 . S
C342 C354 1.349 . S
C343 C341 1.327 . S
C343 C359 1.429 . S
C343 H365 0.950 . S
C344 H340 0.949 . S
C344 C352 1.574 . S
C344 C360 1.368 . S
H345 C353 0.950 . S
H346 C351 0.950 . S
H347 C352 0.949 . S
H348 C354 0.950 . S
H349 C355 0.950 . S
H350 C356 0.949 . S
C351 H346 0.950 . S
C351 C353 1.327 . S
C351 C357 1.429 . S
C352 C344 1.574 . S
C352 H347 0.949 . S
C352 C358 1.368 . S
C353 C337 1.349 . S
C353 H345 0.950 . S
C353 C351 1.327 . S
C354 C342 1.349 . S
C354 H348 0.950 . S
C354 C355 1.327 . S
C355 H349 0.950 . S
C355 C354 1.327 . S
C355 C359 1.429 . S
C356 C339 1.574 . S
C356 H350 0.949 . S
C356 C360 1.368 . S
C357 C338 1.429 . S
C357 C351 1.429 . S
C357 C358 1.523 . S
C358 C339 1.368 . S
C358 C352 1.368 . S
C358 C357 1.523 . S
C359 C343 1.429 . S
C359 C355 1.429 . S
C359 C360 1.523 . S
C360 C344 1.368 . S
C360 C356 1.368 . S
C360 C359 1.523 . S
H361 C336 0.950 . S
H362 C338 0.950 . S
H363 C339 0.949 . S
H364 C341 0.950 . S
H365 C343 0.950 . S
C366 C367 1.349 . S
C366 C368 1.327 . S
C366 H391 0.950 . S
C367 C366 1.349 . S
C367 C383 1.349 . S
C368 C366 1.327 . S
C368 C387 1.429 . S
C368 H392 0.950 . S
C369 C386 1.574 . S
C369 C388 1.368 . S
C369 H393 0.949 . S
H370 C374 0.949 . S
C371 C372 1.349 . S
C371 C373 1.327 . S
C371 H394 0.950 . S
C372 C371 1.349 . S
C372 C384 1.349 . S
C373 C371 1.327 . S
C373 C389 1.429 . S
C373 H395 0.950 . S
C374 H370 0.949 . S
C374 C382 1.574 . S
C374 C390 1.368 . S
H375 C383 0.950 . S
H376 C381 0.950 . S
H377 C382 0.949 . S
H378 C384 0.950 . S
H379 C385 0.950 . S
H380 C386 0.949 . S
C381 H376 0.950 . S
C381 C383 1.327 . S
C381 C387 1.429 . S
C382 C374 1.574 . S
C382 H377 0.949 . S
C382 C388 1.368 . S
C383 C367 1.349 . S
C383 H375 0.950 . S
C383 C381 1.327 . S
C384 C372 1.349 . S
C384 H378 0.950 . S
C384 C385 1.327 . S
C385 H379 0.950 . S
C385 C384 1.327 . S
C385 C389 1.429 . S
C386 C369 1.574 . S
C386 H380 0.949 . S
C386 C390 1.368 . S
C387 C368 1.429 . S
C387 C381 1.429 . S
C387 C388 1.523 . S
C388 C369 1.368 . S
C388 C382 1.368 . S
C388 C387 1.523 . S
C389 C373 1.429 . S
C389 C385 1.429 . S
C389 C390 1.523 . S
C390 C374 1.368 . S
C390 C386 1.368 . S
C390 C389 1.523 . S
H391 C366 0.950 . S
H392 C368 0.950 . S
H393 C369 0.949 . S
H394 C371 0.950 . S
H395 C373 0.950 . S
C396 C397 1.349 . S
C396 C398 1.327 . S
C396 H421 0.950 . S
C397 C396 1.349 . S
C397 C413 1.349 . S
C398 C396 1.327 . S
C398 C417 1.429 . S
C398 H422 0.950 . S
C399 C416 1.574 . S
C399 C418 1.368 . S
C399 H423 0.949 . S
H400 C404 0.949 . S
C401 C402 1.349 . S
C401 C403 1.327 . S
C401 H424 0.950 . S
C402 C401 1.349 . S
C402 C414 1.349 . S
C403 C401 1.327 . S
C403 C419 1.429 . S
C403 H425 0.950 . S
C404 H400 0.949 . S
C404 C412 1.574 . S
C404 C420 1.368 . S
H405 C413 0.950 . S
H406 C411 0.950 . S
H407 C412 0.949 . S
H408 C414 0.950 . S
H409 C415 0.950 . S
H410 C416 0.949 . S
C411 H406 0.950 . S
C411 C413 1.327 . S
C411 C417 1.429 . S
C412 C404 1.574 . S
C412 H407 0.949 . S
C412 C418 1.368 . S
C413 C397 1.349 . S
C413 H405 0.950 . S
C413 C411 1.327 . S
C414 C402 1.349 . S
C414 H408 0.950 . S
C414 C415 1.327 . S
C415 H409 0.950 . S
C415 C414 1.327 . S
C415 C419 1.429 . S
C416 C399 1.574 . S
C416 H410 0.949 . S
C416 C420 1.368 . S
C417 C398 1.429 . S
C417 C411 1.429 . S
C417 C418 1.523 . S
C418 C399 1.368 . S
C418 C412 1.368 . S
C418 C417 1.523 . S
C419 C403 1.429 . S
C419 C415 1.429 . S
C419 C420 1.523 . S
C420 C404 1.368 . S
C420 C416 1.368 . S
C420 C419 1.523 . S
H421 C396 0.950 . S
H422 C398 0.950 . S
H423 C399 0.949 . S
H424 C401 0.950 . S
H425 C403 0.950 . S
C426 C427 1.349 . S
C426 C428 1.327 . S
C426 H451 0.950 . S
C427 C426 1.349 . S
C427 C443 1.349 . S
C428 C426 1.327 . S
C428 C447 1.429 . S
C428 H452 0.950 . S
C429 C446 1.574 . S
C429 C448 1.368 . S
C429 H453 0.949 . S
H430 C434 0.949 . S
C431 C432 1.349 . S
C431 C433 1.327 . S
C431 H454 0.950 . S
C432 C431 1.349 . S
C432 C444 1.349 . S
C433 C431 1.327 . S
C433 C449 1.429 . S
C433 H455 0.950 . S
C434 H430 0.949 . S
C434 C442 1.574 . S
C434 C450 1.368 . S
H435 C443 0.950 . S
H436 C441 0.950 . S
H437 C442 0.949 . S
H438 C444 0.950 . S
H439 C445 0.950 . S
H440 C446 0.949 . S
C441 H436 0.950 . S
C441 C443 1.327 . S
C441 C447 1.429 . S
C442 C434 1.574 . S
C442 H437 0.949 . S
C442 C448 1.368 . S
C443 C427 1.349 . S
C443 H435 0.950 . S
C443 C441 1.327 . S
C444 C432 1.349 . S
C444 H438 0.950 . S
C444 C445 1.327 . S
C445 H439 0.950 . S
C445 C444 1.327 . S
C445 C449 1.429 . S
C446 C429 1.574 . S
C446 H440 0.949 . S
C446 C450 1.368 . S
C447 C428 1.429 . S
C447 C441 1.429 . S
C447 C448 1.523 . S
C448 C429 1.368 . S
C448 C442 1.368 . S
C448 C447 1.523 . S
C449 C433 1.429 . S
C449 C445 1.429 . S
C449 C450 1.523 . S
C450 C434 1.368 . S
C450 C446 1.368 . S
C450 C449 1.523 . S
H451 C426 0.950 . S
H452 C428 0.950 . S
H453 C429 0.949 . S
H454 C431 0.950 . S
H455 C433 0.950 . S
C456 C457 1.349 . S
C456 C458 1.327 . S
C456 H481 0.950 . S
C457 C456 1.349 . S
C457 C473 1.349 . S
C458 C456 1.327 . S
C458 C477 1.429 . S
C458 H482 0.950 . S
C459 C476 1.574 . S
C459 C478 1.368 . S
C459 H483 0.949 . S
H460 C464 0.949 . S
C461 C462 1.349 . S
C461 C463 1.327 . S
C461 H484 0.950 . S
C462 C461 1.349 . S
C462 C474 1.349 . S
C463 C461 1.327 . S
C463 C479 1.429 . S
C463 H485 0.950 . S
C464 H460 0.949 . S
C464 C472 1.574 . S
C464 C480 1.368 . S
H465 C473 0.950 1_556 S
H466 C471 0.950 . S
H467 C472 0.949 . S
H468 C474 0.950 . S
H469 C475 0.950 . S
H470 C476 0.949 . S
C471 H466 0.950 . S
C471 C473 1.327 . S
C471 C477 1.429 . S
C472 C464 1.574 . S
C472 H467 0.949 . S
C472 C478 1.368 . S
C473 C457 1.349 . S
C473 H465 0.950 1_554 S
C473 C471 1.327 . S
C474 C462 1.349 . S
C474 H468 0.950 . S
C474 C475 1.327 . S
C475 H469 0.950 . S
C475 C474 1.327 . S
C475 C479 1.429 . S
C476 C459 1.574 . S
C476 H470 0.949 . S
C476 C480 1.368 . S
C477 C458 1.429 . S
C477 C471 1.429 . S
C477 C478 1.523 . S
C478 C459 1.368 . S
C478 C472 1.368 . S
C478 C477 1.523 . S
C479 C463 1.429 . S
C479 C475 1.429 . S
C479 C480 1.523 . S
C480 C464 1.368 . S
C480 C476 1.368 . S
C480 C479 1.523 . S
H481 C456 0.950 . S
H482 C458 0.950 . S
H483 C459 0.949 . S
H484 C461 0.950 . S
H485 C463 0.950 . S
C486 C487 1.349 . S
C486 C488 1.327 . S
C486 H511 0.950 . S
C487 C486 1.349 . S
C487 C503 1.349 . S
C488 C486 1.327 . S
C488 C507 1.429 . S
C488 H512 0.950 . S
C489 C506 1.574 . S
C489 C508 1.368 . S
C489 H513 0.949 . S
H490 C494 0.949 . S
C491 C492 1.349 . S
C491 C493 1.327 . S
C491 H514 0.950 . S
C492 C491 1.349 . S
C492 C504 1.349 . S
C493 C491 1.327 . S
C493 C509 1.429 . S
C493 H515 0.950 . S
C494 H490 0.949 . S
C494 C502 1.574 . S
C494 C510 1.368 . S
H495 C503 0.950 . S
H496 C501 0.950 . S
H497 C502 0.949 . S
H498 C504 0.950 . S
H499 C505 0.950 . S
H500 C506 0.949 . S
C501 H496 0.950 . S
C501 C503 1.327 . S
C501 C507 1.429 . S
C502 C494 1.574 . S
C502 H497 0.949 . S
C502 C508 1.368 . S
C503 C487 1.349 . S
C503 H495 0.950 . S
C503 C501 1.327 . S
C504 C492 1.349 . S
C504 H498 0.950 . S
C504 C505 1.327 . S
C505 H499 0.950 . S
C505 C504 1.327 . S
C505 C509 1.429 . S
C506 C489 1.574 . S
C506 H500 0.949 . S
C506 C510 1.368 . S
C507 C488 1.429 . S
C507 C501 1.429 . S
C507 C508 1.523 . S
C508 C489 1.368 . S
C508 C502 1.368 . S
C508 C507 1.523 . S
C509 C493 1.429 . S
C509 C505 1.429 . S
C509 C510 1.523 . S
C510 C494 1.368 . S
C510 C506 1.368 . S
C510 C509 1.523 . S
H511 C486 0.950 . S
H512 C488 0.950 . S
H513 C489 0.949 . S
H514 C491 0.950 . S
H515 C493 0.950 . S
C516 C517 1.349 . S
C516 C518 1.327 . S
C516 H541 0.950 . S
C517 C516 1.349 . S
C517 C533 1.349 . S
C518 C516 1.327 . S
C518 C537 1.429 . S
C518 H542 0.950 . S
C519 C536 1.574 . S
C519 C538 1.368 . S
C519 H543 0.949 . S
H520 C524 0.949 . S
C521 C522 1.349 . S
C521 C523 1.327 . S
C521 H544 0.950 . S
C522 C521 1.349 . S
C522 C534 1.349 . S
C523 C521 1.327 . S
C523 C539 1.429 . S
C523 H545 0.950 . S
C524 H520 0.949 . S
C524 C532 1.574 . S
C524 C540 1.368 . S
H525 C533 0.950 . S
H526 C531 0.950 . S
H527 C532 0.949 . S
H528 C534 0.950 . S
H529 C535 0.950 . S
H530 C536 0.949 . S
C531 H526 0.950 . S
C531 C533 1.327 . S
C531 C537 1.429 . S
C532 C524 1.574 . S
C532 H527 0.949 . S
C532 C538 1.368 . S
C533 C517 1.349 . S
C533 H525 0.950 . S
C533 C531 1.327 . S
C534 C522 1.349 . S
C534 H528 0.950 . S
C534 C535 1.327 . S
C535 H529 0.950 . S
C535 C534 1.327 . S
C535 C539 1.429 . S
C536 C519 1.574 . S
C536 H530 0.949 . S
C536 C540 1.368 . S
C537 C518 1.429 . S
C537 C531 1.429 . S
C537 C538 1.523 . S
C538 C519 1.368 . S
C538 C532 1.368 . S
C538 C537 1.523 . S
C539 C523 1.429 . S
C539 C535 1.429 . S
C539 C540 1.523 . S
C540 C524 1.368 . S
C540 C536 1.368 . S
C540 C539 1.523 . S
H541 C516 0.950 . S
H542 C518 0.950 . S
H543 C519 0.949 . S
H544 C521 0.950 . S
H545 C523 0.950 . S
C546 C547 1.349 . S
C546 C548 1.327 . S
C546 H571 0.950 . S
C547 C546 1.349 . S
C547 C563 1.349 . S
C548 C546 1.327 . S
C548 C567 1.429 . S
C548 H572 0.950 . S
C549 C566 1.574 . S
C549 C568 1.368 . S
C549 H573 0.949 . S
H550 C554 0.949 . S
C551 C552 1.349 . S
C551 C553 1.327 . S
C551 H574 0.950 . S
C552 C551 1.349 . S
C552 C564 1.349 . S
C553 C551 1.327 . S
C553 C569 1.429 . S
C553 H575 0.950 . S
C554 H550 0.949 . S
C554 C562 1.574 . S
C554 C570 1.368 . S
H555 C563 0.950 . S
H556 C561 0.950 . S
H557 C562 0.949 . S
H558 C564 0.950 . S
H559 C565 0.950 . S
H560 C566 0.949 . S
C561 H556 0.950 . S
C561 C563 1.327 . S
C561 C567 1.429 . S
C562 C554 1.574 . S
C562 H557 0.949 . S
C562 C568 1.368 . S
C563 C547 1.349 . S
C563 H555 0.950 . S
C563 C561 1.327 . S
C564 C552 1.349 . S
C564 H558 0.950 . S
C564 C565 1.327 . S
C565 H559 0.950 . S
C565 C564 1.327 . S
C565 C569 1.429 . S
C566 C549 1.574 . S
C566 H560 0.949 . S
C566 C570 1.368 . S
C567 C548 1.429 . S
C567 C561 1.429 . S
C567 C568 1.523 . S
C568 C549 1.368 . S
C568 C562 1.368 . S
C568 C567 1.523 . S
C569 C553 1.429 . S
C569 C565 1.429 . S
C569 C570 1.523 . S
C570 C554 1.368 . S
C570 C566 1.368 . S
C570 C569 1.523 . S
H571 C546 0.950 . S
H572 C548 0.950 . S
H573 C549 0.949 . S
H574 C551 0.950 . S
H575 C553 0.950 . S
C576 C577 1.349 . S
C576 C578 1.327 . S
C576 H601 0.950 . S
C577 C576 1.349 . S
C577 C593 1.349 . S
C578 C576 1.327 . S
C578 C597 1.429 . S
C578 H602 0.950 . S
C579 C596 1.574 . S
C579 C598 1.368 . S
C579 H603 0.949 . S
H580 C584 0.949 . S
C581 C582 1.349 . S
C581 C583 1.327 . S
C581 H604 0.950 . S
C582 C581 1.349 . S
C582 C594 1.349 . S
C583 C581 1.327 . S
C583 C599 1.429 . S
C583 H605 0.950 . S
C584 H580 0.949 . S
C584 C592 1.574 . S
C584 C600 1.368 . S
H585 C593 0.950 . S
H586 C591 0.950 . S
H587 C592 0.949 . S
H588 C594 0.950 . S
H589 C595 0.950 . S
H590 C596 0.949 . S
C591 H586 0.950 . S
C591 C593 1.327 . S
C591 C597 1.429 . S
C592 C584 1.574 . S
C592 H587 0.949 . S
C592 C598 1.368 . S
C593 C577 1.349 . S
C593 H585 0.950 . S
C593 C591 1.327 . S
C594 C582 1.349 . S
C594 H588 0.950 . S
C594 C595 1.327 . S
C595 H589 0.950 . S
C595 C594 1.327 . S
C595 C599 1.429 . S
C596 C579 1.574 . S
C596 H590 0.949 . S
C596 C600 1.368 . S
C597 C578 1.429 . S
C597 C591 1.429 . S
C597 C598 1.523 . S
C598 C579 1.368 . S
C598 C592 1.368 . S
C598 C597 1.523 . S
C599 C583 1.429 . S
C599 C595 1.429 . S
C599 C600 1.523 . S
C600 C584 1.368 . S
C600 C596 1.368 . S
C600 C599 1.523 . S
H601 C576 0.950 . S
H602 C578 0.950 . S
H603 C579 0.949 . S
H604 C581 0.950 . S
H605 C583 0.950 . S
C606 C607 1.349 . S
C606 C608 1.327 . S
C606 H631 0.950 . S
C607 C606 1.349 . S
C607 C623 1.349 . S
C608 C606 1.327 . S
C608 C627 1.429 . S
C608 H632 0.950 . S
C609 C626 1.574 . S
C609 C628 1.368 . S
C609 H633 0.949 . S
H610 C614 0.949 . S
C611 C612 1.349 . S
C611 C613 1.327 . S
C611 H634 0.950 . S
C612 C611 1.349 . S
C612 C624 1.349 . S
C613 C611 1.327 . S
C613 C629 1.429 . S
C613 H635 0.950 . S
C614 H610 0.949 . S
C614 C622 1.574 . S
C614 C630 1.368 . S
H615 C623 0.950 . S
H616 C621 0.950 . S
H617 C622 0.949 . S
H618 C624 0.950 . S
H619 C625 0.950 . S
H620 C626 0.949 . S
C621 H616 0.950 . S
C621 C623 1.327 . S
C621 C627 1.429 . S
C622 C614 1.574 . S
C622 H617 0.949 . S
C622 C628 1.368 . S
C623 C607 1.349 . S
C623 H615 0.950 . S
C623 C621 1.327 . S
C624 C612 1.349 . S
C624 H618 0.950 . S
C624 C625 1.327 . S
C625 H619 0.950 . S
C625 C624 1.327 . S
C625 C629 1.429 . S
C626 C609 1.574 . S
C626 H620 0.949 . S
C626 C630 1.368 . S
C627 C608 1.429 . S
C627 C621 1.429 . S
C627 C628 1.523 . S
C628 C609 1.368 . S
C628 C622 1.368 . S
C628 C627 1.523 . S
C629 C613 1.429 . S
C629 C625 1.429 . S
C629 C630 1.523 . S
C630 C614 1.368 . S
C630 C626 1.368 . S
C630 C629 1.523 . S
H631 C606 0.950 . S
H632 C608 0.950 . S
H633 C609 0.949 . S
H634 C611 0.950 . S
H635 C613 0.950 . S
C636 C637 1.349 . S
C636 C638 1.327 . S
C636 H661 0.950 . S
C637 C636 1.349 . S
C637 C653 1.349 . S
C638 C636 1.327 . S
C638 C657 1.429 . S
C638 H662 0.950 . S
C639 C656 1.574 . S
C639 C658 1.368 . S
C639 H663 0.949 . S
H640 C644 0.949 . S
C641 C642 1.349 1_556 S
C641 C643 1.327 . S
C641 H664 0.951 . S
C642 C641 1.349 1_554 S
C642 C654 1.349 . S
C643 C641 1.327 . S
C643 C659 1.429 . S
C643 H665 0.950 . S
C644 H640 0.949 . S
C644 C652 1.574 . S
C644 C660 1.368 . S
H645 C653 0.950 . S
H646 C651 0.950 . S
H647 C652 0.949 . S
H648 C654 0.950 . S
H649 C655 0.950 . S
H650 C656 0.949 . S
C651 H646 0.950 . S
C651 C653 1.327 . S
C651 C657 1.429 . S
C652 C644 1.574 . S
C652 H647 0.949 . S
C652 C658 1.368 . S
C653 C637 1.349 . S
C653 H645 0.950 . S
C653 C651 1.327 . S
C654 C642 1.349 . S
C654 H648 0.950 . S
C654 C655 1.327 1_554 S
C655 H649 0.950 . S
C655 C654 1.327 1_556 S
C655 C659 1.429 . S
C656 C639 1.574 . S
C656 H650 0.949 . S
C656 C660 1.368 . S
C657 C638 1.429 . S
C657 C651 1.429 . S
C657 C658 1.523 . S
C658 C639 1.368 . S
C658 C652 1.368 . S
C658 C657 1.523 . S
C659 C643 1.429 . S
C659 C655 1.429 . S
C659 C660 1.523 . S
C660 C644 1.368 . S
C660 C656 1.368 . S
C660 C659 1.523 . S
H661 C636 0.950 . S
H662 C638 0.950 . S
H663 C639 0.949 . S
H664 C641 0.951 . S
H665 C643 0.950 . S
C666 C667 1.349 . S
C666 C668 1.327 . S
C666 H691 0.950 . S
C667 C666 1.349 . S
C667 C683 1.349 . S
C668 C666 1.327 . S
C668 C687 1.429 . S
C668 H692 0.950 . S
C669 C686 1.574 . S
C669 C688 1.368 . S
C669 H693 0.949 . S
H670 C674 0.949 . S
C671 C672 1.349 . S
C671 C673 1.327 . S
C671 H694 0.950 . S
C672 C671 1.349 . S
C672 C684 1.349 . S
C673 C671 1.327 . S
C673 C689 1.429 . S
C673 H695 0.950 . S
C674 H670 0.949 . S
C674 C682 1.574 . S
C674 C690 1.368 . S
H675 C683 0.950 . S
H676 C681 0.950 . S
H677 C682 0.949 . S
H678 C684 0.950 . S
H679 C685 0.950 . S
H680 C686 0.949 . S
C681 H676 0.950 . S
C681 C683 1.327 . S
C681 C687 1.429 . S
C682 C674 1.574 . S
C682 H677 0.949 . S
C682 C688 1.368 . S
C683 C667 1.349 . S
C683 H675 0.950 . S
C683 C681 1.327 . S
C684 C672 1.349 . S
C684 H678 0.950 . S
C684 C685 1.327 . S
C685 H679 0.950 . S
C685 C684 1.327 . S
C685 C689 1.429 . S
C686 C669 1.574 . S
C686 H680 0.949 . S
C686 C690 1.368 . S
C687 C668 1.429 . S
C687 C681 1.429 . S
C687 C688 1.523 . S
C688 C669 1.368 . S
C688 C682 1.368 . S
C688 C687 1.523 . S
C689 C673 1.429 . S
C689 C685 1.429 . S
C689 C690 1.523 . S
C690 C674 1.368 . S
C690 C686 1.368 . S
C690 C689 1.523 . S
H691 C666 0.950 . S
H692 C668 0.950 . S
H693 C669 0.949 . S
H694 C671 0.950 . S
H695 C673 0.950 . S
C696 C697 1.349 . S
C696 C698 1.327 . S
C696 H721 0.950 . S
C697 C696 1.349 . S
C697 C713 1.349 . S
C698 C696 1.327 . S
C698 C717 1.429 . S
C698 H722 0.950 . S
C699 C716 1.574 . S
C699 C718 1.368 . S
C699 H723 0.949 . S
H700 C704 0.949 . S
C701 C702 1.349 . S
C701 C703 1.327 . S
C701 H724 0.950 . S
C702 C701 1.349 . S
C702 C714 1.349 . S
C703 C701 1.327 . S
C703 C719 1.429 . S
C703 H725 0.950 . S
C704 H700 0.949 . S
C704 C712 1.574 . S
C704 C720 1.368 . S
H705 C713 0.950 . S
H706 C711 0.950 . S
H707 C712 0.949 . S
H708 C714 0.950 . S
H709 C715 0.950 . S
H710 C716 0.949 . S
C711 H706 0.950 . S
C711 C713 1.327 . S
C711 C717 1.429 . S
C712 C704 1.574 . S
C712 H707 0.949 . S
C712 C718 1.368 . S
C713 C697 1.349 . S
C713 H705 0.950 . S
C713 C711 1.327 . S
C714 C702 1.349 . S
C714 H708 0.950 . S
C714 C715 1.327 . S
C715 H709 0.950 . S
C715 C714 1.327 . S
C715 C719 1.429 . S
C716 C699 1.574 . S
C716 H710 0.949 . S
C716 C720 1.368 . S
C717 C698 1.429 . S
C717 C711 1.429 . S
C717 C718 1.523 . S
C718 C699 1.368 . S
C718 C712 1.368 . S
C718 C717 1.523 . S
C719 C703 1.429 . S
C719 C715 1.429 . S
C719 C720 1.523 . S
C720 C704 1.368 . S
C720 C716 1.368 . S
C720 C719 1.523 . S
H721 C696 0.950 . S
H722 C698 0.950 . S
H723 C699 0.949 . S
H724 C701 0.950 . S
H725 C703 0.950 . S
C726 C727 1.349 . S
C726 C728 1.327 . S
C726 H751 0.950 . S
C727 C726 1.349 . S
C727 C743 1.349 . S
C728 C726 1.327 . S
C728 C747 1.429 . S
C728 H752 0.950 . S
C729 C746 1.574 . S
C729 C748 1.368 . S
C729 H753 0.949 . S
H730 C734 0.949 . S
C731 C732 1.349 . S
C731 C733 1.327 . S
C731 H754 0.950 . S
C732 C731 1.349 . S
C732 C744 1.349 . S
C733 C731 1.327 . S
C733 C749 1.429 . S
C733 H755 0.950 . S
C734 H730 0.949 . S
C734 C742 1.574 . S
C734 C750 1.368 . S
H735 C743 0.950 . S
H736 C741 0.950 . S
H737 C742 0.949 . S
H738 C744 0.950 . S
H739 C745 0.950 . S
H740 C746 0.949 . S
C741 H736 0.950 . S
C741 C743 1.327 . S
C741 C747 1.429 . S
C742 C734 1.574 . S
C742 H737 0.949 . S
C742 C748 1.368 . S
C743 C727 1.349 . S
C743 H735 0.950 . S
C743 C741 1.327 . S
C744 C732 1.349 . S
C744 H738 0.950 . S
C744 C745 1.327 . S
C745 H739 0.950 . S
C745 C744 1.327 . S
C745 C749 1.429 . S
C746 C729 1.574 . S
C746 H740 0.949 . S
C746 C750 1.368 . S
C747 C728 1.429 . S
C747 C741 1.429 . S
C747 C748 1.523 . S
C748 C729 1.368 . S
C748 C742 1.368 . S
C748 C747 1.523 . S
C749 C733 1.429 . S
C749 C745 1.429 . S
C749 C750 1.523 . S
C750 C734 1.368 . S
C750 C746 1.368 . S
C750 C749 1.523 . S
H751 C726 0.950 . S
H752 C728 0.950 . S
H753 C729 0.949 . S
H754 C731 0.950 . S
H755 C733 0.950 . S
C756 C757 1.349 . S
C756 C758 1.327 . S
C756 H781 0.950 . S
C757 C756 1.349 . S
C757 C773 1.349 . S
C758 C756 1.327 . S
C758 C777 1.429 . S
C758 H782 0.950 . S
C759 C776 1.574 . S
C759 C778 1.368 . S
C759 H783 0.949 . S
H760 C764 0.949 . S
C761 C762 1.349 . S
C761 C763 1.327 . S
C761 H784 0.950 . S
C762 C761 1.349 . S
C762 C774 1.349 . S
C763 C761 1.327 . S
C763 C779 1.429 . S
C763 H785 0.950 . S
C764 H760 0.949 . S
C764 C772 1.574 . S
C764 C780 1.368 . S
H765 C773 0.950 . S
H766 C771 0.950 . S
H767 C772 0.949 . S
H768 C774 0.950 . S
H769 C775 0.950 . S
H770 C776 0.949 . S
C771 H766 0.950 . S
C771 C773 1.327 . S
C771 C777 1.429 . S
C772 C764 1.574 . S
C772 H767 0.949 . S
C772 C778 1.368 . S
C773 C757 1.349 . S
C773 H765 0.950 . S
C773 C771 1.327 . S
C774 C762 1.349 . S
C774 H768 0.950 . S
C774 C775 1.327 . S
C775 H769 0.950 . S
C775 C774 1.327 . S
C775 C779 1.429 . S
C776 C759 1.574 . S
C776 H770 0.949 . S
C776 C780 1.368 . S
C777 C758 1.429 . S
C777 C771 1.429 . S
C777 C778 1.523 . S
C778 C759 1.368 . S
C778 C772 1.368 . S
C778 C777 1.523 . S
C779 C763 1.429 . S
C779 C775 1.429 . S
C779 C780 1.523 . S
C780 C764 1.368 . S
C780 C776 1.368 . S
C780 C779 1.523 . S
H781 C756 0.950 . S
H782 C758 0.950 . S
H783 C759 0.949 . S
H784 C761 0.950 . S
H785 C763 0.950 . S
C786 C787 1.349 . S
C786 C788 1.327 . S
C786 H811 0.950 . S
C787 C786 1.349 . S
C787 C803 1.349 . S
C788 C786 1.327 . S
C788 C807 1.429 . S
C788 H812 0.950 . S
C789 C806 1.574 . S
C789 C808 1.368 . S
C789 H813 0.949 . S
H790 C794 0.949 . S
C791 C792 1.349 . S
C791 C793 1.327 . S
C791 H814 0.950 . S
C792 C791 1.349 . S
C792 C804 1.349 . S
C793 C791 1.327 . S
C793 C809 1.429 . S
C793 H815 0.950 . S
C794 H790 0.949 . S
C794 C802 1.574 . S
C794 C810 1.368 . S
H795 C803 0.950 . S
H796 C801 0.950 . S
H797 C802 0.949 . S
H798 C804 0.950 . S
H799 C805 0.950 . S
H800 C806 0.949 . S
C801 H796 0.950 . S
C801 C803 1.327 . S
C801 C807 1.429 . S
C802 C794 1.574 . S
C802 H797 0.949 . S
C802 C808 1.368 . S
C803 C787 1.349 . S
C803 H795 0.950 . S
C803 C801 1.327 . S
C804 C792 1.349 . S
C804 H798 0.950 . S
C804 C805 1.327 . S
C805 H799 0.950 . S
C805 C804 1.327 . S
C805 C809 1.429 . S
C806 C789 1.574 . S
C806 H800 0.949 . S
C806 C810 1.368 . S
C807 C788 1.429 . S
C807 C801 1.429 . S
C807 C808 1.523 . S
C808 C789 1.368 . S
C808 C802 1.368 . S
C808 C807 1.523 . S
C809 C793 1.429 . S
C809 C805 1.429 . S
C809 C810 1.523 . S
C810 C794 1.368 . S
C810 C806 1.368 . S
C810 C809 1.523 . S
H811 C786 0.950 . S
H812 C788 0.950 . S
H813 C789 0.949 . S
H814 C791 0.950 . S
H815 C793 0.950 . S
C816 C817 1.349 . S
C816 C818 1.327 . S
C816 H841 0.950 . S
C817 C816 1.349 . S
C817 C833 1.349 . S
C818 C816 1.327 . S
C818 C837 1.429 . S
C818 H842 0.950 . S
C819 C836 1.574 . S
C819 C838 1.368 . S
C819 H843 0.949 . S
H820 C824 0.949 . S
C821 C822 1.349 . S
C821 C823 1.327 . S
C821 H844 0.950 . S
C822 C821 1.349 . S
C822 C834 1.349 . S
C823 C821 1.327 . S
C823 C839 1.429 . S
C823 H845 0.950 . S
C824 H820 0.949 . S
C824 C832 1.574 . S
C824 C840 1.368 . S
H825 C833 0.950 . S
H826 C831 0.950 . S
H827 C832 0.949 . S
H828 C834 0.950 . S
H829 C835 0.950 . S
H830 C836 0.949 . S
C831 H826 0.950 . S
C831 C833 1.327 . S
C831 C837 1.429 . S
C832 C824 1.574 . S
C832 H827 0.949 . S
C832 C838 1.368 . S
C833 C817 1.349 . S
C833 H825 0.950 . S
C833 C831 1.327 . S
C834 C822 1.349 . S
C834 H828 0.950 . S
C834 C835 1.327 . S
C835 H829 0.950 . S
C835 C834 1.327 . S
C835 C839 1.429 . S
C836 C819 1.574 . S
C836 H830 0.949 . S
C836 C840 1.368 . S
C837 C818 1.429 . S
C837 C831 1.429 . S
C837 C838 1.523 . S
C838 C819 1.368 . S
C838 C832 1.368 . S
C838 C837 1.523 . S
C839 C823 1.429 . S
C839 C835 1.429 . S
C839 C840 1.523 . S
C840 C824 1.368 . S
C840 C836 1.368 . S
C840 C839 1.523 . S
H841 C816 0.950 . S
H842 C818 0.950 . S
H843 C819 0.949 . S
H844 C821 0.950 . S
H845 C823 0.950 . S
C846 C847 1.349 . S
C846 C848 1.327 . S
C846 H871 0.950 . S
C847 C846 1.349 . S
C847 C863 1.349 . S
C848 C846 1.327 . S
C848 C867 1.429 . S
C848 H872 0.950 . S
C849 C866 1.574 . S
C849 C868 1.368 . S
C849 H873 0.949 . S
H850 C854 0.949 . S
C851 C852 1.349 . S
C851 C853 1.327 . S
C851 H874 0.950 . S
C852 C851 1.349 . S
C852 C864 1.349 . S
C853 C851 1.327 . S
C853 C869 1.429 . S
C853 H875 0.950 . S
C854 H850 0.949 . S
C854 C862 1.574 . S
C854 C870 1.368 . S
H855 C863 0.950 . S
H856 C861 0.950 . S
H857 C862 0.949 . S
H858 C864 0.950 . S
H859 C865 0.950 . S
H860 C866 0.949 . S
C861 H856 0.950 . S
C861 C863 1.327 . S
C861 C867 1.429 . S
C862 C854 1.574 . S
C862 H857 0.949 . S
C862 C868 1.368 . S
C863 C847 1.349 . S
C863 H855 0.950 . S
C863 C861 1.327 . S
C864 C852 1.349 . S
C864 H858 0.950 . S
C864 C865 1.327 . S
C865 H859 0.950 . S
C865 C864 1.327 . S
C865 C869 1.429 . S
C866 C849 1.574 . S
C866 H860 0.949 . S
C866 C870 1.368 . S
C867 C848 1.429 . S
C867 C861 1.429 . S
C867 C868 1.523 . S
C868 C849 1.368 . S
C868 C862 1.368 . S
C868 C867 1.523 . S
C869 C853 1.429 . S
C869 C865 1.429 . S
C869 C870 1.523 1_556 S
C870 C854 1.368 . S
C870 C866 1.368 . S
C870 C869 1.523 1_554 S
H871 C846 0.950 . S
H872 C848 0.950 . S
H873 C849 0.949 . S
H874 C851 0.950 . S
H875 C853 0.950 . S
C876 C877 1.349 . S
C876 C878 1.327 . S
C876 H901 0.950 . S
C877 C876 1.349 . S
C877 C893 1.349 . S
C878 C876 1.327 . S
C878 C897 1.429 . S
C878 H902 0.950 . S
C879 C896 1.574 . S
C879 C898 1.368 . S
C879 H903 0.949 . S
H880 C884 0.949 . S
C881 C882 1.349 . S
C881 C883 1.327 . S
C881 H904 0.950 . S
C882 C881 1.349 . S
C882 C894 1.349 . S
C883 C881 1.327 . S
C883 C899 1.429 . S
C883 H905 0.950 . S
C884 H880 0.949 . S
C884 C892 1.574 . S
C884 C900 1.368 . S
H885 C893 0.950 . S
H886 C891 0.950 . S
H887 C892 0.949 . S
H888 C894 0.950 . S
H889 C895 0.950 . S
H890 C896 0.949 . S
C891 H886 0.950 . S
C891 C893 1.327 . S
C891 C897 1.429 . S
C892 C884 1.574 . S
C892 H887 0.949 . S
C892 C898 1.368 . S
C893 C877 1.349 . S
C893 H885 0.950 . S
C893 C891 1.327 . S
C894 C882 1.349 . S
C894 H888 0.950 . S
C894 C895 1.327 . S
C895 H889 0.950 . S
C895 C894 1.327 . S
C895 C899 1.429 . S
C896 C879 1.574 . S
C896 H890 0.949 . S
C896 C900 1.368 . S
C897 C878 1.429 . S
C897 C891 1.429 . S
C897 C898 1.523 . S
C898 C879 1.368 . S
C898 C892 1.368 . S
C898 C897 1.523 . S
C899 C883 1.429 . S
C899 C895 1.429 . S
C899 C900 1.523 . S
C900 C884 1.368 . S
C900 C896 1.368 . S
C900 C899 1.523 . S
H901 C876 0.950 . S
H902 C878 0.950 . S
H903 C879 0.949 . S
H904 C881 0.950 . S
H905 C883 0.950 . S
C192 C183 1.548 . S
C187 C8 1.504 . S
C217 C26 1.483 . S
C222 C108 1.479 . S
C247 C50 1.514 . S
C252 C131 1.570 . S
C277 C68 1.418 . S
C282 C144 1.461 . S
C312 C147 1.510 . S
C307 C80 1.513 . S
C337 C104 1.421 . S
C342 C160 1.432 . S
C367 C32 1.427 . S
C372 C121 1.437 . S
C397 C44 1.514 . S
C402 C134 1.511 . S
C427 C62 1.417 . S
C432 C157 1.457 . S
C462 C170 1.563 . S
C457 C86 1.507 1_554 S
C492 C173 1.478 . S
C487 C98 1.481 . S
C522 C118 1.552 . S
C517 C14 1.504 . S
C547 C7 1.448 . S
C552 C129 1.455 . S
C577 C25 1.434 . S
C582 C142 1.442 . S
C612 C152 1.474 . S
C607 C52 1.463 . S
C637 C70 1.434 . S
C642 C165 1.443 . S
C672 C181 1.479 . S
C667 C79 1.471 . S
C702 C113 1.441 . S
C697 C106 1.427 . S
C732 C178 1.440 . S
C727 C34 1.426 . S
C757 C43 1.472 . S
C762 C116 1.480 . S
C792 C126 1.444 . S
C787 C61 1.431 . S
C817 C88 1.464 . S
C822 C139 1.476 . S
C847 C97 1.433 . S
C852 C155 1.441 . S
C877 C16 1.450 . S
C882 C168 1.454 . S
