# Generated by pormake.
# Topology pyr, (3,6)-cn, num edge types: 1
# Building blocks:
#     Node 0, Type 0, BuildingBlock: KAKCAD_clean_linker_0, # of connection points: 3
#     Node 1, Type 0, BuildingBlock: KAKCAD_clean_linker_0, # of connection points: 3
#     Node 2, Type 0, BuildingBlock: KAKCAD_clean_linker_0, # of connection points: 3
#     Node 3, Type 0, BuildingBlock: KAKCAD_clean_linker_0, # of connection points: 3
#     Node 4, Type 0, BuildingBlock: KAKCAD_clean_linker_0, # of connection points: 3
#     Node 5, Type 0, BuildingBlock: KAKCAD_clean_linker_0, # of connection points: 3
#     Node 6, Type 0, BuildingBlock: KAKCAD_clean_linker_0, # of connection points: 3
#     Node 7, Type 0, BuildingBlock: KAKCAD_clean_linker_0, # of connection points: 3
#     Node 8, Type 1, BuildingBlock: JUFBIX_clean_sbu_0, # of connection points: 6
#     Node 9, Type 1, BuildingBlock: JUFBIX_clean_sbu_0, # of connection points: 6
#     Node 10, Type 1, BuildingBlock: JUFBIX_clean_sbu_0, # of connection points: 6
#     Node 11, Type 1, BuildingBlock: JUFBIX_clean_sbu_0, # of connection points: 6
#     Edge 12, Type (0, 1), BuildingBlock: TEMPAE_clean_linker_10, # of connection points: 2
#     Edge 13, Type (0, 1), BuildingBlock: TEMPAE_clean_linker_10, # of connection points: 2
#     Edge 14, Type (0, 1), BuildingBlock: TEMPAE_clean_linker_10, # of connection points: 2
#     Edge 15, Type (0, 1), BuildingBlock: TEMPAE_clean_linker_10, # of connection points: 2
#     Edge 16, Type (0, 1), BuildingBlock: TEMPAE_clean_linker_10, # of connection points: 2
#     Edge 17, Type (0, 1), BuildingBlock: TEMPAE_clean_linker_10, # of connection points: 2
#     Edge 18, Type (0, 1), BuildingBlock: TEMPAE_clean_linker_10, # of connection points: 2
#     Edge 19, Type (0, 1), BuildingBlock: TEMPAE_clean_linker_10, # of connection points: 2
#     Edge 20, Type (0, 1), BuildingBlock: TEMPAE_clean_linker_10, # of connection points: 2
#     Edge 21, Type (0, 1), BuildingBlock: TEMPAE_clean_linker_10, # of connection points: 2
#     Edge 22, Type (0, 1), BuildingBlock: TEMPAE_clean_linker_10, # of connection points: 2
#     Edge 23, Type (0, 1), BuildingBlock: TEMPAE_clean_linker_10, # of connection points: 2
#     Edge 24, Type (0, 1), BuildingBlock: TEMPAE_clean_linker_10, # of connection points: 2
#     Edge 25, Type (0, 1), BuildingBlock: TEMPAE_clean_linker_10, # of connection points: 2
#     Edge 26, Type (0, 1), BuildingBlock: TEMPAE_clean_linker_10, # of connection points: 2
#     Edge 27, Type (0, 1), BuildingBlock: TEMPAE_clean_linker_10, # of connection points: 2
#     Edge 28, Type (0, 1), BuildingBlock: TEMPAE_clean_linker_10, # of connection points: 2
#     Edge 29, Type (0, 1), BuildingBlock: TEMPAE_clean_linker_10, # of connection points: 2
#     Edge 30, Type (0, 1), BuildingBlock: TEMPAE_clean_linker_10, # of connection points: 2
#     Edge 31, Type (0, 1), BuildingBlock: TEMPAE_clean_linker_10, # of connection points: 2
#     Edge 32, Type (0, 1), BuildingBlock: TEMPAE_clean_linker_10, # of connection points: 2
#     Edge 33, Type (0, 1), BuildingBlock: TEMPAE_clean_linker_10, # of connection points: 2
#     Edge 34, Type (0, 1), BuildingBlock: TEMPAE_clean_linker_10, # of connection points: 2
#     Edge 35, Type (0, 1), BuildingBlock: TEMPAE_clean_linker_10, # of connection points: 2
# Relax obj value: 0.047
# Max RMSD: 0.092
# Mean RMSD: 0.032
data_MOF--net-pyr--node1-JUFBIX_clean_sbu_0--node2-KAKCAD_clean_linker_0--edge1-TEMPAE_clean_linker_10
_symmetry_space_group_name_H-M    P1
_symmetry_Int_Tables_number       1
_symmetry_cell_setting            triclinic
loop_
_symmetry_equiv_pos_as_xyz
'x, y, z'
_cell_length_a     46.573151
_cell_length_b     44.240059
_cell_length_c     46.278413
_cell_angle_alpha  85.550519
_cell_angle_beta   90.002435
_cell_angle_gamma 91.581957
loop_
_atom_site_label
_atom_site_type_symbol
_atom_site_fract_x
_atom_site_fract_y
_atom_site_fract_z
_atom_type_partial_charge
C0 C 0.12031 0.11103 0.25103 0.0
C1 C 0.13619 0.10731 0.27687 0.0
C2 C 0.13311 0.12425 0.22545 0.0
C3 C 0.16228 0.13345 0.2249 0.0
C4 C 0.17833 0.12913 0.25058 0.0
C5 C 0.16536 0.11654 0.27632 0.0
C6 C 0.17567 0.14854 0.19795 0.0
C7 C 0.16238 0.17336 0.1831 0.0
C8 C 0.17544 0.18892 0.15871 0.0
C9 C 0.20178 0.17895 0.14861 0.0
C10 C 0.21505 0.15323 0.1622 0.0
C11 C 0.20187 0.13856 0.18726 0.0
C12 C 0.24222 0.14151 0.1499 0.0
C13 C 0.24726 0.14381 0.11972 0.0
C14 C 0.26325 0.1276 0.16797 0.0
C15 C 0.28826 0.11627 0.15627 0.0
C16 C 0.29325 0.11884 0.12617 0.0
C17 C 0.16162 0.21586 0.14394 0.0
C18 C 0.13511 0.21285 0.12989 0.0
C19 C 0.1747 0.2448 0.14409 0.0
C20 C 0.16132 0.27033 0.13087 0.0
C21 C 0.13475 0.26757 0.11644 0.0
C22 C 0.12203 0.23824 0.11602 0.0
C23 C 0.27242 0.13286 0.1081 0.0
H24 H 0.09778 0.1043 0.25077 0.0
H25 H 0.12019 0.12721 0.20602 0.0
H26 H 0.20078 0.13617 0.25091 0.0
H27 H 0.17819 0.11385 0.29583 0.0
H28 H 0.14226 0.18128 0.1911 0.0
H29 H 0.21144 0.11874 0.19811 0.0
H30 H 0.2118 0.19133 0.12998 0.0
H31 H 0.23151 0.15361 0.10484 0.0
H32 H 0.26065 0.12575 0.19128 0.0
H33 H 0.30397 0.1059 0.17087 0.0
H34 H 0.12468 0.19071 0.12931 0.0
H35 H 0.19505 0.24775 0.15501 0.0
H36 H 0.27531 0.13485 0.0848 0.0
H37 H 0.10204 0.23464 0.10472 0.0
H38 H 0.17173 0.2923 0.13249 0.0
C39 C 0.43204 0.92963 0.70847 0.0
C40 C 0.4614 0.93257 0.71462 0.0
C41 C 0.42296 0.92158 0.68141 0.0
C42 C 0.44307 0.91596 0.66 0.0
C43 C 0.47255 0.91908 0.66601 0.0
C44 C 0.48167 0.92773 0.69312 0.0
C45 C 0.43266 0.90498 0.63239 0.0
C46 C 0.4098 0.91944 0.61781 0.0
C47 C 0.39489 0.90567 0.59567 0.0
C48 C 0.40412 0.87761 0.58741 0.0
C49 C 0.42777 0.8636 0.60098 0.0
C50 C 0.44219 0.87749 0.62324 0.0
C51 C 0.43521 0.83275 0.5943 0.0
C52 C 0.41496 0.80881 0.59917 0.0
C53 C 0.46257 0.82693 0.58372 0.0
C54 C 0.46945 0.7975 0.57769 0.0
C55 C 0.44927 0.77353 0.58289 0.0
C56 C 0.36803 0.91895 0.58348 0.0
C57 C 0.34917 0.93331 0.60148 0.0
C58 C 0.36015 0.91605 0.55441 0.0
C59 C 0.33377 0.92655 0.5439 0.0
C60 C 0.31507 0.94066 0.56211 0.0
C61 C 0.32317 0.94426 0.59084 0.0
C62 C 0.42205 0.77933 0.59377 0.0
H63 H 0.41607 0.93342 0.72475 0.0
H64 H 0.40012 0.91888 0.67751 0.0
H65 H 0.48841 0.91474 0.64984 0.0
H66 H 0.50444 0.92989 0.69755 0.0
H67 H 0.40296 0.94097 0.6247 0.0
H68 H 0.45931 0.86573 0.63489 0.0
H69 H 0.39229 0.86591 0.57126 0.0
H70 H 0.39381 0.81289 0.60755 0.0
H71 H 0.47846 0.84516 0.57993 0.0
H72 H 0.4906 0.79335 0.56935 0.0
H73 H 0.35392 0.93522 0.62418 0.0
H74 H 0.37424 0.90545 0.53982 0.0
H75 H 0.40621 0.76109 0.59782 0.0
H76 H 0.30883 0.95452 0.60546 0.0
H77 H 0.32789 0.92356 0.52163 0.0
C78 C 0.77512 0.41869 0.87864 0.0
C79 C 0.79308 0.39859 0.89474 0.0
C80 C 0.74953 0.40825 0.8665 0.0
C81 C 0.74136 0.3773 0.86965 0.0
C82 C 0.75959 0.35714 0.8853 0.0
C83 C 0.78487 0.36766 0.89789 0.0
C84 C 0.71389 0.36608 0.85697 0.0
C85 C 0.70345 0.37933 0.83049 0.0
C86 C 0.67753 0.3689 0.81858 0.0
C87 C 0.66232 0.34442 0.83322 0.0
C88 C 0.67249 0.33052 0.85942 0.0
C89 C 0.69798 0.34186 0.87133 0.0
C90 C 0.65689 0.30367 0.87396 0.0
C91 C 0.62668 0.30208 0.87488 0.0
C92 C 0.67218 0.27897 0.88639 0.0
C93 C 0.65768 0.25325 0.89915 0.0
C94 C 0.62748 0.25145 0.89968 0.0
C95 C 0.66619 0.38353 0.79093 0.0
C96 C 0.66799 0.41521 0.7851 0.0
C97 C 0.65268 0.36599 0.7705 0.0
C98 C 0.64065 0.37976 0.74531 0.0
C99 C 0.64206 0.41148 0.73965 0.0
C100 C 0.65615 0.429 0.75975 0.0
C101 C 0.61216 0.27627 0.88754 0.0
H102 H 0.78082 0.44259 0.87522 0.0
H103 H 0.73601 0.42462 0.85495 0.0
H104 H 0.75448 0.33306 0.88781 0.0
H105 H 0.79777 0.35144 0.91044 0.0
H106 H 0.71583 0.39734 0.8187 0.0
H107 H 0.70516 0.33203 0.89215 0.0
H108 H 0.64251 0.33602 0.82412 0.0
H109 H 0.6142 0.32082 0.86583 0.0
H110 H 0.69543 0.27923 0.88582 0.0
H111 H 0.67019 0.23477 0.90867 0.0
H112 H 0.67802 0.42949 0.80041 0.0
H113 H 0.65128 0.3415 0.77397 0.0
H114 H 0.5889 0.27559 0.88736 0.0
H115 H 0.65802 0.45344 0.75596 0.0
H116 H 0.62972 0.3655 0.73056 0.0
C117 C 0.93324 0.60348 0.31458 0.0
C118 C 0.96164 0.5985 0.30644 0.0
C119 C 0.92674 0.6089 0.34305 0.0
C120 C 0.94851 0.60966 0.36399 0.0
C121 C 0.97706 0.60532 0.35584 0.0
C122 C 0.98355 0.59948 0.32729 0.0
C123 C 0.94092 0.6153 0.39409 0.0
C124 C 0.91758 0.59936 0.40765 0.0
C125 C 0.90641 0.60789 0.4339 0.0
C126 C 0.92022 0.63167 0.44745 0.0
C127 C 0.9442 0.64743 0.4345 0.0
C128 C 0.95452 0.63889 0.40784 0.0
C129 C 0.9564 0.675 0.44689 0.0
C130 C 0.93807 0.69617 0.45775 0.0
C131 C 0.98615 0.68149 0.44605 0.0
C132 C 0.99718 0.70896 0.455 0.0
C133 C 0.9787 0.73042 0.4651 0.0
C134 C 0.87859 0.59427 0.44517 0.0
C135 C 0.85673 0.58706 0.42564 0.0
C136 C 0.87291 0.58985 0.47512 0.0
C137 C 0.84583 0.57914 0.48516 0.0
C138 C 0.82415 0.5722 0.46544 0.0
C139 C 0.83 0.57594 0.43565 0.0
C140 C 0.94909 0.7235 0.4668 0.0
H141 H 0.91589 0.6025 0.29905 0.0
H142 H 0.9046 0.61261 0.3487 0.0
H143 H 0.99419 0.60591 0.37164 0.0
H144 H 1.00563 0.59575 0.32147 0.0
H145 H 0.90749 0.58084 0.39703 0.0
H146 H 0.97186 0.65192 0.39677 0.0
H147 H 0.91157 0.63885 0.46745 0.0
H148 H 0.91501 0.69226 0.45813 0.0
H149 H 1.00086 0.6655 0.43807 0.0
H150 H 0.02013 0.71358 0.45371 0.0
H151 H 0.85979 0.591 0.40245 0.0
H152 H 0.88927 0.59487 0.4908 0.0
H153 H 0.93423 0.73979 0.47398 0.0
H154 H 0.81345 0.57144 0.41996 0.0
H155 H 0.84176 0.57647 0.50827 0.0
C156 C 0.87446 0.8695 0.74665 0.0
C157 C 0.88257 0.90052 0.74287 0.0
C158 C 0.86241 0.85693 0.7728 0.0
C159 C 0.85752 0.87503 0.79588 0.0
C160 C 0.86488 0.90611 0.79207 0.0
C161 C 0.87745 0.91863 0.76607 0.0
C162 C 0.8455 0.8612 0.82401 0.0
C163 C 0.85741 0.8347 0.83731 0.0
C164 C 0.84655 0.82109 0.86376 0.0
C165 C 0.82278 0.83405 0.87653 0.0
C166 C 0.81025 0.86044 0.86355 0.0
C167 C 0.82215 0.87412 0.83752 0.0
C168 C 0.78439 0.87324 0.87695 0.0
C169 C 0.76107 0.8542 0.8866 0.0
C170 C 0.7827 0.90449 0.88021 0.0
C171 C 0.75854 0.91631 0.8931 0.0
C172 C 0.73504 0.8973 0.90272 0.0
C173 C 0.86031 0.7936 0.8781 0.0
C174 C 0.86903 0.7699 0.86174 0.0
C175 C 0.8655 0.7911 0.90815 0.0
C176 C 0.87937 0.76586 0.92138 0.0
C177 C 0.88819 0.74223 0.90499 0.0
C178 C 0.88265 0.74455 0.87501 0.0
C179 C 0.73673 0.86603 0.89905 0.0
H180 H 0.87719 0.85475 0.72931 0.0
H181 H 0.85665 0.83297 0.77489 0.0
H182 H 0.86163 0.92062 0.80952 0.0
H183 H 0.88371 0.94244 0.7645 0.0
H184 H 0.87582 0.82515 0.82738 0.0
H185 H 0.81259 0.89424 0.82719 0.0
H186 H 0.81396 0.82354 0.89665 0.0
H187 H 0.76143 0.83008 0.88404 0.0
H188 H 0.80037 0.91979 0.87329 0.0
H189 H 0.75858 0.94037 0.8959 0.0
H190 H 0.8652 0.77087 0.83861 0.0
H191 H 0.85934 0.80898 0.92142 0.0
H192 H 0.71905 0.85055 0.9054 0.0
H193 H 0.8893 0.72696 0.86163 0.0
H194 H 0.88302 0.76476 0.94455 0.0
C195 C 0.55691 0.05868 0.34602 0.0
C196 C 0.55033 0.07694 0.32078 0.0
C197 C 0.5653 0.07189 0.3713 0.0
C198 C 0.56716 0.10361 0.37186 0.0
C199 C 0.55896 0.12178 0.34715 0.0
C200 C 0.55069 0.10862 0.32191 0.0
C201 C 0.58062 0.1179 0.39669 0.0
C202 C 0.60644 0.10676 0.40834 0.0
C203 C 0.62195 0.12264 0.42859 0.0
C204 C 0.61115 0.14971 0.43751 0.0
C205 C 0.5852 0.16116 0.42637 0.0
C206 C 0.56983 0.14474 0.40629 0.0
C207 C 0.57573 0.1915 0.43383 0.0
C208 C 0.58109 0.20155 0.46148 0.0
C209 C 0.56311 0.21155 0.41274 0.0
C210 C 0.5567 0.24102 0.4189 0.0
C211 C 0.56332 0.25151 0.44612 0.0
C212 C 0.65075 0.11252 0.4382 0.0
C213 C 0.65571 0.08168 0.44553 0.0
C214 C 0.67386 0.13359 0.43875 0.0
C215 C 0.70143 0.12398 0.44579 0.0
C216 C 0.70654 0.09308 0.45238 0.0
C217 C 0.68334 0.07205 0.45262 0.0
C218 C 0.57532 0.23123 0.46742 0.0
H219 H 0.55641 0.03419 0.34599 0.0
H220 H 0.57117 0.05732 0.39014 0.0
H221 H 0.56057 0.14629 0.34671 0.0
H222 H 0.54622 0.12341 0.30278 0.0
H223 H 0.61553 0.0868 0.40014 0.0
H224 H 0.54973 0.15313 0.39755 0.0
H225 H 0.62366 0.16241 0.45241 0.0
H226 H 0.59027 0.18665 0.4785 0.0
H227 H 0.55895 0.20491 0.39107 0.0
H228 H 0.54683 0.25565 0.40212 0.0
H229 H 0.63827 0.06497 0.44547 0.0
H230 H 0.67084 0.15746 0.43285 0.0
H231 H 0.58103 0.23841 0.48856 0.0
H232 H 0.68669 0.04805 0.45738 0.0
H233 H 0.71885 0.14072 0.44571 0.0
C234 C 0.23571 0.6175 0.16129 0.0
C235 C 0.2316 0.6212 0.13117 0.0
C236 C 0.26114 0.628 0.17374 0.0
C237 C 0.28323 0.64206 0.15629 0.0
C238 C 0.279 0.64556 0.12608 0.0
C239 C 0.25344 0.63546 0.11373 0.0
C240 C 0.31073 0.65268 0.1693 0.0
C241 C 0.32292 0.63625 0.19332 0.0
C242 C 0.34934 0.64556 0.20481 0.0
C243 C 0.3639 0.67133 0.19184 0.0
C244 C 0.35194 0.6886 0.16826 0.0
C245 C 0.32518 0.67917 0.15741 0.0
C246 C 0.36733 0.71643 0.1551 0.0
C247 C 0.38406 0.73503 0.17236 0.0
C248 C 0.36562 0.72462 0.12511 0.0
C249 C 0.38003 0.75067 0.11284 0.0
C250 C 0.39694 0.76872 0.13015 0.0
C251 C 0.36158 0.62895 0.23088 0.0
C252 C 0.3446 0.62215 0.25576 0.0
C253 C 0.39068 0.62134 0.23165 0.0
C254 C 0.40271 0.60775 0.25695 0.0
C255 C 0.38596 0.60185 0.28213 0.0
C256 C 0.35672 0.60892 0.2812 0.0
C257 C 0.39896 0.76068 0.15994 0.0
H258 H 0.21909 0.60681 0.17527 0.0
H259 H 0.26331 0.62532 0.19708 0.0
H260 H 0.29566 0.65563 0.11181 0.0
H261 H 0.251 0.63823 0.0904 0.0
H262 H 0.31229 0.61571 0.20273 0.0
H263 H 0.31523 0.69284 0.13996 0.0
H264 H 0.38454 0.67802 0.20043 0.0
H265 H 0.38547 0.73005 0.19558 0.0
H266 H 0.35349 0.7107 0.11093 0.0
H267 H 0.37835 0.75648 0.08973 0.0
H268 H 0.32216 0.62796 0.25583 0.0
H269 H 0.40422 0.62617 0.21272 0.0
H270 H 0.41174 0.77453 0.17368 0.0
H271 H 0.34328 0.60442 0.30023 0.0
H272 H 0.42534 0.6027 0.25709 0.0
C273 C 0.06636 0.28156 0.55513 0.0
C274 C 0.03735 0.27505 0.56198 0.0
C275 C 0.08064 0.30647 0.56575 0.0
C276 C 0.06626 0.32564 0.58343 0.0
C277 C 0.03689 0.31987 0.58934 0.0
C278 C 0.02259 0.29476 0.57879 0.0
C279 C 0.08272 0.34973 0.59753 0.0
C280 C 0.10522 0.36614 0.5826 0.0
C281 C 0.12399 0.38533 0.59705 0.0
C282 C 0.11931 0.38864 0.62664 0.0
C283 C 0.09621 0.37356 0.64146 0.0
C284 C 0.07794 0.35422 0.62687 0.0
C285 C 0.09177 0.37766 0.67249 0.0
C286 C 0.11419 0.37255 0.69236 0.0
C287 C 0.06566 0.38837 0.68207 0.0
C288 C 0.06249 0.39529 0.71083 0.0
C289 C 0.08523 0.39111 0.7307 0.0
C290 C 0.14963 0.40021 0.58209 0.0
C291 C 0.16491 0.38527 0.56145 0.0
C292 C 0.16032 0.4285 0.58987 0.0
C293 C 0.1866 0.4404 0.57903 0.0
C294 C 0.20262 0.42469 0.55953 0.0
C295 C 0.19086 0.39753 0.55007 0.0
C296 C 0.11087 0.37891 0.72123 0.0
H297 H 0.07852 0.26651 0.54274 0.0
H298 H 0.10337 0.30977 0.56122 0.0
H299 H 0.02509 0.33442 0.60259 0.0
H300 H 1.00015 0.29043 0.58421 0.0
H301 H 0.10833 0.36354 0.55975 0.0
H302 H 0.06099 0.34152 0.63888 0.0
H303 H 0.13388 0.40262 0.6385 0.0
H304 H 0.13442 0.36393 0.68543 0.0
H305 H 0.04815 0.39262 0.66702 0.0
H306 H 0.04259 0.40507 0.7171 0.0
H307 H 0.1576 0.36338 0.55494 0.0
H308 H 0.14884 0.44116 0.60507 0.0
H309 H 0.1286 0.37471 0.736 0.0
H310 H 0.20213 0.38512 0.53452 0.0
H311 H 0.19486 0.46124 0.58708 0.0
Co312 Co 0.98735 0.00685 0.4977 0.0
C313 C 0.01147 0.94991 0.49644 0.0
Co314 Co 0.02865 1.00224 0.52033 0.0
C315 C 0.92809 0.02028 0.48618 0.0
C316 C 0.94811 0.99998 0.4511 0.0
N317 N 0.95321 0.00935 0.4777 0.0
N318 N 0.90743 0.01804 0.46593 0.0
C319 C 0.92001 1.00529 0.4438 0.0
H320 H 0.925 0.02933 0.50699 0.0
H321 H 0.96386 0.98995 0.43787 0.0
C322 C 1.00454 0.05913 0.52175 0.0
N323 N 0.0629 0.99962 0.54015 0.0
C324 C 0.08821 0.98998 0.53071 0.0
C325 C 0.06799 0.00714 0.56741 0.0
N326 N 0.10885 0.99106 0.55106 0.0
C327 C 0.09622 1.00177 0.57422 0.0
C328 C 0.03504 0.0233 0.46224 0.0
O329 O 0.98412 0.04742 0.5078 0.0
O330 O 0.02601 0.04318 0.52907 0.0
O331 O 0.04893 0.0153 0.4851 0.0
O332 O 1.00773 0.02159 0.46305 0.0
O333 O 0.03117 0.96122 0.51158 0.0
H334 H 0.05221 0.01611 0.58137 0.0
H335 H 0.09134 0.982 0.50944 0.0
O336 O 0.99074 0.96632 0.48778 0.0
O337 O 0.96709 0.99216 0.53251 0.0
O338 O 1.00816 0.98923 0.55537 0.0
C339 C 0.98094 0.98595 0.55583 0.0
H340 H 0.90981 1.0006 0.42356 0.0
H341 H 0.10678 0.00593 0.59443 0.0
Co342 Co 0.50279 1.00482 0.99636 0.0
C343 C 0.49667 0.95774 0.03932 0.0
Co344 Co 0.52731 0.01239 0.03592 0.0
C345 C 0.4923 0.99729 0.93611 0.0
C346 C 0.45365 0.99209 0.96127 0.0
N347 N 0.48208 0.99821 0.9633 0.0
N348 N 0.47142 0.99077 0.91722 0.0
C349 C 0.44702 0.98761 0.93292 0.0
H350 H 0.51468 1.00114 0.93027 0.0
H351 H 0.4388 0.9903 0.97933 0.0
C352 C 0.53334 0.05958 0.99295 0.0
N353 N 0.5481 0.01912 0.06884 0.0
C354 C 0.53848 0.01819 0.0964 0.0
C355 C 0.57595 0.02805 0.07017 0.0
N356 N 0.55913 0.02654 0.11486 0.0
C357 C 0.58278 0.03267 0.09843 0.0
C358 C 0.55869 0.98324 0.99503 0.0
O359 O 0.5161 0.04319 0.97917 0.0
O360 O 0.541 0.05022 0.01836 0.0
O361 O 0.55977 0.99291 0.02022 0.0
O362 O 0.53546 0.98597 0.98076 0.0
O363 O 0.51329 0.97447 0.05342 0.0
H364 H 0.59017 0.0317 0.05167 0.0
H365 H 0.51643 0.01268 0.10259 0.0
O366 O 0.48967 0.96656 0.01356 0.0
O367 O 0.4702 0.02363 0.01239 0.0
O368 O 0.49485 0.03193 0.05133 0.0
C369 C 0.47142 0.03397 0.03727 0.0
H370 H 0.42609 0.98138 0.9247 0.0
H371 H 0.60346 0.0403 0.1062 0.0
Co372 Co 0.5322 0.52433 0.50584 0.0
C373 C 0.48569 0.52902 0.46756 0.0
Co374 Co 0.49155 0.50377 0.5235 0.0
C375 C 0.59265 0.53422 0.49403 0.0
C376 C 0.56726 0.57022 0.47518 0.0
N377 N 0.5653 0.54311 0.49058 0.0
N378 N 0.61168 0.55483 0.48153 0.0
C379 C 0.59569 0.57748 0.46959 0.0
H380 H 0.5984 0.51315 0.50576 0.0
H381 H 0.5492 0.5842 0.46913 0.0
C382 C 0.53835 0.49894 0.56159 0.0
N383 N 0.45841 0.48505 0.53914 0.0
C384 C 0.43076 0.49168 0.53336 0.0
C385 C 0.45703 0.46104 0.55901 0.0
N386 N 0.41235 0.47294 0.54906 0.0
C387 C 0.42876 0.45369 0.56528 0.0
C388 C 0.52509 0.46441 0.49508 0.0
O389 O 0.55189 0.51312 0.54072 0.0
O390 O 0.5117 0.49297 0.55869 0.0
O391 O 0.50178 0.46695 0.5088 0.0
O392 O 0.54232 0.48714 0.49107 0.0
O393 O 0.47208 0.51461 0.48832 0.0
H394 H 0.47539 0.44928 0.56811 0.0
H395 H 0.42421 0.50992 0.51803 0.0
O396 O 0.5122 0.53555 0.47074 0.0
O397 O 0.52196 0.56113 0.52093 0.0
O398 O 0.4812 0.54092 0.53789 0.0
C399 C 0.49839 0.5637 0.53419 0.0
H400 H 0.60392 0.59834 0.45846 0.0
H401 H 0.42081 0.43512 0.58 0.0
Co402 Co 0.02678 0.5071 0.99102 0.0
C403 C 0.97264 0.47943 0.98888 0.0
Co404 Co 1.00248 0.50752 0.03169 0.0
C405 C 0.04844 0.48524 0.93858 0.0
C406 C 0.06043 0.53181 0.94261 0.0
N407 N 0.04656 0.50775 0.95649 0.0
N408 N 0.06259 0.49444 0.91391 0.0
C409 C 0.07019 0.52373 0.91632 0.0
H410 H 0.03851 0.46294 0.94299 0.0
H411 H 0.06259 0.55403 0.95076 0.0
C412 C 0.05666 0.53533 0.03368 0.0
N413 N 0.98288 0.50682 0.0664 0.0
C414 C 0.98423 0.52776 0.08606 0.0
C415 C 0.96696 0.48359 0.07912 0.0
N416 N 0.9702 0.51838 0.1108 0.0
C417 C 0.95911 0.49063 0.10639 0.0
C418 C 0.03728 0.45695 0.02908 0.0
O419 O 0.05851 0.52722 1.00802 0.0
O420 O 0.03351 0.52958 0.04776 0.0
O421 O 0.02025 0.47044 0.04493 0.0
O422 O 0.04279 0.46859 1.00359 0.0
O423 O 0.9716 0.48543 0.01527 0.0
H424 H 0.96252 0.46232 0.06973 0.0
H425 H 0.99601 0.54915 0.08254 0.0
O426 O 0.99502 0.48708 0.97411 0.0
O427 O 1.01048 0.54548 0.97871 0.0
O428 O 0.98478 0.54472 0.01839 0.0
C429 C 0.9918 0.5577 0.99379 0.0
H430 H 0.08161 0.53833 0.90005 0.0
H431 H 0.94749 0.47575 0.12226 0.0
C432 C 0.10633 0.06685 0.30515 0.0
C433 C 0.12222 0.09432 0.30435 0.0
C434 C 0.09289 0.05447 0.33088 0.0
C435 C 0.09468 0.0703 0.35637 0.0
C436 C 0.11059 0.09816 0.35559 0.0
C437 C 0.12442 0.10961 0.32976 0.0
C438 C 0.07678 0.02441 0.33078 0.0
C439 C 0.11254 0.11622 0.38192 0.0
C440 C 0.03605 0.05308 0.41368 0.0
C441 C 0.05033 0.03504 0.43514 0.0
C442 C 0.05028 0.06494 0.38823 0.0
C443 C 0.07941 0.05805 0.38361 0.0
C444 C 0.09384 0.03951 0.40505 0.0
C445 C 0.07928 0.02858 0.43066 0.0
C446 C 0.03419 0.08518 0.36642 0.0
C447 C 0.12463 0.03098 0.40084 0.0
H448 H 0.10473 0.0548 0.28567 0.0
H449 H 0.13645 0.13098 0.32923 0.0
H450 H 0.08521 0.00823 0.34806 0.0
H451 H 0.05374 0.02737 0.33556 0.0
H452 H 0.07851 0.01425 0.30966 0.0
H453 H 0.12555 0.13754 0.37778 0.0
H454 H 0.09068 0.12202 0.38882 0.0
H455 H 0.12225 0.10245 0.40025 0.0
H456 H 0.01377 0.05842 0.417 0.0
H457 H 0.09048 0.01456 0.44703 0.0
H458 H 0.03322 0.0749 0.34532 0.0
H459 H 0.04572 0.10743 0.36272 0.0
H460 H 0.01192 0.0891 0.37356 0.0
H461 H 0.12663 0.01931 0.38059 0.0
H462 H 0.13263 0.01586 0.41922 0.0
H463 H 0.13866 0.05168 0.39848 0.0
C464 C 0.46061 0.92149 0.76797 0.0
C465 C 0.47024 0.94007 0.74387 0.0
C466 C 0.46486 0.93026 0.7961 0.0
C467 C 0.47866 0.95854 0.80011 0.0
C468 C 0.48972 0.9767 0.77585 0.0
C469 C 0.4855 0.96711 0.74788 0.0
C470 C 0.45315 0.91 0.8214 0.0
C471 C 0.5044 0.00704 0.77929 0.0
C472 C 0.4528 0.99293 0.86744 0.0
C473 C 0.47474 0.98547 0.88717 0.0
C474 C 0.45457 0.98565 0.83858 0.0
C475 C 0.47873 0.97016 0.82936 0.0
C476 C 0.50147 0.96351 0.84893 0.0
C477 C 0.49925 0.9714 0.87762 0.0
C478 C 0.43003 0.9935 0.81826 0.0
C479 C 0.52742 0.94675 0.83999 0.0
H480 H 0.44894 0.90048 0.76469 0.0
H481 H 0.49276 0.98147 0.7291 0.0
H482 H 0.46977 0.90659 0.83843 0.0
H483 H 0.43476 0.92097 0.83119 0.0
H484 H 0.4457 0.88746 0.81484 0.0
H485 H 0.51475 0.01664 0.75885 0.0
H486 H 0.48835 0.02324 0.78596 0.0
H487 H 0.52091 1.00503 0.79656 0.0
H488 H 0.43406 1.0042 0.87474 0.0
H489 H 0.51613 0.96536 0.89293 0.0
H490 H 0.4189 0.97237 0.8123 0.0
H491 H 0.43827 1.00566 0.79794 0.0
H492 H 0.41406 0.00785 0.82809 0.0
H493 H 0.52094 0.92306 0.83622 0.0
H494 H 0.54452 0.94622 0.85676 0.0
H495 H 0.53645 0.95739 0.81935 0.0
C496 C 0.61358 0.4533 0.71454 0.0
C497 C 0.62827 0.42613 0.71323 0.0
C498 C 0.59955 0.4667 0.69011 0.0
C499 C 0.59986 0.45243 0.66377 0.0
C500 C 0.61489 0.42523 0.66217 0.0
C501 C 0.62905 0.41254 0.68681 0.0
C502 C 0.58395 0.49586 0.69262 0.0
C503 C 0.61564 0.40924 0.63451 0.0
C504 C 0.53991 0.4684 0.60942 0.0
C505 C 0.55368 0.48829 0.5884 0.0
C506 C 0.55464 0.45675 0.63412 0.0
C507 C 0.58378 0.46544 0.6381 0.0
C508 C 0.59766 0.48597 0.61726 0.0
C509 C 0.58249 0.49704 0.59259 0.0
C510 C 0.53916 0.43467 0.6557 0.0
C511 C 0.62862 0.49602 0.62085 0.0
H512 H 0.61245 0.46381 0.73487 0.0
H513 H 0.64075 0.39188 0.68536 0.0
H514 H 0.59162 0.5133 0.67563 0.0
H515 H 0.56062 0.492 0.68906 0.0
H516 H 0.587 0.50493 0.71416 0.0
H517 H 0.62853 0.38844 0.63674 0.0
H518 H 0.59346 0.40284 0.62811 0.0
H519 H 0.62481 0.4247 0.61664 0.0
H520 H 0.5177 0.46142 0.60631 0.0
H521 H 0.5933 0.51244 0.57649 0.0
H522 H 0.53974 0.44337 0.67754 0.0
H523 H 0.55017 0.41268 0.65728 0.0
H524 H 0.51638 0.43055 0.64964 0.0
H525 H 0.63143 0.5063 0.64182 0.0
H526 H 0.63603 0.51276 0.6031 0.0
H527 H 0.64263 0.47611 0.62132 0.0
C528 C 0.95567 0.60773 0.25289 0.0
C529 C 0.96772 0.59086 0.27652 0.0
C530 C 0.95789 0.59839 0.22474 0.0
C531 C 0.97229 0.5714 0.22025 0.0
C532 C 0.98569 0.55507 0.24385 0.0
C533 C 0.98334 0.5651 0.27175 0.0
C534 C 0.94374 0.61666 0.20004 0.0
C535 C 1.00117 0.52613 0.23989 0.0
C536 C 0.94791 0.52649 0.15779 0.0
C537 C 0.97001 0.53308 0.13753 0.0
C538 C 0.94832 0.53904 0.18468 0.0
C539 C 0.9713 0.55889 0.19141 0.0
C540 C 0.99334 0.56627 0.17084 0.0
C541 C 0.99252 0.55315 0.14419 0.0
C542 C 0.92435 0.53069 0.20606 0.0
C543 C 0.01811 0.58747 0.17722 0.0
H544 H 0.94387 0.62788 0.25656 0.0
H545 H 0.99248 0.55192 0.29005 0.0
H546 H 0.95903 0.62136 0.18175 0.0
H547 H 0.92527 0.60344 0.1919 0.0
H548 H 0.93583 0.63856 0.20667 0.0
H549 H 0.01238 0.5175 0.25993 0.0
H550 H 0.9855 0.50842 0.2337 0.0
H551 H 0.01713 0.52976 0.22209 0.0
H552 H 0.93026 0.51141 0.15264 0.0
H553 H 1.00995 0.55805 0.12893 0.0
H554 H 0.91358 0.55144 0.21189 0.0
H555 H 0.93328 0.51961 0.22631 0.0
H556 H 0.90796 0.51509 0.19738 0.0
H557 H 1.01 0.60891 0.18465 0.0
H558 H 0.03212 0.59297 0.158 0.0
H559 H 0.03133 0.57691 0.195 0.0
C560 C 0.3356 0.12413 0.09191 0.0
C561 C 0.31993 0.10684 0.11358 0.0
C562 C 0.36056 0.11305 0.07964 0.0
C563 C 0.37003 0.08366 0.08885 0.0
C564 C 0.35427 0.06607 0.11069 0.0
C565 C 0.32964 0.07792 0.12291 0.0
C566 C 0.37686 0.13285 0.05683 0.0
C567 C 0.36321 0.03448 0.12089 0.0
C568 C 0.41838 0.04386 0.03758 0.0
C569 C 0.44564 0.04732 0.05011 0.0
C570 C 0.3937 0.05538 0.05 0.0
C571 C 0.3962 0.07123 0.07542 0.0
C572 C 0.42371 0.0751 0.08797 0.0
C573 C 0.44798 0.06294 0.07534 0.0
C574 C 0.36485 0.05028 0.03606 0.0
C575 C 0.42755 0.09215 0.11478 0.0
H576 H 0.3285 0.14661 0.08476 0.0
H577 H 0.31756 0.06424 0.1394 0.0
H578 H 0.39946 0.13618 0.06375 0.0
H579 H 0.37732 0.12157 0.03626 0.0
H580 H 0.36718 0.15543 0.05255 0.0
H581 H 0.34869 0.02365 0.13795 0.0
H582 H 0.36333 0.02003 0.10234 0.0
H583 H 0.38539 0.0352 0.12961 0.0
H584 H 0.4162 0.03168 0.01823 0.0
H585 H 0.46888 0.06582 0.08523 0.0
H586 H 0.3551 0.07238 0.02961 0.0
H587 H 0.35005 0.0378 0.05187 0.0
H588 H 0.36641 0.03722 0.01659 0.0
H589 H 0.41936 0.11542 0.11079 0.0
H590 H 0.45038 0.09378 0.12158 0.0
H591 H 0.41484 0.08071 0.13294 0.0
C592 C 0.27668 0.97879 0.55705 0.0
C593 C 0.28622 0.94986 0.55225 0.0
C594 C 0.24788 0.98618 0.55261 0.0
C595 C 0.22816 0.96388 0.54361 0.0
C596 C 0.23806 0.93521 0.53704 0.0
C597 C 0.26712 0.92859 0.5413 0.0
C598 C 0.23824 0.01718 0.55936 0.0
C599 C 0.21764 0.91079 0.5276 0.0
C600 C 0.15277 0.96987 0.57275 0.0
C601 C 0.13835 0.98292 0.54856 0.0
C602 C 0.18181 0.9628 0.57111 0.0
C603 C 0.19688 0.96932 0.54468 0.0
C604 C 0.18233 0.98207 0.52 0.0
C605 C 0.15311 0.98856 0.5222 0.0
C606 C 0.19647 0.94878 0.59782 0.0
C607 C 0.1978 0.98965 0.49159 0.0
H608 H 0.2916 0.99529 0.56531 0.0
H609 H 0.27451 0.90613 0.5378 0.0
H610 H 0.22449 0.02709 0.5417 0.0
H611 H 0.22519 0.01512 0.57951 0.0
H612 H 0.25669 0.03306 0.56245 0.0
H613 H 0.22918 0.89134 0.51977 0.0
H614 H 0.20382 0.90228 0.54617 0.0
H615 H 0.20331 0.92003 0.51013 0.0
H616 H 0.14123 0.96509 0.59298 0.0
H617 H 0.14199 0.99891 0.50356 0.0
H618 H 0.21375 0.9644 0.60472 0.0
H619 H 0.20668 0.92739 0.5929 0.0
H620 H 0.18132 0.94376 0.61621 0.0
H621 H 0.21455 0.00751 0.4943 0.0
H622 H 0.183 0.99781 0.47402 0.0
H623 H 0.20884 0.96945 0.48479 0.0
C624 C 0.8445 0.39182 0.91055 0.0
C625 C 0.82006 0.40982 0.90838 0.0
C626 C 0.86975 0.4018 0.92393 0.0
C627 C 0.87097 0.43083 0.9348 0.0
C628 C 0.84663 0.44933 0.93235 0.0
C629 C 0.82143 0.43848 0.91954 0.0
C630 C 0.8951 0.38121 0.92651 0.0
C631 C 0.84722 0.48065 0.94325 0.0
C632 C 0.926 0.44976 0.99193 0.0
C633 C 0.94745 0.46541 0.97504 0.0
C634 C 0.90134 0.43768 0.97905 0.0
C635 C 0.89774 0.44199 0.94862 0.0
C636 C 0.91943 0.45762 0.93146 0.0
C637 C 0.94416 0.46884 0.94484 0.0
C638 C 0.87903 0.42054 0.99802 0.0
C639 C 0.91616 0.46324 0.89903 0.0
H640 H 0.84408 0.36992 0.90157 0.0
H641 H 0.80265 0.45243 0.9186 0.0
H642 H 0.91375 0.39207 0.91448 0.0
H643 H 0.90158 0.37744 0.94955 0.0
H644 H 0.89035 0.35885 0.91793 0.0
H645 H 0.82684 0.49262 0.93879 0.0
H646 H 0.85108 0.47908 0.96696 0.0
H647 H 0.86515 0.49453 0.93288 0.0
H648 H 0.92851 0.44692 0.01527 0.0
H649 H 0.96055 0.48113 0.93168 0.0
H650 H 0.87475 0.39776 0.99021 0.0
H651 H 0.85851 0.43272 0.99676 0.0
H652 H 0.88578 0.41774 0.02108 0.0
H653 H 0.91293 0.44143 0.88903 0.0
H654 H 0.93514 0.47548 0.88875 0.0
H655 H 0.89685 0.47683 0.89407 0.0
C656 C 0.77991 0.58181 0.49331 0.0
C657 C 0.79463 0.56348 0.47525 0.0
C658 C 0.75023 0.57765 0.49789 0.0
C659 C 0.73513 0.55444 0.48426 0.0
C660 C 0.75036 0.53435 0.46795 0.0
C661 C 0.77995 0.53923 0.46349 0.0
C662 C 0.73474 0.59961 0.51536 0.0
C663 C 0.73513 0.50904 0.45346 0.0
C664 C 0.6569 0.53696 0.50432 0.0
C665 C 0.64261 0.55384 0.48201 0.0
C666 C 0.68704 0.53669 0.50534 0.0
C667 C 0.70322 0.55385 0.48367 0.0
C668 C 0.68895 0.57075 0.46103 0.0
C669 C 0.65888 0.5704 0.46042 0.0
C670 C 0.70156 0.51825 0.52968 0.0
C671 C 0.70544 0.58938 0.43746 0.0
H672 H 0.79122 0.60069 0.50225 0.0
H673 H 0.79144 0.52487 0.44975 0.0
H674 H 0.72203 0.61498 0.50056 0.0
H675 H 0.71951 0.58734 0.53084 0.0
H676 H 0.74986 0.61365 0.52763 0.0
H677 H 0.75042 0.49288 0.44521 0.0
H678 H 0.71997 0.49635 0.46874 0.0
H679 H 0.72237 0.51877 0.43491 0.0
H680 H 0.64458 0.5244 0.52132 0.0
H681 H 0.6481 0.58304 0.44284 0.0
H682 H 0.71508 0.53334 0.54246 0.0
H683 H 0.71602 0.50178 0.52068 0.0
H684 H 0.68588 0.50562 0.54451 0.0
H685 H 0.71973 0.60631 0.44719 0.0
H686 H 0.69106 0.60156 0.42163 0.0
H687 H 0.71928 0.57451 0.42559 0.0
C688 C 0.09019 0.29617 0.10037 0.0
C689 C 0.12034 0.29503 0.10221 0.0
C690 C 0.07646 0.32171 0.08724 0.0
C691 C 0.09304 0.34743 0.07636 0.0
C692 C 0.12338 0.34664 0.07822 0.0
C693 C 0.1366 0.32044 0.09062 0.0
C694 C 0.0441 0.32123 0.08525 0.0
C695 C 0.14195 0.37372 0.0675 0.0
C696 C 0.06047 0.40711 0.02249 0.0
C697 C 0.05133 0.42876 0.04085 0.0
C698 C 0.07361 0.38034 0.03373 0.0
C699 C 0.07862 0.3755 0.06397 0.0
C700 C 0.06983 0.3976 0.08248 0.0
C701 C 0.05594 0.42363 0.07079 0.0
C702 C 0.08182 0.35705 0.01327 0.0
C703 C 0.07543 0.39397 0.11469 0.0
H704 H 0.07706 0.27728 0.1096 0.0
H705 H 0.15982 0.31998 0.09108 0.0
H706 H 0.03531 0.33845 0.09876 0.0
H707 H 0.03734 0.3272 0.06257 0.0
H708 H 0.03438 0.29872 0.0926 0.0
H709 H 0.16519 0.36979 0.07096 0.0
H710 H 0.13826 0.37928 0.04405 0.0
H711 H 0.13601 0.39383 0.07889 0.0
H712 H 0.05685 0.41084 0.99937 0.0
H713 H 0.04921 0.44038 0.0851 0.0
H714 H 0.07117 0.33488 0.02003 0.0
H715 H 0.10532 0.35371 0.01414 0.0
H716 H 0.07574 0.36374 0.9905 0.0
H717 H 0.06421 0.37319 0.12439 0.0
H718 H 0.06817 0.41366 0.12599 0.0
H719 H 0.09875 0.39126 0.11871 0.0
C720 C 0.5874 0.22585 0.92963 0.0
C721 C 0.61213 0.22366 0.91266 0.0
C722 C 0.57308 0.19978 0.94237 0.0
C723 C 0.58385 0.17081 0.93821 0.0
C724 C 0.60861 0.16841 0.92088 0.0
C725 C 0.62236 0.19482 0.90824 0.0
C726 C 0.54669 0.20324 0.96063 0.0
C727 C 0.62079 0.13794 0.91595 0.0
C728 C 0.56642 0.10503 0.99367 0.0
C729 C 0.54522 0.08871 0.97935 0.0
C730 C 0.57887 0.13196 0.98066 0.0
C731 C 0.56983 0.14299 0.9527 0.0
C732 C 0.54808 0.12696 0.93832 0.0
C733 C 0.53609 0.09995 0.95178 0.0
C734 C 0.60211 0.14831 0.99665 0.0
C735 C 0.53776 0.13812 0.90856 0.0
H736 H 0.5795 0.24801 0.93344 0.0
H737 H 0.64112 0.19284 0.89474 0.0
H738 H 0.52842 0.18973 0.95247 0.0
H739 H 0.55074 0.19436 0.9833 0.0
H740 H 0.54032 0.22725 0.96069 0.0
H741 H 0.63995 0.13994 0.90156 0.0
H742 H 0.62696 0.12618 0.93699 0.0
H743 H 0.60426 0.1234 0.90614 0.0
H744 H 0.57366 0.09653 0.01496 0.0
H745 H 0.51969 0.08753 0.94057 0.0
H746 H 0.59606 0.17208 0.99898 0.0
H747 H 0.62241 0.14914 0.98403 0.0
H748 H 0.60619 0.13717 0.01856 0.0
H749 H 0.53033 0.16171 0.90879 0.0
H750 H 0.51992 0.12368 0.90078 0.0
H751 H 0.55575 0.13846 0.89281 0.0
C752 C 0.97915 0.77426 0.49618 0.0
C753 C 0.98969 0.76082 0.472 0.0
C754 C 0.98622 0.80451 0.50077 0.0
C755 C 1.00426 0.82172 0.48068 0.0
C756 C 0.01627 0.80779 0.45714 0.0
C757 C 1.00882 0.77746 0.45306 0.0
C758 C 0.97313 0.8185 0.52627 0.0
C759 C 0.03563 0.82539 0.43531 0.0
C760 C 0.9898 0.90575 0.47312 0.0
C761 C 0.0115 0.91757 0.49036 0.0
C762 C 0.9878 0.87471 0.46914 0.0
C763 C 1.00799 0.85495 0.48272 0.0
C764 C 0.03056 0.86682 0.49932 0.0
C765 C 0.03207 0.89806 0.50295 0.0
C766 C 0.96347 0.86294 0.45114 0.0
C767 C 0.05253 0.84643 0.51399 0.0
H768 H 0.96472 0.76131 0.51112 0.0
H769 H 0.01685 0.76727 0.43421 0.0
H770 H 0.98998 0.8302 0.53856 0.0
H771 H 0.95759 0.83581 0.51835 0.0
H772 H 0.96172 0.80139 0.54127 0.0
H773 H 0.04599 0.81042 0.42043 0.0
H774 H 0.02289 0.84223 0.42217 0.0
H775 H 0.05262 0.83814 0.44645 0.0
H776 H 0.97392 0.92068 0.46317 0.0
H777 H 0.04893 0.90705 0.51626 0.0
H778 H 0.94914 0.84748 0.465 0.0
H779 H 0.97203 0.84964 0.43386 0.0
H780 H 0.95044 0.88149 0.44088 0.0
H781 H 0.04192 0.83102 0.53106 0.0
H782 H 0.07005 0.85947 0.52412 0.0
H783 H 0.06211 0.832 0.49816 0.0
C784 C 0.46318 0.73578 0.54867 0.0
C785 C 0.4565 0.74242 0.57691 0.0
C786 C 0.4693 0.7061 0.5425 0.0
C787 C 0.46945 0.68283 0.56532 0.0
C788 C 0.46306 0.6896 0.59399 0.0
C789 C 0.45627 0.71934 0.59938 0.0
C790 C 0.4754 0.69961 0.51157 0.0
C791 C 0.46372 0.66554 0.61895 0.0
C792 C 0.46198 0.60127 0.54571 0.0
C793 C 0.4908 0.59328 0.54412 0.0
C794 C 0.45466 0.63035 0.55278 0.0
C795 C 0.47669 0.65151 0.55916 0.0
C796 C 0.50577 0.64309 0.55864 0.0
C797 C 0.5125 0.61418 0.55071 0.0
C798 C 0.42345 0.63877 0.55248 0.0
C799 C 0.5298 0.66477 0.56606 0.0
H800 H 0.46308 0.75376 0.53135 0.0
H801 H 0.45118 0.72472 0.62123 0.0
H802 H 0.49746 0.69111 0.5098 0.0
H803 H 0.46035 0.68158 0.50485 0.0
H804 H 0.47333 0.72002 0.49623 0.0
H805 H 0.45867 0.67467 0.64001 0.0
H806 H 0.44802 0.64694 0.61523 0.0
H807 H 0.48528 0.65547 0.62044 0.0
H808 H 0.44521 0.58516 0.54037 0.0
H809 H 0.5348 0.6079 0.54969 0.0
H810 H 0.42011 0.65784 0.5359 0.0
H811 H 0.41727 0.64662 0.57373 0.0
H812 H 0.40891 0.61949 0.54762 0.0
H813 H 0.5307 0.68457 0.54981 0.0
H814 H 0.55106 0.65395 0.56662 0.0
H815 H 0.52575 0.6735 0.58748 0.0
C816 C 0.89212 0.94389 0.70446 0.0
C817 C 0.89654 0.91369 0.7151 0.0
C818 C 0.90543 0.9565 0.67873 0.0
C819 C 0.92324 0.93846 0.66263 0.0
C820 C 0.92755 0.90793 0.67295 0.0
C821 C 0.91452 0.8961 0.69907 0.0
C822 C 0.90053 0.98927 0.66884 0.0
C823 C 0.94605 0.88767 0.65641 0.0
C824 C 0.93764 0.96242 0.5825 0.0
C825 C 0.96578 0.97462 0.58314 0.0
C826 C 0.92358 0.9506 0.60809 0.0
C827 C 0.93767 0.95152 0.6352 0.0
C828 C 0.96585 0.96441 0.63602 0.0
C829 C 0.97962 0.97546 0.61005 0.0
C830 C 0.8938 0.93658 0.60604 0.0
C831 C 0.98153 0.96648 0.66438 0.0
H832 H 0.87799 0.95777 0.71607 0.0
H833 H 0.91883 0.87302 0.70706 0.0
H834 H 0.92141 1.00195 0.66669 0.0
H835 H 0.89029 0.99082 0.64716 0.0
H836 H 0.88668 1.00054 0.68408 0.0
H837 H 0.94626 0.86409 0.66657 0.0
H838 H 0.93816 0.88708 0.63383 0.0
H839 H 0.96844 0.8969 0.65525 0.0
H840 H 0.92679 0.9615 0.56185 0.0
H841 H 1.00127 0.985 0.61086 0.0
H842 H 0.8786 0.94832 0.61951 0.0
H843 H 0.8939 0.91247 0.61466 0.0
H844 H 0.88571 0.93769 0.58341 0.0
H845 H 0.96846 0.97879 0.67946 0.0
H846 H 1.00282 0.97829 0.66151 0.0
H847 H 0.98476 0.9434 0.67481 0.0
C848 C 0.52626 0.07563 0.27234 0.0
C849 C 0.54615 0.06352 0.29255 0.0
C850 C 0.52569 0.06685 0.24386 0.0
C851 C 0.54533 0.04527 0.23549 0.0
C852 C 0.56402 0.03138 0.25631 0.0
C853 C 0.56429 0.04076 0.28457 0.0
C854 C 0.50535 0.08211 0.22229 0.0
C855 C 0.58512 0.00809 0.24828 0.0
C856 C 0.53621 0.01258 0.16233 0.0
C857 C 0.55586 0.03069 0.14522 0.0
C858 C 0.53254 0.01688 0.19184 0.0
C859 C 0.54876 0.04 0.20438 0.0
C860 C 0.56858 0.05837 0.18717 0.0
C861 C 0.57193 0.05342 0.15785 0.0
C862 C 0.51143 0.99669 0.20961 0.0
C863 C 0.58612 0.08346 0.19967 0.0
H864 H 0.51181 0.09283 0.27851 0.0
H865 H 0.57994 0.03146 0.2999 0.0
H866 H 0.51778 0.09739 0.20643 0.0
H867 H 0.49381 0.06504 0.20994 0.0
H868 H 0.4893 0.09572 0.23291 0.0
H869 H 0.59533 0.99654 0.26766 0.0
H870 H 0.57432 0.99072 0.2357 0.0
H871 H 0.60226 0.01936 0.23432 0.0
H872 H 0.52395 0.9948 0.15268 0.0
H873 H 0.58676 0.06782 0.14463 0.0
H874 H 0.49491 0.01061 0.21906 0.0
H875 H 0.52269 0.98448 0.22794 0.0
H876 H 0.50048 0.97975 0.19658 0.0
H877 H 0.57165 0.09998 0.20855 0.0
H878 H 0.60047 0.09579 0.18329 0.0
H879 H 0.59949 0.07396 0.21783 0.0
C880 C 0.41733 0.56463 0.30983 0.0
C881 C 0.3993 0.58951 0.30956 0.0
C882 C 0.43086 0.55352 0.33548 0.0
C883 C 0.42661 0.56794 0.36136 0.0
C884 C 0.40828 0.59297 0.36123 0.0
C885 C 0.39469 0.60331 0.33538 0.0
C886 C 0.44991 0.52651 0.33483 0.0
C887 C 0.40351 0.60925 0.38825 0.0
C888 C 0.44329 0.52662 0.43438 0.0
C889 C 0.47076 0.53849 0.44019 0.0
C890 C 0.42882 0.53567 0.40864 0.0
C891 C 0.44196 0.55743 0.38841 0.0
C892 C 0.46966 0.56952 0.39418 0.0
C893 C 0.4838 0.55975 0.41989 0.0
C894 C 0.39947 0.52196 0.40312 0.0
C895 C 0.48423 0.59308 0.37336 0.0
H896 H 0.42073 0.55377 0.28995 0.0
H897 H 0.38104 0.62279 0.33517 0.0
H898 H 0.47226 0.53312 0.34039 0.0
H899 H 0.44261 0.50838 0.35133 0.0
H900 H 0.45001 0.51708 0.31327 0.0
H901 H 0.38826 0.62803 0.38464 0.0
H902 H 0.39504 0.59308 0.40594 0.0
H903 H 0.42426 0.61872 0.39578 0.0
H904 H 0.43311 0.51009 0.44992 0.0
H905 H 0.50495 0.56915 0.42427 0.0
H906 H 0.39957 0.51099 0.38236 0.0
H907 H 0.38338 0.54002 0.40103 0.0
H908 H 0.39249 0.50484 0.42073 0.0
H909 H 0.48675 0.584 0.35185 0.0
H910 H 0.50575 0.60031 0.38109 0.0
H911 H 0.47072 0.61335 0.37024 0.0
C912 C 0.05656 0.39907 0.77542 0.0
C913 C 0.08286 0.40141 0.76048 0.0
C914 C 0.0533 0.41191 0.80198 0.0
C915 C 0.07707 0.42692 0.81419 0.0
C916 C 0.10407 0.42784 0.80012 0.0
C917 C 0.10657 0.4154 0.77331 0.0
C918 C 0.02409 0.41068 0.81626 0.0
C919 C 0.13005 0.44321 0.8127 0.0
C920 C 0.06337 0.49148 0.86114 0.0
C921 C 0.06638 0.47739 0.88908 0.0
C922 C 0.06638 0.47513 0.83664 0.0
C923 C 0.07313 0.44405 0.84019 0.0
C924 C 0.07641 0.42972 0.86839 0.0
C925 C 0.07268 0.44654 0.89256 0.0
C926 C 0.0622 0.4911 0.80695 0.0
C927 C 0.08422 0.39681 0.87298 0.0
H928 H 0.03827 0.38774 0.76607 0.0
H929 H 0.12691 0.41777 0.76191 0.0
H930 H 0.02568 0.40168 0.83923 0.0
H931 H 0.01576 0.43395 0.81615 0.0
H932 H 1.00833 0.39635 0.80508 0.0
H933 H 0.15012 0.43877 0.80097 0.0
H934 H 0.12708 0.46807 0.81151 0.0
H935 H 0.13261 0.4354 0.8359 0.0
H936 H 0.05806 0.51522 0.85852 0.0
H937 H 0.07518 0.43578 0.91423 0.0
H938 H 0.04518 0.47913 0.79511 0.0
H939 H 0.08228 0.49065 0.79411 0.0
H940 H 0.05614 0.5151 0.80801 0.0
H941 H 0.06791 0.38232 0.86279 0.0
H942 H 0.08588 0.38905 0.89632 0.0
H943 H 0.10509 0.39333 0.86233 0.0
C944 C 0.69951 0.93916 0.90782 0.0
C945 C 0.709 0.9099 0.91648 0.0
C946 C 0.6753 0.95123 0.92065 0.0
C947 C 0.65956 0.93356 0.94243 0.0
C948 C 0.66877 0.90398 0.95113 0.0
C949 C 0.69338 0.89269 0.93836 0.0
C950 C 0.66655 0.983 0.91086 0.0
C951 C 0.65257 0.88414 0.97401 0.0
C952 C 0.61169 0.97296 0.9945 0.0
C953 C 0.58437 0.96988 0.98202 0.0
C954 C 0.63625 0.96148 0.9818 0.0
C955 C 0.63356 0.94603 0.95615 0.0
C956 C 0.60597 0.94255 0.94363 0.0
C957 C 0.58185 0.95467 0.95654 0.0
C958 C 0.66519 0.96623 0.99566 0.0
C959 C 0.60188 0.92592 0.91659 0.0
H960 H 0.71079 0.95268 0.89067 0.0
H961 H 0.70052 0.87036 0.94587 0.0
H962 H 0.64461 0.98245 0.90156 0.0
H963 H 0.66591 0.99703 0.9297 0.0
H964 H 0.68145 0.9942 0.89434 0.0
H965 H 0.66189 0.86133 0.97779 0.0
H966 H 0.65271 0.89511 0.99476 0.0
H967 H 0.62979 0.88133 0.96746 0.0
H968 H 0.614 0.98484 0.01403 0.0
H969 H 0.5609 0.9521 0.94667 0.0
H970 H 0.67995 0.97888 0.97993 0.0
H971 H 0.67489 0.94403 1.00175 0.0
H972 H 0.66379 0.97899 0.01534 0.0
H973 H 0.6148 0.93731 0.89856 0.0
H974 H 0.57904 0.92482 0.90971 0.0
H975 H 0.60966 0.90246 0.92037 0.0
C976 C 0.7423 0.06063 0.47978 0.0
C977 C 0.73625 0.08269 0.45736 0.0
C978 C 0.7702 0.04982 0.48373 0.0
C979 C 0.7924 0.06124 0.46468 0.0
C980 C 0.78649 0.08387 0.44233 0.0
C981 C 0.75849 0.09431 0.43895 0.0
C982 C 0.77581 0.02582 0.50792 0.0
C983 C 0.80958 0.09647 0.42147 0.0
C984 C 0.87106 0.05179 0.48364 0.0
C985 C 0.87821 0.02769 0.46724 0.0
C986 C 0.84295 0.06239 0.48378 0.0
C987 C 0.82156 0.0486 0.46706 0.0
C988 C 0.82845 0.02375 0.45111 0.0
C989 C 0.85667 0.01357 0.45145 0.0
C990 C 0.83634 0.08894 0.50107 0.0
C991 C 0.80619 0.00841 0.43306 0.0
H992 H 0.72521 0.05184 0.49423 0.0
H993 H 0.75383 0.11104 0.42132 0.0
H994 H 0.78259 1.00473 0.49871 0.0
H995 H 0.79362 0.03343 0.52178 0.0
H996 H 0.75655 0.02044 0.52172 0.0
H997 H 0.80171 0.1149 0.40606 0.0
H998 H 0.82809 0.10546 0.43357 0.0
H999 H 0.8176 0.0781 0.40886 0.0
H1000 H 0.88762 0.06298 0.49567 0.0
H1001 H 0.86191 0.99457 0.43922 0.0
H1002 H 0.8175 0.08336 0.51535 0.0
H1003 H 0.83073 0.10872 0.48614 0.0
H1004 H 0.85479 0.09561 0.51464 0.0
H1005 H 0.78732 1.0008 0.44662 0.0
H1006 H 0.81474 0.9885 0.423 0.0
H1007 H 0.7985 0.02479 0.41558 0.0
C1008 C 0.19457 0.58006 0.12495 0.0
C1009 C 0.20482 0.60979 0.1178 0.0
C1010 C 0.17002 0.56851 0.11148 0.0
C1011 C 0.1551 0.58731 0.0907 0.0
C1012 C 0.16501 0.61759 0.08389 0.0
C1013 C 0.18989 0.62837 0.09734 0.0
C1014 C 0.16041 0.53597 0.11902 0.0
C1015 C 0.14942 0.63852 0.06226 0.0
C1016 C 0.10904 0.54942 0.03523 0.0
C1017 C 0.08155 0.54997 0.04753 0.0
C1018 C 0.13312 0.56156 0.04902 0.0
C1019 C 0.12959 0.57503 0.07553 0.0
C1020 C 0.1018 0.57628 0.08773 0.0
C1021 C 0.07815 0.56352 0.07372 0.0
C1022 C 0.16243 0.55942 0.03549 0.0
C1023 C 0.09706 0.59084 0.11573 0.0
H1024 H 0.20623 0.56556 0.14056 0.0
H1025 H 0.19762 0.65147 0.09199 0.0
H1026 H 0.13793 0.53499 0.127 0.0
H1027 H 0.16089 0.52318 0.09933 0.0
H1028 H 0.17419 0.52444 0.13584 0.0
H1029 H 0.15918 0.66178 0.06029 0.0
H1030 H 0.14968 0.62935 0.04062 0.0
H1031 H 0.12658 0.63989 0.06875 0.0
H1032 H 0.11188 0.53885 0.0151 0.0
H1033 H 0.05696 0.56411 0.08333 0.0
H1034 H 0.17667 0.54626 0.05068 0.0
H1035 H 0.17242 0.5824 0.03133 0.0
H1036 H 0.16151 0.54837 0.01475 0.0
H1037 H 0.10841 0.57809 0.13366 0.0
H1038 H 0.07394 0.59147 0.12147 0.0
H1039 H 0.10615 0.61436 0.11405 0.0
C1040 C 0.25392 0.41373 0.54871 0.0
C1041 C 0.23249 0.43507 0.5514 0.0
C1042 C 0.28279 0.42279 0.54467 0.0
C1043 C 0.29067 0.45394 0.54407 0.0
C1044 C 0.26918 0.47576 0.54546 0.0
C1045 C 0.2403 0.46609 0.54877 0.0
C1046 C 0.30504 0.39882 0.54272 0.0
C1047 C 0.2768 0.50917 0.54514 0.0
C1048 C 0.36555 0.46631 0.57326 0.0
C1049 C 0.38156 0.47202 0.54776 0.0
C1050 C 0.33566 0.46216 0.57235 0.0
C1051 C 0.32157 0.46306 0.54519 0.0
C1052 C 0.33755 0.46994 0.51936 0.0
C1053 C 0.36744 0.47466 0.52099 0.0
C1054 C 0.31934 0.45555 0.60044 0.0
C1055 C 0.32339 0.47058 0.49 0.0
H1056 H 0.24846 0.38971 0.55114 0.0
H1057 H 0.22395 0.48286 0.55011 0.0
H1058 H 0.3199 0.40497 0.52433 0.0
H1059 H 0.31806 0.39726 0.56283 0.0
H1060 H 0.29515 0.3761 0.53987 0.0
H1061 H 0.25751 0.52341 0.54321 0.0
H1062 H 0.28812 0.51372 0.56552 0.0
H1063 H 0.29163 0.5162 0.52695 0.0
H1064 H 0.37658 0.46466 0.59391 0.0
H1065 H 0.37998 0.47886 0.5013 0.0
H1066 H 0.31086 0.4318 0.60191 0.0
H1067 H 0.30069 0.47055 0.60115 0.0
H1068 H 0.33304 0.45869 0.6197 0.0
H1069 H 0.31648 0.4472 0.48552 0.0
H1070 H 0.33811 0.4798 0.47237 0.0
H1071 H 0.30388 0.48442 0.48956 0.0
C1072 C 0.92503 0.71928 0.93959 0.0
C1073 C 0.90332 0.71543 0.91901 0.0
C1074 C 0.93984 0.69434 0.95248 0.0
C1075 C 0.9327 0.66462 0.94489 0.0
C1076 C 0.91061 0.66055 0.92435 0.0
C1077 C 0.89633 0.68591 0.91161 0.0
C1078 C 0.96341 0.69986 0.974 0.0
C1079 C 0.90201 0.62933 0.9158 0.0
C1080 C 0.98726 0.60176 0.95634 0.0
C1081 C 0.9775 0.58591 0.98212 0.0
C1082 C 0.97321 0.62758 0.9443 0.0
C1083 C 0.94852 0.63783 0.95812 0.0
C1084 C 0.93871 0.6221 0.98429 0.0
C1085 C 0.95336 0.59651 0.99602 0.0
C1086 C 0.98465 0.64374 0.91656 0.0
C1087 C 0.9124 0.63201 0.99967 0.0
H1088 H 0.93088 0.74196 0.94524 0.0
H1089 H 0.87939 0.68258 0.89603 0.0
H1090 H 0.95855 0.68693 0.99501 0.0
H1091 H 0.98403 0.6916 0.96604 0.0
H1092 H 0.96627 0.72425 0.97779 0.0
H1093 H 0.88408 0.62986 0.89996 0.0
H1094 H 0.92065 0.6187 0.90611 0.0
H1095 H 0.89538 0.6146 0.93529 0.0
H1096 H 1.0059 0.59389 0.9454 0.0
H1097 H 0.9455 0.58444 0.01585 0.0
H1098 H 0.98918 0.66801 0.91972 0.0
H1099 H 0.96824 0.64284 0.89925 0.0
H1100 H 1.00462 0.63362 0.90902 0.0
H1101 H 0.91529 0.65594 1.00494 0.0
H1102 H 0.90775 0.61772 0.02003 0.0
H1103 H 0.89346 0.63088 0.98521 0.0
C1104 C 0.39711 0.82088 0.1056 0.0
C1105 C 0.41243 0.79601 0.11714 0.0
C1106 C 0.41154 0.84717 0.09354 0.0
C1107 C 0.44196 0.84816 0.09233 0.0
C1108 C 0.45747 0.82283 0.1037 0.0
C1109 C 0.44248 0.79716 0.11635 0.0
C1110 C 0.39424 0.87393 0.08226 0.0
C1111 C 0.48985 0.82272 0.10219 0.0
C1112 C 0.47531 0.90572 0.03601 0.0
C1113 C 0.48439 0.92899 0.05308 0.0
C1114 C 0.46228 0.87889 0.04863 0.0
C1115 C 0.45747 0.87564 0.07894 0.0
C1116 C 0.46675 0.89904 0.0963 0.0
C1117 C 0.48046 0.92527 0.08319 0.0
C1118 C 0.4534 0.85415 0.02947 0.0
C1119 C 0.4614 0.89676 0.12859 0.0
H1120 H 0.37383 0.81988 0.10644 0.0
H1121 H 0.45419 0.77773 0.12523 0.0
H1122 H 0.40113 0.89441 0.09312 0.0
H1123 H 0.39816 0.87889 0.05871 0.0
H1124 H 0.37081 0.86991 0.08581 0.0
H1125 H 0.49863 0.80099 0.11151 0.0
H1126 H 0.49701 0.82662 0.07929 0.0
H1127 H 0.49919 0.84147 0.11406 0.0
H1128 H 0.47848 0.90847 0.01273 0.0
H1129 H 0.48722 0.94336 0.09641 0.0
H1130 H 0.4297 0.85093 0.02989 0.0
H1131 H 0.46269 0.83232 0.03773 0.0
H1132 H 0.46037 0.85938 1.00663 0.0
H1133 H 0.43796 0.89473 0.13291 0.0
H1134 H 0.47024 0.91678 0.13904 0.0
H1135 H 0.47121 0.87607 0.13891 0.0
C1136 C 1.00831 0.22736 0.57439 0.0
C1137 C 0.02375 0.24622 0.55376 0.0
C1138 C 1.00018 0.19758 0.56884 0.0
C1139 C 1.00782 0.18646 0.54211 0.0
C1140 C 0.02138 0.20617 0.52038 0.0
C1141 C 0.02912 0.23585 0.52645 0.0
C1142 C 0.98546 0.17736 0.59245 0.0
C1143 C 0.02976 0.19524 0.49152 0.0
C1144 C 0.02793 0.10417 0.54201 0.0
C1145 C 1.00417 0.09128 0.52844 0.0
C1146 C 0.02901 0.13498 0.54703 0.0
C1147 C 1.00567 0.15341 0.53844 0.0
C1148 C 0.98121 0.14043 0.52548 0.0
C1149 C 0.98078 0.10947 0.52052 0.0
C1150 C 0.05553 0.14794 0.56092 0.0
C1151 C 0.95583 0.15936 0.51632 0.0
H1152 H 1.00419 0.23516 0.5956 0.0
H1153 H 0.04057 0.25056 0.51025 0.0
H1154 H 0.96765 0.16385 0.58344 0.0
H1155 H 1.00109 0.16118 0.60237 0.0
H1156 H 0.97677 0.19057 0.60979 0.0
H1157 H 0.03679 0.21422 0.47576 0.0
H1158 H 0.04769 0.17931 0.4947 0.0
H1159 H 0.01155 0.18272 0.48206 0.0
H1160 H 0.04607 0.0903 0.54829 0.0
H1161 H 0.96228 0.09963 0.51013 0.0
H1162 H 0.04955 0.15899 0.58068 0.0
H1163 H 0.06594 0.16558 0.54573 0.0
H1164 H 0.07149 0.13035 0.56699 0.0
H1165 H 0.94833 0.17185 0.53466 0.0
H1166 H 0.9376 0.1454 0.50861 0.0
H1167 H 0.96234 0.17651 0.49862 0.0
C1168 C 0.55025 0.29094 0.47978 0.0
C1169 C 0.55841 0.28361 0.45202 0.0
C1170 C 0.54632 0.32112 0.48582 0.0
C1171 C 0.54972 0.34452 0.46334 0.0
C1172 C 0.55762 0.33738 0.43523 0.0
C1173 C 0.5623 0.30709 0.43001 0.0
C1174 C 0.53834 0.32793 0.51623 0.0
C1175 C 0.56082 0.3617 0.41058 0.0
C1176 C 0.50981 0.41579 0.47567 0.0
C1177 C 0.53199 0.43494 0.48458 0.0
C1178 C 0.51552 0.38674 0.46748 0.0
C1179 C 0.54397 0.37631 0.46917 0.0
C1180 C 0.56655 0.39577 0.47776 0.0
C1181 C 0.56032 0.42514 0.48496 0.0
C1182 C 0.49102 0.367 0.45758 0.0
C1183 C 0.59702 0.38514 0.48052 0.0
H1184 H 0.54664 0.27308 0.49686 0.0
H1185 H 0.56922 0.30192 0.40864 0.0
H1186 H 0.55353 0.34521 0.52413 0.0
H1187 H 0.51658 0.3375 0.51632 0.0
H1188 H 0.53849 0.30741 0.53167 0.0
H1189 H 0.56673 0.35232 0.38987 0.0
H1190 H 0.54037 0.37381 0.4074 0.0
H1191 H 0.57754 0.37873 0.41585 0.0
H1192 H 0.48792 0.42356 0.47516 0.0
H1193 H 0.5774 0.43995 0.4921 0.0
H1194 H 0.48745 0.34719 0.47349 0.0
H1195 H 0.49638 0.35812 0.43652 0.0
H1196 H 0.47066 0.37946 0.45512 0.0
H1197 H 0.59802 0.36603 0.49747 0.0
H1198 H 0.61225 0.40345 0.48635 0.0
H1199 H 0.60422 0.37657 0.45991 0.0
loop_
_geom_bond_atom_site_label_1
_geom_bond_atom_site_label_2
_geom_bond_distance
_geom_bond_site_symmetry_2
_ccdc_geom_bond_type
C0 C1 1.386 . S
C0 C2 1.397 . S
C0 H24 0.931 . S
C1 C0 1.386 . S
C1 C5 1.397 . S
C2 C0 1.397 . S
C2 C3 1.384 . S
C2 H25 0.930 . S
C3 C2 1.384 . S
C3 C4 1.377 . S
C3 C6 1.481 . S
C4 C3 1.377 . S
C4 C5 1.389 . S
C4 H26 0.929 . S
C5 C1 1.397 . S
C5 C4 1.389 . S
C5 H27 0.931 . S
C6 C3 1.481 . S
C6 C7 1.387 . S
C6 C11 1.390 . S
C7 C6 1.387 . S
C7 C8 1.401 . S
C7 H28 0.930 . S
C8 C7 1.401 . S
C8 C9 1.376 . S
C8 C17 1.511 . S
C9 C8 1.376 . S
C9 C10 1.392 . S
C9 H30 0.931 . S
C10 C9 1.392 . S
C10 C11 1.361 . S
C10 C12 1.500 . S
C11 C6 1.390 . S
C11 C10 1.361 . S
C11 H29 0.931 . S
C12 C10 1.500 . S
C12 C13 1.371 . S
C12 C14 1.365 . S
C13 C12 1.371 . S
C13 C23 1.386 . S
C13 H31 0.931 . S
C14 C12 1.365 . S
C14 C15 1.409 . S
C14 H32 0.929 . S
C15 C14 1.409 . S
C15 C16 1.380 . S
C15 H33 0.930 . S
C16 C15 1.380 . S
C16 C23 1.357 . S
C17 C8 1.511 . S
C17 C18 1.341 . S
C17 C19 1.371 . S
C18 C17 1.341 . S
C18 C22 1.394 . S
C18 H34 0.930 . S
C19 C17 1.371 . S
C19 C20 1.392 . S
C19 H35 0.931 . S
C20 C19 1.392 . S
C20 C21 1.331 . S
C20 H38 0.932 . S
C21 C20 1.331 . S
C21 C22 1.336 . S
C22 C18 1.394 . S
C22 C21 1.336 . S
C22 H37 0.929 . S
C23 C13 1.386 . S
C23 C16 1.357 . S
C23 H36 0.928 . S
H24 C0 0.931 . S
H25 C2 0.930 . S
H26 C4 0.929 . S
H27 C5 0.931 . S
H28 C7 0.930 . S
H29 C11 0.931 . S
H30 C9 0.931 . S
H31 C13 0.931 . S
H32 C14 0.929 . S
H33 C15 0.930 . S
H34 C18 0.930 . S
H35 C19 0.931 . S
H36 C23 0.928 . S
H37 C22 0.929 . S
H38 C20 0.932 . S
C39 C40 1.386 . S
C39 C41 1.397 . S
C39 H63 0.931 . S
C40 C39 1.386 . S
C40 C44 1.397 . S
C41 C39 1.397 . S
C41 C42 1.384 . S
C41 H64 0.930 . S
C42 C41 1.384 . S
C42 C43 1.377 . S
C42 C45 1.481 . S
C43 C42 1.377 . S
C43 C44 1.389 . S
C43 H65 0.929 . S
C44 C40 1.397 . S
C44 C43 1.389 . S
C44 H66 0.931 . S
C45 C42 1.481 . S
C45 C46 1.387 . S
C45 C50 1.390 . S
C46 C45 1.387 . S
C46 C47 1.401 . S
C46 H67 0.930 . S
C47 C46 1.401 . S
C47 C48 1.376 . S
C47 C56 1.511 . S
C48 C47 1.376 . S
C48 C49 1.392 . S
C48 H69 0.931 . S
C49 C48 1.392 . S
C49 C50 1.361 . S
C49 C51 1.500 . S
C50 C45 1.390 . S
C50 C49 1.361 . S
C50 H68 0.931 . S
C51 C49 1.500 . S
C51 C52 1.371 . S
C51 C53 1.365 . S
C52 C51 1.371 . S
C52 C62 1.386 . S
C52 H70 0.931 . S
C53 C51 1.365 . S
C53 C54 1.409 . S
C53 H71 0.929 . S
C54 C53 1.409 . S
C54 C55 1.380 . S
C54 H72 0.930 . S
C55 C54 1.380 . S
C55 C62 1.357 . S
C56 C47 1.511 . S
C56 C57 1.341 . S
C56 C58 1.371 . S
C57 C56 1.341 . S
C57 C61 1.394 . S
C57 H73 0.930 . S
C58 C56 1.371 . S
C58 C59 1.392 . S
C58 H74 0.931 . S
C59 C58 1.392 . S
C59 C60 1.331 . S
C59 H77 0.932 . S
C60 C59 1.331 . S
C60 C61 1.336 . S
C61 C57 1.394 . S
C61 C60 1.336 . S
C61 H76 0.929 . S
C62 C52 1.386 . S
C62 C55 1.357 . S
C62 H75 0.928 . S
H63 C39 0.931 . S
H64 C41 0.930 . S
H65 C43 0.929 . S
H66 C44 0.931 . S
H67 C46 0.930 . S
H68 C50 0.931 . S
H69 C48 0.931 . S
H70 C52 0.931 . S
H71 C53 0.929 . S
H72 C54 0.930 . S
H73 C57 0.930 . S
H74 C58 0.931 . S
H75 C62 0.928 . S
H76 C61 0.929 . S
H77 C59 0.932 . S
C78 C79 1.386 . S
C78 C80 1.397 . S
C78 H102 0.931 . S
C79 C78 1.386 . S
C79 C83 1.397 . S
C80 C78 1.397 . S
C80 C81 1.384 . S
C80 H103 0.930 . S
C81 C80 1.384 . S
C81 C82 1.377 . S
C81 C84 1.481 . S
C82 C81 1.377 . S
C82 C83 1.389 . S
C82 H104 0.929 . S
C83 C79 1.397 . S
C83 C82 1.389 . S
C83 H105 0.931 . S
C84 C81 1.481 . S
C84 C85 1.387 . S
C84 C89 1.390 . S
C85 C84 1.387 . S
C85 C86 1.401 . S
C85 H106 0.930 . S
C86 C85 1.401 . S
C86 C87 1.376 . S
C86 C95 1.511 . S
C87 C86 1.376 . S
C87 C88 1.392 . S
C87 H108 0.931 . S
C88 C87 1.392 . S
C88 C89 1.361 . S
C88 C90 1.500 . S
C89 C84 1.390 . S
C89 C88 1.361 . S
C89 H107 0.931 . S
C90 C88 1.500 . S
C90 C91 1.371 . S
C90 C92 1.365 . S
C91 C90 1.371 . S
C91 C101 1.386 . S
C91 H109 0.931 . S
C92 C90 1.365 . S
C92 C93 1.409 . S
C92 H110 0.929 . S
C93 C92 1.409 . S
C93 C94 1.380 . S
C93 H111 0.930 . S
C94 C93 1.380 . S
C94 C101 1.357 . S
C95 C86 1.511 . S
C95 C96 1.341 . S
C95 C97 1.371 . S
C96 C95 1.341 . S
C96 C100 1.394 . S
C96 H112 0.930 . S
C97 C95 1.371 . S
C97 C98 1.392 . S
C97 H113 0.931 . S
C98 C97 1.392 . S
C98 C99 1.331 . S
C98 H116 0.932 . S
C99 C98 1.331 . S
C99 C100 1.336 . S
C100 C96 1.394 . S
C100 C99 1.336 . S
C100 H115 0.929 . S
C101 C91 1.386 . S
C101 C94 1.357 . S
C101 H114 0.928 . S
H102 C78 0.931 . S
H103 C80 0.930 . S
H104 C82 0.929 . S
H105 C83 0.931 . S
H106 C85 0.930 . S
H107 C89 0.931 . S
H108 C87 0.931 . S
H109 C91 0.931 . S
H110 C92 0.929 . S
H111 C93 0.930 . S
H112 C96 0.930 . S
H113 C97 0.931 . S
H114 C101 0.928 . S
H115 C100 0.929 . S
H116 C98 0.932 . S
C117 C118 1.386 . S
C117 C119 1.397 . S
C117 H141 0.931 . S
C118 C117 1.386 . S
C118 C122 1.397 . S
C119 C117 1.397 . S
C119 C120 1.384 . S
C119 H142 0.930 . S
C120 C119 1.384 . S
C120 C121 1.377 . S
C120 C123 1.481 . S
C121 C120 1.377 . S
C121 C122 1.389 . S
C121 H143 0.929 . S
C122 C118 1.397 . S
C122 C121 1.389 . S
C122 H144 0.931 . S
C123 C120 1.481 . S
C123 C124 1.387 . S
C123 C128 1.390 . S
C124 C123 1.387 . S
C124 C125 1.401 . S
C124 H145 0.930 . S
C125 C124 1.401 . S
C125 C126 1.376 . S
C125 C134 1.511 . S
C126 C125 1.376 . S
C126 C127 1.392 . S
C126 H147 0.931 . S
C127 C126 1.392 . S
C127 C128 1.361 . S
C127 C129 1.500 . S
C128 C123 1.390 . S
C128 C127 1.361 . S
C128 H146 0.931 . S
C129 C127 1.500 . S
C129 C130 1.371 . S
C129 C131 1.365 . S
C130 C129 1.371 . S
C130 C140 1.386 . S
C130 H148 0.931 . S
C131 C129 1.365 . S
C131 C132 1.409 . S
C131 H149 0.929 . S
C132 C131 1.409 . S
C132 C133 1.380 . S
C132 H150 0.930 . S
C133 C132 1.380 . S
C133 C140 1.357 . S
C134 C125 1.511 . S
C134 C135 1.341 . S
C134 C136 1.371 . S
C135 C134 1.341 . S
C135 C139 1.394 . S
C135 H151 0.930 . S
C136 C134 1.371 . S
C136 C137 1.392 . S
C136 H152 0.931 . S
C137 C136 1.392 . S
C137 C138 1.331 . S
C137 H155 0.932 . S
C138 C137 1.331 . S
C138 C139 1.336 . S
C139 C135 1.394 . S
C139 C138 1.336 . S
C139 H154 0.929 . S
C140 C130 1.386 . S
C140 C133 1.357 . S
C140 H153 0.928 . S
H141 C117 0.931 . S
H142 C119 0.930 . S
H143 C121 0.929 . S
H144 C122 0.931 . S
H145 C124 0.930 . S
H146 C128 0.931 . S
H147 C126 0.931 . S
H148 C130 0.931 . S
H149 C131 0.929 . S
H150 C132 0.930 . S
H151 C135 0.930 . S
H152 C136 0.931 . S
H153 C140 0.928 . S
H154 C139 0.929 . S
H155 C137 0.932 . S
C156 C157 1.386 . S
C156 C158 1.397 . S
C156 H180 0.931 . S
C157 C156 1.386 . S
C157 C161 1.397 . S
C158 C156 1.397 . S
C158 C159 1.384 . S
C158 H181 0.930 . S
C159 C158 1.384 . S
C159 C160 1.377 . S
C159 C162 1.481 . S
C160 C159 1.377 . S
C160 C161 1.389 . S
C160 H182 0.929 . S
C161 C157 1.397 . S
C161 C160 1.389 . S
C161 H183 0.931 . S
C162 C159 1.481 . S
C162 C163 1.387 . S
C162 C167 1.390 . S
C163 C162 1.387 . S
C163 C164 1.401 . S
C163 H184 0.930 . S
C164 C163 1.401 . S
C164 C165 1.376 . S
C164 C173 1.511 . S
C165 C164 1.376 . S
C165 C166 1.392 . S
C165 H186 0.931 . S
C166 C165 1.392 . S
C166 C167 1.361 . S
C166 C168 1.500 . S
C167 C162 1.390 . S
C167 C166 1.361 . S
C167 H185 0.931 . S
C168 C166 1.500 . S
C168 C169 1.371 . S
C168 C170 1.365 . S
C169 C168 1.371 . S
C169 C179 1.386 . S
C169 H187 0.931 . S
C170 C168 1.365 . S
C170 C171 1.409 . S
C170 H188 0.929 . S
C171 C170 1.409 . S
C171 C172 1.380 . S
C171 H189 0.930 . S
C172 C171 1.380 . S
C172 C179 1.357 . S
C173 C164 1.511 . S
C173 C174 1.341 . S
C173 C175 1.371 . S
C174 C173 1.341 . S
C174 C178 1.394 . S
C174 H190 0.930 . S
C175 C173 1.371 . S
C175 C176 1.392 . S
C175 H191 0.931 . S
C176 C175 1.392 . S
C176 C177 1.331 . S
C176 H194 0.932 . S
C177 C176 1.331 . S
C177 C178 1.336 . S
C178 C174 1.394 . S
C178 C177 1.336 . S
C178 H193 0.929 . S
C179 C169 1.386 . S
C179 C172 1.357 . S
C179 H192 0.928 . S
H180 C156 0.931 . S
H181 C158 0.930 . S
H182 C160 0.929 . S
H183 C161 0.931 . S
H184 C163 0.930 . S
H185 C167 0.931 . S
H186 C165 0.931 . S
H187 C169 0.931 . S
H188 C170 0.929 . S
H189 C171 0.930 . S
H190 C174 0.930 . S
H191 C175 0.931 . S
H192 C179 0.928 . S
H193 C178 0.929 . S
H194 C176 0.932 . S
C195 C196 1.386 . S
C195 C197 1.397 . S
C195 H219 0.931 . S
C196 C195 1.386 . S
C196 C200 1.397 . S
C197 C195 1.397 . S
C197 C198 1.384 . S
C197 H220 0.930 . S
C198 C197 1.384 . S
C198 C199 1.377 . S
C198 C201 1.481 . S
C199 C198 1.377 . S
C199 C200 1.389 . S
C199 H221 0.929 . S
C200 C196 1.397 . S
C200 C199 1.389 . S
C200 H222 0.931 . S
C201 C198 1.481 . S
C201 C202 1.387 . S
C201 C206 1.390 . S
C202 C201 1.387 . S
C202 C203 1.401 . S
C202 H223 0.930 . S
C203 C202 1.401 . S
C203 C204 1.376 . S
C203 C212 1.511 . S
C204 C203 1.376 . S
C204 C205 1.392 . S
C204 H225 0.931 . S
C205 C204 1.392 . S
C205 C206 1.361 . S
C205 C207 1.500 . S
C206 C201 1.390 . S
C206 C205 1.361 . S
C206 H224 0.931 . S
C207 C205 1.500 . S
C207 C208 1.371 . S
C207 C209 1.365 . S
C208 C207 1.371 . S
C208 C218 1.386 . S
C208 H226 0.931 . S
C209 C207 1.365 . S
C209 C210 1.409 . S
C209 H227 0.929 . S
C210 C209 1.409 . S
C210 C211 1.380 . S
C210 H228 0.930 . S
C211 C210 1.380 . S
C211 C218 1.357 . S
C212 C203 1.511 . S
C212 C213 1.341 . S
C212 C214 1.371 . S
C213 C212 1.341 . S
C213 C217 1.394 . S
C213 H229 0.930 . S
C214 C212 1.371 . S
C214 C215 1.392 . S
C214 H230 0.931 . S
C215 C214 1.392 . S
C215 C216 1.331 . S
C215 H233 0.932 . S
C216 C215 1.331 . S
C216 C217 1.336 . S
C217 C213 1.394 . S
C217 C216 1.336 . S
C217 H232 0.929 . S
C218 C208 1.386 . S
C218 C211 1.357 . S
C218 H231 0.928 . S
H219 C195 0.931 . S
H220 C197 0.930 . S
H221 C199 0.929 . S
H222 C200 0.931 . S
H223 C202 0.930 . S
H224 C206 0.931 . S
H225 C204 0.931 . S
H226 C208 0.931 . S
H227 C209 0.929 . S
H228 C210 0.930 . S
H229 C213 0.930 . S
H230 C214 0.931 . S
H231 C218 0.928 . S
H232 C217 0.929 . S
H233 C215 0.932 . S
C234 C235 1.386 . S
C234 C236 1.397 . S
C234 H258 0.931 . S
C235 C234 1.386 . S
C235 C239 1.397 . S
C236 C234 1.397 . S
C236 C237 1.384 . S
C236 H259 0.930 . S
C237 C236 1.384 . S
C237 C238 1.377 . S
C237 C240 1.481 . S
C238 C237 1.377 . S
C238 C239 1.389 . S
C238 H260 0.929 . S
C239 C235 1.397 . S
C239 C238 1.389 . S
C239 H261 0.931 . S
C240 C237 1.481 . S
C240 C241 1.387 . S
C240 C245 1.390 . S
C241 C240 1.387 . S
C241 C242 1.401 . S
C241 H262 0.930 . S
C242 C241 1.401 . S
C242 C243 1.376 . S
C242 C251 1.511 . S
C243 C242 1.376 . S
C243 C244 1.392 . S
C243 H264 0.931 . S
C244 C243 1.392 . S
C244 C245 1.361 . S
C244 C246 1.500 . S
C245 C240 1.390 . S
C245 C244 1.361 . S
C245 H263 0.931 . S
C246 C244 1.500 . S
C246 C247 1.371 . S
C246 C248 1.365 . S
C247 C246 1.371 . S
C247 C257 1.386 . S
C247 H265 0.931 . S
C248 C246 1.365 . S
C248 C249 1.409 . S
C248 H266 0.929 . S
C249 C248 1.409 . S
C249 C250 1.380 . S
C249 H267 0.930 . S
C250 C249 1.380 . S
C250 C257 1.357 . S
C251 C242 1.511 . S
C251 C252 1.341 . S
C251 C253 1.371 . S
C252 C251 1.341 . S
C252 C256 1.394 . S
C252 H268 0.930 . S
C253 C251 1.371 . S
C253 C254 1.392 . S
C253 H269 0.931 . S
C254 C253 1.392 . S
C254 C255 1.331 . S
C254 H272 0.932 . S
C255 C254 1.331 . S
C255 C256 1.336 . S
C256 C252 1.394 . S
C256 C255 1.336 . S
C256 H271 0.929 . S
C257 C247 1.386 . S
C257 C250 1.357 . S
C257 H270 0.928 . S
H258 C234 0.931 . S
H259 C236 0.930 . S
H260 C238 0.929 . S
H261 C239 0.931 . S
H262 C241 0.930 . S
H263 C245 0.931 . S
H264 C243 0.931 . S
H265 C247 0.931 . S
H266 C248 0.929 . S
H267 C249 0.930 . S
H268 C252 0.930 . S
H269 C253 0.931 . S
H270 C257 0.928 . S
H271 C256 0.929 . S
H272 C254 0.932 . S
C273 C274 1.386 . S
C273 C275 1.397 . S
C273 H297 0.931 . S
C274 C273 1.386 . S
C274 C278 1.397 . S
C275 C273 1.397 . S
C275 C276 1.384 . S
C275 H298 0.930 . S
C276 C275 1.384 . S
C276 C277 1.377 . S
C276 C279 1.481 . S
C277 C276 1.377 . S
C277 C278 1.389 . S
C277 H299 0.929 . S
C278 C274 1.397 . S
C278 C277 1.389 . S
C278 H300 0.931 . S
C279 C276 1.481 . S
C279 C280 1.387 . S
C279 C284 1.390 . S
C280 C279 1.387 . S
C280 C281 1.401 . S
C280 H301 0.930 . S
C281 C280 1.401 . S
C281 C282 1.376 . S
C281 C290 1.511 . S
C282 C281 1.376 . S
C282 C283 1.392 . S
C282 H303 0.931 . S
C283 C282 1.392 . S
C283 C284 1.361 . S
C283 C285 1.500 . S
C284 C279 1.390 . S
C284 C283 1.361 . S
C284 H302 0.931 . S
C285 C283 1.500 . S
C285 C286 1.371 . S
C285 C287 1.365 . S
C286 C285 1.371 . S
C286 C296 1.386 . S
C286 H304 0.931 . S
C287 C285 1.365 . S
C287 C288 1.409 . S
C287 H305 0.929 . S
C288 C287 1.409 . S
C288 C289 1.380 . S
C288 H306 0.930 . S
C289 C288 1.380 . S
C289 C296 1.357 . S
C290 C281 1.511 . S
C290 C291 1.341 . S
C290 C292 1.371 . S
C291 C290 1.341 . S
C291 C295 1.394 . S
C291 H307 0.930 . S
C292 C290 1.371 . S
C292 C293 1.392 . S
C292 H308 0.931 . S
C293 C292 1.392 . S
C293 C294 1.331 . S
C293 H311 0.932 . S
C294 C293 1.331 . S
C294 C295 1.336 . S
C295 C291 1.394 . S
C295 C294 1.336 . S
C295 H310 0.929 . S
C296 C286 1.386 . S
C296 C289 1.357 . S
C296 H309 0.928 . S
H297 C273 0.931 . S
H298 C275 0.930 . S
H299 C277 0.929 . S
H300 C278 0.931 . S
H301 C280 0.930 . S
H302 C284 0.931 . S
H303 C282 0.931 . S
H304 C286 0.931 . S
H305 C287 0.929 . S
H306 C288 0.930 . S
H307 C291 0.930 . S
H308 C292 0.931 . S
H309 C296 0.928 . S
H310 C295 0.929 . S
H311 C293 0.932 . S
Co312 N317 2.057 . S
Co312 O329 2.021 . S
Co312 O332 2.062 . S
Co312 O336 2.117 1_545 S
Co312 O337 2.020 1_545 S
C313 O333 1.259 1_655 S
C313 O336 1.258 . S
Co314 N323 2.057 . S
Co314 O330 2.117 1_565 S
Co314 O331 2.020 1_565 S
Co314 O333 2.021 . S
Co314 O338 2.062 . S
C315 N317 1.316 . S
C315 N318 1.347 . S
C315 H320 0.931 . S
C316 N317 1.375 1_565 S
C316 C319 1.350 1_565 S
C316 H321 0.930 . S
N317 Co312 2.057 . S
N317 C315 1.316 . S
N317 C316 1.375 1_545 S
N318 C315 1.347 . S
N318 C319 1.373 . S
C319 C316 1.350 1_545 S
C319 N318 1.373 . S
C319 H340 0.931 1_545 S
H320 C315 0.931 . S
H321 C316 0.930 . S
C322 O329 1.259 1_455 S
C322 O330 1.258 . S
N323 Co314 2.057 . S
N323 C324 1.316 . S
N323 C325 1.375 1_565 S
C324 N323 1.316 . S
C324 N326 1.347 . S
C324 H335 0.931 . S
C325 N323 1.375 1_545 S
C325 C327 1.350 1_545 S
C325 H334 0.930 . S
N326 C324 1.347 . S
N326 C327 1.373 . S
C327 C325 1.350 1_565 S
C327 N326 1.373 . S
C327 H341 0.931 1_565 S
C328 O331 1.256 . S
C328 O332 1.255 1_455 S
O329 Co312 2.021 . S
O329 C322 1.259 1_655 S
O330 Co314 2.117 1_545 S
O330 C322 1.258 . S
O331 Co314 2.020 1_545 S
O331 C328 1.256 . S
O332 Co312 2.062 . S
O332 C328 1.255 1_655 S
O333 C313 1.259 1_455 S
O333 Co314 2.021 . S
H334 C325 0.930 . S
H335 C324 0.931 . S
O336 Co312 2.117 1_565 S
O336 C313 1.258 . S
O337 Co312 2.020 1_565 S
O337 C339 1.256 . S
O338 Co314 2.062 . S
O338 C339 1.255 1_455 S
C339 O337 1.256 . S
C339 O338 1.255 1_655 S
H340 C319 0.931 1_565 S
H341 C327 0.931 1_545 S
Co342 N347 2.057 . S
Co342 O359 2.021 1_565 S
Co342 O362 2.062 . S
Co342 O366 2.133 . S
Co342 O367 2.020 1_565 S
C343 O363 1.259 . S
C343 O366 1.230 1_554 S
Co344 N353 2.057 . S
Co344 O360 2.117 . S
Co344 O361 2.020 1_545 S
Co344 O363 2.021 1_545 S
Co344 O368 2.062 . S
C345 N347 1.316 . S
C345 N348 1.347 . S
C345 H350 0.931 1_565 S
C346 N347 1.375 . S
C346 C349 1.350 . S
C346 H351 0.930 . S
N347 Co342 2.057 . S
N347 C345 1.316 . S
N347 C346 1.375 . S
N348 C345 1.347 . S
N348 C349 1.373 . S
C349 C346 1.350 . S
C349 N348 1.373 . S
C349 H370 0.931 . S
H350 C345 0.931 1_545 S
H351 C346 0.930 . S
C352 O359 1.259 . S
C352 O360 1.258 1_556 S
N353 Co344 2.057 . S
N353 C354 1.316 . S
N353 C355 1.375 . S
C354 N353 1.316 . S
C354 N356 1.347 . S
C354 H365 0.931 1_545 S
C355 N353 1.375 . S
C355 C357 1.350 . S
C355 H364 0.930 . S
N356 C354 1.347 . S
N356 C357 1.373 . S
C357 C355 1.350 . S
C357 N356 1.373 . S
C357 H371 0.931 . S
C358 O361 1.256 1_556 S
C358 O362 1.255 . S
O359 Co342 2.021 1_545 S
O359 C352 1.259 . S
O360 Co344 2.117 . S
O360 C352 1.258 1_554 S
O361 Co344 2.020 1_565 S
O361 C358 1.256 1_554 S
O362 Co342 2.062 . S
O362 C358 1.255 . S
O363 C343 1.259 . S
O363 Co344 2.021 1_565 S
H364 C355 0.930 . S
H365 C354 0.931 1_565 S
O366 Co342 2.133 . S
O366 C343 1.230 1_556 S
O367 Co342 2.020 1_545 S
O367 C369 1.256 1_556 S
O368 Co344 2.062 . S
O368 C369 1.255 . S
C369 O367 1.256 1_554 S
C369 O368 1.255 . S
H370 C349 0.931 . S
H371 C357 0.931 . S
Co372 N377 2.057 . S
Co372 O389 2.021 . S
Co372 O392 2.062 . S
Co372 O396 2.117 . S
Co372 O397 2.020 . S
C373 O393 1.259 . S
C373 O396 1.258 . S
Co374 N383 2.057 . S
Co374 O390 2.117 . S
Co374 O391 2.020 . S
Co374 O393 2.021 . S
Co374 O398 2.062 . S
C375 N377 1.316 . S
C375 N378 1.347 . S
C375 H380 0.931 . S
C376 N377 1.375 . S
C376 C379 1.350 . S
C376 H381 0.930 . S
N377 Co372 2.057 . S
N377 C375 1.316 . S
N377 C376 1.375 . S
N378 C375 1.347 . S
N378 C379 1.373 . S
C379 C376 1.350 . S
C379 N378 1.373 . S
C379 H400 0.931 . S
H380 C375 0.931 . S
H381 C376 0.930 . S
C382 O389 1.259 . S
C382 O390 1.258 . S
N383 Co374 2.057 . S
N383 C384 1.316 . S
N383 C385 1.375 . S
C384 N383 1.316 . S
C384 N386 1.347 . S
C384 H395 0.931 . S
C385 N383 1.375 . S
C385 C387 1.350 . S
C385 H394 0.930 . S
N386 C384 1.347 . S
N386 C387 1.373 . S
C387 C385 1.350 . S
C387 N386 1.373 . S
C387 H401 0.931 . S
C388 O391 1.256 . S
C388 O392 1.255 . S
O389 Co372 2.021 . S
O389 C382 1.259 . S
O390 Co374 2.117 . S
O390 C382 1.258 . S
O391 Co374 2.020 . S
O391 C388 1.256 . S
O392 Co372 2.062 . S
O392 C388 1.255 . S
O393 C373 1.259 . S
O393 Co374 2.021 . S
H394 C385 0.930 . S
H395 C384 0.931 . S
O396 Co372 2.117 . S
O396 C373 1.258 . S
O397 Co372 2.020 . S
O397 C399 1.256 . S
O398 Co374 2.062 . S
O398 C399 1.255 . S
C399 O397 1.256 . S
C399 O398 1.255 . S
H400 C379 0.931 . S
H401 C387 0.931 . S
Co402 N407 2.057 . S
Co402 O419 2.021 . S
Co402 O422 2.062 . S
Co402 O426 2.117 1_455 S
Co402 O427 2.020 1_455 S
C403 O423 1.259 1_556 S
C403 O426 1.258 . S
Co404 N413 2.057 . S
Co404 O420 2.117 1_655 S
Co404 O421 2.020 1_655 S
Co404 O423 2.021 . S
Co404 O428 2.062 . S
C405 N407 1.316 . S
C405 N408 1.347 . S
C405 H410 0.931 . S
C406 N407 1.375 1_655 S
C406 C409 1.350 1_655 S
C406 H411 0.930 . S
N407 Co402 2.057 . S
N407 C405 1.316 . S
N407 C406 1.375 1_455 S
N408 C405 1.347 . S
N408 C409 1.373 . S
C409 C406 1.350 1_455 S
C409 N408 1.373 . S
C409 H430 0.931 1_455 S
H410 C405 0.931 . S
H411 C406 0.930 . S
C412 O419 1.259 1_554 S
C412 O420 1.258 . S
N413 Co404 2.057 . S
N413 C414 1.316 . S
N413 C415 1.375 1_655 S
C414 N413 1.316 . S
C414 N416 1.347 . S
C414 H425 0.931 . S
C415 N413 1.375 1_455 S
C415 C417 1.350 1_455 S
C415 H424 0.930 . S
N416 C414 1.347 . S
N416 C417 1.373 . S
C417 C415 1.350 1_655 S
C417 N416 1.373 . S
C417 H431 0.931 1_655 S
C418 O421 1.256 . S
C418 O422 1.255 1_554 S
O419 Co402 2.021 . S
O419 C412 1.259 1_556 S
O420 Co404 2.117 1_455 S
O420 C412 1.258 . S
O421 Co404 2.020 1_455 S
O421 C418 1.256 . S
O422 Co402 2.062 . S
O422 C418 1.255 1_556 S
O423 C403 1.259 1_554 S
O423 Co404 2.021 . S
H424 C415 0.930 . S
H425 C414 0.931 . S
O426 Co402 2.117 1_655 S
O426 C403 1.258 . S
O427 Co402 2.020 1_655 S
O427 C429 1.256 . S
O428 Co404 2.062 . S
O428 C429 1.255 1_554 S
C429 O427 1.256 . S
C429 O428 1.255 1_556 S
H430 C409 0.931 1_655 S
H431 C417 0.931 1_455 S
C432 C433 1.391 . S
C432 C434 1.394 . S
C432 H448 0.931 . S
C433 C432 1.391 . S
C433 C437 1.376 . S
C434 C432 1.394 . S
C434 C435 1.369 . S
C434 C438 1.531 1_455 S
C435 C434 1.369 . S
C435 C436 1.410 . S
C435 C443 1.503 . S
C436 C435 1.410 . S
C436 C437 1.392 . S
C436 C439 1.511 . S
C437 C433 1.376 . S
C437 C436 1.392 . S
C437 H449 0.929 . S
C438 C434 1.531 1_655 S
C438 H450 0.960 . S
C438 H451 0.962 . S
C438 H452 0.960 . S
C439 C436 1.511 . S
C439 H453 0.961 . S
C439 H454 0.961 . S
C439 H455 0.961 . S
C440 C441 1.370 . S
C440 C442 1.363 . S
C440 H456 0.931 . S
C441 C440 1.370 . S
C441 C445 1.408 . S
C442 C440 1.363 . S
C442 C443 1.370 . S
C442 C446 1.524 . S
C443 C435 1.503 . S
C443 C442 1.370 . S
C443 C444 1.403 . S
C444 C443 1.403 . S
C444 C445 1.404 . S
C444 C447 1.539 1_545 S
C445 C441 1.408 . S
C445 C444 1.404 . S
C445 H457 0.930 1_545 S
C446 C442 1.524 . S
C446 H458 0.956 . S
C446 H459 0.961 . S
C446 H460 0.961 . S
C447 C444 1.539 1_565 S
C447 H461 0.958 . S
C447 H462 0.961 . S
C447 H463 0.960 . S
H448 C432 0.931 . S
H449 C437 0.929 . S
H450 C438 0.960 . S
H451 C438 0.962 . S
H452 C438 0.960 . S
H453 C439 0.961 . S
H454 C439 0.961 . S
H455 C439 0.961 . S
H456 C440 0.931 . S
H457 C445 0.930 1_565 S
H458 C446 0.956 . S
H459 C446 0.961 . S
H460 C446 0.961 . S
H461 C447 0.958 . S
H462 C447 0.961 . S
H463 C447 0.960 . S
C464 C465 1.391 . S
C464 C466 1.394 . S
C464 H480 0.931 . S
C465 C464 1.391 . S
C465 C469 1.376 . S
C466 C464 1.394 . S
C466 C467 1.369 . S
C466 C470 1.531 . S
C467 C466 1.369 . S
C467 C468 1.410 . S
C467 C475 1.503 . S
C468 C467 1.410 . S
C468 C469 1.392 . S
C468 C471 1.511 . S
C469 C465 1.376 . S
C469 C468 1.392 . S
C469 H481 0.929 . S
C470 C466 1.531 . S
C470 H482 0.960 . S
C470 H483 0.962 . S
C470 H484 0.960 . S
C471 C468 1.511 . S
C471 H485 0.961 . S
C471 H486 0.961 . S
C471 H487 0.961 . S
C472 C473 1.370 . S
C472 C474 1.363 . S
C472 H488 0.931 . S
C473 C472 1.370 . S
C473 C477 1.408 . S
C474 C472 1.363 . S
C474 C475 1.370 . S
C474 C478 1.524 . S
C475 C467 1.503 . S
C475 C474 1.370 . S
C475 C476 1.403 . S
C476 C475 1.403 . S
C476 C477 1.404 . S
C476 C479 1.539 . S
C477 C473 1.408 . S
C477 C476 1.404 . S
C477 H489 0.930 . S
C478 C474 1.524 . S
C478 H490 0.956 . S
C478 H491 0.961 . S
C478 H492 0.961 . S
C479 C476 1.539 . S
C479 H493 0.958 . S
C479 H494 0.961 . S
C479 H495 0.960 . S
H480 C464 0.931 . S
H481 C469 0.929 . S
H482 C470 0.960 . S
H483 C470 0.962 . S
H484 C470 0.960 . S
H485 C471 0.961 . S
H486 C471 0.961 . S
H487 C471 0.961 . S
H488 C472 0.931 . S
H489 C477 0.930 . S
H490 C478 0.956 . S
H491 C478 0.961 . S
H492 C478 0.961 . S
H493 C479 0.958 . S
H494 C479 0.961 . S
H495 C479 0.960 . S
C496 C497 1.391 . S
C496 C498 1.394 . S
C496 H512 0.931 . S
C497 C496 1.391 . S
C497 C501 1.376 . S
C498 C496 1.394 . S
C498 C499 1.369 . S
C498 C502 1.531 . S
C499 C498 1.369 . S
C499 C500 1.410 . S
C499 C507 1.503 . S
C500 C499 1.410 . S
C500 C501 1.392 . S
C500 C503 1.511 . S
C501 C497 1.376 . S
C501 C500 1.392 . S
C501 H513 0.929 . S
C502 C498 1.531 . S
C502 H514 0.960 . S
C502 H515 0.962 . S
C502 H516 0.960 . S
C503 C500 1.511 . S
C503 H517 0.961 . S
C503 H518 0.961 . S
C503 H519 0.961 . S
C504 C505 1.370 . S
C504 C506 1.363 . S
C504 H520 0.931 . S
C505 C504 1.370 . S
C505 C509 1.408 . S
C506 C504 1.363 . S
C506 C507 1.370 . S
C506 C510 1.524 . S
C507 C499 1.503 . S
C507 C506 1.370 . S
C507 C508 1.403 . S
C508 C507 1.403 . S
C508 C509 1.404 . S
C508 C511 1.539 . S
C509 C505 1.408 . S
C509 C508 1.404 . S
C509 H521 0.930 . S
C510 C506 1.524 . S
C510 H522 0.956 . S
C510 H523 0.961 . S
C510 H524 0.961 . S
C511 C508 1.539 . S
C511 H525 0.958 . S
C511 H526 0.961 . S
C511 H527 0.960 . S
H512 C496 0.931 . S
H513 C501 0.929 . S
H514 C502 0.960 . S
H515 C502 0.962 . S
H516 C502 0.960 . S
H517 C503 0.961 . S
H518 C503 0.961 . S
H519 C503 0.961 . S
H520 C504 0.931 . S
H521 C509 0.930 . S
H522 C510 0.956 . S
H523 C510 0.961 . S
H524 C510 0.961 . S
H525 C511 0.958 . S
H526 C511 0.961 . S
H527 C511 0.960 . S
C528 C529 1.391 . S
C528 C530 1.394 . S
C528 H544 0.931 . S
C529 C528 1.391 . S
C529 C533 1.376 . S
C530 C528 1.394 . S
C530 C531 1.369 . S
C530 C534 1.531 . S
C531 C530 1.369 . S
C531 C532 1.410 . S
C531 C539 1.503 . S
C532 C531 1.410 . S
C532 C533 1.392 . S
C532 C535 1.511 1_655 S
C533 C529 1.376 . S
C533 C532 1.392 . S
C533 H545 0.929 . S
C534 C530 1.531 . S
C534 H546 0.960 . S
C534 H547 0.962 . S
C534 H548 0.960 . S
C535 C532 1.511 1_455 S
C535 H549 0.961 . S
C535 H550 0.961 . S
C535 H551 0.961 . S
C536 C537 1.370 . S
C536 C538 1.363 . S
C536 H552 0.931 . S
C537 C536 1.370 . S
C537 C541 1.408 . S
C538 C536 1.363 . S
C538 C539 1.370 . S
C538 C542 1.524 . S
C539 C531 1.503 . S
C539 C538 1.370 . S
C539 C540 1.403 . S
C540 C539 1.403 . S
C540 C541 1.404 . S
C540 C543 1.539 . S
C541 C537 1.408 . S
C541 C540 1.404 . S
C541 H553 0.930 . S
C542 C538 1.524 . S
C542 H554 0.956 . S
C542 H555 0.961 . S
C542 H556 0.961 . S
C543 C540 1.539 . S
C543 H557 0.958 . S
C543 H558 0.961 . S
C543 H559 0.960 . S
H544 C528 0.931 . S
H545 C533 0.929 . S
H546 C534 0.960 . S
H547 C534 0.962 . S
H548 C534 0.960 . S
H549 C535 0.961 . S
H550 C535 0.961 . S
H551 C535 0.961 . S
H552 C536 0.931 . S
H553 C541 0.930 . S
H554 C542 0.956 . S
H555 C542 0.961 . S
H556 C542 0.961 . S
H557 C543 0.958 . S
H558 C543 0.961 . S
H559 C543 0.960 . S
C560 C561 1.391 . S
C560 C562 1.394 . S
C560 H576 0.931 . S
C561 C560 1.391 . S
C561 C565 1.376 . S
C562 C560 1.394 . S
C562 C563 1.369 . S
C562 C566 1.531 . S
C563 C562 1.369 . S
C563 C564 1.410 . S
C563 C571 1.503 . S
C564 C563 1.410 . S
C564 C565 1.392 . S
C564 C567 1.511 1_545 S
C565 C561 1.376 . S
C565 C564 1.392 . S
C565 H577 0.929 . S
C566 C562 1.531 . S
C566 H578 0.960 . S
C566 H579 0.962 . S
C566 H580 0.960 . S
C567 C564 1.511 1_565 S
C567 H581 0.961 . S
C567 H582 0.961 . S
C567 H583 0.961 . S
C568 C569 1.370 . S
C568 C570 1.363 . S
C568 H584 0.931 1_554 S
C569 C568 1.370 . S
C569 C573 1.408 . S
C570 C568 1.363 . S
C570 C571 1.370 . S
C570 C574 1.524 1_554 S
C571 C563 1.503 . S
C571 C570 1.370 . S
C571 C572 1.403 . S
C572 C571 1.403 . S
C572 C573 1.404 . S
C572 C575 1.539 . S
C573 C569 1.408 . S
C573 C572 1.404 . S
C573 H585 0.930 . S
C574 C570 1.524 1_556 S
C574 H586 0.956 . S
C574 H587 0.961 1_556 S
C574 H588 0.961 . S
C575 C572 1.539 . S
C575 H589 0.958 . S
C575 H590 0.961 . S
C575 H591 0.960 . S
H576 C560 0.931 . S
H577 C565 0.929 . S
H578 C566 0.960 . S
H579 C566 0.962 . S
H580 C566 0.960 . S
H581 C567 0.961 . S
H582 C567 0.961 . S
H583 C567 0.961 . S
H584 C568 0.931 1_556 S
H585 C573 0.930 . S
H586 C574 0.956 . S
H587 C574 0.961 1_554 S
H588 C574 0.961 . S
H589 C575 0.958 . S
H590 C575 0.961 . S
H591 C575 0.960 . S
C592 C593 1.391 . S
C592 C594 1.394 . S
C592 H608 0.931 . S
C593 C592 1.391 . S
C593 C597 1.376 . S
C594 C592 1.394 . S
C594 C595 1.369 . S
C594 C598 1.531 . S
C595 C594 1.369 . S
C595 C596 1.410 . S
C595 C603 1.503 . S
C596 C595 1.410 . S
C596 C597 1.392 . S
C596 C599 1.511 . S
C597 C593 1.376 . S
C597 C596 1.392 . S
C597 H609 0.929 . S
C598 C594 1.531 . S
C598 H610 0.960 . S
C598 H611 0.962 . S
C598 H612 0.960 . S
C599 C596 1.511 . S
C599 H613 0.961 . S
C599 H614 0.961 . S
C599 H615 0.961 . S
C600 C601 1.370 . S
C600 C602 1.363 . S
C600 H616 0.931 . S
C601 C600 1.370 . S
C601 C605 1.408 . S
C602 C600 1.363 . S
C602 C603 1.370 . S
C602 C606 1.524 . S
C603 C595 1.503 . S
C603 C602 1.370 . S
C603 C604 1.403 . S
C604 C603 1.403 . S
C604 C605 1.404 . S
C604 C607 1.539 . S
C605 C601 1.408 . S
C605 C604 1.404 . S
C605 H617 0.930 . S
C606 C602 1.524 . S
C606 H618 0.956 . S
C606 H619 0.961 . S
C606 H620 0.961 . S
C607 C604 1.539 . S
C607 H621 0.948 1_565 S
C607 H622 0.961 . S
C607 H623 0.960 . S
H608 C592 0.931 . S
H609 C597 0.929 . S
H610 C598 0.960 . S
H611 C598 0.962 . S
H612 C598 0.960 . S
H613 C599 0.961 . S
H614 C599 0.961 . S
H615 C599 0.961 . S
H616 C600 0.931 . S
H617 C605 0.930 . S
H618 C606 0.956 . S
H619 C606 0.961 . S
H620 C606 0.961 . S
H621 C607 0.948 1_545 S
H622 C607 0.961 . S
H623 C607 0.960 . S
C624 C625 1.391 . S
C624 C626 1.394 . S
C624 H640 0.931 . S
C625 C624 1.391 . S
C625 C629 1.376 . S
C626 C624 1.394 . S
C626 C627 1.369 . S
C626 C630 1.531 . S
C627 C626 1.369 . S
C627 C628 1.410 . S
C627 C635 1.503 . S
C628 C627 1.410 . S
C628 C629 1.392 . S
C628 C631 1.511 . S
C629 C625 1.376 . S
C629 C628 1.392 . S
C629 H641 0.929 . S
C630 C626 1.531 . S
C630 H642 0.960 . S
C630 H643 0.962 . S
C630 H644 0.960 . S
C631 C628 1.511 . S
C631 H645 0.961 . S
C631 H646 0.961 . S
C631 H647 0.961 . S
C632 C633 1.370 . S
C632 C634 1.363 . S
C632 H648 0.931 1_556 S
C633 C632 1.370 . S
C633 C637 1.408 . S
C634 C632 1.363 . S
C634 C635 1.370 . S
C634 C638 1.524 . S
C635 C627 1.503 . S
C635 C634 1.370 . S
C635 C636 1.403 . S
C636 C635 1.403 . S
C636 C637 1.404 . S
C636 C639 1.539 . S
C637 C633 1.408 . S
C637 C636 1.404 . S
C637 H649 0.930 . S
C638 C634 1.524 . S
C638 H650 0.956 . S
C638 H651 0.965 . S
C638 H652 0.961 1_556 S
C639 C636 1.539 . S
C639 H653 0.958 . S
C639 H654 0.961 . S
C639 H655 0.960 . S
H640 C624 0.931 . S
H641 C629 0.929 . S
H642 C630 0.960 . S
H643 C630 0.962 . S
H644 C630 0.960 . S
H645 C631 0.961 . S
H646 C631 0.961 . S
H647 C631 0.961 . S
H648 C632 0.931 1_554 S
H649 C637 0.930 . S
H650 C638 0.956 . S
H651 C638 0.965 . S
H652 C638 0.961 1_554 S
H653 C639 0.958 . S
H654 C639 0.961 . S
H655 C639 0.960 . S
C656 C657 1.391 . S
C656 C658 1.394 . S
C656 H672 0.931 . S
C657 C656 1.391 . S
C657 C661 1.376 . S
C658 C656 1.394 . S
C658 C659 1.369 . S
C658 C662 1.531 . S
C659 C658 1.369 . S
C659 C660 1.410 . S
C659 C667 1.503 . S
C660 C659 1.410 . S
C660 C661 1.392 . S
C660 C663 1.511 . S
C661 C657 1.376 . S
C661 C660 1.392 . S
C661 H673 0.929 . S
C662 C658 1.531 . S
C662 H674 0.960 . S
C662 H675 0.962 . S
C662 H676 0.960 . S
C663 C660 1.511 . S
C663 H677 0.961 . S
C663 H678 0.961 . S
C663 H679 0.961 . S
C664 C665 1.370 . S
C664 C666 1.363 . S
C664 H680 0.931 . S
C665 C664 1.370 . S
C665 C669 1.408 . S
C666 C664 1.363 . S
C666 C667 1.370 . S
C666 C670 1.524 . S
C667 C659 1.503 . S
C667 C666 1.370 . S
C667 C668 1.403 . S
C668 C667 1.403 . S
C668 C669 1.404 . S
C668 C671 1.539 . S
C669 C665 1.408 . S
C669 C668 1.404 . S
C669 H681 0.930 . S
C670 C666 1.524 . S
C670 H682 0.956 . S
C670 H683 0.961 . S
C670 H684 0.961 . S
C671 C668 1.539 . S
C671 H685 0.958 . S
C671 H686 0.961 . S
C671 H687 0.960 . S
H672 C656 0.931 . S
H673 C661 0.929 . S
H674 C662 0.960 . S
H675 C662 0.962 . S
H676 C662 0.960 . S
H677 C663 0.961 . S
H678 C663 0.961 . S
H679 C663 0.961 . S
H680 C664 0.931 . S
H681 C669 0.930 . S
H682 C670 0.956 . S
H683 C670 0.961 . S
H684 C670 0.961 . S
H685 C671 0.958 . S
H686 C671 0.961 . S
H687 C671 0.960 . S
C688 C689 1.391 . S
C688 C690 1.394 . S
C688 H704 0.931 . S
C689 C688 1.391 . S
C689 C693 1.376 . S
C690 C688 1.394 . S
C690 C691 1.369 . S
C690 C694 1.531 . S
C691 C690 1.369 . S
C691 C692 1.410 . S
C691 C699 1.503 . S
C692 C691 1.410 . S
C692 C693 1.392 . S
C692 C695 1.511 1_554 S
C693 C689 1.376 . S
C693 C692 1.392 . S
C693 H705 0.929 . S
C694 C690 1.531 . S
C694 H706 0.960 . S
C694 H707 0.962 . S
C694 H708 0.960 . S
C695 C692 1.511 1_556 S
C695 H709 0.961 . S
C695 H710 0.961 . S
C695 H711 0.961 . S
C696 C697 1.370 . S
C696 C698 1.363 . S
C696 H712 0.931 1_455 S
C697 C696 1.370 . S
C697 C701 1.408 . S
C698 C696 1.363 . S
C698 C699 1.370 . S
C698 C702 1.524 1_455 S
C699 C691 1.503 . S
C699 C698 1.370 . S
C699 C700 1.403 . S
C700 C699 1.403 . S
C700 C701 1.404 . S
C700 C703 1.539 . S
C701 C697 1.408 . S
C701 C700 1.404 . S
C701 H713 0.930 . S
C702 C698 1.524 1_655 S
C702 H714 0.956 . S
C702 H715 0.961 1_655 S
C702 H716 0.961 . S
C703 C700 1.539 . S
C703 H717 0.958 . S
C703 H718 0.961 . S
C703 H719 0.960 . S
H704 C688 0.931 . S
H705 C693 0.929 . S
H706 C694 0.960 . S
H707 C694 0.962 . S
H708 C694 0.960 . S
H709 C695 0.961 . S
H710 C695 0.961 . S
H711 C695 0.961 . S
H712 C696 0.931 1_655 S
H713 C701 0.930 . S
H714 C702 0.956 . S
H715 C702 0.961 1_455 S
H716 C702 0.961 . S
H717 C703 0.958 . S
H718 C703 0.961 . S
H719 C703 0.960 . S
C720 C721 1.391 . S
C720 C722 1.394 . S
C720 H736 0.931 . S
C721 C720 1.391 . S
C721 C725 1.376 . S
C722 C720 1.394 . S
C722 C723 1.369 . S
C722 C726 1.531 . S
C723 C722 1.369 . S
C723 C724 1.410 . S
C723 C731 1.503 . S
C724 C723 1.410 . S
C724 C725 1.392 . S
C724 C727 1.511 . S
C725 C721 1.376 . S
C725 C724 1.392 . S
C725 H737 0.929 . S
C726 C722 1.531 . S
C726 H738 0.960 . S
C726 H739 0.962 . S
C726 H740 0.960 . S
C727 C724 1.511 . S
C727 H741 0.961 . S
C727 H742 0.961 . S
C727 H743 0.961 . S
C728 C729 1.370 . S
C728 C730 1.363 . S
C728 H744 0.931 1_556 S
C729 C728 1.370 . S
C729 C733 1.408 . S
C730 C728 1.363 . S
C730 C731 1.370 . S
C730 C734 1.524 1_556 S
C731 C723 1.503 . S
C731 C730 1.370 . S
C731 C732 1.403 . S
C732 C731 1.403 . S
C732 C733 1.404 . S
C732 C735 1.539 . S
C733 C729 1.408 . S
C733 C732 1.404 . S
C733 H745 0.930 . S
C734 C730 1.524 1_554 S
C734 H746 0.956 . S
C734 H747 0.961 1_554 S
C734 H748 0.961 . S
C735 C732 1.539 . S
C735 H749 0.958 . S
C735 H750 0.961 . S
C735 H751 0.960 . S
H736 C720 0.931 . S
H737 C725 0.929 . S
H738 C726 0.960 . S
H739 C726 0.962 . S
H740 C726 0.960 . S
H741 C727 0.961 . S
H742 C727 0.961 . S
H743 C727 0.961 . S
H744 C728 0.931 1_554 S
H745 C733 0.930 . S
H746 C734 0.956 . S
H747 C734 0.961 1_556 S
H748 C734 0.961 . S
H749 C735 0.958 . S
H750 C735 0.961 . S
H751 C735 0.960 . S
C752 C753 1.391 . S
C752 C754 1.394 . S
C752 H768 0.931 . S
C753 C752 1.391 . S
C753 C757 1.376 . S
C754 C752 1.394 . S
C754 C755 1.369 . S
C754 C758 1.531 . S
C755 C754 1.369 . S
C755 C756 1.410 . S
C755 C763 1.503 . S
C756 C755 1.410 . S
C756 C757 1.392 . S
C756 C759 1.511 1_655 S
C757 C753 1.376 . S
C757 C756 1.392 . S
C757 H769 0.929 1_655 S
C758 C754 1.531 . S
C758 H770 0.960 . S
C758 H771 0.962 . S
C758 H772 0.960 . S
C759 C756 1.511 1_455 S
C759 H773 0.961 . S
C759 H774 0.961 . S
C759 H775 0.961 . S
C760 C761 1.370 . S
C760 C762 1.363 . S
C760 H776 0.931 . S
C761 C760 1.370 . S
C761 C765 1.408 . S
C762 C760 1.363 . S
C762 C763 1.370 . S
C762 C766 1.524 . S
C763 C755 1.503 . S
C763 C762 1.370 . S
C763 C764 1.403 . S
C764 C763 1.403 . S
C764 C765 1.404 . S
C764 C767 1.539 . S
C765 C761 1.408 . S
C765 C764 1.404 . S
C765 H777 0.930 . S
C766 C762 1.524 . S
C766 H778 0.956 . S
C766 H779 0.961 . S
C766 H780 0.961 . S
C767 C764 1.539 . S
C767 H781 0.958 . S
C767 H782 0.961 1_655 S
C767 H783 0.960 . S
H768 C752 0.931 . S
H769 C757 0.929 1_455 S
H770 C758 0.960 . S
H771 C758 0.962 . S
H772 C758 0.960 . S
H773 C759 0.961 . S
H774 C759 0.961 . S
H775 C759 0.961 . S
H776 C760 0.931 . S
H777 C765 0.930 . S
H778 C766 0.956 . S
H779 C766 0.961 . S
H780 C766 0.961 . S
H781 C767 0.958 . S
H782 C767 0.961 1_455 S
H783 C767 0.960 . S
C784 C785 1.391 . S
C784 C786 1.394 . S
C784 H800 0.931 . S
C785 C784 1.391 . S
C785 C789 1.376 . S
C786 C784 1.394 . S
C786 C787 1.369 . S
C786 C790 1.531 . S
C787 C786 1.369 . S
C787 C788 1.410 . S
C787 C795 1.503 . S
C788 C787 1.410 . S
C788 C789 1.392 . S
C788 C791 1.511 . S
C789 C785 1.376 . S
C789 C788 1.392 . S
C789 H801 0.929 . S
C790 C786 1.531 . S
C790 H802 0.960 . S
C790 H803 0.962 . S
C790 H804 0.960 . S
C791 C788 1.511 . S
C791 H805 0.961 . S
C791 H806 0.961 . S
C791 H807 0.961 . S
C792 C793 1.370 . S
C792 C794 1.363 . S
C792 H808 0.931 . S
C793 C792 1.370 . S
C793 C797 1.408 . S
C794 C792 1.363 . S
C794 C795 1.370 . S
C794 C798 1.524 . S
C795 C787 1.503 . S
C795 C794 1.370 . S
C795 C796 1.403 . S
C796 C795 1.403 . S
C796 C797 1.404 . S
C796 C799 1.539 . S
C797 C793 1.408 . S
C797 C796 1.404 . S
C797 H809 0.930 . S
C798 C794 1.524 . S
C798 H810 0.956 . S
C798 H811 0.961 . S
C798 H812 0.961 . S
C799 C796 1.539 . S
C799 H813 0.958 . S
C799 H814 0.961 . S
C799 H815 0.960 . S
H800 C784 0.931 . S
H801 C789 0.929 . S
H802 C790 0.960 . S
H803 C790 0.962 . S
H804 C790 0.960 . S
H805 C791 0.961 . S
H806 C791 0.961 . S
H807 C791 0.961 . S
H808 C792 0.931 . S
H809 C797 0.930 . S
H810 C798 0.956 . S
H811 C798 0.961 . S
H812 C798 0.961 . S
H813 C799 0.958 . S
H814 C799 0.961 . S
H815 C799 0.960 . S
C816 C817 1.391 . S
C816 C818 1.394 . S
C816 H832 0.931 . S
C817 C816 1.391 . S
C817 C821 1.376 . S
C818 C816 1.394 . S
C818 C819 1.369 . S
C818 C822 1.531 . S
C819 C818 1.369 . S
C819 C820 1.410 . S
C819 C827 1.503 . S
C820 C819 1.410 . S
C820 C821 1.392 . S
C820 C823 1.511 1_655 S
C821 C817 1.376 . S
C821 C820 1.392 . S
C821 H833 0.929 . S
C822 C818 1.531 . S
C822 H834 0.960 . S
C822 H835 0.962 . S
C822 H836 0.960 . S
C823 C820 1.511 1_455 S
C823 H837 0.961 . S
C823 H838 0.961 . S
C823 H839 0.961 . S
C824 C825 1.370 . S
C824 C826 1.363 . S
C824 H840 0.931 . S
C825 C824 1.370 . S
C825 C829 1.408 . S
C826 C824 1.363 . S
C826 C827 1.370 . S
C826 C830 1.524 . S
C827 C819 1.503 . S
C827 C826 1.370 . S
C827 C828 1.403 . S
C828 C827 1.403 . S
C828 C829 1.404 . S
C828 C831 1.539 1_565 S
C829 C825 1.408 . S
C829 C828 1.404 . S
C829 H841 0.930 1_565 S
C830 C826 1.524 . S
C830 H842 0.956 . S
C830 H843 0.961 . S
C830 H844 0.961 . S
C831 C828 1.539 1_545 S
C831 H845 0.958 . S
C831 H846 0.961 . S
C831 H847 0.960 . S
H832 C816 0.931 . S
H833 C821 0.929 . S
H834 C822 0.960 . S
H835 C822 0.962 . S
H836 C822 0.960 . S
H837 C823 0.961 . S
H838 C823 0.961 . S
H839 C823 0.961 . S
H840 C824 0.931 . S
H841 C829 0.930 1_545 S
H842 C830 0.956 . S
H843 C830 0.961 . S
H844 C830 0.961 . S
H845 C831 0.958 . S
H846 C831 0.961 . S
H847 C831 0.960 . S
C848 C849 1.391 . S
C848 C850 1.394 . S
C848 H864 0.931 . S
C849 C848 1.391 . S
C849 C853 1.376 . S
C850 C848 1.394 . S
C850 C851 1.369 . S
C850 C854 1.531 . S
C851 C850 1.369 . S
C851 C852 1.410 . S
C851 C859 1.503 . S
C852 C851 1.410 . S
C852 C853 1.392 . S
C852 C855 1.511 . S
C853 C849 1.376 . S
C853 C852 1.392 . S
C853 H865 0.929 . S
C854 C850 1.531 . S
C854 H866 0.960 . S
C854 H867 0.962 . S
C854 H868 0.960 . S
C855 C852 1.511 . S
C855 H869 0.961 . S
C855 H870 0.961 . S
C855 H871 0.961 . S
C856 C857 1.370 . S
C856 C858 1.363 . S
C856 H872 0.931 . S
C857 C856 1.370 . S
C857 C861 1.408 . S
C858 C856 1.363 . S
C858 C859 1.370 . S
C858 C862 1.524 . S
C859 C851 1.503 . S
C859 C858 1.370 . S
C859 C860 1.403 . S
C860 C859 1.403 . S
C860 C861 1.404 . S
C860 C863 1.539 . S
C861 C857 1.408 . S
C861 C860 1.404 . S
C861 H873 0.930 . S
C862 C858 1.524 . S
C862 H874 0.956 . S
C862 H875 0.961 . S
C862 H876 0.961 1_545 S
C863 C860 1.539 . S
C863 H877 0.958 . S
C863 H878 0.961 . S
C863 H879 0.960 . S
H864 C848 0.931 . S
H865 C853 0.929 . S
H866 C854 0.960 . S
H867 C854 0.962 . S
H868 C854 0.960 . S
H869 C855 0.961 . S
H870 C855 0.961 . S
H871 C855 0.961 . S
H872 C856 0.931 . S
H873 C861 0.930 . S
H874 C862 0.956 . S
H875 C862 0.961 . S
H876 C862 0.961 1_565 S
H877 C863 0.958 . S
H878 C863 0.961 . S
H879 C863 0.960 . S
C880 C881 1.391 . S
C880 C882 1.394 . S
C880 H896 0.931 . S
C881 C880 1.391 . S
C881 C885 1.376 . S
C882 C880 1.394 . S
C882 C883 1.369 . S
C882 C886 1.531 . S
C883 C882 1.369 . S
C883 C884 1.410 . S
C883 C891 1.503 . S
C884 C883 1.410 . S
C884 C885 1.392 . S
C884 C887 1.511 . S
C885 C881 1.376 . S
C885 C884 1.392 . S
C885 H897 0.929 . S
C886 C882 1.531 . S
C886 H898 0.960 . S
C886 H899 0.962 . S
C886 H900 0.960 . S
C887 C884 1.511 . S
C887 H901 0.961 . S
C887 H902 0.961 . S
C887 H903 0.961 . S
C888 C889 1.370 . S
C888 C890 1.363 . S
C888 H904 0.931 . S
C889 C888 1.370 . S
C889 C893 1.408 . S
C890 C888 1.363 . S
C890 C891 1.370 . S
C890 C894 1.524 . S
C891 C883 1.503 . S
C891 C890 1.370 . S
C891 C892 1.403 . S
C892 C891 1.403 . S
C892 C893 1.404 . S
C892 C895 1.539 . S
C893 C889 1.408 . S
C893 C892 1.404 . S
C893 H905 0.930 . S
C894 C890 1.524 . S
C894 H906 0.956 . S
C894 H907 0.961 . S
C894 H908 0.961 . S
C895 C892 1.539 . S
C895 H909 0.958 . S
C895 H910 0.961 . S
C895 H911 0.960 . S
H896 C880 0.931 . S
H897 C885 0.929 . S
H898 C886 0.960 . S
H899 C886 0.962 . S
H900 C886 0.960 . S
H901 C887 0.961 . S
H902 C887 0.961 . S
H903 C887 0.961 . S
H904 C888 0.931 . S
H905 C893 0.930 . S
H906 C894 0.956 . S
H907 C894 0.961 . S
H908 C894 0.961 . S
H909 C895 0.958 . S
H910 C895 0.961 . S
H911 C895 0.960 . S
C912 C913 1.391 . S
C912 C914 1.394 . S
C912 H928 0.931 . S
C913 C912 1.391 . S
C913 C917 1.376 . S
C914 C912 1.394 . S
C914 C915 1.369 . S
C914 C918 1.531 . S
C915 C914 1.369 . S
C915 C916 1.410 . S
C915 C923 1.503 . S
C916 C915 1.410 . S
C916 C917 1.392 . S
C916 C919 1.511 . S
C917 C913 1.376 . S
C917 C916 1.392 . S
C917 H929 0.929 . S
C918 C914 1.531 . S
C918 H930 0.960 . S
C918 H931 0.962 1_455 S
C918 H932 0.960 . S
C919 C916 1.511 . S
C919 H933 0.961 . S
C919 H934 0.961 . S
C919 H935 0.961 . S
C920 C921 1.370 . S
C920 C922 1.363 . S
C920 H936 0.931 . S
C921 C920 1.370 . S
C921 C925 1.408 . S
C922 C920 1.363 . S
C922 C923 1.370 . S
C922 C926 1.524 . S
C923 C915 1.503 . S
C923 C922 1.370 . S
C923 C924 1.403 . S
C924 C923 1.403 . S
C924 C925 1.404 . S
C924 C927 1.539 . S
C925 C921 1.408 . S
C925 C924 1.404 . S
C925 H937 0.930 . S
C926 C922 1.524 . S
C926 H938 0.956 . S
C926 H939 0.961 . S
C926 H940 0.961 . S
C927 C924 1.539 . S
C927 H941 0.958 . S
C927 H942 0.961 . S
C927 H943 0.960 . S
H928 C912 0.931 . S
H929 C917 0.929 . S
H930 C918 0.960 . S
H931 C918 0.962 1_655 S
H932 C918 0.960 . S
H933 C919 0.961 . S
H934 C919 0.961 . S
H935 C919 0.961 . S
H936 C920 0.931 . S
H937 C925 0.930 . S
H938 C926 0.956 . S
H939 C926 0.961 . S
H940 C926 0.961 . S
H941 C927 0.958 . S
H942 C927 0.961 . S
H943 C927 0.960 . S
C944 C945 1.391 . S
C944 C946 1.394 . S
C944 H960 0.931 . S
C945 C944 1.391 . S
C945 C949 1.376 . S
C946 C944 1.394 . S
C946 C947 1.369 . S
C946 C950 1.531 . S
C947 C946 1.369 . S
C947 C948 1.410 . S
C947 C955 1.503 . S
C948 C947 1.410 . S
C948 C949 1.392 . S
C948 C951 1.511 . S
C949 C945 1.376 . S
C949 C948 1.392 . S
C949 H961 0.929 . S
C950 C946 1.531 . S
C950 H962 0.960 . S
C950 H963 0.962 1_565 S
C950 H964 0.960 . S
C951 C948 1.511 . S
C951 H965 0.961 1_556 S
C951 H966 0.959 1_556 S
C951 H967 0.961 . S
C952 C953 1.370 . S
C952 C954 1.363 . S
C952 H968 0.931 1_565 S
C953 C952 1.370 . S
C953 C957 1.408 . S
C954 C952 1.363 . S
C954 C955 1.370 . S
C954 C958 1.524 . S
C955 C947 1.503 . S
C955 C954 1.370 . S
C955 C956 1.403 . S
C956 C955 1.403 . S
C956 C957 1.404 . S
C956 C959 1.539 . S
C957 C953 1.408 . S
C957 C956 1.404 . S
C957 H969 0.930 . S
C958 C954 1.524 . S
C958 H970 0.956 1_565 S
C958 H971 0.961 . S
C958 H972 0.961 1_566 S
C959 C956 1.539 . S
C959 H973 0.958 . S
C959 H974 0.961 . S
C959 H975 0.960 . S
H960 C944 0.931 . S
H961 C949 0.929 . S
H962 C950 0.960 . S
H963 C950 0.962 1_545 S
H964 C950 0.960 . S
H965 C951 0.961 1_554 S
H966 C951 0.959 1_554 S
H967 C951 0.961 . S
H968 C952 0.931 1_545 S
H969 C957 0.930 . S
H970 C958 0.956 1_545 S
H971 C958 0.961 . S
H972 C958 0.961 1_544 S
H973 C959 0.958 . S
H974 C959 0.961 . S
H975 C959 0.960 . S
C976 C977 1.391 . S
C976 C978 1.394 . S
C976 H992 0.931 . S
C977 C976 1.391 . S
C977 C981 1.376 . S
C978 C976 1.394 . S
C978 C979 1.369 . S
C978 C982 1.531 . S
C979 C978 1.369 . S
C979 C980 1.410 . S
C979 C987 1.503 . S
C980 C979 1.410 . S
C980 C981 1.392 . S
C980 C983 1.511 . S
C981 C977 1.376 . S
C981 C980 1.392 . S
C981 H993 0.929 . S
C982 C978 1.531 . S
C982 H994 0.960 . S
C982 H995 0.962 . S
C982 H996 0.960 . S
C983 C980 1.511 . S
C983 H997 0.961 . S
C983 H998 0.961 . S
C983 H999 0.961 . S
C984 C985 1.370 . S
C984 C986 1.363 . S
C984 H1000 0.931 . S
C985 C984 1.370 . S
C985 C989 1.408 . S
C986 C984 1.363 . S
C986 C987 1.370 . S
C986 C990 1.524 . S
C987 C979 1.503 . S
C987 C986 1.370 . S
C987 C988 1.403 . S
C988 C987 1.403 . S
C988 C989 1.404 . S
C988 C991 1.539 . S
C989 C985 1.408 . S
C989 C988 1.404 . S
C989 H1001 0.930 . S
C990 C986 1.524 . S
C990 H1002 0.956 . S
C990 H1003 0.961 . S
C990 H1004 0.961 . S
C991 C988 1.539 . S
C991 H1005 0.958 . S
C991 H1006 0.961 . S
C991 H1007 0.960 . S
H992 C976 0.931 . S
H993 C981 0.929 . S
H994 C982 0.960 . S
H995 C982 0.962 . S
H996 C982 0.960 . S
H997 C983 0.961 . S
H998 C983 0.961 . S
H999 C983 0.961 . S
H1000 C984 0.931 . S
H1001 C989 0.930 . S
H1002 C990 0.956 . S
H1003 C990 0.961 . S
H1004 C990 0.961 . S
H1005 C991 0.958 . S
H1006 C991 0.961 . S
H1007 C991 0.960 . S
C1008 C1009 1.391 . S
C1008 C1010 1.394 . S
C1008 H1024 0.931 . S
C1009 C1008 1.391 . S
C1009 C1013 1.376 . S
C1010 C1008 1.394 . S
C1010 C1011 1.369 . S
C1010 C1014 1.531 . S
C1011 C1010 1.369 . S
C1011 C1012 1.410 . S
C1011 C1019 1.503 . S
C1012 C1011 1.410 . S
C1012 C1013 1.392 . S
C1012 C1015 1.511 . S
C1013 C1009 1.376 . S
C1013 C1012 1.392 . S
C1013 H1025 0.929 . S
C1014 C1010 1.531 . S
C1014 H1026 0.960 . S
C1014 H1027 0.962 . S
C1014 H1028 0.960 . S
C1015 C1012 1.511 . S
C1015 H1029 0.961 . S
C1015 H1030 0.961 . S
C1015 H1031 0.961 . S
C1016 C1017 1.370 . S
C1016 C1018 1.363 . S
C1016 H1032 0.931 1_554 S
C1017 C1016 1.370 . S
C1017 C1021 1.408 . S
C1018 C1016 1.363 . S
C1018 C1019 1.370 . S
C1018 C1022 1.524 . S
C1019 C1011 1.503 . S
C1019 C1018 1.370 . S
C1019 C1020 1.403 . S
C1020 C1019 1.403 . S
C1020 C1021 1.404 . S
C1020 C1023 1.539 . S
C1021 C1017 1.408 . S
C1021 C1020 1.404 . S
C1021 H1033 0.930 . S
C1022 C1018 1.524 . S
C1022 H1034 0.956 . S
C1022 H1035 0.961 . S
C1022 H1036 0.961 1_554 S
C1023 C1020 1.539 . S
C1023 H1037 0.958 . S
C1023 H1038 0.961 . S
C1023 H1039 0.960 . S
H1024 C1008 0.931 . S
H1025 C1013 0.929 . S
H1026 C1014 0.960 . S
H1027 C1014 0.962 . S
H1028 C1014 0.960 . S
H1029 C1015 0.961 . S
H1030 C1015 0.961 . S
H1031 C1015 0.961 . S
H1032 C1016 0.931 1_556 S
H1033 C1021 0.930 . S
H1034 C1022 0.956 . S
H1035 C1022 0.961 . S
H1036 C1022 0.961 1_556 S
H1037 C1023 0.958 . S
H1038 C1023 0.961 . S
H1039 C1023 0.960 . S
C1040 C1041 1.391 . S
C1040 C1042 1.394 . S
C1040 H1056 0.931 . S
C1041 C1040 1.391 . S
C1041 C1045 1.376 . S
C1042 C1040 1.394 . S
C1042 C1043 1.369 . S
C1042 C1046 1.531 . S
C1043 C1042 1.369 . S
C1043 C1044 1.410 . S
C1043 C1051 1.503 . S
C1044 C1043 1.410 . S
C1044 C1045 1.392 . S
C1044 C1047 1.511 . S
C1045 C1041 1.376 . S
C1045 C1044 1.392 . S
C1045 H1057 0.929 . S
C1046 C1042 1.531 . S
C1046 H1058 0.960 . S
C1046 H1059 0.962 . S
C1046 H1060 0.960 . S
C1047 C1044 1.511 . S
C1047 H1061 0.961 . S
C1047 H1062 0.961 . S
C1047 H1063 0.961 . S
C1048 C1049 1.370 . S
C1048 C1050 1.363 . S
C1048 H1064 0.931 . S
C1049 C1048 1.370 . S
C1049 C1053 1.408 . S
C1050 C1048 1.363 . S
C1050 C1051 1.370 . S
C1050 C1054 1.524 . S
C1051 C1043 1.503 . S
C1051 C1050 1.370 . S
C1051 C1052 1.403 . S
C1052 C1051 1.403 . S
C1052 C1053 1.404 . S
C1052 C1055 1.539 . S
C1053 C1049 1.408 . S
C1053 C1052 1.404 . S
C1053 H1065 0.930 . S
C1054 C1050 1.524 . S
C1054 H1066 0.956 . S
C1054 H1067 0.961 . S
C1054 H1068 0.961 . S
C1055 C1052 1.539 . S
C1055 H1069 0.958 . S
C1055 H1070 0.961 . S
C1055 H1071 0.960 . S
H1056 C1040 0.931 . S
H1057 C1045 0.929 . S
H1058 C1046 0.960 . S
H1059 C1046 0.962 . S
H1060 C1046 0.960 . S
H1061 C1047 0.961 . S
H1062 C1047 0.961 . S
H1063 C1047 0.961 . S
H1064 C1048 0.931 . S
H1065 C1053 0.930 . S
H1066 C1054 0.956 . S
H1067 C1054 0.961 . S
H1068 C1054 0.961 . S
H1069 C1055 0.958 . S
H1070 C1055 0.961 . S
H1071 C1055 0.960 . S
C1072 C1073 1.391 . S
C1072 C1074 1.394 . S
C1072 H1088 0.931 . S
C1073 C1072 1.391 . S
C1073 C1077 1.376 . S
C1074 C1072 1.394 . S
C1074 C1075 1.369 . S
C1074 C1078 1.531 1_556 S
C1075 C1074 1.369 . S
C1075 C1076 1.410 . S
C1075 C1083 1.503 . S
C1076 C1075 1.410 . S
C1076 C1077 1.392 . S
C1076 C1079 1.511 . S
C1077 C1073 1.376 . S
C1077 C1076 1.392 . S
C1077 H1089 0.929 . S
C1078 C1074 1.531 1_554 S
C1078 H1090 0.960 . S
C1078 H1091 0.962 . S
C1078 H1092 0.960 . S
C1079 C1076 1.511 . S
C1079 H1093 0.961 . S
C1079 H1094 0.961 . S
C1079 H1095 0.961 . S
C1080 C1081 1.370 . S
C1080 C1082 1.363 . S
C1080 H1096 0.931 1_655 S
C1081 C1080 1.370 . S
C1081 C1085 1.408 . S
C1082 C1080 1.363 . S
C1082 C1083 1.370 . S
C1082 C1086 1.509 1_655 S
C1083 C1075 1.503 . S
C1083 C1082 1.370 . S
C1083 C1084 1.403 . S
C1084 C1083 1.403 . S
C1084 C1085 1.404 . S
C1084 C1087 1.539 . S
C1085 C1081 1.408 . S
C1085 C1084 1.404 . S
C1085 H1097 0.930 . S
C1086 C1082 1.509 1_455 S
C1086 H1098 0.964 . S
C1086 H1099 0.946 1_455 S
C1086 H1100 0.984 . S
C1087 C1084 1.539 . S
C1087 H1101 0.958 1_556 S
C1087 H1102 0.961 . S
C1087 H1103 0.960 . S
H1088 C1072 0.931 . S
H1089 C1077 0.929 . S
H1090 C1078 0.960 . S
H1091 C1078 0.962 . S
H1092 C1078 0.960 . S
H1093 C1079 0.961 . S
H1094 C1079 0.961 . S
H1095 C1079 0.961 . S
H1096 C1080 0.931 1_455 S
H1097 C1085 0.930 . S
H1098 C1086 0.964 . S
H1099 C1086 0.946 1_655 S
H1100 C1086 0.984 . S
H1101 C1087 0.958 1_554 S
H1102 C1087 0.961 . S
H1103 C1087 0.960 . S
C1104 C1105 1.391 . S
C1104 C1106 1.394 . S
C1104 H1120 0.931 . S
C1105 C1104 1.391 . S
C1105 C1109 1.376 . S
C1106 C1104 1.394 . S
C1106 C1107 1.369 . S
C1106 C1110 1.531 . S
C1107 C1106 1.369 . S
C1107 C1108 1.410 . S
C1107 C1115 1.503 . S
C1108 C1107 1.410 . S
C1108 C1109 1.392 . S
C1108 C1111 1.511 . S
C1109 C1105 1.376 . S
C1109 C1108 1.392 . S
C1109 H1121 0.929 . S
C1110 C1106 1.531 . S
C1110 H1122 0.960 . S
C1110 H1123 0.962 . S
C1110 H1124 0.960 . S
C1111 C1108 1.511 . S
C1111 H1125 0.961 . S
C1111 H1126 0.961 . S
C1111 H1127 0.961 . S
C1112 C1113 1.370 . S
C1112 C1114 1.363 . S
C1112 H1128 0.931 . S
C1113 C1112 1.370 . S
C1113 C1117 1.408 . S
C1114 C1112 1.363 . S
C1114 C1115 1.370 . S
C1114 C1118 1.524 . S
C1115 C1107 1.503 . S
C1115 C1114 1.370 . S
C1115 C1116 1.403 . S
C1116 C1115 1.403 . S
C1116 C1117 1.404 . S
C1116 C1119 1.539 . S
C1117 C1113 1.408 . S
C1117 C1116 1.404 . S
C1117 H1129 0.930 . S
C1118 C1114 1.524 . S
C1118 H1130 0.956 . S
C1118 H1131 0.961 . S
C1118 H1132 0.961 . S
C1119 C1116 1.539 . S
C1119 H1133 0.958 . S
C1119 H1134 0.961 . S
C1119 H1135 0.960 . S
H1120 C1104 0.931 . S
H1121 C1109 0.929 . S
H1122 C1110 0.960 . S
H1123 C1110 0.962 . S
H1124 C1110 0.960 . S
H1125 C1111 0.961 . S
H1126 C1111 0.961 . S
H1127 C1111 0.961 . S
H1128 C1112 0.931 . S
H1129 C1117 0.930 . S
H1130 C1118 0.956 . S
H1131 C1118 0.961 . S
H1132 C1118 0.961 . S
H1133 C1119 0.958 . S
H1134 C1119 0.961 . S
H1135 C1119 0.960 . S
C1136 C1137 1.391 . S
C1136 C1138 1.394 . S
C1136 H1152 0.931 . S
C1137 C1136 1.391 . S
C1137 C1141 1.376 . S
C1138 C1136 1.394 . S
C1138 C1139 1.369 . S
C1138 C1142 1.531 . S
C1139 C1138 1.369 . S
C1139 C1140 1.410 . S
C1139 C1147 1.503 . S
C1140 C1139 1.410 . S
C1140 C1141 1.392 . S
C1140 C1143 1.511 1_455 S
C1141 C1137 1.376 . S
C1141 C1140 1.392 . S
C1141 H1153 0.929 . S
C1142 C1138 1.531 . S
C1142 H1154 0.960 . S
C1142 H1155 0.962 . S
C1142 H1156 0.960 . S
C1143 C1140 1.511 1_655 S
C1143 H1157 0.961 . S
C1143 H1158 0.960 1_655 S
C1143 H1159 0.961 . S
C1144 C1145 1.370 . S
C1144 C1146 1.363 . S
C1144 H1160 0.931 . S
C1145 C1144 1.370 . S
C1145 C1149 1.408 . S
C1146 C1144 1.363 . S
C1146 C1147 1.370 . S
C1146 C1150 1.524 . S
C1147 C1139 1.503 . S
C1147 C1146 1.370 . S
C1147 C1148 1.403 . S
C1148 C1147 1.403 . S
C1148 C1149 1.404 . S
C1148 C1151 1.539 1_455 S
C1149 C1145 1.408 . S
C1149 C1148 1.404 . S
C1149 H1161 0.930 1_455 S
C1150 C1146 1.524 . S
C1150 H1162 0.956 . S
C1150 H1163 0.961 . S
C1150 H1164 0.961 . S
C1151 C1148 1.539 1_655 S
C1151 H1165 0.958 . S
C1151 H1166 0.961 . S
C1151 H1167 0.960 . S
H1152 C1136 0.931 . S
H1153 C1141 0.929 . S
H1154 C1142 0.960 . S
H1155 C1142 0.962 . S
H1156 C1142 0.960 . S
H1157 C1143 0.961 . S
H1158 C1143 0.960 1_455 S
H1159 C1143 0.961 . S
H1160 C1144 0.931 . S
H1161 C1149 0.930 1_655 S
H1162 C1150 0.956 . S
H1163 C1150 0.961 . S
H1164 C1150 0.961 . S
H1165 C1151 0.958 . S
H1166 C1151 0.961 . S
H1167 C1151 0.960 . S
C1168 C1169 1.391 . S
C1168 C1170 1.394 . S
C1168 H1184 0.931 . S
C1169 C1168 1.391 . S
C1169 C1173 1.376 . S
C1170 C1168 1.394 . S
C1170 C1171 1.369 . S
C1170 C1174 1.531 . S
C1171 C1170 1.369 . S
C1171 C1172 1.410 . S
C1171 C1179 1.503 . S
C1172 C1171 1.410 . S
C1172 C1173 1.392 . S
C1172 C1175 1.511 . S
C1173 C1169 1.376 . S
C1173 C1172 1.392 . S
C1173 H1185 0.929 . S
C1174 C1170 1.531 . S
C1174 H1186 0.960 . S
C1174 H1187 0.962 . S
C1174 H1188 0.960 . S
C1175 C1172 1.511 . S
C1175 H1189 0.961 . S
C1175 H1190 0.961 . S
C1175 H1191 0.961 . S
C1176 C1177 1.370 . S
C1176 C1178 1.363 . S
C1176 H1192 0.931 . S
C1177 C1176 1.370 . S
C1177 C1181 1.408 . S
C1178 C1176 1.363 . S
C1178 C1179 1.370 . S
C1178 C1182 1.524 . S
C1179 C1171 1.503 . S
C1179 C1178 1.370 . S
C1179 C1180 1.403 . S
C1180 C1179 1.403 . S
C1180 C1181 1.404 . S
C1180 C1183 1.539 . S
C1181 C1177 1.408 . S
C1181 C1180 1.404 . S
C1181 H1193 0.930 . S
C1182 C1178 1.524 . S
C1182 H1194 0.956 . S
C1182 H1195 0.961 . S
C1182 H1196 0.961 . S
C1183 C1180 1.539 . S
C1183 H1197 0.958 . S
C1183 H1198 0.961 . S
C1183 H1199 0.960 . S
H1184 C1168 0.931 . S
H1185 C1173 0.929 . S
H1186 C1174 0.960 . S
H1187 C1174 0.962 . S
H1188 C1174 0.960 . S
H1189 C1175 0.961 . S
H1190 C1175 0.961 . S
H1191 C1175 0.961 . S
H1192 C1176 0.931 . S
H1193 C1181 0.930 . S
H1194 C1182 0.956 . S
H1195 C1182 0.961 . S
H1196 C1182 0.961 . S
H1197 C1183 0.958 . S
H1198 C1183 0.961 . S
H1199 C1183 0.960 . S
C433 C1 2.180 . S
C441 C328 2.189 . S
C465 C40 1.132 . S
C473 N348 1.114 . S
C505 C382 2.001 . S
C497 C99 1.992 . S
C529 C118 1.328 . S
C537 N416 1.278 . S
C569 C369 2.361 . S
C561 C16 2.330 . S
C601 N326 1.158 . S
C593 C60 1.238 . S
C633 C403 2.018 . S
C625 C79 2.005 . S
C665 N378 1.026 . S
C657 C138 0.989 . S
C689 C21 1.824 . S
C697 C418 1.853 . S
C729 C352 1.742 . S
C721 C94 1.705 . S
C753 C133 1.483 . S
C761 C313 1.480 . S
C785 C55 1.463 . S
C793 C399 1.475 . S
C825 C339 2.193 . S
C817 C157 2.180 . S
C849 C196 1.106 . S
C857 N356 1.102 . S
C881 C255 1.963 . S
C889 C373 2.003 . S
C913 C289 1.313 . S
C921 N408 1.294 . S
C945 C172 2.330 . S
C953 C358 2.362 . S
C985 N318 1.190 . S
C977 C216 1.198 . S
C1017 C412 2.022 . S
C1009 C235 1.987 . S
C1049 N386 1.045 . S
C1041 C294 1.057 . S
C1073 C177 1.820 . S
C1081 C429 1.853 . S
C1113 C343 1.744 . S
C1105 C250 1.706 . S
C1145 C322 1.483 . S
C1137 C274 1.469 . S
C1169 C211 1.446 . S
C1177 C388 1.470 . S
