# Generated by pormake.
# Topology rtl, (3,6)-cn, num edge types: 1
# Building blocks:
#     Node 0, Type 0, BuildingBlock: MIDCAF_clean_linker_0, # of connection points: 3
#     Node 1, Type 0, BuildingBlock: MIDCAF_clean_linker_0, # of connection points: 3
#     Node 2, Type 0, BuildingBlock: MIDCAF_clean_linker_0, # of connection points: 3
#     Node 3, Type 0, BuildingBlock: MIDCAF_clean_linker_0, # of connection points: 3
#     Node 4, Type 1, BuildingBlock: LEVNOQ01_clean_sbu_1, # of connection points: 6
#     Node 5, Type 1, BuildingBlock: LEVNOQ01_clean_sbu_1, # of connection points: 6
#     Edge 6, Type (0, 1), BuildingBlock: OJICUG_clean_linker_0, # of connection points: 2
#     Edge 7, Type (0, 1), BuildingBlock: OJICUG_clean_linker_0, # of connection points: 2
#     Edge 8, Type (0, 1), BuildingBlock: OJICUG_clean_linker_0, # of connection points: 2
#     Edge 9, Type (0, 1), BuildingBlock: OJICUG_clean_linker_0, # of connection points: 2
#     Edge 10, Type (0, 1), BuildingBlock: OJICUG_clean_linker_0, # of connection points: 2
#     Edge 11, Type (0, 1), BuildingBlock: OJICUG_clean_linker_0, # of connection points: 2
#     Edge 12, Type (0, 1), BuildingBlock: OJICUG_clean_linker_0, # of connection points: 2
#     Edge 13, Type (0, 1), BuildingBlock: OJICUG_clean_linker_0, # of connection points: 2
#     Edge 14, Type (0, 1), BuildingBlock: OJICUG_clean_linker_0, # of connection points: 2
#     Edge 15, Type (0, 1), BuildingBlock: OJICUG_clean_linker_0, # of connection points: 2
#     Edge 16, Type (0, 1), BuildingBlock: OJICUG_clean_linker_0, # of connection points: 2
#     Edge 17, Type (0, 1), BuildingBlock: OJICUG_clean_linker_0, # of connection points: 2
# Relax obj value: 0.027
# Max RMSD: 0.061
# Mean RMSD: 0.047
data_MOF--net-rtl--node1-LEVNOQ01_clean_sbu_1--node2-MIDCAF_clean_linker_0--edge1-OJICUG_clean_linker_0
_symmetry_space_group_name_H-M    P1
_symmetry_Int_Tables_number       1
_symmetry_cell_setting            triclinic
loop_
_symmetry_equiv_pos_as_xyz
'x, y, z'
_cell_length_a     29.332873
_cell_length_b     32.479092
_cell_length_c     23.1585
_cell_angle_alpha  89.913375
_cell_angle_beta   98.417323
_cell_angle_gamma 90.203442
loop_
_atom_site_label
_atom_site_type_symbol
_atom_site_fract_x
_atom_site_fract_y
_atom_site_fract_z
_atom_type_partial_charge
C0 C 0.19121 0.9799 0.27018 0.0
C1 C 0.21538 0.9664 0.32382 0.0
C2 C 0.25293 0.93964 0.32311 0.0
C3 C 0.26332 0.92391 0.27039 0.0
H4 H 0.33675 0.82911 0.20014 0.0
H5 H 0.38258 0.76628 0.20031 0.0
H6 H 0.30466 0.73118 0.0349 0.0
H7 H 0.25924 0.79388 0.03418 0.0
H8 H 0.22921 0.87842 0.94922 0.0
H9 H 0.19191 0.90678 0.85658 0.0
H10 H 0.12554 0.99863 0.95002 0.0
H11 H 0.16346 0.97121 0.04206 0.0
H12 H 0.18092 0.97407 0.17734 0.0
H13 H 0.16176 1.00009 0.2687 0.0
H14 H 0.27296 0.92927 0.36349 0.0
H15 H 0.29105 0.90185 0.27167 0.0
N16 N 0.26673 0.87774 0.16395 0.0
N17 N 0.24734 0.87072 0.06242 0.0
N18 N 0.22096 0.92755 0.11012 0.0
C19 C 0.26909 0.8561 0.1143 0.0
C20 C 0.22336 0.90658 0.05993 0.0
C21 C 0.24263 0.91348 0.16224 0.0
C22 C 0.29471 0.81675 0.11676 0.0
C23 C 0.32899 0.80772 0.16417 0.0
C24 C 0.35516 0.77175 0.16444 0.0
C25 C 0.34692 0.74373 0.1179 0.0
C26 C 0.31129 0.75188 0.07185 0.0
C27 C 0.28568 0.7881 0.07107 0.0
C28 C 0.19971 0.92268 0.0033 0.0
C29 C 0.20663 0.90465 0.95002 0.0
C30 C 0.18505 0.92078 0.89683 0.0
C31 C 0.15601 0.95523 0.89573 0.0
C32 C 0.14848 0.97266 0.94907 0.0
C33 C 0.17011 0.95672 0.00205 0.0
C34 C 0.23678 0.93501 0.21713 0.0
C35 C 0.20193 0.96456 0.2175 0.0
C36 C 0.63151 0.57253 0.43687 0.0
C37 C 0.64389 0.58465 0.38288 0.0
C38 C 0.68109 0.61222 0.3829 0.0
C39 C 0.70537 0.62694 0.43548 0.0
H40 H 0.76275 0.73875 0.51827 0.0
H41 H 0.80728 0.80243 0.52263 0.0
H42 H 0.87693 0.76891 0.69336 0.0
H43 H 0.8323 0.70505 0.68936 0.0
H44 H 0.78953 0.62996 0.75653 0.0
H45 H 0.77055 0.60243 0.84805 0.0
H46 H 0.65846 0.53268 0.75226 0.0
H47 H 0.67845 0.55875 0.6613 0.0
H48 H 0.64557 0.57652 0.52985 0.0
H49 H 0.60241 0.55226 0.4389 0.0
H50 H 0.69212 0.62189 0.34236 0.0
H51 H 0.73406 0.64781 0.43396 0.0
N52 N 0.74492 0.66369 0.54799 0.0
N53 N 0.76581 0.65482 0.64905 0.0
N54 N 0.7174 0.60676 0.59505 0.0
C55 C 0.76806 0.67716 0.59984 0.0
C56 C 0.74061 0.61954 0.64702 0.0
C57 C 0.71961 0.6284 0.5453 0.0
C58 C 0.79421 0.71651 0.6032 0.0
C59 C 0.78732 0.74496 0.55695 0.0
C60 C 0.81242 0.78175 0.55975 0.0
C61 C 0.84534 0.7908 0.60855 0.0
C62 C 0.85172 0.76276 0.65526 0.0
C63 C 0.82619 0.72617 0.65282 0.0
C64 C 0.73477 0.59743 0.70158 0.0
C65 C 0.76147 0.60803 0.75498 0.0
C66 C 0.75059 0.59222 0.80752 0.0
C67 C 0.71239 0.5659 0.80786 0.0
C68 C 0.68834 0.55257 0.75406 0.0
C69 C 0.69953 0.56799 0.70158 0.0
C70 C 0.69343 0.614 0.48926 0.0
C71 C 0.65616 0.5867 0.48926 0.0
C72 C 0.81562 0.06267 0.82036 0.0
C73 C 0.79329 0.07845 0.76706 0.0
C74 C 0.75741 0.10697 0.76825 0.0
C75 C 0.74666 0.1217 0.82139 0.0
H76 H 0.69748 0.23022 0.89195 0.0
H77 H 0.64763 0.2905 0.89618 0.0
H78 H 0.65546 0.27429 0.0822 0.0
H79 H 0.70502 0.21489 0.07874 0.0
H80 H 0.77014 0.14933 0.14568 0.0
H81 H 0.81045 0.12104 0.23643 0.0
H82 H 0.89064 0.04358 0.13805 0.0
H83 H 0.84943 0.07079 0.04752 0.0
H84 H 0.82409 0.06541 0.91334 0.0
H85 H 0.84385 0.04115 0.82154 0.0
H86 H 0.73889 0.11926 0.72807 0.0
H87 H 0.72013 0.14488 0.82062 0.0
N88 N 0.73823 0.16153 0.93183 0.0
N89 N 0.75537 0.16351 0.034 0.0
N90 N 0.78617 0.11139 0.9819 0.0
C91 C 0.73358 0.17993 0.98336 0.0
C92 C 0.7818 0.12933 0.0337 0.0
C93 C 0.76435 0.12705 0.93081 0.0
C94 C 0.70499 0.21741 0.98496 0.0
C95 C 0.68878 0.23969 0.9338 0.0
C96 C 0.66061 0.27432 0.93611 0.0
C97 C 0.64782 0.28675 0.98945 0.0
C98 C 0.66483 0.26513 0.04052 0.0
C99 C 0.69321 0.23105 0.03841 0.0
C100 C 0.80635 0.11226 0.08913 0.0
C101 C 0.79633 0.12622 0.14337 0.0
C102 C 0.81967 0.11015 0.19552 0.0
C103 C 0.8538 0.07993 0.19474 0.0
C104 C 0.86398 0.06623 0.14045 0.0
C105 C 0.84044 0.08204 0.08838 0.0
C106 C 0.77126 0.10792 0.87457 0.0
C107 C 0.80463 0.07708 0.87335 0.0
C108 C 0.35241 0.47328 0.63025 0.0
C109 C 0.3445 0.45529 0.68317 0.0
C110 C 0.31621 0.42011 0.68126 0.0
C111 C 0.29565 0.40386 0.62762 0.0
H112 H 0.24589 0.29317 0.54177 0.0
H113 H 0.2019 0.2294 0.53974 0.0
H114 H 0.1268 0.26271 0.37187 0.0
H115 H 0.17117 0.32678 0.3735 0.0
H116 H 0.21198 0.40638 0.30611 0.0
H117 H 0.22868 0.43735 0.21554 0.0
H118 H 0.34413 0.50265 0.31203 0.0
H119 H 0.32602 0.47349 0.40212 0.0
H120 H 0.33873 0.4722 0.53724 0.0
H121 H 0.37486 0.4998 0.62993 0.0
H122 H 0.30918 0.40562 0.72119 0.0
H123 H 0.27359 0.37706 0.62771 0.0
N124 N 0.25713 0.36996 0.51401 0.0
N125 N 0.23884 0.37777 0.4124 0.0
N126 N 0.2829 0.42803 0.46795 0.0
C127 C 0.23636 0.35541 0.46156 0.0
C128 C 0.26221 0.41411 0.41528 0.0
C129 C 0.28032 0.40638 0.51759 0.0
C130 C 0.2117 0.31535 0.45813 0.0
C131 C 0.22038 0.28681 0.50406 0.0
C132 C 0.19559 0.24995 0.50255 0.0
C133 C 0.16112 0.24092 0.45542 0.0
C134 C 0.15328 0.26884 0.40863 0.0
C135 C 0.17863 0.30553 0.4097 0.0
C136 C 0.26817 0.43682 0.36127 0.0
C137 C 0.24041 0.42795 0.30797 0.0
C138 C 0.25008 0.4457 0.25598 0.0
C139 C 0.28827 0.47212 0.25593 0.0
C140 C 0.31409 0.48296 0.3099 0.0
C141 C 0.30397 0.46577 0.36186 0.0
C142 C 0.30291 0.42248 0.57476 0.0
C143 C 0.33181 0.45723 0.57688 0.0
O144 O 0.93923 0.10073 0.61125 0.0
Mg145 Mg 0.01014 0.09629 0.61459 0.0
O146 O 0.93735 0.03509 0.58809 0.0
Mg147 Mg 0.00452 0.0202 0.54576 0.0
O148 O 0.03293 0.08765 0.53646 0.0
O149 O 0.03801 0.14758 0.58577 0.0
O150 O 0.07217 0.0075 0.50295 0.0
O151 O 0.96108 0.03238 0.45483 0.0
Mg152 Mg 0.00668 0.94852 0.48283 0.0
O153 O 0.97455 0.95227 0.55526 0.0
O154 O 0.07781 0.94091 0.4947 0.0
O155 O 0.97201 0.97618 0.40565 0.0
O156 O 0.97772 0.89513 0.50069 0.0
C157 C 0.06102 0.02873 0.68336 0.0
C158 C 0.91771 0.06699 0.6051 0.0
C159 C 0.04541 0.12623 0.54117 0.0
C160 C 0.09569 0.97603 0.49292 0.0
C161 C 0.95484 0.01181 0.40745 0.0
C162 C 0.96466 0.91351 0.54472 0.0
O163 O 0.04981 0.06626 0.68582 0.0
O164 O 0.04829 0.00774 0.63718 0.0
O165 O 0.51505 0.48926 0.17074 0.0
Mg166 Mg 0.48532 0.46181 0.09004 0.0
O167 O 0.54263 0.5376 0.11945 0.0
Mg168 Mg 0.49743 0.52325 0.0311 0.0
O169 O 0.52502 0.45281 0.02592 0.0
O170 O 0.5102 0.40492 0.09102 0.0
O171 O 0.45203 0.50957 0.94124 0.0
O172 O 0.56446 0.53252 0.98636 0.0
Mg173 Mg 0.49604 0.59882 0.95601 0.0
O174 O 0.47382 0.5919 0.03453 0.0
O175 O 0.45376 0.56653 0.88894 0.0
O176 O 0.56732 0.5975 0.9599 0.0
O177 O 0.47134 0.65165 0.9853 0.0
C178 C 0.40092 0.48871 0.07913 0.0
C179 C 0.54047 0.52064 0.16851 0.0
C180 C 0.52901 0.41524 0.04627 0.0
C181 C 0.44025 0.52971 0.89397 0.0
C182 C 0.58623 0.56271 0.96769 0.0
C183 C 0.46299 0.63072 0.03 0.0
O184 O 0.41415 0.45334 0.06786 0.0
O185 O 0.42916 0.5184 0.07712 0.0
C186 C 0.08191 0.21201 0.45228 0.0
C187 C 0.12972 0.20545 0.45967 0.0
H188 H 0.01683 0.19058 0.47209 0.0
C189 C 0.14709 0.1671 0.48092 0.0
H190 H 0.06753 0.24129 0.43644 0.0
C191 C 0.11772 0.13765 0.50019 0.0
C192 C 0.07084 0.14649 0.49905 0.0
H193 H 0.1838 0.16116 0.48664 0.0
H194 H 0.13244 0.11004 0.52157 0.0
C195 C 0.05279 0.18291 0.47239 0.0
C196 C 0.42643 0.71742 0.11684 0.0
C197 C 0.37902 0.70924 0.11263 0.0
H198 H 0.49103 0.69768 0.094 0.0
C199 C 0.36232 0.67012 0.09368 0.0
H200 H 0.44022 0.74735 0.13086 0.0
C201 C 0.39182 0.64125 0.07385 0.0
C202 C 0.43803 0.65155 0.07189 0.0
H203 H 0.32592 0.66302 0.09036 0.0
H204 H 0.37747 0.6128 0.05454 0.0
C205 C 0.45559 0.68896 0.09599 0.0
C206 C 0.85867 0.86544 0.58657 0.0
C207 C 0.87621 0.82703 0.60732 0.0
H208 H 0.87413 0.92464 0.55256 0.0
C209 C 0.92418 0.82176 0.61926 0.0
H210 H 0.82182 0.8704 0.57741 0.0
C211 C 0.95383 0.85262 0.60494 0.0
C212 C 0.93612 0.88959 0.57966 0.0
H213 H 0.93873 0.79247 0.63482 0.0
H214 H -0.00957 0.84631 0.6092 0.0
C215 C 0.88852 0.89665 0.57314 0.0
C216 C 0.57382 0.3105 0.01641 0.0
C217 C 0.61387 0.31986 0.99272 0.0
H218 H 0.51524 0.33337 0.05032 0.0
C219 C 0.62286 0.36098 0.97869 0.0
H220 H 0.5659 0.27898 0.02686 0.0
C221 C 0.59365 0.39264 0.99243 0.0
C222 C 0.55541 0.38323 0.02031 0.0
H223 H 0.65368 0.36876 0.96031 0.0
H224 H 0.60246 0.42437 0.98451 0.0
C225 C 0.54492 0.34173 0.02989 0.0
C226 C 0.19424 0.94226 0.41907 0.0
C227 C 0.19637 0.97453 0.37897 0.0
H228 H 0.16136 0.91811 0.48828 0.0
C229 C 0.17322 0.01153 0.38724 0.0
H230 H 0.21139 0.91325 0.4144 0.0
C231 C 0.14403 0.01417 0.42988 0.0
C232 C 0.13755 0.97979 0.46469 0.0
H233 H 0.17504 0.03739 0.35809 0.0
H234 H 0.1234 0.04162 0.43165 0.0
C235 C 0.16524 0.94492 0.4615 0.0
C236 C 0.68992 0.59181 0.90118 0.0
C237 C 0.69217 0.55881 0.86246 0.0
H238 H 0.65489 0.61823 0.96666 0.0
C239 C 0.66732 0.52254 0.87061 0.0
H240 H 0.70832 0.6203 0.89656 0.0
C241 C 0.63626 0.5215 0.91119 0.0
C242 C 0.62969 0.55678 0.9439 0.0
H243 H 0.66911 0.49617 0.84249 0.0
H244 H 0.61418 0.49481 0.91244 0.0
C245 C 0.65901 0.59077 0.94143 0.0
C246 C 0.89026 0.02054 0.25383 0.0
C247 C 0.87865 0.06252 0.2501 0.0
H248 H 0.92319 0.97177 0.30599 0.0
C249 C 0.89143 0.08762 0.29939 0.0
H250 H 0.8802 1.00006 0.2173 0.0
C251 C 0.91564 0.07118 0.35082 0.0
C252 C 0.92788 0.02934 0.35398 0.0
H253 H 0.88357 0.12018 0.29794 0.0
H254 H 0.92542 0.0914 0.38774 0.0
C255 C 0.91472 0.00422 0.30495 0.0
C256 C 0.38452 0.44904 0.78716 0.0
C257 C 0.36561 0.47377 0.73969 0.0
H258 H 0.4229 0.44725 0.87355 0.0
C259 C 0.36848 0.51679 0.74563 0.0
H260 H 0.38305 0.41579 0.78399 0.0
C261 C 0.39155 0.53467 0.79638 0.0
C262 C 0.41207 0.51007 0.84297 0.0
H263 H 0.35326 0.53682 0.71066 0.0
H264 H 0.39382 0.56794 0.7987 0.0
C265 C 0.40745 0.46704 0.83842 0.0
C266 C 0.61042 0.59275 0.27647 0.0
C267 C 0.6182 0.56822 0.32716 0.0
H268 H 0.57998 0.59699 0.18662 0.0
C269 C 0.60075 0.52771 0.3244 0.0
H270 H 0.62269 0.62424 0.27693 0.0
C271 C 0.57547 0.51248 0.27304 0.0
C272 C 0.56759 0.53704 0.22264 0.0
H273 H 0.6069 0.50743 0.36186 0.0
H274 H 0.56247 0.48121 0.27271 0.0
C275 C 0.58567 0.57723 0.22471 0.0
C276 C 0.83386 0.03255 0.70288 0.0
C277 C 0.81287 0.07047 0.71228 0.0
H278 H 0.88348 1.00117 0.65951 0.0
C279 C 0.81816 0.1034 0.67432 0.0
H280 H 0.82955 0.00622 0.73033 0.0
C281 C 0.84842 0.10025 0.63344 0.0
C282 C 0.87413 0.06422 0.62967 0.0
H283 H 0.80271 0.13308 0.67989 0.0
H284 H 0.855 0.12744 0.60869 0.0
C285 C 0.8643 0.02943 0.66176 0.0
C286 C 0.33079 0.51966 0.19532 0.0
C287 C 0.30572 0.48303 0.20041 0.0
H288 H 0.38047 0.55087 0.15147 0.0
C289 C 0.30399 0.45356 0.15569 0.0
H290 H 0.33177 0.54367 0.22787 0.0
C291 C 0.33104 0.45816 0.11136 0.0
C292 C 0.3609 0.49205 0.111 0.0
H293 H 0.28525 0.42494 0.15758 0.0
H294 H 0.33177 0.43318 0.08054 0.0
C295 C 0.35828 0.52411 0.15102 0.0
C296 C 0.11564 0.94869 0.79195 0.0
C297 C 0.13398 0.97358 0.83952 0.0
H298 H 0.07821 0.94645 0.70509 0.0
C299 C 0.13022 0.01656 0.83368 0.0
H300 H 0.11771 0.91546 0.79505 0.0
C301 C 0.10736 0.0342 0.78261 0.0
C302 C 0.08788 0.00941 0.73563 0.0
H303 H 0.14488 0.03676 0.86878 0.0
H304 H 0.1047 0.06743 0.78025 0.0
C305 C 0.09288 0.96643 0.74045 0.0
loop_
_geom_bond_atom_site_label_1
_geom_bond_atom_site_label_2
_geom_bond_distance
_geom_bond_site_symmetry_2
_ccdc_geom_bond_type
C0 C1 1.384 . S
C0 H13 0.947 . S
C0 C35 1.382 . S
C1 C0 1.384 . S
C1 C2 1.378 . S
C2 C1 1.378 . S
C2 C3 1.378 . S
C2 H14 0.952 . S
C3 C2 1.378 . S
C3 H15 0.950 . S
C3 C34 1.383 . S
H4 C23 0.947 . S
H5 C24 0.946 . S
H6 C26 0.953 . S
H7 C27 0.945 . S
H8 C29 0.952 . S
H9 C30 0.949 . S
H10 C32 0.950 1_545 S
H11 C33 0.948 1_554 S
H12 C35 0.951 . S
H13 C0 0.947 . S
H14 C2 0.952 . S
H15 C3 0.950 . S
N16 C19 1.382 . S
N16 C21 1.363 . S
N17 C19 1.371 . S
N17 C20 1.372 . S
N18 C20 1.361 . S
N18 C21 1.377 . S
C19 N16 1.382 . S
C19 N17 1.371 . S
C19 C22 1.480 . S
C20 N17 1.372 . S
C20 N18 1.361 . S
C20 C28 1.457 1_554 S
C21 N16 1.363 . S
C21 N18 1.377 . S
C21 C34 1.479 . S
C22 C19 1.480 . S
C22 C23 1.383 . S
C22 C27 1.385 . S
C23 H4 0.947 . S
C23 C22 1.383 . S
C23 C24 1.388 . S
C24 H5 0.946 . S
C24 C23 1.388 . S
C24 C25 1.384 . S
C25 C24 1.384 . S
C25 C26 1.377 . S
C26 H6 0.953 . S
C26 C25 1.377 . S
C26 C27 1.369 . S
C27 H7 0.945 . S
C27 C22 1.385 . S
C27 C26 1.369 . S
C28 C20 1.457 1_556 S
C28 C29 1.372 . S
C28 C33 1.364 . S
C29 H8 0.952 . S
C29 C28 1.372 . S
C29 C30 1.389 . S
C30 H9 0.949 . S
C30 C29 1.389 . S
C30 C31 1.387 . S
C31 C30 1.387 . S
C31 C32 1.372 . S
C32 H10 0.950 1_565 S
C32 C31 1.372 . S
C32 C33 1.379 . S
C33 H11 0.948 1_556 S
C33 C28 1.364 . S
C33 C32 1.379 . S
C34 C3 1.383 . S
C34 C21 1.479 . S
C34 C35 1.398 . S
C35 C0 1.382 . S
C35 H12 0.951 . S
C35 C34 1.398 . S
C36 C37 1.384 . S
C36 H49 0.947 . S
C36 C71 1.382 . S
C37 C36 1.384 . S
C37 C38 1.378 . S
C38 C37 1.378 . S
C38 C39 1.378 . S
C38 H50 0.952 . S
C39 C38 1.378 . S
C39 H51 0.950 . S
C39 C70 1.383 . S
H40 C59 0.947 . S
H41 C60 0.946 . S
H42 C62 0.953 . S
H43 C63 0.945 . S
H44 C65 0.952 . S
H45 C66 0.949 . S
H46 C68 0.950 . S
H47 C69 0.948 . S
H48 C71 0.951 . S
H49 C36 0.947 . S
H50 C38 0.952 . S
H51 C39 0.950 . S
N52 C55 1.382 . S
N52 C57 1.363 . S
N53 C55 1.371 . S
N53 C56 1.372 . S
N54 C56 1.361 . S
N54 C57 1.377 . S
C55 N52 1.382 . S
C55 N53 1.371 . S
C55 C58 1.480 . S
C56 N53 1.372 . S
C56 N54 1.361 . S
C56 C64 1.457 . S
C57 N52 1.363 . S
C57 N54 1.377 . S
C57 C70 1.479 . S
C58 C55 1.480 . S
C58 C59 1.383 . S
C58 C63 1.385 . S
C59 H40 0.947 . S
C59 C58 1.383 . S
C59 C60 1.388 . S
C60 H41 0.946 . S
C60 C59 1.388 . S
C60 C61 1.384 . S
C61 C60 1.384 . S
C61 C62 1.377 . S
C62 H42 0.953 . S
C62 C61 1.377 . S
C62 C63 1.369 . S
C63 H43 0.945 . S
C63 C58 1.385 . S
C63 C62 1.369 . S
C64 C56 1.457 . S
C64 C65 1.372 . S
C64 C69 1.364 . S
C65 H44 0.952 . S
C65 C64 1.372 . S
C65 C66 1.389 . S
C66 H45 0.949 . S
C66 C65 1.389 . S
C66 C67 1.387 . S
C67 C66 1.387 . S
C67 C68 1.372 . S
C68 H46 0.950 . S
C68 C67 1.372 . S
C68 C69 1.379 . S
C69 H47 0.948 . S
C69 C64 1.364 . S
C69 C68 1.379 . S
C70 C39 1.383 . S
C70 C57 1.479 . S
C70 C71 1.398 . S
C71 C36 1.382 . S
C71 H48 0.951 . S
C71 C70 1.398 . S
C72 C73 1.384 . S
C72 H85 0.947 . S
C72 C107 1.382 . S
C73 C72 1.384 . S
C73 C74 1.378 . S
C74 C73 1.378 . S
C74 C75 1.378 . S
C74 H86 0.952 . S
C75 C74 1.378 . S
C75 H87 0.950 . S
C75 C106 1.383 . S
H76 C95 0.947 . S
H77 C96 0.946 . S
H78 C98 0.953 . S
H79 C99 0.945 . S
H80 C101 0.952 . S
H81 C102 0.949 . S
H82 C104 0.950 . S
H83 C105 0.948 . S
H84 C107 0.951 . S
H85 C72 0.947 . S
H86 C74 0.952 . S
H87 C75 0.950 . S
N88 C91 1.382 1_556 S
N88 C93 1.363 . S
N89 C91 1.371 . S
N89 C92 1.372 . S
N90 C92 1.361 . S
N90 C93 1.377 1_554 S
C91 N88 1.382 1_554 S
C91 N89 1.371 . S
C91 C94 1.480 1_554 S
C92 N89 1.372 . S
C92 N90 1.361 . S
C92 C100 1.457 . S
C93 N88 1.363 . S
C93 N90 1.377 1_556 S
C93 C106 1.479 . S
C94 C91 1.480 1_556 S
C94 C95 1.385 . S
C94 C99 1.383 1_556 S
C95 H76 0.947 . S
C95 C94 1.385 . S
C95 C96 1.388 . S
C96 H77 0.946 . S
C96 C95 1.388 . S
C96 C97 1.384 . S
C97 C96 1.384 . S
C97 C98 1.377 1_556 S
C98 H78 0.953 . S
C98 C97 1.377 1_554 S
C98 C99 1.369 . S
C99 H79 0.945 . S
C99 C94 1.383 1_554 S
C99 C98 1.369 . S
C100 C92 1.457 . S
C100 C101 1.372 . S
C100 C105 1.364 . S
C101 H80 0.952 . S
C101 C100 1.372 . S
C101 C102 1.389 . S
C102 H81 0.949 . S
C102 C101 1.389 . S
C102 C103 1.387 . S
C103 C102 1.387 . S
C103 C104 1.372 . S
C104 H82 0.950 . S
C104 C103 1.372 . S
C104 C105 1.379 . S
C105 H83 0.948 . S
C105 C100 1.364 . S
C105 C104 1.379 . S
C106 C75 1.383 . S
C106 C93 1.479 . S
C106 C107 1.398 . S
C107 C72 1.382 . S
C107 H84 0.951 . S
C107 C106 1.398 . S
C108 C109 1.384 . S
C108 H121 0.947 . S
C108 C143 1.382 . S
C109 C108 1.384 . S
C109 C110 1.378 . S
C110 C109 1.378 . S
C110 C111 1.378 . S
C110 H122 0.952 . S
C111 C110 1.378 . S
C111 H123 0.950 . S
C111 C142 1.383 . S
H112 C131 0.947 . S
H113 C132 0.946 . S
H114 C134 0.953 . S
H115 C135 0.945 . S
H116 C137 0.952 . S
H117 C138 0.949 . S
H118 C140 0.950 . S
H119 C141 0.948 . S
H120 C143 0.951 . S
H121 C108 0.947 . S
H122 C110 0.952 . S
H123 C111 0.950 . S
N124 C127 1.382 . S
N124 C129 1.363 . S
N125 C127 1.371 . S
N125 C128 1.372 . S
N126 C128 1.361 . S
N126 C129 1.377 . S
C127 N124 1.382 . S
C127 N125 1.371 . S
C127 C130 1.480 . S
C128 N125 1.372 . S
C128 N126 1.361 . S
C128 C136 1.457 . S
C129 N124 1.363 . S
C129 N126 1.377 . S
C129 C142 1.479 . S
C130 C127 1.480 . S
C130 C131 1.383 . S
C130 C135 1.385 . S
C131 H112 0.947 . S
C131 C130 1.383 . S
C131 C132 1.388 . S
C132 H113 0.946 . S
C132 C131 1.388 . S
C132 C133 1.384 . S
C133 C132 1.384 . S
C133 C134 1.377 . S
C134 H114 0.953 . S
C134 C133 1.377 . S
C134 C135 1.369 . S
C135 H115 0.945 . S
C135 C130 1.385 . S
C135 C134 1.369 . S
C136 C128 1.457 . S
C136 C137 1.372 . S
C136 C141 1.364 . S
C137 H116 0.952 . S
C137 C136 1.372 . S
C137 C138 1.389 . S
C138 H117 0.949 . S
C138 C137 1.389 . S
C138 C139 1.387 . S
C139 C138 1.387 . S
C139 C140 1.372 . S
C140 H118 0.950 . S
C140 C139 1.372 . S
C140 C141 1.379 . S
C141 H119 0.948 . S
C141 C136 1.364 . S
C141 C140 1.379 . S
C142 C111 1.383 . S
C142 C129 1.479 . S
C142 C143 1.398 . S
C143 C108 1.382 . S
C143 H120 0.951 . S
C143 C142 1.398 . S
O144 Mg145 1.990 1_655 S
O144 C158 1.253 . S
Mg145 O144 1.990 1_455 S
Mg145 O148 2.180 . S
Mg145 O149 2.117 . S
Mg145 O163 2.030 . S
O146 Mg147 2.072 1_655 S
O146 C158 1.260 . S
Mg147 O146 2.072 1_455 S
Mg147 O148 2.099 . S
Mg147 O150 2.079 1_545 S
Mg147 O151 2.072 1_455 S
Mg147 O153 2.099 1_445 S
Mg147 O164 2.079 1_545 S
O148 Mg145 2.180 . S
O148 Mg147 2.099 . S
O148 C159 1.279 . S
O149 Mg145 2.117 . S
O149 C159 1.250 . S
O150 Mg147 2.079 1_565 S
O150 C160 1.264 . S
O151 Mg147 2.072 1_655 S
O151 C161 1.260 . S
Mg152 O153 2.180 . S
Mg152 O154 2.030 1_655 S
Mg152 O155 2.014 . S
Mg152 O156 2.117 . S
O153 Mg147 2.099 1_665 S
O153 Mg152 2.180 . S
O153 C162 1.279 . S
O154 Mg152 2.030 1_455 S
O154 C160 1.248 . S
O155 Mg152 2.014 . S
O155 C161 1.229 1_565 S
O156 Mg152 2.117 . S
O156 C162 1.250 . S
C157 O163 1.248 1_565 S
C157 O164 1.264 . S
C158 O144 1.253 . S
C158 O146 1.260 . S
C159 O148 1.279 . S
C159 O149 1.250 . S
C160 O150 1.264 . S
C160 O154 1.248 . S
C161 O151 1.260 . S
C161 O155 1.229 1_545 S
C162 O153 1.279 . S
C162 O156 1.250 . S
O163 Mg145 2.030 . S
O163 C157 1.248 1_545 S
O164 Mg147 2.079 1_565 S
O164 C157 1.264 . S
O165 Mg166 1.990 . S
O165 C179 1.253 . S
Mg166 O165 1.990 . S
Mg166 O169 2.180 . S
Mg166 O170 2.117 . S
Mg166 O184 2.030 . S
O167 Mg168 2.072 . S
O167 C179 1.260 . S
Mg168 O167 2.072 . S
Mg168 O169 2.099 . S
Mg168 O171 2.079 1_554 S
Mg168 O172 2.072 1_554 S
Mg168 O174 2.099 . S
Mg168 O185 2.079 . S
O169 Mg166 2.180 . S
O169 Mg168 2.099 . S
O169 C180 1.279 . S
O170 Mg166 2.117 . S
O170 C180 1.250 . S
O171 Mg168 2.079 1_556 S
O171 C181 1.264 . S
O172 Mg168 2.072 1_556 S
O172 C182 1.260 . S
Mg173 O174 2.180 1_556 S
Mg173 O175 2.030 . S
Mg173 O176 1.990 . S
Mg173 O177 2.117 . S
O174 Mg168 2.099 . S
O174 Mg173 2.180 1_554 S
O174 C183 1.279 . S
O175 Mg173 2.030 . S
O175 C181 1.248 . S
O176 Mg173 1.990 . S
O176 C182 1.253 . S
O177 Mg173 2.117 . S
O177 C183 1.250 1_556 S
C178 O184 1.248 . S
C178 O185 1.264 . S
C179 O165 1.253 . S
C179 O167 1.260 . S
C180 O169 1.279 . S
C180 O170 1.250 . S
C181 O171 1.264 . S
C181 O175 1.248 . S
C182 O172 1.260 . S
C182 O176 1.253 . S
C183 O174 1.279 . S
C183 O177 1.250 1_554 S
O184 Mg166 2.030 . S
O184 C178 1.248 . S
O185 Mg168 2.079 . S
O185 C178 1.264 . S
C186 C187 1.387 . S
C186 H190 0.950 . S
C186 C195 1.390 . S
C187 C186 1.387 . S
C187 C189 1.387 . S
H188 C195 0.950 . S
C189 C187 1.387 . S
C189 C191 1.390 . S
C189 H193 0.950 . S
H190 C186 0.950 . S
C191 C189 1.390 . S
C191 C192 1.387 . S
C191 H194 0.950 . S
C192 C191 1.387 . S
C192 C195 1.387 . S
H193 C189 0.950 . S
H194 C191 0.950 . S
C195 C186 1.390 . S
C195 H188 0.950 . S
C195 C192 1.387 . S
C196 C197 1.387 . S
C196 H200 0.950 . S
C196 C205 1.390 . S
C197 C196 1.387 . S
C197 C199 1.387 . S
H198 C205 0.950 . S
C199 C197 1.387 . S
C199 C201 1.390 . S
C199 H203 0.950 1_554 S
H200 C196 0.950 . S
C201 C199 1.390 . S
C201 C202 1.387 . S
C201 H204 0.950 1_554 S
C202 C201 1.387 . S
C202 C205 1.387 . S
H203 C199 0.950 1_556 S
H204 C201 0.950 1_556 S
C205 C196 1.390 . S
C205 H198 0.950 . S
C205 C202 1.387 . S
C206 C207 1.387 . S
C206 H210 0.950 . S
C206 C215 1.390 . S
C207 C206 1.387 . S
C207 C209 1.387 . S
H208 C215 0.950 . S
C209 C207 1.387 . S
C209 C211 1.390 . S
C209 H213 0.950 . S
H210 C206 0.950 . S
C211 C209 1.390 . S
C211 C212 1.387 . S
C211 H214 0.950 . S
C212 C211 1.387 . S
C212 C215 1.387 . S
H213 C209 0.950 . S
H214 C211 0.950 . S
C215 C206 1.390 . S
C215 H208 0.950 . S
C215 C212 1.387 . S
C216 C217 1.387 1_554 S
C216 H220 0.950 . S
C216 C225 1.390 . S
C217 C216 1.387 1_556 S
C217 C219 1.387 . S
H218 C225 0.950 . S
C219 C217 1.387 . S
C219 C221 1.390 . S
C219 H223 0.950 . S
H220 C216 0.950 . S
C221 C219 1.390 . S
C221 C222 1.387 1_556 S
C221 H224 0.950 . S
C222 C221 1.387 1_554 S
C222 C225 1.387 . S
H223 C219 0.950 . S
H224 C221 0.950 . S
C225 C216 1.390 . S
C225 H218 0.950 . S
C225 C222 1.387 . S
C226 C227 1.387 . S
C226 H230 0.950 . S
C226 C235 1.390 . S
C227 C226 1.387 . S
C227 C229 1.367 1_565 S
H228 C235 0.950 . S
C229 C227 1.367 1_545 S
C229 C231 1.393 . S
C229 H233 0.967 . S
H230 C226 0.950 . S
C231 C229 1.393 . S
C231 C232 1.387 1_545 S
C231 H234 0.950 . S
C232 C231 1.387 1_565 S
C232 C235 1.387 . S
H233 C229 0.967 . S
H234 C231 0.950 . S
C235 C226 1.390 . S
C235 H228 0.950 . S
C235 C232 1.387 . S
C236 C237 1.387 . S
C236 H240 0.950 . S
C236 C245 1.390 . S
C237 C236 1.387 . S
C237 C239 1.387 . S
H238 C245 0.950 . S
C239 C237 1.387 . S
C239 C241 1.390 . S
C239 H243 0.950 . S
H240 C236 0.950 . S
C241 C239 1.390 . S
C241 C242 1.387 . S
C241 H244 0.950 . S
C242 C241 1.387 . S
C242 C245 1.387 . S
H243 C239 0.950 . S
H244 C241 0.950 . S
C245 C236 1.390 . S
C245 H238 0.950 . S
C245 C242 1.387 . S
C246 C247 1.387 . S
C246 H250 0.950 . S
C246 C255 1.390 . S
C247 C246 1.387 . S
C247 C249 1.387 . S
H248 C255 0.950 1_565 S
C249 C247 1.387 . S
C249 C251 1.390 . S
C249 H253 0.950 . S
H250 C246 0.950 . S
C251 C249 1.390 . S
C251 C252 1.387 . S
C251 H254 0.950 . S
C252 C251 1.387 . S
C252 C255 1.387 . S
H253 C249 0.950 . S
H254 C251 0.950 . S
C255 C246 1.390 . S
C255 H248 0.950 1_545 S
C255 C252 1.387 . S
C256 C257 1.387 . S
C256 H260 0.950 . S
C256 C265 1.390 . S
C257 C256 1.387 . S
C257 C259 1.387 . S
H258 C265 0.950 . S
C259 C257 1.387 . S
C259 C261 1.390 . S
C259 H263 0.950 . S
H260 C256 0.950 . S
C261 C259 1.390 . S
C261 C262 1.387 . S
C261 H264 0.950 . S
C262 C261 1.387 . S
C262 C265 1.387 . S
H263 C259 0.950 . S
H264 C261 0.950 . S
C265 C256 1.390 . S
C265 H258 0.950 . S
C265 C262 1.387 . S
C266 C267 1.387 . S
C266 H270 0.950 . S
C266 C275 1.390 . S
C267 C266 1.387 . S
C267 C269 1.387 . S
H268 C275 0.950 . S
C269 C267 1.387 . S
C269 C271 1.390 . S
C269 H273 0.950 . S
H270 C266 0.950 . S
C271 C269 1.390 . S
C271 C272 1.387 . S
C271 H274 0.950 . S
C272 C271 1.387 . S
C272 C275 1.387 . S
H273 C269 0.950 . S
H274 C271 0.950 . S
C275 C266 1.390 . S
C275 H268 0.950 . S
C275 C272 1.387 . S
C276 C277 1.387 . S
C276 H280 0.950 . S
C276 C285 1.390 . S
C277 C276 1.387 . S
C277 C279 1.387 . S
H278 C285 0.950 . S
C279 C277 1.387 . S
C279 C281 1.390 . S
C279 H283 0.950 . S
H280 C276 0.950 . S
C281 C279 1.390 . S
C281 C282 1.387 . S
C281 H284 0.950 . S
C282 C281 1.387 . S
C282 C285 1.387 . S
H283 C279 0.950 . S
H284 C281 0.950 . S
C285 C276 1.390 . S
C285 H278 0.950 . S
C285 C282 1.387 . S
C286 C287 1.387 . S
C286 H290 0.950 . S
C286 C295 1.390 . S
C287 C286 1.387 . S
C287 C289 1.387 . S
H288 C295 0.950 . S
C289 C287 1.387 . S
C289 C291 1.390 . S
C289 H293 0.950 . S
H290 C286 0.950 . S
C291 C289 1.390 . S
C291 C292 1.387 . S
C291 H294 0.950 . S
C292 C291 1.387 . S
C292 C295 1.387 . S
H293 C289 0.950 . S
H294 C291 0.950 . S
C295 C286 1.390 . S
C295 H288 0.950 . S
C295 C292 1.387 . S
C296 C297 1.387 . S
C296 H300 0.950 . S
C296 C305 1.390 . S
C297 C296 1.387 . S
C297 C299 1.387 1_565 S
H298 C305 0.950 . S
C299 C297 1.387 1_545 S
C299 C301 1.390 . S
C299 H303 0.950 . S
H300 C296 0.950 . S
C301 C299 1.390 . S
C301 C302 1.387 1_545 S
C301 H304 0.950 . S
C302 C301 1.387 1_565 S
C302 C305 1.387 . S
H303 C299 0.950 . S
H304 C301 0.950 . S
C305 C296 1.390 . S
C305 H298 0.950 . S
C305 C302 1.387 . S
C192 C159 1.435 . S
C187 C133 1.540 . S
C197 C25 1.587 . S
C202 C183 1.429 . S
C207 C61 1.696 . S
C212 C162 1.505 . S
C217 C97 1.634 . S
C222 C180 1.502 . S
C232 C160 1.687 . S
C227 C1 1.655 . S
C242 C182 1.625 . S
C237 C67 1.635 . S
C247 C103 1.581 . S
C252 C161 1.523 . S
C257 C109 1.592 . S
C262 C181 1.546 . S
C272 C179 1.522 . S
C267 C37 1.623 . S
C282 C158 1.623 . S
C277 C73 1.611 . S
C292 C178 1.688 . S
C287 C139 1.595 . S
C297 C31 1.643 . S
C302 C157 1.546 . S
