# Generated by pormake.
# Topology ptr, (4,4)-cn, num edge types: 1
# Building blocks:
#     Node 0, Type 0, BuildingBlock: NAHDIM_clean_sbu_0, # of connection points: 4
#     Node 1, Type 0, BuildingBlock: NAHDIM_clean_sbu_0, # of connection points: 4
#     Node 2, Type 0, BuildingBlock: NAHDIM_clean_sbu_0, # of connection points: 4
#     Node 3, Type 0, BuildingBlock: NAHDIM_clean_sbu_0, # of connection points: 4
#     Node 4, Type 0, BuildingBlock: NAHDIM_clean_sbu_0, # of connection points: 4
#     Node 5, Type 0, BuildingBlock: NAHDIM_clean_sbu_0, # of connection points: 4
#     Node 6, Type 0, BuildingBlock: NAHDIM_clean_sbu_0, # of connection points: 4
#     Node 7, Type 0, BuildingBlock: NAHDIM_clean_sbu_0, # of connection points: 4
#     Node 8, Type 0, BuildingBlock: NAHDIM_clean_sbu_0, # of connection points: 4
#     Node 9, Type 0, BuildingBlock: NAHDIM_clean_sbu_0, # of connection points: 4
#     Node 10, Type 0, BuildingBlock: NAHDIM_clean_sbu_0, # of connection points: 4
#     Node 11, Type 0, BuildingBlock: NAHDIM_clean_sbu_0, # of connection points: 4
#     Node 12, Type 0, BuildingBlock: NAHDIM_clean_sbu_0, # of connection points: 4
#     Node 13, Type 0, BuildingBlock: NAHDIM_clean_sbu_0, # of connection points: 4
#     Node 14, Type 0, BuildingBlock: NAHDIM_clean_sbu_0, # of connection points: 4
#     Node 15, Type 0, BuildingBlock: NAHDIM_clean_sbu_0, # of connection points: 4
#     Node 16, Type 0, BuildingBlock: NAHDIM_clean_sbu_0, # of connection points: 4
#     Node 17, Type 0, BuildingBlock: NAHDIM_clean_sbu_0, # of connection points: 4
#     Node 18, Type 1, BuildingBlock: NAWXER_clean_linker_0, # of connection points: 4
#     Node 19, Type 1, BuildingBlock: NAWXER_clean_linker_0, # of connection points: 4
#     Node 20, Type 1, BuildingBlock: NAWXER_clean_linker_0, # of connection points: 4
#     Node 21, Type 1, BuildingBlock: NAWXER_clean_linker_0, # of connection points: 4
#     Node 22, Type 1, BuildingBlock: NAWXER_clean_linker_0, # of connection points: 4
#     Node 23, Type 1, BuildingBlock: NAWXER_clean_linker_0, # of connection points: 4
#     Node 24, Type 1, BuildingBlock: NAWXER_clean_linker_0, # of connection points: 4
#     Node 25, Type 1, BuildingBlock: NAWXER_clean_linker_0, # of connection points: 4
#     Node 26, Type 1, BuildingBlock: NAWXER_clean_linker_0, # of connection points: 4
#     Node 27, Type 1, BuildingBlock: NAWXER_clean_linker_0, # of connection points: 4
#     Node 28, Type 1, BuildingBlock: NAWXER_clean_linker_0, # of connection points: 4
#     Node 29, Type 1, BuildingBlock: NAWXER_clean_linker_0, # of connection points: 4
#     Node 30, Type 1, BuildingBlock: NAWXER_clean_linker_0, # of connection points: 4
#     Node 31, Type 1, BuildingBlock: NAWXER_clean_linker_0, # of connection points: 4
#     Node 32, Type 1, BuildingBlock: NAWXER_clean_linker_0, # of connection points: 4
#     Node 33, Type 1, BuildingBlock: NAWXER_clean_linker_0, # of connection points: 4
#     Node 34, Type 1, BuildingBlock: NAWXER_clean_linker_0, # of connection points: 4
#     Node 35, Type 1, BuildingBlock: NAWXER_clean_linker_0, # of connection points: 4
#     Edge 36, Type (0, 1), BuildingBlock: AJUNOK_clean_linker_0, # of connection points: 2
#     Edge 37, Type (0, 1), BuildingBlock: AJUNOK_clean_linker_0, # of connection points: 2
#     Edge 38, Type (0, 1), BuildingBlock: AJUNOK_clean_linker_0, # of connection points: 2
#     Edge 39, Type (0, 1), BuildingBlock: AJUNOK_clean_linker_0, # of connection points: 2
#     Edge 40, Type (0, 1), BuildingBlock: AJUNOK_clean_linker_0, # of connection points: 2
#     Edge 41, Type (0, 1), BuildingBlock: AJUNOK_clean_linker_0, # of connection points: 2
#     Edge 42, Type (0, 1), BuildingBlock: AJUNOK_clean_linker_0, # of connection points: 2
#     Edge 43, Type (0, 1), BuildingBlock: AJUNOK_clean_linker_0, # of connection points: 2
#     Edge 44, Type (0, 1), BuildingBlock: AJUNOK_clean_linker_0, # of connection points: 2
#     Edge 45, Type (0, 1), BuildingBlock: AJUNOK_clean_linker_0, # of connection points: 2
#     Edge 46, Type (0, 1), BuildingBlock: AJUNOK_clean_linker_0, # of connection points: 2
#     Edge 47, Type (0, 1), BuildingBlock: AJUNOK_clean_linker_0, # of connection points: 2
#     Edge 48, Type (0, 1), BuildingBlock: AJUNOK_clean_linker_0, # of connection points: 2
#     Edge 49, Type (0, 1), BuildingBlock: AJUNOK_clean_linker_0, # of connection points: 2
#     Edge 50, Type (0, 1), BuildingBlock: AJUNOK_clean_linker_0, # of connection points: 2
#     Edge 51, Type (0, 1), BuildingBlock: AJUNOK_clean_linker_0, # of connection points: 2
#     Edge 52, Type (0, 1), BuildingBlock: AJUNOK_clean_linker_0, # of connection points: 2
#     Edge 53, Type (0, 1), BuildingBlock: AJUNOK_clean_linker_0, # of connection points: 2
#     Edge 54, Type (0, 1), BuildingBlock: AJUNOK_clean_linker_0, # of connection points: 2
#     Edge 55, Type (0, 1), BuildingBlock: AJUNOK_clean_linker_0, # of connection points: 2
#     Edge 56, Type (0, 1), BuildingBlock: AJUNOK_clean_linker_0, # of connection points: 2
#     Edge 57, Type (0, 1), BuildingBlock: AJUNOK_clean_linker_0, # of connection points: 2
#     Edge 58, Type (0, 1), BuildingBlock: AJUNOK_clean_linker_0, # of connection points: 2
#     Edge 59, Type (0, 1), BuildingBlock: AJUNOK_clean_linker_0, # of connection points: 2
#     Edge 60, Type (0, 1), BuildingBlock: AJUNOK_clean_linker_0, # of connection points: 2
#     Edge 61, Type (0, 1), BuildingBlock: AJUNOK_clean_linker_0, # of connection points: 2
#     Edge 62, Type (0, 1), BuildingBlock: AJUNOK_clean_linker_0, # of connection points: 2
#     Edge 63, Type (0, 1), BuildingBlock: AJUNOK_clean_linker_0, # of connection points: 2
#     Edge 64, Type (0, 1), BuildingBlock: AJUNOK_clean_linker_0, # of connection points: 2
#     Edge 65, Type (0, 1), BuildingBlock: AJUNOK_clean_linker_0, # of connection points: 2
#     Edge 66, Type (0, 1), BuildingBlock: AJUNOK_clean_linker_0, # of connection points: 2
#     Edge 67, Type (0, 1), BuildingBlock: AJUNOK_clean_linker_0, # of connection points: 2
#     Edge 68, Type (0, 1), BuildingBlock: AJUNOK_clean_linker_0, # of connection points: 2
#     Edge 69, Type (0, 1), BuildingBlock: AJUNOK_clean_linker_0, # of connection points: 2
#     Edge 70, Type (0, 1), BuildingBlock: AJUNOK_clean_linker_0, # of connection points: 2
#     Edge 71, Type (0, 1), BuildingBlock: AJUNOK_clean_linker_0, # of connection points: 2
#     Edge 72, Type (0, 1), BuildingBlock: AJUNOK_clean_linker_0, # of connection points: 2
#     Edge 73, Type (0, 1), BuildingBlock: AJUNOK_clean_linker_0, # of connection points: 2
#     Edge 74, Type (0, 1), BuildingBlock: AJUNOK_clean_linker_0, # of connection points: 2
#     Edge 75, Type (0, 1), BuildingBlock: AJUNOK_clean_linker_0, # of connection points: 2
#     Edge 76, Type (0, 1), BuildingBlock: AJUNOK_clean_linker_0, # of connection points: 2
#     Edge 77, Type (0, 1), BuildingBlock: AJUNOK_clean_linker_0, # of connection points: 2
#     Edge 78, Type (0, 1), BuildingBlock: AJUNOK_clean_linker_0, # of connection points: 2
#     Edge 79, Type (0, 1), BuildingBlock: AJUNOK_clean_linker_0, # of connection points: 2
#     Edge 80, Type (0, 1), BuildingBlock: AJUNOK_clean_linker_0, # of connection points: 2
#     Edge 81, Type (0, 1), BuildingBlock: AJUNOK_clean_linker_0, # of connection points: 2
#     Edge 82, Type (0, 1), BuildingBlock: AJUNOK_clean_linker_0, # of connection points: 2
#     Edge 83, Type (0, 1), BuildingBlock: AJUNOK_clean_linker_0, # of connection points: 2
#     Edge 84, Type (0, 1), BuildingBlock: AJUNOK_clean_linker_0, # of connection points: 2
#     Edge 85, Type (0, 1), BuildingBlock: AJUNOK_clean_linker_0, # of connection points: 2
#     Edge 86, Type (0, 1), BuildingBlock: AJUNOK_clean_linker_0, # of connection points: 2
#     Edge 87, Type (0, 1), BuildingBlock: AJUNOK_clean_linker_0, # of connection points: 2
#     Edge 88, Type (0, 1), BuildingBlock: AJUNOK_clean_linker_0, # of connection points: 2
#     Edge 89, Type (0, 1), BuildingBlock: AJUNOK_clean_linker_0, # of connection points: 2
#     Edge 90, Type (0, 1), BuildingBlock: AJUNOK_clean_linker_0, # of connection points: 2
#     Edge 91, Type (0, 1), BuildingBlock: AJUNOK_clean_linker_0, # of connection points: 2
#     Edge 92, Type (0, 1), BuildingBlock: AJUNOK_clean_linker_0, # of connection points: 2
#     Edge 93, Type (0, 1), BuildingBlock: AJUNOK_clean_linker_0, # of connection points: 2
#     Edge 94, Type (0, 1), BuildingBlock: AJUNOK_clean_linker_0, # of connection points: 2
#     Edge 95, Type (0, 1), BuildingBlock: AJUNOK_clean_linker_0, # of connection points: 2
#     Edge 96, Type (0, 1), BuildingBlock: AJUNOK_clean_linker_0, # of connection points: 2
#     Edge 97, Type (0, 1), BuildingBlock: AJUNOK_clean_linker_0, # of connection points: 2
#     Edge 98, Type (0, 1), BuildingBlock: AJUNOK_clean_linker_0, # of connection points: 2
#     Edge 99, Type (0, 1), BuildingBlock: AJUNOK_clean_linker_0, # of connection points: 2
#     Edge 100, Type (0, 1), BuildingBlock: AJUNOK_clean_linker_0, # of connection points: 2
#     Edge 101, Type (0, 1), BuildingBlock: AJUNOK_clean_linker_0, # of connection points: 2
#     Edge 102, Type (0, 1), BuildingBlock: AJUNOK_clean_linker_0, # of connection points: 2
#     Edge 103, Type (0, 1), BuildingBlock: AJUNOK_clean_linker_0, # of connection points: 2
#     Edge 104, Type (0, 1), BuildingBlock: AJUNOK_clean_linker_0, # of connection points: 2
#     Edge 105, Type (0, 1), BuildingBlock: AJUNOK_clean_linker_0, # of connection points: 2
#     Edge 106, Type (0, 1), BuildingBlock: AJUNOK_clean_linker_0, # of connection points: 2
#     Edge 107, Type (0, 1), BuildingBlock: AJUNOK_clean_linker_0, # of connection points: 2
# Relax obj value: 0.073
# Max RMSD: 0.266
# Mean RMSD: 0.109
data_MOF--net-ptr--node1-NAHDIM_clean_sbu_0--node2-NAWXER_clean_linker_0--edge1-AJUNOK_clean_linker_0
_symmetry_space_group_name_H-M    P1
_symmetry_Int_Tables_number       1
_symmetry_cell_setting            triclinic
loop_
_symmetry_equiv_pos_as_xyz
'x, y, z'
_cell_length_a     69.612033
_cell_length_b     68.161031
_cell_length_c     49.300914
_cell_angle_alpha  91.907831
_cell_angle_beta   88.991071
_cell_angle_gamma 122.05298
loop_
_atom_site_label
_atom_site_type_symbol
_atom_site_fract_x
_atom_site_fract_y
_atom_site_fract_z
_atom_type_partial_charge
C0 C 0.02862 0.33708 0.04874 0.0
O1 O 0.00816 0.33071 0.05713 0.0
O2 O 0.99033 0.32475 0.98748 0.0
Zn3 Zn 0.01366 0.35349 0.00788 0.0
O4 O -0.00066 0.36295 0.03704 0.0
C5 C 0.02661 0.37741 0.95655 0.0
O6 O 0.01702 0.35639 0.94583 0.0
O7 O 0.03562 0.34748 0.0264 0.0
C8 C 0.98984 0.3739 0.03161 0.0
O9 O 0.98789 0.3776 0.0061 0.0
C10 C 0.97162 0.30909 0.99739 0.0
O11 O 0.96675 0.31133 0.02273 0.0
O12 O 0.02859 0.38012 0.98221 0.0
C13 C 0.69144 0.66837 0.97297 0.0
O14 O 0.67853 0.67528 0.96355 0.0
O15 O 0.66505 0.68247 0.03055 0.0
Zn16 Zn 0.65725 0.65255 0.01204 0.0
O17 O 0.63447 0.64317 0.98198 0.0
C18 C 0.63378 0.63041 0.06016 0.0
O19 O 0.63258 0.64901 0.06132 0.0
O20 O 0.68585 0.65743 0.995 0.0
C21 C 0.61337 0.63456 0.9853 0.0
O22 O 0.60525 0.63205 0.01005 0.0
C23 C 0.66371 0.69884 0.02127 0.0
O24 O 0.65683 0.69728 0.99621 0.0
O25 O 0.6442 0.62772 0.04033 0.0
C26 C 0.339 0.03322 0.97221 0.0
O27 O 0.33411 0.01377 0.95978 0.0
O28 O 0.3244 0.98923 0.02966 0.0
Zn29 Zn 0.35273 0.01341 0.01071 0.0
O30 O 0.363 0.00126 0.97946 0.0
C31 C 0.38047 0.01063 0.04755 0.0
O32 O 0.36734 0.98932 0.03798 0.0
O33 O 0.3476 0.03763 0.99589 0.0
C34 C 0.35707 0.98085 0.97173 0.0
O35 O 0.34146 0.96313 0.98535 0.0
C36 C 0.30488 0.97569 0.01947 0.0
O37 O 0.30193 0.97595 0.99328 0.0
O38 O 0.37769 0.02627 0.03867 0.0
C39 C 0.97381 0.67377 0.97667 0.0
O40 O 0.99422 0.68199 0.96661 0.0
O41 O 0.01688 0.69165 0.02619 0.0
Zn42 Zn 0.99344 0.65957 0.01309 0.0
O43 O 0.00493 0.64802 0.98268 0.0
C44 C 0.99636 0.64269 0.06456 0.0
O45 O 0.01486 0.66338 0.06594 0.0
O46 O 0.96826 0.662 0.99805 0.0
C47 C 0.0154 0.63783 0.98707 0.0
O48 O 0.02008 0.63601 0.01221 0.0
C49 C 0.0382 0.70154 0.02364 0.0
O50 O 0.04665 0.69048 0.01107 0.0
O51 O 0.98345 0.63721 0.04404 0.0
C52 C 0.29387 0.33042 0.03389 0.0
O53 O 0.30223 0.3172 0.03588 0.0
O54 O 0.33191 0.32759 0.98964 0.0
Zn55 Zn 0.33532 0.35638 0.00695 0.0
O56 O 0.35616 0.36771 0.03907 0.0
C57 C 0.34444 0.37854 0.95486 0.0
O58 O 0.32908 0.35763 0.94593 0.0
O59 O 0.30509 0.34911 0.021 0.0
C60 C 0.36742 0.35964 0.04835 0.0
O61 O 0.36635 0.34167 0.03611 0.0
C62 C 0.34713 0.32795 0.97467 0.0
O63 O 0.3662 0.34778 0.971 0.0
O64 O 0.3488 0.38198 0.9801 0.0
C65 C 0.659 0.97067 0.04247 0.0
O66 O 0.66673 0.99231 0.04985 0.0
O67 O 0.67065 0.01055 0.98953 0.0
Zn68 Zn 0.64089 0.9851 0.00409 0.0
O69 O 0.62779 0.99607 0.03301 0.0
C70 C 0.62028 0.97314 0.94945 0.0
O71 O 0.64111 0.98321 0.94013 0.0
O72 O 0.64659 0.96233 0.02142 0.0
C73 C 0.63577 0.01544 0.04552 0.0
O74 O 0.65641 0.03255 0.04005 0.0
C75 C 0.67371 0.02775 0.97654 0.0
O76 O 0.65642 0.03012 0.97261 0.0
O77 O 0.61696 0.97098 0.97491 0.0
C78 C 0.69324 0.66921 0.37352 0.0
O79 O 0.67321 0.66279 0.38362 0.0
O80 O 0.65146 0.65301 0.31894 0.0
Zn81 Zn 0.67565 0.68407 0.33435 0.0
O82 O 0.6654 0.69793 0.36355 0.0
C83 C 0.6736 0.70544 0.28781 0.0
O84 O 0.65221 0.6893 0.29153 0.0
O85 O 0.69907 0.67963 0.35115 0.0
C86 C 0.64695 0.69738 0.36643 0.0
O87 O 0.63029 0.68527 0.34914 0.0
C88 C 0.6328 0.63772 0.32933 0.0
O89 O 0.62676 0.64156 0.35333 0.0
O90 O 0.68829 0.70669 0.30392 0.0
C91 C 0.35604 0.99315 0.31116 0.0
O92 O 0.34143 0.99695 0.29985 0.0
O93 O 0.33163 0.0125 0.36969 0.0
Zn94 Zn 0.3242 0.98205 0.3529 0.0
O95 O 0.30053 0.97037 0.32368 0.0
C96 C 0.29648 0.95952 0.3969 0.0
O97 O 0.2913 0.97484 0.39099 0.0
O98 O 0.35251 0.98614 0.33541 0.0
C99 C 0.28754 0.97724 0.3171 0.0
O100 O 0.28786 0.99408 0.33126 0.0
C101 C 0.33768 0.03116 0.35777 0.0
O102 O 0.33921 0.03163 0.3312 0.0
O103 O 0.31152 0.95877 0.38271 0.0
C104 C 0.99715 0.36739 0.31519 0.0
O105 O 0.98259 0.34508 0.31133 0.0
O106 O 0.98436 0.32553 0.36442 0.0
Zn107 Zn 0.01495 0.34827 0.34835 0.0
O108 O 0.02447 0.33455 0.31812 0.0
C109 C 0.03563 0.34633 0.39678 0.0
O110 O 0.01652 0.32611 0.39727 0.0
O111 O 0.01336 0.37394 0.3318 0.0
C112 C 0.0294 0.31927 0.32102 0.0
O113 O 0.02695 0.31025 0.34492 0.0
C114 C 0.97217 0.3041 0.35811 0.0
O115 O 0.97886 0.29544 0.33867 0.0
O116 O 0.03883 0.35995 0.37779 0.0
C117 C 0.64103 0.00935 0.32029 0.0
O118 O 0.66193 0.02676 0.32412 0.0
O119 O 0.68201 0.01476 0.36432 0.0
Zn120 Zn 0.65979 0.98558 0.34351 0.0
O121 O 0.67497 0.97882 0.31283 0.0
C122 C 0.64834 0.96073 0.39394 0.0
O123 O 0.65686 0.98151 0.40505 0.0
O124 O 0.63557 0.98929 0.32753 0.0
C125 C 0.68789 0.97156 0.31824 0.0
O126 O 0.69192 0.97014 0.3438 0.0
C127 C 0.70255 0.02819 0.35738 0.0
O128 O 0.71022 0.02328 0.33534 0.0
O129 O 0.64687 0.95836 0.36825 0.0
C130 C 0.96185 0.66402 0.35796 0.0
O131 O 0.96279 0.64606 0.34961 0.0
O132 O 0.00551 0.66274 0.32038 0.0
Zn133 Zn 0.0091 0.69007 0.3418 0.0
O134 O 0.02808 0.69781 0.37529 0.0
C135 C 0.02106 0.71598 0.29247 0.0
O136 O 0.00566 0.6958 0.28176 0.0
O137 O 0.97907 0.68426 0.35495 0.0
C138 C 0.04648 0.69833 0.37771 0.0
O139 O 0.05437 0.69233 0.35676 0.0
C140 C 0.0047 0.64516 0.3296 0.0
O141 O 0.00633 0.64381 0.3559 0.0
O142 O 0.02471 0.71768 0.31786 0.0
C143 C 0.33526 0.30436 0.37507 0.0
O144 O 0.35007 0.32679 0.37626 0.0
O145 O 0.34266 0.34208 0.32345 0.0
Zn146 Zn 0.3138 0.32077 0.34353 0.0
O147 O 0.30708 0.33739 0.37315 0.0
C148 C 0.28874 0.30897 0.29244 0.0
O149 O 0.30894 0.31946 0.28122 0.0
O150 O 0.31731 0.29675 0.36122 0.0
C151 C 0.29602 0.34673 0.36748 0.0
O152 O 0.29114 0.34713 0.34195 0.0
C153 C 0.35184 0.36384 0.32225 0.0
O154 O 0.34222 0.37374 0.33482 0.0
O155 O 0.28709 0.30643 0.31797 0.0
C156 C 0.36162 0.99454 0.69259 0.0
O157 O 0.34663 0.97874 0.67566 0.0
O158 O 0.31509 0.99253 0.66033 0.0
Zn159 Zn 0.34119 0.02093 0.67861 0.0
O160 O 0.33095 0.0344 0.70822 0.0
C161 C 0.35637 0.04256 0.62572 0.0
O162 O 0.34624 0.0212 0.61591 0.0
O163 O 0.36284 0.01376 0.69576 0.0
C164 C 0.31103 0.02943 0.71417 0.0
O165 O 0.29368 0.01294 0.70035 0.0
C166 C 0.3009 0.97413 0.67239 0.0
O167 O 0.30262 0.97328 0.69876 0.0
O168 O 0.35695 0.04598 0.65127 0.0
C169 C 0.03443 0.34076 0.65537 0.0
O170 O 0.02661 0.35429 0.65191 0.0
O171 O 0.99716 0.34528 0.70162 0.0
Zn172 Zn 0.99242 0.31653 0.68216 0.0
O173 O 0.97191 0.30662 0.64947 0.0
C174 C 0.96102 0.28971 0.72178 0.0
O175 O 0.95604 0.30535 0.717 0.0
O176 O 0.02257 0.32247 0.66879 0.0
C177 C 0.95456 0.308 0.64645 0.0
O178 O 0.94884 0.31759 0.66587 0.0
C179 C 0.99581 0.36173 0.69257 0.0
O180 O 0.99103 0.36141 0.66684 0.0
O181 O 0.97757 0.2907 0.70908 0.0
C182 C 0.66081 0.69333 0.65067 0.0
O183 O 0.64379 0.67199 0.6538 0.0
O184 O 0.65601 0.65321 0.69714 0.0
Zn185 Zn 0.684 0.67446 0.67544 0.0
O186 O 0.68982 0.65805 0.64442 0.0
C187 C 0.70989 0.67476 0.71914 0.0
O188 O 0.69131 0.65428 0.72143 0.0
O189 O 0.68038 0.69907 0.65899 0.0
C190 C 0.69499 0.64294 0.64745 0.0
O191 O 0.69502 0.63598 0.67194 0.0
C192 C 0.64035 0.63278 0.69034 0.0
O193 O 0.64126 0.62409 0.66651 0.0
O194 O 0.71096 0.68813 0.70097 0.0
C195 C 0.30372 0.33745 0.64451 0.0
O196 O 0.32566 0.35249 0.64305 0.0
O197 O 0.34346 0.34615 0.69392 0.0
Zn198 Zn 0.32068 0.316 0.67536 0.0
O199 O 0.33566 0.30826 0.64527 0.0
C200 C 0.30544 0.29199 0.72698 0.0
O201 O 0.30996 0.31209 0.7371 0.0
O202 O 0.29668 0.31948 0.6584 0.0
C203 C 0.34578 0.2979 0.65062 0.0
O204 O 0.34709 0.29346 0.67601 0.0
C205 C 0.35838 0.34808 0.71013 0.0
O206 O 0.35908 0.32967 0.7152 0.0
O207 O 0.30778 0.28987 0.70164 0.0
C208 C 0.63201 0.99325 0.70161 0.0
O209 O 0.63903 0.97889 0.70386 0.0
O210 O 0.66826 0.98785 0.65586 0.0
Zn211 Zn 0.67383 0.01713 0.67448 0.0
O212 O 0.69473 0.02574 0.70641 0.0
C213 C 0.68403 0.04074 0.62313 0.0
O214 O 0.66792 0.02041 0.61358 0.0
O215 O 0.64433 0.01182 0.68884 0.0
C216 C 0.71609 0.03819 0.70356 0.0
O217 O 0.7245 0.04454 0.67909 0.0
C218 C 0.68311 0.98765 0.64071 0.0
O219 O 0.70276 0.007 0.63766 0.0
O220 O 0.68846 0.04329 0.64836 0.0
C221 C 0.98223 0.63257 0.7163 0.0
O222 O 0.98438 0.6506 0.72973 0.0
O223 O -0.00038 0.67692 0.65527 0.0
Zn224 Zn 0.97113 0.65269 0.674 0.0
O225 O 0.96043 0.6664 0.70278 0.0
C226 C 0.9483 0.63876 0.62129 0.0
O227 O 0.96899 0.64904 0.61146 0.0
O228 O 0.97648 0.6295 0.69142 0.0
C229 C 0.96919 0.6873 0.71102 0.0
O230 O 0.98828 0.70353 0.70029 0.0
C231 C 0.01903 0.68792 0.66648 0.0
O232 O 0.02091 0.68402 0.6919 0.0
O233 O 0.94553 0.63731 0.64685 0.0
C234 C 0.22232 0.32752 0.12403 0.0
C235 C 0.21731 0.31289 0.10104 0.0
C236 C 0.20508 0.32433 0.14173 0.0
C237 C 0.18256 0.3064 0.13674 0.0
C238 C 0.19476 0.2951 0.09591 0.0
C239 C 0.17749 0.29199 0.11354 0.0
C240 C 0.1641 0.30382 0.15445 0.0
C241 C 0.206 0.28612 0.20482 0.0
C242 C 0.2149 0.29974 0.22868 0.0
C243 C 0.18954 0.28693 0.18983 0.0
C244 C 0.18216 0.30183 0.19814 0.0
C245 C 0.20737 0.31444 0.23706 0.0
C246 C 0.19112 0.3154 0.22201 0.0
C247 C 0.16448 0.30285 0.18302 0.0
C248 C 0.07533 0.28978 0.2185 0.0
C249 C 0.08305 0.30675 0.23943 0.0
C250 C 0.09085 0.289 0.20074 0.0
C251 C 0.11421 0.30502 0.20397 0.0
C252 C 0.10636 0.32272 0.24257 0.0
C253 C 0.12184 0.32169 0.22518 0.0
C254 C 0.131 0.30432 0.18593 0.0
C255 C 0.09659 0.33084 0.13597 0.0
C256 C 0.08609 0.31776 0.11221 0.0
C257 C 0.1108 0.32661 0.15092 0.0
C258 C 0.11447 0.30892 0.14264 0.0
C259 C 0.09015 0.30045 0.10355 0.0
C260 C 0.10424 0.29608 0.11864 0.0
C261 C 0.13059 0.30522 0.15738 0.0
H262 H 0.23959 0.3414 0.12834 0.0
H263 H 0.20929 0.33608 0.15908 0.0
H264 H 0.19048 0.28384 0.07806 0.0
H265 H 0.16015 0.27833 0.1091 0.0
H266 H 0.2115 0.27459 0.19805 0.0
H267 H 0.18243 0.27572 0.17199 0.0
H268 H 0.21425 0.3254 0.25515 0.0
H269 H 0.1857 0.32697 0.22892 0.0
H270 H 0.05737 0.27732 0.21583 0.0
H271 H 0.08466 0.27581 0.1847 0.0
H272 H 0.1126 0.33585 0.25869 0.0
H273 H 0.13979 0.33412 0.22807 0.0
H274 H 0.09416 0.34468 0.14268 0.0
H275 H 0.11934 0.33757 0.16857 0.0
H276 H 0.0823 0.29022 0.0852 0.0
H277 H 0.10717 0.28267 0.11156 0.0
N278 N 0.14709 0.30478 0.14277 0.0
N279 N 0.14794 0.30326 0.19759 0.0
C280 C 0.67126 0.90516 0.12822 0.0
C281 C 0.68229 0.91468 0.10364 0.0
C282 C 0.67634 0.89117 0.14258 0.0
C283 C 0.69293 0.88687 0.13293 0.0
C284 C 0.69848 0.90998 0.09362 0.0
C285 C 0.70376 0.89618 0.10817 0.0
C286 C 0.69726 0.87072 0.14695 0.0
C287 C 0.71478 0.92875 0.20854 0.0
C288 C 0.70325 0.92127 0.23333 0.0
C289 C 0.71386 0.9126 0.18939 0.0
C290 C 0.7008 0.88876 0.19455 0.0
C291 C 0.69043 0.89756 0.23851 0.0
C292 C 0.6892 0.8815 0.21934 0.0
C293 C 0.69977 0.87099 0.1754 0.0
C294 C 0.70774 0.78815 0.19419 0.0
C295 C 0.692 0.77882 0.21553 0.0
C296 C 0.71005 0.80659 0.17957 0.0
C297 C 0.69667 0.81588 0.18623 0.0
C298 C 0.67888 0.78833 0.22223 0.0
C299 C 0.68131 0.80675 0.20787 0.0
C300 C 0.69841 0.83527 0.1714 0.0
C301 C 0.66969 0.77453 0.11323 0.0
C302 C 0.6833 0.77816 0.09029 0.0
C303 C 0.67393 0.79309 0.13035 0.0
C304 C 0.69207 0.81556 0.12504 0.0
C305 C 0.70089 0.80074 0.08436 0.0
C306 C 0.70522 0.81934 0.10162 0.0
C307 C 0.69645 0.83527 0.14298 0.0
H308 H 0.65835 0.90814 0.136 0.0
H309 H 0.66693 0.88332 0.16092 0.0
H310 H 0.70711 0.91707 0.07462 0.0
H311 H 0.71624 0.89268 0.10002 0.0
H312 H 0.72476 0.94703 0.20425 0.0
H313 H 0.72351 0.91876 0.1708 0.0
H314 H 0.68116 0.89143 0.25737 0.0
H315 H 0.67903 0.86328 0.22391 0.0
H316 H 0.71799 0.78101 0.18866 0.0
H317 H 0.72226 0.8136 0.1632 0.0
H318 H 0.66678 0.78155 0.23875 0.0
H319 H 0.67088 0.81369 0.21345 0.0
H320 H 0.65567 0.75733 0.11781 0.0
H321 H 0.66294 0.78989 0.14765 0.0
H322 H 0.71149 0.80391 0.06665 0.0
H323 H 0.71899 0.83664 0.09689 0.0
N324 N 0.69606 0.85303 0.13185 0.0
N325 N 0.70008 0.85316 0.18635 0.0
C326 C 0.10441 0.78042 0.1133 0.0
C327 C 0.09503 0.78382 0.09029 0.0
C328 C 0.11796 0.7989 0.13113 0.0
C329 C 0.12224 0.82108 0.12637 0.0
C330 C 0.09939 0.80601 0.08544 0.0
C331 C 0.11301 0.82454 0.10328 0.0
C332 C 0.13837 0.84107 0.14365 0.0
C333 C 0.07924 0.79621 0.19873 0.0
C334 C 0.08494 0.7889 0.2219 0.0
C335 C 0.09628 0.81297 0.18223 0.0
C336 C 0.11926 0.8223 0.18839 0.0
C337 C 0.10787 0.79812 0.22788 0.0
C338 C 0.12482 0.81469 0.21138 0.0
C339 C 0.13779 0.84094 0.17229 0.0
C340 C 0.21814 0.93327 0.20797 0.0
C341 C 0.2255 0.92511 0.22872 0.0
C342 C 0.20172 0.91765 0.18932 0.0
C343 C 0.19248 0.89374 0.19134 0.0
C344 C 0.2164 0.90124 0.23036 0.0
C345 C 0.2 0.88574 0.21199 0.0
C346 C 0.17376 0.87652 0.17375 0.0
C347 C 0.23333 0.91125 0.11602 0.0
C348 C 0.22992 0.92117 0.0935 0.0
C349 C 0.21544 0.89767 0.13363 0.0
C350 C 0.19386 0.89396 0.1292 0.0
C351 C 0.20847 0.91793 0.08951 0.0
C352 C 0.19056 0.90427 0.10706 0.0
C353 C 0.17409 0.87695 0.14514 0.0
H354 H 0.1013 0.76346 0.11743 0.0
H355 H 0.12556 0.79596 0.14827 0.0
H356 H 0.09264 0.80911 0.06757 0.0
H357 H 0.11653 0.84162 0.09893 0.0
H358 H 0.06165 0.78934 0.19376 0.0
H359 H 0.09148 0.81894 0.16504 0.0
H360 H 0.1127 0.79243 0.24532 0.0
H361 H 0.14237 0.82156 0.21661 0.0
H362 H 0.22505 0.95164 0.20623 0.0
H363 H 0.19587 0.92417 0.17381 0.0
H364 H 0.22168 0.89451 0.24629 0.0
H365 H 0.19302 0.86737 0.21403 0.0
H366 H 0.24965 0.91335 0.11949 0.0
H367 H 0.21827 0.88929 0.15001 0.0
H368 H 0.20546 0.92578 0.07268 0.0
H369 H 0.174 0.90144 0.1031 0.0
N370 N 0.15634 0.8592 0.13125 0.0
N371 N 0.1556 0.85862 0.18609 0.0
C372 C 0.31948 0.09958 0.81597 0.0
C373 C 0.30232 0.08768 0.79641 0.0
C374 C 0.31965 0.11618 0.83346 0.0
C375 C 0.30228 0.12083 0.83235 0.0
C376 C 0.28496 0.09235 0.79524 0.0
C377 C 0.28495 0.10876 0.81306 0.0
C378 C 0.30343 0.13989 0.84916 0.0
C379 C 0.29973 0.08862 0.90632 0.0
C380 C 0.31978 0.0969 0.92119 0.0
C381 C 0.2961 0.1039 0.89242 0.0
C382 C 0.31252 0.12772 0.89304 0.0
C383 C 0.33563 0.12085 0.92296 0.0
C384 C 0.33199 0.13614 0.90906 0.0
C385 C 0.30967 0.14394 0.87691 0.0
C386 C 0.30562 0.22847 0.90633 0.0
C387 C 0.32653 0.24202 0.91974 0.0
C388 C 0.30023 0.20791 0.89258 0.0
C389 C 0.31571 0.20065 0.89194 0.0
C390 C 0.34166 0.23433 0.91983 0.0
C391 C 0.33625 0.21376 0.90612 0.0
C392 C 0.31081 0.17952 0.87653 0.0
C393 C 0.31869 0.23064 0.8151 0.0
C394 C 0.29937 0.22312 0.7991 0.0
C395 C 0.32021 0.21517 0.83145 0.0
C396 C 0.30221 0.19196 0.83254 0.0
C397 C 0.28141 0.19988 0.80009 0.0
C398 C 0.28289 0.18441 0.81656 0.0
C399 C 0.30398 0.17521 0.84904 0.0
H400 H 0.33314 0.09644 0.81732 0.0
H401 H 0.33379 0.12586 0.84726 0.0
H402 H 0.27184 0.08397 0.77991 0.0
H403 H 0.27162 0.11237 0.8114 0.0
H404 H 0.28696 0.07028 0.90522 0.0
H405 H 0.28061 0.09707 0.8809 0.0
H406 H 0.35118 0.12768 0.93437 0.0
H407 H 0.34476 0.15449 0.91008 0.0
H408 H 0.29362 0.23399 0.90614 0.0
H409 H 0.28405 0.19778 0.8823 0.0
H410 H 0.35765 0.2442 0.93054 0.0
H411 H 0.34831 0.20832 0.90615 0.0
H412 H 0.3329 0.24838 0.81441 0.0
H413 H 0.33562 0.22127 0.84287 0.0
H414 H 0.26625 0.19369 0.78812 0.0
H415 H 0.2689 0.16654 0.8169 0.0
N416 N 0.30054 0.15555 0.83646 0.0
N417 N 0.31339 0.16374 0.88938 0.0
C418 C 0.91403 0.21574 0.91573 0.0
C419 C 0.9071 0.2275 0.93329 0.0
C420 C 0.89815 0.1968 0.89982 0.0
C421 C 0.8751 0.18939 0.90113 0.0
C422 C 0.88394 0.21952 0.93532 0.0
C423 C 0.86808 0.20059 0.91944 0.0
C424 C 0.85814 0.16996 0.88368 0.0
C425 C 0.89984 0.22634 0.82488 0.0
C426 C 0.90941 0.22067 0.80304 0.0
C427 C 0.88497 0.20941 0.84271 0.0
C428 C 0.87987 0.18655 0.83961 0.0
C429 C 0.90505 0.19808 0.80046 0.0
C430 C 0.89028 0.18112 0.81852 0.0
C431 C 0.86134 0.16779 0.85559 0.0
C432 C 0.7705 0.09575 0.81413 0.0
C433 C 0.7764 0.08368 0.7956 0.0
C434 C 0.78603 0.11097 0.83363 0.0
C435 C 0.80768 0.11424 0.83513 0.0
C436 C 0.79794 0.0867 0.79739 0.0
C437 C 0.81346 0.10192 0.81693 0.0
C438 C 0.82522 0.13245 0.85324 0.0
C439 C 0.7704 0.08029 0.90747 0.0
C440 C 0.75975 0.08942 0.92323 0.0
C441 C 0.79063 0.09502 0.89382 0.0
C442 C 0.8004 0.1191 0.89551 0.0
C443 C 0.76967 0.1135 0.92507 0.0
C444 C 0.7899 0.12821 0.91151 0.0
C445 C 0.82166 0.1351 0.88107 0.0
H446 H 0.93172 0.22117 0.91432 0.0
H447 H 0.90389 0.18799 0.88647 0.0
H448 H 0.87817 0.22827 0.94874 0.0
H449 H 0.85036 0.19506 0.92096 0.0
H450 H 0.90316 0.24372 0.82752 0.0
H451 H 0.87665 0.21403 0.85808 0.0
H452 H 0.91216 0.19326 0.78374 0.0
H453 H 0.88638 0.16356 0.81546 0.0
H454 H 0.75427 0.09427 0.81271 0.0
H455 H 0.78144 0.12091 0.84675 0.0
H456 H 0.80294 0.07769 0.78326 0.0
H457 H 0.83019 0.10444 0.81748 0.0
H458 H 0.76296 0.06175 0.90551 0.0
H459 H 0.79863 0.0876 0.88201 0.0
H460 H 0.76185 0.12096 0.93721 0.0
H461 H 0.7972 0.14674 0.91321 0.0
N462 N 0.83832 0.15369 0.89521 0.0
N463 N 0.84487 0.14893 0.84163 0.0
C464 C 0.7872 0.71175 0.90201 0.0
C465 C 0.77557 0.69227 0.91838 0.0
C466 C 0.80678 0.71644 0.88805 0.0
C467 C 0.81501 0.7017 0.89029 0.0
C468 C 0.7844 0.67813 0.92144 0.0
C469 C 0.80401 0.68287 0.90761 0.0
C470 C 0.83477 0.70532 0.87438 0.0
C471 C 0.77904 0.68313 0.81418 0.0
C472 C 0.78387 0.6979 0.79246 0.0
C473 C 0.79615 0.68682 0.8318 0.0
C474 C 0.81833 0.70597 0.82889 0.0
C475 C 0.80597 0.71723 0.78964 0.0
C476 C 0.82309 0.72116 0.80765 0.0
C477 C 0.8369 0.70863 0.84606 0.0
C478 C 0.90768 0.689 0.81389 0.0
C479 C 0.9192 0.70539 0.79372 0.0
C480 C 0.8928 0.6908 0.83158 0.0
C481 C 0.88946 0.70932 0.82989 0.0
C482 C 0.91603 0.72404 0.79215 0.0
C483 C 0.90122 0.72593 0.81005 0.0
C484 C 0.87184 0.70987 0.84654 0.0
C485 C 0.92281 0.7142 0.90534 0.0
C486 C 0.91378 0.69447 0.92132 0.0
C487 C 0.9085 0.71829 0.89029 0.0
C488 C 0.88496 0.70263 0.89092 0.0
C489 C 0.8902 0.67901 0.92208 0.0
C490 C 0.87593 0.68319 0.90724 0.0
C491 C 0.86938 0.70607 0.87474 0.0
H492 H 0.78111 0.72331 0.89991 0.0
H493 H 0.81535 0.7314 0.87532 0.0
H494 H 0.77579 0.66302 0.93393 0.0
H495 H 0.81015 0.67135 0.90975 0.0
H496 H 0.76208 0.66834 0.8172 0.0
H497 H 0.79206 0.67422 0.8472 0.0
H498 H 0.81016 0.72884 0.77301 0.0
H499 H 0.84014 0.73582 0.8047 0.0
H500 H 0.90972 0.67439 0.81549 0.0
H501 H 0.8833 0.6772 0.8459 0.0
H502 H 0.92424 0.73662 0.77641 0.0
H503 H 0.89855 0.74009 0.808 0.0
H504 H 0.94093 0.72646 0.90451 0.0
H505 H 0.91579 0.7336 0.87816 0.0
H506 H 0.88278 0.66339 0.93365 0.0
H507 H 0.8578 0.67086 0.90794 0.0
N508 N 0.85098 0.70397 0.8875 0.0
N509 N 0.85551 0.71108 0.83334 0.0
C510 C 0.74215 0.62888 0.44909 0.0
C511 C 0.75158 0.64919 0.43411 0.0
C512 C 0.7561 0.62416 0.46395 0.0
C513 C 0.77967 0.63979 0.46421 0.0
C514 C 0.77512 0.66489 0.43474 0.0
C515 C 0.78903 0.66013 0.44945 0.0
C516 C 0.79498 0.63471 0.47844 0.0
C517 C 0.75687 0.64665 0.54445 0.0
C518 C 0.74323 0.62744 0.56063 0.0
C519 C 0.77236 0.64656 0.52618 0.0
C520 C 0.7745 0.62722 0.5236 0.0
C521 C 0.74543 0.60811 0.5581 0.0
C522 C 0.76102 0.60805 0.53982 0.0
C523 C 0.79205 0.62782 0.50565 0.0
C524 C 0.88227 0.6444 0.53421 0.0
C525 C 0.8763 0.62515 0.54995 0.0
C526 C 0.86602 0.64489 0.51855 0.0
C527 C 0.84351 0.62599 0.51801 0.0
C528 C 0.8538 0.60614 0.54921 0.0
C529 C 0.8375 0.60666 0.53355 0.0
C530 C 0.82599 0.62713 0.50282 0.0
C531 C 0.8741 0.62719 0.4404 0.0
C532 C 0.88458 0.64674 0.42404 0.0
C533 C 0.85591 0.62279 0.4572 0.0
C534 C 0.84812 0.63806 0.45818 0.0
C535 C 0.87623 0.6615 0.42436 0.0
C536 C 0.85824 0.65724 0.4413 0.0
C537 C 0.82877 0.63387 0.47551 0.0
H538 H 0.72404 0.61646 0.44886 0.0
H539 H 0.74854 0.60813 0.47475 0.0
H540 H 0.78279 0.68094 0.42394 0.0
H541 H 0.80717 0.67244 0.4494 0.0
H542 H 0.75617 0.66212 0.54661 0.0
H543 H 0.78316 0.66192 0.51466 0.0
H544 H 0.73525 0.59314 0.57046 0.0
H545 H 0.76264 0.5931 0.53843 0.0
H546 H 0.89939 0.65943 0.53467 0.0
H547 H 0.87096 0.66028 0.50736 0.0
H548 H 0.84878 0.59094 0.56084 0.0
H549 H 0.82019 0.59197 0.53358 0.0
H550 H 0.88011 0.61543 0.44037 0.0
H551 H 0.84789 0.6074 0.46924 0.0
H552 H 0.88353 0.67631 0.4114 0.0
H553 H 0.85232 0.66907 0.4413 0.0
N554 N 0.81318 0.63744 0.46454 0.0
N555 N 0.80762 0.62418 0.51677 0.0
C556 C 0.33985 0.23285 0.45914 0.0
C557 C 0.35374 0.24505 0.43715 0.0
C558 C 0.34454 0.21894 0.47433 0.0
C559 C 0.36334 0.21721 0.46794 0.0
C560 C 0.3726 0.24339 0.43085 0.0
C561 C 0.37722 0.22939 0.44597 0.0
C562 C 0.36745 0.20125 0.48262 0.0
C563 C 0.37818 0.25696 0.54422 0.0
C564 C 0.36417 0.24832 0.56717 0.0
C565 C 0.37962 0.24177 0.52565 0.0
C566 C 0.36677 0.21776 0.52964 0.0
C567 C 0.35149 0.22438 0.57112 0.0
C568 C 0.35279 0.20928 0.55259 0.0
C569 C 0.36834 0.20111 0.51118 0.0
C570 C 0.38355 0.12281 0.53121 0.0
C571 C 0.3708 0.11538 0.55522 0.0
C572 C 0.38342 0.13957 0.51563 0.0
C573 C 0.37001 0.14862 0.52351 0.0
C574 C 0.35756 0.12449 0.5631 0.0
C575 C 0.35717 0.14091 0.54744 0.0
C576 C 0.36979 0.16686 0.50813 0.0
C577 C 0.34338 0.10664 0.44908 0.0
C578 C 0.35717 0.11077 0.42617 0.0
C579 C 0.34731 0.12485 0.46664 0.0
C580 C 0.3653 0.14749 0.46181 0.0
C581 C 0.37506 0.13347 0.4212 0.0
C582 C 0.37896 0.15174 0.4388 0.0
C583 C 0.36869 0.16691 0.47955 0.0
H584 H 0.32535 0.23405 0.46457 0.0
H585 H 0.33325 0.20923 0.49076 0.0
H586 H 0.3835 0.2526 0.41392 0.0
H587 H 0.39161 0.22801 0.44049 0.0
H588 H 0.38833 0.27541 0.54098 0.0
H589 H 0.39103 0.24882 0.50853 0.0
H590 H 0.34045 0.21731 0.58858 0.0
H591 H 0.34275 0.19087 0.55618 0.0
H592 H 0.39393 0.11601 0.52486 0.0
H593 H 0.39404 0.14567 0.49775 0.0
H594 H 0.34738 0.11879 0.58139 0.0
H595 H 0.3467 0.14755 0.55406 0.0
H596 H 0.32932 0.08933 0.45318 0.0
H597 H 0.33609 0.12129 0.4838 0.0
H598 H 0.38613 0.13707 0.40389 0.0
H599 H 0.39274 0.16916 0.43456 0.0
N600 N 0.3678 0.18422 0.46791 0.0
N601 N 0.36952 0.18397 0.52268 0.0
C602 C 0.77105 0.10676 0.44735 0.0
C603 C 0.75913 0.10895 0.42625 0.0
C604 C 0.78484 0.12567 0.46452 0.0
C605 C 0.78698 0.14707 0.46075 0.0
C606 C 0.76094 0.13022 0.42269 0.0
C607 C 0.77506 0.14929 0.43964 0.0
C608 C 0.80313 0.16744 0.47745 0.0
C609 C 0.74397 0.12262 0.53132 0.0
C610 C 0.74925 0.11399 0.5536 0.0
C611 C 0.76127 0.13998 0.51572 0.0
C612 C 0.78413 0.14883 0.522 0.0
C613 C 0.7721 0.1231 0.56005 0.0
C614 C 0.78935 0.14037 0.54446 0.0
C615 C 0.80278 0.16748 0.50607 0.0
C616 C 0.88375 0.26048 0.53905 0.0
C617 C 0.89189 0.25301 0.55968 0.0
C618 C 0.8668 0.24433 0.52133 0.0
C619 C 0.85776 0.22053 0.52413 0.0
C620 C 0.88306 0.22925 0.56208 0.0
C621 C 0.86604 0.21317 0.54463 0.0
C622 C 0.83878 0.20292 0.50707 0.0
C623 C 0.89778 0.23594 0.44872 0.0
C624 C 0.89506 0.24767 0.42773 0.0
C625 C 0.87973 0.22216 0.46599 0.0
C626 C 0.85866 0.21992 0.46251 0.0
C627 C 0.87417 0.24587 0.42463 0.0
C628 C 0.856 0.23184 0.4417 0.0
C629 C 0.83884 0.20315 0.47846 0.0
H630 H 0.76978 0.09044 0.45038 0.0
H631 H 0.79428 0.12375 0.48034 0.0
H632 H 0.75187 0.13217 0.40642 0.0
H633 H 0.77675 0.16576 0.43627 0.0
H634 H 0.7265 0.11624 0.52627 0.0
H635 H 0.75676 0.14671 0.49904 0.0
H636 H 0.77662 0.1167 0.57708 0.0
H637 H 0.80682 0.14699 0.54982 0.0
H638 H 0.89042 0.27875 0.53677 0.0
H639 H 0.8604 0.25037 0.50592 0.0
H640 H 0.88895 0.22306 0.57795 0.0
H641 H 0.85925 0.19489 0.54721 0.0
H642 H 0.91382 0.23724 0.45156 0.0
H643 H 0.88201 0.21267 0.48148 0.0
H644 H 0.87174 0.25477 0.40851 0.0
H645 H 0.83978 0.23005 0.43847 0.0
N646 N 0.821 0.18537 0.46473 0.0
N647 N 0.82072 0.18514 0.51974 0.0
C648 C 0.96746 0.55757 0.15206 0.0
C649 C 0.98472 0.56959 0.13296 0.0
C650 C 0.96636 0.53958 0.16632 0.0
C651 C 0.98236 0.53327 0.16136 0.0
C652 C 0.00055 0.56313 0.12787 0.0
C653 C -0.00076 0.54496 0.14177 0.0
C654 C 0.98153 0.51431 0.17609 0.0
C655 C 0.00552 0.5735 0.23574 0.0
C656 C 0.99063 0.56922 0.2575 0.0
C657 C 0.00235 0.55539 0.21847 0.0
C658 C 0.98411 0.53269 0.22251 0.0
C659 C 0.97277 0.54641 0.26202 0.0
C660 C 0.96959 0.52826 0.24469 0.0
C661 C 0.98113 0.51343 0.20464 0.0
C662 C 0.00236 0.442 0.22763 0.0
C663 C 0.98715 0.43043 0.24891 0.0
C664 C -0.00022 0.45696 0.21155 0.0
C665 C 0.98188 0.46049 0.21645 0.0
C666 C 0.96908 0.43373 0.25353 0.0
C667 C 0.96662 0.44883 0.23761 0.0
C668 C 0.9803 0.47799 0.20147 0.0
C669 C 0.96602 0.42173 0.13875 0.0
C670 C 0.9805 0.4295 0.11612 0.0
C671 C 0.9663 0.43766 0.15768 0.0
C672 C 0.98129 0.46158 0.15441 0.0
C673 C 0.99543 0.45337 0.11293 0.0
C674 C 0.99581 0.46922 0.13184 0.0
C675 C 0.98098 0.47901 0.17285 0.0
H676 H 0.95507 0.5623 0.15615 0.0
H677 H 0.95299 0.53052 0.18108 0.0
H678 H 0.01388 0.57211 0.11303 0.0
H679 H 0.01165 0.54028 0.13754 0.0
H680 H 0.01982 0.59082 0.2323 0.0
H681 H 0.01436 0.55911 0.20218 0.0
H682 H 0.96114 0.54268 0.27876 0.0
H683 H 0.95567 0.5108 0.24843 0.0
H684 H 0.0163 0.43953 0.22353 0.0
H685 H 0.01209 0.46619 0.19576 0.0
H686 H 0.95718 0.42503 0.26987 0.0
H687 H 0.95288 0.45156 0.24193 0.0
H688 H 0.95412 0.40339 0.14141 0.0
H689 H 0.9544 0.4313 0.1744 0.0
H690 H 0.00686 0.45978 0.09574 0.0
H691 H 0.00744 0.48755 0.12875 0.0
N692 N 0.98159 0.49718 0.16135 0.0
N693 N 0.98032 0.49521 0.21624 0.0
C694 C 0.44402 0.40815 0.14923 0.0
C695 C 0.43566 0.41589 0.12921 0.0
C696 C 0.46196 0.42414 0.16598 0.0
C697 C 0.4718 0.44804 0.16274 0.0
C698 C 0.44584 0.43976 0.12572 0.0
C699 C 0.46378 0.45566 0.14224 0.0
C700 C 0.49075 0.46544 0.18002 0.0
C701 C 0.4304 0.43189 0.23511 0.0
C702 C 0.43214 0.41982 0.25648 0.0
C703 C 0.44926 0.44617 0.2192 0.0
C704 C 0.47019 0.44849 0.22422 0.0
C705 C 0.4531 0.42226 0.26165 0.0
C706 C 0.47203 0.43662 0.24572 0.0
C707 C 0.4905 0.46494 0.20864 0.0
C708 C 0.55951 0.55987 0.24349 0.0
C709 C 0.57256 0.55699 0.26241 0.0
C710 C 0.54497 0.54159 0.22593 0.0
C711 C 0.54316 0.52013 0.22723 0.0
C712 C 0.57086 0.53558 0.26365 0.0
C713 C 0.556 0.51714 0.24636 0.0
C714 C 0.52646 0.5004 0.21014 0.0
C715 C 0.58355 0.54737 0.1535 0.0
C716 C 0.57673 0.55713 0.13412 0.0
C717 C 0.56734 0.52931 0.16943 0.0
C718 C 0.54416 0.52075 0.16598 0.0
C719 C 0.55358 0.54856 0.13083 0.0
C720 C 0.53746 0.53044 0.14644 0.0
C721 C 0.5265 0.50111 0.18159 0.0
H722 H 0.43652 0.38979 0.15207 0.0
H723 H 0.46821 0.41787 0.1813 0.0
H724 H 0.43997 0.44613 0.11003 0.0
H725 H 0.47122 0.47399 0.13921 0.0
H726 H 0.41445 0.43037 0.2308 0.0
H727 H 0.44759 0.45578 0.20333 0.0
H728 H 0.45497 0.41348 0.27837 0.0
H729 H 0.48814 0.43857 0.25028 0.0
H730 H 0.56064 0.5763 0.24225 0.0
H731 H 0.53482 0.54407 0.21167 0.0
H732 H 0.58078 0.53307 0.27823 0.0
H733 H 0.55454 0.50058 0.24787 0.0
H734 H 0.60135 0.55381 0.15642 0.0
H735 H 0.57287 0.52182 0.18409 0.0
H736 H 0.54794 0.55576 0.11591 0.0
H737 H 0.51969 0.52405 0.14336 0.0
N738 N 0.50866 0.48358 0.16767 0.0
N739 N 0.50849 0.48233 0.22262 0.0
C740 C 0.44968 0.0335 0.23729 0.0
C741 C 0.43822 0.01408 0.25376 0.0
C742 C 0.4689 0.03793 0.22271 0.0
C743 C 0.47685 0.0229 0.22426 0.0
C744 C 0.44674 -0.00038 0.25613 0.0
C745 C 0.46593 0.00403 0.24154 0.0
C746 C 0.49663 0.02666 0.20828 0.0
C747 C 0.44244 0.00958 0.14699 0.0
C748 C 0.44827 0.02653 0.12761 0.0
C749 C 0.45881 0.01117 0.16443 0.0
C750 C 0.48132 0.03001 0.16323 0.0
C751 C 0.47079 0.04539 0.1264 0.0
C752 C 0.48718 0.04706 0.14401 0.0
C753 C 0.49913 0.03085 0.18017 0.0
C754 C 0.57007 0.0114 0.14757 0.0
C755 C 0.58134 0.02779 0.12736 0.0
C756 C 0.55512 0.01302 0.16534 0.0
C757 C 0.55154 0.03138 0.16366 0.0
C758 C 0.5782 0.04646 0.12605 0.0
C759 C 0.56327 0.04813 0.14394 0.0
C760 C 0.53392 0.03179 0.18044 0.0
C761 C 0.58634 0.03903 0.23877 0.0
C762 C 0.57814 0.02146 0.25787 0.0
C763 C 0.57131 0.04133 0.22278 0.0
C764 C 0.54782 0.02574 0.22515 0.0
C765 C 0.55465 0.00612 0.26048 0.0
C766 C 0.53965 0.00829 0.24435 0.0
C767 C 0.53147 0.02781 0.20861 0.0
H768 H 0.44373 0.04523 0.23567 0.0
H769 H 0.47747 0.05301 0.21016 0.0
H770 H 0.43822 0.98457 0.26874 0.0
H771 H 0.47192 0.99234 0.24324 0.0
H772 H 0.42524 0.99479 0.1483 0.0
H773 H 0.45396 0.99732 0.17834 0.0
H774 H 0.4759 0.05841 0.11124 0.0
H775 H 0.50452 0.0615 0.14237 0.0
H776 H 0.57237 0.99696 0.14916 0.0
H777 H 0.54582 -0.00053 0.17979 0.0
H778 H 0.5866 0.05923 0.11054 0.0
H779 H 0.56055 0.06227 0.14206 0.0
H780 H 0.60438 0.05089 0.23601 0.0
H781 H 0.57806 0.05532 0.20865 0.0
H782 H 0.54786 0.99253 0.27516 0.0
H783 H 0.52161 0.99617 0.24674 0.0
N784 N 0.51286 0.0253 0.22131 0.0
N785 N 0.51775 0.03336 0.1674 0.0
C786 C 0.55676 0.99363 0.78354 0.0
C787 C 0.55289 0.97874 0.76111 0.0
C788 C 0.53868 0.99055 0.79956 0.0
C789 C 0.51644 0.97247 0.79344 0.0
C790 C 0.53058 0.96102 0.75461 0.0
C791 C 0.51247 0.95802 0.77056 0.0
C792 C 0.49726 0.96919 0.81031 0.0
C793 C 0.53834 0.95096 0.86027 0.0
C794 C 0.5477 0.96485 0.88385 0.0
C795 C 0.52159 0.95157 0.84577 0.0
C796 C 0.51424 0.96645 0.85429 0.0
C797 C 0.53982 0.97913 0.89283 0.0
C798 C 0.52326 0.97992 0.87821 0.0
C799 C 0.49689 0.96779 0.83884 0.0
C800 C 0.40643 0.95372 0.87107 0.0
C801 C 0.41368 0.9708 0.89183 0.0
C802 C 0.42232 0.95279 0.85412 0.0
C803 C 0.44563 0.96881 0.85794 0.0
C804 C 0.43698 0.98651 0.89584 0.0
C805 C 0.4528 0.98541 0.87919 0.0
C806 C 0.46287 0.96834 0.84048 0.0
C807 C 0.42616 0.99048 0.78664 0.0
C808 C 0.41742 0.97726 0.76244 0.0
C809 C 0.44059 0.98763 0.80311 0.0
C810 C 0.44621 0.97113 0.79599 0.0
C811 C 0.42334 0.96103 0.75516 0.0
C812 C 0.43754 0.95798 0.77179 0.0
C813 C 0.46293 0.96909 0.81183 0.0
H814 H 0.57382 0.00746 0.78887 0.0
H815 H 0.54206 0.00228 0.81673 0.0
H816 H 0.52718 0.94958 0.73713 0.0
H817 H 0.49538 0.94422 0.76528 0.0
H818 H 0.5438 0.93944 0.85327 0.0
H819 H 0.51433 0.94033 0.82797 0.0
H820 H 0.54677 0.98999 0.91099 0.0
H821 H 0.51774 0.99135 0.88536 0.0
H822 H 0.38853 0.94136 0.86777 0.0
H823 H 0.41645 0.93957 0.83813 0.0
H824 H 0.44295 -0.0004 0.912 0.0
H825 H 0.47069 0.99779 0.88265 0.0
H826 H 0.42201 0.00323 0.7927 0.0
H827 H 0.44779 -0.00123 0.82098 0.0
H828 H 0.41748 0.95109 0.73626 0.0
H829 H 0.44203 0.94553 0.76552 0.0
N830 N 0.48015 0.96947 0.79792 0.0
N831 N 0.47985 0.96772 0.85282 0.0
C832 C 0.98938 0.5614 0.79827 0.0
C833 C 0.00104 0.57136 0.77411 0.0
C834 C 0.99424 0.54735 0.81292 0.0
C835 C 0.01121 0.54339 0.80396 0.0
C836 C 0.01783 0.56719 0.76501 0.0
C837 C 0.02276 0.55322 0.77973 0.0
C838 C 0.01589 0.52773 0.81857 0.0
C839 C 0.03345 0.58682 0.87841 0.0
C840 C 0.02135 0.5798 0.90293 0.0
C841 C 0.03255 0.57036 0.85983 0.0
C842 C 0.01925 0.54664 0.86537 0.0
C843 C 0.00821 0.55612 0.90845 0.0
C844 C 0.0072 0.53974 0.88989 0.0
C845 C 0.01882 0.5288 0.847 0.0
C846 C 0.04114 0.45564 0.86546 0.0
C847 C 0.02958 0.44765 0.89018 0.0
C848 C 0.03846 0.471 0.85018 0.0
C849 C 0.02373 0.47814 0.85908 0.0
C850 C 0.01496 0.45488 0.89906 0.0
C851 C 0.01215 0.47002 0.88374 0.0
C852 C 0.02101 0.49498 0.84394 0.0
C853 C 0.99611 0.43327 0.78755 0.0
C854 C 0.00895 0.43778 0.76368 0.0
C855 C -0.00091 0.45147 0.80453 0.0
C856 C 0.01509 0.47449 0.79802 0.0
C857 C 0.02448 0.46083 0.7568 0.0
C858 C 0.02746 0.47905 0.77381 0.0
C859 C 0.01798 0.49385 0.81555 0.0
H860 H 0.97622 0.56419 0.80559 0.0
H861 H 0.9845 0.53932 0.83101 0.0
H862 H 0.0273 0.57493 0.74666 0.0
H863 H 0.03573 0.55019 0.77226 0.0
H864 H 0.04396 0.60503 0.87392 0.0
H865 H 0.04257 0.5762 0.84146 0.0
H866 H -0.00136 0.55028 0.92715 0.0
H867 H 0.99695 0.52158 0.89472 0.0
H868 H 0.05253 0.45032 0.85825 0.0
H869 H 0.04813 0.47751 0.83166 0.0
H870 H 0.00553 0.44864 0.91779 0.0
H871 H 0.00075 0.47528 0.89113 0.0
H872 H 0.98357 0.41566 0.79291 0.0
H873 H 0.98873 0.44755 0.82259 0.0
H874 H 0.03449 0.46473 0.73843 0.0
H875 H 0.03961 0.49672 0.76821 0.0
N876 N 0.01575 0.51037 0.80398 0.0
N877 N 0.02119 0.51235 0.85845 0.0
C878 C 0.55496 0.58587 0.77938 0.0
C879 C 0.56501 0.57646 0.76297 0.0
C880 C 0.53627 0.57158 0.79568 0.0
C881 C 0.52739 0.54765 0.79589 0.0
C882 C 0.5561 0.55254 0.76327 0.0
C883 C 0.53744 0.53829 0.77949 0.0
C884 C 0.50666 0.53186 0.81136 0.0
C885 C 0.55802 0.57431 0.87676 0.0
C886 C 0.5521 0.58674 0.89468 0.0
C887 C 0.54242 0.55848 0.85772 0.0
C888 C 0.52063 0.55484 0.85612 0.0
C889 C 0.53043 0.58339 0.89274 0.0
C890 C 0.51481 0.56751 0.8737 0.0
C891 C 0.50303 0.53585 0.83877 0.0
C892 C 0.42353 0.44354 0.86875 0.0
C893 C 0.41033 0.44975 0.88419 0.0
C894 C 0.44193 0.46002 0.85374 0.0
C895 C 0.44731 0.48301 0.85354 0.0
C896 C 0.41607 0.47289 0.88461 0.0
C897 C 0.43445 0.4894 0.86941 0.0
C898 C 0.4669 0.50049 0.83768 0.0
C899 C 0.41539 0.44865 0.77892 0.0
C900 C 0.42265 0.4355 0.76474 0.0
C901 C 0.43094 0.46884 0.79332 0.0
C902 C 0.45393 0.476 0.79405 0.0
C903 C 0.44574 0.44302 0.76494 0.0
C904 C 0.46127 0.4632 0.77933 0.0
C905 C 0.47048 0.49666 0.81025 0.0
H906 H 0.56118 0.60418 0.77908 0.0
H907 H 0.52841 0.57914 0.80752 0.0
H908 H 0.56356 0.54484 0.75091 0.0
H909 H 0.5308 0.51986 0.77917 0.0
H910 H 0.57433 0.57599 0.87832 0.0
H911 H 0.54707 0.5483 0.84513 0.0
H912 H 0.5254 0.59268 0.90637 0.0
H913 H 0.49799 0.56475 0.87308 0.0
H914 H 0.41996 0.42601 0.86878 0.0
H915 H 0.45211 0.45484 0.84251 0.0
H916 H 0.40629 0.47815 0.89663 0.0
H917 H 0.43854 0.50712 0.86988 0.0
H918 H 0.39764 0.44307 0.77931 0.0
H919 H 0.42497 0.47871 0.8041 0.0
H920 H 0.45175 0.43325 0.754 0.0
H921 H 0.47895 0.46851 0.77948 0.0
N922 N 0.49024 0.5124 0.79825 0.0
N923 N 0.48322 0.52002 0.85081 0.0
C924 C 0.65362 0.76143 0.47536 0.0
C925 C 0.63818 0.75196 0.45363 0.0
C926 C 0.65296 0.7768 0.49421 0.0
C927 C 0.63621 0.78229 0.49247 0.0
C928 C 0.6211 0.75701 0.45224 0.0
C929 C 0.62016 0.77204 0.47145 0.0
C930 C 0.63705 0.80084 0.51004 0.0
C931 C 0.63114 0.74806 0.56795 0.0
C932 C 0.64882 0.75657 0.58702 0.0
C933 C 0.62879 0.76329 0.55205 0.0
C934 C 0.64443 0.78728 0.55438 0.0
C935 C 0.66422 0.78058 0.58957 0.0
C936 C 0.66202 0.79574 0.57349 0.0
C937 C 0.64224 0.80391 0.53812 0.0
C938 C 0.63959 0.88925 0.56881 0.0
C939 C 0.65993 0.90172 0.58356 0.0
C940 C 0.63403 0.86885 0.5545 0.0
C941 C 0.6488 0.86069 0.55467 0.0
C942 C 0.67423 0.89304 0.58453 0.0
C943 C 0.66866 0.87266 0.57028 0.0
C944 C 0.64392 0.83984 0.5386 0.0
C945 C 0.65647 0.8937 0.47878 0.0
C946 C 0.63786 0.8875 0.46202 0.0
C947 C 0.65663 0.87722 0.49468 0.0
C948 C 0.63798 0.85429 0.49453 0.0
C949 C 0.61927 0.86452 0.46171 0.0
C950 C 0.61941 0.84803 0.47772 0.0
C951 C 0.63832 0.83659 0.51076 0.0
H952 H 0.66667 0.75747 0.47737 0.0
H953 H 0.66611 0.78501 0.50949 0.0
H954 H 0.60902 0.75008 0.4357 0.0
H955 H 0.60725 0.7762 0.4694 0.0
H956 H 0.61922 0.72963 0.56517 0.0
H957 H 0.61471 0.75628 0.53802 0.0
H958 H 0.6779 0.78767 0.60422 0.0
H959 H 0.67419 0.81417 0.57591 0.0
H960 H 0.62822 0.89553 0.56794 0.0
H961 H 0.61833 0.85958 0.54313 0.0
H962 H 0.68974 0.90206 0.59628 0.0
H963 H 0.68015 0.86651 0.57095 0.0
H964 H 0.67115 0.91121 0.47911 0.0
H965 H 0.67148 0.88234 0.50681 0.0
H966 H 0.60462 0.85934 0.44916 0.0
H967 H 0.60494 0.83039 0.4771 0.0
N968 N 0.63505 0.81721 0.49764 0.0
N969 N 0.64564 0.8234 0.55113 0.0
C970 C 0.11293 0.74351 0.48943 0.0
C971 C 0.10367 0.75044 0.46955 0.0
C972 C 0.12863 0.7598 0.50822 0.0
C973 C 0.13535 0.78318 0.50711 0.0
C974 C 0.11004 0.7737 0.46898 0.0
C975 C 0.12587 0.78994 0.48742 0.0
C976 C 0.15362 0.8012 0.52459 0.0
C977 C 0.09395 0.76279 0.58015 0.0
C978 C 0.09718 0.7514 0.60117 0.0
C979 C 0.11218 0.77836 0.56416 0.0
C980 C 0.13399 0.78274 0.56871 0.0
C981 C 0.119 0.75565 0.60556 0.0
C982 C 0.13729 0.77138 0.58964 0.0
C983 C 0.15358 0.80052 0.55316 0.0
C984 C 0.22461 0.89771 0.58489 0.0
C985 C 0.23568 0.89437 0.60614 0.0
C986 C 0.2095 0.87913 0.56803 0.0
C987 C 0.20538 0.85688 0.57185 0.0
C988 C 0.23139 0.87205 0.61011 0.0
C989 C 0.21621 0.85343 0.59323 0.0
C990 C 0.18871 0.83702 0.55468 0.0
C991 C 0.24592 0.88304 0.49733 0.0
C992 C 0.23918 0.89171 0.47649 0.0
C993 C 0.22966 0.8657 0.51399 0.0
C994 C 0.20647 0.85686 0.51003 0.0
C995 C 0.21601 0.88288 0.47272 0.0
C996 C 0.19985 0.86556 0.4892 0.0
C997 C 0.18872 0.83757 0.52606 0.0
H998 H 0.10817 0.72562 0.49025 0.0
H999 H 0.13601 0.7543 0.52303 0.0
H1000 H 0.10322 0.77945 0.45373 0.0
H1001 H 0.13093 0.80791 0.48612 0.0
H1002 H 0.0774 0.76007 0.57647 0.0
H1003 H 0.10931 0.78745 0.54869 0.0
H1004 H 0.12194 0.74679 0.62125 0.0
H1005 H 0.15402 0.77465 0.59364 0.0
H1006 H 0.22741 0.91467 0.58156 0.0
H1007 H 0.20078 0.88212 0.55225 0.0
H1008 H 0.23995 0.86904 0.62606 0.0
H1009 H 0.21308 0.83635 0.5967 0.0
H1010 H 0.2637 0.8897 0.50075 0.0
H1011 H 0.23516 0.85893 0.52959 0.0
H1012 H 0.21035 0.88913 0.45668 0.0
H1013 H 0.18207 0.85892 0.48562 0.0
N1014 N 0.17113 0.81968 0.51224 0.0
N1015 N 0.17121 0.81842 0.56714 0.0
C1016 C 0.25312 0.3771 0.47319 0.0
C1017 C 0.24492 0.36222 0.45017 0.0
C1018 C 0.23799 0.37781 0.49171 0.0
C1019 C 0.21445 0.36339 0.48764 0.0
C1020 C 0.22144 0.348 0.44608 0.0
C1021 C 0.20639 0.3486 0.46458 0.0
C1022 C 0.19791 0.36428 0.50613 0.0
C1023 C 0.2323 0.33895 0.55865 0.0
C1024 C 0.2442 0.35374 0.58085 0.0
C1025 C 0.2181 0.34283 0.54314 0.0
C1026 C 0.21573 0.36169 0.54941 0.0
C1027 C 0.24204 0.37276 0.58692 0.0
C1028 C 0.22773 0.37656 0.57148 0.0
C1029 C 0.19914 0.36463 0.53474 0.0
C1030 C 0.10705 0.34067 0.56967 0.0
C1031 C 0.112 0.35611 0.59182 0.0
C1032 C 0.12422 0.34363 0.55201 0.0
C1033 C 0.14662 0.36218 0.55608 0.0
C1034 C 0.13449 0.37438 0.59624 0.0
C1035 C 0.1517 0.3773 0.57858 0.0
C1036 C 0.16499 0.36479 0.53811 0.0
C1037 C 0.12028 0.37773 0.48595 0.0
C1038 C 0.10919 0.36066 0.46538 0.0
C1039 C 0.13802 0.37905 0.50058 0.0
C1040 C 0.14489 0.36334 0.49473 0.0
C1041 C 0.11621 0.34511 0.45951 0.0
C1042 C 0.13402 0.34658 0.47388 0.0
C1043 C 0.16373 0.3644 0.50954 0.0
H1044 H 0.27117 0.38849 0.47654 0.0
H1045 H 0.2447 0.38991 0.50886 0.0
H1046 H 0.2147 0.33628 0.42856 0.0
H1047 H 0.18835 0.33739 0.46088 0.0
H1048 H 0.23389 0.32431 0.55341 0.0
H1049 H 0.20857 0.33077 0.52664 0.0
H1050 H 0.25102 0.38436 0.60399 0.0
H1051 H 0.22588 0.39102 0.57688 0.0
H1052 H 0.08985 0.32642 0.56588 0.0
H1053 H 0.12002 0.33126 0.53533 0.0
H1054 H 0.13878 0.38627 0.61347 0.0
H1055 H 0.16896 0.39143 0.58239 0.0
H1056 H 0.11506 0.38984 0.49086 0.0
H1057 H 0.14643 0.39238 0.51629 0.0
H1058 H 0.10799 0.3319 0.44362 0.0
H1059 H 0.13912 0.33438 0.46892 0.0
N1060 N 0.18019 0.36409 0.49474 0.0
N1061 N 0.18272 0.36505 0.5496 0.0
C1062 C 0.98002 0.40274 0.04738 0.0
C1063 C 0.98442 0.38551 0.05374 0.0
C1064 C 0.978 0.41632 0.06778 0.0
C1065 C 0.98006 0.41306 0.09533 0.0
H1066 H 0.979 0.40646 0.02645 0.0
H1067 H 0.9753 0.42986 0.06191 0.0
S1068 S 0.98972 0.36914 0.12311 0.0
N1069 N 0.98929 0.36497 0.08988 0.0
N1070 N 0.98551 0.39065 0.12814 0.0
C1071 C 0.98334 0.39521 0.10213 0.0
C1072 C 0.98553 0.38141 0.08135 0.0
C1073 C 0.60683 0.6144 0.099 0.0
C1074 C 0.62124 0.61219 0.08042 0.0
C1075 C 0.59311 0.59681 0.11689 0.0
C1076 C 0.59341 0.5764 0.11723 0.0
H1077 H 0.60556 0.62957 0.09929 0.0
H1078 H 0.58182 0.599 0.13027 0.0
S1079 S 0.62896 0.56234 0.07424 0.0
N1080 N 0.63568 0.5882 0.06449 0.0
N1081 N 0.60983 0.55514 0.09846 0.0
C1082 C 0.60832 0.57422 0.09966 0.0
C1083 C 0.62222 0.59209 0.08116 0.0
C1084 C 0.4019 0.99811 0.07448 0.0
C1085 C 0.39807 0.01573 0.06798 0.0
C1086 C 0.4181 0.00186 0.09372 0.0
C1087 C 0.43121 0.02338 0.1074 0.0
H1088 H 0.39238 0.98118 0.06455 0.0
H1089 H 0.42055 0.98779 0.0977 0.0
S1090 S 0.42755 0.07515 0.0987 0.0
N1091 N 0.40865 0.05556 0.07719 0.0
N1092 N 0.43905 0.06249 0.11369 0.0
C1093 C 0.42764 0.04121 0.10124 0.0
C1094 C 0.41108 0.03741 0.08151 0.0
C1095 C 0.3684 0.95641 0.94519 0.0
C1096 C 0.36945 0.97755 0.94896 0.0
C1097 C 0.38205 0.95393 0.92578 0.0
C1098 C 0.39722 0.97251 0.90957 0.0
H1099 H 0.3576 0.94193 0.95797 0.0
H1100 H 0.38142 0.9377 0.92422 0.0
S1101 S 0.40416 0.03025 0.90847 0.0
N1102 N 0.38526 0.01657 0.93254 0.0
N1103 N 0.41092 0.0118 0.89644 0.0
C1104 C 0.39757 0.99325 0.91207 0.0
C1105 C 0.38367 0.99579 0.93165 0.0
C1106 C 0.02728 0.3934 0.9112 0.0
C1107 C 0.03109 0.39699 0.93944 0.0
C1108 C 0.02791 0.41033 0.89511 0.0
C1109 C 0.03221 0.43141 0.90666 0.0
H1110 H 0.02295 0.37705 0.90153 0.0
H1111 H 0.02395 0.40645 0.8737 0.0
S1112 S 0.04612 0.45082 0.97869 0.0
N1113 N 0.04149 0.42441 0.97766 0.0
N1114 N 0.04255 0.45602 0.94731 0.0
C1115 C 0.0373 0.4358 0.93448 0.0
C1116 C 0.03681 0.41868 0.95088 0.0
C1117 C 0.57441 0.60982 0.96574 0.0
C1118 C 0.59785 0.62487 0.96162 0.0
C1119 C 0.55964 0.59827 0.94387 0.0
C1120 C 0.56769 0.60138 0.91701 0.0
H1121 H 0.56745 0.60619 0.98607 0.0
H1122 H 0.5419 0.58608 0.94815 0.0
S1123 S 0.62698 0.64128 0.89481 0.0
N1124 N 0.62807 0.64392 0.92825 0.0
N1125 N 0.60017 0.62231 0.88722 0.0
C1126 C 0.59086 0.61727 0.91244 0.0
C1127 C 0.60595 0.62902 0.93471 0.0
C1128 C 0.02629 0.60999 0.97063 0.0
C1129 C 0.01955 0.62551 0.96458 0.0
C1130 C 0.02758 0.59586 0.95036 0.0
C1131 C 0.02241 0.59685 0.92321 0.0
H1132 H 0.02985 0.60807 0.99134 0.0
H1133 H 0.0322 0.58368 0.95608 0.0
S1134 S 0.0056 0.63565 0.89606 0.0
N1135 N 0.00898 0.64199 0.92894 0.0
N1136 N 0.01142 0.61528 0.89092 0.0
C1137 C 0.01668 0.61299 0.91656 0.0
C1138 C 0.01523 0.62734 0.93723 0.0
C1139 C 0.37493 0.41956 0.94597 0.0
C1140 C 0.35893 0.39718 0.93572 0.0
C1141 C 0.39085 0.43679 0.92895 0.0
C1142 C 0.39149 0.43229 0.90105 0.0
H1143 H 0.37566 0.42368 0.96748 0.0
H1144 H 0.40337 0.45345 0.93792 0.0
S1145 S 0.35198 0.37764 0.86332 0.0
N1146 N 0.34369 0.3722 0.89524 0.0
N1147 N 0.37367 0.4047 0.86338 0.0
C1148 C 0.37498 0.41045 0.89025 0.0
C1149 C 0.35866 0.39289 0.90753 0.0
C1150 C 0.58025 0.96243 0.94306 0.0
C1151 C 0.6012 0.96816 0.93143 0.0
C1152 C 0.56287 0.96081 0.92738 0.0
C1153 C 0.56557 0.96454 0.89936 0.0
H1154 H 0.57744 0.95998 0.96469 0.0
H1155 H 0.54731 0.95699 0.93735 0.0
S1156 S 0.6162 0.97835 0.85839 0.0
N1157 N 0.62304 0.97632 0.88963 0.0
N1158 N 0.59019 0.97313 0.86022 0.0
C1159 C 0.58593 0.96924 0.88715 0.0
C1160 C 0.60378 0.97108 0.90316 0.0
C1161 C 0.63044 0.03945 0.08109 0.0
C1162 C 0.62166 0.01836 0.06628 0.0
C1163 C 0.61734 0.04248 0.1008 0.0
C1164 C 0.59507 0.02448 0.10655 0.0
H1165 H 0.64756 0.05376 0.07751 0.0
H1166 H 0.62475 0.05893 0.11181 0.0
S1167 S 0.5635 0.96638 0.0727 0.0
N1168 N 0.58876 0.97941 0.05835 0.0
N1169 N 0.56438 0.98533 0.09515 0.0
C1170 C 0.58599 0.00346 0.09175 0.0
C1171 C 0.59921 0.00034 0.0717 0.0
C1172 C 0.97268 0.60265 0.08278 0.0
C1173 C 0.99235 0.62504 0.08456 0.0
C1174 C 0.96977 0.58495 0.09941 0.0
C1175 C 0.98652 0.58898 0.11817 0.0
H1176 H 0.95969 0.59856 0.06793 0.0
H1177 H 0.95477 0.56778 0.09684 0.0
S1178 S 0.04 0.64463 0.13293 0.0
N1179 N 0.02802 0.65044 0.10847 0.0
N1180 N 0.02249 0.61695 0.13918 0.0
C1181 C 0.00574 0.61135 0.12103 0.0
C1182 C 0.00866 0.62945 0.10438 0.0
C1183 C 0.40146 0.36914 0.07577 0.0
C1184 C 0.38306 0.37186 0.07145 0.0
C1185 C 0.41798 0.38271 0.09546 0.0
C1186 C 0.41659 0.39938 0.11144 0.0
H1187 H 0.40366 0.35717 0.06313 0.0
H1188 H 0.43243 0.38088 0.09735 0.0
S1189 S 0.37006 0.41066 0.11127 0.0
N1190 N 0.36318 0.39067 0.0871 0.0
N1191 N 0.39423 0.41604 0.12397 0.0
C1192 C 0.39762 0.40126 0.1085 0.0
C1193 C 0.38085 0.38752 0.08853 0.0
C1194 C 0.62366 0.70445 0.40005 0.0
C1195 C 0.6449 0.71135 0.3886 0.0
C1196 C 0.62159 0.71749 0.42127 0.0
C1197 C 0.64068 0.73802 0.43159 0.0
H1198 H 0.60856 0.68871 0.39281 0.0
H1199 H 0.60495 0.71137 0.42977 0.0
S1200 S 0.69978 0.76484 0.40646 0.0
N1201 N 0.68521 0.74068 0.38807 0.0
N1202 N 0.68124 0.7655 0.42717 0.0
C1203 C 0.66193 0.74535 0.41981 0.0
C1204 C 0.66406 0.73195 0.39852 0.0
C1205 C 0.26836 0.94562 0.43468 0.0
C1206 C 0.2839 0.94296 0.41881 0.0
C1207 C 0.25464 0.92941 0.45396 0.0
C1208 C 0.25592 0.90988 0.45833 0.0
H1209 H 0.26634 0.96012 0.43186 0.0
H1210 H 0.24259 0.93197 0.46523 0.0
S1211 S 0.29439 0.89513 0.42328 0.0
N1212 N 0.30038 0.91959 0.40969 0.0
N1213 N 0.27438 0.889 0.446 0.0
C1214 C 0.27191 0.90734 0.44343 0.0
C1215 C 0.28593 0.92388 0.42365 0.0
C1216 C 0.05165 0.33378 0.43232 0.0
C1217 C 0.05398 0.35158 0.41613 0.0
C1218 C 0.06938 0.33716 0.44877 0.0
C1219 C 0.09007 0.35853 0.45001 0.0
H1220 H 0.03625 0.31679 0.43171 0.0
H1221 H 0.06703 0.32277 0.46029 0.0
S1222 S 0.10461 0.41126 0.41327 0.0
N1223 N 0.07846 0.39184 0.40351 0.0
N1224 N 0.11176 0.3981 0.43475 0.0
C1225 C 0.09243 0.3768 0.4349 0.0
C1226 C 0.07441 0.37333 0.41786 0.0
C1227 C 0.05253 0.33078 0.27861 0.0
C1228 C 0.04073 0.31421 0.29862 0.0
C1229 C 0.06565 0.32787 0.25897 0.0
C1230 C 0.06704 0.30806 0.25827 0.0
H1231 H 0.05243 0.34663 0.27875 0.0
H1232 H 0.07516 0.34142 0.24457 0.0
S1233 S 0.0381 0.25868 0.3044 0.0
N1234 N 0.03041 0.27667 0.3155 0.0
N1235 N 0.05481 0.27109 0.27807 0.0
C1236 C 0.05459 0.29087 0.27725 0.0
C1237 C 0.0415 0.29398 0.29758 0.0
C1238 C 0.66239 0.7218 0.25118 0.0
C1239 C 0.67971 0.7231 0.26699 0.0
C1240 C 0.66679 0.73945 0.23367 0.0
C1241 C 0.68872 0.75903 0.23103 0.0
H1242 H 0.64504 0.70739 0.25292 0.0
H1243 H 0.65278 0.73806 0.22262 0.0
S1244 S 0.74047 0.77029 0.26596 0.0
N1245 N 0.72008 0.74513 0.27745 0.0
N1246 N 0.72823 0.77833 0.24433 0.0
C1247 C 0.70645 0.76014 0.24555 0.0
C1248 C 0.70198 0.74217 0.2636 0.0
C1249 C 0.2759 0.95143 0.2758 0.0
C1250 C 0.27245 0.96607 0.29326 0.0
C1251 C 0.26119 0.93913 0.25422 0.0
C1252 C 0.24245 0.94099 0.24911 0.0
H1253 H 0.28987 0.94904 0.27903 0.0
H1254 H 0.26421 0.92763 0.24177 0.0
S1255 S 0.22626 0.97767 0.2877 0.0
N1256 N 0.24932 0.98248 0.30313 0.0
N1257 N 0.22151 0.95909 0.26245 0.0
C1258 C 0.23921 0.9562 0.26562 0.0
C1259 C 0.25424 0.9688 0.28773 0.0
C1260 C 0.68994 0.96252 0.26899 0.0
C1261 C 0.6957 0.96209 0.29617 0.0
C1262 C 0.69392 0.95056 0.24821 0.0
C1263 C 0.70373 0.93773 0.25393 0.0
H1264 H 0.68137 0.97131 0.26384 0.0
H1265 H 0.68811 0.95026 0.22786 0.0
S1266 S 0.72499 0.93361 0.3205 0.0
N1267 N 0.71418 0.94977 0.32683 0.0
N1268 N 0.72135 0.92716 0.28768 0.0
C1269 C 0.71097 0.93839 0.2805 0.0
C1270 C 0.70707 0.95065 0.30165 0.0
C1271 C 0.03467 0.73233 0.24631 0.0
C1272 C 0.0358 0.73573 0.27475 0.0
C1273 C 0.05006 0.74992 0.2292 0.0
C1274 C 0.06717 0.77151 0.2399 0.0
H1275 H 0.02229 0.71571 0.23715 0.0
H1276 H 0.04911 0.74628 0.20754 0.0
S1277 S 0.07576 0.79048 0.31239 0.0
N1278 N 0.05427 0.76332 0.3125 0.0
N1279 N 0.08308 0.79623 0.28025 0.0
C1280 C 0.06782 0.77558 0.26809 0.0
C1281 C 0.05216 0.75774 0.28553 0.0
C1282 C 0.27047 0.30596 0.24783 0.0
C1283 C 0.26859 0.30345 0.27619 0.0
C1284 C 0.25265 0.30374 0.23237 0.0
C1285 C 0.23237 0.29914 0.24474 0.0
H1286 H 0.28607 0.31035 0.23752 0.0
H1287 H 0.25511 0.3066 0.21077 0.0
S1288 S 0.21773 0.28868 0.31765 0.0
N1289 N 0.24385 0.29426 0.31558 0.0
N1290 N 0.21057 0.29023 0.28642 0.0
C1291 C 0.22981 0.29553 0.27278 0.0
C1292 C 0.24784 0.29761 0.28853 0.0
C1293 C 0.27003 0.35981 0.38237 0.0
C1294 C 0.28581 0.35386 0.3893 0.0
C1295 C 0.25756 0.36339 0.4023 0.0
C1296 C 0.26049 0.36138 0.42998 0.0
H1297 H 0.26657 0.36087 0.36132 0.0
H1298 H 0.24509 0.3672 0.39596 0.0
S1299 S 0.30092 0.34817 0.45928 0.0
N1300 N 0.30475 0.34771 0.42617 0.0
N1301 N 0.28115 0.35443 0.46358 0.0
C1302 C 0.27699 0.35665 0.43739 0.0
C1303 C 0.28967 0.35288 0.41707 0.0
C1304 C 0.64652 0.94434 0.4393 0.0
C1305 C 0.64319 0.94092 0.41102 0.0
C1306 C 0.64419 0.92679 0.4557 0.0
C1307 C 0.6383 0.90505 0.44453 0.0
H1308 H 0.65151 0.96091 0.4489 0.0
H1309 H 0.64732 0.93037 0.47729 0.0
S1310 S 0.6271 0.88674 0.37191 0.0
N1311 N 0.63301 0.91363 0.37272 0.0
N1312 N 0.62882 0.88081 0.40363 0.0
C1313 C 0.63426 0.90108 0.41647 0.0
C1314 C 0.63667 0.91896 0.3997 0.0
C1315 C 0.0533 0.71939 0.42239 0.0
C1316 C 0.06007 0.70862 0.40289 0.0
C1317 C 0.06704 0.73194 0.44463 0.0
C1318 C 0.08795 0.73397 0.44855 0.0
H1319 H 0.03765 0.71898 0.41997 0.0
H1320 H 0.06159 0.74074 0.45847 0.0
S1321 S 0.11273 0.70742 0.40524 0.0
N1322 N 0.08853 0.69952 0.39025 0.0
N1323 N 0.11429 0.72313 0.43233 0.0
C1324 C 0.09444 0.72229 0.43021 0.0
C1325 C 0.08052 0.70963 0.40732 0.0
C1326 C 0.32672 0.06521 0.74345 0.0
C1327 C 0.308 0.04343 0.7355 0.0
C1328 C 0.32463 0.07921 0.76312 0.0
C1329 C 0.30378 0.07201 0.77593 0.0
H1330 H 0.34315 0.07176 0.7341 0.0
H1331 H 0.33947 0.09604 0.76802 0.0
S1332 S 0.24982 0.01591 0.76378 0.0
N1333 N 0.26799 0.01497 0.7426 0.0
N1334 N 0.26419 0.0412 0.78014 0.0
C1335 C 0.28493 0.05015 0.76848 0.0
C1336 C 0.28702 0.03589 0.74819 0.0
C1337 C 0.95612 0.25922 0.7535 0.0
C1338 C 0.94746 0.27151 0.74169 0.0
C1339 C 0.94372 0.24264 0.77324 0.0
C1340 C 0.92229 0.23782 0.78181 0.0
H1341 H 0.97273 0.26271 0.74784 0.0
H1342 H 0.95111 0.23383 0.78219 0.0
S1343 S 0.89085 0.26307 0.75488 0.0
N1344 N 0.91529 0.27628 0.7386 0.0
N1345 N 0.8921 0.24508 0.7753 0.0
C1346 C 0.91316 0.24941 0.7695 0.0
C1347 C 0.92572 0.26626 0.74956 0.0
C1348 C 0.74399 0.70386 0.74631 0.0
C1349 C 0.72964 0.68105 0.73627 0.0
C1350 C 0.76183 0.7094 0.76416 0.0
C1351 C 0.76598 0.69234 0.77225 0.0
H1352 H 0.74098 0.71731 0.74103 0.0
H1353 H 0.77205 0.72698 0.77222 0.0
S1354 S 0.73547 0.63096 0.74791 0.0
N1355 N 0.72211 0.64191 0.73347 0.0
N1356 N 0.75592 0.65242 0.76617 0.0
C1357 C 0.75243 0.66978 0.76111 0.0
C1358 C 0.73419 0.66412 0.74334 0.0
C1359 C 0.71747 0.62645 0.62943 0.0
C1360 C 0.70438 0.63611 0.62435 0.0
C1361 C 0.7292 0.62278 0.6085 0.0
C1362 C 0.72821 0.62851 0.58163 0.0
H1363 H 0.71955 0.62262 0.64993 0.0
H1364 H 0.73994 0.61639 0.61365 0.0
S1365 S 0.69352 0.65079 0.55676 0.0
N1366 N 0.68921 0.64902 0.58987 0.0
N1367 N 0.71101 0.64176 0.55051 0.0
C1368 C 0.71409 0.63684 0.57597 0.0
C1369 C 0.70222 0.6407 0.5973 0.0
C1370 C 0.3593 0.05788 0.57922 0.0
C1371 C 0.36376 0.06218 0.6073 0.0
C1372 C 0.36287 0.07554 0.56203 0.0
C1373 C 0.37092 0.09804 0.57235 0.0
H1374 H 0.35209 0.04056 0.57057 0.0
H1375 H 0.35821 0.07129 0.54083 0.0
S1376 S 0.38839 0.11939 0.64318 0.0
N1377 N 0.37918 0.09154 0.64382 0.0
N1378 N 0.38555 0.12443 0.61144 0.0
C1379 C 0.37679 0.10296 0.5999 0.0
C1380 C 0.37333 0.08511 0.61739 0.0
C1381 C 0.94359 0.2821 0.60506 0.0
C1382 C 0.93968 0.29646 0.62248 0.0
C1383 C 0.9285 0.26883 0.58409 0.0
C1384 C 0.90906 0.26958 0.57946 0.0
H1385 H 0.958 0.2804 0.60816 0.0
H1386 H 0.93178 0.25744 0.57179 0.0
S1387 S 0.89174 0.3055 0.61761 0.0
N1388 N 0.91545 0.31159 0.63245 0.0
N1389 N 0.88713 0.28655 0.59289 0.0
C1390 C 0.90542 0.2846 0.59577 0.0
C1391 C 0.92071 0.29804 0.61732 0.0
C1392 C 0.36137 0.27385 0.6352 0.0
C1393 C 0.35336 0.28821 0.62856 0.0
C1394 C 0.3658 0.26185 0.61505 0.0
C1395 C 0.36262 0.26387 0.58747 0.0
H1396 H 0.36345 0.2711 0.65618 0.0
H1397 H 0.37117 0.25035 0.62115 0.0
S1398 S 0.34398 0.3007 0.55889 0.0
N1399 N 0.34403 0.30503 0.59206 0.0
N1400 N 0.35239 0.28228 0.55424 0.0
C1401 C 0.35584 0.27907 0.58034 0.0
C1402 C 0.35119 0.29128 0.60088 0.0
C1403 C 0.71637 0.08115 0.61561 0.0
C1404 C 0.69888 0.05979 0.60461 0.0
C1405 C 0.7322 0.09872 0.59891 0.0
C1406 C 0.73115 0.09574 0.57053 0.0
H1407 H 0.71825 0.08424 0.63737 0.0
H1408 H 0.74555 0.11471 0.60834 0.0
S1409 S 0.68847 0.04361 0.53122 0.0
N1410 N 0.68114 0.03704 0.56323 0.0
N1411 N 0.71107 0.07015 0.53195 0.0
C1412 C 0.71343 0.07483 0.55912 0.0
C1413 C 0.69726 0.05685 0.57613 0.0
C1414 C 0.93252 0.63601 0.57505 0.0
C1415 C 0.92882 0.63211 0.60307 0.0
C1416 C 0.91522 0.63289 0.55786 0.0
C1417 C 0.89348 0.62564 0.56793 0.0
H1418 H 0.94912 0.64223 0.56635 0.0
H1419 H 0.91904 0.63666 0.53657 0.0
S1420 S 0.8744 0.61185 0.63932 0.0
N1421 N 0.90118 0.61938 0.63979 0.0
N1422 N 0.86889 0.6139 0.60748 0.0
C1423 C 0.88922 0.62077 0.59564 0.0
C1424 C 0.90682 0.62391 0.6132 0.0
C1425 C 0.93534 0.6754 0.74032 0.0
C1426 C 0.95725 0.69286 0.73226 0.0
C1427 C 0.92336 0.67971 0.76017 0.0
C1428 C 0.93273 0.70164 0.77296 0.0
H1429 H 0.92716 0.65818 0.7311 0.0
H1430 H 0.90642 0.66574 0.7653 0.0
S1431 S 0.98975 0.75321 0.76025 0.0
N1432 N 0.98803 0.73299 0.73915 0.0
N1433 N 0.96542 0.74095 0.77681 0.0
C1434 C 0.95462 0.7193 0.7653 0.0
C1435 C 0.96691 0.71494 0.74493 0.0
C1436 C 0.30476 0.27775 0.7734 0.0
C1437 C 0.30114 0.27316 0.74527 0.0
C1438 C 0.30361 0.26126 0.79076 0.0
C1439 C 0.29851 0.23946 0.78074 0.0
H1440 H 0.3093 0.29448 0.78206 0.0
H1441 H 0.30706 0.26574 0.81217 0.0
S1442 S 0.28648 0.21821 0.7091 0.0
N1443 N 0.29125 0.24464 0.70845 0.0
N1444 N 0.28919 0.21382 0.74115 0.0
C1445 C 0.29405 0.23429 0.75288 0.0
C1446 C 0.29534 0.25109 0.73514 0.0
C1447 C 0.75469 0.06309 0.72391 0.0
C1448 C 0.73127 0.04751 0.72759 0.0
C1449 C 0.76924 0.07402 0.74608 0.0
C1450 C 0.76099 0.06983 0.77283 0.0
H1451 H 0.76185 0.06746 0.70371 0.0
H1452 H 0.78698 0.08653 0.74216 0.0
S1453 S 0.70168 0.02871 0.79391 0.0
N1454 N 0.70084 0.0271 0.76042 0.0
N1455 N 0.72837 0.04768 0.80202 0.0
C1456 C 0.73784 0.05358 0.77695 0.0
C1457 C 0.72296 0.04238 0.75437 0.0
C1458 C 0.06165 0.33219 0.05333 0.0
C1459 C 0.04314 0.33221 0.06525 0.0
C1460 C 0.07532 0.3272 0.06855 0.0
C1461 C 0.07116 0.32242 0.09631 0.0
H1462 H 0.0655 0.33582 0.03202 0.0
H1463 H 0.08942 0.32738 0.05863 0.0
S1464 S 0.02504 0.32041 0.13732 0.0
N1465 N 0.02149 0.32703 0.10666 0.0
N1466 N 0.04727 0.31779 0.13509 0.0
C1467 C 0.05282 0.32247 0.1085 0.0
C1468 C 0.03877 0.3273 0.09302 0.0
C1469 C 0.67058 0.73869 0.02824 0.0
C1470 C 0.66937 0.71919 0.03906 0.0
C1471 C 0.67553 0.75794 0.04482 0.0
C1472 C 0.67918 0.75825 0.07281 0.0
H1473 H 0.66764 0.73911 0.00683 0.0
H1474 H 0.67606 0.7725 0.03578 0.0
S1475 S 0.67895 0.71231 0.11122 0.0
N1476 N 0.67298 0.70191 0.07972 0.0
N1477 N 0.68221 0.7381 0.11057 0.0
C1478 C 0.67835 0.73912 0.08386 0.0
C1479 C 0.67348 0.7196 0.06707 0.0
C1480 C 0.28829 0.9646 0.066 0.0
C1481 C 0.2855 0.96102 0.03764 0.0
C1482 C 0.27027 0.95168 0.08382 0.0
C1483 C 0.2487 0.93461 0.07407 0.0
H1484 H 0.30449 0.97772 0.07462 0.0
H1485 H 0.2732 0.95531 0.10542 0.0
S1486 S 0.23264 0.9171 0.0019 0.0
N1487 N 0.25953 0.93833 0.00077 0.0
N1488 N 0.22576 0.91383 0.03437 0.0
C1489 C 0.24568 0.93051 0.04585 0.0
C1490 C 0.26404 0.94373 0.02763 0.0
C1491 C 0.33609 0.06843 0.97349 0.0
C1492 C 0.33427 0.04943 0.95881 0.0
C1493 C 0.33137 0.08373 0.96126 0.0
C1494 C 0.32458 0.08054 0.93394 0.0
H1495 H 0.34104 0.07147 0.99466 0.0
H1496 H 0.33281 0.09802 0.97334 0.0
S1497 S 0.31885 0.0347 0.8859 0.0
N1498 N 0.32618 0.02905 0.9149 0.0
N1499 N 0.31751 0.05787 0.89212 0.0
C1500 C 0.32303 0.06189 0.91891 0.0
C1501 C 0.32784 0.04633 0.93128 0.0
C1502 C 0.93623 0.26981 0.9926 0.0
C1503 C 0.95554 0.28846 0.98057 0.0
C1504 C 0.92073 0.25012 0.97723 0.0
C1505 C 0.92395 0.24829 0.94925 0.0
H1506 H 0.93304 0.27033 0.01411 0.0
H1507 H 0.90617 0.23614 0.98736 0.0
S1508 S 0.97094 0.29258 0.90747 0.0
N1509 N 0.97656 0.30396 0.93856 0.0
N1510 N 0.94726 0.26703 0.90981 0.0
C1511 C 0.94303 0.26679 0.93686 0.0
C1512 C 0.95885 0.28685 0.95247 0.0
C1513 C 0.73019 0.67448 0.97253 0.0
C1514 C 0.71251 0.67402 0.95854 0.0
C1515 C 0.75059 0.68057 0.95946 0.0
C1516 C 0.75401 0.68631 0.93191 0.0
H1517 H 0.72842 0.67045 0.99385 0.0
H1518 H 0.76388 0.68101 0.9711 0.0
S1519 S 0.71227 0.68564 0.88552 0.0
N1520 N 0.69933 0.67864 0.91521 0.0
N1521 N 0.73751 0.68966 0.89061 0.0
C1522 C 0.73631 0.68546 0.91755 0.0
C1523 C 0.7156 0.6794 0.93087 0.0
C1524 C 0.962 0.68581 0.9362 0.0
C1525 C 0.95799 0.67864 0.96326 0.0
C1526 C 0.94773 0.69105 0.92294 0.0
C1527 C 0.92897 0.68949 0.93625 0.0
H1528 H 0.97618 0.68718 0.92501 0.0
H1529 H 0.95125 0.69605 0.90194 0.0
S1530 S 0.91192 0.67319 0.00772 0.0
N1531 N 0.93433 0.67108 0.00326 0.0
N1532 N 0.90775 0.68142 0.97844 0.0
C1533 C 0.92491 0.68267 0.96343 0.0
C1534 C 0.93936 0.67714 0.9769 0.0
C1535 C 0.32225 0.28528 0.96564 0.0
C1536 C 0.34276 0.30629 0.96083 0.0
C1537 C 0.31716 0.26461 0.9523 0.0
C1538 C 0.33243 0.26409 0.93375 0.0
H1539 H 0.30987 0.28471 0.97975 0.0
H1540 H 0.3012 0.24887 0.95667 0.0
S1541 S 0.38812 0.31414 0.91317 0.0
N1542 N 0.37833 0.32518 0.9357 0.0
N1543 N 0.36862 0.28624 0.91062 0.0
C1544 C 0.353 0.28485 0.92871 0.0
C1545 C 0.3582 0.30596 0.94224 0.0
C1546 C 0.69884 0.06146 0.94731 0.0
C1547 C 0.69613 0.0439 0.96418 0.0
C1548 C 0.71951 0.07622 0.93433 0.0
C1549 C 0.73823 0.0739 0.93761 0.0
H1550 H 0.68482 0.06372 0.94376 0.0
H1551 H 0.72073 0.08929 0.92124 0.0
S1552 S 0.7408 0.03196 0.98096 0.0
N1553 N 0.71457 0.02588 0.9844 0.0
N1554 N 0.7533 0.05368 0.95996 0.0
C1555 C 0.73598 0.05678 0.95476 0.0
C1556 C 0.71499 0.04179 0.96809 0.0
C1557 C 0.66329 0.93664 0.0466 0.0
C1558 C 0.66487 0.95653 0.05843 0.0
C1559 C 0.66926 0.92333 0.06122 0.0
C1560 C 0.67664 0.92924 0.0883 0.0
H1561 H 0.65765 0.93143 0.0258 0.0
H1562 H 0.66782 0.90815 0.05141 0.0
S1563 S 0.68365 0.97941 0.12879 0.0
N1564 N 0.67441 0.98138 0.099 0.0
N1565 N 0.68538 0.95619 0.12636 0.0
C1566 C 0.6782 0.94895 0.10041 0.0
C1567 C 0.67239 0.96265 0.0855 0.0
C1568 C 0.07546 0.73065 0.04472 0.0
C1569 C 0.05317 0.72393 0.0381 0.0
C1570 C 0.08905 0.75032 0.0612 0.0
C1571 C 0.08094 0.76413 0.07136 0.0
H1572 H 0.08224 0.72022 0.03796 0.0
H1573 H 0.10596 0.75462 0.06633 0.0
S1574 S 0.02442 0.75502 0.05857 0.0
N1575 N 0.02404 0.73343 0.04184 0.0
N1576 N 0.04967 0.77035 0.07288 0.0
C1577 C 0.05904 0.75815 0.06409 0.0
C1578 C 0.04513 0.73805 0.04745 0.0
C1579 C 0.26875 0.34255 0.05515 0.0
C1580 C 0.2731 0.32494 0.04901 0.0
C1581 C 0.25048 0.33841 0.07171 0.0
C1582 C 0.23571 0.31645 0.0824 0.0
H1583 H 0.27992 0.35987 0.04782 0.0
H1584 H 0.24798 0.35255 0.07637 0.0
S1585 S 0.23882 0.26416 0.0714 0.0
N1586 N 0.26048 0.2844 0.05414 0.0
N1587 N 0.22611 0.27674 0.0852 0.0
C1588 C 0.23939 0.29851 0.07579 0.0
C1589 C 0.2581 0.30274 0.05912 0.0
C1590 C 0.70352 0.65705 0.4153 0.0
C1591 C 0.70851 0.66426 0.38827 0.0
C1592 C 0.71744 0.65209 0.42989 0.0
C1593 C 0.73688 0.65409 0.41801 0.0
H1594 H 0.68882 0.65539 0.42546 0.0
H1595 H 0.71312 0.64694 0.45076 0.0
S1596 S 0.75671 0.67072 0.34732 0.0
N1597 N 0.73388 0.67229 0.34989 0.0
N1598 N 0.75985 0.6626 0.37725 0.0
C1599 C 0.74193 0.66095 0.3909 0.0
C1600 C 0.72781 0.66612 0.37605 0.0
C1601 C 0.34518 0.05191 0.40263 0.0
C1602 C 0.34319 0.05208 0.37427 0.0
C1603 C 0.34997 0.07106 0.41909 0.0
C1604 C 0.35295 0.09118 0.40792 0.0
H1605 H 0.34304 0.03685 0.41235 0.0
H1606 H 0.35141 0.07012 0.4408 0.0
S1607 S 0.34892 0.1005 0.33507 0.0
N1608 N 0.34439 0.07415 0.33575 0.0
N1609 N 0.35315 0.11014 0.36693 0.0
C1610 C 0.35111 0.09173 0.37964 0.0
C1611 C 0.34627 0.07219 0.36277 0.0
C1612 C 0.94114 0.29872 0.38934 0.0
C1613 C 0.95156 0.28897 0.37419 0.0
C1614 C 0.92252 0.28515 0.40616 0.0
C1615 C 0.91392 0.26144 0.40878 0.0
H1616 H 0.94751 0.31704 0.38836 0.0
H1617 H 0.91513 0.29335 0.4177 0.0
S1618 S 0.93437 0.22723 0.37301 0.0
N1619 N 0.95128 0.25385 0.36236 0.0
N1620 N 0.91645 0.22849 0.3943 0.0
C1621 C 0.92386 0.25136 0.39349 0.0
C1622 C 0.94262 0.26508 0.37607 0.0
C1623 C 0.97453 0.37691 0.28576 0.0
C1624 C 0.99497 0.38425 0.2994 0.0
C1625 C 0.97208 0.39202 0.26971 0.0
C1626 C 0.99008 0.41496 0.26638 0.0
H1627 H 0.96023 0.3593 0.28741 0.0
H1628 H 0.95609 0.38561 0.25945 0.0
S1629 S 0.04691 0.44314 0.29816 0.0
N1630 N 0.03343 0.41633 0.30892 0.0
N1631 N 0.02877 0.44464 0.27854 0.0
C1632 C 0.01054 0.42266 0.28003 0.0
C1633 C 0.01299 0.40734 0.29663 0.0
C1634 C 0.59402 0.60525 0.31594 0.0
C1635 C 0.61768 0.61614 0.31363 0.0
C1636 C 0.57944 0.58589 0.29944 0.0
C1637 C 0.58807 0.57653 0.28064 0.0
H1638 H 0.58673 0.61216 0.32991 0.0
H1639 H 0.56131 0.57828 0.30124 0.0
S1640 S 0.64851 0.59768 0.26789 0.0
N1641 N 0.649 0.61559 0.29167 0.0
N1642 N 0.62147 0.5789 0.26119 0.0
C1643 C 0.61159 0.58675 0.27875 0.0
C1644 C 0.62644 0.60666 0.29512 0.0
C1645 C 0.39466 -0.00123 0.30968 0.0
C1646 C 0.37658 0.99782 0.29605 0.0
C1647 C 0.41457 0.00403 0.29589 0.0
C1648 C 0.4171 0.00856 0.26801 0.0
H1649 H 0.3936 0.99574 0.33124 0.0
H1650 H 0.42819 0.00485 0.3072 0.0
S1651 S 0.3742 0.00631 0.22234 0.0
N1652 N 0.36215 0.00062 0.25257 0.0
N1653 N 0.3995 0.01033 0.22686 0.0
C1654 C 0.39904 0.0072 0.25401 0.0
C1655 C 0.37879 0.00186 0.26797 0.0
C1656 C 0.60586 0.99379 0.29262 0.0
C1657 C 0.62462 0.01274 0.3058 0.0
C1658 C 0.59088 0.99677 0.27732 0.0
C1659 C 0.59398 0.01877 0.27477 0.0
H1660 H 0.60301 0.97658 0.29354 0.0
H1661 H 0.577 0.98177 0.26695 0.0
S1662 S 0.63899 0.07358 0.3077 0.0
N1663 N 0.64463 0.05405 0.31673 0.0
N1664 N 0.61615 0.05951 0.28841 0.0
C1665 C 0.61225 0.03775 0.28852 0.0
C1666 C 0.62762 0.03476 0.30395 0.0
C1667 C -0.0017 0.60564 0.32114 0.0
C1668 C 0.00115 0.62604 0.31079 0.0
C1669 C 0.99465 0.58723 0.30382 0.0
C1670 C 0.99388 0.58859 0.27551 0.0
H1671 H -0.00115 0.6038 0.3428 0.0
H1672 H 0.99275 0.57194 0.31263 0.0
S1673 S -0.00047 0.63762 0.23792 0.0
N1674 N 0.00249 0.64616 0.27012 0.0
N1675 N 0.99546 0.61146 0.23783 0.0
C1676 C 0.99652 0.60873 0.26485 0.0
C1677 C 0.00019 0.62746 0.28241 0.0
C1678 C 0.38064 0.40114 0.30115 0.0
C1679 C 0.37276 0.37782 0.30607 0.0
C1680 C 0.3999 0.41458 0.28521 0.0
C1681 C 0.41215 0.40531 0.27377 0.0
H1682 H 0.37175 0.40908 0.30939 0.0
H1683 H 0.4053 0.43243 0.28189 0.0
S1684 S 0.39895 0.34537 0.28042 0.0
N1685 N 0.37902 0.34612 0.29823 0.0
N1686 N 0.41518 0.37152 0.26823 0.0
C1687 C 0.4047 0.38216 0.27869 0.0
C1688 C 0.385 0.36838 0.29481 0.0
C1689 C 0.36097 0.29708 0.40172 0.0
C1690 C 0.33948 0.28854 0.39015 0.0
C1691 C 0.36549 0.28284 0.41663 0.0
C1692 C 0.34864 0.25957 0.4208 0.0
H1693 H 0.37449 0.31495 0.39931 0.0
H1694 H 0.38221 0.29019 0.42534 0.0
S1695 S 0.28985 0.22833 0.39425 0.0
N1696 N 0.3013 0.25496 0.38346 0.0
N1697 N 0.30991 0.22828 0.41158 0.0
C1698 C 0.32716 0.25068 0.40922 0.0
C1699 C 0.32256 0.26512 0.39384 0.0
C1700 C 0.70789 0.05902 0.39082 0.0
C1701 C 0.71746 0.04927 0.37401 0.0
C1702 C 0.72155 0.07873 0.40724 0.0
C1703 C 0.74514 0.08906 0.40772 0.0
H1704 H 0.68971 0.05141 0.39127 0.0
H1705 H 0.71359 0.08566 0.42004 0.0
S1706 S 0.77867 0.07066 0.36758 0.0
N1707 N 0.75213 0.05184 0.35864 0.0
N1708 N 0.77767 0.08866 0.38998 0.0
C1709 C 0.75497 0.07967 0.391 0.0
C1710 C 0.74115 0.05983 0.37397 0.0
C1711 C 0.92187 0.63846 0.37381 0.0
C1712 C 0.94191 0.66054 0.37355 0.0
C1713 C 0.90337 0.63417 0.39003 0.0
C1714 C 0.9042 0.65176 0.40666 0.0
H1715 H 0.92048 0.62428 0.36154 0.0
H1716 H 0.88827 0.61693 0.38952 0.0
S1717 S 0.95287 0.71235 0.4143 0.0
N1718 N 0.96147 0.70018 0.39175 0.0
N1719 N 0.92684 0.69191 0.42254 0.0
C1720 C 0.92406 0.67392 0.40657 0.0
C1721 C 0.94286 0.67837 0.38994 0.0
C1722 C 0.39591 0.00795 0.72127 0.0
C1723 C 0.3759 0.98957 0.7094 0.0
C1724 C 0.40922 0.00379 0.73828 0.0
C1725 C 0.40294 0.9811 0.74432 0.0
H1726 H 0.40142 0.02573 0.71733 0.0
H1727 H 0.42465 0.01851 0.74662 0.0
S1728 S 0.35131 0.92693 0.71989 0.0
N1729 N 0.35008 0.94778 0.70554 0.0
N1730 N 0.37482 0.94003 0.73804 0.0
C1731 C 0.38287 0.96256 0.73277 0.0
C1732 C 0.36943 0.96677 0.7152 0.0
C1733 C -0.00112 0.39976 0.70088 0.0
C1734 C -0.00049 0.38105 0.71108 0.0
C1735 C 0.00215 0.41814 0.71795 0.0
C1736 C 0.00602 0.41844 0.74589 0.0
H1737 H 0.99579 0.40025 0.67953 0.0
H1738 H 0.00131 0.43207 0.70929 0.0
S1739 S 0.01022 0.37437 0.78284 0.0
N1740 N 0.00489 0.3644 0.75113 0.0
N1741 N 0.01117 0.39908 0.78296 0.0
C1742 C 0.00692 0.40005 0.75638 0.0
C1743 C 0.00365 0.38135 0.73905 0.0
C1744 C 0.60202 0.59813 0.70003 0.0
C1745 C 0.62135 0.6189 0.70928 0.0
C1746 C 0.58389 0.58461 0.7175 0.0
C1747 C 0.58436 0.5913 0.74491 0.0
H1748 H 0.60078 0.59225 0.67908 0.0
H1749 H 0.56927 0.56885 0.7094 0.0
S1750 S 0.63142 0.64339 0.77981 0.0
N1751 N 0.64008 0.64512 0.7481 0.0
N1752 N 0.60604 0.6195 0.78083 0.0
C1753 C 0.60359 0.6119 0.75453 0.0
C1754 C 0.62207 0.62573 0.73676 0.0
C1755 C 0.67596 0.72862 0.62279 0.0
C1756 C 0.6575 0.70985 0.63577 0.0
C1757 C 0.67299 0.74362 0.60715 0.0
C1758 C 0.65148 0.74056 0.60406 0.0
H1759 H 0.69278 0.73146 0.62415 0.0
H1760 H 0.68762 0.7575 0.59699 0.0
S1761 S 0.59806 0.69551 0.63624 0.0
N1762 N 0.61718 0.68983 0.64584 0.0
N1763 N 0.61173 0.71837 0.617 0.0
C1764 C 0.633 0.72226 0.61758 0.0
C1765 C 0.63598 0.70685 0.63332 0.0
C1766 C 0.28424 0.95419 0.62775 0.0
C1767 C 0.2837 0.95355 0.65631 0.0
C1768 C 0.26869 0.935 0.61181 0.0
C1769 C 0.25194 0.91434 0.62371 0.0
H1770 H 0.29691 0.96959 0.61747 0.0
H1771 H 0.26998 0.93627 0.58993 0.0
S1772 S 0.24227 0.90381 0.69745 0.0
N1773 N 0.26442 0.93054 0.69581 0.0
N1774 N 0.23505 0.89455 0.6657 0.0
C1775 C 0.25098 0.91344 0.65218 0.0
C1776 C 0.26685 0.93302 0.6685 0.0
C1777 C 0.05981 0.32787 0.63682 0.0
C1778 C 0.05553 0.34569 0.64147 0.0
C1779 C 0.07839 0.3315 0.62118 0.0
C1780 C 0.09351 0.35316 0.60996 0.0
H1781 H 0.04834 0.31075 0.64453 0.0
H1782 H 0.08079 0.31718 0.61757 0.0
S1783 S 0.09074 0.40589 0.61737 0.0
N1784 N 0.06867 0.38616 0.63459 0.0
N1785 N 0.10349 0.39284 0.60519 0.0
C1786 C 0.08991 0.37133 0.61521 0.0
C1787 C 0.07094 0.36763 0.63095 0.0
C1788 C 0.29579 0.36285 0.61769 0.0
C1789 C 0.28781 0.34122 0.6293 0.0
C1790 C 0.2815 0.36684 0.60235 0.0
C1791 C 0.25877 0.34928 0.59777 0.0
H1792 H 0.31326 0.37688 0.62036 0.0
H1793 H 0.28841 0.38367 0.59359 0.0
S1794 S 0.22911 0.28992 0.62438 0.0
N1795 N 0.25533 0.30221 0.63571 0.0
N1796 N 0.22857 0.30981 0.60675 0.0
C1797 C 0.25044 0.32769 0.60947 0.0
C1798 C 0.26492 0.32365 0.6253 0.0
C1799 C 0.65654 0.9455 0.62956 0.0
C1800 C 0.67785 0.96597 0.62605 0.0
C1801 C 0.65084 0.92484 0.61568 0.0
C1802 C 0.66627 0.92379 0.59788 0.0
H1803 H 0.64406 0.94537 0.64313 0.0
H1804 H 0.63432 0.9095 0.61911 0.0
S1805 S 0.72383 0.9724 0.58047 0.0
N1806 N 0.71425 0.98383 0.60273 0.0
N1807 N 0.70337 0.94494 0.57665 0.0
C1808 C 0.68755 0.94404 0.59401 0.0
C1809 C 0.69338 0.96514 0.60807 0.0
C1810 C 0.03807 0.70362 0.622 0.0
C1811 C 0.03929 0.70434 0.65053 0.0
C1812 C 0.05689 0.71871 0.60629 0.0
C1813 C 0.0777 0.73523 0.61842 0.0
H1814 H 0.02249 0.69114 0.61161 0.0
H1815 H 0.05516 0.71731 0.5844 0.0
S1816 S 0.08954 0.7453 0.69235 0.0
N1817 N 0.06292 0.72349 0.69032 0.0
N1818 N 0.09816 0.75214 0.66074 0.0
C1819 C 0.07914 0.73632 0.64692 0.0
C1820 C 0.05999 0.72083 0.66297 0.0
C1821 C 0.99122 0.61946 0.75835 0.0
C1822 C 0.98666 0.61637 0.73027 0.0
C1823 C 0.99568 0.60474 0.77231 0.0
C1824 C 0.99594 0.58643 0.75877 0.0
H1825 H 0.99138 0.63339 0.76979 0.0
H1826 H -0.00074 0.60793 0.79386 0.0
S1827 S 0.98437 0.57016 0.68567 0.0
N1828 N 0.98224 0.59309 0.68955 0.0
N1829 N 0.9906 0.56543 0.71596 0.0
C1830 C 0.99129 0.58296 0.73079 0.0
C1831 C 0.98663 0.5979 0.71652 0.0
C1832 C 0.39048 0.37226 0.74217 0.0
C1833 C 0.37459 0.37069 0.72355 0.0
C1834 C 0.40598 0.39329 0.75528 0.0
C1835 C 0.40615 0.41357 0.75038 0.0
H1836 H 0.39098 0.35711 0.74679 0.0
H1837 H 0.41778 0.39363 0.76963 0.0
S1838 S 0.36882 0.41928 0.70287 0.0
N1839 N 0.3604 0.39163 0.7005 0.0
N1840 N 0.3897 0.43115 0.72517 0.0
C1841 C 0.39051 0.4124 0.73177 0.0
C1842 C 0.37472 0.39098 0.71833 0.0
C1843 C 0.60693 0.00674 0.71947 0.0
C1844 C 0.61099 0.98869 0.71541 0.0
C1845 C 0.58798 0.00333 0.73405 0.0
C1846 C 0.57222 0.98167 0.74477 0.0
H1847 H 0.61873 0.02381 0.71186 0.0
H1848 H 0.58566 0.01776 0.73703 0.0
S1849 S 0.5745 0.92858 0.7394 0.0
N1850 N 0.59723 0.94815 0.72296 0.0
N1851 N 0.56163 0.94188 0.75029 0.0
C1852 C 0.57576 0.96336 0.74046 0.0
C1853 C 0.59514 0.96684 0.72582 0.0
loop_
_geom_bond_atom_site_label_1
_geom_bond_atom_site_label_2
_geom_bond_distance
_geom_bond_site_symmetry_2
_ccdc_geom_bond_type
C0 O1 1.160 . S
C0 O7 1.185 . S
O1 C0 1.160 . S
O2 Zn3 1.899 1_656 S
O2 C10 1.284 . S
Zn3 O2 1.899 1_454 S
Zn3 O4 2.032 . S
Zn3 O7 2.086 . S
Zn3 O12 1.977 1_554 S
O4 Zn3 2.032 . S
O4 C8 1.278 1_455 S
C5 O6 1.203 1_455 S
C5 O12 1.267 . S
O6 C5 1.203 1_655 S
O7 C0 1.185 . S
O7 Zn3 2.086 . S
C8 O4 1.278 1_655 S
C8 O9 1.211 . S
O9 C8 1.211 . S
C10 O2 1.284 . S
C10 O11 1.273 1_556 S
O11 C10 1.273 1_554 S
O12 Zn3 1.977 1_556 S
O12 C5 1.267 . S
C13 O14 1.160 . S
C13 O20 1.176 1_556 S
O14 C13 1.160 . S
O15 Zn16 1.899 . S
O15 C23 1.284 . S
Zn16 O15 1.899 . S
Zn16 O17 2.032 1_554 S
Zn16 O20 2.092 . S
Zn16 O25 1.977 . S
O17 Zn16 2.032 1_556 S
O17 C21 1.278 . S
C18 O19 1.203 . S
C18 O25 1.267 . S
O19 C18 1.203 . S
O20 C13 1.176 1_554 S
O20 Zn16 2.092 . S
C21 O17 1.278 . S
C21 O22 1.211 . S
O22 C21 1.211 . S
C23 O15 1.284 . S
C23 O24 1.273 . S
O24 C23 1.273 . S
O25 Zn16 1.977 . S
O25 C18 1.267 . S
C26 O27 1.160 . S
C26 O33 1.185 1_556 S
O27 C26 1.160 . S
O28 Zn29 1.899 1_565 S
O28 C36 1.284 . S
Zn29 O28 1.899 1_545 S
Zn29 O30 2.032 1_554 S
Zn29 O33 2.086 . S
Zn29 O38 1.977 . S
O30 Zn29 2.032 1_556 S
O30 C34 1.278 1_545 S
C31 O32 1.203 1_545 S
C31 O38 1.267 . S
O32 C31 1.203 1_565 S
O33 C26 1.185 1_554 S
O33 Zn29 2.086 . S
C34 O30 1.278 1_565 S
C34 O35 1.211 . S
O35 C34 1.211 . S
C36 O28 1.284 . S
C36 O37 1.273 . S
O37 C36 1.273 . S
O38 Zn29 1.977 . S
O38 C31 1.267 . S
C39 O40 1.160 . S
C39 O46 1.185 1_556 S
O40 C39 1.160 . S
O41 Zn42 1.899 1_455 S
O41 C49 1.284 . S
Zn42 O41 1.899 1_655 S
Zn42 O43 2.032 1_654 S
Zn42 O46 2.086 . S
Zn42 O51 1.977 . S
O43 Zn42 2.032 1_456 S
O43 C47 1.278 . S
C44 O45 1.203 1_655 S
C44 O51 1.267 . S
O45 C44 1.203 1_455 S
O46 C39 1.185 1_554 S
O46 Zn42 2.086 . S
C47 O43 1.278 . S
C47 O48 1.211 . S
O48 C47 1.211 . S
C49 O41 1.284 . S
C49 O50 1.273 . S
O50 C49 1.273 . S
O51 Zn42 1.977 . S
O51 C44 1.267 . S
C52 O53 1.160 . S
C52 O59 1.185 . S
O53 C52 1.160 . S
O54 Zn55 1.899 1_556 S
O54 C62 1.284 . S
Zn55 O54 1.899 1_554 S
Zn55 O56 2.032 . S
Zn55 O59 2.086 . S
Zn55 O64 1.977 1_554 S
O56 Zn55 2.032 . S
O56 C60 1.278 . S
C57 O58 1.203 . S
C57 O64 1.267 . S
O58 C57 1.203 . S
O59 C52 1.185 . S
O59 Zn55 2.086 . S
C60 O56 1.278 . S
C60 O61 1.211 . S
O61 C60 1.211 . S
C62 O54 1.284 . S
C62 O63 1.265 1_556 S
O63 C62 1.265 1_554 S
O64 Zn55 1.977 1_556 S
O64 C57 1.267 . S
C65 O66 1.160 . S
C65 O72 1.185 . S
O66 C65 1.160 . S
O67 Zn68 1.899 1_546 S
O67 C75 1.284 . S
Zn68 O67 1.899 1_564 S
Zn68 O69 2.032 1_565 S
Zn68 O72 2.086 . S
Zn68 O77 1.977 1_554 S
O69 Zn68 2.032 1_545 S
O69 C73 1.278 . S
C70 O71 1.203 1_565 S
C70 O77 1.267 . S
O71 C70 1.203 1_545 S
O72 C65 1.185 . S
O72 Zn68 2.086 . S
C73 O69 1.278 . S
C73 O74 1.211 . S
O74 C73 1.211 . S
C75 O67 1.284 . S
C75 O76 1.273 1_556 S
O76 C75 1.273 1_554 S
O77 Zn68 1.977 1_556 S
O77 C70 1.267 . S
C78 O79 1.160 . S
C78 O85 1.185 . S
O79 C78 1.160 . S
O80 Zn81 1.899 . S
O80 C88 1.284 . S
Zn81 O80 1.899 . S
Zn81 O82 2.032 . S
Zn81 O85 2.086 . S
Zn81 O90 1.977 . S
O82 Zn81 2.032 . S
O82 C86 1.278 . S
C83 O84 1.203 . S
C83 O90 1.267 . S
O84 C83 1.203 . S
O85 C78 1.185 . S
O85 Zn81 2.086 . S
C86 O82 1.278 . S
C86 O87 1.211 . S
O87 C86 1.211 . S
C88 O80 1.284 . S
C88 O89 1.273 . S
O89 C88 1.273 . S
O90 Zn81 1.977 . S
O90 C83 1.267 . S
C91 O92 1.160 1_565 S
C91 O98 1.185 . S
O92 C91 1.160 1_545 S
O93 Zn94 1.899 1_545 S
O93 C101 1.284 . S
Zn94 O93 1.899 1_565 S
Zn94 O95 2.032 . S
Zn94 O98 2.086 . S
Zn94 O103 1.977 . S
O95 Zn94 2.032 . S
O95 C99 1.278 . S
C96 O97 1.203 . S
C96 O103 1.267 . S
O97 C96 1.203 . S
O98 C91 1.185 . S
O98 Zn94 2.086 . S
C99 O95 1.278 . S
C99 O100 1.211 . S
O100 C99 1.211 . S
C101 O93 1.284 . S
C101 O102 1.273 . S
O102 C101 1.273 . S
O103 Zn94 1.977 . S
O103 C96 1.267 . S
C104 O105 1.160 1_455 S
C104 O111 1.185 . S
O105 C104 1.160 1_655 S
O106 Zn107 1.899 1_655 S
O106 C114 1.284 . S
Zn107 O106 1.899 1_455 S
Zn107 O108 2.032 . S
Zn107 O111 2.086 . S
Zn107 O116 1.977 . S
O108 Zn107 2.032 . S
O108 C112 1.278 . S
C109 O110 1.203 . S
C109 O116 1.267 . S
O110 C109 1.203 . S
O111 C104 1.185 . S
O111 Zn107 2.086 . S
C112 O108 1.278 . S
C112 O113 1.211 . S
O113 C112 1.211 . S
C114 O106 1.284 . S
C114 O115 1.273 . S
O115 C114 1.273 . S
O116 Zn107 1.977 . S
O116 C109 1.267 . S
C117 O118 1.160 1_565 S
C117 O124 1.185 . S
O118 C117 1.160 1_545 S
O119 Zn120 1.899 1_545 S
O119 C127 1.284 . S
Zn120 O119 1.899 1_565 S
Zn120 O121 2.032 . S
Zn120 O124 2.086 . S
Zn120 O129 1.977 . S
O121 Zn120 2.032 . S
O121 C125 1.278 . S
C122 O123 1.203 . S
C122 O129 1.267 . S
O123 C122 1.203 . S
O124 C117 1.185 . S
O124 Zn120 2.086 . S
C125 O121 1.278 . S
C125 O126 1.211 . S
O126 C125 1.211 . S
C127 O119 1.284 . S
C127 O128 1.273 . S
O128 C127 1.273 . S
O129 Zn120 1.977 . S
O129 C122 1.267 . S
C130 O131 1.160 . S
C130 O137 1.185 . S
O131 C130 1.160 . S
O132 Zn133 1.906 1_655 S
O132 C140 1.256 1_655 S
Zn133 O132 1.906 1_455 S
Zn133 O134 2.032 . S
Zn133 O137 2.086 1_455 S
Zn133 O142 1.977 . S
O134 Zn133 2.032 . S
O134 C138 1.278 . S
C135 O136 1.203 . S
C135 O142 1.267 . S
O136 C135 1.203 . S
O137 C130 1.185 . S
O137 Zn133 2.086 1_655 S
C138 O134 1.278 . S
C138 O139 1.211 . S
O139 C138 1.211 . S
C140 O132 1.256 1_455 S
C140 O141 1.273 . S
O141 C140 1.273 . S
O142 Zn133 1.977 . S
O142 C135 1.267 . S
C143 O144 1.160 . S
C143 O150 1.185 . S
O144 C143 1.160 . S
O145 Zn146 1.899 . S
O145 C153 1.284 . S
Zn146 O145 1.899 . S
Zn146 O147 2.032 . S
Zn146 O150 2.086 . S
Zn146 O155 1.977 . S
O147 Zn146 2.032 . S
O147 C151 1.278 . S
C148 O149 1.203 . S
C148 O155 1.267 . S
O149 C148 1.203 . S
O150 C143 1.185 . S
O150 Zn146 2.086 . S
C151 O147 1.278 . S
C151 O152 1.211 . S
O152 C151 1.211 . S
C153 O145 1.284 . S
C153 O154 1.273 . S
O154 C153 1.273 . S
O155 Zn146 1.977 . S
O155 C148 1.267 . S
C156 O157 1.160 1_545 S
C156 O163 1.185 . S
O157 C156 1.160 1_565 S
O158 Zn159 1.899 1_565 S
O158 C166 1.284 . S
Zn159 O158 1.899 1_545 S
Zn159 O160 2.032 . S
Zn159 O163 2.086 . S
Zn159 O168 1.977 . S
O160 Zn159 2.032 . S
O160 C164 1.278 . S
C161 O162 1.203 . S
C161 O168 1.267 . S
O162 C161 1.203 . S
O163 C156 1.185 . S
O163 Zn159 2.086 . S
C164 O160 1.278 . S
C164 O165 1.211 . S
O165 C164 1.211 . S
C166 O158 1.284 . S
C166 O167 1.273 . S
O167 C166 1.273 . S
O168 Zn159 1.977 . S
O168 C161 1.267 . S
C169 O170 1.160 . S
C169 O176 1.185 . S
O170 C169 1.160 . S
O171 Zn172 1.899 1_455 S
O171 C179 1.284 1_455 S
Zn172 O171 1.899 1_655 S
Zn172 O173 2.032 . S
Zn172 O176 2.086 1_655 S
Zn172 O181 1.977 . S
O173 Zn172 2.032 . S
O173 C177 1.278 . S
C174 O175 1.203 . S
C174 O181 1.267 . S
O175 C174 1.203 . S
O176 C169 1.185 . S
O176 Zn172 2.086 1_455 S
C177 O173 1.278 . S
C177 O178 1.211 . S
O178 C177 1.211 . S
C179 O171 1.284 1_655 S
C179 O180 1.273 . S
O180 C179 1.273 . S
O181 Zn172 1.977 . S
O181 C174 1.267 . S
C182 O183 1.160 . S
C182 O189 1.185 . S
O183 C182 1.160 . S
O184 Zn185 1.899 . S
O184 C192 1.284 . S
Zn185 O184 1.899 . S
Zn185 O186 2.032 . S
Zn185 O189 2.086 . S
Zn185 O194 1.977 . S
O186 Zn185 2.032 . S
O186 C190 1.278 . S
C187 O188 1.203 . S
C187 O194 1.267 . S
O188 C187 1.203 . S
O189 C182 1.185 . S
O189 Zn185 2.086 . S
C190 O186 1.278 . S
C190 O191 1.211 . S
O191 C190 1.211 . S
C192 O184 1.284 . S
C192 O193 1.273 . S
O193 C192 1.273 . S
O194 Zn185 1.977 . S
O194 C187 1.267 . S
C195 O196 1.160 . S
C195 O202 1.185 . S
O196 C195 1.160 . S
O197 Zn198 1.899 . S
O197 C205 1.284 . S
Zn198 O197 1.899 . S
Zn198 O199 2.032 . S
Zn198 O202 2.086 . S
Zn198 O207 1.977 . S
O199 Zn198 2.032 . S
O199 C203 1.278 . S
C200 O201 1.203 . S
C200 O207 1.267 . S
O201 C200 1.203 . S
O202 C195 1.185 . S
O202 Zn198 2.086 . S
C203 O199 1.278 . S
C203 O204 1.211 . S
O204 C203 1.211 . S
C205 O197 1.284 . S
C205 O206 1.273 . S
O206 C205 1.273 . S
O207 Zn198 1.977 . S
O207 C200 1.267 . S
C208 O209 1.160 1_545 S
C208 O215 1.185 . S
O209 C208 1.160 1_565 S
O210 Zn211 1.899 1_565 S
O210 C218 1.284 . S
Zn211 O210 1.899 1_545 S
Zn211 O212 2.032 . S
Zn211 O215 2.086 . S
Zn211 O220 1.977 . S
O212 Zn211 2.032 . S
O212 C216 1.278 . S
C213 O214 1.203 . S
C213 O220 1.267 . S
O214 C213 1.203 . S
O215 C208 1.185 . S
O215 Zn211 2.086 . S
C216 O212 1.278 . S
C216 O217 1.211 . S
O217 C216 1.211 . S
C218 O210 1.284 . S
C218 O219 1.273 . S
O219 C218 1.273 . S
O220 Zn211 1.977 . S
O220 C213 1.267 . S
C221 O222 1.160 1_655 S
C221 O228 1.185 . S
O222 C221 1.160 1_455 S
O223 Zn224 1.899 1_455 S
O223 C231 1.284 . S
Zn224 O223 1.899 1_655 S
Zn224 O225 2.032 . S
Zn224 O228 2.086 . S
Zn224 O233 1.977 . S
O225 Zn224 2.032 . S
O225 C229 1.278 . S
C226 O227 1.203 . S
C226 O233 1.267 . S
O227 C226 1.203 . S
O228 C221 1.185 . S
O228 Zn224 2.086 . S
C229 O225 1.278 . S
C229 O230 1.211 . S
O230 C229 1.211 . S
C231 O223 1.284 . S
C231 O232 1.273 . S
O232 C231 1.273 . S
O233 Zn224 1.977 . S
O233 C226 1.267 . S
C234 C235 1.384 . S
C234 C236 1.384 . S
C234 H262 0.931 . S
C235 C234 1.384 . S
C235 C238 1.382 . S
C236 C234 1.384 . S
C236 C237 1.381 . S
C236 H263 0.930 . S
C237 C236 1.381 . S
C237 C239 1.381 . S
C237 C240 1.487 . S
C238 C235 1.382 . S
C238 C239 1.387 . S
C238 H264 0.930 . S
C239 C237 1.381 . S
C239 C238 1.387 . S
C239 H265 0.931 . S
C240 C237 1.487 . S
C240 C247 1.399 . S
C240 N278 1.343 . S
C241 C242 1.384 . S
C241 C243 1.384 . S
C241 H266 0.931 . S
C242 C241 1.384 . S
C242 C245 1.382 . S
C243 C241 1.384 . S
C243 C244 1.381 . S
C243 H267 0.930 . S
C244 C243 1.381 . S
C244 C246 1.381 . S
C244 C247 1.487 . S
C245 C242 1.382 . S
C245 C246 1.387 . S
C245 H268 0.930 . S
C246 C244 1.381 . S
C246 C245 1.387 . S
C246 H269 0.931 . S
C247 C240 1.399 . S
C247 C244 1.487 . S
C247 N279 1.343 . S
C248 C249 1.384 . S
C248 C250 1.384 . S
C248 H270 0.931 . S
C249 C248 1.384 . S
C249 C252 1.382 . S
C250 C248 1.384 . S
C250 C251 1.381 . S
C250 H271 0.930 . S
C251 C250 1.381 . S
C251 C253 1.381 . S
C251 C254 1.487 . S
C252 C249 1.382 . S
C252 C253 1.387 . S
C252 H272 0.930 . S
C253 C251 1.381 . S
C253 C252 1.387 . S
C253 H273 0.931 . S
C254 C251 1.487 . S
C254 C261 1.399 . S
C254 N279 1.343 . S
C255 C256 1.384 . S
C255 C257 1.384 . S
C255 H274 0.931 . S
C256 C255 1.384 . S
C256 C259 1.382 . S
C257 C255 1.384 . S
C257 C258 1.381 . S
C257 H275 0.930 . S
C258 C257 1.381 . S
C258 C260 1.381 . S
C258 C261 1.487 . S
C259 C256 1.382 . S
C259 C260 1.387 . S
C259 H276 0.930 . S
C260 C258 1.381 . S
C260 C259 1.387 . S
C260 H277 0.931 . S
C261 C254 1.399 . S
C261 C258 1.487 . S
C261 N278 1.343 . S
H262 C234 0.931 . S
H263 C236 0.930 . S
H264 C238 0.930 . S
H265 C239 0.931 . S
H266 C241 0.931 . S
H267 C243 0.930 . S
H268 C245 0.930 . S
H269 C246 0.931 . S
H270 C248 0.931 . S
H271 C250 0.930 . S
H272 C252 0.930 . S
H273 C253 0.931 . S
H274 C255 0.931 . S
H275 C257 0.930 . S
H276 C259 0.930 . S
H277 C260 0.931 . S
N278 C240 1.343 . S
N278 C261 1.343 . S
N279 C247 1.343 . S
N279 C254 1.343 . S
C280 C281 1.384 . S
C280 C282 1.384 . S
C280 H308 0.931 . S
C281 C280 1.384 . S
C281 C284 1.382 . S
C282 C280 1.384 . S
C282 C283 1.381 . S
C282 H309 0.930 . S
C283 C282 1.381 . S
C283 C285 1.381 . S
C283 C286 1.487 . S
C284 C281 1.382 . S
C284 C285 1.387 . S
C284 H310 0.930 . S
C285 C283 1.381 . S
C285 C284 1.387 . S
C285 H311 0.931 . S
C286 C283 1.487 . S
C286 C293 1.399 . S
C286 N324 1.343 . S
C287 C288 1.384 . S
C287 C289 1.384 . S
C287 H312 0.931 . S
C288 C287 1.384 . S
C288 C291 1.382 . S
C289 C287 1.384 . S
C289 C290 1.381 . S
C289 H313 0.930 . S
C290 C289 1.381 . S
C290 C292 1.381 . S
C290 C293 1.487 . S
C291 C288 1.382 . S
C291 C292 1.387 . S
C291 H314 0.930 . S
C292 C290 1.381 . S
C292 C291 1.387 . S
C292 H315 0.931 . S
C293 C286 1.399 . S
C293 C290 1.487 . S
C293 N325 1.343 . S
C294 C295 1.384 . S
C294 C296 1.384 . S
C294 H316 0.931 . S
C295 C294 1.384 . S
C295 C298 1.382 . S
C296 C294 1.384 . S
C296 C297 1.381 . S
C296 H317 0.930 . S
C297 C296 1.381 . S
C297 C299 1.381 . S
C297 C300 1.487 . S
C298 C295 1.382 . S
C298 C299 1.387 . S
C298 H318 0.930 . S
C299 C297 1.381 . S
C299 C298 1.387 . S
C299 H319 0.931 . S
C300 C297 1.487 . S
C300 C307 1.399 . S
C300 N325 1.343 . S
C301 C302 1.384 . S
C301 C303 1.384 . S
C301 H320 0.931 . S
C302 C301 1.384 . S
C302 C305 1.382 . S
C303 C301 1.384 . S
C303 C304 1.381 . S
C303 H321 0.930 . S
C304 C303 1.381 . S
C304 C306 1.381 . S
C304 C307 1.487 . S
C305 C302 1.382 . S
C305 C306 1.387 . S
C305 H322 0.930 . S
C306 C304 1.381 . S
C306 C305 1.387 . S
C306 H323 0.931 . S
C307 C300 1.399 . S
C307 C304 1.487 . S
C307 N324 1.343 . S
H308 C280 0.931 . S
H309 C282 0.930 . S
H310 C284 0.930 . S
H311 C285 0.931 . S
H312 C287 0.931 . S
H313 C289 0.930 . S
H314 C291 0.930 . S
H315 C292 0.931 . S
H316 C294 0.931 . S
H317 C296 0.930 . S
H318 C298 0.930 . S
H319 C299 0.931 . S
H320 C301 0.931 . S
H321 C303 0.930 . S
H322 C305 0.930 . S
H323 C306 0.931 . S
N324 C286 1.343 . S
N324 C307 1.343 . S
N325 C293 1.343 . S
N325 C300 1.343 . S
C326 C327 1.384 . S
C326 C328 1.384 . S
C326 H354 0.931 . S
C327 C326 1.384 . S
C327 C330 1.382 . S
C328 C326 1.384 . S
C328 C329 1.381 . S
C328 H355 0.930 . S
C329 C328 1.381 . S
C329 C331 1.381 . S
C329 C332 1.487 . S
C330 C327 1.382 . S
C330 C331 1.387 . S
C330 H356 0.930 . S
C331 C329 1.381 . S
C331 C330 1.387 . S
C331 H357 0.931 . S
C332 C329 1.487 . S
C332 C339 1.399 . S
C332 N370 1.343 . S
C333 C334 1.384 . S
C333 C335 1.384 . S
C333 H358 0.931 . S
C334 C333 1.384 . S
C334 C337 1.382 . S
C335 C333 1.384 . S
C335 C336 1.381 . S
C335 H359 0.930 . S
C336 C335 1.381 . S
C336 C338 1.381 . S
C336 C339 1.487 . S
C337 C334 1.382 . S
C337 C338 1.387 . S
C337 H360 0.930 . S
C338 C336 1.381 . S
C338 C337 1.387 . S
C338 H361 0.931 . S
C339 C332 1.399 . S
C339 C336 1.487 . S
C339 N371 1.343 . S
C340 C341 1.384 . S
C340 C342 1.384 . S
C340 H362 0.931 . S
C341 C340 1.384 . S
C341 C344 1.382 . S
C342 C340 1.384 . S
C342 C343 1.381 . S
C342 H363 0.930 . S
C343 C342 1.381 . S
C343 C345 1.381 . S
C343 C346 1.487 . S
C344 C341 1.382 . S
C344 C345 1.387 . S
C344 H364 0.930 . S
C345 C343 1.381 . S
C345 C344 1.387 . S
C345 H365 0.931 . S
C346 C343 1.487 . S
C346 C353 1.399 . S
C346 N371 1.343 . S
C347 C348 1.384 . S
C347 C349 1.384 . S
C347 H366 0.931 . S
C348 C347 1.384 . S
C348 C351 1.382 . S
C349 C347 1.384 . S
C349 C350 1.381 . S
C349 H367 0.930 . S
C350 C349 1.381 . S
C350 C352 1.381 . S
C350 C353 1.487 . S
C351 C348 1.382 . S
C351 C352 1.387 . S
C351 H368 0.930 . S
C352 C350 1.381 . S
C352 C351 1.387 . S
C352 H369 0.931 . S
C353 C346 1.399 . S
C353 C350 1.487 . S
C353 N370 1.343 . S
H354 C326 0.931 . S
H355 C328 0.930 . S
H356 C330 0.930 . S
H357 C331 0.931 . S
H358 C333 0.931 . S
H359 C335 0.930 . S
H360 C337 0.930 . S
H361 C338 0.931 . S
H362 C340 0.931 . S
H363 C342 0.930 . S
H364 C344 0.930 . S
H365 C345 0.931 . S
H366 C347 0.931 . S
H367 C349 0.930 . S
H368 C351 0.930 . S
H369 C352 0.931 . S
N370 C332 1.343 . S
N370 C353 1.343 . S
N371 C339 1.343 . S
N371 C346 1.343 . S
C372 C373 1.384 . S
C372 C374 1.384 . S
C372 H400 0.931 . S
C373 C372 1.384 . S
C373 C376 1.382 . S
C374 C372 1.384 . S
C374 C375 1.381 . S
C374 H401 0.930 . S
C375 C374 1.381 . S
C375 C377 1.381 . S
C375 C378 1.487 . S
C376 C373 1.382 . S
C376 C377 1.387 . S
C376 H402 0.930 . S
C377 C375 1.381 . S
C377 C376 1.387 . S
C377 H403 0.931 . S
C378 C375 1.487 . S
C378 C385 1.399 . S
C378 N416 1.343 . S
C379 C380 1.384 . S
C379 C381 1.384 . S
C379 H404 0.931 . S
C380 C379 1.384 . S
C380 C383 1.382 . S
C381 C379 1.384 . S
C381 C382 1.381 . S
C381 H405 0.930 . S
C382 C381 1.381 . S
C382 C384 1.381 . S
C382 C385 1.487 . S
C383 C380 1.382 . S
C383 C384 1.387 . S
C383 H406 0.930 . S
C384 C382 1.381 . S
C384 C383 1.387 . S
C384 H407 0.931 . S
C385 C378 1.399 . S
C385 C382 1.487 . S
C385 N417 1.343 . S
C386 C387 1.384 . S
C386 C388 1.384 . S
C386 H408 0.931 . S
C387 C386 1.384 . S
C387 C390 1.382 . S
C388 C386 1.384 . S
C388 C389 1.381 . S
C388 H409 0.930 . S
C389 C388 1.381 . S
C389 C391 1.381 . S
C389 C392 1.487 . S
C390 C387 1.382 . S
C390 C391 1.387 . S
C390 H410 0.930 . S
C391 C389 1.381 . S
C391 C390 1.387 . S
C391 H411 0.931 . S
C392 C389 1.487 . S
C392 C399 1.399 . S
C392 N417 1.343 . S
C393 C394 1.384 . S
C393 C395 1.384 . S
C393 H412 0.931 . S
C394 C393 1.384 . S
C394 C397 1.382 . S
C395 C393 1.384 . S
C395 C396 1.381 . S
C395 H413 0.930 . S
C396 C395 1.381 . S
C396 C398 1.381 . S
C396 C399 1.487 . S
C397 C394 1.382 . S
C397 C398 1.387 . S
C397 H414 0.930 . S
C398 C396 1.381 . S
C398 C397 1.387 . S
C398 H415 0.931 . S
C399 C392 1.399 . S
C399 C396 1.487 . S
C399 N416 1.343 . S
H400 C372 0.931 . S
H401 C374 0.930 . S
H402 C376 0.930 . S
H403 C377 0.931 . S
H404 C379 0.931 . S
H405 C381 0.930 . S
H406 C383 0.930 . S
H407 C384 0.931 . S
H408 C386 0.931 . S
H409 C388 0.930 . S
H410 C390 0.930 . S
H411 C391 0.931 . S
H412 C393 0.931 . S
H413 C395 0.930 . S
H414 C397 0.930 . S
H415 C398 0.931 . S
N416 C378 1.343 . S
N416 C399 1.343 . S
N417 C385 1.343 . S
N417 C392 1.343 . S
C418 C419 1.384 . S
C418 C420 1.384 . S
C418 H446 0.931 . S
C419 C418 1.384 . S
C419 C422 1.382 . S
C420 C418 1.384 . S
C420 C421 1.381 . S
C420 H447 0.930 . S
C421 C420 1.381 . S
C421 C423 1.381 . S
C421 C424 1.487 . S
C422 C419 1.382 . S
C422 C423 1.387 . S
C422 H448 0.930 . S
C423 C421 1.381 . S
C423 C422 1.387 . S
C423 H449 0.931 . S
C424 C421 1.487 . S
C424 C431 1.399 . S
C424 N462 1.343 . S
C425 C426 1.384 . S
C425 C427 1.384 . S
C425 H450 0.931 . S
C426 C425 1.384 . S
C426 C429 1.382 . S
C427 C425 1.384 . S
C427 C428 1.381 . S
C427 H451 0.930 . S
C428 C427 1.381 . S
C428 C430 1.381 . S
C428 C431 1.487 . S
C429 C426 1.382 . S
C429 C430 1.387 . S
C429 H452 0.930 . S
C430 C428 1.381 . S
C430 C429 1.387 . S
C430 H453 0.931 . S
C431 C424 1.399 . S
C431 C428 1.487 . S
C431 N463 1.343 . S
C432 C433 1.384 . S
C432 C434 1.384 . S
C432 H454 0.931 . S
C433 C432 1.384 . S
C433 C436 1.382 . S
C434 C432 1.384 . S
C434 C435 1.381 . S
C434 H455 0.930 . S
C435 C434 1.381 . S
C435 C437 1.381 . S
C435 C438 1.487 . S
C436 C433 1.382 . S
C436 C437 1.387 . S
C436 H456 0.930 . S
C437 C435 1.381 . S
C437 C436 1.387 . S
C437 H457 0.931 . S
C438 C435 1.487 . S
C438 C445 1.399 . S
C438 N463 1.343 . S
C439 C440 1.384 . S
C439 C441 1.384 . S
C439 H458 0.931 . S
C440 C439 1.384 . S
C440 C443 1.382 . S
C441 C439 1.384 . S
C441 C442 1.381 . S
C441 H459 0.930 . S
C442 C441 1.381 . S
C442 C444 1.381 . S
C442 C445 1.487 . S
C443 C440 1.382 . S
C443 C444 1.387 . S
C443 H460 0.930 . S
C444 C442 1.381 . S
C444 C443 1.387 . S
C444 H461 0.931 . S
C445 C438 1.399 . S
C445 C442 1.487 . S
C445 N462 1.343 . S
H446 C418 0.931 . S
H447 C420 0.930 . S
H448 C422 0.930 . S
H449 C423 0.931 . S
H450 C425 0.931 . S
H451 C427 0.930 . S
H452 C429 0.930 . S
H453 C430 0.931 . S
H454 C432 0.931 . S
H455 C434 0.930 . S
H456 C436 0.930 . S
H457 C437 0.931 . S
H458 C439 0.931 . S
H459 C441 0.930 . S
H460 C443 0.930 . S
H461 C444 0.931 . S
N462 C424 1.343 . S
N462 C445 1.343 . S
N463 C431 1.343 . S
N463 C438 1.343 . S
C464 C465 1.384 . S
C464 C466 1.384 . S
C464 H492 0.931 . S
C465 C464 1.384 . S
C465 C468 1.382 . S
C466 C464 1.384 . S
C466 C467 1.381 . S
C466 H493 0.930 . S
C467 C466 1.381 . S
C467 C469 1.381 . S
C467 C470 1.487 . S
C468 C465 1.382 . S
C468 C469 1.387 . S
C468 H494 0.930 . S
C469 C467 1.381 . S
C469 C468 1.387 . S
C469 H495 0.931 . S
C470 C467 1.487 . S
C470 C477 1.399 . S
C470 N508 1.343 . S
C471 C472 1.384 . S
C471 C473 1.384 . S
C471 H496 0.931 . S
C472 C471 1.384 . S
C472 C475 1.382 . S
C473 C471 1.384 . S
C473 C474 1.381 . S
C473 H497 0.930 . S
C474 C473 1.381 . S
C474 C476 1.381 . S
C474 C477 1.487 . S
C475 C472 1.382 . S
C475 C476 1.387 . S
C475 H498 0.930 . S
C476 C474 1.381 . S
C476 C475 1.387 . S
C476 H499 0.931 . S
C477 C470 1.399 . S
C477 C474 1.487 . S
C477 N509 1.343 . S
C478 C479 1.384 . S
C478 C480 1.384 . S
C478 H500 0.931 . S
C479 C478 1.384 . S
C479 C482 1.382 . S
C480 C478 1.384 . S
C480 C481 1.381 . S
C480 H501 0.930 . S
C481 C480 1.381 . S
C481 C483 1.381 . S
C481 C484 1.487 . S
C482 C479 1.382 . S
C482 C483 1.387 . S
C482 H502 0.930 . S
C483 C481 1.381 . S
C483 C482 1.387 . S
C483 H503 0.931 . S
C484 C481 1.487 . S
C484 C491 1.399 . S
C484 N509 1.343 . S
C485 C486 1.384 . S
C485 C487 1.384 . S
C485 H504 0.931 . S
C486 C485 1.384 . S
C486 C489 1.382 . S
C487 C485 1.384 . S
C487 C488 1.381 . S
C487 H505 0.930 . S
C488 C487 1.381 . S
C488 C490 1.381 . S
C488 C491 1.487 . S
C489 C486 1.382 . S
C489 C490 1.387 . S
C489 H506 0.930 . S
C490 C488 1.381 . S
C490 C489 1.387 . S
C490 H507 0.931 . S
C491 C484 1.399 . S
C491 C488 1.487 . S
C491 N508 1.343 . S
H492 C464 0.931 . S
H493 C466 0.930 . S
H494 C468 0.930 . S
H495 C469 0.931 . S
H496 C471 0.931 . S
H497 C473 0.930 . S
H498 C475 0.930 . S
H499 C476 0.931 . S
H500 C478 0.931 . S
H501 C480 0.930 . S
H502 C482 0.930 . S
H503 C483 0.931 . S
H504 C485 0.931 . S
H505 C487 0.930 . S
H506 C489 0.930 . S
H507 C490 0.931 . S
N508 C470 1.343 . S
N508 C491 1.343 . S
N509 C477 1.343 . S
N509 C484 1.343 . S
C510 C511 1.384 . S
C510 C512 1.384 . S
C510 H538 0.931 . S
C511 C510 1.384 . S
C511 C514 1.382 . S
C512 C510 1.384 . S
C512 C513 1.381 . S
C512 H539 0.930 . S
C513 C512 1.381 . S
C513 C515 1.381 . S
C513 C516 1.487 . S
C514 C511 1.382 . S
C514 C515 1.387 . S
C514 H540 0.930 . S
C515 C513 1.381 . S
C515 C514 1.387 . S
C515 H541 0.931 . S
C516 C513 1.487 . S
C516 C523 1.399 . S
C516 N554 1.343 . S
C517 C518 1.384 . S
C517 C519 1.384 . S
C517 H542 0.931 . S
C518 C517 1.384 . S
C518 C521 1.382 . S
C519 C517 1.384 . S
C519 C520 1.381 . S
C519 H543 0.930 . S
C520 C519 1.381 . S
C520 C522 1.381 . S
C520 C523 1.487 . S
C521 C518 1.382 . S
C521 C522 1.387 . S
C521 H544 0.930 . S
C522 C520 1.381 . S
C522 C521 1.387 . S
C522 H545 0.931 . S
C523 C516 1.399 . S
C523 C520 1.487 . S
C523 N555 1.343 . S
C524 C525 1.384 . S
C524 C526 1.384 . S
C524 H546 0.931 . S
C525 C524 1.384 . S
C525 C528 1.382 . S
C526 C524 1.384 . S
C526 C527 1.381 . S
C526 H547 0.930 . S
C527 C526 1.381 . S
C527 C529 1.381 . S
C527 C530 1.487 . S
C528 C525 1.382 . S
C528 C529 1.387 . S
C528 H548 0.930 . S
C529 C527 1.381 . S
C529 C528 1.387 . S
C529 H549 0.931 . S
C530 C527 1.487 . S
C530 C537 1.399 . S
C530 N555 1.343 . S
C531 C532 1.384 . S
C531 C533 1.384 . S
C531 H550 0.931 . S
C532 C531 1.384 . S
C532 C535 1.382 . S
C533 C531 1.384 . S
C533 C534 1.381 . S
C533 H551 0.930 . S
C534 C533 1.381 . S
C534 C536 1.381 . S
C534 C537 1.487 . S
C535 C532 1.382 . S
C535 C536 1.387 . S
C535 H552 0.930 . S
C536 C534 1.381 . S
C536 C535 1.387 . S
C536 H553 0.931 . S
C537 C530 1.399 . S
C537 C534 1.487 . S
C537 N554 1.343 . S
H538 C510 0.931 . S
H539 C512 0.930 . S
H540 C514 0.930 . S
H541 C515 0.931 . S
H542 C517 0.931 . S
H543 C519 0.930 . S
H544 C521 0.930 . S
H545 C522 0.931 . S
H546 C524 0.931 . S
H547 C526 0.930 . S
H548 C528 0.930 . S
H549 C529 0.931 . S
H550 C531 0.931 . S
H551 C533 0.930 . S
H552 C535 0.930 . S
H553 C536 0.931 . S
N554 C516 1.343 . S
N554 C537 1.343 . S
N555 C523 1.343 . S
N555 C530 1.343 . S
C556 C557 1.384 . S
C556 C558 1.384 . S
C556 H584 0.931 . S
C557 C556 1.384 . S
C557 C560 1.382 . S
C558 C556 1.384 . S
C558 C559 1.381 . S
C558 H585 0.930 . S
C559 C558 1.381 . S
C559 C561 1.381 . S
C559 C562 1.487 . S
C560 C557 1.382 . S
C560 C561 1.387 . S
C560 H586 0.930 . S
C561 C559 1.381 . S
C561 C560 1.387 . S
C561 H587 0.931 . S
C562 C559 1.487 . S
C562 C569 1.399 . S
C562 N600 1.343 . S
C563 C564 1.384 . S
C563 C565 1.384 . S
C563 H588 0.931 . S
C564 C563 1.384 . S
C564 C567 1.382 . S
C565 C563 1.384 . S
C565 C566 1.381 . S
C565 H589 0.930 . S
C566 C565 1.381 . S
C566 C568 1.381 . S
C566 C569 1.487 . S
C567 C564 1.382 . S
C567 C568 1.387 . S
C567 H590 0.930 . S
C568 C566 1.381 . S
C568 C567 1.387 . S
C568 H591 0.931 . S
C569 C562 1.399 . S
C569 C566 1.487 . S
C569 N601 1.343 . S
C570 C571 1.384 . S
C570 C572 1.384 . S
C570 H592 0.931 . S
C571 C570 1.384 . S
C571 C574 1.382 . S
C572 C570 1.384 . S
C572 C573 1.381 . S
C572 H593 0.930 . S
C573 C572 1.381 . S
C573 C575 1.381 . S
C573 C576 1.487 . S
C574 C571 1.382 . S
C574 C575 1.387 . S
C574 H594 0.930 . S
C575 C573 1.381 . S
C575 C574 1.387 . S
C575 H595 0.931 . S
C576 C573 1.487 . S
C576 C583 1.399 . S
C576 N601 1.343 . S
C577 C578 1.384 . S
C577 C579 1.384 . S
C577 H596 0.931 . S
C578 C577 1.384 . S
C578 C581 1.382 . S
C579 C577 1.384 . S
C579 C580 1.381 . S
C579 H597 0.930 . S
C580 C579 1.381 . S
C580 C582 1.381 . S
C580 C583 1.487 . S
C581 C578 1.382 . S
C581 C582 1.387 . S
C581 H598 0.930 . S
C582 C580 1.381 . S
C582 C581 1.387 . S
C582 H599 0.931 . S
C583 C576 1.399 . S
C583 C580 1.487 . S
C583 N600 1.343 . S
H584 C556 0.931 . S
H585 C558 0.930 . S
H586 C560 0.930 . S
H587 C561 0.931 . S
H588 C563 0.931 . S
H589 C565 0.930 . S
H590 C567 0.930 . S
H591 C568 0.931 . S
H592 C570 0.931 . S
H593 C572 0.930 . S
H594 C574 0.930 . S
H595 C575 0.931 . S
H596 C577 0.931 . S
H597 C579 0.930 . S
H598 C581 0.930 . S
H599 C582 0.931 . S
N600 C562 1.343 . S
N600 C583 1.343 . S
N601 C569 1.343 . S
N601 C576 1.343 . S
C602 C603 1.384 . S
C602 C604 1.384 . S
C602 H630 0.931 . S
C603 C602 1.384 . S
C603 C606 1.382 . S
C604 C602 1.384 . S
C604 C605 1.381 . S
C604 H631 0.930 . S
C605 C604 1.381 . S
C605 C607 1.381 . S
C605 C608 1.487 . S
C606 C603 1.382 . S
C606 C607 1.387 . S
C606 H632 0.930 . S
C607 C605 1.381 . S
C607 C606 1.387 . S
C607 H633 0.931 . S
C608 C605 1.487 . S
C608 C615 1.399 . S
C608 N646 1.343 . S
C609 C610 1.384 . S
C609 C611 1.384 . S
C609 H634 0.931 . S
C610 C609 1.384 . S
C610 C613 1.382 . S
C611 C609 1.384 . S
C611 C612 1.381 . S
C611 H635 0.930 . S
C612 C611 1.381 . S
C612 C614 1.381 . S
C612 C615 1.487 . S
C613 C610 1.382 . S
C613 C614 1.387 . S
C613 H636 0.930 . S
C614 C612 1.381 . S
C614 C613 1.387 . S
C614 H637 0.931 . S
C615 C608 1.399 . S
C615 C612 1.487 . S
C615 N647 1.343 . S
C616 C617 1.384 . S
C616 C618 1.384 . S
C616 H638 0.931 . S
C617 C616 1.384 . S
C617 C620 1.382 . S
C618 C616 1.384 . S
C618 C619 1.381 . S
C618 H639 0.930 . S
C619 C618 1.381 . S
C619 C621 1.381 . S
C619 C622 1.487 . S
C620 C617 1.382 . S
C620 C621 1.387 . S
C620 H640 0.930 . S
C621 C619 1.381 . S
C621 C620 1.387 . S
C621 H641 0.931 . S
C622 C619 1.487 . S
C622 C629 1.399 . S
C622 N647 1.343 . S
C623 C624 1.384 . S
C623 C625 1.384 . S
C623 H642 0.931 . S
C624 C623 1.384 . S
C624 C627 1.382 . S
C625 C623 1.384 . S
C625 C626 1.381 . S
C625 H643 0.930 . S
C626 C625 1.381 . S
C626 C628 1.381 . S
C626 C629 1.487 . S
C627 C624 1.382 . S
C627 C628 1.387 . S
C627 H644 0.930 . S
C628 C626 1.381 . S
C628 C627 1.387 . S
C628 H645 0.931 . S
C629 C622 1.399 . S
C629 C626 1.487 . S
C629 N646 1.343 . S
H630 C602 0.931 . S
H631 C604 0.930 . S
H632 C606 0.930 . S
H633 C607 0.931 . S
H634 C609 0.931 . S
H635 C611 0.930 . S
H636 C613 0.930 . S
H637 C614 0.931 . S
H638 C616 0.931 . S
H639 C618 0.930 . S
H640 C620 0.930 . S
H641 C621 0.931 . S
H642 C623 0.931 . S
H643 C625 0.930 . S
H644 C627 0.930 . S
H645 C628 0.931 . S
N646 C608 1.343 . S
N646 C629 1.343 . S
N647 C615 1.343 . S
N647 C622 1.343 . S
C648 C649 1.384 . S
C648 C650 1.384 . S
C648 H676 0.931 . S
C649 C648 1.384 . S
C649 C652 1.382 1_655 S
C650 C648 1.384 . S
C650 C651 1.430 . S
C650 H677 0.930 . S
C651 C650 1.430 . S
C651 C653 1.358 1_655 S
C651 C654 1.465 1_655 S
C652 C649 1.382 1_455 S
C652 C653 1.387 . S
C652 H678 0.930 . S
C653 C651 1.358 1_455 S
C653 C652 1.387 . S
C653 H679 0.931 . S
C654 C651 1.465 1_455 S
C654 C661 1.399 1_455 S
C654 N692 1.341 . S
C655 C656 1.384 . S
C655 C657 1.384 . S
C655 H680 0.931 . S
C656 C655 1.384 . S
C656 C659 1.382 1_455 S
C657 C655 1.384 . S
C657 C658 1.380 1_455 S
C657 H681 0.930 . S
C658 C657 1.380 1_655 S
C658 C660 1.388 . S
C658 C661 1.494 . S
C659 C656 1.382 1_655 S
C659 C660 1.387 . S
C659 H682 0.930 . S
C660 C658 1.388 . S
C660 C659 1.387 . S
C660 H683 0.931 . S
C661 C654 1.399 1_655 S
C661 C658 1.494 . S
C661 N693 1.358 . S
C662 C663 1.384 . S
C662 C664 1.384 . S
C662 H684 0.931 . S
C663 C662 1.384 . S
C663 C666 1.382 1_455 S
C664 C662 1.384 . S
C664 C665 1.381 . S
C664 H685 0.930 . S
C665 C664 1.381 . S
C665 C667 1.381 1_455 S
C665 C668 1.488 . S
C666 C663 1.382 1_655 S
C666 C667 1.387 . S
C666 H686 0.930 . S
C667 C665 1.381 1_655 S
C667 C666 1.387 . S
C667 H687 0.931 . S
C668 C665 1.488 . S
C668 C675 1.399 . S
C668 N693 1.313 1_455 S
C669 C670 1.384 . S
C669 C671 1.384 . S
C669 H688 0.931 . S
C670 C669 1.384 . S
C670 C673 1.382 1_655 S
C671 C669 1.384 . S
C671 C672 1.378 1_655 S
C671 H689 0.930 . S
C672 C671 1.378 1_455 S
C672 C674 1.395 . S
C672 C675 1.494 . S
C673 C670 1.382 1_455 S
C673 C674 1.387 . S
C673 H690 0.930 . S
C674 C672 1.395 . S
C674 C673 1.387 . S
C674 H691 0.931 . S
C675 C668 1.399 . S
C675 C672 1.494 . S
C675 N692 1.325 . S
H676 C648 0.931 . S
H677 C650 0.930 . S
H678 C652 0.930 . S
H679 C653 0.931 . S
H680 C655 0.931 . S
H681 C657 0.930 . S
H682 C659 0.930 . S
H683 C660 0.931 . S
H684 C662 0.931 . S
H685 C664 0.930 . S
H686 C666 0.930 . S
H687 C667 0.931 . S
H688 C669 0.931 . S
H689 C671 0.930 . S
H690 C673 0.930 . S
H691 C674 0.931 . S
N692 C654 1.341 . S
N692 C675 1.325 . S
N693 C661 1.358 . S
N693 C668 1.313 1_655 S
C694 C695 1.384 . S
C694 C696 1.384 . S
C694 H722 0.931 . S
C695 C694 1.384 . S
C695 C698 1.382 . S
C696 C694 1.384 . S
C696 C697 1.381 . S
C696 H723 0.930 . S
C697 C696 1.381 . S
C697 C699 1.381 . S
C697 C700 1.487 . S
C698 C695 1.382 . S
C698 C699 1.387 . S
C698 H724 0.930 . S
C699 C697 1.381 . S
C699 C698 1.387 . S
C699 H725 0.931 . S
C700 C697 1.487 . S
C700 C707 1.399 . S
C700 N738 1.343 . S
C701 C702 1.384 . S
C701 C703 1.384 . S
C701 H726 0.931 . S
C702 C701 1.384 . S
C702 C705 1.382 . S
C703 C701 1.384 . S
C703 C704 1.381 . S
C703 H727 0.930 . S
C704 C703 1.381 . S
C704 C706 1.381 . S
C704 C707 1.487 . S
C705 C702 1.382 . S
C705 C706 1.387 . S
C705 H728 0.930 . S
C706 C704 1.381 . S
C706 C705 1.387 . S
C706 H729 0.931 . S
C707 C700 1.399 . S
C707 C704 1.487 . S
C707 N739 1.343 . S
C708 C709 1.384 . S
C708 C710 1.384 . S
C708 H730 0.931 . S
C709 C708 1.384 . S
C709 C712 1.382 . S
C710 C708 1.384 . S
C710 C711 1.381 . S
C710 H731 0.930 . S
C711 C710 1.381 . S
C711 C713 1.381 . S
C711 C714 1.487 . S
C712 C709 1.382 . S
C712 C713 1.387 . S
C712 H732 0.930 . S
C713 C711 1.381 . S
C713 C712 1.387 . S
C713 H733 0.931 . S
C714 C711 1.487 . S
C714 C721 1.399 . S
C714 N739 1.343 . S
C715 C716 1.384 . S
C715 C717 1.384 . S
C715 H734 0.931 . S
C716 C715 1.384 . S
C716 C719 1.382 . S
C717 C715 1.384 . S
C717 C718 1.381 . S
C717 H735 0.930 . S
C718 C717 1.381 . S
C718 C720 1.381 . S
C718 C721 1.487 . S
C719 C716 1.382 . S
C719 C720 1.387 . S
C719 H736 0.930 . S
C720 C718 1.381 . S
C720 C719 1.387 . S
C720 H737 0.931 . S
C721 C714 1.399 . S
C721 C718 1.487 . S
C721 N738 1.343 . S
H722 C694 0.931 . S
H723 C696 0.930 . S
H724 C698 0.930 . S
H725 C699 0.931 . S
H726 C701 0.931 . S
H727 C703 0.930 . S
H728 C705 0.930 . S
H729 C706 0.931 . S
H730 C708 0.931 . S
H731 C710 0.930 . S
H732 C712 0.930 . S
H733 C713 0.931 . S
H734 C715 0.931 . S
H735 C717 0.930 . S
H736 C719 0.930 . S
H737 C720 0.931 . S
N738 C700 1.343 . S
N738 C721 1.343 . S
N739 C707 1.343 . S
N739 C714 1.343 . S
C740 C741 1.384 1_545 S
C740 C742 1.384 . S
C740 H768 0.931 . S
C741 C740 1.384 1_565 S
C741 C744 1.382 . S
C742 C740 1.384 . S
C742 C743 1.381 1_545 S
C742 H769 0.930 . S
C743 C742 1.381 1_565 S
C743 C745 1.381 . S
C743 C746 1.487 . S
C744 C741 1.382 . S
C744 C745 1.387 . S
C744 H770 0.930 . S
C745 C743 1.381 . S
C745 C744 1.387 . S
C745 H771 0.931 . S
C746 C743 1.487 . S
C746 C753 1.399 1_565 S
C746 N784 1.343 . S
C747 C748 1.384 1_565 S
C747 C749 1.384 . S
C747 H772 0.931 . S
C748 C747 1.384 1_545 S
C748 C751 1.382 . S
C749 C747 1.384 . S
C749 C750 1.381 1_565 S
C749 H773 0.930 . S
C750 C749 1.381 1_545 S
C750 C752 1.381 . S
C750 C753 1.487 . S
C751 C748 1.382 . S
C751 C752 1.387 . S
C751 H774 0.930 . S
C752 C750 1.381 . S
C752 C751 1.387 . S
C752 H775 0.931 . S
C753 C746 1.399 1_545 S
C753 C750 1.487 . S
C753 N785 1.343 . S
C754 C755 1.384 1_565 S
C754 C756 1.384 . S
C754 H776 0.931 . S
C755 C754 1.384 1_545 S
C755 C758 1.382 . S
C756 C754 1.384 . S
C756 C757 1.381 1_565 S
C756 H777 0.930 . S
C757 C756 1.381 1_545 S
C757 C759 1.381 . S
C757 C760 1.487 . S
C758 C755 1.382 . S
C758 C759 1.387 . S
C758 H778 0.930 . S
C759 C757 1.381 . S
C759 C758 1.387 . S
C759 H779 0.931 . S
C760 C757 1.487 . S
C760 C767 1.399 1_545 S
C760 N785 1.343 . S
C761 C762 1.384 1_545 S
C761 C763 1.384 . S
C761 H780 0.931 . S
C762 C761 1.384 1_565 S
C762 C765 1.382 . S
C763 C761 1.384 . S
C763 C764 1.381 1_545 S
C763 H781 0.930 . S
C764 C763 1.381 1_565 S
C764 C766 1.381 . S
C764 C767 1.487 . S
C765 C762 1.382 . S
C765 C766 1.387 . S
C765 H782 0.930 . S
C766 C764 1.381 . S
C766 C765 1.387 . S
C766 H783 0.931 . S
C767 C760 1.399 1_565 S
C767 C764 1.487 . S
C767 N784 1.343 . S
H768 C740 0.931 . S
H769 C742 0.930 . S
H770 C744 0.930 . S
H771 C745 0.931 . S
H772 C747 0.931 . S
H773 C749 0.930 . S
H774 C751 0.930 . S
H775 C752 0.931 . S
H776 C754 0.931 . S
H777 C756 0.930 . S
H778 C758 0.930 . S
H779 C759 0.931 . S
H780 C761 0.931 . S
H781 C763 0.930 . S
H782 C765 0.930 . S
H783 C766 0.931 . S
N784 C746 1.343 . S
N784 C767 1.343 . S
N785 C753 1.343 . S
N785 C760 1.343 . S
C786 C787 1.384 . S
C786 C788 1.384 . S
C786 H814 0.931 . S
C787 C786 1.384 . S
C787 C790 1.382 1_545 S
C788 C786 1.384 . S
C788 C789 1.381 1_545 S
C788 H815 0.930 . S
C789 C788 1.381 1_565 S
C789 C791 1.383 . S
C789 C792 1.495 . S
C790 C787 1.382 1_565 S
C790 C791 1.387 . S
C790 H816 0.930 . S
C791 C789 1.383 . S
C791 C790 1.387 . S
C791 H817 0.931 . S
C792 C789 1.495 . S
C792 C799 1.400 1_565 S
C792 N830 1.360 . S
C793 C794 1.384 . S
C793 C795 1.384 . S
C793 H818 0.931 . S
C794 C793 1.384 . S
C794 C797 1.382 1_565 S
C795 C793 1.384 . S
C795 C796 1.420 . S
C795 H819 0.930 . S
C796 C795 1.420 . S
C796 C798 1.364 1_565 S
C796 C799 1.467 1_565 S
C797 C794 1.382 1_545 S
C797 C798 1.387 . S
C797 H820 0.930 . S
C798 C796 1.364 1_545 S
C798 C797 1.387 . S
C798 H821 0.931 . S
C799 C792 1.400 1_545 S
C799 C796 1.467 1_545 S
C799 N831 1.344 . S
C800 C801 1.384 . S
C800 C802 1.384 . S
C800 H822 0.931 . S
C801 C800 1.384 . S
C801 C804 1.382 1_565 S
C802 C800 1.384 . S
C802 C803 1.379 1_565 S
C802 H823 0.930 . S
C803 C802 1.379 1_545 S
C803 C805 1.390 . S
C803 C806 1.495 . S
C804 C801 1.382 1_545 S
C804 C805 1.387 . S
C804 H824 0.930 . S
C805 C803 1.390 . S
C805 C804 1.387 . S
C805 H825 0.931 . S
C806 C803 1.495 . S
C806 C813 1.400 . S
C806 N831 1.327 . S
C807 C808 1.384 . S
C807 C809 1.384 . S
C807 H826 0.931 . S
C808 C807 1.384 . S
C808 C811 1.382 1_545 S
C809 C807 1.384 . S
C809 C810 1.433 . S
C809 H827 0.930 . S
C810 C809 1.433 . S
C810 C812 1.358 1_545 S
C810 C813 1.461 . S
C811 C808 1.382 1_565 S
C811 C812 1.387 . S
C811 H828 0.930 . S
C812 C810 1.358 1_565 S
C812 C811 1.387 . S
C812 H829 0.931 . S
C813 C806 1.400 . S
C813 C810 1.461 . S
C813 N830 1.316 1_545 S
H814 C786 0.931 . S
H815 C788 0.930 . S
H816 C790 0.930 . S
H817 C791 0.931 . S
H818 C793 0.931 . S
H819 C795 0.930 . S
H820 C797 0.930 . S
H821 C798 0.931 . S
H822 C800 0.931 . S
H823 C802 0.930 . S
H824 C804 0.930 . S
H825 C805 0.931 . S
H826 C807 0.931 . S
H827 C809 0.930 . S
H828 C811 0.930 . S
H829 C812 0.931 . S
N830 C792 1.360 . S
N830 C813 1.316 1_565 S
N831 C799 1.344 . S
N831 C806 1.327 . S
C832 C833 1.384 . S
C832 C834 1.384 . S
C832 H860 0.931 . S
C833 C832 1.384 . S
C833 C836 1.382 1_655 S
C834 C832 1.384 . S
C834 C835 1.381 . S
C834 H861 0.930 . S
C835 C834 1.381 . S
C835 C837 1.381 1_655 S
C835 C838 1.491 . S
C836 C833 1.382 1_455 S
C836 C837 1.387 . S
C836 H862 0.930 . S
C837 C835 1.381 1_455 S
C837 C836 1.387 . S
C837 H863 0.931 . S
C838 C835 1.491 . S
C838 C845 1.399 . S
C838 N876 1.316 1_655 S
C839 C840 1.384 . S
C839 C841 1.384 . S
C839 H864 0.931 . S
C840 C839 1.384 . S
C840 C843 1.382 1_455 S
C841 C839 1.384 . S
C841 C842 1.379 1_455 S
C841 H865 0.930 . S
C842 C841 1.379 1_655 S
C842 C844 1.388 . S
C842 C845 1.497 . S
C843 C840 1.382 1_655 S
C843 C844 1.387 . S
C843 H866 0.930 . S
C844 C842 1.388 . S
C844 C843 1.387 . S
C844 H867 0.931 . S
C845 C838 1.399 . S
C845 C842 1.497 . S
C845 N877 1.355 . S
C846 C847 1.384 . S
C846 C848 1.384 . S
C846 H868 0.931 . S
C847 C846 1.384 . S
C847 C850 1.382 1_455 S
C848 C846 1.384 . S
C848 C849 1.381 . S
C848 H869 0.930 . S
C849 C848 1.381 . S
C849 C851 1.381 1_455 S
C849 C852 1.485 . S
C850 C847 1.382 1_655 S
C850 C851 1.387 . S
C850 H870 0.930 . S
C851 C849 1.381 1_655 S
C851 C850 1.387 . S
C851 H871 0.931 . S
C852 C849 1.485 . S
C852 C859 1.399 . S
C852 N877 1.316 1_455 S
C853 C854 1.384 . S
C853 C855 1.384 . S
C853 H872 0.931 . S
C854 C853 1.384 . S
C854 C857 1.382 1_655 S
C855 C853 1.384 . S
C855 C856 1.381 1_655 S
C855 H873 0.930 . S
C856 C855 1.381 1_455 S
C856 C858 1.381 . S
C856 C859 1.497 . S
C857 C854 1.382 1_455 S
C857 C858 1.387 . S
C857 H874 0.930 . S
C858 C856 1.381 . S
C858 C857 1.387 . S
C858 H875 0.931 . S
C859 C852 1.399 . S
C859 C856 1.497 . S
C859 N876 1.355 . S
H860 C832 0.931 . S
H861 C834 0.930 . S
H862 C836 0.930 . S
H863 C837 0.931 . S
H864 C839 0.931 . S
H865 C841 0.930 . S
H866 C843 0.930 . S
H867 C844 0.931 . S
H868 C846 0.931 . S
H869 C848 0.930 . S
H870 C850 0.930 . S
H871 C851 0.931 . S
H872 C853 0.931 . S
H873 C855 0.930 . S
H874 C857 0.930 . S
H875 C858 0.931 . S
N876 C838 1.316 1_455 S
N876 C859 1.355 . S
N877 C845 1.355 . S
N877 C852 1.316 1_655 S
C878 C879 1.384 . S
C878 C880 1.384 . S
C878 H906 0.931 . S
C879 C878 1.384 . S
C879 C882 1.382 . S
C880 C878 1.384 . S
C880 C881 1.381 . S
C880 H907 0.930 . S
C881 C880 1.381 . S
C881 C883 1.381 . S
C881 C884 1.487 . S
C882 C879 1.382 . S
C882 C883 1.387 . S
C882 H908 0.930 . S
C883 C881 1.381 . S
C883 C882 1.387 . S
C883 H909 0.931 . S
C884 C881 1.487 . S
C884 C891 1.399 . S
C884 N922 1.343 . S
C885 C886 1.384 . S
C885 C887 1.384 . S
C885 H910 0.931 . S
C886 C885 1.384 . S
C886 C889 1.382 . S
C887 C885 1.384 . S
C887 C888 1.381 . S
C887 H911 0.930 . S
C888 C887 1.381 . S
C888 C890 1.381 . S
C888 C891 1.487 . S
C889 C886 1.382 . S
C889 C890 1.387 . S
C889 H912 0.930 . S
C890 C888 1.381 . S
C890 C889 1.387 . S
C890 H913 0.931 . S
C891 C884 1.399 . S
C891 C888 1.487 . S
C891 N923 1.343 . S
C892 C893 1.384 . S
C892 C894 1.384 . S
C892 H914 0.931 . S
C893 C892 1.384 . S
C893 C896 1.382 . S
C894 C892 1.384 . S
C894 C895 1.381 . S
C894 H915 0.930 . S
C895 C894 1.381 . S
C895 C897 1.381 . S
C895 C898 1.487 . S
C896 C893 1.382 . S
C896 C897 1.387 . S
C896 H916 0.930 . S
C897 C895 1.381 . S
C897 C896 1.387 . S
C897 H917 0.931 . S
C898 C895 1.487 . S
C898 C905 1.399 . S
C898 N923 1.343 . S
C899 C900 1.384 . S
C899 C901 1.384 . S
C899 H918 0.931 . S
C900 C899 1.384 . S
C900 C903 1.382 . S
C901 C899 1.384 . S
C901 C902 1.381 . S
C901 H919 0.930 . S
C902 C901 1.381 . S
C902 C904 1.381 . S
C902 C905 1.487 . S
C903 C900 1.382 . S
C903 C904 1.387 . S
C903 H920 0.930 . S
C904 C902 1.381 . S
C904 C903 1.387 . S
C904 H921 0.931 . S
C905 C898 1.399 . S
C905 C902 1.487 . S
C905 N922 1.343 . S
H906 C878 0.931 . S
H907 C880 0.930 . S
H908 C882 0.930 . S
H909 C883 0.931 . S
H910 C885 0.931 . S
H911 C887 0.930 . S
H912 C889 0.930 . S
H913 C890 0.931 . S
H914 C892 0.931 . S
H915 C894 0.930 . S
H916 C896 0.930 . S
H917 C897 0.931 . S
H918 C899 0.931 . S
H919 C901 0.930 . S
H920 C903 0.930 . S
H921 C904 0.931 . S
N922 C884 1.343 . S
N922 C905 1.343 . S
N923 C891 1.343 . S
N923 C898 1.343 . S
C924 C925 1.384 . S
C924 C926 1.384 . S
C924 H952 0.931 . S
C925 C924 1.384 . S
C925 C928 1.382 . S
C926 C924 1.384 . S
C926 C927 1.381 . S
C926 H953 0.930 . S
C927 C926 1.381 . S
C927 C929 1.381 . S
C927 C930 1.487 . S
C928 C925 1.382 . S
C928 C929 1.387 . S
C928 H954 0.930 . S
C929 C927 1.381 . S
C929 C928 1.387 . S
C929 H955 0.931 . S
C930 C927 1.487 . S
C930 C937 1.399 . S
C930 N968 1.343 . S
C931 C932 1.384 . S
C931 C933 1.384 . S
C931 H956 0.931 . S
C932 C931 1.384 . S
C932 C935 1.382 . S
C933 C931 1.384 . S
C933 C934 1.381 . S
C933 H957 0.930 . S
C934 C933 1.381 . S
C934 C936 1.381 . S
C934 C937 1.487 . S
C935 C932 1.382 . S
C935 C936 1.387 . S
C935 H958 0.930 . S
C936 C934 1.381 . S
C936 C935 1.387 . S
C936 H959 0.931 . S
C937 C930 1.399 . S
C937 C934 1.487 . S
C937 N969 1.343 . S
C938 C939 1.384 . S
C938 C940 1.384 . S
C938 H960 0.931 . S
C939 C938 1.384 . S
C939 C942 1.382 . S
C940 C938 1.384 . S
C940 C941 1.381 . S
C940 H961 0.930 . S
C941 C940 1.381 . S
C941 C943 1.381 . S
C941 C944 1.487 . S
C942 C939 1.382 . S
C942 C943 1.387 . S
C942 H962 0.930 . S
C943 C941 1.381 . S
C943 C942 1.387 . S
C943 H963 0.931 . S
C944 C941 1.487 . S
C944 C951 1.399 . S
C944 N969 1.343 . S
C945 C946 1.384 . S
C945 C947 1.384 . S
C945 H964 0.931 . S
C946 C945 1.384 . S
C946 C949 1.382 . S
C947 C945 1.384 . S
C947 C948 1.381 . S
C947 H965 0.930 . S
C948 C947 1.381 . S
C948 C950 1.381 . S
C948 C951 1.487 . S
C949 C946 1.382 . S
C949 C950 1.387 . S
C949 H966 0.930 . S
C950 C948 1.381 . S
C950 C949 1.387 . S
C950 H967 0.931 . S
C951 C944 1.399 . S
C951 C948 1.487 . S
C951 N968 1.343 . S
H952 C924 0.931 . S
H953 C926 0.930 . S
H954 C928 0.930 . S
H955 C929 0.931 . S
H956 C931 0.931 . S
H957 C933 0.930 . S
H958 C935 0.930 . S
H959 C936 0.931 . S
H960 C938 0.931 . S
H961 C940 0.930 . S
H962 C942 0.930 . S
H963 C943 0.931 . S
H964 C945 0.931 . S
H965 C947 0.930 . S
H966 C949 0.930 . S
H967 C950 0.931 . S
N968 C930 1.343 . S
N968 C951 1.343 . S
N969 C937 1.343 . S
N969 C944 1.343 . S
C970 C971 1.384 . S
C970 C972 1.384 . S
C970 H998 0.931 . S
C971 C970 1.384 . S
C971 C974 1.382 . S
C972 C970 1.384 . S
C972 C973 1.381 . S
C972 H999 0.930 . S
C973 C972 1.381 . S
C973 C975 1.381 . S
C973 C976 1.487 . S
C974 C971 1.382 . S
C974 C975 1.387 . S
C974 H1000 0.930 . S
C975 C973 1.381 . S
C975 C974 1.387 . S
C975 H1001 0.931 . S
C976 C973 1.487 . S
C976 C983 1.399 . S
C976 N1014 1.343 . S
C977 C978 1.384 . S
C977 C979 1.384 . S
C977 H1002 0.931 . S
C978 C977 1.384 . S
C978 C981 1.382 . S
C979 C977 1.384 . S
C979 C980 1.381 . S
C979 H1003 0.930 . S
C980 C979 1.381 . S
C980 C982 1.381 . S
C980 C983 1.487 . S
C981 C978 1.382 . S
C981 C982 1.387 . S
C981 H1004 0.930 . S
C982 C980 1.381 . S
C982 C981 1.387 . S
C982 H1005 0.931 . S
C983 C976 1.399 . S
C983 C980 1.487 . S
C983 N1015 1.343 . S
C984 C985 1.384 . S
C984 C986 1.384 . S
C984 H1006 0.931 . S
C985 C984 1.384 . S
C985 C988 1.382 . S
C986 C984 1.384 . S
C986 C987 1.381 . S
C986 H1007 0.930 . S
C987 C986 1.381 . S
C987 C989 1.381 . S
C987 C990 1.487 . S
C988 C985 1.382 . S
C988 C989 1.387 . S
C988 H1008 0.930 . S
C989 C987 1.381 . S
C989 C988 1.387 . S
C989 H1009 0.931 . S
C990 C987 1.487 . S
C990 C997 1.399 . S
C990 N1015 1.343 . S
C991 C992 1.384 . S
C991 C993 1.384 . S
C991 H1010 0.931 . S
C992 C991 1.384 . S
C992 C995 1.382 . S
C993 C991 1.384 . S
C993 C994 1.381 . S
C993 H1011 0.930 . S
C994 C993 1.381 . S
C994 C996 1.381 . S
C994 C997 1.487 . S
C995 C992 1.382 . S
C995 C996 1.387 . S
C995 H1012 0.930 . S
C996 C994 1.381 . S
C996 C995 1.387 . S
C996 H1013 0.931 . S
C997 C990 1.399 . S
C997 C994 1.487 . S
C997 N1014 1.343 . S
H998 C970 0.931 . S
H999 C972 0.930 . S
H1000 C974 0.930 . S
H1001 C975 0.931 . S
H1002 C977 0.931 . S
H1003 C979 0.930 . S
H1004 C981 0.930 . S
H1005 C982 0.931 . S
H1006 C984 0.931 . S
H1007 C986 0.930 . S
H1008 C988 0.930 . S
H1009 C989 0.931 . S
H1010 C991 0.931 . S
H1011 C993 0.930 . S
H1012 C995 0.930 . S
H1013 C996 0.931 . S
N1014 C976 1.343 . S
N1014 C997 1.343 . S
N1015 C983 1.343 . S
N1015 C990 1.343 . S
C1016 C1017 1.384 . S
C1016 C1018 1.384 . S
C1016 H1044 0.931 . S
C1017 C1016 1.384 . S
C1017 C1020 1.382 . S
C1018 C1016 1.384 . S
C1018 C1019 1.381 . S
C1018 H1045 0.930 . S
C1019 C1018 1.381 . S
C1019 C1021 1.381 . S
C1019 C1022 1.487 . S
C1020 C1017 1.382 . S
C1020 C1021 1.387 . S
C1020 H1046 0.930 . S
C1021 C1019 1.381 . S
C1021 C1020 1.387 . S
C1021 H1047 0.931 . S
C1022 C1019 1.487 . S
C1022 C1029 1.399 . S
C1022 N1060 1.343 . S
C1023 C1024 1.384 . S
C1023 C1025 1.384 . S
C1023 H1048 0.931 . S
C1024 C1023 1.384 . S
C1024 C1027 1.382 . S
C1025 C1023 1.384 . S
C1025 C1026 1.381 . S
C1025 H1049 0.930 . S
C1026 C1025 1.381 . S
C1026 C1028 1.381 . S
C1026 C1029 1.487 . S
C1027 C1024 1.382 . S
C1027 C1028 1.387 . S
C1027 H1050 0.930 . S
C1028 C1026 1.381 . S
C1028 C1027 1.387 . S
C1028 H1051 0.931 . S
C1029 C1022 1.399 . S
C1029 C1026 1.487 . S
C1029 N1061 1.343 . S
C1030 C1031 1.384 . S
C1030 C1032 1.384 . S
C1030 H1052 0.931 . S
C1031 C1030 1.384 . S
C1031 C1034 1.382 . S
C1032 C1030 1.384 . S
C1032 C1033 1.381 . S
C1032 H1053 0.930 . S
C1033 C1032 1.381 . S
C1033 C1035 1.381 . S
C1033 C1036 1.487 . S
C1034 C1031 1.382 . S
C1034 C1035 1.387 . S
C1034 H1054 0.930 . S
C1035 C1033 1.381 . S
C1035 C1034 1.387 . S
C1035 H1055 0.931 . S
C1036 C1033 1.487 . S
C1036 C1043 1.399 . S
C1036 N1061 1.343 . S
C1037 C1038 1.384 . S
C1037 C1039 1.384 . S
C1037 H1056 0.931 . S
C1038 C1037 1.384 . S
C1038 C1041 1.382 . S
C1039 C1037 1.384 . S
C1039 C1040 1.381 . S
C1039 H1057 0.930 . S
C1040 C1039 1.381 . S
C1040 C1042 1.381 . S
C1040 C1043 1.487 . S
C1041 C1038 1.382 . S
C1041 C1042 1.387 . S
C1041 H1058 0.930 . S
C1042 C1040 1.381 . S
C1042 C1041 1.387 . S
C1042 H1059 0.931 . S
C1043 C1036 1.399 . S
C1043 C1040 1.487 . S
C1043 N1060 1.343 . S
H1044 C1016 0.931 . S
H1045 C1018 0.930 . S
H1046 C1020 0.930 . S
H1047 C1021 0.931 . S
H1048 C1023 0.931 . S
H1049 C1025 0.930 . S
H1050 C1027 0.930 . S
H1051 C1028 0.931 . S
H1052 C1030 0.931 . S
H1053 C1032 0.930 . S
H1054 C1034 0.930 . S
H1055 C1035 0.931 . S
H1056 C1037 0.931 . S
H1057 C1039 0.930 . S
H1058 C1041 0.930 . S
H1059 C1042 0.931 . S
N1060 C1022 1.343 . S
N1060 C1043 1.343 . S
N1061 C1029 1.343 . S
N1061 C1036 1.343 . S
C1062 C1063 1.369 . S
C1062 C1064 1.419 . S
C1062 H1066 0.930 . S
C1063 C1062 1.369 . S
C1063 C1072 1.429 . S
C1064 C1062 1.419 . S
C1064 C1065 1.363 . S
C1064 H1067 0.929 . S
C1065 C1064 1.363 . S
C1065 C1071 1.428 . S
H1066 C1062 0.930 . S
H1067 C1064 0.929 . S
S1068 N1069 1.613 . S
S1068 N1070 1.610 . S
N1069 S1068 1.613 . S
N1069 C1072 1.350 . S
N1070 S1068 1.610 . S
N1070 C1071 1.351 . S
C1071 C1065 1.428 . S
C1071 N1070 1.351 . S
C1071 C1072 1.434 . S
C1072 C1063 1.429 . S
C1072 N1069 1.350 . S
C1072 C1071 1.434 . S
C1073 C1074 1.369 . S
C1073 C1075 1.419 . S
C1073 H1077 0.930 . S
C1074 C1073 1.369 . S
C1074 C1083 1.429 . S
C1075 C1073 1.419 . S
C1075 C1076 1.363 . S
C1075 H1078 0.929 . S
C1076 C1075 1.363 . S
C1076 C1082 1.428 . S
H1077 C1073 0.930 . S
H1078 C1075 0.929 . S
S1079 N1080 1.613 . S
S1079 N1081 1.610 . S
N1080 S1079 1.613 . S
N1080 C1083 1.350 . S
N1081 S1079 1.610 . S
N1081 C1082 1.351 . S
C1082 C1076 1.428 . S
C1082 N1081 1.351 . S
C1082 C1083 1.434 . S
C1083 C1074 1.429 . S
C1083 N1080 1.350 . S
C1083 C1082 1.434 . S
C1084 C1085 1.369 . S
C1084 C1086 1.419 1_545 S
C1084 H1088 0.930 1_545 S
C1085 C1084 1.369 . S
C1085 C1094 1.429 . S
C1086 C1084 1.419 1_565 S
C1086 C1087 1.363 1_565 S
C1086 H1089 0.929 . S
C1087 C1086 1.363 1_545 S
C1087 C1093 1.428 . S
H1088 C1084 0.930 1_565 S
H1089 C1086 0.929 . S
S1090 N1091 1.613 . S
S1090 N1092 1.610 . S
N1091 S1090 1.613 . S
N1091 C1094 1.350 . S
N1092 S1090 1.610 . S
N1092 C1093 1.351 . S
C1093 C1087 1.428 . S
C1093 N1092 1.351 . S
C1093 C1094 1.434 . S
C1094 C1085 1.429 . S
C1094 N1091 1.350 . S
C1094 C1093 1.434 . S
C1095 C1096 1.369 . S
C1095 C1097 1.419 . S
C1095 H1099 0.930 . S
C1096 C1095 1.369 . S
C1096 C1105 1.429 1_565 S
C1097 C1095 1.419 . S
C1097 C1098 1.363 . S
C1097 H1100 0.929 . S
C1098 C1097 1.363 . S
C1098 C1104 1.428 1_565 S
H1099 C1095 0.930 . S
H1100 C1097 0.929 . S
S1101 N1102 1.613 . S
S1101 N1103 1.610 . S
N1102 S1101 1.613 . S
N1102 C1105 1.350 . S
N1103 S1101 1.610 . S
N1103 C1104 1.351 . S
C1104 C1098 1.428 1_545 S
C1104 N1103 1.351 . S
C1104 C1105 1.434 . S
C1105 C1096 1.429 1_545 S
C1105 N1102 1.350 . S
C1105 C1104 1.434 . S
C1106 C1107 1.369 . S
C1106 C1108 1.419 . S
C1106 H1110 0.926 . S
C1107 C1106 1.369 . S
C1107 C1116 1.429 . S
C1108 C1106 1.419 . S
C1108 C1109 1.363 . S
C1108 H1111 0.929 1_455 S
C1109 C1108 1.363 . S
C1109 C1115 1.428 . S
H1110 C1106 0.926 . S
H1111 C1108 0.929 1_655 S
S1112 N1113 1.613 . S
S1112 N1114 1.610 . S
N1113 S1112 1.613 . S
N1113 C1116 1.350 . S
N1114 S1112 1.610 . S
N1114 C1115 1.351 . S
C1115 C1109 1.428 . S
C1115 N1114 1.351 . S
C1115 C1116 1.434 . S
C1116 C1107 1.429 . S
C1116 N1113 1.350 . S
C1116 C1115 1.434 . S
C1117 C1118 1.369 . S
C1117 C1119 1.419 . S
C1117 H1121 0.930 . S
C1118 C1117 1.369 . S
C1118 C1127 1.429 . S
C1119 C1117 1.419 . S
C1119 C1120 1.363 . S
C1119 H1122 0.929 . S
C1120 C1119 1.363 . S
C1120 C1126 1.428 . S
H1121 C1117 0.930 . S
H1122 C1119 0.929 . S
S1123 N1124 1.613 . S
S1123 N1125 1.610 . S
N1124 S1123 1.613 . S
N1124 C1127 1.350 . S
N1125 S1123 1.610 . S
N1125 C1126 1.351 . S
C1126 C1120 1.428 . S
C1126 N1125 1.351 . S
C1126 C1127 1.434 . S
C1127 C1118 1.429 . S
C1127 N1124 1.350 . S
C1127 C1126 1.434 . S
C1128 C1129 1.369 . S
C1128 C1130 1.419 . S
C1128 H1132 0.930 . S
C1129 C1128 1.369 . S
C1129 C1138 1.429 1_455 S
C1130 C1128 1.419 . S
C1130 C1131 1.363 . S
C1130 H1133 0.929 . S
C1131 C1130 1.363 . S
C1131 C1137 1.428 1_455 S
H1132 C1128 0.930 . S
H1133 C1130 0.929 . S
S1134 N1135 1.613 . S
S1134 N1136 1.610 . S
N1135 S1134 1.613 . S
N1135 C1138 1.350 . S
N1136 S1134 1.610 . S
N1136 C1137 1.351 . S
C1137 C1131 1.428 1_655 S
C1137 N1136 1.351 . S
C1137 C1138 1.434 . S
C1138 C1129 1.429 1_655 S
C1138 N1135 1.350 . S
C1138 C1137 1.434 . S
C1139 C1140 1.369 . S
C1139 C1141 1.419 . S
C1139 H1143 0.930 . S
C1140 C1139 1.369 . S
C1140 C1149 1.429 . S
C1141 C1139 1.419 . S
C1141 C1142 1.363 . S
C1141 H1144 0.929 . S
C1142 C1141 1.363 . S
C1142 C1148 1.428 . S
H1143 C1139 0.930 . S
H1144 C1141 0.929 . S
S1145 N1146 1.613 . S
S1145 N1147 1.610 . S
N1146 S1145 1.613 . S
N1146 C1149 1.350 . S
N1147 S1145 1.610 . S
N1147 C1148 1.351 . S
C1148 C1142 1.428 . S
C1148 N1147 1.351 . S
C1148 C1149 1.434 . S
C1149 C1140 1.429 . S
C1149 N1146 1.350 . S
C1149 C1148 1.434 . S
C1150 C1151 1.369 . S
C1150 C1152 1.419 . S
C1150 H1154 0.930 . S
C1151 C1150 1.369 . S
C1151 C1160 1.429 . S
C1152 C1150 1.419 . S
C1152 C1153 1.363 . S
C1152 H1155 0.929 . S
C1153 C1152 1.363 . S
C1153 C1159 1.428 . S
H1154 C1150 0.930 . S
H1155 C1152 0.929 . S
S1156 N1157 1.613 . S
S1156 N1158 1.610 . S
N1157 S1156 1.613 . S
N1157 C1160 1.350 . S
N1158 S1156 1.610 . S
N1158 C1159 1.351 . S
C1159 C1153 1.428 . S
C1159 N1158 1.351 . S
C1159 C1160 1.434 . S
C1160 C1151 1.429 . S
C1160 N1157 1.350 . S
C1160 C1159 1.434 . S
C1161 C1162 1.369 . S
C1161 C1163 1.419 . S
C1161 H1165 0.930 . S
C1162 C1161 1.369 . S
C1162 C1171 1.429 1_545 S
C1163 C1161 1.419 . S
C1163 C1164 1.363 . S
C1163 H1166 0.929 . S
C1164 C1163 1.363 . S
C1164 C1170 1.428 1_545 S
H1165 C1161 0.930 . S
H1166 C1163 0.929 . S
S1167 N1168 1.613 . S
S1167 N1169 1.610 . S
N1168 S1167 1.613 . S
N1168 C1171 1.350 . S
N1169 S1167 1.610 . S
N1169 C1170 1.351 . S
C1170 C1164 1.428 1_565 S
C1170 N1169 1.351 . S
C1170 C1171 1.434 . S
C1171 C1162 1.429 1_565 S
C1171 N1168 1.350 . S
C1171 C1170 1.434 . S
C1172 C1173 1.369 . S
C1172 C1174 1.419 . S
C1172 H1176 0.930 . S
C1173 C1172 1.369 . S
C1173 C1182 1.429 1_655 S
C1174 C1172 1.419 . S
C1174 C1175 1.363 . S
C1174 H1177 0.929 . S
C1175 C1174 1.363 . S
C1175 C1181 1.428 1_655 S
H1176 C1172 0.930 . S
H1177 C1174 0.929 . S
S1178 N1179 1.613 . S
S1178 N1180 1.610 . S
N1179 S1178 1.613 . S
N1179 C1182 1.350 . S
N1180 S1178 1.610 . S
N1180 C1181 1.351 . S
C1181 C1175 1.428 1_455 S
C1181 N1180 1.351 . S
C1181 C1182 1.434 . S
C1182 C1173 1.429 1_455 S
C1182 N1179 1.350 . S
C1182 C1181 1.434 . S
C1183 C1184 1.369 . S
C1183 C1185 1.419 . S
C1183 H1187 0.930 . S
C1184 C1183 1.369 . S
C1184 C1193 1.429 . S
C1185 C1183 1.419 . S
C1185 C1186 1.363 . S
C1185 H1188 0.929 . S
C1186 C1185 1.363 . S
C1186 C1192 1.428 . S
H1187 C1183 0.930 . S
H1188 C1185 0.929 . S
S1189 N1190 1.613 . S
S1189 N1191 1.610 . S
N1190 S1189 1.613 . S
N1190 C1193 1.350 . S
N1191 S1189 1.610 . S
N1191 C1192 1.351 . S
C1192 C1186 1.428 . S
C1192 N1191 1.351 . S
C1192 C1193 1.434 . S
C1193 C1184 1.429 . S
C1193 N1190 1.350 . S
C1193 C1192 1.434 . S
C1194 C1195 1.369 . S
C1194 C1196 1.419 . S
C1194 H1198 0.930 . S
C1195 C1194 1.369 . S
C1195 C1204 1.429 . S
C1196 C1194 1.419 . S
C1196 C1197 1.363 . S
C1196 H1199 0.929 . S
C1197 C1196 1.363 . S
C1197 C1203 1.428 . S
H1198 C1194 0.930 . S
H1199 C1196 0.929 . S
S1200 N1201 1.613 . S
S1200 N1202 1.610 . S
N1201 S1200 1.613 . S
N1201 C1204 1.350 . S
N1202 S1200 1.610 . S
N1202 C1203 1.351 . S
C1203 C1197 1.428 . S
C1203 N1202 1.351 . S
C1203 C1204 1.434 . S
C1204 C1195 1.429 . S
C1204 N1201 1.350 . S
C1204 C1203 1.434 . S
C1205 C1206 1.369 . S
C1205 C1207 1.419 . S
C1205 H1209 0.930 . S
C1206 C1205 1.369 . S
C1206 C1215 1.429 . S
C1207 C1205 1.419 . S
C1207 C1208 1.363 . S
C1207 H1210 0.929 . S
C1208 C1207 1.363 . S
C1208 C1214 1.428 . S
H1209 C1205 0.930 . S
H1210 C1207 0.929 . S
S1211 N1212 1.613 . S
S1211 N1213 1.610 . S
N1212 S1211 1.613 . S
N1212 C1215 1.350 . S
N1213 S1211 1.610 . S
N1213 C1214 1.351 . S
C1214 C1208 1.428 . S
C1214 N1213 1.351 . S
C1214 C1215 1.434 . S
C1215 C1206 1.429 . S
C1215 N1212 1.350 . S
C1215 C1214 1.434 . S
C1216 C1217 1.369 . S
C1216 C1218 1.419 . S
C1216 H1220 0.930 . S
C1217 C1216 1.369 . S
C1217 C1226 1.429 . S
C1218 C1216 1.419 . S
C1218 C1219 1.363 . S
C1218 H1221 0.929 . S
C1219 C1218 1.363 . S
C1219 C1225 1.428 . S
H1220 C1216 0.930 . S
H1221 C1218 0.929 . S
S1222 N1223 1.613 . S
S1222 N1224 1.610 . S
N1223 S1222 1.613 . S
N1223 C1226 1.350 . S
N1224 S1222 1.610 . S
N1224 C1225 1.351 . S
C1225 C1219 1.428 . S
C1225 N1224 1.351 . S
C1225 C1226 1.434 . S
C1226 C1217 1.429 . S
C1226 N1223 1.350 . S
C1226 C1225 1.434 . S
C1227 C1228 1.369 . S
C1227 C1229 1.419 . S
C1227 H1231 0.930 . S
C1228 C1227 1.369 . S
C1228 C1237 1.429 . S
C1229 C1227 1.419 . S
C1229 C1230 1.363 . S
C1229 H1232 0.929 . S
C1230 C1229 1.363 . S
C1230 C1236 1.428 . S
H1231 C1227 0.930 . S
H1232 C1229 0.929 . S
S1233 N1234 1.613 . S
S1233 N1235 1.610 . S
N1234 S1233 1.613 . S
N1234 C1237 1.350 . S
N1235 S1233 1.610 . S
N1235 C1236 1.351 . S
C1236 C1230 1.428 . S
C1236 N1235 1.351 . S
C1236 C1237 1.434 . S
C1237 C1228 1.429 . S
C1237 N1234 1.350 . S
C1237 C1236 1.434 . S
C1238 C1239 1.369 . S
C1238 C1240 1.419 . S
C1238 H1242 0.930 . S
C1239 C1238 1.369 . S
C1239 C1248 1.429 . S
C1240 C1238 1.419 . S
C1240 C1241 1.363 . S
C1240 H1243 0.929 . S
C1241 C1240 1.363 . S
C1241 C1247 1.428 . S
H1242 C1238 0.930 . S
H1243 C1240 0.929 . S
S1244 N1245 1.613 . S
S1244 N1246 1.610 . S
N1245 S1244 1.613 . S
N1245 C1248 1.350 . S
N1246 S1244 1.610 . S
N1246 C1247 1.351 . S
C1247 C1241 1.428 . S
C1247 N1246 1.351 . S
C1247 C1248 1.434 . S
C1248 C1239 1.429 . S
C1248 N1245 1.350 . S
C1248 C1247 1.434 . S
C1249 C1250 1.369 . S
C1249 C1251 1.419 . S
C1249 H1253 0.930 . S
C1250 C1249 1.369 . S
C1250 C1259 1.429 . S
C1251 C1249 1.419 . S
C1251 C1252 1.363 . S
C1251 H1254 0.929 . S
C1252 C1251 1.363 . S
C1252 C1258 1.428 . S
H1253 C1249 0.930 . S
H1254 C1251 0.929 . S
S1255 N1256 1.613 . S
S1255 N1257 1.610 . S
N1256 S1255 1.613 . S
N1256 C1259 1.350 . S
N1257 S1255 1.610 . S
N1257 C1258 1.351 . S
C1258 C1252 1.428 . S
C1258 N1257 1.351 . S
C1258 C1259 1.434 . S
C1259 C1250 1.429 . S
C1259 N1256 1.350 . S
C1259 C1258 1.434 . S
C1260 C1261 1.369 . S
C1260 C1262 1.419 . S
C1260 H1264 0.930 . S
C1261 C1260 1.369 . S
C1261 C1270 1.429 . S
C1262 C1260 1.419 . S
C1262 C1263 1.363 . S
C1262 H1265 0.929 . S
C1263 C1262 1.363 . S
C1263 C1269 1.428 . S
H1264 C1260 0.930 . S
H1265 C1262 0.929 . S
S1266 N1267 1.613 . S
S1266 N1268 1.610 . S
N1267 S1266 1.613 . S
N1267 C1270 1.350 . S
N1268 S1266 1.610 . S
N1268 C1269 1.351 . S
C1269 C1263 1.428 . S
C1269 N1268 1.351 . S
C1269 C1270 1.434 . S
C1270 C1261 1.429 . S
C1270 N1267 1.350 . S
C1270 C1269 1.434 . S
C1271 C1272 1.369 . S
C1271 C1273 1.419 . S
C1271 H1275 0.930 . S
C1272 C1271 1.369 . S
C1272 C1281 1.429 . S
C1273 C1271 1.419 . S
C1273 C1274 1.363 . S
C1273 H1276 0.929 . S
C1274 C1273 1.363 . S
C1274 C1280 1.428 . S
H1275 C1271 0.930 . S
H1276 C1273 0.929 . S
S1277 N1278 1.613 . S
S1277 N1279 1.610 . S
N1278 S1277 1.613 . S
N1278 C1281 1.350 . S
N1279 S1277 1.610 . S
N1279 C1280 1.351 . S
C1280 C1274 1.428 . S
C1280 N1279 1.351 . S
C1280 C1281 1.434 . S
C1281 C1272 1.429 . S
C1281 N1278 1.350 . S
C1281 C1280 1.434 . S
C1282 C1283 1.369 . S
C1282 C1284 1.419 . S
C1282 H1286 0.930 . S
C1283 C1282 1.369 . S
C1283 C1292 1.429 . S
C1284 C1282 1.419 . S
C1284 C1285 1.363 . S
C1284 H1287 0.929 . S
C1285 C1284 1.363 . S
C1285 C1291 1.428 . S
H1286 C1282 0.930 . S
H1287 C1284 0.929 . S
S1288 N1289 1.613 . S
S1288 N1290 1.610 . S
N1289 S1288 1.613 . S
N1289 C1292 1.350 . S
N1290 S1288 1.610 . S
N1290 C1291 1.351 . S
C1291 C1285 1.428 . S
C1291 N1290 1.351 . S
C1291 C1292 1.434 . S
C1292 C1283 1.429 . S
C1292 N1289 1.350 . S
C1292 C1291 1.434 . S
C1293 C1294 1.369 . S
C1293 C1295 1.419 . S
C1293 H1297 0.930 . S
C1294 C1293 1.369 . S
C1294 C1303 1.429 . S
C1295 C1293 1.419 . S
C1295 C1296 1.363 . S
C1295 H1298 0.929 . S
C1296 C1295 1.363 . S
C1296 C1302 1.428 . S
H1297 C1293 0.930 . S
H1298 C1295 0.929 . S
S1299 N1300 1.613 . S
S1299 N1301 1.610 . S
N1300 S1299 1.613 . S
N1300 C1303 1.350 . S
N1301 S1299 1.610 . S
N1301 C1302 1.351 . S
C1302 C1296 1.428 . S
C1302 N1301 1.351 . S
C1302 C1303 1.434 . S
C1303 C1294 1.429 . S
C1303 N1300 1.350 . S
C1303 C1302 1.434 . S
C1304 C1305 1.369 . S
C1304 C1306 1.419 . S
C1304 H1308 0.930 . S
C1305 C1304 1.369 . S
C1305 C1314 1.429 . S
C1306 C1304 1.419 . S
C1306 C1307 1.363 . S
C1306 H1309 0.929 . S
C1307 C1306 1.363 . S
C1307 C1313 1.428 . S
H1308 C1304 0.930 . S
H1309 C1306 0.929 . S
S1310 N1311 1.613 . S
S1310 N1312 1.610 . S
N1311 S1310 1.613 . S
N1311 C1314 1.350 . S
N1312 S1310 1.610 . S
N1312 C1313 1.351 . S
C1313 C1307 1.428 . S
C1313 N1312 1.351 . S
C1313 C1314 1.434 . S
C1314 C1305 1.429 . S
C1314 N1311 1.350 . S
C1314 C1313 1.434 . S
C1315 C1316 1.369 . S
C1315 C1317 1.419 . S
C1315 H1319 0.930 . S
C1316 C1315 1.369 . S
C1316 C1325 1.429 . S
C1317 C1315 1.419 . S
C1317 C1318 1.363 . S
C1317 H1320 0.929 . S
C1318 C1317 1.363 . S
C1318 C1324 1.428 . S
H1319 C1315 0.930 . S
H1320 C1317 0.929 . S
S1321 N1322 1.613 . S
S1321 N1323 1.610 . S
N1322 S1321 1.613 . S
N1322 C1325 1.350 . S
N1323 S1321 1.610 . S
N1323 C1324 1.351 . S
C1324 C1318 1.428 . S
C1324 N1323 1.351 . S
C1324 C1325 1.434 . S
C1325 C1316 1.429 . S
C1325 N1322 1.350 . S
C1325 C1324 1.434 . S
C1326 C1327 1.369 . S
C1326 C1328 1.419 . S
C1326 H1330 0.930 . S
C1327 C1326 1.369 . S
C1327 C1336 1.429 . S
C1328 C1326 1.419 . S
C1328 C1329 1.363 . S
C1328 H1331 0.929 . S
C1329 C1328 1.363 . S
C1329 C1335 1.428 . S
H1330 C1326 0.930 . S
H1331 C1328 0.929 . S
S1332 N1333 1.613 . S
S1332 N1334 1.610 . S
N1333 S1332 1.613 . S
N1333 C1336 1.350 . S
N1334 S1332 1.610 . S
N1334 C1335 1.351 . S
C1335 C1329 1.428 . S
C1335 N1334 1.351 . S
C1335 C1336 1.434 . S
C1336 C1327 1.429 . S
C1336 N1333 1.350 . S
C1336 C1335 1.434 . S
C1337 C1338 1.369 . S
C1337 C1339 1.419 . S
C1337 H1341 0.930 . S
C1338 C1337 1.369 . S
C1338 C1347 1.429 . S
C1339 C1337 1.419 . S
C1339 C1340 1.363 . S
C1339 H1342 0.929 . S
C1340 C1339 1.363 . S
C1340 C1346 1.428 . S
H1341 C1337 0.930 . S
H1342 C1339 0.929 . S
S1343 N1344 1.613 . S
S1343 N1345 1.610 . S
N1344 S1343 1.613 . S
N1344 C1347 1.350 . S
N1345 S1343 1.610 . S
N1345 C1346 1.351 . S
C1346 C1340 1.428 . S
C1346 N1345 1.351 . S
C1346 C1347 1.434 . S
C1347 C1338 1.429 . S
C1347 N1344 1.350 . S
C1347 C1346 1.434 . S
C1348 C1349 1.369 . S
C1348 C1350 1.419 . S
C1348 H1352 0.930 . S
C1349 C1348 1.369 . S
C1349 C1358 1.429 . S
C1350 C1348 1.419 . S
C1350 C1351 1.363 . S
C1350 H1353 0.929 . S
C1351 C1350 1.363 . S
C1351 C1357 1.428 . S
H1352 C1348 0.930 . S
H1353 C1350 0.929 . S
S1354 N1355 1.613 . S
S1354 N1356 1.610 . S
N1355 S1354 1.613 . S
N1355 C1358 1.350 . S
N1356 S1354 1.610 . S
N1356 C1357 1.351 . S
C1357 C1351 1.428 . S
C1357 N1356 1.351 . S
C1357 C1358 1.434 . S
C1358 C1349 1.429 . S
C1358 N1355 1.350 . S
C1358 C1357 1.434 . S
C1359 C1360 1.369 . S
C1359 C1361 1.419 . S
C1359 H1363 0.930 . S
C1360 C1359 1.369 . S
C1360 C1369 1.429 . S
C1361 C1359 1.419 . S
C1361 C1362 1.363 . S
C1361 H1364 0.929 . S
C1362 C1361 1.363 . S
C1362 C1368 1.428 . S
H1363 C1359 0.930 . S
H1364 C1361 0.929 . S
S1365 N1366 1.613 . S
S1365 N1367 1.610 . S
N1366 S1365 1.613 . S
N1366 C1369 1.350 . S
N1367 S1365 1.610 . S
N1367 C1368 1.351 . S
C1368 C1362 1.428 . S
C1368 N1367 1.351 . S
C1368 C1369 1.434 . S
C1369 C1360 1.429 . S
C1369 N1366 1.350 . S
C1369 C1368 1.434 . S
C1370 C1371 1.369 . S
C1370 C1372 1.419 . S
C1370 H1374 0.930 . S
C1371 C1370 1.369 . S
C1371 C1380 1.429 . S
C1372 C1370 1.419 . S
C1372 C1373 1.363 . S
C1372 H1375 0.929 . S
C1373 C1372 1.363 . S
C1373 C1379 1.428 . S
H1374 C1370 0.930 . S
H1375 C1372 0.929 . S
S1376 N1377 1.613 . S
S1376 N1378 1.610 . S
N1377 S1376 1.613 . S
N1377 C1380 1.350 . S
N1378 S1376 1.610 . S
N1378 C1379 1.351 . S
C1379 C1373 1.428 . S
C1379 N1378 1.351 . S
C1379 C1380 1.434 . S
C1380 C1371 1.429 . S
C1380 N1377 1.350 . S
C1380 C1379 1.434 . S
C1381 C1382 1.369 . S
C1381 C1383 1.419 . S
C1381 H1385 0.930 . S
C1382 C1381 1.369 . S
C1382 C1391 1.429 . S
C1383 C1381 1.419 . S
C1383 C1384 1.363 . S
C1383 H1386 0.929 . S
C1384 C1383 1.363 . S
C1384 C1390 1.428 . S
H1385 C1381 0.930 . S
H1386 C1383 0.929 . S
S1387 N1388 1.613 . S
S1387 N1389 1.610 . S
N1388 S1387 1.613 . S
N1388 C1391 1.350 . S
N1389 S1387 1.610 . S
N1389 C1390 1.351 . S
C1390 C1384 1.428 . S
C1390 N1389 1.351 . S
C1390 C1391 1.434 . S
C1391 C1382 1.429 . S
C1391 N1388 1.350 . S
C1391 C1390 1.434 . S
C1392 C1393 1.369 . S
C1392 C1394 1.419 . S
C1392 H1396 0.930 . S
C1393 C1392 1.369 . S
C1393 C1402 1.429 . S
C1394 C1392 1.419 . S
C1394 C1395 1.363 . S
C1394 H1397 0.929 . S
C1395 C1394 1.363 . S
C1395 C1401 1.428 . S
H1396 C1392 0.930 . S
H1397 C1394 0.929 . S
S1398 N1399 1.613 . S
S1398 N1400 1.610 . S
N1399 S1398 1.613 . S
N1399 C1402 1.350 . S
N1400 S1398 1.610 . S
N1400 C1401 1.351 . S
C1401 C1395 1.428 . S
C1401 N1400 1.351 . S
C1401 C1402 1.434 . S
C1402 C1393 1.429 . S
C1402 N1399 1.350 . S
C1402 C1401 1.434 . S
C1403 C1404 1.369 . S
C1403 C1405 1.419 . S
C1403 H1407 0.930 . S
C1404 C1403 1.369 . S
C1404 C1413 1.429 . S
C1405 C1403 1.419 . S
C1405 C1406 1.363 . S
C1405 H1408 0.929 . S
C1406 C1405 1.363 . S
C1406 C1412 1.428 . S
H1407 C1403 0.930 . S
H1408 C1405 0.929 . S
S1409 N1410 1.613 . S
S1409 N1411 1.610 . S
N1410 S1409 1.613 . S
N1410 C1413 1.350 . S
N1411 S1409 1.610 . S
N1411 C1412 1.351 . S
C1412 C1406 1.428 . S
C1412 N1411 1.351 . S
C1412 C1413 1.434 . S
C1413 C1404 1.429 . S
C1413 N1410 1.350 . S
C1413 C1412 1.434 . S
C1414 C1415 1.369 . S
C1414 C1416 1.419 . S
C1414 H1418 0.930 . S
C1415 C1414 1.369 . S
C1415 C1424 1.429 . S
C1416 C1414 1.419 . S
C1416 C1417 1.363 . S
C1416 H1419 0.929 . S
C1417 C1416 1.363 . S
C1417 C1423 1.428 . S
H1418 C1414 0.930 . S
H1419 C1416 0.929 . S
S1420 N1421 1.613 . S
S1420 N1422 1.610 . S
N1421 S1420 1.613 . S
N1421 C1424 1.350 . S
N1422 S1420 1.610 . S
N1422 C1423 1.351 . S
C1423 C1417 1.428 . S
C1423 N1422 1.351 . S
C1423 C1424 1.434 . S
C1424 C1415 1.429 . S
C1424 N1421 1.350 . S
C1424 C1423 1.434 . S
C1425 C1426 1.369 . S
C1425 C1427 1.419 . S
C1425 H1429 0.930 . S
C1426 C1425 1.369 . S
C1426 C1435 1.429 . S
C1427 C1425 1.419 . S
C1427 C1428 1.363 . S
C1427 H1430 0.929 . S
C1428 C1427 1.363 . S
C1428 C1434 1.428 . S
H1429 C1425 0.930 . S
H1430 C1427 0.929 . S
S1431 N1432 1.613 . S
S1431 N1433 1.610 . S
N1432 S1431 1.613 . S
N1432 C1435 1.350 . S
N1433 S1431 1.610 . S
N1433 C1434 1.351 . S
C1434 C1428 1.428 . S
C1434 N1433 1.351 . S
C1434 C1435 1.434 . S
C1435 C1426 1.429 . S
C1435 N1432 1.350 . S
C1435 C1434 1.434 . S
C1436 C1437 1.369 . S
C1436 C1438 1.419 . S
C1436 H1440 0.930 . S
C1437 C1436 1.369 . S
C1437 C1446 1.429 . S
C1438 C1436 1.419 . S
C1438 C1439 1.363 . S
C1438 H1441 0.929 . S
C1439 C1438 1.363 . S
C1439 C1445 1.428 . S
H1440 C1436 0.930 . S
H1441 C1438 0.929 . S
S1442 N1443 1.613 . S
S1442 N1444 1.610 . S
N1443 S1442 1.613 . S
N1443 C1446 1.350 . S
N1444 S1442 1.610 . S
N1444 C1445 1.351 . S
C1445 C1439 1.428 . S
C1445 N1444 1.351 . S
C1445 C1446 1.434 . S
C1446 C1437 1.429 . S
C1446 N1443 1.350 . S
C1446 C1445 1.434 . S
C1447 C1448 1.369 . S
C1447 C1449 1.419 . S
C1447 H1451 0.930 . S
C1448 C1447 1.369 . S
C1448 C1457 1.429 . S
C1449 C1447 1.419 . S
C1449 C1450 1.363 . S
C1449 H1452 0.929 . S
C1450 C1449 1.363 . S
C1450 C1456 1.428 . S
H1451 C1447 0.930 . S
H1452 C1449 0.929 . S
S1453 N1454 1.613 . S
S1453 N1455 1.610 . S
N1454 S1453 1.613 . S
N1454 C1457 1.350 . S
N1455 S1453 1.610 . S
N1455 C1456 1.351 . S
C1456 C1450 1.428 . S
C1456 N1455 1.351 . S
C1456 C1457 1.434 . S
C1457 C1448 1.429 . S
C1457 N1454 1.350 . S
C1457 C1456 1.434 . S
C1458 C1459 1.369 . S
C1458 C1460 1.419 . S
C1458 H1462 0.930 . S
C1459 C1458 1.369 . S
C1459 C1468 1.429 . S
C1460 C1458 1.419 . S
C1460 C1461 1.363 . S
C1460 H1463 0.929 . S
C1461 C1460 1.363 . S
C1461 C1467 1.428 . S
H1462 C1458 0.930 . S
H1463 C1460 0.929 . S
S1464 N1465 1.613 . S
S1464 N1466 1.610 . S
N1465 S1464 1.613 . S
N1465 C1468 1.350 . S
N1466 S1464 1.610 . S
N1466 C1467 1.351 . S
C1467 C1461 1.428 . S
C1467 N1466 1.351 . S
C1467 C1468 1.434 . S
C1468 C1459 1.429 . S
C1468 N1465 1.350 . S
C1468 C1467 1.434 . S
C1469 C1470 1.369 . S
C1469 C1471 1.419 . S
C1469 H1473 0.930 . S
C1470 C1469 1.369 . S
C1470 C1479 1.429 . S
C1471 C1469 1.419 . S
C1471 C1472 1.363 . S
C1471 H1474 0.929 . S
C1472 C1471 1.363 . S
C1472 C1478 1.428 . S
H1473 C1469 0.930 . S
H1474 C1471 0.929 . S
S1475 N1476 1.613 . S
S1475 N1477 1.610 . S
N1476 S1475 1.613 . S
N1476 C1479 1.350 . S
N1477 S1475 1.610 . S
N1477 C1478 1.351 . S
C1478 C1472 1.428 . S
C1478 N1477 1.351 . S
C1478 C1479 1.434 . S
C1479 C1470 1.429 . S
C1479 N1476 1.350 . S
C1479 C1478 1.434 . S
C1480 C1481 1.369 . S
C1480 C1482 1.419 . S
C1480 H1484 0.930 . S
C1481 C1480 1.369 . S
C1481 C1490 1.429 . S
C1482 C1480 1.419 . S
C1482 C1483 1.363 . S
C1482 H1485 0.929 . S
C1483 C1482 1.363 . S
C1483 C1489 1.428 . S
H1484 C1480 0.930 . S
H1485 C1482 0.929 . S
S1486 N1487 1.613 . S
S1486 N1488 1.610 . S
N1487 S1486 1.613 . S
N1487 C1490 1.350 . S
N1488 S1486 1.610 . S
N1488 C1489 1.351 . S
C1489 C1483 1.428 . S
C1489 N1488 1.351 . S
C1489 C1490 1.434 . S
C1490 C1481 1.429 . S
C1490 N1487 1.350 . S
C1490 C1489 1.434 . S
C1491 C1492 1.369 . S
C1491 C1493 1.419 . S
C1491 H1495 0.930 1_556 S
C1492 C1491 1.369 . S
C1492 C1501 1.429 . S
C1493 C1491 1.419 . S
C1493 C1494 1.363 . S
C1493 H1496 0.929 . S
C1494 C1493 1.363 . S
C1494 C1500 1.428 . S
H1495 C1491 0.930 1_554 S
H1496 C1493 0.929 . S
S1497 N1498 1.613 . S
S1497 N1499 1.610 . S
N1498 S1497 1.613 . S
N1498 C1501 1.350 . S
N1499 S1497 1.610 . S
N1499 C1500 1.351 . S
C1500 C1494 1.428 . S
C1500 N1499 1.351 . S
C1500 C1501 1.434 . S
C1501 C1492 1.429 . S
C1501 N1498 1.350 . S
C1501 C1500 1.434 . S
C1502 C1503 1.369 . S
C1502 C1504 1.419 . S
C1502 H1506 0.930 1_556 S
C1503 C1502 1.369 . S
C1503 C1512 1.429 . S
C1504 C1502 1.419 . S
C1504 C1505 1.363 . S
C1504 H1507 0.929 . S
C1505 C1504 1.363 . S
C1505 C1511 1.428 . S
H1506 C1502 0.930 1_554 S
H1507 C1504 0.929 . S
S1508 N1509 1.613 . S
S1508 N1510 1.610 . S
N1509 S1508 1.613 . S
N1509 C1512 1.350 . S
N1510 S1508 1.610 . S
N1510 C1511 1.351 . S
C1511 C1505 1.428 . S
C1511 N1510 1.351 . S
C1511 C1512 1.434 . S
C1512 C1503 1.429 . S
C1512 N1509 1.350 . S
C1512 C1511 1.434 . S
C1513 C1514 1.369 . S
C1513 C1515 1.419 . S
C1513 H1517 0.930 1_556 S
C1514 C1513 1.369 . S
C1514 C1523 1.429 . S
C1515 C1513 1.419 . S
C1515 C1516 1.363 . S
C1515 H1518 0.929 . S
C1516 C1515 1.363 . S
C1516 C1522 1.428 . S
H1517 C1513 0.930 1_554 S
H1518 C1515 0.929 . S
S1519 N1520 1.613 . S
S1519 N1521 1.610 . S
N1520 S1519 1.613 . S
N1520 C1523 1.350 . S
N1521 S1519 1.610 . S
N1521 C1522 1.351 . S
C1522 C1516 1.428 . S
C1522 N1521 1.351 . S
C1522 C1523 1.434 . S
C1523 C1514 1.429 . S
C1523 N1520 1.350 . S
C1523 C1522 1.434 . S
C1524 C1525 1.369 . S
C1524 C1526 1.419 . S
C1524 H1528 0.930 . S
C1525 C1524 1.369 . S
C1525 C1534 1.429 . S
C1526 C1524 1.419 . S
C1526 C1527 1.363 . S
C1526 H1529 0.929 . S
C1527 C1526 1.363 . S
C1527 C1533 1.428 . S
H1528 C1524 0.930 . S
H1529 C1526 0.929 . S
S1530 N1531 1.613 . S
S1530 N1532 1.610 1_554 S
N1531 S1530 1.613 . S
N1531 C1534 1.350 1_554 S
N1532 S1530 1.610 1_556 S
N1532 C1533 1.351 . S
C1533 C1527 1.428 . S
C1533 N1532 1.351 . S
C1533 C1534 1.434 . S
C1534 C1525 1.429 . S
C1534 N1531 1.350 1_556 S
C1534 C1533 1.434 . S
C1535 C1536 1.369 . S
C1535 C1537 1.419 . S
C1535 H1539 0.930 . S
C1536 C1535 1.369 . S
C1536 C1545 1.429 . S
C1537 C1535 1.419 . S
C1537 C1538 1.363 . S
C1537 H1540 0.929 . S
C1538 C1537 1.363 . S
C1538 C1544 1.428 . S
H1539 C1535 0.930 . S
H1540 C1537 0.929 . S
S1541 N1542 1.613 . S
S1541 N1543 1.610 . S
N1542 S1541 1.613 . S
N1542 C1545 1.350 . S
N1543 S1541 1.610 . S
N1543 C1544 1.351 . S
C1544 C1538 1.428 . S
C1544 N1543 1.351 . S
C1544 C1545 1.434 . S
C1545 C1536 1.429 . S
C1545 N1542 1.350 . S
C1545 C1544 1.434 . S
C1546 C1547 1.369 . S
C1546 C1548 1.419 . S
C1546 H1550 0.930 . S
C1547 C1546 1.369 . S
C1547 C1556 1.429 . S
C1548 C1546 1.419 . S
C1548 C1549 1.363 . S
C1548 H1551 0.929 . S
C1549 C1548 1.363 . S
C1549 C1555 1.428 . S
H1550 C1546 0.930 . S
H1551 C1548 0.929 . S
S1552 N1553 1.613 . S
S1552 N1554 1.610 1_554 S
N1553 S1552 1.613 . S
N1553 C1556 1.350 1_554 S
N1554 S1552 1.610 1_556 S
N1554 C1555 1.351 . S
C1555 C1549 1.428 . S
C1555 N1554 1.351 . S
C1555 C1556 1.434 . S
C1556 C1547 1.429 . S
C1556 N1553 1.350 1_556 S
C1556 C1555 1.434 . S
C1557 C1558 1.369 . S
C1557 C1559 1.419 . S
C1557 H1561 0.930 . S
C1558 C1557 1.369 . S
C1558 C1567 1.429 . S
C1559 C1557 1.419 . S
C1559 C1560 1.363 . S
C1559 H1562 0.929 . S
C1560 C1559 1.363 . S
C1560 C1566 1.428 . S
H1561 C1557 0.930 . S
H1562 C1559 0.929 . S
S1563 N1564 1.613 . S
S1563 N1565 1.610 . S
N1564 S1563 1.613 . S
N1564 C1567 1.350 . S
N1565 S1563 1.610 . S
N1565 C1566 1.351 . S
C1566 C1560 1.428 . S
C1566 N1565 1.351 . S
C1566 C1567 1.434 . S
C1567 C1558 1.429 . S
C1567 N1564 1.350 . S
C1567 C1566 1.434 . S
C1568 C1569 1.369 . S
C1568 C1570 1.419 . S
C1568 H1572 0.930 . S
C1569 C1568 1.369 . S
C1569 C1578 1.429 . S
C1570 C1568 1.419 . S
C1570 C1571 1.363 . S
C1570 H1573 0.929 . S
C1571 C1570 1.363 . S
C1571 C1577 1.428 . S
H1572 C1568 0.930 . S
H1573 C1570 0.929 . S
S1574 N1575 1.612 1_556 S
S1574 N1576 1.607 1_556 S
N1575 S1574 1.612 1_554 S
N1575 C1578 1.350 . S
N1576 S1574 1.607 1_554 S
N1576 C1577 1.351 . S
C1577 C1571 1.428 . S
C1577 N1576 1.351 . S
C1577 C1578 1.434 . S
C1578 C1569 1.429 . S
C1578 N1575 1.350 . S
C1578 C1577 1.434 . S
C1579 C1580 1.369 . S
C1579 C1581 1.419 . S
C1579 H1583 0.930 . S
C1580 C1579 1.369 . S
C1580 C1589 1.429 . S
C1581 C1579 1.419 . S
C1581 C1582 1.363 . S
C1581 H1584 0.929 . S
C1582 C1581 1.363 . S
C1582 C1588 1.428 . S
H1583 C1579 0.930 . S
H1584 C1581 0.929 . S
S1585 N1586 1.613 . S
S1585 N1587 1.610 . S
N1586 S1585 1.613 . S
N1586 C1589 1.350 . S
N1587 S1585 1.610 . S
N1587 C1588 1.351 . S
C1588 C1582 1.428 . S
C1588 N1587 1.351 . S
C1588 C1589 1.434 . S
C1589 C1580 1.429 . S
C1589 N1586 1.350 . S
C1589 C1588 1.434 . S
C1590 C1591 1.369 . S
C1590 C1592 1.419 . S
C1590 H1594 0.930 . S
C1591 C1590 1.369 . S
C1591 C1600 1.429 . S
C1592 C1590 1.419 . S
C1592 C1593 1.363 . S
C1592 H1595 0.929 . S
C1593 C1592 1.363 . S
C1593 C1599 1.428 . S
H1594 C1590 0.930 . S
H1595 C1592 0.929 . S
S1596 N1597 1.613 . S
S1596 N1598 1.610 . S
N1597 S1596 1.613 . S
N1597 C1600 1.350 . S
N1598 S1596 1.610 . S
N1598 C1599 1.351 . S
C1599 C1593 1.428 . S
C1599 N1598 1.351 . S
C1599 C1600 1.434 . S
C1600 C1591 1.429 . S
C1600 N1597 1.350 . S
C1600 C1599 1.434 . S
C1601 C1602 1.369 . S
C1601 C1603 1.419 . S
C1601 H1605 0.930 . S
C1602 C1601 1.369 . S
C1602 C1611 1.429 . S
C1603 C1601 1.419 . S
C1603 C1604 1.363 . S
C1603 H1606 0.929 . S
C1604 C1603 1.363 . S
C1604 C1610 1.428 . S
H1605 C1601 0.930 . S
H1606 C1603 0.929 . S
S1607 N1608 1.613 . S
S1607 N1609 1.610 . S
N1608 S1607 1.613 . S
N1608 C1611 1.350 . S
N1609 S1607 1.610 . S
N1609 C1610 1.351 . S
C1610 C1604 1.428 . S
C1610 N1609 1.351 . S
C1610 C1611 1.434 . S
C1611 C1602 1.429 . S
C1611 N1608 1.350 . S
C1611 C1610 1.434 . S
C1612 C1613 1.369 . S
C1612 C1614 1.419 . S
C1612 H1616 0.930 . S
C1613 C1612 1.369 . S
C1613 C1622 1.429 . S
C1614 C1612 1.419 . S
C1614 C1615 1.363 . S
C1614 H1617 0.929 . S
C1615 C1614 1.363 . S
C1615 C1621 1.428 . S
H1616 C1612 0.930 . S
H1617 C1614 0.929 . S
S1618 N1619 1.613 . S
S1618 N1620 1.610 . S
N1619 S1618 1.613 . S
N1619 C1622 1.350 . S
N1620 S1618 1.610 . S
N1620 C1621 1.351 . S
C1621 C1615 1.428 . S
C1621 N1620 1.351 . S
C1621 C1622 1.434 . S
C1622 C1613 1.429 . S
C1622 N1619 1.350 . S
C1622 C1621 1.434 . S
C1623 C1624 1.369 1_655 S
C1623 C1625 1.419 . S
C1623 H1627 0.930 . S
C1624 C1623 1.369 1_455 S
C1624 C1633 1.429 . S
C1625 C1623 1.419 . S
C1625 C1626 1.363 1_655 S
C1625 H1628 0.929 . S
C1626 C1625 1.363 1_455 S
C1626 C1632 1.428 . S
H1627 C1623 0.930 . S
H1628 C1625 0.929 . S
S1629 N1630 1.613 . S
S1629 N1631 1.610 . S
N1630 S1629 1.613 . S
N1630 C1633 1.350 . S
N1631 S1629 1.610 . S
N1631 C1632 1.351 . S
C1632 C1626 1.428 . S
C1632 N1631 1.351 . S
C1632 C1633 1.434 . S
C1633 C1624 1.429 . S
C1633 N1630 1.350 . S
C1633 C1632 1.434 . S
C1634 C1635 1.369 . S
C1634 C1636 1.419 . S
C1634 H1638 0.930 . S
C1635 C1634 1.369 . S
C1635 C1644 1.429 . S
C1636 C1634 1.419 . S
C1636 C1637 1.363 . S
C1636 H1639 0.929 . S
C1637 C1636 1.363 . S
C1637 C1643 1.428 . S
H1638 C1634 0.930 . S
H1639 C1636 0.929 . S
S1640 N1641 1.613 . S
S1640 N1642 1.610 . S
N1641 S1640 1.613 . S
N1641 C1644 1.350 . S
N1642 S1640 1.610 . S
N1642 C1643 1.351 . S
C1643 C1637 1.428 . S
C1643 N1642 1.351 . S
C1643 C1644 1.434 . S
C1644 C1635 1.429 . S
C1644 N1641 1.350 . S
C1644 C1643 1.434 . S
C1645 C1646 1.369 . S
C1645 C1647 1.419 . S
C1645 H1649 0.930 . S
C1646 C1645 1.369 . S
C1646 C1655 1.429 1_565 S
C1647 C1645 1.419 . S
C1647 C1648 1.363 . S
C1647 H1650 0.929 . S
C1648 C1647 1.363 . S
C1648 C1654 1.428 1_565 S
H1649 C1645 0.930 . S
H1650 C1647 0.929 . S
S1651 N1652 1.613 . S
S1651 N1653 1.610 . S
N1652 S1651 1.613 . S
N1652 C1655 1.350 . S
N1653 S1651 1.610 . S
N1653 C1654 1.351 . S
C1654 C1648 1.428 1_545 S
C1654 N1653 1.351 . S
C1654 C1655 1.434 . S
C1655 C1646 1.429 1_545 S
C1655 N1652 1.350 . S
C1655 C1654 1.434 . S
C1656 C1657 1.369 . S
C1656 C1658 1.419 . S
C1656 H1660 0.930 . S
C1657 C1656 1.369 . S
C1657 C1666 1.429 1_565 S
C1658 C1656 1.419 . S
C1658 C1659 1.363 . S
C1658 H1661 0.929 . S
C1659 C1658 1.363 . S
C1659 C1665 1.428 1_565 S
H1660 C1656 0.930 . S
H1661 C1658 0.929 . S
S1662 N1663 1.613 . S
S1662 N1664 1.610 . S
N1663 S1662 1.613 . S
N1663 C1666 1.350 . S
N1664 S1662 1.610 . S
N1664 C1665 1.351 . S
C1665 C1659 1.428 1_545 S
C1665 N1664 1.351 . S
C1665 C1666 1.434 . S
C1666 C1657 1.429 1_545 S
C1666 N1663 1.350 . S
C1666 C1665 1.434 . S
C1667 C1668 1.364 . S
C1667 C1669 1.434 1_455 S
C1667 H1671 0.922 1_455 S
C1668 C1667 1.364 . S
C1668 C1677 1.429 . S
C1669 C1667 1.434 1_655 S
C1669 C1670 1.363 1_655 S
C1669 H1672 0.929 . S
C1670 C1669 1.363 1_455 S
C1670 C1676 1.428 . S
H1671 C1667 0.922 1_655 S
H1672 C1669 0.929 . S
S1673 N1674 1.613 . S
S1673 N1675 1.610 . S
N1674 S1673 1.613 . S
N1674 C1677 1.350 . S
N1675 S1673 1.610 . S
N1675 C1676 1.351 . S
C1676 C1670 1.428 . S
C1676 N1675 1.351 . S
C1676 C1677 1.434 . S
C1677 C1668 1.429 . S
C1677 N1674 1.350 . S
C1677 C1676 1.434 . S
C1678 C1679 1.369 . S
C1678 C1680 1.419 . S
C1678 H1682 0.930 . S
C1679 C1678 1.369 . S
C1679 C1688 1.429 . S
C1680 C1678 1.419 . S
C1680 C1681 1.363 . S
C1680 H1683 0.929 . S
C1681 C1680 1.363 . S
C1681 C1687 1.428 . S
H1682 C1678 0.930 . S
H1683 C1680 0.929 . S
S1684 N1685 1.613 . S
S1684 N1686 1.610 . S
N1685 S1684 1.613 . S
N1685 C1688 1.350 . S
N1686 S1684 1.610 . S
N1686 C1687 1.351 . S
C1687 C1681 1.428 . S
C1687 N1686 1.351 . S
C1687 C1688 1.434 . S
C1688 C1679 1.429 . S
C1688 N1685 1.350 . S
C1688 C1687 1.434 . S
C1689 C1690 1.369 . S
C1689 C1691 1.419 . S
C1689 H1693 0.930 . S
C1690 C1689 1.369 . S
C1690 C1699 1.429 . S
C1691 C1689 1.419 . S
C1691 C1692 1.363 . S
C1691 H1694 0.929 . S
C1692 C1691 1.363 . S
C1692 C1698 1.428 . S
H1693 C1689 0.930 . S
H1694 C1691 0.929 . S
S1695 N1696 1.613 . S
S1695 N1697 1.610 . S
N1696 S1695 1.613 . S
N1696 C1699 1.350 . S
N1697 S1695 1.610 . S
N1697 C1698 1.351 . S
C1698 C1692 1.428 . S
C1698 N1697 1.351 . S
C1698 C1699 1.434 . S
C1699 C1690 1.429 . S
C1699 N1696 1.350 . S
C1699 C1698 1.434 . S
C1700 C1701 1.369 . S
C1700 C1702 1.419 . S
C1700 H1704 0.930 . S
C1701 C1700 1.369 . S
C1701 C1710 1.429 . S
C1702 C1700 1.419 . S
C1702 C1703 1.363 . S
C1702 H1705 0.929 . S
C1703 C1702 1.363 . S
C1703 C1709 1.428 . S
H1704 C1700 0.930 . S
H1705 C1702 0.929 . S
S1706 N1707 1.613 . S
S1706 N1708 1.610 . S
N1707 S1706 1.613 . S
N1707 C1710 1.350 . S
N1708 S1706 1.610 . S
N1708 C1709 1.351 . S
C1709 C1703 1.428 . S
C1709 N1708 1.351 . S
C1709 C1710 1.434 . S
C1710 C1701 1.429 . S
C1710 N1707 1.350 . S
C1710 C1709 1.434 . S
C1711 C1712 1.369 . S
C1711 C1713 1.419 . S
C1711 H1715 0.930 . S
C1712 C1711 1.369 . S
C1712 C1721 1.429 . S
C1713 C1711 1.419 . S
C1713 C1714 1.363 . S
C1713 H1716 0.929 . S
C1714 C1713 1.363 . S
C1714 C1720 1.428 . S
H1715 C1711 0.930 . S
H1716 C1713 0.929 . S
S1717 N1718 1.613 . S
S1717 N1719 1.610 . S
N1718 S1717 1.613 . S
N1718 C1721 1.350 . S
N1719 S1717 1.610 . S
N1719 C1720 1.351 . S
C1720 C1714 1.428 . S
C1720 N1719 1.351 . S
C1720 C1721 1.434 . S
C1721 C1712 1.429 . S
C1721 N1718 1.350 . S
C1721 C1720 1.434 . S
C1722 C1723 1.369 . S
C1722 C1724 1.419 . S
C1722 H1726 0.930 . S
C1723 C1722 1.369 . S
C1723 C1732 1.429 1_545 S
C1724 C1722 1.419 . S
C1724 C1725 1.363 . S
C1724 H1727 0.929 . S
C1725 C1724 1.363 . S
C1725 C1731 1.428 1_545 S
H1726 C1722 0.930 . S
H1727 C1724 0.929 . S
S1728 N1729 1.613 . S
S1728 N1730 1.610 . S
N1729 S1728 1.613 . S
N1729 C1732 1.350 . S
N1730 S1728 1.610 . S
N1730 C1731 1.351 . S
C1731 C1725 1.428 1_565 S
C1731 N1730 1.351 . S
C1731 C1732 1.434 . S
C1732 C1723 1.429 1_565 S
C1732 N1729 1.350 . S
C1732 C1731 1.434 . S
C1733 C1734 1.369 1_455 S
C1733 C1735 1.419 . S
C1733 H1737 0.930 . S
C1734 C1733 1.369 1_655 S
C1734 C1743 1.429 . S
C1735 C1733 1.419 . S
C1735 C1736 1.363 1_455 S
C1735 H1738 0.929 . S
C1736 C1735 1.363 1_655 S
C1736 C1742 1.428 . S
H1737 C1733 0.930 . S
H1738 C1735 0.929 . S
S1739 N1740 1.613 . S
S1739 N1741 1.610 . S
N1740 S1739 1.613 . S
N1740 C1743 1.350 . S
N1741 S1739 1.610 . S
N1741 C1742 1.351 . S
C1742 C1736 1.428 . S
C1742 N1741 1.351 . S
C1742 C1743 1.434 . S
C1743 C1734 1.429 . S
C1743 N1740 1.350 . S
C1743 C1742 1.434 . S
C1744 C1745 1.369 . S
C1744 C1746 1.419 . S
C1744 H1748 0.930 . S
C1745 C1744 1.369 . S
C1745 C1754 1.429 . S
C1746 C1744 1.419 . S
C1746 C1747 1.363 . S
C1746 H1749 0.929 . S
C1747 C1746 1.363 . S
C1747 C1753 1.428 . S
H1748 C1744 0.930 . S
H1749 C1746 0.929 . S
S1750 N1751 1.613 . S
S1750 N1752 1.610 . S
N1751 S1750 1.613 . S
N1751 C1754 1.350 . S
N1752 S1750 1.610 . S
N1752 C1753 1.351 . S
C1753 C1747 1.428 . S
C1753 N1752 1.351 . S
C1753 C1754 1.434 . S
C1754 C1745 1.429 . S
C1754 N1751 1.350 . S
C1754 C1753 1.434 . S
C1755 C1756 1.369 . S
C1755 C1757 1.419 . S
C1755 H1759 0.930 . S
C1756 C1755 1.369 . S
C1756 C1765 1.429 . S
C1757 C1755 1.419 . S
C1757 C1758 1.363 . S
C1757 H1760 0.929 . S
C1758 C1757 1.363 . S
C1758 C1764 1.428 . S
H1759 C1755 0.930 . S
H1760 C1757 0.929 . S
S1761 N1762 1.613 . S
S1761 N1763 1.610 . S
N1762 S1761 1.613 . S
N1762 C1765 1.350 . S
N1763 S1761 1.610 . S
N1763 C1764 1.351 . S
C1764 C1758 1.428 . S
C1764 N1763 1.351 . S
C1764 C1765 1.434 . S
C1765 C1756 1.429 . S
C1765 N1762 1.350 . S
C1765 C1764 1.434 . S
C1766 C1767 1.369 . S
C1766 C1768 1.419 . S
C1766 H1770 0.930 . S
C1767 C1766 1.369 . S
C1767 C1776 1.429 . S
C1768 C1766 1.419 . S
C1768 C1769 1.363 . S
C1768 H1771 0.929 . S
C1769 C1768 1.363 . S
C1769 C1775 1.428 . S
H1770 C1766 0.930 . S
H1771 C1768 0.929 . S
S1772 N1773 1.613 . S
S1772 N1774 1.610 . S
N1773 S1772 1.613 . S
N1773 C1776 1.350 . S
N1774 S1772 1.610 . S
N1774 C1775 1.351 . S
C1775 C1769 1.428 . S
C1775 N1774 1.351 . S
C1775 C1776 1.434 . S
C1776 C1767 1.429 . S
C1776 N1773 1.350 . S
C1776 C1775 1.434 . S
C1777 C1778 1.369 . S
C1777 C1779 1.419 . S
C1777 H1781 0.930 . S
C1778 C1777 1.369 . S
C1778 C1787 1.429 . S
C1779 C1777 1.419 . S
C1779 C1780 1.363 . S
C1779 H1782 0.929 . S
C1780 C1779 1.363 . S
C1780 C1786 1.428 . S
H1781 C1777 0.930 . S
H1782 C1779 0.929 . S
S1783 N1784 1.613 . S
S1783 N1785 1.610 . S
N1784 S1783 1.613 . S
N1784 C1787 1.350 . S
N1785 S1783 1.610 . S
N1785 C1786 1.351 . S
C1786 C1780 1.428 . S
C1786 N1785 1.351 . S
C1786 C1787 1.434 . S
C1787 C1778 1.429 . S
C1787 N1784 1.350 . S
C1787 C1786 1.434 . S
C1788 C1789 1.369 . S
C1788 C1790 1.419 . S
C1788 H1792 0.930 . S
C1789 C1788 1.369 . S
C1789 C1798 1.429 . S
C1790 C1788 1.419 . S
C1790 C1791 1.363 . S
C1790 H1793 0.929 . S
C1791 C1790 1.363 . S
C1791 C1797 1.428 . S
H1792 C1788 0.930 . S
H1793 C1790 0.929 . S
S1794 N1795 1.613 . S
S1794 N1796 1.610 . S
N1795 S1794 1.613 . S
N1795 C1798 1.350 . S
N1796 S1794 1.610 . S
N1796 C1797 1.351 . S
C1797 C1791 1.428 . S
C1797 N1796 1.351 . S
C1797 C1798 1.434 . S
C1798 C1789 1.429 . S
C1798 N1795 1.350 . S
C1798 C1797 1.434 . S
C1799 C1800 1.369 . S
C1799 C1801 1.419 . S
C1799 H1803 0.930 . S
C1800 C1799 1.369 . S
C1800 C1809 1.429 . S
C1801 C1799 1.419 . S
C1801 C1802 1.363 . S
C1801 H1804 0.929 . S
C1802 C1801 1.363 . S
C1802 C1808 1.428 . S
H1803 C1799 0.930 . S
H1804 C1801 0.929 . S
S1805 N1806 1.613 . S
S1805 N1807 1.610 . S
N1806 S1805 1.613 . S
N1806 C1809 1.350 . S
N1807 S1805 1.610 . S
N1807 C1808 1.351 . S
C1808 C1802 1.428 . S
C1808 N1807 1.351 . S
C1808 C1809 1.434 . S
C1809 C1800 1.429 . S
C1809 N1806 1.350 . S
C1809 C1808 1.434 . S
C1810 C1811 1.369 . S
C1810 C1812 1.419 . S
C1810 H1814 0.930 . S
C1811 C1810 1.369 . S
C1811 C1820 1.429 . S
C1812 C1810 1.419 . S
C1812 C1813 1.363 . S
C1812 H1815 0.929 . S
C1813 C1812 1.363 . S
C1813 C1819 1.428 . S
H1814 C1810 0.930 . S
H1815 C1812 0.929 . S
S1816 N1817 1.613 . S
S1816 N1818 1.610 . S
N1817 S1816 1.613 . S
N1817 C1820 1.350 . S
N1818 S1816 1.610 . S
N1818 C1819 1.351 . S
C1819 C1813 1.428 . S
C1819 N1818 1.351 . S
C1819 C1820 1.434 . S
C1820 C1811 1.429 . S
C1820 N1817 1.350 . S
C1820 C1819 1.434 . S
C1821 C1822 1.369 . S
C1821 C1823 1.419 . S
C1821 H1825 0.930 . S
C1822 C1821 1.369 . S
C1822 C1831 1.429 . S
C1823 C1821 1.419 . S
C1823 C1824 1.363 . S
C1823 H1826 0.929 . S
C1824 C1823 1.363 . S
C1824 C1830 1.428 . S
H1825 C1821 0.930 . S
H1826 C1823 0.929 . S
S1827 N1828 1.613 . S
S1827 N1829 1.610 . S
N1828 S1827 1.613 . S
N1828 C1831 1.350 . S
N1829 S1827 1.610 . S
N1829 C1830 1.351 . S
C1830 C1824 1.428 . S
C1830 N1829 1.351 . S
C1830 C1831 1.434 . S
C1831 C1822 1.429 . S
C1831 N1828 1.350 . S
C1831 C1830 1.434 . S
C1832 C1833 1.369 . S
C1832 C1834 1.419 . S
C1832 H1836 0.930 . S
C1833 C1832 1.369 . S
C1833 C1842 1.429 . S
C1834 C1832 1.419 . S
C1834 C1835 1.363 . S
C1834 H1837 0.929 . S
C1835 C1834 1.363 . S
C1835 C1841 1.428 . S
H1836 C1832 0.930 . S
H1837 C1834 0.929 . S
S1838 N1839 1.613 . S
S1838 N1840 1.610 . S
N1839 S1838 1.613 . S
N1839 C1842 1.350 . S
N1840 S1838 1.610 . S
N1840 C1841 1.351 . S
C1841 C1835 1.428 . S
C1841 N1840 1.351 . S
C1841 C1842 1.434 . S
C1842 C1833 1.429 . S
C1842 N1839 1.350 . S
C1842 C1841 1.434 . S
C1843 C1844 1.369 . S
C1843 C1845 1.419 . S
C1843 H1847 0.930 . S
C1844 C1843 1.369 . S
C1844 C1853 1.429 1_545 S
C1845 C1843 1.419 . S
C1845 C1846 1.363 . S
C1845 H1848 0.929 . S
C1846 C1845 1.363 . S
C1846 C1852 1.428 1_545 S
H1847 C1843 0.930 . S
H1848 C1845 0.929 . S
S1849 N1850 1.613 . S
S1849 N1851 1.610 . S
N1850 S1849 1.613 . S
N1850 C1853 1.350 . S
N1851 S1849 1.610 . S
N1851 C1852 1.351 . S
C1852 C1846 1.428 1_565 S
C1852 N1851 1.351 . S
C1852 C1853 1.434 . S
C1853 C1844 1.429 1_565 S
C1853 N1850 1.350 . S
C1853 C1852 1.434 . S
C1063 C8 1.421 . S
C1065 C670 1.496 . S
C1074 C18 1.506 . S
C1076 C716 1.531 . S
C1087 C748 1.522 . S
C1085 C31 1.420 . S
C1096 C34 1.418 . S
C1098 C801 1.499 . S
C1107 C5 1.415 . S
C1109 C847 1.516 . S
C1118 C21 1.528 . S
C1120 C886 1.560 . S
C1129 C47 1.408 . S
C1131 C840 1.495 . S
C1142 C893 1.535 . S
C1140 C57 1.499 . S
C1153 C794 1.526 . S
C1151 C70 1.431 . S
C1162 C73 1.402 . S
C1164 C755 1.492 . S
C1175 C649 1.517 . S
C1173 C44 1.421 . S
C1184 C60 1.519 . S
C1186 C695 1.543 . S
C1195 C86 1.599 . S
C1197 C925 1.622 . S
C1206 C96 1.575 . S
C1208 C992 1.570 . S
C1219 C1038 1.608 . S
C1217 C109 1.625 . S
C1228 C112 1.604 . S
C1230 C249 1.612 . S
C1239 C83 1.620 . S
C1241 C295 1.618 . S
C1250 C99 1.591 . S
C1252 C341 1.594 . S
C1261 C125 1.526 . S
C1263 C288 1.542 . S
C1272 C135 1.565 . S
C1274 C334 1.571 . S
C1285 C242 1.613 . S
C1283 C148 1.615 . S
C1296 C1017 1.672 . S
C1294 C151 1.672 . S
C1307 C946 1.606 . S
C1305 C122 1.611 . S
C1318 C971 1.617 . S
C1316 C138 1.617 . S
C1327 C164 1.527 . S
C1329 C373 1.557 . S
C1338 C174 1.551 . S
C1340 C426 1.573 . S
C1349 C187 1.608 . S
C1351 C472 1.620 . S
C1360 C190 1.673 . S
C1362 C518 1.690 . S
C1373 C571 1.607 . S
C1371 C161 1.625 . S
C1384 C617 1.618 . S
C1382 C177 1.617 . S
C1395 C564 1.619 . S
C1393 C203 1.609 . S
C1406 C610 1.579 . S
C1404 C213 1.582 . S
C1415 C226 1.620 . S
C1417 C525 1.616 . S
C1428 C479 1.622 . S
C1426 C229 1.603 . S
C1437 C200 1.611 . S
C1439 C394 1.623 . S
C1450 C433 1.610 . S
C1448 C216 1.599 . S
C1461 C256 1.589 . S
C1459 C0 1.503 . S
C1470 C23 1.548 . S
C1472 C302 1.503 . S
C1483 C348 1.594 . S
C1481 C36 1.626 . S
C1494 C380 1.595 . S
C1492 C26 1.526 . S
C1505 C419 1.550 . S
C1503 C10 1.616 . S
C1516 C465 1.515 . S
C1514 C13 1.472 . S
C1525 C39 1.501 . S
C1527 C486 1.577 . S
C1536 C62 1.535 . S
C1538 C387 1.473 . S
C1547 C75 1.609 . S
C1549 C440 1.563 . S
C1558 C65 1.540 . S
C1560 C281 1.631 . S
C1571 C327 1.583 . S
C1569 C49 1.620 . S
C1580 C52 1.465 . S
C1582 C235 1.543 . S
C1593 C511 1.522 . S
C1591 C78 1.470 . S
C1602 C101 1.614 . S
C1604 C578 1.576 . S
C1613 C114 1.619 . S
C1615 C624 1.583 . S
C1626 C663 1.350 . S
C1624 C104 1.323 . S
C1635 C88 1.526 . S
C1637 C709 1.496 . S
C1646 C91 1.261 . S
C1648 C741 1.278 . S
C1657 C117 1.287 . S
C1659 C762 1.305 . S
C1668 C140 1.310 . S
C1670 C656 1.309 . S
C1681 C702 1.511 . S
C1679 C153 1.530 . S
C1690 C143 1.501 . S
C1692 C557 1.562 . S
C1701 C127 1.622 . S
C1703 C603 1.578 . S
C1714 C532 1.570 . S
C1712 C130 1.552 . S
C1725 C808 1.325 . S
C1723 C156 1.292 . S
C1734 C179 1.303 . S
C1736 C854 1.305 . S
C1745 C192 1.530 . S
C1747 C879 1.488 . S
C1758 C932 1.531 . S
C1756 C182 1.472 . S
C1769 C985 1.584 . S
C1767 C166 1.620 . S
C1778 C169 1.545 . S
C1780 C1031 1.597 . S
C1789 C195 1.485 . S
C1791 C1024 1.545 . S
C1800 C218 1.610 . S
C1802 C939 1.549 . S
C1813 C978 1.570 . S
C1811 C231 1.598 . S
C1824 C833 1.339 . S
C1822 C221 1.310 . S
C1835 C900 1.488 . S
C1833 C205 1.532 . S
C1844 C208 1.267 . S
C1846 C787 1.300 . S
