# Generated by pormake.
# Topology pyr, (3,6)-cn, num edge types: 1
# Building blocks:
#     Node 0, Type 0, BuildingBlock: MIDCAF_clean_linker_0, # of connection points: 3
#     Node 1, Type 0, BuildingBlock: MIDCAF_clean_linker_0, # of connection points: 3
#     Node 2, Type 0, BuildingBlock: MIDCAF_clean_linker_0, # of connection points: 3
#     Node 3, Type 0, BuildingBlock: MIDCAF_clean_linker_0, # of connection points: 3
#     Node 4, Type 0, BuildingBlock: MIDCAF_clean_linker_0, # of connection points: 3
#     Node 5, Type 0, BuildingBlock: MIDCAF_clean_linker_0, # of connection points: 3
#     Node 6, Type 0, BuildingBlock: MIDCAF_clean_linker_0, # of connection points: 3
#     Node 7, Type 0, BuildingBlock: MIDCAF_clean_linker_0, # of connection points: 3
#     Node 8, Type 1, BuildingBlock: MIFKUJ_clean_sbu_0, # of connection points: 6
#     Node 9, Type 1, BuildingBlock: MIFKUJ_clean_sbu_0, # of connection points: 6
#     Node 10, Type 1, BuildingBlock: MIFKUJ_clean_sbu_0, # of connection points: 6
#     Node 11, Type 1, BuildingBlock: MIFKUJ_clean_sbu_0, # of connection points: 6
#     Edge 12, Type (0, 1), BuildingBlock: XUDNAN_clean_linker_2, # of connection points: 2
#     Edge 13, Type (0, 1), BuildingBlock: XUDNAN_clean_linker_2, # of connection points: 2
#     Edge 14, Type (0, 1), BuildingBlock: XUDNAN_clean_linker_2, # of connection points: 2
#     Edge 15, Type (0, 1), BuildingBlock: XUDNAN_clean_linker_2, # of connection points: 2
#     Edge 16, Type (0, 1), BuildingBlock: XUDNAN_clean_linker_2, # of connection points: 2
#     Edge 17, Type (0, 1), BuildingBlock: XUDNAN_clean_linker_2, # of connection points: 2
#     Edge 18, Type (0, 1), BuildingBlock: XUDNAN_clean_linker_2, # of connection points: 2
#     Edge 19, Type (0, 1), BuildingBlock: XUDNAN_clean_linker_2, # of connection points: 2
#     Edge 20, Type (0, 1), BuildingBlock: XUDNAN_clean_linker_2, # of connection points: 2
#     Edge 21, Type (0, 1), BuildingBlock: XUDNAN_clean_linker_2, # of connection points: 2
#     Edge 22, Type (0, 1), BuildingBlock: XUDNAN_clean_linker_2, # of connection points: 2
#     Edge 23, Type (0, 1), BuildingBlock: XUDNAN_clean_linker_2, # of connection points: 2
#     Edge 24, Type (0, 1), BuildingBlock: XUDNAN_clean_linker_2, # of connection points: 2
#     Edge 25, Type (0, 1), BuildingBlock: XUDNAN_clean_linker_2, # of connection points: 2
#     Edge 26, Type (0, 1), BuildingBlock: XUDNAN_clean_linker_2, # of connection points: 2
#     Edge 27, Type (0, 1), BuildingBlock: XUDNAN_clean_linker_2, # of connection points: 2
#     Edge 28, Type (0, 1), BuildingBlock: XUDNAN_clean_linker_2, # of connection points: 2
#     Edge 29, Type (0, 1), BuildingBlock: XUDNAN_clean_linker_2, # of connection points: 2
#     Edge 30, Type (0, 1), BuildingBlock: XUDNAN_clean_linker_2, # of connection points: 2
#     Edge 31, Type (0, 1), BuildingBlock: XUDNAN_clean_linker_2, # of connection points: 2
#     Edge 32, Type (0, 1), BuildingBlock: XUDNAN_clean_linker_2, # of connection points: 2
#     Edge 33, Type (0, 1), BuildingBlock: XUDNAN_clean_linker_2, # of connection points: 2
#     Edge 34, Type (0, 1), BuildingBlock: XUDNAN_clean_linker_2, # of connection points: 2
#     Edge 35, Type (0, 1), BuildingBlock: XUDNAN_clean_linker_2, # of connection points: 2
# Relax obj value: 0.027
# Max RMSD: 0.080
# Mean RMSD: 0.047
data_MOF--net-pyr--node1-MIFKUJ_clean_sbu_0--node2-MIDCAF_clean_linker_0--edge1-XUDNAN_clean_linker_2
_symmetry_space_group_name_H-M    P1
_symmetry_Int_Tables_number       1
_symmetry_cell_setting            triclinic
loop_
_symmetry_equiv_pos_as_xyz
'x, y, z'
_cell_length_a     47.963763
_cell_length_b     43.227319
_cell_length_c     46.392247
_cell_angle_alpha  85.952822
_cell_angle_beta   88.568709
_cell_angle_gamma 95.740444
loop_
_atom_site_label
_atom_site_type_symbol
_atom_site_fract_x
_atom_site_fract_y
_atom_site_fract_z
_atom_type_partial_charge
C0 C 0.16056 0.16243 0.30901 0.0
C1 C 0.16221 0.13169 0.32026 0.0
C2 C 0.17856 0.11242 0.30537 0.0
C3 C 0.19265 0.12352 0.2794 0.0
H4 H 0.26537 0.11563 0.22835 0.0
H5 H 0.3002 0.08601 0.20727 0.0
H6 H 0.29049 0.13387 0.12371 0.0
H7 H 0.25623 0.16421 0.14491 0.0
H8 H 0.22723 0.23089 0.14751 0.0
H9 H 0.20591 0.26855 0.11595 0.0
H10 H 0.13093 0.25596 0.17096 0.0
H11 H 0.15272 0.21924 0.20315 0.0
H12 H 0.17208 0.19699 0.2743 0.0
H13 H 0.14792 0.17766 0.32003 0.0
H14 H 0.18023 0.08865 0.31372 0.0
H15 H 0.20473 0.10792 0.2682 0.0
N16 N 0.22438 0.1502 0.22773 0.0
N17 N 0.22517 0.18281 0.1851 0.0
N18 N 0.19302 0.18838 0.22282 0.0
C19 C 0.23557 0.15916 0.20088 0.0
C20 C 0.20393 0.19755 0.19592 0.0
C21 C 0.20322 0.1648 0.2389 0.0
C22 C 0.25782 0.14222 0.18834 0.0
C23 C 0.27072 0.12 0.2055 0.0
C24 C 0.29061 0.10285 0.19337 0.0
C25 C 0.29797 0.10732 0.16372 0.0
C26 C 0.28553 0.13003 0.14667 0.0
C27 C 0.26575 0.14733 0.15884 0.0
C28 C 0.19164 0.22193 0.17778 0.0
C29 C 0.20626 0.23632 0.15299 0.0
C30 C 0.19394 0.25778 0.13477 0.0
C31 C 0.16653 0.26507 0.14067 0.0
C32 C 0.15217 0.25121 0.16587 0.0
C33 C 0.16464 0.23002 0.1843 0.0
C34 C 0.19022 0.15394 0.26756 0.0
C35 C 0.17424 0.17339 0.28278 0.0
C36 C 0.2686 0.90848 0.65055 0.0
C37 C 0.25084 0.89075 0.63297 0.0
C38 C 0.25449 0.8592 0.63068 0.0
C39 C 0.27618 0.84586 0.64499 0.0
H40 H 0.33661 0.78631 0.62706 0.0
H41 H 0.36059 0.74848 0.60207 0.0
H42 H 0.42292 0.74893 0.66769 0.0
H43 H 0.39934 0.78724 0.69248 0.0
H44 H 0.40067 0.83722 0.7382 0.0
H45 H 0.42188 0.86026 0.77975 0.0
H46 H 0.35291 0.91661 0.78719 0.0
H47 H 0.332 0.89421 0.74512 0.0
H48 H 0.30349 0.90936 0.67849 0.0
H49 H 0.26605 0.93284 0.65273 0.0
H50 H 0.24106 0.84512 0.61717 0.0
H51 H 0.2789 0.82163 0.64237 0.0
N52 N 0.32973 0.82641 0.66431 0.0
N53 N 0.36359 0.8269 0.69988 0.0
N54 N 0.32945 0.86213 0.70009 0.0
C55 C 0.35254 0.81472 0.67594 0.0
C56 C 0.3521 0.85049 0.7122 0.0
C57 C 0.31809 0.8501 0.67623 0.0
C58 C 0.36609 0.79008 0.66175 0.0
C59 C 0.35535 0.77829 0.63631 0.0
C60 C 0.36902 0.75643 0.62201 0.0
C61 C 0.39376 0.74581 0.63278 0.0
C62 C 0.40416 0.75703 0.65855 0.0
C63 C 0.3905 0.77888 0.67287 0.0
C64 C 0.36462 0.86389 0.73813 0.0
C65 C 0.38993 0.85446 0.74868 0.0
C66 C 0.40205 0.86756 0.77269 0.0
C67 C 0.38914 0.89032 0.78688 0.0
C68 C 0.36367 0.89949 0.77654 0.0
C69 C 0.35159 0.88649 0.75245 0.0
C70 C 0.2942 0.86368 0.66236 0.0
C71 C 0.28989 0.89499 0.66537 0.0
C72 C 0.63062 0.26174 0.89142 0.0
C73 C 0.6067 0.24561 0.88072 0.0
C74 C 0.59265 0.25995 0.85803 0.0
C75 C 0.60333 0.28934 0.84527 0.0
H76 H 0.59406 0.35717 0.77651 0.0
H77 H 0.57505 0.38193 0.73337 0.0
H78 H 0.65026 0.44598 0.72213 0.0
H79 H 0.66893 0.42192 0.76534 0.0
H80 H 0.721 0.41333 0.80756 0.0
H81 H 0.76644 0.43292 0.8256 0.0
H82 H 0.74395 0.38586 0.90932 0.0
H83 H 0.69871 0.36607 0.8914 0.0
H84 H 0.65998 0.30224 0.88757 0.0
H85 H 0.6417 0.25128 0.90907 0.0
H86 H 0.57419 0.24787 0.84937 0.0
H87 H 0.59263 0.29939 0.82715 0.0
N88 N 0.6309 0.34737 0.81582 0.0
N89 N 0.66874 0.38664 0.81212 0.0
N90 N 0.66555 0.34833 0.85062 0.0
C91 C 0.64442 0.37351 0.80157 0.0
C92 C 0.67936 0.37426 0.83673 0.0
C93 C 0.64142 0.3346 0.8404 0.0
C94 C 0.63299 0.38763 0.77469 0.0
C95 C 0.60658 0.3765 0.76482 0.0
C96 C 0.59571 0.3906 0.73995 0.0
C97 C 0.61098 0.41616 0.72433 0.0
C98 C 0.63761 0.4268 0.7339 0.0
C99 C 0.64841 0.41282 0.75871 0.0
C100 C 0.70622 0.38799 0.84797 0.0
C101 C 0.72563 0.40736 0.82988 0.0
C102 C 0.75172 0.41844 0.84014 0.0
C103 C 0.75876 0.41085 0.86885 0.0
C104 C 0.73905 0.39227 0.88716 0.0
C105 C 0.71319 0.38079 0.8768 0.0
C106 C 0.62806 0.30494 0.85524 0.0
C107 C 0.64108 0.29102 0.87899 0.0
C108 C 0.74228 0.62234 0.36746 0.0
C109 C 0.72278 0.60213 0.35395 0.0
C110 C 0.73014 0.59206 0.32683 0.0
C111 C 0.7563 0.60225 0.31348 0.0
H112 H 0.81981 0.57546 0.25856 0.0
H113 H 0.8406 0.54742 0.22117 0.0
H114 H 0.90521 0.62384 0.20381 0.0
H115 H 0.88454 0.65215 0.24147 0.0
H116 H 0.89365 0.70359 0.29184 0.0
H117 H 0.91921 0.74735 0.31394 0.0
H118 H 0.85733 0.73807 0.3841 0.0
H119 H 0.83172 0.6954 0.3621 0.0
H120 H 0.78257 0.64823 0.36532 0.0
H121 H 0.73769 0.62998 0.38864 0.0
H122 H 0.71554 0.57668 0.3157 0.0
H123 H 0.76126 0.5943 0.29251 0.0
N124 N 0.81343 0.62118 0.28983 0.0
N125 N 0.85425 0.65642 0.28867 0.0
N126 N 0.81866 0.6587 0.32372 0.0
C127 C 0.83898 0.63196 0.27755 0.0
C128 C 0.84412 0.66988 0.31188 0.0
C129 C 0.80313 0.63454 0.31293 0.0
C130 C 0.85061 0.61603 0.25326 0.0
C131 C 0.8383 0.58654 0.24668 0.0
C132 C 0.85025 0.57036 0.22531 0.0
C133 C 0.87459 0.58338 0.20971 0.0
C134 C 0.88636 0.61333 0.21542 0.0
C135 C 0.8746 0.62942 0.23712 0.0
C136 C 0.86047 0.69604 0.32498 0.0
C137 C 0.88553 0.71095 0.31196 0.0
C138 C 0.90024 0.73594 0.32468 0.0
C139 C 0.89014 0.74645 0.35063 0.0
C140 C 0.86537 0.73113 0.36377 0.0
C141 C 0.85073 0.70641 0.35113 0.0
C142 C 0.77556 0.62286 0.3269 0.0
C143 C 0.7682 0.63267 0.35409 0.0
C144 C 0.74399 0.87803 0.83985 0.0
C145 C 0.73223 0.86231 0.86558 0.0
C146 C 0.74166 0.83369 0.87505 0.0
C147 C 0.76339 0.82192 0.86017 0.0
H148 H 0.83343 0.78187 0.88431 0.0
H149 H 0.86238 0.75082 0.91463 0.0
H150 H 0.91562 0.73939 0.84051 0.0
H151 H 0.88657 0.77043 0.80988 0.0
H152 H 0.88315 0.81782 0.75558 0.0
H153 H 0.90251 0.84067 0.70915 0.0
H154 H 0.82951 0.89041 0.69698 0.0
H155 H 0.80976 0.86739 0.74363 0.0
H156 H 0.77505 0.87927 0.8056 0.0
H157 H 0.73726 0.9002 0.83202 0.0
H158 H 0.73254 0.82054 0.89433 0.0
H159 H 0.77056 0.80017 0.86858 0.0
N160 N 0.81652 0.80784 0.8375 0.0
N161 N 0.8492 0.80907 0.79909 0.0
N162 N 0.81036 0.8379 0.79447 0.0
C163 C 0.84049 0.7986 0.82642 0.0
C164 C 0.83427 0.82862 0.78291 0.0
C165 C 0.80128 0.82735 0.82174 0.0
C166 C 0.85765 0.77873 0.84459 0.0
C167 C 0.85123 0.77272 0.87434 0.0
C168 C 0.86796 0.75512 0.89183 0.0
C169 C 0.89137 0.7429 0.87998 0.0
C170 C 0.89762 0.74845 0.8502 0.0
C171 C 0.88101 0.76631 0.83269 0.0
C172 C 0.84496 0.84096 0.7536 0.0
C173 C 0.87101 0.83344 0.74306 0.0
C174 C 0.88221 0.84662 0.71645 0.0
C175 C 0.86764 0.86753 0.69959 0.0
C176 C 0.84114 0.87424 0.70949 0.0
C177 C 0.82994 0.86117 0.7363 0.0
C178 C 0.77611 0.83831 0.83524 0.0
C179 C 0.76569 0.86608 0.82475 0.0
C180 C 0.65262 0.10264 0.24562 0.0
C181 C 0.62602 0.10872 0.23599 0.0
C182 C 0.61049 0.12829 0.25158 0.0
C183 C 0.62107 0.14094 0.27652 0.0
H184 H 0.60891 0.20802 0.33609 0.0
H185 H 0.58215 0.2414 0.36423 0.0
H186 H 0.63494 0.22617 0.43681 0.0
H187 H 0.66159 0.19294 0.40905 0.0
H188 H 0.71769 0.1636 0.39948 0.0
H189 H 0.75774 0.14253 0.42178 0.0
H190 H 0.76173 0.07916 0.35418 0.0
H191 H 0.72201 0.1007 0.33138 0.0
H192 H 0.68364 0.10969 0.27741 0.0
H193 H 0.66539 0.08816 0.23386 0.0
H194 H 0.58979 0.13321 0.24497 0.0
H195 H 0.6083 0.15546 0.28823 0.0
N196 N 0.64395 0.16638 0.32833 0.0
N197 N 0.67685 0.16597 0.36486 0.0
N198 N 0.68169 0.13599 0.32528 0.0
C199 C 0.65325 0.17643 0.35386 0.0
C200 C 0.69125 0.14582 0.35074 0.0
C201 C 0.65811 0.14617 0.31386 0.0
C202 C 0.63737 0.19761 0.37028 0.0
C203 C 0.61486 0.21182 0.35803 0.0
C204 C 0.59959 0.23107 0.37407 0.0
C205 C 0.60633 0.23618 0.40277 0.0
C206 C 0.629 0.22229 0.41487 0.0
C207 C 0.64439 0.20336 0.39883 0.0
C208 C 0.71644 0.13379 0.36364 0.0
C209 C 0.72711 0.14525 0.38923 0.0
C210 C 0.75002 0.13304 0.40216 0.0
C211 C 0.76284 0.10898 0.38992 0.0
C212 C 0.75254 0.09789 0.36405 0.0
C213 C 0.72963 0.11017 0.35104 0.0
C214 C 0.64742 0.13424 0.28653 0.0
C215 C 0.66316 0.11518 0.27058 0.0
C216 C 0.25884 0.58279 0.14312 0.0
C217 C 0.2417 0.60289 0.12862 0.0
C218 C 0.24736 0.63518 0.13026 0.0
C219 C 0.27034 0.64724 0.14547 0.0
H220 H 0.33945 0.71601 0.12878 0.0
H221 H 0.36821 0.76169 0.10673 0.0
H222 H 0.42523 0.75652 0.17708 0.0
H223 H 0.39696 0.71062 0.19887 0.0
H224 H 0.39555 0.64887 0.23844 0.0
H225 H 0.41412 0.61986 0.27914 0.0
H226 H 0.34039 0.55337 0.28256 0.0
H227 H 0.32212 0.5819 0.24122 0.0
H228 H 0.29443 0.57878 0.16973 0.0
H229 H 0.25477 0.55778 0.14213 0.0
H230 H 0.23442 0.65108 0.11918 0.0
H231 H 0.27455 0.67229 0.14591 0.0
N232 N 0.32646 0.66797 0.16491 0.0
N233 N 0.35972 0.66327 0.20069 0.0
N234 N 0.32276 0.62383 0.19789 0.0
C235 C 0.35006 0.67971 0.17761 0.0
C236 C 0.3462 0.63542 0.2111 0.0
C237 C 0.31271 0.64009 0.17487 0.0
C238 C 0.366 0.70926 0.16548 0.0
C239 C 0.358 0.72471 0.13971 0.0
C240 C 0.3744 0.75107 0.12711 0.0
C241 C 0.3992 0.76258 0.13995 0.0
C242 C 0.40656 0.74789 0.16629 0.0
C243 C 0.39022 0.72158 0.17887 0.0
C244 C 0.35729 0.61777 0.23635 0.0
C245 C 0.38321 0.62807 0.24781 0.0
C246 C 0.39384 0.6115 0.27138 0.0
C247 C 0.37882 0.5842 0.2843 0.0
C248 C 0.3528 0.574 0.27296 0.0
C249 C 0.34222 0.5905 0.24927 0.0
C250 C 0.28765 0.62719 0.15993 0.0
C251 C 0.2814 0.5948 0.15896 0.0
C252 C 0.12774 0.30186 0.6102 0.0
C253 C 0.1176 0.27315 0.62467 0.0
C254 C 0.11219 0.27178 0.65472 0.0
C255 C 0.11884 0.29813 0.6702 0.0
H256 H 0.10519 0.34537 0.74638 0.0
H257 H 0.08585 0.35557 0.79327 0.0
H258 H 0.14311 0.43916 0.79402 0.0
H259 H 0.1625 0.42921 0.74673 0.0
H260 H 0.22669 0.41614 0.70342 0.0
H261 H 0.27342 0.43253 0.68145 0.0
H262 H 0.24028 0.42099 0.59674 0.0
H263 H 0.19417 0.4043 0.61848 0.0
H264 H 0.14358 0.34931 0.61386 0.0
H265 H 0.13142 0.30391 0.58698 0.0
H266 H 0.10438 0.24997 0.66647 0.0
H267 H 0.116 0.29604 0.69352 0.0
N268 N 0.13391 0.35722 0.69878 0.0
N269 N 0.17049 0.39736 0.70212 0.0
N270 N 0.16676 0.36961 0.66058 0.0
C271 C 0.14694 0.38023 0.71381 0.0
C272 C 0.18039 0.39211 0.67536 0.0
C273 C 0.14369 0.352 0.67202 0.0
C274 C 0.13552 0.3864 0.74269 0.0
C275 C 0.11375 0.36597 0.75641 0.0
C276 C 0.10272 0.37171 0.78343 0.0
C277 C 0.11303 0.3981 0.79741 0.0
C278 C 0.13461 0.41874 0.78368 0.0
C279 C 0.14583 0.41288 0.75667 0.0
C280 C 0.20691 0.40846 0.66269 0.0
C281 C 0.22934 0.41786 0.68009 0.0
C282 C 0.25607 0.42717 0.66753 0.0
C283 C 0.26062 0.42727 0.63743 0.0
C284 C 0.23761 0.42028 0.62005 0.0
C285 C 0.21115 0.41089 0.63251 0.0
C286 C 0.13115 0.32608 0.65585 0.0
C287 C 0.13458 0.32793 0.62561 0.0
Zn288 Zn 0.04424 0.01534 0.5331 0.0
Zn289 Zn 0.97684 0.98528 0.47776 0.0
C290 C 0.07784 0.07182 0.53938 0.0
O291 O 0.09487 0.05688 0.52413 0.0
C292 C 0.9484 0.92818 0.45888 0.0
O293 O 0.92589 0.9405 0.46731 0.0
O294 O 0.07956 0.99357 0.53609 0.0
O295 O 0.01304 0.99129 0.55829 0.0
O296 O 0.98924 0.98427 0.51931 0.0
C297 C 0.08221 0.96967 0.55301 0.0
O298 O 0.06029 0.95619 0.56822 0.0
O299 O 0.05337 0.05878 0.54615 0.0
C300 C 0.93253 0.01416 0.44954 0.0
O301 O 0.94781 0.00991 0.42653 0.0
O302 O 0.9408 0.00544 0.47436 0.0
O303 O 0.00723 0.01163 0.45296 0.0
O304 O 0.03016 0.01683 0.49254 0.0
O305 O 0.9724 0.94249 0.46243 0.0
C306 C 0.99101 0.97974 0.54654 0.0
C307 C 0.02873 0.02304 0.46554 0.0
Zn308 Zn 0.53663 0.98116 0.99281 0.0
Zn309 Zn 0.49184 0.01352 0.02307 0.0
C310 C 0.49963 0.94958 0.95369 0.0
O311 O 0.51053 0.92503 0.96514 0.0
C312 C 0.52511 0.04508 0.06433 0.0
O313 O 0.51179 0.0683 0.05386 0.0
O314 O 0.57038 0.96162 0.97922 0.0
O315 O 0.54891 0.02634 0.99467 0.0
O316 O 0.50706 0.04134 0.98731 0.0
C317 C 0.57861 0.96246 0.9529 0.0
O318 O 0.56467 0.97692 0.93296 0.0
O319 O 0.50726 0.97621 0.96253 0.0
C320 C 0.44734 0.01361 0.06251 0.0
O321 O 0.4597 0.98924 0.07194 0.0
O322 O 0.4575 0.02985 0.04004 0.0
O323 O 0.48044 0.96677 0.02136 0.0
O324 O 0.52344 0.95664 0.02949 0.0
O325 O 0.52059 0.01867 0.05393 0.0
C326 C 0.53361 0.0461 0.98364 0.0
C327 C 0.49731 0.94872 0.0324 0.0
Zn328 Zn 0.5076 0.46565 0.48918 0.0
Zn329 Zn 0.48978 0.52566 0.51205 0.0
C330 C 0.55305 0.49042 0.4495 0.0
O331 O 0.54642 0.46419 0.43748 0.0
C332 C 0.44827 0.50002 0.55563 0.0
O333 O 0.46138 0.52099 0.57101 0.0
O334 O 0.51583 0.42324 0.4772 0.0
O335 O 0.50986 0.4641 0.53295 0.0
O336 O 0.52504 0.51377 0.53087 0.0
C337 C 0.51432 0.39889 0.49444 0.0
O338 O 0.50561 0.4004 0.52132 0.0
O339 O 0.53938 0.49626 0.472 0.0
C340 C 0.46039 0.57839 0.52483 0.0
O341 O 0.43902 0.56118 0.51507 0.0
O342 O 0.48446 0.56845 0.52457 0.0
O343 O 0.48602 0.52717 0.46866 0.0
O344 O 0.47246 0.47696 0.46927 0.0
O345 O 0.45716 0.49709 0.53001 0.0
C346 C 0.52399 0.48669 0.54371 0.0
C347 C 0.47227 0.5045 0.45756 0.0
Zn348 Zn 0.98378 0.51126 0.98529 0.0
Zn349 Zn 0.0269 0.46657 0.03215 0.0
C350 C 0.92663 0.48866 0.97059 0.0
O351 O 0.91929 0.50611 0.991 0.0
C352 C 0.06544 0.51522 0.05119 0.0
O353 O 0.0479 0.51121 0.07366 0.0
O354 O 0.98094 0.55528 0.96958 0.0
O355 O 0.9735 0.509 0.02868 0.0
O356 O 0.99624 0.47775 0.05768 0.0
C357 C 0.98266 0.57871 0.98473 0.0
O358 O 0.98867 0.57501 0.01215 0.0
O359 O 0.95255 0.48657 0.96548 0.0
C360 C 0.06406 0.4215 0.03629 0.0
O361 O 0.07116 0.43651 0.01116 0.0
O362 O 0.04405 0.43014 0.05124 0.0
O363 O 0.01442 0.45193 0.99408 0.0
O364 O 0.01984 0.49689 0.96866 0.0
O365 O 0.05955 0.5005 0.02894 0.0
C366 C 0.97754 0.49627 0.05365 0.0
C367 C 0.02354 0.46815 0.9714 0.0
H368 H 0.12638 0.07856 0.32672 0.0
H369 H 0.16015 0.15717 0.37258 0.0
H370 H 0.13093 0.13679 0.41594 0.0
H371 H 0.05662 0.07683 0.35442 0.0
H372 H 0.04993 0.03494 0.35642 0.0
H373 H 0.07491 0.05462 0.32998 0.0
H374 H 0.11314 0.02108 0.3496 0.0
H375 H 0.08824 0.00123 0.37608 0.0
H376 H 0.12087 0.02024 0.38746 0.0
H377 H 0.09721 0.10793 0.45392 0.0
H378 H 0.05985 0.07447 0.48239 0.0
H379 H 0.04751 0.01602 0.41081 0.0
C380 C 0.12791 0.09119 0.34607 0.0
C381 C 0.14566 0.11919 0.34657 0.0
C382 C 0.14666 0.1356 0.37193 0.0
C383 C 0.13025 0.12416 0.3966 0.0
C384 C 0.11282 0.09649 0.39535 0.0
C385 C 0.11144 0.08034 0.37064 0.0
C386 C 0.08995 0.05215 0.37424 0.0
C387 C 0.06646 0.05482 0.35248 0.0
C388 C 0.10389 0.02189 0.3717 0.0
C389 C 0.07934 0.05494 0.40481 0.0
C390 C 0.09299 0.08045 0.41678 0.0
C391 C 0.08657 0.08778 0.44482 0.0
C392 C 0.0656 0.06855 0.46094 0.0
C393 C 0.05133 0.04253 0.44892 0.0
C394 C 0.05823 0.03579 0.42049 0.0
H395 H 0.41681 0.86191 0.83112 0.0
H396 H 0.39214 0.95174 0.79926 0.0
H397 H 0.41544 0.97614 0.84001 0.0
H398 H 0.40947 0.87291 0.90768 0.0
H399 H 0.43983 0.85328 0.91687 0.0
H400 H 0.41971 0.84251 0.88619 0.0
H401 H 0.46452 0.85282 0.85312 0.0
H402 H 0.48476 0.86356 0.88368 0.0
H403 H 0.48492 0.89028 0.85203 0.0
H404 H 0.44333 0.99125 0.88303 0.0
H405 H 0.47401 0.99593 0.92479 0.0
H406 H 0.48122 0.89641 0.92788 0.0
C407 C 0.4163 0.88673 0.83263 0.0
C408 C 0.40249 0.90484 0.81196 0.0
C409 C 0.40214 0.93722 0.81503 0.0
C410 C 0.41545 0.95135 0.83804 0.0
C411 C 0.42903 0.93283 0.85786 0.0
C412 C 0.42953 0.90122 0.8554 0.0
C413 C 0.44636 0.88674 0.87904 0.0
C414 C 0.42772 0.86242 0.8986 0.0
C415 C 0.47164 0.87252 0.86619 0.0
C416 C 0.45558 0.91523 0.89495 0.0
C417 C 0.44522 0.94155 0.88251 0.0
C418 C 0.45144 0.97077 0.89304 0.0
C419 C 0.46891 0.97318 0.91678 0.0
C420 C 0.48002 0.94654 0.92966 0.0
C421 C 0.47299 0.91721 0.91864 0.0
H422 H 0.5801 0.39014 0.68077 0.0
H423 H 0.61471 0.47898 0.70968 0.0
H424 H 0.59657 0.50616 0.66676 0.0
H425 H 0.5941 0.40882 0.60492 0.0
H426 H 0.56187 0.38858 0.5939 0.0
H427 H 0.57748 0.37576 0.62699 0.0
H428 H 0.53128 0.38108 0.6555 0.0
H429 H 0.5155 0.39381 0.62247 0.0
H430 H 0.51622 0.41771 0.6528 0.0
H431 H 0.57537 0.52395 0.62059 0.0
H432 H 0.55151 0.53128 0.57454 0.0
H433 H 0.52937 0.43127 0.57558 0.0
C434 C 0.58365 0.41533 0.67823 0.0
C435 C 0.59913 0.43233 0.69861 0.0
C436 C 0.60346 0.46529 0.6942 0.0
C437 C 0.59306 0.48102 0.66995 0.0
C438 C 0.57818 0.46357 0.65022 0.0
C439 C 0.57333 0.43148 0.6541 0.0
C440 C 0.55666 0.41841 0.6295 0.0
C441 C 0.57354 0.3966 0.61285 0.0
C442 C 0.52823 0.40177 0.64075 0.0
C443 C 0.553 0.44817 0.61122 0.0
C444 C 0.56562 0.47392 0.62361 0.0
C445 C 0.56534 0.50397 0.61071 0.0
C446 C 0.55175 0.50788 0.58448 0.0
C447 C 0.53851 0.48189 0.57134 0.0
C448 C 0.53921 0.45164 0.58503 0.0
H449 H 0.89384 0.60153 0.15394 0.0
H450 H 0.88697 0.52349 0.21875 0.0
H451 H 0.91098 0.49229 0.18517 0.0
H452 H 0.88178 0.55481 0.09205 0.0
H453 H 0.90642 0.57951 0.06848 0.0
H454 H 0.88828 0.59578 0.0974 0.0
H455 H 0.93586 0.61717 0.11724 0.0
H456 H 0.95409 0.60101 0.08836 0.0
H457 H 0.96191 0.59082 0.12542 0.0
H458 H 0.93803 0.47068 0.14615 0.0
H459 H 0.96465 0.45882 0.10281 0.0
H460 H 0.95216 0.54954 0.06173 0.0
C461 C 0.89739 0.57785 0.16096 0.0
C462 C 0.8885 0.56484 0.18891 0.0
C463 C 0.89335 0.53375 0.19733 0.0
C464 C 0.90704 0.51591 0.17846 0.0
C465 C 0.91552 0.52935 0.15108 0.0
C466 C 0.91072 0.5595 0.14218 0.0
C467 C 0.92202 0.56818 0.11151 0.0
C468 C 0.8982 0.57496 0.09116 0.0
C469 C 0.94483 0.59594 0.11059 0.0
C470 C 0.93428 0.53837 0.10481 0.0
C471 C 0.93036 0.51637 0.12802 0.0
C472 C 0.94096 0.48756 0.12769 0.0
C473 C 0.95611 0.48108 0.10301 0.0
C474 C 0.96027 0.50313 0.07884 0.0
C475 C 0.94892 0.53204 0.0797 0.0
H476 H 0.33937 0.12525 0.12181 0.0
H477 H 0.30154 0.04491 0.17561 0.0
H478 H 0.33485 0.01229 0.15451 0.0
H479 H 0.35135 0.08326 0.0581 0.0
H480 H 0.38425 0.1059 0.04824 0.0
H481 H 0.3573 0.12312 0.06742 0.0
H482 H 0.39214 0.1372 0.1074 0.0
H483 H 0.41919 0.12004 0.08836 0.0
H484 H 0.41 0.10694 0.12544 0.0
H485 H 0.37287 0.98874 0.12908 0.0
H486 H 0.41321 0.97538 0.10025 0.0
H487 H 0.42543 0.0702 0.06112 0.0
C488 C 0.33786 0.10073 0.12894 0.0
C489 C 0.31791 0.08773 0.15057 0.0
C490 C 0.31694 0.05559 0.15951 0.0
C491 C 0.33562 0.03678 0.14748 0.0
C492 C 0.35503 0.05036 0.12634 0.0
C493 C 0.35626 0.08153 0.11702 0.0
C494 C 0.37942 0.0903 0.09419 0.0
C495 C 0.36735 0.10129 0.06527 0.0
C496 C 0.40149 0.11508 0.10447 0.0
C497 C 0.39115 0.0592 0.09234 0.0
C498 C 0.37673 0.03653 0.11111 0.0
C499 C 0.38421 0.00622 0.11415 0.0
C500 C 0.4072 -0.00111 0.09773 0.0
C501 C 0.42235 0.02173 0.07838 0.0
C502 C 0.41401 0.0522 0.07548 0.0
H503 H 0.19446 0.8725 0.63331 0.0
H504 H 0.2586 0.94237 0.59548 0.0
H505 H 0.22264 0.96773 0.56774 0.0
H506 H 0.15033 0.86712 0.57037 0.0
H507 H 0.11807 0.86342 0.59167 0.0
H508 H 0.14908 0.8493 0.60676 0.0
H509 H 0.14479 0.88364 0.64993 0.0
H510 H 0.11374 0.89774 0.63504 0.0
H511 H 0.14302 0.92495 0.64302 0.0
H512 H 0.17984 0.98605 0.54513 0.0
H513 H 0.13263 -0.001 0.53219 0.0
H514 H 0.09576 0.91849 0.58636 0.0
C515 C 0.20086 0.89292 0.61889 0.0
C516 C 0.22921 0.90548 0.61627 0.0
C517 C 0.23691 0.93253 0.59771 0.0
C518 C 0.2167 0.94693 0.58178 0.0
C519 C 0.18887 0.93409 0.5849 0.0
C520 C 0.18086 0.90787 0.60318 0.0
C521 C 0.14931 0.90012 0.6041 0.0
C522 C 0.14123 0.86809 0.59253 0.0
C523 C 0.137 0.90172 0.63485 0.0
C524 C 0.14083 0.92624 0.5837 0.0
C525 C 0.16401 0.94528 0.57255 0.0
C526 C 0.16152 0.97128 0.55366 0.0
C527 C 0.13458 0.97839 0.54639 0.0
C528 C 0.11045 0.95978 0.55826 0.0
C529 C 0.11375 0.93312 0.57684 0.0
H530 H 0.77152 0.43759 0.91959 0.0
H531 H 0.80962 0.40724 0.84207 0.0
H532 H 0.85668 0.42252 0.86021 0.0
H533 H 0.82128 0.50505 0.92564 0.0
H534 H 0.82099 0.50096 0.96458 0.0
H535 H 0.79041 0.48719 0.94562 0.0
H536 H 0.7911 0.4323 0.97179 0.0
H537 H 0.82178 0.44587 0.99072 0.0
H538 H 0.82237 0.41255 0.96952 0.0
H539 H 0.8996 0.43976 0.88747 0.0
H540 H 0.93529 0.46153 0.91995 0.0
H541 H 0.86928 0.48241 0.9791 0.0
C542 C 0.7898 0.43411 0.90649 0.0
C543 C 0.78695 0.42119 0.87942 0.0
C544 C 0.81133 0.41734 0.86274 0.0
C545 C 0.83813 0.42576 0.87295 0.0
C546 C 0.84022 0.43827 0.8998 0.0
C547 C 0.81671 0.44275 0.91621 0.0
C548 C 0.82475 0.45745 0.94395 0.0
C549 C 0.81371 0.48957 0.94499 0.0
C550 C 0.81439 0.43574 0.97057 0.0
C551 C 0.85645 0.46042 0.94063 0.0
C552 C 0.86494 0.44897 0.91513 0.0
C553 C 0.8932 0.4489 0.90744 0.0
C554 C 0.91333 0.46124 0.92611 0.0
C555 C 0.90514 0.47376 0.95208 0.0
C556 C 0.87626 0.47311 0.9594 0.0
H557 H 0.69328 0.54389 0.35558 0.0
H558 H 0.68946 0.6365 0.38528 0.0
H559 H 0.64542 0.61821 0.41247 0.0
H560 H 0.61775 0.52773 0.34629 0.0
H561 H 0.61747 0.48709 0.35818 0.0
H562 H 0.64842 0.50774 0.34046 0.0
H563 H 0.67777 0.49175 0.3842 0.0
H564 H 0.64691 0.47125 0.40213 0.0
H565 H 0.66736 0.50116 0.41989 0.0
H566 H 0.60329 0.58913 0.43885 0.0
H567 H 0.56438 0.55192 0.45995 0.0
H568 H 0.59432 0.47922 0.41098 0.0
C569 C 0.68297 0.56052 0.36735 0.0
C570 C 0.69508 0.59159 0.36846 0.0
C571 C 0.68098 0.61241 0.38453 0.0
C572 C 0.65582 0.60232 0.39991 0.0
C573 C 0.64477 0.57143 0.39877 0.0
C574 C 0.65769 0.55092 0.38264 0.0
C575 C 0.64154 0.51885 0.38527 0.0
C576 C 0.63064 0.50983 0.35579 0.0
C577 C 0.65947 0.49432 0.39868 0.0
C578 C 0.61774 0.52447 0.40569 0.0
C579 C 0.62003 0.55491 0.4133 0.0
C580 C 0.6011 0.5653 0.43282 0.0
C581 C 0.57915 0.54399 0.44477 0.0
C582 C 0.57625 0.51277 0.43697 0.0
C583 C 0.5958 0.50303 0.41711 0.0
H584 H 0.13075 0.30882 0.15328 0.0
H585 H 0.17065 0.26899 0.08143 0.0
H586 H 0.14823 0.30418 0.04723 0.0
H587 H 0.06452 0.31633 0.11865 0.0
H588 H 0.05928 0.35246 0.13417 0.0
H589 H 0.07879 0.32441 0.15324 0.0
H590 H 0.12093 0.36653 0.15567 0.0
H591 H 0.10156 0.3947 0.13663 0.0
H592 H 0.13548 0.38723 0.12274 0.0
H593 H 0.12283 0.34444 0.02084 0.0
H594 H 0.09481 0.38655 0.00379 0.0
H595 H 0.06896 0.39818 0.09239 0.0
C596 C 0.13457 0.3072 0.13036 0.0
C597 C 0.15273 0.28624 0.12014 0.0
C598 C 0.15737 0.28527 0.08991 0.0
C599 C 0.14453 0.30498 0.07026 0.0
C600 C 0.12684 0.32532 0.08109 0.0
C601 C 0.12169 0.32649 0.1104 0.0
C602 C 0.1017 0.35049 0.11629 0.0
C603 C 0.07446 0.33499 0.13148 0.0
C604 C 0.11577 0.37626 0.13387 0.0
C605 C 0.09659 0.36277 0.08569 0.0
C606 C 0.1114 0.34797 0.06576 0.0
C607 C 0.11095 0.35604 0.03621 0.0
C608 C 0.09505 0.38002 0.02675 0.0
C609 C 0.07964 0.39544 0.04677 0.0
C610 C 0.08025 0.38648 0.0766 0.0
H611 H 0.55542 0.21905 0.9042 0.0
H612 H 0.63983 0.19863 0.88258 0.0
H613 H 0.62889 0.14491 0.90411 0.0
H614 H 0.55 0.17664 0.97274 0.0
H615 H 0.51362 0.16206 0.97056 0.0
H616 H 0.52682 0.19832 0.95113 0.0
H617 H 0.50916 0.1772 0.90327 0.0
H618 H 0.49576 0.14089 0.9226 0.0
H619 H 0.52001 0.14094 0.89228 0.0
H620 H 0.61083 0.09552 0.93031 0.0
H621 H 0.58615 0.05138 0.95977 0.0
H622 H 0.51246 0.10176 0.96572 0.0
C623 C 0.57131 0.20298 0.9036 0.0
C624 C 0.59848 0.21285 0.89173 0.0
C625 C 0.61897 0.19147 0.89169 0.0
C626 C 0.61292 0.16092 0.90377 0.0
C627 C 0.58624 0.15202 0.91586 0.0
C628 C 0.56565 0.17221 0.91587 0.0
C629 C 0.5392 0.15673 0.93179 0.0
C630 C 0.53199 0.1745 0.95811 0.0
C631 C 0.51457 0.15376 0.91125 0.0
C632 C 0.54843 0.12497 0.94104 0.0
C633 C 0.57562 0.12293 0.93137 0.0
C634 C 0.58945 0.09668 0.93785 0.0
C635 C 0.57522 0.07176 0.95478 0.0
C636 C 0.54733 0.07304 0.96517 0.0
C637 C 0.53366 0.09998 0.95794 0.0
H638 H 0.86682 0.79343 0.37608 0.0
H639 H 0.947 0.76005 0.3563 0.0
H640 H 0.97101 0.80303 0.38182 0.0
H641 H 0.89009 0.87557 0.36884 0.0
H642 H 0.86782 0.88434 0.39842 0.0
H643 H 0.85746 0.85185 0.37746 0.0
H644 H 0.85269 0.81503 0.4243 0.0
H645 H 0.86322 0.84736 0.44538 0.0
H646 H 0.88216 0.81334 0.44752 0.0
H647 H 0.98592 0.84914 0.41108 0.0
H648 H 0.99057 0.89525 0.43994 0.0
H649 H 0.90016 0.89659 0.44143 0.0
C650 C 0.88944 0.79502 0.37716 0.0
C651 C 0.90502 0.77325 0.36427 0.0
C652 C 0.93463 0.77661 0.36574 0.0
C653 C 0.94843 0.80081 0.38037 0.0
C654 C 0.93229 0.82144 0.39333 0.0
C655 C 0.90345 0.81883 0.39171 0.0
C656 C 0.89079 0.84364 0.40768 0.0
C657 C 0.87565 0.86512 0.38685 0.0
C658 C 0.87106 0.82895 0.4327 0.0
C659 C 0.91701 0.86061 0.41878 0.0
C660 C 0.94077 0.84756 0.41026 0.0
C661 C 0.96744 0.85952 0.41785 0.0
C662 C 0.96986 0.88568 0.43429 0.0
C663 C 0.94573 0.8995 0.44305 0.0
C664 C 0.91901 0.88652 0.43527 0.0
H665 H 0.37164 0.69451 0.60596 0.0
H666 H 0.45051 0.74734 0.62325 0.0
H667 H 0.47606 0.71109 0.59641 0.0
H668 H 0.39635 0.61887 0.6129 0.0
H669 H 0.37565 0.60393 0.58411 0.0
H670 H 0.36358 0.63409 0.60466 0.0
H671 H 0.35999 0.66891 0.55732 0.0
H672 H 0.37214 0.63888 0.53664 0.0
H673 H 0.39032 0.67759 0.53329 0.0
H674 H 0.49309 0.66876 0.56825 0.0
H675 H 0.50041 0.62278 0.54134 0.0
H676 H 0.41035 0.59848 0.54127 0.0
C677 C 0.39426 0.69863 0.60391 0.0
C678 C 0.40907 0.72376 0.6168 0.0
C679 C 0.43872 0.72801 0.61394 0.0
C680 C 0.45342 0.70769 0.59855 0.0
C681 C 0.43817 0.68324 0.58608 0.0
C682 C 0.40926 0.67858 0.58862 0.0
C683 C 0.39794 0.65026 0.57346 0.0
C684 C 0.38247 0.62532 0.59507 0.0
C685 C 0.37898 0.65947 0.5487 0.0
C686 C 0.42501 0.63975 0.56201 0.0
C687 C 0.44797 0.65907 0.56954 0.0
C688 C 0.47527 0.65355 0.56209 0.0
C689 C 0.47921 0.62739 0.5468 0.0
C690 C 0.45596 0.60715 0.53904 0.0
C691 C 0.42854 0.6137 0.54655 0.0
H692 H 0.9212 0.89486 0.69192 0.0
H693 H 0.84399 0.8765 0.64658 0.0
H694 H 0.86704 0.90288 0.6017 0.0
H695 H 0.94106 0.97077 0.65769 0.0
H696 H 0.97797 0.96599 0.65679 0.0
H697 H 0.95527 0.94536 0.6848 0.0
H698 H 0.97161 0.89293 0.67058 0.0
H699 H 0.99435 0.9134 0.6425 0.0
H700 H 0.96855 0.88253 0.63375 0.0
H701 H 0.89964 0.93069 0.56141 0.0
H702 H 0.93783 0.95949 0.53032 0.0
H703 H 0.99259 0.95971 0.60341 0.0
C704 C 0.90919 0.89612 0.67248 0.0
C705 C 0.88092 0.88342 0.67259 0.0
C706 C 0.86569 0.88616 0.64691 0.0
C707 C 0.87864 0.90096 0.62135 0.0
C708 C 0.90669 0.91304 0.62199 0.0
C709 C 0.92166 0.9109 0.647 0.0
C710 C 0.9513 0.92622 0.64241 0.0
C711 C 0.9567 0.95372 0.66155 0.0
C712 C 0.97271 0.90234 0.64761 0.0
C713 C 0.9508 0.93732 0.61084 0.0
C714 C 0.925 0.92943 0.59929 0.0
C715 C 0.91988 0.93707 0.5703 0.0
C716 C 0.94168 0.95337 0.55281 0.0
C717 C 0.96812 0.96198 0.56449 0.0
C718 C 0.97258 0.95368 0.59386 0.0
H719 H 0.59524 0.13491 0.19301 0.0
H720 H 0.62975 0.04901 0.22087 0.0
H721 H 0.60969 0.02417 0.17874 0.0
H722 H 0.53027 0.09888 0.16967 0.0
H723 H 0.52809 0.12674 0.13922 0.0
H724 H 0.54645 0.13825 0.17074 0.0
H725 H 0.59102 0.1564 0.13883 0.0
H726 H 0.57279 0.14486 0.1072 0.0
H727 H 0.60533 0.12942 0.116 0.0
H728 H 0.58438 0.00799 0.13447 0.0
H729 H 0.55529 0.00166 0.09166 0.0
H730 H 0.53672 0.09782 0.09324 0.0
C731 C 0.59854 0.11085 0.19033 0.0
C732 C 0.61426 0.09401 0.21024 0.0
C733 C 0.61825 0.06263 0.20569 0.0
C734 C 0.6068 0.04823 0.18189 0.0
C735 C 0.59138 0.06548 0.16277 0.0
C736 C 0.58723 0.09609 0.16672 0.0
C737 C 0.56922 0.1092 0.14342 0.0
C738 C 0.54189 0.11882 0.15655 0.0
C739 C 0.58558 0.13659 0.12529 0.0
C740 C 0.56364 0.08107 0.12594 0.0
C741 C 0.57672 0.05612 0.13737 0.0
C742 C 0.57414 0.02741 0.12525 0.0
C743 C 0.55758 0.02404 0.10093 0.0
C744 C 0.54375 0.04923 0.08903 0.0
C745 C 0.54709 0.07814 0.10169 0.0
H746 H 0.40841 0.60715 0.3299 0.0
H747 H 0.37587 0.52053 0.29516 0.0
H748 H 0.39526 0.49088 0.33602 0.0
H749 H 0.47341 0.58069 0.35346 0.0
H750 H 0.47422 0.6019 0.38556 0.0
H751 H 0.45694 0.61635 0.35409 0.0
H752 H 0.41119 0.61715 0.38484 0.0
H753 H 0.42833 0.60265 0.41639 0.0
H754 H 0.39636 0.58202 0.40518 0.0
H755 H 0.41875 0.47046 0.38061 0.0
H756 H 0.44493 0.46102 0.42503 0.0
H757 H 0.46337 0.56091 0.42983 0.0
C758 C 0.40548 0.58195 0.33069 0.0
C759 C 0.39041 0.56629 0.30921 0.0
C760 C 0.38684 0.53321 0.31149 0.0
C761 C 0.39796 0.5161 0.33456 0.0
C762 C 0.41272 0.5323 0.35525 0.0
C763 C 0.41654 0.56449 0.35351 0.0
C764 C 0.43355 0.57625 0.37836 0.0
C765 C 0.46116 0.59489 0.36719 0.0
C766 C 0.41632 0.59566 0.39731 0.0
C767 C 0.4388 0.54565 0.39429 0.0
C768 C 0.42652 0.52056 0.38068 0.0
C769 C 0.42846 0.48994 0.39144 0.0
C770 C 0.44337 0.48481 0.41673 0.0
C771 C 0.45629 0.51017 0.43098 0.0
C772 C 0.45385 0.54097 0.41947 0.0
H773 H 0.09813 0.45322 0.81686 0.0
H774 H 0.10152 0.35537 0.84339 0.0
H775 H 0.08014 0.36331 0.89084 0.0
H776 H 0.11391 0.48283 0.88726 0.0
H777 H 0.09018 0.51257 0.88345 0.0
H778 H 0.10681 0.49961 0.85184 0.0
H779 H 0.05811 0.48646 0.83027 0.0
H780 H 0.04134 0.49924 0.86185 0.0
H781 H 0.03198 0.46049 0.85086 0.0
H782 H 0.05708 0.38092 0.93435 0.0
H783 H 0.03384 0.4072 0.97206 0.0
H784 H 0.04544 0.49433 0.91835 0.0
C785 C 0.09472 0.43359 0.83283 0.0
C786 C 0.10141 0.40362 0.82639 0.0
C787 C 0.09624 0.37842 0.8477 0.0
C788 C 0.08426 0.38274 0.87477 0.0
C789 C 0.07758 0.41242 0.88028 0.0
C790 C 0.08265 0.43748 0.86002 0.0
C791 C 0.07268 0.46673 0.87135 0.0
C792 C 0.09737 0.49192 0.87361 0.0
C793 C 0.04966 0.47894 0.85246 0.0
C794 C 0.06102 0.45407 0.90103 0.0
C795 C 0.06419 0.4227 0.90566 0.0
C796 C 0.05461 0.40552 0.93107 0.0
C797 C 0.04139 0.42074 0.95238 0.0
C798 C 0.03788 0.45295 0.94833 0.0
C799 C 0.04791 0.46978 0.92222 0.0
H800 H 0.68765 0.89371 0.84735 0.0
H801 H 0.72988 0.86303 0.9244 0.0
H802 H 0.69527 0.88529 0.95472 0.0
H803 H 0.67099 0.96721 0.87298 0.0
H804 H 0.63733 0.96578 0.85642 0.0
H805 H 0.66534 0.94719 0.8405 0.0
H806 H 0.63351 0.8949 0.84294 0.0
H807 H 0.60544 0.91333 0.85889 0.0
H808 H 0.61747 0.87915 0.87711 0.0
H809 H 0.65616 0.90998 0.97685 0.0
H810 H 0.61497 0.93659 0.98957 0.0
H811 H 0.59847 0.95293 0.89839 0.0
C812 C 0.68973 0.89188 0.87058 0.0
C813 C 0.71134 0.87628 0.88348 0.0
C814 C 0.71318 0.87423 0.91401 0.0
C815 C 0.69375 0.88702 0.93144 0.0
C816 C 0.67264 0.90199 0.91807 0.0
C817 C 0.67051 0.90463 0.88837 0.0
C818 C 0.64572 0.92196 0.87964 0.0
C819 C 0.65543 0.95234 0.8613 0.0
C820 C 0.62427 0.90108 0.86371 0.0
C821 C 0.63428 0.92854 0.9091 0.0
C822 C 0.65015 0.91675 0.93092 0.0
C823 C 0.64359 0.91943 0.95997 0.0
C824 C 0.62012 0.93456 0.96696 0.0
C825 C 0.60351 0.94692 0.94499 0.0
C826 C 0.61082 0.94389 0.91567 0.0
H827 H 0.81073 0.09098 0.3648 0.0
H828 H 0.76827 0.09523 0.44799 0.0
H829 H 0.80729 0.07221 0.47231 0.0
H830 H 0.83727 0.01692 0.38116 0.0
H831 H 0.87 0.02776 0.36135 0.0
H832 H 0.83897 0.0452 0.35052 0.0
H833 H 0.86488 0.10018 0.35468 0.0
H834 H 0.89598 0.08291 0.36557 0.0
H835 H 0.88084 0.10951 0.38819 0.0
H836 H 0.8507 0.04821 0.48761 0.0
H837 H 0.89542 0.02489 0.49273 0.0
H838 H 0.90912 0.03547 0.39951 0.0
C839 C 0.80951 0.08689 0.38812 0.0
C840 C 0.78644 0.09509 0.40447 0.0
C841 C 0.7859 0.08965 0.435 0.0
C842 C 0.80789 0.07639 0.44902 0.0
C843 C 0.83028 0.06862 0.43224 0.0
C844 C 0.83125 0.07363 0.40247 0.0
C845 C 0.85766 0.06301 0.38948 0.0
C846 C 0.85054 0.03665 0.36945 0.0
C847 C 0.87592 0.09055 0.37355 0.0
C848 C 0.87134 0.05121 0.41662 0.0
C849 C 0.85523 0.05467 0.44105 0.0
C850 C 0.86352 0.04539 0.46864 0.0
C851 C 0.88896 0.03218 0.47132 0.0
C852 C 0.90581 0.02836 0.44654 0.0
C853 C 0.89677 0.03807 0.41888 0.0
H854 H 0.18552 0.60629 0.13758 0.0
H855 H 0.24569 0.57058 0.08071 0.0
H856 H 0.20697 0.54899 0.05126 0.0
H857 H 0.13553 0.53986 0.13868 0.0
H858 H 0.10541 0.56159 0.14011 0.0
H859 H 0.13796 0.57681 0.15469 0.0
H860 H 0.13731 0.62768 0.12171 0.0
H861 H 0.10481 0.61247 0.10686 0.0
H862 H 0.13468 0.62554 0.08319 0.0
H863 H 0.16151 0.53025 0.02882 0.0
H864 H 0.11297 0.51033 0.01845 0.0
H865 H 0.0823 0.55572 0.09171 0.0
C866 C 0.19043 0.59423 0.1187 0.0
C867 C 0.21845 0.59025 0.11109 0.0
C868 C 0.22426 0.57385 0.08668 0.0
C869 C 0.20245 0.56172 0.0698 0.0
C870 C 0.17495 0.56595 0.07784 0.0
C871 C 0.16886 0.58148 0.10193 0.0
C872 C 0.13747 0.58052 0.10732 0.0
C873 C 0.12858 0.56369 0.13695 0.0
C874 C 0.12802 0.61352 0.1046 0.0
C875 C 0.12686 0.56169 0.08275 0.0
C876 C 0.14879 0.55405 0.06565 0.0
C877 C 0.14417 0.53619 0.042 0.0
C878 C 0.11649 0.52512 0.03618 0.0
C879 C 0.09381 0.5315 0.05422 0.0
C880 C 0.09917 0.55055 0.07744 0.0
H881 H 0.30383 0.47207 0.64767 0.0
H882 H 0.2823 0.3929 0.59703 0.0
H883 H 0.32891 0.40122 0.57269 0.0
H884 H 0.34185 0.51988 0.59167 0.0
H885 H 0.36837 0.53622 0.61465 0.0
H886 H 0.33379 0.52317 0.62943 0.0
H887 H 0.35506 0.48687 0.66799 0.0
H888 H 0.38974 0.49983 0.6533 0.0
H889 H 0.3777 0.45884 0.65661 0.0
H890 H 0.37628 0.41967 0.5516 0.0
H891 H 0.42223 0.44713 0.53544 0.0
H892 H 0.41418 0.51351 0.60041 0.0
C893 C 0.30911 0.45629 0.63173 0.0
C894 C 0.28932 0.43202 0.62405 0.0
C895 C 0.29692 0.412 0.60289 0.0
C896 C 0.32343 0.41636 0.5891 0.0
C897 C 0.34228 0.44073 0.59679 0.0
C898 C 0.33559 0.46033 0.61766 0.0
C899 C 0.35951 0.48541 0.62102 0.0
C900 C 0.35032 0.51809 0.61375 0.0
C901 C 0.37119 0.48255 0.65155 0.0
C902 C 0.38041 0.47703 0.59851 0.0
C903 C 0.37003 0.45111 0.58486 0.0
C904 C 0.38482 0.43979 0.56232 0.0
C905 C 0.41085 0.45555 0.55326 0.0
C906 C 0.42185 0.48225 0.56681 0.0
C907 C 0.40652 0.49284 0.58996 0.0
H908 H 0.91107 0.68737 0.86925 0.0
H909 H 0.91085 0.75586 0.93322 0.0
H910 H 0.93785 0.72313 0.9657 0.0
H911 H 0.90057 0.6214 0.91822 0.0
H912 H 0.92285 0.59832 0.89873 0.0
H913 H 0.90581 0.62843 0.8796 0.0
H914 H 0.95394 0.65397 0.85862 0.0
H915 H 0.97116 0.62388 0.87772 0.0
H916 H 0.9816 0.6643 0.88286 0.0
H917 H 0.96214 0.68132 0.99238 0.0
H918 H 0.98071 0.633 0.0117 0.0
H919 H 0.96513 0.59222 0.92999 0.0
C920 C 0.91722 0.69577 0.88984 0.0
C921 C 0.90898 0.72417 0.89871 0.0
C922 C 0.91682 0.73405 0.92611 0.0
C923 C 0.93231 0.71574 0.9446 0.0
C924 C 0.93982 0.68767 0.93533 0.0
C925 C 0.93255 0.67774 0.90858 0.0
C926 C 0.94162 0.64576 0.90452 0.0
C927 C 0.9162 0.62209 0.90002 0.0
C928 C 0.96338 0.64707 0.87944 0.0
C929 C 0.95469 0.63901 0.93335 0.0
C930 C 0.9537 0.66357 0.95073 0.0
C931 C 0.96331 0.66206 0.97886 0.0
C932 C 0.97383 0.63452 0.98964 0.0
C933 C 0.9745 0.60886 0.97235 0.0
C934 C 0.96518 0.61149 0.9437 0.0
H935 H 0.38536 0.81698 0.11105 0.0
H936 H 0.45629 0.76663 0.13493 0.0
H937 H 0.48846 0.80871 0.11025 0.0
H938 H 0.41252 0.84605 0.04 0.0
H939 H 0.39911 0.88344 0.04137 0.0
H940 H 0.3813 0.84967 0.06143 0.0
H941 H 0.38536 0.87834 0.1086 0.0
H942 H 0.40314 0.91219 0.08863 0.0
H943 H 0.41935 0.89438 0.11934 0.0
H944 H 0.51303 0.85526 0.08289 0.0
H945 H 0.52896 0.90442 0.05471 0.0
H946 H 0.44258 0.9254 0.04742 0.0
C947 C 0.40765 0.81479 0.111 0.0
C948 C 0.41828 0.78853 0.1252 0.0
C949 C 0.44763 0.7867 0.12475 0.0
C950 C 0.46609 0.8104 0.11059 0.0
C951 C 0.45498 0.83588 0.09689 0.0
C952 C 0.42649 0.83836 0.09696 0.0
C953 C 0.42023 0.86837 0.08046 0.0
C954 C 0.40222 0.86146 0.05426 0.0
C955 C 0.40619 0.88957 0.10046 0.0
C956 C 0.44966 0.88219 0.07104 0.0
C957 C 0.46931 0.86298 0.08083 0.0
C958 C 0.49787 0.87054 0.0751 0.0
C959 C 0.5067 0.89858 0.05904 0.0
C960 C 0.48706 0.91886 0.04878 0.0
C961 C 0.45811 0.9104 0.05485 0.0
H962 H 0.0756 0.22396 0.62866 0.0
H963 H 0.15524 0.25712 0.58495 0.0
H964 H 0.15276 0.21009 0.55787 0.0
H965 H 0.0879 0.14283 0.63609 0.0
H966 H 0.05216 0.12851 0.62967 0.0
H967 H 0.05966 0.16521 0.64544 0.0
H968 H 0.03307 0.19261 0.60468 0.0
H969 H 0.02555 0.156 0.58874 0.0
H970 H 0.04318 0.18905 0.56746 0.0
H971 H 0.14262 0.15983 0.5361 0.0
H972 H 0.1253 0.10825 0.52075 0.0
H973 H 0.05207 0.10639 0.57814 0.0
C974 C 0.09249 0.22125 0.61341 0.0
C975 C 0.11543 0.24448 0.60864 0.0
C976 C 0.13714 0.24005 0.5885 0.0
C977 C 0.13604 0.21331 0.57312 0.0
C978 C 0.11311 0.19106 0.5781 0.0
C979 C 0.09171 0.1946 0.59772 0.0
C980 C 0.06961 0.16678 0.59897 0.0
C981 C 0.0672 0.14983 0.62935 0.0
C982 C 0.04117 0.17671 0.58939 0.0
C983 C 0.0821 0.14712 0.5771 0.0
C984 C 0.10719 0.16168 0.56538 0.0
C985 C 0.12297 0.14816 0.54505 0.0
C986 C 0.11295 0.1188 0.53651 0.0
C987 C 0.08734 0.10325 0.54823 0.0
C988 C 0.07165 0.11777 0.56868 0.0
H989 H 0.589 0.2936 0.38714 0.0
H990 H 0.58635 0.22254 0.45831 0.0
H991 H 0.5604 0.25537 0.48869 0.0
H992 H 0.60058 0.35852 0.42957 0.0
H993 H 0.57908 0.38291 0.40855 0.0
H994 H 0.5959 0.35307 0.39176 0.0
H995 H 0.54779 0.32925 0.37501 0.0
H996 H 0.53082 0.35908 0.39173 0.0
H997 H 0.51956 0.31854 0.40132 0.0
H998 H 0.53632 0.2965 0.51189 0.0
H999 H 0.51672 0.34378 0.52676 0.0
H1000 H 0.53524 0.38843 0.44065 0.0
C1001 C 0.58257 0.2848 0.40897 0.0
C1002 C 0.58965 0.25552 0.42039 0.0
C1003 C 0.58132 0.24501 0.44923 0.0
C1004 C 0.56645 0.2634 0.46659 0.0
C1005 C 0.56005 0.29227 0.4548 0.0
C1006 C 0.56784 0.30297 0.42668 0.0
C1007 C 0.55942 0.33547 0.41975 0.0
C1008 C 0.58529 0.35887 0.41196 0.0
C1009 C 0.53813 0.33557 0.39551 0.0
C1010 C 0.54596 0.34147 0.44845 0.0
C1011 C 0.54635 0.31615 0.46829 0.0
C1012 C 0.53573 0.31642 0.4965 0.0
C1013 C 0.52463 0.3434 0.50474 0.0
C1014 C 0.52435 0.36982 0.48489 0.0
C1015 C 0.53498 0.3686 0.45631 0.0
loop_
_geom_bond_atom_site_label_1
_geom_bond_atom_site_label_2
_geom_bond_distance
_geom_bond_site_symmetry_2
_ccdc_geom_bond_type
C0 C1 1.384 . S
C0 H13 0.947 . S
C0 C35 1.382 . S
C1 C0 1.384 . S
C1 C2 1.378 . S
C2 C1 1.378 . S
C2 C3 1.378 . S
C2 H14 0.952 . S
C3 C2 1.378 . S
C3 H15 0.950 . S
C3 C34 1.383 . S
H4 C23 0.947 . S
H5 C24 0.946 . S
H6 C26 0.953 . S
H7 C27 0.945 . S
H8 C29 0.952 . S
H9 C30 0.949 . S
H10 C32 0.950 . S
H11 C33 0.948 . S
H12 C35 0.951 . S
H13 C0 0.947 . S
H14 C2 0.952 . S
H15 C3 0.950 . S
N16 C19 1.382 . S
N16 C21 1.363 . S
N17 C19 1.371 . S
N17 C20 1.372 . S
N18 C20 1.361 . S
N18 C21 1.377 . S
C19 N16 1.382 . S
C19 N17 1.371 . S
C19 C22 1.480 . S
C20 N17 1.372 . S
C20 N18 1.361 . S
C20 C28 1.457 . S
C21 N16 1.363 . S
C21 N18 1.377 . S
C21 C34 1.479 . S
C22 C19 1.480 . S
C22 C23 1.383 . S
C22 C27 1.385 . S
C23 H4 0.947 . S
C23 C22 1.383 . S
C23 C24 1.388 . S
C24 H5 0.946 . S
C24 C23 1.388 . S
C24 C25 1.384 . S
C25 C24 1.384 . S
C25 C26 1.377 . S
C26 H6 0.953 . S
C26 C25 1.377 . S
C26 C27 1.369 . S
C27 H7 0.945 . S
C27 C22 1.385 . S
C27 C26 1.369 . S
C28 C20 1.457 . S
C28 C29 1.372 . S
C28 C33 1.364 . S
C29 H8 0.952 . S
C29 C28 1.372 . S
C29 C30 1.389 . S
C30 H9 0.949 . S
C30 C29 1.389 . S
C30 C31 1.387 . S
C31 C30 1.387 . S
C31 C32 1.372 . S
C32 H10 0.950 . S
C32 C31 1.372 . S
C32 C33 1.379 . S
C33 H11 0.948 . S
C33 C28 1.364 . S
C33 C32 1.379 . S
C34 C3 1.383 . S
C34 C21 1.479 . S
C34 C35 1.398 . S
C35 C0 1.382 . S
C35 H12 0.951 . S
C35 C34 1.398 . S
C36 C37 1.384 . S
C36 H49 0.947 . S
C36 C71 1.382 . S
C37 C36 1.384 . S
C37 C38 1.378 . S
C38 C37 1.378 . S
C38 C39 1.378 . S
C38 H50 0.952 . S
C39 C38 1.378 . S
C39 H51 0.950 . S
C39 C70 1.383 . S
H40 C59 0.947 . S
H41 C60 0.946 . S
H42 C62 0.953 . S
H43 C63 0.945 . S
H44 C65 0.952 . S
H45 C66 0.949 . S
H46 C68 0.950 . S
H47 C69 0.948 . S
H48 C71 0.951 . S
H49 C36 0.947 . S
H50 C38 0.952 . S
H51 C39 0.950 . S
N52 C55 1.382 . S
N52 C57 1.363 . S
N53 C55 1.371 . S
N53 C56 1.372 . S
N54 C56 1.361 . S
N54 C57 1.377 . S
C55 N52 1.382 . S
C55 N53 1.371 . S
C55 C58 1.480 . S
C56 N53 1.372 . S
C56 N54 1.361 . S
C56 C64 1.457 . S
C57 N52 1.363 . S
C57 N54 1.377 . S
C57 C70 1.479 . S
C58 C55 1.480 . S
C58 C59 1.383 . S
C58 C63 1.385 . S
C59 H40 0.947 . S
C59 C58 1.383 . S
C59 C60 1.388 . S
C60 H41 0.946 . S
C60 C59 1.388 . S
C60 C61 1.384 . S
C61 C60 1.384 . S
C61 C62 1.377 . S
C62 H42 0.953 . S
C62 C61 1.377 . S
C62 C63 1.369 . S
C63 H43 0.945 . S
C63 C58 1.385 . S
C63 C62 1.369 . S
C64 C56 1.457 . S
C64 C65 1.372 . S
C64 C69 1.364 . S
C65 H44 0.952 . S
C65 C64 1.372 . S
C65 C66 1.389 . S
C66 H45 0.949 . S
C66 C65 1.389 . S
C66 C67 1.387 . S
C67 C66 1.387 . S
C67 C68 1.372 . S
C68 H46 0.950 . S
C68 C67 1.372 . S
C68 C69 1.379 . S
C69 H47 0.948 . S
C69 C64 1.364 . S
C69 C68 1.379 . S
C70 C39 1.383 . S
C70 C57 1.479 . S
C70 C71 1.398 . S
C71 C36 1.382 . S
C71 H48 0.951 . S
C71 C70 1.398 . S
C72 C73 1.384 . S
C72 H85 0.947 . S
C72 C107 1.382 . S
C73 C72 1.384 . S
C73 C74 1.378 . S
C74 C73 1.378 . S
C74 C75 1.378 . S
C74 H86 0.952 . S
C75 C74 1.378 . S
C75 H87 0.950 . S
C75 C106 1.383 . S
H76 C95 0.947 . S
H77 C96 0.946 . S
H78 C98 0.953 . S
H79 C99 0.945 . S
H80 C101 0.952 . S
H81 C102 0.949 . S
H82 C104 0.950 . S
H83 C105 0.948 . S
H84 C107 0.951 . S
H85 C72 0.947 . S
H86 C74 0.952 . S
H87 C75 0.950 . S
N88 C91 1.382 . S
N88 C93 1.363 . S
N89 C91 1.371 . S
N89 C92 1.372 . S
N90 C92 1.361 . S
N90 C93 1.377 . S
C91 N88 1.382 . S
C91 N89 1.371 . S
C91 C94 1.480 . S
C92 N89 1.372 . S
C92 N90 1.361 . S
C92 C100 1.457 . S
C93 N88 1.363 . S
C93 N90 1.377 . S
C93 C106 1.479 . S
C94 C91 1.480 . S
C94 C95 1.383 . S
C94 C99 1.385 . S
C95 H76 0.947 . S
C95 C94 1.383 . S
C95 C96 1.388 . S
C96 H77 0.946 . S
C96 C95 1.388 . S
C96 C97 1.384 . S
C97 C96 1.384 . S
C97 C98 1.377 . S
C98 H78 0.953 . S
C98 C97 1.377 . S
C98 C99 1.369 . S
C99 H79 0.945 . S
C99 C94 1.385 . S
C99 C98 1.369 . S
C100 C92 1.457 . S
C100 C101 1.372 . S
C100 C105 1.364 . S
C101 H80 0.952 . S
C101 C100 1.372 . S
C101 C102 1.389 . S
C102 H81 0.949 . S
C102 C101 1.389 . S
C102 C103 1.387 . S
C103 C102 1.387 . S
C103 C104 1.372 . S
C104 H82 0.950 . S
C104 C103 1.372 . S
C104 C105 1.379 . S
C105 H83 0.948 . S
C105 C100 1.364 . S
C105 C104 1.379 . S
C106 C75 1.383 . S
C106 C93 1.479 . S
C106 C107 1.398 . S
C107 C72 1.382 . S
C107 H84 0.951 . S
C107 C106 1.398 . S
C108 C109 1.384 . S
C108 H121 0.947 . S
C108 C143 1.382 . S
C109 C108 1.384 . S
C109 C110 1.378 . S
C110 C109 1.378 . S
C110 C111 1.378 . S
C110 H122 0.952 . S
C111 C110 1.378 . S
C111 H123 0.950 . S
C111 C142 1.383 . S
H112 C131 0.947 . S
H113 C132 0.946 . S
H114 C134 0.953 . S
H115 C135 0.945 . S
H116 C137 0.952 . S
H117 C138 0.949 . S
H118 C140 0.950 . S
H119 C141 0.948 . S
H120 C143 0.951 . S
H121 C108 0.947 . S
H122 C110 0.952 . S
H123 C111 0.950 . S
N124 C127 1.382 . S
N124 C129 1.363 . S
N125 C127 1.371 . S
N125 C128 1.372 . S
N126 C128 1.361 . S
N126 C129 1.377 . S
C127 N124 1.382 . S
C127 N125 1.371 . S
C127 C130 1.480 . S
C128 N125 1.372 . S
C128 N126 1.361 . S
C128 C136 1.457 . S
C129 N124 1.363 . S
C129 N126 1.377 . S
C129 C142 1.479 . S
C130 C127 1.480 . S
C130 C131 1.383 . S
C130 C135 1.385 . S
C131 H112 0.947 . S
C131 C130 1.383 . S
C131 C132 1.388 . S
C132 H113 0.946 . S
C132 C131 1.388 . S
C132 C133 1.384 . S
C133 C132 1.384 . S
C133 C134 1.377 . S
C134 H114 0.953 . S
C134 C133 1.377 . S
C134 C135 1.369 . S
C135 H115 0.945 . S
C135 C130 1.385 . S
C135 C134 1.369 . S
C136 C128 1.457 . S
C136 C137 1.372 . S
C136 C141 1.364 . S
C137 H116 0.952 . S
C137 C136 1.372 . S
C137 C138 1.389 . S
C138 H117 0.949 . S
C138 C137 1.389 . S
C138 C139 1.387 . S
C139 C138 1.387 . S
C139 C140 1.372 . S
C140 H118 0.950 . S
C140 C139 1.372 . S
C140 C141 1.379 . S
C141 H119 0.948 . S
C141 C136 1.364 . S
C141 C140 1.379 . S
C142 C111 1.383 . S
C142 C129 1.479 . S
C142 C143 1.398 . S
C143 C108 1.382 . S
C143 H120 0.951 . S
C143 C142 1.398 . S
C144 C145 1.384 . S
C144 H157 0.947 . S
C144 C179 1.382 . S
C145 C144 1.384 . S
C145 C146 1.378 . S
C146 C145 1.378 . S
C146 C147 1.378 . S
C146 H158 0.952 . S
C147 C146 1.378 . S
C147 H159 0.950 . S
C147 C178 1.383 . S
H148 C167 0.947 . S
H149 C168 0.946 . S
H150 C170 0.953 . S
H151 C171 0.945 . S
H152 C173 0.952 . S
H153 C174 0.949 . S
H154 C176 0.950 . S
H155 C177 0.948 . S
H156 C179 0.951 . S
H157 C144 0.947 . S
H158 C146 0.952 . S
H159 C147 0.950 . S
N160 C163 1.382 . S
N160 C165 1.363 . S
N161 C163 1.371 . S
N161 C164 1.372 . S
N162 C164 1.361 . S
N162 C165 1.377 . S
C163 N160 1.382 . S
C163 N161 1.371 . S
C163 C166 1.480 . S
C164 N161 1.372 . S
C164 N162 1.361 . S
C164 C172 1.457 . S
C165 N160 1.363 . S
C165 N162 1.377 . S
C165 C178 1.479 . S
C166 C163 1.480 . S
C166 C167 1.383 . S
C166 C171 1.385 . S
C167 H148 0.947 . S
C167 C166 1.383 . S
C167 C168 1.388 . S
C168 H149 0.946 . S
C168 C167 1.388 . S
C168 C169 1.384 . S
C169 C168 1.384 . S
C169 C170 1.377 . S
C170 H150 0.953 . S
C170 C169 1.377 . S
C170 C171 1.369 . S
C171 H151 0.945 . S
C171 C166 1.385 . S
C171 C170 1.369 . S
C172 C164 1.457 . S
C172 C173 1.372 . S
C172 C177 1.364 . S
C173 H152 0.952 . S
C173 C172 1.372 . S
C173 C174 1.389 . S
C174 H153 0.949 . S
C174 C173 1.389 . S
C174 C175 1.387 . S
C175 C174 1.387 . S
C175 C176 1.372 . S
C176 H154 0.950 . S
C176 C175 1.372 . S
C176 C177 1.379 . S
C177 H155 0.948 . S
C177 C172 1.364 . S
C177 C176 1.379 . S
C178 C147 1.383 . S
C178 C165 1.479 . S
C178 C179 1.398 . S
C179 C144 1.382 . S
C179 H156 0.951 . S
C179 C178 1.398 . S
C180 C181 1.384 . S
C180 H193 0.947 . S
C180 C215 1.382 . S
C181 C180 1.384 . S
C181 C182 1.378 . S
C182 C181 1.378 . S
C182 C183 1.378 . S
C182 H194 0.952 . S
C183 C182 1.378 . S
C183 H195 0.950 . S
C183 C214 1.383 . S
H184 C203 0.947 . S
H185 C204 0.946 . S
H186 C206 0.953 . S
H187 C207 0.945 . S
H188 C209 0.952 . S
H189 C210 0.949 . S
H190 C212 0.950 . S
H191 C213 0.948 . S
H192 C215 0.951 . S
H193 C180 0.947 . S
H194 C182 0.952 . S
H195 C183 0.950 . S
N196 C199 1.382 . S
N196 C201 1.363 . S
N197 C199 1.371 . S
N197 C200 1.372 . S
N198 C200 1.361 . S
N198 C201 1.377 . S
C199 N196 1.382 . S
C199 N197 1.371 . S
C199 C202 1.480 . S
C200 N197 1.372 . S
C200 N198 1.361 . S
C200 C208 1.457 . S
C201 N196 1.363 . S
C201 N198 1.377 . S
C201 C214 1.479 . S
C202 C199 1.480 . S
C202 C203 1.383 . S
C202 C207 1.385 . S
C203 H184 0.947 . S
C203 C202 1.383 . S
C203 C204 1.388 . S
C204 H185 0.946 . S
C204 C203 1.388 . S
C204 C205 1.384 . S
C205 C204 1.384 . S
C205 C206 1.377 . S
C206 H186 0.953 . S
C206 C205 1.377 . S
C206 C207 1.369 . S
C207 H187 0.945 . S
C207 C202 1.385 . S
C207 C206 1.369 . S
C208 C200 1.457 . S
C208 C209 1.372 . S
C208 C213 1.364 . S
C209 H188 0.952 . S
C209 C208 1.372 . S
C209 C210 1.389 . S
C210 H189 0.949 . S
C210 C209 1.389 . S
C210 C211 1.387 . S
C211 C210 1.387 . S
C211 C212 1.372 . S
C212 H190 0.950 . S
C212 C211 1.372 . S
C212 C213 1.379 . S
C213 H191 0.948 . S
C213 C208 1.364 . S
C213 C212 1.379 . S
C214 C183 1.383 . S
C214 C201 1.479 . S
C214 C215 1.398 . S
C215 C180 1.382 . S
C215 H192 0.951 . S
C215 C214 1.398 . S
C216 C217 1.384 . S
C216 H229 0.947 . S
C216 C251 1.382 . S
C217 C216 1.384 . S
C217 C218 1.378 . S
C218 C217 1.378 . S
C218 C219 1.378 . S
C218 H230 0.952 . S
C219 C218 1.378 . S
C219 H231 0.950 . S
C219 C250 1.383 . S
H220 C239 0.947 . S
H221 C240 0.946 . S
H222 C242 0.953 . S
H223 C243 0.945 . S
H224 C245 0.952 . S
H225 C246 0.949 . S
H226 C248 0.950 . S
H227 C249 0.948 . S
H228 C251 0.951 . S
H229 C216 0.947 . S
H230 C218 0.952 . S
H231 C219 0.950 . S
N232 C235 1.382 . S
N232 C237 1.363 . S
N233 C235 1.371 . S
N233 C236 1.372 . S
N234 C236 1.361 . S
N234 C237 1.377 . S
C235 N232 1.382 . S
C235 N233 1.371 . S
C235 C238 1.480 . S
C236 N233 1.372 . S
C236 N234 1.361 . S
C236 C244 1.457 . S
C237 N232 1.363 . S
C237 N234 1.377 . S
C237 C250 1.479 . S
C238 C235 1.480 . S
C238 C239 1.383 . S
C238 C243 1.385 . S
C239 H220 0.947 . S
C239 C238 1.383 . S
C239 C240 1.388 . S
C240 H221 0.946 . S
C240 C239 1.388 . S
C240 C241 1.384 . S
C241 C240 1.384 . S
C241 C242 1.377 . S
C242 H222 0.953 . S
C242 C241 1.377 . S
C242 C243 1.369 . S
C243 H223 0.945 . S
C243 C238 1.385 . S
C243 C242 1.369 . S
C244 C236 1.457 . S
C244 C245 1.372 . S
C244 C249 1.364 . S
C245 H224 0.952 . S
C245 C244 1.372 . S
C245 C246 1.389 . S
C246 H225 0.949 . S
C246 C245 1.389 . S
C246 C247 1.387 . S
C247 C246 1.387 . S
C247 C248 1.372 . S
C248 H226 0.950 . S
C248 C247 1.372 . S
C248 C249 1.379 . S
C249 H227 0.948 . S
C249 C244 1.364 . S
C249 C248 1.379 . S
C250 C219 1.383 . S
C250 C237 1.479 . S
C250 C251 1.398 . S
C251 C216 1.382 . S
C251 H228 0.951 . S
C251 C250 1.398 . S
C252 C253 1.384 . S
C252 H265 0.947 . S
C252 C287 1.382 . S
C253 C252 1.384 . S
C253 C254 1.378 . S
C254 C253 1.378 . S
C254 C255 1.378 . S
C254 H266 0.952 . S
C255 C254 1.378 . S
C255 H267 0.950 . S
C255 C286 1.383 . S
H256 C275 0.947 . S
H257 C276 0.946 . S
H258 C278 0.953 . S
H259 C279 0.945 . S
H260 C281 0.952 . S
H261 C282 0.949 . S
H262 C284 0.950 . S
H263 C285 0.948 . S
H264 C287 0.951 . S
H265 C252 0.947 . S
H266 C254 0.952 . S
H267 C255 0.950 . S
N268 C271 1.382 . S
N268 C273 1.363 . S
N269 C271 1.371 . S
N269 C272 1.372 . S
N270 C272 1.361 . S
N270 C273 1.377 . S
C271 N268 1.382 . S
C271 N269 1.371 . S
C271 C274 1.480 . S
C272 N269 1.372 . S
C272 N270 1.361 . S
C272 C280 1.457 . S
C273 N268 1.363 . S
C273 N270 1.377 . S
C273 C286 1.479 . S
C274 C271 1.480 . S
C274 C275 1.383 . S
C274 C279 1.385 . S
C275 H256 0.947 . S
C275 C274 1.383 . S
C275 C276 1.388 . S
C276 H257 0.946 . S
C276 C275 1.388 . S
C276 C277 1.384 . S
C277 C276 1.384 . S
C277 C278 1.377 . S
C278 H258 0.953 . S
C278 C277 1.377 . S
C278 C279 1.369 . S
C279 H259 0.945 . S
C279 C274 1.385 . S
C279 C278 1.369 . S
C280 C272 1.457 . S
C280 C281 1.372 . S
C280 C285 1.364 . S
C281 H260 0.952 . S
C281 C280 1.372 . S
C281 C282 1.389 . S
C282 H261 0.949 . S
C282 C281 1.389 . S
C282 C283 1.387 . S
C283 C282 1.387 . S
C283 C284 1.372 . S
C284 H262 0.950 . S
C284 C283 1.372 . S
C284 C285 1.379 . S
C285 H263 0.948 . S
C285 C280 1.364 . S
C285 C284 1.379 . S
C286 C255 1.383 . S
C286 C273 1.479 . S
C286 C287 1.398 . S
C287 C252 1.382 . S
C287 H264 0.951 . S
C287 C286 1.398 . S
Zn288 O294 1.969 1_545 S
Zn288 O295 1.965 1_545 S
Zn288 O299 2.024 . S
Zn288 O304 1.969 . S
Zn289 O296 1.969 . S
Zn289 O302 1.969 1_565 S
Zn289 O303 1.947 1_665 S
Zn289 O305 2.024 . S
C290 O291 1.229 . S
C290 O299 1.058 . S
O291 C290 1.229 . S
C292 O293 1.229 . S
C292 O305 1.058 . S
O293 C292 1.229 . S
O294 Zn288 1.969 1_565 S
O294 C297 1.267 . S
O295 Zn288 1.965 1_565 S
O295 C306 1.260 1_455 S
O296 Zn289 1.969 . S
O296 C306 1.258 . S
C297 O294 1.267 . S
C297 O298 1.228 . S
O298 C297 1.228 . S
O299 Zn288 2.024 . S
O299 C290 1.058 . S
C300 O301 1.228 . S
C300 O302 1.267 . S
O301 C300 1.228 . S
O302 Zn289 1.969 1_545 S
O302 C300 1.267 . S
O303 Zn289 1.947 1_445 S
O303 C307 1.283 . S
O304 Zn288 1.969 . S
O304 C307 1.258 . S
O305 Zn289 2.024 . S
O305 C292 1.058 . S
C306 O295 1.260 1_655 S
C306 O296 1.258 . S
C307 O303 1.283 . S
C307 O304 1.258 . S
Zn308 O314 1.969 . S
Zn308 O315 1.965 1_565 S
Zn308 O319 2.024 . S
Zn308 O324 1.969 1_556 S
Zn309 O316 1.969 . S
Zn309 O322 1.969 . S
Zn309 O323 1.965 1_545 S
Zn309 O325 2.024 . S
C310 O311 1.229 . S
C310 O319 1.058 . S
O311 C310 1.229 . S
C312 O313 1.229 . S
C312 O325 1.058 . S
O313 C312 1.229 . S
O314 Zn308 1.969 . S
O314 C317 1.267 . S
O315 Zn308 1.965 1_545 S
O315 C326 1.260 . S
O316 Zn309 1.969 . S
O316 C326 1.258 1_554 S
C317 O314 1.267 . S
C317 O318 1.228 . S
O318 C317 1.228 . S
O319 Zn308 2.024 . S
O319 C310 1.058 . S
C320 O321 1.228 . S
C320 O322 1.267 . S
O321 C320 1.228 . S
O322 Zn309 1.969 . S
O322 C320 1.267 . S
O323 Zn309 1.965 1_565 S
O323 C327 1.260 . S
O324 Zn308 1.969 1_554 S
O324 C327 1.258 . S
O325 Zn309 2.024 . S
O325 C312 1.058 . S
C326 O315 1.260 . S
C326 O316 1.258 1_556 S
C327 O323 1.260 . S
C327 O324 1.258 . S
Zn328 O334 1.969 . S
Zn328 O335 1.965 . S
Zn328 O339 2.024 . S
Zn328 O344 1.969 . S
Zn329 O336 1.969 . S
Zn329 O342 1.969 . S
Zn329 O343 1.965 . S
Zn329 O345 2.024 . S
C330 O331 1.229 . S
C330 O339 1.058 . S
O331 C330 1.229 . S
C332 O333 1.229 . S
C332 O345 1.058 . S
O333 C332 1.229 . S
O334 Zn328 1.969 . S
O334 C337 1.267 . S
O335 Zn328 1.965 . S
O335 C346 1.260 . S
O336 Zn329 1.969 . S
O336 C346 1.258 . S
C337 O334 1.267 . S
C337 O338 1.228 . S
O338 C337 1.228 . S
O339 Zn328 2.024 . S
O339 C330 1.058 . S
C340 O341 1.228 . S
C340 O342 1.267 . S
O341 C340 1.228 . S
O342 Zn329 1.969 . S
O342 C340 1.267 . S
O343 Zn329 1.965 . S
O343 C347 1.260 . S
O344 Zn328 1.969 . S
O344 C347 1.258 . S
O345 Zn329 2.024 . S
O345 C332 1.058 . S
C346 O335 1.260 . S
C346 O336 1.258 . S
C347 O343 1.260 . S
C347 O344 1.258 . S
Zn348 O354 1.969 . S
Zn348 O355 1.965 1_556 S
Zn348 O359 2.024 . S
Zn348 O364 1.969 1_655 S
Zn349 O356 1.969 . S
Zn349 O362 1.969 . S
Zn349 O363 1.965 1_554 S
Zn349 O365 2.024 . S
C350 O351 1.229 . S
C350 O359 1.058 . S
O351 C350 1.229 . S
C352 O353 1.229 . S
C352 O365 1.058 . S
O353 C352 1.229 . S
O354 Zn348 1.969 . S
O354 C357 1.267 . S
O355 Zn348 1.965 1_554 S
O355 C366 1.260 . S
O356 Zn349 1.969 . S
O356 C366 1.258 1_455 S
C357 O354 1.267 . S
C357 O358 1.228 . S
O358 C357 1.228 . S
O359 Zn348 2.024 . S
O359 C350 1.058 . S
C360 O361 1.228 . S
C360 O362 1.267 . S
O361 C360 1.228 . S
O362 Zn349 1.969 . S
O362 C360 1.267 . S
O363 Zn349 1.965 1_556 S
O363 C367 1.260 . S
O364 Zn348 1.969 1_455 S
O364 C367 1.258 . S
O365 Zn349 2.024 . S
O365 C352 1.058 . S
C366 O355 1.260 . S
C366 O356 1.258 1_655 S
C367 O363 1.260 . S
C367 O364 1.258 . S
H368 C380 0.930 . S
H369 C382 0.930 . S
H370 C383 0.930 . S
H371 C387 0.959 . S
H372 C387 0.959 . S
H373 C387 0.961 . S
H374 C388 0.960 . S
H375 C388 0.961 . S
H376 C388 0.959 . S
H377 C391 0.929 . S
H378 C392 0.931 . S
H379 C394 0.930 . S
C380 H368 0.930 . S
C380 C381 1.399 . S
C380 C385 1.399 . S
C381 C380 1.399 . S
C381 C382 1.376 . S
C382 H369 0.930 . S
C382 C381 1.376 . S
C382 C383 1.388 . S
C383 H370 0.930 . S
C383 C382 1.388 . S
C383 C384 1.390 . S
C384 C383 1.390 . S
C384 C385 1.394 . S
C384 C390 1.465 . S
C385 C380 1.399 . S
C385 C384 1.394 . S
C385 C386 1.516 . S
C386 C385 1.516 . S
C386 C387 1.502 . S
C386 C388 1.561 . S
C386 C389 1.526 . S
C387 H371 0.959 . S
C387 H372 0.959 . S
C387 H373 0.961 . S
C387 C386 1.502 . S
C388 H374 0.960 . S
C388 H375 0.961 . S
C388 H376 0.959 . S
C388 C386 1.561 . S
C389 C386 1.526 . S
C389 C390 1.396 . S
C389 C394 1.390 . S
C390 C384 1.465 . S
C390 C389 1.396 . S
C390 C391 1.399 . S
C391 H377 0.929 . S
C391 C390 1.399 . S
C391 C392 1.385 . S
C392 H378 0.931 . S
C392 C391 1.385 . S
C392 C393 1.389 . S
C393 C392 1.389 . S
C393 C394 1.387 . S
C394 H379 0.930 . S
C394 C389 1.390 . S
C394 C393 1.387 . S
H395 C407 0.930 . S
H396 C409 0.930 . S
H397 C410 0.930 . S
H398 C414 0.959 . S
H399 C414 0.959 . S
H400 C414 0.961 . S
H401 C415 0.960 . S
H402 C415 0.961 . S
H403 C415 0.959 . S
H404 C418 0.929 . S
H405 C419 0.931 . S
H406 C421 0.930 . S
C407 H395 0.930 . S
C407 C408 1.399 . S
C407 C412 1.399 . S
C408 C407 1.399 . S
C408 C409 1.376 . S
C409 H396 0.930 . S
C409 C408 1.376 . S
C409 C410 1.388 . S
C410 H397 0.930 . S
C410 C409 1.388 . S
C410 C411 1.390 . S
C411 C410 1.390 . S
C411 C412 1.394 . S
C411 C417 1.465 . S
C412 C407 1.399 . S
C412 C411 1.394 . S
C412 C413 1.516 . S
C413 C412 1.516 . S
C413 C414 1.502 . S
C413 C415 1.561 . S
C413 C416 1.526 . S
C414 H398 0.959 . S
C414 H399 0.959 . S
C414 H400 0.961 . S
C414 C413 1.502 . S
C415 H401 0.960 . S
C415 H402 0.961 . S
C415 H403 0.959 . S
C415 C413 1.561 . S
C416 C413 1.526 . S
C416 C417 1.396 . S
C416 C421 1.390 . S
C417 C411 1.465 . S
C417 C416 1.396 . S
C417 C418 1.399 . S
C418 H404 0.929 . S
C418 C417 1.399 . S
C418 C419 1.385 . S
C419 H405 0.931 . S
C419 C418 1.385 . S
C419 C420 1.389 . S
C420 C419 1.389 . S
C420 C421 1.387 . S
C421 H406 0.930 . S
C421 C416 1.390 . S
C421 C420 1.387 . S
H422 C434 0.930 . S
H423 C436 0.930 . S
H424 C437 0.930 . S
H425 C441 0.959 . S
H426 C441 0.959 . S
H427 C441 0.961 . S
H428 C442 0.960 . S
H429 C442 0.961 . S
H430 C442 0.959 . S
H431 C445 0.929 . S
H432 C446 0.931 . S
H433 C448 0.930 . S
C434 H422 0.930 . S
C434 C435 1.399 . S
C434 C439 1.399 . S
C435 C434 1.399 . S
C435 C436 1.376 . S
C436 H423 0.930 . S
C436 C435 1.376 . S
C436 C437 1.388 . S
C437 H424 0.930 . S
C437 C436 1.388 . S
C437 C438 1.390 . S
C438 C437 1.390 . S
C438 C439 1.394 . S
C438 C444 1.465 . S
C439 C434 1.399 . S
C439 C438 1.394 . S
C439 C440 1.516 . S
C440 C439 1.516 . S
C440 C441 1.502 . S
C440 C442 1.561 . S
C440 C443 1.526 . S
C441 H425 0.959 . S
C441 H426 0.959 . S
C441 H427 0.961 . S
C441 C440 1.502 . S
C442 H428 0.960 . S
C442 H429 0.961 . S
C442 H430 0.959 . S
C442 C440 1.561 . S
C443 C440 1.526 . S
C443 C444 1.396 . S
C443 C448 1.390 . S
C444 C438 1.465 . S
C444 C443 1.396 . S
C444 C445 1.399 . S
C445 H431 0.929 . S
C445 C444 1.399 . S
C445 C446 1.385 . S
C446 H432 0.931 . S
C446 C445 1.385 . S
C446 C447 1.389 . S
C447 C446 1.389 . S
C447 C448 1.387 . S
C448 H433 0.930 . S
C448 C443 1.390 . S
C448 C447 1.387 . S
H449 C461 0.930 . S
H450 C463 0.930 . S
H451 C464 0.930 . S
H452 C468 0.959 . S
H453 C468 0.959 . S
H454 C468 0.961 . S
H455 C469 0.960 . S
H456 C469 0.961 . S
H457 C469 0.959 . S
H458 C472 0.929 . S
H459 C473 0.931 . S
H460 C475 0.930 . S
C461 H449 0.930 . S
C461 C462 1.399 . S
C461 C466 1.399 . S
C462 C461 1.399 . S
C462 C463 1.376 . S
C463 H450 0.930 . S
C463 C462 1.376 . S
C463 C464 1.388 . S
C464 H451 0.930 . S
C464 C463 1.388 . S
C464 C465 1.390 . S
C465 C464 1.390 . S
C465 C466 1.394 . S
C465 C471 1.465 . S
C466 C461 1.399 . S
C466 C465 1.394 . S
C466 C467 1.516 . S
C467 C466 1.516 . S
C467 C468 1.502 . S
C467 C469 1.561 . S
C467 C470 1.526 . S
C468 H452 0.959 . S
C468 H453 0.959 . S
C468 H454 0.961 . S
C468 C467 1.502 . S
C469 H455 0.960 . S
C469 H456 0.961 . S
C469 H457 0.959 . S
C469 C467 1.561 . S
C470 C467 1.526 . S
C470 C471 1.396 . S
C470 C475 1.390 . S
C471 C465 1.465 . S
C471 C470 1.396 . S
C471 C472 1.399 . S
C472 H458 0.929 . S
C472 C471 1.399 . S
C472 C473 1.385 . S
C473 H459 0.931 . S
C473 C472 1.385 . S
C473 C474 1.389 . S
C474 C473 1.389 . S
C474 C475 1.387 . S
C475 H460 0.930 . S
C475 C470 1.390 . S
C475 C474 1.387 . S
H476 C488 0.930 . S
H477 C490 0.930 . S
H478 C491 0.930 . S
H479 C495 0.959 . S
H480 C495 0.959 . S
H481 C495 0.961 . S
H482 C496 0.960 . S
H483 C496 0.961 . S
H484 C496 0.959 . S
H485 C499 0.929 . S
H486 C500 0.931 . S
H487 C502 0.930 . S
C488 H476 0.930 . S
C488 C489 1.399 . S
C488 C493 1.399 . S
C489 C488 1.399 . S
C489 C490 1.376 . S
C490 H477 0.930 . S
C490 C489 1.376 . S
C490 C491 1.388 . S
C491 H478 0.930 . S
C491 C490 1.388 . S
C491 C492 1.390 . S
C492 C491 1.390 . S
C492 C493 1.394 . S
C492 C498 1.465 . S
C493 C488 1.399 . S
C493 C492 1.394 . S
C493 C494 1.516 . S
C494 C493 1.516 . S
C494 C495 1.502 . S
C494 C496 1.561 . S
C494 C497 1.526 . S
C495 H479 0.959 . S
C495 H480 0.959 . S
C495 H481 0.961 . S
C495 C494 1.502 . S
C496 H482 0.960 . S
C496 H483 0.961 . S
C496 H484 0.959 . S
C496 C494 1.561 . S
C497 C494 1.526 . S
C497 C498 1.396 . S
C497 C502 1.390 . S
C498 C492 1.465 . S
C498 C497 1.396 . S
C498 C499 1.399 . S
C499 H485 0.929 . S
C499 C498 1.399 . S
C499 C500 1.385 . S
C500 H486 0.931 . S
C500 C499 1.385 . S
C500 C501 1.389 . S
C501 C500 1.389 . S
C501 C502 1.387 . S
C502 H487 0.930 . S
C502 C497 1.390 . S
C502 C501 1.387 . S
H503 C515 0.930 . S
H504 C517 0.930 . S
H505 C518 0.930 . S
H506 C522 0.959 . S
H507 C522 0.959 . S
H508 C522 0.961 . S
H509 C523 0.960 . S
H510 C523 0.961 . S
H511 C523 0.959 . S
H512 C526 0.929 . S
H513 C527 0.931 1_545 S
H514 C529 0.930 . S
C515 H503 0.930 . S
C515 C516 1.399 . S
C515 C520 1.399 . S
C516 C515 1.399 . S
C516 C517 1.376 . S
C517 H504 0.930 . S
C517 C516 1.376 . S
C517 C518 1.388 . S
C518 H505 0.930 . S
C518 C517 1.388 . S
C518 C519 1.390 . S
C519 C518 1.390 . S
C519 C520 1.394 . S
C519 C525 1.465 . S
C520 C515 1.399 . S
C520 C519 1.394 . S
C520 C521 1.516 . S
C521 C520 1.516 . S
C521 C522 1.502 . S
C521 C523 1.561 . S
C521 C524 1.526 . S
C522 H506 0.959 . S
C522 H507 0.959 . S
C522 H508 0.961 . S
C522 C521 1.502 . S
C523 H509 0.960 . S
C523 H510 0.961 . S
C523 H511 0.959 . S
C523 C521 1.561 . S
C524 C521 1.526 . S
C524 C525 1.396 . S
C524 C529 1.390 . S
C525 C519 1.465 . S
C525 C524 1.396 . S
C525 C526 1.399 . S
C526 H512 0.929 . S
C526 C525 1.399 . S
C526 C527 1.385 . S
C527 H513 0.931 1_565 S
C527 C526 1.385 . S
C527 C528 1.389 . S
C528 C527 1.389 . S
C528 C529 1.387 . S
C529 H514 0.930 . S
C529 C524 1.390 . S
C529 C528 1.387 . S
H530 C542 0.930 . S
H531 C544 0.930 . S
H532 C545 0.930 . S
H533 C549 0.959 . S
H534 C549 0.959 . S
H535 C549 0.961 . S
H536 C550 0.960 . S
H537 C550 0.961 . S
H538 C550 0.959 . S
H539 C553 0.929 . S
H540 C554 0.931 . S
H541 C556 0.930 . S
C542 H530 0.930 . S
C542 C543 1.399 . S
C542 C547 1.399 . S
C543 C542 1.399 . S
C543 C544 1.376 . S
C544 H531 0.930 . S
C544 C543 1.376 . S
C544 C545 1.388 . S
C545 H532 0.930 . S
C545 C544 1.388 . S
C545 C546 1.390 . S
C546 C545 1.390 . S
C546 C547 1.394 . S
C546 C552 1.465 . S
C547 C542 1.399 . S
C547 C546 1.394 . S
C547 C548 1.516 . S
C548 C547 1.516 . S
C548 C549 1.502 . S
C548 C550 1.561 . S
C548 C551 1.526 . S
C549 H533 0.959 . S
C549 H534 0.959 . S
C549 H535 0.961 . S
C549 C548 1.502 . S
C550 H536 0.960 . S
C550 H537 0.961 . S
C550 H538 0.959 . S
C550 C548 1.561 . S
C551 C548 1.526 . S
C551 C552 1.396 . S
C551 C556 1.390 . S
C552 C546 1.465 . S
C552 C551 1.396 . S
C552 C553 1.399 . S
C553 H539 0.929 . S
C553 C552 1.399 . S
C553 C554 1.385 . S
C554 H540 0.931 . S
C554 C553 1.385 . S
C554 C555 1.389 . S
C555 C554 1.389 . S
C555 C556 1.387 . S
C556 H541 0.930 . S
C556 C551 1.390 . S
C556 C555 1.387 . S
H557 C569 0.930 . S
H558 C571 0.930 . S
H559 C572 0.930 . S
H560 C576 0.959 . S
H561 C576 0.959 . S
H562 C576 0.961 . S
H563 C577 0.960 . S
H564 C577 0.961 . S
H565 C577 0.959 . S
H566 C580 0.929 . S
H567 C581 0.931 . S
H568 C583 0.930 . S
C569 H557 0.930 . S
C569 C570 1.399 . S
C569 C574 1.399 . S
C570 C569 1.399 . S
C570 C571 1.376 . S
C571 H558 0.930 . S
C571 C570 1.376 . S
C571 C572 1.388 . S
C572 H559 0.930 . S
C572 C571 1.388 . S
C572 C573 1.390 . S
C573 C572 1.390 . S
C573 C574 1.394 . S
C573 C579 1.465 . S
C574 C569 1.399 . S
C574 C573 1.394 . S
C574 C575 1.516 . S
C575 C574 1.516 . S
C575 C576 1.502 . S
C575 C577 1.561 . S
C575 C578 1.526 . S
C576 H560 0.959 . S
C576 H561 0.959 . S
C576 H562 0.961 . S
C576 C575 1.502 . S
C577 H563 0.960 . S
C577 H564 0.961 . S
C577 H565 0.959 . S
C577 C575 1.561 . S
C578 C575 1.526 . S
C578 C579 1.396 . S
C578 C583 1.390 . S
C579 C573 1.465 . S
C579 C578 1.396 . S
C579 C580 1.399 . S
C580 H566 0.929 . S
C580 C579 1.399 . S
C580 C581 1.385 . S
C581 H567 0.931 . S
C581 C580 1.385 . S
C581 C582 1.389 . S
C582 C581 1.389 . S
C582 C583 1.387 . S
C583 H568 0.930 . S
C583 C578 1.390 . S
C583 C582 1.387 . S
H584 C596 0.930 . S
H585 C598 0.930 . S
H586 C599 0.930 . S
H587 C603 0.959 . S
H588 C603 0.959 . S
H589 C603 0.961 . S
H590 C604 0.960 . S
H591 C604 0.961 . S
H592 C604 0.959 . S
H593 C607 0.929 . S
H594 C608 0.931 . S
H595 C610 0.930 . S
C596 H584 0.930 . S
C596 C597 1.399 . S
C596 C601 1.399 . S
C597 C596 1.399 . S
C597 C598 1.376 . S
C598 H585 0.930 . S
C598 C597 1.376 . S
C598 C599 1.388 . S
C599 H586 0.930 . S
C599 C598 1.388 . S
C599 C600 1.390 . S
C600 C599 1.390 . S
C600 C601 1.394 . S
C600 C606 1.465 . S
C601 C596 1.399 . S
C601 C600 1.394 . S
C601 C602 1.516 . S
C602 C601 1.516 . S
C602 C603 1.502 . S
C602 C604 1.561 . S
C602 C605 1.526 . S
C603 H587 0.959 . S
C603 H588 0.959 . S
C603 H589 0.961 . S
C603 C602 1.502 . S
C604 H590 0.960 . S
C604 H591 0.961 . S
C604 H592 0.959 . S
C604 C602 1.561 . S
C605 C602 1.526 . S
C605 C606 1.396 . S
C605 C610 1.390 . S
C606 C600 1.465 . S
C606 C605 1.396 . S
C606 C607 1.399 . S
C607 H593 0.929 . S
C607 C606 1.399 . S
C607 C608 1.385 . S
C608 H594 0.931 . S
C608 C607 1.385 . S
C608 C609 1.389 . S
C609 C608 1.389 . S
C609 C610 1.387 . S
C610 H595 0.930 . S
C610 C605 1.390 . S
C610 C609 1.387 . S
H611 C623 0.930 . S
H612 C625 0.930 . S
H613 C626 0.930 . S
H614 C630 0.959 . S
H615 C630 0.959 . S
H616 C630 0.961 . S
H617 C631 0.960 . S
H618 C631 0.961 . S
H619 C631 0.959 . S
H620 C634 0.929 . S
H621 C635 0.931 . S
H622 C637 0.930 . S
C623 H611 0.930 . S
C623 C624 1.399 . S
C623 C628 1.399 . S
C624 C623 1.399 . S
C624 C625 1.376 . S
C625 H612 0.930 . S
C625 C624 1.376 . S
C625 C626 1.388 . S
C626 H613 0.930 . S
C626 C625 1.388 . S
C626 C627 1.390 . S
C627 C626 1.390 . S
C627 C628 1.394 . S
C627 C633 1.465 . S
C628 C623 1.399 . S
C628 C627 1.394 . S
C628 C629 1.516 . S
C629 C628 1.516 . S
C629 C630 1.502 . S
C629 C631 1.561 . S
C629 C632 1.526 . S
C630 H614 0.959 . S
C630 H615 0.959 . S
C630 H616 0.961 . S
C630 C629 1.502 . S
C631 H617 0.960 . S
C631 H618 0.961 . S
C631 H619 0.959 . S
C631 C629 1.561 . S
C632 C629 1.526 . S
C632 C633 1.396 . S
C632 C637 1.390 . S
C633 C627 1.465 . S
C633 C632 1.396 . S
C633 C634 1.399 . S
C634 H620 0.929 . S
C634 C633 1.399 . S
C634 C635 1.385 . S
C635 H621 0.931 . S
C635 C634 1.385 . S
C635 C636 1.389 . S
C636 C635 1.389 . S
C636 C637 1.387 . S
C637 H622 0.930 . S
C637 C632 1.390 . S
C637 C636 1.387 . S
H638 C650 0.930 . S
H639 C652 0.930 . S
H640 C653 0.930 . S
H641 C657 0.959 . S
H642 C657 0.959 . S
H643 C657 0.961 . S
H644 C658 0.960 . S
H645 C658 0.961 . S
H646 C658 0.959 . S
H647 C661 0.929 . S
H648 C662 0.931 . S
H649 C664 0.930 . S
C650 H638 0.930 . S
C650 C651 1.399 . S
C650 C655 1.399 . S
C651 C650 1.399 . S
C651 C652 1.376 . S
C652 H639 0.930 . S
C652 C651 1.376 . S
C652 C653 1.388 . S
C653 H640 0.930 . S
C653 C652 1.388 . S
C653 C654 1.390 . S
C654 C653 1.390 . S
C654 C655 1.394 . S
C654 C660 1.465 . S
C655 C650 1.399 . S
C655 C654 1.394 . S
C655 C656 1.516 . S
C656 C655 1.516 . S
C656 C657 1.502 . S
C656 C658 1.561 . S
C656 C659 1.526 . S
C657 H641 0.959 . S
C657 H642 0.959 . S
C657 H643 0.961 . S
C657 C656 1.502 . S
C658 H644 0.960 . S
C658 H645 0.961 . S
C658 H646 0.959 . S
C658 C656 1.561 . S
C659 C656 1.526 . S
C659 C660 1.396 . S
C659 C664 1.390 . S
C660 C654 1.465 . S
C660 C659 1.396 . S
C660 C661 1.399 . S
C661 H647 0.929 . S
C661 C660 1.399 . S
C661 C662 1.385 . S
C662 H648 0.931 . S
C662 C661 1.385 . S
C662 C663 1.389 . S
C663 C662 1.389 . S
C663 C664 1.387 . S
C664 H649 0.930 . S
C664 C659 1.390 . S
C664 C663 1.387 . S
H665 C677 0.930 . S
H666 C679 0.930 . S
H667 C680 0.930 . S
H668 C684 0.959 . S
H669 C684 0.959 . S
H670 C684 0.961 . S
H671 C685 0.960 . S
H672 C685 0.961 . S
H673 C685 0.959 . S
H674 C688 0.929 . S
H675 C689 0.931 . S
H676 C691 0.930 . S
C677 H665 0.930 . S
C677 C678 1.399 . S
C677 C682 1.399 . S
C678 C677 1.399 . S
C678 C679 1.376 . S
C679 H666 0.930 . S
C679 C678 1.376 . S
C679 C680 1.388 . S
C680 H667 0.930 . S
C680 C679 1.388 . S
C680 C681 1.390 . S
C681 C680 1.390 . S
C681 C682 1.394 . S
C681 C687 1.465 . S
C682 C677 1.399 . S
C682 C681 1.394 . S
C682 C683 1.516 . S
C683 C682 1.516 . S
C683 C684 1.502 . S
C683 C685 1.561 . S
C683 C686 1.526 . S
C684 H668 0.959 . S
C684 H669 0.959 . S
C684 H670 0.961 . S
C684 C683 1.502 . S
C685 H671 0.960 . S
C685 H672 0.961 . S
C685 H673 0.959 . S
C685 C683 1.561 . S
C686 C683 1.526 . S
C686 C687 1.396 . S
C686 C691 1.390 . S
C687 C681 1.465 . S
C687 C686 1.396 . S
C687 C688 1.399 . S
C688 H674 0.929 . S
C688 C687 1.399 . S
C688 C689 1.385 . S
C689 H675 0.931 . S
C689 C688 1.385 . S
C689 C690 1.389 . S
C690 C689 1.389 . S
C690 C691 1.387 . S
C691 H676 0.930 . S
C691 C686 1.390 . S
C691 C690 1.387 . S
H692 C704 0.930 . S
H693 C706 0.930 . S
H694 C707 0.930 . S
H695 C711 0.959 . S
H696 C711 0.959 . S
H697 C711 0.961 . S
H698 C712 0.960 . S
H699 C712 0.961 . S
H700 C712 0.959 . S
H701 C715 0.929 . S
H702 C716 0.931 . S
H703 C718 0.930 . S
C704 H692 0.930 . S
C704 C705 1.399 . S
C704 C709 1.399 . S
C705 C704 1.399 . S
C705 C706 1.376 . S
C706 H693 0.930 . S
C706 C705 1.376 . S
C706 C707 1.388 . S
C707 H694 0.930 . S
C707 C706 1.388 . S
C707 C708 1.390 . S
C708 C707 1.390 . S
C708 C709 1.394 . S
C708 C714 1.465 . S
C709 C704 1.399 . S
C709 C708 1.394 . S
C709 C710 1.516 . S
C710 C709 1.516 . S
C710 C711 1.502 . S
C710 C712 1.561 . S
C710 C713 1.526 . S
C711 H695 0.959 . S
C711 H696 0.959 . S
C711 H697 0.961 . S
C711 C710 1.502 . S
C712 H698 0.960 . S
C712 H699 0.961 . S
C712 H700 0.959 . S
C712 C710 1.561 . S
C713 C710 1.526 . S
C713 C714 1.396 . S
C713 C718 1.390 . S
C714 C708 1.465 . S
C714 C713 1.396 . S
C714 C715 1.399 . S
C715 H701 0.929 . S
C715 C714 1.399 . S
C715 C716 1.385 . S
C716 H702 0.931 . S
C716 C715 1.385 . S
C716 C717 1.389 . S
C717 C716 1.389 . S
C717 C718 1.387 . S
C718 H703 0.930 . S
C718 C713 1.390 . S
C718 C717 1.387 . S
H719 C731 0.930 . S
H720 C733 0.930 . S
H721 C734 0.930 . S
H722 C738 0.959 . S
H723 C738 0.959 . S
H724 C738 0.961 . S
H725 C739 0.960 . S
H726 C739 0.961 . S
H727 C739 0.959 . S
H728 C742 0.929 . S
H729 C743 0.931 1_565 S
H730 C745 0.930 . S
C731 H719 0.930 . S
C731 C732 1.399 . S
C731 C736 1.399 . S
C732 C731 1.399 . S
C732 C733 1.376 . S
C733 H720 0.930 . S
C733 C732 1.376 . S
C733 C734 1.388 . S
C734 H721 0.930 . S
C734 C733 1.388 . S
C734 C735 1.390 . S
C735 C734 1.390 . S
C735 C736 1.394 . S
C735 C741 1.465 . S
C736 C731 1.399 . S
C736 C735 1.394 . S
C736 C737 1.516 . S
C737 C736 1.516 . S
C737 C738 1.502 . S
C737 C739 1.561 . S
C737 C740 1.526 . S
C738 H722 0.959 . S
C738 H723 0.959 . S
C738 H724 0.961 . S
C738 C737 1.502 . S
C739 H725 0.960 . S
C739 H726 0.961 . S
C739 H727 0.959 . S
C739 C737 1.561 . S
C740 C737 1.526 . S
C740 C741 1.396 . S
C740 C745 1.390 . S
C741 C735 1.465 . S
C741 C740 1.396 . S
C741 C742 1.399 . S
C742 H728 0.929 . S
C742 C741 1.399 . S
C742 C743 1.385 . S
C743 H729 0.931 1_545 S
C743 C742 1.385 . S
C743 C744 1.389 . S
C744 C743 1.389 . S
C744 C745 1.387 . S
C745 H730 0.930 . S
C745 C740 1.390 . S
C745 C744 1.387 . S
H746 C758 0.930 . S
H747 C760 0.930 . S
H748 C761 0.930 . S
H749 C765 0.959 . S
H750 C765 0.959 . S
H751 C765 0.961 . S
H752 C766 0.960 . S
H753 C766 0.961 . S
H754 C766 0.959 . S
H755 C769 0.929 . S
H756 C770 0.931 . S
H757 C772 0.930 . S
C758 H746 0.930 . S
C758 C759 1.399 . S
C758 C763 1.399 . S
C759 C758 1.399 . S
C759 C760 1.376 . S
C760 H747 0.930 . S
C760 C759 1.376 . S
C760 C761 1.388 . S
C761 H748 0.930 . S
C761 C760 1.388 . S
C761 C762 1.390 . S
C762 C761 1.390 . S
C762 C763 1.394 . S
C762 C768 1.465 . S
C763 C758 1.399 . S
C763 C762 1.394 . S
C763 C764 1.516 . S
C764 C763 1.516 . S
C764 C765 1.502 . S
C764 C766 1.561 . S
C764 C767 1.526 . S
C765 H749 0.959 . S
C765 H750 0.959 . S
C765 H751 0.961 . S
C765 C764 1.502 . S
C766 H752 0.960 . S
C766 H753 0.961 . S
C766 H754 0.959 . S
C766 C764 1.561 . S
C767 C764 1.526 . S
C767 C768 1.396 . S
C767 C772 1.390 . S
C768 C762 1.465 . S
C768 C767 1.396 . S
C768 C769 1.399 . S
C769 H755 0.929 . S
C769 C768 1.399 . S
C769 C770 1.385 . S
C770 H756 0.931 . S
C770 C769 1.385 . S
C770 C771 1.389 . S
C771 C770 1.389 . S
C771 C772 1.387 . S
C772 H757 0.930 . S
C772 C767 1.390 . S
C772 C771 1.387 . S
H773 C785 0.930 . S
H774 C787 0.930 . S
H775 C788 0.930 . S
H776 C792 0.959 . S
H777 C792 0.959 . S
H778 C792 0.961 . S
H779 C793 0.960 . S
H780 C793 0.961 . S
H781 C793 0.959 . S
H782 C796 0.929 . S
H783 C797 0.931 . S
H784 C799 0.930 . S
C785 H773 0.930 . S
C785 C786 1.399 . S
C785 C790 1.399 . S
C786 C785 1.399 . S
C786 C787 1.376 . S
C787 H774 0.930 . S
C787 C786 1.376 . S
C787 C788 1.388 . S
C788 H775 0.930 . S
C788 C787 1.388 . S
C788 C789 1.390 . S
C789 C788 1.390 . S
C789 C790 1.394 . S
C789 C795 1.465 . S
C790 C785 1.399 . S
C790 C789 1.394 . S
C790 C791 1.516 . S
C791 C790 1.516 . S
C791 C792 1.502 . S
C791 C793 1.561 . S
C791 C794 1.526 . S
C792 H776 0.959 . S
C792 H777 0.959 . S
C792 H778 0.961 . S
C792 C791 1.502 . S
C793 H779 0.960 . S
C793 H780 0.961 . S
C793 H781 0.959 . S
C793 C791 1.561 . S
C794 C791 1.526 . S
C794 C795 1.396 . S
C794 C799 1.390 . S
C795 C789 1.465 . S
C795 C794 1.396 . S
C795 C796 1.399 . S
C796 H782 0.929 . S
C796 C795 1.399 . S
C796 C797 1.385 . S
C797 H783 0.931 . S
C797 C796 1.385 . S
C797 C798 1.389 . S
C798 C797 1.389 . S
C798 C799 1.387 . S
C799 H784 0.930 . S
C799 C794 1.390 . S
C799 C798 1.387 . S
H800 C812 0.930 . S
H801 C814 0.930 . S
H802 C815 0.930 . S
H803 C819 0.959 . S
H804 C819 0.959 . S
H805 C819 0.961 . S
H806 C820 0.960 . S
H807 C820 0.961 . S
H808 C820 0.959 . S
H809 C823 0.929 . S
H810 C824 0.931 . S
H811 C826 0.930 . S
C812 H800 0.930 . S
C812 C813 1.399 . S
C812 C817 1.399 . S
C813 C812 1.399 . S
C813 C814 1.376 . S
C814 H801 0.930 . S
C814 C813 1.376 . S
C814 C815 1.388 . S
C815 H802 0.930 . S
C815 C814 1.388 . S
C815 C816 1.390 . S
C816 C815 1.390 . S
C816 C817 1.394 . S
C816 C822 1.465 . S
C817 C812 1.399 . S
C817 C816 1.394 . S
C817 C818 1.516 . S
C818 C817 1.516 . S
C818 C819 1.502 . S
C818 C820 1.561 . S
C818 C821 1.526 . S
C819 H803 0.959 . S
C819 H804 0.959 . S
C819 H805 0.961 . S
C819 C818 1.502 . S
C820 H806 0.960 . S
C820 H807 0.961 . S
C820 H808 0.959 . S
C820 C818 1.561 . S
C821 C818 1.526 . S
C821 C822 1.396 . S
C821 C826 1.390 . S
C822 C816 1.465 . S
C822 C821 1.396 . S
C822 C823 1.399 . S
C823 H809 0.929 . S
C823 C822 1.399 . S
C823 C824 1.385 . S
C824 H810 0.931 . S
C824 C823 1.385 . S
C824 C825 1.389 . S
C825 C824 1.389 . S
C825 C826 1.387 . S
C826 H811 0.930 . S
C826 C821 1.390 . S
C826 C825 1.387 . S
H827 C839 0.930 . S
H828 C841 0.930 . S
H829 C842 0.930 . S
H830 C846 0.959 . S
H831 C846 0.959 . S
H832 C846 0.961 . S
H833 C847 0.960 . S
H834 C847 0.961 . S
H835 C847 0.959 . S
H836 C850 0.929 . S
H837 C851 0.931 . S
H838 C853 0.930 . S
C839 H827 0.930 . S
C839 C840 1.399 . S
C839 C844 1.399 . S
C840 C839 1.399 . S
C840 C841 1.376 . S
C841 H828 0.930 . S
C841 C840 1.376 . S
C841 C842 1.388 . S
C842 H829 0.930 . S
C842 C841 1.388 . S
C842 C843 1.390 . S
C843 C842 1.390 . S
C843 C844 1.394 . S
C843 C849 1.465 . S
C844 C839 1.399 . S
C844 C843 1.394 . S
C844 C845 1.516 . S
C845 C844 1.516 . S
C845 C846 1.502 . S
C845 C847 1.561 . S
C845 C848 1.526 . S
C846 H830 0.959 . S
C846 H831 0.959 . S
C846 H832 0.961 . S
C846 C845 1.502 . S
C847 H833 0.960 . S
C847 H834 0.961 . S
C847 H835 0.959 . S
C847 C845 1.561 . S
C848 C845 1.526 . S
C848 C849 1.396 . S
C848 C853 1.390 . S
C849 C843 1.465 . S
C849 C848 1.396 . S
C849 C850 1.399 . S
C850 H836 0.929 . S
C850 C849 1.399 . S
C850 C851 1.385 . S
C851 H837 0.931 . S
C851 C850 1.385 . S
C851 C852 1.389 . S
C852 C851 1.389 . S
C852 C853 1.387 . S
C853 H838 0.930 . S
C853 C848 1.390 . S
C853 C852 1.387 . S
H854 C866 0.930 . S
H855 C868 0.930 . S
H856 C869 0.930 . S
H857 C873 0.959 . S
H858 C873 0.959 . S
H859 C873 0.961 . S
H860 C874 0.960 . S
H861 C874 0.961 . S
H862 C874 0.959 . S
H863 C877 0.929 . S
H864 C878 0.931 . S
H865 C880 0.930 . S
C866 H854 0.930 . S
C866 C867 1.399 . S
C866 C871 1.399 . S
C867 C866 1.399 . S
C867 C868 1.376 . S
C868 H855 0.930 . S
C868 C867 1.376 . S
C868 C869 1.388 . S
C869 H856 0.930 . S
C869 C868 1.388 . S
C869 C870 1.390 . S
C870 C869 1.390 . S
C870 C871 1.394 . S
C870 C876 1.465 . S
C871 C866 1.399 . S
C871 C870 1.394 . S
C871 C872 1.516 . S
C872 C871 1.516 . S
C872 C873 1.502 . S
C872 C874 1.561 . S
C872 C875 1.526 . S
C873 H857 0.959 . S
C873 H858 0.959 . S
C873 H859 0.961 . S
C873 C872 1.502 . S
C874 H860 0.960 . S
C874 H861 0.961 . S
C874 H862 0.959 . S
C874 C872 1.561 . S
C875 C872 1.526 . S
C875 C876 1.396 . S
C875 C880 1.390 . S
C876 C870 1.465 . S
C876 C875 1.396 . S
C876 C877 1.399 . S
C877 H863 0.929 . S
C877 C876 1.399 . S
C877 C878 1.385 . S
C878 H864 0.931 . S
C878 C877 1.385 . S
C878 C879 1.389 . S
C879 C878 1.389 . S
C879 C880 1.387 . S
C880 H865 0.930 . S
C880 C875 1.390 . S
C880 C879 1.387 . S
H881 C893 0.930 . S
H882 C895 0.930 . S
H883 C896 0.930 . S
H884 C900 0.959 . S
H885 C900 0.959 . S
H886 C900 0.961 . S
H887 C901 0.960 . S
H888 C901 0.961 . S
H889 C901 0.959 . S
H890 C904 0.929 . S
H891 C905 0.931 . S
H892 C907 0.930 . S
C893 H881 0.930 . S
C893 C894 1.399 . S
C893 C898 1.399 . S
C894 C893 1.399 . S
C894 C895 1.376 . S
C895 H882 0.930 . S
C895 C894 1.376 . S
C895 C896 1.388 . S
C896 H883 0.930 . S
C896 C895 1.388 . S
C896 C897 1.390 . S
C897 C896 1.390 . S
C897 C898 1.394 . S
C897 C903 1.465 . S
C898 C893 1.399 . S
C898 C897 1.394 . S
C898 C899 1.516 . S
C899 C898 1.516 . S
C899 C900 1.502 . S
C899 C901 1.561 . S
C899 C902 1.526 . S
C900 H884 0.959 . S
C900 H885 0.959 . S
C900 H886 0.961 . S
C900 C899 1.502 . S
C901 H887 0.960 . S
C901 H888 0.961 . S
C901 H889 0.959 . S
C901 C899 1.561 . S
C902 C899 1.526 . S
C902 C903 1.396 . S
C902 C907 1.390 . S
C903 C897 1.465 . S
C903 C902 1.396 . S
C903 C904 1.399 . S
C904 H890 0.929 . S
C904 C903 1.399 . S
C904 C905 1.385 . S
C905 H891 0.931 . S
C905 C904 1.385 . S
C905 C906 1.389 . S
C906 C905 1.389 . S
C906 C907 1.387 . S
C907 H892 0.930 . S
C907 C902 1.390 . S
C907 C906 1.387 . S
H908 C920 0.930 . S
H909 C922 0.930 . S
H910 C923 0.930 . S
H911 C927 0.959 . S
H912 C927 0.959 . S
H913 C927 0.961 . S
H914 C928 0.960 . S
H915 C928 0.961 . S
H916 C928 0.959 . S
H917 C931 0.929 . S
H918 C932 0.931 . S
H919 C934 0.930 . S
C920 H908 0.930 . S
C920 C921 1.399 . S
C920 C925 1.399 . S
C921 C920 1.399 . S
C921 C922 1.376 . S
C922 H909 0.930 . S
C922 C921 1.376 . S
C922 C923 1.388 . S
C923 H910 0.930 . S
C923 C922 1.388 . S
C923 C924 1.390 . S
C924 C923 1.390 . S
C924 C925 1.394 . S
C924 C930 1.465 . S
C925 C920 1.399 . S
C925 C924 1.394 . S
C925 C926 1.516 . S
C926 C925 1.516 . S
C926 C927 1.502 . S
C926 C928 1.561 . S
C926 C929 1.526 . S
C927 H911 0.959 . S
C927 H912 0.959 . S
C927 H913 0.961 . S
C927 C926 1.502 . S
C928 H914 0.960 . S
C928 H915 0.961 . S
C928 H916 0.959 . S
C928 C926 1.561 . S
C929 C926 1.526 . S
C929 C930 1.396 . S
C929 C934 1.390 . S
C930 C924 1.465 . S
C930 C929 1.396 . S
C930 C931 1.399 . S
C931 H917 0.929 . S
C931 C930 1.399 . S
C931 C932 1.385 . S
C932 H918 0.931 . S
C932 C931 1.385 . S
C932 C933 1.389 . S
C933 C932 1.389 . S
C933 C934 1.387 . S
C934 H919 0.930 . S
C934 C929 1.390 . S
C934 C933 1.387 . S
H935 C947 0.930 . S
H936 C949 0.930 . S
H937 C950 0.930 . S
H938 C954 0.959 . S
H939 C954 0.959 . S
H940 C954 0.961 . S
H941 C955 0.960 . S
H942 C955 0.961 . S
H943 C955 0.959 . S
H944 C958 0.929 . S
H945 C959 0.931 . S
H946 C961 0.930 . S
C947 H935 0.930 . S
C947 C948 1.399 . S
C947 C952 1.399 . S
C948 C947 1.399 . S
C948 C949 1.376 . S
C949 H936 0.930 . S
C949 C948 1.376 . S
C949 C950 1.388 . S
C950 H937 0.930 . S
C950 C949 1.388 . S
C950 C951 1.390 . S
C951 C950 1.390 . S
C951 C952 1.394 . S
C951 C957 1.465 . S
C952 C947 1.399 . S
C952 C951 1.394 . S
C952 C953 1.516 . S
C953 C952 1.516 . S
C953 C954 1.502 . S
C953 C955 1.561 . S
C953 C956 1.526 . S
C954 H938 0.959 . S
C954 H939 0.959 . S
C954 H940 0.961 . S
C954 C953 1.502 . S
C955 H941 0.960 . S
C955 H942 0.961 . S
C955 H943 0.959 . S
C955 C953 1.561 . S
C956 C953 1.526 . S
C956 C957 1.396 . S
C956 C961 1.390 . S
C957 C951 1.465 . S
C957 C956 1.396 . S
C957 C958 1.399 . S
C958 H944 0.929 . S
C958 C957 1.399 . S
C958 C959 1.385 . S
C959 H945 0.931 . S
C959 C958 1.385 . S
C959 C960 1.389 . S
C960 C959 1.389 . S
C960 C961 1.387 . S
C961 H946 0.930 . S
C961 C956 1.390 . S
C961 C960 1.387 . S
H962 C974 0.930 . S
H963 C976 0.930 . S
H964 C977 0.930 . S
H965 C981 0.959 . S
H966 C981 0.959 . S
H967 C981 0.961 . S
H968 C982 0.960 . S
H969 C982 0.961 . S
H970 C982 0.959 . S
H971 C985 0.929 . S
H972 C986 0.931 . S
H973 C988 0.930 . S
C974 H962 0.930 . S
C974 C975 1.399 . S
C974 C979 1.399 . S
C975 C974 1.399 . S
C975 C976 1.376 . S
C976 H963 0.930 . S
C976 C975 1.376 . S
C976 C977 1.388 . S
C977 H964 0.930 . S
C977 C976 1.388 . S
C977 C978 1.390 . S
C978 C977 1.390 . S
C978 C979 1.394 . S
C978 C984 1.465 . S
C979 C974 1.399 . S
C979 C978 1.394 . S
C979 C980 1.516 . S
C980 C979 1.516 . S
C980 C981 1.502 . S
C980 C982 1.561 . S
C980 C983 1.526 . S
C981 H965 0.959 . S
C981 H966 0.959 . S
C981 H967 0.961 . S
C981 C980 1.502 . S
C982 H968 0.960 . S
C982 H969 0.961 . S
C982 H970 0.959 . S
C982 C980 1.561 . S
C983 C980 1.526 . S
C983 C984 1.396 . S
C983 C988 1.390 . S
C984 C978 1.465 . S
C984 C983 1.396 . S
C984 C985 1.399 . S
C985 H971 0.929 . S
C985 C984 1.399 . S
C985 C986 1.385 . S
C986 H972 0.931 . S
C986 C985 1.385 . S
C986 C987 1.389 . S
C987 C986 1.389 . S
C987 C988 1.387 . S
C988 H973 0.930 . S
C988 C983 1.390 . S
C988 C987 1.387 . S
H989 C1001 0.930 . S
H990 C1003 0.930 . S
H991 C1004 0.930 . S
H992 C1008 0.959 . S
H993 C1008 0.959 . S
H994 C1008 0.961 . S
H995 C1009 0.960 . S
H996 C1009 0.961 . S
H997 C1009 0.959 . S
H998 C1012 0.929 . S
H999 C1013 0.931 . S
H1000 C1015 0.930 . S
C1001 H989 0.930 . S
C1001 C1002 1.399 . S
C1001 C1006 1.399 . S
C1002 C1001 1.399 . S
C1002 C1003 1.376 . S
C1003 H990 0.930 . S
C1003 C1002 1.376 . S
C1003 C1004 1.388 . S
C1004 H991 0.930 . S
C1004 C1003 1.388 . S
C1004 C1005 1.390 . S
C1005 C1004 1.390 . S
C1005 C1006 1.394 . S
C1005 C1011 1.465 . S
C1006 C1001 1.399 . S
C1006 C1005 1.394 . S
C1006 C1007 1.516 . S
C1007 C1006 1.516 . S
C1007 C1008 1.502 . S
C1007 C1009 1.561 . S
C1007 C1010 1.526 . S
C1008 H992 0.959 . S
C1008 H993 0.959 . S
C1008 H994 0.961 . S
C1008 C1007 1.502 . S
C1009 H995 0.960 . S
C1009 H996 0.961 . S
C1009 H997 0.959 . S
C1009 C1007 1.561 . S
C1010 C1007 1.526 . S
C1010 C1011 1.396 . S
C1010 C1015 1.390 . S
C1011 C1005 1.465 . S
C1011 C1010 1.396 . S
C1011 C1012 1.399 . S
C1012 H998 0.929 . S
C1012 C1011 1.399 . S
C1012 C1013 1.385 . S
C1013 H999 0.931 . S
C1013 C1012 1.385 . S
C1013 C1014 1.389 . S
C1014 C1013 1.389 . S
C1014 C1015 1.387 . S
C1015 H1000 0.930 . S
C1015 C1010 1.390 . S
C1015 C1014 1.387 . S
C381 C1 1.533 . S
C393 C307 1.439 . S
C408 C67 1.305 . S
C420 C310 1.265 . S
C447 C346 1.721 . S
C435 C97 1.762 . S
C462 C133 1.632 . S
C474 C366 1.649 . S
C501 C320 1.675 . S
C489 C25 1.725 . S
C528 C297 1.483 . S
C516 C37 1.532 . S
C555 C350 1.533 . S
C543 C103 1.666 . S
C582 C330 1.433 . S
C570 C109 1.440 . S
C597 C31 1.376 . S
C609 C360 1.315 . S
C636 C326 1.588 . S
C624 C73 1.617 . S
C651 C139 1.635 . S
C663 C292 1.635 . S
C678 C61 1.340 . S
C690 C340 1.329 . S
C717 C306 1.456 . S
C705 C175 1.527 . S
C732 C181 1.296 . S
C744 C312 1.277 . S
C759 C247 1.755 . S
C771 C347 1.732 . S
C786 C277 1.652 . S
C798 C367 1.622 . S
C813 C145 1.686 . S
C825 C317 1.704 . S
C852 C300 1.531 . S
C840 C211 1.533 . S
C879 C352 1.541 . S
C867 C217 1.627 . S
C906 C332 1.407 . S
C894 C283 1.491 . S
C921 C169 1.318 . S
C933 C357 1.315 . S
C960 C327 1.623 . S
C948 C241 1.620 . S
C987 C290 1.543 . S
C975 C253 1.642 . S
C1002 C205 1.344 . S
C1014 C337 1.322 . S
