# Generated by pormake.
# Topology pth, (4,4)-cn, num edge types: 1
# Building blocks:
#     Node 0, Type 0, BuildingBlock: KUFVIS_clean_sbu_0, # of connection points: 4
#     Node 1, Type 0, BuildingBlock: KUFVIS_clean_sbu_0, # of connection points: 4
#     Node 2, Type 0, BuildingBlock: KUFVIS_clean_sbu_0, # of connection points: 4
#     Node 3, Type 1, BuildingBlock: NAWXER_clean_linker_0, # of connection points: 4
#     Node 4, Type 1, BuildingBlock: NAWXER_clean_linker_0, # of connection points: 4
#     Node 5, Type 1, BuildingBlock: NAWXER_clean_linker_0, # of connection points: 4
#     Edge 6, Type (0, 1), BuildingBlock: UVAHIK_clean_linker_0, # of connection points: 2
#     Edge 7, Type (0, 1), BuildingBlock: UVAHIK_clean_linker_0, # of connection points: 2
#     Edge 8, Type (0, 1), BuildingBlock: UVAHIK_clean_linker_0, # of connection points: 2
#     Edge 9, Type (0, 1), BuildingBlock: UVAHIK_clean_linker_0, # of connection points: 2
#     Edge 10, Type (0, 1), BuildingBlock: UVAHIK_clean_linker_0, # of connection points: 2
#     Edge 11, Type (0, 1), BuildingBlock: UVAHIK_clean_linker_0, # of connection points: 2
#     Edge 12, Type (0, 1), BuildingBlock: UVAHIK_clean_linker_0, # of connection points: 2
#     Edge 13, Type (0, 1), BuildingBlock: UVAHIK_clean_linker_0, # of connection points: 2
#     Edge 14, Type (0, 1), BuildingBlock: UVAHIK_clean_linker_0, # of connection points: 2
#     Edge 15, Type (0, 1), BuildingBlock: UVAHIK_clean_linker_0, # of connection points: 2
#     Edge 16, Type (0, 1), BuildingBlock: UVAHIK_clean_linker_0, # of connection points: 2
#     Edge 17, Type (0, 1), BuildingBlock: UVAHIK_clean_linker_0, # of connection points: 2
# Relax obj value: 0.011
# Max RMSD: 0.077
# Mean RMSD: 0.050
data_MOF--net-pth--node1-KUFVIS_clean_sbu_0--node2-NAWXER_clean_linker_0--edge1-UVAHIK_clean_linker_0
_symmetry_space_group_name_H-M    P1
_symmetry_Int_Tables_number       1
_symmetry_cell_setting            triclinic
loop_
_symmetry_equiv_pos_as_xyz
'x, y, z'
_cell_length_a     35.698617
_cell_length_b     35.78632
_cell_length_c     82.420046
_cell_angle_alpha  90.391869
_cell_angle_beta   91.765885
_cell_angle_gamma 120.2846
loop_
_atom_site_label
_atom_site_type_symbol
_atom_site_fract_x
_atom_site_fract_y
_atom_site_fract_z
_atom_type_partial_charge
Mn0 Mn 0.03366 0.06574 0.04871 0.0
Mn1 Mn 0.97312 0.09542 0.02605 0.0
C2 C 0.9932 0.02374 0.02645 0.0
C3 C 0.04014 0.0296 0.07106 0.0
C4 C 0.07095 0.13775 0.02403 0.0
O5 O 0.03105 0.11065 0.06316 0.0
O6 O 0.98561 0.12376 0.04795 0.0
C7 C 0.89273 0.05209 0.04448 0.0
N8 N 0.91319 0.05802 0.03025 0.0
C9 C 0.84652 0.00636 0.01617 0.0
C10 C 0.82466 -0.0001 0.03065 0.0
C11 C 0.8479 0.02281 0.04487 0.0
C12 C 0.8912 0.03599 0.01651 0.0
H13 H 0.91052 0.06949 0.05545 0.0
C14 C 0.00868 0.12906 0.06092 0.0
O15 O 0.07424 0.0607 0.06456 0.0
O16 O 0.00261 0.02037 0.06479 0.0
N17 N 0.95833 0.07026 0.00457 0.0
C18 C 0.98444 0.07947 0.9917 0.0
C19 C 0.96627 0.05912 0.97655 0.0
C20 C 0.92146 0.02978 0.97476 0.0
C21 C 0.89517 0.02116 0.98812 0.0
C22 C 0.91503 0.04282 0.00287 0.0
H23 H 0.01888 0.10211 0.99299 0.0
O24 O 0.02535 0.02032 0.03241 0.0
O25 O 0.98526 0.05098 0.03389 0.0
O26 O 0.07603 0.11341 0.03403 0.0
O27 O 0.03424 0.13461 0.02066 0.0
C28 C 0.85013 0.99162 0.98743 0.0
C29 C 0.82585 0.9841 0.00146 0.0
H30 H 0.79012 0.97724 0.03102 0.0
H31 H 0.83129 0.01784 0.05611 0.0
H32 H 0.98676 0.06598 0.96629 0.0
H33 H 0.90761 0.01401 0.96307 0.0
H34 H 0.83393 0.97415 0.97622 0.0
H35 H 0.79134 0.96094 0.00083 0.0
Mn36 Mn 0.01582 0.06238 0.38067 0.0
Mn37 Mn 0.0732 0.15199 0.40458 0.0
C38 C 0.05657 0.06119 0.4027 0.0
C39 C 0.01094 0.02086 0.35794 0.0
C40 C 0.97625 0.09169 0.40685 0.0
O41 O 0.01691 0.1094 0.36677 0.0
O42 O 0.05647 0.1673 0.38343 0.0
C43 C 0.15118 0.19615 0.38486 0.0
N44 N 0.13294 0.1798 0.3993 0.0
C45 C 0.20286 0.20299 0.41222 0.0
C46 C 0.22244 0.22035 0.39752 0.0
C47 C 0.19646 0.21677 0.38377 0.0
C48 C 0.1576 0.18286 0.41258 0.0
H49 H 0.13134 0.19347 0.37427 0.0
C50 C 0.0354 0.14987 0.37001 0.0
O51 O 0.9763 0.01647 0.36447 0.0
O52 O 0.04805 0.05008 0.36435 0.0
N53 N 0.09218 0.1428 0.42537 0.0
C54 C 0.06807 0.12209 0.43834 0.0
C55 C 0.08907 0.12137 0.45292 0.0
C56 C 0.1346 0.1424 0.45409 0.0
C57 C 0.15874 0.16396 0.44065 0.0
C58 C 0.13603 0.1636 0.42643 0.0
H59 H 0.03307 0.10586 0.4375 0.0
O60 O 0.02483 0.02548 0.3964 0.0
O61 O 0.06416 0.09682 0.39576 0.0
O62 O 0.97198 0.06517 0.3955 0.0
O63 O 0.01254 0.125 0.41113 0.0
C64 C 0.2044 0.18508 0.44069 0.0
C65 C 0.22643 0.20439 0.42647 0.0
H66 H 0.25735 0.23619 0.39662 0.0
H67 H 0.21131 0.2299 0.37237 0.0
H68 H 0.0702 0.10459 0.46324 0.0
H69 H 0.15066 0.1415 0.46533 0.0
H70 H 0.22288 0.18619 0.45154 0.0
H71 H 0.2615 0.21993 0.42658 0.0
Mn72 Mn 0.03102 0.05217 0.71317 0.0
Mn73 Mn -3e-05 0.11601 0.73166 0.0
C74 C 0.07289 0.09731 0.73455 0.0
C75 C 0.06718 0.04173 0.69213 0.0
C76 C 0.95871 0.01949 0.73731 0.0
O77 O 0.98497 0.05021 0.69748 0.0
O78 O 0.97236 0.09945 0.70942 0.0
C79 C 0.04353 0.19243 0.71091 0.0
N80 N 0.03714 0.1748 0.72587 0.0
C81 C 0.08748 0.24388 0.73849 0.0
C82 C 0.09433 0.26285 0.72323 0.0
C83 C 0.07234 0.23698 0.70938 0.0
C84 C 0.05831 0.19934 0.73927 0.0
H85 H 0.02685 0.17261 0.70022 0.0
C86 C 0.96683 0.07311 0.69773 0.0
O87 O 0.0366 0.00908 0.69949 0.0
O88 O 0.07595 0.08006 0.6968 0.0
N89 N 0.02436 0.13486 0.75321 0.0
C90 C 0.01505 0.11136 0.76697 0.0
C91 C 0.03475 0.13234 0.78189 0.0
C92 C 0.06351 0.17727 0.78254 0.0
C93 C 0.07216 0.20086 0.76826 0.0
C94 C 0.0512 0.17826 0.75377 0.0
H95 H 0.99286 0.07684 0.76657 0.0
O96 O 0.0771 0.06476 0.73021 0.0
O97 O 0.04517 0.10311 0.72596 0.0
O98 O 0.9839 0.01296 0.72858 0.0
O99 O 0.96089 0.05618 0.73867 0.0
C100 C 0.10118 0.24582 0.76781 0.0
C101 C 0.10893 0.26729 0.75293 0.0
H102 H 0.11665 0.29717 0.72199 0.0
H103 H 0.07765 0.25135 0.69754 0.0
H104 H 0.02786 0.11392 0.79286 0.0
H105 H 0.07885 0.19329 0.79405 0.0
H106 H 0.11809 0.26409 0.77881 0.0
H107 H 0.1317 0.30177 0.7527 0.0
C108 C 0.99367 0.4324 0.24156 0.0
C109 C 0.02669 0.44489 0.25371 0.0
C110 C 0.993 0.46317 0.23137 0.0
C111 C 0.02544 0.50694 0.23309 0.0
C112 C 0.05935 0.48873 0.25522 0.0
C113 C 0.05848 0.51943 0.24511 0.0
C114 C 0.02397 0.54045 0.22315 0.0
C115 C 0.0497 0.45888 0.18819 0.0
C116 C 0.01578 0.43643 0.17646 0.0
C117 C 0.05101 0.4916 0.198 0.0
C118 C 0.01842 0.50246 0.19628 0.0
C119 C 0.98305 0.4473 0.17492 0.0
C120 C 0.98462 0.48023 0.18461 0.0
C121 C 0.02021 0.53816 0.20603 0.0
C122 C 0.06226 0.7188 0.19058 0.0
C123 C 0.03316 0.71084 0.17736 0.0
C124 C 0.05872 0.68469 0.19982 0.0
C125 C 0.02572 0.64193 0.19615 0.0
C126 C 0.00064 0.6679 0.17352 0.0
C127 C 0.99716 0.63375 0.18277 0.0
C128 C 0.02199 0.60569 0.20591 0.0
C129 C 0.9865 0.68242 0.23863 0.0
C130 C 0.01534 0.70277 0.25205 0.0
C131 C 0.98922 0.65142 0.22916 0.0
C132 C 0.02115 0.64046 0.2328 0.0
C133 C 0.04697 0.69136 0.25577 0.0
C134 C 0.04965 0.66032 0.24629 0.0
C135 C 0.0236 0.6069 0.22306 0.0
H136 H 0.96765 0.39906 0.24022 0.0
H137 H 0.96658 0.45294 0.22241 0.0
H138 H 0.08569 0.49944 0.26424 0.0
H139 H 0.08376 0.55306 0.24667 0.0
H140 H 0.07584 0.45195 0.18954 0.0
H141 H 0.07792 0.509 0.2067 0.0
H142 H 0.95602 0.43026 0.16624 0.0
H143 H 0.9592 0.48818 0.18308 0.0
H144 H 0.08753 0.75148 0.19391 0.0
H145 H 0.08193 0.69175 0.20982 0.0
H146 H 0.97816 0.66065 0.16325 0.0
H147 H 0.97185 0.60096 0.17958 0.0
H148 H 0.96122 0.6898 0.23562 0.0
H149 H 0.96594 0.63555 0.21912 0.0
H150 H 0.06997 0.70672 0.26592 0.0
H151 H 0.07432 0.65214 0.2494 0.0
N152 N 0.02529 0.57462 0.23102 0.0
N153 N 0.01958 0.57098 0.19804 0.0
C154 C 0.62959 0.05427 0.51716 0.0
C155 C 0.62146 0.02137 0.50571 0.0
C156 C 0.59718 0.04986 0.52737 0.0
C157 C 0.5559 0.01261 0.52631 0.0
C158 C 0.57986 0.98412 0.50468 0.0
C159 C 0.54728 0.98002 0.51477 0.0
C160 C 0.52113 0.00858 0.53669 0.0
C161 C 0.61784 0.99573 0.56876 0.0
C162 C 0.63574 0.02563 0.58193 0.0
C163 C 0.58194 0.99102 0.55966 0.0
C164 C 0.56381 0.0169 0.56323 0.0
C165 C 0.61677 0.05068 0.5857 0.0
C166 C 0.58131 0.04638 0.57646 0.0
C167 C 0.52559 0.01247 0.55383 0.0
C168 C 0.34878 0.97949 0.57222 0.0
C169 C 0.36143 0.01141 0.58455 0.0
C170 C 0.37977 0.9785 0.56255 0.0
C171 C 0.42399 0.00958 0.56496 0.0
C172 C 0.4058 0.04197 0.58712 0.0
C173 C 0.43676 0.04089 0.57747 0.0
C174 C 0.4572 0.00914 0.55475 0.0
C175 C 0.38275 0.04819 0.52071 0.0
C176 C 0.35515 0.01495 0.50961 0.0
C177 C 0.41395 0.04462 0.5301 0.0
C178 C 0.41832 0.00796 0.5284 0.0
C179 C 0.35914 0.97799 0.50807 0.0
C180 C 0.39096 0.9748 0.51726 0.0
C181 C 0.45305 0.00559 0.53765 0.0
H182 H 0.66077 0.08388 0.51807 0.0
H183 H 0.60416 0.07587 0.53595 0.0
H184 H 0.57247 0.95787 0.49618 0.0
H185 H 0.51547 0.95115 0.51371 0.0
H186 H 0.6316 0.97599 0.56542 0.0
H187 H 0.5682 0.9668 0.54993 0.0
H188 H 0.62883 0.07324 0.59598 0.0
H189 H 0.56759 0.06629 0.57965 0.0
H190 H 0.31486 0.95557 0.56992 0.0
H191 H 0.36916 0.95329 0.55326 0.0
H192 H 0.41666 0.06651 0.5967 0.0
H193 H 0.47071 0.0649 0.57967 0.0
H194 H 0.38018 0.07693 0.52209 0.0
H195 H 0.43523 0.07084 0.53847 0.0
H196 H 0.33838 0.95215 0.49948 0.0
H197 H 0.39418 0.94648 0.51572 0.0
N198 N 0.48498 0.00515 0.52926 0.0
N199 N 0.49342 0.0127 0.56217 0.0
C200 C 0.42067 0.4104 0.85566 0.0
C201 C 0.39572 0.41908 0.84445 0.0
C202 C 0.4541 0.44394 0.86507 0.0
C203 C 0.46319 0.4867 0.86337 0.0
C204 C 0.40479 0.46189 0.84284 0.0
C205 C 0.43855 0.49547 0.85211 0.0
C206 C 0.49957 0.52265 0.87274 0.0
C207 C 0.39703 0.44595 0.90819 0.0
C208 C 0.41025 0.42942 0.92115 0.0
C209 C 0.42754 0.47627 0.89797 0.0
C210 C 0.47183 0.48991 0.90026 0.0
C211 C 0.45462 0.44371 0.92366 0.0
C212 C 0.4851 0.47368 0.91331 0.0
C213 C 0.50477 0.52301 0.88981 0.0
C214 C 0.65711 0.7018 0.90485 0.0
C215 C 0.6759 0.69141 0.91797 0.0
C216 C 0.62341 0.66899 0.89527 0.0
C217 C 0.60897 0.62523 0.8983 0.0
C218 C 0.66105 0.64778 0.92119 0.0
C219 C 0.628 0.61502 0.91142 0.0
C220 C 0.57206 0.58974 0.8888 0.0
C221 C 0.67257 0.66565 0.85213 0.0
C222 C 0.65901 0.68604 0.84078 0.0
C223 C 0.6427 0.63422 0.86225 0.0
C224 C 0.59882 0.62278 0.86124 0.0
C225 C 0.61493 0.67394 0.83963 0.0
C226 C 0.5851 0.6424 0.84969 0.0
C227 C 0.56662 0.58938 0.87171 0.0
H228 H 0.41427 0.37766 0.85714 0.0
H229 H 0.47325 0.4366 0.8735 0.0
H230 H 0.38639 0.46951 0.83414 0.0
H231 H 0.44535 0.52832 0.85053 0.0
H232 H 0.36315 0.43623 0.90619 0.0
H233 H 0.41649 0.48961 0.88848 0.0
H234 H 0.46569 0.43145 0.93355 0.0
H235 H 0.51911 0.4841 0.91547 0.0
H236 H 0.66757 0.73526 0.90234 0.0
H237 H 0.60811 0.67794 0.88574 0.0
H238 H 0.67509 0.63905 0.93126 0.0
H239 H 0.61714 0.58159 0.91416 0.0
H240 H 0.70634 0.67439 0.85332 0.0
H241 H 0.65385 0.6188 0.87084 0.0
H242 H 0.60338 0.68855 0.83083 0.0
H243 H 0.5513 0.63364 0.84856 0.0
N244 N 0.53047 0.55596 0.86439 0.0
N245 N 0.54095 0.55641 0.89713 0.0
C246 C 0.99023 0.18387 0.07086 0.0
C247 C 0.00915 0.15825 0.0739 0.0
C248 C 0.99043 0.21149 0.08293 0.0
C249 C 0.04561 0.26787 0.12172 0.0
H250 H 0.94578 0.28313 0.12418 0.0
C251 C 0.02831 0.37404 0.17139 0.0
C252 C 0.01492 0.40256 0.16559 0.0
C253 C 0.02732 0.34229 0.16108 0.0
C254 C 0.97395 0.27932 0.1236 0.0
H255 H 0.04299 0.14155 0.09216 0.0
H256 H 0.04261 0.18933 0.11337 0.0
H257 H 0.94403 0.23047 0.10485 0.0
H258 H 0.99114 0.42055 0.14421 0.0
H259 H 0.98847 0.36466 0.12644 0.0
H260 H 0.07527 0.31678 0.14062 0.0
C261 C 0.02823 0.18849 0.10152 0.0
C262 C 0.97306 0.24925 0.11249 0.0
C263 C 0.02828 0.16095 0.08937 0.0
C264 C 0.0007 0.39858 0.14923 0.0
C265 C -0.00069 0.36663 0.139 0.0
C266 C 0.04633 0.29775 0.13297 0.0
C267 C 0.00922 0.21405 0.09844 0.0
C268 C 0.00917 0.2437 0.11118 0.0
C269 C 0.0125 0.3381 0.14481 0.0
C270 C 0.01078 0.30428 0.1338 0.0
H271 H 0.97549 0.18298 0.05907 0.0
H272 H 0.97632 0.23134 0.07998 0.0
H273 H 0.07415 0.26476 0.12095 0.0
H274 H 0.03894 0.37578 0.18396 0.0
H275 H 0.0374 0.3205 0.1659 0.0
C276 C 0.94306 0.10516 0.43083 0.0
C277 C 0.93765 0.08331 0.41593 0.0
C278 C 0.90724 0.09746 0.43963 0.0
C279 C 0.78997 0.01904 0.44397 0.0
H280 H 0.79593 0.11455 0.46876 0.0
C281 C 0.64607 0.01055 0.4786 0.0
C282 C 0.65613 0.02628 0.4948 0.0
C283 C 0.67888 0.0162 0.4683 0.0
C284 C 0.79392 0.08757 0.46194 0.0
H285 H 0.89002 0.03631 0.39856 0.0
H286 H 0.82714 0.02381 0.41373 0.0
H287 H 0.85526 0.12756 0.45151 0.0
H288 H 0.70881 0.05911 0.51291 0.0
H289 H 0.76592 0.0702 0.49477 0.0
H290 H 0.72788 0.9794 0.45428 0.0
C291 C 0.8593 0.04624 0.41877 0.0
C292 C 0.82799 0.0949 0.4521 0.0
C293 C 0.89534 0.05357 0.41002 0.0
C294 C 0.69981 0.04745 0.50044 0.0
C295 C 0.73258 0.05364 0.49008 0.0
C296 C 0.75553 0.01186 0.45365 0.0
C297 C 0.86483 0.06817 0.4337 0.0
C298 C 0.8269 0.06061 0.44321 0.0
C299 C 0.72246 0.03825 0.47391 0.0
C300 C 0.75758 0.04595 0.46293 0.0
H301 H 0.97513 0.128 0.43587 0.0
H302 H 0.91297 0.11418 0.45124 0.0
H303 H 0.78813 0.99176 0.43745 0.0
H304 H 0.61296 0.9947 0.47372 0.0
H305 H 0.6703 0.00431 0.45584 0.0
C306 C 0.89584 0.98825 0.75571 0.0
C307 C 0.92634 0.98333 0.74694 0.0
C308 C 0.86686 0.95528 0.76551 0.0
C309 C 0.8182 0.8383 0.77334 0.0
H310 H 0.79488 0.87147 0.81506 0.0
C311 C 0.72202 0.71424 0.8224 0.0
C312 C 0.69061 0.71987 0.83016 0.0
C313 C 0.75121 0.7459 0.81218 0.0
C314 C 0.80077 0.86171 0.80339 0.0
H315 H 0.94969 0.93933 0.74149 0.0
H316 H 0.89948 0.88206 0.75879 0.0
H317 H 0.84452 0.92717 0.79715 0.0
H318 H 0.66567 0.76339 0.8335 0.0
H319 H 0.71642 0.81849 0.8156 0.0
H320 H 0.77457 0.7727 0.77972 0.0
C321 C 0.89764 0.91127 0.75789 0.0
C322 C 0.82915 0.89362 0.7931 0.0
C323 C 0.92657 0.94423 0.74801 0.0
C324 C 0.68924 0.75795 0.82758 0.0
C325 C 0.71857 0.78968 0.81745 0.0
C326 C 0.78993 0.80632 0.78368 0.0
C327 C 0.86772 0.91659 0.76688 0.0
C328 C 0.838 0.88236 0.77789 0.0
C329 C 0.74981 0.78398 0.80961 0.0
C330 C 0.78071 0.81772 0.79878 0.0
H331 H 0.89446 0.01776 0.75512 0.0
H332 H 0.84369 0.96015 0.77201 0.0
H333 H 0.82388 0.8285 0.76164 0.0
H334 H 0.72362 0.68508 0.82406 0.0
H335 H 0.77515 0.74076 0.8064 0.0
C336 C 0.08377 0.00957 0.08975 0.0
C337 C 0.04341 0.00382 0.08439 0.0
C338 C 0.08599 0.98232 0.10137 0.0
C339 C 0.02201 0.90289 0.13252 0.0
H340 H 0.09565 0.85495 0.12366 0.0
C341 C -0.00061 0.74844 0.16265 0.0
C342 C 0.03676 0.74724 0.16763 0.0
C343 C 0.00276 0.78278 0.15358 0.0
C344 C 0.07537 0.86848 0.12645 0.0
H345 H 0.97387 0.96591 0.08737 0.0
H346 H 0.97772 0.91846 0.10745 0.0
H347 H 0.09776 0.91092 0.10635 0.0
H348 H 0.10699 0.78102 0.16686 0.0
H349 H 0.11289 0.84124 0.15118 0.0
H350 H -0.00095 0.85988 0.15243 0.0
C351 C 0.00772 0.94415 0.10285 0.0
C352 C 0.07665 0.90063 0.11654 0.0
C353 C 0.0055 0.97123 0.09124 0.0
C354 C 0.0776 0.78119 0.16333 0.0
C355 C 0.08096 0.81548 0.15422 0.0
C356 C 0.02071 0.87074 0.1424 0.0
C357 C 0.04791 0.94895 0.1079 0.0
C358 C 0.04951 0.91775 0.11931 0.0
C359 C 0.04357 0.81668 0.14925 0.0
C360 C 0.04691 0.85271 0.13934 0.0
H361 H 0.11356 0.03445 0.08471 0.0
H362 H 0.11749 0.98714 0.10515 0.0
H363 H 0.00123 0.91593 0.13515 0.0
H364 H 0.96749 0.72301 0.1659 0.0
H365 H 0.97328 0.78245 0.14978 0.0
C366 C 0.0698 0.03113 0.42792 0.0
C367 C 0.08638 0.05903 0.41484 0.0
C368 C 0.09783 0.02643 0.43881 0.0
C369 C 0.20784 0.08033 0.45573 0.0
H370 H 0.19018 0.96561 0.46274 0.0
C371 C 0.33688 0.05645 0.48987 0.0
C372 C 0.32326 0.01961 0.49928 0.0
C373 C 0.30706 0.06096 0.47997 0.0
C374 C 0.19523 0.99783 0.46121 0.0
H375 H 0.14431 0.10095 0.40196 0.0
H376 H 0.19379 0.0943 0.42147 0.0
H377 H 0.13915 0.97436 0.4451 0.0
H378 H 0.26802 0.95891 0.50602 0.0
H379 H 0.2153 0.96744 0.48928 0.0
H380 H 0.26292 0.10406 0.47214 0.0
C381 C 0.15927 0.07682 0.42347 0.0
C382 C 0.16608 0.00276 0.45102 0.0
C383 C 0.13115 0.08095 0.41244 0.0
C384 C 0.27925 0.98745 0.49874 0.0
C385 C 0.24918 0.99232 0.48907 0.0
C386 C 0.23651 0.07541 0.46617 0.0
C387 C 0.14279 0.04945 0.43672 0.0
C388 C 0.17246 0.04408 0.44807 0.0
C389 C 0.26271 0.02909 0.47948 0.0
C390 C 0.23096 0.03412 0.46891 0.0
H391 H 0.03518 0.01303 0.4297 0.0
H392 H 0.08445 0.00497 0.44891 0.0
H393 H 0.21308 0.11245 0.45374 0.0
H394 H 0.37082 0.08144 0.48997 0.0
H395 H 0.31904 0.08922 0.47251 0.0
C396 C 0.10981 0.11753 0.76193 0.0
C397 C 0.10433 0.12967 0.7463 0.0
C398 C 0.14079 0.14829 0.77292 0.0
C399 C 0.24346 0.25071 0.77508 0.0
H400 H 0.21146 0.26236 0.81859 0.0
C401 C 0.36964 0.35481 0.82567 0.0
C402 C 0.36121 0.38388 0.83408 0.0
C403 C 0.33784 0.32288 0.81525 0.0
C404 C 0.22076 0.25945 0.80647 0.0
H405 H 0.12866 0.18178 0.72927 0.0
H406 H 0.18335 0.23572 0.74844 0.0
H407 H 0.15675 0.20812 0.79952 0.0
H408 H 0.31273 0.40175 0.83858 0.0
H409 H 0.25678 0.34543 0.82046 0.0
H410 H 0.3075 0.30179 0.78202 0.0
C411 C 0.16308 0.20283 0.75236 0.0
C412 C 0.1896 0.22833 0.79562 0.0
C413 C 0.13164 0.17224 0.74147 0.0
C414 C 0.32009 0.37988 0.83215 0.0
C415 C 0.28807 0.34755 0.82189 0.0
C416 C 0.27473 0.28137 0.78599 0.0
C417 C 0.16766 0.19123 0.76823 0.0
C418 C 0.20065 0.22382 0.77981 0.0
C419 C 0.29683 0.31908 0.81321 0.0
C420 C 0.26365 0.28612 0.80177 0.0
H421 H 0.08964 0.08447 0.76569 0.0
H422 H 0.14414 0.13841 0.78502 0.0
H423 H 0.25285 0.24768 0.76298 0.0
H424 H 0.40119 0.35741 0.82686 0.0
H425 H 0.34528 0.30111 0.80878 0.0
C426 C 0.91738 0.03108 0.67394 0.0
C427 C 0.93714 0.06863 0.68396 0.0
C428 C 0.88741 0.02592 0.66153 0.0
C429 C 0.85216 0.08506 0.63507 0.0
H430 H 0.73907 0.98071 0.6347 0.0
C431 C 0.70522 0.07084 0.59843 0.0
C432 C 0.67343 0.0302 0.59191 0.0
C433 C 0.73938 0.07489 0.60847 0.0
C434 C 0.77069 0.00969 0.63436 0.0
H435 H 0.94204 0.13082 0.68844 0.0
H436 H 0.89031 0.12201 0.66657 0.0
H437 H 0.79588 0.98891 0.65403 0.0
H438 H 0.65346 0.96199 0.5907 0.0
H439 H 0.71409 0.96939 0.60748 0.0
H440 H 0.8275 0.10579 0.61529 0.0
C441 C 0.89783 0.09653 0.66842 0.0
C442 C 0.80317 0.0144 0.64551 0.0
C443 C 0.92723 0.10141 0.68099 0.0
C444 C 0.67746 0.9939 0.59534 0.0
C445 C 0.71198 0.99805 0.60521 0.0
C446 C 0.81991 0.08012 0.62375 0.0
C447 C 0.87724 0.05852 0.65871 0.0
C448 C 0.84399 0.05236 0.64611 0.0
C449 C 0.74312 0.03851 0.61209 0.0
C450 C 0.77849 0.04263 0.6234 0.0
H451 H 0.92425 0.00521 0.67593 0.0
H452 H 0.87209 0.9964 0.65414 0.0
H453 H 0.88356 0.11447 0.63518 0.0
H454 H 0.70372 0.09969 0.59585 0.0
H455 H 0.76231 0.10652 0.61367 0.0
C456 C 0.91927 0.96348 0.01904 0.0
C457 C 0.96222 0.99097 0.01469 0.0
C458 C 0.88984 0.9308 0.00829 0.0
C459 C 0.86425 0.90112 0.96584 0.0
H460 H 0.79977 0.78288 0.98027 0.0
C461 C 0.74728 0.75998 0.9222 0.0
C462 C 0.70983 0.72592 0.92867 0.0
C463 C 0.77953 0.79221 0.93244 0.0
C464 C 0.81687 0.81578 0.97608 0.0
H465 H 0.00922 0.005 0.99632 0.0
H466 H 0.957 0.94843 0.97708 0.0
H467 H 0.85295 0.8396 -0.00127 0.0
H468 H 0.67581 0.69918 0.95073 0.0
H469 H 0.73085 0.75619 0.96857 0.0
H470 H 0.82712 0.87811 0.94346 0.0
C471 C 0.94616 0.95245 0.98876 0.0
C472 C 0.84756 0.84814 0.98664 0.0
C473 C 0.97587 0.98461 -0.00032 0.0
C474 C 0.70475 0.72488 0.94549 0.0
C475 C 0.73652 0.75746 0.9557 0.0
C476 C 0.8329 0.86891 0.95535 0.0
C477 C 0.90295 0.92529 0.99301 0.0
C478 C 0.87142 0.89103 0.98162 0.0
C479 C 0.77455 0.79142 0.94935 0.0
C480 C 0.80866 0.82577 0.96035 0.0
H481 H 0.90854 0.96725 0.03078 0.0
H482 H 0.85666 0.91022 0.01181 0.0
H483 H 0.88214 0.9341 0.96177 0.0
H484 H 0.75194 0.76121 0.90924 0.0
H485 H 0.80859 0.81733 0.92709 0.0
C486 C 0.96911 0.95569 0.33939 0.0
C487 C 0.0088 0.99187 0.34463 0.0
C488 C 0.96822 0.92567 0.32817 0.0
C489 C 0.0384 0.8853 0.31425 0.0
H490 H 0.95118 0.82904 0.27942 0.0
C491 C 0.01758 0.7361 0.27923 0.0
C492 C 0.0122 0.73544 0.26224 0.0
C493 C 0.01545 0.76724 0.28881 0.0
C494 C 0.97588 0.84467 0.28905 0.0
H495 H 0.07839 0.02619 0.34158 0.0
H496 H 0.07675 0.97425 0.32196 0.0
H497 H 0.95112 0.88551 0.29634 0.0
H498 H 0.00018 0.76702 0.24203 0.0
H499 H 0.99631 0.82136 0.25882 0.0
H500 H 0.06347 0.84498 0.30695 0.0
C501 C 0.04641 0.96855 0.32673 0.0
C502 C 0.97561 0.87671 0.2988 0.0
C503 C 0.04729 0.99845 0.3379 0.0
C504 C 0.00398 0.76631 0.25509 0.0
C505 C 0.00174 0.79744 0.2647 0.0
C506 C 0.03855 0.85325 0.30457 0.0
C507 C 0.00702 0.93129 0.32202 0.0
C508 C 0.00699 0.89745 0.31148 0.0
C509 C 0.00781 0.79844 0.28166 0.0
C510 C 0.0073 0.83252 0.29187 0.0
H511 H 0.93891 0.94975 0.34437 0.0
H512 H 0.93737 0.89718 0.32482 0.0
H513 H 0.06267 0.90022 0.32405 0.0
H514 H 0.02308 0.71226 0.28515 0.0
H515 H 0.01952 0.7667 0.30187 0.0
C516 C 0.12537 0.07265 0.67195 0.0
C517 C 0.09275 0.03618 0.67954 0.0
C518 C 0.15209 0.06842 0.66099 0.0
C519 C 0.16256 0.99052 0.6347 0.0
H520 H 0.28544 0.07511 0.63941 0.0
C521 C 0.29402 0.97472 0.60071 0.0
C522 C 0.32858 0.0129 0.59475 0.0
C523 C 0.26379 0.97641 0.61064 0.0
C524 C 0.25119 0.05153 0.63778 0.0
H525 H 0.06169 0.96644 0.68122 0.0
H526 H 0.10872 0.95904 0.66205 0.0
H527 H 0.23487 0.07982 0.65724 0.0
H528 H 0.35763 0.08263 0.59408 0.0
H529 H 0.30491 0.0856 0.6113 0.0
H530 H 0.17907 0.96227 0.61519 0.0
C531 C 0.11337 0.99089 0.66454 0.0
C532 C 0.22218 0.05422 0.64802 0.0
C533 C 0.08655 0.99514 0.67555 0.0
C534 C 0.33185 0.05272 0.59872 0.0
C535 C 0.30163 0.0544 0.6086 0.0
C536 C 0.19165 0.98786 0.62441 0.0
C537 C 0.14692 0.02762 0.65736 0.0
C538 C 0.1775 0.02394 0.64654 0.0
C539 C 0.26744 0.01632 0.61479 0.0
C540 C 0.2363 0.01851 0.62578 0.0
H541 H 0.13082 0.10472 0.67466 0.0
H542 H 0.17708 0.09724 0.65543 0.0
H543 H 0.12828 0.96692 0.63317 0.0
H544 H 0.29088 0.94358 0.59801 0.0
H545 H 0.23815 0.94653 0.61536 0.0
C546 C 0.14654 0.16703 0.0143 0.0
C547 C 0.10893 0.17013 0.01522 0.0
C548 C 0.18075 0.19554 0.0048 0.0
C549 C 0.20294 0.26883 0.97029 0.0
H550 H 0.32337 0.31004 0.98274 0.0
C551 C 0.33884 0.36288 0.92589 0.0
C552 C 0.37779 0.39809 0.9322 0.0
C553 C 0.30744 0.33428 0.93627 0.0
C554 C 0.28993 0.29914 0.97913 0.0
H555 H 0.0787 0.20694 0.00748 0.0
H556 H 0.13863 0.25723 0.99139 0.0
H557 H 0.26652 0.26397 0.00097 0.0
H558 H 0.41455 0.43093 0.95432 0.0
H559 H 0.35936 0.38159 0.9725 0.0
H560 H 0.22619 0.30508 0.94876 0.0
C561 C 0.14127 0.232 0.99756 0.0
C562 C 0.25726 0.27225 0.98951 0.0
C563 C 0.10697 0.20329 0.0069 0.0
C564 C 0.38498 0.40378 0.94912 0.0
C565 C 0.35338 0.37541 0.95953 0.0
C566 C 0.23553 0.29589 0.95999 0.0
C567 C 0.17827 0.22802 0.99613 0.0
C568 C 0.21333 0.2568 0.98522 0.0
C569 C 0.31402 0.34049 0.95323 0.0
C570 C 0.27946 0.31136 0.96425 0.0
H571 H 0.14902 0.14171 0.02049 0.0
H572 H 0.20853 0.19122 0.00387 0.0
H573 H 0.16947 0.25702 0.96643 0.0
H574 H 0.33273 0.35736 0.91289 0.0
H575 H 0.27798 0.30724 0.93098 0.0
C576 C 0.04862 0.22242 0.36134 0.0
C577 C 0.03318 0.17853 0.35757 0.0
C578 C 0.04744 0.24979 0.34961 0.0
C579 C 0.99551 0.24993 0.31 0.0
H580 H 0.09209 0.36784 0.30922 0.0
C581 C 0.01452 0.37062 0.25965 0.0
C582 C 0.02663 0.41274 0.26509 0.0
C583 C 0.01496 0.34078 0.27043 0.0
C584 C 0.06475 0.33509 0.30936 0.0
H585 H 0.00429 0.12909 0.33839 0.0
H586 H 0.00296 0.17713 0.31784 0.0
H587 H 0.09372 0.31809 0.32884 0.0
H588 H 0.04731 0.45585 0.28629 0.0
H589 H 0.04878 0.40417 0.30493 0.0
H590 H 0.96683 0.26717 0.29035 0.0
C591 C 0.01533 0.19017 0.32998 0.0
C592 C 0.06559 0.30658 0.32063 0.0
C593 C 0.01629 0.16266 0.34176 0.0
C594 C 0.03879 0.4241 0.28158 0.0
C595 C 0.03952 0.39444 0.29229 0.0
C596 C 0.99482 0.27845 0.29862 0.0
C597 C 0.03109 0.23414 0.33375 0.0
C598 C 0.03076 0.26378 0.32124 0.0
C599 C 0.02779 0.35253 0.28684 0.0
C600 C 0.02922 0.32147 0.29832 0.0
H601 H 0.06158 0.23577 0.37341 0.0
H602 H 0.05905 0.28325 0.35305 0.0
H603 H 0.96793 0.21735 0.31023 0.0
H604 H 0.00543 0.36092 0.24701 0.0
H605 H 0.00608 0.30879 0.26587 0.0
loop_
_geom_bond_atom_site_label_1
_geom_bond_atom_site_label_2
_geom_bond_distance
_geom_bond_site_symmetry_2
_ccdc_geom_bond_type
Mn0 O5 2.095 . S
Mn0 O15 2.162 . S
Mn0 O16 2.297 . S
Mn0 O24 2.385 1_545 S
Mn0 O25 2.209 1_455 S
Mn0 O26 2.094 . S
Mn1 O6 2.121 . S
Mn1 N8 2.257 1_455 S
Mn1 N17 2.282 1_455 S
Mn1 O25 2.215 1_455 S
Mn1 O27 2.117 . S
C2 O24 1.234 1_645 S
C2 O25 1.283 . S
C3 O15 1.279 1_565 S
C3 O16 1.230 1_565 S
C4 O26 1.240 . S
C4 O27 1.264 . S
O5 Mn0 2.095 . S
O5 C14 1.250 . S
O6 Mn1 2.121 . S
O6 C14 1.258 . S
C7 N8 1.326 . S
C7 C11 1.460 . S
C7 H13 0.929 . S
N8 Mn1 2.257 1_655 S
N8 C7 1.326 . S
N8 C12 1.362 . S
C9 C10 1.258 . S
C9 C12 1.431 . S
C9 C29 1.449 1_554 S
C10 C9 1.258 . S
C10 C11 1.477 . S
C10 H30 0.931 . S
C11 C7 1.460 . S
C11 C10 1.477 . S
C11 H31 0.930 . S
C12 N8 1.362 . S
C12 C9 1.431 . S
C12 C22 1.441 1_554 S
H13 C7 0.929 . S
C14 O5 1.250 . S
C14 O6 1.258 . S
O15 Mn0 2.162 . S
O15 C3 1.279 1_545 S
O16 Mn0 2.297 . S
O16 C3 1.230 1_545 S
N17 Mn1 2.282 1_655 S
N17 C18 1.328 1_654 S
N17 C22 1.307 1_554 S
C18 N17 1.328 1_456 S
C18 C19 1.457 1_455 S
C18 H23 0.929 . S
C19 C18 1.457 1_655 S
C19 C20 1.291 . S
C19 H32 0.931 1_655 S
C20 C19 1.291 . S
C20 C21 1.373 . S
C20 H33 0.929 . S
C21 C20 1.373 . S
C21 C22 1.440 . S
C21 C28 1.403 . S
C22 C12 1.441 1_556 S
C22 N17 1.307 1_556 S
C22 C21 1.440 . S
H23 C18 0.929 . S
O24 Mn0 2.385 1_565 S
O24 C2 1.234 1_465 S
O25 Mn0 2.209 1_655 S
O25 Mn1 2.215 1_655 S
O25 C2 1.283 . S
O26 Mn0 2.094 . S
O26 C4 1.240 . S
O27 Mn1 2.117 . S
O27 C4 1.264 . S
C28 C21 1.403 . S
C28 C29 1.399 . S
C28 H34 0.929 . S
C29 C9 1.449 1_556 S
C29 C28 1.399 . S
C29 H35 0.930 . S
H30 C10 0.931 . S
H31 C11 0.930 . S
H32 C19 0.931 1_455 S
H33 C20 0.929 . S
H34 C28 0.929 . S
H35 C29 0.930 . S
Mn36 O41 2.095 . S
Mn36 O51 2.162 1_545 S
Mn36 O52 2.297 1_655 S
Mn36 O60 2.385 1_655 S
Mn36 O61 2.209 1_655 S
Mn36 O62 2.094 . S
Mn37 O42 2.121 . S
Mn37 N44 2.257 . S
Mn37 N53 2.282 . S
Mn37 O61 2.215 . S
Mn37 O63 2.117 1_455 S
C38 O60 1.234 . S
C38 O61 1.283 . S
C39 O51 1.281 1_455 S
C39 O52 1.236 1_565 S
C40 O62 1.240 . S
C40 O63 1.264 . S
O41 Mn36 2.095 . S
O41 C50 1.250 1_655 S
O42 Mn37 2.121 . S
O42 C50 1.258 . S
C43 N44 1.326 . S
C43 C47 1.460 . S
C43 H49 0.929 . S
N44 Mn37 2.257 . S
N44 C43 1.326 . S
N44 C48 1.362 . S
C45 C46 1.258 . S
C45 C48 1.431 . S
C45 C65 1.449 . S
C46 C45 1.258 . S
C46 C47 1.477 . S
C46 H66 0.931 . S
C47 C43 1.460 . S
C47 C46 1.477 . S
C47 H67 0.930 . S
C48 N44 1.362 . S
C48 C45 1.431 . S
C48 C58 1.476 . S
H49 C43 0.929 . S
C50 O41 1.250 1_455 S
C50 O42 1.258 . S
O51 Mn36 2.162 1_565 S
O51 C39 1.281 1_655 S
O52 Mn36 2.297 1_455 S
O52 C39 1.236 1_545 S
N53 Mn37 2.282 . S
N53 C54 1.328 . S
N53 C58 1.318 . S
C54 N53 1.328 . S
C54 C55 1.457 . S
C54 H59 0.929 . S
C55 C54 1.457 . S
C55 C56 1.291 . S
C55 H68 0.931 . S
C56 C55 1.291 . S
C56 C57 1.373 . S
C56 H69 0.929 . S
C57 C56 1.373 . S
C57 C58 1.396 . S
C57 C64 1.403 . S
C58 C48 1.476 . S
C58 N53 1.318 . S
C58 C57 1.396 . S
H59 C54 0.929 . S
O60 Mn36 2.385 1_455 S
O60 C38 1.234 . S
O61 Mn36 2.209 1_455 S
O61 Mn37 2.215 . S
O61 C38 1.283 . S
O62 Mn36 2.094 . S
O62 C40 1.240 . S
O63 Mn37 2.117 1_655 S
O63 C40 1.264 . S
C64 C57 1.403 . S
C64 C65 1.399 . S
C64 H70 0.929 . S
C65 C45 1.449 . S
C65 C64 1.399 . S
C65 H71 0.930 . S
H66 C46 0.931 . S
H67 C47 0.930 . S
H68 C55 0.931 . S
H69 C56 0.929 . S
H70 C64 0.929 . S
H71 C65 0.930 . S
Mn72 O77 2.095 1_455 S
Mn72 O87 2.162 . S
Mn72 O88 2.297 . S
Mn72 O96 2.385 . S
Mn72 O97 2.209 . S
Mn72 O98 2.094 1_445 S
Mn73 O78 2.121 . S
Mn73 N80 2.257 . S
Mn73 N89 2.282 1_655 S
Mn73 O97 2.215 1_655 S
Mn73 O99 2.117 . S
C74 O96 1.234 . S
C74 O97 1.283 . S
C75 O87 1.281 . S
C75 O88 1.236 . S
C76 O98 1.240 . S
C76 O99 1.264 1_565 S
O77 Mn72 2.095 1_655 S
O77 C86 1.250 . S
O78 Mn73 2.121 . S
O78 C86 1.258 . S
C79 N80 1.326 . S
C79 C83 1.460 1_655 S
C79 H85 0.929 . S
N80 Mn73 2.257 . S
N80 C79 1.326 . S
N80 C84 1.362 1_655 S
C81 C82 1.258 . S
C81 C84 1.431 . S
C81 C101 1.449 . S
C82 C81 1.258 . S
C82 C83 1.477 . S
C82 H102 0.931 . S
C83 C79 1.460 1_455 S
C83 C82 1.477 . S
C83 H103 0.931 1_455 S
C84 N80 1.362 1_455 S
C84 C81 1.431 . S
C84 C94 1.476 . S
H85 C79 0.929 . S
C86 O77 1.250 . S
C86 O78 1.258 . S
O87 Mn72 2.162 . S
O87 C75 1.281 . S
O88 Mn72 2.297 . S
O88 C75 1.236 . S
N89 Mn73 2.282 1_455 S
N89 C90 1.328 . S
N89 C94 1.318 . S
C90 N89 1.328 . S
C90 C91 1.457 . S
C90 H95 0.928 1_455 S
C91 C90 1.457 . S
C91 C92 1.291 . S
C91 H104 0.931 . S
C92 C91 1.291 . S
C92 C93 1.373 . S
C92 H105 0.929 . S
C93 C92 1.373 . S
C93 C94 1.396 . S
C93 C100 1.403 . S
C94 C84 1.476 . S
C94 N89 1.318 . S
C94 C93 1.396 . S
H95 C90 0.928 1_655 S
O96 Mn72 2.385 . S
O96 C74 1.234 . S
O97 Mn72 2.209 . S
O97 Mn73 2.215 1_455 S
O97 C74 1.283 . S
O98 Mn72 2.094 1_665 S
O98 C76 1.240 . S
O99 Mn73 2.117 . S
O99 C76 1.264 1_545 S
C100 C93 1.403 . S
C100 C101 1.399 . S
C100 H106 0.929 . S
C101 C81 1.449 . S
C101 C100 1.399 . S
C101 H107 0.930 . S
H102 C82 0.931 . S
H103 C83 0.931 1_655 S
H104 C91 0.931 . S
H105 C92 0.929 . S
H106 C100 0.929 . S
H107 C101 0.930 . S
C108 C109 1.384 1_655 S
C108 C110 1.384 . S
C108 H136 0.931 . S
C109 C108 1.384 1_455 S
C109 C112 1.382 . S
C110 C108 1.384 . S
C110 C111 1.381 1_655 S
C110 H137 0.930 . S
C111 C110 1.381 1_455 S
C111 C113 1.381 . S
C111 C114 1.487 . S
C112 C109 1.382 . S
C112 C113 1.387 . S
C112 H138 0.930 . S
C113 C111 1.381 . S
C113 C112 1.387 . S
C113 H139 0.931 . S
C114 C111 1.487 . S
C114 C121 1.399 . S
C114 N152 1.343 . S
C115 C116 1.384 . S
C115 C117 1.384 . S
C115 H140 0.931 . S
C116 C115 1.384 . S
C116 C119 1.382 1_455 S
C117 C115 1.384 . S
C117 C118 1.381 . S
C117 H141 0.930 . S
C118 C117 1.381 . S
C118 C120 1.381 1_455 S
C118 C121 1.487 . S
C119 C116 1.382 1_655 S
C119 C120 1.387 . S
C119 H142 0.930 . S
C120 C118 1.381 1_655 S
C120 C119 1.387 . S
C120 H143 0.931 . S
C121 C114 1.399 . S
C121 C118 1.487 . S
C121 N153 1.343 . S
C122 C123 1.384 . S
C122 C124 1.384 . S
C122 H144 0.931 . S
C123 C122 1.384 . S
C123 C126 1.382 1_455 S
C124 C122 1.384 . S
C124 C125 1.381 . S
C124 H145 0.930 . S
C125 C124 1.381 . S
C125 C127 1.381 1_455 S
C125 C128 1.487 . S
C126 C123 1.382 1_655 S
C126 C127 1.387 . S
C126 H146 0.930 . S
C127 C125 1.381 1_655 S
C127 C126 1.387 . S
C127 H147 0.931 . S
C128 C125 1.487 . S
C128 C135 1.399 . S
C128 N153 1.343 . S
C129 C130 1.384 1_655 S
C129 C131 1.384 . S
C129 H148 0.931 . S
C130 C129 1.384 1_455 S
C130 C133 1.382 . S
C131 C129 1.384 . S
C131 C132 1.381 1_655 S
C131 H149 0.930 . S
C132 C131 1.381 1_455 S
C132 C134 1.381 . S
C132 C135 1.487 . S
C133 C130 1.382 . S
C133 C134 1.387 . S
C133 H150 0.930 . S
C134 C132 1.381 . S
C134 C133 1.387 . S
C134 H151 0.931 . S
C135 C128 1.399 . S
C135 C132 1.487 . S
C135 N152 1.343 . S
H136 C108 0.931 . S
H137 C110 0.930 . S
H138 C112 0.930 . S
H139 C113 0.931 . S
H140 C115 0.931 . S
H141 C117 0.930 . S
H142 C119 0.930 . S
H143 C120 0.931 . S
H144 C122 0.931 . S
H145 C124 0.930 . S
H146 C126 0.930 . S
H147 C127 0.931 . S
H148 C129 0.931 . S
H149 C131 0.930 . S
H150 C133 0.930 . S
H151 C134 0.931 . S
N152 C114 1.343 . S
N152 C135 1.343 . S
N153 C121 1.343 . S
N153 C128 1.343 . S
C154 C155 1.384 . S
C154 C156 1.384 . S
C154 H182 0.931 . S
C155 C154 1.384 . S
C155 C158 1.382 . S
C156 C154 1.384 . S
C156 C157 1.381 . S
C156 H183 0.930 . S
C157 C156 1.381 . S
C157 C159 1.381 . S
C157 C160 1.487 . S
C158 C155 1.382 . S
C158 C159 1.387 . S
C158 H184 0.930 . S
C159 C157 1.381 . S
C159 C158 1.387 . S
C159 H185 0.931 . S
C160 C157 1.487 . S
C160 C167 1.399 . S
C160 N198 1.343 . S
C161 C162 1.384 . S
C161 C163 1.384 . S
C161 H186 0.931 . S
C162 C161 1.384 . S
C162 C165 1.382 . S
C163 C161 1.384 . S
C163 C164 1.381 . S
C163 H187 0.930 . S
C164 C163 1.381 . S
C164 C166 1.381 . S
C164 C167 1.487 . S
C165 C162 1.382 . S
C165 C166 1.387 . S
C165 H188 0.930 . S
C166 C164 1.381 . S
C166 C165 1.387 . S
C166 H189 0.931 . S
C167 C160 1.399 . S
C167 C164 1.487 . S
C167 N199 1.343 . S
C168 C169 1.384 . S
C168 C170 1.384 . S
C168 H190 0.931 . S
C169 C168 1.384 . S
C169 C172 1.382 . S
C170 C168 1.384 . S
C170 C171 1.381 . S
C170 H191 0.930 . S
C171 C170 1.381 . S
C171 C173 1.381 . S
C171 C174 1.487 . S
C172 C169 1.382 . S
C172 C173 1.387 . S
C172 H192 0.930 . S
C173 C171 1.381 . S
C173 C172 1.387 . S
C173 H193 0.931 . S
C174 C171 1.487 . S
C174 C181 1.399 . S
C174 N199 1.343 . S
C175 C176 1.384 . S
C175 C177 1.384 . S
C175 H194 0.931 . S
C176 C175 1.384 . S
C176 C179 1.382 . S
C177 C175 1.384 . S
C177 C178 1.381 . S
C177 H195 0.930 . S
C178 C177 1.381 . S
C178 C180 1.381 . S
C178 C181 1.487 . S
C179 C176 1.382 . S
C179 C180 1.387 . S
C179 H196 0.930 . S
C180 C178 1.381 . S
C180 C179 1.387 . S
C180 H197 0.931 . S
C181 C174 1.399 . S
C181 C178 1.487 . S
C181 N198 1.343 . S
H182 C154 0.931 . S
H183 C156 0.930 . S
H184 C158 0.930 . S
H185 C159 0.931 . S
H186 C161 0.931 . S
H187 C163 0.930 . S
H188 C165 0.930 . S
H189 C166 0.931 . S
H190 C168 0.931 . S
H191 C170 0.930 . S
H192 C172 0.930 . S
H193 C173 0.931 . S
H194 C175 0.931 . S
H195 C177 0.930 . S
H196 C179 0.930 . S
H197 C180 0.931 . S
N198 C160 1.343 . S
N198 C181 1.343 . S
N199 C167 1.343 . S
N199 C174 1.343 . S
C200 C201 1.384 . S
C200 C202 1.384 . S
C200 H228 0.931 . S
C201 C200 1.384 . S
C201 C204 1.382 . S
C202 C200 1.384 . S
C202 C203 1.381 . S
C202 H229 0.930 . S
C203 C202 1.381 . S
C203 C205 1.381 . S
C203 C206 1.487 . S
C204 C201 1.382 . S
C204 C205 1.387 . S
C204 H230 0.930 . S
C205 C203 1.381 . S
C205 C204 1.387 . S
C205 H231 0.931 . S
C206 C203 1.487 . S
C206 C213 1.399 . S
C206 N244 1.343 . S
C207 C208 1.384 . S
C207 C209 1.384 . S
C207 H232 0.931 . S
C208 C207 1.384 . S
C208 C211 1.382 . S
C209 C207 1.384 . S
C209 C210 1.381 . S
C209 H233 0.930 . S
C210 C209 1.381 . S
C210 C212 1.381 . S
C210 C213 1.487 . S
C211 C208 1.382 . S
C211 C212 1.387 . S
C211 H234 0.930 . S
C212 C210 1.381 . S
C212 C211 1.387 . S
C212 H235 0.931 . S
C213 C206 1.399 . S
C213 C210 1.487 . S
C213 N245 1.343 . S
C214 C215 1.384 . S
C214 C216 1.384 . S
C214 H236 0.931 . S
C215 C214 1.384 . S
C215 C218 1.382 . S
C216 C214 1.384 . S
C216 C217 1.381 . S
C216 H237 0.930 . S
C217 C216 1.381 . S
C217 C219 1.381 . S
C217 C220 1.487 . S
C218 C215 1.382 . S
C218 C219 1.387 . S
C218 H238 0.930 . S
C219 C217 1.381 . S
C219 C218 1.387 . S
C219 H239 0.931 . S
C220 C217 1.487 . S
C220 C227 1.399 . S
C220 N245 1.343 . S
C221 C222 1.384 . S
C221 C223 1.384 . S
C221 H240 0.931 . S
C222 C221 1.384 . S
C222 C225 1.382 . S
C223 C221 1.384 . S
C223 C224 1.381 . S
C223 H241 0.930 . S
C224 C223 1.381 . S
C224 C226 1.381 . S
C224 C227 1.487 . S
C225 C222 1.382 . S
C225 C226 1.387 . S
C225 H242 0.930 . S
C226 C224 1.381 . S
C226 C225 1.387 . S
C226 H243 0.931 . S
C227 C220 1.399 . S
C227 C224 1.487 . S
C227 N244 1.343 . S
H228 C200 0.931 . S
H229 C202 0.930 . S
H230 C204 0.930 . S
H231 C205 0.931 . S
H232 C207 0.931 . S
H233 C209 0.930 . S
H234 C211 0.930 . S
H235 C212 0.931 . S
H236 C214 0.931 . S
H237 C216 0.930 . S
H238 C218 0.930 . S
H239 C219 0.931 . S
H240 C221 0.931 . S
H241 C223 0.930 . S
H242 C225 0.930 . S
H243 C226 0.931 . S
N244 C206 1.343 . S
N244 C227 1.343 . S
N245 C213 1.343 . S
N245 C220 1.343 . S
C246 C247 1.349 . S
C246 C248 1.327 . S
C246 H271 0.950 . S
C247 C246 1.349 . S
C247 C263 1.349 . S
C248 C246 1.327 . S
C248 C267 1.429 . S
C248 H272 0.950 . S
C249 C266 1.574 . S
C249 C268 1.368 . S
C249 H273 0.949 . S
H250 C254 0.949 . S
C251 C252 1.349 . S
C251 C253 1.327 . S
C251 H274 0.950 . S
C252 C251 1.349 . S
C252 C264 1.349 . S
C253 C251 1.327 . S
C253 C269 1.429 . S
C253 H275 0.950 . S
C254 H250 0.949 . S
C254 C262 1.574 . S
C254 C270 1.368 . S
H255 C263 0.950 . S
H256 C261 0.950 . S
H257 C262 0.949 . S
H258 C264 0.950 . S
H259 C265 0.950 . S
H260 C266 0.949 . S
C261 H256 0.950 . S
C261 C263 1.327 . S
C261 C267 1.429 . S
C262 C254 1.574 . S
C262 H257 0.949 . S
C262 C268 1.368 . S
C263 C247 1.349 . S
C263 H255 0.950 . S
C263 C261 1.327 . S
C264 C252 1.349 . S
C264 H258 0.950 . S
C264 C265 1.327 . S
C265 H259 0.950 . S
C265 C264 1.327 . S
C265 C269 1.429 . S
C266 C249 1.574 . S
C266 H260 0.949 . S
C266 C270 1.368 . S
C267 C248 1.429 . S
C267 C261 1.429 . S
C267 C268 1.523 . S
C268 C249 1.368 . S
C268 C262 1.368 . S
C268 C267 1.523 . S
C269 C253 1.429 . S
C269 C265 1.429 . S
C269 C270 1.523 . S
C270 C254 1.368 . S
C270 C266 1.368 . S
C270 C269 1.523 . S
H271 C246 0.950 . S
H272 C248 0.950 . S
H273 C249 0.949 . S
H274 C251 0.950 . S
H275 C253 0.950 . S
C276 C277 1.349 . S
C276 C278 1.327 . S
C276 H301 0.950 . S
C277 C276 1.349 . S
C277 C293 1.349 . S
C278 C276 1.327 . S
C278 C297 1.429 . S
C278 H302 0.950 . S
C279 C296 1.574 . S
C279 C298 1.368 . S
C279 H303 0.949 . S
H280 C284 0.949 . S
C281 C282 1.349 . S
C281 C283 1.327 . S
C281 H304 0.950 . S
C282 C281 1.349 . S
C282 C294 1.349 . S
C283 C281 1.327 . S
C283 C299 1.429 . S
C283 H305 0.950 . S
C284 H280 0.949 . S
C284 C292 1.574 . S
C284 C300 1.368 . S
H285 C293 0.950 . S
H286 C291 0.950 . S
H287 C292 0.949 . S
H288 C294 0.950 . S
H289 C295 0.950 . S
H290 C296 0.949 . S
C291 H286 0.950 . S
C291 C293 1.327 . S
C291 C297 1.429 . S
C292 C284 1.574 . S
C292 H287 0.949 . S
C292 C298 1.368 . S
C293 C277 1.349 . S
C293 H285 0.950 . S
C293 C291 1.327 . S
C294 C282 1.349 . S
C294 H288 0.950 . S
C294 C295 1.327 . S
C295 H289 0.950 . S
C295 C294 1.327 . S
C295 C299 1.429 . S
C296 C279 1.574 . S
C296 H290 0.949 . S
C296 C300 1.368 . S
C297 C278 1.429 . S
C297 C291 1.429 . S
C297 C298 1.523 . S
C298 C279 1.368 . S
C298 C292 1.368 . S
C298 C297 1.523 . S
C299 C283 1.429 . S
C299 C295 1.429 . S
C299 C300 1.523 . S
C300 C284 1.368 . S
C300 C296 1.368 . S
C300 C299 1.523 . S
H301 C276 0.950 . S
H302 C278 0.950 . S
H303 C279 0.949 . S
H304 C281 0.950 . S
H305 C283 0.950 . S
C306 C307 1.349 . S
C306 C308 1.327 . S
C306 H331 0.950 . S
C307 C306 1.349 . S
C307 C323 1.349 . S
C308 C306 1.327 . S
C308 C327 1.429 . S
C308 H332 0.950 . S
C309 C326 1.574 . S
C309 C328 1.368 . S
C309 H333 0.949 . S
H310 C314 0.949 . S
C311 C312 1.349 . S
C311 C313 1.327 . S
C311 H334 0.950 . S
C312 C311 1.349 . S
C312 C324 1.349 . S
C313 C311 1.327 . S
C313 C329 1.429 . S
C313 H335 0.950 . S
C314 H310 0.949 . S
C314 C322 1.574 . S
C314 C330 1.368 . S
H315 C323 0.950 . S
H316 C321 0.950 . S
H317 C322 0.949 . S
H318 C324 0.950 . S
H319 C325 0.950 . S
H320 C326 0.949 . S
C321 H316 0.950 . S
C321 C323 1.327 . S
C321 C327 1.429 . S
C322 C314 1.574 . S
C322 H317 0.949 . S
C322 C328 1.368 . S
C323 C307 1.349 . S
C323 H315 0.950 . S
C323 C321 1.327 . S
C324 C312 1.349 . S
C324 H318 0.950 . S
C324 C325 1.327 . S
C325 H319 0.950 . S
C325 C324 1.327 . S
C325 C329 1.429 . S
C326 C309 1.574 . S
C326 H320 0.949 . S
C326 C330 1.368 . S
C327 C308 1.429 . S
C327 C321 1.429 . S
C327 C328 1.523 . S
C328 C309 1.368 . S
C328 C322 1.368 . S
C328 C327 1.523 . S
C329 C313 1.429 . S
C329 C325 1.429 . S
C329 C330 1.523 . S
C330 C314 1.368 . S
C330 C326 1.368 . S
C330 C329 1.523 . S
H331 C306 0.950 . S
H332 C308 0.950 . S
H333 C309 0.949 . S
H334 C311 0.950 . S
H335 C313 0.950 . S
C336 C337 1.349 . S
C336 C338 1.327 . S
C336 H361 0.950 . S
C337 C336 1.349 . S
C337 C353 1.349 . S
C338 C336 1.327 . S
C338 C357 1.429 . S
C338 H362 0.950 . S
C339 C356 1.574 . S
C339 C358 1.368 . S
C339 H363 0.949 . S
H340 C344 0.949 . S
C341 C342 1.349 . S
C341 C343 1.327 . S
C341 H364 0.950 . S
C342 C341 1.349 . S
C342 C354 1.349 . S
C343 C341 1.327 . S
C343 C359 1.429 . S
C343 H365 0.950 . S
C344 H340 0.949 . S
C344 C352 1.574 . S
C344 C360 1.368 . S
H345 C353 0.950 . S
H346 C351 0.950 . S
H347 C352 0.949 . S
H348 C354 0.950 . S
H349 C355 0.950 . S
H350 C356 0.949 . S
C351 H346 0.950 . S
C351 C353 1.327 . S
C351 C357 1.429 . S
C352 C344 1.574 . S
C352 H347 0.949 . S
C352 C358 1.368 . S
C353 C337 1.349 . S
C353 H345 0.950 . S
C353 C351 1.327 . S
C354 C342 1.349 . S
C354 H348 0.950 . S
C354 C355 1.327 . S
C355 H349 0.950 . S
C355 C354 1.327 . S
C355 C359 1.429 . S
C356 C339 1.574 . S
C356 H350 0.949 . S
C356 C360 1.368 . S
C357 C338 1.429 . S
C357 C351 1.429 . S
C357 C358 1.523 . S
C358 C339 1.368 . S
C358 C352 1.368 . S
C358 C357 1.523 . S
C359 C343 1.429 . S
C359 C355 1.429 . S
C359 C360 1.523 . S
C360 C344 1.368 . S
C360 C356 1.368 . S
C360 C359 1.523 . S
H361 C336 0.950 . S
H362 C338 0.950 . S
H363 C339 0.949 . S
H364 C341 0.950 . S
H365 C343 0.950 . S
C366 C367 1.349 . S
C366 C368 1.327 . S
C366 H391 0.950 . S
C367 C366 1.349 . S
C367 C383 1.349 . S
C368 C366 1.327 . S
C368 C387 1.429 . S
C368 H392 0.950 . S
C369 C386 1.574 . S
C369 C388 1.368 . S
C369 H393 0.949 . S
H370 C374 0.949 . S
C371 C372 1.349 . S
C371 C373 1.327 . S
C371 H394 0.950 . S
C372 C371 1.349 . S
C372 C384 1.349 . S
C373 C371 1.327 . S
C373 C389 1.429 . S
C373 H395 0.950 . S
C374 H370 0.949 . S
C374 C382 1.574 . S
C374 C390 1.368 . S
H375 C383 0.950 . S
H376 C381 0.950 . S
H377 C382 0.949 . S
H378 C384 0.950 . S
H379 C385 0.950 . S
H380 C386 0.949 . S
C381 H376 0.950 . S
C381 C383 1.327 . S
C381 C387 1.429 . S
C382 C374 1.574 . S
C382 H377 0.949 . S
C382 C388 1.368 . S
C383 C367 1.349 . S
C383 H375 0.950 . S
C383 C381 1.327 . S
C384 C372 1.349 . S
C384 H378 0.950 . S
C384 C385 1.327 . S
C385 H379 0.950 . S
C385 C384 1.327 . S
C385 C389 1.429 . S
C386 C369 1.574 . S
C386 H380 0.949 . S
C386 C390 1.368 . S
C387 C368 1.429 . S
C387 C381 1.429 . S
C387 C388 1.523 . S
C388 C369 1.368 . S
C388 C382 1.368 . S
C388 C387 1.523 . S
C389 C373 1.429 . S
C389 C385 1.429 . S
C389 C390 1.523 . S
C390 C374 1.368 . S
C390 C386 1.368 . S
C390 C389 1.523 . S
H391 C366 0.950 . S
H392 C368 0.950 . S
H393 C369 0.949 . S
H394 C371 0.950 . S
H395 C373 0.950 . S
C396 C397 1.349 . S
C396 C398 1.327 . S
C396 H421 0.950 . S
C397 C396 1.349 . S
C397 C413 1.349 . S
C398 C396 1.327 . S
C398 C417 1.429 . S
C398 H422 0.950 . S
C399 C416 1.574 . S
C399 C418 1.368 . S
C399 H423 0.949 . S
H400 C404 0.949 . S
C401 C402 1.349 . S
C401 C403 1.327 . S
C401 H424 0.950 . S
C402 C401 1.349 . S
C402 C414 1.349 . S
C403 C401 1.327 . S
C403 C419 1.429 . S
C403 H425 0.950 . S
C404 H400 0.949 . S
C404 C412 1.574 . S
C404 C420 1.368 . S
H405 C413 0.950 . S
H406 C411 0.950 . S
H407 C412 0.949 . S
H408 C414 0.950 . S
H409 C415 0.950 . S
H410 C416 0.949 . S
C411 H406 0.950 . S
C411 C413 1.327 . S
C411 C417 1.429 . S
C412 C404 1.574 . S
C412 H407 0.949 . S
C412 C418 1.368 . S
C413 C397 1.349 . S
C413 H405 0.950 . S
C413 C411 1.327 . S
C414 C402 1.349 . S
C414 H408 0.950 . S
C414 C415 1.327 . S
C415 H409 0.950 . S
C415 C414 1.327 . S
C415 C419 1.429 . S
C416 C399 1.574 . S
C416 H410 0.949 . S
C416 C420 1.368 . S
C417 C398 1.429 . S
C417 C411 1.429 . S
C417 C418 1.523 . S
C418 C399 1.368 . S
C418 C412 1.368 . S
C418 C417 1.523 . S
C419 C403 1.429 . S
C419 C415 1.429 . S
C419 C420 1.523 . S
C420 C404 1.368 . S
C420 C416 1.368 . S
C420 C419 1.523 . S
H421 C396 0.950 . S
H422 C398 0.950 . S
H423 C399 0.949 . S
H424 C401 0.950 . S
H425 C403 0.950 . S
C426 C427 1.349 . S
C426 C428 1.327 . S
C426 H451 0.950 . S
C427 C426 1.349 . S
C427 C443 1.349 . S
C428 C426 1.327 . S
C428 C447 1.429 . S
C428 H452 0.950 . S
C429 C446 1.574 . S
C429 C448 1.368 . S
C429 H453 0.949 . S
H430 C434 0.949 . S
C431 C432 1.349 . S
C431 C433 1.327 . S
C431 H454 0.950 . S
C432 C431 1.349 . S
C432 C444 1.349 . S
C433 C431 1.327 . S
C433 C449 1.429 . S
C433 H455 0.950 . S
C434 H430 0.949 . S
C434 C442 1.574 . S
C434 C450 1.368 . S
H435 C443 0.950 . S
H436 C441 0.950 . S
H437 C442 0.949 . S
H438 C444 0.950 . S
H439 C445 0.950 . S
H440 C446 0.949 . S
C441 H436 0.950 . S
C441 C443 1.327 . S
C441 C447 1.429 . S
C442 C434 1.574 . S
C442 H437 0.949 . S
C442 C448 1.368 . S
C443 C427 1.349 . S
C443 H435 0.950 . S
C443 C441 1.327 . S
C444 C432 1.349 . S
C444 H438 0.950 . S
C444 C445 1.327 . S
C445 H439 0.950 . S
C445 C444 1.327 . S
C445 C449 1.429 . S
C446 C429 1.574 . S
C446 H440 0.949 . S
C446 C450 1.368 . S
C447 C428 1.429 . S
C447 C441 1.429 . S
C447 C448 1.523 . S
C448 C429 1.368 . S
C448 C442 1.368 . S
C448 C447 1.523 . S
C449 C433 1.429 . S
C449 C445 1.429 . S
C449 C450 1.523 . S
C450 C434 1.368 . S
C450 C446 1.368 . S
C450 C449 1.523 . S
H451 C426 0.950 . S
H452 C428 0.950 . S
H453 C429 0.949 . S
H454 C431 0.950 . S
H455 C433 0.950 . S
C456 C457 1.349 . S
C456 C458 1.327 . S
C456 H481 0.950 . S
C457 C456 1.349 . S
C457 C473 1.349 . S
C458 C456 1.327 . S
C458 C477 1.429 1_554 S
C458 H482 0.950 . S
C459 C476 1.574 . S
C459 C478 1.368 . S
C459 H483 0.949 . S
H460 C464 0.949 . S
C461 C462 1.349 . S
C461 C463 1.327 . S
C461 H484 0.950 . S
C462 C461 1.349 . S
C462 C474 1.349 . S
C463 C461 1.327 . S
C463 C479 1.429 . S
C463 H485 0.950 . S
C464 H460 0.949 . S
C464 C472 1.574 . S
C464 C480 1.368 . S
H465 C473 0.938 1_546 S
H466 C471 0.950 . S
H467 C472 0.949 1_554 S
H468 C474 0.950 . S
H469 C475 0.950 . S
H470 C476 0.949 . S
C471 H466 0.950 . S
C471 C473 1.327 1_556 S
C471 C477 1.429 . S
C472 C464 1.574 . S
C472 H467 0.949 1_556 S
C472 C478 1.368 . S
C473 C457 1.349 . S
C473 H465 0.938 1_564 S
C473 C471 1.327 1_554 S
C474 C462 1.349 . S
C474 H468 0.950 . S
C474 C475 1.327 . S
C475 H469 0.950 . S
C475 C474 1.327 . S
C475 C479 1.429 . S
C476 C459 1.574 . S
C476 H470 0.949 . S
C476 C480 1.368 . S
C477 C458 1.429 1_556 S
C477 C471 1.429 . S
C477 C478 1.523 . S
C478 C459 1.368 . S
C478 C472 1.368 . S
C478 C477 1.523 . S
C479 C463 1.429 . S
C479 C475 1.429 . S
C479 C480 1.523 . S
C480 C464 1.368 . S
C480 C476 1.368 . S
C480 C479 1.523 . S
H481 C456 0.950 . S
H482 C458 0.950 . S
H483 C459 0.949 . S
H484 C461 0.950 . S
H485 C463 0.950 . S
C486 C487 1.349 1_655 S
C486 C488 1.327 . S
C486 H511 0.950 . S
C487 C486 1.349 1_455 S
C487 C503 1.349 . S
C488 C486 1.327 . S
C488 C507 1.429 1_655 S
C488 H512 0.950 . S
C489 C506 1.574 . S
C489 C508 1.368 . S
C489 H513 0.949 . S
H490 C494 0.949 . S
C491 C492 1.349 . S
C491 C493 1.327 . S
C491 H514 0.950 . S
C492 C491 1.349 . S
C492 C504 1.349 1_455 S
C493 C491 1.327 . S
C493 C509 1.429 . S
C493 H515 0.950 . S
C494 H490 0.949 . S
C494 C502 1.574 . S
C494 C510 1.368 1_655 S
H495 C503 0.950 . S
H496 C501 0.950 . S
H497 C502 0.949 . S
H498 C504 0.950 . S
H499 C505 0.950 . S
H500 C506 0.949 . S
C501 H496 0.950 . S
C501 C503 1.327 . S
C501 C507 1.429 . S
C502 C494 1.574 . S
C502 H497 0.949 . S
C502 C508 1.368 1_655 S
C503 C487 1.349 . S
C503 H495 0.950 . S
C503 C501 1.327 . S
C504 C492 1.349 1_655 S
C504 H498 0.950 . S
C504 C505 1.327 . S
C505 H499 0.950 . S
C505 C504 1.327 . S
C505 C509 1.429 1_655 S
C506 C489 1.574 . S
C506 H500 0.949 . S
C506 C510 1.368 . S
C507 C488 1.429 1_455 S
C507 C501 1.429 . S
C507 C508 1.523 . S
C508 C489 1.368 . S
C508 C502 1.368 1_455 S
C508 C507 1.523 . S
C509 C493 1.429 . S
C509 C505 1.429 1_455 S
C509 C510 1.523 . S
C510 C494 1.368 1_455 S
C510 C506 1.368 . S
C510 C509 1.523 . S
H511 C486 0.950 . S
H512 C488 0.950 . S
H513 C489 0.949 . S
H514 C491 0.950 . S
H515 C493 0.950 . S
C516 C517 1.349 . S
C516 C518 1.327 . S
C516 H541 0.950 . S
C517 C516 1.349 . S
C517 C533 1.349 . S
C518 C516 1.327 . S
C518 C537 1.429 . S
C518 H542 0.950 . S
C519 C536 1.574 . S
C519 C538 1.368 . S
C519 H543 0.949 . S
H520 C524 0.949 . S
C521 C522 1.349 . S
C521 C523 1.327 . S
C521 H544 0.950 . S
C522 C521 1.349 . S
C522 C534 1.349 . S
C523 C521 1.327 . S
C523 C539 1.429 . S
C523 H545 0.950 . S
C524 H520 0.949 . S
C524 C532 1.574 . S
C524 C540 1.368 . S
H525 C533 0.950 1_565 S
H526 C531 0.950 1_565 S
H527 C532 0.949 . S
H528 C534 0.950 . S
H529 C535 0.950 . S
H530 C536 0.949 . S
C531 H526 0.950 1_545 S
C531 C533 1.327 . S
C531 C537 1.429 . S
C532 C524 1.574 . S
C532 H527 0.949 . S
C532 C538 1.368 . S
C533 C517 1.349 . S
C533 H525 0.950 1_545 S
C533 C531 1.327 . S
C534 C522 1.349 . S
C534 H528 0.950 . S
C534 C535 1.327 . S
C535 H529 0.950 . S
C535 C534 1.327 . S
C535 C539 1.429 . S
C536 C519 1.574 . S
C536 H530 0.949 . S
C536 C540 1.368 . S
C537 C518 1.429 . S
C537 C531 1.429 . S
C537 C538 1.523 . S
C538 C519 1.368 . S
C538 C532 1.368 . S
C538 C537 1.523 . S
C539 C523 1.429 . S
C539 C535 1.429 . S
C539 C540 1.523 . S
C540 C524 1.368 . S
C540 C536 1.368 . S
C540 C539 1.523 . S
H541 C516 0.950 . S
H542 C518 0.950 . S
H543 C519 0.949 . S
H544 C521 0.950 . S
H545 C523 0.950 . S
C546 C547 1.349 . S
C546 C548 1.327 . S
C546 H571 0.950 . S
C547 C546 1.349 . S
C547 C563 1.349 . S
C548 C546 1.327 . S
C548 C567 1.429 1_554 S
C548 H572 0.950 . S
C549 C566 1.574 . S
C549 C568 1.368 . S
C549 H573 0.949 . S
H550 C554 0.949 . S
C551 C552 1.349 . S
C551 C553 1.327 . S
C551 H574 0.950 . S
C552 C551 1.349 . S
C552 C564 1.349 . S
C553 C551 1.327 . S
C553 C569 1.429 . S
C553 H575 0.950 . S
C554 H550 0.949 . S
C554 C562 1.574 . S
C554 C570 1.368 . S
H555 C563 0.950 1_556 S
H556 C561 0.950 . S
H557 C562 0.892 1_554 S
H558 C564 0.950 . S
H559 C565 0.950 . S
H560 C566 0.949 . S
C561 H556 0.950 . S
C561 C563 1.327 1_556 S
C561 C567 1.429 . S
C562 C554 1.574 . S
C562 H557 0.892 1_556 S
C562 C568 1.368 . S
C563 C547 1.349 . S
C563 H555 0.950 1_554 S
C563 C561 1.327 1_554 S
C564 C552 1.349 . S
C564 H558 0.950 . S
C564 C565 1.327 . S
C565 H559 0.950 . S
C565 C564 1.327 . S
C565 C569 1.429 . S
C566 C549 1.574 . S
C566 H560 0.949 . S
C566 C570 1.368 . S
C567 C548 1.429 1_556 S
C567 C561 1.429 . S
C567 C568 1.523 . S
C568 C549 1.368 . S
C568 C562 1.368 . S
C568 C567 1.523 . S
C569 C553 1.429 . S
C569 C565 1.429 . S
C569 C570 1.523 . S
C570 C554 1.368 . S
C570 C566 1.368 . S
C570 C569 1.523 . S
H571 C546 0.950 . S
H572 C548 0.950 . S
H573 C549 0.949 . S
H574 C551 0.950 . S
H575 C553 0.950 . S
C576 C577 1.349 . S
C576 C578 1.327 . S
C576 H601 0.950 . S
C577 C576 1.349 . S
C577 C593 1.349 . S
C578 C576 1.327 . S
C578 C597 1.429 . S
C578 H602 0.950 . S
C579 C596 1.574 . S
C579 C598 1.368 . S
C579 H603 0.949 . S
H580 C584 0.949 . S
C581 C582 1.349 . S
C581 C583 1.327 . S
C581 H604 0.950 . S
C582 C581 1.349 . S
C582 C594 1.349 . S
C583 C581 1.327 . S
C583 C599 1.429 . S
C583 H605 0.950 . S
C584 H580 0.949 . S
C584 C592 1.574 . S
C584 C600 1.368 . S
H585 C593 0.950 . S
H586 C591 0.950 . S
H587 C592 0.949 . S
H588 C594 0.950 . S
H589 C595 0.950 . S
H590 C596 0.949 . S
C591 H586 0.950 . S
C591 C593 1.327 . S
C591 C597 1.429 . S
C592 C584 1.574 . S
C592 H587 0.949 . S
C592 C598 1.368 . S
C593 C577 1.349 . S
C593 H585 0.950 . S
C593 C591 1.327 . S
C594 C582 1.349 . S
C594 H588 0.950 . S
C594 C595 1.327 . S
C595 H589 0.950 . S
C595 C594 1.327 . S
C595 C599 1.429 . S
C596 C579 1.574 . S
C596 H590 0.949 . S
C596 C600 1.368 . S
C597 C578 1.429 . S
C597 C591 1.429 . S
C597 C598 1.523 . S
C598 C579 1.368 . S
C598 C592 1.368 . S
C598 C597 1.523 . S
C599 C583 1.429 . S
C599 C595 1.429 . S
C599 C600 1.523 . S
C600 C584 1.368 . S
C600 C596 1.368 . S
C600 C599 1.523 . S
H601 C576 0.950 . S
H602 C578 0.950 . S
H603 C579 0.949 . S
H604 C581 0.950 . S
H605 C583 0.950 . S
C252 C116 1.471 . S
C247 C14 1.424 . S
C277 C40 1.484 . S
C282 C155 1.496 . S
C307 C76 1.464 . S
C312 C222 1.478 . S
C337 C3 1.464 . S
C342 C123 1.456 . S
C372 C176 1.495 . S
C367 C38 1.482 . S
C397 C74 1.455 . S
C402 C201 1.470 . S
C432 C162 1.446 . S
C427 C86 1.399 . S
C457 C2 1.456 1_565 S
C462 C215 1.471 . S
C492 C130 1.456 . S
C487 C39 1.456 . S
C522 C169 1.457 . S
C517 C75 1.457 . S
C552 C208 1.476 . S
C547 C4 1.464 . S
C577 C50 1.424 . S
C582 C109 1.471 . S
