# Generated by pormake.
# Topology zzz, (3,6)-cn, num edge types: 1
# Building blocks:
#     Node 0, Type 0, BuildingBlock: CUQRIR_clean_linker_1, # of connection points: 3
#     Node 1, Type 0, BuildingBlock: CUQRIR_clean_linker_1, # of connection points: 3
#     Node 2, Type 0, BuildingBlock: CUQRIR_clean_linker_1, # of connection points: 3
#     Node 3, Type 0, BuildingBlock: CUQRIR_clean_linker_1, # of connection points: 3
#     Node 4, Type 0, BuildingBlock: CUQRIR_clean_linker_1, # of connection points: 3
#     Node 5, Type 0, BuildingBlock: CUQRIR_clean_linker_1, # of connection points: 3
#     Node 6, Type 0, BuildingBlock: CUQRIR_clean_linker_1, # of connection points: 3
#     Node 7, Type 0, BuildingBlock: CUQRIR_clean_linker_1, # of connection points: 3
#     Node 8, Type 1, BuildingBlock: BETDIP_clean_sbu_0, # of connection points: 6
#     Node 9, Type 1, BuildingBlock: BETDIP_clean_sbu_0, # of connection points: 6
#     Node 10, Type 1, BuildingBlock: BETDIP_clean_sbu_0, # of connection points: 6
#     Node 11, Type 1, BuildingBlock: BETDIP_clean_sbu_0, # of connection points: 6
#     Edge 12, Type (0, 1), BuildingBlock: UVAHIK_clean_linker_0, # of connection points: 2
#     Edge 13, Type (0, 1), BuildingBlock: UVAHIK_clean_linker_0, # of connection points: 2
#     Edge 14, Type (0, 1), BuildingBlock: UVAHIK_clean_linker_0, # of connection points: 2
#     Edge 15, Type (0, 1), BuildingBlock: UVAHIK_clean_linker_0, # of connection points: 2
#     Edge 16, Type (0, 1), BuildingBlock: UVAHIK_clean_linker_0, # of connection points: 2
#     Edge 17, Type (0, 1), BuildingBlock: UVAHIK_clean_linker_0, # of connection points: 2
#     Edge 18, Type (0, 1), BuildingBlock: UVAHIK_clean_linker_0, # of connection points: 2
#     Edge 19, Type (0, 1), BuildingBlock: UVAHIK_clean_linker_0, # of connection points: 2
#     Edge 20, Type (0, 1), BuildingBlock: UVAHIK_clean_linker_0, # of connection points: 2
#     Edge 21, Type (0, 1), BuildingBlock: UVAHIK_clean_linker_0, # of connection points: 2
#     Edge 22, Type (0, 1), BuildingBlock: UVAHIK_clean_linker_0, # of connection points: 2
#     Edge 23, Type (0, 1), BuildingBlock: UVAHIK_clean_linker_0, # of connection points: 2
#     Edge 24, Type (0, 1), BuildingBlock: UVAHIK_clean_linker_0, # of connection points: 2
#     Edge 25, Type (0, 1), BuildingBlock: UVAHIK_clean_linker_0, # of connection points: 2
#     Edge 26, Type (0, 1), BuildingBlock: UVAHIK_clean_linker_0, # of connection points: 2
#     Edge 27, Type (0, 1), BuildingBlock: UVAHIK_clean_linker_0, # of connection points: 2
#     Edge 28, Type (0, 1), BuildingBlock: UVAHIK_clean_linker_0, # of connection points: 2
#     Edge 29, Type (0, 1), BuildingBlock: UVAHIK_clean_linker_0, # of connection points: 2
#     Edge 30, Type (0, 1), BuildingBlock: UVAHIK_clean_linker_0, # of connection points: 2
#     Edge 31, Type (0, 1), BuildingBlock: UVAHIK_clean_linker_0, # of connection points: 2
#     Edge 32, Type (0, 1), BuildingBlock: UVAHIK_clean_linker_0, # of connection points: 2
#     Edge 33, Type (0, 1), BuildingBlock: UVAHIK_clean_linker_0, # of connection points: 2
#     Edge 34, Type (0, 1), BuildingBlock: UVAHIK_clean_linker_0, # of connection points: 2
#     Edge 35, Type (0, 1), BuildingBlock: UVAHIK_clean_linker_0, # of connection points: 2
# Relax obj value: 0.241
# Max RMSD: 0.155
# Mean RMSD: 0.145
data_MOF--net-zzz--node1-BETDIP_clean_sbu_0--node2-CUQRIR_clean_linker_1--edge1-UVAHIK_clean_linker_0
_symmetry_space_group_name_H-M    P1
_symmetry_Int_Tables_number       1
_symmetry_cell_setting            triclinic
loop_
_symmetry_equiv_pos_as_xyz
'x, y, z'
_cell_length_a     64.203889
_cell_length_b     64.260872
_cell_length_c     15.839603
_cell_angle_alpha  89.951746
_cell_angle_beta   89.982176
_cell_angle_gamma 90.002279
loop_
_atom_site_label
_atom_site_type_symbol
_atom_site_fract_x
_atom_site_fract_y
_atom_site_fract_z
_atom_type_partial_charge
C0 C 0.74913 0.50887 0.35039 0.0
N1 N 0.76772 0.49927 0.36283 0.0
N2 N 0.73745 0.4983 0.2926 0.0
C3 C 0.74223 0.52808 0.39624 0.0
C4 C 0.74987 0.48211 0.27007 0.0
N5 N 0.76802 0.48266 0.31307 0.0
C6 C 0.74524 0.46698 0.20002 0.0
H7 H 0.74961 0.52893 0.45949 0.0
H8 H 0.72503 0.52838 0.4029 0.0
H9 H 0.74714 0.54194 0.35951 0.0
H10 H 0.73536 0.47428 0.15076 0.0
H11 H 0.7368 0.4534 0.22661 0.0
H12 H 0.75979 0.46122 0.17032 0.0
C13 C 0.02674 0.74167 0.35396 0.0
N14 N 0.03681 0.76031 0.35726 0.0
N15 N 0.03688 0.72824 0.30158 0.0
C16 C 1.00746 0.7364 0.40292 0.0
C17 C 0.05322 0.7395 0.27255 0.0
N18 N 0.05325 0.75874 0.30668 0.0
C19 C 0.06813 0.73225 0.20523 0.0
H20 H 1.00718 0.7449 0.46386 0.0
H21 H 1.0065 0.71939 0.41454 0.0
H22 H 0.99364 0.74117 0.36563 0.0
H23 H 0.06022 0.72168 0.16007 0.0
H24 H 0.08102 0.72353 0.23567 0.0
H25 H 0.07494 0.74551 0.1699 0.0
C26 C 0.78632 0.02084 0.36535 0.0
N27 N 0.7676 0.03066 0.3678 0.0
N28 N 0.79939 0.03037 0.30946 0.0
C29 C 0.79184 1.00222 0.41792 0.0
C30 C 0.78769 0.04611 0.27762 0.0
N31 N 0.76863 0.0464 0.31375 0.0
C32 C 0.79397 0.05972 0.20432 0.0
H33 H 0.78338 1.0026 0.47902 0.0
H34 H 0.80887 1.00156 0.42945 0.0
H35 H 0.78708 0.98794 0.38367 0.0
H36 H 0.80435 0.05118 0.16034 0.0
H37 H 0.8025 0.07346 0.22879 0.0
H38 H 0.78022 0.06538 0.16871 0.0
C39 C 0.51182 0.78066 0.35508 0.0
N40 N 0.5017 0.76217 0.36298 0.0
N41 N 0.50188 0.79322 0.2988 0.0
C42 C 0.53104 0.78666 0.40305 0.0
C43 C 0.48559 0.78159 0.27196 0.0
N44 N 0.48544 0.76287 0.31096 0.0
C45 C 0.47101 0.78778 0.20183 0.0
H46 H 0.53187 0.80379 0.41109 0.0
H47 H 0.54492 0.78156 0.36688 0.0
H48 H 0.53134 0.77894 0.46573 0.0
H49 H 0.4785 0.79899 0.15802 0.0
H50 H 0.45707 0.79532 0.22977 0.0
H51 H 0.4658 0.774 0.1654 0.0
C52 C 0.28648 0.51558 0.11504 0.0
N53 N 0.26897 0.52732 0.10695 0.0
N54 N 0.30052 0.52518 0.16615 0.0
C55 C 0.2898 0.49475 0.07479 0.0
C56 C 0.29082 0.54294 0.18954 0.0
N57 N 0.27182 0.54431 0.15341 0.0
C58 C 0.29893 0.55772 0.2553 0.0
H59 H 0.30665 0.49185 0.06441 0.0
H60 H 0.28129 0.49373 0.01396 0.0
H61 H 0.28373 0.4825 0.11766 0.0
H62 H 0.316 0.55982 0.24834 0.0
H63 H 0.29594 0.55104 0.31877 0.0
H64 H 0.2911 0.57308 0.25092 0.0
C65 C 1.00956 0.28051 0.11384 0.0
N66 N 1.00001 0.26166 0.1079 0.0
N67 N 1.00079 0.29221 0.17638 0.0
C68 C 0.02672 0.28778 0.05677 0.0
C69 C 0.98583 0.27959 0.20867 0.0
N70 N 0.9853 0.26129 0.16695 0.0
C71 C 0.97307 0.28431 0.28615 0.0
H72 H 0.0263 0.30495 0.04944 0.0
H73 H 0.02552 0.28025 0.99394 0.0
H74 H 0.0419 0.28339 0.08511 0.0
H75 H 0.9584 0.29205 0.26664 0.0
H76 H 0.98161 0.29482 0.32956 0.0
H77 H 0.96897 0.26984 0.3206 0.0
C78 C 0.24421 1.0041 0.0936 0.0
N79 N 0.26194 0.99261 0.08716 0.0
N80 N 0.23005 0.99434 0.14376 0.0
C81 C 0.24074 0.0248 0.05226 0.0
C82 C 0.23991 0.97676 0.16839 0.0
N83 N 0.25913 0.97565 0.13391 0.0
C84 C 0.23167 0.96203 0.2343 0.0
H85 H 0.22389 0.02746 0.04094 0.0
H86 H 0.24942 0.02579 0.99179 0.0
H87 H 0.24652 0.03723 0.09486 0.0
H88 H 0.21549 0.9574 0.21847 0.0
H89 H 0.23123 0.97012 0.29616 0.0
H90 H 0.24143 0.94786 0.23986 0.0
C91 C 0.50949 0.24016 0.09597 0.0
N92 N 0.4999 0.25848 0.07847 0.0
N93 N 0.49697 0.22777 0.14384 0.0
C94 C 0.5311 0.23461 0.06809 0.0
C95 C 0.47967 0.2395 0.15602 0.0
N96 N 0.48139 0.258 0.11588 0.0
C97 C 0.46175 0.23338 0.21206 0.0
H98 H 0.53489 0.24236 0.00736 0.0
H99 H 0.53278 0.2175 0.06154 0.0
H100 H 0.54233 0.2401 0.11642 0.0
H101 H 0.46771 0.22661 0.27185 0.0
H102 H 0.45238 0.22125 0.17983 0.0
H103 H 0.45139 0.24672 0.22636 0.0
Tb104 Tb 0.02724 1.0082 0.80536 0.0
Tb105 Tb 1.00366 0.01552 0.65499 0.0
C106 C 0.04244 0.99653 0.94402 0.0
C107 C 0.05718 0.98056 0.97195 0.0
C108 C 0.06163 0.96331 0.92099 0.0
C109 C 0.07509 0.94782 0.94994 0.0
C110 C 0.08443 0.94942 0.0301 0.0
C111 C 0.08058 0.96722 0.07928 0.0
C112 C 0.06701 0.98266 0.05038 0.0
C113 C 0.05083 0.01829 0.67284 0.0
C114 C 0.01768 0.96987 0.68293 0.0
C115 C 0.98801 0.02742 0.51769 0.0
C116 C 0.97318 0.04359 0.49136 0.0
C117 C 0.97496 0.06409 0.52072 0.0
C118 C 0.96112 0.07932 0.49279 0.0
C119 C 0.94504 0.07436 0.43571 0.0
C120 C 0.94286 0.05361 0.40896 0.0
C121 C 0.95686 0.03839 0.4364 0.0
C122 C 0.98004 1.00535 0.7875 0.0
C123 C 0.0133 0.05384 0.77643 0.0
O124 O 0.0246 0.98988 0.91446 0.0
O125 O 0.0504 1.01129 0.89763 0.0
O126 O 0.03527 1.00639 0.67288 0.0
O127 O 0.05409 0.02418 0.74949 0.0
O128 O 0.02145 0.97579 0.7617 0.0
O129 O 0.01387 0.98408 0.62476 0.0
O130 O 1.00621 0.03362 0.54526 0.0
O131 O 0.98018 0.01256 0.56394 0.0
O132 O 0.99559 0.01727 0.78765 0.0
O133 O 0.9768 0.99964 0.71064 0.0
O134 O 1.00983 0.04789 0.69758 0.0
O135 O 0.01679 0.03965 0.83504 0.0
H136 H 0.05434 0.96158 0.85975 0.0
H137 H 0.07742 0.93418 0.91097 0.0
H138 H 0.0877 0.96901 0.14083 0.0
H139 H 0.06394 0.99607 0.08987 0.0
H140 H 0.98728 0.06848 0.56386 0.0
H141 H 0.96364 0.09518 0.51349 0.0
H142 H 0.93056 0.04918 0.36576 0.0
H143 H 0.9551 0.02256 0.4139 0.0
Tb144 Tb 0.51865 0.02271 0.80674 0.0
Tb145 Tb 0.51204 0.99981 0.65369 0.0
C146 C 0.53013 0.0368 0.94723 0.0
C147 C 0.54595 0.05145 0.97795 0.0
C148 C 0.557 0.04656 0.05136 0.0
C149 C 0.57271 0.05972 0.08018 0.0
C150 C 0.57758 0.07819 0.03646 0.0
C151 C 0.56602 0.08334 0.96395 0.0
C152 C 0.5504 0.07002 0.93464 0.0
C153 C 0.5086 0.04685 0.67648 0.0
C154 C 0.55763 0.01377 0.6858 0.0
C155 C 0.50071 0.98555 0.51289 0.0
C156 C 0.48387 0.97242 0.48079 0.0
C157 C 0.4666 0.96761 0.53129 0.0
C158 C 0.45042 0.9555 0.49884 0.0
C159 C 0.45134 0.94793 0.41553 0.0
C160 C 0.46906 0.95225 0.3663 0.0
C161 C 0.48519 0.96442 0.39877 0.0
C162 C 0.52232 0.97589 0.7848 0.0
C163 C 0.47329 1.00834 0.77535 0.0
O164 O 0.53711 0.01935 0.91541 0.0
O165 O 0.515 0.04475 0.90258 0.0
O166 O 0.52074 0.03145 0.67506 0.0
O167 O 0.50249 0.04961 0.75325 0.0
O168 O 0.55127 0.01834 0.76331 0.0
O169 O 0.54391 1.00912 0.62678 0.0
O170 O 0.49537 1.00393 0.54101 0.0
O171 O 0.51391 0.97625 0.56277 0.0
O172 O 0.51 0.99111 0.7852 0.0
O173 O 0.52858 0.97315 0.70823 0.0
O174 O 0.47945 1.00508 0.69654 0.0
O175 O 0.48729 0.0119 0.83449 0.0
H176 H 0.5538 0.03228 0.08543 0.0
H177 H 0.58158 0.05491 0.13496 0.0
H178 H 0.56923 0.09748 0.92908 0.0
H179 H 0.54203 0.0741 0.8776 0.0
H180 H 0.46545 0.97351 0.59514 0.0
H181 H 0.43686 0.95274 0.53797 0.0
H182 H 0.47031 0.94648 0.30227 0.0
H183 H 0.49858 0.9678 0.35946 0.0
Tb184 Tb 0.50776 0.51535 0.81011 0.0
Tb185 Tb 0.52814 0.50586 0.64956 0.0
C186 C 0.49645 0.52829 0.95255 0.0
C187 C 0.48155 0.5441 0.98024 0.0
C188 C 0.48001 0.54908 0.06591 0.0
C189 C 0.4662 0.56453 0.0925 0.0
C190 C 0.45369 0.5752 0.03364 0.0
C191 C 0.4549 0.56965 0.94788 0.0
C192 C 0.46876 0.55424 0.92137 0.0
C193 C 0.48138 0.50534 0.68682 0.0
C194 C 0.51912 0.55298 0.68504 0.0
C195 C 0.5358 0.49267 0.50319 0.0
C196 C 0.52506 0.47797 0.44765 0.0
C197 C 0.50694 0.46791 0.47542 0.0
C198 C 0.49601 0.45479 0.42118 0.0
C199 C 0.5029 0.45163 0.3378 0.0
C200 C 0.52097 0.46199 0.31002 0.0
C201 C 0.53197 0.47507 0.36465 0.0
C202 C 0.55479 0.51627 0.77071 0.0
C203 C 0.51693 0.46938 0.77592 0.0
O204 O 0.51298 0.53523 0.91307 0.0
O205 O 0.48818 0.51225 0.9148 0.0
O206 O 0.49762 0.51614 0.68067 0.0
O207 O 0.47856 0.50123 0.76574 0.0
O208 O 0.5128 0.5472 0.76125 0.0
O209 O 0.52482 0.53911 0.62816 0.0
O210 O 0.52522 0.50953 0.51905 0.0
O211 O 0.5443 0.48491 0.57135 0.0
O212 O 0.53857 0.5054 0.77902 0.0
O213 O 0.55743 0.51993 0.69102 0.0
O214 O 0.51726 0.47512 0.69549 0.0
O215 O 0.51751 0.48366 0.83554 0.0
H216 H 0.48976 0.54131 0.11202 0.0
H217 H 0.46597 0.56868 0.15875 0.0
H218 H 0.44539 0.57746 0.90113 0.0
H219 H 0.46971 0.55039 0.85487 0.0
H220 H 0.50119 0.47028 0.53898 0.0
H221 H 0.48239 0.44681 0.44526 0.0
H222 H 0.52657 0.46007 0.24599 0.0
H223 H 0.54574 0.48305 0.34192 0.0
Tb224 Tb 0.01312 0.50012 0.82059 0.0
Tb225 Tb 0.02346 0.52045 0.6501 0.0
C226 C 1.00077 0.4898 0.96495 0.0
C227 C 0.98535 0.47509 0.99926 0.0
C228 C 0.96469 0.47505 0.97063 0.0
C229 C 0.95021 0.46137 0.00567 0.0
C230 C 0.95611 0.44725 0.06945 0.0
C231 C 0.977 0.4469 0.09603 0.0
C232 C 0.99146 0.46076 0.06139 0.0
C233 C 0.02273 0.47398 0.69596 0.0
C234 C 0.97576 0.5113 0.69476 0.0
C235 C 0.03329 0.5258 0.4987 0.0
C236 C 0.04765 0.53962 0.45281 0.0
C237 C 0.06151 0.53101 0.39427 0.0
C238 C 0.07622 0.54355 0.354 0.0
C239 C 0.07725 0.56504 0.37095 0.0
C240 C 0.0628 0.57376 0.4275 0.0
C241 C 0.0482 0.56115 0.46841 0.0
C242 C 0.02224 0.54962 0.7706 0.0
C243 C 0.0592 0.51259 0.78383 0.0
O244 O 0.99365 0.50605 0.92396 0.0
O245 O 0.01679 0.48128 0.9275 0.0
O246 O 0.01249 0.49063 0.69012 0.0
O247 O 0.02653 0.47081 0.77507 0.0
O248 O 0.98142 0.50366 0.76934 0.0
O249 O 0.98958 0.51783 0.63838 0.0
O250 O 0.04202 0.51166 0.54707 0.0
O251 O 0.01717 0.53472 0.53443 0.0
O252 O 0.01912 0.53037 0.77638 0.0
O253 O 0.02663 0.55316 0.69208 0.0
O254 O 0.05439 0.51259 0.70223 0.0
O255 O 0.04449 0.51195 0.84237 0.0
H256 H 0.95957 0.48583 0.92229 0.0
H257 H 0.9342 0.46246 0.98476 0.0
H258 H 0.98214 0.43613 0.14436 0.0
H259 H 1.00741 0.46042 0.08372 0.0
H260 H 0.06135 0.51445 0.38144 0.0
H261 H 0.08735 0.53616 0.31231 0.0
H262 H 0.063 0.59025 0.44139 0.0
H263 H 0.03764 0.56823 0.51333 0.0
C264 C 0.1919 0.99128 0.15379 0.0
C265 C 0.21032 1.00166 0.17578 0.0
C266 C 0.17328 0.99523 0.1972 0.0
C267 C 0.1478 0.03129 0.35247 0.0
H268 H 0.11446 0.9826 0.40393 0.0
C269 C 0.08543 0.03044 0.61814 0.0
C270 C 0.06715 0.01876 0.60614 0.0
C271 C 0.10163 0.0298 0.55882 0.0
C272 C 0.12335 0.99646 0.38927 0.0
H273 H 0.22382 0.02457 0.25883 0.0
H274 H 0.19141 0.03158 0.33564 0.0
H275 H 0.14471 0.97929 0.31254 0.0
H276 H 0.05132 0.99768 0.52102 0.0
H277 H 0.07954 0.99661 0.41704 0.0
H278 H 0.12659 0.04833 0.431 0.0
C279 C 0.19106 0.02062 0.28379 0.0
C280 C 0.14079 0.99458 0.33646 0.0
C281 C 0.20966 0.01671 0.23981 0.0
C282 C 0.06523 1.00681 0.53225 0.0
C283 C 0.08149 1.0061 0.47294 0.0
C284 C 0.13037 0.03316 0.40558 0.0
C285 C 0.17268 1.00954 0.2646 0.0
C286 C 0.1534 0.01193 0.31759 0.0
C287 C 0.10005 0.01741 0.4858 0.0
C288 C 0.11798 0.01573 0.42535 0.0
H289 H 0.19217 0.97946 0.10512 0.0
H290 H 0.15946 0.98667 0.17911 0.0
H291 H 0.15684 0.0451 0.33861 0.0
H292 H 0.0874 0.0398 0.67441 0.0
H293 H 0.11569 0.03854 0.57166 0.0
C294 C 0.5177 0.20465 0.23709 0.0
C295 C 0.50113 0.20756 0.18039 0.0
C296 C 0.51973 0.18589 0.28209 0.0
C297 C 0.48727 0.14198 0.35815 0.0
H298 H 0.54006 0.11641 0.41606 0.0
C299 C 0.49425 0.08057 0.62323 0.0
C300 C 0.50757 0.06348 0.61123 0.0
C301 C 0.49387 0.09705 0.56533 0.0
C302 C 0.52516 0.12324 0.39988 0.0
H303 H 0.47445 0.19288 0.12274 0.0
H304 H 0.47794 0.16013 0.20025 0.0
H305 H 0.53938 0.14684 0.32285 0.0
H306 H 0.53083 0.05017 0.52825 0.0
H307 H 0.5302 0.07905 0.42658 0.0
H308 H 0.47302 0.11852 0.43492 0.0
C309 C 0.48918 0.17237 0.21161 0.0
C310 C 0.52479 0.14084 0.34707 0.0
C311 C 0.48721 0.19106 0.16679 0.0
C312 C 0.52037 0.06312 0.53917 0.0
C313 C 0.52011 0.07975 0.48131 0.0
C314 C 0.48765 0.12453 0.41118 0.0
C315 C 0.50517 0.16966 0.27149 0.0
C316 C 0.50582 0.1505 0.32565 0.0
C317 C 0.50687 0.09698 0.49376 0.0
C318 C 0.50659 0.11497 0.43342 0.0
H319 H 0.52848 0.21724 0.24936 0.0
H320 H 0.53215 0.18447 0.32794 0.0
H321 H 0.47237 0.14908 0.34414 0.0
H322 H 0.48423 0.08136 0.67818 0.0
H323 H 0.48366 0.1101 0.57781 0.0
C324 C 0.33884 0.52626 0.17014 0.0
C325 C 0.32007 0.51768 0.19907 0.0
C326 C 0.35758 0.5224 0.2129 0.0
C327 C 0.38223 0.48921 0.38065 0.0
H328 H 0.41877 0.53681 0.40641 0.0
C329 C 0.4459 0.49378 0.64014 0.0
C330 C 0.46476 0.50392 0.62169 0.0
C331 C 0.42952 0.49363 0.58161 0.0
C332 C 0.40896 0.52322 0.39897 0.0
H333 H 0.306 0.49821 0.29423 0.0
H334 H 0.33861 0.49136 0.36982 0.0
H335 H 0.38811 0.53952 0.31691 0.0
H336 H 0.48147 0.52126 0.52594 0.0
H337 H 0.45293 0.52095 0.42337 0.0
H338 H 0.40294 0.4731 0.46451 0.0
C339 C 0.33913 0.50075 0.31309 0.0
C340 C 0.39129 0.52476 0.34729 0.0
C341 C 0.32042 0.50458 0.26989 0.0
C342 C 0.46709 0.51341 0.54224 0.0
C343 C 0.45066 0.51333 0.48368 0.0
C344 C 0.39989 0.4877 0.43261 0.0
C345 C 0.35795 0.51002 0.28645 0.0
C346 C 0.37752 0.50784 0.3378 0.0
C347 C 0.43152 0.50366 0.50294 0.0
C348 C 0.41342 0.50475 0.44322 0.0
H349 H 0.3388 0.53667 0.11633 0.0
H350 H 0.3717 0.52954 0.1893 0.0
H351 H 0.37227 0.47571 0.37409 0.0
H352 H 0.44362 0.48629 0.70074 0.0
H353 H 0.41503 0.4862 0.59931 0.0
C354 C 0.98982 0.32769 0.21711 0.0
C355 C 1.0058 0.31306 0.20498 0.0
C356 C 0.99364 0.34657 0.25846 0.0
C357 C 0.03232 0.37138 0.40462 0.0
H358 H 0.99637 0.4192 0.37359 0.0
C359 C 0.02888 0.43688 0.65437 0.0
C360 C 0.02341 0.45725 0.63093 0.0
C361 C 0.02835 0.42059 0.59567 0.0
C362 C 1.00685 0.40621 0.38277 0.0
H363 H 0.03867 0.30734 0.22225 0.0
H364 H 0.04582 0.3408 0.29024 0.0
H365 H 0.99341 0.38973 0.2789 0.0
H366 H 0.01357 0.47657 0.52638 0.0
H367 H 0.01351 0.44839 0.42253 0.0
H368 H 0.04641 0.38821 0.5059 0.0
C369 C 0.03002 0.33743 0.27088 0.0
C370 C 1.00489 0.38896 0.32884 0.0
C371 C 0.02606 0.31834 0.23044 0.0
C372 C 0.01785 0.46103 0.54649 0.0
C373 C 0.01763 0.44474 0.4871 0.0
C374 C 0.03452 0.38875 0.45755 0.0
C375 C 0.01374 0.35166 0.28784 0.0
C376 C 0.01727 0.37102 0.33988 0.0
C377 C 0.02268 0.42414 0.51085 0.0
C378 C 0.02151 0.40631 0.44901 0.0
H379 H 0.97408 0.32409 0.19745 0.0
H380 H 0.98052 0.3567 0.27046 0.0
H381 H 0.0421 0.358 0.41659 0.0
H382 H 0.03311 0.43335 0.71902 0.0
H383 H 0.03188 0.40507 0.61798 0.0
C384 C 0.82472 1.00454 0.25385 0.0
C385 C 0.82023 0.02469 0.28271 0.0
C386 C 0.84383 1.00018 0.21427 0.0
C387 C 0.89635 0.02409 0.15979 0.0
H388 H 0.8943 0.98344 0.9799 0.0
C389 C 0.96753 1.01101 0.9369 0.0
C390 C 0.96344 1.00524 0.85302 0.0
C391 C 0.95142 1.01144 0.99718 0.0
C392 C 0.89521 0.99513 0.02886 0.0
H393 H 0.83271 0.05568 0.29766 0.0
H394 H 0.86525 0.04868 0.22513 0.0
H395 H 0.86435 0.98811 0.06977 0.0
H396 H 0.93919 0.99559 0.76648 0.0
H397 H 0.91121 0.9974 0.86859 0.0
H398 H 0.92665 0.03222 0.11439 0.0
C399 C 0.85453 0.03589 0.23407 0.0
C400 C 0.87798 0.9975 0.08237 0.0
C401 C 0.83567 0.04006 0.27512 0.0
C402 C 0.94295 0.99992 0.83078 0.0
C403 C 0.92683 1.00078 0.89018 0.0
C404 C 0.91342 0.02205 0.10492 0.0
C405 C 0.85882 0.01597 0.20094 0.0
C406 C 0.87807 0.01222 0.14831 0.0
C407 C 0.9307 1.00649 0.97471 0.0
C408 C 0.91306 1.00774 0.03753 0.0
H409 H 0.8131 0.99239 0.25841 0.0
H410 H 0.84655 0.98447 0.19242 0.0
H411 H 0.89753 0.03524 0.2107 0.0
H412 H 0.9832 0.01513 0.95599 0.0
H413 H 0.95534 0.01557 0.06144 0.0
C414 C 0.52598 0.81616 0.2201 0.0
C415 C 0.50771 0.81353 0.2675 0.0
C416 C 0.52969 0.83484 0.17649 0.0
C417 C 0.51348 0.89038 0.15841 0.0
H418 H 0.52997 0.88406 0.92452 0.0
C419 C 0.50869 0.95874 0.91702 0.0
C420 C 0.52301 0.95923 0.8499 0.0
C421 C 0.50828 0.94183 0.97336 0.0
C422 C 0.52575 0.8863 0.99005 0.0
H423 H 0.47938 0.82841 0.30925 0.0
H424 H 0.48591 0.86122 0.23474 0.0
H425 H 0.52751 0.85356 0.01476 0.0
H426 H 0.54872 0.94288 0.79159 0.0
H427 H 0.54861 0.91393 0.89095 0.0
H428 H 0.5118 0.92315 0.13397 0.0
C429 C 0.49746 0.84897 0.23103 0.0
C430 C 0.5243 0.86868 0.04194 0.0
C431 C 0.49368 0.83023 0.27375 0.0
C432 C 0.53737 0.94286 0.84225 0.0
C433 C 0.53715 0.92612 0.899 0.0
C434 C 0.51514 0.90808 0.10668 0.0
C435 C 0.51526 0.85136 0.18002 0.0
C436 C 0.51801 0.87043 0.12669 0.0
C437 C 0.52233 0.92508 0.96459 0.0
C438 C 0.52117 0.90633 0.02136 0.0
H439 H 0.53686 0.80338 0.21355 0.0
H440 H 0.54366 0.83619 0.13854 0.0
H441 H 0.50875 0.89235 0.22355 0.0
H442 H 0.49735 0.97109 0.9244 0.0
H443 H 0.49646 0.94164 0.02213 0.0
C444 C 0.71244 0.52276 0.22531 0.0
C445 C 0.717 0.50306 0.25895 0.0
C446 C 0.69353 0.52638 0.18297 0.0
C447 C 0.64113 0.50183 0.13517 0.0
H448 H 0.64258 0.53986 0.94566 0.0
C449 C 0.56853 0.51319 0.91948 0.0
C450 C 0.572 0.51729 0.83349 0.0
C451 C 0.58514 0.51345 0.97738 0.0
C452 C 0.64184 0.52892 0.99754 0.0
H453 H 0.7049 0.47205 0.27833 0.0
H454 H 0.67268 0.47777 0.20142 0.0
H455 H 0.67301 0.53616 0.03432 0.0
H456 H 0.59565 0.52486 0.74092 0.0
H457 H 0.6245 0.52431 0.83959 0.0
H458 H 0.61047 0.49351 0.09479 0.0
C459 C 0.68322 0.49077 0.2087 0.0
C460 C 0.65934 0.5271 0.05003 0.0
C461 C 0.70191 0.48733 0.25217 0.0
C462 C 0.59239 0.52176 0.80684 0.0
C463 C 0.60901 0.52163 0.86412 0.0
C464 C 0.62376 0.50335 0.08166 0.0
C465 C 0.67878 0.51027 0.172 0.0
C466 C 0.65944 0.51334 0.11937 0.0
C467 C 0.60575 0.51746 0.95057 0.0
C468 C 0.62386 0.51674 0.01117 0.0
H469 H 0.72381 0.53516 0.22907 0.0
H470 H 0.69069 0.54178 0.15781 0.0
H471 H 0.64015 0.4914 0.18868 0.0
H472 H 0.55296 0.5098 0.94203 0.0
H473 H 0.58171 0.51055 0.04323 0.0
C474 C 0.04664 0.69138 0.28495 0.0
C475 C 0.0317 0.70721 0.27646 0.0
C476 C 0.04415 0.67227 0.24376 0.0
C477 C 1.0072 0.63787 0.12771 0.0
H478 H 0.05683 0.62163 0.00463 0.0
C479 C 0.01452 0.56196 0.91971 0.0
C480 C 0.02265 0.56559 0.83855 0.0
C481 C 0.01472 0.57785 0.98112 0.0
C482 C 0.04284 0.62586 0.03883 0.0
H483 H 1.0019 0.71507 0.22194 0.0
H484 H 0.99724 0.68141 0.15036 0.0
H485 H 0.05804 0.65144 0.09936 0.0
H486 H 0.0375 0.58862 0.75864 0.0
H487 H 0.0383 0.61586 0.86525 0.0
H488 H 0.99201 0.61225 0.06538 0.0
C489 C 1.01091 0.68377 0.18918 0.0
C490 C 0.04356 0.64291 0.09378 0.0
C491 C 0.01349 0.70301 0.23039 0.0
C492 C 0.03114 0.58527 0.82054 0.0
C493 C 0.03167 0.6009 0.88183 0.0
C494 C 1.00656 0.62055 0.07333 0.0
C495 C 0.0266 0.66842 0.19288 0.0
C496 C 0.02572 0.64935 0.13839 0.0
C497 C 0.02345 0.59749 0.96291 0.0
C498 C 0.02431 0.61455 0.02715 0.0
H499 H 0.0608 0.69427 0.32014 0.0
H500 H 0.05637 0.66073 0.24946 0.0
H501 H 0.99319 0.64232 0.16127 0.0
H502 H 1.00784 0.54698 0.93538 0.0
H503 H 1.00834 0.5747 0.04311 0.0
C504 C 0.98252 0.22454 0.20636 0.0
C505 C 0.97279 0.24346 0.18759 0.0
C506 C 0.97071 0.2066 0.21718 0.0
C507 C 0.92108 0.18645 0.28217 0.0
H508 H 0.94311 0.13689 0.17522 0.0
C509 C 0.92746 0.10913 0.44486 0.0
C510 C 0.93239 0.0913 0.3976 0.0
C511 C 0.92156 0.12748 0.40435 0.0
C512 C 0.93611 0.15047 0.20404 0.0
H513 H 0.94331 0.25904 0.16888 0.0
H514 H 0.92223 0.2274 0.19104 0.0
H515 H 0.95537 0.17071 0.13087 0.0
H516 H 0.93139 0.07776 0.27201 0.0
H517 H 0.92009 0.10942 0.20215 0.0
H518 H 0.90248 0.16608 0.35831 0.0
C519 C 0.93903 0.22648 0.19565 0.0
C520 C 0.94343 0.1699 0.17909 0.0
C521 C 0.95098 0.24447 0.18359 0.0
C522 C 0.92808 0.09127 0.31054 0.0
C523 C 0.92177 0.10954 0.27018 0.0
C524 C 0.91365 0.16691 0.30718 0.0
C525 C 0.94889 0.20733 0.21067 0.0
C526 C 0.93691 0.18791 0.22135 0.0
C527 C 0.92013 0.12825 0.31577 0.0
C528 C 0.92206 0.14863 0.27188 0.0
H529 H 0.99932 0.22362 0.21085 0.0
H530 H 0.97866 0.19211 0.23078 0.0
H531 H 0.91568 0.2002 0.31508 0.0
H532 H 0.92982 0.10943 0.51256 0.0
H533 H 0.92025 0.14145 0.44211 0.0
C534 C 0.28031 0.94364 0.13194 0.0
C535 C 0.27586 0.96324 0.16619 0.0
C536 C 0.29765 0.93244 0.16043 0.0
C537 C 0.33577 0.92975 0.33521 0.0
H538 H 0.37645 0.91707 0.16182 0.0
C539 C 0.42088 0.9235 0.42548 0.0
C540 C 0.43297 0.93747 0.3779 0.0
C541 C 0.40151 0.91683 0.39564 0.0
C542 C 0.36517 0.92022 0.21106 0.0
H543 H 0.28492 0.98643 0.25729 0.0
H544 H 0.31509 0.96697 0.30829 0.0
H545 H 0.34053 0.92472 0.1218 0.0
H546 H 0.43495 0.95414 0.25901 0.0
H547 H 0.40134 0.94281 0.20764 0.0
H548 H 0.36058 0.92714 0.42391 0.0
C549 C 0.30534 0.96005 0.2601 0.0
C550 C 0.34458 0.92442 0.18818 0.0
C551 C 0.28828 0.97126 0.23084 0.0
C552 C 0.42612 0.94326 0.29703 0.0
C553 C 0.40679 0.93665 0.26733 0.0
C554 C 0.35632 0.92561 0.35807 0.0
C555 C 0.31037 0.94064 0.22456 0.0
C556 C 0.33002 0.93037 0.24977 0.0
C557 C 0.39387 0.92409 0.31782 0.0
C558 C 0.3715 0.92197 0.2958 0.0
H559 H 0.27071 0.93737 0.0819 0.0
H560 H 0.30127 0.91757 0.13187 0.0
H561 H 0.32473 0.93399 0.38399 0.0
H562 H 0.42598 0.91842 0.48734 0.0
H563 H 0.39206 0.90688 0.43539 0.0
C564 C 0.47096 0.28676 0.20712 0.0
C565 C 0.46903 0.27627 0.13018 0.0
C566 C 0.46433 0.30732 0.2144 0.0
C567 C 0.46447 0.3526 0.08391 0.0
H568 H 0.44571 0.37876 0.29085 0.0
C569 C 0.47013 0.43452 0.28558 0.0
C570 C 0.49194 0.43653 0.28244 0.0
C571 C 0.46021 0.418 0.24477 0.0
C572 C 0.45049 0.37188 0.23151 0.0
H573 H 0.45708 0.27791 1.00297 0.0
H574 H 0.44592 0.31438 0.01436 0.0
H575 H 0.43852 0.34202 0.26687 0.0
H576 H 0.52022 0.42364 0.22859 0.0
H577 H 0.50297 0.39502 0.15749 0.0
H578 H 0.47758 0.38218 0.05104 0.0
C579 C 0.45243 0.30668 0.0692 0.0
C580 C 0.44647 0.3508 0.21814 0.0
C581 C 0.45875 0.28593 0.06264 0.0
C582 C 0.5034 0.42268 0.23194 0.0
C583 C 0.49348 0.40627 0.19079 0.0
C584 C 0.46854 0.37368 0.0974 0.0
C585 C 0.45592 0.31778 0.14425 0.0
C586 C 0.45438 0.34074 0.14635 0.0
C587 C 0.47189 0.40329 0.19947 0.0
C588 C 0.46255 0.38322 0.17339 0.0
H589 H 0.47915 0.27956 0.25929 0.0
H590 H 0.46749 0.31553 0.27271 0.0
H591 H 0.47083 0.34523 0.02806 0.0
H592 H 0.46079 0.44525 0.32223 0.0
H593 H 0.44352 0.4162 0.2517 0.0
C594 C 0.24189 0.54983 0.24531 0.0
C595 C 0.25518 0.55731 0.18244 0.0
C596 C 0.22421 0.56105 0.26777 0.0
C597 C 0.18572 0.59468 0.17565 0.0
H598 H 0.16461 0.59309 0.40476 0.0
C599 C 0.10278 0.57333 0.25571 0.0
C600 C 0.0947 0.57762 0.33629 0.0
C601 C 0.12209 0.58128 0.23136 0.0
C602 C 0.17021 0.59436 0.3405 0.0
H603 H 0.26138 0.58237 0.09513 0.0
H604 H 0.22984 0.60219 0.1332 0.0
H605 H 0.20136 0.58753 0.37925 0.0
H606 H 0.09937 0.5959 0.45004 0.0
H607 H 0.13252 0.61049 0.40592 0.0
H608 H 0.15438 0.60067 0.13651 0.0
C609 C 0.2332 0.58773 0.1656 0.0
C610 C 0.19133 0.59092 0.32597 0.0
C611 C 0.25113 0.57654 0.144 0.0
C612 C 0.10514 0.5921 0.3877 0.0
C613 C 0.12432 0.60032 0.36277 0.0
C614 C 0.16455 0.59827 0.1902 0.0
C615 C 0.21945 0.57992 0.22703 0.0
C616 C 0.19903 0.5898 0.24321 0.0
C617 C 0.13363 0.59396 0.28667 0.0
C618 C 0.15634 0.59689 0.27244 0.0
H619 H 0.24488 0.53491 0.27475 0.0
H620 H 0.21372 0.5544 0.31408 0.0
H621 H 0.19127 0.59397 0.11112 0.0
H622 H 0.09482 0.56275 0.21343 0.0
H623 H 0.12864 0.57599 0.17216 0.0
C624 C 0.05569 0.79116 0.22698 0.0
C625 C 0.06529 0.77604 0.27706 0.0
C626 C 0.06711 0.80802 0.19712 0.0
C627 C 0.1085 0.84241 0.2486 0.0
H628 H 0.10075 0.85994 0.0164 0.0
C629 C 0.09204 0.92495 0.1488 0.0
C630 C 0.096 0.93144 0.0656 0.0
C631 C 0.09876 0.9055 0.17663 0.0
C632 C 0.10373 0.85517 0.08087 0.0
H633 H 0.09395 0.76617 0.33614 0.0
H634 H 0.11417 0.79646 0.28573 0.0
H635 H 0.09151 0.82473 0.05781 0.0
H636 H 0.11245 0.92383 0.95007 0.0
H637 H 0.12403 0.88964 0.99858 0.0
H638 H 0.11934 0.87338 0.27294 0.0
C639 C 0.0979 0.79502 0.26866 0.0
C640 C 0.09823 0.83503 0.1046 0.0
C641 C 0.08646 0.77786 0.29734 0.0
C642 C 0.1087 0.91901 0.01383 0.0
C643 C 0.11543 0.8995 0.0417 0.0
C644 C 0.11392 0.86268 0.22494 0.0
C645 C 0.08828 0.81014 0.2178 0.0
C646 C 0.09954 0.82888 0.18938 0.0
C647 C 0.10954 0.8921 0.12178 0.0
C648 C 0.1105 0.86957 0.14175 0.0
H649 H 0.03934 0.78982 0.2111 0.0
H650 H 0.05927 0.81969 0.15926 0.0
H651 H 0.10966 0.83795 0.3144 0.0
H652 H 0.08222 0.93406 0.19028 0.0
H653 H 0.09377 0.90026 0.23841 0.0
C654 C 0.73561 0.04756 0.23768 0.0
C655 C 0.75097 0.05788 0.28398 0.0
C656 C 0.7188 0.05855 0.20497 0.0
C657 C 0.68612 0.10346 0.2356 0.0
H658 H 0.66779 0.08797 0.01117 0.0
C659 C 0.6098 0.09846 1.00045 0.0
C660 C 0.59608 0.09059 0.06192 0.0
C661 C 0.62967 0.10524 0.02324 0.0
C662 C 0.67276 0.09314 0.07299 0.0
H663 H 0.76128 0.08744 0.33352 0.0
H664 H 0.73126 0.10703 0.27694 0.0
H665 H 0.70218 0.07804 0.05837 0.0
H666 H 0.59128 0.08683 0.19664 0.0
H667 H 0.6262 0.09725 0.23575 0.0
H668 H 0.65631 0.1179 0.25138 0.0
C669 C 0.73234 0.09044 0.26578 0.0
C670 C 0.69246 0.08715 0.10035 0.0
C671 C 0.74936 0.07936 0.29797 0.0
C672 C 0.60176 0.09206 0.1474 0.0
C673 C 0.62176 0.09845 0.17001 0.0
C674 C 0.66634 0.10958 0.20803 0.0
C675 C 0.71706 0.08011 0.2181 0.0
C676 C 0.69883 0.09122 0.18335 0.0
C677 C 0.63639 0.10384 0.10758 0.0
C678 C 0.659 0.10345 0.12803 0.0
H679 H 0.73684 0.031 0.22609 0.0
H680 H 0.70704 0.05012 0.16985 0.0
H681 H 0.69078 0.10692 0.29979 0.0
H682 H 0.60594 0.09779 0.93398 0.0
H683 H 0.64034 0.10996 0.97379 0.0
C684 C 0.48233 0.72678 0.26291 0.0
C685 C 0.47275 0.74528 0.28881 0.0
C686 C 0.47044 0.70916 0.24686 0.0
C687 C 0.42495 0.68927 0.16273 0.0
H688 H 0.44056 0.63974 0.2876 0.0
C689 C 0.4421 0.61196 0.01308 0.0
C690 C 0.44138 0.59355 0.06082 0.0
C691 C 0.4348 0.63061 0.04691 0.0
C692 C 0.43534 0.65336 0.25332 0.0
H693 H 0.44336 0.76041 0.31498 0.0
H694 H 0.4221 0.72933 0.28277 0.0
H695 H 0.45013 0.67379 0.34145 0.0
H696 H 0.42997 0.57969 0.17685 0.0
H697 H 0.41742 0.61242 0.23654 0.0
H698 H 0.41173 0.66873 0.07067 0.0
C699 C 0.43889 0.72854 0.27728 0.0
C700 C 0.44095 0.67286 0.28416 0.0
C701 C 0.45094 0.74618 0.29511 0.0
C702 C 0.43122 0.59376 0.13948 0.0
C703 C 0.42392 0.61246 0.17343 0.0
C704 C 0.4194 0.66969 0.13143 0.0
C705 C 0.44869 0.70985 0.25455 0.0
C706 C 0.43679 0.6908 0.23679 0.0
C707 C 0.42669 0.63125 0.12931 0.0
C708 C 0.42567 0.6515 0.17401 0.0
H709 H 0.49909 0.72596 0.25605 0.0
H710 H 0.47823 0.69495 0.22788 0.0
H711 H 0.42167 0.703 0.12525 0.0
H712 H 0.4499 0.61241 0.95248 0.0
H713 H 0.43739 0.64478 0.01138 0.0
C714 C 0.80441 0.47926 0.27024 0.0
C715 C 0.78605 0.46994 0.29901 0.0
C716 C 0.82279 0.4679 0.26679 0.0
C717 C 0.84584 0.41858 0.2343 0.0
H718 H 0.89336 0.44674 0.33278 0.0
C719 C 0.92247 0.42738 0.0688 0.0
C720 C 0.93994 0.43468 0.11329 0.0
C721 C 0.90463 0.42108 0.11202 0.0
C722 C 0.88042 0.43806 0.30678 0.0
H723 H 0.77182 0.44139 0.34244 0.0
H724 H 0.80434 0.42085 0.33322 0.0
H725 H 0.85854 0.45745 0.37117 0.0
H726 H 0.95353 0.43776 0.23824 0.0
H727 H 0.92279 0.42583 0.31329 0.0
H728 H 0.86777 0.39995 0.16597 0.0
C729 C 0.80444 0.43713 0.31536 0.0
C730 C 0.86041 0.44441 0.32844 0.0
C731 C 0.78598 0.44872 0.32009 0.0
C732 C 0.94027 0.43256 0.20167 0.0
C733 C 0.92252 0.42588 0.24493 0.0
C734 C 0.86597 0.41212 0.21263 0.0
C735 C 0.82306 0.44686 0.29072 0.0
C736 C 0.84306 0.43562 0.28837 0.0
C737 C 0.90399 0.42164 0.2008 0.0
C738 C 0.88349 0.42276 0.24443 0.0
H739 H 0.80455 0.49552 0.25235 0.0
H740 H 0.83688 0.47559 0.24567 0.0
H741 H 0.8326 0.4115 0.20315 0.0
H742 H 0.92199 0.42805 1.00049 0.0
H743 H 0.89079 0.41778 0.07536 0.0
C744 C 0.02307 0.23406 0.04935 0.0
C745 C 1.0039 0.24465 0.04957 0.0
C746 C 0.02501 0.21456 0.00939 0.0
C747 C 0.99301 0.16883 0.96093 0.0
H748 H 0.03818 0.15065 0.81615 0.0
C749 C 1.00896 0.08176 0.88646 0.0
C750 C 0.01209 0.07627 0.80133 0.0
C751 C 1.00811 0.10269 0.91139 0.0
C752 C 0.02542 0.15552 0.85627 0.0
H753 H 0.97222 0.24375 1.00372 0.0
H754 H 0.97543 0.20977 0.93533 0.0
H755 H 0.03717 0.18682 0.8668 0.0
H756 H 0.01698 0.08877 0.67581 0.0
H757 H 0.01605 0.12545 0.71993 0.0
H758 H 0.98152 0.13753 0.95254 0.0
C759 C 0.98896 0.21639 0.96607 0.0
C760 C 0.02492 0.1762 0.88571 0.0
C761 C 0.98716 0.23593 0.00453 0.0
C762 C 0.01448 0.09239 0.7418 0.0
C763 C 0.01407 0.11341 0.76716 0.0
C764 C 0.99375 0.14811 0.93306 0.0
C765 C 1.00773 0.20513 0.9699 0.0
C766 C 1.00863 0.18316 0.93809 0.0
C767 C 1.01078 0.11884 0.85234 0.0
C768 C 1.00992 0.14115 0.88017 0.0
H769 H 0.03611 0.24024 0.08466 0.0
H770 H 0.03968 0.20631 0.01369 0.0
H771 H 0.98033 0.17357 1.00173 0.0
H772 H 1.00701 0.06984 0.93419 0.0
H773 H 1.00566 0.10625 0.97749 0.0
C774 C 0.29228 0.01556 0.05581 0.0
C775 C 0.28102 0.99716 0.04154 0.0
C776 C 0.31217 0.01835 0.01998 0.0
C777 C 0.34928 0.99568 0.85881 0.0
H778 H 0.39074 0.02427 0.99294 0.0
C779 C 0.43477 1.00723 0.73933 0.0
C780 C 0.45081 1.00708 0.79983 0.0
C781 C 0.4137 1.00701 0.76432 0.0
C782 C 0.3795 0.016 0.95467 0.0
H783 H 0.28143 0.96764 0.97672 0.0
H784 H 0.31607 0.97197 0.91673 0.0
H785 H 0.35513 0.02215 0.04344 0.0
H786 H 0.45705 1.0059 0.93434 0.0
H787 H 0.42083 1.00479 0.97734 0.0
H788 H 0.37391 0.98866 0.77204 0.0
C789 C 0.30967 0.98458 0.9538 0.0
C790 C 0.35881 0.01511 0.9832 0.0
C791 C 0.2898 0.98194 0.98889 0.0
C792 C 0.4452 1.00627 0.88569 0.0
C793 C 0.42426 1.00583 0.91056 0.0
C794 C 0.37004 0.9964 0.83064 0.0
C795 C 0.32139 1.00271 0.96949 0.0
C796 C 0.34332 1.00477 0.93623 0.0
C797 C 0.40807 1.00644 0.85056 0.0
C798 C 0.38559 1.00639 0.87849 0.0
H799 H 0.28603 0.02744 0.09704 0.0
H800 H 0.3204 0.0327 0.03281 0.0
H801 H 0.33791 0.98787 0.81959 0.0
H802 H 0.43847 1.00791 0.67266 0.0
H803 H 0.40185 1.0077 0.71582 0.0
C804 C 0.50036 0.28234 0.95684 0.0
C805 C 0.50819 0.27664 0.03615 0.0
C806 C 0.50348 0.30246 0.92484 0.0
C807 C 0.51852 0.35631 0.99743 0.0
H808 H 0.51358 0.36834 0.75868 0.0
C809 C 0.50902 0.44119 0.88107 0.0
C810 C 0.51634 0.44697 0.80072 0.0
C811 C 0.50896 0.42031 0.90681 0.0
C812 C 0.51533 0.36543 0.82559 0.0
H813 H 0.52636 0.28703 0.14247 0.0
H814 H 0.53342 0.32164 0.08458 0.0
H815 H 0.51418 0.33255 0.8062 0.0
H816 H 0.52946 0.43516 0.68439 0.0
H817 H 0.53037 0.39888 0.73019 0.0
H818 H 0.52106 0.3891 0.01633 0.0
C819 C 0.524 0.31104 0.04783 0.0
C820 C 0.51528 0.34466 0.85338 0.0
C821 C 0.52043 0.291 0.08053 0.0
C822 C 0.52357 0.43125 0.74651 0.0
C823 C 0.52396 0.41033 0.77296 0.0
C824 C 0.5191 0.37703 0.96946 0.0
C825 C 0.51497 0.31742 0.97058 0.0
C826 C 0.51654 0.33966 0.94002 0.0
C827 C 0.5167 0.40445 0.85384 0.0
C828 C 0.51713 0.38206 0.88312 0.0
H829 H 0.49056 0.2716 0.9223 0.0
H830 H 0.49587 0.30647 0.86615 0.0
H831 H 0.51916 0.35352 0.06474 0.0
H832 H 0.50311 0.45285 0.92423 0.0
H833 H 0.5026 0.4167 0.96839 0.0
C834 C 0.24159 0.53825 0.00698 0.0
C835 C 0.24996 0.52296 0.06059 0.0
C836 C 0.22155 0.53617 0.97323 0.0
C837 C 0.17983 0.49946 0.918 0.0
H838 H 0.14316 0.54674 0.9513 0.0
C839 C 0.09784 0.50775 0.75777 0.0
C840 C 0.08143 0.51371 0.81152 0.0
C841 C 0.11862 0.50814 0.78614 0.0
C842 C 0.15317 0.53339 0.94142 0.0
H843 H 0.2441 0.493 0.11812 0.0
H844 H 0.20919 0.4888 0.05568 0.0
H845 H 0.17903 0.54814 1.00295 0.0
H846 H 0.07422 0.52514 0.937 0.0
H847 H 0.1103 0.52633 0.98525 0.0
H848 H 0.15395 0.48486 0.85534 0.0
C849 C 0.21817 0.50259 0.04074 0.0
C850 C 0.17378 0.53423 0.97066 0.0
C851 C 0.2382 0.50488 0.07598 0.0
C852 C 0.08639 0.52037 0.89378 0.0
C853 C 0.10713 0.52114 0.92147 0.0
C854 C 0.15928 0.49878 0.88719 0.0
C855 C 0.20939 0.51849 0.9907 0.0
C856 C 0.18739 0.51728 0.95956 0.0
C857 C 0.12354 0.51492 0.86834 0.0
C858 C 0.14564 0.51571 0.89887 0.0
H859 H 0.25043 0.55218 0.99324 0.0
H860 H 0.21543 0.54857 0.93403 0.0
H861 H 0.18991 0.48617 0.90818 0.0
H862 H 0.09462 0.50247 0.69419 0.0
H863 H 0.13089 0.50338 0.74336 0.0
C864 C 0.04771 0.78834 0.45435 0.0
C865 C 0.03198 0.77877 0.40643 0.0
C866 C 0.04463 0.80791 0.49132 0.0
C867 C 1.01103 0.85534 0.474 0.0
H868 H 0.04076 0.87145 0.67662 0.0
C869 C 0.0181 0.94199 0.57128 0.0
C870 C 0.01882 0.94745 0.65732 0.0
C871 C 0.01875 0.92111 0.54565 0.0
C872 C 0.03209 0.86728 0.62052 0.0
H873 H 1.00038 0.78209 0.36168 0.0
H874 H 0.99449 0.81598 0.42909 0.0
H875 H 0.0424 0.83563 0.62769 0.0
H876 H 0.02086 0.93485 0.7839 0.0
H877 H 0.02149 0.89837 0.7396 0.0
H878 H 1.0002 0.88681 0.46816 0.0
C879 C 1.00951 0.80856 0.43676 0.0
C880 C 0.03329 0.84664 0.59149 0.0
C881 C 0.01269 0.78894 0.39917 0.0
C882 C 0.02032 0.9313 0.71711 0.0
C883 C 0.02079 0.91031 0.69142 0.0
C884 C 1.00971 0.87593 0.50337 0.0
C885 C 0.02559 0.81859 0.48228 0.0
C886 C 0.02302 0.84033 0.51698 0.0
C887 C 0.01994 0.90482 0.60509 0.0
C888 C 0.02046 0.8824 0.5765 0.0
H889 H 0.06274 0.78087 0.46083 0.0
H890 H 0.05759 0.81497 0.52431 0.0
H891 H 1.00301 0.85139 0.41609 0.0
H892 H 0.01714 0.9539 0.52303 0.0
H893 H 0.01858 0.91783 0.47865 0.0
C894 C 0.73647 1.00889 0.39511 0.0
C895 C 0.74927 0.02572 0.4171 0.0
C896 C 0.71658 1.00665 0.43134 0.0
C897 C 0.67605 0.03774 0.5497 0.0
H898 H 0.64878 0.98414 0.5676 0.0
C899 C 0.59471 0.02593 0.71053 0.0
C900 C 0.58019 0.01454 0.66269 0.0
C901 C 0.61577 0.02694 0.68584 0.0
C902 C 0.65617 0.99925 0.5629 0.0
H903 H 0.7517 0.05307 0.49514 0.0
H904 H 0.71783 0.04861 0.56298 0.0
H905 H 0.68472 0.986 0.51844 0.0
H906 H 0.57668 0.99487 0.55238 0.0
H907 H 0.61327 0.99621 0.51101 0.0
H908 H 0.64747 0.05081 0.59635 0.0
C909 C 0.72252 0.0374 0.51575 0.0
C910 C 0.67684 1.00038 0.53401 0.0
C911 C 0.74217 0.03981 0.47822 0.0
C912 C 0.58736 1.00388 0.59066 0.0
C913 C 0.6084 1.00453 0.56709 0.0
C914 C 0.65552 0.03655 0.58007 0.0
C915 C 0.70907 0.02109 0.49145 0.0
C916 C 0.68715 0.01968 0.52601 0.0
C917 C 0.6229 0.01618 0.61387 0.0
C918 C 0.64521 0.01732 0.58625 0.0
H919 H 0.74142 0.99816 0.34641 0.0
H920 H 0.70683 0.99406 0.40921 0.0
H921 H 0.68296 0.05301 0.54296 0.0
H922 H 0.58976 0.03436 0.76623 0.0
H923 H 0.62653 0.03599 0.72351 0.0
C924 C 0.5261 0.73443 0.41024 0.0
C925 C 0.50674 0.74448 0.41631 0.0
C926 C 0.52932 0.71497 0.44892 0.0
C927 C 0.50497 0.67642 0.60065 0.0
H928 H 0.53902 0.63701 0.47779 0.0
C929 C 0.51677 0.59134 0.72113 0.0
C930 C 0.51895 0.57548 0.66059 0.0
C931 C 0.51665 0.61243 0.69689 0.0
C932 C 0.52922 0.64765 0.51277 0.0
H933 H 0.47595 0.74252 0.47066 0.0
H934 H 0.48113 0.7086 0.53572 0.0
H935 H 0.53625 0.67255 0.42773 0.0
H936 H 0.52231 0.56957 0.52648 0.0
H937 H 0.52135 0.60584 0.48426 0.0
H938 H 0.497 0.6512 0.68294 0.0
C939 C 0.49413 0.71564 0.50295 0.0
C940 C 0.52794 0.66834 0.48469 0.0
C941 C 0.49105 0.73513 0.46526 0.0
C942 C 0.52083 0.58129 0.57524 0.0
C943 C 0.52045 0.60227 0.55094 0.0
C944 C 0.50603 0.65565 0.62815 0.0
C945 C 0.51318 0.70495 0.49404 0.0
C946 C 0.51565 0.6831 0.52763 0.0
C947 C 0.51847 0.61828 0.61122 0.0
C948 C 0.51802 0.64081 0.58424 0.0
H949 H 0.53838 0.74112 0.37205 0.0
H950 H 0.54437 0.70761 0.44173 0.0
H951 H 0.4956 0.68721 0.63683 0.0
H952 H 0.51534 0.5875 0.78747 0.0
H953 H 0.51539 0.62412 0.74576 0.0
C954 C 0.79772 0.52189 0.39771 0.0
C955 C 0.78477 0.50501 0.41793 0.0
C956 C 0.81741 0.52399 0.43577 0.0
C957 C 0.85735 0.49158 0.54933 0.0
H958 H 0.88524 0.54455 0.57867 0.0
C959 C 0.93843 0.49932 0.71314 0.0
C960 C 0.95323 0.51167 0.6707 0.0
C961 C 0.91746 0.49914 0.68729 0.0
C962 C 0.8777 0.52961 0.57061 0.0
H963 H 0.78169 0.47775 0.49643 0.0
H964 H 0.81526 0.48192 0.56683 0.0
H965 H 0.84929 0.54374 0.52857 0.0
H966 H 0.95725 0.53388 0.56877 0.0
H967 H 0.92079 0.53383 0.52517 0.0
H968 H 0.88575 0.47754 0.59273 0.0
C969 C 0.81079 0.49325 0.51959 0.0
C970 C 0.85702 0.52911 0.54142 0.0
C971 C 0.79131 0.49105 0.48071 0.0
C972 C 0.94637 0.52412 0.60294 0.0
C973 C 0.92539 0.5242 0.57811 0.0
C974 C 0.87789 0.49211 0.57965 0.0
C975 C 0.82455 0.50932 0.49572 0.0
C976 C 0.84648 0.51007 0.52985 0.0
C977 C 0.91065 0.51157 0.61935 0.0
C978 C 0.88842 0.51111 0.59023 0.0
H979 H 0.79324 0.53254 0.3479 0.0
H980 H 0.82743 0.53648 0.41455 0.0
H981 H 0.85021 0.47652 0.53941 0.0
H982 H 0.94309 0.4895 0.76539 0.0
H983 H 0.90652 0.48932 0.72087 0.0
loop_
_geom_bond_atom_site_label_1
_geom_bond_atom_site_label_2
_geom_bond_distance
_geom_bond_site_symmetry_2
_ccdc_geom_bond_type
C0 N1 1.317 . S
C0 N2 1.348 . S
C0 C3 1.485 . S
N1 C0 1.317 . S
N1 N5 1.370 . S
N2 C0 1.348 . S
N2 C4 1.346 . S
C3 C0 1.485 . S
C3 H7 0.960 . S
C3 H8 0.961 . S
C3 H9 0.960 . S
C4 N2 1.346 . S
C4 N5 1.307 . S
C4 C6 1.486 . S
N5 N1 1.370 . S
N5 C4 1.307 . S
C6 C4 1.486 . S
C6 H10 0.960 . S
C6 H11 0.960 . S
C6 H12 0.959 . S
H7 C3 0.960 . S
H8 C3 0.961 . S
H9 C3 0.960 . S
H10 C6 0.960 . S
H11 C6 0.960 . S
H12 C6 0.959 . S
C13 N14 1.317 . S
C13 N15 1.350 . S
C13 C16 1.485 . S
N14 C13 1.317 . S
N14 N18 1.371 . S
N15 C13 1.350 . S
N15 C17 1.345 1_655 S
C16 C13 1.485 . S
C16 H20 0.960 1_655 S
C16 H21 0.961 . S
C16 H22 0.960 . S
C17 N15 1.345 1_455 S
C17 N18 1.307 1_455 S
C17 C19 1.486 . S
N18 N14 1.371 . S
N18 C17 1.307 1_655 S
C19 C17 1.486 . S
C19 H23 0.925 1_455 S
C19 H24 0.989 . S
C19 H25 0.967 . S
H20 C16 0.960 1_455 S
H21 C16 0.961 . S
H22 C16 0.960 . S
H23 C19 0.925 1_655 S
H24 C19 0.989 . S
H25 C19 0.967 . S
C26 N27 1.317 . S
C26 N28 1.350 . S
C26 C29 1.485 . S
N27 C26 1.317 . S
N27 N31 1.371 . S
N28 C26 1.350 . S
N28 C30 1.345 1_565 S
C29 C26 1.485 . S
C29 H33 0.960 1_565 S
C29 H34 0.961 . S
C29 H35 0.960 . S
C30 N28 1.345 1_545 S
C30 N31 1.307 1_545 S
C30 C32 1.486 . S
N31 N27 1.371 . S
N31 C30 1.307 1_565 S
C32 C30 1.486 . S
C32 H36 0.925 1_545 S
C32 H37 0.989 . S
C32 H38 0.967 . S
H33 C29 0.960 1_545 S
H34 C29 0.961 . S
H35 C29 0.960 . S
H36 C32 0.925 1_565 S
H37 C32 0.989 . S
H38 C32 0.967 . S
C39 N40 1.317 . S
C39 N41 1.348 . S
C39 C42 1.485 . S
N40 C39 1.317 . S
N40 N44 1.370 . S
N41 C39 1.348 . S
N41 C43 1.346 . S
C42 C39 1.485 . S
C42 H46 0.960 . S
C42 H47 0.961 . S
C42 H48 0.960 . S
C43 N41 1.346 . S
C43 N44 1.307 . S
C43 C45 1.486 . S
N44 N40 1.370 . S
N44 C43 1.307 . S
C45 C43 1.486 . S
C45 H49 0.960 . S
C45 H50 0.960 . S
C45 H51 0.959 . S
H46 C42 0.960 . S
H47 C42 0.961 . S
H48 C42 0.960 . S
H49 C45 0.960 . S
H50 C45 0.960 . S
H51 C45 0.959 . S
C52 N53 1.317 . S
C52 N54 1.348 1_556 S
C52 C55 1.485 . S
N53 C52 1.317 . S
N53 N57 1.370 1_556 S
N54 C52 1.348 1_554 S
N54 C56 1.346 . S
C55 C52 1.485 . S
C55 H59 0.960 . S
C55 H60 0.961 . S
C55 H61 0.960 . S
C56 N54 1.346 . S
C56 N57 1.307 . S
C56 C58 1.486 . S
N57 N53 1.370 1_554 S
N57 C56 1.307 . S
C58 C56 1.486 . S
C58 H62 0.960 . S
C58 H63 0.960 . S
C58 H64 0.959 . S
H59 C55 0.960 . S
H60 C55 0.961 . S
H61 C55 0.960 . S
H62 C58 0.960 . S
H63 C58 0.960 . S
H64 C58 0.959 . S
C65 N66 1.317 . S
C65 N67 1.350 1_556 S
C65 C68 1.485 . S
N66 C65 1.317 . S
N66 N70 1.370 1_556 S
N67 C65 1.350 1_554 S
N67 C69 1.345 1_655 S
C68 C65 1.485 . S
C68 H72 0.960 1_655 S
C68 H73 0.961 . S
C68 H74 0.960 . S
C69 N67 1.345 1_455 S
C69 N70 1.307 1_455 S
C69 C71 1.485 . S
N70 N66 1.370 1_554 S
N70 C69 1.307 1_655 S
C71 C69 1.485 . S
C71 H75 0.913 1_455 S
C71 H76 0.999 . S
C71 H77 0.970 . S
H72 C68 0.960 1_455 S
H73 C68 0.961 . S
H74 C68 0.960 . S
H75 C71 0.913 1_655 S
H76 C71 0.999 . S
H77 C71 0.970 . S
C78 N79 1.317 . S
C78 N80 1.350 1_556 S
C78 C81 1.485 . S
N79 C78 1.317 . S
N79 N83 1.370 1_556 S
N80 C78 1.350 1_554 S
N80 C82 1.345 1_565 S
C81 C78 1.485 . S
C81 H85 0.960 1_565 S
C81 H86 0.961 . S
C81 H87 0.960 . S
C82 N80 1.345 1_545 S
C82 N83 1.307 1_545 S
C82 C84 1.485 . S
N83 N79 1.370 1_554 S
N83 C82 1.307 1_565 S
C84 C82 1.485 . S
C84 H88 0.913 1_545 S
C84 H89 0.999 . S
C84 H90 0.970 . S
H85 C81 0.960 1_545 S
H86 C81 0.961 . S
H87 C81 0.960 . S
H88 C84 0.913 1_565 S
H89 C84 0.999 . S
H90 C84 0.970 . S
C91 N92 1.317 . S
C91 N93 1.348 1_556 S
C91 C94 1.485 . S
N92 C91 1.317 . S
N92 N96 1.370 1_556 S
N93 C91 1.348 1_554 S
N93 C95 1.346 . S
C94 C91 1.485 . S
C94 H98 0.960 . S
C94 H99 0.961 . S
C94 H100 0.960 . S
C95 N93 1.346 . S
C95 N96 1.307 . S
C95 C97 1.486 . S
N96 N92 1.370 1_554 S
N96 C95 1.307 . S
C97 C95 1.486 . S
C97 H101 0.960 . S
C97 H102 0.960 . S
C97 H103 0.959 . S
H98 C94 0.960 . S
H99 C94 0.961 . S
H100 C94 0.960 . S
H101 C97 0.960 . S
H102 C97 0.960 . S
H103 C97 0.959 . S
Tb104 C106 2.809 . S
Tb104 O124 2.482 . S
Tb104 O125 2.440 . S
Tb104 O126 2.658 1_565 S
Tb104 O127 2.409 . S
Tb104 O128 2.378 . S
Tb104 O132 2.325 1_455 S
Tb104 O135 2.341 1_565 S
Tb105 C115 2.809 . S
Tb105 O126 2.325 1_655 S
Tb105 O129 2.341 1_545 S
Tb105 O130 2.482 1_655 S
Tb105 O131 2.440 . S
Tb105 O132 2.658 1_545 S
Tb105 O133 2.409 . S
Tb105 O134 2.378 . S
C106 Tb104 2.809 . S
C106 C107 1.514 . S
C106 O124 1.243 . S
C106 O125 1.266 . S
C107 C106 1.514 . S
C107 C108 1.359 . S
C107 C112 1.348 . S
C108 C107 1.359 . S
C108 C109 1.380 1_556 S
C108 H136 0.929 1_455 S
C109 C108 1.380 1_554 S
C109 C110 1.347 . S
C109 H137 0.931 1_455 S
C110 C109 1.347 . S
C110 C111 1.369 1_554 S
C111 C110 1.369 1_556 S
C111 C112 1.408 . S
C111 H138 0.930 . S
C112 C107 1.348 . S
C112 C111 1.408 . S
C112 H139 0.930 . S
C113 O126 1.281 1_565 S
C113 O127 1.254 . S
C114 O128 1.236 1_655 S
C114 O129 1.266 . S
C115 Tb105 2.809 . S
C115 C116 1.514 . S
C115 O130 1.243 1_655 S
C115 O131 1.266 . S
C116 C115 1.514 . S
C116 C117 1.359 . S
C116 C121 1.348 . S
C117 C116 1.359 . S
C117 C118 1.380 . S
C117 H140 0.929 1_655 S
C118 C117 1.380 . S
C118 C119 1.347 . S
C118 H141 0.931 1_655 S
C119 C118 1.347 . S
C119 C120 1.369 . S
C120 C119 1.369 . S
C120 C121 1.408 . S
C120 H142 0.930 . S
C121 C116 1.348 . S
C121 C120 1.408 . S
C121 H143 0.930 . S
C122 O132 1.281 1_545 S
C122 O133 1.254 . S
C123 O134 1.236 1_455 S
C123 O135 1.266 . S
O124 Tb104 2.482 . S
O124 C106 1.243 . S
O125 Tb104 2.440 . S
O125 C106 1.266 . S
O126 Tb104 2.658 1_545 S
O126 Tb105 2.325 1_455 S
O126 C113 1.281 1_545 S
O127 Tb104 2.409 . S
O127 C113 1.254 . S
O128 Tb104 2.378 . S
O128 C114 1.236 1_455 S
O129 Tb105 2.341 1_565 S
O129 C114 1.266 . S
O130 Tb105 2.482 1_455 S
O130 C115 1.243 1_455 S
O131 Tb105 2.440 . S
O131 C115 1.266 . S
O132 Tb104 2.325 1_655 S
O132 Tb105 2.658 1_565 S
O132 C122 1.281 1_565 S
O133 Tb105 2.409 . S
O133 C122 1.254 . S
O134 Tb105 2.378 . S
O134 C123 1.236 1_655 S
O135 Tb104 2.341 1_545 S
O135 C123 1.266 . S
H136 C108 0.929 1_655 S
H137 C109 0.931 1_655 S
H138 C111 0.930 . S
H139 C112 0.930 . S
H140 C117 0.929 1_455 S
H141 C118 0.931 1_455 S
H142 C120 0.930 . S
H143 C121 0.930 . S
Tb144 C146 2.809 . S
Tb144 O164 2.482 1_545 S
Tb144 O165 2.440 . S
Tb144 O166 2.658 . S
Tb144 O167 2.409 . S
Tb144 O168 2.378 . S
Tb144 O172 2.325 1_545 S
Tb144 O175 2.341 . S
Tb145 C155 2.809 . S
Tb145 O166 2.325 1_565 S
Tb145 O169 2.341 . S
Tb145 O170 2.477 1_565 S
Tb145 O171 2.440 . S
Tb145 O172 2.658 . S
Tb145 O173 2.409 . S
Tb145 O174 2.378 . S
C146 Tb144 2.809 . S
C146 C147 1.514 . S
C146 O164 1.244 1_545 S
C146 O165 1.266 . S
C147 C146 1.514 . S
C147 C148 1.359 . S
C147 C152 1.348 . S
C148 C147 1.359 . S
C148 C149 1.380 1_556 S
C148 H176 0.929 1_545 S
C149 C148 1.380 1_554 S
C149 C150 1.347 . S
C149 H177 0.931 1_545 S
C150 C149 1.347 . S
C150 C151 1.369 1_554 S
C151 C150 1.369 1_556 S
C151 C152 1.408 . S
C151 H178 0.930 . S
C152 C147 1.348 . S
C152 C151 1.408 . S
C152 H179 0.930 . S
C153 O166 1.281 . S
C153 O167 1.254 . S
C154 O168 1.236 1_565 S
C154 O169 1.266 . S
C155 Tb145 2.809 . S
C155 C156 1.514 . S
C155 O170 1.232 1_565 S
C155 O171 1.266 . S
C156 C155 1.514 . S
C156 C157 1.359 . S
C156 C161 1.348 . S
C157 C156 1.359 . S
C157 C158 1.380 . S
C157 H180 0.929 1_565 S
C158 C157 1.380 . S
C158 C159 1.347 . S
C158 H181 0.931 1_565 S
C159 C158 1.347 . S
C159 C160 1.369 . S
C160 C159 1.369 . S
C160 C161 1.408 . S
C160 H182 0.930 . S
C161 C156 1.348 . S
C161 C160 1.408 . S
C161 H183 0.930 . S
C162 O172 1.281 . S
C162 O173 1.254 . S
C163 O174 1.236 1_545 S
C163 O175 1.266 . S
O164 Tb144 2.482 1_565 S
O164 C146 1.244 1_565 S
O165 Tb144 2.440 . S
O165 C146 1.266 . S
O166 Tb144 2.658 . S
O166 Tb145 2.325 1_545 S
O166 C153 1.281 . S
O167 Tb144 2.409 . S
O167 C153 1.254 . S
O168 Tb144 2.378 . S
O168 C154 1.236 1_545 S
O169 Tb145 2.341 . S
O169 C154 1.266 . S
O170 Tb145 2.477 1_545 S
O170 C155 1.232 1_545 S
O171 Tb145 2.440 . S
O171 C155 1.266 . S
O172 Tb144 2.325 1_565 S
O172 Tb145 2.658 . S
O172 C162 1.281 . S
O173 Tb145 2.409 . S
O173 C162 1.254 . S
O174 Tb145 2.378 . S
O174 C163 1.236 1_565 S
O175 Tb144 2.341 . S
O175 C163 1.266 . S
H176 C148 0.929 1_565 S
H177 C149 0.931 1_565 S
H178 C151 0.930 . S
H179 C152 0.930 . S
H180 C157 0.929 1_545 S
H181 C158 0.931 1_545 S
H182 C160 0.930 . S
H183 C161 0.930 . S
Tb184 C186 2.809 . S
Tb184 O204 2.484 . S
Tb184 O205 2.440 . S
Tb184 O206 2.658 . S
Tb184 O207 2.409 . S
Tb184 O208 2.378 . S
Tb184 O212 2.325 . S
Tb184 O215 2.341 . S
Tb185 C195 2.809 . S
Tb185 O206 2.325 . S
Tb185 O209 2.341 . S
Tb185 O210 2.484 . S
Tb185 O211 2.440 . S
Tb185 O212 2.658 . S
Tb185 O213 2.409 . S
Tb185 O214 2.378 . S
C186 Tb184 2.809 . S
C186 C187 1.514 . S
C186 O204 1.248 . S
C186 O205 1.266 . S
C187 C186 1.514 . S
C187 C188 1.359 . S
C187 C192 1.348 . S
C188 C187 1.359 . S
C188 C189 1.380 1_556 S
C188 H216 0.929 . S
C189 C188 1.380 1_554 S
C189 C190 1.347 . S
C189 H217 0.931 . S
C190 C189 1.347 . S
C190 C191 1.369 1_554 S
C191 C190 1.369 1_556 S
C191 C192 1.408 . S
C191 H218 0.930 . S
C192 C187 1.348 . S
C192 C191 1.408 . S
C192 H219 0.930 . S
C193 O206 1.281 . S
C193 O207 1.254 . S
C194 O208 1.236 . S
C194 O209 1.266 . S
C195 Tb185 2.809 . S
C195 C196 1.514 . S
C195 O210 1.248 . S
C195 O211 1.266 . S
C196 C195 1.514 . S
C196 C197 1.359 . S
C196 C201 1.348 . S
C197 C196 1.359 . S
C197 C198 1.380 . S
C197 H220 0.929 . S
C198 C197 1.380 . S
C198 C199 1.347 . S
C198 H221 0.931 . S
C199 C198 1.347 . S
C199 C200 1.369 . S
C200 C199 1.369 . S
C200 C201 1.408 . S
C200 H222 0.930 . S
C201 C196 1.348 . S
C201 C200 1.408 . S
C201 H223 0.930 . S
C202 O212 1.281 . S
C202 O213 1.254 . S
C203 O214 1.236 . S
C203 O215 1.266 . S
O204 Tb184 2.484 . S
O204 C186 1.248 . S
O205 Tb184 2.440 . S
O205 C186 1.266 . S
O206 Tb184 2.658 . S
O206 Tb185 2.325 . S
O206 C193 1.281 . S
O207 Tb184 2.409 . S
O207 C193 1.254 . S
O208 Tb184 2.378 . S
O208 C194 1.236 . S
O209 Tb185 2.341 . S
O209 C194 1.266 . S
O210 Tb185 2.484 . S
O210 C195 1.248 . S
O211 Tb185 2.440 . S
O211 C195 1.266 . S
O212 Tb184 2.325 . S
O212 Tb185 2.658 . S
O212 C202 1.281 . S
O213 Tb185 2.409 . S
O213 C202 1.254 . S
O214 Tb185 2.378 . S
O214 C203 1.236 . S
O215 Tb184 2.341 . S
O215 C203 1.266 . S
H216 C188 0.929 . S
H217 C189 0.931 . S
H218 C191 0.930 . S
H219 C192 0.930 . S
H220 C197 0.929 . S
H221 C198 0.931 . S
H222 C200 0.930 . S
H223 C201 0.930 . S
Tb224 C226 2.809 . S
Tb224 O244 2.484 . S
Tb224 O245 2.440 . S
Tb224 O246 2.658 1_655 S
Tb224 O247 2.409 . S
Tb224 O248 2.378 . S
Tb224 O252 2.325 . S
Tb224 O255 2.341 1_655 S
Tb225 C235 2.809 . S
Tb225 O246 2.325 . S
Tb225 O249 2.341 1_455 S
Tb225 O250 2.484 . S
Tb225 O251 2.440 . S
Tb225 O252 2.658 1_455 S
Tb225 O253 2.409 . S
Tb225 O254 2.378 . S
C226 Tb224 2.809 . S
C226 C227 1.514 . S
C226 O244 1.248 . S
C226 O245 1.266 . S
C227 C226 1.514 . S
C227 C228 1.359 . S
C227 C232 1.348 . S
C228 C227 1.359 . S
C228 C229 1.380 1_556 S
C228 H256 0.929 . S
C229 C228 1.380 1_554 S
C229 C230 1.347 . S
C229 H257 0.931 . S
C230 C229 1.347 . S
C230 C231 1.369 1_554 S
C231 C230 1.369 1_556 S
C231 C232 1.408 . S
C231 H258 0.930 . S
C232 C227 1.348 . S
C232 C231 1.408 . S
C232 H259 0.930 . S
C233 O246 1.270 1_655 S
C233 O247 1.269 . S
C234 O248 1.236 . S
C234 O249 1.266 . S
C235 Tb225 2.809 . S
C235 C236 1.514 . S
C235 O250 1.248 . S
C235 O251 1.266 . S
C236 C235 1.514 . S
C236 C237 1.359 . S
C236 C241 1.348 . S
C237 C236 1.359 . S
C237 C238 1.380 . S
C237 H260 0.929 . S
C238 C237 1.380 . S
C238 C239 1.347 . S
C238 H261 0.931 . S
C239 C238 1.347 . S
C239 C240 1.369 . S
C240 C239 1.369 . S
C240 C241 1.408 . S
C240 H262 0.930 . S
C241 C236 1.348 . S
C241 C240 1.408 . S
C241 H263 0.930 . S
C242 O252 1.266 1_455 S
C242 O253 1.275 . S
C243 O254 1.236 . S
C243 O255 1.266 . S
O244 Tb224 2.484 . S
O244 C226 1.248 . S
O245 Tb224 2.440 . S
O245 C226 1.266 . S
O246 Tb224 2.658 1_455 S
O246 Tb225 2.325 . S
O246 C233 1.270 1_455 S
O247 Tb224 2.409 . S
O247 C233 1.269 . S
O248 Tb224 2.378 . S
O248 C234 1.236 . S
O249 Tb225 2.341 1_655 S
O249 C234 1.266 . S
O250 Tb225 2.484 . S
O250 C235 1.248 . S
O251 Tb225 2.440 . S
O251 C235 1.266 . S
O252 Tb224 2.325 . S
O252 Tb225 2.658 1_655 S
O252 C242 1.266 1_655 S
O253 Tb225 2.409 . S
O253 C242 1.275 . S
O254 Tb225 2.378 . S
O254 C243 1.236 . S
O255 Tb224 2.341 1_455 S
O255 C243 1.266 . S
H256 C228 0.929 . S
H257 C229 0.931 . S
H258 C231 0.930 . S
H259 C232 0.930 . S
H260 C237 0.929 . S
H261 C238 0.931 . S
H262 C240 0.930 . S
H263 C241 0.930 . S
C264 C265 1.348 1_565 S
C264 C266 1.327 . S
C264 H289 0.950 . S
C265 C264 1.348 1_545 S
C265 C281 1.350 . S
C266 C264 1.327 . S
C266 C285 1.425 1_565 S
C266 H290 0.950 . S
C267 C284 1.574 . S
C267 C286 1.373 . S
C267 H291 0.949 . S
H268 C272 0.949 . S
C269 C270 1.360 . S
C269 C271 1.327 . S
C269 H292 0.950 . S
C270 C269 1.360 . S
C270 C282 1.338 1_545 S
C271 C269 1.327 . S
C271 C287 1.437 . S
C271 H293 0.950 . S
C272 H268 0.949 . S
C272 C280 1.574 . S
C272 C288 1.361 1_565 S
H273 C281 0.950 . S
H274 C279 0.950 . S
H275 C280 0.949 . S
H276 C282 0.950 . S
H277 C283 0.950 . S
H278 C284 0.949 . S
C279 H274 0.950 . S
C279 C281 1.327 . S
C279 C285 1.432 . S
C280 C272 1.574 . S
C280 H275 0.949 . S
C280 C286 1.363 1_565 S
C281 C265 1.350 . S
C281 H273 0.950 . S
C281 C279 1.327 . S
C282 C270 1.338 1_565 S
C282 H276 0.950 . S
C282 C283 1.327 . S
C283 H277 0.950 . S
C283 C282 1.327 . S
C283 C287 1.420 1_565 S
C284 C267 1.574 . S
C284 H278 0.949 . S
C284 C288 1.376 . S
C285 C266 1.425 1_545 S
C285 C279 1.432 . S
C285 C286 1.523 . S
C286 C267 1.373 . S
C286 C280 1.363 1_545 S
C286 C285 1.523 . S
C287 C271 1.437 . S
C287 C283 1.420 1_545 S
C287 C288 1.523 . S
C288 C272 1.361 1_545 S
C288 C284 1.376 . S
C288 C287 1.523 . S
H289 C264 0.950 . S
H290 C266 0.950 . S
H291 C267 0.949 . S
H292 C269 0.950 . S
H293 C271 0.950 . S
C294 C295 1.349 . S
C294 C296 1.327 . S
C294 H319 0.950 . S
C295 C294 1.349 . S
C295 C311 1.349 . S
C296 C294 1.327 . S
C296 C315 1.429 . S
C296 H320 0.950 . S
C297 C314 1.574 . S
C297 C316 1.368 . S
C297 H321 0.949 . S
H298 C302 0.949 . S
C299 C300 1.349 . S
C299 C301 1.327 . S
C299 H322 0.950 . S
C300 C299 1.349 . S
C300 C312 1.349 . S
C301 C299 1.327 . S
C301 C317 1.429 . S
C301 H323 0.950 . S
C302 H298 0.949 . S
C302 C310 1.574 . S
C302 C318 1.368 . S
H303 C311 0.950 . S
H304 C309 0.950 . S
H305 C310 0.949 . S
H306 C312 0.950 . S
H307 C313 0.950 . S
H308 C314 0.949 . S
C309 H304 0.950 . S
C309 C311 1.327 . S
C309 C315 1.429 . S
C310 C302 1.574 . S
C310 H305 0.949 . S
C310 C316 1.368 . S
C311 C295 1.349 . S
C311 H303 0.950 . S
C311 C309 1.327 . S
C312 C300 1.349 . S
C312 H306 0.950 . S
C312 C313 1.327 . S
C313 H307 0.950 . S
C313 C312 1.327 . S
C313 C317 1.429 . S
C314 C297 1.574 . S
C314 H308 0.949 . S
C314 C318 1.368 . S
C315 C296 1.429 . S
C315 C309 1.429 . S
C315 C316 1.523 . S
C316 C297 1.368 . S
C316 C310 1.368 . S
C316 C315 1.523 . S
C317 C301 1.429 . S
C317 C313 1.429 . S
C317 C318 1.523 . S
C318 C302 1.368 . S
C318 C314 1.368 . S
C318 C317 1.523 . S
H319 C294 0.950 . S
H320 C296 0.950 . S
H321 C297 0.949 . S
H322 C299 0.950 . S
H323 C301 0.950 . S
C324 C325 1.349 . S
C324 C326 1.327 . S
C324 H349 0.950 . S
C325 C324 1.349 . S
C325 C341 1.349 . S
C326 C324 1.327 . S
C326 C345 1.429 . S
C326 H350 0.950 . S
C327 C344 1.574 . S
C327 C346 1.368 . S
C327 H351 0.949 . S
H328 C332 0.949 . S
C329 C330 1.349 . S
C329 C331 1.327 . S
C329 H352 0.950 . S
C330 C329 1.349 . S
C330 C342 1.349 . S
C331 C329 1.327 . S
C331 C347 1.429 . S
C331 H353 0.950 . S
C332 H328 0.949 . S
C332 C340 1.574 . S
C332 C348 1.368 . S
H333 C341 0.950 . S
H334 C339 0.950 . S
H335 C340 0.949 . S
H336 C342 0.950 . S
H337 C343 0.950 . S
H338 C344 0.949 . S
C339 H334 0.950 . S
C339 C341 1.327 . S
C339 C345 1.429 . S
C340 C332 1.574 . S
C340 H335 0.949 . S
C340 C346 1.368 . S
C341 C325 1.349 . S
C341 H333 0.950 . S
C341 C339 1.327 . S
C342 C330 1.349 . S
C342 H336 0.950 . S
C342 C343 1.327 . S
C343 H337 0.950 . S
C343 C342 1.327 . S
C343 C347 1.429 . S
C344 C327 1.574 . S
C344 H338 0.949 . S
C344 C348 1.368 . S
C345 C326 1.429 . S
C345 C339 1.429 . S
C345 C346 1.523 . S
C346 C327 1.368 . S
C346 C340 1.368 . S
C346 C345 1.523 . S
C347 C331 1.429 . S
C347 C343 1.429 . S
C347 C348 1.523 . S
C348 C332 1.368 . S
C348 C344 1.368 . S
C348 C347 1.523 . S
H349 C324 0.950 . S
H350 C326 0.950 . S
H351 C327 0.949 . S
H352 C329 0.950 . S
H353 C331 0.950 . S
C354 C355 1.347 1_655 S
C354 C356 1.327 . S
C354 H379 0.950 . S
C355 C354 1.347 1_455 S
C355 C371 1.351 . S
C356 C354 1.327 . S
C356 C375 1.423 1_655 S
C356 H380 0.950 . S
C357 C374 1.574 . S
C357 C376 1.377 . S
C357 H381 0.949 . S
H358 C362 0.949 . S
C359 C360 1.369 . S
C359 C361 1.327 . S
C359 H382 0.950 . S
C360 C359 1.369 . S
C360 C372 1.330 1_455 S
C361 C359 1.327 . S
C361 C377 1.443 . S
C361 H383 0.950 . S
C362 H358 0.949 . S
C362 C370 1.574 . S
C362 C378 1.355 1_655 S
H363 C371 0.950 . S
H364 C369 0.950 . S
H365 C370 0.949 . S
H366 C372 0.950 . S
H367 C373 0.950 . S
H368 C374 0.949 . S
C369 H364 0.950 . S
C369 C371 1.327 . S
C369 C375 1.434 . S
C370 C362 1.574 . S
C370 H365 0.949 . S
C370 C376 1.360 1_655 S
C371 C355 1.351 . S
C371 H363 0.950 . S
C371 C369 1.327 . S
C372 C360 1.330 1_655 S
C372 H366 0.950 . S
C372 C373 1.327 . S
C373 H367 0.950 . S
C373 C372 1.327 . S
C373 C377 1.415 1_655 S
C374 C357 1.574 . S
C374 H368 0.949 . S
C374 C378 1.382 . S
C375 C356 1.423 1_455 S
C375 C369 1.434 . S
C375 C376 1.523 . S
C376 C357 1.377 . S
C376 C370 1.360 1_455 S
C376 C375 1.523 . S
C377 C361 1.443 . S
C377 C373 1.415 1_455 S
C377 C378 1.523 . S
C378 C362 1.355 1_455 S
C378 C374 1.382 . S
C378 C377 1.523 . S
H379 C354 0.950 . S
H380 C356 0.950 . S
H381 C357 0.949 . S
H382 C359 0.950 . S
H383 C361 0.950 . S
C384 C385 1.350 1_565 S
C384 C386 1.327 . S
C384 H409 0.950 . S
C385 C384 1.350 1_545 S
C385 C401 1.348 . S
C386 C384 1.327 . S
C386 C405 1.432 1_565 S
C386 H410 0.950 . S
C387 C404 1.574 . S
C387 C406 1.373 1_545 S
C387 H411 0.949 . S
H388 C392 0.949 1_556 S
C389 C390 1.347 1_545 S
C389 C391 1.327 . S
C389 H412 0.950 . S
C390 C389 1.347 1_565 S
C390 C402 1.351 . S
C391 C389 1.327 . S
C391 C407 1.429 1_545 S
C391 H413 0.950 1_556 S
C392 H388 0.949 1_554 S
C392 C400 1.574 . S
C392 C408 1.366 . S
H393 C401 0.950 . S
H394 C399 0.950 . S
H395 C400 0.949 . S
H396 C402 0.950 . S
H397 C403 0.950 . S
H398 C404 0.949 . S
C399 H394 0.950 . S
C399 C401 1.327 . S
C399 C405 1.425 . S
C400 C392 1.574 . S
C400 H395 0.949 . S
C400 C406 1.364 . S
C401 C385 1.348 . S
C401 H393 0.950 . S
C401 C399 1.327 . S
C402 C390 1.351 . S
C402 H396 0.950 . S
C402 C403 1.327 . S
C403 H397 0.950 . S
C403 C402 1.327 . S
C403 C407 1.428 . S
C404 C387 1.574 . S
C404 H398 0.949 . S
C404 C408 1.370 1_545 S
C405 C386 1.432 1_545 S
C405 C399 1.425 . S
C405 C406 1.523 1_545 S
C406 C387 1.373 1_565 S
C406 C400 1.364 . S
C406 C405 1.523 1_565 S
C407 C391 1.429 1_565 S
C407 C403 1.428 . S
C407 C408 1.523 1_556 S
C408 C392 1.366 . S
C408 C404 1.370 1_565 S
C408 C407 1.523 1_554 S
H409 C384 0.950 . S
H410 C386 0.950 . S
H411 C387 0.949 . S
H412 C389 0.950 . S
H413 C391 0.950 1_554 S
C414 C415 1.349 . S
C414 C416 1.327 . S
C414 H439 0.950 . S
C415 C414 1.349 . S
C415 C431 1.349 . S
C416 C414 1.327 . S
C416 C435 1.429 . S
C416 H440 0.950 . S
C417 C434 1.574 . S
C417 C436 1.368 . S
C417 H441 0.949 . S
H418 C422 0.949 1_556 S
C419 C420 1.349 . S
C419 C421 1.327 1_556 S
C419 H442 0.950 . S
C420 C419 1.349 . S
C420 C432 1.349 . S
C421 C419 1.327 1_554 S
C421 C437 1.429 1_554 S
C421 H443 0.950 . S
C422 H418 0.949 1_554 S
C422 C430 1.574 . S
C422 C438 1.368 . S
H423 C431 0.950 . S
H424 C429 0.950 . S
H425 C430 0.949 . S
H426 C432 0.950 . S
H427 C433 0.950 . S
H428 C434 0.949 . S
C429 H424 0.950 . S
C429 C431 1.327 . S
C429 C435 1.429 . S
C430 C422 1.574 . S
C430 H425 0.949 . S
C430 C436 1.368 . S
C431 C415 1.349 . S
C431 H423 0.950 . S
C431 C429 1.327 . S
C432 C420 1.349 . S
C432 H426 0.950 . S
C432 C433 1.327 . S
C433 H427 0.950 . S
C433 C432 1.327 . S
C433 C437 1.429 . S
C434 C417 1.574 . S
C434 H428 0.949 . S
C434 C438 1.368 . S
C435 C416 1.429 . S
C435 C429 1.429 . S
C435 C436 1.523 . S
C436 C417 1.368 . S
C436 C430 1.368 . S
C436 C435 1.523 . S
C437 C421 1.429 1_556 S
C437 C433 1.429 . S
C437 C438 1.523 1_556 S
C438 C422 1.368 . S
C438 C434 1.368 . S
C438 C437 1.523 1_554 S
H439 C414 0.950 . S
H440 C416 0.950 . S
H441 C417 0.949 . S
H442 C419 0.950 . S
H443 C421 0.950 . S
C444 C445 1.349 . S
C444 C446 1.327 . S
C444 H469 0.950 . S
C445 C444 1.349 . S
C445 C461 1.349 . S
C446 C444 1.327 . S
C446 C465 1.429 . S
C446 H470 0.950 . S
C447 C464 1.574 . S
C447 C466 1.368 . S
C447 H471 0.949 . S
H448 C452 0.949 1_556 S
C449 C450 1.349 . S
C449 C451 1.327 . S
C449 H472 0.950 . S
C450 C449 1.349 . S
C450 C462 1.349 . S
C451 C449 1.327 . S
C451 C467 1.429 . S
C451 H473 0.950 1_556 S
C452 H448 0.949 1_554 S
C452 C460 1.574 . S
C452 C468 1.368 . S
H453 C461 0.950 . S
H454 C459 0.950 . S
H455 C460 0.949 . S
H456 C462 0.950 . S
H457 C463 0.950 . S
H458 C464 0.949 . S
C459 H454 0.950 . S
C459 C461 1.327 . S
C459 C465 1.429 . S
C460 C452 1.574 . S
C460 H455 0.949 . S
C460 C466 1.368 . S
C461 C445 1.349 . S
C461 H453 0.950 . S
C461 C459 1.327 . S
C462 C450 1.349 . S
C462 H456 0.950 . S
C462 C463 1.327 . S
C463 H457 0.950 . S
C463 C462 1.327 . S
C463 C467 1.429 . S
C464 C447 1.574 . S
C464 H458 0.949 . S
C464 C468 1.368 . S
C465 C446 1.429 . S
C465 C459 1.429 . S
C465 C466 1.523 . S
C466 C447 1.368 . S
C466 C460 1.368 . S
C466 C465 1.523 . S
C467 C451 1.429 . S
C467 C463 1.429 . S
C467 C468 1.523 1_556 S
C468 C452 1.368 . S
C468 C464 1.368 . S
C468 C467 1.523 1_554 S
H469 C444 0.950 . S
H470 C446 0.950 . S
H471 C447 0.949 . S
H472 C449 0.950 . S
H473 C451 0.950 1_554 S
C474 C475 1.346 1_455 S
C474 C476 1.327 . S
C474 H499 0.950 . S
C475 C474 1.346 1_655 S
C475 C491 1.351 . S
C476 C474 1.327 . S
C476 C495 1.420 1_455 S
C476 H500 0.950 . S
C477 C494 1.574 . S
C477 C496 1.381 . S
C477 H501 0.949 . S
H478 C482 0.949 1_556 S
C479 C480 1.377 . S
C479 C481 1.327 . S
C479 H502 0.950 . S
C480 C479 1.377 . S
C480 C492 1.321 1_655 S
C481 C479 1.327 . S
C481 C497 1.450 . S
C481 H503 0.950 1_556 S
C482 H478 0.949 1_554 S
C482 C490 1.574 . S
C482 C498 1.349 1_455 S
H483 C491 0.950 . S
H484 C489 0.950 . S
H485 C490 0.949 . S
H486 C492 0.950 . S
H487 C493 0.950 . S
H488 C494 0.949 . S
C489 H484 0.950 . S
C489 C491 1.327 . S
C489 C495 1.437 . S
C490 C482 1.574 . S
C490 H485 0.949 . S
C490 C496 1.355 1_455 S
C491 C475 1.351 . S
C491 H483 0.950 . S
C491 C489 1.327 . S
C492 C480 1.321 1_455 S
C492 H486 0.950 . S
C492 C493 1.327 . S
C493 H487 0.950 . S
C493 C492 1.327 . S
C493 C497 1.408 1_455 S
C494 C477 1.574 . S
C494 H488 0.949 . S
C494 C498 1.388 . S
C495 C476 1.420 1_655 S
C495 C489 1.437 . S
C495 C496 1.523 . S
C496 C477 1.381 . S
C496 C490 1.355 1_655 S
C496 C495 1.523 . S
C497 C481 1.450 . S
C497 C493 1.408 1_655 S
C497 C498 1.523 1_556 S
C498 C482 1.349 1_655 S
C498 C494 1.388 . S
C498 C497 1.523 1_554 S
H499 C474 0.950 . S
H500 C476 0.950 . S
H501 C477 0.949 . S
H502 C479 0.950 . S
H503 C481 0.950 1_554 S
C504 C505 1.349 . S
C504 C506 1.327 . S
C504 H529 0.950 . S
C505 C504 1.349 . S
C505 C521 1.349 1_455 S
C506 C504 1.327 . S
C506 C525 1.429 1_455 S
C506 H530 0.950 . S
C507 C524 1.574 . S
C507 C526 1.368 . S
C507 H531 0.949 . S
H508 C512 0.949 . S
C509 C510 1.349 . S
C509 C511 1.327 . S
C509 H532 0.950 . S
C510 C509 1.349 . S
C510 C522 1.349 . S
C511 C509 1.327 . S
C511 C527 1.429 . S
C511 H533 0.950 . S
C512 H508 0.949 . S
C512 C520 1.574 . S
C512 C528 1.368 1_455 S
H513 C521 0.950 . S
H514 C519 0.950 . S
H515 C520 0.949 . S
H516 C522 0.930 1_455 S
H517 C523 0.950 1_455 S
H518 C524 0.949 . S
C519 H514 0.950 . S
C519 C521 1.327 . S
C519 C525 1.429 . S
C520 C512 1.574 . S
C520 H515 0.949 . S
C520 C526 1.368 1_455 S
C521 C505 1.349 1_655 S
C521 H513 0.950 . S
C521 C519 1.327 . S
C522 C510 1.349 . S
C522 H516 0.930 1_655 S
C522 C523 1.327 . S
C523 H517 0.950 1_655 S
C523 C522 1.327 . S
C523 C527 1.429 . S
C524 C507 1.574 . S
C524 H518 0.949 . S
C524 C528 1.368 . S
C525 C506 1.429 1_655 S
C525 C519 1.429 . S
C525 C526 1.523 . S
C526 C507 1.368 . S
C526 C520 1.368 1_655 S
C526 C525 1.523 . S
C527 C511 1.429 . S
C527 C523 1.429 . S
C527 C528 1.523 . S
C528 C512 1.368 1_655 S
C528 C524 1.368 . S
C528 C527 1.523 . S
H529 C504 0.950 . S
H530 C506 0.950 . S
H531 C507 0.949 . S
H532 C509 0.950 . S
H533 C511 0.950 . S
C534 C535 1.349 1_565 S
C534 C536 1.327 . S
C534 H559 0.950 . S
C535 C534 1.349 1_545 S
C535 C551 1.349 . S
C536 C534 1.327 . S
C536 C555 1.429 . S
C536 H560 0.950 . S
C537 C554 1.580 . S
C537 C556 1.368 1_545 S
C537 H561 0.949 . S
H538 C542 0.949 . S
C539 C540 1.349 . S
C539 C541 1.327 . S
C539 H562 0.950 . S
C540 C539 1.349 . S
C540 C552 1.349 . S
C541 C539 1.327 . S
C541 C557 1.429 . S
C541 H563 0.950 1_565 S
C542 H538 0.949 . S
C542 C550 1.574 . S
C542 C558 1.368 . S
H543 C551 0.950 . S
H544 C549 0.950 . S
H545 C550 0.949 . S
H546 C552 0.950 . S
H547 C553 0.950 . S
H548 C554 0.972 . S
C549 H544 0.950 . S
C549 C551 1.327 . S
C549 C555 1.429 1_545 S
C550 C542 1.574 . S
C550 H545 0.949 . S
C550 C556 1.368 . S
C551 C535 1.349 . S
C551 H543 0.950 . S
C551 C549 1.327 . S
C552 C540 1.349 . S
C552 H546 0.950 . S
C552 C553 1.327 . S
C553 H547 0.950 . S
C553 C552 1.327 . S
C553 C557 1.429 . S
C554 C537 1.580 . S
C554 H548 0.972 . S
C554 C558 1.338 1_545 S
C555 C536 1.429 . S
C555 C549 1.429 1_565 S
C555 C556 1.523 . S
C556 C537 1.368 1_565 S
C556 C550 1.368 . S
C556 C555 1.523 . S
C557 C541 1.429 . S
C557 C553 1.429 . S
C557 C558 1.523 . S
C558 C542 1.368 . S
C558 C554 1.338 1_565 S
C558 C557 1.523 . S
H559 C534 0.950 . S
H560 C536 0.950 . S
H561 C537 0.949 . S
H562 C539 0.950 . S
H563 C541 0.950 1_545 S
C564 C565 1.349 . S
C564 C566 1.327 . S
C564 H589 0.950 . S
C565 C564 1.349 . S
C565 C581 1.349 . S
C566 C564 1.327 . S
C566 C585 1.429 . S
C566 H590 0.950 . S
C567 C584 1.574 . S
C567 C586 1.368 . S
C567 H591 0.949 . S
H568 C572 0.949 . S
C569 C570 1.349 . S
C569 C571 1.327 . S
C569 H592 0.950 . S
C570 C569 1.349 . S
C570 C582 1.349 . S
C571 C569 1.327 . S
C571 C587 1.429 . S
C571 H593 0.950 . S
C572 H568 0.949 . S
C572 C580 1.574 . S
C572 C588 1.368 . S
H573 C581 0.950 1_556 S
H574 C579 0.950 . S
H575 C580 0.949 . S
H576 C582 0.950 . S
H577 C583 0.950 . S
H578 C584 0.949 . S
C579 H574 0.950 . S
C579 C581 1.327 . S
C579 C585 1.429 . S
C580 C572 1.574 . S
C580 H575 0.949 . S
C580 C586 1.368 . S
C581 C565 1.349 . S
C581 H573 0.950 1_554 S
C581 C579 1.327 . S
C582 C570 1.349 . S
C582 H576 0.950 . S
C582 C583 1.327 . S
C583 H577 0.950 . S
C583 C582 1.327 . S
C583 C587 1.429 . S
C584 C567 1.574 . S
C584 H578 0.949 . S
C584 C588 1.368 . S
C585 C566 1.429 . S
C585 C579 1.429 . S
C585 C586 1.523 . S
C586 C567 1.368 . S
C586 C580 1.368 . S
C586 C585 1.523 . S
C587 C571 1.429 . S
C587 C583 1.429 . S
C587 C588 1.523 . S
C588 C572 1.368 . S
C588 C584 1.368 . S
C588 C587 1.523 . S
H589 C564 0.950 . S
H590 C566 0.950 . S
H591 C567 0.949 . S
H592 C569 0.950 . S
H593 C571 0.950 . S
C594 C595 1.349 . S
C594 C596 1.327 . S
C594 H619 0.950 . S
C595 C594 1.349 . S
C595 C611 1.349 . S
C596 C594 1.327 . S
C596 C615 1.429 . S
C596 H620 0.950 . S
C597 C614 1.574 . S
C597 C616 1.368 . S
C597 H621 0.949 . S
H598 C602 0.949 . S
C599 C600 1.349 . S
C599 C601 1.327 . S
C599 H622 0.950 . S
C600 C599 1.349 . S
C600 C612 1.349 . S
C601 C599 1.327 . S
C601 C617 1.429 . S
C601 H623 0.950 . S
C602 H598 0.949 . S
C602 C610 1.574 . S
C602 C618 1.368 . S
H603 C611 0.950 . S
H604 C609 0.950 . S
H605 C610 0.949 . S
H606 C612 0.950 . S
H607 C613 0.950 . S
H608 C614 0.949 . S
C609 H604 0.950 . S
C609 C611 1.327 . S
C609 C615 1.429 . S
C610 C602 1.574 . S
C610 H605 0.949 . S
C610 C616 1.368 . S
C611 C595 1.349 . S
C611 H603 0.950 . S
C611 C609 1.327 . S
C612 C600 1.349 . S
C612 H606 0.950 . S
C612 C613 1.327 . S
C613 H607 0.950 . S
C613 C612 1.327 . S
C613 C617 1.429 . S
C614 C597 1.574 . S
C614 H608 0.949 . S
C614 C618 1.368 . S
C615 C596 1.429 . S
C615 C609 1.429 . S
C615 C616 1.523 . S
C616 C597 1.368 . S
C616 C610 1.368 . S
C616 C615 1.523 . S
C617 C601 1.429 . S
C617 C613 1.429 . S
C617 C618 1.523 . S
C618 C602 1.368 . S
C618 C614 1.368 . S
C618 C617 1.523 . S
H619 C594 0.950 . S
H620 C596 0.950 . S
H621 C597 0.949 . S
H622 C599 0.950 . S
H623 C601 0.950 . S
C624 C625 1.349 . S
C624 C626 1.327 . S
C624 H649 0.950 . S
C625 C624 1.349 . S
C625 C641 1.349 1_655 S
C626 C624 1.327 . S
C626 C645 1.429 1_655 S
C626 H650 0.950 . S
C627 C644 1.574 . S
C627 C646 1.368 . S
C627 H651 0.949 . S
H628 C632 0.949 . S
C629 C630 1.349 . S
C629 C631 1.327 . S
C629 H652 0.950 . S
C630 C629 1.349 . S
C630 C642 1.349 1_554 S
C631 C629 1.327 . S
C631 C647 1.429 . S
C631 H653 0.950 . S
C632 H628 0.949 . S
C632 C640 1.574 . S
C632 C648 1.368 . S
H633 C641 0.950 . S
H634 C639 0.950 . S
H635 C640 0.949 1_655 S
H636 C642 0.950 . S
H637 C643 0.950 1_556 S
H638 C644 0.949 . S
C639 H634 0.950 . S
C639 C641 1.327 . S
C639 C645 1.429 . S
C640 C632 1.574 . S
C640 H635 0.949 1_455 S
C640 C646 1.368 . S
C641 C625 1.349 1_455 S
C641 H633 0.950 . S
C641 C639 1.327 . S
C642 C630 1.349 1_556 S
C642 H636 0.950 . S
C642 C643 1.327 1_556 S
C643 H637 0.950 1_554 S
C643 C642 1.327 1_554 S
C643 C647 1.429 . S
C644 C627 1.574 . S
C644 H638 0.949 . S
C644 C648 1.368 . S
C645 C626 1.429 1_455 S
C645 C639 1.429 . S
C645 C646 1.523 . S
C646 C627 1.368 . S
C646 C640 1.368 . S
C646 C645 1.523 . S
C647 C631 1.429 . S
C647 C643 1.429 . S
C647 C648 1.523 . S
C648 C632 1.368 . S
C648 C644 1.368 . S
C648 C647 1.523 . S
H649 C624 0.950 . S
H650 C626 0.950 . S
H651 C627 0.949 . S
H652 C629 0.950 . S
H653 C631 0.950 . S
C654 C655 1.349 . S
C654 C656 1.327 . S
C654 H679 0.950 . S
C655 C654 1.349 . S
C655 C671 1.349 1_565 S
C656 C654 1.327 . S
C656 C675 1.429 1_565 S
C656 H680 0.950 . S
C657 C674 1.574 . S
C657 C676 1.368 . S
C657 H681 0.949 . S
H658 C662 0.949 . S
C659 C660 1.349 . S
C659 C661 1.327 . S
C659 H682 0.950 . S
C660 C659 1.349 . S
C660 C672 1.349 . S
C661 C659 1.327 . S
C661 C677 1.429 . S
C661 H683 0.950 . S
C662 H658 0.949 . S
C662 C670 1.574 . S
C662 C678 1.368 1_565 S
H663 C671 0.950 . S
H664 C669 0.950 . S
H665 C670 0.949 . S
H666 C672 0.950 1_565 S
H667 C673 0.950 1_565 S
H668 C674 0.949 . S
C669 H664 0.950 . S
C669 C671 1.327 . S
C669 C675 1.429 . S
C670 C662 1.574 . S
C670 H665 0.949 . S
C670 C676 1.368 1_565 S
C671 C655 1.349 1_545 S
C671 H663 0.950 . S
C671 C669 1.327 . S
C672 C660 1.349 . S
C672 H666 0.950 1_545 S
C672 C673 1.327 . S
C673 H667 0.950 1_545 S
C673 C672 1.327 . S
C673 C677 1.429 . S
C674 C657 1.574 . S
C674 H668 0.949 . S
C674 C678 1.368 . S
C675 C656 1.429 1_545 S
C675 C669 1.429 . S
C675 C676 1.523 . S
C676 C657 1.368 . S
C676 C670 1.368 1_545 S
C676 C675 1.523 . S
C677 C661 1.429 . S
C677 C673 1.429 . S
C677 C678 1.523 . S
C678 C662 1.368 1_545 S
C678 C674 1.368 . S
C678 C677 1.523 . S
H679 C654 0.950 . S
H680 C656 0.950 . S
H681 C657 0.949 . S
H682 C659 0.950 . S
H683 C661 0.950 . S
C684 C685 1.349 . S
C684 C686 1.327 . S
C684 H709 0.950 . S
C685 C684 1.349 . S
C685 C701 1.349 . S
C686 C684 1.327 . S
C686 C705 1.429 . S
C686 H710 0.950 . S
C687 C704 1.574 . S
C687 C706 1.368 . S
C687 H711 0.949 . S
H688 C692 0.949 . S
C689 C690 1.349 . S
C689 C691 1.327 . S
C689 H712 0.950 1_554 S
C690 C689 1.349 . S
C690 C702 1.349 . S
C691 C689 1.327 . S
C691 C707 1.429 . S
C691 H713 0.950 . S
C692 H688 0.949 . S
C692 C700 1.574 . S
C692 C708 1.368 . S
H693 C701 0.950 . S
H694 C699 0.950 . S
H695 C700 0.949 . S
H696 C702 0.950 . S
H697 C703 0.950 . S
H698 C704 0.949 . S
C699 H694 0.950 . S
C699 C701 1.327 . S
C699 C705 1.429 . S
C700 C692 1.574 . S
C700 H695 0.949 . S
C700 C706 1.368 . S
C701 C685 1.349 . S
C701 H693 0.950 . S
C701 C699 1.327 . S
C702 C690 1.349 . S
C702 H696 0.950 . S
C702 C703 1.327 . S
C703 H697 0.950 . S
C703 C702 1.327 . S
C703 C707 1.429 . S
C704 C687 1.574 . S
C704 H698 0.949 . S
C704 C708 1.368 . S
C705 C686 1.429 . S
C705 C699 1.429 . S
C705 C706 1.523 . S
C706 C687 1.368 . S
C706 C700 1.368 . S
C706 C705 1.523 . S
C707 C691 1.429 . S
C707 C703 1.429 . S
C707 C708 1.523 . S
C708 C692 1.368 . S
C708 C704 1.368 . S
C708 C707 1.523 . S
H709 C684 0.950 . S
H710 C686 0.950 . S
H711 C687 0.949 . S
H712 C689 0.950 1_556 S
H713 C691 0.950 . S
C714 C715 1.349 . S
C714 C716 1.327 . S
C714 H739 0.950 . S
C715 C714 1.349 . S
C715 C731 1.349 . S
C716 C714 1.327 . S
C716 C735 1.429 . S
C716 H740 0.950 . S
C717 C734 1.574 . S
C717 C736 1.368 . S
C717 H741 0.949 . S
H718 C722 0.949 . S
C719 C720 1.349 . S
C719 C721 1.327 . S
C719 H742 0.950 1_554 S
C720 C719 1.349 . S
C720 C732 1.349 . S
C721 C719 1.327 . S
C721 C737 1.429 . S
C721 H743 0.950 . S
C722 H718 0.949 . S
C722 C730 1.574 . S
C722 C738 1.368 . S
H723 C731 0.950 . S
H724 C729 0.950 . S
H725 C730 0.949 . S
H726 C732 0.950 . S
H727 C733 0.950 . S
H728 C734 0.949 . S
C729 H724 0.950 . S
C729 C731 1.327 . S
C729 C735 1.429 . S
C730 C722 1.574 . S
C730 H725 0.949 . S
C730 C736 1.368 . S
C731 C715 1.349 . S
C731 H723 0.950 . S
C731 C729 1.327 . S
C732 C720 1.349 . S
C732 H726 0.950 . S
C732 C733 1.327 . S
C733 H727 0.950 . S
C733 C732 1.327 . S
C733 C737 1.429 . S
C734 C717 1.574 . S
C734 H728 0.949 . S
C734 C738 1.368 . S
C735 C716 1.429 . S
C735 C729 1.429 . S
C735 C736 1.523 . S
C736 C717 1.368 . S
C736 C730 1.368 . S
C736 C735 1.523 . S
C737 C721 1.429 . S
C737 C733 1.429 . S
C737 C738 1.523 . S
C738 C722 1.368 . S
C738 C734 1.368 . S
C738 C737 1.523 . S
H739 C714 0.950 . S
H740 C716 0.950 . S
H741 C717 0.949 . S
H742 C719 0.950 1_556 S
H743 C721 0.950 . S
C744 C745 1.380 . S
C744 C746 1.327 . S
C744 H769 0.950 . S
C745 C744 1.380 . S
C745 C761 1.321 1_455 S
C746 C744 1.327 . S
C746 C765 1.429 . S
C746 H770 0.950 . S
C747 C764 1.574 . S
C747 C766 1.368 1_655 S
C747 H771 0.949 . S
H748 C752 0.949 . S
C749 C750 1.349 1_655 S
C749 C751 1.327 . S
C749 H772 0.950 . S
C750 C749 1.349 1_455 S
C750 C762 1.349 . S
C751 C749 1.327 . S
C751 C767 1.429 1_655 S
C751 H773 0.950 . S
C752 H748 0.949 . S
C752 C760 1.574 . S
C752 C768 1.368 . S
H753 C761 0.950 1_554 S
H754 C759 0.950 1_554 S
H755 C760 0.949 . S
H756 C762 0.950 . S
H757 C763 0.950 . S
H758 C764 0.949 . S
C759 H754 0.950 1_556 S
C759 C761 1.327 . S
C759 C765 1.429 1_655 S
C760 C752 1.574 . S
C760 H755 0.949 . S
C760 C766 1.368 . S
C761 C745 1.321 1_655 S
C761 H753 0.950 1_556 S
C761 C759 1.327 . S
C762 C750 1.349 . S
C762 H756 0.950 . S
C762 C763 1.327 . S
C763 H757 0.950 . S
C763 C762 1.327 . S
C763 C767 1.429 . S
C764 C747 1.574 . S
C764 H758 0.949 . S
C764 C768 1.368 1_655 S
C765 C746 1.429 . S
C765 C759 1.429 1_455 S
C765 C766 1.523 . S
C766 C747 1.368 1_455 S
C766 C760 1.368 . S
C766 C765 1.523 . S
C767 C751 1.429 1_455 S
C767 C763 1.429 . S
C767 C768 1.523 . S
C768 C752 1.368 . S
C768 C764 1.368 1_455 S
C768 C767 1.523 . S
H769 C744 0.950 . S
H770 C746 0.950 . S
H771 C747 0.949 . S
H772 C749 0.950 . S
H773 C751 0.950 . S
C774 C775 1.382 . S
C774 C776 1.327 . S
C774 H799 0.950 1_556 S
C775 C774 1.382 . S
C775 C791 1.319 1_545 S
C776 C774 1.327 . S
C776 C795 1.429 . S
C776 H800 0.950 1_556 S
C777 C794 1.574 . S
C777 C796 1.368 1_565 S
C777 H801 0.949 . S
H778 C782 0.949 . S
C779 C780 1.349 1_565 S
C779 C781 1.327 . S
C779 H802 0.950 . S
C780 C779 1.349 1_545 S
C780 C792 1.349 . S
C781 C779 1.327 . S
C781 C797 1.429 1_565 S
C781 H803 0.950 . S
C782 H778 0.949 . S
C782 C790 1.574 . S
C782 C798 1.368 . S
H783 C791 0.950 . S
H784 C789 0.950 . S
H785 C790 0.949 . S
H786 C792 0.950 . S
H787 C793 0.950 . S
H788 C794 0.949 . S
C789 H784 0.950 . S
C789 C791 1.327 . S
C789 C795 1.429 1_565 S
C790 C782 1.574 . S
C790 H785 0.949 . S
C790 C796 1.368 . S
C791 C775 1.319 1_565 S
C791 H783 0.950 . S
C791 C789 1.327 . S
C792 C780 1.349 . S
C792 H786 0.950 . S
C792 C793 1.327 . S
C793 H787 0.950 . S
C793 C792 1.327 . S
C793 C797 1.429 . S
C794 C777 1.574 . S
C794 H788 0.949 . S
C794 C798 1.368 1_565 S
C795 C776 1.429 . S
C795 C789 1.429 1_545 S
C795 C796 1.523 . S
C796 C777 1.368 1_545 S
C796 C790 1.368 . S
C796 C795 1.523 . S
C797 C781 1.429 1_545 S
C797 C793 1.429 . S
C797 C798 1.523 . S
C798 C782 1.368 . S
C798 C794 1.368 1_545 S
C798 C797 1.523 . S
H799 C774 0.950 1_554 S
H800 C776 0.950 1_554 S
H801 C777 0.949 . S
H802 C779 0.950 . S
H803 C781 0.950 . S
C804 C805 1.349 . S
C804 C806 1.327 . S
C804 H829 0.950 . S
C805 C804 1.349 . S
C805 C821 1.349 . S
C806 C804 1.327 . S
C806 C825 1.429 . S
C806 H830 0.950 . S
C807 C824 1.574 . S
C807 C826 1.368 . S
C807 H831 0.949 . S
H808 C812 0.949 . S
C809 C810 1.349 . S
C809 C811 1.327 . S
C809 H832 0.950 . S
C810 C809 1.349 . S
C810 C822 1.349 . S
C811 C809 1.327 . S
C811 C827 1.429 . S
C811 H833 0.950 . S
C812 H808 0.949 . S
C812 C820 1.574 . S
C812 C828 1.368 . S
H813 C821 0.950 1_554 S
H814 C819 0.950 1_554 S
H815 C820 0.949 . S
H816 C822 0.950 . S
H817 C823 0.950 . S
H818 C824 0.949 . S
C819 H814 0.950 1_556 S
C819 C821 1.327 . S
C819 C825 1.429 . S
C820 C812 1.574 . S
C820 H815 0.949 . S
C820 C826 1.368 . S
C821 C805 1.349 . S
C821 H813 0.950 1_556 S
C821 C819 1.327 . S
C822 C810 1.349 . S
C822 H816 0.950 . S
C822 C823 1.327 . S
C823 H817 0.950 . S
C823 C822 1.327 . S
C823 C827 1.429 . S
C824 C807 1.574 . S
C824 H818 0.949 . S
C824 C828 1.368 . S
C825 C806 1.429 . S
C825 C819 1.429 . S
C825 C826 1.523 . S
C826 C807 1.368 . S
C826 C820 1.368 . S
C826 C825 1.523 . S
C827 C811 1.429 . S
C827 C823 1.429 . S
C827 C828 1.523 . S
C828 C812 1.368 . S
C828 C824 1.368 . S
C828 C827 1.523 . S
H829 C804 0.950 . S
H830 C806 0.950 . S
H831 C807 0.949 . S
H832 C809 0.950 . S
H833 C811 0.950 . S
C834 C835 1.349 . S
C834 C836 1.327 . S
C834 H859 0.950 1_556 S
C835 C834 1.349 . S
C835 C851 1.349 . S
C836 C834 1.327 . S
C836 C855 1.429 . S
C836 H860 0.950 1_556 S
C837 C854 1.574 . S
C837 C856 1.368 . S
C837 H861 0.949 . S
H838 C842 0.949 . S
C839 C840 1.349 . S
C839 C841 1.327 . S
C839 H862 0.950 . S
C840 C839 1.349 . S
C840 C852 1.349 . S
C841 C839 1.327 . S
C841 C857 1.429 . S
C841 H863 0.950 . S
C842 H838 0.949 . S
C842 C850 1.574 . S
C842 C858 1.368 . S
H843 C851 0.950 . S
H844 C849 0.950 . S
H845 C850 0.949 . S
H846 C852 0.950 . S
H847 C853 0.950 . S
H848 C854 0.949 . S
C849 H844 0.950 . S
C849 C851 1.327 . S
C849 C855 1.429 . S
C850 C842 1.574 . S
C850 H845 0.949 . S
C850 C856 1.368 . S
C851 C835 1.349 . S
C851 H843 0.950 . S
C851 C849 1.327 . S
C852 C840 1.349 . S
C852 H846 0.950 . S
C852 C853 1.327 . S
C853 H847 0.950 . S
C853 C852 1.327 . S
C853 C857 1.429 . S
C854 C837 1.574 . S
C854 H848 0.949 . S
C854 C858 1.368 . S
C855 C836 1.429 . S
C855 C849 1.429 . S
C855 C856 1.523 . S
C856 C837 1.368 . S
C856 C850 1.368 . S
C856 C855 1.523 . S
C857 C841 1.429 . S
C857 C853 1.429 . S
C857 C858 1.523 . S
C858 C842 1.368 . S
C858 C854 1.368 . S
C858 C857 1.523 . S
H859 C834 0.950 1_554 S
H860 C836 0.950 1_554 S
H861 C837 0.949 . S
H862 C839 0.950 . S
H863 C841 0.950 . S
C864 C865 1.353 . S
C864 C866 1.327 . S
C864 H889 0.950 . S
C865 C864 1.353 . S
C865 C881 1.349 . S
C866 C864 1.327 . S
C866 C885 1.429 . S
C866 H890 0.950 . S
C867 C884 1.574 . S
C867 C886 1.368 . S
C867 H891 0.949 . S
H868 C872 0.949 . S
C869 C870 1.349 . S
C869 C871 1.327 . S
C869 H892 0.950 . S
C870 C869 1.349 . S
C870 C882 1.349 . S
C871 C869 1.327 . S
C871 C887 1.429 . S
C871 H893 0.950 . S
C872 H868 0.949 . S
C872 C880 1.574 . S
C872 C888 1.368 . S
H873 C881 0.948 1_455 S
H874 C879 0.952 . S
H875 C880 0.949 . S
H876 C882 0.950 . S
H877 C883 0.950 . S
H878 C884 0.949 . S
C879 H874 0.952 . S
C879 C881 1.328 . S
C879 C885 1.429 . S
C880 C872 1.574 . S
C880 H875 0.949 . S
C880 C886 1.368 . S
C881 C865 1.349 . S
C881 H873 0.948 1_655 S
C881 C879 1.328 . S
C882 C870 1.349 . S
C882 H876 0.950 . S
C882 C883 1.327 . S
C883 H877 0.950 . S
C883 C882 1.327 . S
C883 C887 1.429 . S
C884 C867 1.574 . S
C884 H878 0.949 . S
C884 C888 1.368 . S
C885 C866 1.429 . S
C885 C879 1.429 . S
C885 C886 1.523 . S
C886 C867 1.368 . S
C886 C880 1.368 . S
C886 C885 1.523 . S
C887 C871 1.429 . S
C887 C883 1.429 . S
C887 C888 1.523 . S
C888 C872 1.368 . S
C888 C884 1.368 . S
C888 C887 1.523 . S
H889 C864 0.950 . S
H890 C866 0.950 . S
H891 C867 0.949 . S
H892 C869 0.950 . S
H893 C871 0.950 . S
C894 C895 1.383 . S
C894 C896 1.327 . S
C894 H919 0.950 . S
C895 C894 1.383 . S
C895 C911 1.317 1_565 S
C896 C894 1.327 . S
C896 C915 1.429 . S
C896 H920 0.950 . S
C897 C914 1.574 . S
C897 C916 1.368 1_545 S
C897 H921 0.949 . S
H898 C902 0.949 . S
C899 C900 1.349 1_545 S
C899 C901 1.327 . S
C899 H922 0.950 . S
C900 C899 1.349 1_565 S
C900 C912 1.349 . S
C901 C899 1.327 . S
C901 C917 1.429 1_545 S
C901 H923 0.950 . S
C902 H898 0.949 . S
C902 C910 1.574 . S
C902 C918 1.368 . S
H903 C911 0.950 . S
H904 C909 0.950 . S
H905 C910 0.949 . S
H906 C912 0.950 . S
H907 C913 0.950 . S
H908 C914 0.949 . S
C909 H904 0.950 . S
C909 C911 1.327 . S
C909 C915 1.429 1_545 S
C910 C902 1.574 . S
C910 H905 0.949 . S
C910 C916 1.368 . S
C911 C895 1.317 1_545 S
C911 H903 0.950 . S
C911 C909 1.327 . S
C912 C900 1.349 . S
C912 H906 0.950 . S
C912 C913 1.327 . S
C913 H907 0.950 . S
C913 C912 1.327 . S
C913 C917 1.429 . S
C914 C897 1.574 . S
C914 H908 0.949 . S
C914 C918 1.368 1_545 S
C915 C896 1.429 . S
C915 C909 1.429 1_565 S
C915 C916 1.523 . S
C916 C897 1.368 1_565 S
C916 C910 1.368 . S
C916 C915 1.523 . S
C917 C901 1.429 1_565 S
C917 C913 1.429 . S
C917 C918 1.523 . S
C918 C902 1.368 . S
C918 C914 1.368 1_565 S
C918 C917 1.523 . S
H919 C894 0.950 . S
H920 C896 0.950 . S
H921 C897 0.949 . S
H922 C899 0.950 . S
H923 C901 0.950 . S
C924 C925 1.349 . S
C924 C926 1.327 . S
C924 H949 0.950 . S
C925 C924 1.349 . S
C925 C941 1.349 . S
C926 C924 1.327 . S
C926 C945 1.429 . S
C926 H950 0.950 . S
C927 C944 1.574 . S
C927 C946 1.368 . S
C927 H951 0.949 . S
H928 C932 0.949 . S
C929 C930 1.349 . S
C929 C931 1.327 . S
C929 H952 0.950 . S
C930 C929 1.349 . S
C930 C942 1.349 . S
C931 C929 1.327 . S
C931 C947 1.429 . S
C931 H953 0.950 . S
C932 H928 0.949 . S
C932 C940 1.574 . S
C932 C948 1.368 . S
H933 C941 0.950 . S
H934 C939 0.950 . S
H935 C940 0.949 . S
H936 C942 0.950 . S
H937 C943 0.950 . S
H938 C944 0.949 . S
C939 H934 0.950 . S
C939 C941 1.327 . S
C939 C945 1.429 . S
C940 C932 1.574 . S
C940 H935 0.949 . S
C940 C946 1.368 . S
C941 C925 1.349 . S
C941 H933 0.950 . S
C941 C939 1.327 . S
C942 C930 1.349 . S
C942 H936 0.950 . S
C942 C943 1.327 . S
C943 H937 0.950 . S
C943 C942 1.327 . S
C943 C947 1.429 . S
C944 C927 1.574 . S
C944 H938 0.949 . S
C944 C948 1.368 . S
C945 C926 1.429 . S
C945 C939 1.429 . S
C945 C946 1.523 . S
C946 C927 1.368 . S
C946 C940 1.368 . S
C946 C945 1.523 . S
C947 C931 1.429 . S
C947 C943 1.429 . S
C947 C948 1.523 . S
C948 C932 1.368 . S
C948 C944 1.368 . S
C948 C947 1.523 . S
H949 C924 0.950 . S
H950 C926 0.950 . S
H951 C927 0.949 . S
H952 C929 0.950 . S
H953 C931 0.950 . S
C954 C955 1.349 . S
C954 C956 1.327 . S
C954 H979 0.950 . S
C955 C954 1.349 . S
C955 C971 1.349 . S
C956 C954 1.327 . S
C956 C975 1.429 . S
C956 H980 0.950 . S
C957 C974 1.574 . S
C957 C976 1.368 . S
C957 H981 0.949 . S
H958 C962 0.949 . S
C959 C960 1.349 . S
C959 C961 1.327 . S
C959 H982 0.950 . S
C960 C959 1.349 . S
C960 C972 1.349 . S
C961 C959 1.327 . S
C961 C977 1.429 . S
C961 H983 0.950 . S
C962 H958 0.949 . S
C962 C970 1.574 . S
C962 C978 1.368 . S
H963 C971 0.950 . S
H964 C969 0.950 . S
H965 C970 0.949 . S
H966 C972 0.950 . S
H967 C973 0.950 . S
H968 C974 0.949 . S
C969 H964 0.950 . S
C969 C971 1.327 . S
C969 C975 1.429 . S
C970 C962 1.574 . S
C970 H965 0.949 . S
C970 C976 1.368 . S
C971 C955 1.349 . S
C971 H963 0.950 . S
C971 C969 1.327 . S
C972 C960 1.349 . S
C972 H966 0.950 . S
C972 C973 1.327 . S
C973 H967 0.950 . S
C973 C972 1.327 . S
C973 C977 1.429 . S
C974 C957 1.574 . S
C974 H968 0.949 . S
C974 C978 1.368 . S
C975 C956 1.429 . S
C975 C969 1.429 . S
C975 C976 1.523 . S
C976 C957 1.368 . S
C976 C970 1.368 . S
C976 C975 1.523 . S
C977 C961 1.429 . S
C977 C973 1.429 . S
C977 C978 1.523 . S
C978 C962 1.368 . S
C978 C974 1.368 . S
C978 C977 1.523 . S
H979 C954 0.950 . S
H980 C956 0.950 . S
H981 C957 0.949 . S
H982 C959 0.950 . S
H983 C961 0.950 . S
C265 N80 1.795 1_545 S
C270 C113 1.831 1_545 S
C300 C153 1.845 . S
C295 N93 1.802 . S
C330 C193 1.851 . S
C325 N54 1.812 . S
C360 C233 1.839 1_455 S
C355 N67 1.801 1_455 S
C390 C122 1.835 1_565 S
C385 N28 1.800 1_545 S
C415 N41 1.803 . S
C420 C162 1.847 . S
C445 N2 1.811 . S
C450 C202 1.850 . S
C475 N15 1.803 . S
C480 C242 1.840 1_655 S
C510 C119 0.275 . S
C505 N70 0.231 1_455 S
C540 C159 0.284 . S
C535 N83 0.250 1_545 S
C570 C199 0.293 . S
C565 N96 0.260 . S
C595 N57 0.245 . S
C600 C239 0.279 . S
C625 N18 0.231 . S
C630 C110 0.271 . S
C660 C150 0.284 . S
C655 N31 0.244 . S
C690 C190 0.293 . S
C685 N44 0.254 . S
C715 N5 0.237 . S
C720 C230 0.287 . S
C745 N66 2.017 1_455 S
C750 C123 2.072 . S
C775 N79 1.989 1_545 S
C780 C163 2.050 . S
C810 C203 2.033 . S
C805 N92 1.976 . S
C840 C243 2.062 . S
C835 N53 1.998 . S
C865 N14 2.018 . S
C870 C114 2.087 . S
C900 C154 2.049 . S
C895 N27 1.988 . S
C930 C194 2.032 . S
C925 N40 1.969 . S
C955 N1 1.999 . S
C960 C234 2.069 . S
