# Generated by pormake.
# Topology pth, (4,4)-cn, num edge types: 1
# Building blocks:
#     Node 0, Type 0, BuildingBlock: TATPOV_clean_sbu_0, # of connection points: 4
#     Node 1, Type 0, BuildingBlock: TATPOV_clean_sbu_0, # of connection points: 4
#     Node 2, Type 0, BuildingBlock: TATPOV_clean_sbu_0, # of connection points: 4
#     Node 3, Type 1, BuildingBlock: MIFKUJ_clean_linker_1, # of connection points: 4
#     Node 4, Type 1, BuildingBlock: MIFKUJ_clean_linker_1, # of connection points: 4
#     Node 5, Type 1, BuildingBlock: MIFKUJ_clean_linker_1, # of connection points: 4
#     Edge 6, Type (0, 1), BuildingBlock: TEMPAE_clean_linker_10, # of connection points: 2
#     Edge 7, Type (0, 1), BuildingBlock: TEMPAE_clean_linker_10, # of connection points: 2
#     Edge 8, Type (0, 1), BuildingBlock: TEMPAE_clean_linker_10, # of connection points: 2
#     Edge 9, Type (0, 1), BuildingBlock: TEMPAE_clean_linker_10, # of connection points: 2
#     Edge 10, Type (0, 1), BuildingBlock: TEMPAE_clean_linker_10, # of connection points: 2
#     Edge 11, Type (0, 1), BuildingBlock: TEMPAE_clean_linker_10, # of connection points: 2
#     Edge 12, Type (0, 1), BuildingBlock: TEMPAE_clean_linker_10, # of connection points: 2
#     Edge 13, Type (0, 1), BuildingBlock: TEMPAE_clean_linker_10, # of connection points: 2
#     Edge 14, Type (0, 1), BuildingBlock: TEMPAE_clean_linker_10, # of connection points: 2
#     Edge 15, Type (0, 1), BuildingBlock: TEMPAE_clean_linker_10, # of connection points: 2
#     Edge 16, Type (0, 1), BuildingBlock: TEMPAE_clean_linker_10, # of connection points: 2
#     Edge 17, Type (0, 1), BuildingBlock: TEMPAE_clean_linker_10, # of connection points: 2
# Relax obj value: 0.038
# Max RMSD: 0.160
# Mean RMSD: 0.089
data_MOF--net-pth--node1-TATPOV_clean_sbu_0--node2-MIFKUJ_clean_linker_1--edge1-TEMPAE_clean_linker_10
_symmetry_space_group_name_H-M    P1
_symmetry_Int_Tables_number       1
_symmetry_cell_setting            triclinic
loop_
_symmetry_equiv_pos_as_xyz
'x, y, z'
_cell_length_a     30.0346
_cell_length_b     29.721897
_cell_length_c     62.82749
_cell_angle_alpha  92.49007
_cell_angle_beta   92.194508
_cell_angle_gamma 121.02451
loop_
_atom_site_label
_atom_site_type_symbol
_atom_site_fract_x
_atom_site_fract_y
_atom_site_fract_z
_atom_type_partial_charge
Zn0 Zn 0.11442 0.00745 0.01606 0.0
Zn1 Zn 0.07734 0.0538 0.04153 0.0
O2 O 0.08489 0.00421 0.06112 0.0
O3 O 0.11016 0.96195 0.03991 0.0
O4 O 0.05652 0.09422 0.06115 0.0
O5 O 0.17922 0.07686 0.01194 0.0
O6 O 0.14248 0.11355 0.02934 0.0
C7 C 0.09656 0.96898 0.058 0.0
C8 C 0.01386 0.99045 0.00102 0.0
O9 O 0.01682 0.01432 0.01883 0.0
O10 O 0.0509 0.9844 0.99581 0.0
C11 C 0.00988 0.0802 0.06469 0.0
O12 O 0.97139 0.03592 0.05534 0.0
C13 C 0.17917 0.11775 0.01844 0.0
Zn14 Zn 0.17101 0.12519 0.34899 0.0
Zn15 Zn 0.08955 0.08841 0.37388 0.0
O16 O 0.15302 0.1075 0.3943 0.0
O17 O 0.22049 0.14079 0.37468 0.0
O18 O 0.0335 0.07199 0.3941 0.0
O19 O 0.15668 0.18005 0.33828 0.0
O20 O 0.08814 0.14551 0.3573 0.0
C21 C 0.20171 0.12746 0.39262 0.0
C22 C 0.08875 0.01405 0.3395 0.0
O23 O 0.0661 0.02177 0.35472 0.0
O24 O 0.13241 0.05108 0.33436 0.0
C25 C 0.98725 0.03253 0.39244 0.0
O26 O 0.9729 0.99646 0.37658 0.0
C27 C 0.116 0.17835 0.34412 0.0
Zn28 Zn 0.09086 0.92052 0.73061 0.0
Zn29 Zn 0.04851 0.96059 0.70421 0.0
O30 O 0.09312 0.94465 0.68509 0.0
O31 O 0.12858 0.91232 0.70598 0.0
O32 O 0.00982 0.97994 0.68327 0.0
O33 O 0.01938 0.8618 0.7374 0.0
O34 O 0.98773 0.90025 0.71809 0.0
C35 C 0.12306 0.92656 0.68784 0.0
C36 C 0.11952 0.0296 0.74219 0.0
O37 O 0.09256 0.02462 0.72513 0.0
O38 O 0.12354 0.99135 0.74794 0.0
C39 C 0.00942 0.0225 0.68348 0.0
O40 O 0.03812 0.06047 0.69827 0.0
C41 C 0.98082 0.86451 0.73035 0.0
H42 H 0.02479 0.47372 0.16052 0.0
H43 H 0.0253 0.40391 0.13881 0.0
H44 H 0.89326 0.28709 0.17015 0.0
H45 H 0.89242 0.35725 0.19174 0.0
H46 H 0.96369 0.50749 0.16447 0.0
H47 H 0.0345 0.4373 0.2094 0.0
H48 H 0.0526 0.38246 0.23168 0.0
H49 H 0.92436 0.35323 0.26933 0.0
H50 H 0.90441 0.40606 0.24635 0.0
H51 H 0.89746 0.58613 0.21324 0.0
H52 H 0.90183 0.65765 0.23598 0.0
H53 H 0.03551 0.67461 0.27231 0.0
H54 H 0.03018 0.60284 0.24995 0.0
H55 H 0.95958 0.50386 0.24318 0.0
H56 H 0.91399 0.5546 0.15803 0.0
H57 H 0.93755 0.63168 0.13819 0.0
H58 H 0.06428 0.72824 0.18557 0.0
H59 H 0.04317 0.65041 0.20423 0.0
C60 C 0.95871 0.42084 0.17786 0.0
C61 C 0.99548 0.43314 0.16256 0.0
C62 C 0.99575 0.39319 0.15015 0.0
C63 C 0.9593 0.34004 0.15278 0.0
C64 C 0.92215 0.3277 0.16794 0.0
C65 C 0.92165 0.36774 0.18027 0.0
C66 C 0.95986 0.46364 0.19147 0.0
C67 C 0.96213 0.50634 0.18167 0.0
C68 C 0.96034 0.46345 0.21402 0.0
C69 C 0.9675 0.42524 0.22593 0.0
C70 C 0.00899 0.41765 0.22193 0.0
C71 C 0.01963 0.38667 0.23476 0.0
C72 C 0.98988 0.36391 0.25217 0.0
C73 C 0.94789 0.37065 0.25601 0.0
C74 C 0.93654 0.40074 0.2429 0.0
C75 C 0.96351 0.58923 0.22992 0.0
C76 C 0.92753 0.60526 0.22617 0.0
C77 C 0.93014 0.64614 0.23914 0.0
C78 C 0.9688 0.67162 0.25606 0.0
C79 C 0.00449 0.6551 0.25977 0.0
C80 C 0.0017 0.61422 0.24691 0.0
C81 C 0.96193 0.54663 0.21614 0.0
C82 C 0.95961 0.50407 0.22592 0.0
C83 C 0.965 0.54878 0.19376 0.0
C84 C 0.97623 0.59658 0.18283 0.0
C85 C 0.94678 0.59241 0.16415 0.0
C86 C 0.96004 0.63677 0.15294 0.0
C87 C 0.00284 0.68648 0.16026 0.0
C88 C 0.03153 0.69065 0.17925 0.0
C89 C 0.01884 0.64615 0.19021 0.0
H90 H 0.68103 0.11305 0.5036 0.0
H91 H 0.74494 0.11075 0.48127 0.0
H92 H 0.69913 0.95611 0.50111 0.0
H93 H 0.63594 0.95895 0.52353 0.0
H94 H 0.57922 0.05469 0.50211 0.0
H95 H 0.71375 0.10187 0.5536 0.0
H96 H 0.78441 0.10394 0.57503 0.0
H97 H 0.6757 0.95092 0.59624 0.0
H98 H 0.60499 0.94916 0.57481 0.0
H99 H 0.46052 0.93195 0.56731 0.0
H100 H 0.38562 0.91303 0.58753 0.0
H101 H 0.41845 0.07121 0.58083 0.0
H102 H 0.49435 0.09034 0.56108 0.0
H103 H 0.56452 0.00776 0.57739 0.0
H104 H 0.42975 0.9707 0.52008 0.0
H105 H 0.36802 0.98859 0.50136 0.0
H106 H 0.49255 0.14824 0.49473 0.0
H107 H 0.55367 0.13044 0.51383 0.0
C108 C 0.65405 0.03643 0.51539 0.0
C109 C 0.68489 0.07874 0.50315 0.0
C110 C 0.72122 0.07725 0.49034 0.0
C111 C 0.72714 0.03322 0.4894 0.0
C112 C 0.6962 0.99096 0.50172 0.0
C113 C 0.66 0.99253 0.51454 0.0
C114 C 0.61415 0.03684 0.52849 0.0
C115 C 0.5765 0.04515 0.51866 0.0
C116 C 0.61098 0.02539 0.55019 0.0
C117 C 0.65408 0.02516 0.56246 0.0
C118 C 0.70521 0.06841 0.56263 0.0
C119 C 0.74561 0.06957 0.57489 0.0
C120 C 0.73565 0.02764 0.58736 0.0
C121 C 0.68449 0.98416 0.58703 0.0
C122 C 0.64408 0.983 0.57474 0.0
C123 C 0.4828 0.01242 0.5626 0.0
C124 C 0.45157 0.96255 0.57021 0.0
C125 C 0.4085 0.95164 0.58158 0.0
C126 C 0.39594 0.99053 0.58568 0.0
C127 C 0.42731 0.04054 0.57803 0.0
C128 C 0.47045 0.05142 0.56663 0.0
C129 C 0.52854 0.02322 0.55069 0.0
C130 C 0.56747 0.01731 0.56083 0.0
C131 C 0.53407 0.03915 0.52959 0.0
C132 C 0.49618 0.04936 0.51843 0.0
C133 C 0.44355 0.00965 0.51476 0.0
C134 C 0.40844 0.01985 0.50398 0.0
C135 C 0.42543 0.06989 0.49665 0.0
C136 C 0.47813 0.10957 0.50047 0.0
C137 C 0.51317 0.09931 0.51118 0.0
H138 H 0.45387 0.42703 0.8632 0.0
H139 H 0.3897 0.34312 0.84388 0.0
H140 H 0.31025 0.41647 0.81712 0.0
H141 H 0.37506 0.50066 0.83633 0.0
H142 H 0.49254 0.54664 0.83092 0.0
H143 H 0.50398 0.49337 0.91313 0.0
H144 H 0.45525 0.42943 0.93873 0.0
H145 H 0.31324 0.41745 0.91354 0.0
H146 H 0.36261 0.4814 0.88753 0.0
H147 H 0.60086 0.71834 0.86932 0.0
H148 H 0.68207 0.79141 0.88682 0.0
H149 H 0.68371 0.6863 0.93195 0.0
H150 H 0.60619 0.61347 0.91343 0.0
H151 H 0.51568 0.58877 0.9092 0.0
H152 H 0.53921 0.64276 0.81899 0.0
H153 H 0.60916 0.68558 0.79463 0.0
H154 H 0.71275 0.6676 0.83813 0.0
H155 H 0.64264 0.62298 0.86189 0.0
C156 C 0.41882 0.46969 0.85121 0.0
C157 C 0.42221 0.42479 0.85339 0.0
C158 C 0.38583 0.37713 0.8423 0.0
C159 C 0.3453 0.37361 0.82901 0.0
C160 C 0.34101 0.41824 0.82738 0.0
C161 C 0.37791 0.46616 0.83826 0.0
C162 C 0.46049 0.52107 0.86114 0.0
C163 C 0.49726 0.55684 0.84799 0.0
C164 C 0.46823 0.53205 0.88348 0.0
C165 C 0.43692 0.49224 0.89849 0.0
C166 C 0.46235 0.47715 0.91315 0.0
C167 C 0.43448 0.44081 0.92788 0.0
C168 C 0.38048 0.41883 0.92836 0.0
C169 C 0.35482 0.43353 0.91349 0.0
C170 C 0.38287 0.47001 0.89864 0.0
C171 C 0.59739 0.66018 0.88993 0.0
C172 C 0.61923 0.71106 0.88281 0.0
C173 C 0.66535 0.75293 0.89299 0.0
C174 C 0.68987 0.74475 0.9107 0.0
C175 C 0.66693 0.69401 0.91804 0.0
C176 C 0.62181 0.65227 0.90765 0.0
C177 C 0.54935 0.61452 0.87914 0.0
C178 C 0.51086 0.57992 0.89203 0.0
C179 C 0.54304 0.60212 0.85676 0.0
C180 C 0.58596 0.63084 0.84257 0.0
C181 C 0.57702 0.64818 0.8233 0.0
C182 C 0.61682 0.67245 0.8094 0.0
C183 C 0.66626 0.68017 0.81467 0.0
C184 C 0.67516 0.66281 0.8339 0.0
C185 C 0.6352 0.63771 0.84756 0.0
C186 C 0.94823 0.10346 0.08048 0.0
C187 C -0.00066 0.11474 0.07861 0.0
C188 C 0.93821 0.13734 0.09288 0.0
C189 C 0.98026 0.18338 0.10374 0.0
C190 C 0.0318 0.19437 0.10228 0.0
C191 C 0.04071 0.16002 0.0897 0.0
C192 C 0.88276 0.12445 0.09404 0.0
C193 C 0.07767 0.24293 0.11371 0.0
C194 C 0.96783 0.3016 0.11804 0.0
C195 C 0.96097 0.29785 0.13997 0.0
C196 C 0.97268 0.26375 0.10594 0.0
C197 C 0.97087 0.22124 0.11605 0.0
C198 C 0.96269 0.21652 0.13809 0.0
C199 C 0.95771 0.25486 0.14979 0.0
C200 C 0.98096 0.26995 0.08244 0.0
C201 C 0.96083 0.17191 0.14945 0.0
H202 H 0.91604 0.06858 0.07197 0.0
H203 H 0.08031 0.16895 0.08844 0.0
H204 H 0.87295 0.12307 0.11093 0.0
H205 H 0.87842 0.15583 0.08714 0.0
H206 H 0.85428 0.08616 0.0853 0.0
H207 H 0.11509 0.24469 0.11161 0.0
H208 H 0.08053 0.27873 0.10761 0.0
H209 H 0.07209 0.24392 0.13104 0.0
H210 H 0.96965 0.33439 0.11033 0.0
H211 H 0.9529 0.25208 0.16679 0.0
H212 H 0.95135 0.23354 0.07291 0.0
H213 H 0.01974 0.27613 0.07925 0.0
H214 H 0.97872 0.30368 0.07678 0.0
H215 H 0.93144 0.13353 0.1411 0.0
H216 H 0.95123 0.17221 0.16634 0.0
H217 H -0.00087 0.17478 0.14918 0.0
C218 C 0.96309 0.07183 0.42253 0.0
C219 C 0.94924 0.02945 0.40756 0.0
C220 C 0.92695 0.07109 0.43621 0.0
C221 C 0.87575 0.02673 0.43504 0.0
C222 C 0.86177 0.98327 0.42033 0.0
C223 C 0.89866 0.98522 0.4067 0.0
C224 C 0.94328 0.11832 0.4516 0.0
C225 C 0.80764 0.93509 0.41879 0.0
C226 C 0.79544 0.01067 0.48253 0.0
C227 C 0.76487 0.03096 0.47541 0.0
C228 C 0.83108 0.0082 0.46944 0.0
C229 C 0.8365 0.02675 0.44877 0.0
C230 C 0.80559 0.04701 0.44143 0.0
C231 C 0.77009 0.04875 0.45481 0.0
C232 C 0.86336 0.98633 0.47782 0.0
C233 C 0.81032 0.06725 0.41949 0.0
H234 H 0.00205 0.10622 0.42332 0.0
H235 H 0.88768 0.95224 0.39525 0.0
H236 H 0.91932 0.1359 0.44789 0.0
H237 H 0.93646 0.1061 0.46818 0.0
H238 H 0.985 0.14909 0.45094 0.0
H239 H 0.80364 0.90371 0.40718 0.0
H240 H 0.79768 0.91893 0.43466 0.0
H241 H 0.77879 0.94596 0.41379 0.0
H242 H 0.79208 0.99741 0.49851 0.0
H243 H 0.74599 0.06365 0.44905 0.0
H244 H 0.90527 0.0173 0.47875 0.0
H245 H 0.85809 0.95364 0.4667 0.0
H246 H 0.85295 0.97154 0.49391 0.0
H247 H 0.85063 0.10039 0.41804 0.0
H248 H 0.78292 0.08106 0.41608 0.0
H249 H 0.80257 0.03581 0.40711 0.0
C250 C 0.91852 0.78625 0.74938 0.0
C251 C 0.92888 0.83036 0.73839 0.0
C252 C 0.87231 0.75816 0.75974 0.0
C253 C 0.83612 0.7752 0.75942 0.0
C254 C 0.84516 0.81808 0.74749 0.0
C255 C 0.89125 0.84487 0.73695 0.0
C256 C 0.86347 0.71187 0.77192 0.0
C257 C 0.80781 0.83782 0.74694 0.0
C258 C 0.70128 0.68666 0.77872 0.0
C259 C 0.70869 0.70576 0.80014 0.0
C260 C 0.74241 0.7088 0.76518 0.0
C261 C 0.79159 0.75155 0.77324 0.0
C262 C 0.79875 0.7717 0.79476 0.0
C263 C 0.7573 0.74821 0.808 0.0
C264 C 0.73361 0.68577 0.74245 0.0
C265 C 0.85032 0.81788 0.80385 0.0
H266 H 0.94722 0.77454 0.75039 0.0
H267 H 0.89896 0.87897 0.72853 0.0
H268 H 0.86696 0.72234 0.78932 0.0
H269 H 0.82357 0.67771 0.7679 0.0
H270 H 0.892 0.69979 0.7685 0.0
H271 H 0.81794 0.86826 0.73533 0.0
H272 H 0.7674 0.80485 0.74274 0.0
H273 H 0.80842 0.85512 0.76304 0.0
H274 H 0.66371 0.65347 0.77275 0.0
H275 H 0.76278 0.76313 0.82455 0.0
H276 H 0.75993 0.67052 0.7398 0.0
H277 H 0.74319 0.71672 0.73117 0.0
H278 H 0.69277 0.6532 0.73854 0.0
H279 H 0.88092 0.8076 0.80328 0.0
H280 H 0.84878 0.83003 0.82065 0.0
H281 H 0.86226 0.85202 0.79408 0.0
C282 C 0.08575 0.88464 0.06933 0.0
C283 C 0.08949 0.9328 0.0748 0.0
C284 C 0.07348 0.84718 0.08437 0.0
C285 C 0.06572 0.85849 0.10555 0.0
C286 C 0.07148 0.90785 0.11143 0.0
C287 C 0.08279 0.94427 0.09591 0.0
C288 C 0.06703 0.79472 0.07739 0.0
C289 C 0.06467 0.92173 0.13399 0.0
C290 C 0.98144 0.73966 0.13645 0.0
C291 C 0.01891 0.73314 0.1476 0.0
C292 C 0.99617 0.78108 0.12312 0.0
C293 C 0.04969 0.8176 0.1212 0.0
C294 C 0.08772 0.81272 0.13311 0.0
C295 C 0.07193 0.77028 0.14596 0.0
C296 C 0.95441 0.78467 0.11051 0.0
C297 C 0.14517 0.85134 0.13174 0.0
H298 H 0.09054 0.87528 0.05302 0.0
H299 H 0.08586 0.9815 0.10028 0.0
H300 H 0.09339 0.7874 0.08751 0.0
H301 H 0.02656 0.76262 0.07945 0.0
H302 H 0.07536 0.7925 0.06043 0.0
H303 H 0.07425 0.96312 0.13635 0.0
H304 H 0.0238 0.8953 0.1379 0.0
H305 H 0.08987 0.91577 0.14546 0.0
H306 H 0.94043 0.71198 0.13793 0.0
H307 H 0.10136 0.76541 0.1542 0.0
H308 H 0.95793 0.77967 0.09317 0.0
H309 H 0.95947 0.8241 0.11369 0.0
H310 H 0.91455 0.75432 0.11438 0.0
H311 H 0.15669 0.84685 0.11558 0.0
H312 H 0.16953 0.84542 0.14371 0.0
H313 H 0.15378 0.89234 0.1342 0.0
C314 C 0.28819 0.14755 0.4085 0.0
C315 C 0.23538 0.12918 0.41092 0.0
C316 C 0.31872 0.14156 0.42425 0.0
C317 C 0.296 0.11683 0.44293 0.0
C318 C 0.2437 0.10122 0.44611 0.0
C319 C 0.21394 0.10752 0.43004 0.0
C320 C 0.37446 0.15899 0.4203 0.0
C321 C 0.21832 0.07524 0.46594 0.0
C322 C 0.35516 0.0437 0.46773 0.0
C323 C 0.38906 0.08022 0.48417 0.0
C324 C 0.32351 0.05457 0.45462 0.0
C325 C 0.3257 0.10311 0.45808 0.0
C326 C 0.35852 0.13941 0.4751 0.0
C327 C 0.38996 0.12759 0.48792 0.0
C328 C 0.28914 0.01488 0.43658 0.0
C329 C 0.36149 0.19129 0.47939 0.0
H330 H 0.30528 0.16468 0.39387 0.0
H331 H 0.17326 0.09344 0.43212 0.0
H332 H 0.4009 0.18389 0.43425 0.0
H333 H 0.37842 0.12397 0.4182 0.0
H334 H 0.38753 0.18148 0.40586 0.0
H335 H 0.17973 0.07141 0.46721 0.0
H336 H 0.21284 0.03533 0.46565 0.0
H337 H 0.24364 0.09797 0.48046 0.0
H338 H 0.35473 0.00732 0.46461 0.0
H339 H 0.41563 0.15564 0.50079 0.0
H340 H 0.30208 0.03205 0.42105 0.0
H341 H 0.24829 0.00496 0.43757 0.0
H342 H 0.28998 0.97795 0.43672 0.0
H343 H 0.37842 0.21616 0.46583 0.0
H344 H 0.38573 0.21327 0.49426 0.0
H345 H 0.32188 0.18477 0.4807 0.0
C346 C 0.16505 0.0824 0.77643 0.0
C347 C 0.1474 0.08039 0.75522 0.0
C348 C 0.19397 0.13045 0.78871 0.0
C349 C 0.2063 0.17773 0.77945 0.0
C350 C 0.18763 0.17593 0.7582 0.0
C351 C 0.15798 0.12715 0.74637 0.0
C352 C 0.21246 0.1307 0.81144 0.0
C353 C 0.20062 0.22563 0.7477 0.0
C354 C 0.25525 0.30121 0.81637 0.0
C355 C 0.30929 0.32411 0.81605 0.0
C356 C 0.22103 0.2536 0.80441 0.0
C357 C 0.24155 0.22913 0.79159 0.0
C358 C 0.29615 0.25287 0.79089 0.0
C359 C 0.32935 0.29988 0.80327 0.0
C360 C 0.16306 0.22895 0.80581 0.0
C361 C 0.31953 0.22843 0.77716 0.0
H362 H 0.15651 0.04632 0.78343 0.0
H363 H 0.1445 0.12583 0.72997 0.0
H364 H 0.25557 0.15085 0.81287 0.0
H365 H 0.20134 0.15297 0.82243 0.0
H366 H 0.19612 0.09032 0.81678 0.0
H367 H 0.18073 0.2173 0.73149 0.0
H368 H 0.1894 0.24949 0.75764 0.0
H369 H 0.2433 0.24992 0.74634 0.0
H370 H 0.23986 0.31998 0.82634 0.0
H371 H 0.3712 0.31807 0.80283 0.0
H372 H 0.1466 0.1898 0.81235 0.0
H373 H 0.14365 0.22257 0.78966 0.0
H374 H 0.15339 0.25361 0.81613 0.0
H375 H 0.30878 0.18931 0.78263 0.0
H376 H 0.36268 0.25321 0.77764 0.0
H377 H 0.30368 0.22214 0.76034 0.0
C378 C 0.97122 0.07301 0.66829 0.0
C379 C 0.97369 0.02713 0.66802 0.0
C380 C 0.93496 0.07617 0.6546 0.0
C381 C 0.9003 0.03233 0.64042 0.0
C382 C 0.90353 0.98647 0.63969 0.0
C383 C 0.94022 0.98447 0.65346 0.0
C384 C 0.93286 0.12588 0.65569 0.0
C385 C 0.86721 0.93887 0.6248 0.0
C386 C 0.76977 0.01377 0.62189 0.0
C387 C 0.77828 0.02976 0.60101 0.0
C388 C 0.80944 0.01523 0.63498 0.0
C389 C 0.8589 0.03322 0.62702 0.0
C390 C 0.868 0.05004 0.60605 0.0
C391 C 0.82754 0.04805 0.59328 0.0
C392 C 0.79824 0.997 0.65727 0.0
C393 C 0.92021 0.06936 0.59701 0.0
H394 H 0.99705 0.10622 0.67942 0.0
H395 H 0.94186 0.94886 0.65307 0.0
H396 H 0.93591 0.14061 0.63956 0.0
H397 H 0.89485 0.11735 0.66128 0.0
H398 H 0.96448 0.15751 0.66666 0.0
H399 H 0.87634 0.90717 0.62551 0.0
H400 H 0.82644 0.92284 0.62902 0.0
H401 H 0.86939 0.95019 0.60811 0.0
H402 H 0.73208 0.00047 0.62808 0.0
H403 H 0.83422 0.06001 0.57709 0.0
H404 H 0.82629 0.0288 0.66915 0.0
H405 H 0.80332 0.96286 0.65892 0.0
H406 H 0.7581 0.98529 0.66121 0.0
H407 H 0.95151 0.10213 0.60765 0.0
H408 H 0.92166 0.08321 0.58077 0.0
H409 H 0.92878 0.03723 0.59617 0.0
C410 C 0.91728 0.94234 0.99522 0.0
C411 C 0.96612 0.96682 0.98674 0.0
C412 C 0.87165 0.91208 0.98185 0.0
C413 C 0.87522 0.90781 0.9595 0.0
C414 C 0.92425 0.9363 0.95079 0.0
C415 C 0.96931 0.96472 0.96457 0.0
C416 C 0.82024 0.88132 0.9918 0.0
C417 C 0.92946 0.93427 0.92701 0.0
C418 C 0.77682 0.77795 0.92993 0.0
C419 C 0.73917 0.78832 0.92168 0.0
C420 C 0.82109 0.81657 0.94223 0.0
C421 C 0.82919 0.86768 0.94573 0.0
C422 C 0.793 0.87949 0.93652 0.0
C423 C 0.74796 0.83943 0.92482 0.0
C424 C 0.85855 0.80216 0.95191 0.0
C425 C 0.80135 0.93407 0.93937 0.0
H426 H 0.91496 0.94395 0.01239 0.0
H427 H 0.00719 0.98437 0.95804 0.0
H428 H 0.79024 0.8868 0.98356 0.0
H429 H 0.80647 0.8387 0.98996 0.0
H430 H 0.82334 0.89304 0.00908 0.0
H431 H 0.96844 0.96555 0.92265 0.0
H432 H 0.92374 0.89553 0.92154 0.0
H433 H 0.89919 0.93854 0.91827 0.0
H434 H 0.77139 0.73917 0.92701 0.0
H435 H 0.71911 0.84789 0.91861 0.0
H436 H 0.86265 0.8099 0.96954 0.0
H437 H 0.89767 0.82686 0.94593 0.0
H438 H 0.84561 0.76013 0.94816 0.0
H439 H 0.79799 0.94313 0.95634 0.0
H440 H 0.77258 0.93821 0.92934 0.0
H441 H 0.84115 0.96382 0.93526 0.0
C442 C 0.01189 0.92394 0.32898 0.0
C443 C 0.06478 0.96172 0.32776 0.0
C444 C 0.98918 0.87442 0.31764 0.0
C445 C 0.02039 0.86234 0.30513 0.0
C446 C 0.07381 0.90028 0.30395 0.0
C447 C 0.09522 0.94956 0.31514 0.0
C448 C 0.93191 0.83515 0.31898 0.0
C449 C 0.1086 0.88865 0.29102 0.0
C450 C 0.98789 0.72309 0.29129 0.0
C451 C 0.97391 0.71688 0.26932 0.0
C452 C 0.0004 0.76924 0.30347 0.0
C453 C -0.00189 0.80984 0.2935 0.0
C454 C 0.98041 0.80229 0.27169 0.0
C455 C 0.96882 0.75599 0.25981 0.0
C456 C 0.01929 0.77584 0.32667 0.0
C457 C 0.97676 0.84443 0.26058 0.0
H458 H 0.9881 0.93325 0.3386 0.0
H459 H 0.13619 0.97843 0.31421 0.0
H460 H 0.91183 0.82346 0.30275 0.0
H461 H 0.92655 0.79894 0.32574 0.0
H462 H 0.9128 0.85107 0.32904 0.0
H463 H 0.14943 0.92237 0.2919 0.0
H464 H 0.10864 0.85394 0.29683 0.0
H465 H 0.0935 0.87882 0.27402 0.0
H466 H 0.99068 0.69246 0.29886 0.0
H467 H 0.95828 0.75169 0.24284 0.0
H468 H -0.00146 0.78956 0.3368 0.0
H469 H 0.06137 0.8063 0.32871 0.0
H470 H 0.01378 0.7387 0.33254 0.0
H471 H 0.957 0.85995 0.2704 0.0
H472 H 0.95534 0.82961 0.24462 0.0
H473 H 0.01654 0.87781 0.25847 0.0
C474 C 0.15386 0.94831 0.65108 0.0
C475 C 0.15551 0.92731 0.67049 0.0
C476 C 0.18927 0.95579 0.63567 0.0
C477 C 0.2272 0.94196 0.63977 0.0
C478 C 0.22745 0.9184 0.65884 0.0
C479 C 0.19158 0.91131 0.67396 0.0
C480 C 0.18759 0.9807 0.61545 0.0
C481 C 0.26714 0.90285 0.66374 0.0
C482 C 0.30404 0.93103 0.59526 0.0
C483 C 0.35135 0.97929 0.59856 0.0
C484 C 0.26275 0.9187 0.60823 0.0
C485 C 0.269 0.95548 0.62491 0.0
C486 C 0.31621 0.00474 0.628 0.0
C487 C 0.35678 0.01605 0.61478 0.0
C488 C 0.21286 0.86595 0.60437 0.0
C489 C 0.32439 0.04501 0.64564 0.0
H490 H 0.12605 0.96063 0.6482 0.0
H491 H 0.19306 0.89483 0.68884 0.0
H492 H 0.22295 0.02049 0.6155 0.0
H493 H 0.18756 0.95713 0.60126 0.0
H494 H 0.15276 0.98454 0.61375 0.0
H495 H 0.25974 0.88156 0.67852 0.0
H496 H 0.26705 0.87741 0.65027 0.0
H497 H 0.30668 0.9386 0.66574 0.0
H498 H 0.29938 0.90276 0.58255 0.0
H499 H 0.39342 0.05313 0.61758 0.0
H500 H 0.17916 0.87144 0.60223 0.0
H501 H 0.20664 0.8427 0.61848 0.0
H502 H 0.21326 0.84284 0.59007 0.0
H503 H 0.29304 0.05422 0.64423 0.0
H504 H 0.36258 0.08221 0.64537 0.0
H505 H 0.32236 0.02873 0.66137 0.0
C506 C 0.25734 0.17381 0.99843 0.0
C507 C 0.21689 0.16908 0.01043 0.0
C508 C 0.28686 0.21839 0.98713 0.0
C509 C 0.2755 0.25908 0.98778 0.0
C510 C 0.23717 0.25622 0.00101 0.0
C511 C 0.20841 0.21129 0.01226 0.0
C512 C 0.32805 0.22042 0.97345 0.0
C513 C 0.22414 0.29898 0.0022 0.0
C514 C 0.37278 0.38734 0.96517 0.0
C515 C 0.3514 0.37994 0.94412 0.0
C516 C 0.34799 0.34888 0.97976 0.0
C517 C 0.30051 0.3021 0.97318 0.0
C518 C 0.2778 0.29518 0.9522 0.0
C519 C 0.30359 0.33415 0.93791 0.0
C520 C 0.3733 0.35766 0.00199 0.0
C521 C 0.22699 0.24585 0.94464 0.0
H522 H 0.26448 0.1416 0.99708 0.0
H523 H 0.17732 0.20808 0.02153 0.0
H524 H 0.31526 0.21681 0.95633 0.0
H525 H 0.36505 0.25877 0.97654 0.0
H526 H 0.33572 0.18833 0.97636 0.0
H527 H 0.19799 0.29394 0.0151 0.0
H528 H 0.26012 0.33831 0.00493 0.0
H529 H 0.20451 0.29831 0.98676 0.0
H530 H 0.40931 0.42309 0.97018 0.0
H531 H 0.28712 0.32793 0.92163 0.0
H532 H 0.38441 0.32785 0.00437 0.0
H533 H 0.34542 0.35262 0.01409 0.0
H534 H 0.40871 0.39747 0.00497 0.0
H535 H 0.23183 0.21129 0.94477 0.0
H536 H 0.21319 0.24779 0.92824 0.0
H537 H 0.19645 0.23917 0.95564 0.0
C538 C 0.13228 0.2546 0.3233 0.0
C539 C 0.09777 0.21032 0.33382 0.0
C540 C 0.1142 0.28155 0.31137 0.0
C541 C 0.06021 0.26299 0.30954 0.0
C542 C 0.0254 0.21929 0.32065 0.0
C543 C 0.04471 0.19381 0.33285 0.0
C544 C 0.15265 0.32884 0.30016 0.0
C545 C 0.96748 0.19786 0.31881 0.0
C546 C 0.01545 0.35241 0.28881 0.0
C547 C 0.00486 0.33601 0.26702 0.0
C548 C 0.03342 0.32894 0.30291 0.0
C549 C 0.03988 0.28747 0.29502 0.0
C550 C 0.02787 0.26988 0.27308 0.0
C551 C 0.01106 0.29485 0.25928 0.0
C552 C 0.0468 0.34939 0.3261 0.0
C553 C 0.03323 0.22503 0.26416 0.0
H554 H 0.17337 0.26769 0.32412 0.0
H555 H 0.01777 0.15936 0.34082 0.0
H556 H 0.14556 0.31962 0.28262 0.0
H557 H 0.14737 0.36257 0.30391 0.0
H558 H 0.19364 0.34105 0.30475 0.0
H559 H 0.94605 0.16544 0.32939 0.0
H560 H 0.95943 0.22956 0.32286 0.0
H561 H 0.95194 0.18274 0.30206 0.0
H562 H 0.01118 0.38473 0.29469 0.0
H563 H 0.00264 0.28219 0.2424 0.0
H564 H 0.08869 0.3648 0.33025 0.0
H565 H 0.02429 0.31699 0.33651 0.0
H566 H 0.03868 0.38129 0.32975 0.0
H567 H 0.07455 0.23593 0.26604 0.0
H568 H 0.01979 0.21444 0.24697 0.0
H569 H 0.01034 0.18974 0.27317 0.0
loop_
_geom_bond_atom_site_label_1
_geom_bond_atom_site_label_2
_geom_bond_distance
_geom_bond_site_symmetry_2
_ccdc_geom_bond_type
Zn0 O3 2.031 . S
Zn0 O5 2.056 1_565 S
Zn0 O10 2.067 . S
Zn1 O2 1.962 . S
Zn1 O4 1.986 . S
Zn1 O6 1.996 . S
Zn1 O9 1.943 . S
O2 Zn1 1.962 . S
O2 C7 1.254 1_545 S
O3 Zn0 2.031 . S
O3 C7 1.269 . S
O4 Zn1 1.986 . S
O4 C11 1.262 . S
O5 Zn0 2.056 1_545 S
O5 C13 1.266 . S
O6 Zn1 1.996 . S
O6 C13 1.257 . S
C7 O2 1.254 1_565 S
C7 O3 1.269 . S
C8 O9 1.249 1_565 S
C8 O10 1.270 . S
O9 Zn1 1.943 . S
O9 C8 1.249 1_545 S
O10 Zn0 2.067 . S
O10 C8 1.270 . S
C11 O4 1.262 . S
C11 O12 1.232 . S
O12 C11 1.232 . S
C13 O5 1.266 . S
C13 O6 1.257 . S
Zn14 O17 2.031 . S
Zn14 O19 2.049 . S
Zn14 O24 2.067 . S
Zn15 O16 1.962 . S
Zn15 O18 1.986 1_455 S
Zn15 O20 1.996 . S
Zn15 O23 1.943 1_455 S
O16 Zn15 1.962 . S
O16 C21 1.254 . S
O17 Zn14 2.031 . S
O17 C21 1.269 . S
O18 Zn15 1.986 1_655 S
O18 C25 1.262 . S
O19 Zn14 2.049 . S
O19 C27 1.260 . S
O20 Zn15 1.996 . S
O20 C27 1.257 . S
C21 O16 1.254 . S
C21 O17 1.269 . S
C22 O23 1.249 1_465 S
C22 O24 1.270 1_565 S
O23 Zn15 1.943 1_655 S
O23 C22 1.249 1_645 S
O24 Zn14 2.067 . S
O24 C22 1.270 1_545 S
C25 O18 1.262 . S
C25 O26 1.232 . S
O26 C25 1.232 . S
C27 O19 1.260 . S
C27 O20 1.257 . S
Zn28 O31 2.031 1_565 S
Zn28 O33 2.049 . S
Zn28 O38 2.067 1_565 S
Zn29 O30 1.962 1_545 S
Zn29 O32 1.986 1_445 S
Zn29 O34 1.996 1_445 S
Zn29 O37 1.943 . S
O30 Zn29 1.962 1_565 S
O30 C35 1.254 . S
O31 Zn28 2.031 1_545 S
O31 C35 1.269 1_545 S
O32 Zn29 1.986 1_665 S
O32 C39 1.262 1_565 S
O33 Zn28 2.049 . S
O33 C41 1.260 1_455 S
O34 Zn29 1.996 1_665 S
O34 C41 1.257 . S
C35 O30 1.254 . S
C35 O31 1.269 1_565 S
C36 O37 1.249 . S
C36 O38 1.270 . S
O37 Zn29 1.943 . S
O37 C36 1.249 . S
O38 Zn28 2.067 1_545 S
O38 C36 1.270 . S
C39 O32 1.262 1_545 S
C39 O40 1.232 1_655 S
O40 C39 1.232 1_455 S
C41 O33 1.260 1_655 S
C41 O34 1.257 . S
H42 C61 0.949 . S
H43 C62 0.950 . S
H44 C64 0.950 1_655 S
H45 C65 0.950 1_655 S
H46 C67 0.950 . S
H47 C70 0.950 . S
H48 C71 0.950 . S
H49 C73 0.951 . S
H50 C74 0.949 . S
H51 C76 0.949 . S
H52 C77 0.950 . S
H53 C79 0.950 . S
H54 C80 0.950 . S
H55 C82 0.950 . S
H56 C85 0.950 1_655 S
H57 C86 0.950 1_655 S
H58 C88 0.951 . S
H59 C89 0.949 . S
C60 C61 1.376 . S
C60 C65 1.386 . S
C60 C66 1.483 . S
C61 H42 0.949 . S
C61 C60 1.376 . S
C61 C62 1.397 . S
C62 H43 0.950 . S
C62 C61 1.397 . S
C62 C63 1.391 . S
C63 C62 1.391 . S
C63 C64 1.405 . S
C64 H44 0.950 1_455 S
C64 C63 1.405 . S
C64 C65 1.367 . S
C65 H45 0.950 1_455 S
C65 C60 1.386 . S
C65 C64 1.367 . S
C66 C60 1.483 . S
C66 C67 1.382 . S
C66 C68 1.403 . S
C67 H46 0.950 . S
C67 C66 1.382 . S
C67 C83 1.411 . S
C68 C66 1.403 . S
C68 C69 1.489 . S
C68 C82 1.411 . S
C69 C68 1.489 . S
C69 C70 1.383 . S
C69 C74 1.382 1_455 S
C70 H47 0.950 . S
C70 C69 1.383 . S
C70 C71 1.395 . S
C71 H48 0.950 . S
C71 C70 1.395 . S
C71 C72 1.288 . S
C72 C71 1.288 . S
C72 C73 1.392 1_455 S
C73 H49 0.951 . S
C73 C72 1.392 1_655 S
C73 C74 1.392 . S
C74 H50 0.949 . S
C74 C69 1.382 1_655 S
C74 C73 1.392 . S
C75 C76 1.376 1_455 S
C75 C80 1.386 . S
C75 C81 1.483 . S
C76 H51 0.949 . S
C76 C75 1.376 1_655 S
C76 C77 1.397 . S
C77 H52 0.950 . S
C77 C76 1.397 . S
C77 C78 1.391 1_655 S
C78 C77 1.391 1_455 S
C78 C79 1.405 . S
C79 H53 0.950 . S
C79 C78 1.405 . S
C79 C80 1.367 . S
C80 H54 0.950 . S
C80 C75 1.386 . S
C80 C79 1.367 . S
C81 C75 1.483 . S
C81 C82 1.382 . S
C81 C83 1.403 . S
C82 H55 0.950 . S
C82 C68 1.411 . S
C82 C81 1.382 . S
C83 C67 1.411 . S
C83 C81 1.403 . S
C83 C84 1.489 . S
C84 C83 1.489 . S
C84 C85 1.383 . S
C84 C89 1.382 . S
C85 H56 0.950 1_455 S
C85 C84 1.383 . S
C85 C86 1.395 . S
C86 H57 0.950 1_455 S
C86 C85 1.395 . S
C86 C87 1.288 . S
C87 C86 1.288 . S
C87 C88 1.392 . S
C88 H58 0.951 . S
C88 C87 1.392 . S
C88 C89 1.392 . S
C89 H59 0.949 . S
C89 C84 1.382 . S
C89 C88 1.392 . S
H90 C109 0.949 . S
H91 C110 0.950 . S
H92 C112 0.950 . S
H93 C113 0.950 . S
H94 C115 0.950 . S
H95 C118 0.950 . S
H96 C119 0.950 . S
H97 C121 0.951 . S
H98 C122 0.949 . S
H99 C124 0.949 . S
H100 C125 0.950 . S
H101 C127 0.950 . S
H102 C128 0.950 . S
H103 C130 0.950 . S
H104 C133 0.950 1_565 S
H105 C134 0.950 1_565 S
H106 C136 0.951 . S
H107 C137 0.949 . S
C108 C109 1.376 . S
C108 C113 1.386 1_545 S
C108 C114 1.483 . S
C109 H90 0.949 . S
C109 C108 1.376 . S
C109 C110 1.397 . S
C110 H91 0.950 . S
C110 C109 1.397 . S
C110 C111 1.391 . S
C111 C110 1.391 . S
C111 C112 1.405 1_545 S
C112 H92 0.950 . S
C112 C111 1.405 1_565 S
C112 C113 1.367 . S
C113 H93 0.950 . S
C113 C108 1.386 1_565 S
C113 C112 1.367 . S
C114 C108 1.483 . S
C114 C115 1.382 . S
C114 C116 1.403 . S
C115 H94 0.950 . S
C115 C114 1.382 . S
C115 C131 1.411 . S
C116 C114 1.403 . S
C116 C117 1.489 . S
C116 C130 1.411 . S
C117 C116 1.489 . S
C117 C118 1.383 . S
C117 C122 1.382 1_545 S
C118 H95 0.950 . S
C118 C117 1.383 . S
C118 C119 1.395 . S
C119 H96 0.950 . S
C119 C118 1.395 . S
C119 C120 1.288 . S
C120 C119 1.288 . S
C120 C121 1.392 1_545 S
C121 H97 0.951 . S
C121 C120 1.392 1_565 S
C121 C122 1.392 . S
C122 H98 0.949 . S
C122 C117 1.382 1_565 S
C122 C121 1.392 . S
C123 C124 1.376 1_545 S
C123 C128 1.386 . S
C123 C129 1.483 . S
C124 H99 0.949 . S
C124 C123 1.376 1_565 S
C124 C125 1.397 . S
C125 H100 0.950 . S
C125 C124 1.397 . S
C125 C126 1.391 1_565 S
C126 C125 1.391 1_545 S
C126 C127 1.405 . S
C127 H101 0.950 . S
C127 C126 1.405 . S
C127 C128 1.367 . S
C128 H102 0.950 . S
C128 C123 1.386 . S
C128 C127 1.367 . S
C129 C123 1.483 . S
C129 C130 1.382 . S
C129 C131 1.403 . S
C130 H103 0.950 . S
C130 C116 1.411 . S
C130 C129 1.382 . S
C131 C115 1.411 . S
C131 C129 1.403 . S
C131 C132 1.489 . S
C132 C131 1.489 . S
C132 C133 1.383 . S
C132 C137 1.382 . S
C133 H104 0.950 1_545 S
C133 C132 1.383 . S
C133 C134 1.395 . S
C134 H105 0.950 1_545 S
C134 C133 1.395 . S
C134 C135 1.288 . S
C135 C134 1.288 . S
C135 C136 1.392 . S
C136 H106 0.951 . S
C136 C135 1.392 . S
C136 C137 1.392 . S
C137 H107 0.949 . S
C137 C132 1.382 . S
C137 C136 1.392 . S
H138 C157 0.949 . S
H139 C158 0.950 . S
H140 C160 0.950 . S
H141 C161 0.950 . S
H142 C163 0.950 . S
H143 C166 0.950 . S
H144 C167 0.950 . S
H145 C169 0.951 . S
H146 C170 0.949 . S
H147 C172 0.949 . S
H148 C173 0.950 . S
H149 C175 0.950 . S
H150 C176 0.950 . S
H151 C178 0.950 . S
H152 C181 0.950 . S
H153 C182 0.950 . S
H154 C184 0.951 . S
H155 C185 0.949 . S
C156 C157 1.376 . S
C156 C161 1.386 . S
C156 C162 1.483 . S
C157 H138 0.949 . S
C157 C156 1.376 . S
C157 C158 1.397 . S
C158 H139 0.950 . S
C158 C157 1.397 . S
C158 C159 1.391 . S
C159 C158 1.391 . S
C159 C160 1.405 . S
C160 H140 0.950 . S
C160 C159 1.405 . S
C160 C161 1.367 . S
C161 H141 0.950 . S
C161 C156 1.386 . S
C161 C160 1.367 . S
C162 C156 1.483 . S
C162 C163 1.382 . S
C162 C164 1.403 . S
C163 H142 0.950 . S
C163 C162 1.382 . S
C163 C179 1.411 . S
C164 C162 1.403 . S
C164 C165 1.489 . S
C164 C178 1.411 . S
C165 C164 1.489 . S
C165 C166 1.383 . S
C165 C170 1.382 . S
C166 H143 0.950 . S
C166 C165 1.383 . S
C166 C167 1.395 . S
C167 H144 0.950 . S
C167 C166 1.395 . S
C167 C168 1.288 . S
C168 C167 1.288 . S
C168 C169 1.392 . S
C169 H145 0.951 . S
C169 C168 1.392 . S
C169 C170 1.392 . S
C170 H146 0.949 . S
C170 C165 1.382 . S
C170 C169 1.392 . S
C171 C172 1.376 . S
C171 C176 1.386 . S
C171 C177 1.483 . S
C172 H147 0.949 . S
C172 C171 1.376 . S
C172 C173 1.397 . S
C173 H148 0.950 . S
C173 C172 1.397 . S
C173 C174 1.391 . S
C174 C173 1.391 . S
C174 C175 1.405 . S
C175 H149 0.950 . S
C175 C174 1.405 . S
C175 C176 1.367 . S
C176 H150 0.950 . S
C176 C171 1.386 . S
C176 C175 1.367 . S
C177 C171 1.483 . S
C177 C178 1.382 . S
C177 C179 1.403 . S
C178 H151 0.950 . S
C178 C164 1.411 . S
C178 C177 1.382 . S
C179 C163 1.411 . S
C179 C177 1.403 . S
C179 C180 1.489 . S
C180 C179 1.489 . S
C180 C181 1.383 . S
C180 C185 1.382 . S
C181 H152 0.950 . S
C181 C180 1.383 . S
C181 C182 1.395 . S
C182 H153 0.950 . S
C182 C181 1.395 . S
C182 C183 1.288 . S
C183 C182 1.288 . S
C183 C184 1.392 . S
C184 H154 0.951 . S
C184 C183 1.392 . S
C184 C185 1.392 . S
C185 H155 0.949 . S
C185 C180 1.382 . S
C185 C184 1.392 . S
C186 C187 1.373 1_655 S
C186 C188 1.402 1_655 S
C186 H202 0.941 . S
C187 C186 1.373 1_455 S
C187 C191 1.376 . S
C188 C186 1.402 1_455 S
C188 C189 1.369 . S
C188 C192 1.531 1_455 S
C189 C188 1.369 . S
C189 C190 1.410 . S
C189 C197 1.503 . S
C190 C189 1.410 . S
C190 C191 1.392 . S
C190 C193 1.511 . S
C191 C187 1.376 . S
C191 C190 1.392 . S
C191 H203 0.929 . S
C192 C188 1.531 1_655 S
C192 H204 0.960 . S
C192 H205 0.962 . S
C192 H206 0.960 . S
C193 C190 1.511 . S
C193 H207 0.961 . S
C193 H208 0.961 . S
C193 H209 0.961 . S
C194 C195 1.370 . S
C194 C196 1.363 . S
C194 H210 0.931 . S
C195 C194 1.370 . S
C195 C199 1.408 . S
C196 C194 1.363 . S
C196 C197 1.370 . S
C196 C200 1.524 . S
C197 C189 1.503 . S
C197 C196 1.370 . S
C197 C198 1.403 . S
C198 C197 1.403 . S
C198 C199 1.404 . S
C198 C201 1.539 . S
C199 C195 1.408 . S
C199 C198 1.404 . S
C199 H211 0.930 . S
C200 C196 1.524 . S
C200 H212 0.956 1_455 S
C200 H213 0.961 . S
C200 H214 0.961 . S
C201 C198 1.539 . S
C201 H215 0.958 . S
C201 H216 0.961 . S
C201 H217 0.960 . S
H202 C186 0.941 . S
H203 C191 0.929 . S
H204 C192 0.960 . S
H205 C192 0.962 . S
H206 C192 0.960 . S
H207 C193 0.961 . S
H208 C193 0.961 . S
H209 C193 0.961 . S
H210 C194 0.931 . S
H211 C199 0.930 . S
H212 C200 0.956 1_655 S
H213 C200 0.961 . S
H214 C200 0.961 . S
H215 C201 0.958 . S
H216 C201 0.961 . S
H217 C201 0.960 . S
C218 C219 1.391 . S
C218 C220 1.394 . S
C218 H234 0.931 . S
C219 C218 1.391 . S
C219 C223 1.376 1_545 S
C220 C218 1.394 . S
C220 C221 1.369 . S
C220 C224 1.531 . S
C221 C220 1.369 . S
C221 C222 1.410 1_545 S
C221 C229 1.503 . S
C222 C221 1.410 1_565 S
C222 C223 1.392 . S
C222 C225 1.511 . S
C223 C219 1.376 1_565 S
C223 C222 1.392 . S
C223 H235 0.929 . S
C224 C220 1.531 . S
C224 H236 0.960 . S
C224 H237 0.962 . S
C224 H238 0.960 . S
C225 C222 1.511 . S
C225 H239 0.961 . S
C225 H240 0.961 . S
C225 H241 0.961 . S
C226 C227 1.370 . S
C226 C228 1.363 . S
C226 H242 0.931 . S
C227 C226 1.370 . S
C227 C231 1.408 . S
C228 C226 1.363 . S
C228 C229 1.370 . S
C228 C232 1.524 . S
C229 C221 1.503 . S
C229 C228 1.370 . S
C229 C230 1.403 . S
C230 C229 1.403 . S
C230 C231 1.404 . S
C230 C233 1.539 . S
C231 C227 1.408 . S
C231 C230 1.404 . S
C231 H243 0.930 . S
C232 C228 1.524 . S
C232 H244 0.956 . S
C232 H245 0.961 . S
C232 H246 0.961 . S
C233 C230 1.539 . S
C233 H247 0.958 . S
C233 H248 0.961 1_545 S
C233 H249 0.960 1_545 S
H234 C218 0.931 . S
H235 C223 0.929 . S
H236 C224 0.960 . S
H237 C224 0.962 . S
H238 C224 0.960 . S
H239 C225 0.961 . S
H240 C225 0.961 . S
H241 C225 0.961 . S
H242 C226 0.931 . S
H243 C231 0.930 . S
H244 C232 0.956 . S
H245 C232 0.961 . S
H246 C232 0.961 . S
H247 C233 0.958 . S
H248 C233 0.961 1_565 S
H249 C233 0.960 1_565 S
C250 C251 1.391 . S
C250 C252 1.394 . S
C250 H266 0.931 . S
C251 C250 1.391 . S
C251 C255 1.376 . S
C252 C250 1.394 . S
C252 C253 1.369 . S
C252 C256 1.531 . S
C253 C252 1.369 . S
C253 C254 1.410 . S
C253 C261 1.503 . S
C254 C253 1.410 . S
C254 C255 1.392 . S
C254 C257 1.511 . S
C255 C251 1.376 . S
C255 C254 1.392 . S
C255 H267 0.929 . S
C256 C252 1.531 . S
C256 H268 0.960 . S
C256 H269 0.962 . S
C256 H270 0.960 . S
C257 C254 1.511 . S
C257 H271 0.961 . S
C257 H272 0.961 . S
C257 H273 0.961 . S
C258 C259 1.370 . S
C258 C260 1.363 . S
C258 H274 0.931 . S
C259 C258 1.370 . S
C259 C263 1.408 . S
C260 C258 1.363 . S
C260 C261 1.370 . S
C260 C264 1.524 . S
C261 C253 1.503 . S
C261 C260 1.370 . S
C261 C262 1.403 . S
C262 C261 1.403 . S
C262 C263 1.404 . S
C262 C265 1.539 . S
C263 C259 1.408 . S
C263 C262 1.404 . S
C263 H275 0.930 . S
C264 C260 1.524 . S
C264 H276 0.956 . S
C264 H277 0.961 . S
C264 H278 0.961 . S
C265 C262 1.539 . S
C265 H279 0.958 . S
C265 H280 0.961 . S
C265 H281 0.960 . S
H266 C250 0.931 . S
H267 C255 0.929 . S
H268 C256 0.960 . S
H269 C256 0.962 . S
H270 C256 0.960 . S
H271 C257 0.961 . S
H272 C257 0.961 . S
H273 C257 0.961 . S
H274 C258 0.931 . S
H275 C263 0.930 . S
H276 C264 0.956 . S
H277 C264 0.961 . S
H278 C264 0.961 . S
H279 C265 0.958 . S
H280 C265 0.961 . S
H281 C265 0.960 . S
C282 C283 1.391 . S
C282 C284 1.394 . S
C282 H298 0.931 . S
C283 C282 1.391 . S
C283 C287 1.376 . S
C284 C282 1.394 . S
C284 C285 1.369 . S
C284 C288 1.531 1_455 S
C285 C284 1.369 . S
C285 C286 1.410 . S
C285 C293 1.503 . S
C286 C285 1.410 . S
C286 C287 1.392 . S
C286 C289 1.511 . S
C287 C283 1.376 . S
C287 C286 1.392 . S
C287 H299 0.929 . S
C288 C284 1.531 1_655 S
C288 H300 0.960 . S
C288 H301 0.962 . S
C288 H302 0.960 . S
C289 C286 1.511 . S
C289 H303 0.961 . S
C289 H304 0.961 . S
C289 H305 0.961 . S
C290 C291 1.370 . S
C290 C292 1.363 . S
C290 H306 0.931 . S
C291 C290 1.370 . S
C291 C295 1.408 . S
C292 C290 1.363 . S
C292 C293 1.370 . S
C292 C296 1.524 . S
C293 C285 1.503 . S
C293 C292 1.370 . S
C293 C294 1.403 . S
C294 C293 1.403 . S
C294 C295 1.404 . S
C294 C297 1.539 . S
C295 C291 1.408 . S
C295 C294 1.404 . S
C295 H307 0.930 . S
C296 C292 1.524 . S
C296 H308 0.956 . S
C296 H309 0.961 . S
C296 H310 0.961 . S
C297 C294 1.539 . S
C297 H311 0.958 . S
C297 H312 0.961 . S
C297 H313 0.960 . S
H298 C282 0.931 . S
H299 C287 0.929 . S
H300 C288 0.960 . S
H301 C288 0.962 . S
H302 C288 0.960 . S
H303 C289 0.961 . S
H304 C289 0.961 . S
H305 C289 0.961 . S
H306 C290 0.931 . S
H307 C295 0.930 . S
H308 C296 0.956 . S
H309 C296 0.961 . S
H310 C296 0.961 . S
H311 C297 0.958 . S
H312 C297 0.961 . S
H313 C297 0.960 . S
C314 C315 1.391 . S
C314 C316 1.394 . S
C314 H330 0.931 . S
C315 C314 1.391 . S
C315 C319 1.376 . S
C316 C314 1.394 . S
C316 C317 1.369 . S
C316 C320 1.531 . S
C317 C316 1.369 . S
C317 C318 1.410 . S
C317 C325 1.503 . S
C318 C317 1.410 . S
C318 C319 1.392 . S
C318 C321 1.511 . S
C319 C315 1.376 . S
C319 C318 1.392 . S
C319 H331 0.929 . S
C320 C316 1.531 . S
C320 H332 0.960 . S
C320 H333 0.962 . S
C320 H334 0.960 . S
C321 C318 1.511 . S
C321 H335 0.961 1_545 S
C321 H336 0.961 1_545 S
C321 H337 0.961 . S
C322 C323 1.370 . S
C322 C324 1.363 . S
C322 H338 0.931 1_545 S
C323 C322 1.370 . S
C323 C327 1.408 . S
C324 C322 1.363 . S
C324 C325 1.370 . S
C324 C328 1.524 1_545 S
C325 C317 1.503 . S
C325 C324 1.370 . S
C325 C326 1.403 . S
C326 C325 1.403 . S
C326 C327 1.404 . S
C326 C329 1.539 . S
C327 C323 1.408 . S
C327 C326 1.404 . S
C327 H339 0.930 . S
C328 C324 1.524 1_565 S
C328 H340 0.956 1_565 S
C328 H341 0.961 . S
C328 H342 0.961 . S
C329 C326 1.539 . S
C329 H343 0.958 . S
C329 H344 0.961 . S
C329 H345 0.960 . S
H330 C314 0.931 . S
H331 C319 0.929 . S
H332 C320 0.960 . S
H333 C320 0.962 . S
H334 C320 0.960 . S
H335 C321 0.961 1_565 S
H336 C321 0.961 1_565 S
H337 C321 0.961 . S
H338 C322 0.931 1_565 S
H339 C327 0.930 . S
H340 C328 0.956 1_545 S
H341 C328 0.961 . S
H342 C328 0.961 . S
H343 C329 0.958 . S
H344 C329 0.961 . S
H345 C329 0.960 . S
C346 C347 1.391 . S
C346 C348 1.394 . S
C346 H362 0.931 . S
C347 C346 1.391 . S
C347 C351 1.376 . S
C348 C346 1.394 . S
C348 C349 1.369 . S
C348 C352 1.531 . S
C349 C348 1.369 . S
C349 C350 1.410 . S
C349 C357 1.503 . S
C350 C349 1.410 . S
C350 C351 1.392 . S
C350 C353 1.511 . S
C351 C347 1.376 . S
C351 C350 1.392 . S
C351 H363 0.929 . S
C352 C348 1.531 . S
C352 H364 0.960 . S
C352 H365 0.962 . S
C352 H366 0.960 . S
C353 C350 1.511 . S
C353 H367 0.961 . S
C353 H368 0.961 . S
C353 H369 0.961 . S
C354 C355 1.370 . S
C354 C356 1.363 . S
C354 H370 0.931 . S
C355 C354 1.370 . S
C355 C359 1.408 . S
C356 C354 1.363 . S
C356 C357 1.370 . S
C356 C360 1.524 . S
C357 C349 1.503 . S
C357 C356 1.370 . S
C357 C358 1.403 . S
C358 C357 1.403 . S
C358 C359 1.404 . S
C358 C361 1.539 . S
C359 C355 1.408 . S
C359 C358 1.404 . S
C359 H371 0.930 . S
C360 C356 1.524 . S
C360 H372 0.956 . S
C360 H373 0.961 . S
C360 H374 0.961 . S
C361 C358 1.539 . S
C361 H375 0.958 . S
C361 H376 0.961 . S
C361 H377 0.960 . S
H362 C346 0.931 . S
H363 C351 0.929 . S
H364 C352 0.960 . S
H365 C352 0.962 . S
H366 C352 0.960 . S
H367 C353 0.961 . S
H368 C353 0.961 . S
H369 C353 0.961 . S
H370 C354 0.931 . S
H371 C359 0.930 . S
H372 C360 0.956 . S
H373 C360 0.961 . S
H374 C360 0.961 . S
H375 C361 0.958 . S
H376 C361 0.961 . S
H377 C361 0.960 . S
C378 C379 1.391 . S
C378 C380 1.394 . S
C378 H394 0.931 . S
C379 C378 1.391 . S
C379 C383 1.376 1_545 S
C380 C378 1.394 . S
C380 C381 1.369 . S
C380 C384 1.531 . S
C381 C380 1.369 . S
C381 C382 1.410 1_545 S
C381 C389 1.503 . S
C382 C381 1.410 1_565 S
C382 C383 1.392 . S
C382 C385 1.511 . S
C383 C379 1.376 1_565 S
C383 C382 1.392 . S
C383 H395 0.929 . S
C384 C380 1.531 . S
C384 H396 0.960 . S
C384 H397 0.962 . S
C384 H398 0.960 . S
C385 C382 1.511 . S
C385 H399 0.961 . S
C385 H400 0.961 . S
C385 H401 0.961 . S
C386 C387 1.370 . S
C386 C388 1.363 . S
C386 H402 0.931 . S
C387 C386 1.370 . S
C387 C391 1.408 . S
C388 C386 1.363 . S
C388 C389 1.370 . S
C388 C392 1.524 . S
C389 C381 1.503 . S
C389 C388 1.370 . S
C389 C390 1.403 . S
C390 C389 1.403 . S
C390 C391 1.404 . S
C390 C393 1.539 . S
C391 C387 1.408 . S
C391 C390 1.404 . S
C391 H403 0.930 . S
C392 C388 1.524 . S
C392 H404 0.956 . S
C392 H405 0.957 1_545 S
C392 H406 0.961 . S
C393 C390 1.539 . S
C393 H407 0.958 . S
C393 H408 0.961 . S
C393 H409 0.960 . S
H394 C378 0.931 . S
H395 C383 0.929 . S
H396 C384 0.960 . S
H397 C384 0.962 . S
H398 C384 0.960 . S
H399 C385 0.961 . S
H400 C385 0.961 . S
H401 C385 0.961 . S
H402 C386 0.931 . S
H403 C391 0.930 . S
H404 C392 0.956 . S
H405 C392 0.957 1_565 S
H406 C392 0.961 . S
H407 C393 0.958 . S
H408 C393 0.961 . S
H409 C393 0.960 . S
C410 C411 1.391 . S
C410 C412 1.368 1_554 S
C410 H426 0.931 . S
C411 C410 1.391 . S
C411 C415 1.376 1_554 S
C412 C410 1.368 1_556 S
C412 C413 1.413 . S
C412 C416 1.513 1_556 S
C413 C412 1.413 . S
C413 C414 1.410 . S
C413 C421 1.503 . S
C414 C413 1.410 . S
C414 C415 1.392 . S
C414 C417 1.511 . S
C415 C411 1.376 1_556 S
C415 C414 1.392 . S
C415 H427 0.929 . S
C416 C412 1.513 1_554 S
C416 H428 0.960 . S
C416 H429 0.973 . S
C416 H430 0.960 . S
C417 C414 1.511 . S
C417 H431 0.961 . S
C417 H432 0.961 . S
C417 H433 0.961 . S
C418 C419 1.370 . S
C418 C420 1.363 . S
C418 H434 0.931 . S
C419 C418 1.370 . S
C419 C423 1.408 . S
C420 C418 1.363 . S
C420 C421 1.370 . S
C420 C424 1.524 . S
C421 C413 1.503 . S
C421 C420 1.370 . S
C421 C422 1.403 . S
C422 C421 1.403 . S
C422 C423 1.404 . S
C422 C425 1.539 . S
C423 C419 1.408 . S
C423 C422 1.404 . S
C423 H435 0.930 . S
C424 C420 1.524 . S
C424 H436 0.956 . S
C424 H437 0.961 . S
C424 H438 0.961 . S
C425 C422 1.539 . S
C425 H439 0.958 . S
C425 H440 0.961 . S
C425 H441 0.960 . S
H426 C410 0.931 . S
H427 C415 0.929 . S
H428 C416 0.960 . S
H429 C416 0.973 . S
H430 C416 0.960 . S
H431 C417 0.961 . S
H432 C417 0.961 . S
H433 C417 0.961 . S
H434 C418 0.931 . S
H435 C423 0.930 . S
H436 C424 0.956 . S
H437 C424 0.961 . S
H438 C424 0.961 . S
H439 C425 0.958 . S
H440 C425 0.961 . S
H441 C425 0.960 . S
C442 C443 1.391 1_655 S
C442 C444 1.394 . S
C442 H458 0.931 . S
C443 C442 1.391 1_455 S
C443 C447 1.376 . S
C444 C442 1.394 . S
C444 C445 1.369 1_655 S
C444 C448 1.531 . S
C445 C444 1.369 1_455 S
C445 C446 1.410 . S
C445 C453 1.503 . S
C446 C445 1.410 . S
C446 C447 1.392 . S
C446 C449 1.511 . S
C447 C443 1.376 . S
C447 C446 1.392 . S
C447 H459 0.929 . S
C448 C444 1.531 . S
C448 H460 0.960 . S
C448 H461 0.962 . S
C448 H462 0.960 . S
C449 C446 1.511 . S
C449 H463 0.961 . S
C449 H464 0.961 . S
C449 H465 0.961 . S
C450 C451 1.370 . S
C450 C452 1.363 . S
C450 H466 0.931 . S
C451 C450 1.370 . S
C451 C455 1.408 . S
C452 C450 1.363 . S
C452 C453 1.370 . S
C452 C456 1.524 . S
C453 C445 1.503 . S
C453 C452 1.370 . S
C453 C454 1.403 1_455 S
C454 C453 1.403 1_655 S
C454 C455 1.404 1_655 S
C454 C457 1.539 . S
C455 C451 1.408 . S
C455 C454 1.404 1_455 S
C455 H467 0.930 1_455 S
C456 C452 1.524 . S
C456 H468 0.956 . S
C456 H469 0.961 . S
C456 H470 0.961 . S
C457 C454 1.539 . S
C457 H471 0.958 . S
C457 H472 0.961 . S
C457 H473 0.960 . S
H458 C442 0.931 . S
H459 C447 0.929 . S
H460 C448 0.960 . S
H461 C448 0.962 . S
H462 C448 0.960 . S
H463 C449 0.961 . S
H464 C449 0.961 . S
H465 C449 0.961 . S
H466 C450 0.931 . S
H467 C455 0.930 1_655 S
H468 C456 0.956 . S
H469 C456 0.961 . S
H470 C456 0.961 . S
H471 C457 0.958 . S
H472 C457 0.961 . S
H473 C457 0.960 . S
C474 C475 1.400 . S
C474 C476 1.394 . S
C474 H490 0.931 . S
C475 C474 1.400 . S
C475 C479 1.363 1_545 S
C476 C474 1.394 . S
C476 C477 1.369 . S
C476 C480 1.531 . S
C477 C476 1.369 . S
C477 C478 1.410 1_545 S
C477 C485 1.503 . S
C478 C477 1.410 1_565 S
C478 C479 1.392 . S
C478 C481 1.511 . S
C479 C475 1.363 1_565 S
C479 C478 1.392 . S
C479 H491 0.929 . S
C480 C476 1.531 . S
C480 H492 0.960 . S
C480 H493 0.962 . S
C480 H494 0.960 . S
C481 C478 1.511 . S
C481 H495 0.961 . S
C481 H496 0.961 . S
C481 H497 0.961 . S
C482 C483 1.370 1_565 S
C482 C484 1.363 . S
C482 H498 0.931 . S
C483 C482 1.370 1_545 S
C483 C487 1.408 . S
C484 C482 1.363 . S
C484 C485 1.370 1_565 S
C484 C488 1.524 . S
C485 C477 1.503 . S
C485 C484 1.370 1_545 S
C485 C486 1.403 . S
C486 C485 1.403 . S
C486 C487 1.404 . S
C486 C489 1.539 . S
C487 C483 1.408 . S
C487 C486 1.404 . S
C487 H499 0.930 . S
C488 C484 1.524 . S
C488 H500 0.956 . S
C488 H501 0.961 . S
C488 H502 0.961 . S
C489 C486 1.539 . S
C489 H503 0.958 . S
C489 H504 0.961 . S
C489 H505 0.960 . S
H490 C474 0.931 . S
H491 C479 0.929 . S
H492 C480 0.960 . S
H493 C480 0.962 . S
H494 C480 0.960 . S
H495 C481 0.961 . S
H496 C481 0.961 . S
H497 C481 0.961 . S
H498 C482 0.931 . S
H499 C487 0.930 . S
H500 C488 0.956 . S
H501 C488 0.961 . S
H502 C488 0.961 . S
H503 C489 0.958 . S
H504 C489 0.961 . S
H505 C489 0.960 . S
C506 C507 1.370 1_556 S
C506 C508 1.394 . S
C506 H522 0.931 . S
C507 C506 1.370 1_554 S
C507 C511 1.375 . S
C508 C506 1.394 . S
C508 C509 1.369 . S
C508 C512 1.531 . S
C509 C508 1.369 . S
C509 C510 1.410 . S
C509 C517 1.503 . S
C510 C509 1.410 . S
C510 C511 1.392 1_556 S
C510 C513 1.511 . S
C511 C507 1.375 . S
C511 C510 1.392 1_554 S
C511 H523 0.929 . S
C512 C508 1.531 . S
C512 H524 0.960 . S
C512 H525 0.962 . S
C512 H526 0.960 . S
C513 C510 1.511 . S
C513 H527 0.961 1_556 S
C513 H528 0.961 . S
C513 H529 0.961 . S
C514 C515 1.370 . S
C514 C516 1.363 . S
C514 H530 0.931 . S
C515 C514 1.370 . S
C515 C519 1.408 . S
C516 C514 1.363 . S
C516 C517 1.370 . S
C516 C520 1.524 . S
C517 C509 1.503 . S
C517 C516 1.370 . S
C517 C518 1.403 . S
C518 C517 1.403 . S
C518 C519 1.404 . S
C518 C521 1.539 . S
C519 C515 1.408 . S
C519 C518 1.404 . S
C519 H531 0.930 . S
C520 C516 1.524 . S
C520 H532 0.956 . S
C520 H533 0.970 . S
C520 H534 0.961 . S
C521 C518 1.539 . S
C521 H535 0.958 . S
C521 H536 0.961 . S
C521 H537 0.960 . S
H522 C506 0.931 . S
H523 C511 0.929 . S
H524 C512 0.960 . S
H525 C512 0.962 . S
H526 C512 0.960 . S
H527 C513 0.961 1_554 S
H528 C513 0.961 . S
H529 C513 0.961 . S
H530 C514 0.931 . S
H531 C519 0.930 . S
H532 C520 0.956 . S
H533 C520 0.970 . S
H534 C520 0.961 . S
H535 C521 0.958 . S
H536 C521 0.961 . S
H537 C521 0.960 . S
C538 C539 1.391 . S
C538 C540 1.394 . S
C538 H554 0.931 . S
C539 C538 1.391 . S
C539 C543 1.376 . S
C540 C538 1.394 . S
C540 C541 1.369 . S
C540 C544 1.531 . S
C541 C540 1.369 . S
C541 C542 1.410 . S
C541 C549 1.503 . S
C542 C541 1.410 . S
C542 C543 1.392 . S
C542 C545 1.511 1_455 S
C543 C539 1.376 . S
C543 C542 1.392 . S
C543 H555 0.929 . S
C544 C540 1.531 . S
C544 H556 0.960 . S
C544 H557 0.962 . S
C544 H558 0.960 . S
C545 C542 1.511 1_655 S
C545 H559 0.961 . S
C545 H560 0.961 . S
C545 H561 0.961 1_655 S
C546 C547 1.370 . S
C546 C548 1.363 . S
C546 H562 0.931 1_455 S
C547 C546 1.370 . S
C547 C551 1.408 . S
C548 C546 1.363 . S
C548 C549 1.370 . S
C548 C552 1.524 1_455 S
C549 C541 1.503 . S
C549 C548 1.370 . S
C549 C550 1.403 . S
C550 C549 1.403 . S
C550 C551 1.404 . S
C550 C553 1.539 . S
C551 C547 1.408 . S
C551 C550 1.404 . S
C551 H563 0.930 . S
C552 C548 1.524 1_655 S
C552 H564 0.956 . S
C552 H565 0.961 . S
C552 H566 0.961 . S
C553 C550 1.539 . S
C553 H567 0.958 . S
C553 H568 0.961 . S
C553 H569 0.960 . S
H554 C538 0.931 . S
H555 C543 0.929 . S
H556 C544 0.960 . S
H557 C544 0.962 . S
H558 C544 0.960 . S
H559 C545 0.961 . S
H560 C545 0.961 . S
H561 C545 0.961 1_455 S
H562 C546 0.931 1_655 S
H563 C551 0.930 . S
H564 C552 0.956 . S
H565 C552 0.961 . S
H566 C552 0.961 . S
H567 C553 0.958 . S
H568 C553 0.961 . S
H569 C553 0.960 . S
C195 C63 1.348 . S
C187 C11 1.314 . S
C219 C25 1.412 . S
C227 C111 1.417 . S
C251 C41 1.390 . S
C259 C183 1.461 . S
C283 C7 1.352 . S
C291 C87 1.352 . S
C323 C135 1.420 . S
C315 C21 1.433 . S
C347 C36 1.398 . S
C355 C159 1.480 . S
C387 C120 1.409 . S
C379 C39 1.380 . S
C411 C8 1.442 1_655 S
C419 C174 1.460 . S
C451 C78 1.512 . S
C443 C22 1.448 . S
C483 C126 1.426 . S
C475 C35 1.410 1_545 S
C515 C168 1.442 . S
C507 C13 1.410 . S
C539 C27 1.413 . S
C547 C72 1.497 . S
