# Generated by pormake.
# Topology cml, (3,6)-cn, num edge types: 1
# Building blocks:
#     Node 0, Type 0, BuildingBlock: KAKCAD_clean_linker_0, # of connection points: 3
#     Node 1, Type 0, BuildingBlock: KAKCAD_clean_linker_0, # of connection points: 3
#     Node 2, Type 0, BuildingBlock: KAKCAD_clean_linker_0, # of connection points: 3
#     Node 3, Type 0, BuildingBlock: KAKCAD_clean_linker_0, # of connection points: 3
#     Node 4, Type 0, BuildingBlock: KAKCAD_clean_linker_0, # of connection points: 3
#     Node 5, Type 0, BuildingBlock: KAKCAD_clean_linker_0, # of connection points: 3
#     Node 6, Type 0, BuildingBlock: KAKCAD_clean_linker_0, # of connection points: 3
#     Node 7, Type 0, BuildingBlock: KAKCAD_clean_linker_0, # of connection points: 3
#     Node 8, Type 1, BuildingBlock: IZENUY_clean_sbu_0, # of connection points: 6
#     Node 9, Type 1, BuildingBlock: IZENUY_clean_sbu_0, # of connection points: 6
#     Node 10, Type 1, BuildingBlock: IZENUY_clean_sbu_0, # of connection points: 6
#     Node 11, Type 1, BuildingBlock: IZENUY_clean_sbu_0, # of connection points: 6
#     Edge 12, Type (0, 1), BuildingBlock: UVAHIK_clean_linker_0, # of connection points: 2
#     Edge 13, Type (0, 1), BuildingBlock: UVAHIK_clean_linker_0, # of connection points: 2
#     Edge 14, Type (0, 1), BuildingBlock: UVAHIK_clean_linker_0, # of connection points: 2
#     Edge 15, Type (0, 1), BuildingBlock: UVAHIK_clean_linker_0, # of connection points: 2
#     Edge 16, Type (0, 1), BuildingBlock: UVAHIK_clean_linker_0, # of connection points: 2
#     Edge 17, Type (0, 1), BuildingBlock: UVAHIK_clean_linker_0, # of connection points: 2
#     Edge 18, Type (0, 1), BuildingBlock: UVAHIK_clean_linker_0, # of connection points: 2
#     Edge 19, Type (0, 1), BuildingBlock: UVAHIK_clean_linker_0, # of connection points: 2
#     Edge 20, Type (0, 1), BuildingBlock: UVAHIK_clean_linker_0, # of connection points: 2
#     Edge 21, Type (0, 1), BuildingBlock: UVAHIK_clean_linker_0, # of connection points: 2
#     Edge 22, Type (0, 1), BuildingBlock: UVAHIK_clean_linker_0, # of connection points: 2
#     Edge 23, Type (0, 1), BuildingBlock: UVAHIK_clean_linker_0, # of connection points: 2
#     Edge 24, Type (0, 1), BuildingBlock: UVAHIK_clean_linker_0, # of connection points: 2
#     Edge 25, Type (0, 1), BuildingBlock: UVAHIK_clean_linker_0, # of connection points: 2
#     Edge 26, Type (0, 1), BuildingBlock: UVAHIK_clean_linker_0, # of connection points: 2
#     Edge 27, Type (0, 1), BuildingBlock: UVAHIK_clean_linker_0, # of connection points: 2
#     Edge 28, Type (0, 1), BuildingBlock: UVAHIK_clean_linker_0, # of connection points: 2
#     Edge 29, Type (0, 1), BuildingBlock: UVAHIK_clean_linker_0, # of connection points: 2
#     Edge 30, Type (0, 1), BuildingBlock: UVAHIK_clean_linker_0, # of connection points: 2
#     Edge 31, Type (0, 1), BuildingBlock: UVAHIK_clean_linker_0, # of connection points: 2
#     Edge 32, Type (0, 1), BuildingBlock: UVAHIK_clean_linker_0, # of connection points: 2
#     Edge 33, Type (0, 1), BuildingBlock: UVAHIK_clean_linker_0, # of connection points: 2
#     Edge 34, Type (0, 1), BuildingBlock: UVAHIK_clean_linker_0, # of connection points: 2
#     Edge 35, Type (0, 1), BuildingBlock: UVAHIK_clean_linker_0, # of connection points: 2
# Relax obj value: 0.055
# Max RMSD: 0.070
# Mean RMSD: 0.067
data_MOF--net-cml--node1-IZENUY_clean_sbu_0--node2-KAKCAD_clean_linker_0--edge1-UVAHIK_clean_linker_0
_symmetry_space_group_name_H-M    P1
_symmetry_Int_Tables_number       1
_symmetry_cell_setting            triclinic
loop_
_symmetry_equiv_pos_as_xyz
'x, y, z'
_cell_length_a     53.726834
_cell_length_b     62.47701
_cell_length_c     57.910981
_cell_angle_alpha  89.94393
_cell_angle_beta   90.046329
_cell_angle_gamma 90.018855
loop_
_atom_site_label
_atom_site_type_symbol
_atom_site_fract_x
_atom_site_fract_y
_atom_site_fract_z
_atom_type_partial_charge
C0 C 0.29107 0.45912 0.95898 0.0
C1 C 0.31686 0.4622 0.96107 0.0
C2 C 0.27931 0.44245 0.97091 0.0
C3 C 0.2932 0.42845 0.98497 0.0
C4 C 0.3191 0.43136 0.98656 0.0
C5 C 0.33075 0.44808 0.97486 0.0
C6 C 0.28091 0.41086 0.99798 0.0
C7 C 0.26175 0.39876 0.98785 0.0
C8 C 0.25084 0.3815 0.99975 0.0
C9 C 0.25921 0.37653 0.02215 0.0
C10 C 0.27865 0.3882 0.03229 0.0
C11 C 0.28912 0.40547 0.02027 0.0
C12 C 0.28943 0.38142 0.05465 0.0
C13 C 0.2743 0.37794 0.07407 0.0
C14 C 0.31521 0.37818 0.05648 0.0
C15 C 0.32572 0.37155 0.07731 0.0
C16 C 0.31071 0.36826 0.09683 0.0
C17 C 0.23189 0.36787 0.98817 0.0
C18 C 0.2136 0.37699 0.97381 0.0
C19 C 0.23251 0.3455 0.99078 0.0
C20 C 0.21533 0.33256 0.97929 0.0
C21 C 0.19726 0.34167 0.96477 0.0
C22 C 0.19654 0.36401 0.96214 0.0
C23 C 0.28491 0.37162 0.0951 0.0
H24 H 0.27993 0.46986 0.94853 0.0
H25 H 0.25931 0.44077 0.96945 0.0
H26 H 0.33049 0.42057 0.9967 0.0
H27 H 0.35074 0.44985 0.97641 0.0
H28 H 0.25612 0.40218 0.97026 0.0
H29 H 0.3038 0.4147 0.02839 0.0
H30 H 0.25116 0.36318 0.03149 0.0
H31 H 0.25437 0.38036 0.07304 0.0
H32 H 0.32724 0.38058 0.04169 0.0
H33 H 0.34569 0.36928 0.07825 0.0
H34 H 0.21241 0.39418 0.97164 0.0
H35 H 0.24665 0.33788 0.00128 0.0
H36 H 0.27297 0.36915 0.10993 0.0
H37 H 0.1826 0.37146 0.95125 0.0
H38 H 0.21655 0.31536 0.98137 0.0
C39 C 0.71107 0.54154 0.45717 0.0
C40 C 0.68518 0.53894 0.45904 0.0
C41 C 0.72316 0.55795 0.4692 0.0
C42 C 0.70953 0.57218 0.48315 0.0
C43 C 0.68355 0.5698 0.48449 0.0
C44 C 0.67155 0.55333 0.47268 0.0
C45 C 0.72219 0.58944 0.49636 0.0
C46 C 0.74174 0.60123 0.48648 0.0
C47 C 0.75301 0.61819 0.49857 0.0
C48 C 0.7446 0.62316 0.52095 0.0
C49 C 0.7248 0.61178 0.53086 0.0
C50 C 0.71396 0.59482 0.51863 0.0
C51 C 0.71408 0.6185 0.55324 0.0
C52 C 0.72914 0.62121 0.57286 0.0
C53 C 0.68839 0.62227 0.55493 0.0
C54 C 0.67789 0.6286 0.57584 0.0
C55 C 0.6928 0.63104 0.59559 0.0
C56 C 0.77236 0.63155 0.48719 0.0
C57 C 0.79054 0.62217 0.47295 0.0
C58 C 0.77216 0.65392 0.48976 0.0
C59 C 0.78958 0.66662 0.47828 0.0
C60 C 0.80753 0.65727 0.46383 0.0
C61 C 0.80789 0.63492 0.46133 0.0
C62 C 0.71852 0.62721 0.59397 0.0
H63 H 0.72201 0.53058 0.44684 0.0
H64 H 0.74321 0.55924 0.46793 0.0
H65 H 0.67237 0.58078 0.49455 0.0
H66 H 0.65151 0.55194 0.47406 0.0
H67 H 0.74742 0.59782 0.46891 0.0
H68 H 0.69899 0.58581 0.52657 0.0
H69 H 0.75293 0.63628 0.53043 0.0
H70 H 0.749 0.61835 0.57194 0.0
H71 H 0.67642 0.62046 0.53999 0.0
H72 H 0.65798 0.63124 0.57667 0.0
H73 H 0.79142 0.60497 0.47082 0.0
H74 H 0.75812 0.66173 0.50018 0.0
H75 H 0.73039 0.62904 0.60897 0.0
H76 H 0.82171 0.62726 0.45052 0.0
H77 H 0.78863 0.68384 0.48028 0.0
C78 C 0.70287 0.45117 0.94963 0.0
C79 C 0.69651 0.46996 0.96161 0.0
C80 C 0.71329 0.43374 0.96122 0.0
C81 C 0.71799 0.43469 0.9851 0.0
C82 C 0.71244 0.45375 0.99696 0.0
C83 C 0.70173 0.47112 0.98539 0.0
C84 C 0.7276 0.41555 0.99765 0.0
C85 C 0.74478 0.4017 0.98711 0.0
C86 C 0.75241 0.38269 0.99803 0.0
C87 C 0.74317 0.3779 0.02015 0.0
C88 C 0.72644 0.39178 0.03121 0.0
C89 C 0.71867 0.41047 0.01979 0.0
C90 C 0.71626 0.38651 0.05436 0.0
C91 C 0.70739 0.36584 0.05928 0.0
C92 C 0.71454 0.40239 0.07144 0.0
C93 C 0.70368 0.39785 0.09279 0.0
C94 C 0.69411 0.37735 0.09753 0.0
C95 C 0.76937 0.36756 0.98597 0.0
C96 C 0.76649 0.36358 0.96221 0.0
C97 C 0.78832 0.35679 0.99806 0.0
C98 C 0.80392 0.34233 0.98668 0.0
C99 C 0.80101 0.3384 0.96294 0.0
C100 C 0.78217 0.34923 0.95082 0.0
C101 C 0.69638 0.36132 0.08062 0.0
H102 H 0.69958 0.4498 0.93124 0.0
H103 H 0.71701 0.41929 0.95151 0.0
H104 H 0.71615 0.45521 0.01527 0.0
H105 H 0.69693 0.48523 0.99527 0.0
H106 H 0.75237 0.40577 0.97034 0.0
H107 H 0.70485 0.42062 0.02787 0.0
H108 H 0.74877 0.36324 0.02871 0.0
H109 H 0.70822 0.35334 0.04636 0.0
H110 H 0.72157 0.41837 0.06825 0.0
H111 H 0.70271 0.41046 0.10558 0.0
H112 H 0.7518 0.37126 0.95243 0.0
H113 H 0.79128 0.3597 0.01629 0.0
H114 H 0.68894 0.34544 0.08355 0.0
H115 H 0.77921 0.34629 0.93259 0.0
H116 H 0.81848 0.33441 0.99642 0.0
C117 C 0.28763 0.62912 0.59175 0.0
C118 C 0.31243 0.62399 0.59715 0.0
C119 C 0.27794 0.62449 0.56985 0.0
C120 C 0.29294 0.61479 0.55291 0.0
C121 C 0.3179 0.61017 0.55827 0.0
C122 C 0.32748 0.61462 0.58013 0.0
C123 C 0.28287 0.60941 0.52968 0.0
C124 C 0.26688 0.62352 0.51801 0.0
C125 C 0.25844 0.61891 0.49555 0.0
C126 C 0.26665 0.60008 0.4846 0.0
C127 C 0.2827 0.58575 0.496 0.0
C128 C 0.2901 0.59037 0.51874 0.0
C129 C 0.29253 0.56631 0.48414 0.0
C130 C 0.27785 0.5546 0.46841 0.0
C131 C 0.317 0.5593 0.48856 0.0
C132 C 0.32628 0.54088 0.47809 0.0
C133 C 0.31159 0.52924 0.46253 0.0
C134 C 0.24149 0.63406 0.48346 0.0
C135 C 0.22208 0.64416 0.49555 0.0
C136 C 0.24471 0.63877 0.45989 0.0
C137 C 0.229 0.65334 0.44874 0.0
C138 C 0.20983 0.66362 0.46094 0.0
C139 C 0.20649 0.6588 0.48444 0.0
C140 C 0.2874 0.53634 0.45754 0.0
H141 H 0.2756 0.63627 0.6046 0.0
H142 H 0.2586 0.62813 0.56634 0.0
H143 H 0.33019 0.60323 0.54549 0.0
H144 H 0.34681 0.6109 0.58364 0.0
H145 H 0.26166 0.63848 0.52612 0.0
H146 H 0.30157 0.57903 0.52808 0.0
H147 H 0.26069 0.59671 0.46712 0.0
H148 H 0.25887 0.55932 0.46474 0.0
H149 H 0.3292 0.56816 0.49996 0.0
H150 H 0.34516 0.53589 0.48189 0.0
H151 H 0.21879 0.64063 0.51361 0.0
H152 H 0.25969 0.63154 0.45013 0.0
H153 H 0.27575 0.52755 0.44557 0.0
H154 H 0.19162 0.66621 0.49421 0.0
H155 H 0.2322 0.65691 0.43068 0.0
C156 C 0.79075 0.95794 0.95875 0.0
C157 C 0.81647 0.9613 0.96111 0.0
C158 C 0.7791 0.94115 0.97056 0.0
C159 C 0.79303 0.92728 0.98473 0.0
C160 C 0.81887 0.93045 0.98657 0.0
C161 C 0.8304 0.94732 0.97501 0.0
C162 C 0.78082 0.90954 0.99762 0.0
C163 C 0.76179 0.89739 0.98738 0.0
C164 C 0.75093 0.88004 0.99917 0.0
C165 C 0.75926 0.87501 0.02158 0.0
C166 C 0.77856 0.88675 0.03183 0.0
C167 C 0.78896 0.90412 0.01993 0.0
C168 C 0.78926 0.88004 0.05425 0.0
C169 C 0.77413 0.87695 0.07374 0.0
C170 C 0.81502 0.87667 0.05611 0.0
C171 C 0.82551 0.87036 0.07706 0.0
C172 C 0.81052 0.86754 0.09667 0.0
C173 C 0.73208 0.86641 0.98745 0.0
C174 C 0.71372 0.87558 0.9732 0.0
C175 C 0.73291 0.84401 0.98973 0.0
C176 C 0.71591 0.8311 0.97797 0.0
C177 C 0.69777 0.84027 0.96354 0.0
C178 C 0.69681 0.86264 0.96131 0.0
C179 C 0.78473 0.87097 0.0949 0.0
H180 H 0.77959 0.96858 0.94821 0.0
H181 H 0.75914 0.93928 0.96891 0.0
H182 H 0.8303 0.91976 0.9968 0.0
H183 H 0.85035 0.94932 0.97678 0.0
H184 H 0.7562 0.90083 0.96979 0.0
H185 H 0.80353 0.91339 0.02816 0.0
H186 H 0.75125 0.86158 0.03083 0.0
H187 H 0.75422 0.8795 0.07269 0.0
H188 H 0.82704 0.87879 0.04127 0.0
H189 H 0.84546 0.86801 0.07802 0.0
H190 H 0.71237 0.89279 0.9713 0.0
H191 H 0.74711 0.83637 0.00015 0.0
H192 H 0.77281 0.86886 0.1098 0.0
H193 H 0.68281 0.87015 0.95054 0.0
H194 H 0.71732 0.81389 0.97977 0.0
C195 C 0.21486 0.03974 0.45699 0.0
C196 C 0.18981 0.0343 0.46066 0.0
C197 C 0.22551 0.05706 0.46874 0.0
C198 C 0.2112 0.06938 0.48416 0.0
C199 C 0.18602 0.06402 0.48742 0.0
C200 C 0.17552 0.04664 0.47593 0.0
C201 C 0.2221 0.08798 0.49662 0.0
C202 C 0.23874 0.10191 0.48554 0.0
C203 C 0.24785 0.12023 0.49684 0.0
C204 C 0.23956 0.12483 0.51936 0.0
C205 C 0.22275 0.11114 0.53072 0.0
C206 C 0.21483 0.09244 0.51939 0.0
C207 C 0.21256 0.11653 0.55396 0.0
C208 C 0.22725 0.12672 0.57088 0.0
C209 C 0.18771 0.11138 0.55939 0.0
C210 C 0.1781 0.11559 0.58126 0.0
C211 C 0.19283 0.12551 0.59809 0.0
C212 C 0.26552 0.13475 0.48477 0.0
C213 C 0.28459 0.12631 0.47086 0.0
C214 C 0.2633 0.1571 0.48675 0.0
C215 C 0.27975 0.17066 0.47511 0.0
C216 C 0.29867 0.16218 0.4611 0.0
C217 C 0.30091 0.13987 0.45909 0.0
C218 C 0.21737 0.13134 0.59271 0.0
H219 H 0.22628 0.0304 0.44535 0.0
H220 H 0.24501 0.06063 0.46595 0.0
H221 H 0.17422 0.07346 0.49864 0.0
H222 H 0.15602 0.04306 0.47872 0.0
H223 H 0.24394 0.09892 0.46776 0.0
H224 H 0.20281 0.08126 0.52834 0.0
H225 H 0.24599 0.1392 0.52793 0.0
H226 H 0.24648 0.13077 0.56746 0.0
H227 H 0.17552 0.10417 0.5467 0.0
H228 H 0.159 0.11123 0.585 0.0
H229 H 0.28709 0.10918 0.46924 0.0
H230 H 0.24857 0.16416 0.49697 0.0
H231 H 0.22902 0.139 0.60556 0.0
H232 H 0.31555 0.13288 0.44869 0.0
H233 H 0.27742 0.18781 0.47677 0.0
C234 C 0.1969 0.95067 0.95489 0.0
C235 C 0.1976 0.9709 0.9656 0.0
C236 C 0.20805 0.93292 0.96532 0.0
C237 C 0.2198 0.93488 0.98685 0.0
C238 C 0.22093 0.95505 0.99745 0.0
C239 C 0.21016 0.9729 0.98685 0.0
C240 C 0.22963 0.91568 0.99876 0.0
C241 C 0.24536 0.90135 0.98715 0.0
C242 C 0.25363 0.88251 0.99802 0.0
C243 C 0.24566 0.87804 0.02065 0.0
C244 C 0.22985 0.89219 0.03244 0.0
C245 C 0.22218 0.91112 0.02145 0.0
C246 C 0.22013 0.88668 0.05569 0.0
C247 C 0.2112 0.86596 0.06032 0.0
C248 C 0.21852 0.90233 0.07302 0.0
C249 C 0.20749 0.89756 0.09426 0.0
C250 C 0.19773 0.87706 0.0986 0.0
C251 C 0.27015 0.86724 0.98569 0.0
C252 C 0.26622 0.86249 0.96223 0.0
C253 C 0.28969 0.85695 0.99744 0.0
C254 C 0.30467 0.84202 0.98613 0.0
C255 C 0.30056 0.83711 0.96277 0.0
C256 C 0.28131 0.84763 0.95087 0.0
C257 C 0.20011 0.8612 0.08153 0.0
H258 H 0.18705 0.94832 0.93878 0.0
H259 H 0.20668 0.91747 0.95693 0.0
H260 H 0.2301 0.95698 0.01399 0.0
H261 H 0.21161 0.98825 0.99542 0.0
H262 H 0.25136 0.90505 0.96973 0.0
H263 H 0.20941 0.92185 0.03013 0.0
H264 H 0.25147 0.86335 0.02902 0.0
H265 H 0.21189 0.85362 0.04721 0.0
H266 H 0.22558 0.91834 0.07007 0.0
H267 H 0.20635 0.91003 0.10719 0.0
H268 H 0.25111 0.86989 0.95274 0.0
H269 H 0.29353 0.86053 0.01539 0.0
H270 H 0.19249 0.84534 0.08418 0.0
H271 H 0.27755 0.84401 0.93292 0.0
H272 H 0.31963 0.83443 0.99564 0.0
C273 C 0.79176 0.12765 0.59073 0.0
C274 C 0.81764 0.12492 0.5928 0.0
C275 C 0.77959 0.12252 0.57005 0.0
C276 C 0.79314 0.11466 0.55108 0.0
C277 C 0.81912 0.11276 0.55298 0.0
C278 C 0.83119 0.11776 0.57358 0.0
C279 C 0.78044 0.10794 0.52946 0.0
C280 C 0.76151 0.12047 0.51959 0.0
C281 C 0.75069 0.1147 0.49831 0.0
C282 C 0.75874 0.09588 0.48721 0.0
C283 C 0.7778 0.08339 0.49679 0.0
C284 C 0.78828 0.08935 0.51798 0.0
C285 C 0.7885 0.06517 0.48385 0.0
C286 C 0.7734 0.04862 0.47526 0.0
C287 C 0.81429 0.06439 0.48007 0.0
C288 C 0.82483 0.04744 0.46791 0.0
C289 C 0.80987 0.03076 0.45948 0.0
C290 C 0.73248 0.12918 0.48688 0.0
C291 C 0.71412 0.13983 0.4998 0.0
C292 C 0.73404 0.13318 0.46302 0.0
C293 C 0.71788 0.14766 0.45239 0.0
C294 C 0.69982 0.15857 0.46537 0.0
C295 C 0.698 0.1544 0.48917 0.0
C296 C 0.78406 0.03138 0.46337 0.0
H297 H 0.78086 0.1331 0.60531 0.0
H298 H 0.75955 0.12412 0.56911 0.0
H299 H 0.8302 0.10732 0.53851 0.0
H300 H 0.85123 0.11598 0.57448 0.0
H301 H 0.75613 0.1353 0.52789 0.0
H302 H 0.80281 0.07949 0.52545 0.0
H303 H 0.75079 0.09132 0.47073 0.0
H304 H 0.75346 0.0489 0.47803 0.0
H305 H 0.8263 0.07704 0.48636 0.0
H306 H 0.8448 0.04724 0.46532 0.0
H307 H 0.71222 0.13692 0.51816 0.0
H308 H 0.74827 0.12562 0.45261 0.0
H309 H 0.77216 0.0187 0.45697 0.0
H310 H 0.68405 0.16235 0.49957 0.0
H311 H 0.72 0.15076 0.4341 0.0
Fe312 Fe 0.0043 0.81783 0.318 0.0
Fe313 Fe 0.00296 0.84169 0.36442 0.0
O314 O 0.00276 0.84207 0.33387 0.0
Fe315 Fe 0.001 0.86686 0.31915 0.0
O316 O 0.97192 0.85929 0.30557 0.0
O317 O 0.98452 0.82749 0.29421 0.0
O318 O 0.97612 0.80763 0.33142 0.0
C319 C 0.97277 0.80605 0.35291 0.0
C320 C 0.03471 0.84317 0.29181 0.0
O321 O 0.98633 0.81627 0.36697 0.0
C322 C 0.03388 0.87694 0.35337 0.0
O323 O 0.02424 0.80395 0.33905 0.0
O324 O 0.03293 0.82844 0.36511 0.0
O325 O 0.01907 0.85812 0.29413 0.0
O326 O 0.03268 0.82617 0.30341 0.0
C327 C 0.9684 0.87291 0.3569 0.0
O328 O 0.01985 0.86705 0.36736 0.0
O329 O 0.03005 0.87592 0.33189 0.0
C330 C 0.03784 0.81094 0.35528 0.0
O331 O 0.97286 0.85492 0.3659 0.0
O332 O 0.98253 0.88033 0.34137 0.0
C333 C 0.96905 0.84282 0.29325 0.0
Fe334 Fe 0.00079 0.1574 0.86645 0.0
Fe335 Fe 0.00425 0.13071 0.82228 0.0
O336 O 0.00241 0.15599 0.83595 0.0
Fe337 Fe 0.00213 0.1798 0.8192 0.0
O338 O 0.02998 0.18982 0.83329 0.0
O339 O 0.01762 0.18279 0.86864 0.0
O340 O 0.03053 0.14406 0.86967 0.0
C341 C 0.03552 0.12592 0.86137 0.0
C342 C 0.96707 0.18823 0.85486 0.0
O343 O 0.0222 0.11792 0.84551 0.0
C344 C 0.97202 0.15424 0.79292 0.0
O345 O 0.98365 0.13224 0.8699 0.0
O346 O 0.97476 0.12223 0.83454 0.0
O347 O 0.98164 0.19461 0.83906 0.0
O348 O 0.971 0.17083 0.86528 0.0
C349 C 0.03742 0.15339 0.79623 0.0
O350 O 0.98688 0.13887 0.79649 0.0
O351 O 0.9742 0.17156 0.80391 0.0
C352 C 0.97028 0.12176 0.8559 0.0
O353 O 0.0337 0.13746 0.80914 0.0
O354 O 0.02262 0.16922 0.79637 0.0
C355 C 0.03227 0.19213 0.85482 0.0
Fe356 Fe 0.50406 0.31789 0.31825 0.0
Fe357 Fe 0.50275 0.3415 0.36471 0.0
O358 O 0.50209 0.34208 0.33416 0.0
Fe359 Fe 0.49942 0.36686 0.3195 0.0
O360 O 0.47068 0.35859 0.30582 0.0
O361 O 0.4843 0.32722 0.29432 0.0
O362 O 0.47599 0.30746 0.33165 0.0
C363 C 0.47281 0.30581 0.35317 0.0
C364 C 0.5341 0.34381 0.29234 0.0
O365 O 0.48675 0.31573 0.36717 0.0
C366 C 0.53197 0.37788 0.35372 0.0
O367 O 0.52413 0.30416 0.3393 0.0
O368 O 0.53309 0.32889 0.36494 0.0
O369 O 0.51812 0.35857 0.29458 0.0
O370 O 0.53227 0.32669 0.3038 0.0
C371 C 0.46687 0.37176 0.35763 0.0
O372 O 0.51881 0.36723 0.36776 0.0
O373 O 0.52803 0.3768 0.33228 0.0
C374 C 0.53794 0.31129 0.3553 0.0
O375 O 0.47243 0.35403 0.36666 0.0
O376 O 0.48016 0.37969 0.34172 0.0
C377 C 0.46837 0.34216 0.29339 0.0
Fe378 Fe 0.50218 0.65643 0.86405 0.0
Fe379 Fe 0.50316 0.63135 0.81873 0.0
O380 O 0.50189 0.65611 0.83351 0.0
Fe381 Fe 0.50031 0.68044 0.81778 0.0
O382 O 0.52894 0.69028 0.83072 0.0
O383 O 0.5189 0.68184 0.86636 0.0
O384 O 0.53224 0.64323 0.86505 0.0
C385 C 0.53661 0.62527 0.85602 0.0
C386 C 0.46741 0.6873 0.85541 0.0
O387 O 0.52232 0.61781 0.84059 0.0
C388 C 0.46875 0.65541 0.79238 0.0
O389 O 0.48541 0.63105 0.86731 0.0
O390 O 0.47445 0.62227 0.83204 0.0
O391 O 0.48103 0.69437 0.83924 0.0
O392 O 0.47224 0.66968 0.86507 0.0
C393 C 0.53462 0.65535 0.79222 0.0
O394 O 0.48428 0.64027 0.79415 0.0
O395 O 0.47153 0.67241 0.80382 0.0
C396 C 0.47118 0.6211 0.85357 0.0
O397 O 0.53189 0.63884 0.80452 0.0
O398 O 0.51933 0.67076 0.79353 0.0
C399 C 0.53256 0.69182 0.85219 0.0
C400 C 0.16746 0.31091 0.9639 0.0
C401 C 0.17938 0.32779 0.95232 0.0
C402 C 0.15109 0.29744 0.95213 0.0
C403 C 0.13599 0.27709 0.89458 0.0
H404 H 0.07372 0.2608 0.92347 0.0
C405 C 0.06237 0.22268 0.85 0.0
C406 C 0.0504 0.20765 0.86427 0.0
C407 C 0.07815 0.23817 0.85957 0.0
C408 C 0.09116 0.265 0.91526 0.0
H409 H 0.1836 0.34381 0.91932 0.0
H410 H 0.15486 0.32016 0.89867 0.0
H411 H 0.1008 0.2866 0.94247 0.0
H412 H 0.04653 0.19645 0.89958 0.0
H413 H 0.07426 0.223 0.91607 0.0
H414 H 0.12655 0.25512 0.86757 0.0
C415 C 0.15826 0.31739 0.91687 0.0
C416 C 0.10661 0.27983 0.92613 0.0
C417 C 0.1745 0.33101 0.92871 0.0
C418 C 0.05516 0.20799 0.88813 0.0
C419 C 0.07096 0.22332 0.89762 0.0
C420 C 0.12056 0.26212 0.88373 0.0
C421 C 0.1464 0.30048 0.92848 0.0
C422 C 0.12934 0.28582 0.91607 0.0
C423 C 0.08231 0.23882 0.88355 0.0
C424 C 0.09814 0.25567 0.89414 0.0
H425 H 0.17074 0.30816 0.98213 0.0
H426 H 0.14239 0.28441 0.96148 0.0
H427 H 0.15351 0.28132 0.88652 0.0
H428 H 0.05908 0.22283 0.83155 0.0
H429 H 0.08656 0.24994 0.84828 0.0
C430 C 0.8375 0.68794 0.46262 0.0
C431 C 0.82559 0.67092 0.45127 0.0
C432 C 0.85397 0.70122 0.45071 0.0
C433 C 0.86954 0.72057 0.39271 0.0
H434 H 0.93107 0.73813 0.42215 0.0
C435 C 0.94346 0.77489 0.34814 0.0
C436 C 0.95461 0.79049 0.36227 0.0
C437 C 0.92771 0.75938 0.35774 0.0
C438 C 0.91385 0.73354 0.41376 0.0
H439 H 0.82153 0.65449 0.41852 0.0
H440 H 0.85048 0.67775 0.39765 0.0
H441 H 0.90407 0.71242 0.44138 0.0
H442 H 0.957 0.80263 0.39733 0.0
H443 H 0.92942 0.77598 0.41383 0.0
H444 H 0.87918 0.74204 0.36525 0.0
C445 C 0.84697 0.6808 0.41577 0.0
C446 C 0.89842 0.71878 0.42478 0.0
C447 C 0.83061 0.66738 0.42775 0.0
C448 C 0.94904 0.79067 0.38598 0.0
C449 C 0.93332 0.77529 0.39549 0.0
C450 C 0.88498 0.73545 0.3817 0.0
C451 C 0.8588 0.69786 0.42714 0.0
C452 C 0.87593 0.71237 0.41455 0.0
C453 C 0.92281 0.75924 0.38161 0.0
C454 C 0.9071 0.74236 0.39231 0.0
H455 H 0.83414 0.69095 0.48077 0.0
H456 H 0.86261 0.71438 0.45988 0.0
H457 H 0.85221 0.71602 0.3845 0.0
H458 H 0.94737 0.77433 0.32981 0.0
H459 H 0.91993 0.74718 0.3466 0.0
C460 C 0.82727 0.32783 0.92899 0.0
C461 C 0.81738 0.32292 0.95083 0.0
C462 C 0.84244 0.31316 0.91746 0.0
C463 C 0.8576 0.25576 0.91458 0.0
H464 H 0.91864 0.27521 0.88567 0.0
C465 C 0.93372 0.19747 0.88344 0.0
C466 C 0.94728 0.20271 0.86345 0.0
C467 C 0.91655 0.21187 0.89269 0.0
C468 C 0.90146 0.26954 0.89331 0.0
H469 H 0.81546 0.29871 0.9776 0.0
H470 H 0.84209 0.27311 0.95752 0.0
H471 H 0.89152 0.30099 0.90471 0.0
H472 H 0.95259 0.22689 0.83699 0.0
H473 H 0.92226 0.25184 0.85291 0.0
H474 H 0.86746 0.22433 0.90317 0.0
C475 C 0.838 0.28828 0.94928 0.0
C476 C 0.88596 0.28432 0.90428 0.0
C477 C 0.82298 0.30302 0.96089 0.0
C478 C 0.94262 0.2224 0.85251 0.0
C479 C 0.92534 0.23678 0.86172 0.0
C480 C 0.87303 0.24099 0.90349 0.0
C481 C 0.84789 0.29319 0.92744 0.0
C482 C 0.86397 0.27757 0.9152 0.0
C483 C 0.91237 0.23182 0.88213 0.0
C484 C 0.89526 0.24766 0.89288 0.0
H485 H 0.82345 0.34312 0.92088 0.0
H486 H 0.84965 0.31734 0.90058 0.0
H487 H 0.84057 0.25013 0.92253 0.0
H488 H 0.93683 0.18245 0.89235 0.0
H489 H 0.90713 0.2076 0.90857 0.0
C490 C 0.18374 0.67535 0.42721 0.0
C491 C 0.19346 0.67945 0.44931 0.0
C492 C 0.168 0.69016 0.41648 0.0
C493 C 0.12675 0.73606 0.42959 0.0
H494 H 0.13092 0.74631 0.36364 0.0
C495 C 0.07052 0.80293 0.38504 0.0
C496 C 0.05794 0.79719 0.36466 0.0
C497 C 0.08823 0.78923 0.39476 0.0
C498 C 0.12944 0.7435 0.38205 0.0
H499 H 0.19489 0.70255 0.47719 0.0
H500 H 0.16772 0.72848 0.4584 0.0
H501 H 0.15954 0.72106 0.38186 0.0
H502 H 0.05478 0.77284 0.3381 0.0
H503 H 0.0857 0.74899 0.35509 0.0
H504 H 0.09673 0.75855 0.42977 0.0
C505 C 0.17175 0.71362 0.44955 0.0
C506 C 0.14578 0.729 0.39249 0.0
C507 C 0.18735 0.69878 0.46032 0.0
C508 C 0.06405 0.77774 0.35385 0.0
C509 C 0.08187 0.7641 0.36351 0.0
C510 C 0.11052 0.75063 0.41917 0.0
C511 C 0.16174 0.70946 0.42755 0.0
C512 C 0.1446 0.72506 0.41639 0.0
C513 C 0.09389 0.76956 0.38425 0.0
C514 C 0.11164 0.75447 0.39529 0.0
H515 H 0.1879 0.66049 0.41841 0.0
H516 H 0.16035 0.68627 0.3997 0.0
H517 H 0.12497 0.73314 0.44795 0.0
H518 H 0.06638 0.81782 0.39378 0.0
H519 H 0.09744 0.794 0.41058 0.0
C520 C 0.67485 0.83019 0.92734 0.0
C521 C 0.68005 0.82643 0.9508 0.0
C522 C 0.65865 0.81672 0.91524 0.0
C523 C 0.60772 0.77825 0.92412 0.0
H524 H 0.62642 0.75589 0.86412 0.0
C525 C 0.55711 0.70665 0.88499 0.0
C526 C 0.55102 0.70718 0.8614 0.0
C527 C 0.57299 0.72191 0.89448 0.0
C528 C 0.62079 0.76223 0.88071 0.0
H529 H 0.67206 0.8059 0.98006 0.0
H530 H 0.64389 0.78237 0.95897 0.0
H531 H 0.65343 0.78183 0.88349 0.0
H532 H 0.55758 0.72379 0.82906 0.0
H533 H 0.58532 0.75076 0.8458 0.0
H534 H 0.5752 0.75874 0.92152 0.0
C535 C 0.65225 0.79575 0.94993 0.0
C536 C 0.63624 0.77706 0.89179 0.0
C537 C 0.66855 0.80909 0.96196 0.0
C538 C 0.56188 0.72297 0.84731 0.0
C539 C 0.5778 0.73838 0.85688 0.0
C540 C 0.59228 0.76354 0.91305 0.0
C541 C 0.64717 0.79938 0.92644 0.0
C542 C 0.63005 0.78492 0.9138 0.0
C543 C 0.58314 0.7382 0.88067 0.0
C544 C 0.59885 0.75504 0.89142 0.0
H545 H 0.68362 0.84334 0.91825 0.0
H546 H 0.65495 0.81997 0.89718 0.0
H547 H 0.60221 0.78436 0.94085 0.0
H548 H 0.5494 0.69451 0.89629 0.0
H549 H 0.57725 0.72097 0.91274 0.0
C550 C 0.32239 0.17279 0.42557 0.0
C551 C 0.31618 0.17655 0.4488 0.0
C552 C 0.33912 0.18623 0.41409 0.0
C553 C 0.39056 0.22342 0.42503 0.0
H554 H 0.37597 0.24578 0.36399 0.0
C555 C 0.44803 0.29156 0.38617 0.0
C556 C 0.45404 0.29081 0.36257 0.0
C557 C 0.43108 0.27713 0.39561 0.0
C558 C 0.38049 0.23942 0.38088 0.0
H559 H 0.3227 0.1972 0.47824 0.0
H560 H 0.35193 0.22066 0.45821 0.0
H561 H 0.34666 0.22126 0.38256 0.0
H562 H 0.44654 0.27452 0.33025 0.0
H563 H 0.4171 0.24893 0.3469 0.0
H564 H 0.42439 0.24129 0.42345 0.0
C565 C 0.34388 0.20731 0.4489 0.0
C566 C 0.36368 0.22543 0.39152 0.0
C567 C 0.327 0.19401 0.46029 0.0
C568 C 0.44231 0.2755 0.3485 0.0
C569 C 0.42538 0.2609 0.35803 0.0
C570 C 0.4074 0.23723 0.41437 0.0
C571 C 0.35017 0.20353 0.4257 0.0
C572 C 0.3684 0.21754 0.41384 0.0
C573 C 0.41978 0.26143 0.38176 0.0
C574 C 0.40241 0.24569 0.39232 0.0
H575 H 0.31416 0.15954 0.41623 0.0
H576 H 0.34374 0.18289 0.39625 0.0
H577 H 0.39492 0.21725 0.44205 0.0
H578 H 0.45644 0.30335 0.39746 0.0
H579 H 0.42675 0.27837 0.41382 0.0
C580 C 0.32193 0.80149 0.96204 0.0
C581 C 0.31616 0.82088 0.95097 0.0
C582 C 0.33682 0.78625 0.95111 0.0
C583 C 0.36105 0.77006 0.89376 0.0
H584 H 0.41039 0.74 0.9304 0.0
C585 C 0.44142 0.7206 0.8542 0.0
C586 C 0.44753 0.70111 0.86497 0.0
C587 C 0.42386 0.73432 0.86403 0.0
C588 C 0.39649 0.74806 0.91999 0.0
H589 H 0.32153 0.83957 0.91982 0.0
H590 H 0.34787 0.81309 0.90082 0.0
H591 H 0.38305 0.7659 0.94887 0.0
H592 H 0.43934 0.68048 0.89419 0.0
H593 H 0.40872 0.70448 0.91131 0.0
H594 H 0.37495 0.75243 0.86479 0.0
C595 C 0.34049 0.80946 0.91778 0.0
C596 C 0.38079 0.7629 0.93057 0.0
C597 C 0.32546 0.82466 0.92867 0.0
C598 C 0.43518 0.69541 0.88548 0.0
C599 C 0.41773 0.7092 0.89537 0.0
C600 C 0.37687 0.75528 0.88315 0.0
C601 C 0.34643 0.79009 0.92891 0.0
C602 C 0.36289 0.77411 0.9176 0.0
C603 C 0.41211 0.72892 0.8849 0.0
C604 C 0.39477 0.74415 0.89616 0.0
H605 H 0.31469 0.79798 0.97908 0.0
H606 H 0.34063 0.77135 0.96001 0.0
H607 H 0.34723 0.77816 0.88332 0.0
H608 H 0.4505 0.72545 0.83835 0.0
H609 H 0.42004 0.74948 0.85564 0.0
C610 C 0.67878 0.19443 0.46486 0.0
C611 C 0.68343 0.17466 0.45415 0.0
C612 C 0.66413 0.2099 0.45392 0.0
C613 C 0.64029 0.22577 0.39634 0.0
H614 H 0.59325 0.25921 0.43198 0.0
C615 C 0.56305 0.27748 0.35487 0.0
C616 C 0.55763 0.29736 0.36508 0.0
C617 C 0.57998 0.26345 0.3652 0.0
C618 C 0.60654 0.25021 0.42184 0.0
H619 H 0.67585 0.1554 0.42383 0.0
H620 H 0.65005 0.18228 0.40483 0.0
H621 H 0.619 0.23256 0.45133 0.0
H622 H 0.56657 0.31839 0.39375 0.0
H623 H 0.59617 0.29389 0.41169 0.0
H624 H 0.62751 0.24325 0.3668 0.0
C625 C 0.65816 0.18603 0.42147 0.0
C626 C 0.6213 0.23491 0.43292 0.0
C627 C 0.67288 0.1706 0.43238 0.0
C628 C 0.57018 0.30317 0.38546 0.0
C629 C 0.58703 0.28908 0.39584 0.0
C630 C 0.62546 0.24102 0.38525 0.0
C631 C 0.65371 0.20592 0.43205 0.0
C632 C 0.63828 0.22244 0.4203 0.0
C633 C 0.59184 0.26894 0.38601 0.0
C634 C 0.60835 0.25335 0.39786 0.0
H635 H 0.68696 0.19816 0.48148 0.0
H636 H 0.66138 0.22515 0.46241 0.0
H637 H 0.65349 0.21671 0.38616 0.0
H638 H 0.55379 0.27251 0.33915 0.0
H639 H 0.58314 0.24799 0.35728 0.0
C640 C 0.32534 0.48419 0.9256 0.0
C641 C 0.32952 0.48013 0.94915 0.0
C642 C 0.33898 0.50005 0.9141 0.0
C643 C 0.39824 0.5296 0.91947 0.0
H644 H 0.37019 0.56739 0.87308 0.0
C645 C 0.45116 0.60293 0.88718 0.0
C646 C 0.45262 0.60601 0.86317 0.0
C647 C 0.43482 0.58792 0.89648 0.0
C648 C 0.37826 0.55678 0.88585 0.0
H649 H 0.35 0.49023 0.97948 0.0
H650 H 0.37339 0.51808 0.95967 0.0
H651 H 0.3436 0.54069 0.89191 0.0
H652 H 0.43725 0.59626 0.83013 0.0
H653 H 0.40848 0.5699 0.84657 0.0
H654 H 0.43273 0.54577 0.91373 0.0
C655 C 0.36022 0.50865 0.94982 0.0
C656 C 0.36309 0.5415 0.89661 0.0
C657 C 0.34677 0.49276 0.96121 0.0
C658 C 0.43669 0.59417 0.8487 0.0
C659 C 0.42015 0.57918 0.85808 0.0
C660 C 0.41327 0.54488 0.90887 0.0
C661 C 0.35691 0.51218 0.92603 0.0
C662 C 0.37287 0.52794 0.91377 0.0
C663 C 0.41942 0.57567 0.88204 0.0
C664 C 0.4034 0.5588 0.89218 0.0
H665 H 0.31218 0.4746 0.9159 0.0
H666 H 0.33607 0.50229 0.89576 0.0
H667 H 0.40656 0.51902 0.93213 0.0
H668 H 0.46295 0.61188 0.89888 0.0
H669 H 0.43434 0.5858 0.91504 0.0
C670 C 0.67657 0.51686 0.42368 0.0
C671 C 0.67219 0.52119 0.44713 0.0
C672 C 0.66281 0.50106 0.41223 0.0
C673 C 0.60324 0.47177 0.41739 0.0
H674 H 0.63182 0.43318 0.37218 0.0
C675 C 0.55149 0.39716 0.38686 0.0
C676 C 0.5501 0.39355 0.36294 0.0
C677 C 0.56747 0.41265 0.39578 0.0
C678 C 0.6236 0.44402 0.38461 0.0
H679 H 0.65114 0.51165 0.47732 0.0
H680 H 0.62755 0.4839 0.45761 0.0
H681 H 0.65817 0.46026 0.39063 0.0
H682 H 0.56519 0.40291 0.32967 0.0
H683 H 0.59341 0.43006 0.34545 0.0
H684 H 0.56887 0.45537 0.41175 0.0
C685 C 0.64097 0.49309 0.44779 0.0
C686 C 0.63863 0.45952 0.39515 0.0
C687 C 0.65453 0.50893 0.45912 0.0
C688 C 0.56571 0.4054 0.34817 0.0
C689 C 0.58193 0.42084 0.35717 0.0
C690 C 0.58835 0.45626 0.40702 0.0
C691 C 0.64455 0.48924 0.4241 0.0
C692 C 0.62867 0.47336 0.41192 0.0
C693 C 0.58262 0.42483 0.38104 0.0
C694 C 0.59842 0.44203 0.39078 0.0
H695 H 0.69003 0.52616 0.41402 0.0
H696 H 0.66593 0.49857 0.39396 0.0
H697 H 0.59478 0.48255 0.42974 0.0
H698 H 0.5399 0.38826 0.39879 0.0
H699 H 0.56792 0.41516 0.41428 0.0
C700 C 0.68844 0.50934 0.95531 0.0
C701 C 0.68358 0.48785 0.94953 0.0
C702 C 0.67553 0.52598 0.94441 0.0
C703 C 0.63954 0.53884 0.89214 0.0
H704 H 0.60742 0.58187 0.93 0.0
C705 C 0.55925 0.59033 0.85779 0.0
C706 C 0.55677 0.61158 0.86537 0.0
C707 C 0.57737 0.57695 0.86725 0.0
C708 C 0.61664 0.57025 0.9191 0.0
H709 H 0.66098 0.46718 0.92783 0.0
H710 H 0.63908 0.49616 0.90854 0.0
H711 H 0.63464 0.55541 0.94802 0.0
H712 H 0.57197 0.63563 0.88843 0.0
H713 H 0.60398 0.6123 0.9047 0.0
H714 H 0.62159 0.55351 0.86323 0.0
C715 C 0.65304 0.50011 0.92136 0.0
C716 C 0.63219 0.55506 0.92945 0.0
C717 C 0.6657 0.48349 0.9324 0.0
C718 C 0.57326 0.61929 0.88231 0.0
C719 C 0.59154 0.60589 0.89171 0.0
C720 C 0.6242 0.55411 0.88176 0.0
C721 C 0.65771 0.52151 0.92733 0.0
C722 C 0.64335 0.53893 0.91613 0.0
C723 C 0.59367 0.58449 0.88442 0.0
C724 C 0.61208 0.56971 0.89517 0.0
H725 H 0.70232 0.51334 0.96817 0.0
H726 H 0.67962 0.54237 0.94922 0.0
H727 H 0.64825 0.52679 0.88141 0.0
H728 H 0.54685 0.58381 0.84482 0.0
H729 H 0.57813 0.56048 0.86148 0.0
C730 C 0.32342 0.5083 0.4274 0.0
C731 C 0.32193 0.50986 0.45151 0.0
C732 C 0.3359 0.49111 0.41714 0.0
C733 C 0.38362 0.45013 0.43146 0.0
H734 H 0.36666 0.42798 0.37094 0.0
C735 C 0.43727 0.38028 0.3898 0.0
C736 C 0.44646 0.3847 0.36757 0.0
C737 C 0.41948 0.39364 0.39988 0.0
C738 C 0.37155 0.43404 0.38786 0.0
H739 H 0.33083 0.49426 0.48385 0.0
H740 H 0.35157 0.46375 0.46609 0.0
H741 H 0.3396 0.45445 0.38921 0.0
H742 H 0.44327 0.40595 0.33806 0.0
H743 H 0.4119 0.42908 0.35561 0.0
H744 H 0.41542 0.42954 0.43013 0.0
C745 C 0.34407 0.47612 0.45498 0.0
C746 C 0.35616 0.44928 0.3983 0.0
C747 C 0.33201 0.49348 0.46519 0.0
C748 C 0.4367 0.40222 0.35528 0.0
C749 C 0.41863 0.41537 0.36524 0.0
C750 C 0.39875 0.43469 0.42118 0.0
C751 C 0.3468 0.47497 0.43083 0.0
C752 C 0.36215 0.45773 0.42016 0.0
C753 C 0.41021 0.41145 0.38779 0.0
C754 C 0.39303 0.42667 0.39919 0.0
H755 H 0.31591 0.52087 0.41653 0.0
H756 H 0.33783 0.49098 0.39854 0.0
H757 H 0.38927 0.45655 0.44802 0.0
H758 H 0.44438 0.3669 0.3997 0.0
H759 H 0.41314 0.39019 0.41725 0.0
C760 C 0.84564 0.99236 0.96173 0.0
C761 C 0.82899 0.97939 0.94937 0.0
C762 C 0.85894 0.00847 0.95057 0.0
C763 C 0.86236 0.04107 0.89711 0.0
H764 H 0.93125 0.04712 0.91608 0.0
C765 C 0.93644 0.09431 0.85044 0.0
C766 C 0.95142 0.10677 0.86518 0.0
C767 C 0.91983 0.07925 0.85959 0.0
C768 C 0.912 0.04572 0.9107 0.0
H769 H 0.81259 0.97345 0.91581 0.0
H770 H 0.8363 0.00148 0.89604 0.0
H771 H 0.90536 0.01994 0.93407 0.0
H772 H 0.95992 0.1137 0.9011 0.0
H773 H 0.93122 0.08746 0.91685 0.0
H774 H 0.86944 0.06683 0.87342 0.0
C775 C 0.8388 0.99936 0.91445 0.0
C776 C 0.89711 0.0302 0.92107 0.0
C777 C 0.82527 0.9833 0.92573 0.0
C778 C 0.94887 0.10428 0.8892 0.0
C779 C 0.93249 0.08918 0.89827 0.0
C780 C 0.8774 0.05656 0.88656 0.0
C781 C 0.85614 0.01187 0.9267 0.0
C782 C 0.87199 0.02789 0.9147 0.0
C783 C 0.9181 0.07627 0.88359 0.0
C784 C 0.90225 0.05922 0.89356 0.0
H785 H 0.84849 0.98994 0.98007 0.0
H786 H 0.87161 0.01818 0.96066 0.0
H787 H 0.84306 0.03977 0.89188 0.0
H788 H 0.93785 0.09593 0.83187 0.0
H789 H 0.90895 0.06946 0.84791 0.0
C790 C 0.16338 0.00146 0.46106 0.0
C791 C 0.17819 0.01593 0.44862 0.0
C792 C 0.15015 0.98547 0.44963 0.0
C793 C 0.14349 0.95611 0.39443 0.0
H794 H 0.07592 0.94845 0.41649 0.0
C795 C 0.06758 0.90458 0.34811 0.0
C796 C 0.05298 0.89167 0.36272 0.0
C797 C 0.08458 0.91925 0.35743 0.0
C798 C 0.09481 0.95026 0.41024 0.0
H799 H 0.19167 0.02452 0.4146 0.0
H800 H 0.16816 0.9966 0.39444 0.0
H801 H 0.10276 0.97463 0.43494 0.0
H802 H 0.04564 0.88343 0.39854 0.0
H803 H 0.07508 0.90884 0.41457 0.0
H804 H 0.13514 0.9317 0.3695 0.0
C805 C 0.16699 0.99752 0.41308 0.0
C806 C 0.11023 0.96522 0.42086 0.0
C807 C 0.18042 0.0135 0.42459 0.0
C808 C 0.05631 0.89328 0.38674 0.0
C809 C 0.07315 0.90791 0.39598 0.0
C810 C 0.12792 0.94111 0.38369 0.0
C811 C 0.15123 0.98367 0.42546 0.0
C812 C 0.13488 0.96812 0.41335 0.0
C813 C 0.08715 0.9213 0.38148 0.0
C814 C 0.10354 0.93785 0.39175 0.0
H815 H 0.16171 0.00274 0.47965 0.0
H816 H 0.13871 0.9747 0.45975 0.0
H817 H 0.1624 0.95794 0.38828 0.0
H818 H 0.06557 0.90364 0.32953 0.0
H819 H 0.09513 0.92941 0.34586 0.0
C820 C 0.18278 0.99188 0.931 0.0
C821 C 0.18439 0.98954 0.95512 0.0
C822 C 0.16888 0.00848 0.92121 0.0
C823 C 0.11828 0.04676 0.93582 0.0
H824 H 0.13598 0.07171 0.87673 0.0
C825 C 0.06365 0.11681 0.89453 0.0
C826 C 0.05537 0.11275 0.87192 0.0
C827 C 0.08122 0.1034 0.90494 0.0
C828 C 0.13087 0.06485 0.89325 0.0
H829 H 0.17287 0.00339 0.9878 0.0
H830 H 0.14998 0.0329 0.97082 0.0
H831 H 0.16382 0.04574 0.89479 0.0
H832 H 0.05973 0.09202 0.84217 0.0
H833 H 0.09081 0.06887 0.86025 0.0
H834 H 0.0855 0.06623 0.93431 0.0
C835 C 0.15881 0.02151 0.95938 0.0
C836 C 0.1467 0.04987 0.90356 0.0
C837 C 0.17238 0.00472 0.96917 0.0
C838 C 0.06564 0.09547 0.85967 0.0
C839 C 0.08352 0.0823 0.86994 0.0
C840 C 0.10269 0.06199 0.92568 0.0
C841 C 0.15649 0.02343 0.93527 0.0
C842 C 0.14047 0.04039 0.92487 0.0
C843 C 0.09119 0.08595 0.89278 0.0
C844 C 0.10867 0.07097 0.90417 0.0
H845 H 0.19211 0.98078 0.91957 0.0
H846 H 0.16737 0.00921 0.90259 0.0
H847 H 0.1125 0.03956 0.95196 0.0
H848 H 0.05607 0.13 0.90441 0.0
H849 H 0.08695 0.10659 0.92255 0.0
C850 C 0.81758 0.99152 0.45347 0.0
C851 C 0.8216 0.01286 0.44678 0.0
C852 C 0.83124 0.97494 0.44326 0.0
C853 C 0.8907 0.96692 0.41239 0.0
H854 H 0.86467 0.91046 0.39851 0.0
C855 C 0.94569 0.90774 0.35771 0.0
C856 C 0.94865 0.88689 0.36645 0.0
C857 C 0.92853 0.92174 0.36751 0.0
C858 C 0.87217 0.92612 0.40251 0.0
H859 H 0.8416 0.03354 0.4232 0.0
H860 H 0.86483 0.00474 0.40492 0.0
H861 H 0.8371 0.93774 0.41501 0.0
H862 H 0.93495 0.8641 0.39173 0.0
H863 H 0.90464 0.88879 0.40886 0.0
H864 H 0.92556 0.95553 0.39964 0.0
C865 C 0.85187 0.00074 0.41857 0.0
C866 C 0.85644 0.94173 0.41195 0.0
C867 C 0.83846 0.01724 0.42891 0.0
C868 C 0.93324 0.8801 0.3847 0.0
C869 C 0.91584 0.89416 0.39443 0.0
C870 C 0.90626 0.95147 0.40285 0.0
C871 C 0.849 0.97946 0.42607 0.0
C872 C 0.86548 0.96242 0.4167 0.0
C873 C 0.91373 0.91526 0.3862 0.0
C874 C 0.89713 0.93101 0.39753 0.0
H875 H 0.80473 0.98777 0.46731 0.0
H876 H 0.82863 0.95876 0.4495 0.0
H877 H 0.89852 0.98244 0.41647 0.0
H878 H 0.95701 0.9135 0.34354 0.0
H879 H 0.927 0.9378 0.36056 0.0
C880 C 0.31767 0.37322 0.13928 0.0
C881 C 0.32234 0.36174 0.11891 0.0
C882 C 0.33093 0.36857 0.15947 0.0
C883 C 0.39038 0.34391 0.17759 0.0
H884 H 0.36316 0.35023 0.2392 0.0
C885 C 0.44876 0.32564 0.25841 0.0
C886 C 0.44868 0.34162 0.27549 0.0
C887 C 0.43135 0.32604 0.24049 0.0
C888 C 0.37098 0.34847 0.22208 0.0
H889 H 0.3432 0.33555 0.10396 0.0
H890 H 0.36579 0.32696 0.13927 0.0
H891 H 0.33587 0.35416 0.20565 0.0
H892 H 0.42949 0.37001 0.28769 0.0
H893 H 0.39909 0.37066 0.25635 0.0
H894 H 0.42544 0.33828 0.19397 0.0
C895 C 0.35256 0.34003 0.13957 0.0
C896 C 0.3554 0.35077 0.20286 0.0
C897 C 0.33954 0.34485 0.11937 0.0
C898 C 0.43017 0.35753 0.27473 0.0
C899 C 0.41265 0.35784 0.25687 0.0
C900 C 0.40585 0.34144 0.19676 0.0
C901 C 0.34893 0.3522 0.15972 0.0
C902 C 0.36496 0.34867 0.18036 0.0
C903 C 0.41336 0.34233 0.23934 0.0
C904 C 0.39639 0.34385 0.21919 0.0
H905 H 0.30459 0.38641 0.1393 0.0
H906 H 0.3278 0.37842 0.17457 0.0
H907 H 0.39857 0.34267 0.16057 0.0
H908 H 0.46264 0.31307 0.25853 0.0
H909 H 0.43214 0.31373 0.22736 0.0
C910 C 0.68534 0.62492 0.6378 0.0
C911 C 0.68113 0.6371 0.61778 0.0
C912 C 0.67195 0.62914 0.658 0.0
C913 C 0.61283 0.65417 0.67639 0.0
H914 H 0.63935 0.64571 0.73802 0.0
C915 C 0.55453 0.67184 0.75735 0.0
C916 C 0.55414 0.6556 0.77417 0.0
C917 C 0.57189 0.67134 0.73942 0.0
C918 C 0.63171 0.64806 0.72089 0.0
H919 H 0.66095 0.66404 0.60353 0.0
H920 H 0.63815 0.67187 0.63889 0.0
H921 H 0.66683 0.64219 0.7046 0.0
H922 H 0.57242 0.62655 0.78583 0.0
H923 H 0.60274 0.62572 0.75448 0.0
H924 H 0.57776 0.66001 0.69263 0.0
C925 C 0.65111 0.6586 0.63888 0.0
C926 C 0.6474 0.646 0.70174 0.0
C927 C 0.66425 0.65422 0.61865 0.0
C928 C 0.5721 0.63924 0.77309 0.0
C929 C 0.58959 0.63883 0.75523 0.0
C930 C 0.59724 0.65639 0.69549 0.0
C931 C 0.65427 0.64576 0.65863 0.0
C932 C 0.63811 0.64891 0.67923 0.0
C933 C 0.58938 0.65468 0.738 0.0
C934 C 0.60645 0.65323 0.71793 0.0
H935 H 0.69814 0.61153 0.6375 0.0
H936 H 0.67472 0.61878 0.67279 0.0
H937 H 0.60482 0.65603 0.65934 0.0
H938 H 0.54107 0.68475 0.75772 0.0
H939 H 0.57149 0.68391 0.72654 0.0
C940 C 0.68365 0.3533 0.13116 0.0
C941 C 0.68092 0.37301 0.11965 0.0
C942 C 0.67058 0.34916 0.15159 0.0
C943 C 0.63723 0.37624 0.19919 0.0
H944 H 0.60235 0.32223 0.20583 0.0
C945 C 0.55618 0.36556 0.26244 0.0
C946 C 0.55376 0.34616 0.27456 0.0
C947 C 0.57417 0.36793 0.24528 0.0
C948 C 0.61231 0.33725 0.20444 0.0
H949 H 0.66197 0.40367 0.12052 0.0
H950 H 0.63948 0.39654 0.1561 0.0
H951 H 0.62948 0.32803 0.17258 0.0
H952 H 0.56872 0.31409 0.2783 0.0
H953 H 0.6003 0.31829 0.24821 0.0
H954 H 0.61981 0.38563 0.23078 0.0
C955 C 0.65202 0.3844 0.14956 0.0
C956 C 0.62784 0.34058 0.18538 0.0
C957 C 0.66496 0.3885 0.12915 0.0
C958 C 0.57002 0.32923 0.26925 0.0
C959 C 0.58804 0.33159 0.25195 0.0
C960 C 0.62177 0.37291 0.21822 0.0
C961 C 0.6546 0.36468 0.161 0.0
C962 C 0.64006 0.36028 0.1823 0.0
C963 C 0.59026 0.35098 0.23975 0.0
C964 C 0.60871 0.35355 0.22082 0.0
H965 H 0.69602 0.34111 0.12448 0.0
H966 H 0.67313 0.33388 0.16012 0.0
H967 H 0.64679 0.39143 0.19755 0.0
H968 H 0.54403 0.37898 0.26606 0.0
H969 H 0.57509 0.38296 0.23599 0.0
C970 C 0.31934 0.64797 0.63142 0.0
C971 C 0.3228 0.62812 0.62046 0.0
C972 C 0.33081 0.6522 0.65266 0.0
C973 C 0.36121 0.62576 0.70256 0.0
H974 H 0.39921 0.67834 0.70743 0.0
C975 C 0.44432 0.63412 0.76372 0.0
C976 C 0.44832 0.6536 0.77529 0.0
C977 C 0.42552 0.63224 0.74725 0.0
C978 C 0.38834 0.66377 0.70656 0.0
H979 H 0.33996 0.59686 0.62357 0.0
H980 H 0.36001 0.60424 0.66041 0.0
H981 H 0.37185 0.67278 0.67429 0.0
H982 H 0.4353 0.68631 0.77883 0.0
H983 H 0.40235 0.68297 0.74984 0.0
H984 H 0.37817 0.61647 0.73446 0.0
C985 C 0.34845 0.61653 0.65273 0.0
C986 C 0.37265 0.66058 0.68757 0.0
C987 C 0.33719 0.61238 0.6315 0.0
C988 C 0.43279 0.6711 0.77017 0.0
C989 C 0.41397 0.66922 0.75353 0.0
C990 C 0.37684 0.62894 0.72151 0.0
C991 C 0.34567 0.63657 0.66342 0.0
C992 C 0.35945 0.64128 0.68507 0.0
C993 C 0.4102 0.64976 0.74185 0.0
C994 C 0.39111 0.64772 0.72341 0.0
H995 H 0.30841 0.66042 0.62324 0.0
H996 H 0.32822 0.66775 0.66057 0.0
H997 H 0.3509 0.6109 0.70133 0.0
H998 H 0.45585 0.62029 0.76726 0.0
H999 H 0.42339 0.61712 0.73831 0.0
C1000 C 0.8392 0.84447 0.11979 0.0
C1001 C 0.82217 0.86148 0.1189 0.0
C1002 C 0.85233 0.8401 0.14005 0.0
C1003 C 0.85585 0.85253 0.20297 0.0
H1004 H 0.92555 0.83874 0.19399 0.0
C1005 C 0.93133 0.85896 0.27443 0.0
C1006 C 0.94928 0.84259 0.2754 0.0
C1007 C 0.91374 0.85947 0.25662 0.0
C1008 C 0.90605 0.8423 0.19681 0.0
H1009 H 0.80485 0.88684 0.13862 0.0
H1010 H 0.82827 0.87963 0.17397 0.0
H1011 H 0.89853 0.84281 0.16065 0.0
H1012 H 0.96218 0.81348 0.25883 0.0
H1013 H 0.93161 0.81449 0.22776 0.0
H1014 H 0.86387 0.85267 0.23927 0.0
C1015 C 0.83117 0.86935 0.15917 0.0
C1016 C 0.89049 0.84457 0.17768 0.0
C1017 C 0.81778 0.87354 0.13893 0.0
C1018 C 0.94875 0.8264 0.25856 0.0
C1019 C 0.9313 0.827 0.24069 0.0
C1020 C 0.87154 0.85043 0.22215 0.0
C1021 C 0.84901 0.85285 0.15983 0.0
C1022 C 0.86518 0.84973 0.18046 0.0
C1023 C 0.91385 0.8437 0.23933 0.0
C1024 C 0.89681 0.8453 0.21924 0.0
H1025 H 0.84265 0.83474 0.10465 0.0
H1026 H 0.86541 0.82692 0.14007 0.0
H1027 H 0.83641 0.85626 0.20579 0.0
H1028 H 0.93112 0.87162 0.2872 0.0
H1029 H 0.90061 0.87261 0.25594 0.0
C1030 C 0.17429 0.11187 0.63454 0.0
C1031 C 0.18232 0.12929 0.62125 0.0
C1032 C 0.16165 0.11521 0.65526 0.0
C1033 C 0.14403 0.15679 0.69865 0.0
H1034 H 0.08982 0.11717 0.71011 0.0
C1035 C 0.0633 0.16989 0.7647 0.0
C1036 C 0.05735 0.15213 0.7786 0.0
C1037 C 0.08081 0.16802 0.74692 0.0
C1038 C 0.10503 0.12825 0.70725 0.0
H1039 H 0.18418 0.1638 0.61915 0.0
H1040 H 0.16119 0.16984 0.65505 0.0
H1041 H 0.11615 0.11219 0.6765 0.0
H1042 H 0.06589 0.11869 0.78521 0.0
H1043 H 0.09601 0.11545 0.75404 0.0
H1044 H 0.13192 0.17324 0.72921 0.0
C1045 C 0.16516 0.15355 0.64988 0.0
C1046 C 0.12027 0.12535 0.68804 0.0
C1047 C 0.17825 0.15015 0.6293 0.0
C1048 C 0.06987 0.13268 0.77479 0.0
C1049 C 0.08709 0.13077 0.75689 0.0
C1050 C 0.12847 0.15986 0.71777 0.0
C1051 C 0.15622 0.13608 0.66288 0.0
C1052 C 0.14014 0.13944 0.68354 0.0
C1053 C 0.09244 0.1483 0.74256 0.0
C1054 C 0.10896 0.14549 0.72231 0.0
H1055 H 0.17743 0.09563 0.62866 0.0
H1056 H 0.15574 0.10135 0.66508 0.0
H1057 H 0.15924 0.16786 0.69589 0.0
H1058 H 0.0541 0.18513 0.76727 0.0
H1059 H 0.08458 0.18176 0.73604 0.0
C1060 C 0.1668 0.88791 0.12872 0.0
C1061 C 0.1836 0.87263 0.12014 0.0
C1062 C 0.15208 0.88336 0.14793 0.0
C1063 C 0.14545 0.84786 0.19849 0.0
H1064 H 0.07647 0.86575 0.19451 0.0
C1065 C 0.06968 0.82802 0.26778 0.0
C1066 C 0.05378 0.84511 0.27345 0.0
C1067 C 0.08663 0.82996 0.24949 0.0
C1068 C 0.09572 0.86078 0.19597 0.0
H1069 H 0.1987 0.84082 0.12557 0.0
H1070 H 0.17262 0.83276 0.15908 0.0
H1071 H 0.10414 0.87192 0.16199 0.0
H1072 H 0.04402 0.87794 0.26493 0.0
H1073 H 0.07338 0.88125 0.23342 0.0
H1074 H 0.13681 0.8368 0.23268 0.0
C1075 C 0.17099 0.8483 0.15092 0.0
C1076 C 0.1116 0.86435 0.17735 0.0
C1077 C 0.18575 0.85285 0.13162 0.0
C1078 C 0.0557 0.86432 0.2609 0.0
C1079 C 0.07249 0.86622 0.24272 0.0
C1080 C 0.12948 0.84426 0.21721 0.0
C1081 C 0.1537 0.86339 0.15903 0.0
C1082 C 0.13675 0.85831 0.17852 0.0
C1083 C 0.08786 0.849 0.23654 0.0
C1084 C 0.10456 0.85106 0.21627 0.0
H1085 H 0.16444 0.9032 0.12017 0.0
H1086 H 0.13923 0.89547 0.15398 0.0
H1087 H 0.16477 0.84307 0.19992 0.0
H1088 H 0.06874 0.81304 0.27717 0.0
H1089 H 0.09827 0.81642 0.24509 0.0
C1090 C 0.82625 0.14744 0.62797 0.0
C1091 C 0.8307 0.12884 0.61497 0.0
C1092 C 0.84008 0.15155 0.64802 0.0
C1093 C 0.90007 0.13697 0.6749 0.0
H1094 H 0.87148 0.15951 0.73133 0.0
C1095 C 0.9531 0.13386 0.76023 0.0
C1096 C 0.95373 0.15247 0.77384 0.0
C1097 C 0.93699 0.13233 0.74143 0.0
C1098 C 0.87973 0.15344 0.71559 0.0
H1099 H 0.8519 0.09936 0.6135 0.0
H1100 H 0.87571 0.10635 0.64839 0.0
H1101 H 0.84495 0.1542 0.69734 0.0
H1102 H 0.93719 0.18382 0.77878 0.0
H1103 H 0.90884 0.18105 0.74574 0.0
H1104 H 0.93468 0.13587 0.69306 0.0
C1105 C 0.86215 0.11811 0.64284 0.0
C1106 C 0.86457 0.15041 0.69615 0.0
C1107 C 0.84847 0.11407 0.62287 0.0
C1108 C 0.93726 0.16931 0.76858 0.0
C1109 C 0.92096 0.1677 0.74974 0.0
C1110 C 0.91511 0.1399 0.69425 0.0
C1111 C 0.85851 0.13708 0.65541 0.0
C1112 C 0.87453 0.14176 0.67572 0.0
C1113 C 0.921 0.14932 0.73577 0.0
C1114 C 0.90505 0.1478 0.71492 0.0
H1115 H 0.81268 0.15911 0.62224 0.0
H1116 H 0.83688 0.16633 0.65731 0.0
H1117 H 0.90849 0.13083 0.65926 0.0
H1118 H 0.96532 0.12049 0.76384 0.0
H1119 H 0.93711 0.1178 0.73124 0.0
loop_
_geom_bond_atom_site_label_1
_geom_bond_atom_site_label_2
_geom_bond_distance
_geom_bond_site_symmetry_2
_ccdc_geom_bond_type
C0 C1 1.386 . S
C0 C2 1.397 . S
C0 H24 0.931 . S
C1 C0 1.386 . S
C1 C5 1.397 . S
C2 C0 1.397 . S
C2 C3 1.384 . S
C2 H25 0.930 . S
C3 C2 1.384 . S
C3 C4 1.377 . S
C3 C6 1.481 . S
C4 C3 1.377 . S
C4 C5 1.389 . S
C4 H26 0.929 . S
C5 C1 1.397 . S
C5 C4 1.389 . S
C5 H27 0.931 . S
C6 C3 1.481 . S
C6 C7 1.387 . S
C6 C11 1.390 1_556 S
C7 C6 1.387 . S
C7 C8 1.401 1_556 S
C7 H28 0.930 . S
C8 C7 1.401 1_554 S
C8 C9 1.376 . S
C8 C17 1.511 1_554 S
C9 C8 1.376 . S
C9 C10 1.392 . S
C9 H30 0.931 . S
C10 C9 1.392 . S
C10 C11 1.361 . S
C10 C12 1.500 . S
C11 C6 1.390 1_554 S
C11 C10 1.361 . S
C11 H29 0.931 . S
C12 C10 1.500 . S
C12 C13 1.371 . S
C12 C14 1.365 . S
C13 C12 1.371 . S
C13 C23 1.386 . S
C13 H31 0.931 . S
C14 C12 1.365 . S
C14 C15 1.409 . S
C14 H32 0.929 . S
C15 C14 1.409 . S
C15 C16 1.380 . S
C15 H33 0.930 . S
C16 C15 1.380 . S
C16 C23 1.357 . S
C17 C8 1.511 1_556 S
C17 C18 1.341 . S
C17 C19 1.387 . S
C18 C17 1.341 . S
C18 C22 1.394 . S
C18 H34 0.930 . S
C19 C17 1.387 . S
C19 C20 1.413 . S
C19 H35 0.896 1_556 S
C20 C19 1.413 . S
C20 C21 1.331 . S
C20 H38 0.932 . S
C21 C20 1.331 . S
C21 C22 1.336 . S
C22 C18 1.394 . S
C22 C21 1.336 . S
C22 H37 0.929 . S
C23 C13 1.386 . S
C23 C16 1.357 . S
C23 H36 0.928 . S
H24 C0 0.931 . S
H25 C2 0.930 . S
H26 C4 0.929 . S
H27 C5 0.931 . S
H28 C7 0.930 . S
H29 C11 0.931 . S
H30 C9 0.931 . S
H31 C13 0.931 . S
H32 C14 0.929 . S
H33 C15 0.930 . S
H34 C18 0.930 . S
H35 C19 0.896 1_554 S
H36 C23 0.928 . S
H37 C22 0.929 . S
H38 C20 0.932 . S
C39 C40 1.386 . S
C39 C41 1.397 . S
C39 H63 0.931 . S
C40 C39 1.386 . S
C40 C44 1.397 . S
C41 C39 1.397 . S
C41 C42 1.384 . S
C41 H64 0.930 . S
C42 C41 1.384 . S
C42 C43 1.377 . S
C42 C45 1.481 . S
C43 C42 1.377 . S
C43 C44 1.389 . S
C43 H65 0.929 . S
C44 C40 1.397 . S
C44 C43 1.389 . S
C44 H66 0.931 . S
C45 C42 1.481 . S
C45 C46 1.387 . S
C45 C50 1.390 . S
C46 C45 1.387 . S
C46 C47 1.401 . S
C46 H67 0.930 . S
C47 C46 1.401 . S
C47 C48 1.376 . S
C47 C56 1.511 . S
C48 C47 1.376 . S
C48 C49 1.392 . S
C48 H69 0.931 . S
C49 C48 1.392 . S
C49 C50 1.361 . S
C49 C51 1.500 . S
C50 C45 1.390 . S
C50 C49 1.361 . S
C50 H68 0.931 . S
C51 C49 1.500 . S
C51 C52 1.371 . S
C51 C53 1.365 . S
C52 C51 1.371 . S
C52 C62 1.386 . S
C52 H70 0.931 . S
C53 C51 1.365 . S
C53 C54 1.409 . S
C53 H71 0.929 . S
C54 C53 1.409 . S
C54 C55 1.380 . S
C54 H72 0.930 . S
C55 C54 1.380 . S
C55 C62 1.357 . S
C56 C47 1.511 . S
C56 C57 1.341 . S
C56 C58 1.371 . S
C57 C56 1.341 . S
C57 C61 1.394 . S
C57 H73 0.930 . S
C58 C56 1.371 . S
C58 C59 1.392 . S
C58 H74 0.931 . S
C59 C58 1.392 . S
C59 C60 1.331 . S
C59 H77 0.932 . S
C60 C59 1.331 . S
C60 C61 1.336 . S
C61 C57 1.394 . S
C61 C60 1.336 . S
C61 H76 0.929 . S
C62 C52 1.386 . S
C62 C55 1.357 . S
C62 H75 0.928 . S
H63 C39 0.931 . S
H64 C41 0.930 . S
H65 C43 0.929 . S
H66 C44 0.931 . S
H67 C46 0.930 . S
H68 C50 0.931 . S
H69 C48 0.931 . S
H70 C52 0.931 . S
H71 C53 0.929 . S
H72 C54 0.930 . S
H73 C57 0.930 . S
H74 C58 0.931 . S
H75 C62 0.928 . S
H76 C61 0.929 . S
H77 C59 0.932 . S
C78 C79 1.386 . S
C78 C80 1.397 . S
C78 H102 0.931 . S
C79 C78 1.386 . S
C79 C83 1.397 . S
C80 C78 1.397 . S
C80 C81 1.384 . S
C80 H103 0.930 . S
C81 C80 1.384 . S
C81 C82 1.377 . S
C81 C84 1.481 . S
C82 C81 1.377 . S
C82 C83 1.389 . S
C82 H104 0.929 1_556 S
C83 C79 1.397 . S
C83 C82 1.389 . S
C83 H105 0.931 . S
C84 C81 1.481 . S
C84 C85 1.387 . S
C84 C89 1.390 1_556 S
C85 C84 1.387 . S
C85 C86 1.423 . S
C85 H106 0.930 . S
C86 C85 1.423 . S
C86 C87 1.339 1_556 S
C86 C95 1.528 . S
C87 C86 1.339 1_554 S
C87 C88 1.392 . S
C87 H108 0.931 . S
C88 C87 1.392 . S
C88 C89 1.361 . S
C88 C90 1.500 . S
C89 C84 1.390 1_554 S
C89 C88 1.361 . S
C89 H107 0.931 . S
C90 C88 1.500 . S
C90 C91 1.371 . S
C90 C92 1.365 . S
C91 C90 1.371 . S
C91 C101 1.386 . S
C91 H109 0.931 . S
C92 C90 1.365 . S
C92 C93 1.409 . S
C92 H110 0.929 . S
C93 C92 1.409 . S
C93 C94 1.380 . S
C93 H111 0.930 . S
C94 C93 1.380 . S
C94 C101 1.357 . S
C95 C86 1.528 . S
C95 C96 1.341 . S
C95 C97 1.371 1_556 S
C96 C95 1.341 . S
C96 C100 1.394 . S
C96 H112 0.930 . S
C97 C95 1.371 1_554 S
C97 C98 1.392 1_554 S
C97 H113 0.931 . S
C98 C97 1.392 1_556 S
C98 C99 1.331 . S
C98 H116 0.932 1_556 S
C99 C98 1.331 . S
C99 C100 1.336 . S
C100 C96 1.394 . S
C100 C99 1.336 . S
C100 H115 0.929 . S
C101 C91 1.386 . S
C101 C94 1.357 . S
C101 H114 0.928 . S
H102 C78 0.931 . S
H103 C80 0.930 . S
H104 C82 0.929 1_554 S
H105 C83 0.931 . S
H106 C85 0.930 . S
H107 C89 0.931 . S
H108 C87 0.931 . S
H109 C91 0.931 . S
H110 C92 0.929 . S
H111 C93 0.930 . S
H112 C96 0.930 . S
H113 C97 0.931 . S
H114 C101 0.928 . S
H115 C100 0.929 . S
H116 C98 0.932 1_554 S
C117 C118 1.386 . S
C117 C119 1.397 . S
C117 H141 0.931 . S
C118 C117 1.386 . S
C118 C122 1.397 . S
C119 C117 1.397 . S
C119 C120 1.384 . S
C119 H142 0.930 . S
C120 C119 1.384 . S
C120 C121 1.377 . S
C120 C123 1.481 . S
C121 C120 1.377 . S
C121 C122 1.389 . S
C121 H143 0.929 . S
C122 C118 1.397 . S
C122 C121 1.389 . S
C122 H144 0.931 . S
C123 C120 1.481 . S
C123 C124 1.387 . S
C123 C128 1.390 . S
C124 C123 1.387 . S
C124 C125 1.401 . S
C124 H145 0.930 . S
C125 C124 1.401 . S
C125 C126 1.376 . S
C125 C134 1.511 . S
C126 C125 1.376 . S
C126 C127 1.392 . S
C126 H147 0.931 . S
C127 C126 1.392 . S
C127 C128 1.361 . S
C127 C129 1.500 . S
C128 C123 1.390 . S
C128 C127 1.361 . S
C128 H146 0.931 . S
C129 C127 1.500 . S
C129 C130 1.371 . S
C129 C131 1.365 . S
C130 C129 1.371 . S
C130 C140 1.386 . S
C130 H148 0.931 . S
C131 C129 1.365 . S
C131 C132 1.409 . S
C131 H149 0.929 . S
C132 C131 1.409 . S
C132 C133 1.380 . S
C132 H150 0.930 . S
C133 C132 1.380 . S
C133 C140 1.357 . S
C134 C125 1.511 . S
C134 C135 1.341 . S
C134 C136 1.371 . S
C135 C134 1.341 . S
C135 C139 1.394 . S
C135 H151 0.930 . S
C136 C134 1.371 . S
C136 C137 1.392 . S
C136 H152 0.931 . S
C137 C136 1.392 . S
C137 C138 1.331 . S
C137 H155 0.932 . S
C138 C137 1.331 . S
C138 C139 1.336 . S
C139 C135 1.394 . S
C139 C138 1.336 . S
C139 H154 0.929 . S
C140 C130 1.386 . S
C140 C133 1.357 . S
C140 H153 0.928 . S
H141 C117 0.931 . S
H142 C119 0.930 . S
H143 C121 0.929 . S
H144 C122 0.931 . S
H145 C124 0.930 . S
H146 C128 0.931 . S
H147 C126 0.931 . S
H148 C130 0.931 . S
H149 C131 0.929 . S
H150 C132 0.930 . S
H151 C135 0.930 . S
H152 C136 0.931 . S
H153 C140 0.928 . S
H154 C139 0.929 . S
H155 C137 0.932 . S
C156 C157 1.386 . S
C156 C158 1.397 . S
C156 H180 0.931 . S
C157 C156 1.386 . S
C157 C161 1.397 . S
C158 C156 1.397 . S
C158 C159 1.384 . S
C158 H181 0.930 . S
C159 C158 1.384 . S
C159 C160 1.377 . S
C159 C162 1.481 . S
C160 C159 1.377 . S
C160 C161 1.389 . S
C160 H182 0.929 . S
C161 C157 1.397 . S
C161 C160 1.389 . S
C161 H183 0.931 . S
C162 C159 1.481 . S
C162 C163 1.387 . S
C162 C167 1.390 1_556 S
C163 C162 1.387 . S
C163 C164 1.401 1_556 S
C163 H184 0.930 . S
C164 C163 1.401 1_554 S
C164 C165 1.376 . S
C164 C173 1.511 1_554 S
C165 C164 1.376 . S
C165 C166 1.392 . S
C165 H186 0.931 . S
C166 C165 1.392 . S
C166 C167 1.361 . S
C166 C168 1.500 . S
C167 C162 1.390 1_554 S
C167 C166 1.361 . S
C167 H185 0.931 . S
C168 C166 1.500 . S
C168 C169 1.371 . S
C168 C170 1.365 . S
C169 C168 1.371 . S
C169 C179 1.386 . S
C169 H187 0.931 . S
C170 C168 1.365 . S
C170 C171 1.409 . S
C170 H188 0.929 . S
C171 C170 1.409 . S
C171 C172 1.380 . S
C171 H189 0.930 . S
C172 C171 1.380 . S
C172 C179 1.357 . S
C173 C164 1.511 1_556 S
C173 C174 1.341 . S
C173 C175 1.387 . S
C174 C173 1.341 . S
C174 C178 1.394 . S
C174 H190 0.930 . S
C175 C173 1.387 . S
C175 C176 1.413 . S
C175 H191 0.896 1_556 S
C176 C175 1.413 . S
C176 C177 1.331 . S
C176 H194 0.932 . S
C177 C176 1.331 . S
C177 C178 1.336 . S
C178 C174 1.394 . S
C178 C177 1.336 . S
C178 H193 0.929 . S
C179 C169 1.386 . S
C179 C172 1.357 . S
C179 H192 0.928 . S
H180 C156 0.931 . S
H181 C158 0.930 . S
H182 C160 0.929 . S
H183 C161 0.931 . S
H184 C163 0.930 . S
H185 C167 0.931 . S
H186 C165 0.931 . S
H187 C169 0.931 . S
H188 C170 0.929 . S
H189 C171 0.930 . S
H190 C174 0.930 . S
H191 C175 0.896 1_554 S
H192 C179 0.928 . S
H193 C178 0.929 . S
H194 C176 0.932 . S
C195 C196 1.386 . S
C195 C197 1.397 . S
C195 H219 0.931 . S
C196 C195 1.386 . S
C196 C200 1.397 . S
C197 C195 1.397 . S
C197 C198 1.384 . S
C197 H220 0.930 . S
C198 C197 1.384 . S
C198 C199 1.377 . S
C198 C201 1.481 . S
C199 C198 1.377 . S
C199 C200 1.389 . S
C199 H221 0.929 . S
C200 C196 1.397 . S
C200 C199 1.389 . S
C200 H222 0.931 . S
C201 C198 1.481 . S
C201 C202 1.387 . S
C201 C206 1.390 . S
C202 C201 1.387 . S
C202 C203 1.401 . S
C202 H223 0.930 . S
C203 C202 1.401 . S
C203 C204 1.376 . S
C203 C212 1.511 . S
C204 C203 1.376 . S
C204 C205 1.392 . S
C204 H225 0.931 . S
C205 C204 1.392 . S
C205 C206 1.361 . S
C205 C207 1.500 . S
C206 C201 1.390 . S
C206 C205 1.361 . S
C206 H224 0.931 . S
C207 C205 1.500 . S
C207 C208 1.371 . S
C207 C209 1.365 . S
C208 C207 1.371 . S
C208 C218 1.386 . S
C208 H226 0.931 . S
C209 C207 1.365 . S
C209 C210 1.409 . S
C209 H227 0.929 . S
C210 C209 1.409 . S
C210 C211 1.380 . S
C210 H228 0.930 . S
C211 C210 1.380 . S
C211 C218 1.357 . S
C212 C203 1.511 . S
C212 C213 1.341 . S
C212 C214 1.371 . S
C213 C212 1.341 . S
C213 C217 1.394 . S
C213 H229 0.930 . S
C214 C212 1.371 . S
C214 C215 1.392 . S
C214 H230 0.931 . S
C215 C214 1.392 . S
C215 C216 1.331 . S
C215 H233 0.932 . S
C216 C215 1.331 . S
C216 C217 1.336 . S
C217 C213 1.394 . S
C217 C216 1.336 . S
C217 H232 0.929 . S
C218 C208 1.386 . S
C218 C211 1.357 . S
C218 H231 0.928 . S
H219 C195 0.931 . S
H220 C197 0.930 . S
H221 C199 0.929 . S
H222 C200 0.931 . S
H223 C202 0.930 . S
H224 C206 0.931 . S
H225 C204 0.931 . S
H226 C208 0.931 . S
H227 C209 0.929 . S
H228 C210 0.930 . S
H229 C213 0.930 . S
H230 C214 0.931 . S
H231 C218 0.928 . S
H232 C217 0.929 . S
H233 C215 0.932 . S
C234 C235 1.386 . S
C234 C236 1.397 . S
C234 H258 0.931 . S
C235 C234 1.386 . S
C235 C239 1.397 . S
C236 C234 1.397 . S
C236 C237 1.384 . S
C236 H259 0.930 . S
C237 C236 1.384 . S
C237 C238 1.377 . S
C237 C240 1.481 . S
C238 C237 1.377 . S
C238 C239 1.389 . S
C238 H260 0.929 1_556 S
C239 C235 1.397 . S
C239 C238 1.389 . S
C239 H261 0.931 . S
C240 C237 1.481 . S
C240 C241 1.387 . S
C240 C245 1.390 1_556 S
C241 C240 1.387 . S
C241 C242 1.423 . S
C241 H262 0.930 . S
C242 C241 1.423 . S
C242 C243 1.339 1_556 S
C242 C251 1.528 . S
C243 C242 1.339 1_554 S
C243 C244 1.392 . S
C243 H264 0.931 . S
C244 C243 1.392 . S
C244 C245 1.361 . S
C244 C246 1.500 . S
C245 C240 1.390 1_554 S
C245 C244 1.361 . S
C245 H263 0.931 . S
C246 C244 1.500 . S
C246 C247 1.371 . S
C246 C248 1.365 . S
C247 C246 1.371 . S
C247 C257 1.386 . S
C247 H265 0.931 . S
C248 C246 1.365 . S
C248 C249 1.409 . S
C248 H266 0.929 . S
C249 C248 1.409 . S
C249 C250 1.380 . S
C249 H267 0.930 . S
C250 C249 1.380 . S
C250 C257 1.357 . S
C251 C242 1.528 . S
C251 C252 1.341 . S
C251 C253 1.371 1_556 S
C252 C251 1.341 . S
C252 C256 1.394 . S
C252 H268 0.930 . S
C253 C251 1.371 1_554 S
C253 C254 1.392 1_554 S
C253 H269 0.931 . S
C254 C253 1.392 1_556 S
C254 C255 1.331 . S
C254 H272 0.932 1_556 S
C255 C254 1.331 . S
C255 C256 1.336 . S
C256 C252 1.394 . S
C256 C255 1.336 . S
C256 H271 0.929 . S
C257 C247 1.386 . S
C257 C250 1.357 . S
C257 H270 0.928 . S
H258 C234 0.931 . S
H259 C236 0.930 . S
H260 C238 0.929 1_554 S
H261 C239 0.931 . S
H262 C241 0.930 . S
H263 C245 0.931 . S
H264 C243 0.931 . S
H265 C247 0.931 . S
H266 C248 0.929 . S
H267 C249 0.930 . S
H268 C252 0.930 . S
H269 C253 0.931 . S
H270 C257 0.928 . S
H271 C256 0.929 . S
H272 C254 0.932 1_554 S
C273 C274 1.386 . S
C273 C275 1.397 . S
C273 H297 0.931 . S
C274 C273 1.386 . S
C274 C278 1.397 . S
C275 C273 1.397 . S
C275 C276 1.384 . S
C275 H298 0.930 . S
C276 C275 1.384 . S
C276 C277 1.377 . S
C276 C279 1.481 . S
C277 C276 1.377 . S
C277 C278 1.389 . S
C277 H299 0.929 . S
C278 C274 1.397 . S
C278 C277 1.389 . S
C278 H300 0.931 . S
C279 C276 1.481 . S
C279 C280 1.387 . S
C279 C284 1.390 . S
C280 C279 1.387 . S
C280 C281 1.401 . S
C280 H301 0.930 . S
C281 C280 1.401 . S
C281 C282 1.376 . S
C281 C290 1.511 . S
C282 C281 1.376 . S
C282 C283 1.392 . S
C282 H303 0.931 . S
C283 C282 1.392 . S
C283 C284 1.361 . S
C283 C285 1.500 . S
C284 C279 1.390 . S
C284 C283 1.361 . S
C284 H302 0.931 . S
C285 C283 1.500 . S
C285 C286 1.371 . S
C285 C287 1.365 . S
C286 C285 1.371 . S
C286 C296 1.386 . S
C286 H304 0.931 . S
C287 C285 1.365 . S
C287 C288 1.409 . S
C287 H305 0.929 . S
C288 C287 1.409 . S
C288 C289 1.380 . S
C288 H306 0.930 . S
C289 C288 1.380 . S
C289 C296 1.357 . S
C290 C281 1.511 . S
C290 C291 1.341 . S
C290 C292 1.371 . S
C291 C290 1.341 . S
C291 C295 1.394 . S
C291 H307 0.930 . S
C292 C290 1.371 . S
C292 C293 1.392 . S
C292 H308 0.931 . S
C293 C292 1.392 . S
C293 C294 1.331 . S
C293 H311 0.932 . S
C294 C293 1.331 . S
C294 C295 1.336 . S
C295 C291 1.394 . S
C295 C294 1.336 . S
C295 H310 0.929 . S
C296 C286 1.386 . S
C296 C289 1.357 . S
C296 H309 0.928 . S
H297 C273 0.931 . S
H298 C275 0.930 . S
H299 C277 0.929 . S
H300 C278 0.931 . S
H301 C280 0.930 . S
H302 C284 0.931 . S
H303 C282 0.931 . S
H304 C286 0.931 . S
H305 C287 0.929 . S
H306 C288 0.930 . S
H307 C291 0.930 . S
H308 C292 0.931 . S
H309 C296 0.928 . S
H310 C295 0.929 . S
H311 C293 0.932 . S
Fe312 O314 1.918 . S
Fe312 O317 1.997 1_455 S
Fe312 O318 2.002 1_455 S
Fe312 O323 1.976 . S
Fe312 O326 1.996 . S
Fe313 O314 1.918 . S
Fe313 O321 1.997 1_455 S
Fe313 O324 1.996 . S
Fe313 O328 1.976 . S
Fe313 O331 2.002 1_455 S
O314 Fe312 1.918 . S
O314 Fe313 1.918 . S
O314 Fe315 1.918 . S
Fe315 O314 1.918 . S
Fe315 O316 2.002 1_455 S
Fe315 O325 1.976 . S
Fe315 O329 1.996 . S
Fe315 O332 1.997 1_455 S
O316 Fe315 2.002 1_655 S
O316 C333 1.295 . S
O317 Fe312 1.997 1_655 S
O317 C333 1.235 . S
O318 Fe312 2.002 1_655 S
O318 C319 1.295 . S
C319 O318 1.295 . S
C319 O321 1.235 . S
C320 O325 1.287 . S
C320 O326 1.255 . S
O321 Fe313 1.997 1_655 S
O321 C319 1.235 . S
C322 O328 1.287 . S
C322 O329 1.255 . S
O323 Fe312 1.976 . S
O323 C330 1.287 . S
O324 Fe313 1.996 . S
O324 C330 1.255 . S
O325 Fe315 1.976 . S
O325 C320 1.287 . S
O326 Fe312 1.996 . S
O326 C320 1.255 . S
C327 O331 1.295 . S
C327 O332 1.235 . S
O328 Fe313 1.976 . S
O328 C322 1.287 . S
O329 Fe315 1.996 . S
O329 C322 1.255 . S
C330 O323 1.287 . S
C330 O324 1.255 . S
O331 Fe313 2.002 1_655 S
O331 C327 1.295 . S
O332 Fe315 1.997 1_655 S
O332 C327 1.235 . S
C333 O316 1.295 . S
C333 O317 1.235 . S
Fe334 O336 1.918 1_455 S
Fe334 O339 1.996 . S
Fe334 O340 2.002 . S
Fe334 O345 1.976 1_455 S
Fe334 O348 1.996 1_455 S
Fe335 O336 1.918 1_455 S
Fe335 O343 1.996 . S
Fe335 O346 1.996 1_455 S
Fe335 O350 1.977 1_455 S
Fe335 O353 2.002 . S
O336 Fe334 1.918 1_655 S
O336 Fe335 1.918 1_655 S
O336 Fe337 1.918 1_655 S
Fe337 O336 1.918 1_455 S
Fe337 O338 2.003 . S
Fe337 O347 1.976 1_455 S
Fe337 O351 1.995 1_455 S
Fe337 O354 1.997 . S
O338 Fe337 2.003 . S
O338 C355 1.295 . S
O339 Fe334 1.996 . S
O339 C355 1.235 . S
O340 Fe334 2.002 . S
O340 C341 1.295 . S
C341 O340 1.295 . S
C341 O343 1.235 . S
C342 O347 1.287 . S
C342 O348 1.255 . S
O343 Fe335 1.996 . S
O343 C341 1.235 . S
C344 O350 1.287 . S
C344 O351 1.255 . S
O345 Fe334 1.976 1_655 S
O345 C352 1.287 . S
O346 Fe335 1.996 1_655 S
O346 C352 1.255 . S
O347 Fe337 1.976 1_655 S
O347 C342 1.287 . S
O348 Fe334 1.996 1_655 S
O348 C342 1.255 . S
C349 O353 1.295 . S
C349 O354 1.235 . S
O350 Fe335 1.977 1_655 S
O350 C344 1.287 . S
O351 Fe337 1.995 1_655 S
O351 C344 1.255 . S
C352 O345 1.287 . S
C352 O346 1.255 . S
O353 Fe335 2.002 . S
O353 C349 1.295 . S
O354 Fe337 1.997 . S
O354 C349 1.235 . S
C355 O338 1.295 . S
C355 O339 1.235 . S
Fe356 O358 1.918 . S
Fe356 O361 1.997 . S
Fe356 O362 2.002 . S
Fe356 O367 1.976 . S
Fe356 O370 1.996 . S
Fe357 O358 1.918 . S
Fe357 O365 1.997 . S
Fe357 O368 1.996 . S
Fe357 O372 1.976 . S
Fe357 O375 2.002 . S
O358 Fe356 1.918 . S
O358 Fe357 1.918 . S
O358 Fe359 1.918 . S
Fe359 O358 1.918 . S
Fe359 O360 2.002 . S
Fe359 O369 1.976 . S
Fe359 O373 1.996 . S
Fe359 O376 1.997 . S
O360 Fe359 2.002 . S
O360 C377 1.295 . S
O361 Fe356 1.997 . S
O361 C377 1.235 . S
O362 Fe356 2.002 . S
O362 C363 1.295 . S
C363 O362 1.295 . S
C363 O365 1.235 . S
C364 O369 1.287 . S
C364 O370 1.255 . S
O365 Fe357 1.997 . S
O365 C363 1.235 . S
C366 O372 1.287 . S
C366 O373 1.255 . S
O367 Fe356 1.976 . S
O367 C374 1.287 . S
O368 Fe357 1.996 . S
O368 C374 1.255 . S
O369 Fe359 1.976 . S
O369 C364 1.287 . S
O370 Fe356 1.996 . S
O370 C364 1.255 . S
C371 O375 1.295 . S
C371 O376 1.235 . S
O372 Fe357 1.976 . S
O372 C366 1.287 . S
O373 Fe359 1.996 . S
O373 C366 1.255 . S
C374 O367 1.287 . S
C374 O368 1.255 . S
O375 Fe357 2.002 . S
O375 C371 1.295 . S
O376 Fe359 1.997 . S
O376 C371 1.235 . S
C377 O360 1.295 . S
C377 O361 1.235 . S
Fe378 O380 1.918 . S
Fe378 O383 1.997 . S
Fe378 O384 2.002 . S
Fe378 O389 1.976 . S
Fe378 O392 1.996 . S
Fe379 O380 1.918 . S
Fe379 O387 1.997 . S
Fe379 O390 1.996 . S
Fe379 O394 1.976 . S
Fe379 O397 2.002 . S
O380 Fe378 1.918 . S
O380 Fe379 1.918 . S
O380 Fe381 1.918 . S
Fe381 O380 1.918 . S
Fe381 O382 2.002 . S
Fe381 O391 1.976 . S
Fe381 O395 1.996 . S
Fe381 O398 1.997 . S
O382 Fe381 2.002 . S
O382 C399 1.295 . S
O383 Fe378 1.997 . S
O383 C399 1.235 . S
O384 Fe378 2.002 . S
O384 C385 1.295 . S
C385 O384 1.295 . S
C385 O387 1.235 . S
C386 O391 1.287 . S
C386 O392 1.255 . S
O387 Fe379 1.997 . S
O387 C385 1.235 . S
C388 O394 1.287 . S
C388 O395 1.255 . S
O389 Fe378 1.976 . S
O389 C396 1.287 . S
O390 Fe379 1.996 . S
O390 C396 1.255 . S
O391 Fe381 1.976 . S
O391 C386 1.287 . S
O392 Fe378 1.996 . S
O392 C386 1.255 . S
C393 O397 1.295 . S
C393 O398 1.235 . S
O394 Fe379 1.976 . S
O394 C388 1.287 . S
O395 Fe381 1.996 . S
O395 C388 1.255 . S
C396 O389 1.287 . S
C396 O390 1.255 . S
O397 Fe379 2.002 . S
O397 C393 1.295 . S
O398 Fe381 1.997 . S
O398 C393 1.235 . S
C399 O382 1.295 . S
C399 O383 1.235 . S
C400 C401 1.349 . S
C400 C402 1.327 . S
C400 H425 0.950 . S
C401 C400 1.349 . S
C401 C417 1.349 . S
C402 C400 1.327 . S
C402 C421 1.429 . S
C402 H426 0.950 . S
C403 C420 1.574 . S
C403 C422 1.368 . S
C403 H427 0.949 . S
H404 C408 0.949 . S
C405 C406 1.349 . S
C405 C407 1.327 . S
C405 H428 0.950 . S
C406 C405 1.349 . S
C406 C418 1.349 . S
C407 C405 1.327 . S
C407 C423 1.429 . S
C407 H429 0.950 . S
C408 H404 0.949 . S
C408 C416 1.574 . S
C408 C424 1.368 . S
H409 C417 0.950 . S
H410 C415 0.950 . S
H411 C416 0.949 . S
H412 C418 0.950 . S
H413 C419 0.950 . S
H414 C420 0.949 . S
C415 H410 0.950 . S
C415 C417 1.327 . S
C415 C421 1.429 . S
C416 C408 1.574 . S
C416 H411 0.949 . S
C416 C422 1.368 . S
C417 C401 1.349 . S
C417 H409 0.950 . S
C417 C415 1.327 . S
C418 C406 1.349 . S
C418 H412 0.950 . S
C418 C419 1.327 . S
C419 H413 0.950 . S
C419 C418 1.327 . S
C419 C423 1.429 . S
C420 C403 1.574 . S
C420 H414 0.949 . S
C420 C424 1.368 . S
C421 C402 1.429 . S
C421 C415 1.429 . S
C421 C422 1.523 . S
C422 C403 1.368 . S
C422 C416 1.368 . S
C422 C421 1.523 . S
C423 C407 1.429 . S
C423 C419 1.429 . S
C423 C424 1.523 . S
C424 C408 1.368 . S
C424 C420 1.368 . S
C424 C423 1.523 . S
H425 C400 0.950 . S
H426 C402 0.950 . S
H427 C403 0.949 . S
H428 C405 0.950 . S
H429 C407 0.950 . S
C430 C431 1.349 . S
C430 C432 1.327 . S
C430 H455 0.950 . S
C431 C430 1.349 . S
C431 C447 1.349 . S
C432 C430 1.327 . S
C432 C451 1.429 . S
C432 H456 0.950 . S
C433 C450 1.574 . S
C433 C452 1.368 . S
C433 H457 0.949 . S
H434 C438 0.949 . S
C435 C436 1.349 . S
C435 C437 1.327 . S
C435 H458 0.950 . S
C436 C435 1.349 . S
C436 C448 1.349 . S
C437 C435 1.327 . S
C437 C453 1.429 . S
C437 H459 0.950 . S
C438 H434 0.949 . S
C438 C446 1.574 . S
C438 C454 1.368 . S
H439 C447 0.950 . S
H440 C445 0.950 . S
H441 C446 0.949 . S
H442 C448 0.950 . S
H443 C449 0.950 . S
H444 C450 0.949 . S
C445 H440 0.950 . S
C445 C447 1.327 . S
C445 C451 1.429 . S
C446 C438 1.574 . S
C446 H441 0.949 . S
C446 C452 1.368 . S
C447 C431 1.349 . S
C447 H439 0.950 . S
C447 C445 1.327 . S
C448 C436 1.349 . S
C448 H442 0.950 . S
C448 C449 1.327 . S
C449 H443 0.950 . S
C449 C448 1.327 . S
C449 C453 1.429 . S
C450 C433 1.574 . S
C450 H444 0.949 . S
C450 C454 1.368 . S
C451 C432 1.429 . S
C451 C445 1.429 . S
C451 C452 1.523 . S
C452 C433 1.368 . S
C452 C446 1.368 . S
C452 C451 1.523 . S
C453 C437 1.429 . S
C453 C449 1.429 . S
C453 C454 1.523 . S
C454 C438 1.368 . S
C454 C450 1.368 . S
C454 C453 1.523 . S
H455 C430 0.950 . S
H456 C432 0.950 . S
H457 C433 0.949 . S
H458 C435 0.950 . S
H459 C437 0.950 . S
C460 C461 1.349 . S
C460 C462 1.327 . S
C460 H485 0.950 . S
C461 C460 1.349 . S
C461 C477 1.349 . S
C462 C460 1.327 . S
C462 C481 1.429 . S
C462 H486 0.950 . S
C463 C480 1.574 . S
C463 C482 1.368 . S
C463 H487 0.949 . S
H464 C468 0.949 . S
C465 C466 1.349 . S
C465 C467 1.327 . S
C465 H488 0.950 . S
C466 C465 1.349 . S
C466 C478 1.349 . S
C467 C465 1.327 . S
C467 C483 1.429 . S
C467 H489 0.950 . S
C468 H464 0.949 . S
C468 C476 1.574 . S
C468 C484 1.368 . S
H469 C477 0.950 . S
H470 C475 0.950 . S
H471 C476 0.949 . S
H472 C478 0.950 . S
H473 C479 0.950 . S
H474 C480 0.949 . S
C475 H470 0.950 . S
C475 C477 1.327 . S
C475 C481 1.429 . S
C476 C468 1.574 . S
C476 H471 0.949 . S
C476 C482 1.368 . S
C477 C461 1.349 . S
C477 H469 0.950 . S
C477 C475 1.327 . S
C478 C466 1.349 . S
C478 H472 0.950 . S
C478 C479 1.327 . S
C479 H473 0.950 . S
C479 C478 1.327 . S
C479 C483 1.429 . S
C480 C463 1.574 . S
C480 H474 0.949 . S
C480 C484 1.368 . S
C481 C462 1.429 . S
C481 C475 1.429 . S
C481 C482 1.523 . S
C482 C463 1.368 . S
C482 C476 1.368 . S
C482 C481 1.523 . S
C483 C467 1.429 . S
C483 C479 1.429 . S
C483 C484 1.523 . S
C484 C468 1.368 . S
C484 C480 1.368 . S
C484 C483 1.523 . S
H485 C460 0.950 . S
H486 C462 0.950 . S
H487 C463 0.949 . S
H488 C465 0.950 . S
H489 C467 0.950 . S
C490 C491 1.349 . S
C490 C492 1.327 . S
C490 H515 0.950 . S
C491 C490 1.349 . S
C491 C507 1.349 . S
C492 C490 1.327 . S
C492 C511 1.429 . S
C492 H516 0.950 . S
C493 C510 1.574 . S
C493 C512 1.368 . S
C493 H517 0.949 . S
H494 C498 0.949 . S
C495 C496 1.349 . S
C495 C497 1.327 . S
C495 H518 0.950 . S
C496 C495 1.349 . S
C496 C508 1.349 . S
C497 C495 1.327 . S
C497 C513 1.429 . S
C497 H519 0.950 . S
C498 H494 0.949 . S
C498 C506 1.574 . S
C498 C514 1.368 . S
H499 C507 0.950 . S
H500 C505 0.950 . S
H501 C506 0.949 . S
H502 C508 0.950 . S
H503 C509 0.950 . S
H504 C510 0.949 . S
C505 H500 0.950 . S
C505 C507 1.327 . S
C505 C511 1.429 . S
C506 C498 1.574 . S
C506 H501 0.949 . S
C506 C512 1.368 . S
C507 C491 1.349 . S
C507 H499 0.950 . S
C507 C505 1.327 . S
C508 C496 1.349 . S
C508 H502 0.950 . S
C508 C509 1.327 . S
C509 H503 0.950 . S
C509 C508 1.327 . S
C509 C513 1.429 . S
C510 C493 1.574 . S
C510 H504 0.949 . S
C510 C514 1.368 . S
C511 C492 1.429 . S
C511 C505 1.429 . S
C511 C512 1.523 . S
C512 C493 1.368 . S
C512 C506 1.368 . S
C512 C511 1.523 . S
C513 C497 1.429 . S
C513 C509 1.429 . S
C513 C514 1.523 . S
C514 C498 1.368 . S
C514 C510 1.368 . S
C514 C513 1.523 . S
H515 C490 0.950 . S
H516 C492 0.950 . S
H517 C493 0.949 . S
H518 C495 0.950 . S
H519 C497 0.950 . S
C520 C521 1.349 . S
C520 C522 1.327 . S
C520 H545 0.950 . S
C521 C520 1.349 . S
C521 C537 1.349 . S
C522 C520 1.327 . S
C522 C541 1.429 . S
C522 H546 0.950 . S
C523 C540 1.574 . S
C523 C542 1.368 . S
C523 H547 0.949 . S
H524 C528 0.949 . S
C525 C526 1.349 . S
C525 C527 1.327 . S
C525 H548 0.950 . S
C526 C525 1.349 . S
C526 C538 1.349 . S
C527 C525 1.327 . S
C527 C543 1.429 . S
C527 H549 0.950 . S
C528 H524 0.949 . S
C528 C536 1.574 . S
C528 C544 1.368 . S
H529 C537 0.950 . S
H530 C535 0.950 . S
H531 C536 0.949 . S
H532 C538 0.950 . S
H533 C539 0.950 . S
H534 C540 0.949 . S
C535 H530 0.950 . S
C535 C537 1.327 . S
C535 C541 1.429 . S
C536 C528 1.574 . S
C536 H531 0.949 . S
C536 C542 1.368 . S
C537 C521 1.349 . S
C537 H529 0.950 . S
C537 C535 1.327 . S
C538 C526 1.349 . S
C538 H532 0.950 . S
C538 C539 1.327 . S
C539 H533 0.950 . S
C539 C538 1.327 . S
C539 C543 1.429 . S
C540 C523 1.574 . S
C540 H534 0.949 . S
C540 C544 1.368 . S
C541 C522 1.429 . S
C541 C535 1.429 . S
C541 C542 1.523 . S
C542 C523 1.368 . S
C542 C536 1.368 . S
C542 C541 1.523 . S
C543 C527 1.429 . S
C543 C539 1.429 . S
C543 C544 1.523 . S
C544 C528 1.368 . S
C544 C540 1.368 . S
C544 C543 1.523 . S
H545 C520 0.950 . S
H546 C522 0.950 . S
H547 C523 0.949 . S
H548 C525 0.950 . S
H549 C527 0.950 . S
C550 C551 1.349 . S
C550 C552 1.327 . S
C550 H575 0.950 . S
C551 C550 1.349 . S
C551 C567 1.349 . S
C552 C550 1.327 . S
C552 C571 1.429 . S
C552 H576 0.950 . S
C553 C570 1.574 . S
C553 C572 1.368 . S
C553 H577 0.949 . S
H554 C558 0.949 . S
C555 C556 1.349 . S
C555 C557 1.327 . S
C555 H578 0.950 . S
C556 C555 1.349 . S
C556 C568 1.349 . S
C557 C555 1.327 . S
C557 C573 1.429 . S
C557 H579 0.950 . S
C558 H554 0.949 . S
C558 C566 1.574 . S
C558 C574 1.368 . S
H559 C567 0.950 . S
H560 C565 0.950 . S
H561 C566 0.949 . S
H562 C568 0.950 . S
H563 C569 0.950 . S
H564 C570 0.949 . S
C565 H560 0.950 . S
C565 C567 1.327 . S
C565 C571 1.429 . S
C566 C558 1.574 . S
C566 H561 0.949 . S
C566 C572 1.368 . S
C567 C551 1.349 . S
C567 H559 0.950 . S
C567 C565 1.327 . S
C568 C556 1.349 . S
C568 H562 0.950 . S
C568 C569 1.327 . S
C569 H563 0.950 . S
C569 C568 1.327 . S
C569 C573 1.429 . S
C570 C553 1.574 . S
C570 H564 0.949 . S
C570 C574 1.368 . S
C571 C552 1.429 . S
C571 C565 1.429 . S
C571 C572 1.523 . S
C572 C553 1.368 . S
C572 C566 1.368 . S
C572 C571 1.523 . S
C573 C557 1.429 . S
C573 C569 1.429 . S
C573 C574 1.523 . S
C574 C558 1.368 . S
C574 C570 1.368 . S
C574 C573 1.523 . S
H575 C550 0.950 . S
H576 C552 0.950 . S
H577 C553 0.949 . S
H578 C555 0.950 . S
H579 C557 0.950 . S
C580 C581 1.349 . S
C580 C582 1.327 . S
C580 H605 0.950 . S
C581 C580 1.349 . S
C581 C597 1.349 . S
C582 C580 1.327 . S
C582 C601 1.429 . S
C582 H606 0.950 . S
C583 C600 1.574 . S
C583 C602 1.368 . S
C583 H607 0.949 . S
H584 C588 0.949 . S
C585 C586 1.349 . S
C585 C587 1.327 . S
C585 H608 0.950 . S
C586 C585 1.349 . S
C586 C598 1.349 . S
C587 C585 1.327 . S
C587 C603 1.429 . S
C587 H609 0.950 . S
C588 H584 0.949 . S
C588 C596 1.574 . S
C588 C604 1.368 . S
H589 C597 0.950 . S
H590 C595 0.950 . S
H591 C596 0.949 . S
H592 C598 0.950 . S
H593 C599 0.950 . S
H594 C600 0.949 . S
C595 H590 0.950 . S
C595 C597 1.327 . S
C595 C601 1.429 . S
C596 C588 1.574 . S
C596 H591 0.949 . S
C596 C602 1.368 . S
C597 C581 1.349 . S
C597 H589 0.950 . S
C597 C595 1.327 . S
C598 C586 1.349 . S
C598 H592 0.950 . S
C598 C599 1.327 . S
C599 H593 0.950 . S
C599 C598 1.327 . S
C599 C603 1.429 . S
C600 C583 1.574 . S
C600 H594 0.949 . S
C600 C604 1.368 . S
C601 C582 1.429 . S
C601 C595 1.429 . S
C601 C602 1.523 . S
C602 C583 1.368 . S
C602 C596 1.368 . S
C602 C601 1.523 . S
C603 C587 1.429 . S
C603 C599 1.429 . S
C603 C604 1.523 . S
C604 C588 1.368 . S
C604 C600 1.368 . S
C604 C603 1.523 . S
H605 C580 0.950 . S
H606 C582 0.950 . S
H607 C583 0.949 . S
H608 C585 0.950 . S
H609 C587 0.950 . S
C610 C611 1.349 . S
C610 C612 1.327 . S
C610 H635 0.950 . S
C611 C610 1.349 . S
C611 C627 1.349 . S
C612 C610 1.327 . S
C612 C631 1.429 . S
C612 H636 0.950 . S
C613 C630 1.574 . S
C613 C632 1.368 . S
C613 H637 0.949 . S
H614 C618 0.949 . S
C615 C616 1.349 . S
C615 C617 1.327 . S
C615 H638 0.950 . S
C616 C615 1.349 . S
C616 C628 1.349 . S
C617 C615 1.327 . S
C617 C633 1.429 . S
C617 H639 0.950 . S
C618 H614 0.949 . S
C618 C626 1.574 . S
C618 C634 1.368 . S
H619 C627 0.950 . S
H620 C625 0.950 . S
H621 C626 0.949 . S
H622 C628 0.950 . S
H623 C629 0.950 . S
H624 C630 0.949 . S
C625 H620 0.950 . S
C625 C627 1.327 . S
C625 C631 1.429 . S
C626 C618 1.574 . S
C626 H621 0.949 . S
C626 C632 1.368 . S
C627 C611 1.349 . S
C627 H619 0.950 . S
C627 C625 1.327 . S
C628 C616 1.349 . S
C628 H622 0.950 . S
C628 C629 1.327 . S
C629 H623 0.950 . S
C629 C628 1.327 . S
C629 C633 1.429 . S
C630 C613 1.574 . S
C630 H624 0.949 . S
C630 C634 1.368 . S
C631 C612 1.429 . S
C631 C625 1.429 . S
C631 C632 1.523 . S
C632 C613 1.368 . S
C632 C626 1.368 . S
C632 C631 1.523 . S
C633 C617 1.429 . S
C633 C629 1.429 . S
C633 C634 1.523 . S
C634 C618 1.368 . S
C634 C630 1.368 . S
C634 C633 1.523 . S
H635 C610 0.950 . S
H636 C612 0.950 . S
H637 C613 0.949 . S
H638 C615 0.950 . S
H639 C617 0.950 . S
C640 C641 1.349 . S
C640 C642 1.327 . S
C640 H665 0.950 . S
C641 C640 1.349 . S
C641 C657 1.349 . S
C642 C640 1.327 . S
C642 C661 1.429 . S
C642 H666 0.950 . S
C643 C660 1.574 . S
C643 C662 1.368 . S
C643 H667 0.949 . S
H644 C648 0.949 . S
C645 C646 1.349 . S
C645 C647 1.327 . S
C645 H668 0.950 . S
C646 C645 1.349 . S
C646 C658 1.349 . S
C647 C645 1.327 . S
C647 C663 1.429 . S
C647 H669 0.950 . S
C648 H644 0.949 . S
C648 C656 1.574 . S
C648 C664 1.368 . S
H649 C657 0.950 . S
H650 C655 0.950 . S
H651 C656 0.949 . S
H652 C658 0.950 . S
H653 C659 0.950 . S
H654 C660 0.949 . S
C655 H650 0.950 . S
C655 C657 1.327 . S
C655 C661 1.429 . S
C656 C648 1.574 . S
C656 H651 0.949 . S
C656 C662 1.368 . S
C657 C641 1.349 . S
C657 H649 0.950 . S
C657 C655 1.327 . S
C658 C646 1.349 . S
C658 H652 0.950 . S
C658 C659 1.327 . S
C659 H653 0.950 . S
C659 C658 1.327 . S
C659 C663 1.429 . S
C660 C643 1.574 . S
C660 H654 0.949 . S
C660 C664 1.368 . S
C661 C642 1.429 . S
C661 C655 1.429 . S
C661 C662 1.523 . S
C662 C643 1.368 . S
C662 C656 1.368 . S
C662 C661 1.523 . S
C663 C647 1.429 . S
C663 C659 1.429 . S
C663 C664 1.523 . S
C664 C648 1.368 . S
C664 C660 1.368 . S
C664 C663 1.523 . S
H665 C640 0.950 . S
H666 C642 0.950 . S
H667 C643 0.949 . S
H668 C645 0.950 . S
H669 C647 0.950 . S
C670 C671 1.349 . S
C670 C672 1.327 . S
C670 H695 0.950 . S
C671 C670 1.349 . S
C671 C687 1.349 . S
C672 C670 1.327 . S
C672 C691 1.429 . S
C672 H696 0.950 . S
C673 C690 1.574 . S
C673 C692 1.368 . S
C673 H697 0.949 . S
H674 C678 0.949 . S
C675 C676 1.349 . S
C675 C677 1.327 . S
C675 H698 0.950 . S
C676 C675 1.349 . S
C676 C688 1.349 . S
C677 C675 1.327 . S
C677 C693 1.429 . S
C677 H699 0.950 . S
C678 H674 0.949 . S
C678 C686 1.574 . S
C678 C694 1.368 . S
H679 C687 0.950 . S
H680 C685 0.950 . S
H681 C686 0.949 . S
H682 C688 0.950 . S
H683 C689 0.950 . S
H684 C690 0.949 . S
C685 H680 0.950 . S
C685 C687 1.327 . S
C685 C691 1.429 . S
C686 C678 1.574 . S
C686 H681 0.949 . S
C686 C692 1.368 . S
C687 C671 1.349 . S
C687 H679 0.950 . S
C687 C685 1.327 . S
C688 C676 1.349 . S
C688 H682 0.950 . S
C688 C689 1.327 . S
C689 H683 0.950 . S
C689 C688 1.327 . S
C689 C693 1.429 . S
C690 C673 1.574 . S
C690 H684 0.949 . S
C690 C694 1.368 . S
C691 C672 1.429 . S
C691 C685 1.429 . S
C691 C692 1.523 . S
C692 C673 1.368 . S
C692 C686 1.368 . S
C692 C691 1.523 . S
C693 C677 1.429 . S
C693 C689 1.429 . S
C693 C694 1.523 . S
C694 C678 1.368 . S
C694 C690 1.368 . S
C694 C693 1.523 . S
H695 C670 0.950 . S
H696 C672 0.950 . S
H697 C673 0.949 . S
H698 C675 0.950 . S
H699 C677 0.950 . S
C700 C701 1.349 . S
C700 C702 1.327 . S
C700 H725 0.950 . S
C701 C700 1.349 . S
C701 C717 1.349 . S
C702 C700 1.327 . S
C702 C721 1.429 . S
C702 H726 0.950 . S
C703 C720 1.574 . S
C703 C722 1.368 . S
C703 H727 0.949 . S
H704 C708 0.949 . S
C705 C706 1.349 . S
C705 C707 1.327 . S
C705 H728 0.950 . S
C706 C705 1.349 . S
C706 C718 1.349 . S
C707 C705 1.327 . S
C707 C723 1.429 . S
C707 H729 0.950 . S
C708 H704 0.949 . S
C708 C716 1.574 . S
C708 C724 1.368 . S
H709 C717 0.950 . S
H710 C715 0.950 . S
H711 C716 0.949 . S
H712 C718 0.950 . S
H713 C719 0.950 . S
H714 C720 0.949 . S
C715 H710 0.950 . S
C715 C717 1.327 . S
C715 C721 1.429 . S
C716 C708 1.574 . S
C716 H711 0.949 . S
C716 C722 1.368 . S
C717 C701 1.349 . S
C717 H709 0.950 . S
C717 C715 1.327 . S
C718 C706 1.349 . S
C718 H712 0.950 . S
C718 C719 1.327 . S
C719 H713 0.950 . S
C719 C718 1.327 . S
C719 C723 1.429 . S
C720 C703 1.574 . S
C720 H714 0.949 . S
C720 C724 1.368 . S
C721 C702 1.429 . S
C721 C715 1.429 . S
C721 C722 1.523 . S
C722 C703 1.368 . S
C722 C716 1.368 . S
C722 C721 1.523 . S
C723 C707 1.429 . S
C723 C719 1.429 . S
C723 C724 1.523 . S
C724 C708 1.368 . S
C724 C720 1.368 . S
C724 C723 1.523 . S
H725 C700 0.950 . S
H726 C702 0.950 . S
H727 C703 0.949 . S
H728 C705 0.950 . S
H729 C707 0.950 . S
C730 C731 1.349 . S
C730 C732 1.327 . S
C730 H755 0.950 . S
C731 C730 1.349 . S
C731 C747 1.349 . S
C732 C730 1.327 . S
C732 C751 1.429 . S
C732 H756 0.950 . S
C733 C750 1.574 . S
C733 C752 1.368 . S
C733 H757 0.949 . S
H734 C738 0.949 . S
C735 C736 1.349 . S
C735 C737 1.327 . S
C735 H758 0.950 . S
C736 C735 1.349 . S
C736 C748 1.349 . S
C737 C735 1.327 . S
C737 C753 1.429 . S
C737 H759 0.950 . S
C738 H734 0.949 . S
C738 C746 1.574 . S
C738 C754 1.368 . S
H739 C747 0.950 . S
H740 C745 0.950 . S
H741 C746 0.949 . S
H742 C748 0.950 . S
H743 C749 0.950 . S
H744 C750 0.949 . S
C745 H740 0.950 . S
C745 C747 1.327 . S
C745 C751 1.429 . S
C746 C738 1.574 . S
C746 H741 0.949 . S
C746 C752 1.368 . S
C747 C731 1.349 . S
C747 H739 0.950 . S
C747 C745 1.327 . S
C748 C736 1.349 . S
C748 H742 0.950 . S
C748 C749 1.327 . S
C749 H743 0.950 . S
C749 C748 1.327 . S
C749 C753 1.429 . S
C750 C733 1.574 . S
C750 H744 0.949 . S
C750 C754 1.368 . S
C751 C732 1.429 . S
C751 C745 1.429 . S
C751 C752 1.523 . S
C752 C733 1.368 . S
C752 C746 1.368 . S
C752 C751 1.523 . S
C753 C737 1.429 . S
C753 C749 1.429 . S
C753 C754 1.523 . S
C754 C738 1.368 . S
C754 C750 1.368 . S
C754 C753 1.523 . S
H755 C730 0.950 . S
H756 C732 0.950 . S
H757 C733 0.949 . S
H758 C735 0.950 . S
H759 C737 0.950 . S
C760 C761 1.349 . S
C760 C762 1.327 1_565 S
C760 H785 0.950 . S
C761 C760 1.349 . S
C761 C777 1.349 . S
C762 C760 1.327 1_545 S
C762 C781 1.429 . S
C762 H786 0.950 . S
C763 C780 1.574 . S
C763 C782 1.368 . S
C763 H787 0.949 . S
H764 C768 0.949 . S
C765 C766 1.349 . S
C765 C767 1.327 . S
C765 H788 0.950 . S
C766 C765 1.349 . S
C766 C778 1.349 . S
C767 C765 1.327 . S
C767 C783 1.429 . S
C767 H789 0.950 . S
C768 H764 0.949 . S
C768 C776 1.574 . S
C768 C784 1.368 . S
H769 C777 0.950 . S
H770 C775 0.950 . S
H771 C776 0.949 . S
H772 C778 0.950 . S
H773 C779 0.950 . S
H774 C780 0.949 . S
C775 H770 0.950 . S
C775 C777 1.327 1_545 S
C775 C781 1.429 . S
C776 C768 1.574 . S
C776 H771 0.949 . S
C776 C782 1.368 . S
C777 C761 1.349 . S
C777 H769 0.950 . S
C777 C775 1.327 1_565 S
C778 C766 1.349 . S
C778 H772 0.950 . S
C778 C779 1.327 . S
C779 H773 0.950 . S
C779 C778 1.327 . S
C779 C783 1.429 . S
C780 C763 1.574 . S
C780 H774 0.949 . S
C780 C784 1.368 . S
C781 C762 1.429 . S
C781 C775 1.429 . S
C781 C782 1.523 . S
C782 C763 1.368 . S
C782 C776 1.368 . S
C782 C781 1.523 . S
C783 C767 1.429 . S
C783 C779 1.429 . S
C783 C784 1.523 . S
C784 C768 1.368 . S
C784 C780 1.368 . S
C784 C783 1.523 . S
H785 C760 0.950 . S
H786 C762 0.950 . S
H787 C763 0.949 . S
H788 C765 0.950 . S
H789 C767 0.950 . S
C790 C791 1.349 . S
C790 C792 1.327 1_545 S
C790 H815 0.950 . S
C791 C790 1.349 . S
C791 C807 1.349 . S
C792 C790 1.327 1_565 S
C792 C811 1.429 . S
C792 H816 0.950 . S
C793 C810 1.574 . S
C793 C812 1.368 . S
C793 H817 0.949 . S
H794 C798 0.949 . S
C795 C796 1.349 . S
C795 C797 1.327 . S
C795 H818 0.950 . S
C796 C795 1.349 . S
C796 C808 1.349 . S
C797 C795 1.327 . S
C797 C813 1.429 . S
C797 H819 0.950 . S
C798 H794 0.949 . S
C798 C806 1.574 . S
C798 C814 1.368 . S
H799 C807 0.950 . S
H800 C805 0.950 . S
H801 C806 0.949 . S
H802 C808 0.950 . S
H803 C809 0.950 . S
H804 C810 0.949 . S
C805 H800 0.950 . S
C805 C807 1.327 1_565 S
C805 C811 1.429 . S
C806 C798 1.574 . S
C806 H801 0.949 . S
C806 C812 1.368 . S
C807 C791 1.349 . S
C807 H799 0.950 . S
C807 C805 1.327 1_545 S
C808 C796 1.349 . S
C808 H802 0.950 . S
C808 C809 1.327 . S
C809 H803 0.950 . S
C809 C808 1.327 . S
C809 C813 1.429 . S
C810 C793 1.574 . S
C810 H804 0.949 . S
C810 C814 1.368 . S
C811 C792 1.429 . S
C811 C805 1.429 . S
C811 C812 1.523 . S
C812 C793 1.368 . S
C812 C806 1.368 . S
C812 C811 1.523 . S
C813 C797 1.429 . S
C813 C809 1.429 . S
C813 C814 1.523 . S
C814 C798 1.368 . S
C814 C810 1.368 . S
C814 C813 1.523 . S
H815 C790 0.950 . S
H816 C792 0.950 . S
H817 C793 0.949 . S
H818 C795 0.950 . S
H819 C797 0.950 . S
C820 C821 1.349 . S
C820 C822 1.327 1_565 S
C820 H845 0.950 . S
C821 C820 1.349 . S
C821 C837 1.346 1_565 S
C822 C820 1.327 1_545 S
C822 C841 1.429 . S
C822 H846 0.950 . S
C823 C840 1.574 . S
C823 C842 1.368 . S
C823 H847 0.949 . S
H824 C828 0.949 . S
C825 C826 1.349 . S
C825 C827 1.327 . S
C825 H848 0.950 . S
C826 C825 1.349 . S
C826 C838 1.349 . S
C827 C825 1.327 . S
C827 C843 1.429 . S
C827 H849 0.950 . S
C828 H824 0.949 . S
C828 C836 1.574 . S
C828 C844 1.368 . S
H829 C837 0.949 1_565 S
H830 C835 0.950 . S
H831 C836 0.949 . S
H832 C838 0.950 . S
H833 C839 0.950 . S
H834 C840 0.949 . S
C835 H830 0.950 . S
C835 C837 1.331 . S
C835 C841 1.429 . S
C836 C828 1.574 . S
C836 H831 0.949 . S
C836 C842 1.368 . S
C837 C821 1.346 1_545 S
C837 H829 0.949 1_545 S
C837 C835 1.331 . S
C838 C826 1.349 . S
C838 H832 0.950 . S
C838 C839 1.327 . S
C839 H833 0.950 . S
C839 C838 1.327 . S
C839 C843 1.429 . S
C840 C823 1.574 . S
C840 H834 0.949 . S
C840 C844 1.368 . S
C841 C822 1.429 . S
C841 C835 1.429 . S
C841 C842 1.523 . S
C842 C823 1.368 . S
C842 C836 1.368 . S
C842 C841 1.523 . S
C843 C827 1.429 . S
C843 C839 1.429 . S
C843 C844 1.523 . S
C844 C828 1.368 . S
C844 C840 1.368 . S
C844 C843 1.523 . S
H845 C820 0.950 . S
H846 C822 0.950 . S
H847 C823 0.949 . S
H848 C825 0.950 . S
H849 C827 0.950 . S
C850 C851 1.349 1_565 S
C850 C852 1.327 . S
C850 H875 0.950 . S
C851 C850 1.349 1_545 S
C851 C867 1.349 . S
C852 C850 1.327 . S
C852 C871 1.429 . S
C852 H876 0.950 . S
C853 C870 1.574 . S
C853 C872 1.368 . S
C853 H877 0.949 . S
H854 C858 0.949 . S
C855 C856 1.349 . S
C855 C857 1.327 . S
C855 H878 0.950 . S
C856 C855 1.349 . S
C856 C868 1.349 . S
C857 C855 1.327 . S
C857 C873 1.429 . S
C857 H879 0.950 . S
C858 H854 0.949 . S
C858 C866 1.574 . S
C858 C874 1.368 . S
H859 C867 0.950 . S
H860 C865 0.950 . S
H861 C866 0.949 . S
H862 C868 0.950 . S
H863 C869 0.950 . S
H864 C870 0.949 . S
C865 H860 0.950 . S
C865 C867 1.327 . S
C865 C871 1.429 1_545 S
C866 C858 1.574 . S
C866 H861 0.949 . S
C866 C872 1.368 . S
C867 C851 1.349 . S
C867 H859 0.950 . S
C867 C865 1.327 . S
C868 C856 1.349 . S
C868 H862 0.950 . S
C868 C869 1.327 . S
C869 H863 0.950 . S
C869 C868 1.327 . S
C869 C873 1.429 . S
C870 C853 1.574 . S
C870 H864 0.949 . S
C870 C874 1.368 . S
C871 C852 1.429 . S
C871 C865 1.429 1_565 S
C871 C872 1.523 . S
C872 C853 1.368 . S
C872 C866 1.368 . S
C872 C871 1.523 . S
C873 C857 1.429 . S
C873 C869 1.429 . S
C873 C874 1.523 . S
C874 C858 1.368 . S
C874 C870 1.368 . S
C874 C873 1.523 . S
H875 C850 0.950 . S
H876 C852 0.950 . S
H877 C853 0.949 . S
H878 C855 0.950 . S
H879 C857 0.950 . S
C880 C881 1.349 . S
C880 C882 1.327 . S
C880 H905 0.950 . S
C881 C880 1.349 . S
C881 C897 1.349 . S
C882 C880 1.327 . S
C882 C901 1.429 . S
C882 H906 0.950 . S
C883 C900 1.574 . S
C883 C902 1.368 . S
C883 H907 0.949 . S
H884 C888 0.949 . S
C885 C886 1.349 . S
C885 C887 1.327 . S
C885 H908 0.950 . S
C886 C885 1.349 . S
C886 C898 1.349 . S
C887 C885 1.327 . S
C887 C903 1.429 . S
C887 H909 0.950 . S
C888 H884 0.949 . S
C888 C896 1.574 . S
C888 C904 1.368 . S
H889 C897 0.950 . S
H890 C895 0.950 . S
H891 C896 0.949 . S
H892 C898 0.950 . S
H893 C899 0.950 . S
H894 C900 0.949 . S
C895 H890 0.950 . S
C895 C897 1.327 . S
C895 C901 1.429 . S
C896 C888 1.574 . S
C896 H891 0.949 . S
C896 C902 1.368 . S
C897 C881 1.349 . S
C897 H889 0.950 . S
C897 C895 1.327 . S
C898 C886 1.349 . S
C898 H892 0.950 . S
C898 C899 1.327 . S
C899 H893 0.950 . S
C899 C898 1.327 . S
C899 C903 1.429 . S
C900 C883 1.574 . S
C900 H894 0.949 . S
C900 C904 1.368 . S
C901 C882 1.429 . S
C901 C895 1.429 . S
C901 C902 1.523 . S
C902 C883 1.368 . S
C902 C896 1.368 . S
C902 C901 1.523 . S
C903 C887 1.429 . S
C903 C899 1.429 . S
C903 C904 1.523 . S
C904 C888 1.368 . S
C904 C900 1.368 . S
C904 C903 1.523 . S
H905 C880 0.950 . S
H906 C882 0.950 . S
H907 C883 0.949 . S
H908 C885 0.950 . S
H909 C887 0.950 . S
C910 C911 1.349 . S
C910 C912 1.327 . S
C910 H935 0.950 . S
C911 C910 1.349 . S
C911 C927 1.349 . S
C912 C910 1.327 . S
C912 C931 1.429 . S
C912 H936 0.950 . S
C913 C930 1.574 . S
C913 C932 1.368 . S
C913 H937 0.949 . S
H914 C918 0.949 . S
C915 C916 1.349 . S
C915 C917 1.327 . S
C915 H938 0.950 . S
C916 C915 1.349 . S
C916 C928 1.349 . S
C917 C915 1.327 . S
C917 C933 1.429 . S
C917 H939 0.950 . S
C918 H914 0.949 . S
C918 C926 1.574 . S
C918 C934 1.368 . S
H919 C927 0.950 . S
H920 C925 0.950 . S
H921 C926 0.949 . S
H922 C928 0.950 . S
H923 C929 0.950 . S
H924 C930 0.949 . S
C925 H920 0.950 . S
C925 C927 1.327 . S
C925 C931 1.429 . S
C926 C918 1.574 . S
C926 H921 0.949 . S
C926 C932 1.368 . S
C927 C911 1.349 . S
C927 H919 0.950 . S
C927 C925 1.327 . S
C928 C916 1.349 . S
C928 H922 0.950 . S
C928 C929 1.327 . S
C929 H923 0.950 . S
C929 C928 1.327 . S
C929 C933 1.429 . S
C930 C913 1.574 . S
C930 H924 0.949 . S
C930 C934 1.368 . S
C931 C912 1.429 . S
C931 C925 1.429 . S
C931 C932 1.523 . S
C932 C913 1.368 . S
C932 C926 1.368 . S
C932 C931 1.523 . S
C933 C917 1.429 . S
C933 C929 1.429 . S
C933 C934 1.523 . S
C934 C918 1.368 . S
C934 C930 1.368 . S
C934 C933 1.523 . S
H935 C910 0.950 . S
H936 C912 0.950 . S
H937 C913 0.949 . S
H938 C915 0.950 . S
H939 C917 0.950 . S
C940 C941 1.349 . S
C940 C942 1.327 . S
C940 H965 0.950 . S
C941 C940 1.349 . S
C941 C957 1.349 . S
C942 C940 1.327 . S
C942 C961 1.429 . S
C942 H966 0.950 . S
C943 C960 1.574 . S
C943 C962 1.368 . S
C943 H967 0.949 . S
H944 C948 0.949 . S
C945 C946 1.349 . S
C945 C947 1.327 . S
C945 H968 0.950 . S
C946 C945 1.349 . S
C946 C958 1.349 . S
C947 C945 1.327 . S
C947 C963 1.429 . S
C947 H969 0.950 . S
C948 H944 0.949 . S
C948 C956 1.574 . S
C948 C964 1.368 . S
H949 C957 0.950 . S
H950 C955 0.950 . S
H951 C956 0.949 . S
H952 C958 0.950 . S
H953 C959 0.950 . S
H954 C960 0.949 . S
C955 H950 0.950 . S
C955 C957 1.327 . S
C955 C961 1.429 . S
C956 C948 1.574 . S
C956 H951 0.949 . S
C956 C962 1.368 . S
C957 C941 1.349 . S
C957 H949 0.950 . S
C957 C955 1.327 . S
C958 C946 1.349 . S
C958 H952 0.950 . S
C958 C959 1.327 . S
C959 H953 0.950 . S
C959 C958 1.327 . S
C959 C963 1.429 . S
C960 C943 1.574 . S
C960 H954 0.949 . S
C960 C964 1.368 . S
C961 C942 1.429 . S
C961 C955 1.429 . S
C961 C962 1.523 . S
C962 C943 1.368 . S
C962 C956 1.368 . S
C962 C961 1.523 . S
C963 C947 1.429 . S
C963 C959 1.429 . S
C963 C964 1.523 . S
C964 C948 1.368 . S
C964 C960 1.368 . S
C964 C963 1.523 . S
H965 C940 0.950 . S
H966 C942 0.950 . S
H967 C943 0.949 . S
H968 C945 0.950 . S
H969 C947 0.950 . S
C970 C971 1.349 . S
C970 C972 1.327 . S
C970 H995 0.950 . S
C971 C970 1.349 . S
C971 C987 1.349 . S
C972 C970 1.327 . S
C972 C991 1.429 . S
C972 H996 0.950 . S
C973 C990 1.574 . S
C973 C992 1.368 . S
C973 H997 0.949 . S
H974 C978 0.949 . S
C975 C976 1.349 . S
C975 C977 1.327 . S
C975 H998 0.950 . S
C976 C975 1.349 . S
C976 C988 1.349 . S
C977 C975 1.327 . S
C977 C993 1.429 . S
C977 H999 0.950 . S
C978 H974 0.949 . S
C978 C986 1.574 . S
C978 C994 1.368 . S
H979 C987 0.950 . S
H980 C985 0.950 . S
H981 C986 0.949 . S
H982 C988 0.950 . S
H983 C989 0.950 . S
H984 C990 0.949 . S
C985 H980 0.950 . S
C985 C987 1.327 . S
C985 C991 1.429 . S
C986 C978 1.574 . S
C986 H981 0.949 . S
C986 C992 1.368 . S
C987 C971 1.349 . S
C987 H979 0.950 . S
C987 C985 1.327 . S
C988 C976 1.349 . S
C988 H982 0.950 . S
C988 C989 1.327 . S
C989 H983 0.950 . S
C989 C988 1.327 . S
C989 C993 1.429 . S
C990 C973 1.574 . S
C990 H984 0.949 . S
C990 C994 1.368 . S
C991 C972 1.429 . S
C991 C985 1.429 . S
C991 C992 1.523 . S
C992 C973 1.368 . S
C992 C986 1.368 . S
C992 C991 1.523 . S
C993 C977 1.429 . S
C993 C989 1.429 . S
C993 C994 1.523 . S
C994 C978 1.368 . S
C994 C990 1.368 . S
C994 C993 1.523 . S
H995 C970 0.950 . S
H996 C972 0.950 . S
H997 C973 0.949 . S
H998 C975 0.950 . S
H999 C977 0.950 . S
C1000 C1001 1.349 . S
C1000 C1002 1.327 . S
C1000 H1025 0.950 . S
C1001 C1000 1.349 . S
C1001 C1017 1.349 . S
C1002 C1000 1.327 . S
C1002 C1021 1.429 . S
C1002 H1026 0.950 . S
C1003 C1020 1.574 . S
C1003 C1022 1.368 . S
C1003 H1027 0.949 . S
H1004 C1008 0.949 . S
C1005 C1006 1.349 . S
C1005 C1007 1.327 . S
C1005 H1028 0.950 . S
C1006 C1005 1.349 . S
C1006 C1018 1.349 . S
C1007 C1005 1.327 . S
C1007 C1023 1.429 . S
C1007 H1029 0.950 . S
C1008 H1004 0.949 . S
C1008 C1016 1.574 . S
C1008 C1024 1.368 . S
H1009 C1017 0.950 . S
H1010 C1015 0.950 . S
H1011 C1016 0.949 . S
H1012 C1018 0.950 . S
H1013 C1019 0.950 . S
H1014 C1020 0.949 . S
C1015 H1010 0.950 . S
C1015 C1017 1.327 . S
C1015 C1021 1.429 . S
C1016 C1008 1.574 . S
C1016 H1011 0.949 . S
C1016 C1022 1.368 . S
C1017 C1001 1.349 . S
C1017 H1009 0.950 . S
C1017 C1015 1.327 . S
C1018 C1006 1.349 . S
C1018 H1012 0.950 . S
C1018 C1019 1.327 . S
C1019 H1013 0.950 . S
C1019 C1018 1.327 . S
C1019 C1023 1.429 . S
C1020 C1003 1.574 . S
C1020 H1014 0.949 . S
C1020 C1024 1.368 . S
C1021 C1002 1.429 . S
C1021 C1015 1.429 . S
C1021 C1022 1.523 . S
C1022 C1003 1.368 . S
C1022 C1016 1.368 . S
C1022 C1021 1.523 . S
C1023 C1007 1.429 . S
C1023 C1019 1.429 . S
C1023 C1024 1.523 . S
C1024 C1008 1.368 . S
C1024 C1020 1.368 . S
C1024 C1023 1.523 . S
H1025 C1000 0.950 . S
H1026 C1002 0.950 . S
H1027 C1003 0.949 . S
H1028 C1005 0.950 . S
H1029 C1007 0.950 . S
C1030 C1031 1.349 . S
C1030 C1032 1.327 . S
C1030 H1055 0.950 . S
C1031 C1030 1.349 . S
C1031 C1047 1.349 . S
C1032 C1030 1.327 . S
C1032 C1051 1.429 . S
C1032 H1056 0.950 . S
C1033 C1050 1.574 . S
C1033 C1052 1.368 . S
C1033 H1057 0.949 . S
H1034 C1038 0.949 . S
C1035 C1036 1.349 . S
C1035 C1037 1.327 . S
C1035 H1058 0.950 . S
C1036 C1035 1.349 . S
C1036 C1048 1.349 . S
C1037 C1035 1.327 . S
C1037 C1053 1.429 . S
C1037 H1059 0.950 . S
C1038 H1034 0.949 . S
C1038 C1046 1.574 . S
C1038 C1054 1.368 . S
H1039 C1047 0.950 . S
H1040 C1045 0.950 . S
H1041 C1046 0.949 . S
H1042 C1048 0.950 . S
H1043 C1049 0.950 . S
H1044 C1050 0.949 . S
C1045 H1040 0.950 . S
C1045 C1047 1.327 . S
C1045 C1051 1.429 . S
C1046 C1038 1.574 . S
C1046 H1041 0.949 . S
C1046 C1052 1.368 . S
C1047 C1031 1.349 . S
C1047 H1039 0.950 . S
C1047 C1045 1.327 . S
C1048 C1036 1.349 . S
C1048 H1042 0.950 . S
C1048 C1049 1.327 . S
C1049 H1043 0.950 . S
C1049 C1048 1.327 . S
C1049 C1053 1.429 . S
C1050 C1033 1.574 . S
C1050 H1044 0.949 . S
C1050 C1054 1.368 . S
C1051 C1032 1.429 . S
C1051 C1045 1.429 . S
C1051 C1052 1.523 . S
C1052 C1033 1.368 . S
C1052 C1046 1.368 . S
C1052 C1051 1.523 . S
C1053 C1037 1.429 . S
C1053 C1049 1.429 . S
C1053 C1054 1.523 . S
C1054 C1038 1.368 . S
C1054 C1050 1.368 . S
C1054 C1053 1.523 . S
H1055 C1030 0.950 . S
H1056 C1032 0.950 . S
H1057 C1033 0.949 . S
H1058 C1035 0.950 . S
H1059 C1037 0.950 . S
C1060 C1061 1.349 . S
C1060 C1062 1.327 . S
C1060 H1085 0.950 . S
C1061 C1060 1.349 . S
C1061 C1077 1.349 . S
C1062 C1060 1.327 . S
C1062 C1081 1.429 . S
C1062 H1086 0.950 . S
C1063 C1080 1.574 . S
C1063 C1082 1.368 . S
C1063 H1087 0.949 . S
H1064 C1068 0.949 . S
C1065 C1066 1.349 . S
C1065 C1067 1.327 . S
C1065 H1088 0.950 . S
C1066 C1065 1.349 . S
C1066 C1078 1.349 . S
C1067 C1065 1.327 . S
C1067 C1083 1.429 . S
C1067 H1089 0.950 . S
C1068 H1064 0.949 . S
C1068 C1076 1.574 . S
C1068 C1084 1.368 . S
H1069 C1077 0.950 . S
H1070 C1075 0.950 . S
H1071 C1076 0.949 . S
H1072 C1078 0.950 . S
H1073 C1079 0.950 . S
H1074 C1080 0.949 . S
C1075 H1070 0.950 . S
C1075 C1077 1.327 . S
C1075 C1081 1.429 . S
C1076 C1068 1.574 . S
C1076 H1071 0.949 . S
C1076 C1082 1.368 . S
C1077 C1061 1.349 . S
C1077 H1069 0.950 . S
C1077 C1075 1.327 . S
C1078 C1066 1.349 . S
C1078 H1072 0.950 . S
C1078 C1079 1.327 . S
C1079 H1073 0.950 . S
C1079 C1078 1.327 . S
C1079 C1083 1.429 . S
C1080 C1063 1.574 . S
C1080 H1074 0.949 . S
C1080 C1084 1.368 . S
C1081 C1062 1.429 . S
C1081 C1075 1.429 . S
C1081 C1082 1.523 . S
C1082 C1063 1.368 . S
C1082 C1076 1.368 . S
C1082 C1081 1.523 . S
C1083 C1067 1.429 . S
C1083 C1079 1.429 . S
C1083 C1084 1.523 . S
C1084 C1068 1.368 . S
C1084 C1080 1.368 . S
C1084 C1083 1.523 . S
H1085 C1060 0.950 . S
H1086 C1062 0.950 . S
H1087 C1063 0.949 . S
H1088 C1065 0.950 . S
H1089 C1067 0.950 . S
C1090 C1091 1.349 . S
C1090 C1092 1.327 . S
C1090 H1115 0.950 . S
C1091 C1090 1.349 . S
C1091 C1107 1.349 . S
C1092 C1090 1.327 . S
C1092 C1111 1.429 . S
C1092 H1116 0.950 . S
C1093 C1110 1.574 . S
C1093 C1112 1.368 . S
C1093 H1117 0.949 . S
H1094 C1098 0.949 . S
C1095 C1096 1.349 . S
C1095 C1097 1.327 . S
C1095 H1118 0.950 . S
C1096 C1095 1.349 . S
C1096 C1108 1.349 . S
C1097 C1095 1.327 . S
C1097 C1113 1.429 . S
C1097 H1119 0.950 . S
C1098 H1094 0.949 . S
C1098 C1106 1.574 . S
C1098 C1114 1.368 . S
H1099 C1107 0.950 . S
H1100 C1105 0.950 . S
H1101 C1106 0.949 . S
H1102 C1108 0.950 . S
H1103 C1109 0.950 . S
H1104 C1110 0.949 . S
C1105 H1100 0.950 . S
C1105 C1107 1.327 . S
C1105 C1111 1.429 . S
C1106 C1098 1.574 . S
C1106 H1101 0.949 . S
C1106 C1112 1.368 . S
C1107 C1091 1.349 . S
C1107 H1099 0.950 . S
C1107 C1105 1.327 . S
C1108 C1096 1.349 . S
C1108 H1102 0.950 . S
C1108 C1109 1.327 . S
C1109 H1103 0.950 . S
C1109 C1108 1.327 . S
C1109 C1113 1.429 . S
C1110 C1093 1.574 . S
C1110 H1104 0.949 . S
C1110 C1114 1.368 . S
C1111 C1092 1.429 . S
C1111 C1105 1.429 . S
C1111 C1112 1.523 . S
C1112 C1093 1.368 . S
C1112 C1106 1.368 . S
C1112 C1111 1.523 . S
C1113 C1097 1.429 . S
C1113 C1109 1.429 . S
C1113 C1114 1.523 . S
C1114 C1098 1.368 . S
C1114 C1110 1.368 . S
C1114 C1113 1.523 . S
H1115 C1090 0.950 . S
H1116 C1092 0.950 . S
H1117 C1093 0.949 . S
H1118 C1095 0.950 . S
H1119 C1097 0.950 . S
C401 C21 1.547 . S
C406 C355 1.531 . S
C436 C319 1.531 . S
C431 C60 1.547 . S
C466 C342 1.525 . S
C461 C99 1.522 . S
C496 C330 1.516 . S
C491 C138 1.519 . S
C526 C399 1.531 . S
C521 C177 1.547 . S
C556 C363 1.531 . S
C551 C216 1.547 . S
C581 C255 1.522 . S
C586 C386 1.525 . S
C616 C374 1.516 . S
C611 C294 1.519 . S
C641 C1 1.491 . S
C646 C396 1.503 . S
C676 C366 1.501 . S
C671 C40 1.490 . S
C701 C79 1.530 . S
C706 C385 1.538 . S
C731 C133 1.518 . S
C736 C371 1.526 . S
C766 C352 1.503 . S
C761 C157 1.491 . S
C791 C196 1.490 . S
C796 C322 1.501 . S
C826 C341 1.538 . S
C821 C235 1.530 . S
C856 C327 1.526 . S
C851 C289 1.518 . S
C886 C377 1.501 . S
C881 C16 1.497 . S
C916 C393 1.500 . S
C911 C55 1.496 . S
C941 C94 1.455 . S
C946 C364 1.468 . S
C976 C388 1.468 . S
C971 C118 1.457 . S
C1006 C333 1.501 . S
C1001 C172 1.497 . S
C1031 C211 1.496 . S
C1036 C349 1.500 . S
C1061 C250 1.455 . S
C1066 C320 1.468 . S
C1091 C274 1.457 . S
C1096 C344 1.468 . S
