# Generated by pormake.
# Topology ctn, (3,4)-cn, num edge types: 1
# Building blocks:
#     Node 0, Type 0, BuildingBlock: ESEHIV_clean_linker_0, # of connection points: 3
#     Node 1, Type 0, BuildingBlock: ESEHIV_clean_linker_0, # of connection points: 3
#     Node 2, Type 0, BuildingBlock: ESEHIV_clean_linker_0, # of connection points: 3
#     Node 3, Type 0, BuildingBlock: ESEHIV_clean_linker_0, # of connection points: 3
#     Node 4, Type 0, BuildingBlock: ESEHIV_clean_linker_0, # of connection points: 3
#     Node 5, Type 0, BuildingBlock: ESEHIV_clean_linker_0, # of connection points: 3
#     Node 6, Type 0, BuildingBlock: ESEHIV_clean_linker_0, # of connection points: 3
#     Node 7, Type 0, BuildingBlock: ESEHIV_clean_linker_0, # of connection points: 3
#     Node 8, Type 0, BuildingBlock: ESEHIV_clean_linker_0, # of connection points: 3
#     Node 9, Type 0, BuildingBlock: ESEHIV_clean_linker_0, # of connection points: 3
#     Node 10, Type 0, BuildingBlock: ESEHIV_clean_linker_0, # of connection points: 3
#     Node 11, Type 0, BuildingBlock: ESEHIV_clean_linker_0, # of connection points: 3
#     Node 12, Type 0, BuildingBlock: ESEHIV_clean_linker_0, # of connection points: 3
#     Node 13, Type 0, BuildingBlock: ESEHIV_clean_linker_0, # of connection points: 3
#     Node 14, Type 0, BuildingBlock: ESEHIV_clean_linker_0, # of connection points: 3
#     Node 15, Type 0, BuildingBlock: ESEHIV_clean_linker_0, # of connection points: 3
#     Node 16, Type 1, BuildingBlock: AZAVOO_clean_sbu_0, # of connection points: 4
#     Node 17, Type 1, BuildingBlock: AZAVOO_clean_sbu_0, # of connection points: 4
#     Node 18, Type 1, BuildingBlock: AZAVOO_clean_sbu_0, # of connection points: 4
#     Node 19, Type 1, BuildingBlock: AZAVOO_clean_sbu_0, # of connection points: 4
#     Node 20, Type 1, BuildingBlock: AZAVOO_clean_sbu_0, # of connection points: 4
#     Node 21, Type 1, BuildingBlock: AZAVOO_clean_sbu_0, # of connection points: 4
#     Node 22, Type 1, BuildingBlock: AZAVOO_clean_sbu_0, # of connection points: 4
#     Node 23, Type 1, BuildingBlock: AZAVOO_clean_sbu_0, # of connection points: 4
#     Node 24, Type 1, BuildingBlock: AZAVOO_clean_sbu_0, # of connection points: 4
#     Node 25, Type 1, BuildingBlock: AZAVOO_clean_sbu_0, # of connection points: 4
#     Node 26, Type 1, BuildingBlock: AZAVOO_clean_sbu_0, # of connection points: 4
#     Node 27, Type 1, BuildingBlock: AZAVOO_clean_sbu_0, # of connection points: 4
#     Edge 28, Type (0, 1), BuildingBlock: CIFDUS_clean_linker_0, # of connection points: 2
#     Edge 29, Type (0, 1), BuildingBlock: CIFDUS_clean_linker_0, # of connection points: 2
#     Edge 30, Type (0, 1), BuildingBlock: CIFDUS_clean_linker_0, # of connection points: 2
#     Edge 31, Type (0, 1), BuildingBlock: CIFDUS_clean_linker_0, # of connection points: 2
#     Edge 32, Type (0, 1), BuildingBlock: CIFDUS_clean_linker_0, # of connection points: 2
#     Edge 33, Type (0, 1), BuildingBlock: CIFDUS_clean_linker_0, # of connection points: 2
#     Edge 34, Type (0, 1), BuildingBlock: CIFDUS_clean_linker_0, # of connection points: 2
#     Edge 35, Type (0, 1), BuildingBlock: CIFDUS_clean_linker_0, # of connection points: 2
#     Edge 36, Type (0, 1), BuildingBlock: CIFDUS_clean_linker_0, # of connection points: 2
#     Edge 37, Type (0, 1), BuildingBlock: CIFDUS_clean_linker_0, # of connection points: 2
#     Edge 38, Type (0, 1), BuildingBlock: CIFDUS_clean_linker_0, # of connection points: 2
#     Edge 39, Type (0, 1), BuildingBlock: CIFDUS_clean_linker_0, # of connection points: 2
#     Edge 40, Type (0, 1), BuildingBlock: CIFDUS_clean_linker_0, # of connection points: 2
#     Edge 41, Type (0, 1), BuildingBlock: CIFDUS_clean_linker_0, # of connection points: 2
#     Edge 42, Type (0, 1), BuildingBlock: CIFDUS_clean_linker_0, # of connection points: 2
#     Edge 43, Type (0, 1), BuildingBlock: CIFDUS_clean_linker_0, # of connection points: 2
#     Edge 44, Type (0, 1), BuildingBlock: CIFDUS_clean_linker_0, # of connection points: 2
#     Edge 45, Type (0, 1), BuildingBlock: CIFDUS_clean_linker_0, # of connection points: 2
#     Edge 46, Type (0, 1), BuildingBlock: CIFDUS_clean_linker_0, # of connection points: 2
#     Edge 47, Type (0, 1), BuildingBlock: CIFDUS_clean_linker_0, # of connection points: 2
#     Edge 48, Type (0, 1), BuildingBlock: CIFDUS_clean_linker_0, # of connection points: 2
#     Edge 49, Type (0, 1), BuildingBlock: CIFDUS_clean_linker_0, # of connection points: 2
#     Edge 50, Type (0, 1), BuildingBlock: CIFDUS_clean_linker_0, # of connection points: 2
#     Edge 51, Type (0, 1), BuildingBlock: CIFDUS_clean_linker_0, # of connection points: 2
#     Edge 52, Type (0, 1), BuildingBlock: CIFDUS_clean_linker_0, # of connection points: 2
#     Edge 53, Type (0, 1), BuildingBlock: CIFDUS_clean_linker_0, # of connection points: 2
#     Edge 54, Type (0, 1), BuildingBlock: CIFDUS_clean_linker_0, # of connection points: 2
#     Edge 55, Type (0, 1), BuildingBlock: CIFDUS_clean_linker_0, # of connection points: 2
#     Edge 56, Type (0, 1), BuildingBlock: CIFDUS_clean_linker_0, # of connection points: 2
#     Edge 57, Type (0, 1), BuildingBlock: CIFDUS_clean_linker_0, # of connection points: 2
#     Edge 58, Type (0, 1), BuildingBlock: CIFDUS_clean_linker_0, # of connection points: 2
#     Edge 59, Type (0, 1), BuildingBlock: CIFDUS_clean_linker_0, # of connection points: 2
#     Edge 60, Type (0, 1), BuildingBlock: CIFDUS_clean_linker_0, # of connection points: 2
#     Edge 61, Type (0, 1), BuildingBlock: CIFDUS_clean_linker_0, # of connection points: 2
#     Edge 62, Type (0, 1), BuildingBlock: CIFDUS_clean_linker_0, # of connection points: 2
#     Edge 63, Type (0, 1), BuildingBlock: CIFDUS_clean_linker_0, # of connection points: 2
#     Edge 64, Type (0, 1), BuildingBlock: CIFDUS_clean_linker_0, # of connection points: 2
#     Edge 65, Type (0, 1), BuildingBlock: CIFDUS_clean_linker_0, # of connection points: 2
#     Edge 66, Type (0, 1), BuildingBlock: CIFDUS_clean_linker_0, # of connection points: 2
#     Edge 67, Type (0, 1), BuildingBlock: CIFDUS_clean_linker_0, # of connection points: 2
#     Edge 68, Type (0, 1), BuildingBlock: CIFDUS_clean_linker_0, # of connection points: 2
#     Edge 69, Type (0, 1), BuildingBlock: CIFDUS_clean_linker_0, # of connection points: 2
#     Edge 70, Type (0, 1), BuildingBlock: CIFDUS_clean_linker_0, # of connection points: 2
#     Edge 71, Type (0, 1), BuildingBlock: CIFDUS_clean_linker_0, # of connection points: 2
#     Edge 72, Type (0, 1), BuildingBlock: CIFDUS_clean_linker_0, # of connection points: 2
#     Edge 73, Type (0, 1), BuildingBlock: CIFDUS_clean_linker_0, # of connection points: 2
#     Edge 74, Type (0, 1), BuildingBlock: CIFDUS_clean_linker_0, # of connection points: 2
#     Edge 75, Type (0, 1), BuildingBlock: CIFDUS_clean_linker_0, # of connection points: 2
# Relax obj value: 0.002
# Max RMSD: 0.041
# Mean RMSD: 0.023
data_MOF--net-ctn--node1-AZAVOO_clean_sbu_0--node2-ESEHIV_clean_linker_0--edge1-CIFDUS_clean_linker_0
_symmetry_space_group_name_H-M    P1
_symmetry_Int_Tables_number       1
_symmetry_cell_setting            triclinic
loop_
_symmetry_equiv_pos_as_xyz
'x, y, z'
_cell_length_a     44.10619
_cell_length_b     45.111579
_cell_length_c     44.905072
_cell_angle_alpha  89.96144
_cell_angle_beta   93.185377
_cell_angle_gamma 93.83037
loop_
_atom_site_label
_atom_site_type_symbol
_atom_site_fract_x
_atom_site_fract_y
_atom_site_fract_z
_atom_type_partial_charge
H0 H 0.00814 0.06339 0.01814 0.0
H1 H 0.04224 0.9785 0.04001 0.0
H2 H 0.08065 0.03089 0.96986 0.0
C3 C 0.02279 0.04583 0.01349 0.0
C4 C 0.04376 0.04998 0.99109 0.0
C5 C 0.02169 0.02002 0.03117 0.0
C6 C 0.04266 -0.00152 0.0266 0.0
C7 C 0.06435 0.00254 0.00487 0.0
C8 C 0.06413 0.02791 0.98675 0.0
H9 H 0.32876 0.69027 0.26134 0.0
H10 H 0.36783 0.76162 0.20855 0.0
H11 H 0.29039 0.70707 0.1736 0.0
C12 C 0.3286 0.70362 0.24126 0.0
C13 C 0.30678 0.69631 0.21805 0.0
C14 C 0.35111 0.72692 0.23802 0.0
C15 C 0.35098 0.74336 0.21131 0.0
C16 C 0.32928 0.73605 0.18793 0.0
C17 C 0.3074 0.71252 0.19148 0.0
H18 H 0.97161 0.5258 0.09053 0.0
H19 H 0.02405 0.45445 0.0633 0.0
H20 H 0.94313 0.47449 0.01172 0.0
C21 C 0.97502 0.50792 0.07521 0.0
C22 C 0.9543 0.50226 0.05054 0.0
C23 C 1.00067 0.49121 0.07959 0.0
C24 C 0.00485 0.46808 0.05964 0.0
C25 C 0.98424 0.46207 0.03517 0.0
C26 C 0.95932 0.47951 0.03039 0.0
H27 H 0.67302 0.7709 0.21228 0.0
H28 H 0.75738 0.80902 0.18214 0.0
H29 H 0.72032 0.84513 0.25981 0.0
C30 C 0.69177 0.78767 0.21477 0.0
C31 C 0.69329 0.80829 0.23846 0.0
C32 C 0.71464 0.78822 0.19438 0.0
C33 C 0.73957 0.80896 0.19786 0.0
C34 C 0.74201 0.82928 0.22159 0.0
C35 C 0.71856 0.82926 0.2416 0.0
H36 H 0.00461 0.92488 0.46529 0.0
H37 H 0.04416 0.01064 0.44112 0.0
H38 H 0.07803 0.96698 0.5203 0.0
C39 C 0.02062 0.94381 0.47002 0.0
C40 C 0.04086 0.94332 0.49525 0.0
C41 C 0.02177 0.96792 0.4502 0.0
C42 C 0.0427 0.99223 0.45662 0.0
C43 C 0.06304 0.99224 0.48189 0.0
C44 C 0.06229 0.96742 0.50091 0.0
H45 H 0.17051 0.74632 0.78651 0.0
H46 H 0.24745 0.69426 0.80643 0.0
H47 H 0.18161 0.66714 0.73614 0.0
C48 C 0.18294 0.7269 0.78263 0.0
C49 C 0.1729 0.70728 0.75922 0.0
C50 C 0.20994 0.7224 0.79986 0.0
C51 C 0.22652 0.69771 0.79353 0.0
C52 C 0.21695 0.67794 0.77023 0.0
C53 C 0.18972 0.68263 0.7537 0.0
H54 H 0.93329 0.52674 0.49087 0.0
H55 H 0.00337 0.56686 0.43808 0.0
H56 H 0.96241 0.48046 0.41469 0.0
C57 C 0.9478 0.52585 0.47225 0.0
C58 C 0.94581 0.50037 0.45392 0.0
C59 C 0.9683 0.55019 0.46655 0.0
C60 C 0.98686 0.54865 0.44222 0.0
C61 C 0.98474 0.52379 0.42324 0.0
C62 C 0.96442 0.49957 0.42946 0.0
H63 H 0.74931 0.80314 0.82789 0.0
H64 H 0.79322 0.81334 0.74524 0.0
H65 H 0.82294 0.74922 0.80963 0.0
C66 C 0.76615 0.79661 0.81298 0.0
C67 C 0.78555 0.77432 0.82198 0.0
C68 C 0.76874 0.81108 0.78547 0.0
C69 C 0.79094 0.80242 0.76654 0.0
C70 C 0.81075 0.78027 0.77497 0.0
C71 C 0.80778 0.7662 0.80278 0.0
H72 H 0.24912 0.29489 0.31975 0.0
H73 H 0.28287 0.29678 0.2317 0.0
H74 H 0.31972 0.23846 0.29793 0.0
C75 C 0.26396 0.28679 0.30362 0.0
C76 C 0.28378 0.2647 0.3122 0.0
C77 C 0.26368 0.29908 0.27487 0.0
C78 C 0.28302 0.28813 0.25423 0.0
C79 C 0.30343 0.26666 0.26253 0.0
C80 C 0.30378 0.25491 0.29151 0.0
H81 H 0.48135 0.02697 0.57594 0.0
H82 H 0.5252 0.95034 0.54729 0.0
H83 H 0.43644 0.96768 0.50977 0.0
C84 C 0.48124 0.00735 0.562 0.0
C85 C 0.45587 -0.00044 0.54247 0.0
C86 C 0.50644 0.98977 0.56367 0.0
C87 C 0.50615 0.96437 0.54555 0.0
C88 C 0.48078 0.95605 0.52645 0.0
C89 C 0.45582 0.97378 0.52497 0.0
H90 H 0.17892 0.26094 0.71563 0.0
H91 H 0.2684 0.29565 0.69663 0.0
H92 H 0.21449 0.34517 0.75331 0.0
C93 C 0.19671 0.27868 0.71807 0.0
C94 C 0.19297 0.30357 0.73616 0.0
C95 C 0.22395 0.27573 0.70413 0.0
C96 C 0.24759 0.29785 0.70797 0.0
C97 C 0.24447 0.32299 0.72564 0.0
C98 C 0.21697 0.32587 0.73954 0.0
H99 H 0.8114 0.2016 0.77517 0.0
H100 H 0.84337 0.28374 0.73466 0.0
H101 H 0.77499 0.22526 0.68859 0.0
C102 C 0.81061 0.21733 0.75691 0.0
C103 C 0.79093 0.21079 0.73195 0.0
C104 C 0.82976 0.24354 0.75814 0.0
C105 C 0.82882 0.26338 0.73395 0.0
C106 C 0.80914 0.25684 0.70874 0.0
C107 C 0.79031 0.23043 0.70789 0.0
H108 H 0.49116 0.54593 0.52598 0.0
H109 H 0.54815 0.47854 0.561 0.0
H110 H 0.57242 0.52746 0.48312 0.0
C111 C 0.51138 0.53369 0.52536 0.0
C112 C 0.53158 0.54016 0.50271 0.0
C113 C 0.51723 0.51205 0.54725 0.0
C114 C 0.54262 0.49502 0.5444 0.0
C115 C 0.56203 0.49994 0.5208 0.0
C116 C 0.55669 0.52289 0.50049 0.0
H117 H 0.48836 0.44368 0.97069 0.0
H118 H 0.535 0.52786 0.9527 0.0
H119 H 0.56432 0.47678 0.02866 0.0
C120 C 0.50605 0.46083 0.97668 0.0
C121 C 0.52567 0.45725 0.00206 0.0
C122 C 0.50928 0.48625 0.95879 0.0
C123 C 0.53214 0.50837 0.96668 0.0
C124 C 0.55218 0.50515 0.99171 0.0
C125 C 0.54911 0.4793 0.00915 0.0
H126 H 0.68038 0.23846 0.28136 0.0
H127 H 0.75635 0.18957 0.31251 0.0
H128 H 0.71736 0.17525 0.22367 0.0
C129 C 0.69672 0.22219 0.27748 0.0
C130 C 0.69628 0.20778 0.24958 0.0
C131 C 0.71824 0.21553 0.30041 0.0
C132 C 0.73958 0.19463 0.29501 0.0
C133 C 0.7395 0.18001 0.26748 0.0
C134 C 0.71764 0.18659 0.24496 0.0
H135 H 0.4299 0.04184 0.99094 0.0
H136 H 0.50215 0.07161 0.93519 0.0
H137 H 0.44838 0.99113 0.91338 0.0
C138 C 0.44322 0.03871 0.97178 0.0
C139 C 0.43642 0.01358 0.95333 0.0
C140 C 0.46682 0.05997 0.96545 0.0
C141 C 0.48367 0.0557 0.94033 0.0
C142 C 0.47711 0.031 0.92159 0.0
C143 C 0.45375 0.00984 0.92831 0.0
Mg144 Mg 0.24986 0.85589 0.00881 0.0
O145 O 0.29305 0.88228 0.99242 0.0
O146 O 0.32736 0.84822 0.98894 0.0
Mg147 Mg 0.30786 0.80233 0.00186 0.0
C148 C 0.31969 0.87496 0.98652 0.0
C149 C 0.20248 0.89655 0.02297 0.0
O150 O 0.20705 0.87908 0.04597 0.0
O151 O 0.23863 0.83562 0.96237 0.0
O152 O 0.27435 0.80276 0.96069 0.0
O153 O 0.26705 0.86314 0.05619 0.0
O154 O 0.27657 0.8244 0.02922 0.0
C155 C 0.25132 0.81514 0.94902 0.0
C156 C 0.28041 0.83863 0.05413 0.0
O157 O 0.21837 0.89382 0.00042 0.0
Mg158 Mg 0.16553 0.51125 0.26737 0.0
O159 O 0.13817 0.51249 0.22187 0.0
O160 O 0.1728 0.52052 0.18772 0.0
Mg161 Mg 0.22054 0.52706 0.20991 0.0
C162 C 0.14524 0.51572 0.19474 0.0
C163 C 0.10469 0.51117 0.29849 0.0
O164 O 0.12249 0.49029 0.29194 0.0
O165 O 0.18163 0.4651 0.25608 0.0
O166 O 0.21721 0.47859 0.22425 0.0
O167 O 0.16469 0.56087 0.27398 0.0
O168 O 0.20004 0.53922 0.25085 0.0
C169 C 0.20311 0.45881 0.23958 0.0
C170 C 0.18921 0.56332 0.2594 0.0
O171 O 0.12275 0.49166 0.2916 0.0
Mg172 Mg 0.77014 0.64448 0.03039 0.0
O173 O 0.72548 0.61513 0.02256 0.0
O174 O 0.68842 0.64654 0.01801 0.0
Mg175 Mg 0.70795 0.69457 0.02471 0.0
C176 C 0.69737 0.62017 0.01833 0.0
C177 C 0.81975 0.60561 0.00407 0.0
O178 O 0.82206 0.62756 0.98493 0.0
O179 O 0.76892 0.65907 0.98117 0.0
O180 O 0.73443 0.69323 0.98228 0.0
O181 O 0.76503 0.64408 0.08 0.0
O182 O 0.74703 0.6777 0.04949 0.0
C183 C 0.75451 0.67996 0.96892 0.0
C184 C 0.75003 0.6676 0.07615 0.0
O185 O 0.7995 0.60551 0.02317 0.0
Mg186 Mg 0.9112 0.02464 0.23103 0.0
O187 O 0.87697 0.98387 0.22723 0.0
O188 O 0.90348 0.94369 0.22395 0.0
Mg189 Mg 0.95417 0.95858 0.22384 0.0
C190 C 0.8782 0.95574 0.22531 0.0
C191 C 0.88087 0.07884 0.25561 0.0
O192 O 0.90991 0.08676 0.26067 0.0
O193 O 0.92442 0.01246 0.2795 0.0
O194 O 0.95235 0.97365 0.2726 0.0
O195 O 0.91169 0.0293 0.18123 0.0
O196 O 0.94337 0.00304 0.20817 0.0
C197 C 0.94114 0.99224 0.28971 0.0
C198 C 0.93432 0.01239 0.18233 0.0
O199 O 0.87336 0.05339 0.24434 0.0
Mg200 Mg 0.27102 0.14537 0.52673 0.0
O201 O 0.22879 0.1127 0.51774 0.0
O202 O 0.18989 0.14158 0.50945 0.0
Mg203 Mg 0.2055 0.19073 0.51598 0.0
C204 C 0.20054 0.11593 0.51135 0.0
C205 C 0.33222 0.12095 0.52278 0.0
O206 O 0.33711 0.14995 0.52483 0.0
O207 O 0.27103 0.15803 0.47723 0.0
O208 O 0.23449 0.19026 0.47508 0.0
O209 O 0.26471 0.14577 0.57596 0.0
O210 O 0.24374 0.17633 0.54388 0.0
C211 C 0.25603 0.17757 0.4634 0.0
C212 C 0.24719 0.16732 0.57093 0.0
O213 O 0.30485 0.10995 0.52136 0.0
Mg214 Mg 0.40004 0.52784 0.74348 0.0
O215 O 0.36727 0.48662 0.73404 0.0
O216 O 0.39581 0.44948 0.72285 0.0
Mg217 Mg 0.44552 0.46711 0.72138 0.0
C218 C 0.37004 0.45939 0.72756 0.0
C219 C 0.33995 0.55848 0.74694 0.0
O220 O 0.33959 0.55021 0.71887 0.0
O221 O 0.41658 0.50762 0.78784 0.0
O222 O 0.44625 0.47296 0.77239 0.0
O223 O 0.3973 0.54233 0.69585 0.0
O224 O 0.43103 0.51235 0.71421 0.0
C225 C 0.43495 0.48725 0.79324 0.0
C226 C 0.4198 0.52617 0.69152 0.0
O227 O 0.36196 0.55152 0.76454 0.0
Mg228 Mg 0.743 0.35135 0.50726 0.0
O229 O 0.78459 0.38252 0.49629 0.0
O230 O 0.82272 0.35294 0.49135 0.0
Mg231 Mg 0.80714 0.30464 0.5015 0.0
C232 C 0.81223 0.37868 0.4908 0.0
C233 C 0.68249 0.37676 0.50477 0.0
O234 O 0.67849 0.34846 0.51151 0.0
O235 O 0.73763 0.33447 0.45874 0.0
O236 O 0.77427 0.30233 0.45993 0.0
O237 O 0.7551 0.35499 0.55647 0.0
O238 O 0.77113 0.32096 0.52716 0.0
C239 C 0.75152 0.31393 0.44678 0.0
C240 C 0.77103 0.33223 0.55341 0.0
O241 O 0.70915 0.38705 0.49924 0.0
Mg242 Mg 0.65804 0.01705 0.76984 0.0
O243 O 0.62767 0.01453 0.72641 0.0
O244 O 0.65786 0.02226 0.68848 0.0
Mg245 Mg 0.70691 0.03199 0.70716 0.0
C246 C 0.63155 0.01674 0.69849 0.0
C247 C 0.59529 0.01379 0.79622 0.0
O248 O 0.59472 0.03675 0.77823 0.0
O249 O 0.67633 0.97131 0.76058 0.0
O250 O 0.70858 0.98474 0.72548 0.0
O251 O 0.65475 0.06655 0.77294 0.0
O252 O 0.69034 0.04536 0.74983 0.0
C253 C 0.69731 0.9654 0.7433 0.0
C254 C 0.67862 0.06933 0.75744 0.0
O255 O 0.61839 -0.00173 0.7968 0.0
Mg256 Mg 0.03649 0.26646 0.91316 0.0
O257 O 0.99413 0.2635 0.88058 0.0
O258 O 0.95583 0.2447 0.90697 0.0
Mg259 Mg 0.97343 0.23199 0.95385 0.0
C260 C 0.966 0.25539 0.88283 0.0
C261 C 0.06484 0.29045 0.85359 0.0
O262 O 0.06494 0.29859 0.88156 0.0
O263 O 0.01782 0.30549 0.93746 0.0
O264 O 0.98388 0.28119 0.96554 0.0
O265 O 0.049 0.22061 0.90118 0.0
O266 O 0.01848 0.23039 0.93663 0.0
C267 C 0.9989 0.30498 0.95805 0.0
C268 C 0.03127 0.21101 0.92159 0.0
O269 O 0.06433 0.29762 0.88104 0.0
Mg270 Mg 0.53555 0.75226 0.40765 0.0
O271 O 0.48984 0.74669 0.37958 0.0
O272 O 0.45396 0.73638 0.41205 0.0
Mg273 Mg 0.47542 0.73468 0.45934 0.0
C274 C 0.46197 0.74098 0.38544 0.0
C275 C 0.58792 0.78284 0.37651 0.0
O276 O 0.59669 0.78261 0.40496 0.0
O277 O 0.52346 0.7978 0.42396 0.0
O278 O 0.48839 0.78462 0.4565 0.0
O279 O 0.54171 0.70322 0.40526 0.0
O280 O 0.51829 0.7248 0.44061 0.0
C281 C 0.50491 0.80442 0.44342 0.0
C282 C 0.52691 0.70079 0.42934 0.0
O283 O 0.56115 0.77234 0.36875 0.0
Mg284 Mg 0.97213 0.73324 0.61033 0.0
O285 O 0.01915 0.72785 0.63547 0.0
O286 O 0.05038 0.72054 0.59899 0.0
Mg287 Mg 0.02589 0.72112 0.55304 0.0
C288 C 0.04557 0.72323 0.62662 0.0
C289 C 0.92141 0.75188 0.64357 0.0
O290 O 0.91276 0.74713 0.61539 0.0
O291 O 0.98755 0.7805 0.59566 0.0
O292 O 0.01888 0.77069 0.55988 0.0
O293 O 0.96101 0.6839 0.61045 0.0
O294 O 0.98381 0.70808 0.57441 0.0
C295 C 0.00541 0.78904 0.57536 0.0
C296 C 0.97342 0.68319 0.58504 0.0
O297 O 0.94928 0.74925 0.65148 0.0
Mg298 Mg 0.48475 0.24336 0.10837 0.0
O299 O 0.52854 0.23606 0.13735 0.0
O300 O 0.56462 0.22702 0.10623 0.0
Mg301 Mg 0.5444 0.22793 0.05824 0.0
C302 C 0.55589 0.23043 0.13258 0.0
C303 C 0.43344 0.24916 0.14853 0.0
O304 O 0.42268 0.23281 0.12562 0.0
O305 O 0.50372 0.29001 0.09485 0.0
O306 O 0.53874 0.278 0.06346 0.0
O307 O 0.47177 0.19461 0.10813 0.0
O308 O 0.49855 0.21728 0.07373 0.0
C309 C 0.52433 0.29732 0.07671 0.0
C310 C 0.48609 0.19298 0.08388 0.0
O311 O 0.46102 0.25953 0.14886 0.0
H312 H 0.17767 0.75148 0.84017 0.0
H313 H 0.2691 0.74206 0.81332 0.0
H314 H 0.28967 0.77111 0.85622 0.0
H315 H 0.28221 0.79581 0.90349 0.0
H316 H 0.19137 0.80868 0.92938 0.0
H317 H 0.17007 0.78245 0.88433 0.0
C318 C 0.20205 0.75622 0.84336 0.0
C319 C 0.22176 0.74365 0.82393 0.0
C320 C 0.21389 0.7736 0.86794 0.0
C321 C 0.25333 0.75033 0.82846 0.0
C322 C 0.2652 0.76722 0.85289 0.0
C323 C 0.25774 0.79318 0.89905 0.0
C324 C 0.23837 0.8038 0.91981 0.0
C325 C 0.24575 0.77831 0.87316 0.0
C326 C 0.20673 0.80069 0.91365 0.0
C327 C 0.19457 0.78553 0.88801 0.0
H328 H 0.01773 0.47935 0.4029 0.0
H329 H 0.99339 0.56871 0.3836 0.0
H330 H 0.02693 0.57145 0.34221 0.0
H331 H 0.06553 0.54984 0.31336 0.0
H332 H 0.09082 0.46084 0.33234 0.0
H333 H 0.05434 0.45636 0.37155 0.0
C334 C 0.01949 0.49923 0.38935 0.0
C335 C 0.00337 0.52393 0.3966 0.0
C336 C 0.03904 0.50074 0.36553 0.0
C337 C 0.00598 0.5496 0.37888 0.0
C338 C 0.02506 0.55116 0.35511 0.0
C339 C 0.06272 0.52933 0.32586 0.0
C340 C 0.08077 0.50582 0.32001 0.0
C341 C 0.04206 0.52709 0.34855 0.0
C342 C 0.07712 0.47931 0.33637 0.0
C343 C 0.05633 0.47678 0.35888 0.0
H344 H 0.78809 0.71548 0.83763 0.0
H345 H 0.77732 0.8025 0.87412 0.0
H346 H 0.76657 0.78064 0.92215 0.0
H347 H 0.75787 0.73719 0.95327 0.0
H348 H 0.77184 0.64996 0.91977 0.0
H349 H 0.78412 0.6715 0.87115 0.0
C350 C 0.78383 0.72965 0.85623 0.0
C351 C 0.78274 0.76057 0.85196 0.0
C352 C 0.77805 0.71691 0.88422 0.0
C353 C 0.77734 0.77859 0.87641 0.0
C354 C 0.77135 0.76614 0.90399 0.0
C355 C 0.76352 0.72283 0.9353 0.0
C356 C 0.76334 0.69201 0.93979 0.0
C357 C 0.77106 0.73537 0.90796 0.0
C358 C 0.77157 0.67375 0.91666 0.0
C359 C 0.77856 0.68608 0.88893 0.0
H360 H 0.98953 0.01159 0.42379 0.0
H361 H 0.01314 0.92124 0.41165 0.0
H362 H 0.98778 0.92002 0.362 0.0
H363 H 0.96288 0.94577 0.32051 0.0
H364 H 0.9393 0.03626 0.33164 0.0
H365 H 0.96043 0.03618 0.38323 0.0
C366 C 0.98892 0.9916 0.41031 0.0
C367 C 0.00333 0.96658 0.42141 0.0
C368 C 0.97445 0.99111 0.38155 0.0
C369 C 0.002 0.9407 0.40383 0.0
C370 C 0.98769 0.94005 0.37532 0.0
C371 C 0.96209 0.96544 0.33426 0.0
C372 C 0.94985 0.99111 0.32207 0.0
C373 C 0.97441 0.96529 0.36374 0.0
C374 C 0.94861 0.0162 0.34041 0.0
C375 C 0.96085 0.01623 0.36987 0.0
H376 H 0.18999 0.25735 0.65471 0.0
H377 H 0.26787 0.2366 0.71117 0.0
H378 H 0.27927 0.1975 0.67653 0.0
H379 H 0.27047 0.17341 0.62759 0.0
H380 H 0.19529 0.19729 0.56899 0.0
H381 H 0.1791 0.23059 0.60704 0.0
C382 C 0.20906 0.24379 0.65958 0.0
C383 C 0.22812 0.24967 0.68526 0.0
C384 C 0.21604 0.22211 0.63907 0.0
C385 C 0.25302 0.23237 0.69137 0.0
C386 C 0.25954 0.21011 0.6716 0.0
C387 C 0.25015 0.18541 0.62344 0.0
C388 C 0.23419 0.18307 0.5955 0.0
C389 C 0.24169 0.20534 0.64499 0.0
C390 C 0.20813 0.19899 0.59022 0.0
C391 C 0.19888 0.21805 0.61197 0.0
H392 H 0.48564 0.55444 0.57367 0.0
H393 H 0.50489 0.46189 0.58155 0.0
H394 H 0.47715 0.45807 0.62693 0.0
H395 H 0.44807 0.48143 0.66534 0.0
H396 H 0.42357 0.57173 0.65268 0.0
H397 H 0.45156 0.57541 0.60736 0.0
C398 C 0.48321 0.53301 0.58446 0.0
C399 C 0.49793 0.50862 0.57377 0.0
C400 C 0.46599 0.53046 0.60981 0.0
C401 C 0.49479 0.48147 0.58929 0.0
C402 C 0.47856 0.47909 0.61524 0.0
C403 C 0.4487 0.50177 0.65247 0.0
C404 C 0.43399 0.52635 0.66245 0.0
C405 C 0.4643 0.50354 0.62589 0.0
C406 C 0.43461 0.55247 0.64539 0.0
C407 C 0.45077 0.55466 0.61956 0.0
H408 H 0.81796 0.2444 0.65129 0.0
H409 H 0.79613 0.31505 0.7092 0.0
H410 H 0.78527 0.34649 0.66581 0.0
H411 H 0.7765 0.35136 0.61127 0.0
H412 H 0.79876 0.28012 0.55387 0.0
H413 H 0.81538 0.25166 0.5971 0.0
C414 C 0.81127 0.26687 0.65431 0.0
C415 C 0.80752 0.27743 0.68317 0.0
C416 C 0.805 0.28461 0.62937 0.0
C417 C 0.79917 0.3066 0.68707 0.0
C418 C 0.7928 0.32444 0.66229 0.0
C419 C 0.7855 0.32984 0.60822 0.0
C420 C 0.78605 0.31779 0.57935 0.0
C421 C 0.79483 0.31336 0.6333 0.0
C422 C 0.79798 0.28996 0.57577 0.0
C423 C 0.80736 0.27353 0.60053 0.0
H424 H 0.50567 6e-05 0.62327 0.0
H425 H 0.56629 0.995 0.55165 0.0
H426 H 0.6103 0.00356 0.58691 0.0
H427 H 0.63152 0.01092 0.63814 0.0
H428 H 0.57112 0.01401 0.71037 0.0
H429 H 0.52711 0.00773 0.67488 0.0
C430 C 0.52854 0.00122 0.61543 0.0
C431 C 0.53281 0.99707 0.58495 0.0
C432 C 0.55375 0.00554 0.63595 0.0
C433 C 0.56252 0.9981 0.57505 0.0
C434 C 0.58765 0.00296 0.59519 0.0
C435 C 0.60876 0.01034 0.64619 0.0
C436 C 0.60474 0.01295 0.67695 0.0
C437 C 0.58354 0.00643 0.62572 0.0
C438 C 0.57498 0.01195 0.68687 0.0
C439 C 0.54975 0.00843 0.66657 0.0
H440 H 0.89043 0.26009 0.75905 0.0
H441 H 0.81675 0.23937 0.81649 0.0
H442 H 0.85231 0.24254 0.86015 0.0
H443 H 0.90437 0.24795 0.88166 0.0
H444 H 0.97876 0.26818 0.82481 0.0
H445 H 0.94285 0.26875 0.78133 0.0
C446 C 0.88217 0.25681 0.78119 0.0
C447 C 0.85106 0.2493 0.78455 0.0
C448 C 0.90286 0.25831 0.80625 0.0
C449 C 0.84065 0.24483 0.81334 0.0
C450 C 0.86096 0.24664 0.83829 0.0
C451 C 0.91284 0.2526 0.85981 0.0
C452 C 0.94431 0.2577 0.85656 0.0
C453 C 0.89215 0.25275 0.83496 0.0
C454 C 0.95469 0.26405 0.82802 0.0
C455 C 0.93416 0.26434 0.80311 0.0
H456 H 0.52391 0.93605 0.49168 0.0
H457 H 0.43478 0.91293 0.5232 0.0
H458 H 0.43345 0.86485 0.49812 0.0
H459 H 0.45886 0.82826 0.47025 0.0
H460 H 0.54789 0.85067 0.43813 0.0
H461 H 0.54788 0.90035 0.46009 0.0
C462 C 0.50421 0.92045 0.4929 0.0
C463 C 0.47955 0.92788 0.50937 0.0
C464 C 0.50358 0.89282 0.47837 0.0
C465 C 0.45394 0.90774 0.51051 0.0
C466 C 0.45322 0.88022 0.4963 0.0
C467 C 0.4782 0.84407 0.46783 0.0
C468 C 0.50348 0.83567 0.45289 0.0
C469 C 0.47808 0.87238 0.48058 0.0
C470 C 0.52814 0.85658 0.44953 0.0
C471 C 0.52822 0.88491 0.46225 0.0
H472 H 0.18792 0.32288 0.79323 0.0
H473 H 0.13428 0.28715 0.71655 0.0
H474 H 0.08938 0.28202 0.74594 0.0
H475 H 0.06645 0.28333 0.79468 0.0
H476 H 0.11972 0.32054 0.87077 0.0
H477 H 0.16333 0.33013 0.84018 0.0
C478 C 0.16629 0.31467 0.78266 0.0
C479 C 0.16475 0.30493 0.75279 0.0
C480 C 0.14041 0.31194 0.79965 0.0
C481 C 0.13641 0.29411 0.73969 0.0
C482 C 0.11063 0.29129 0.75644 0.0
C483 C 0.08746 0.29406 0.80435 0.0
C484 C 0.08984 0.30106 0.83485 0.0
C485 C 0.11255 0.2994 0.78665 0.0
C486 C 0.11719 0.31494 0.84727 0.0
C487 C 0.14224 0.32031 0.82982 0.0
H488 H 0.51216 0.5938 0.51782 0.0
H489 H 0.54309 0.54607 0.44315 0.0
H490 H 0.54302 0.59127 0.41317 0.0
H491 H 0.53737 0.64532 0.40936 0.0
H492 H 0.50462 0.69167 0.48403 0.0
H493 H 0.50125 0.64573 0.51231 0.0
C494 C 0.51813 0.59289 0.49475 0.0
C495 C 0.52788 0.56646 0.48298 0.0
C496 C 0.51772 0.61881 0.47754 0.0
C497 C 0.53609 0.56618 0.45312 0.0
C498 C 0.5359 0.59201 0.43585 0.0
C499 C 0.52913 0.64525 0.43167 0.0
C500 C 0.52143 0.67198 0.44455 0.0
C501 C 0.52733 0.61863 0.44803 0.0
C502 C 0.51065 0.67148 0.47346 0.0
C503 C 0.50885 0.64521 0.48979 0.0
H504 H 0.8059 0.77456 0.71463 0.0
H505 H 0.87037 0.76939 0.78998 0.0
H506 H 0.91062 0.76037 0.75634 0.0
H507 H 0.9278 0.75518 0.70493 0.0
H508 H 0.86249 0.76254 0.63039 0.0
H509 H 0.82275 0.77034 0.66425 0.0
C510 C 0.8288 0.77176 0.72379 0.0
C511 C 0.835 0.77283 0.75484 0.0
C512 C 0.85191 0.76727 0.70436 0.0
C513 C 0.86475 0.76836 0.7662 0.0
C514 C 0.88789 0.76349 0.74694 0.0
C515 C 0.90492 0.75867 0.69615 0.0
C516 C 0.89828 0.75825 0.66508 0.0
C517 C 0.88181 0.76314 0.71589 0.0
C518 C 0.86841 0.76268 0.65413 0.0
C519 C 0.84552 0.7671 0.67349 0.0
H520 H 0.99437 0.91903 0.52645 0.0
H521 H 0.0871 0.90739 0.50587 0.0
H522 H 0.08518 0.85922 0.53112 0.0
H523 H 0.05549 0.81854 0.55483 0.0
H524 H 0.96344 0.83078 0.57756 0.0
H525 H 0.96678 0.8808 0.55619 0.0
C526 C 0.01423 0.90605 0.52797 0.0
C527 C 0.04078 0.91647 0.51424 0.0
C528 C 0.01301 0.87853 0.54278 0.0
C529 C 0.0665 0.89973 0.51641 0.0
C530 C 0.06534 0.87218 0.53069 0.0
C531 C 0.03633 0.83236 0.5555 0.0
C532 C 0.00914 0.8209 0.56744 0.0
C533 C 0.0385 0.86107 0.54334 0.0
C534 C 0.98462 0.83913 0.56854 0.0
C535 C 0.98645 0.86764 0.55613 0.0
H536 H 0.16948 0.70471 0.69909 0.0
H537 H 0.11639 0.72359 0.77369 0.0
H538 H 0.07206 0.73074 0.73949 0.0
H539 H 0.04804 0.7299 0.68795 0.0
H540 H 0.10292 0.71038 0.61445 0.0
H541 H 0.14651 0.70487 0.64869 0.0
C542 C 0.14814 0.71017 0.70795 0.0
C543 C 0.14613 0.7132 0.73891 0.0
C544 C 0.12291 0.71401 0.6883 0.0
C545 C 0.11854 0.72112 0.74992 0.0
C546 C 0.09316 0.72505 0.73038 0.0
C547 C 0.06953 0.72446 0.67945 0.0
C548 C 0.07188 0.72047 0.6485 0.0
C549 C 0.09499 0.72129 0.69945 0.0
C550 C 0.10011 0.71357 0.63801 0.0
C551 C 0.12524 0.71038 0.65761 0.0
H552 H 0.96512 0.5548 0.52732 0.0
H553 H 0.97522 0.60773 0.44782 0.0
H554 H 0.98035 0.65284 0.47774 0.0
H555 H 0.98073 0.67769 0.52605 0.0
H556 H 0.96663 0.62601 0.60551 0.0
H557 H 0.96416 0.58009 0.57605 0.0
C558 C 0.96814 0.5762 0.51649 0.0
C559 C 0.97014 0.57765 0.48528 0.0
C560 C 0.97046 0.60235 0.53384 0.0
C561 C 0.97431 0.60571 0.47179 0.0
C562 C 0.97706 0.63164 0.48888 0.0
C563 C 0.97745 0.65637 0.53701 0.0
C564 C 0.97413 0.65523 0.56794 0.0
C565 C 0.97521 0.63024 0.51988 0.0
C566 C 0.96936 0.62745 0.58172 0.0
C567 C 0.96786 0.60122 0.56487 0.0
H568 H 0.74646 0.88984 0.22613 0.0
H569 H 0.80014 0.81345 0.22526 0.0
H570 H 0.84688 0.84571 0.22652 0.0
H571 H 0.87243 0.89534 0.22585 0.0
H572 H 0.81943 0.97242 0.2259 0.0
H573 H 0.77263 0.94027 0.22686 0.0
C574 C 0.76846 0.8804 0.22664 0.0
C575 C 0.76994 0.84938 0.22557 0.0
C576 C 0.79534 0.89917 0.22686 0.0
C577 C 0.79851 0.8373 0.22592 0.0
C578 C 0.82522 0.85571 0.22658 0.0
C579 C 0.8507 0.90522 0.22604 0.0
C580 C 0.8496 0.93633 0.22562 0.0
C581 C 0.82389 0.88666 0.22661 0.0
C582 C 0.82108 0.94857 0.22608 0.0
C583 C 0.79424 0.93019 0.2267 0.0
H584 H 0.79998 0.18458 0.28368 0.0
H585 H 0.73023 0.12557 0.24018 0.0
H586 H 0.76753 0.08879 0.23317 0.0
H587 H 0.82004 0.0733 0.23966 0.0
H588 H 0.88943 0.1326 0.28353 0.0
H589 H 0.85203 0.16901 0.29067 0.0
C590 C 0.79284 0.16356 0.2729 0.0
C591 C 0.7623 0.15786 0.26253 0.0
C592 C 0.81433 0.14245 0.26917 0.0
C593 C 0.75363 0.13071 0.24808 0.0
C594 C 0.77492 0.10956 0.24426 0.0
C595 C 0.82695 0.09411 0.25094 0.0
C596 C 0.85755 0.10013 0.26107 0.0
C597 C 0.80533 0.11517 0.25477 0.0
C598 C 0.86609 0.12732 0.27548 0.0
C599 C 0.84471 0.14822 0.27955 0.0
H600 H 0.43541 0.95333 0.94932 0.0
H601 H 0.37992 0.02427 0.97213 0.0
H602 H 0.33859 0.98804 0.98375 0.0
H603 H 0.31834 0.93582 0.98809 0.0
H604 H 0.37444 0.86549 0.96438 0.0
H605 H 0.41486 0.90183 0.95197 0.0
C606 C 0.41416 0.96094 0.95648 0.0
C607 C 0.41094 0.99153 0.95992 0.0
C608 C 0.3904 0.94002 0.96292 0.0
C609 C 0.38332 0.00086 0.96972 0.0
C610 C 0.35953 0.98014 0.97618 0.0
C611 C 0.3393 0.92846 0.98 0.0
C612 C 0.34319 0.89785 0.97735 0.0
C613 C 0.36284 0.9496 0.97298 0.0
C614 C 0.37068 0.88882 0.96688 0.0
C615 C 0.39394 0.90961 0.95974 0.0
H616 H 0.27895 0.3462 0.23963 0.0
H617 H 0.20697 0.31094 0.2936 0.0
H618 H 0.18098 0.35678 0.28675 0.0
H619 H 0.1806 0.4085 0.268 0.0
H620 H 0.25161 0.44087 0.21127 0.0
H621 H 0.27518 0.39406 0.21587 0.0
C622 C 0.25713 0.34791 0.24925 0.0
C623 C 0.24533 0.32503 0.26744 0.0
C624 C 0.24198 0.37399 0.24478 0.0
C625 C 0.2172 0.32837 0.28011 0.0
C626 C 0.20213 0.35456 0.27604 0.0
C627 C 0.201 0.40517 0.25636 0.0
C628 C 0.21442 0.42853 0.23972 0.0
C629 C 0.21466 0.37783 0.25891 0.0
C630 C 0.24074 0.42358 0.22452 0.0
C631 C 0.25442 0.39674 0.22713 0.0
H632 H 0.12403 0.99202 0.49694 0.0
H633 H 0.05175 0.05072 0.4798 0.0
H634 H 0.08786 0.09381 0.48701 0.0
H635 H 0.13966 0.11488 0.49767 0.0
H636 H 0.21267 0.05691 0.51479 0.0
H637 H 0.17656 0.01353 0.50812 0.0
C638 C 0.1162 0.01427 0.4951 0.0
C639 C 0.08523 0.01815 0.48781 0.0
C640 C 0.1372 0.03907 0.49911 0.0
C641 C 0.07548 0.04711 0.48511 0.0
C642 C 0.09611 0.07177 0.48929 0.0
C643 C 0.14784 0.09281 0.49995 0.0
C644 C 0.17897 0.08932 0.50673 0.0
C645 C 0.12701 0.06802 0.49613 0.0
C646 C 0.18891 0.06039 0.50955 0.0
C647 C 0.16824 0.03553 0.50579 0.0
H648 H 0.73363 0.20183 0.75011 0.0
H649 H 0.80589 0.15761 0.71192 0.0
H650 H 0.77609 0.10988 0.71395 0.0
H651 H 0.73135 0.0806 0.73002 0.0
H652 H 0.65915 0.12423 0.76951 0.0
H653 H 0.68683 0.17248 0.76329 0.0
C654 C 0.7425 0.18168 0.74195 0.0
C655 C 0.77169 0.18285 0.73088 0.0
C656 C 0.72534 0.15438 0.74351 0.0
C657 C 0.78335 0.15691 0.72045 0.0
C658 C 0.76637 0.12974 0.72167 0.0
C659 C 0.72135 0.10065 0.73683 0.0
C660 C 0.69322 0.09877 0.75026 0.0
C661 C 0.73757 0.12816 0.73361 0.0
C662 C 0.68078 0.12504 0.75913 0.0
C663 C 0.69664 0.15263 0.75568 0.0
H664 H 0.45676 0.0595 0.53646 0.0
H665 H 0.39558 0.98133 0.54231 0.0
H666 H 0.35181 0.01166 0.53555 0.0
H667 H 0.33089 0.06054 0.52813 0.0
H668 H 0.39242 0.13864 0.52237 0.0
H669 H 0.43591 0.10824 0.52883 0.0
C670 C 0.43383 0.04919 0.53657 0.0
C671 C 0.42941 0.01827 0.53994 0.0
C672 C 0.40879 0.06672 0.53247 0.0
C673 C 0.39957 0.00511 0.53955 0.0
C674 C 0.37454 0.02242 0.53572 0.0
C675 C 0.35381 0.07087 0.52809 0.0
C676 C 0.35831 0.10184 0.52476 0.0
C677 C 0.37886 0.05326 0.53203 0.0
C678 C 0.38821 0.11486 0.5249 0.0
C679 C 0.41317 0.09751 0.52868 0.0
H680 H 0.56132 0.43991 0.52263 0.0
H681 H 0.62107 0.51811 0.5108 0.0
H682 H 0.6635 0.48707 0.50345 0.0
H683 H 0.68376 0.43745 0.50101 0.0
H684 H 0.6233 0.35953 0.51279 0.0
H685 H 0.58118 0.39064 0.51939 0.0
C686 C 0.58371 0.45013 0.51869 0.0
C687 C 0.58808 0.48121 0.51736 0.0
C688 C 0.60789 0.43217 0.51429 0.0
C689 C 0.6171 0.49418 0.51176 0.0
C690 C 0.64136 0.47646 0.5076 0.0
C691 C 0.66132 0.4273 0.50479 0.0
C692 C 0.6568 0.39617 0.50643 0.0
C693 C 0.63703 0.44538 0.50877 0.0
C694 C 0.62755 0.3834 0.51146 0.0
C695 C 0.60337 0.40118 0.51533 0.0
H696 H 0.71445 0.27459 0.31389 0.0
H697 H 0.72377 0.18854 0.35425 0.0
H698 H 0.7337 0.21164 0.40305 0.0
H699 H 0.74411 0.2561 0.43363 0.0
H700 H 0.73275 0.34254 0.3955 0.0
H701 H 0.71885 0.31957 0.34648 0.0
C702 C 0.71805 0.26092 0.33348 0.0
C703 C 0.71907 0.2299 0.3303 0.0
C704 C 0.72366 0.27442 0.36176 0.0
C705 C 0.72366 0.21249 0.35593 0.0
C706 C 0.72927 0.22565 0.38389 0.0
C707 C 0.73838 0.2699 0.41459 0.0
C708 C 0.7399 0.3009 0.41787 0.0
C709 C 0.73017 0.25657 0.38691 0.0
C710 C 0.73183 0.31858 0.39333 0.0
C711 C 0.724 0.30544 0.36536 0.0
H712 H 0.51391 0.98779 0.90636 0.0
H713 H 0.47805 0.0697 0.87581 0.0
H714 H 0.50924 0.06981 0.8325 0.0
H715 H 0.54941 0.04901 0.80568 0.0
H716 H 0.58851 0.96884 0.83727 0.0
H717 H 0.5532 0.96539 0.87757 0.0
C718 C 0.51272 0.00534 0.8899 0.0
C719 C 0.49383 0.02872 0.8941 0.0
C720 C 0.5314 0.00565 0.8654 0.0
C721 C 0.49255 0.05157 0.87293 0.0
C722 C 0.51038 0.05164 0.84824 0.0
C723 C 0.55006 0.03053 0.82111 0.0
C724 C 0.57173 0.00929 0.81848 0.0
C725 C 0.53031 0.02915 0.84458 0.0
C726 C 0.57214 0.98555 0.83879 0.0
C727 C 0.552 0.98362 0.86191 0.0
H728 H 0.28605 0.20666 0.33011 0.0
H729 H 0.28103 0.29574 0.36382 0.0
H730 H 0.27238 0.27632 0.41337 0.0
H731 H 0.2626 0.23426 0.44637 0.0
H732 H 0.27077 0.14505 0.41514 0.0
H733 H 0.28222 0.16422 0.36539 0.0
C734 C 0.28363 0.22181 0.34843 0.0
C735 C 0.28338 0.25259 0.34302 0.0
C736 C 0.27897 0.21047 0.37719 0.0
C737 C 0.28037 0.27192 0.3671 0.0
C738 C 0.27555 0.26086 0.39551 0.0
C739 C 0.267 0.21902 0.42865 0.0
C740 C 0.26532 0.18834 0.43405 0.0
C741 C 0.27403 0.23021 0.40061 0.0
C742 C 0.27176 0.16879 0.41128 0.0
C743 C 0.27824 0.17976 0.38292 0.0
H744 H 0.49711 0.4456 0.91453 0.0
H745 H 0.47859 0.53424 0.94062 0.0
H746 H 0.4512 0.54148 0.89254 0.0
H747 H 0.43607 0.52395 0.84159 0.0
H748 H 0.4573 0.43618 0.81482 0.0
H749 H 0.47961 0.42711 0.86465 0.0
C750 C 0.48657 0.46628 0.90985 0.0
C751 C 0.48986 0.48936 0.93102 0.0
C752 C 0.47147 0.4705 0.88194 0.0
C753 C 0.47651 0.51623 0.92454 0.0
C754 C 0.46085 0.52036 0.89709 0.0
C755 C 0.44515 0.50268 0.84682 0.0
C756 C 0.44511 0.48084 0.82446 0.0
C757 C 0.4587 0.49786 0.87537 0.0
C758 C 0.45723 0.45348 0.83154 0.0
C759 C 0.47002 0.44825 0.86004 0.0
H760 H 0.72439 0.72968 0.19713 0.0
H761 H 0.70332 0.80004 0.13609 0.0
H762 H 0.70889 0.76724 0.09361 0.0
H763 H 0.72517 0.72078 0.0743 0.0
H764 H 0.7497 0.65092 0.13488 0.0
H765 H 0.73713 0.68112 0.17721 0.0
C766 C 0.72041 0.73743 0.17446 0.0
C767 C 0.71331 0.76696 0.16943 0.0
C768 C 0.72458 0.71869 0.15023 0.0
C769 C 0.70864 0.77724 0.14019 0.0
C770 C 0.71195 0.75857 0.11602 0.0
C771 C 0.72723 0.71183 0.09667 0.0
C772 C 0.73845 0.68366 0.10142 0.0
C773 C 0.7207 0.72955 0.1208 0.0
C774 C 0.74119 0.67259 0.13063 0.0
C775 C 0.73409 0.68987 0.15484 0.0
H776 H 0.03084 0.99585 0.08671 0.0
H777 H 0.96287 0.03663 0.03039 0.0
H778 H 0.92901 0.03617 0.07151 0.0
H779 H 0.91999 0.02732 0.12454 0.0
H780 H 0.9873 0.9848 0.18002 0.0
H781 H 0.01949 0.98192 0.13786 0.0
C782 C 0.00838 0.00404 0.08308 0.0
C783 C 0.99978 0.01667 0.05542 0.0
C784 C 0.98875 0.00336 0.10674 0.0
C785 C 0.97058 0.02746 0.05156 0.0
C786 C 0.95102 0.02703 0.07505 0.0
C787 C 0.94149 0.01701 0.1273 0.0
C788 C 0.95124 0.0065 0.15552 0.0
C789 C 0.96009 0.01556 0.10292 0.0
C790 C 0.97914 0.99309 0.15861 0.0
C791 C 0.99771 0.99158 0.13451 0.0
H792 H 0.32589 0.79552 0.18096 0.0
H793 H 0.33005 0.71399 0.13183 0.0
H794 H 0.31937 0.73987 0.08497 0.0
H795 H 0.30229 0.78395 0.05898 0.0
H796 H 0.29502 0.86503 0.10824 0.0
H797 H 0.31392 0.8413 0.15389 0.0
C798 C 0.32519 0.7837 0.15987 0.0
C799 C 0.32854 0.75296 0.1597 0.0
C800 C 0.31816 0.79857 0.1331 0.0
C801 C 0.3273 0.73767 0.13237 0.0
C802 C 0.32113 0.75242 0.10564 0.0
C803 C 0.30544 0.79664 0.07955 0.0
C804 C 0.29698 0.82611 0.08025 0.0
C805 C 0.31551 0.78263 0.10584 0.0
C806 C 0.30116 0.84222 0.10713 0.0
C807 C 0.31188 0.82864 0.13328 0.0
H808 H 0.06164 0.49822 0.07655 0.0
H809 H 0.99073 0.49915 0.13872 0.0
H810 H 0.02905 0.5073 0.18015 0.0
H811 H 0.08312 0.51248 0.19869 0.0
H812 H 0.15328 0.51223 0.13522 0.0
H813 H 0.11489 0.50542 0.0945 0.0
C814 C 0.0546 0.50017 0.0992 0.0
C815 C 0.02349 0.49785 0.10465 0.0
C816 C 0.07665 0.5049 0.12273 0.0
C817 C 0.0146 0.50095 0.134 0.0
C818 C 0.0365 0.50547 0.15767 0.0
C819 C 0.09 0.51101 0.17596 0.0
C820 C 0.12117 0.51274 0.17022 0.0
C821 C 0.06766 0.50723 0.15233 0.0
C822 C 0.12956 0.51099 0.1405 0.0
C823 C 0.1076 0.50704 0.11707 0.0
H824 H 0.34472 0.72757 0.29793 0.0
H825 H 0.41213 0.73975 0.23218 0.0
H826 H 0.45232 0.74634 0.27178 0.0
H827 H 0.46862 0.7462 0.32523 0.0
H828 H 0.40066 0.73238 0.39046 0.0
H829 H 0.36069 0.72844 0.35093 0.0
C830 C 0.36821 0.73154 0.29222 0.0
C831 C 0.37533 0.73302 0.26209 0.0
C832 C 0.39125 0.73479 0.31505 0.0
C833 C 0.40589 0.73881 0.25516 0.0
C834 C 0.42895 0.74234 0.27781 0.0
C835 C 0.44508 0.74242 0.33083 0.0
C836 C 0.43786 0.73944 0.3609 0.0
C837 C 0.42195 0.74002 0.30787 0.0
C838 C 0.40711 0.73461 0.36761 0.0
C839 C 0.38409 0.73238 0.34498 0.0
H840 H 0.98271 0.40514 0.0523 0.0
H841 H 0.99285 0.46116 0.97537 0.0
H842 H 0.99938 0.41745 0.94426 0.0
H843 H 0.00223 0.36287 0.93941 0.0
H844 H 0.98812 0.30752 0.01651 0.0
H845 H 0.98316 0.35125 0.04713 0.0
C846 C 0.98642 0.40766 0.02871 0.0
C847 C 0.98763 0.43606 0.01603 0.0
C848 C 0.98942 0.38255 0.01107 0.0
C849 C 0.99195 0.43932 0.98544 0.0
C850 C 0.99571 0.4144 0.96776 0.0
C851 C 0.99811 0.36052 0.9629 0.0
C852 C 0.99559 0.33206 0.9757 0.0
C853 C 0.99453 0.38585 0.98036 0.0
C854 C 0.98993 0.3292 0.0061 0.0
C855 C 0.98718 0.35418 0.02368 0.0
H856 H 0.70036 0.81446 0.29891 0.0
H857 H 0.63171 0.79831 0.22745 0.0
H858 H 0.59272 0.79023 0.26365 0.0
H859 H 0.57856 0.78486 0.31579 0.0
H860 H 0.6474 0.80207 0.38696 0.0
H861 H 0.68555 0.8132 0.3507 0.0
C862 C 0.6768 0.80978 0.29118 0.0
C863 C 0.66914 0.80671 0.26045 0.0
C864 C 0.65443 0.80523 0.31211 0.0
C865 C 0.63843 0.80025 0.25097 0.0
C866 C 0.61605 0.79574 0.27166 0.0
C867 C 0.60184 0.79132 0.32337 0.0
C868 C 0.61006 0.79233 0.3541 0.0
C869 C 0.62386 0.79764 0.30233 0.0
C870 C 0.64035 0.80092 0.36348 0.0
C871 C 0.66229 0.80727 0.34273 0.0
H872 H 0.99728 0.08388 0.9718 0.0
H873 H 0.09498 0.0804 0.97154 0.0
H874 H 0.09873 0.12763 0.94559 0.0
H875 H 0.07515 0.17245 0.92726 0.0
H876 H 0.97879 0.17923 0.93371 0.0
H877 H 0.97365 0.12853 0.95323 0.0
C878 C 0.01946 0.09346 0.9663 0.0
C879 C 0.04574 0.07825 0.97372 0.0
C880 C 0.02173 0.12144 0.95256 0.0
C881 C 0.07417 0.09098 0.9657 0.0
C882 C 0.07645 0.11829 0.95107 0.0
C883 C 0.05298 0.16251 0.93242 0.0
C884 C 0.02736 0.17928 0.92901 0.0
C885 C 0.05048 0.13394 0.94485 0.0
C886 C 0.9988 0.16661 0.93629 0.0
C887 C 0.9959 0.1377 0.94747 0.0
H888 H 0.36425 0.2804 0.26341 0.0
H889 H 0.29007 0.23441 0.21225 0.0
H890 H 0.32406 0.22448 0.17266 0.0
H891 H 0.37401 0.23086 0.15177 0.0
H892 H 0.44837 0.2786 0.20149 0.0
H893 H 0.4152 0.28612 0.24244 0.0
C894 C 0.35584 0.26778 0.24375 0.0
C895 C 0.32496 0.2577 0.24072 0.0
C896 C 0.37539 0.26289 0.22076 0.0
C897 C 0.3139 0.24198 0.21502 0.0
C898 C 0.33326 0.2365 0.19239 0.0
C899 C 0.38309 0.24289 0.17155 0.0
C900 C 0.41366 0.25422 0.17348 0.0
C901 C 0.36391 0.2472 0.19485 0.0
C902 C 0.42491 0.26975 0.19934 0.0
C903 C 0.40597 0.27398 0.22281 0.0
H904 H 0.56854 0.41978 0.02101 0.0
H905 H 0.47318 0.43409 0.0247 0.0
H906 H 0.46489 0.38739 0.0517 0.0
H907 H 0.48397 0.34033 0.07046 0.0
H908 H 0.57863 0.32454 0.06331 0.0
H909 H 0.58813 0.37396 0.04211 0.0
C910 C 0.54607 0.41285 0.02817 0.0
C911 C 0.52149 0.43026 0.02079 0.0
C912 C 0.54135 0.38561 0.04307 0.0
C913 C 0.4924 0.42088 0.02989 0.0
C914 C 0.48767 0.39422 0.04537 0.0
C915 C 0.50678 0.34802 0.06485 0.0
C916 C 0.53058 0.32887 0.06853 0.0
C917 C 0.51185 0.37609 0.05159 0.0
C918 C 0.55993 0.33889 0.06066 0.0
C919 C 0.56536 0.3671 0.04842 0.0
H920 H 0.63529 0.21455 0.25293 0.0
H921 H 0.70665 0.21631 0.19083 0.0
H922 H 0.66968 0.22357 0.14953 0.0
H923 H 0.61716 0.22793 0.13072 0.0
H924 H 0.54534 0.22716 0.19227 0.0
H925 H 0.58246 0.22136 0.23405 0.0
C926 C 0.64278 0.21692 0.23041 0.0
C927 C 0.6737 0.21456 0.22501 0.0
C928 C 0.62132 0.22115 0.20661 0.0
C929 C 0.68295 0.21747 0.19561 0.0
C930 C 0.66184 0.22175 0.17195 0.0
C931 C 0.60951 0.2265 0.15324 0.0
C932 C 0.57838 0.22776 0.15821 0.0
C933 C 0.63094 0.22325 0.17714 0.0
C934 C 0.5691 0.22619 0.18769 0.0
C935 C 0.59034 0.22285 0.21163 0.0
H936 H 0.46583 0.06509 0.02629 0.0
H937 H 0.48226 0.1165 0.94689 0.0
H938 H 0.49321 0.16112 0.97697 0.0
H939 H 0.49543 0.18639 0.02531 0.0
H940 H 0.47458 0.13649 0.10438 0.0
H941 H 0.46798 0.09059 0.07498 0.0
C942 C 0.47156 0.08607 0.0155 0.0
C943 C 0.47336 0.08717 0.98427 0.0
C944 C 0.4771 0.11201 0.0329 0.0
C945 C 0.48127 0.11464 0.97087 0.0
C946 C 0.48735 0.14033 0.98804 0.0
C947 C 0.4899 0.1654 0.0362 0.0
C948 C 0.48567 0.1648 0.06699 0.0
C949 C 0.48515 0.13933 0.01903 0.0
C950 C 0.47802 0.13751 0.08069 0.0
C951 C 0.47412 0.11128 0.06387 0.0
H952 H 0.24351 0.38362 0.72272 0.0
H953 H 0.30402 0.31303 0.7373 0.0
H954 H 0.34786 0.34886 0.73846 0.0
H955 H 0.36929 0.39973 0.73383 0.0
H956 H 0.30976 0.47132 0.72115 0.0
H957 H 0.26531 0.43567 0.72088 0.0
C958 C 0.26628 0.3762 0.72657 0.0
C959 C 0.27048 0.34564 0.72953 0.0
C960 C 0.29158 0.39704 0.72729 0.0
C961 C 0.30016 0.33635 0.7344 0.0
C962 C 0.32528 0.35682 0.73513 0.0
C963 C 0.34662 0.4076 0.73084 0.0
C964 C 0.34289 0.43812 0.72713 0.0
C965 C 0.32129 0.38712 0.73115 0.0
C966 C 0.31328 0.44792 0.7239 0.0
C967 C 0.28785 0.42755 0.72378 0.0
H968 H 0.25212 0.64331 0.80682 0.0
H969 H 0.22662 0.65857 0.71401 0.0
H970 H 0.26027 0.62142 0.69922 0.0
H971 H 0.29918 0.58685 0.71199 0.0
H972 H 0.3284 0.57406 0.80413 0.0
H973 H 0.29149 0.60838 0.81969 0.0
C974 C 0.25401 0.63871 0.78334 0.0
C975 C 0.23652 0.65384 0.76167 0.0
C976 C 0.2743 0.61788 0.77478 0.0
C977 C 0.23909 0.647 0.73136 0.0
C978 C 0.25866 0.6259 0.72277 0.0
C979 C 0.29737 0.59133 0.73553 0.0
C980 C 0.31655 0.57786 0.75686 0.0
C981 C 0.27661 0.61148 0.74424 0.0
C982 C 0.31397 0.58416 0.78723 0.0
C983 C 0.29286 0.6038 0.79614 0.0
H984 H 0.88642 0.50117 0.46824 0.0
H985 H 0.95671 0.4416 0.45341 0.0
H986 H 0.92158 0.39898 0.463 0.0
H987 H 0.87125 0.37858 0.47589 0.0
H988 H 0.80056 0.43776 0.49089 0.0
H989 H 0.83557 0.48051 0.48109 0.0
C990 C 0.89409 0.47886 0.46735 0.0
C991 C 0.92419 0.47461 0.46011 0.0
C992 C 0.87371 0.45437 0.47288 0.0
C993 C 0.93361 0.44551 0.45861 0.0
C994 C 0.91357 0.42112 0.46422 0.0
C995 C 0.86336 0.40079 0.47702 0.0
C996 C 0.83319 0.4048 0.48418 0.0
C997 C 0.88358 0.42527 0.47135 0.0
C998 C 0.82357 0.43388 0.48542 0.0
C999 C 0.84362 0.45839 0.47986 0.0
H1000 H 0.78488 0.86125 0.7545 0.0
H1001 H 0.7091 0.81846 0.79847 0.0
H1002 H 0.68001 0.86202 0.78935 0.0
H1003 H 0.6768 0.91347 0.77028 0.0
H1004 H 0.7517 0.95304 0.72258 0.0
H1005 H 0.77963 0.90908 0.73085 0.0
C1006 C 0.76173 0.86084 0.76146 0.0
C1007 C 0.74957 0.83641 0.77745 0.0
C1008 C 0.74472 0.88554 0.75539 0.0
C1009 C 0.7196 0.83709 0.78677 0.0
C1010 C 0.70274 0.86197 0.78134 0.0
C1011 C 0.69908 0.91231 0.76146 0.0
C1012 C 0.71205 0.93677 0.74601 0.0
C1013 C 0.71522 0.88655 0.76598 0.0
C1014 C 0.74093 0.9347 0.73453 0.0
C1015 C 0.75713 0.90954 0.73935 0.0
H1016 H 0.61332 0.50067 0.00263 0.0
H1017 H 0.54405 0.56385 0.99716 0.0
H1018 H 0.58273 0.60475 0.005 0.0
H1019 H 0.63599 0.62276 0.0117 0.0
H1020 H 0.70619 0.56037 0.01659 0.0
H1021 H 0.66746 0.51906 0.01063 0.0
C1022 C 0.60679 0.52339 0.00356 0.0
C1023 C 0.5759 0.52928 0.99928 0.0
C1024 C 0.62929 0.54695 0.00767 0.0
C1025 C 0.5677 0.55882 0.0002 0.0
C1026 C 0.58979 0.5822 0.00465 0.0
C1027 C 0.64298 0.60017 0.01147 0.0
C1028 C 0.67409 0.59483 0.01448 0.0
C1029 C 0.62066 0.57657 0.00804 0.0
C1030 C 0.68247 0.56526 0.01423 0.0
C1031 C 0.6603 0.54157 0.01087 0.0
H1032 H 0.26813 0.68513 0.26266 0.0
H1033 H 0.2947 0.65065 0.17912 0.0
H1034 H 0.25836 0.60778 0.18319 0.0
H1035 H 0.22093 0.57916 0.21141 0.0
H1036 H 0.19367 0.61263 0.29495 0.0
H1037 H 0.22762 0.65744 0.2896 0.0
C1038 C 0.26588 0.66816 0.24544 0.0
C1039 C 0.28416 0.67083 0.22075 0.0
C1040 C 0.24469 0.64365 0.2478 0.0
C1041 C 0.2808 0.64902 0.19829 0.0
C1042 C 0.26007 0.62454 0.2006 0.0
C1043 C 0.22246 0.59616 0.22849 0.0
C1044 C 0.20534 0.59235 0.2538 0.0
C1045 C 0.24218 0.62148 0.22539 0.0
C1046 C 0.20667 0.61513 0.27523 0.0
C1047 C 0.22627 0.64058 0.2723 0.0
H1048 H 0.93366 0.52851 -0.00048 0.0
H1049 H 0.91385 0.51478 0.09167 0.0
H1050 H 0.86885 0.54342 0.08466 0.0
H1051 H 0.83626 0.57377 0.05288 0.0
H1052 H 0.85759 0.59008 0.96145 0.0
H1053 H 0.90057 0.55857 0.96744 0.0
C1054 C 0.91933 0.53166 0.01797 0.0
C1055 C 0.92705 0.51966 0.04609 0.0
C1056 C 0.89373 0.54845 0.01386 0.0
C1057 C 0.90852 0.52412 0.06992 0.0
C1058 C 0.88272 0.54033 0.06588 0.0
C1059 C 0.85004 0.5701 0.03412 0.0
C1060 C 0.84365 0.5841 0.00669 0.0
C1061 C 0.87522 0.55275 0.038 0.0
C1062 C 0.86203 0.5795 0.98277 0.0
C1063 C 0.88665 0.56158 0.98621 0.0
H1064 H 0.09745 0.97873 0.05037 0.0
H1065 H 0.08709 0.98029 0.95432 0.0
H1066 H 0.13019 0.94919 0.95111 0.0
H1067 H 0.17089 0.92112 0.97588 0.0
H1068 H 0.17937 0.9189 0.07206 0.0
H1069 H 0.13708 0.9506 0.07487 0.0
C1070 C 0.10427 0.97188 0.02872 0.0
C1071 C 0.08893 0.98171 0.00266 0.0
C1072 C 0.12899 0.95405 0.02704 0.0
C1073 C 0.09859 0.97316 0.97477 0.0
C1074 C 0.12324 0.95537 0.9729 0.0
C1075 C 0.16361 0.92786 0.99739 0.0
C1076 C 0.17831 0.91772 0.0237 0.0
C1077 C 0.13875 0.94577 0.99892 0.0
C1078 C 0.16841 0.92632 0.05145 0.0
C1079 C 0.14417 0.94442 0.05312 0.0
loop_
_geom_bond_atom_site_label_1
_geom_bond_atom_site_label_2
_geom_bond_distance
_geom_bond_site_symmetry_2
_ccdc_geom_bond_type
H0 C3 0.931 1_655 S
H1 C6 0.918 1_565 S
H2 C8 0.930 1_556 S
C3 H0 0.931 1_455 S
C3 C4 1.413 . S
C3 C5 1.360 . S
C4 C3 1.413 . S
C4 C8 1.429 . S
C5 C3 1.360 . S
C5 C6 1.372 . S
C6 H1 0.918 1_545 S
C6 C5 1.372 . S
C6 C7 1.404 . S
C7 C6 1.404 . S
C7 C8 1.391 . S
C8 H2 0.930 1_554 S
C8 C4 1.429 . S
C8 C7 1.391 . S
H9 C12 0.931 . S
H10 C15 0.928 . S
H11 C17 0.930 . S
C12 H9 0.931 . S
C12 C13 1.413 . S
C12 C14 1.360 . S
C13 C12 1.413 . S
C13 C17 1.429 . S
C14 C12 1.360 . S
C14 C15 1.372 . S
C15 H10 0.928 . S
C15 C14 1.372 . S
C15 C16 1.404 . S
C16 C15 1.404 . S
C16 C17 1.391 . S
C17 H11 0.930 . S
C17 C13 1.429 . S
C17 C16 1.391 . S
H18 C21 0.931 . S
H19 C24 0.928 . S
H20 C26 0.930 . S
C21 H18 0.931 . S
C21 C22 1.413 . S
C21 C23 1.387 . S
C22 C21 1.413 . S
C22 C26 1.429 . S
C23 C21 1.387 . S
C23 C24 1.363 1_655 S
C24 H19 0.928 . S
C24 C23 1.363 1_455 S
C24 C25 1.404 1_455 S
C25 C24 1.404 1_655 S
C25 C26 1.391 . S
C26 H20 0.930 . S
C26 C22 1.429 . S
C26 C25 1.391 . S
H27 C30 0.931 . S
H28 C33 0.928 . S
H29 C35 0.930 . S
C30 H27 0.931 . S
C30 C31 1.413 . S
C30 C32 1.360 . S
C31 C30 1.413 . S
C31 C35 1.429 . S
C32 C30 1.360 . S
C32 C33 1.372 . S
C33 H28 0.928 . S
C33 C32 1.372 . S
C33 C34 1.404 . S
C34 C33 1.404 . S
C34 C35 1.391 . S
C35 H29 0.930 . S
C35 C31 1.429 . S
C35 C34 1.391 . S
H36 C39 0.931 . S
H37 C42 0.928 1_545 S
H38 C44 0.930 . S
C39 H36 0.931 . S
C39 C40 1.413 . S
C39 C41 1.360 . S
C40 C39 1.413 . S
C40 C44 1.429 . S
C41 C39 1.360 . S
C41 C42 1.372 . S
C42 H37 0.928 1_565 S
C42 C41 1.372 . S
C42 C43 1.404 . S
C43 C42 1.404 . S
C43 C44 1.391 . S
C44 H38 0.930 . S
C44 C40 1.429 . S
C44 C43 1.391 . S
H45 C48 0.931 . S
H46 C51 0.928 . S
H47 C53 0.930 . S
C48 H45 0.931 . S
C48 C49 1.413 . S
C48 C50 1.360 . S
C49 C48 1.413 . S
C49 C53 1.429 . S
C50 C48 1.360 . S
C50 C51 1.372 . S
C51 H46 0.928 . S
C51 C50 1.372 . S
C51 C52 1.404 . S
C52 C51 1.404 . S
C52 C53 1.391 . S
C53 H47 0.930 . S
C53 C49 1.429 . S
C53 C52 1.391 . S
H54 C57 0.931 . S
H55 C60 0.928 1_455 S
H56 C62 0.930 . S
C57 H54 0.931 . S
C57 C58 1.413 . S
C57 C59 1.360 . S
C58 C57 1.413 . S
C58 C62 1.429 . S
C59 C57 1.360 . S
C59 C60 1.372 . S
C60 H55 0.928 1_655 S
C60 C59 1.372 . S
C60 C61 1.404 . S
C61 C60 1.404 . S
C61 C62 1.391 . S
C62 H56 0.930 . S
C62 C58 1.429 . S
C62 C61 1.391 . S
H63 C66 0.931 . S
H64 C69 0.928 . S
H65 C71 0.930 . S
C66 H63 0.931 . S
C66 C67 1.413 . S
C66 C68 1.360 . S
C67 C66 1.413 . S
C67 C71 1.429 . S
C68 C66 1.360 . S
C68 C69 1.372 . S
C69 H64 0.928 . S
C69 C68 1.372 . S
C69 C70 1.404 . S
C70 C69 1.404 . S
C70 C71 1.391 . S
C71 H65 0.930 . S
C71 C67 1.429 . S
C71 C70 1.391 . S
H72 C75 0.931 . S
H73 C78 0.928 . S
H74 C80 0.930 . S
C75 H72 0.931 . S
C75 C76 1.413 . S
C75 C77 1.360 . S
C76 C75 1.413 . S
C76 C80 1.429 . S
C77 C75 1.360 . S
C77 C78 1.372 . S
C78 H73 0.928 . S
C78 C77 1.372 . S
C78 C79 1.404 . S
C79 C78 1.404 . S
C79 C80 1.391 . S
C80 H74 0.930 . S
C80 C76 1.429 . S
C80 C79 1.391 . S
H81 C84 0.931 1_545 S
H82 C87 0.928 . S
H83 C89 0.930 . S
C84 H81 0.931 1_565 S
C84 C85 1.413 . S
C84 C86 1.360 . S
C85 C84 1.413 . S
C85 C89 1.429 . S
C86 C84 1.360 . S
C86 C87 1.372 . S
C87 H82 0.928 . S
C87 C86 1.372 . S
C87 C88 1.404 . S
C88 C87 1.404 . S
C88 C89 1.391 . S
C89 H83 0.930 . S
C89 C85 1.429 . S
C89 C88 1.391 . S
H90 C93 0.931 . S
H91 C96 0.928 . S
H92 C98 0.930 . S
C93 H90 0.931 . S
C93 C94 1.413 . S
C93 C95 1.360 . S
C94 C93 1.413 . S
C94 C98 1.429 . S
C95 C93 1.360 . S
C95 C96 1.372 . S
C96 H91 0.928 . S
C96 C95 1.372 . S
C96 C97 1.404 . S
C97 C96 1.404 . S
C97 C98 1.391 . S
C98 H92 0.930 . S
C98 C94 1.429 . S
C98 C97 1.391 . S
H99 C102 0.931 . S
H100 C105 0.928 . S
H101 C107 0.930 . S
C102 H99 0.931 . S
C102 C103 1.413 . S
C102 C104 1.360 . S
C103 C102 1.413 . S
C103 C107 1.429 . S
C104 C102 1.360 . S
C104 C105 1.372 . S
C105 H100 0.928 . S
C105 C104 1.372 . S
C105 C106 1.404 . S
C106 C105 1.404 . S
C106 C107 1.391 . S
C107 H101 0.930 . S
C107 C103 1.429 . S
C107 C106 1.391 . S
H108 C111 0.931 . S
H109 C114 0.928 . S
H110 C116 0.930 . S
C111 H108 0.931 . S
C111 C112 1.413 . S
C111 C113 1.360 . S
C112 C111 1.413 . S
C112 C116 1.429 . S
C113 C111 1.360 . S
C113 C114 1.372 . S
C114 H109 0.928 . S
C114 C113 1.372 . S
C114 C115 1.404 . S
C115 C114 1.404 . S
C115 C116 1.391 . S
C116 H110 0.930 . S
C116 C112 1.429 . S
C116 C115 1.391 . S
H117 C120 0.931 . S
H118 C123 0.928 . S
H119 C125 0.930 1_554 S
C120 H117 0.931 . S
C120 C121 1.413 . S
C120 C122 1.360 . S
C121 C120 1.413 . S
C121 C125 1.429 . S
C122 C120 1.360 . S
C122 C123 1.372 . S
C123 H118 0.928 . S
C123 C122 1.372 . S
C123 C124 1.404 . S
C124 C123 1.404 . S
C124 C125 1.391 . S
C125 H119 0.930 1_556 S
C125 C121 1.429 . S
C125 C124 1.391 . S
H126 C129 0.931 . S
H127 C132 0.928 . S
H128 C134 0.930 . S
C129 H126 0.931 . S
C129 C130 1.413 . S
C129 C131 1.360 . S
C130 C129 1.413 . S
C130 C134 1.429 . S
C131 C129 1.360 . S
C131 C132 1.372 . S
C132 H127 0.928 . S
C132 C131 1.372 . S
C132 C133 1.404 . S
C133 C132 1.404 . S
C133 C134 1.391 . S
C134 H128 0.930 . S
C134 C130 1.429 . S
C134 C133 1.391 . S
H135 C138 0.931 1_554 S
H136 C141 0.928 . S
H137 C143 0.930 1_565 S
C138 H135 0.931 1_556 S
C138 C139 1.413 . S
C138 C140 1.360 . S
C139 C138 1.413 . S
C139 C143 1.429 . S
C140 C138 1.360 . S
C140 C141 1.372 . S
C141 H136 0.928 . S
C141 C140 1.372 . S
C141 C142 1.404 . S
C142 C141 1.404 . S
C142 C143 1.391 . S
C143 H137 0.930 1_545 S
C143 C139 1.429 . S
C143 C142 1.391 . S
Mg144 O145 2.033 . S
Mg144 O151 1.986 1_554 S
Mg144 O153 2.114 . S
Mg144 O154 2.251 . S
Mg144 O157 2.010 . S
O145 Mg144 2.033 . S
O145 C148 1.246 1_554 S
O146 Mg147 2.028 . S
O146 C148 1.248 . S
Mg147 O146 2.028 . S
Mg147 O152 2.032 . S
Mg147 O154 2.079 1_556 S
C148 O145 1.246 1_556 S
C148 O146 1.248 . S
C149 O150 1.264 . S
C149 O157 1.249 . S
O150 C149 1.264 . S
O151 Mg144 1.986 1_556 S
O151 C155 1.246 . S
O152 Mg147 2.032 . S
O152 C155 1.259 . S
O153 Mg144 2.114 . S
O153 C156 1.252 . S
O154 Mg144 2.251 . S
O154 Mg147 2.079 1_554 S
O154 C156 1.273 . S
C155 O151 1.246 . S
C155 O152 1.259 . S
C156 O153 1.252 . S
C156 O154 1.273 . S
O157 Mg144 2.010 . S
O157 C149 1.249 . S
Mg158 O159 2.028 . S
Mg158 O165 1.986 . S
Mg158 O167 2.114 . S
Mg158 O168 2.251 . S
Mg158 O171 2.010 . S
O159 Mg158 2.028 . S
O159 C162 1.250 . S
O160 Mg161 2.028 . S
O160 C162 1.248 . S
Mg161 O160 2.028 . S
Mg161 O166 2.032 . S
Mg161 O168 2.079 . S
C162 O159 1.250 . S
C162 O160 1.248 . S
C163 O164 1.264 . S
C163 O171 1.249 . S
O164 C163 1.264 . S
O165 Mg158 1.986 . S
O165 C169 1.246 . S
O166 Mg161 2.032 . S
O166 C169 1.259 . S
O167 Mg158 2.114 . S
O167 C170 1.252 . S
O168 Mg158 2.251 . S
O168 Mg161 2.079 . S
O168 C170 1.273 . S
C169 O165 1.246 . S
C169 O166 1.259 . S
C170 O167 1.252 . S
C170 O168 1.273 . S
O171 Mg158 2.010 . S
O171 C163 1.249 . S
Mg172 O173 2.028 . S
Mg172 O179 1.986 1_554 S
Mg172 O181 2.114 . S
Mg172 O182 2.251 . S
Mg172 O185 2.010 . S
O173 Mg172 2.028 . S
O173 C176 1.250 . S
O174 Mg175 2.028 . S
O174 C176 1.248 1_556 S
Mg175 O174 2.028 . S
Mg175 O180 2.032 . S
Mg175 O182 2.079 1_556 S
C176 O173 1.250 . S
C176 O174 1.248 1_554 S
C177 O178 1.264 . S
C177 O185 1.249 . S
O178 C177 1.264 . S
O179 Mg172 1.986 1_556 S
O179 C183 1.246 . S
O180 Mg175 2.032 . S
O180 C183 1.259 . S
O181 Mg172 2.114 . S
O181 C184 1.252 . S
O182 Mg172 2.251 . S
O182 Mg175 2.079 1_554 S
O182 C184 1.273 . S
C183 O179 1.246 . S
C183 O180 1.259 . S
C184 O181 1.252 . S
C184 O182 1.273 . S
O185 Mg172 2.010 . S
O185 C177 1.249 . S
Mg186 O187 2.028 1_545 S
Mg186 O193 1.986 . S
Mg186 O195 2.114 . S
Mg186 O196 2.251 . S
Mg186 O199 2.010 . S
O187 Mg186 2.028 1_565 S
O187 C190 1.250 . S
O188 Mg189 2.028 . S
O188 C190 1.248 . S
Mg189 O188 2.028 . S
Mg189 O194 2.032 . S
Mg189 O196 2.079 1_565 S
C190 O187 1.250 . S
C190 O188 1.248 . S
C191 O192 1.264 . S
C191 O199 1.249 . S
O192 C191 1.264 . S
O193 Mg186 1.986 . S
O193 C197 1.269 . S
O194 Mg189 2.032 . S
O194 C197 1.233 1_565 S
O195 Mg186 2.114 . S
O195 C198 1.252 . S
O196 Mg186 2.251 . S
O196 Mg189 2.079 1_545 S
O196 C198 1.273 . S
C197 O193 1.269 . S
C197 O194 1.233 1_545 S
C198 O195 1.252 . S
C198 O196 1.273 . S
O199 Mg186 2.010 . S
O199 C191 1.249 . S
Mg200 O201 2.028 . S
Mg200 O207 1.986 . S
Mg200 O209 2.114 . S
Mg200 O210 2.251 . S
Mg200 O213 2.010 . S
O201 Mg200 2.028 . S
O201 C204 1.250 . S
O202 Mg203 2.028 . S
O202 C204 1.248 . S
Mg203 O202 2.028 . S
Mg203 O208 2.032 . S
Mg203 O210 2.079 . S
C204 O201 1.250 . S
C204 O202 1.248 . S
C205 O206 1.264 . S
C205 O213 1.249 . S
O206 C205 1.264 . S
O207 Mg200 1.986 . S
O207 C211 1.246 . S
O208 Mg203 2.032 . S
O208 C211 1.259 . S
O209 Mg200 2.114 . S
O209 C212 1.252 . S
O210 Mg200 2.251 . S
O210 Mg203 2.079 . S
O210 C212 1.273 . S
C211 O207 1.246 . S
C211 O208 1.259 . S
C212 O209 1.252 . S
C212 O210 1.273 . S
O213 Mg200 2.010 . S
O213 C205 1.249 . S
Mg214 O215 2.028 . S
Mg214 O221 1.986 . S
Mg214 O223 2.114 . S
Mg214 O224 2.251 . S
Mg214 O227 2.010 . S
O215 Mg214 2.028 . S
O215 C218 1.250 . S
O216 Mg217 2.028 . S
O216 C218 1.248 . S
Mg217 O216 2.028 . S
Mg217 O222 2.032 . S
Mg217 O224 2.079 . S
C218 O215 1.250 . S
C218 O216 1.248 . S
C219 O220 1.264 . S
C219 O227 1.249 . S
O220 C219 1.264 . S
O221 Mg214 1.986 . S
O221 C225 1.246 . S
O222 Mg217 2.032 . S
O222 C225 1.259 . S
O223 Mg214 2.114 . S
O223 C226 1.252 . S
O224 Mg214 2.251 . S
O224 Mg217 2.079 . S
O224 C226 1.273 . S
C225 O221 1.246 . S
C225 O222 1.259 . S
C226 O223 1.252 . S
C226 O224 1.273 . S
O227 Mg214 2.010 . S
O227 C219 1.249 . S
Mg228 O229 2.028 . S
Mg228 O235 1.986 . S
Mg228 O237 2.114 . S
Mg228 O238 2.251 . S
Mg228 O241 2.010 . S
O229 Mg228 2.028 . S
O229 C232 1.250 . S
O230 Mg231 2.028 . S
O230 C232 1.248 . S
Mg231 O230 2.028 . S
Mg231 O236 2.032 . S
Mg231 O238 2.079 . S
C232 O229 1.250 . S
C232 O230 1.248 . S
C233 O234 1.264 . S
C233 O241 1.249 . S
O234 C233 1.264 . S
O235 Mg228 1.986 . S
O235 C239 1.246 . S
O236 Mg231 2.032 . S
O236 C239 1.259 . S
O237 Mg228 2.114 . S
O237 C240 1.252 . S
O238 Mg228 2.251 . S
O238 Mg231 2.079 . S
O238 C240 1.273 . S
C239 O235 1.246 . S
C239 O236 1.259 . S
C240 O237 1.252 . S
C240 O238 1.273 . S
O241 Mg228 2.010 . S
O241 C233 1.249 . S
Mg242 O243 2.028 1_545 S
Mg242 O249 1.986 1_545 S
Mg242 O251 2.114 . S
Mg242 O252 2.251 . S
Mg242 O255 2.010 . S
O243 Mg242 2.028 1_565 S
O243 C246 1.250 . S
O244 Mg245 2.028 . S
O244 C246 1.248 . S
Mg245 O244 2.028 . S
Mg245 O250 2.032 . S
Mg245 O252 2.079 1_565 S
C246 O243 1.250 . S
C246 O244 1.248 . S
C247 O248 1.264 . S
C247 O255 1.249 . S
O248 C247 1.264 . S
O249 Mg242 1.986 1_565 S
O249 C253 1.246 . S
O250 Mg245 2.032 . S
O250 C253 1.259 . S
O251 Mg242 2.114 . S
O251 C254 1.252 . S
O252 Mg242 2.251 . S
O252 Mg245 2.079 1_545 S
O252 C254 1.273 . S
C253 O249 1.246 . S
C253 O250 1.259 . S
C254 O251 1.252 . S
C254 O252 1.273 . S
O255 Mg242 2.010 . S
O255 C247 1.249 . S
Mg256 O257 2.028 1_455 S
Mg256 O263 1.986 . S
Mg256 O265 2.114 . S
Mg256 O266 2.251 . S
Mg256 O269 2.010 . S
O257 Mg256 2.028 1_655 S
O257 C260 1.250 . S
O258 Mg259 2.028 . S
O258 C260 1.248 . S
Mg259 O258 2.028 . S
Mg259 O264 2.032 . S
Mg259 O266 2.079 1_655 S
C260 O257 1.250 . S
C260 O258 1.248 . S
C261 O262 1.264 . S
C261 O269 1.249 . S
O262 C261 1.264 . S
O263 Mg256 1.986 . S
O263 C267 1.246 . S
O264 Mg259 2.032 . S
O264 C267 1.259 1_655 S
O265 Mg256 2.114 . S
O265 C268 1.252 . S
O266 Mg256 2.251 . S
O266 Mg259 2.079 1_455 S
O266 C268 1.273 . S
C267 O263 1.246 . S
C267 O264 1.259 1_455 S
C268 O265 1.252 . S
C268 O266 1.273 . S
O269 Mg256 2.010 . S
O269 C261 1.249 . S
Mg270 O271 2.028 . S
Mg270 O277 1.986 . S
Mg270 O279 2.114 . S
Mg270 O280 2.251 . S
Mg270 O283 2.010 . S
O271 Mg270 2.028 . S
O271 C274 1.250 . S
O272 Mg273 2.028 . S
O272 C274 1.248 . S
Mg273 O272 2.028 . S
Mg273 O278 2.032 . S
Mg273 O280 2.079 . S
C274 O271 1.250 . S
C274 O272 1.248 . S
C275 O276 1.264 . S
C275 O283 1.249 . S
O276 C275 1.264 . S
O277 Mg270 1.986 . S
O277 C281 1.246 . S
O278 Mg273 2.032 . S
O278 C281 1.259 . S
O279 Mg270 2.114 . S
O279 C282 1.252 . S
O280 Mg270 2.251 . S
O280 Mg273 2.079 . S
O280 C282 1.273 . S
C281 O277 1.246 . S
C281 O278 1.259 . S
C282 O279 1.252 . S
C282 O280 1.273 . S
O283 Mg270 2.010 . S
O283 C275 1.249 . S
Mg284 O285 2.028 1_655 S
Mg284 O291 1.986 . S
Mg284 O293 2.114 . S
Mg284 O294 2.251 1_655 S
Mg284 O297 2.010 . S
O285 Mg284 2.028 1_455 S
O285 C288 1.250 . S
O286 Mg287 2.028 . S
O286 C288 1.248 . S
Mg287 O286 2.028 . S
Mg287 O292 2.032 . S
Mg287 O294 2.079 . S
C288 O285 1.250 . S
C288 O286 1.248 . S
C289 O290 1.264 . S
C289 O297 1.249 . S
O290 C289 1.264 . S
O291 Mg284 1.986 . S
O291 C295 1.246 1_655 S
O292 Mg287 2.032 . S
O292 C295 1.259 . S
O293 Mg284 2.114 . S
O293 C296 1.252 . S
O294 Mg284 2.251 1_455 S
O294 Mg287 2.079 . S
O294 C296 1.273 1_455 S
C295 O291 1.246 1_455 S
C295 O292 1.259 . S
C296 O293 1.252 . S
C296 O294 1.273 1_655 S
O297 Mg284 2.010 . S
O297 C289 1.249 . S
Mg298 O299 2.028 . S
Mg298 O305 1.986 . S
Mg298 O307 2.114 . S
Mg298 O308 2.251 . S
Mg298 O311 2.010 . S
O299 Mg298 2.028 . S
O299 C302 1.250 . S
O300 Mg301 2.028 . S
O300 C302 1.248 . S
Mg301 O300 2.028 . S
Mg301 O306 2.032 . S
Mg301 O308 2.079 . S
C302 O299 1.250 . S
C302 O300 1.248 . S
C303 O304 1.264 . S
C303 O311 1.249 . S
O304 C303 1.264 . S
O305 Mg298 1.986 . S
O305 C309 1.246 . S
O306 Mg301 2.032 . S
O306 C309 1.259 . S
O307 Mg298 2.114 . S
O307 C310 1.252 . S
O308 Mg298 2.251 . S
O308 Mg301 2.079 . S
O308 C310 1.273 . S
C309 O305 1.246 . S
C309 O306 1.259 . S
C310 O307 1.252 . S
C310 O308 1.273 . S
O311 Mg298 2.010 . S
O311 C303 1.249 . S
H312 C318 0.930 . S
H313 C321 0.930 . S
H314 C322 0.930 . S
H315 C323 0.930 . S
H316 C326 0.930 . S
H317 C327 0.930 . S
C318 H312 0.930 . S
C318 C319 1.355 . S
C318 C320 1.415 . S
C319 C318 1.355 . S
C319 C321 1.419 . S
C320 C318 1.415 . S
C320 C325 1.425 . S
C320 C327 1.409 . S
C321 H313 0.930 . S
C321 C319 1.419 . S
C321 C322 1.362 . S
C322 H314 0.930 . S
C322 C321 1.362 . S
C322 C325 1.409 . S
C323 H315 0.930 . S
C323 C324 1.355 . S
C323 C325 1.415 . S
C324 C323 1.355 . S
C324 C326 1.419 . S
C325 C320 1.425 . S
C325 C322 1.409 . S
C325 C323 1.415 . S
C326 H316 0.930 . S
C326 C324 1.419 . S
C326 C327 1.362 . S
C327 H317 0.930 . S
C327 C320 1.409 . S
C327 C326 1.362 . S
H328 C334 0.930 . S
H329 C337 0.930 . S
H330 C338 0.930 . S
H331 C339 0.930 . S
H332 C342 0.930 . S
H333 C343 0.930 . S
C334 H328 0.930 . S
C334 C335 1.355 . S
C334 C336 1.415 . S
C335 C334 1.355 . S
C335 C337 1.419 1_455 S
C336 C334 1.415 . S
C336 C341 1.425 . S
C336 C343 1.409 . S
C337 H329 0.930 . S
C337 C335 1.419 1_655 S
C337 C338 1.362 . S
C338 H330 0.930 . S
C338 C337 1.362 . S
C338 C341 1.409 1_655 S
C339 H331 0.930 . S
C339 C340 1.355 . S
C339 C341 1.415 . S
C340 C339 1.355 . S
C340 C342 1.419 . S
C341 C336 1.425 . S
C341 C338 1.409 1_455 S
C341 C339 1.415 . S
C342 H332 0.930 . S
C342 C340 1.419 . S
C342 C343 1.362 . S
C343 H333 0.930 . S
C343 C336 1.409 . S
C343 C342 1.362 . S
H344 C350 0.930 . S
H345 C353 0.930 . S
H346 C354 0.930 . S
H347 C355 0.930 . S
H348 C358 0.930 . S
H349 C359 0.930 . S
C350 H344 0.930 . S
C350 C351 1.355 . S
C350 C352 1.415 . S
C351 C350 1.355 . S
C351 C353 1.419 . S
C352 C350 1.415 . S
C352 C357 1.425 . S
C352 C359 1.409 . S
C353 H345 0.930 . S
C353 C351 1.419 . S
C353 C354 1.362 . S
C354 H346 0.930 . S
C354 C353 1.362 . S
C354 C357 1.409 . S
C355 H347 0.930 . S
C355 C356 1.355 . S
C355 C357 1.415 . S
C356 C355 1.355 . S
C356 C358 1.419 . S
C357 C352 1.425 . S
C357 C354 1.409 . S
C357 C355 1.415 . S
C358 H348 0.930 . S
C358 C356 1.419 . S
C358 C359 1.362 . S
C359 H349 0.930 . S
C359 C352 1.409 . S
C359 C358 1.362 . S
H360 C366 0.930 . S
H361 C369 0.930 . S
H362 C370 0.930 . S
H363 C371 0.930 . S
H364 C374 0.930 . S
H365 C375 0.930 . S
C366 H360 0.930 . S
C366 C367 1.355 1_655 S
C366 C368 1.415 . S
C367 C366 1.355 1_455 S
C367 C369 1.419 . S
C368 C366 1.415 . S
C368 C373 1.425 . S
C368 C375 1.409 1_565 S
C369 H361 0.930 . S
C369 C367 1.419 . S
C369 C370 1.362 . S
C370 H362 0.930 . S
C370 C369 1.362 . S
C370 C373 1.409 1_455 S
C371 H363 0.930 . S
C371 C372 1.355 1_565 S
C371 C373 1.415 . S
C372 C371 1.355 1_545 S
C372 C374 1.419 . S
C373 C368 1.425 . S
C373 C370 1.409 1_655 S
C373 C371 1.415 . S
C374 H364 0.930 . S
C374 C372 1.419 . S
C374 C375 1.362 . S
C375 H365 0.930 . S
C375 C368 1.409 1_545 S
C375 C374 1.362 . S
H376 C382 0.930 . S
H377 C385 0.930 . S
H378 C386 0.930 . S
H379 C387 0.930 . S
H380 C390 0.930 . S
H381 C391 0.930 . S
C382 H376 0.930 . S
C382 C383 1.355 . S
C382 C384 1.415 . S
C383 C382 1.355 . S
C383 C385 1.419 . S
C384 C382 1.415 . S
C384 C389 1.425 . S
C384 C391 1.409 . S
C385 H377 0.930 . S
C385 C383 1.419 . S
C385 C386 1.362 . S
C386 H378 0.930 . S
C386 C385 1.362 . S
C386 C389 1.409 . S
C387 H379 0.930 . S
C387 C388 1.355 . S
C387 C389 1.415 . S
C388 C387 1.355 . S
C388 C390 1.419 . S
C389 C384 1.425 . S
C389 C386 1.409 . S
C389 C387 1.415 . S
C390 H380 0.930 . S
C390 C388 1.419 . S
C390 C391 1.362 . S
C391 H381 0.930 . S
C391 C384 1.409 . S
C391 C390 1.362 . S
H392 C398 0.930 . S
H393 C401 0.930 . S
H394 C402 0.930 . S
H395 C403 0.930 . S
H396 C406 0.930 . S
H397 C407 0.930 . S
C398 H392 0.930 . S
C398 C399 1.355 . S
C398 C400 1.415 . S
C399 C398 1.355 . S
C399 C401 1.419 . S
C400 C398 1.415 . S
C400 C405 1.425 . S
C400 C407 1.409 . S
C401 H393 0.930 . S
C401 C399 1.419 . S
C401 C402 1.362 . S
C402 H394 0.930 . S
C402 C401 1.362 . S
C402 C405 1.409 . S
C403 H395 0.930 . S
C403 C404 1.355 . S
C403 C405 1.415 . S
C404 C403 1.355 . S
C404 C406 1.419 . S
C405 C400 1.425 . S
C405 C402 1.409 . S
C405 C403 1.415 . S
C406 H396 0.930 . S
C406 C404 1.419 . S
C406 C407 1.362 . S
C407 H397 0.930 . S
C407 C400 1.409 . S
C407 C406 1.362 . S
H408 C414 0.930 . S
H409 C417 0.930 . S
H410 C418 0.930 . S
H411 C419 0.930 . S
H412 C422 0.930 . S
H413 C423 0.930 . S
C414 H408 0.930 . S
C414 C415 1.355 . S
C414 C416 1.415 . S
C415 C414 1.355 . S
C415 C417 1.419 . S
C416 C414 1.415 . S
C416 C421 1.425 . S
C416 C423 1.409 . S
C417 H409 0.930 . S
C417 C415 1.419 . S
C417 C418 1.362 . S
C418 H410 0.930 . S
C418 C417 1.362 . S
C418 C421 1.409 . S
C419 H411 0.930 . S
C419 C420 1.355 . S
C419 C421 1.415 . S
C420 C419 1.355 . S
C420 C422 1.419 . S
C421 C416 1.425 . S
C421 C418 1.409 . S
C421 C419 1.415 . S
C422 H412 0.930 . S
C422 C420 1.419 . S
C422 C423 1.362 . S
C423 H413 0.930 . S
C423 C416 1.409 . S
C423 C422 1.362 . S
H424 C430 0.930 . S
H425 C433 0.930 . S
H426 C434 0.930 . S
H427 C435 0.930 . S
H428 C438 0.930 . S
H429 C439 0.930 . S
C430 H424 0.930 . S
C430 C431 1.355 . S
C430 C432 1.415 . S
C431 C430 1.355 . S
C431 C433 1.419 1_565 S
C432 C430 1.415 . S
C432 C437 1.425 . S
C432 C439 1.409 . S
C433 H425 0.930 . S
C433 C431 1.419 1_545 S
C433 C434 1.362 . S
C434 H426 0.930 . S
C434 C433 1.362 . S
C434 C437 1.409 1_545 S
C435 H427 0.930 . S
C435 C436 1.355 1_545 S
C435 C437 1.415 1_545 S
C436 C435 1.355 1_565 S
C436 C438 1.419 . S
C437 C432 1.425 . S
C437 C434 1.409 1_565 S
C437 C435 1.415 1_565 S
C438 H428 0.930 . S
C438 C436 1.419 . S
C438 C439 1.362 . S
C439 H429 0.930 . S
C439 C432 1.409 . S
C439 C438 1.362 . S
H440 C446 0.930 . S
H441 C449 0.930 . S
H442 C450 0.930 . S
H443 C451 0.930 . S
H444 C454 0.930 . S
H445 C455 0.930 . S
C446 H440 0.930 . S
C446 C447 1.355 . S
C446 C448 1.415 . S
C447 C446 1.355 . S
C447 C449 1.419 . S
C448 C446 1.415 . S
C448 C453 1.425 . S
C448 C455 1.409 . S
C449 H441 0.930 . S
C449 C447 1.419 . S
C449 C450 1.362 . S
C450 H442 0.930 . S
C450 C449 1.362 . S
C450 C453 1.409 . S
C451 H443 0.930 . S
C451 C452 1.355 . S
C451 C453 1.415 . S
C452 C451 1.355 . S
C452 C454 1.419 . S
C453 C448 1.425 . S
C453 C450 1.409 . S
C453 C451 1.415 . S
C454 H444 0.930 . S
C454 C452 1.419 . S
C454 C455 1.362 . S
C455 H445 0.930 . S
C455 C448 1.409 . S
C455 C454 1.362 . S
H456 C462 0.930 . S
H457 C465 0.930 . S
H458 C466 0.930 . S
H459 C467 0.930 . S
H460 C470 0.930 . S
H461 C471 0.930 . S
C462 H456 0.930 . S
C462 C463 1.355 . S
C462 C464 1.415 . S
C463 C462 1.355 . S
C463 C465 1.419 . S
C464 C462 1.415 . S
C464 C469 1.425 . S
C464 C471 1.409 . S
C465 H457 0.930 . S
C465 C463 1.419 . S
C465 C466 1.362 . S
C466 H458 0.930 . S
C466 C465 1.362 . S
C466 C469 1.409 . S
C467 H459 0.930 . S
C467 C468 1.355 . S
C467 C469 1.415 . S
C468 C467 1.355 . S
C468 C470 1.419 . S
C469 C464 1.425 . S
C469 C466 1.409 . S
C469 C467 1.415 . S
C470 H460 0.930 . S
C470 C468 1.419 . S
C470 C471 1.362 . S
C471 H461 0.930 . S
C471 C464 1.409 . S
C471 C470 1.362 . S
H472 C478 0.930 . S
H473 C481 0.930 . S
H474 C482 0.930 . S
H475 C483 0.930 . S
H476 C486 0.930 . S
H477 C487 0.930 . S
C478 H472 0.930 . S
C478 C479 1.355 . S
C478 C480 1.415 . S
C479 C478 1.355 . S
C479 C481 1.419 . S
C480 C478 1.415 . S
C480 C485 1.425 . S
C480 C487 1.409 . S
C481 H473 0.930 . S
C481 C479 1.419 . S
C481 C482 1.362 . S
C482 H474 0.930 . S
C482 C481 1.362 . S
C482 C485 1.409 . S
C483 H475 0.930 . S
C483 C484 1.355 . S
C483 C485 1.415 . S
C484 C483 1.355 . S
C484 C486 1.419 . S
C485 C480 1.425 . S
C485 C482 1.409 . S
C485 C483 1.415 . S
C486 H476 0.930 . S
C486 C484 1.419 . S
C486 C487 1.362 . S
C487 H477 0.930 . S
C487 C480 1.409 . S
C487 C486 1.362 . S
H488 C494 0.930 . S
H489 C497 0.930 . S
H490 C498 0.930 . S
H491 C499 0.930 . S
H492 C502 0.930 . S
H493 C503 0.930 . S
C494 H488 0.930 . S
C494 C495 1.355 . S
C494 C496 1.415 . S
C495 C494 1.355 . S
C495 C497 1.419 . S
C496 C494 1.415 . S
C496 C501 1.425 . S
C496 C503 1.409 . S
C497 H489 0.930 . S
C497 C495 1.419 . S
C497 C498 1.362 . S
C498 H490 0.930 . S
C498 C497 1.362 . S
C498 C501 1.409 . S
C499 H491 0.930 . S
C499 C500 1.355 . S
C499 C501 1.415 . S
C500 C499 1.355 . S
C500 C502 1.419 . S
C501 C496 1.425 . S
C501 C498 1.409 . S
C501 C499 1.415 . S
C502 H492 0.930 . S
C502 C500 1.419 . S
C502 C503 1.362 . S
C503 H493 0.930 . S
C503 C496 1.409 . S
C503 C502 1.362 . S
H504 C510 0.930 . S
H505 C513 0.930 . S
H506 C514 0.930 . S
H507 C515 0.930 . S
H508 C518 0.930 . S
H509 C519 0.930 . S
C510 H504 0.930 . S
C510 C511 1.355 . S
C510 C512 1.415 . S
C511 C510 1.355 . S
C511 C513 1.419 . S
C512 C510 1.415 . S
C512 C517 1.425 . S
C512 C519 1.409 . S
C513 H505 0.930 . S
C513 C511 1.419 . S
C513 C514 1.362 . S
C514 H506 0.930 . S
C514 C513 1.362 . S
C514 C517 1.409 . S
C515 H507 0.930 . S
C515 C516 1.355 . S
C515 C517 1.415 . S
C516 C515 1.355 . S
C516 C518 1.419 . S
C517 C512 1.425 . S
C517 C514 1.409 . S
C517 C515 1.415 . S
C518 H508 0.930 . S
C518 C516 1.419 . S
C518 C519 1.362 . S
C519 H509 0.930 . S
C519 C512 1.409 . S
C519 C518 1.362 . S
H520 C526 0.930 . S
H521 C529 0.930 . S
H522 C530 0.930 1_655 S
H523 C531 0.930 1_655 S
H524 C534 0.930 . S
H525 C535 0.930 . S
C526 H520 0.930 . S
C526 C527 1.355 . S
C526 C528 1.415 . S
C527 C526 1.355 . S
C527 C529 1.419 . S
C528 C526 1.415 . S
C528 C533 1.425 . S
C528 C535 1.409 . S
C529 H521 0.930 . S
C529 C527 1.419 . S
C529 C530 1.362 . S
C530 H522 0.930 1_455 S
C530 C529 1.362 . S
C530 C533 1.409 . S
C531 H523 0.930 1_455 S
C531 C532 1.355 . S
C531 C533 1.415 . S
C532 C531 1.355 . S
C532 C534 1.419 . S
C533 C528 1.425 . S
C533 C530 1.409 . S
C533 C531 1.415 . S
C534 H524 0.930 . S
C534 C532 1.419 . S
C534 C535 1.362 . S
C535 H525 0.930 . S
C535 C528 1.409 . S
C535 C534 1.362 . S
H536 C542 0.930 . S
H537 C545 0.930 . S
H538 C546 0.930 . S
H539 C547 0.930 . S
H540 C550 0.930 . S
H541 C551 0.930 . S
C542 H536 0.930 . S
C542 C543 1.355 . S
C542 C544 1.415 . S
C543 C542 1.355 . S
C543 C545 1.419 . S
C544 C542 1.415 . S
C544 C549 1.425 . S
C544 C551 1.409 . S
C545 H537 0.930 . S
C545 C543 1.419 . S
C545 C546 1.362 . S
C546 H538 0.930 . S
C546 C545 1.362 . S
C546 C549 1.409 . S
C547 H539 0.930 . S
C547 C548 1.355 . S
C547 C549 1.415 . S
C548 C547 1.355 . S
C548 C550 1.419 . S
C549 C544 1.425 . S
C549 C546 1.409 . S
C549 C547 1.415 . S
C550 H540 0.930 . S
C550 C548 1.419 . S
C550 C551 1.362 . S
C551 H541 0.930 . S
C551 C544 1.409 . S
C551 C550 1.362 . S
H552 C558 0.930 1_455 S
H553 C561 0.930 . S
H554 C562 0.930 . S
H555 C563 0.930 . S
H556 C566 0.930 . S
H557 C567 0.930 . S
C558 H552 0.930 1_655 S
C558 C559 1.355 . S
C558 C560 1.415 . S
C559 C558 1.355 . S
C559 C561 1.419 . S
C560 C558 1.415 . S
C560 C565 1.425 . S
C560 C567 1.409 1_655 S
C561 H553 0.930 . S
C561 C559 1.419 . S
C561 C562 1.362 . S
C562 H554 0.930 . S
C562 C561 1.362 . S
C562 C565 1.409 . S
C563 H555 0.930 . S
C563 C564 1.355 . S
C563 C565 1.415 . S
C564 C563 1.355 . S
C564 C566 1.419 1_655 S
C565 C560 1.425 . S
C565 C562 1.409 . S
C565 C563 1.415 . S
C566 H556 0.930 . S
C566 C564 1.419 1_455 S
C566 C567 1.362 . S
C567 H557 0.930 . S
C567 C560 1.409 1_455 S
C567 C566 1.362 . S
H568 C574 0.930 . S
H569 C577 0.930 . S
H570 C578 0.930 . S
H571 C579 0.930 . S
H572 C582 0.930 . S
H573 C583 0.930 . S
C574 H568 0.930 . S
C574 C575 1.355 . S
C574 C576 1.415 . S
C575 C574 1.355 . S
C575 C577 1.419 . S
C576 C574 1.415 . S
C576 C581 1.425 . S
C576 C583 1.409 . S
C577 H569 0.930 . S
C577 C575 1.419 . S
C577 C578 1.362 . S
C578 H570 0.930 . S
C578 C577 1.362 . S
C578 C581 1.409 . S
C579 H571 0.930 . S
C579 C580 1.355 . S
C579 C581 1.415 . S
C580 C579 1.355 . S
C580 C582 1.419 . S
C581 C576 1.425 . S
C581 C578 1.409 . S
C581 C579 1.415 . S
C582 H572 0.930 . S
C582 C580 1.419 . S
C582 C583 1.362 . S
C583 H573 0.930 . S
C583 C576 1.409 . S
C583 C582 1.362 . S
H584 C590 0.930 . S
H585 C593 0.930 . S
H586 C594 0.930 . S
H587 C595 0.930 . S
H588 C598 0.930 . S
H589 C599 0.930 . S
C590 H584 0.930 . S
C590 C591 1.355 . S
C590 C592 1.415 . S
C591 C590 1.355 . S
C591 C593 1.419 . S
C592 C590 1.415 . S
C592 C597 1.425 . S
C592 C599 1.409 . S
C593 H585 0.930 . S
C593 C591 1.419 . S
C593 C594 1.362 . S
C594 H586 0.930 . S
C594 C593 1.362 . S
C594 C597 1.409 . S
C595 H587 0.930 . S
C595 C596 1.355 . S
C595 C597 1.415 . S
C596 C595 1.355 . S
C596 C598 1.419 . S
C597 C592 1.425 . S
C597 C594 1.409 . S
C597 C595 1.415 . S
C598 H588 0.930 . S
C598 C596 1.419 . S
C598 C599 1.362 . S
C599 H589 0.930 . S
C599 C592 1.409 . S
C599 C598 1.362 . S
H600 C606 0.930 1_554 S
H601 C609 0.930 . S
H602 C610 0.931 1_545 S
H603 C611 0.930 . S
H604 C614 0.930 . S
H605 C615 0.930 . S
C606 H600 0.930 1_556 S
C606 C607 1.355 . S
C606 C608 1.415 . S
C607 C606 1.355 . S
C607 C609 1.419 1_565 S
C608 C606 1.415 . S
C608 C613 1.425 . S
C608 C615 1.409 1_556 S
C609 H601 0.930 . S
C609 C607 1.419 1_545 S
C609 C610 1.362 1_545 S
C610 H602 0.931 1_565 S
C610 C609 1.362 1_565 S
C610 C613 1.409 . S
C611 H603 0.930 . S
C611 C612 1.355 . S
C611 C613 1.415 . S
C612 C611 1.355 . S
C612 C614 1.419 1_556 S
C613 C608 1.425 . S
C613 C610 1.409 . S
C613 C611 1.415 . S
C614 H604 0.930 . S
C614 C612 1.419 1_554 S
C614 C615 1.362 . S
C615 H605 0.930 . S
C615 C608 1.409 1_554 S
C615 C614 1.362 . S
H616 C622 0.930 . S
H617 C625 0.930 . S
H618 C626 0.930 . S
H619 C627 0.930 . S
H620 C630 0.930 . S
H621 C631 0.930 . S
C622 H616 0.930 . S
C622 C623 1.355 . S
C622 C624 1.415 . S
C623 C622 1.355 . S
C623 C625 1.419 . S
C624 C622 1.415 . S
C624 C629 1.425 . S
C624 C631 1.409 . S
C625 H617 0.930 . S
C625 C623 1.419 . S
C625 C626 1.362 . S
C626 H618 0.930 . S
C626 C625 1.362 . S
C626 C629 1.409 . S
C627 H619 0.930 . S
C627 C628 1.355 . S
C627 C629 1.415 . S
C628 C627 1.355 . S
C628 C630 1.419 . S
C629 C624 1.425 . S
C629 C626 1.409 . S
C629 C627 1.415 . S
C630 H620 0.930 . S
C630 C628 1.419 . S
C630 C631 1.362 . S
C631 H621 0.930 . S
C631 C624 1.409 . S
C631 C630 1.362 . S
H632 C638 0.930 . S
H633 C641 0.930 . S
H634 C642 0.930 . S
H635 C643 0.930 . S
H636 C646 0.930 . S
H637 C647 0.930 . S
C638 H632 0.930 . S
C638 C639 1.355 . S
C638 C640 1.415 . S
C639 C638 1.355 . S
C639 C641 1.419 . S
C640 C638 1.415 . S
C640 C645 1.425 . S
C640 C647 1.409 . S
C641 H633 0.930 . S
C641 C639 1.419 . S
C641 C642 1.362 . S
C642 H634 0.930 . S
C642 C641 1.362 . S
C642 C645 1.409 . S
C643 H635 0.930 . S
C643 C644 1.355 . S
C643 C645 1.415 . S
C644 C643 1.355 . S
C644 C646 1.419 . S
C645 C640 1.425 . S
C645 C642 1.409 . S
C645 C643 1.415 . S
C646 H636 0.930 . S
C646 C644 1.419 . S
C646 C647 1.362 . S
C647 H637 0.930 . S
C647 C640 1.409 . S
C647 C646 1.362 . S
H648 C654 0.930 . S
H649 C657 0.930 . S
H650 C658 0.930 . S
H651 C659 0.930 . S
H652 C662 0.930 . S
H653 C663 0.930 . S
C654 H648 0.930 . S
C654 C655 1.355 . S
C654 C656 1.415 . S
C655 C654 1.355 . S
C655 C657 1.419 . S
C656 C654 1.415 . S
C656 C661 1.425 . S
C656 C663 1.409 . S
C657 H649 0.930 . S
C657 C655 1.419 . S
C657 C658 1.362 . S
C658 H650 0.930 . S
C658 C657 1.362 . S
C658 C661 1.409 . S
C659 H651 0.930 . S
C659 C660 1.355 . S
C659 C661 1.415 . S
C660 C659 1.355 . S
C660 C662 1.419 . S
C661 C656 1.425 . S
C661 C658 1.409 . S
C661 C659 1.415 . S
C662 H652 0.930 . S
C662 C660 1.419 . S
C662 C663 1.362 . S
C663 H653 0.930 . S
C663 C656 1.409 . S
C663 C662 1.362 . S
H664 C670 0.930 . S
H665 C673 0.930 . S
H666 C674 0.929 1_565 S
H667 C675 0.930 . S
H668 C678 0.930 . S
H669 C679 0.930 . S
C670 H664 0.930 . S
C670 C671 1.355 . S
C670 C672 1.415 . S
C671 C670 1.355 . S
C671 C673 1.419 1_545 S
C672 C670 1.415 . S
C672 C677 1.425 . S
C672 C679 1.409 . S
C673 H665 0.930 . S
C673 C671 1.419 1_565 S
C673 C674 1.361 1_565 S
C674 H666 0.929 1_545 S
C674 C673 1.361 1_545 S
C674 C677 1.412 . S
C675 H667 0.930 . S
C675 C676 1.355 . S
C675 C677 1.415 . S
C676 C675 1.355 . S
C676 C678 1.419 . S
C677 C672 1.425 . S
C677 C674 1.412 . S
C677 C675 1.415 . S
C678 H668 0.930 . S
C678 C676 1.419 . S
C678 C679 1.362 . S
C679 H669 0.930 . S
C679 C672 1.409 . S
C679 C678 1.362 . S
H680 C686 0.930 . S
H681 C689 0.930 . S
H682 C690 0.930 . S
H683 C691 0.930 . S
H684 C694 0.930 . S
H685 C695 0.930 . S
C686 H680 0.930 . S
C686 C687 1.355 . S
C686 C688 1.415 . S
C687 C686 1.355 . S
C687 C689 1.419 . S
C688 C686 1.415 . S
C688 C693 1.425 . S
C688 C695 1.409 . S
C689 H681 0.930 . S
C689 C687 1.419 . S
C689 C690 1.362 . S
C690 H682 0.930 . S
C690 C689 1.362 . S
C690 C693 1.409 . S
C691 H683 0.930 . S
C691 C692 1.355 . S
C691 C693 1.415 . S
C692 C691 1.355 . S
C692 C694 1.419 . S
C693 C688 1.425 . S
C693 C690 1.409 . S
C693 C691 1.415 . S
C694 H684 0.930 . S
C694 C692 1.419 . S
C694 C695 1.362 . S
C695 H685 0.930 . S
C695 C688 1.409 . S
C695 C694 1.362 . S
H696 C702 0.930 . S
H697 C705 0.930 . S
H698 C706 0.930 . S
H699 C707 0.930 . S
H700 C710 0.930 . S
H701 C711 0.930 . S
C702 H696 0.930 . S
C702 C703 1.355 . S
C702 C704 1.415 . S
C703 C702 1.355 . S
C703 C705 1.419 . S
C704 C702 1.415 . S
C704 C709 1.425 . S
C704 C711 1.409 . S
C705 H697 0.930 . S
C705 C703 1.419 . S
C705 C706 1.362 . S
C706 H698 0.930 . S
C706 C705 1.362 . S
C706 C709 1.409 . S
C707 H699 0.930 . S
C707 C708 1.355 . S
C707 C709 1.415 . S
C708 C707 1.355 . S
C708 C710 1.419 . S
C709 C704 1.425 . S
C709 C706 1.409 . S
C709 C707 1.415 . S
C710 H700 0.930 . S
C710 C708 1.419 . S
C710 C711 1.362 . S
C711 H701 0.930 . S
C711 C704 1.409 . S
C711 C710 1.362 . S
H712 C718 0.930 1_565 S
H713 C721 0.930 . S
H714 C722 0.930 . S
H715 C723 0.930 . S
H716 C726 0.930 . S
H717 C727 0.930 . S
C718 H712 0.930 1_545 S
C718 C719 1.355 . S
C718 C720 1.415 . S
C719 C718 1.355 . S
C719 C721 1.419 . S
C720 C718 1.415 . S
C720 C725 1.425 . S
C720 C727 1.409 1_545 S
C721 H713 0.930 . S
C721 C719 1.419 . S
C721 C722 1.362 . S
C722 H714 0.930 . S
C722 C721 1.362 . S
C722 C725 1.409 . S
C723 H715 0.930 . S
C723 C724 1.355 . S
C723 C725 1.415 . S
C724 C723 1.355 . S
C724 C726 1.419 1_545 S
C725 C720 1.425 . S
C725 C722 1.409 . S
C725 C723 1.415 . S
C726 H716 0.930 . S
C726 C724 1.419 1_565 S
C726 C727 1.362 . S
C727 H717 0.930 . S
C727 C720 1.409 1_565 S
C727 C726 1.362 . S
H728 C734 0.930 . S
H729 C737 0.930 . S
H730 C738 0.930 . S
H731 C739 0.930 . S
H732 C742 0.930 . S
H733 C743 0.930 . S
C734 H728 0.930 . S
C734 C735 1.355 . S
C734 C736 1.415 . S
C735 C734 1.355 . S
C735 C737 1.419 . S
C736 C734 1.415 . S
C736 C741 1.425 . S
C736 C743 1.409 . S
C737 H729 0.930 . S
C737 C735 1.419 . S
C737 C738 1.362 . S
C738 H730 0.930 . S
C738 C737 1.362 . S
C738 C741 1.409 . S
C739 H731 0.930 . S
C739 C740 1.355 . S
C739 C741 1.415 . S
C740 C739 1.355 . S
C740 C742 1.419 . S
C741 C736 1.425 . S
C741 C738 1.409 . S
C741 C739 1.415 . S
C742 H732 0.930 . S
C742 C740 1.419 . S
C742 C743 1.362 . S
C743 H733 0.930 . S
C743 C736 1.409 . S
C743 C742 1.362 . S
H744 C750 0.930 . S
H745 C753 0.930 . S
H746 C754 0.930 . S
H747 C755 0.930 . S
H748 C758 0.930 . S
H749 C759 0.930 . S
C750 H744 0.930 . S
C750 C751 1.355 . S
C750 C752 1.415 . S
C751 C750 1.355 . S
C751 C753 1.419 . S
C752 C750 1.415 . S
C752 C757 1.425 . S
C752 C759 1.409 . S
C753 H745 0.930 . S
C753 C751 1.419 . S
C753 C754 1.362 . S
C754 H746 0.930 . S
C754 C753 1.362 . S
C754 C757 1.409 . S
C755 H747 0.930 . S
C755 C756 1.355 . S
C755 C757 1.415 . S
C756 C755 1.355 . S
C756 C758 1.419 . S
C757 C752 1.425 . S
C757 C754 1.409 . S
C757 C755 1.415 . S
C758 H748 0.930 . S
C758 C756 1.419 . S
C758 C759 1.362 . S
C759 H749 0.930 . S
C759 C752 1.409 . S
C759 C758 1.362 . S
H760 C766 0.930 . S
H761 C769 0.930 . S
H762 C770 0.930 . S
H763 C771 0.930 . S
H764 C774 0.930 . S
H765 C775 0.930 . S
C766 H760 0.930 . S
C766 C767 1.355 . S
C766 C768 1.415 . S
C767 C766 1.355 . S
C767 C769 1.419 . S
C768 C766 1.415 . S
C768 C773 1.425 . S
C768 C775 1.409 . S
C769 H761 0.930 . S
C769 C767 1.419 . S
C769 C770 1.362 . S
C770 H762 0.930 . S
C770 C769 1.362 . S
C770 C773 1.409 . S
C771 H763 0.930 . S
C771 C772 1.355 . S
C771 C773 1.415 . S
C772 C771 1.355 . S
C772 C774 1.419 . S
C773 C768 1.425 . S
C773 C770 1.409 . S
C773 C771 1.415 . S
C774 H764 0.930 . S
C774 C772 1.419 . S
C774 C775 1.362 . S
C775 H765 0.930 . S
C775 C768 1.409 . S
C775 C774 1.362 . S
H776 C782 0.962 . S
H777 C785 0.930 . S
H778 C786 0.919 1_565 S
H779 C787 0.930 . S
H780 C790 0.930 . S
H781 C791 0.930 1_455 S
C782 H776 0.962 . S
C782 C783 1.349 1_455 S
C782 C784 1.390 1_455 S
C783 C782 1.349 1_655 S
C783 C785 1.419 . S
C784 C782 1.390 1_655 S
C784 C789 1.425 . S
C784 C791 1.409 . S
C785 H777 0.930 . S
C785 C783 1.419 . S
C785 C786 1.362 . S
C786 H778 0.919 1_545 S
C786 C785 1.362 . S
C786 C789 1.409 . S
C787 H779 0.930 . S
C787 C788 1.355 . S
C787 C789 1.415 . S
C788 C787 1.355 . S
C788 C790 1.419 . S
C789 C784 1.425 . S
C789 C786 1.409 . S
C789 C787 1.415 . S
C790 H780 0.930 . S
C790 C788 1.419 . S
C790 C791 1.362 . S
C791 H781 0.930 1_655 S
C791 C784 1.409 . S
C791 C790 1.362 . S
H792 C798 0.930 . S
H793 C801 0.930 . S
H794 C802 0.930 . S
H795 C803 0.930 . S
H796 C806 0.930 . S
H797 C807 0.930 . S
C798 H792 0.930 . S
C798 C799 1.355 . S
C798 C800 1.415 . S
C799 C798 1.355 . S
C799 C801 1.419 . S
C800 C798 1.415 . S
C800 C805 1.425 . S
C800 C807 1.409 . S
C801 H793 0.930 . S
C801 C799 1.419 . S
C801 C802 1.362 . S
C802 H794 0.930 . S
C802 C801 1.362 . S
C802 C805 1.409 . S
C803 H795 0.930 . S
C803 C804 1.355 . S
C803 C805 1.415 . S
C804 C803 1.355 . S
C804 C806 1.419 . S
C805 C800 1.425 . S
C805 C802 1.409 . S
C805 C803 1.415 . S
C806 H796 0.930 . S
C806 C804 1.419 . S
C806 C807 1.362 . S
C807 H797 0.930 . S
C807 C800 1.409 . S
C807 C806 1.362 . S
H808 C814 0.930 . S
H809 C817 0.930 1_655 S
H810 C818 0.930 . S
H811 C819 0.930 . S
H812 C822 0.930 . S
H813 C823 0.930 . S
C814 H808 0.930 . S
C814 C815 1.355 . S
C814 C816 1.415 . S
C815 C814 1.355 . S
C815 C817 1.419 . S
C816 C814 1.415 . S
C816 C821 1.425 . S
C816 C823 1.409 . S
C817 H809 0.930 1_455 S
C817 C815 1.419 . S
C817 C818 1.362 . S
C818 H810 0.930 . S
C818 C817 1.362 . S
C818 C821 1.409 . S
C819 H811 0.930 . S
C819 C820 1.355 . S
C819 C821 1.415 . S
C820 C819 1.355 . S
C820 C822 1.419 . S
C821 C816 1.425 . S
C821 C818 1.409 . S
C821 C819 1.415 . S
C822 H812 0.930 . S
C822 C820 1.419 . S
C822 C823 1.362 . S
C823 H813 0.930 . S
C823 C816 1.409 . S
C823 C822 1.362 . S
H824 C830 0.930 . S
H825 C833 0.930 . S
H826 C834 0.930 . S
H827 C835 0.930 . S
H828 C838 0.930 . S
H829 C839 0.930 . S
C830 H824 0.930 . S
C830 C831 1.355 . S
C830 C832 1.415 . S
C831 C830 1.355 . S
C831 C833 1.419 . S
C832 C830 1.415 . S
C832 C837 1.425 . S
C832 C839 1.409 . S
C833 H825 0.930 . S
C833 C831 1.419 . S
C833 C834 1.362 . S
C834 H826 0.930 . S
C834 C833 1.362 . S
C834 C837 1.409 . S
C835 H827 0.930 . S
C835 C836 1.355 . S
C835 C837 1.415 . S
C836 C835 1.355 . S
C836 C838 1.419 . S
C837 C832 1.425 . S
C837 C834 1.409 . S
C837 C835 1.415 . S
C838 H828 0.930 . S
C838 C836 1.419 . S
C838 C839 1.362 . S
C839 H829 0.930 . S
C839 C832 1.409 . S
C839 C838 1.362 . S
H840 C846 0.930 . S
H841 C849 0.930 . S
H842 C850 0.930 . S
H843 C851 0.930 . S
H844 C854 0.930 . S
H845 C855 0.930 1_554 S
C846 H840 0.930 . S
C846 C847 1.355 . S
C846 C848 1.415 1_554 S
C847 C846 1.355 . S
C847 C849 1.419 1_554 S
C848 C846 1.415 1_556 S
C848 C853 1.425 . S
C848 C855 1.409 . S
C849 H841 0.930 . S
C849 C847 1.419 1_556 S
C849 C850 1.362 1_655 S
C850 H842 0.930 . S
C850 C849 1.362 1_455 S
C850 C853 1.409 1_455 S
C851 H843 0.930 . S
C851 C852 1.355 . S
C851 C853 1.415 1_455 S
C852 C851 1.355 . S
C852 C854 1.416 1_455 S
C853 C848 1.425 . S
C853 C850 1.409 1_655 S
C853 C851 1.415 1_655 S
C854 H844 0.930 . S
C854 C852 1.416 1_655 S
C854 C855 1.362 . S
C855 H845 0.930 1_556 S
C855 C848 1.409 . S
C855 C854 1.362 . S
H856 C862 0.930 . S
H857 C865 0.930 . S
H858 C866 0.930 . S
H859 C867 0.930 . S
H860 C870 0.930 . S
H861 C871 0.930 . S
C862 H856 0.930 . S
C862 C863 1.355 . S
C862 C864 1.415 . S
C863 C862 1.355 . S
C863 C865 1.419 . S
C864 C862 1.415 . S
C864 C869 1.425 . S
C864 C871 1.409 . S
C865 H857 0.930 . S
C865 C863 1.419 . S
C865 C866 1.362 . S
C866 H858 0.930 . S
C866 C865 1.362 . S
C866 C869 1.409 . S
C867 H859 0.930 . S
C867 C868 1.355 . S
C867 C869 1.415 . S
C868 C867 1.355 . S
C868 C870 1.419 . S
C869 C864 1.425 . S
C869 C866 1.409 . S
C869 C867 1.415 . S
C870 H860 0.930 . S
C870 C868 1.419 . S
C870 C871 1.362 . S
C871 H861 0.930 . S
C871 C864 1.409 . S
C871 C870 1.362 . S
H872 C878 0.930 1_655 S
H873 C881 0.930 . S
H874 C882 0.930 . S
H875 C883 0.930 . S
H876 C886 0.930 . S
H877 C887 0.930 . S
C878 H872 0.930 1_455 S
C878 C879 1.355 . S
C878 C880 1.415 . S
C879 C878 1.355 . S
C879 C881 1.419 . S
C880 C878 1.415 . S
C880 C885 1.425 . S
C880 C887 1.409 1_455 S
C881 H873 0.930 . S
C881 C879 1.419 . S
C881 C882 1.362 . S
C882 H874 0.930 . S
C882 C881 1.362 . S
C882 C885 1.409 . S
C883 H875 0.930 . S
C883 C884 1.355 . S
C883 C885 1.415 . S
C884 C883 1.355 . S
C884 C886 1.419 1_455 S
C885 C880 1.425 . S
C885 C882 1.409 . S
C885 C883 1.415 . S
C886 H876 0.930 . S
C886 C884 1.419 1_655 S
C886 C887 1.362 . S
C887 H877 0.930 . S
C887 C880 1.409 1_655 S
C887 C886 1.362 . S
H888 C894 0.930 . S
H889 C897 0.930 . S
H890 C898 0.930 . S
H891 C899 0.930 . S
H892 C902 0.930 . S
H893 C903 0.930 . S
C894 H888 0.930 . S
C894 C895 1.355 . S
C894 C896 1.415 . S
C895 C894 1.355 . S
C895 C897 1.419 . S
C896 C894 1.415 . S
C896 C901 1.425 . S
C896 C903 1.409 . S
C897 H889 0.930 . S
C897 C895 1.419 . S
C897 C898 1.362 . S
C898 H890 0.930 . S
C898 C897 1.362 . S
C898 C901 1.409 . S
C899 H891 0.930 . S
C899 C900 1.355 . S
C899 C901 1.415 . S
C900 C899 1.355 . S
C900 C902 1.419 . S
C901 C896 1.425 . S
C901 C898 1.409 . S
C901 C899 1.415 . S
C902 H892 0.930 . S
C902 C900 1.419 . S
C902 C903 1.362 . S
C903 H893 0.930 . S
C903 C896 1.409 . S
C903 C902 1.362 . S
H904 C910 0.930 . S
H905 C913 0.930 . S
H906 C914 0.930 . S
H907 C915 0.930 . S
H908 C918 0.930 . S
H909 C919 0.930 . S
C910 H904 0.930 . S
C910 C911 1.355 . S
C910 C912 1.415 . S
C911 C910 1.355 . S
C911 C913 1.419 1_554 S
C912 C910 1.415 . S
C912 C917 1.425 . S
C912 C919 1.409 . S
C913 H905 0.930 . S
C913 C911 1.419 1_556 S
C913 C914 1.362 1_556 S
C914 H906 0.930 . S
C914 C913 1.362 1_554 S
C914 C917 1.409 . S
C915 H907 0.930 . S
C915 C916 1.355 . S
C915 C917 1.415 . S
C916 C915 1.355 . S
C916 C918 1.419 . S
C917 C912 1.425 . S
C917 C914 1.409 . S
C917 C915 1.415 . S
C918 H908 0.930 . S
C918 C916 1.419 . S
C918 C919 1.362 . S
C919 H909 0.930 . S
C919 C912 1.409 . S
C919 C918 1.362 . S
H920 C926 0.930 . S
H921 C929 0.930 . S
H922 C930 0.930 . S
H923 C931 0.930 . S
H924 C934 0.930 . S
H925 C935 0.930 . S
C926 H920 0.930 . S
C926 C927 1.355 . S
C926 C928 1.415 . S
C927 C926 1.355 . S
C927 C929 1.419 . S
C928 C926 1.415 . S
C928 C933 1.425 . S
C928 C935 1.409 . S
C929 H921 0.930 . S
C929 C927 1.419 . S
C929 C930 1.362 . S
C930 H922 0.930 . S
C930 C929 1.362 . S
C930 C933 1.409 . S
C931 H923 0.930 . S
C931 C932 1.355 . S
C931 C933 1.415 . S
C932 C931 1.355 . S
C932 C934 1.419 . S
C933 C928 1.425 . S
C933 C930 1.409 . S
C933 C931 1.415 . S
C934 H924 0.930 . S
C934 C932 1.419 . S
C934 C935 1.362 . S
C935 H925 0.930 . S
C935 C928 1.409 . S
C935 C934 1.362 . S
H936 C942 0.930 . S
H937 C945 0.930 . S
H938 C946 0.930 1_556 S
H939 C947 0.930 . S
H940 C950 0.930 . S
H941 C951 0.930 . S
C942 H936 0.930 . S
C942 C943 1.355 . S
C942 C944 1.415 . S
C943 C942 1.355 . S
C943 C945 1.419 1_554 S
C944 C942 1.415 . S
C944 C949 1.425 . S
C944 C951 1.409 . S
C945 H937 0.930 . S
C945 C943 1.419 1_556 S
C945 C946 1.362 1_556 S
C946 H938 0.930 1_554 S
C946 C945 1.362 1_554 S
C946 C949 1.409 . S
C947 H939 0.930 . S
C947 C948 1.355 . S
C947 C949 1.415 . S
C948 C947 1.355 . S
C948 C950 1.419 . S
C949 C944 1.425 . S
C949 C946 1.409 . S
C949 C947 1.415 . S
C950 H940 0.930 . S
C950 C948 1.419 . S
C950 C951 1.362 . S
C951 H941 0.930 . S
C951 C944 1.409 . S
C951 C950 1.362 . S
H952 C958 0.930 . S
H953 C961 0.930 . S
H954 C962 0.930 . S
H955 C963 0.930 . S
H956 C966 0.930 . S
H957 C967 0.930 . S
C958 H952 0.930 . S
C958 C959 1.355 . S
C958 C960 1.415 . S
C959 C958 1.355 . S
C959 C961 1.419 . S
C960 C958 1.415 . S
C960 C965 1.425 . S
C960 C967 1.409 . S
C961 H953 0.930 . S
C961 C959 1.419 . S
C961 C962 1.362 . S
C962 H954 0.930 . S
C962 C961 1.362 . S
C962 C965 1.409 . S
C963 H955 0.930 . S
C963 C964 1.355 . S
C963 C965 1.415 . S
C964 C963 1.355 . S
C964 C966 1.419 . S
C965 C960 1.425 . S
C965 C962 1.409 . S
C965 C963 1.415 . S
C966 H956 0.930 . S
C966 C964 1.419 . S
C966 C967 1.362 . S
C967 H957 0.930 . S
C967 C960 1.409 . S
C967 C966 1.362 . S
H968 C974 0.930 . S
H969 C977 0.930 . S
H970 C978 0.930 . S
H971 C979 0.930 . S
H972 C982 0.930 . S
H973 C983 0.930 . S
C974 H968 0.930 . S
C974 C975 1.355 . S
C974 C976 1.415 . S
C975 C974 1.355 . S
C975 C977 1.419 . S
C976 C974 1.415 . S
C976 C981 1.425 . S
C976 C983 1.409 . S
C977 H969 0.930 . S
C977 C975 1.419 . S
C977 C978 1.362 . S
C978 H970 0.930 . S
C978 C977 1.362 . S
C978 C981 1.409 . S
C979 H971 0.930 . S
C979 C980 1.355 . S
C979 C981 1.415 . S
C980 C979 1.355 . S
C980 C982 1.419 . S
C981 C976 1.425 . S
C981 C978 1.409 . S
C981 C979 1.415 . S
C982 H972 0.930 . S
C982 C980 1.419 . S
C982 C983 1.362 . S
C983 H973 0.930 . S
C983 C976 1.409 . S
C983 C982 1.362 . S
H984 C990 0.930 . S
H985 C993 0.930 . S
H986 C994 0.930 . S
H987 C995 0.930 . S
H988 C998 0.930 . S
H989 C999 0.930 . S
C990 H984 0.930 . S
C990 C991 1.355 . S
C990 C992 1.415 . S
C991 C990 1.355 . S
C991 C993 1.419 . S
C992 C990 1.415 . S
C992 C997 1.425 . S
C992 C999 1.409 . S
C993 H985 0.930 . S
C993 C991 1.419 . S
C993 C994 1.362 . S
C994 H986 0.930 . S
C994 C993 1.362 . S
C994 C997 1.409 . S
C995 H987 0.930 . S
C995 C996 1.355 . S
C995 C997 1.415 . S
C996 C995 1.355 . S
C996 C998 1.419 . S
C997 C992 1.425 . S
C997 C994 1.409 . S
C997 C995 1.415 . S
C998 H988 0.930 . S
C998 C996 1.419 . S
C998 C999 1.362 . S
C999 H989 0.930 . S
C999 C992 1.409 . S
C999 C998 1.362 . S
H1000 C1006 0.930 . S
H1001 C1009 0.930 . S
H1002 C1010 0.930 . S
H1003 C1011 0.930 . S
H1004 C1014 0.930 . S
H1005 C1015 0.930 . S
C1006 H1000 0.930 . S
C1006 C1007 1.355 . S
C1006 C1008 1.415 . S
C1007 C1006 1.355 . S
C1007 C1009 1.419 . S
C1008 C1006 1.415 . S
C1008 C1013 1.425 . S
C1008 C1015 1.409 . S
C1009 H1001 0.930 . S
C1009 C1007 1.419 . S
C1009 C1010 1.362 . S
C1010 H1002 0.930 . S
C1010 C1009 1.362 . S
C1010 C1013 1.409 . S
C1011 H1003 0.930 . S
C1011 C1012 1.355 . S
C1011 C1013 1.415 . S
C1012 C1011 1.355 . S
C1012 C1014 1.419 . S
C1013 C1008 1.425 . S
C1013 C1010 1.409 . S
C1013 C1011 1.415 . S
C1014 H1004 0.930 . S
C1014 C1012 1.419 . S
C1014 C1015 1.362 . S
C1015 H1005 0.930 . S
C1015 C1008 1.409 . S
C1015 C1014 1.362 . S
H1016 C1022 0.930 . S
H1017 C1025 0.930 . S
H1018 C1026 0.930 . S
H1019 C1027 0.930 . S
H1020 C1030 0.930 . S
H1021 C1031 0.930 . S
C1022 H1016 0.930 . S
C1022 C1023 1.355 . S
C1022 C1024 1.415 . S
C1023 C1022 1.355 . S
C1023 C1025 1.419 . S
C1024 C1022 1.415 . S
C1024 C1029 1.425 . S
C1024 C1031 1.409 . S
C1025 H1017 0.930 . S
C1025 C1023 1.419 . S
C1025 C1026 1.362 . S
C1026 H1018 0.930 . S
C1026 C1025 1.362 . S
C1026 C1029 1.409 . S
C1027 H1019 0.930 . S
C1027 C1028 1.355 . S
C1027 C1029 1.415 . S
C1028 C1027 1.355 . S
C1028 C1030 1.419 . S
C1029 C1024 1.425 . S
C1029 C1026 1.409 . S
C1029 C1027 1.415 . S
C1030 H1020 0.930 . S
C1030 C1028 1.419 . S
C1030 C1031 1.362 . S
C1031 H1021 0.930 . S
C1031 C1024 1.409 . S
C1031 C1030 1.362 . S
H1032 C1038 0.930 . S
H1033 C1041 0.930 . S
H1034 C1042 0.930 . S
H1035 C1043 0.930 . S
H1036 C1046 0.930 . S
H1037 C1047 0.930 . S
C1038 H1032 0.930 . S
C1038 C1039 1.355 . S
C1038 C1040 1.415 . S
C1039 C1038 1.355 . S
C1039 C1041 1.419 . S
C1040 C1038 1.415 . S
C1040 C1045 1.425 . S
C1040 C1047 1.409 . S
C1041 H1033 0.930 . S
C1041 C1039 1.419 . S
C1041 C1042 1.362 . S
C1042 H1034 0.930 . S
C1042 C1041 1.362 . S
C1042 C1045 1.409 . S
C1043 H1035 0.930 . S
C1043 C1044 1.355 . S
C1043 C1045 1.415 . S
C1044 C1043 1.355 . S
C1044 C1046 1.419 . S
C1045 C1040 1.425 . S
C1045 C1042 1.409 . S
C1045 C1043 1.415 . S
C1046 H1036 0.930 . S
C1046 C1044 1.419 . S
C1046 C1047 1.362 . S
C1047 H1037 0.930 . S
C1047 C1040 1.409 . S
C1047 C1046 1.362 . S
H1048 C1054 0.930 . S
H1049 C1057 0.930 . S
H1050 C1058 0.930 . S
H1051 C1059 0.930 . S
H1052 C1062 0.930 . S
H1053 C1063 0.930 . S
C1054 H1048 0.930 . S
C1054 C1055 1.355 . S
C1054 C1056 1.415 . S
C1055 C1054 1.355 . S
C1055 C1057 1.419 . S
C1056 C1054 1.415 . S
C1056 C1061 1.425 . S
C1056 C1063 1.409 . S
C1057 H1049 0.930 . S
C1057 C1055 1.419 . S
C1057 C1058 1.362 . S
C1058 H1050 0.930 . S
C1058 C1057 1.362 . S
C1058 C1061 1.409 . S
C1059 H1051 0.930 . S
C1059 C1060 1.355 . S
C1059 C1061 1.415 . S
C1060 C1059 1.355 . S
C1060 C1062 1.419 . S
C1061 C1056 1.425 . S
C1061 C1058 1.409 . S
C1061 C1059 1.415 . S
C1062 H1052 0.930 . S
C1062 C1060 1.419 . S
C1062 C1063 1.362 . S
C1063 H1053 0.930 . S
C1063 C1056 1.409 . S
C1063 C1062 1.362 . S
H1064 C1070 0.930 . S
H1065 C1073 0.930 1_545 S
H1066 C1074 0.930 . S
H1067 C1075 0.930 . S
H1068 C1078 0.930 . S
H1069 C1079 0.930 . S
C1070 H1064 0.930 . S
C1070 C1071 1.355 . S
C1070 C1072 1.415 . S
C1071 C1070 1.355 . S
C1071 C1073 1.419 1_554 S
C1072 C1070 1.415 . S
C1072 C1077 1.425 . S
C1072 C1079 1.409 . S
C1073 H1065 0.930 1_565 S
C1073 C1071 1.419 1_556 S
C1073 C1074 1.362 . S
C1074 H1066 0.930 . S
C1074 C1073 1.362 . S
C1074 C1077 1.409 1_556 S
C1075 H1067 0.930 . S
C1075 C1076 1.355 1_556 S
C1075 C1077 1.415 1_556 S
C1076 C1075 1.355 1_554 S
C1076 C1078 1.419 . S
C1077 C1072 1.425 . S
C1077 C1074 1.409 1_554 S
C1077 C1075 1.415 1_554 S
C1078 H1068 0.930 . S
C1078 C1076 1.419 . S
C1078 C1079 1.362 . S
C1079 H1069 0.930 . S
C1079 C1072 1.409 . S
C1079 C1078 1.362 . S
C324 C155 1.461 . S
C319 C50 1.476 . S
C340 C163 1.193 . S
C335 C61 1.511 1_455 S
C351 C67 1.448 . S
C356 C183 1.448 . S
C372 C197 1.507 . S
C367 C41 1.501 . S
C388 C212 1.514 . S
C383 C95 1.510 . S
C404 C226 1.502 . S
C399 C113 1.504 . S
C415 C106 1.537 . S
C420 C240 1.534 . S
C436 C246 1.417 . S
C431 C86 1.484 . S
C447 C104 1.509 . S
C452 C260 1.473 . S
C468 C281 1.533 . S
C463 C88 1.534 . S
C479 C94 1.482 . S
C484 C261 1.170 . S
C500 C282 1.507 . S
C495 C112 1.514 . S
C511 C70 1.469 . S
C516 C289 1.151 . S
C527 C40 1.502 . S
C532 C295 1.484 . S
C543 C49 1.501 . S
C548 C288 1.438 . S
C559 C59 1.476 . S
C564 C296 1.483 . S
C575 C34 1.489 . S
C580 C190 1.477 . S
C591 C133 1.490 . S
C596 C191 1.178 . S
C612 C148 1.480 . S
C607 C139 1.534 1_565 S
C628 C169 1.418 . S
C623 C77 1.469 . S
C639 C43 1.480 1_545 S
C644 C204 1.431 . S
C660 C254 1.519 . S
C655 C103 1.517 . S
C676 C205 1.155 . S
C671 C85 1.467 1_545 S
C692 C233 1.187 . S
C687 C115 1.506 . S
C708 C239 1.459 . S
C703 C131 1.473 . S
C719 C142 1.509 . S
C724 C247 1.261 . S
C735 C76 1.445 . S
C740 C211 1.441 . S
C756 C225 1.461 . S
C751 C122 1.510 . S
C767 C32 1.513 . S
C772 C184 1.506 . S
C788 C198 1.503 . S
C783 C5 1.509 1_655 S
C804 C156 1.538 . S
C799 C16 1.538 . S
C820 C162 1.426 . S
C815 C23 1.468 1_455 S
C831 C14 1.510 . S
C836 C274 1.443 . S
C847 C25 1.535 . S
C852 C267 1.488 . S
C863 C31 1.483 . S
C868 C275 1.177 . S
C879 C4 1.506 1_556 S
C884 C268 1.511 . S
C900 C303 1.277 . S
C895 C79 1.472 . S
C916 C309 1.477 . S
C911 C121 1.503 1_554 S
C932 C302 1.494 . S
C927 C130 1.506 . S
C943 C140 1.474 1_554 S
C948 C310 1.482 . S
C959 C97 1.489 . S
C964 C218 1.479 . S
C980 C219 1.246 . S
C975 C52 1.492 . S
C996 C232 1.477 . S
C991 C58 1.538 . S
C1012 C253 1.426 . S
C1007 C68 1.471 . S
C1023 C124 1.479 . S
C1028 C176 1.466 1_556 S
C1044 C170 1.515 . S
C1039 C13 1.516 . S
C1055 C22 1.466 . S
C1060 C177 1.181 . S
C1076 C149 1.223 . S
C1071 C7 1.519 1_565 S
