# Generated by pormake.
# Topology pyr, (3,6)-cn, num edge types: 1
# Building blocks:
#     Node 0, Type 0, BuildingBlock: ESEHIV_clean_linker_0, # of connection points: 3
#     Node 1, Type 0, BuildingBlock: ESEHIV_clean_linker_0, # of connection points: 3
#     Node 2, Type 0, BuildingBlock: ESEHIV_clean_linker_0, # of connection points: 3
#     Node 3, Type 0, BuildingBlock: ESEHIV_clean_linker_0, # of connection points: 3
#     Node 4, Type 0, BuildingBlock: ESEHIV_clean_linker_0, # of connection points: 3
#     Node 5, Type 0, BuildingBlock: ESEHIV_clean_linker_0, # of connection points: 3
#     Node 6, Type 0, BuildingBlock: ESEHIV_clean_linker_0, # of connection points: 3
#     Node 7, Type 0, BuildingBlock: ESEHIV_clean_linker_0, # of connection points: 3
#     Node 8, Type 1, BuildingBlock: JUFBIX_clean_sbu_0, # of connection points: 6
#     Node 9, Type 1, BuildingBlock: JUFBIX_clean_sbu_0, # of connection points: 6
#     Node 10, Type 1, BuildingBlock: JUFBIX_clean_sbu_0, # of connection points: 6
#     Node 11, Type 1, BuildingBlock: JUFBIX_clean_sbu_0, # of connection points: 6
#     Edge 12, Type (0, 1), BuildingBlock: TEMPAE_clean_linker_10, # of connection points: 2
#     Edge 13, Type (0, 1), BuildingBlock: TEMPAE_clean_linker_10, # of connection points: 2
#     Edge 14, Type (0, 1), BuildingBlock: TEMPAE_clean_linker_10, # of connection points: 2
#     Edge 15, Type (0, 1), BuildingBlock: TEMPAE_clean_linker_10, # of connection points: 2
#     Edge 16, Type (0, 1), BuildingBlock: TEMPAE_clean_linker_10, # of connection points: 2
#     Edge 17, Type (0, 1), BuildingBlock: TEMPAE_clean_linker_10, # of connection points: 2
#     Edge 18, Type (0, 1), BuildingBlock: TEMPAE_clean_linker_10, # of connection points: 2
#     Edge 19, Type (0, 1), BuildingBlock: TEMPAE_clean_linker_10, # of connection points: 2
#     Edge 20, Type (0, 1), BuildingBlock: TEMPAE_clean_linker_10, # of connection points: 2
#     Edge 21, Type (0, 1), BuildingBlock: TEMPAE_clean_linker_10, # of connection points: 2
#     Edge 22, Type (0, 1), BuildingBlock: TEMPAE_clean_linker_10, # of connection points: 2
#     Edge 23, Type (0, 1), BuildingBlock: TEMPAE_clean_linker_10, # of connection points: 2
#     Edge 24, Type (0, 1), BuildingBlock: TEMPAE_clean_linker_10, # of connection points: 2
#     Edge 25, Type (0, 1), BuildingBlock: TEMPAE_clean_linker_10, # of connection points: 2
#     Edge 26, Type (0, 1), BuildingBlock: TEMPAE_clean_linker_10, # of connection points: 2
#     Edge 27, Type (0, 1), BuildingBlock: TEMPAE_clean_linker_10, # of connection points: 2
#     Edge 28, Type (0, 1), BuildingBlock: TEMPAE_clean_linker_10, # of connection points: 2
#     Edge 29, Type (0, 1), BuildingBlock: TEMPAE_clean_linker_10, # of connection points: 2
#     Edge 30, Type (0, 1), BuildingBlock: TEMPAE_clean_linker_10, # of connection points: 2
#     Edge 31, Type (0, 1), BuildingBlock: TEMPAE_clean_linker_10, # of connection points: 2
#     Edge 32, Type (0, 1), BuildingBlock: TEMPAE_clean_linker_10, # of connection points: 2
#     Edge 33, Type (0, 1), BuildingBlock: TEMPAE_clean_linker_10, # of connection points: 2
#     Edge 34, Type (0, 1), BuildingBlock: TEMPAE_clean_linker_10, # of connection points: 2
#     Edge 35, Type (0, 1), BuildingBlock: TEMPAE_clean_linker_10, # of connection points: 2
# Relax obj value: 0.066
# Max RMSD: 0.101
# Mean RMSD: 0.035
data_MOF--net-pry--node1-JUFBIX_clean_sbu_0--node2-ESEHIV_clean_linker_0--edge1-TEMPAE_clean_linker_10
_symmetry_space_group_name_H-M    P1
_symmetry_Int_Tables_number       1
_symmetry_cell_setting            triclinic
loop_
_symmetry_equiv_pos_as_xyz
'x, y, z'
_cell_length_a     36.107237
_cell_length_b     33.940222
_cell_length_c     36.040856
_cell_angle_alpha  84.121848
_cell_angle_beta   90.256749
_cell_angle_gamma 91.750491
loop_
_atom_site_label
_atom_site_type_symbol
_atom_site_fract_x
_atom_site_fract_y
_atom_site_fract_z
_atom_type_partial_charge
H0 H 0.13835 0.19381 0.20721 0.0
H1 H 0.2265 0.11072 0.21398 0.0
H2 H 0.22034 0.20109 0.12064 0.0
C3 C 0.16323 0.18272 0.19575 0.0
C4 C 0.17737 0.20158 0.16188 0.0
C5 C 0.18064 0.15002 0.21512 0.0
C6 C 0.2127 0.13549 0.19913 0.0
C7 C 0.22787 0.15362 0.16498 0.0
C8 C 0.20985 0.18702 0.14699 0.0
H9 H 0.41361 0.94938 0.62568 0.0
H10 H 0.48388 0.84984 0.64255 0.0
H11 H 0.41197 0.86328 0.54643 0.0
C12 C 0.42508 0.92351 0.61523 0.0
C13 C 0.40956 0.90875 0.58351 0.0
C14 C 0.45237 0.90276 0.63615 0.0
C15 C 0.46443 0.86687 0.625 0.0
C16 C 0.44993 0.85198 0.5927 0.0
C17 C 0.42336 0.87401 0.5715 0.0
H18 H 0.7176 0.32391 0.90966 0.0
H19 H 0.72199 0.42377 0.8245 0.0
H20 H 0.63648 0.33305 0.82278 0.0
C21 C 0.70675 0.3406 0.88502 0.0
C22 C 0.67479 0.3255 0.8685 0.0
C23 C 0.72444 0.37648 0.86996 0.0
C24 C 0.70954 0.39612 0.83677 0.0
C25 C 0.67848 0.38006 0.81886 0.0
C26 C 0.66108 0.34506 0.83546 0.0
H27 H 0.92669 0.64907 0.50465 0.0
H28 H 0.99562 0.66847 0.40655 0.0
H29 H 0.91392 0.57416 0.41611 0.0
C30 C 0.93552 0.64069 0.47796 0.0
C31 C 0.91671 0.60917 0.46284 0.0
C32 C 0.96394 0.66281 0.4579 0.0
C33 C 0.97492 0.65113 0.42329 0.0
C34 C 0.95785 0.61825 0.40897 0.0
C35 C 0.92894 0.59744 0.42887 0.0
H36 H 0.8079 0.91653 0.82507 0.0
H37 H 0.89613 0.83342 0.83599 0.0
H38 H 0.81074 0.82668 0.91903 0.0
C39 C 0.82123 0.89184 0.84056 0.0
C40 C 0.80472 0.87376 0.87411 0.0
C41 C 0.85405 0.87726 0.82601 0.0
C42 C 0.87077 0.84461 0.8463 0.0
C43 C 0.85526 0.82591 0.87962 0.0
C44 C 0.8222 0.84058 0.89303 0.0
H45 H 0.53708 0.15481 0.40221 0.0
H46 H 0.62073 0.06737 0.40443 0.0
H47 H 0.63093 0.1602 0.47615 0.0
C48 C 0.56206 0.14213 0.41446 0.0
C49 C 0.58155 0.16116 0.44181 0.0
C50 C 0.57589 0.10813 0.40102 0.0
C51 C 0.6087 0.09228 0.41611 0.0
C52 C 0.62826 0.11077 0.44345 0.0
C53 C 0.61441 0.14476 0.45668 0.0
H54 H 0.31418 0.69577 0.12888 0.0
H55 H 0.30748 0.60159 0.21883 0.0
H56 H 0.39892 0.68644 0.21294 0.0
C57 C 0.32509 0.68085 0.15446 0.0
C58 C 0.35851 0.69519 0.16897 0.0
C59 C 0.30637 0.64683 0.17187 0.0
C60 C 0.32185 0.62725 0.2046 0.0
C61 C 0.35507 0.64158 0.21995 0.0
C62 C 0.37322 0.67535 0.20162 0.0
H63 H 0.02668 0.36804 0.64014 0.0
H64 H 0.11056 0.36251 0.55607 0.0
H65 H 0.11828 0.45165 0.63216 0.0
C66 C 0.05131 0.38022 0.62561 0.0
C67 C 0.07136 0.41131 0.63988 0.0
C68 C 0.0647 0.36281 0.5946 0.0
C69 C 0.09826 0.37765 0.5778 0.0
C70 C 0.11802 0.40934 0.59157 0.0
C71 C 0.10317 0.42721 0.62126 0.0
Co72 Co 0.99408 0.01648 0.50722 0.0
C73 C 0.02451 0.94148 0.50853 0.0
Co74 Co 0.04722 0.00987 0.53662 0.0
C75 C 0.91743 0.03334 0.49356 0.0
C76 C 0.94117 1.00339 0.45028 0.0
N77 N 0.94946 0.01891 0.48241 0.0
N78 N 0.8894 0.02693 0.46989 0.0
C79 C 0.90417 0.00815 0.44259 0.0
H80 H 0.91447 0.0471 0.51915 0.0
H81 H 0.96064 0.98881 0.43394 0.0
C82 C 0.0174 0.08509 0.53495 0.0
N83 N 0.09198 0.00741 0.56124 0.0
C84 C 0.1243 0.99509 0.54866 0.0
C85 C 0.10002 0.01996 0.59472 0.0
N86 N 0.15233 0.99957 0.57288 0.0
C87 C 0.13711 0.0151 0.60201 0.0
C88 C 0.05496 0.03637 0.45979 0.0
O89 O 0.99053 0.07017 0.51768 0.0
O90 O 0.04436 0.06352 0.5455 0.0
O91 O 0.07281 0.02647 0.48975 0.0
O92 O 0.01969 0.03434 0.46111 0.0
O93 O 0.05014 0.95591 0.52772 0.0
H94 H 0.08033 0.0326 0.61232 0.0
H95 H 0.12714 0.98304 0.52218 0.0
O96 O 0.99799 0.9631 0.49676 0.0
O97 O 0.96843 0.99845 0.55357 0.0
O98 O 0.02129 0.99342 0.58318 0.0
C99 C 0.98602 0.98994 0.58395 0.0
H100 H 0.88926 0.9986 0.4188 0.0
H101 H 0.15186 0.02326 0.62642 0.0
Co102 Co 0.49866 0.00845 0.9922 0.0
C103 C 0.48897 0.9441 0.04692 0.0
Co104 Co 0.53025 0.01448 0.04348 0.0
C105 C 0.48488 1.00151 0.91449 0.0
C106 C 0.43569 0.99138 0.94743 0.0
N107 N 0.47192 1.00166 0.9495 0.0
N108 N 0.4583 0.99097 0.89063 0.0
C109 C 0.42723 0.98481 0.91133 0.0
H110 H 0.51355 0.008 0.90693 0.0
H111 H 0.41703 0.98714 0.97099 0.0
C112 C 0.54024 0.07872 0.98878 0.0
N113 N 0.55673 0.02104 0.0862 0.0
C114 C 0.54358 0.01798 0.12134 0.0
C115 C 0.59229 0.03357 0.08883 0.0
N116 N 0.56933 0.02873 0.14595 0.0
C117 C 0.60012 0.03839 0.12547 0.0
C118 C 0.57117 0.97861 0.99019 0.0
O119 O 0.51714 0.05917 0.97052 0.0
O120 O 0.54919 0.06464 0.02153 0.0
O121 O 0.57231 0.98912 0.02315 0.0
O122 O 0.54117 0.98374 0.97177 0.0
O123 O 0.51126 0.96434 0.06535 0.0
H124 H 0.61084 0.04033 0.06539 0.0
H125 H 0.51529 0.00892 0.12841 0.0
O126 O 0.48037 0.95761 0.01389 0.0
O127 O 0.45636 0.03332 1.01298 0.0
O128 O 0.48814 0.03992 0.0637 0.0
C129 C 0.4579 0.04459 0.04565 0.0
H130 H 0.4007 0.97419 0.90163 0.0
H131 H 0.62597 0.05008 0.13575 0.0
Co132 Co 0.54446 0.51762 0.50406 0.0
C133 C 0.48357 0.52484 0.45573 0.0
Co134 Co 0.4918 0.49627 0.53084 0.0
C135 C 0.62307 0.5279 0.49092 0.0
C136 C 0.5916 0.5692 0.45572 0.0
N137 N 0.58804 0.53829 0.48226 0.0
N138 N 0.64832 0.55118 0.47095 0.0
C139 C 0.6286 0.5771 0.44864 0.0
H140 H 0.62995 0.50404 0.51183 0.0
H141 H 0.56882 0.58576 0.44317 0.0
C142 C 0.5527 0.48947 0.57922 0.0
N143 N 0.44836 0.47439 0.55239 0.0
C144 C 0.41282 0.48141 0.54248 0.0
C145 C 0.44637 0.44206 0.57753 0.0
N146 N 0.38903 0.45424 0.55993 0.0
C147 C 0.41003 0.42969 0.58224 0.0
C148 C 0.53127 0.43899 0.49837 0.0
O149 O 0.56996 0.50552 0.55064 0.0
O150 O 0.51801 0.48271 0.57663 0.0
O151 O 0.50182 0.44619 0.51519 0.0
O152 O 0.55514 0.4668 0.49042 0.0
O153 O 0.46606 0.51044 0.48479 0.0
H154 H 0.46997 0.42698 0.59011 0.0
H155 H 0.4047 0.50444 0.52126 0.0
O156 O 0.51859 0.5295 0.45771 0.0
O157 O 0.53343 0.5684 0.51776 0.0
O158 O 0.48205 0.54647 0.54645 0.0
C159 C 0.50487 0.57482 0.53647 0.0
H160 H 0.6401 0.60114 0.42971 0.0
H161 H 0.39991 0.40395 0.59994 0.0
Co162 Co 0.02734 0.51216 0.99828 0.0
C163 C 0.95529 0.47971 0.99762 0.0
Co164 Co 0.99783 0.51436 0.0513 0.0
C165 C 0.04313 0.4907 0.92469 0.0
C166 C 0.07535 0.54137 0.93785 0.0
N167 N 0.05091 0.51327 0.95263 0.0
N168 N 0.0611 0.50405 0.89292 0.0
C169 C 0.08173 0.53571 0.90126 0.0
H170 H 0.02297 0.46634 0.92688 0.0
H171 H 0.08638 0.56572 0.95208 0.0
C172 C 0.06993 0.54675 0.05219 0.0
N173 N 0.97401 0.51398 0.09672 0.0
C174 C 0.98028 0.53871 0.12326 0.0
C175 C 0.94868 0.48699 0.11174 0.0
N176 N 0.96012 0.52808 0.15426 0.0
C177 C 0.93995 0.4957 0.14706 0.0
C178 C 0.04061 0.44559 0.04769 0.0
O179 O 0.0699 0.53847 0.01856 0.0
O180 O 0.04077 0.53897 0.07144 0.0
O181 O 0.01822 0.46287 0.0676 0.0
O182 O 0.04831 0.46179 0.01503 0.0
O183 O 0.95464 0.48988 0.03058 0.0
H184 H 0.93815 0.46177 0.09843 0.0
H185 H 0.99974 0.56372 0.12023 0.0
O186 O 0.98489 0.48567 0.97877 0.0
O187 O 1.00598 0.56253 0.9815 0.0
O188 O 0.97807 0.56575 0.03482 0.0
C189 C 0.98478 0.58087 1.00158 0.0
H190 H 0.09941 0.5542 0.88204 0.0
H191 H 0.92153 0.47853 0.16655 0.0
C192 C 0.16193 0.09041 0.26092 0.0
C193 C 0.16505 0.13174 0.25212 0.0
C194 C 0.14527 0.07336 0.2946 0.0
C195 C 0.13151 0.09798 0.32071 0.0
C196 C 0.13543 0.13968 0.31236 0.0
C197 C 0.15191 0.15589 0.27845 0.0
C198 C 0.14167 0.02885 0.30189 0.0
C199 C 0.12179 0.16737 0.33917 0.0
C200 C 0.05506 0.05952 0.39059 0.0
C201 C 0.07484 0.0508 0.424 0.0
C202 C 0.07311 0.07404 0.35695 0.0
C203 C 0.11217 0.08045 0.3562 0.0
C204 C 0.13237 0.07133 0.38975 0.0
C205 C 0.11361 0.05662 0.423 0.0
C206 C 0.0502 0.08293 0.32215 0.0
C207 C 0.17388 0.07773 0.39073 0.0
H208 H 0.1716 0.07127 0.24094 0.0
H209 H 0.1546 0.1878 0.27258 0.0
H210 H 0.15471 0.01872 0.32898 0.0
H211 H 0.11194 0.01959 0.30384 0.0
H212 H 0.15472 0.01366 0.27963 0.0
H213 H 0.12791 0.19899 0.32934 0.0
H214 H 0.09141 0.16305 0.34296 0.0
H215 H 0.13484 0.16054 0.36692 0.0
H216 H 0.0252 0.05515 0.39068 0.0
H217 H 0.1294 0.0501 0.44842 0.0
H218 H 0.0606 0.06644 0.29948 0.0
H219 H 0.05284 0.11497 0.31237 0.0
H220 H 0.02039 0.07495 0.32677 0.0
H221 H 0.18708 0.0614 0.36943 0.0
H222 H 0.18584 0.06788 0.41847 0.0
H223 H 0.18107 0.10965 0.38376 0.0
C224 C 0.47344 0.95589 0.67528 0.0
C225 C 0.46372 0.916 0.6725 0.0
C226 C 0.47796 0.97023 0.71022 0.0
C227 C 0.47207 0.94409 0.74298 0.0
C228 C 0.46434 0.90333 0.74028 0.0
C229 C 0.46039 0.88973 0.705 0.0
C230 C 0.48697 0.01371 0.71202 0.0
C231 C 0.45769 0.87456 0.77458 0.0
C232 C 0.49733 0.97199 0.83944 0.0
C233 C 0.46285 0.98289 0.85243 0.0
C234 C 0.5012 0.96075 0.80328 0.0
C235 C 0.46977 0.95988 0.77979 0.0
C236 C 0.43522 0.97207 0.79226 0.0
C237 C 0.43227 0.98367 0.82829 0.0
C238 C 0.53859 0.94837 0.79081 0.0
C239 C 0.40101 0.9716 0.76798 0.0
H240 H 0.47624 0.97614 0.65008 0.0
H241 H 0.45244 0.85897 0.70291 0.0
H242 H 0.46223 0.02842 0.72157 0.0
H243 H 0.50946 0.01772 0.7325 0.0
H244 H 0.49554 0.02885 0.68447 0.0
H245 H 0.45532 0.84336 0.76784 0.0
H246 H 0.48049 0.87712 0.79499 0.0
H247 H 0.43166 0.88181 0.78831 0.0
H248 H 0.52109 0.97085 0.85788 0.0
H249 H 0.40577 0.99281 0.83778 0.0
H250 H 0.54507 0.96236 0.76231 0.0
H251 H 0.53817 0.9158 0.7898 0.0
H252 H 0.56115 0.95635 0.80999 0.0
H253 H 0.40614 0.98969 0.74098 0.0
H254 H 0.37653 0.98317 0.78142 0.0
H255 H 0.39429 0.94085 0.76172 0.0
C256 C 0.65479 0.37597 0.75366 0.0
C257 C 0.66384 0.3992 0.78269 0.0
C258 C 0.63863 0.39252 0.72027 0.0
C259 C 0.63091 0.43341 0.71562 0.0
C260 C 0.64078 0.45728 0.74445 0.0
C261 C 0.65729 0.43995 0.77753 0.0
C262 C 0.62911 0.36595 0.69024 0.0
C263 C 0.63286 0.50089 0.74083 0.0
C264 C 0.61172 0.47957 0.61626 0.0
C265 C 0.57282 0.47745 0.61468 0.0
C266 C 0.63099 0.46619 0.64905 0.0
C267 C 0.611 0.45051 0.68129 0.0
C268 C 0.57173 0.44923 0.6801 0.0
C269 C 0.55319 0.46251 0.6469 0.0
C270 C 0.67281 0.4679 0.64887 0.0
C271 C 0.5492 0.43303 0.71375 0.0
H272 H 0.66023 0.34457 0.75717 0.0
H273 H 0.66396 0.45808 0.79986 0.0
H274 H 0.59867 0.36471 0.68594 0.0
H275 H 0.64187 0.37818 0.66338 0.0
H276 H 0.63865 0.33528 0.6973 0.0
H277 H 0.6439 0.51582 0.76477 0.0
H278 H 0.64516 0.51578 0.71472 0.0
H279 H 0.6025 0.50491 0.73908 0.0
H280 H 0.62724 0.49098 0.59159 0.0
H281 H 0.52317 0.46081 0.64614 0.0
H282 H 0.68338 0.43741 0.6531 0.0
H283 H 0.68344 0.48392 0.67224 0.0
H284 H 0.68427 0.48278 0.6223 0.0
H285 H 0.55483 0.40119 0.72082 0.0
H286 H 0.51895 0.4361 0.70904 0.0
H287 H 0.55735 0.44863 0.73825 0.0
C288 C 0.97332 0.56907 0.36501 0.0
C289 C 0.96637 0.60828 0.37101 0.0
C290 C 0.97588 0.55788 0.32876 0.0
C291 C 0.9707 0.58651 0.29788 0.0
C292 C 0.96524 0.62652 0.30381 0.0
C293 C 0.96335 0.63699 0.34041 0.0
C294 C 0.98239 0.51505 0.32356 0.0
C295 C 0.95924 0.65779 0.27161 0.0
C296 C 0.99653 0.55959 0.2018 0.0
C297 C 0.96246 0.54506 0.18917 0.0
C298 C 0.99964 0.57377 0.23696 0.0
C299 C 0.96781 0.57381 0.25971 0.0
C300 C 0.93314 0.56023 0.2466 0.0
C301 C 0.93097 0.54574 0.21158 0.0
C302 C 0.03714 0.5875 0.25021 0.0
C303 C 0.89843 0.5604 0.26981 0.0
H304 H 0.97571 0.54695 0.38877 0.0
H305 H 0.95751 0.66724 0.34511 0.0
H306 H 0.95701 0.50154 0.31209 0.0
H307 H 1.00503 0.51294 0.30322 0.0
H308 H 0.98962 0.49746 0.35017 0.0
H309 H 0.95876 0.68805 0.28074 0.0
H310 H 0.98132 0.65711 0.25042 0.0
H311 H 0.93245 0.65156 0.25782 0.0
H312 H 0.02102 0.55859 0.1847 0.0
H313 H 0.9046 0.5349 0.20161 0.0
H314 H 0.04597 0.56737 0.27464 0.0
H315 H 0.03561 0.61759 0.25945 0.0
H316 H 0.05863 0.58806 0.2282 0.0
H317 H 0.9014 0.54027 0.29584 0.0
H318 H 0.87337 0.5508 0.25473 0.0
H319 H 0.89417 0.59056 0.27803 0.0
C320 C 0.28886 0.16346 0.12883 0.0
C321 C 0.26231 0.13778 0.14804 0.0
C322 C 0.32073 0.14911 0.11239 0.0
C323 C 0.32692 0.10778 0.11492 0.0
C324 C 0.30045 0.08168 0.13443 0.0
C325 C 0.26878 0.09683 0.15058 0.0
C326 C 0.34789 0.17837 0.0922 0.0
C327 C 0.30541 0.03748 0.13804 0.0
C328 C 0.39119 0.06712 0.04321 0.0
C329 C 0.42464 0.06163 0.06303 0.0
C330 C 0.35956 0.08207 0.05957 0.0
C331 C 0.36079 0.09192 0.09697 0.0
C332 C 0.39451 0.08649 0.1171 0.0
C333 C 0.42575 0.07159 0.10003 0.0
C334 C 0.3246 0.0872 0.03672 0.0
C335 C 0.39761 0.09626 0.15693 0.0
H336 H 0.28503 0.19513 0.12694 0.0
H337 H 0.24865 0.07628 0.16469 0.0
H338 H 0.37569 0.17531 0.10522 0.0
H339 H 0.35059 0.17199 0.06277 0.0
H340 H 0.33937 0.2095 0.09256 0.0
H341 H 0.28292 0.02101 0.15454 0.0
H342 H 0.306 0.02686 0.10995 0.0
H343 H 0.33234 0.03027 0.15164 0.0
H344 H 0.38961 0.05956 0.01474 0.0
H345 H 0.45113 0.06747 0.11594 0.0
H346 H 0.31636 0.11857 0.03473 0.0
H347 H 0.30161 0.06902 0.05063 0.0
H348 H 0.32792 0.0785 1.00806 0.0
H349 H 0.39165 0.12793 0.15843 0.0
H350 H 0.42554 0.09041 0.16894 0.0
H351 H 0.37673 0.07847 0.17446 0.0
C352 C 0.34447 0.89968 0.56181 0.0
C353 C 0.3746 0.9254 0.56778 0.0
C354 C 0.30873 0.91401 0.55604 0.0
C355 C 0.30298 0.95501 0.55644 0.0
C356 C 0.3337 0.98152 0.55899 0.0
C357 C 0.36924 0.96637 0.56461 0.0
C358 C 0.27674 0.88476 0.55314 0.0
C359 C 0.32871 0.0255 0.55904 0.0
C360 C 0.2063 0.99107 0.53285 0.0
C361 C 0.19052 0.98995 0.56849 0.0
C362 C 0.24325 0.98075 0.52832 0.0
C363 C 0.26474 0.96893 0.5602 0.0
C364 C 0.24915 0.96844 0.59624 0.0
C365 C 0.21226 0.97896 0.59991 0.0
C366 C 0.25905 0.98185 0.48951 0.0
C367 C 0.27117 0.95588 0.63098 0.0
H368 H 0.34819 0.86794 0.56454 0.0
H369 H 0.39253 0.98642 0.56862 0.0
H370 H 0.26094 0.88153 0.57967 0.0
H371 H 0.25744 0.89552 0.53057 0.0
H372 H 0.28625 0.85507 0.54768 0.0
H373 H 0.35537 0.04254 0.55467 0.0
H374 H 0.30886 0.03645 0.53707 0.0
H375 H 0.31713 0.03152 0.58629 0.0
H376 H 0.18982 1.00022 0.50847 0.0
H377 H 0.20012 0.97762 0.62744 0.0
H378 H 0.26566 0.95141 0.48357 0.0
H379 H 0.28532 0.99976 0.48736 0.0
H380 H 0.23954 0.9944 0.4678 0.0
H381 H 0.27929 0.92464 0.63076 0.0
H382 H 0.25532 0.95848 0.65693 0.0
H383 H 0.29702 0.97431 0.63165 0.0
C384 C 0.76399 0.38417 0.92758 0.0
C385 C 0.75826 0.39287 0.8889 0.0
C386 C 0.79621 0.39727 0.9454 0.0
C387 C 0.82297 0.42169 0.92479 0.0
C388 C 0.81697 0.43197 0.88616 0.0
C389 C 0.78534 0.4168 0.86862 0.0
C390 C 0.80179 0.38449 0.98639 0.0
C391 C 0.84399 0.45912 0.86324 0.0
C392 C 0.88798 0.48382 0.98138 0.0
C393 C 0.92134 0.46391 0.98025 0.0
C394 C 0.85613 0.47107 0.96267 0.0
C395 C 0.8571 0.43645 0.94373 0.0
C396 C 0.89064 0.41573 0.94336 0.0
C397 C 0.92255 0.43027 0.9608 0.0
C398 C 0.82168 0.49519 0.96247 0.0
C399 C 0.89272 0.37788 0.92492 0.0
H400 H 0.74325 0.36708 0.9444 0.0
H401 H 0.7823 0.42354 0.83879 0.0
H402 H 0.82909 0.37058 0.99088 0.0
H403 H 0.80185 0.41065 1.00244 0.0
H404 H 0.77985 0.36306 0.99788 0.0
H405 H 0.8338 0.4672 0.83442 0.0
H406 H 0.8492 0.48671 0.87679 0.0
H407 H 0.87092 0.44457 0.8616 0.0
H408 H 0.88719 0.51026 0.99585 0.0
H409 H 0.94837 0.41491 0.95984 0.0
H410 H 0.79868 0.47726 0.97661 0.0
H411 H 0.81275 0.50368 0.9333 0.0
H412 H 0.82605 0.52254 0.97662 0.0
H413 H 0.87099 0.35627 0.93648 0.0
H414 H 0.92016 0.3641 0.92891 0.0
H415 H 0.88738 0.38387 0.89459 0.0
C416 C 0.85424 0.61988 0.48884 0.0
C417 C 0.8804 0.59343 0.47823 0.0
C418 C 0.81698 0.60802 0.49415 0.0
C419 C 0.80552 0.56885 0.48841 0.0
C420 C 0.8323 0.541 0.48129 0.0
C421 C 0.86952 0.5536 0.47641 0.0
C422 C 0.78937 0.63855 0.50228 0.0
C423 C 0.82127 0.49882 0.47551 0.0
C424 C 0.7045 0.54112 0.50977 0.0
C425 C 0.68801 0.55126 0.47489 0.0
C426 C 0.74304 0.54507 0.51453 0.0
C427 C 0.76543 0.55941 0.48364 0.0
C428 C 0.74903 0.5679 0.44805 0.0
C429 C 0.71055 0.56378 0.44417 0.0
C430 C 0.75948 0.53571 0.55288 0.0
C431 C 0.77196 0.58284 0.41424 0.0
H432 H 0.86214 0.65078 0.49009 0.0
H433 H 0.88972 0.53279 0.46895 0.0
H434 H 0.77313 0.64725 0.47668 0.0
H435 H 0.76957 0.62613 0.52417 0.0
H436 H 0.80314 0.66562 0.51148 0.0
H437 H 0.84551 0.47931 0.47712 0.0
H438 H 0.80047 0.48658 0.4965 0.0
H439 H 0.80838 0.49817 0.44756 0.0
H440 H 0.68716 0.53171 0.53369 0.0
H441 H 0.69792 0.57093 0.41709 0.0
H442 H 0.76817 0.56371 0.56427 0.0
H443 H 0.78453 0.51779 0.5515 0.0
H444 H 0.73938 0.51943 0.57254 0.0
H445 H 0.78468 0.61229 0.41822 0.0
H446 H 0.75522 0.58572 0.38821 0.0
H447 H 0.79483 0.56248 0.41066 0.0
C448 C 0.17682 0.27254 0.13165 0.0
C449 C 0.15774 0.23649 0.14238 0.0
C450 C 0.15804 0.30628 0.11581 0.0
C451 C 0.11917 0.30401 0.10949 0.0
C452 C 0.10001 0.26729 0.11933 0.0
C453 C 0.11931 0.23437 0.13596 0.0
C454 C 0.17972 0.34473 0.10668 0.0
C455 C 0.05892 0.26278 0.11243 0.0
C456 C 0.06219 0.3986 0.10205 0.0
C457 C 0.05937 0.40845 0.06329 0.0
C458 C 0.08177 0.36523 0.1173 0.0
C459 C 0.09844 0.34007 0.09343 0.0
C460 C 0.09505 0.34945 0.05426 0.0
C461 C 0.07611 0.3836 0.03975 0.0
C462 C 0.08513 0.35727 0.15913 0.0
C463 C 0.11137 0.32327 0.02754 0.0
H464 H 0.20639 0.27471 0.13676 0.0
H465 H 0.10426 0.20668 0.14385 0.0
H466 H 0.17662 0.3552 0.07669 0.0
H467 H 0.16857 0.36787 0.1228 0.0
H468 H 0.20969 0.34182 0.11312 0.0
H469 H 0.04837 0.23186 0.11964 0.0
H470 H 0.04366 0.28254 0.12925 0.0
H471 H 0.0526 0.27182 0.08266 0.0
H472 H 0.04983 0.41764 0.12064 0.0
H473 H 0.07418 0.39071 1.00981 0.0
H474 H 0.11481 0.35658 0.16726 0.0
H475 H 0.07247 0.32781 0.16868 0.0
H476 H 0.07149 0.38002 0.17395 0.0
H477 H 0.14185 0.32242 0.03128 0.0
H478 H 0.10531 0.33364 0.99797 0.0
H479 H 0.10022 0.29246 0.03362 0.0
C480 C 0.62453 0.29338 0.90942 0.0
C481 C 0.65497 0.2896 0.88626 0.0
C482 C 0.60497 0.25975 0.9262 0.0
C483 C 0.616 0.2214 0.91941 0.0
C484 C 0.64675 0.21758 0.89579 0.0
C485 C 0.66594 0.25177 0.87956 0.0
C486 C 0.57257 0.26526 0.95128 0.0
C487 C 0.6594 0.17736 0.88768 0.0
C488 C 0.58834 0.13364 0.98951 0.0
C489 C 0.55835 0.1162 0.97157 0.0
C490 C 0.60723 0.16777 0.9729 0.0
C491 C 0.5958 0.18531 0.93751 0.0
C492 C 0.56521 0.16822 0.91946 0.0
C493 C 0.54699 0.13383 0.93659 0.0
C494 C 0.63978 0.18478 0.99308 0.0
C495 C 0.55191 0.18613 0.88188 0.0
H496 H 0.61611 0.32277 0.91445 0.0
H497 H 0.68942 0.24901 0.86146 0.0
H498 H 0.54716 0.25106 0.94056 0.0
H499 H 0.5778 0.25053 0.97966 0.0
H500 H 0.56732 0.29702 0.95347 0.0
H501 H 0.68348 0.17943 0.86843 0.0
H502 H 0.66721 0.15977 0.91406 0.0
H503 H 0.63638 0.16086 0.87508 0.0
H504 H 0.59756 0.12021 0.01642 0.0
H505 H 0.52391 0.12064 0.92245 0.0
H506 H 0.63482 0.21604 0.99757 0.0
H507 H 0.66513 0.18474 0.97579 0.0
H508 H 0.64505 0.16785 0.02054 0.0
H509 H 0.54464 0.21745 0.88341 0.0
H510 H 0.52733 0.16981 0.87182 0.0
H511 H 0.57442 0.18612 0.86103 0.0
C512 C 0.01548 0.71398 0.46267 0.0
C513 C 0.97885 0.70068 0.47067 0.0
C514 C 0.02805 0.75199 0.47006 0.0
C515 C 1.00375 0.77687 0.48681 0.0
C516 C 0.9676 0.76275 0.49712 0.0
C517 C 0.95542 0.72523 0.48838 0.0
C518 C 0.0666 0.76626 0.45813 0.0
C519 C 0.94104 0.78807 0.51576 0.0
C520 C 0.03682 0.87039 0.52807 0.0
C521 C 0.02415 0.89962 0.50113 0.0
C522 C 0.03167 0.83001 0.5233 0.0
C523 C 1.0144 0.81895 0.49039 0.0
C524 C 1.00381 0.84857 0.4621 0.0
C525 C 1.00828 0.88856 0.4681 0.0
C526 C 0.04252 0.79934 0.55443 0.0
C527 C 0.98621 0.83805 0.42618 0.0
H528 H 0.03415 0.6951 0.44971 0.0
H529 H 0.92685 0.71604 0.49408 0.0
H530 H 0.06475 0.79014 0.43479 0.0
H531 H 0.08144 0.77906 0.48131 0.0
H532 H 0.08325 0.74214 0.44876 0.0
H533 H 0.91577 0.77102 0.52615 0.0
H534 H 0.95473 0.80097 0.53955 0.0
H535 H 0.93244 0.81304 0.49558 0.0
H536 H 0.04886 0.87903 0.55374 0.0
H537 H 0.99881 0.91126 0.44712 0.0
H538 H 0.0583 0.77557 0.5434 0.0
H539 H 0.01712 0.78525 0.5678 0.0
H540 H 0.05947 0.81246 0.57612 0.0
H541 H 1.0027 0.81568 0.41375 0.0
H542 H 0.98367 0.86434 0.40537 0.0
H543 H 0.9581 0.82478 0.43196 0.0
C544 C 0.49508 0.79703 0.59074 0.0
C545 C 0.45958 0.81175 0.58329 0.0
C546 C 0.50349 0.75821 0.58426 0.0
C547 C 0.47619 0.73399 0.5687 0.0
C548 C 0.44067 0.74886 0.56022 0.0
C549 C 0.43257 0.78716 0.5683 0.0
C550 C 0.54143 0.74295 0.59449 0.0
C551 C 0.41108 0.72426 0.54271 0.0
C552 C 0.50784 0.64754 0.51942 0.0
C553 C 0.49796 0.61529 0.54524 0.0
C554 C 0.50078 0.68639 0.52665 0.0
C555 C 0.48466 0.69307 0.56109 0.0
C556 C 0.47548 0.66057 0.58767 0.0
C557 C 0.48162 0.62189 0.57909 0.0
C558 C 0.50971 0.72014 0.49709 0.0
C559 C 0.45927 0.66668 0.62512 0.0
H560 H 0.51637 0.81575 0.60181 0.0
H561 H 0.4047 0.79743 0.56341 0.0
H562 H 0.53875 0.71549 0.61398 0.0
H563 H 0.55579 0.73519 0.56922 0.0
H564 H 0.55903 0.76497 0.6078 0.0
H565 H 0.38566 0.74112 0.53569 0.0
H566 H 0.42181 0.71356 0.51685 0.0
H567 H 0.40341 0.69777 0.56207 0.0
H568 H 0.52021 0.64228 0.49308 0.0
H569 H 0.47432 0.59685 0.59913 0.0
H570 H 0.52942 0.74169 0.50824 0.0
H571 H 0.48411 0.73619 0.489 0.0
H572 H 0.52194 0.7098 0.4717 0.0
H573 H 0.47734 0.6875 0.63938 0.0
H574 H 0.45595 0.63848 0.64354 0.0
H575 H 0.43177 0.6802 0.6213 0.0
C576 C 0.88586 0.87099 0.76418 0.0
C577 C 0.87113 0.89531 0.78954 0.0
C578 C 0.9036 0.88698 0.73084 0.0
C579 C 0.90715 0.92864 0.72201 0.0
C580 C 0.89188 0.95344 0.74715 0.0
C581 C 0.87403 0.9366 0.7803 0.0
C582 C 0.91883 0.85907 0.70506 0.0
C583 C 0.89496 0.99793 0.73933 0.0
C584 C 0.9848 0.96775 0.6535 0.0
C585 C 0.96569 0.97546 0.61953 0.0
C586 C 0.96615 0.95333 0.68688 0.0
C587 C 0.92719 0.94598 0.6868 0.0
C588 C 0.90772 0.954 0.65265 0.0
C589 C 0.92703 0.96862 0.61972 0.0
C590 C 0.98832 0.94555 0.72232 0.0
C591 C 0.86637 0.94657 0.65075 0.0
H592 H 0.88339 0.8391 0.77032 0.0
H593 H 0.86316 0.95591 0.79952 0.0
H594 H 0.90643 0.86495 0.67689 0.0
H595 H 0.94921 0.86417 0.70204 0.0
H596 H 0.91326 0.82747 0.71533 0.0
H597 H 0.88108 0.01326 0.76099 0.0
H598 H 0.92458 0.00765 0.73795 0.0
H599 H 0.88244 0.00743 0.71182 0.0
H600 H 1.01456 0.97287 0.65405 0.0
H601 H 0.91173 0.97432 0.59388 0.0
H602 H 0.98606 0.91361 0.73258 0.0
H603 H 0.97697 0.96226 0.74438 0.0
H604 H 0.01809 0.95407 0.7183 0.0
H605 H 0.85967 0.91467 0.65851 0.0
H606 H 0.85499 0.95521 0.62249 0.0
H607 H 0.85219 0.96337 0.67107 0.0
C608 C 0.55557 0.05318 0.36365 0.0
C609 C 0.561 0.09384 0.3664 0.0
C610 C 0.55001 0.03888 0.32881 0.0
C611 C 0.55087 0.06591 0.29617 0.0
C612 C 0.55356 0.10716 0.29915 0.0
C613 C 0.55833 0.12065 0.33434 0.0
C614 C 0.54602 0.99477 0.32678 0.0
C615 C 0.55498 0.13697 0.26501 0.0
C616 C 0.59462 0.03576 0.20868 0.0
C617 C 0.56398 0.03364 0.18485 0.0
C618 C 0.59047 0.04494 0.24539 0.0
C619 C 0.55465 0.05132 0.25899 0.0
C620 C 0.52332 0.04693 0.23595 0.0
C621 C 0.52837 0.03853 0.19902 0.0
C622 C 0.62468 0.04955 0.26908 0.0
C623 C 0.48464 0.05272 0.24974 0.0
H624 H 0.55748 0.0325 0.38854 0.0
H625 H 0.56296 0.15207 0.33639 0.0
H626 H 0.52438 0.98792 0.30624 0.0
H627 H 0.57254 0.98349 0.31736 0.0
H628 H 0.53884 0.97864 0.35432 0.0
H629 H 0.55312 0.1679 0.27223 0.0
H630 H 0.58145 0.13437 0.25003 0.0
H631 H 0.53213 0.131 0.24553 0.0
H632 H 0.62209 0.03104 0.19842 0.0
H633 H 0.5044 0.03727 0.18102 0.0
H634 H 0.62224 0.02991 0.29556 0.0
H635 H 0.62742 0.08049 0.2764 0.0
H636 H 0.6504 0.04245 0.25465 0.0
H637 H 0.4804 0.03673 0.2779 0.0
H638 H 0.46309 0.04226 0.23062 0.0
H639 H 0.48066 0.08464 0.2521 0.0
C640 C 0.37477 0.58077 0.2608 0.0
C641 C 0.37096 0.62201 0.25536 0.0
C642 C 0.39196 0.5626 0.29312 0.0
C643 C 0.4053 0.58609 0.321 0.0
C644 C 0.40058 0.6276 0.31605 0.0
C645 C 0.38371 0.64499 0.28336 0.0
C646 C 0.39666 0.51834 0.29702 0.0
C647 C 0.41379 0.65382 0.34515 0.0
C648 C 0.42447 0.5393 0.4201 0.0
C649 C 0.46333 0.53793 0.42059 0.0
C650 C 0.40519 0.55414 0.3878 0.0
C651 C 0.4251 0.56768 0.35488 0.0
C652 C 0.46424 0.56536 0.35493 0.0
C653 C 0.48283 0.55076 0.38772 0.0
C654 C 0.36354 0.55636 0.38923 0.0
C655 C 0.48663 0.57906 0.32048 0.0
H656 H 0.36526 0.56282 0.23923 0.0
H657 H 0.38043 0.67679 0.27968 0.0
H658 H 0.42659 0.51179 0.29813 0.0
H659 H 0.38413 0.50478 0.32352 0.0
H660 H 0.38378 0.50406 0.27354 0.0
H661 H 0.40674 0.68531 0.33786 0.0
H662 H 0.40127 0.64335 0.37259 0.0
H663 H 0.44429 0.65217 0.34839 0.0
H664 H 0.40905 0.52961 0.4453 0.0
H665 H 0.51281 0.54979 0.38765 0.0
H666 H 0.3507 0.54086 0.36654 0.0
H667 H 0.35546 0.58778 0.38474 0.0
H668 H 0.35197 0.54306 0.41633 0.0
H669 H 0.47621 0.56397 0.29644 0.0
H670 H 0.51658 0.57319 0.32432 0.0
H671 H 0.48349 0.61135 0.31323 0.0
C672 C 0.09345 0.42222 0.70328 0.0
C673 C 0.06402 0.42234 0.67776 0.0
C674 C 0.08871 0.43409 0.73884 0.0
C675 C 0.05348 0.44611 0.74942 0.0
C676 C 0.02315 0.44485 0.7244 0.0
C677 C 0.02877 0.43281 0.68867 0.0
C678 C 0.12176 0.43477 0.7647 0.0
C679 C 0.98516 0.45718 0.73502 0.0
C680 C 0.04617 0.45019 0.85365 0.0
C681 C 0.05617 0.48998 0.8568 0.0
C682 C 0.04269 0.43588 0.8186 0.0
C683 C 0.0496 0.46197 0.78601 0.0
C684 C 0.05807 0.50251 0.78894 0.0
C685 C 0.0612 0.51601 0.82429 0.0
C686 C 0.03354 0.39245 0.81655 0.0
C687 C 0.06568 0.53127 0.75481 0.0
H688 H 0.12052 0.41302 0.69523 0.0
H689 H 1.00598 0.43252 0.66902 0.0
H690 H 0.12807 0.46559 0.77101 0.0
H691 H 0.11548 0.41684 0.79154 0.0
H692 H 0.14692 0.42312 0.75255 0.0
H693 H 0.96393 0.45136 0.71369 0.0
H694 H 0.97661 0.44121 0.76218 0.0
H695 H 0.9859 0.4893 0.73845 0.0
H696 H 0.04228 0.42989 0.87862 0.0
H697 H 0.0679 0.547 0.82643 0.0
H698 H 0.05863 0.37746 0.80824 0.0
H699 H 1.01198 0.38855 0.7951 0.0
H700 H 0.02368 0.3775 0.84374 0.0
H701 H 0.09195 0.52379 0.74168 0.0
H702 H 0.06811 0.56244 0.76161 0.0
H703 H 0.04332 0.52895 0.73388 0.0
C704 C 0.74261 0.86315 0.90796 0.0
C705 C 0.76942 0.88922 0.88965 0.0
C706 C 0.71024 0.87701 0.9238 0.0
C707 C 0.70371 0.91824 0.92147 0.0
C708 C 0.7303 0.94474 0.9026 0.0
C709 C 0.76254 0.93007 0.88708 0.0
C710 C 0.68299 0.84734 0.9433 0.0
C711 C 0.7249 0.98887 0.89917 0.0
C712 C 0.6042 0.95276 0.93573 0.0
C713 C 0.60477 0.96219 0.97289 0.0
C714 C 0.63587 0.93861 0.91877 0.0
C715 C 0.66947 0.93352 0.93917 0.0
C716 C 0.67014 0.94283 0.97674 0.0
C717 C 0.63809 0.95698 0.99299 0.0
C718 C 0.63337 0.92932 0.87877 0.0
C719 C 0.70492 0.93792 0.9999 0.0
H720 H 0.74671 0.83153 0.90975 0.0
H721 H 0.78282 0.95088 0.87357 0.0
H722 H 0.67991 0.85323 0.97283 0.0
H723 H 0.65531 0.85043 0.93001 0.0
H724 H 0.6917 0.81631 0.94263 0.0
H725 H 0.74737 1.00565 0.8829 0.0
H726 H 0.698 0.99587 0.88543 0.0
H727 H 0.724 0.99929 0.92733 0.0
H728 H 0.57892 0.9567 0.91961 0.0
H729 H 0.63926 0.96416 0.02159 0.0
H730 H 0.64071 0.89811 0.87678 0.0
H731 H 0.65357 0.94837 0.86149 0.0
H732 H 0.60523 0.93398 0.86683 0.0
H733 H 0.71351 0.90668 1.0017 0.0
H734 H 0.70118 0.94628 0.02863 0.0
H735 H 0.72786 0.95651 0.98635 0.0
C736 C 0.69329 0.1051 0.42437 0.0
C737 C 0.66643 0.09916 0.45238 0.0
C738 C 0.72977 0.09377 0.43126 0.0
C739 C 0.73936 0.07545 0.46692 0.0
C740 C 0.71235 0.06984 0.49554 0.0
C741 C 0.67605 0.0822 0.48798 0.0
C742 C 0.75787 0.10084 0.40016 0.0
C743 C 0.72157 0.04991 0.53368 0.0
C744 C 0.82299 0.01194 0.46251 0.0
C745 C 0.85144 0.03742 0.47312 0.0
C746 C 0.78595 0.02297 0.46275 0.0
C747 C 0.77735 0.06072 0.47318 0.0
C748 C 0.80587 0.08595 0.48537 0.0
C749 C 0.84266 0.07379 0.48549 0.0
C750 C 0.75623 0.99496 0.4502 0.0
C751 C 0.79783 0.12665 0.49613 0.0
H752 H 0.6856 0.11866 0.39696 0.0
H753 H 0.655 0.07781 0.5095 0.0
H754 H 0.78242 0.1176 0.40958 0.0
H755 H 0.76758 0.07206 0.39249 0.0
H756 H 0.74635 0.11756 0.37482 0.0
H757 H 0.69789 0.04943 0.55331 0.0
H758 H 0.72955 0.01895 0.5313 0.0
H759 H 0.74565 0.06531 0.54565 0.0
H760 H 0.82986 0.98351 0.45362 0.0
H761 H 0.86478 0.09347 0.49357 0.0
H762 H 0.745 0.00714 0.42284 0.0
H763 H 0.7329 0.99186 0.47032 0.0
H764 H 0.76693 0.96509 0.44726 0.0
H765 H 0.78936 0.14592 0.47098 0.0
H766 H 0.82234 0.14081 0.50872 0.0
H767 H 0.77451 0.12506 0.5162 0.0
C768 C 0.24453 0.65898 0.14029 0.0
C769 C 0.27076 0.63212 0.15563 0.0
C770 C 0.21167 0.6459 0.12356 0.0
C771 C 0.20441 0.60482 0.12216 0.0
C772 C 0.23043 0.57747 0.13807 0.0
C773 C 0.26319 0.59139 0.15452 0.0
C774 C 0.18478 0.67617 0.10715 0.0
C775 C 0.22384 0.53342 0.13737 0.0
C776 C 0.10447 0.56881 0.10766 0.0
C777 C 0.10397 0.56312 0.06956 0.0
C778 C 0.13682 0.58226 0.12506 0.0
C779 C 0.16968 0.59054 0.10396 0.0
C780 C 0.16927 0.58529 0.06541 0.0
C781 C 0.13655 0.57161 0.04874 0.0
C782 C 0.13585 0.58733 0.16617 0.0
C783 C 0.20352 0.59392 0.04176 0.0
H784 H 0.24958 0.69046 0.14151 0.0
H785 H 0.28328 0.5703 0.16585 0.0
H786 H 0.18076 0.67324 0.077 0.0
H787 H 0.15735 0.67079 0.12078 0.0
H788 H 0.19441 0.70702 0.11044 0.0
H789 H 0.24628 0.51595 0.15158 0.0
H790 H 0.19712 0.52404 0.15114 0.0
H791 H 0.2218 0.52617 0.10809 0.0
H792 H 0.07959 0.56229 0.12415 0.0
H793 H 0.1366 0.5673 0.01935 0.0
H794 H 0.14257 0.61863 0.17054 0.0
H795 H 0.15713 0.56891 0.18119 0.0
H796 H 0.10837 0.57891 0.17881 0.0
H797 H 0.21305 0.62518 0.0428 0.0
H798 H 0.19867 0.58873 1.01217 0.0
H799 H 0.22629 0.57493 0.05299 0.0
C800 C 0.18374 0.42421 0.60771 0.0
C801 C 0.15694 0.41938 0.58008 0.0
C802 C 0.22088 0.43252 0.59858 0.0
C803 C 0.23194 0.43544 0.56078 0.0
C804 C 0.20518 0.43077 0.53255 0.0
C805 C 0.16785 0.42269 0.54256 0.0
C806 C 0.24849 0.43703 0.62966 0.0
C807 C 0.21612 0.4335 0.492 0.0
C808 C 0.32772 0.48327 0.54846 0.0
C809 C 0.34976 0.44993 0.55404 0.0
C810 C 0.2889 0.47909 0.5475 0.0
C811 C 0.27203 0.44065 0.55193 0.0
C812 C 0.29437 0.40695 0.55452 0.0
C813 C 0.33296 0.41203 0.55571 0.0
C814 C 0.26602 0.51574 0.54469 0.0
C815 C 0.27756 0.36544 0.55889 0.0
H816 H 0.17583 0.42051 0.63687 0.0
H817 H 0.14726 0.4189 0.52114 0.0
H818 H 0.26859 0.41285 0.63078 0.0
H819 H 0.26442 0.4655 0.62433 0.0
H820 H 0.23496 0.43616 0.65737 0.0
H821 H 0.19169 0.4322 0.47327 0.0
H822 H 0.23216 0.46148 0.4841 0.0
H823 H 0.23435 0.40874 0.48739 0.0
H824 H 0.34074 0.51258 0.54696 0.0
H825 H 0.35006 0.38622 0.55896 0.0
H826 H 0.25433 0.51945 0.5725 0.0
H827 H 0.24242 0.51288 0.52523 0.0
H828 H 0.28277 0.54285 0.53512 0.0
H829 H 0.26568 0.35905 0.58729 0.0
H830 H 0.29837 0.34278 0.55495 0.0
H831 H 0.25469 0.36249 0.53863 0.0
C832 C 0.91206 0.79219 0.90764 0.0
C833 C 0.87381 0.79087 0.90018 0.0
C834 C 0.93017 0.75918 0.92573 0.0
C835 C 0.90994 0.72324 0.93608 0.0
C836 C 0.87125 0.7218 0.92874 0.0
C837 C 0.85367 0.75559 0.91137 0.0
C838 C 0.97116 0.76275 0.93357 0.0
C839 C 0.8485 0.68414 0.93838 0.0
C840 C 0.96427 0.62706 0.9464 0.0
C841 C 0.96646 0.61798 0.98531 0.0
C842 C 0.94575 0.66069 0.93022 0.0
C843 C 0.92946 0.68689 0.95327 0.0
C844 C 0.93206 0.67824 0.9926 0.0
C845 C 0.95003 0.64381 1.00807 0.0
C846 C 0.94321 0.66787 0.88827 0.0
C847 C 0.91598 0.70553 0.01843 0.0
H848 H 0.92789 0.81932 0.89948 0.0
H849 H 0.82422 0.75403 0.90551 0.0
H850 H 0.97663 0.75429 0.96361 0.0
H851 H 0.98631 0.74206 0.91765 0.0
H852 H 0.98256 0.79326 0.92592 0.0
H853 H 0.81873 0.68778 0.93136 0.0
H854 H 0.85925 0.66017 0.92303 0.0
H855 H 0.85093 0.67433 0.96858 0.0
H856 H 0.97643 0.6073 0.92837 0.0
H857 H 0.95149 0.63729 0.03811 0.0
H858 H 0.95681 0.69677 0.87842 0.0
H859 H 0.91372 0.66936 0.87957 0.0
H860 H 0.95642 0.64431 0.87416 0.0
H861 H 0.9281 0.73591 1.01212 0.0
H862 H 0.92116 0.69548 0.04825 0.0
H863 H 0.88564 0.70736 0.01395 0.0
C864 C 0.35893 0.76599 0.14048 0.0
C865 C 0.3781 0.73107 0.15015 0.0
C866 C 0.37729 0.8004 0.12365 0.0
C867 C 0.41565 0.79975 0.11557 0.0
C868 C 0.435 0.76434 0.12477 0.0
C869 C 0.41609 0.73061 0.14225 0.0
C870 C 0.35571 0.83763 0.11498 0.0
C871 C 0.47568 0.76205 0.11603 0.0
C872 C 0.45425 0.87946 0.04223 0.0
C873 C 0.47173 0.9063 0.06431 0.0
C874 C 0.43655 0.84438 0.05846 0.0
C875 C 0.43557 0.8362 0.09782 0.0
C876 C 0.45322 0.86319 0.12024 0.0
C877 C 0.47136 0.89764 0.10324 0.0
C878 C 0.41875 0.81612 0.03347 0.0
C879 C 0.45232 0.85607 0.16228 0.0
H880 H 0.32965 0.76661 0.14684 0.0
H881 H 0.43096 0.70359 0.14935 0.0
H882 H 0.36829 0.86191 0.12972 0.0
H883 H 0.35698 0.84736 0.08467 0.0
H884 H 0.32616 0.83342 0.12334 0.0
H885 H 0.48646 0.73204 0.12396 0.0
H886 H 0.48044 0.77003 0.08576 0.0
H887 H 0.49191 0.78371 0.13107 0.0
H888 H 0.45447 0.88584 1.01213 0.0
H889 H 0.4845 0.91834 0.12057 0.0
H890 H 0.38849 0.81343 0.03878 0.0
H891 H 0.43008 0.78615 0.03981 0.0
H892 H 0.42325 0.8259 1.00342 0.0
H893 H 0.42318 0.85417 0.17211 0.0
H894 H 0.46728 0.87991 0.17576 0.0
H895 H 0.46498 0.82738 0.1717 0.0
C896 C 0.0343 0.29577 0.61065 0.0
C897 C 0.04721 0.32549 0.58337 0.0
C898 C 0.0231 0.25817 0.60119 0.0
C899 C 0.02555 0.24973 0.56367 0.0
C900 C 0.03626 0.28021 0.53566 0.0
C901 C 0.04674 0.31782 0.54583 0.0
C902 C 1.01144 0.22661 0.63187 0.0
C903 C 0.03937 0.27236 0.49534 0.0
C904 C 0.05237 0.14489 0.55189 0.0
C905 C 0.01868 0.12736 0.54165 0.0
C906 C 0.05492 0.18482 0.55829 0.0
C907 C 0.02285 0.20788 0.55491 0.0
C908 C 0.98868 0.19053 0.54447 0.0
C909 C 0.98704 0.15041 0.53768 0.0
C910 C 0.09202 0.20224 0.56897 0.0
C911 C 0.95387 0.21414 0.5411 0.0
H912 H 0.03497 0.30094 0.63981 0.0
H913 H 0.056 0.34079 0.52449 0.0
H914 H 0.98663 0.20963 0.62339 0.0
H915 H 0.03408 0.20539 0.63737 0.0
H916 H 1.0052 0.23935 0.65825 0.0
H917 H 0.04277 0.3002 0.47642 0.0
H918 H 0.06375 0.25391 0.49197 0.0
H919 H 1.01455 0.2556 0.48656 0.0
H920 H 0.07705 0.1274 0.55467 0.0
H921 H 0.96093 0.13698 0.52979 0.0
H922 H 0.09037 0.2123 0.59723 0.0
H923 H 0.0996 0.22854 0.5493 0.0
H924 H 0.11454 0.18066 0.56895 0.0
H925 H 0.94703 0.22415 0.56855 0.0
H926 H 0.92981 0.1967 0.53145 0.0
H927 H 0.95829 0.24109 0.5213 0.0
C928 C 0.55953 0.22938 0.42248 0.0
C929 C 0.57067 0.20085 0.45099 0.0
C930 C 0.55205 0.26803 0.42995 0.0
C931 C 0.5563 0.27859 0.4667 0.0
C932 C 0.56705 0.24991 0.49573 0.0
C933 C 0.57395 0.21128 0.48754 0.0
C934 C 0.54036 0.29778 0.39833 0.0
C935 C 0.57194 0.26024 0.53526 0.0
C936 C 0.57285 0.38756 0.47834 0.0
C937 C 0.53769 0.39834 0.48926 0.0
C938 C 0.57939 0.34852 0.47116 0.0
C939 C 0.54993 0.31986 0.47462 0.0
C940 C 0.5143 0.3307 0.48521 0.0
C941 C 0.50864 0.36978 0.49259 0.0
C942 C 0.61784 0.33786 0.46017 0.0
C943 C 0.48213 0.30104 0.48869 0.0
H944 H 0.55775 0.2219 0.394 0.0
H945 H 0.5823 0.1893 0.50971 0.0
H946 H 0.51391 0.31109 0.40532 0.0
H947 H 0.56149 0.32224 0.39411 0.0
H948 H 0.53669 0.28431 0.37168 0.0
H949 H 0.58003 0.23437 0.55469 0.0
H950 H 0.59357 0.28406 0.53613 0.0
H951 H 0.54582 0.27175 0.54539 0.0
H952 H 0.59542 0.40947 0.47595 0.0
H953 H 0.48134 0.37797 0.50092 0.0
H954 H 0.61706 0.32654 0.43237 0.0
H955 H 0.62824 0.31381 0.48035 0.0
H956 H 0.63778 0.36353 0.45914 0.0
H957 H 0.47739 0.28862 0.4617 0.0
H958 H 0.4561 0.31435 0.49703 0.0
H959 H 0.48861 0.27595 0.50968 0.0
loop_
_geom_bond_atom_site_label_1
_geom_bond_atom_site_label_2
_geom_bond_distance
_geom_bond_site_symmetry_2
_ccdc_geom_bond_type
H0 C3 0.931 . S
H1 C6 0.928 . S
H2 C8 0.930 . S
C3 H0 0.931 . S
C3 C4 1.413 . S
C3 C5 1.360 . S
C4 C3 1.413 . S
C4 C8 1.429 . S
C5 C3 1.360 . S
C5 C6 1.372 . S
C6 H1 0.928 . S
C6 C5 1.372 . S
C6 C7 1.404 . S
C7 C6 1.404 . S
C7 C8 1.391 . S
C8 H2 0.930 . S
C8 C4 1.429 . S
C8 C7 1.391 . S
H9 C12 0.931 . S
H10 C15 0.928 . S
H11 C17 0.930 . S
C12 H9 0.931 . S
C12 C13 1.413 . S
C12 C14 1.360 . S
C13 C12 1.413 . S
C13 C17 1.429 . S
C14 C12 1.360 . S
C14 C15 1.372 . S
C15 H10 0.928 . S
C15 C14 1.372 . S
C15 C16 1.404 . S
C16 C15 1.404 . S
C16 C17 1.391 . S
C17 H11 0.930 . S
C17 C13 1.429 . S
C17 C16 1.391 . S
H18 C21 0.931 . S
H19 C24 0.928 . S
H20 C26 0.930 . S
C21 H18 0.931 . S
C21 C22 1.413 . S
C21 C23 1.360 . S
C22 C21 1.413 . S
C22 C26 1.429 . S
C23 C21 1.360 . S
C23 C24 1.372 . S
C24 H19 0.928 . S
C24 C23 1.372 . S
C24 C25 1.404 . S
C25 C24 1.404 . S
C25 C26 1.391 . S
C26 H20 0.930 . S
C26 C22 1.429 . S
C26 C25 1.391 . S
H27 C30 0.931 . S
H28 C33 0.928 . S
H29 C35 0.930 . S
C30 H27 0.931 . S
C30 C31 1.413 . S
C30 C32 1.360 . S
C31 C30 1.413 . S
C31 C35 1.429 . S
C32 C30 1.360 . S
C32 C33 1.372 . S
C33 H28 0.928 . S
C33 C32 1.372 . S
C33 C34 1.404 . S
C34 C33 1.404 . S
C34 C35 1.391 . S
C35 H29 0.930 . S
C35 C31 1.429 . S
C35 C34 1.391 . S
H36 C39 0.931 . S
H37 C42 0.928 . S
H38 C44 0.930 . S
C39 H36 0.931 . S
C39 C40 1.413 . S
C39 C41 1.360 . S
C40 C39 1.413 . S
C40 C44 1.429 . S
C41 C39 1.360 . S
C41 C42 1.372 . S
C42 H37 0.928 . S
C42 C41 1.372 . S
C42 C43 1.404 . S
C43 C42 1.404 . S
C43 C44 1.391 . S
C44 H38 0.930 . S
C44 C40 1.429 . S
C44 C43 1.391 . S
H45 C48 0.931 . S
H46 C51 0.928 . S
H47 C53 0.930 . S
C48 H45 0.931 . S
C48 C49 1.413 . S
C48 C50 1.360 . S
C49 C48 1.413 . S
C49 C53 1.429 . S
C50 C48 1.360 . S
C50 C51 1.372 . S
C51 H46 0.928 . S
C51 C50 1.372 . S
C51 C52 1.404 . S
C52 C51 1.404 . S
C52 C53 1.391 . S
C53 H47 0.930 . S
C53 C49 1.429 . S
C53 C52 1.391 . S
H54 C57 0.931 . S
H55 C60 0.928 . S
H56 C62 0.930 . S
C57 H54 0.931 . S
C57 C58 1.413 . S
C57 C59 1.360 . S
C58 C57 1.413 . S
C58 C62 1.429 . S
C59 C57 1.360 . S
C59 C60 1.372 . S
C60 H55 0.928 . S
C60 C59 1.372 . S
C60 C61 1.404 . S
C61 C60 1.404 . S
C61 C62 1.391 . S
C62 H56 0.930 . S
C62 C58 1.429 . S
C62 C61 1.391 . S
H63 C66 0.931 . S
H64 C69 0.928 . S
H65 C71 0.930 . S
C66 H63 0.931 . S
C66 C67 1.413 . S
C66 C68 1.360 . S
C67 C66 1.413 . S
C67 C71 1.429 . S
C68 C66 1.360 . S
C68 C69 1.372 . S
C69 H64 0.928 . S
C69 C68 1.372 . S
C69 C70 1.404 . S
C70 C69 1.404 . S
C70 C71 1.391 . S
C71 H65 0.930 . S
C71 C67 1.429 . S
C71 C70 1.391 . S
Co72 N77 2.057 . S
Co72 O89 2.021 . S
Co72 O92 2.062 . S
Co72 O96 2.117 1_545 S
Co72 O97 2.020 1_545 S
C73 O93 1.259 1_655 S
C73 O96 1.258 . S
Co74 N83 2.057 . S
Co74 O90 2.117 1_565 S
Co74 O91 2.020 1_565 S
Co74 O93 2.021 . S
Co74 O98 2.062 . S
C75 N77 1.316 . S
C75 N78 1.347 . S
C75 H80 0.931 . S
C76 N77 1.375 1_565 S
C76 C79 1.350 1_565 S
C76 H81 0.930 . S
N77 Co72 2.057 . S
N77 C75 1.316 . S
N77 C76 1.375 1_545 S
N78 C75 1.347 . S
N78 C79 1.373 . S
C79 C76 1.350 1_545 S
C79 N78 1.373 . S
C79 H100 0.931 . S
H80 C75 0.931 . S
H81 C76 0.930 . S
C82 O89 1.259 1_455 S
C82 O90 1.258 . S
N83 Co74 2.057 . S
N83 C84 1.316 . S
N83 C85 1.375 1_565 S
C84 N83 1.316 . S
C84 N86 1.347 . S
C84 H95 0.931 . S
C85 N83 1.375 1_545 S
C85 C87 1.350 1_545 S
C85 H94 0.930 . S
N86 C84 1.347 . S
N86 C87 1.373 . S
C87 C85 1.350 1_565 S
C87 N86 1.373 . S
C87 H101 0.931 1_565 S
C88 O91 1.256 . S
C88 O92 1.255 1_455 S
O89 Co72 2.021 . S
O89 C82 1.259 1_655 S
O90 Co74 2.117 1_545 S
O90 C82 1.258 . S
O91 Co74 2.020 1_545 S
O91 C88 1.256 . S
O92 Co72 2.062 . S
O92 C88 1.255 1_655 S
O93 C73 1.259 1_455 S
O93 Co74 2.021 . S
H94 C85 0.930 . S
H95 C84 0.931 . S
O96 Co72 2.117 1_565 S
O96 C73 1.258 . S
O97 Co72 2.020 1_565 S
O97 C99 1.256 . S
O98 Co74 2.062 . S
O98 C99 1.255 1_455 S
C99 O97 1.256 . S
C99 O98 1.255 1_655 S
H100 C79 0.931 . S
H101 C87 0.931 1_545 S
Co102 N107 2.071 . S
Co102 O119 1.996 1_565 S
Co102 O122 2.070 . S
Co102 O126 2.139 1_556 S
Co102 O127 2.009 1_565 S
C103 O123 1.259 . S
C103 O126 1.258 . S
Co104 N113 2.057 . S
Co104 O120 2.117 . S
Co104 O121 2.020 1_545 S
Co104 O123 2.021 1_545 S
Co104 O128 2.062 . S
C105 N107 1.316 . S
C105 N108 1.347 . S
C105 H110 0.931 1_565 S
C106 N107 1.375 . S
C106 C109 1.350 . S
C106 H111 0.930 . S
N107 Co102 2.071 . S
N107 C105 1.316 . S
N107 C106 1.375 . S
N108 C105 1.347 . S
N108 C109 1.373 . S
C109 C106 1.350 . S
C109 N108 1.373 . S
C109 H130 0.931 . S
H110 C105 0.931 1_545 S
H111 C106 0.930 . S
C112 O119 1.259 . S
C112 O120 1.258 1_556 S
N113 Co104 2.057 . S
N113 C114 1.316 . S
N113 C115 1.375 . S
C114 N113 1.316 . S
C114 N116 1.347 . S
C114 H125 0.907 1_545 S
C115 N113 1.375 . S
C115 C117 1.350 . S
C115 H124 0.930 . S
N116 C114 1.347 . S
N116 C117 1.373 . S
C117 C115 1.350 . S
C117 N116 1.373 . S
C117 H131 0.931 . S
C118 O121 1.256 1_556 S
C118 O122 1.255 . S
O119 Co102 1.996 1_545 S
O119 C112 1.259 . S
O120 Co104 2.117 . S
O120 C112 1.258 1_554 S
O121 Co104 2.020 1_565 S
O121 C118 1.256 1_554 S
O122 Co102 2.070 . S
O122 C118 1.255 . S
O123 C103 1.259 . S
O123 Co104 2.021 1_565 S
H124 C115 0.930 . S
H125 C114 0.907 1_565 S
O126 Co102 2.139 1_554 S
O126 C103 1.258 . S
O127 Co102 2.009 1_545 S
O127 C129 1.256 1_556 S
O128 Co104 2.062 . S
O128 C129 1.255 . S
C129 O127 1.256 1_554 S
C129 O128 1.255 . S
H130 C109 0.931 . S
H131 C117 0.931 . S
Co132 N137 2.057 . S
Co132 O149 2.021 . S
Co132 O152 2.062 . S
Co132 O156 2.117 . S
Co132 O157 2.020 . S
C133 O153 1.259 . S
C133 O156 1.258 . S
Co134 N143 2.057 . S
Co134 O150 2.117 . S
Co134 O151 2.020 . S
Co134 O153 2.021 . S
Co134 O158 2.062 . S
C135 N137 1.316 . S
C135 N138 1.347 . S
C135 H140 0.931 . S
C136 N137 1.375 . S
C136 C139 1.350 . S
C136 H141 0.930 . S
N137 Co132 2.057 . S
N137 C135 1.316 . S
N137 C136 1.375 . S
N138 C135 1.347 . S
N138 C139 1.373 . S
C139 C136 1.350 . S
C139 N138 1.373 . S
C139 H160 0.931 . S
H140 C135 0.931 . S
H141 C136 0.930 . S
C142 O149 1.259 . S
C142 O150 1.258 . S
N143 Co134 2.057 . S
N143 C144 1.316 . S
N143 C145 1.375 . S
C144 N143 1.316 . S
C144 N146 1.347 . S
C144 H155 0.931 . S
C145 N143 1.375 . S
C145 C147 1.350 . S
C145 H154 0.930 . S
N146 C144 1.347 . S
N146 C147 1.373 . S
C147 C145 1.350 . S
C147 N146 1.373 . S
C147 H161 0.931 . S
C148 O151 1.256 . S
C148 O152 1.255 . S
O149 Co132 2.021 . S
O149 C142 1.259 . S
O150 Co134 2.117 . S
O150 C142 1.258 . S
O151 Co134 2.020 . S
O151 C148 1.256 . S
O152 Co132 2.062 . S
O152 C148 1.255 . S
O153 C133 1.259 . S
O153 Co134 2.021 . S
H154 C145 0.930 . S
H155 C144 0.931 . S
O156 Co132 2.117 . S
O156 C133 1.258 . S
O157 Co132 2.020 . S
O157 C159 1.256 . S
O158 Co134 2.062 . S
O158 C159 1.255 . S
C159 O157 1.256 . S
C159 O158 1.255 . S
H160 C139 0.931 . S
H161 C147 0.931 . S
Co162 N167 2.057 . S
Co162 O179 2.021 . S
Co162 O182 2.062 . S
Co162 O186 2.117 1_455 S
Co162 O187 2.020 1_455 S
C163 O183 1.259 1_556 S
C163 O186 1.258 . S
Co164 N173 2.057 . S
Co164 O180 2.117 1_655 S
Co164 O181 2.020 1_655 S
Co164 O183 2.021 . S
Co164 O188 2.062 . S
C165 N167 1.316 . S
C165 N168 1.347 . S
C165 H170 0.931 . S
C166 N167 1.375 1_655 S
C166 C169 1.350 1_655 S
C166 H171 0.930 . S
N167 Co162 2.057 . S
N167 C165 1.316 . S
N167 C166 1.375 1_455 S
N168 C165 1.347 . S
N168 C169 1.373 . S
C169 C166 1.350 1_455 S
C169 N168 1.373 . S
C169 H190 0.931 1_455 S
H170 C165 0.931 . S
H171 C166 0.930 . S
C172 O179 1.259 1_554 S
C172 O180 1.258 . S
N173 Co164 2.057 . S
N173 C174 1.316 . S
N173 C175 1.375 1_655 S
C174 N173 1.316 . S
C174 N176 1.347 . S
C174 H185 0.931 . S
C175 N173 1.375 1_455 S
C175 C177 1.350 1_455 S
C175 H184 0.930 . S
N176 C174 1.347 . S
N176 C177 1.373 . S
C177 C175 1.350 1_655 S
C177 N176 1.373 . S
C177 H191 0.931 1_655 S
C178 O181 1.256 . S
C178 O182 1.255 1_554 S
O179 Co162 2.021 . S
O179 C172 1.259 1_556 S
O180 Co164 2.117 1_455 S
O180 C172 1.258 . S
O181 Co164 2.020 1_455 S
O181 C178 1.256 . S
O182 Co162 2.062 . S
O182 C178 1.255 1_556 S
O183 C163 1.259 1_554 S
O183 Co164 2.021 . S
H184 C175 0.930 . S
H185 C174 0.931 . S
O186 Co162 2.117 1_655 S
O186 C163 1.258 . S
O187 Co162 2.020 1_655 S
O187 C189 1.256 . S
O188 Co164 2.062 . S
O188 C189 1.255 1_554 S
C189 O187 1.256 . S
C189 O188 1.255 1_556 S
H190 C169 0.931 1_655 S
H191 C177 0.931 1_455 S
C192 C193 1.391 . S
C192 C194 1.394 . S
C192 H208 0.931 . S
C193 C192 1.391 . S
C193 C197 1.376 . S
C194 C192 1.394 . S
C194 C195 1.369 . S
C194 C198 1.531 . S
C195 C194 1.369 . S
C195 C196 1.410 . S
C195 C203 1.503 . S
C196 C195 1.410 . S
C196 C197 1.392 . S
C196 C199 1.511 . S
C197 C193 1.376 . S
C197 C196 1.392 . S
C197 H209 0.929 . S
C198 C194 1.531 . S
C198 H210 0.960 . S
C198 H211 0.962 1_545 S
C198 H212 0.960 1_545 S
C199 C196 1.511 . S
C199 H213 0.961 . S
C199 H214 0.961 . S
C199 H215 0.961 . S
C200 C201 1.370 . S
C200 C202 1.363 . S
C200 H216 0.931 1_455 S
C201 C200 1.370 . S
C201 C205 1.408 . S
C202 C200 1.363 . S
C202 C203 1.370 . S
C202 C206 1.524 . S
C203 C195 1.503 . S
C203 C202 1.370 . S
C203 C204 1.403 . S
C204 C203 1.403 . S
C204 C205 1.404 . S
C204 C207 1.539 . S
C205 C201 1.408 . S
C205 C204 1.404 . S
C205 H217 0.930 . S
C206 C202 1.524 . S
C206 H218 0.956 . S
C206 H219 0.961 . S
C206 H220 0.961 1_455 S
C207 C204 1.539 . S
C207 H221 0.958 . S
C207 H222 0.961 . S
C207 H223 0.960 . S
H208 C192 0.931 . S
H209 C197 0.929 . S
H210 C198 0.960 . S
H211 C198 0.962 1_565 S
H212 C198 0.960 1_565 S
H213 C199 0.961 . S
H214 C199 0.961 . S
H215 C199 0.961 . S
H216 C200 0.931 1_655 S
H217 C205 0.930 . S
H218 C206 0.956 . S
H219 C206 0.961 . S
H220 C206 0.961 1_655 S
H221 C207 0.958 . S
H222 C207 0.961 . S
H223 C207 0.960 . S
C224 C225 1.391 . S
C224 C226 1.394 . S
C224 H240 0.931 . S
C225 C224 1.391 . S
C225 C229 1.376 . S
C226 C224 1.394 . S
C226 C227 1.369 . S
C226 C230 1.531 . S
C227 C226 1.369 . S
C227 C228 1.410 . S
C227 C235 1.503 . S
C228 C227 1.410 . S
C228 C229 1.392 . S
C228 C231 1.511 . S
C229 C225 1.376 . S
C229 C228 1.392 . S
C229 H241 0.929 . S
C230 C226 1.531 . S
C230 H242 0.960 . S
C230 H243 0.962 . S
C230 H244 0.960 . S
C231 C228 1.511 . S
C231 H245 0.961 . S
C231 H246 0.961 . S
C231 H247 0.961 . S
C232 C233 1.370 . S
C232 C234 1.363 . S
C232 H248 0.931 . S
C233 C232 1.370 . S
C233 C237 1.408 . S
C234 C232 1.363 . S
C234 C235 1.370 . S
C234 C238 1.524 . S
C235 C227 1.503 . S
C235 C234 1.370 . S
C235 C236 1.403 . S
C236 C235 1.403 . S
C236 C237 1.404 . S
C236 C239 1.539 . S
C237 C233 1.408 . S
C237 C236 1.404 . S
C237 H249 0.930 1_565 S
C238 C234 1.524 . S
C238 H250 0.956 . S
C238 H251 0.961 . S
C238 H252 0.961 . S
C239 C236 1.539 . S
C239 H253 0.958 1_565 S
C239 H254 0.961 1_565 S
C239 H255 0.960 . S
H240 C224 0.931 . S
H241 C229 0.929 . S
H242 C230 0.960 . S
H243 C230 0.962 . S
H244 C230 0.960 . S
H245 C231 0.961 . S
H246 C231 0.961 . S
H247 C231 0.961 . S
H248 C232 0.931 . S
H249 C237 0.930 1_545 S
H250 C238 0.956 . S
H251 C238 0.961 . S
H252 C238 0.961 . S
H253 C239 0.958 1_545 S
H254 C239 0.961 1_545 S
H255 C239 0.960 . S
C256 C257 1.391 . S
C256 C258 1.394 . S
C256 H272 0.931 . S
C257 C256 1.391 . S
C257 C261 1.376 . S
C258 C256 1.394 . S
C258 C259 1.369 . S
C258 C262 1.531 . S
C259 C258 1.369 . S
C259 C260 1.410 . S
C259 C267 1.503 . S
C260 C259 1.410 . S
C260 C261 1.392 . S
C260 C263 1.511 . S
C261 C257 1.376 . S
C261 C260 1.392 . S
C261 H273 0.929 . S
C262 C258 1.531 . S
C262 H274 0.960 . S
C262 H275 0.962 . S
C262 H276 0.960 . S
C263 C260 1.511 . S
C263 H277 0.961 . S
C263 H278 0.961 . S
C263 H279 0.961 . S
C264 C265 1.370 . S
C264 C266 1.363 . S
C264 H280 0.931 . S
C265 C264 1.370 . S
C265 C269 1.408 . S
C266 C264 1.363 . S
C266 C267 1.370 . S
C266 C270 1.524 . S
C267 C259 1.503 . S
C267 C266 1.370 . S
C267 C268 1.403 . S
C268 C267 1.403 . S
C268 C269 1.404 . S
C268 C271 1.539 . S
C269 C265 1.408 . S
C269 C268 1.404 . S
C269 H281 0.930 . S
C270 C266 1.524 . S
C270 H282 0.956 . S
C270 H283 0.961 . S
C270 H284 0.961 . S
C271 C268 1.539 . S
C271 H285 0.958 . S
C271 H286 0.961 . S
C271 H287 0.960 . S
H272 C256 0.931 . S
H273 C261 0.929 . S
H274 C262 0.960 . S
H275 C262 0.962 . S
H276 C262 0.960 . S
H277 C263 0.961 . S
H278 C263 0.961 . S
H279 C263 0.961 . S
H280 C264 0.931 . S
H281 C269 0.930 . S
H282 C270 0.956 . S
H283 C270 0.961 . S
H284 C270 0.961 . S
H285 C271 0.958 . S
H286 C271 0.961 . S
H287 C271 0.960 . S
C288 C289 1.391 . S
C288 C290 1.394 . S
C288 H304 0.931 . S
C289 C288 1.391 . S
C289 C293 1.376 . S
C290 C288 1.394 . S
C290 C291 1.369 . S
C290 C294 1.531 . S
C291 C290 1.369 . S
C291 C292 1.410 . S
C291 C299 1.503 . S
C292 C291 1.410 . S
C292 C293 1.392 . S
C292 C295 1.511 . S
C293 C289 1.376 . S
C293 C292 1.392 . S
C293 H305 0.929 . S
C294 C290 1.531 . S
C294 H306 0.960 . S
C294 H307 0.962 1_655 S
C294 H308 0.960 . S
C295 C292 1.511 . S
C295 H309 0.961 . S
C295 H310 0.961 . S
C295 H311 0.961 . S
C296 C297 1.370 . S
C296 C298 1.363 . S
C296 H312 0.931 . S
C297 C296 1.370 . S
C297 C301 1.408 . S
C298 C296 1.363 . S
C298 C299 1.370 . S
C298 C302 1.524 . S
C299 C291 1.503 . S
C299 C298 1.370 . S
C299 C300 1.403 . S
C300 C299 1.403 . S
C300 C301 1.404 . S
C300 C303 1.539 . S
C301 C297 1.408 . S
C301 C300 1.404 . S
C301 H313 0.930 . S
C302 C298 1.524 . S
C302 H314 0.956 . S
C302 H315 0.961 . S
C302 H316 0.961 . S
C303 C300 1.539 . S
C303 H317 0.958 . S
C303 H318 0.961 . S
C303 H319 0.960 . S
H304 C288 0.931 . S
H305 C293 0.929 . S
H306 C294 0.960 . S
H307 C294 0.962 1_455 S
H308 C294 0.960 . S
H309 C295 0.961 . S
H310 C295 0.961 . S
H311 C295 0.961 . S
H312 C296 0.931 . S
H313 C301 0.930 . S
H314 C302 0.956 . S
H315 C302 0.961 . S
H316 C302 0.961 . S
H317 C303 0.958 . S
H318 C303 0.961 . S
H319 C303 0.960 . S
C320 C321 1.391 . S
C320 C322 1.394 . S
C320 H336 0.931 . S
C321 C320 1.391 . S
C321 C325 1.376 . S
C322 C320 1.394 . S
C322 C323 1.369 . S
C322 C326 1.531 . S
C323 C322 1.369 . S
C323 C324 1.410 . S
C323 C331 1.503 . S
C324 C323 1.410 . S
C324 C325 1.392 . S
C324 C327 1.511 . S
C325 C321 1.376 . S
C325 C324 1.392 . S
C325 H337 0.929 . S
C326 C322 1.531 . S
C326 H338 0.960 . S
C326 H339 0.962 1_554 S
C326 H340 0.960 1_554 S
C327 C324 1.511 . S
C327 H341 0.961 . S
C327 H342 0.961 . S
C327 H343 0.961 . S
C328 C329 1.370 . S
C328 C330 1.363 . S
C328 H344 0.931 1_545 S
C329 C328 1.370 . S
C329 C333 1.408 . S
C330 C328 1.363 . S
C330 C331 1.370 . S
C330 C334 1.528 . S
C331 C323 1.503 . S
C331 C330 1.370 . S
C331 C332 1.403 . S
C332 C331 1.403 . S
C332 C333 1.404 . S
C332 C335 1.539 . S
C333 C329 1.408 . S
C333 C332 1.404 . S
C333 H345 0.930 . S
C334 C330 1.528 . S
C334 H346 0.957 . S
C334 H347 0.961 . S
C334 H348 0.956 1_545 S
C335 C332 1.539 . S
C335 H349 0.958 . S
C335 H350 0.961 . S
C335 H351 0.960 . S
H336 C320 0.931 . S
H337 C325 0.929 . S
H338 C326 0.960 . S
H339 C326 0.962 1_556 S
H340 C326 0.960 1_556 S
H341 C327 0.961 . S
H342 C327 0.961 . S
H343 C327 0.961 . S
H344 C328 0.931 1_565 S
H345 C333 0.930 . S
H346 C334 0.957 . S
H347 C334 0.961 . S
H348 C334 0.956 1_565 S
H349 C335 0.958 . S
H350 C335 0.961 . S
H351 C335 0.960 . S
C352 C353 1.391 . S
C352 C354 1.394 . S
C352 H368 0.931 . S
C353 C352 1.391 . S
C353 C357 1.376 . S
C354 C352 1.394 . S
C354 C355 1.369 . S
C354 C358 1.531 . S
C355 C354 1.369 . S
C355 C356 1.410 . S
C355 C363 1.503 . S
C356 C355 1.410 . S
C356 C357 1.392 . S
C356 C359 1.511 . S
C357 C353 1.376 . S
C357 C356 1.392 . S
C357 H369 0.929 . S
C358 C354 1.531 . S
C358 H370 0.960 . S
C358 H371 0.962 . S
C358 H372 0.960 . S
C359 C356 1.511 . S
C359 H373 0.961 . S
C359 H374 0.961 . S
C359 H375 0.961 . S
C360 C361 1.370 . S
C360 C362 1.363 . S
C360 H376 0.931 . S
C361 C360 1.370 . S
C361 C365 1.408 . S
C362 C360 1.363 . S
C362 C363 1.370 . S
C362 C366 1.524 . S
C363 C355 1.503 . S
C363 C362 1.370 . S
C363 C364 1.403 . S
C364 C363 1.403 . S
C364 C365 1.404 . S
C364 C367 1.539 . S
C365 C361 1.408 . S
C365 C364 1.404 . S
C365 H377 0.930 . S
C366 C362 1.524 . S
C366 H378 0.956 . S
C366 H379 0.961 . S
C366 H380 0.961 . S
C367 C364 1.539 . S
C367 H381 0.958 . S
C367 H382 0.961 . S
C367 H383 0.960 . S
H368 C352 0.931 . S
H369 C357 0.929 . S
H370 C358 0.960 . S
H371 C358 0.962 . S
H372 C358 0.960 . S
H373 C359 0.961 . S
H374 C359 0.961 . S
H375 C359 0.961 . S
H376 C360 0.931 . S
H377 C365 0.930 . S
H378 C366 0.956 . S
H379 C366 0.961 . S
H380 C366 0.961 . S
H381 C367 0.958 . S
H382 C367 0.961 . S
H383 C367 0.960 . S
C384 C385 1.391 . S
C384 C386 1.394 . S
C384 H400 0.931 . S
C385 C384 1.391 . S
C385 C389 1.376 . S
C386 C384 1.394 . S
C386 C387 1.369 . S
C386 C390 1.531 1_556 S
C387 C386 1.369 . S
C387 C388 1.410 . S
C387 C395 1.503 . S
C388 C387 1.410 . S
C388 C389 1.392 . S
C388 C391 1.511 . S
C389 C385 1.376 . S
C389 C388 1.392 . S
C389 H401 0.929 . S
C390 C386 1.531 1_554 S
C390 H402 0.960 . S
C390 H403 0.962 . S
C390 H404 0.960 . S
C391 C388 1.511 . S
C391 H405 0.961 . S
C391 H406 0.961 . S
C391 H407 0.961 . S
C392 C393 1.370 . S
C392 C394 1.363 . S
C392 H408 0.931 . S
C393 C392 1.370 . S
C393 C397 1.408 . S
C394 C392 1.363 . S
C394 C395 1.370 . S
C394 C398 1.524 . S
C395 C387 1.503 . S
C395 C394 1.370 . S
C395 C396 1.403 . S
C396 C395 1.403 . S
C396 C397 1.404 . S
C396 C399 1.539 . S
C397 C393 1.408 . S
C397 C396 1.404 . S
C397 H409 0.930 . S
C398 C394 1.524 . S
C398 H410 0.956 . S
C398 H411 0.961 . S
C398 H412 0.961 . S
C399 C396 1.539 . S
C399 H413 0.982 . S
C399 H414 0.961 . S
C399 H415 0.960 . S
H400 C384 0.931 . S
H401 C389 0.929 . S
H402 C390 0.960 . S
H403 C390 0.962 . S
H404 C390 0.960 . S
H405 C391 0.961 . S
H406 C391 0.961 . S
H407 C391 0.961 . S
H408 C392 0.931 . S
H409 C397 0.930 . S
H410 C398 0.956 . S
H411 C398 0.961 . S
H412 C398 0.961 . S
H413 C399 0.982 . S
H414 C399 0.961 . S
H415 C399 0.960 . S
C416 C417 1.391 . S
C416 C418 1.394 . S
C416 H432 0.931 . S
C417 C416 1.391 . S
C417 C421 1.376 . S
C418 C416 1.394 . S
C418 C419 1.369 . S
C418 C422 1.531 . S
C419 C418 1.369 . S
C419 C420 1.410 . S
C419 C427 1.503 . S
C420 C419 1.410 . S
C420 C421 1.392 . S
C420 C423 1.511 . S
C421 C417 1.376 . S
C421 C420 1.392 . S
C421 H433 0.929 . S
C422 C418 1.531 . S
C422 H434 0.960 . S
C422 H435 0.962 . S
C422 H436 0.960 . S
C423 C420 1.511 . S
C423 H437 0.961 . S
C423 H438 0.961 . S
C423 H439 0.961 . S
C424 C425 1.370 . S
C424 C426 1.363 . S
C424 H440 0.931 . S
C425 C424 1.370 . S
C425 C429 1.408 . S
C426 C424 1.363 . S
C426 C427 1.370 . S
C426 C430 1.524 . S
C427 C419 1.503 . S
C427 C426 1.370 . S
C427 C428 1.403 . S
C428 C427 1.403 . S
C428 C429 1.404 . S
C428 C431 1.539 . S
C429 C425 1.408 . S
C429 C428 1.404 . S
C429 H441 0.930 . S
C430 C426 1.524 . S
C430 H442 0.956 . S
C430 H443 0.961 . S
C430 H444 0.961 . S
C431 C428 1.539 . S
C431 H445 0.958 . S
C431 H446 0.961 . S
C431 H447 0.960 . S
H432 C416 0.931 . S
H433 C421 0.929 . S
H434 C422 0.960 . S
H435 C422 0.962 . S
H436 C422 0.960 . S
H437 C423 0.961 . S
H438 C423 0.961 . S
H439 C423 0.961 . S
H440 C424 0.931 . S
H441 C429 0.930 . S
H442 C430 0.956 . S
H443 C430 0.961 . S
H444 C430 0.961 . S
H445 C431 0.958 . S
H446 C431 0.961 . S
H447 C431 0.960 . S
C448 C449 1.391 . S
C448 C450 1.394 . S
C448 H464 0.931 . S
C449 C448 1.391 . S
C449 C453 1.376 . S
C450 C448 1.394 . S
C450 C451 1.369 . S
C450 C454 1.531 . S
C451 C450 1.369 . S
C451 C452 1.410 . S
C451 C459 1.503 . S
C452 C451 1.410 . S
C452 C453 1.392 . S
C452 C455 1.511 . S
C453 C449 1.376 . S
C453 C452 1.392 . S
C453 H465 0.929 . S
C454 C450 1.531 . S
C454 H466 0.960 . S
C454 H467 0.962 . S
C454 H468 0.960 1_554 S
C455 C452 1.511 . S
C455 H469 0.961 . S
C455 H470 0.961 . S
C455 H471 0.961 . S
C456 C457 1.370 . S
C456 C458 1.363 . S
C456 H472 0.931 . S
C457 C456 1.370 . S
C457 C461 1.408 . S
C458 C456 1.363 . S
C458 C459 1.370 . S
C458 C462 1.524 . S
C459 C451 1.503 . S
C459 C458 1.370 . S
C459 C460 1.403 . S
C460 C459 1.403 . S
C460 C461 1.404 . S
C460 C463 1.539 . S
C461 C457 1.408 . S
C461 C460 1.404 . S
C461 H473 0.930 1_455 S
C462 C458 1.524 . S
C462 H474 0.956 . S
C462 H475 0.961 . S
C462 H476 0.961 . S
C463 C460 1.539 . S
C463 H477 0.958 1_554 S
C463 H478 0.961 1_455 S
C463 H479 0.960 . S
H464 C448 0.931 . S
H465 C453 0.929 . S
H466 C454 0.960 . S
H467 C454 0.962 . S
H468 C454 0.960 1_556 S
H469 C455 0.961 . S
H470 C455 0.961 . S
H471 C455 0.961 . S
H472 C456 0.931 . S
H473 C461 0.930 1_655 S
H474 C462 0.956 . S
H475 C462 0.961 . S
H476 C462 0.961 . S
H477 C463 0.958 1_556 S
H478 C463 0.961 1_655 S
H479 C463 0.960 . S
C480 C481 1.391 . S
C480 C482 1.394 . S
C480 H496 0.931 . S
C481 C480 1.391 . S
C481 C485 1.376 . S
C482 C480 1.394 . S
C482 C483 1.369 . S
C482 C486 1.531 . S
C483 C482 1.369 . S
C483 C484 1.410 . S
C483 C491 1.503 . S
C484 C483 1.410 . S
C484 C485 1.392 . S
C484 C487 1.511 . S
C485 C481 1.376 . S
C485 C484 1.392 . S
C485 H497 0.929 . S
C486 C482 1.531 . S
C486 H498 0.960 1_556 S
C486 H499 0.962 1_556 S
C486 H500 0.960 1_556 S
C487 C484 1.511 . S
C487 H501 0.961 . S
C487 H502 0.961 . S
C487 H503 0.961 . S
C488 C489 1.370 . S
C488 C490 1.363 . S
C488 H504 0.931 . S
C489 C488 1.370 . S
C489 C493 1.408 . S
C490 C488 1.363 . S
C490 C491 1.370 . S
C490 C494 1.524 . S
C491 C483 1.503 . S
C491 C490 1.370 . S
C491 C492 1.403 . S
C492 C491 1.403 . S
C492 C493 1.404 . S
C492 C495 1.539 . S
C493 C489 1.408 . S
C493 C492 1.404 . S
C493 H505 0.930 . S
C494 C490 1.524 . S
C494 H506 0.956 . S
C494 H507 0.961 . S
C494 H508 0.961 . S
C495 C492 1.539 . S
C495 H509 0.958 . S
C495 H510 0.961 . S
C495 H511 0.960 . S
H496 C480 0.931 . S
H497 C485 0.929 . S
H498 C486 0.960 1_554 S
H499 C486 0.962 1_554 S
H500 C486 0.960 1_554 S
H501 C487 0.961 . S
H502 C487 0.961 . S
H503 C487 0.961 . S
H504 C488 0.931 . S
H505 C493 0.930 . S
H506 C494 0.956 . S
H507 C494 0.961 . S
H508 C494 0.961 . S
H509 C495 0.958 . S
H510 C495 0.961 . S
H511 C495 0.960 . S
C512 C513 1.391 . S
C512 C514 1.394 . S
C512 H528 0.931 . S
C513 C512 1.391 . S
C513 C517 1.376 . S
C514 C512 1.394 . S
C514 C515 1.369 . S
C514 C518 1.531 1_655 S
C515 C514 1.369 . S
C515 C516 1.410 . S
C515 C523 1.503 . S
C516 C515 1.410 . S
C516 C517 1.392 . S
C516 C519 1.511 . S
C517 C513 1.376 . S
C517 C516 1.392 . S
C517 H529 0.929 . S
C518 C514 1.531 1_455 S
C518 H530 0.960 . S
C518 H531 0.962 . S
C518 H532 0.960 . S
C519 C516 1.511 . S
C519 H533 0.961 . S
C519 H534 0.961 . S
C519 H535 0.961 . S
C520 C521 1.370 . S
C520 C522 1.363 . S
C520 H536 0.931 . S
C521 C520 1.370 . S
C521 C525 1.408 . S
C522 C520 1.363 . S
C522 C523 1.370 . S
C522 C526 1.524 . S
C523 C515 1.503 . S
C523 C522 1.370 . S
C523 C524 1.403 . S
C524 C523 1.403 . S
C524 C525 1.404 . S
C524 C527 1.539 . S
C525 C521 1.408 . S
C525 C524 1.404 . S
C525 H537 0.930 . S
C526 C522 1.524 . S
C526 H538 0.956 . S
C526 H539 0.961 . S
C526 H540 0.961 . S
C527 C524 1.539 . S
C527 H541 0.958 . S
C527 H542 0.961 . S
C527 H543 0.960 . S
H528 C512 0.931 . S
H529 C517 0.929 . S
H530 C518 0.960 . S
H531 C518 0.962 . S
H532 C518 0.960 . S
H533 C519 0.961 . S
H534 C519 0.961 . S
H535 C519 0.961 . S
H536 C520 0.931 . S
H537 C525 0.930 . S
H538 C526 0.956 . S
H539 C526 0.961 . S
H540 C526 0.961 . S
H541 C527 0.958 . S
H542 C527 0.961 . S
H543 C527 0.960 . S
C544 C545 1.391 . S
C544 C546 1.394 . S
C544 H560 0.931 . S
C545 C544 1.391 . S
C545 C549 1.376 . S
C546 C544 1.394 . S
C546 C547 1.369 . S
C546 C550 1.531 . S
C547 C546 1.369 . S
C547 C548 1.410 . S
C547 C555 1.503 . S
C548 C547 1.410 . S
C548 C549 1.392 . S
C548 C551 1.511 . S
C549 C545 1.376 . S
C549 C548 1.392 . S
C549 H561 0.929 . S
C550 C546 1.531 . S
C550 H562 0.960 . S
C550 H563 0.962 . S
C550 H564 0.960 . S
C551 C548 1.511 . S
C551 H565 0.961 . S
C551 H566 0.961 . S
C551 H567 0.961 . S
C552 C553 1.370 . S
C552 C554 1.363 . S
C552 H568 0.931 . S
C553 C552 1.370 . S
C553 C557 1.408 . S
C554 C552 1.363 . S
C554 C555 1.370 . S
C554 C558 1.524 . S
C555 C547 1.503 . S
C555 C554 1.370 . S
C555 C556 1.403 . S
C556 C555 1.403 . S
C556 C557 1.404 . S
C556 C559 1.539 . S
C557 C553 1.408 . S
C557 C556 1.404 . S
C557 H569 0.930 . S
C558 C554 1.524 . S
C558 H570 0.956 . S
C558 H571 0.961 . S
C558 H572 0.961 . S
C559 C556 1.539 . S
C559 H573 0.958 . S
C559 H574 0.961 . S
C559 H575 0.960 . S
H560 C544 0.931 . S
H561 C549 0.929 . S
H562 C550 0.960 . S
H563 C550 0.962 . S
H564 C550 0.960 . S
H565 C551 0.961 . S
H566 C551 0.961 . S
H567 C551 0.961 . S
H568 C552 0.931 . S
H569 C557 0.930 . S
H570 C558 0.956 . S
H571 C558 0.961 . S
H572 C558 0.961 . S
H573 C559 0.958 . S
H574 C559 0.961 . S
H575 C559 0.960 . S
C576 C577 1.391 . S
C576 C578 1.394 . S
C576 H592 0.931 . S
C577 C576 1.391 . S
C577 C581 1.376 . S
C578 C576 1.394 . S
C578 C579 1.369 . S
C578 C582 1.531 . S
C579 C578 1.369 . S
C579 C580 1.410 . S
C579 C587 1.503 . S
C580 C579 1.410 . S
C580 C581 1.392 . S
C580 C583 1.511 1_565 S
C581 C577 1.376 . S
C581 C580 1.392 . S
C581 H593 0.929 . S
C582 C578 1.531 . S
C582 H594 0.960 . S
C582 H595 0.962 . S
C582 H596 0.960 . S
C583 C580 1.511 1_545 S
C583 H597 0.961 . S
C583 H598 0.961 . S
C583 H599 0.961 . S
C584 C585 1.370 . S
C584 C586 1.363 . S
C584 H600 0.931 1_655 S
C585 C584 1.370 . S
C585 C589 1.408 . S
C586 C584 1.363 . S
C586 C587 1.370 . S
C586 C590 1.524 . S
C587 C579 1.503 . S
C587 C586 1.370 . S
C587 C588 1.403 . S
C588 C587 1.403 . S
C588 C589 1.404 . S
C588 C591 1.539 . S
C589 C585 1.408 . S
C589 C588 1.404 . S
C589 H601 0.930 . S
C590 C586 1.524 . S
C590 H602 0.956 . S
C590 H603 0.961 . S
C590 H604 0.961 1_655 S
C591 C588 1.539 . S
C591 H605 0.958 . S
C591 H606 0.961 1_565 S
C591 H607 0.960 . S
H592 C576 0.931 . S
H593 C581 0.929 . S
H594 C582 0.960 . S
H595 C582 0.962 . S
H596 C582 0.960 . S
H597 C583 0.961 . S
H598 C583 0.961 . S
H599 C583 0.961 . S
H600 C584 0.931 1_455 S
H601 C589 0.930 . S
H602 C590 0.956 . S
H603 C590 0.961 . S
H604 C590 0.961 1_455 S
H605 C591 0.958 . S
H606 C591 0.961 1_545 S
H607 C591 0.960 . S
C608 C609 1.391 . S
C608 C610 1.394 . S
C608 H624 0.931 . S
C609 C608 1.391 . S
C609 C613 1.376 . S
C610 C608 1.394 . S
C610 C611 1.369 . S
C610 C614 1.531 . S
C611 C610 1.369 . S
C611 C612 1.410 . S
C611 C619 1.503 . S
C612 C611 1.410 . S
C612 C613 1.392 . S
C612 C615 1.511 . S
C613 C609 1.376 . S
C613 C612 1.392 . S
C613 H625 0.929 . S
C614 C610 1.531 . S
C614 H626 0.960 . S
C614 H627 0.962 . S
C614 H628 0.960 . S
C615 C612 1.511 . S
C615 H629 0.961 . S
C615 H630 0.961 . S
C615 H631 0.961 . S
C616 C617 1.370 . S
C616 C618 1.363 . S
C616 H632 0.931 . S
C617 C616 1.370 . S
C617 C621 1.408 . S
C618 C616 1.363 . S
C618 C619 1.370 . S
C618 C622 1.524 . S
C619 C611 1.503 . S
C619 C618 1.370 . S
C619 C620 1.403 . S
C620 C619 1.403 . S
C620 C621 1.404 . S
C620 C623 1.539 . S
C621 C617 1.408 . S
C621 C620 1.404 . S
C621 H633 0.930 . S
C622 C618 1.524 . S
C622 H634 0.956 . S
C622 H635 0.961 . S
C622 H636 0.961 . S
C623 C620 1.539 . S
C623 H637 0.958 . S
C623 H638 0.961 . S
C623 H639 0.960 . S
H624 C608 0.931 . S
H625 C613 0.929 . S
H626 C614 0.960 . S
H627 C614 0.962 . S
H628 C614 0.960 . S
H629 C615 0.961 . S
H630 C615 0.961 . S
H631 C615 0.961 . S
H632 C616 0.931 . S
H633 C621 0.930 . S
H634 C622 0.956 . S
H635 C622 0.961 . S
H636 C622 0.961 . S
H637 C623 0.958 . S
H638 C623 0.961 . S
H639 C623 0.960 . S
C640 C641 1.391 . S
C640 C642 1.394 . S
C640 H656 0.931 . S
C641 C640 1.391 . S
C641 C645 1.376 . S
C642 C640 1.394 . S
C642 C643 1.369 . S
C642 C646 1.531 . S
C643 C642 1.369 . S
C643 C644 1.410 . S
C643 C651 1.503 . S
C644 C643 1.410 . S
C644 C645 1.392 . S
C644 C647 1.511 . S
C645 C641 1.376 . S
C645 C644 1.392 . S
C645 H657 0.929 . S
C646 C642 1.531 . S
C646 H658 0.960 . S
C646 H659 0.962 . S
C646 H660 0.960 . S
C647 C644 1.511 . S
C647 H661 0.961 . S
C647 H662 0.961 . S
C647 H663 0.961 . S
C648 C649 1.370 . S
C648 C650 1.363 . S
C648 H664 0.931 . S
C649 C648 1.370 . S
C649 C653 1.408 . S
C650 C648 1.363 . S
C650 C651 1.370 . S
C650 C654 1.524 . S
C651 C643 1.503 . S
C651 C650 1.370 . S
C651 C652 1.403 . S
C652 C651 1.403 . S
C652 C653 1.404 . S
C652 C655 1.539 . S
C653 C649 1.408 . S
C653 C652 1.404 . S
C653 H665 0.930 . S
C654 C650 1.524 . S
C654 H666 0.956 . S
C654 H667 0.961 . S
C654 H668 0.961 . S
C655 C652 1.539 . S
C655 H669 0.958 . S
C655 H670 0.961 . S
C655 H671 0.960 . S
H656 C640 0.931 . S
H657 C645 0.929 . S
H658 C646 0.960 . S
H659 C646 0.962 . S
H660 C646 0.960 . S
H661 C647 0.961 . S
H662 C647 0.961 . S
H663 C647 0.961 . S
H664 C648 0.931 . S
H665 C653 0.930 . S
H666 C654 0.956 . S
H667 C654 0.961 . S
H668 C654 0.961 . S
H669 C655 0.958 . S
H670 C655 0.961 . S
H671 C655 0.960 . S
C672 C673 1.391 . S
C672 C674 1.394 . S
C672 H688 0.931 . S
C673 C672 1.391 . S
C673 C677 1.376 . S
C674 C672 1.394 . S
C674 C675 1.369 . S
C674 C678 1.531 . S
C675 C674 1.369 . S
C675 C676 1.410 . S
C675 C683 1.503 . S
C676 C675 1.410 . S
C676 C677 1.392 . S
C676 C679 1.511 . S
C677 C673 1.376 . S
C677 C676 1.392 . S
C677 H689 0.929 . S
C678 C674 1.531 . S
C678 H690 0.960 . S
C678 H691 0.962 . S
C678 H692 0.960 . S
C679 C676 1.511 . S
C679 H693 0.956 1_455 S
C679 H694 0.961 . S
C679 H695 0.961 1_455 S
C680 C681 1.370 . S
C680 C682 1.363 . S
C680 H696 0.931 . S
C681 C680 1.370 . S
C681 C685 1.408 . S
C682 C680 1.363 . S
C682 C683 1.370 . S
C682 C686 1.524 . S
C683 C675 1.503 . S
C683 C682 1.370 . S
C683 C684 1.403 . S
C684 C683 1.403 . S
C684 C685 1.404 . S
C684 C687 1.539 . S
C685 C681 1.408 . S
C685 C684 1.404 . S
C685 H697 0.930 . S
C686 C682 1.524 . S
C686 H698 0.956 . S
C686 H699 0.961 . S
C686 H700 0.961 . S
C687 C684 1.539 . S
C687 H701 0.958 . S
C687 H702 0.961 . S
C687 H703 0.960 . S
H688 C672 0.931 . S
H689 C677 0.929 . S
H690 C678 0.960 . S
H691 C678 0.962 . S
H692 C678 0.960 . S
H693 C679 0.956 1_655 S
H694 C679 0.961 . S
H695 C679 0.961 1_655 S
H696 C680 0.931 . S
H697 C685 0.930 . S
H698 C686 0.956 . S
H699 C686 0.961 . S
H700 C686 0.961 . S
H701 C687 0.958 . S
H702 C687 0.961 . S
H703 C687 0.960 . S
C704 C705 1.391 . S
C704 C706 1.394 . S
C704 H720 0.931 . S
C705 C704 1.391 . S
C705 C709 1.376 . S
C706 C704 1.394 . S
C706 C707 1.369 . S
C706 C710 1.531 . S
C707 C706 1.369 . S
C707 C708 1.410 . S
C707 C715 1.503 . S
C708 C707 1.410 . S
C708 C709 1.392 . S
C708 C711 1.515 . S
C709 C705 1.376 . S
C709 C708 1.392 . S
C709 H721 0.929 . S
C710 C706 1.531 . S
C710 H722 0.960 1_556 S
C710 H723 0.962 . S
C710 H724 0.960 1_556 S
C711 C708 1.515 . S
C711 H725 0.960 1_565 S
C711 H726 0.961 . S
C711 H727 0.957 1_565 S
C712 C713 1.370 . S
C712 C714 1.363 . S
C712 H728 0.931 . S
C713 C712 1.370 . S
C713 C717 1.408 . S
C714 C712 1.363 . S
C714 C715 1.370 . S
C714 C718 1.524 . S
C715 C707 1.503 . S
C715 C714 1.370 . S
C715 C716 1.403 . S
C716 C715 1.403 . S
C716 C717 1.404 . S
C716 C719 1.539 1_556 S
C717 C713 1.408 . S
C717 C716 1.404 . S
C717 H729 0.930 1_556 S
C718 C714 1.524 . S
C718 H730 0.956 . S
C718 H731 0.961 . S
C718 H732 0.961 . S
C719 C716 1.539 1_554 S
C719 H733 0.958 . S
C719 H734 0.961 1_565 S
C719 H735 0.960 1_554 S
H720 C704 0.931 . S
H721 C709 0.929 . S
H722 C710 0.960 1_554 S
H723 C710 0.962 . S
H724 C710 0.960 1_554 S
H725 C711 0.960 1_545 S
H726 C711 0.961 . S
H727 C711 0.957 1_545 S
H728 C712 0.931 . S
H729 C717 0.930 1_554 S
H730 C718 0.956 . S
H731 C718 0.961 . S
H732 C718 0.961 . S
H733 C719 0.958 . S
H734 C719 0.961 1_545 S
H735 C719 0.960 1_556 S
C736 C737 1.391 . S
C736 C738 1.394 . S
C736 H752 0.931 . S
C737 C736 1.391 . S
C737 C741 1.376 . S
C738 C736 1.394 . S
C738 C739 1.369 . S
C738 C742 1.531 . S
C739 C738 1.369 . S
C739 C740 1.410 . S
C739 C747 1.503 . S
C740 C739 1.410 . S
C740 C741 1.392 . S
C740 C743 1.511 . S
C741 C737 1.376 . S
C741 C740 1.392 . S
C741 H753 0.929 . S
C742 C738 1.531 . S
C742 H754 0.960 . S
C742 H755 0.962 . S
C742 H756 0.960 . S
C743 C740 1.511 . S
C743 H757 0.961 . S
C743 H758 0.961 . S
C743 H759 0.961 . S
C744 C745 1.370 . S
C744 C746 1.363 . S
C744 H760 0.931 . S
C745 C744 1.370 . S
C745 C749 1.408 . S
C746 C744 1.363 . S
C746 C747 1.370 . S
C746 C750 1.524 . S
C747 C739 1.503 . S
C747 C746 1.370 . S
C747 C748 1.403 . S
C748 C747 1.403 . S
C748 C749 1.404 . S
C748 C751 1.539 . S
C749 C745 1.408 . S
C749 C748 1.404 . S
C749 H761 0.930 . S
C750 C746 1.524 . S
C750 H762 0.956 . S
C750 H763 0.961 . S
C750 H764 0.961 . S
C751 C748 1.539 . S
C751 H765 0.958 . S
C751 H766 0.961 . S
C751 H767 0.960 . S
H752 C736 0.931 . S
H753 C741 0.929 . S
H754 C742 0.960 . S
H755 C742 0.962 . S
H756 C742 0.960 . S
H757 C743 0.961 . S
H758 C743 0.961 . S
H759 C743 0.961 . S
H760 C744 0.931 . S
H761 C749 0.930 . S
H762 C750 0.956 . S
H763 C750 0.961 . S
H764 C750 0.961 . S
H765 C751 0.958 . S
H766 C751 0.961 . S
H767 C751 0.960 . S
C768 C769 1.391 . S
C768 C770 1.394 . S
C768 H784 0.931 . S
C769 C768 1.391 . S
C769 C773 1.376 . S
C770 C768 1.394 . S
C770 C771 1.369 . S
C770 C774 1.531 . S
C771 C770 1.369 . S
C771 C772 1.410 . S
C771 C779 1.503 . S
C772 C771 1.410 . S
C772 C773 1.392 . S
C772 C775 1.511 . S
C773 C769 1.376 . S
C773 C772 1.392 . S
C773 H785 0.929 . S
C774 C770 1.531 . S
C774 H786 0.960 . S
C774 H787 0.962 . S
C774 H788 0.960 . S
C775 C772 1.511 . S
C775 H789 0.961 . S
C775 H790 0.961 . S
C775 H791 0.961 . S
C776 C777 1.370 . S
C776 C778 1.363 . S
C776 H792 0.931 . S
C777 C776 1.370 . S
C777 C781 1.408 . S
C778 C776 1.363 . S
C778 C779 1.370 . S
C778 C782 1.524 . S
C779 C771 1.503 . S
C779 C778 1.370 . S
C779 C780 1.403 . S
C780 C779 1.403 . S
C780 C781 1.404 . S
C780 C783 1.539 1_554 S
C781 C777 1.408 . S
C781 C780 1.404 . S
C781 H793 0.930 1_554 S
C782 C778 1.524 . S
C782 H794 0.956 . S
C782 H795 0.961 . S
C782 H796 0.961 . S
C783 C780 1.539 1_556 S
C783 H797 0.958 . S
C783 H798 0.961 . S
C783 H799 0.960 . S
H784 C768 0.931 . S
H785 C773 0.929 . S
H786 C774 0.960 . S
H787 C774 0.962 . S
H788 C774 0.960 . S
H789 C775 0.961 . S
H790 C775 0.961 . S
H791 C775 0.961 . S
H792 C776 0.931 . S
H793 C781 0.930 1_556 S
H794 C782 0.956 . S
H795 C782 0.961 . S
H796 C782 0.961 . S
H797 C783 0.958 . S
H798 C783 0.961 . S
H799 C783 0.960 . S
C800 C801 1.391 . S
C800 C802 1.394 . S
C800 H816 0.931 . S
C801 C800 1.391 . S
C801 C805 1.376 . S
C802 C800 1.394 . S
C802 C803 1.369 . S
C802 C806 1.531 . S
C803 C802 1.369 . S
C803 C804 1.410 . S
C803 C811 1.503 . S
C804 C803 1.410 . S
C804 C805 1.392 . S
C804 C807 1.511 . S
C805 C801 1.376 . S
C805 C804 1.392 . S
C805 H817 0.929 . S
C806 C802 1.531 . S
C806 H818 0.960 . S
C806 H819 0.962 . S
C806 H820 0.960 . S
C807 C804 1.511 . S
C807 H821 0.961 . S
C807 H822 0.961 . S
C807 H823 0.961 . S
C808 C809 1.370 . S
C808 C810 1.363 . S
C808 H824 0.931 . S
C809 C808 1.370 . S
C809 C813 1.408 . S
C810 C808 1.363 . S
C810 C811 1.370 . S
C810 C814 1.524 . S
C811 C803 1.503 . S
C811 C810 1.370 . S
C811 C812 1.403 . S
C812 C811 1.403 . S
C812 C813 1.404 . S
C812 C815 1.539 . S
C813 C809 1.408 . S
C813 C812 1.404 . S
C813 H825 0.930 . S
C814 C810 1.524 . S
C814 H826 0.956 . S
C814 H827 0.961 . S
C814 H828 0.961 . S
C815 C812 1.539 . S
C815 H829 0.958 . S
C815 H830 0.961 . S
C815 H831 0.960 . S
H816 C800 0.931 . S
H817 C805 0.929 . S
H818 C806 0.960 . S
H819 C806 0.962 . S
H820 C806 0.960 . S
H821 C807 0.961 . S
H822 C807 0.961 . S
H823 C807 0.961 . S
H824 C808 0.931 . S
H825 C813 0.930 . S
H826 C814 0.956 . S
H827 C814 0.961 . S
H828 C814 0.961 . S
H829 C815 0.958 . S
H830 C815 0.961 . S
H831 C815 0.960 . S
C832 C833 1.391 . S
C832 C834 1.394 . S
C832 H848 0.931 . S
C833 C832 1.391 . S
C833 C837 1.376 . S
C834 C832 1.394 . S
C834 C835 1.369 . S
C834 C838 1.531 . S
C835 C834 1.369 . S
C835 C836 1.410 . S
C835 C843 1.503 . S
C836 C835 1.410 . S
C836 C837 1.392 . S
C836 C839 1.511 . S
C837 C833 1.376 . S
C837 C836 1.392 . S
C837 H849 0.929 . S
C838 C834 1.531 . S
C838 H850 0.960 . S
C838 H851 0.962 1_655 S
C838 H852 0.960 . S
C839 C836 1.511 . S
C839 H853 0.961 . S
C839 H854 0.961 . S
C839 H855 0.961 . S
C840 C841 1.370 . S
C840 C842 1.363 . S
C840 H856 0.931 . S
C841 C840 1.370 . S
C841 C845 1.416 . S
C842 C840 1.363 . S
C842 C843 1.370 . S
C842 C846 1.524 . S
C843 C835 1.503 . S
C843 C842 1.370 . S
C843 C844 1.403 . S
C844 C843 1.403 . S
C844 C845 1.406 . S
C844 C847 1.539 1_556 S
C845 C841 1.416 . S
C845 C844 1.406 . S
C845 H857 0.920 1_556 S
C846 C842 1.524 . S
C846 H858 0.956 . S
C846 H859 0.961 . S
C846 H860 0.961 . S
C847 C844 1.539 1_554 S
C847 H861 0.958 . S
C847 H862 0.961 . S
C847 H863 0.960 . S
H848 C832 0.931 . S
H849 C837 0.929 . S
H850 C838 0.960 . S
H851 C838 0.962 1_455 S
H852 C838 0.960 . S
H853 C839 0.961 . S
H854 C839 0.961 . S
H855 C839 0.961 . S
H856 C840 0.931 . S
H857 C845 0.920 1_554 S
H858 C846 0.956 . S
H859 C846 0.961 . S
H860 C846 0.961 . S
H861 C847 0.958 . S
H862 C847 0.961 . S
H863 C847 0.960 . S
C864 C865 1.391 . S
C864 C866 1.394 . S
C864 H880 0.931 . S
C865 C864 1.391 . S
C865 C869 1.376 . S
C866 C864 1.394 . S
C866 C867 1.369 . S
C866 C870 1.531 . S
C867 C866 1.369 . S
C867 C868 1.410 . S
C867 C875 1.503 . S
C868 C867 1.410 . S
C868 C869 1.392 . S
C868 C871 1.511 . S
C869 C865 1.376 . S
C869 C868 1.392 . S
C869 H881 0.929 . S
C870 C866 1.531 . S
C870 H882 0.960 . S
C870 H883 0.962 . S
C870 H884 0.960 . S
C871 C868 1.511 . S
C871 H885 0.961 . S
C871 H886 0.961 . S
C871 H887 0.961 . S
C872 C873 1.370 . S
C872 C874 1.363 . S
C872 H888 0.931 . S
C873 C872 1.370 . S
C873 C877 1.408 . S
C874 C872 1.363 . S
C874 C875 1.370 . S
C874 C878 1.524 . S
C875 C867 1.503 . S
C875 C874 1.370 . S
C875 C876 1.403 . S
C876 C875 1.403 . S
C876 C877 1.404 . S
C876 C879 1.539 . S
C877 C873 1.408 . S
C877 C876 1.404 . S
C877 H889 0.930 . S
C878 C874 1.524 . S
C878 H890 0.956 . S
C878 H891 0.961 . S
C878 H892 0.961 1_554 S
C879 C876 1.539 . S
C879 H893 0.958 . S
C879 H894 0.961 . S
C879 H895 0.960 . S
H880 C864 0.931 . S
H881 C869 0.929 . S
H882 C870 0.960 . S
H883 C870 0.962 . S
H884 C870 0.960 . S
H885 C871 0.961 . S
H886 C871 0.961 . S
H887 C871 0.961 . S
H888 C872 0.931 . S
H889 C877 0.930 . S
H890 C878 0.956 . S
H891 C878 0.961 . S
H892 C878 0.961 1_556 S
H893 C879 0.958 . S
H894 C879 0.961 . S
H895 C879 0.960 . S
C896 C897 1.391 . S
C896 C898 1.394 . S
C896 H912 0.931 . S
C897 C896 1.391 . S
C897 C901 1.376 . S
C898 C896 1.394 . S
C898 C899 1.369 . S
C898 C902 1.531 . S
C899 C898 1.369 . S
C899 C900 1.410 . S
C899 C907 1.503 . S
C900 C899 1.410 . S
C900 C901 1.392 . S
C900 C903 1.511 . S
C901 C897 1.376 . S
C901 C900 1.392 . S
C901 H913 0.929 . S
C902 C898 1.531 . S
C902 H914 0.959 1_455 S
C902 H915 0.962 . S
C902 H916 0.961 1_455 S
C903 C900 1.511 . S
C903 H917 0.961 . S
C903 H918 0.961 . S
C903 H919 0.961 . S
C904 C905 1.370 . S
C904 C906 1.363 . S
C904 H920 0.931 . S
C905 C904 1.370 . S
C905 C909 1.408 . S
C906 C904 1.363 . S
C906 C907 1.370 . S
C906 C910 1.524 . S
C907 C899 1.503 . S
C907 C906 1.370 . S
C907 C908 1.403 . S
C908 C907 1.403 . S
C908 C909 1.404 . S
C908 C911 1.539 1_455 S
C909 C905 1.408 . S
C909 C908 1.404 . S
C909 H921 0.930 1_455 S
C910 C906 1.524 . S
C910 H922 0.956 . S
C910 H923 0.961 . S
C910 H924 0.961 . S
C911 C908 1.539 1_655 S
C911 H925 0.958 . S
C911 H926 0.961 . S
C911 H927 0.960 . S
H912 C896 0.931 . S
H913 C901 0.929 . S
H914 C902 0.959 1_655 S
H915 C902 0.962 . S
H916 C902 0.961 1_655 S
H917 C903 0.961 . S
H918 C903 0.961 . S
H919 C903 0.961 . S
H920 C904 0.931 . S
H921 C909 0.930 1_655 S
H922 C910 0.956 . S
H923 C910 0.961 . S
H924 C910 0.961 . S
H925 C911 0.958 . S
H926 C911 0.961 . S
H927 C911 0.960 . S
C928 C929 1.391 . S
C928 C930 1.394 . S
C928 H944 0.931 . S
C929 C928 1.391 . S
C929 C933 1.376 . S
C930 C928 1.394 . S
C930 C931 1.369 . S
C930 C934 1.531 . S
C931 C930 1.369 . S
C931 C932 1.410 . S
C931 C939 1.503 . S
C932 C931 1.410 . S
C932 C933 1.392 . S
C932 C935 1.511 . S
C933 C929 1.376 . S
C933 C932 1.392 . S
C933 H945 0.929 . S
C934 C930 1.531 . S
C934 H946 0.960 . S
C934 H947 0.962 . S
C934 H948 0.960 . S
C935 C932 1.511 . S
C935 H949 0.961 . S
C935 H950 0.961 . S
C935 H951 0.961 . S
C936 C937 1.370 . S
C936 C938 1.363 . S
C936 H952 0.931 . S
C937 C936 1.370 . S
C937 C941 1.408 . S
C938 C936 1.363 . S
C938 C939 1.370 . S
C938 C942 1.524 . S
C939 C931 1.503 . S
C939 C938 1.370 . S
C939 C940 1.403 . S
C940 C939 1.403 . S
C940 C941 1.404 . S
C940 C943 1.539 . S
C941 C937 1.408 . S
C941 C940 1.404 . S
C941 H953 0.930 . S
C942 C938 1.524 . S
C942 H954 0.956 . S
C942 H955 0.961 . S
C942 H956 0.961 . S
C943 C940 1.539 . S
C943 H957 0.958 . S
C943 H958 0.961 . S
C943 H959 0.960 . S
H944 C928 0.931 . S
H945 C933 0.929 . S
H946 C934 0.960 . S
H947 C934 0.962 . S
H948 C934 0.960 . S
H949 C935 0.961 . S
H950 C935 0.961 . S
H951 C935 0.961 . S
H952 C936 0.931 . S
H953 C941 0.930 . S
H954 C942 0.956 . S
H955 C942 0.961 . S
H956 C942 0.961 . S
H957 C943 0.958 . S
H958 C943 0.961 . S
H959 C943 0.960 . S
C193 C5 2.086 . S
C201 C88 2.109 . S
C225 C14 1.085 . S
C233 N108 1.073 . S
C265 C142 1.959 . S
C257 C25 1.941 . S
C289 C34 1.217 . S
C297 N176 1.189 . S
C329 C129 2.253 . S
C321 C7 2.228 . S
C361 N86 1.108 . S
C353 C13 1.116 . S
C393 C163 1.989 . S
C385 C23 1.972 . S
C425 N138 0.973 . S
C417 C31 0.965 . S
C449 C4 1.770 . S
C457 C178 1.775 . S
C489 C112 1.673 . S
C481 C22 1.667 . S
C513 C32 1.345 . S
C521 C73 1.382 . S
C545 C16 1.355 . S
C553 C159 1.373 . S
C585 C99 2.094 . S
C577 C41 2.078 . S
C609 C50 1.113 . S
C617 N116 1.079 . S
C641 C61 1.929 . S
C649 C133 1.952 . S
C673 C67 1.253 . S
C681 N168 1.170 . S
C705 C40 2.259 . S
C713 C118 2.265 . S
C745 N78 1.106 . S
C737 C52 1.100 . S
C777 C172 1.992 . S
C769 C59 1.980 . S
C809 N146 0.969 . S
C801 C70 0.974 . S
C833 C43 1.762 . S
C841 C189 1.771 . S
C873 C103 1.680 . S
C865 C58 1.653 . S
C905 C82 1.364 . S
C897 C68 1.372 . S
C929 C49 1.370 . S
C937 C148 1.381 . S
