# Generated by pormake.
# Topology rtl, (3,6)-cn, num edge types: 1
# Building blocks:
#     Node 0, Type 0, BuildingBlock: BETDIP_clean_linker_0, # of connection points: 3
#     Node 1, Type 0, BuildingBlock: BETDIP_clean_linker_0, # of connection points: 3
#     Node 2, Type 0, BuildingBlock: BETDIP_clean_linker_0, # of connection points: 3
#     Node 3, Type 0, BuildingBlock: BETDIP_clean_linker_0, # of connection points: 3
#     Node 4, Type 1, BuildingBlock: KUMBOL_clean_sbu_1, # of connection points: 6
#     Node 5, Type 1, BuildingBlock: KUMBOL_clean_sbu_1, # of connection points: 6
#     Edge 6, Type (0, 1), BuildingBlock: TEMPAE_clean_linker_10, # of connection points: 2
#     Edge 7, Type (0, 1), BuildingBlock: TEMPAE_clean_linker_10, # of connection points: 2
#     Edge 8, Type (0, 1), BuildingBlock: TEMPAE_clean_linker_10, # of connection points: 2
#     Edge 9, Type (0, 1), BuildingBlock: TEMPAE_clean_linker_10, # of connection points: 2
#     Edge 10, Type (0, 1), BuildingBlock: TEMPAE_clean_linker_10, # of connection points: 2
#     Edge 11, Type (0, 1), BuildingBlock: TEMPAE_clean_linker_10, # of connection points: 2
#     Edge 12, Type (0, 1), BuildingBlock: TEMPAE_clean_linker_10, # of connection points: 2
#     Edge 13, Type (0, 1), BuildingBlock: TEMPAE_clean_linker_10, # of connection points: 2
#     Edge 14, Type (0, 1), BuildingBlock: TEMPAE_clean_linker_10, # of connection points: 2
#     Edge 15, Type (0, 1), BuildingBlock: TEMPAE_clean_linker_10, # of connection points: 2
#     Edge 16, Type (0, 1), BuildingBlock: TEMPAE_clean_linker_10, # of connection points: 2
#     Edge 17, Type (0, 1), BuildingBlock: TEMPAE_clean_linker_10, # of connection points: 2
# Relax obj value: 0.052
# Max RMSD: 0.219
# Mean RMSD: 0.160
data_MOF--net-rtl--node1-KUMBOL_clean_sbu_1--node2-BETDIP_clean_linker_0--edge1-TEMPAE_clean_linker_10
_symmetry_space_group_name_H-M    P1
_symmetry_Int_Tables_number       1
_symmetry_cell_setting            triclinic
loop_
_symmetry_equiv_pos_as_xyz
'x, y, z'
_cell_length_a     35.787098
_cell_length_b     35.886383
_cell_length_c     27.436832
_cell_angle_alpha  78.333062
_cell_angle_beta   100.1224
_cell_angle_gamma 91.47197
loop_
_atom_site_label
_atom_site_type_symbol
_atom_site_fract_x
_atom_site_fract_y
_atom_site_fract_z
_atom_type_partial_charge
H0 H 0.22056 0.82314 0.93953 0.0
H1 H 0.23289 0.80546 0.10146 0.0
H2 H 0.14616 0.88123 0.00746 0.0
H3 H 0.29672 0.7923 0.09211 0.0
C4 C 0.29019 0.77466 0.06392 0.0
C5 C 0.21139 0.82922 0.97274 0.0
C6 C 0.18148 0.85509 0.96745 0.0
C7 C 0.23043 0.81164 0.02064 0.0
C8 C 0.2191 0.81959 0.06418 0.0
C9 C 0.18831 0.84441 0.05927 0.0
C10 C 0.16992 0.86212 0.011 0.0
N11 N 0.25934 0.78457 0.02331 0.0
H12 H 0.69969 0.72954 0.71958 0.0
H13 H 0.72216 0.71539 0.57587 0.0
H14 H 0.64341 0.64149 0.64792 0.0
H15 H 0.7854 0.72447 0.62409 0.0
C16 C 0.77715 0.75154 0.63129 0.0
C17 C 0.69446 0.7144 0.68873 0.0
C18 C 0.66833 0.68412 0.68935 0.0
C19 C 0.71491 0.7248 0.64883 0.0
C20 C 0.70757 0.7064 0.60763 0.0
C21 C 0.68099 0.67707 0.60658 0.0
C22 C 0.66209 0.66571 0.6478 0.0
N23 N 0.74293 0.75367 0.65046 0.0
H24 H 0.78809 0.21081 0.97332 0.0
H25 H 0.79511 0.19373 0.13411 0.0
H26 H 0.86185 0.12396 0.07067 0.0
H27 H 0.72973 0.20809 0.10791 0.0
C28 C 0.73225 0.23294 0.07859 0.0
C29 C 0.79952 0.19517 0.0109 0.0
C30 C 0.8276 0.16716 0.01753 0.0
C31 C 0.78644 0.20351 0.05278 0.0
C32 C 0.80305 0.18494 0.10186 0.0
C33 C 0.8311 0.15655 0.10919 0.0
C34 C 0.84181 0.147 0.06636 0.0
N35 N 0.75795 0.23205 0.04478 0.0
H36 H 0.32524 0.3032 0.37492 0.0
H37 H 0.31538 0.30867 0.5276 0.0
H38 H 0.38667 0.38752 0.44787 0.0
H39 H 0.30905 0.24179 0.52926 0.0
C40 C 0.28708 0.24437 0.49588 0.0
C41 C 0.33276 0.31636 0.40749 0.0
C42 C 0.35862 0.34666 0.4063 0.0
C43 C 0.31762 0.30191 0.45143 0.0
C44 C 0.32764 0.31878 0.49399 0.0
C45 C 0.35217 0.34996 0.49248 0.0
C46 C 0.36754 0.36355 0.44875 0.0
N47 N 0.29147 0.27132 0.45148 0.0
C48 C 0.92651 0.10849 0.48593 0.0
C49 C 0.86477 0.0789 0.47762 0.0
C50 C 0.90351 0.07796 0.49979 0.0
C51 C 0.85015 0.11011 0.43976 0.0
C52 C 0.91153 0.14083 0.45007 0.0
C53 C 0.87343 0.14113 0.42626 0.0
N54 N 0.96345 0.10701 0.50863 0.0
C55 C 0.98641 0.13771 0.50014 0.0
C56 C 0.93523 0.17204 0.43972 0.0
C57 C 0.97276 0.17059 0.46522 0.0
Gd58 Gd 0.03877 0.97709 0.51002 0.0
Gd59 Gd 0.98427 0.05161 0.56734 0.0
N60 N 0.91837 0.04866 0.53738 0.0
C61 C 0.84152 0.04924 0.49566 0.0
C62 C 0.89488 0.02191 0.55849 0.0
C63 C 0.85649 0.02105 0.53702 0.0
H64 H 0.90526 1.00146 0.5925 0.0
H65 H 0.83833 0.99907 0.55305 0.0
H66 H 0.12957 0.99984 0.53412 0.0
H67 H 0.01533 0.13656 0.52003 0.0
H68 H 0.18907 0.97287 0.58945 0.0
H69 H 0.81164 0.04884 0.47958 0.0
H70 H 0.82058 0.1111 0.42188 0.0
H71 H 0.97956 0.90223 0.50614 0.0
H72 H 0.92476 0.19746 0.41249 0.0
H73 H 0.99117 0.19473 0.45794 0.0
H74 H 0.15172 0.85187 0.67741 0.0
H75 H 0.86153 0.16549 0.39807 0.0
H76 H 0.02539 0.81042 0.6253 0.0
H77 H 0.97363 0.83777 0.55591 0.0
N78 N 0.03175 0.91355 0.55123 0.0
C79 C 0.06178 0.89796 0.58636 0.0
C80 C 1.00139 0.89155 0.53813 0.0
C81 C 0.02759 0.83929 0.60467 0.0
C82 C 0.99826 0.85463 0.56562 0.0
C83 C 0.06048 0.86047 0.61424 0.0
H84 H 0.09214 0.81598 0.67059 0.0
N85 N 0.09584 0.95354 0.56181 0.0
C86 C 0.09515 0.9183 0.59102 0.0
C87 C 0.16221 0.92198 0.62302 0.0
C88 C 0.12823 0.90172 0.62303 0.0
C89 C 0.12921 0.97258 0.55941 0.0
C90 C 0.1628 0.95735 0.59052 0.0
O91 O 0.99029 0.06216 0.48496 0.0
O92 O 0.9831 1.00298 0.46664 0.0
O93 O 0.06354 0.99682 0.44281 0.0
O94 O 0.0503 0.93744 0.46396 0.0
O95 O 0.96916 0.98912 0.58573 0.0
O96 O 0.97608 0.96774 0.5141 0.0
O97 O 0.06274 0.99225 0.58564 0.0
O98 O 0.00993 0.99837 0.61951 0.0
O99 O 0.95237 0.07362 0.61603 0.0
O100 O 0.01263 0.0836 0.62205 0.0
O101 O 0.06189 0.03711 0.49873 0.0
O102 O 0.04511 0.06731 0.55979 0.0
C103 C 0.97653 0.03973 0.45408 0.0
C104 C 0.96032 0.96555 0.55451 0.0
C105 C 0.04746 0.96286 0.37734 0.0
C106 C 0.05652 0.94667 0.29804 0.0
C107 C 0.99838 0.97835 0.30312 0.0
C108 C 0.0117 0.97844 0.35406 0.0
C109 C 0.02064 0.96267 0.27514 0.0
C110 C 0.06968 0.94685 0.3494 0.0
C111 C 0.06237 0.96364 0.43044 0.0
C112 C 0.1266 0.86509 0.65257 0.0
C113 C 0.09268 0.84463 0.64857 0.0
H114 H 0.18825 0.91021 0.64708 0.0
C115 C 0.04527 0.98735 0.62458 0.0
C116 C 0.06659 0.06371 0.52631 0.0
C117 C 0.9868 0.07316 0.69717 0.0
C118 C 0.96431 0.07482 0.77566 0.0
C119 C 0.01658 0.03275 0.77567 0.0
C120 C 0.01416 0.04566 0.72374 0.0
C121 C 0.9919 0.0472 0.80159 0.0
C122 C 0.962 0.08765 0.72325 0.0
C123 C 0.98251 0.08566 0.64202 0.0
H124 H 0.97074 0.99045 0.2853 0.0
H125 H 0.9943 0.99074 0.37525 0.0
H126 H 0.00961 0.96264 0.23576 0.0
H127 H 0.09748 0.93512 0.36746 0.0
H128 H 0.03764 0.01148 0.79586 0.0
H129 H 0.03354 0.03405 0.7044 0.0
H130 H 0.99476 0.03711 0.84204 0.0
H131 H 0.94048 0.10841 0.7025 0.0
C132 C 0.6114 0.59714 0.04789 0.0
C133 C 0.58454 0.6596 0.04106 0.0
C134 C 0.58367 0.61972 0.05695 0.0
C135 C 0.61259 0.67605 0.0137 0.0
C136 C 0.64071 0.61356 0.02266 0.0
C137 C 0.64075 0.65309 0.00479 0.0
N138 N 0.61047 0.55907 0.06552 0.0
C139 C 0.63963 0.53601 0.06323 0.0
C140 C 0.66956 0.58981 0.01734 0.0
C141 C 0.66928 0.55093 0.03833 0.0
Gd142 Gd 0.47671 0.49763 1.00176 0.0
Gd143 Gd 0.55827 0.5357 0.10308 0.0
N144 N 0.5575 0.6029 0.08442 0.0
C145 C 0.55821 0.6818 0.05501 0.0
C146 C 0.53427 0.62467 0.10217 0.0
C147 C 0.53347 0.66429 0.08658 0.0
H148 H 0.51614 0.61165 0.12832 0.0
H149 H 0.51409 0.68129 0.09942 0.0
H150 H 0.48585 0.40352 0.02865 0.0
H151 H 0.63914 0.50593 0.07921 0.0
H152 H 0.45192 0.3473 0.06795 0.0
H153 H 0.55785 0.71253 0.04347 0.0
H154 H 0.61353 0.70661 1.00081 0.0
H155 H 0.41067 0.56797 0.96408 0.0
H156 H 0.69261 0.60131 0.99821 0.0
H157 H 0.69183 0.53246 0.03528 0.0
H158 H 0.34022 0.40068 0.10331 0.0
H159 H 0.66305 0.66629 0.98542 0.0
H160 H 0.31554 0.53349 0.03706 0.0
H161 H 0.34835 0.5824 0.98285 0.0
N162 N 0.41517 0.51296 0.0118 0.0
C163 C 0.39632 0.48477 0.03817 0.0
C164 C 0.39735 0.54689 0.98942 0.0
C165 C 0.34335 0.52732 0.03 0.0
C166 C 0.36176 0.55501 0.99939 0.0
C167 C 0.36 0.4912 0.04832 0.0
H168 H 0.31288 0.46535 0.08242 0.0
N169 N 0.44583 0.44318 0.03761 0.0
C170 C 0.41186 0.44851 0.05068 0.0
C171 C 0.4066 0.38078 0.08036 0.0
C172 C 0.39153 0.41752 0.07318 0.0
C173 C 0.45957 0.40734 0.04145 0.0
C174 C 0.44047 0.37562 0.06361 0.0
O175 O 0.56506 0.53442 0.02261 0.0
O176 O 0.50715 0.55179 0.97488 0.0
O177 O 0.49324 0.47539 0.9408 0.0
O178 O 0.43559 0.49446 0.93416 0.0
O179 O 0.49747 0.55519 0.09522 0.0
O180 O 0.47561 0.55923 0.01042 0.0
O181 O 0.49208 0.46559 0.08309 0.0
O182 O 0.50469 0.51188 0.12984 0.0
O183 O 0.58614 0.55703 0.17013 0.0
O184 O 0.5904 0.49703 0.16632 0.0
O185 O 0.53317 0.46636 0.017 0.0
O186 O 0.56858 0.47594 0.09362 0.0
C187 C 0.54424 0.5543 0.98208 0.0
C188 C 0.47489 0.57034 0.05306 0.0
C189 C 0.45992 0.49835 0.85886 0.0
C190 C 0.44639 0.49223 0.77063 0.0
C191 C 0.47634 0.54929 0.79373 0.0
C192 C 0.47537 0.5344 0.84464 0.0
C193 C 0.46226 0.52826 0.75688 0.0
C194 C 0.44518 0.47755 0.82182 0.0
C195 C 0.46009 0.48119 0.91211 0.0
C196 C 0.35628 0.42407 0.0859 0.0
C197 C 0.34066 0.46091 0.07387 0.0
H198 H 0.39187 0.3562 0.09756 0.0
C199 C 0.48931 0.47924 0.1232 0.0
C200 C 0.56119 0.4575 0.05596 0.0
C201 C 0.6241 0.51474 0.24258 0.0
C202 C 0.64681 0.52874 0.32639 0.0
C203 C 0.67114 0.47354 0.3025 0.0
C204 C 0.64792 0.48247 0.25526 0.0
C205 C 0.67068 0.49643 0.33782 0.0
C206 C 0.62377 0.53799 0.27818 0.0
C207 C 0.59967 0.5234 0.19233 0.0
H208 H 0.48806 0.57718 0.78281 0.0
H209 H 0.48682 0.55082 0.8728 0.0
H210 H 0.46332 0.54029 0.71762 0.0
H211 H 0.43353 0.44954 0.83298 0.0
H212 H 0.68963 0.44878 0.31178 0.0
H213 H 0.64883 0.46422 0.22847 0.0
H214 H 0.68937 0.48899 0.374 0.0
H215 H 0.60502 0.56261 0.26882 0.0
C216 C 0.25638 0.1862 0.53677 0.0
C217 C 0.25462 0.21785 0.49702 0.0
C218 C 0.22584 0.16098 0.54013 0.0
C219 C 0.19233 0.16803 0.50337 0.0
C220 C 0.19039 0.20004 0.46308 0.0
C221 C 0.22171 0.22443 0.46012 0.0
C222 C 0.22939 0.12685 0.58317 0.0
C223 C 0.15497 0.20888 0.42361 0.0
C224 C 0.12479 0.0856 0.48933 0.0
C225 C 0.09818 0.09103 0.51938 0.0
C226 C 0.15541 0.11047 0.48362 0.0
C227 C 0.15924 0.14209 0.50765 0.0
C228 C 0.1321 0.14823 0.53715 0.0
C229 C 0.10219 0.12247 0.54309 0.0
C230 C 0.18406 0.10249 0.45256 0.0
C231 C 0.13481 0.18191 0.56281 0.0
H232 H 0.28183 0.18109 0.5653 0.0
H233 H 0.22009 0.24906 0.42954 0.0
H234 H 0.20772 0.12864 0.607 0.0
H235 H 0.22402 0.10037 0.56814 0.0
H236 H 0.25789 0.12459 0.60746 0.0
H237 H 0.15799 0.2348 0.39465 0.0
H238 H 0.14806 0.18457 0.40438 0.0
H239 H 0.13057 0.21309 0.44197 0.0
H240 H 0.1221 0.06153 0.47069 0.0
H241 H 0.08193 0.12708 0.56639 0.0
H242 H 0.21262 0.09817 0.47653 0.0
H243 H 0.18587 0.12723 0.42148 0.0
H244 H 0.17688 0.07687 0.43597 0.0
H245 H 0.16126 0.17975 0.59124 0.0
H246 H 0.1103 0.18386 0.58206 0.0
H247 H 0.13624 0.20868 0.53472 0.0
C248 C 0.30538 0.71517 0.03671 0.0
C249 C 0.31708 0.74425 0.06311 0.0
C250 C 0.33076 0.68642 0.03519 0.0
C251 C 0.36896 0.68729 0.05969 0.0
C252 C 0.38094 0.71673 0.08622 0.0
C253 C 0.35466 0.7446 0.0882 0.0
C254 C 0.31664 0.65496 0.00769 0.0
C255 C 0.42161 0.71901 0.11199 0.0
C256 C 0.42821 0.5964 0.09487 0.0
C257 C 0.44781 0.60017 0.0543 0.0
C258 C 0.40202 0.62427 0.09672 0.0
C259 C 0.39629 0.65723 0.05782 0.0
C260 C 0.41652 0.66134 0.01704 0.0
C261 C 0.44168 0.6324 0.0154 0.0
C262 C 0.38026 0.61823 0.14006 0.0
C263 C 0.41184 0.69642 0.97545 0.0
H264 H 0.27619 0.7146 0.01771 0.0
H265 H 0.36368 0.76717 0.10848 0.0
H266 H 0.33276 0.6547 0.97674 0.0
H267 H 0.32145 0.62698 0.03402 0.0
H268 H 0.28593 0.65806 0.99132 0.0
H269 H 0.4266 0.74425 0.12989 0.0
H270 H 0.42938 0.69303 0.14147 0.0
H271 H 0.44092 0.72036 0.08415 0.0
H272 H 0.43282 0.5712 0.12467 0.0
H273 H 0.4572 0.6353 0.98427 0.0
H274 H 0.3493 0.61928 0.12527 0.0
H275 H 0.38652 0.64139 0.16153 0.0
H276 H 0.38733 0.59053 0.16648 0.0
H277 H 0.38194 0.69926 0.95561 0.0
H278 H 0.4305 0.69569 0.94728 0.0
H279 H 0.4185 0.72217 0.99183 0.0
C280 C 0.83947 0.77764 0.61392 0.0
C281 C 0.80306 0.78424 0.62275 0.0
C282 C 0.86467 0.80767 0.60375 0.0
C283 C 0.85294 0.84548 0.6013 0.0
C284 C 0.81612 0.85238 0.61026 0.0
C285 C 0.79166 0.8216 0.62128 0.0
C286 C 0.90375 0.7989 0.5951 0.0
C287 C 0.80243 0.89232 0.60743 0.0
C288 C 0.93032 0.91913 0.61649 0.0
C289 C 0.93227 0.9355 0.56611 0.0
C290 C 0.90441 0.8901 0.62851 0.0
C291 C 0.87931 0.87762 0.58917 0.0
C292 C 0.88067 0.89468 0.53817 0.0
C293 C 0.90737 0.92322 0.52724 0.0
C294 C 0.90451 0.87221 0.68329 0.0
C295 C 0.85413 0.88257 0.49513 0.0
H296 H 0.8483 0.74876 0.61497 0.0
H297 H 0.76341 0.82687 0.62768 0.0
H298 H 0.90665 0.81155 0.55559 0.0
H299 H 0.92578 0.81177 0.62029 0.0
H300 H 0.90944 0.76783 0.60192 0.0
H301 H 0.77303 0.89297 0.61514 0.0
H302 H 0.82152 0.9059 0.63509 0.0
H303 H 0.80332 0.90978 0.56933 0.0
H304 H 0.94971 0.92848 0.64661 0.0
H305 H 0.9086 0.93617 0.48827 0.0
H306 H 0.91168 0.84148 0.69004 0.0
H307 H 0.87584 0.87442 0.69265 0.0
H308 H 0.92523 0.88575 0.70939 0.0
H309 H 0.8597 0.85237 0.49482 0.0
H310 H 0.85731 0.90014 0.45782 0.0
H311 H 0.82426 0.88471 0.50036 0.0
C312 C 0.71194 0.30051 0.04012 0.0
C313 C 0.70672 0.26596 0.07256 0.0
C314 C 0.68828 0.33207 0.03589 0.0
C315 C 0.65852 0.32877 0.06436 0.0
C316 C 0.65286 0.29372 0.0966 0.0
C317 C 0.67723 0.26283 0.10056 0.0
C318 C 0.69547 0.36911 1.0016 0.0
C319 C 0.62123 0.28895 0.1272 0.0
C320 C 0.61954 0.4176 0.09378 0.0
C321 C 0.58616 0.42471 0.05764 0.0
C322 C 0.64355 0.38681 0.0959 0.0
C323 C 0.63382 0.36218 0.06144 0.0
C324 C 0.6002 0.36909 0.0249 0.0
C325 C 0.57689 0.40038 0.02325 0.0
C326 C 0.67932 0.38059 0.13516 0.0
C327 C 0.58868 0.34322 0.98785 0.0
H328 H 0.73488 0.30314 0.01861 0.0
H329 H 0.67319 0.23608 0.12562 0.0
H330 H 0.66967 0.37826 0.97308 0.0
H331 H 0.70186 0.39173 0.02398 0.0
H332 H 0.71949 0.36688 0.98158 0.0
H333 H 0.61984 0.25945 0.14908 0.0
H334 H 0.62533 0.30871 0.15395 0.0
H335 H 0.59354 0.2963 0.10189 0.0
H336 H 0.62714 0.4362 0.12048 0.0
H337 H 0.55118 0.4055 0.99523 0.0
H338 H 0.70441 0.38031 0.11654 0.0
H339 H 0.67842 0.3525 0.16077 0.0
H340 H 0.68333 0.40293 0.1583 0.0
H341 H 0.61133 0.34222 0.96523 0.0
H342 H 0.56176 0.35261 0.96163 0.0
H343 H 0.58509 0.3138 0.00861 0.0
C344 C 0.13583 0.84452 0.10759 0.0
C345 C 0.17393 0.85184 0.10373 0.0
C346 C 0.11935 0.85722 0.14405 0.0
C347 C 0.14145 0.87821 0.17701 0.0
C348 C 0.18053 0.88398 0.17497 0.0
C349 C 0.19642 0.87051 0.13833 0.0
C350 C 0.07774 0.85 0.14535 0.0
C351 C 0.20496 0.90634 0.20933 0.0
C352 C 0.08433 0.94926 0.21988 0.0
C353 C 0.08016 0.92994 0.26836 0.0
C354 C 0.10542 0.93329 0.19057 0.0
C355 C 0.12256 0.89694 0.21005 0.0
C356 C 0.1192 0.87765 0.25944 0.0
C357 C 0.09811 0.89444 0.28809 0.0
C358 C 0.1086 0.95495 0.13822 0.0
C359 C 0.13681 0.83876 0.28135 0.0
H360 H 0.11855 0.82998 0.08073 0.0
H361 H 0.22582 0.8764 0.13491 0.0
H362 H 0.07344 0.83806 0.18452 0.0
H363 H 0.06167 0.87727 0.13254 0.0
H364 H 0.0656 0.83008 0.12068 0.0
H365 H 0.23553 0.90457 0.20702 0.0
H366 H 0.19596 0.93669 0.19863 0.0
H367 H 0.20133 0.89595 0.24912 0.0
H368 H 0.07102 0.97697 0.20482 0.0
H369 H 0.09476 0.87929 0.32545 0.0
H370 H 0.09422 0.93905 0.1096 0.0
H371 H 0.13885 0.95773 0.13388 0.0
H372 H 0.09567 0.98386 0.12993 0.0
H373 H 0.12281 0.81787 0.25945 0.0
H374 H 0.1341 0.82885 0.32163 0.0
H375 H 0.16733 0.83904 0.27834 0.0
C376 C 0.66682 0.67152 0.78331 0.0
C377 C 0.64879 0.67024 0.73379 0.0
C378 C 0.64989 0.65576 0.82538 0.0
C379 C 0.61451 0.63723 0.81823 0.0
C380 C 0.59581 0.63646 0.76851 0.0
C381 C 0.61266 0.65367 0.7271 0.0
C382 C 0.66989 0.65899 0.87753 0.0
C383 C 0.55844 0.61638 0.75901 0.0
C384 C 0.59148 0.55883 0.92456 0.0
C385 C 0.56273 0.5759 0.9413 0.0
C386 C 0.60867 0.57855 0.88474 0.0
C387 C 0.59787 0.61681 0.8625 0.0
C388 C 0.56994 0.63465 0.88104 0.0
C389 C 0.55208 0.61367 0.9195 0.0
C390 C 0.63775 0.55813 0.8657 0.0
C391 C 0.55898 0.67587 0.86035 0.0
H392 H 0.69472 0.68391 0.7896 0.0
H393 H 0.59753 0.65353 0.68932 0.0
H394 H 0.65252 0.67712 0.8934 0.0
H395 H 0.67289 0.63067 0.90316 0.0
H396 H 0.69847 0.67176 0.87723 0.0
H397 H 0.54809 0.61722 0.71818 0.0
H398 H 0.56147 0.58618 0.77903 0.0
H399 H 0.53659 0.62971 0.77421 0.0
H400 H 0.59974 0.52961 0.94173 0.0
H401 H 0.5303 0.627 0.93333 0.0
H402 H 0.66519 0.57329 0.86938 0.0
H403 H 0.62827 0.55802 0.82497 0.0
H404 H 0.64258 0.52825 0.88661 0.0
H405 H 0.58472 0.69379 0.86156 0.0
H406 H 0.53932 0.68637 0.88185 0.0
H407 H 0.54503 0.67961 0.82023 0.0
C408 C 0.88865 0.12566 0.16869 0.0
C409 C 0.85065 0.13798 0.16094 0.0
C410 C 0.90749 0.10762 0.21643 0.0
C411 C 0.88883 0.10366 0.25845 0.0
C412 C 0.85084 0.11649 0.25157 0.0
C413 C 0.83197 0.13284 0.20279 0.0
C414 C 0.9477 0.09332 0.22196 0.0
C415 C 0.83051 0.11417 0.29585 0.0
C416 C 0.92949 0.03287 0.37759 0.0
C417 C 0.9537 0.056 0.40434 0.0
C418 C 0.90806 0.04798 0.33003 0.0
C419 C 0.90989 0.08739 0.30972 0.0
C420 C 0.93379 0.11096 0.33702 0.0
C421 C 0.95606 0.09477 0.38343 0.0
C422 C 0.88415 0.02168 0.30104 0.0
C423 C 0.9357 0.15332 0.31738 0.0
H424 H 0.90425 0.1305 0.1376 0.0
H425 H 0.80259 0.14164 0.19771 0.0
H426 H 0.96755 0.1104 0.24422 0.0
H427 H 0.95042 0.06332 0.24279 0.0
H428 H 0.95671 0.09498 0.18485 0.0
H429 H 0.7997 0.12068 0.28366 0.0
H430 H 0.83407 0.08557 0.32078 0.0
H431 H 0.84314 0.135 0.31873 0.0
H432 H 0.92758 1.00282 0.39358 0.0
H433 H 0.97542 0.11255 0.40334 0.0
H434 H 0.89358 0.02282 0.26433 0.0
H435 H 0.85401 0.03106 0.29259 0.0
H436 H 0.88598 0.9917 0.32209 0.0
H437 H 0.94249 0.1593 0.27867 0.0
H438 H 0.95731 0.16726 0.34186 0.0
H439 H 0.90756 0.16646 0.3152 0.0
C440 C 0.3782 0.3482 0.5838 0.0
C441 C 0.36199 0.36894 0.53616 0.0
C442 C 0.39116 0.36673 0.62403 0.0
C443 C 0.38712 0.40678 0.61645 0.0
C444 C 0.36937 0.42757 0.56884 0.0
C445 C 0.35733 0.40842 0.52916 0.0
C446 C 0.41039 0.34367 0.67402 0.0
C447 C 0.36388 0.47017 0.55945 0.0
C448 C 0.39494 0.45431 0.72974 0.0
C449 C 0.43143 0.46977 0.73178 0.0
C450 C 0.38021 0.43344 0.69268 0.0
C451 C 0.4028 0.42734 0.65745 0.0
C452 C 0.43999 0.44225 0.66007 0.0
C453 C 0.45371 0.46361 0.69692 0.0
C454 C 0.34021 0.4186 0.69054 0.0
C455 C 0.4652 0.43584 0.62374 0.0
H456 H 0.38205 0.31769 0.589 0.0
H457 H 0.34452 0.42437 0.49232 0.0
H458 H 0.44042 0.35252 0.68205 0.0
H459 H 0.39651 0.34906 0.70507 0.0
H460 H 0.40979 0.31264 0.67447 0.0
H461 H 0.34733 0.4817 0.52136 0.0
H462 H 0.34896 0.47783 0.5883 0.0
H463 H 0.3919 0.48426 0.56287 0.0
H464 H 0.37763 0.45926 0.75656 0.0
H465 H 0.4821 0.47518 0.6989 0.0
H466 H 0.34017 0.38736 0.6931 0.0
H467 H 0.32262 0.4315 0.65376 0.0
H468 H 0.32668 0.42503 0.72141 0.0
H469 H 0.46791 0.40493 0.62482 0.0
H470 H 0.49405 0.44764 0.63249 0.0
H471 H 0.45226 0.44939 0.58458 0.0
C472 C 0.70385 0.64603 0.54303 0.0
C473 C 0.67358 0.65764 0.56287 0.0
C474 C 0.69737 0.6268 0.50262 0.0
C475 C 0.65967 0.61918 0.48124 0.0
C476 C 0.62894 0.63151 0.50043 0.0
C477 C 0.63627 0.65042 0.54119 0.0
C478 C 0.73095 0.61379 0.48363 0.0
C479 C 0.58835 0.6243 0.47832 0.0
C480 C 0.64656 0.59228 0.35199 0.0
C481 C 0.64647 0.5524 0.36512 0.0
C482 C 0.64956 0.61454 0.38921 0.0
C483 C 0.65272 0.59647 0.44072 0.0
C484 C 0.65126 0.55632 0.45395 0.0
C485 C 0.64795 0.53484 0.41604 0.0
C486 C 0.65061 0.65731 0.37358 0.0
C487 C 0.65442 0.53591 0.50839 0.0
H488 H 0.73274 0.65122 0.55995 0.0
H489 H 0.61276 0.65977 0.55602 0.0
H490 H 0.7313 0.58227 0.48951 0.0
H491 H 0.72851 0.62505 0.44244 0.0
H492 H 0.7584 0.62313 0.50312 0.0
H493 H 0.56766 0.63757 0.49564 0.0
H494 H 0.58298 0.63561 0.43695 0.0
H495 H 0.58318 0.59323 0.48415 0.0
H496 H 0.64561 0.60608 0.31282 0.0
H497 H 0.64703 0.50408 0.42641 0.0
H498 H 0.67905 0.66766 0.38813 0.0
H499 H 0.62961 0.67065 0.39026 0.0
H500 H 0.64456 0.66707 0.33186 0.0
H501 H 0.68247 0.54168 0.52998 0.0
H502 H 0.65127 0.50463 0.51216 0.0
H503 H 0.63242 0.54665 0.52607 0.0
C504 C 0.8208 0.15281 0.93041 0.0
C505 C 0.844 0.15948 0.9745 0.0
C506 C 0.83672 0.14144 0.89227 0.0
C507 C 0.87661 0.13676 0.89868 0.0
C508 C 0.90011 0.14524 0.94211 0.0
C509 C 0.88352 0.15661 0.97932 0.0
C510 C 0.81085 0.13298 0.84621 0.0
C511 C 0.94278 0.14083 0.95035 0.0
C512 C 0.92251 0.06625 0.84126 0.0
C513 C 0.93833 0.09041 0.80346 0.0
C514 C 0.90054 0.08086 0.87077 0.0
C515 C 0.89411 0.1206 0.86215 0.0
C516 C 0.90836 0.14497 0.82236 0.0
C517 C 0.93042 0.12959 0.79356 0.0
C518 C 0.8858 0.0539 0.91282 0.0
C519 C 0.90196 0.18747 0.81189 0.0
H520 H 0.79024 0.15504 0.92665 0.0
H521 H 0.90154 0.1625 0.01299 0.0
H522 H 0.82089 0.14757 0.81127 0.0
H523 H 0.81138 0.10197 0.84695 0.0
H524 H 0.78105 0.14191 0.84431 0.0
H525 H 0.95706 0.15045 0.98495 0.0
H526 H 0.9504 0.11051 0.95384 0.0
H527 H 0.95409 0.15736 0.91745 0.0
H528 H 0.92783 0.03586 0.84836 0.0
H529 H 0.9427 0.14847 0.76457 0.0
H530 H 0.85502 0.05886 0.91054 0.0
H531 H 0.90046 0.05924 0.94988 0.0
H532 H 0.89038 0.02361 0.91172 0.0
H533 H 0.87168 0.19417 0.81065 0.0
H534 H 0.91042 0.2018 0.77567 0.0
H535 H 0.91884 0.19954 0.8429 0.0
C536 C 0.41581 0.36943 0.36835 0.0
C537 C 0.37693 0.36105 0.36147 0.0
C538 C 0.4332 0.38661 0.32757 0.0
C539 C 0.4113 0.39554 0.27841 0.0
C540 C 0.37235 0.38584 0.27081 0.0
C541 C 0.35563 0.36856 0.31245 0.0
C542 C 0.47482 0.39629 0.33742 0.0
C543 C 0.34825 0.39422 0.21884 0.0
C544 C 0.44922 0.4771 0.18943 0.0
C545 C 0.46846 0.45773 0.16168 0.0
C546 C 0.42935 0.45719 0.22624 0.0
C547 C 0.429 0.41688 0.23585 0.0
C548 C 0.44798 0.39721 0.20736 0.0
C549 C 0.46769 0.4179 0.17082 0.0
C550 C 0.40931 0.47932 0.25552 0.0
C551 C 0.44815 0.35431 0.21618 0.0
H552 H 0.43262 0.363 0.40602 0.0
H553 H 0.3256 0.36215 0.30688 0.0
H554 H 0.49033 0.38373 0.31291 0.0
H555 H 0.47827 0.4276 0.32793 0.0
H556 H 0.48823 0.3859 0.37746 0.0
H557 H 0.31783 0.38777 0.21975 0.0
H558 H 0.35073 0.42456 0.20075 0.0
H559 H 0.35862 0.37681 0.19478 0.0
H560 H 0.44961 0.50792 0.18226 0.0
H561 H 0.48316 0.40286 0.15005 0.0
H562 H 0.42245 0.47259 0.29609 0.0
H563 H 0.37909 0.47088 0.25283 0.0
H564 H 0.41059 0.51055 0.24163 0.0
H565 H 0.46245 0.34232 0.2553 0.0
H566 H 0.46289 0.34343 0.18937 0.0
H567 H 0.41862 0.34369 0.21214 0.0
C568 C 0.15256 0.85481 0.87734 0.0
C569 C 0.16207 0.87474 0.91671 0.0
C570 C 0.13347 0.87299 0.82963 0.0
C571 C 0.12387 0.9121 0.821 0.0
C572 C 0.13363 0.93244 0.8605 0.0
C573 C 0.15258 0.91352 0.90784 0.0
C574 C 0.12434 0.85045 0.78828 0.0
C575 C 0.12353 0.97404 0.85315 0.0
C576 C 0.10505 0.96879 0.6863 0.0
C577 C 0.06535 0.96867 0.67499 0.0
C578 C 0.12451 0.95015 0.73349 0.0
C579 C 0.10365 0.93177 0.77067 0.0
C580 C 0.06348 0.93238 0.75988 0.0
C581 C 0.0448 0.95067 0.71203 0.0
C582 C 0.16736 0.95004 0.7435 0.0
C583 C 0.04027 0.91344 0.79874 0.0
H584 H 0.15954 0.82479 0.88403 0.0
H585 H 0.16025 0.92922 0.93793 0.0
H586 H 0.09493 0.85634 0.76739 0.0
H587 H 0.14392 0.85913 0.76101 0.0
H588 H 0.12781 0.81933 0.80311 0.0
H589 H 0.1376 0.98688 0.88518 0.0
H590 H 0.13151 0.99045 0.81771 0.0
H591 H 0.0924 0.97703 0.84995 0.0
H592 H 0.12094 0.98369 0.65832 0.0
H593 H 0.01404 0.95067 0.70352 0.0
H594 H 0.17814 0.92037 0.75069 0.0
H595 H 0.17805 0.96168 0.77781 0.0
H596 H 0.17928 0.967 0.71131 0.0
H597 H 0.04734 0.88262 0.80999 0.0
H598 H 0.00925 0.91681 0.7845 0.0
H599 H 0.0473 0.92573 0.83321 0.0
loop_
_geom_bond_atom_site_label_1
_geom_bond_atom_site_label_2
_geom_bond_distance
_geom_bond_site_symmetry_2
_ccdc_geom_bond_type
H0 C5 0.930 . S
H1 C8 0.930 . S
H2 C10 0.930 . S
H3 C4 1.016 . S
C4 H3 1.016 . S
C4 N11 1.286 . S
C5 H0 0.930 . S
C5 C6 1.397 . S
C5 C7 1.361 1_556 S
C6 C5 1.397 . S
C6 C10 1.390 1_556 S
C7 C5 1.361 1_554 S
C7 C8 1.393 . S
C7 N11 1.413 . S
C8 H1 0.930 . S
C8 C7 1.393 . S
C8 C9 1.399 . S
C9 C8 1.399 . S
C9 C10 1.381 . S
C10 H2 0.930 . S
C10 C6 1.390 1_554 S
C10 C9 1.381 . S
N11 C4 1.286 . S
N11 C7 1.413 . S
H12 C17 0.930 . S
H13 C20 0.930 . S
H14 C22 0.930 . S
H15 C16 1.016 . S
C16 H15 1.016 . S
C16 N23 1.286 . S
C17 H12 0.930 . S
C17 C18 1.397 . S
C17 C19 1.361 . S
C18 C17 1.397 . S
C18 C22 1.390 . S
C19 C17 1.361 . S
C19 C20 1.393 . S
C19 N23 1.413 . S
C20 H13 0.930 . S
C20 C19 1.393 . S
C20 C21 1.399 . S
C21 C20 1.399 . S
C21 C22 1.381 . S
C22 H14 0.930 . S
C22 C18 1.390 . S
C22 C21 1.381 . S
N23 C16 1.286 . S
N23 C19 1.413 . S
H24 C29 0.930 1_556 S
H25 C32 0.930 . S
H26 C34 0.930 . S
H27 C28 1.016 . S
C28 H27 1.016 . S
C28 N35 1.286 . S
C29 H24 0.930 1_554 S
C29 C30 1.397 . S
C29 C31 1.361 . S
C30 C29 1.397 . S
C30 C34 1.390 . S
C31 C29 1.361 . S
C31 C32 1.393 . S
C31 N35 1.413 . S
C32 H25 0.930 . S
C32 C31 1.393 . S
C32 C33 1.399 . S
C33 C32 1.399 . S
C33 C34 1.381 . S
C34 H26 0.930 . S
C34 C30 1.390 . S
C34 C33 1.381 . S
N35 C28 1.286 . S
N35 C31 1.413 . S
H36 C41 0.930 . S
H37 C44 0.930 . S
H38 C46 0.930 . S
H39 C40 1.016 . S
C40 H39 1.016 . S
C40 N47 1.286 . S
C41 H36 0.930 . S
C41 C42 1.397 . S
C41 C43 1.361 . S
C42 C41 1.397 . S
C42 C46 1.390 . S
C43 C41 1.361 . S
C43 C44 1.393 . S
C43 N47 1.413 . S
C44 H37 0.930 . S
C44 C43 1.393 . S
C44 C45 1.399 . S
C45 C44 1.399 . S
C45 C46 1.381 . S
C46 H38 0.930 . S
C46 C42 1.390 . S
C46 C45 1.381 . S
N47 C40 1.286 . S
N47 C43 1.413 . S
C48 C50 1.422 . S
C48 C52 1.415 . S
C48 N54 1.369 . S
C49 C50 1.421 . S
C49 C51 1.417 . S
C49 C61 1.422 . S
C50 C48 1.422 . S
C50 C49 1.421 . S
C50 N60 1.359 . S
C51 C49 1.417 . S
C51 C53 1.329 . S
C51 H70 0.930 . S
C52 C48 1.415 . S
C52 C53 1.437 . S
C52 C56 1.413 . S
C53 C51 1.329 . S
C53 C52 1.437 . S
C53 H75 0.929 . S
N54 C48 1.369 . S
N54 C55 1.338 1_655 S
N54 Gd59 2.622 . S
C55 N54 1.338 1_455 S
C55 C57 1.378 . S
C55 H67 0.929 . S
C56 C52 1.413 . S
C56 C57 1.348 1_655 S
C56 H72 0.931 . S
C57 C55 1.378 . S
C57 C56 1.348 1_455 S
C57 H73 0.930 . S
Gd58 N78 2.622 . S
Gd58 N85 2.570 . S
Gd58 O92 2.353 1_465 S
Gd58 O93 2.468 . S
Gd58 O94 2.427 . S
Gd58 O96 2.388 1_455 S
Gd58 O97 2.386 . S
Gd58 O101 2.307 1_565 S
Gd58 C111 2.805 . S
Gd59 N54 2.622 . S
Gd59 N60 2.570 . S
Gd59 O91 2.386 . S
Gd59 O95 2.307 1_545 S
Gd59 O98 2.353 1_655 S
Gd59 O99 2.468 . S
Gd59 O100 2.427 . S
Gd59 O102 2.388 1_655 S
Gd59 C123 2.805 . S
N60 C50 1.359 . S
N60 Gd59 2.570 . S
N60 C62 1.343 . S
C61 C49 1.422 . S
C61 C63 1.321 . S
C61 H69 0.931 . S
C62 N60 1.343 . S
C62 C63 1.390 . S
C62 H64 0.931 . S
C63 C61 1.321 . S
C63 C62 1.390 . S
C63 H65 0.930 . S
H64 C62 0.931 . S
H65 C63 0.930 . S
H66 C89 0.931 . S
H67 C55 0.929 . S
H68 C90 0.930 . S
H69 C61 0.931 . S
H70 C51 0.930 . S
H71 C80 0.929 1_655 S
H72 C56 0.931 . S
H73 C57 0.930 . S
H74 C112 0.930 . S
H75 C53 0.929 . S
H76 C81 0.931 . S
H77 C82 0.930 1_655 S
N78 Gd58 2.622 . S
N78 C79 1.369 . S
N78 C80 1.338 . S
C79 N78 1.369 . S
C79 C83 1.415 . S
C79 C86 1.422 . S
C80 H71 0.929 1_455 S
C80 N78 1.338 . S
C80 C82 1.378 . S
C81 H76 0.931 . S
C81 C82 1.348 . S
C81 C83 1.413 . S
C82 H77 0.930 1_455 S
C82 C80 1.378 . S
C82 C81 1.348 . S
C83 C79 1.415 . S
C83 C81 1.413 . S
C83 C113 1.437 . S
H84 C113 0.929 . S
N85 Gd58 2.570 . S
N85 C86 1.359 . S
N85 C89 1.343 . S
C86 C79 1.422 . S
C86 N85 1.359 . S
C86 C88 1.421 . S
C87 C88 1.422 . S
C87 C90 1.321 . S
C87 H114 0.931 . S
C88 C86 1.421 . S
C88 C87 1.422 . S
C88 C112 1.417 . S
C89 H66 0.931 . S
C89 N85 1.343 . S
C89 C90 1.390 . S
C90 H68 0.930 . S
C90 C87 1.321 . S
C90 C89 1.390 . S
O91 Gd59 2.386 . S
O91 C103 1.265 . S
O92 Gd58 2.353 1_645 S
O92 C103 1.242 . S
O93 Gd58 2.468 . S
O93 C111 1.263 . S
O94 Gd58 2.427 . S
O94 C111 1.252 . S
O95 Gd59 2.307 1_565 S
O95 C104 1.261 . S
O96 Gd58 2.388 1_655 S
O96 C104 1.252 . S
O97 Gd58 2.386 . S
O97 C115 1.265 . S
O98 Gd59 2.353 1_455 S
O98 C115 1.242 1_545 S
O99 Gd59 2.468 . S
O99 C123 1.263 . S
O100 Gd59 2.427 . S
O100 C123 1.252 . S
O101 Gd58 2.307 1_545 S
O101 C116 1.261 . S
O102 Gd59 2.388 1_455 S
O102 C116 1.252 . S
C103 O91 1.265 . S
C103 O92 1.242 . S
C104 O95 1.261 . S
C104 O96 1.252 . S
C105 C108 1.394 . S
C105 C110 1.370 . S
C105 C111 1.500 . S
C106 C109 1.383 . S
C106 C110 1.395 . S
C107 C108 1.396 . S
C107 C109 1.365 . S
C107 H124 0.929 . S
C108 C105 1.394 . S
C108 C107 1.396 . S
C108 H125 0.930 . S
C109 C106 1.383 . S
C109 C107 1.365 . S
C109 H126 0.931 . S
C110 C105 1.370 . S
C110 C106 1.395 . S
C110 H127 0.930 . S
C111 Gd58 2.805 . S
C111 O93 1.263 . S
C111 O94 1.252 . S
C111 C105 1.500 . S
C112 H74 0.930 . S
C112 C88 1.417 . S
C112 C113 1.329 . S
C113 C83 1.437 . S
C113 H84 0.929 . S
C113 C112 1.329 . S
H114 C87 0.931 . S
C115 O97 1.265 . S
C115 O98 1.242 1_565 S
C116 O101 1.261 . S
C116 O102 1.252 . S
C117 C120 1.394 . S
C117 C122 1.370 . S
C117 C123 1.500 . S
C118 C121 1.383 . S
C118 C122 1.395 . S
C119 C120 1.396 . S
C119 C121 1.365 . S
C119 H128 0.929 . S
C120 C117 1.394 . S
C120 C119 1.396 . S
C120 H129 0.930 . S
C121 C118 1.383 . S
C121 C119 1.365 . S
C121 H130 0.931 . S
C122 C117 1.370 . S
C122 C118 1.395 . S
C122 H131 0.930 . S
C123 Gd59 2.805 . S
C123 O99 1.263 . S
C123 O100 1.252 . S
C123 C117 1.500 . S
H124 C107 0.929 . S
H125 C108 0.930 . S
H126 C109 0.931 . S
H127 C110 0.930 . S
H128 C119 0.929 . S
H129 C120 0.930 . S
H130 C121 0.931 . S
H131 C122 0.930 . S
C132 C134 1.422 . S
C132 C136 1.415 . S
C132 N138 1.369 . S
C133 C134 1.421 . S
C133 C135 1.417 . S
C133 C145 1.422 . S
C134 C132 1.422 . S
C134 C133 1.421 . S
C134 N144 1.359 . S
C135 C133 1.417 . S
C135 C137 1.329 . S
C135 H154 0.930 . S
C136 C132 1.415 . S
C136 C137 1.437 . S
C136 C140 1.413 . S
C137 C135 1.329 . S
C137 C136 1.437 . S
C137 H159 0.929 . S
N138 C132 1.369 . S
N138 C139 1.338 . S
N138 Gd143 2.622 . S
C139 N138 1.338 . S
C139 C141 1.378 . S
C139 H151 0.929 . S
C140 C136 1.413 . S
C140 C141 1.348 . S
C140 H156 0.931 . S
C141 C139 1.378 . S
C141 C140 1.348 . S
C141 H157 0.930 . S
Gd142 N162 2.619 1_556 S
Gd142 N169 2.568 1_556 S
Gd142 O176 2.358 . S
Gd142 O177 2.478 . S
Gd142 O178 2.437 . S
Gd142 O180 2.384 1_556 S
Gd142 O181 2.375 1_556 S
Gd142 O185 2.305 1_556 S
Gd142 C195 2.816 . S
Gd143 N138 2.622 . S
Gd143 N144 2.570 . S
Gd143 O175 2.386 . S
Gd143 O179 2.307 . S
Gd143 O182 2.353 . S
Gd143 O183 2.468 . S
Gd143 O184 2.427 . S
Gd143 O186 2.388 . S
Gd143 C207 2.805 . S
N144 C134 1.359 . S
N144 Gd143 2.570 . S
N144 C146 1.343 . S
C145 C133 1.422 . S
C145 C147 1.321 . S
C145 H153 0.931 . S
C146 N144 1.343 . S
C146 C147 1.390 . S
C146 H148 0.931 . S
C147 C145 1.321 . S
C147 C146 1.390 . S
C147 H149 0.930 . S
H148 C146 0.931 . S
H149 C147 0.930 . S
H150 C173 0.931 . S
H151 C139 0.929 . S
H152 C174 0.930 . S
H153 C145 0.931 . S
H154 C135 0.930 . S
H155 C164 0.929 . S
H156 C140 0.931 . S
H157 C141 0.930 . S
H158 C196 0.930 . S
H159 C137 0.929 . S
H160 C165 0.931 . S
H161 C166 0.929 . S
N162 Gd142 2.619 1_554 S
N162 C163 1.369 . S
N162 C164 1.338 1_554 S
C163 N162 1.369 . S
C163 C167 1.415 . S
C163 C170 1.422 . S
C164 H155 0.929 . S
C164 N162 1.338 1_556 S
C164 C166 1.384 . S
C165 H160 0.931 . S
C165 C166 1.343 1_554 S
C165 C167 1.413 . S
C166 H161 0.929 . S
C166 C164 1.384 . S
C166 C165 1.343 1_556 S
C167 C163 1.415 . S
C167 C165 1.413 . S
C167 C197 1.437 . S
H168 C197 0.929 . S
N169 Gd142 2.568 1_554 S
N169 C170 1.359 . S
N169 C173 1.343 . S
C170 C163 1.422 . S
C170 N169 1.359 . S
C170 C172 1.421 . S
C171 C172 1.422 . S
C171 C174 1.321 . S
C171 H198 0.931 . S
C172 C170 1.421 . S
C172 C171 1.422 . S
C172 C196 1.417 . S
C173 H150 0.931 . S
C173 N169 1.343 . S
C173 C174 1.390 . S
C174 H152 0.930 . S
C174 C171 1.321 . S
C174 C173 1.390 . S
O175 Gd143 2.386 . S
O175 C187 1.265 1_554 S
O176 Gd142 2.358 . S
O176 C187 1.242 . S
O177 Gd142 2.478 . S
O177 C195 1.263 . S
O178 Gd142 2.437 . S
O178 C195 1.252 . S
O179 Gd143 2.307 . S
O179 C188 1.261 . S
O180 Gd142 2.384 1_554 S
O180 C188 1.252 . S
O181 Gd142 2.375 1_554 S
O181 C199 1.265 . S
O182 Gd143 2.353 . S
O182 C199 1.242 . S
O183 Gd143 2.468 . S
O183 C207 1.263 . S
O184 Gd143 2.427 . S
O184 C207 1.252 . S
O185 Gd142 2.305 1_554 S
O185 C200 1.261 . S
O186 Gd143 2.388 . S
O186 C200 1.252 . S
C187 O175 1.265 1_556 S
C187 O176 1.242 . S
C188 O179 1.261 . S
C188 O180 1.252 . S
C189 C192 1.394 . S
C189 C194 1.370 . S
C189 C195 1.500 . S
C190 C193 1.383 . S
C190 C194 1.395 . S
C191 C192 1.396 . S
C191 C193 1.365 . S
C191 H208 0.929 . S
C192 C189 1.394 . S
C192 C191 1.396 . S
C192 H209 0.930 . S
C193 C190 1.383 . S
C193 C191 1.365 . S
C193 H210 0.931 . S
C194 C189 1.370 . S
C194 C190 1.395 . S
C194 H211 0.930 . S
C195 Gd142 2.816 . S
C195 O177 1.263 . S
C195 O178 1.252 . S
C195 C189 1.500 . S
C196 H158 0.930 . S
C196 C172 1.417 . S
C196 C197 1.329 . S
C197 C167 1.437 . S
C197 H168 0.929 . S
C197 C196 1.329 . S
H198 C171 0.931 . S
C199 O181 1.265 . S
C199 O182 1.242 . S
C200 O185 1.261 . S
C200 O186 1.252 . S
C201 C204 1.394 . S
C201 C206 1.370 . S
C201 C207 1.500 . S
C202 C205 1.383 . S
C202 C206 1.395 . S
C203 C204 1.396 . S
C203 C205 1.365 . S
C203 H212 0.929 . S
C204 C201 1.394 . S
C204 C203 1.396 . S
C204 H213 0.930 . S
C205 C202 1.383 . S
C205 C203 1.365 . S
C205 H214 0.931 . S
C206 C201 1.370 . S
C206 C202 1.395 . S
C206 H215 0.930 . S
C207 Gd143 2.805 . S
C207 O183 1.263 . S
C207 O184 1.252 . S
C207 C201 1.500 . S
H208 C191 0.929 . S
H209 C192 0.930 . S
H210 C193 0.931 . S
H211 C194 0.930 . S
H212 C203 0.929 . S
H213 C204 0.930 . S
H214 C205 0.931 . S
H215 C206 0.930 . S
C216 C217 1.391 . S
C216 C218 1.394 . S
C216 H232 0.931 . S
C217 C216 1.391 . S
C217 C221 1.376 . S
C218 C216 1.394 . S
C218 C219 1.369 . S
C218 C222 1.531 . S
C219 C218 1.369 . S
C219 C220 1.410 . S
C219 C227 1.503 . S
C220 C219 1.410 . S
C220 C221 1.392 . S
C220 C223 1.511 . S
C221 C217 1.376 . S
C221 C220 1.392 . S
C221 H233 0.929 . S
C222 C218 1.531 . S
C222 H234 0.960 . S
C222 H235 0.962 . S
C222 H236 0.960 . S
C223 C220 1.511 . S
C223 H237 0.961 . S
C223 H238 0.961 . S
C223 H239 0.961 . S
C224 C225 1.370 . S
C224 C226 1.363 . S
C224 H240 0.931 . S
C225 C224 1.370 . S
C225 C229 1.408 . S
C226 C224 1.363 . S
C226 C227 1.370 . S
C226 C230 1.524 . S
C227 C219 1.503 . S
C227 C226 1.370 . S
C227 C228 1.403 . S
C228 C227 1.403 . S
C228 C229 1.404 . S
C228 C231 1.539 . S
C229 C225 1.408 . S
C229 C228 1.404 . S
C229 H241 0.930 . S
C230 C226 1.524 . S
C230 H242 0.956 . S
C230 H243 0.961 . S
C230 H244 0.961 . S
C231 C228 1.539 . S
C231 H245 0.958 . S
C231 H246 0.961 . S
C231 H247 0.960 . S
H232 C216 0.931 . S
H233 C221 0.929 . S
H234 C222 0.960 . S
H235 C222 0.962 . S
H236 C222 0.960 . S
H237 C223 0.961 . S
H238 C223 0.961 . S
H239 C223 0.961 . S
H240 C224 0.931 . S
H241 C229 0.930 . S
H242 C230 0.956 . S
H243 C230 0.961 . S
H244 C230 0.961 . S
H245 C231 0.958 . S
H246 C231 0.961 . S
H247 C231 0.960 . S
C248 C249 1.391 . S
C248 C250 1.394 . S
C248 H264 0.931 1_554 S
C249 C248 1.391 . S
C249 C253 1.376 . S
C250 C248 1.394 . S
C250 C251 1.369 . S
C250 C254 1.531 1_554 S
C251 C250 1.369 . S
C251 C252 1.410 . S
C251 C259 1.503 . S
C252 C251 1.410 . S
C252 C253 1.392 . S
C252 C255 1.511 . S
C253 C249 1.376 . S
C253 C252 1.392 . S
C253 H265 0.929 . S
C254 C250 1.531 1_556 S
C254 H266 0.960 . S
C254 H267 0.962 . S
C254 H268 0.960 . S
C255 C252 1.511 . S
C255 H269 0.961 . S
C255 H270 0.961 . S
C255 H271 0.961 . S
C256 C257 1.370 . S
C256 C258 1.363 . S
C256 H272 0.931 . S
C257 C256 1.370 . S
C257 C261 1.408 . S
C258 C256 1.363 . S
C258 C259 1.370 . S
C258 C262 1.524 . S
C259 C251 1.503 . S
C259 C258 1.370 . S
C259 C260 1.403 . S
C260 C259 1.403 . S
C260 C261 1.404 . S
C260 C263 1.539 . S
C261 C257 1.408 . S
C261 C260 1.404 . S
C261 H273 0.930 . S
C262 C258 1.524 . S
C262 H274 0.956 . S
C262 H275 0.961 . S
C262 H276 0.961 . S
C263 C260 1.539 . S
C263 H277 0.958 1_554 S
C263 H278 0.961 . S
C263 H279 0.960 . S
H264 C248 0.931 1_556 S
H265 C253 0.929 . S
H266 C254 0.960 . S
H267 C254 0.962 . S
H268 C254 0.960 . S
H269 C255 0.961 . S
H270 C255 0.961 . S
H271 C255 0.961 . S
H272 C256 0.931 . S
H273 C261 0.930 . S
H274 C262 0.956 . S
H275 C262 0.961 . S
H276 C262 0.961 . S
H277 C263 0.958 1_556 S
H278 C263 0.961 . S
H279 C263 0.960 . S
C280 C281 1.391 . S
C280 C282 1.394 . S
C280 H296 0.931 . S
C281 C280 1.391 . S
C281 C285 1.376 . S
C282 C280 1.394 . S
C282 C283 1.369 . S
C282 C286 1.531 . S
C283 C282 1.369 . S
C283 C284 1.410 . S
C283 C291 1.503 . S
C284 C283 1.410 . S
C284 C285 1.392 . S
C284 C287 1.511 . S
C285 C281 1.376 . S
C285 C284 1.392 . S
C285 H297 0.929 . S
C286 C282 1.531 . S
C286 H298 0.960 . S
C286 H299 0.962 . S
C286 H300 0.960 . S
C287 C284 1.511 . S
C287 H301 0.961 . S
C287 H302 0.961 . S
C287 H303 0.961 . S
C288 C289 1.370 . S
C288 C290 1.363 . S
C288 H304 0.931 . S
C289 C288 1.370 . S
C289 C293 1.408 . S
C290 C288 1.363 . S
C290 C291 1.370 . S
C290 C294 1.524 . S
C291 C283 1.503 . S
C291 C290 1.370 . S
C291 C292 1.403 . S
C292 C291 1.403 . S
C292 C293 1.404 . S
C292 C295 1.539 . S
C293 C289 1.408 . S
C293 C292 1.404 . S
C293 H305 0.930 . S
C294 C290 1.524 . S
C294 H306 0.956 . S
C294 H307 0.961 . S
C294 H308 0.961 . S
C295 C292 1.539 . S
C295 H309 0.958 . S
C295 H310 0.961 . S
C295 H311 0.960 . S
H296 C280 0.931 . S
H297 C285 0.929 . S
H298 C286 0.960 . S
H299 C286 0.962 . S
H300 C286 0.960 . S
H301 C287 0.961 . S
H302 C287 0.961 . S
H303 C287 0.961 . S
H304 C288 0.931 . S
H305 C293 0.930 . S
H306 C294 0.956 . S
H307 C294 0.961 . S
H308 C294 0.961 . S
H309 C295 0.958 . S
H310 C295 0.961 . S
H311 C295 0.960 . S
C312 C313 1.391 . S
C312 C314 1.394 . S
C312 H328 0.931 . S
C313 C312 1.391 . S
C313 C317 1.376 . S
C314 C312 1.394 . S
C314 C315 1.369 . S
C314 C318 1.531 1_554 S
C315 C314 1.369 . S
C315 C316 1.410 . S
C315 C323 1.503 . S
C316 C315 1.410 . S
C316 C317 1.392 . S
C316 C319 1.511 . S
C317 C313 1.376 . S
C317 C316 1.392 . S
C317 H329 0.929 . S
C318 C314 1.531 1_556 S
C318 H330 0.960 . S
C318 H331 0.962 1_556 S
C318 H332 0.960 . S
C319 C316 1.511 . S
C319 H333 0.961 . S
C319 H334 0.961 . S
C319 H335 0.961 . S
C320 C321 1.370 . S
C320 C322 1.363 . S
C320 H336 0.931 . S
C321 C320 1.370 . S
C321 C325 1.408 . S
C322 C320 1.363 . S
C322 C323 1.370 . S
C322 C326 1.524 . S
C323 C315 1.503 . S
C323 C322 1.370 . S
C323 C324 1.409 . S
C324 C323 1.409 . S
C324 C325 1.408 . S
C324 C327 1.529 1_554 S
C325 C321 1.408 . S
C325 C324 1.408 . S
C325 H337 0.930 1_554 S
C326 C322 1.524 . S
C326 H338 0.956 . S
C326 H339 0.961 . S
C326 H340 0.961 . S
C327 C324 1.529 1_556 S
C327 H341 0.958 . S
C327 H342 0.961 . S
C327 H343 0.960 . S
H328 C312 0.931 . S
H329 C317 0.929 . S
H330 C318 0.960 . S
H331 C318 0.962 1_554 S
H332 C318 0.960 . S
H333 C319 0.961 . S
H334 C319 0.961 . S
H335 C319 0.961 . S
H336 C320 0.931 . S
H337 C325 0.930 1_556 S
H338 C326 0.956 . S
H339 C326 0.961 . S
H340 C326 0.961 . S
H341 C327 0.958 . S
H342 C327 0.961 . S
H343 C327 0.960 . S
C344 C345 1.391 . S
C344 C346 1.394 . S
C344 H360 0.931 . S
C345 C344 1.391 . S
C345 C349 1.376 . S
C346 C344 1.394 . S
C346 C347 1.369 . S
C346 C350 1.531 . S
C347 C346 1.369 . S
C347 C348 1.410 . S
C347 C355 1.503 . S
C348 C347 1.410 . S
C348 C349 1.392 . S
C348 C351 1.511 . S
C349 C345 1.376 . S
C349 C348 1.392 . S
C349 H361 0.929 . S
C350 C346 1.531 . S
C350 H362 0.960 . S
C350 H363 0.962 . S
C350 H364 0.960 . S
C351 C348 1.511 . S
C351 H365 0.961 . S
C351 H366 0.961 . S
C351 H367 0.961 . S
C352 C353 1.370 . S
C352 C354 1.363 . S
C352 H368 0.931 . S
C353 C352 1.370 . S
C353 C357 1.408 . S
C354 C352 1.363 . S
C354 C355 1.370 . S
C354 C358 1.524 . S
C355 C347 1.503 . S
C355 C354 1.370 . S
C355 C356 1.403 . S
C356 C355 1.403 . S
C356 C357 1.404 . S
C356 C359 1.539 . S
C357 C353 1.408 . S
C357 C356 1.404 . S
C357 H369 0.930 . S
C358 C354 1.524 . S
C358 H370 0.956 . S
C358 H371 0.961 . S
C358 H372 0.961 1_565 S
C359 C356 1.539 . S
C359 H373 0.958 . S
C359 H374 0.961 . S
C359 H375 0.960 . S
H360 C344 0.931 . S
H361 C349 0.929 . S
H362 C350 0.960 . S
H363 C350 0.962 . S
H364 C350 0.960 . S
H365 C351 0.961 . S
H366 C351 0.961 . S
H367 C351 0.961 . S
H368 C352 0.931 . S
H369 C357 0.930 . S
H370 C358 0.956 . S
H371 C358 0.961 . S
H372 C358 0.961 1_545 S
H373 C359 0.958 . S
H374 C359 0.961 . S
H375 C359 0.960 . S
C376 C377 1.391 . S
C376 C378 1.394 . S
C376 H392 0.931 . S
C377 C376 1.391 . S
C377 C381 1.376 . S
C378 C376 1.394 . S
C378 C379 1.369 . S
C378 C382 1.531 . S
C379 C378 1.369 . S
C379 C380 1.410 . S
C379 C387 1.503 . S
C380 C379 1.410 . S
C380 C381 1.392 . S
C380 C383 1.511 . S
C381 C377 1.376 . S
C381 C380 1.392 . S
C381 H393 0.929 . S
C382 C378 1.531 . S
C382 H394 0.960 . S
C382 H395 0.962 . S
C382 H396 0.960 . S
C383 C380 1.511 . S
C383 H397 0.961 . S
C383 H398 0.961 . S
C383 H399 0.961 . S
C384 C385 1.370 . S
C384 C386 1.363 . S
C384 H400 0.931 . S
C385 C384 1.370 . S
C385 C389 1.408 . S
C386 C384 1.363 . S
C386 C387 1.370 . S
C386 C390 1.524 . S
C387 C379 1.503 . S
C387 C386 1.370 . S
C387 C388 1.403 . S
C388 C387 1.403 . S
C388 C389 1.404 . S
C388 C391 1.539 . S
C389 C385 1.408 . S
C389 C388 1.404 . S
C389 H401 0.930 . S
C390 C386 1.524 . S
C390 H402 0.956 . S
C390 H403 0.961 . S
C390 H404 0.961 . S
C391 C388 1.539 . S
C391 H405 0.958 . S
C391 H406 0.961 . S
C391 H407 0.960 . S
H392 C376 0.931 . S
H393 C381 0.929 . S
H394 C382 0.960 . S
H395 C382 0.962 . S
H396 C382 0.960 . S
H397 C383 0.961 . S
H398 C383 0.961 . S
H399 C383 0.961 . S
H400 C384 0.931 . S
H401 C389 0.930 . S
H402 C390 0.956 . S
H403 C390 0.961 . S
H404 C390 0.961 . S
H405 C391 0.958 . S
H406 C391 0.961 . S
H407 C391 0.960 . S
C408 C409 1.391 . S
C408 C410 1.394 . S
C408 H424 0.931 . S
C409 C408 1.391 . S
C409 C413 1.376 . S
C410 C408 1.394 . S
C410 C411 1.369 . S
C410 C414 1.531 . S
C411 C410 1.369 . S
C411 C412 1.410 . S
C411 C419 1.503 . S
C412 C411 1.410 . S
C412 C413 1.392 . S
C412 C415 1.511 . S
C413 C409 1.376 . S
C413 C412 1.392 . S
C413 H425 0.929 . S
C414 C410 1.531 . S
C414 H426 0.960 . S
C414 H427 0.962 . S
C414 H428 0.960 . S
C415 C412 1.511 . S
C415 H429 0.961 . S
C415 H430 0.961 . S
C415 H431 0.961 . S
C416 C417 1.370 . S
C416 C418 1.363 . S
C416 H432 0.931 . S
C417 C416 1.370 . S
C417 C421 1.408 . S
C418 C416 1.363 . S
C418 C419 1.370 . S
C418 C422 1.524 . S
C419 C411 1.503 . S
C419 C418 1.370 . S
C419 C420 1.403 . S
C420 C419 1.403 . S
C420 C421 1.404 . S
C420 C423 1.539 . S
C421 C417 1.408 . S
C421 C420 1.404 . S
C421 H433 0.930 . S
C422 C418 1.524 . S
C422 H434 0.956 . S
C422 H435 0.961 . S
C422 H436 0.961 1_545 S
C423 C420 1.539 . S
C423 H437 0.958 . S
C423 H438 0.961 . S
C423 H439 0.960 . S
H424 C408 0.931 . S
H425 C413 0.929 . S
H426 C414 0.960 . S
H427 C414 0.962 . S
H428 C414 0.960 . S
H429 C415 0.961 . S
H430 C415 0.961 . S
H431 C415 0.961 . S
H432 C416 0.931 . S
H433 C421 0.930 . S
H434 C422 0.956 . S
H435 C422 0.961 . S
H436 C422 0.961 1_565 S
H437 C423 0.958 . S
H438 C423 0.961 . S
H439 C423 0.960 . S
C440 C441 1.391 . S
C440 C442 1.394 . S
C440 H456 0.931 . S
C441 C440 1.391 . S
C441 C445 1.376 . S
C442 C440 1.394 . S
C442 C443 1.369 . S
C442 C446 1.531 . S
C443 C442 1.369 . S
C443 C444 1.410 . S
C443 C451 1.503 . S
C444 C443 1.410 . S
C444 C445 1.392 . S
C444 C447 1.511 . S
C445 C441 1.376 . S
C445 C444 1.392 . S
C445 H457 0.929 . S
C446 C442 1.531 . S
C446 H458 0.960 . S
C446 H459 0.962 . S
C446 H460 0.960 . S
C447 C444 1.511 . S
C447 H461 0.961 . S
C447 H462 0.961 . S
C447 H463 0.961 . S
C448 C449 1.370 . S
C448 C450 1.363 . S
C448 H464 0.931 . S
C449 C448 1.370 . S
C449 C453 1.408 . S
C450 C448 1.363 . S
C450 C451 1.370 . S
C450 C454 1.524 . S
C451 C443 1.503 . S
C451 C450 1.370 . S
C451 C452 1.403 . S
C452 C451 1.403 . S
C452 C453 1.404 . S
C452 C455 1.539 . S
C453 C449 1.408 . S
C453 C452 1.404 . S
C453 H465 0.930 . S
C454 C450 1.524 . S
C454 H466 0.956 . S
C454 H467 0.961 . S
C454 H468 0.961 . S
C455 C452 1.539 . S
C455 H469 0.958 . S
C455 H470 0.961 . S
C455 H471 0.960 . S
H456 C440 0.931 . S
H457 C445 0.929 . S
H458 C446 0.960 . S
H459 C446 0.962 . S
H460 C446 0.960 . S
H461 C447 0.961 . S
H462 C447 0.961 . S
H463 C447 0.961 . S
H464 C448 0.931 . S
H465 C453 0.930 . S
H466 C454 0.956 . S
H467 C454 0.961 . S
H468 C454 0.961 . S
H469 C455 0.958 . S
H470 C455 0.961 . S
H471 C455 0.960 . S
C472 C473 1.391 . S
C472 C474 1.394 . S
C472 H488 0.931 . S
C473 C472 1.391 . S
C473 C477 1.376 . S
C474 C472 1.394 . S
C474 C475 1.369 . S
C474 C478 1.531 . S
C475 C474 1.369 . S
C475 C476 1.410 . S
C475 C483 1.503 . S
C476 C475 1.410 . S
C476 C477 1.392 . S
C476 C479 1.511 . S
C477 C473 1.376 . S
C477 C476 1.392 . S
C477 H489 0.929 . S
C478 C474 1.531 . S
C478 H490 0.960 . S
C478 H491 0.962 . S
C478 H492 0.960 . S
C479 C476 1.511 . S
C479 H493 0.961 . S
C479 H494 0.961 . S
C479 H495 0.961 . S
C480 C481 1.370 . S
C480 C482 1.363 . S
C480 H496 0.931 . S
C481 C480 1.370 . S
C481 C485 1.408 . S
C482 C480 1.363 . S
C482 C483 1.370 . S
C482 C486 1.524 . S
C483 C475 1.503 . S
C483 C482 1.370 . S
C483 C484 1.403 . S
C484 C483 1.403 . S
C484 C485 1.404 . S
C484 C487 1.539 . S
C485 C481 1.408 . S
C485 C484 1.404 . S
C485 H497 0.930 . S
C486 C482 1.524 . S
C486 H498 0.956 . S
C486 H499 0.961 . S
C486 H500 0.961 . S
C487 C484 1.539 . S
C487 H501 0.958 . S
C487 H502 0.961 . S
C487 H503 0.960 . S
H488 C472 0.931 . S
H489 C477 0.929 . S
H490 C478 0.960 . S
H491 C478 0.962 . S
H492 C478 0.960 . S
H493 C479 0.961 . S
H494 C479 0.961 . S
H495 C479 0.961 . S
H496 C480 0.931 . S
H497 C485 0.930 . S
H498 C486 0.956 . S
H499 C486 0.961 . S
H500 C486 0.961 . S
H501 C487 0.958 . S
H502 C487 0.961 . S
H503 C487 0.960 . S
C504 C505 1.391 . S
C504 C506 1.394 . S
C504 H520 0.931 . S
C505 C504 1.391 . S
C505 C509 1.376 . S
C506 C504 1.394 . S
C506 C507 1.369 . S
C506 C510 1.531 . S
C507 C506 1.369 . S
C507 C508 1.410 . S
C507 C515 1.503 . S
C508 C507 1.410 . S
C508 C509 1.392 . S
C508 C511 1.511 . S
C509 C505 1.376 . S
C509 C508 1.392 . S
C509 H521 0.929 1_556 S
C510 C506 1.531 . S
C510 H522 0.960 . S
C510 H523 0.962 . S
C510 H524 0.960 . S
C511 C508 1.511 . S
C511 H525 0.961 1_556 S
C511 H526 0.961 . S
C511 H527 0.961 . S
C512 C513 1.370 . S
C512 C514 1.363 . S
C512 H528 0.931 . S
C513 C512 1.370 . S
C513 C517 1.408 . S
C514 C512 1.363 . S
C514 C515 1.370 . S
C514 C518 1.524 . S
C515 C507 1.503 . S
C515 C514 1.370 . S
C515 C516 1.403 . S
C516 C515 1.403 . S
C516 C517 1.404 . S
C516 C519 1.539 . S
C517 C513 1.408 . S
C517 C516 1.404 . S
C517 H529 0.930 . S
C518 C514 1.524 . S
C518 H530 0.956 . S
C518 H531 0.961 . S
C518 H532 0.961 . S
C519 C516 1.539 . S
C519 H533 0.958 . S
C519 H534 0.961 . S
C519 H535 0.960 . S
H520 C504 0.931 . S
H521 C509 0.929 1_554 S
H522 C510 0.960 . S
H523 C510 0.962 . S
H524 C510 0.960 . S
H525 C511 0.961 1_554 S
H526 C511 0.961 . S
H527 C511 0.961 . S
H528 C512 0.931 . S
H529 C517 0.930 . S
H530 C518 0.956 . S
H531 C518 0.961 . S
H532 C518 0.961 . S
H533 C519 0.958 . S
H534 C519 0.961 . S
H535 C519 0.960 . S
C536 C537 1.391 . S
C536 C538 1.394 . S
C536 H552 0.931 . S
C537 C536 1.391 . S
C537 C541 1.376 . S
C538 C536 1.394 . S
C538 C539 1.369 . S
C538 C542 1.531 . S
C539 C538 1.369 . S
C539 C540 1.410 . S
C539 C547 1.503 . S
C540 C539 1.410 . S
C540 C541 1.392 . S
C540 C543 1.511 . S
C541 C537 1.376 . S
C541 C540 1.392 . S
C541 H553 0.929 . S
C542 C538 1.531 . S
C542 H554 0.960 . S
C542 H555 0.962 . S
C542 H556 0.960 . S
C543 C540 1.511 . S
C543 H557 0.961 . S
C543 H558 0.961 . S
C543 H559 0.961 . S
C544 C545 1.370 . S
C544 C546 1.363 . S
C544 H560 0.931 . S
C545 C544 1.370 . S
C545 C549 1.408 . S
C546 C544 1.363 . S
C546 C547 1.370 . S
C546 C550 1.524 . S
C547 C539 1.503 . S
C547 C546 1.370 . S
C547 C548 1.403 . S
C548 C547 1.403 . S
C548 C549 1.404 . S
C548 C551 1.539 . S
C549 C545 1.408 . S
C549 C548 1.404 . S
C549 H561 0.930 . S
C550 C546 1.524 . S
C550 H562 0.956 . S
C550 H563 0.961 . S
C550 H564 0.961 . S
C551 C548 1.539 . S
C551 H565 0.958 . S
C551 H566 0.961 . S
C551 H567 0.960 . S
H552 C536 0.931 . S
H553 C541 0.929 . S
H554 C542 0.960 . S
H555 C542 0.962 . S
H556 C542 0.960 . S
H557 C543 0.961 . S
H558 C543 0.961 . S
H559 C543 0.961 . S
H560 C544 0.931 . S
H561 C549 0.930 . S
H562 C550 0.956 . S
H563 C550 0.961 . S
H564 C550 0.961 . S
H565 C551 0.958 . S
H566 C551 0.961 . S
H567 C551 0.960 . S
C568 C569 1.391 . S
C568 C570 1.394 . S
C568 H584 0.931 . S
C569 C568 1.391 . S
C569 C573 1.376 . S
C570 C568 1.394 . S
C570 C571 1.369 . S
C570 C574 1.531 . S
C571 C570 1.369 . S
C571 C572 1.410 . S
C571 C579 1.503 . S
C572 C571 1.410 . S
C572 C573 1.392 . S
C572 C575 1.511 . S
C573 C569 1.376 . S
C573 C572 1.392 . S
C573 H585 0.929 . S
C574 C570 1.531 . S
C574 H586 0.960 . S
C574 H587 0.962 . S
C574 H588 0.960 . S
C575 C572 1.511 . S
C575 H589 0.961 . S
C575 H590 0.961 . S
C575 H591 0.961 1_565 S
C576 C577 1.370 . S
C576 C578 1.363 . S
C576 H592 0.931 . S
C577 C576 1.370 . S
C577 C581 1.408 . S
C578 C576 1.363 . S
C578 C579 1.370 . S
C578 C582 1.524 . S
C579 C571 1.503 . S
C579 C578 1.370 . S
C579 C580 1.403 . S
C580 C579 1.403 . S
C580 C581 1.404 . S
C580 C583 1.539 . S
C581 C577 1.408 . S
C581 C580 1.404 . S
C581 H593 0.930 . S
C582 C578 1.524 . S
C582 H594 0.956 . S
C582 H595 0.961 . S
C582 H596 0.961 . S
C583 C580 1.539 . S
C583 H597 0.958 . S
C583 H598 0.961 1_565 S
C583 H599 0.960 . S
H584 C568 0.931 . S
H585 C573 0.929 . S
H586 C574 0.960 . S
H587 C574 0.962 . S
H588 C574 0.960 . S
H589 C575 0.961 . S
H590 C575 0.961 . S
H591 C575 0.961 1_545 S
H592 C576 0.931 . S
H593 C581 0.930 . S
H594 C582 0.956 . S
H595 C582 0.961 . S
H596 C582 0.961 . S
H597 C583 0.958 . S
H598 C583 0.961 1_545 S
H599 C583 0.960 . S
C225 C116 1.644 . S
C217 C40 1.638 . S
C249 C4 1.664 . S
C257 C188 1.645 . S
C281 C16 1.642 . S
C289 C104 1.663 . S
C313 C28 1.641 . S
C321 C200 1.634 . S
C353 C106 1.421 . S
C345 C9 1.613 . S
C385 C187 1.710 . S
C377 C18 1.709 . S
C409 C33 1.626 . S
C417 C103 1.650 . S
C441 C45 1.607 . S
C449 C190 1.458 . S
C481 C202 1.404 . S
C473 C21 1.556 . S
C513 C118 1.365 . S
C505 C30 1.550 1_556 S
C545 C199 1.640 . S
C537 C42 1.638 . S
C569 C6 1.577 . S
C577 C115 1.594 . S
