# Generated by pormake.
# Topology zzz, (3,6)-cn, num edge types: 1
# Building blocks:
#     Node 0, Type 0, BuildingBlock: CUQRIR_clean_linker_1, # of connection points: 3
#     Node 1, Type 0, BuildingBlock: CUQRIR_clean_linker_1, # of connection points: 3
#     Node 2, Type 0, BuildingBlock: CUQRIR_clean_linker_1, # of connection points: 3
#     Node 3, Type 0, BuildingBlock: CUQRIR_clean_linker_1, # of connection points: 3
#     Node 4, Type 0, BuildingBlock: CUQRIR_clean_linker_1, # of connection points: 3
#     Node 5, Type 0, BuildingBlock: CUQRIR_clean_linker_1, # of connection points: 3
#     Node 6, Type 0, BuildingBlock: CUQRIR_clean_linker_1, # of connection points: 3
#     Node 7, Type 0, BuildingBlock: CUQRIR_clean_linker_1, # of connection points: 3
#     Node 8, Type 1, BuildingBlock: BETDAH_clean_sbu_0, # of connection points: 6
#     Node 9, Type 1, BuildingBlock: BETDAH_clean_sbu_0, # of connection points: 6
#     Node 10, Type 1, BuildingBlock: BETDAH_clean_sbu_0, # of connection points: 6
#     Node 11, Type 1, BuildingBlock: BETDAH_clean_sbu_0, # of connection points: 6
#     Edge 12, Type (0, 1), BuildingBlock: AJUNOK_clean_linker_0, # of connection points: 2
#     Edge 13, Type (0, 1), BuildingBlock: AJUNOK_clean_linker_0, # of connection points: 2
#     Edge 14, Type (0, 1), BuildingBlock: AJUNOK_clean_linker_0, # of connection points: 2
#     Edge 15, Type (0, 1), BuildingBlock: AJUNOK_clean_linker_0, # of connection points: 2
#     Edge 16, Type (0, 1), BuildingBlock: AJUNOK_clean_linker_0, # of connection points: 2
#     Edge 17, Type (0, 1), BuildingBlock: AJUNOK_clean_linker_0, # of connection points: 2
#     Edge 18, Type (0, 1), BuildingBlock: AJUNOK_clean_linker_0, # of connection points: 2
#     Edge 19, Type (0, 1), BuildingBlock: AJUNOK_clean_linker_0, # of connection points: 2
#     Edge 20, Type (0, 1), BuildingBlock: AJUNOK_clean_linker_0, # of connection points: 2
#     Edge 21, Type (0, 1), BuildingBlock: AJUNOK_clean_linker_0, # of connection points: 2
#     Edge 22, Type (0, 1), BuildingBlock: AJUNOK_clean_linker_0, # of connection points: 2
#     Edge 23, Type (0, 1), BuildingBlock: AJUNOK_clean_linker_0, # of connection points: 2
#     Edge 24, Type (0, 1), BuildingBlock: AJUNOK_clean_linker_0, # of connection points: 2
#     Edge 25, Type (0, 1), BuildingBlock: AJUNOK_clean_linker_0, # of connection points: 2
#     Edge 26, Type (0, 1), BuildingBlock: AJUNOK_clean_linker_0, # of connection points: 2
#     Edge 27, Type (0, 1), BuildingBlock: AJUNOK_clean_linker_0, # of connection points: 2
#     Edge 28, Type (0, 1), BuildingBlock: AJUNOK_clean_linker_0, # of connection points: 2
#     Edge 29, Type (0, 1), BuildingBlock: AJUNOK_clean_linker_0, # of connection points: 2
#     Edge 30, Type (0, 1), BuildingBlock: AJUNOK_clean_linker_0, # of connection points: 2
#     Edge 31, Type (0, 1), BuildingBlock: AJUNOK_clean_linker_0, # of connection points: 2
#     Edge 32, Type (0, 1), BuildingBlock: AJUNOK_clean_linker_0, # of connection points: 2
#     Edge 33, Type (0, 1), BuildingBlock: AJUNOK_clean_linker_0, # of connection points: 2
#     Edge 34, Type (0, 1), BuildingBlock: AJUNOK_clean_linker_0, # of connection points: 2
#     Edge 35, Type (0, 1), BuildingBlock: AJUNOK_clean_linker_0, # of connection points: 2
# Relax obj value: 0.445
# Max RMSD: 0.222
# Mean RMSD: 0.157
data_MOF--net-zzz--node1-BETDAH_clean_sbu_0--node2-CUQRIR_clean_linker_1--edge1-AJUNOK_clean_linker_0
_symmetry_space_group_name_H-M    P1
_symmetry_Int_Tables_number       1
_symmetry_cell_setting            triclinic
loop_
_symmetry_equiv_pos_as_xyz
'x, y, z'
_cell_length_a     34.167207
_cell_length_b     34.030913
_cell_length_c     8.8660415
_cell_angle_alpha  89.66198
_cell_angle_beta   89.938683
_cell_angle_gamma 90.090834
loop_
_atom_site_label
_atom_site_type_symbol
_atom_site_fract_x
_atom_site_fract_y
_atom_site_fract_z
_atom_type_partial_charge
C0 C 0.77859 0.55134 0.42092 0.0
N1 N 0.80477 0.52335 0.46742 0.0
N2 N 0.75097 0.53577 0.32705 0.0
C3 C 0.78194 0.5942 0.45563 0.0
C4 C 0.76161 0.49772 0.31653 0.0
N5 N 0.79337 0.49002 0.40234 0.0
C6 C 0.74467 0.46951 0.20347 0.0
H7 H 0.75244 0.60774 0.46119 0.0
H8 H 0.79862 0.6089 0.3638 0.0
H9 H 0.79772 0.5987 0.56353 0.0
H10 H 0.76025 0.47293 0.09446 0.0
H11 H 0.71358 0.4762 0.18143 0.0
H12 H 0.74828 0.43864 0.24154 0.0
C13 C 1.019 0.78218 0.39612 0.0
N14 N 0.04678 0.80856 0.44219 0.0
N15 N 1.03582 0.74963 0.33333 0.0
C16 C 0.97585 0.78904 0.40606 0.0
C17 C 0.07444 0.7576 0.34114 0.0
N18 N 0.0812 0.79285 0.40578 0.0
C19 C 0.10537 0.73184 0.27333 0.0
H20 H 0.95934 0.76141 0.38698 0.0
H21 H 0.96735 0.811 0.31915 0.0
H22 H 0.96838 0.80132 0.51815 0.0
H23 H 0.09849 0.70109 0.30031 0.0
H24 H 0.13507 0.73934 0.31468 0.0
H25 H 0.10438 0.73417 0.14857 0.0
C26 C 0.79459 0.04518 0.3664 0.0
N27 N 0.75951 0.06457 0.37212 0.0
N28 N 0.81916 0.06134 0.25996 0.0
C29 C 0.805 1.01106 0.46595 0.0
C30 C 0.79726 0.09064 0.20005 0.0
N31 N 0.76228 0.09348 0.27092 0.0
C32 C 0.80681 0.11191 0.05422 0.0
H33 H 0.83683 1.0111 0.4908 0.0
H34 H 0.79768 0.98341 0.40659 0.0
H35 H 0.78808 1.01196 0.5728 0.0
H36 H 0.83045 0.09714 0.99032 0.0
H37 H 0.81582 0.14251 0.07922 0.0
H38 H 0.78059 0.11348 0.98072 0.0
C39 C 0.55192 0.80369 0.41558 0.0
N40 N 0.52516 0.77504 0.4521 0.0
N41 N 0.53608 0.83153 0.32123 0.0
C42 C 0.59453 0.80163 0.45369 0.0
C43 C 0.49936 0.818 0.29782 0.0
N44 N 0.4925 0.78484 0.37871 0.0
C45 C 0.47211 0.83406 0.17859 0.0
H46 H 0.59917 0.78485 0.55984 0.0
H47 H 0.60701 0.83164 0.46333 0.0
H48 H 0.61008 0.78629 0.36129 0.0
H49 H 0.47798 0.81891 0.07052 0.0
H50 H 0.47721 0.86565 0.15667 0.0
H51 H 0.44107 0.82896 0.20984 0.0
C52 C 0.30683 0.52506 0.3078 0.0
N53 N 0.26878 0.53675 0.32626 0.0
N54 N 0.32634 0.52476 0.44347 0.0
C55 C 0.32552 0.51787 0.15772 0.0
C56 C 0.29791 0.53487 0.54202 0.0
N57 N 0.26503 0.54571 0.47089 0.0
C58 C 0.30138 0.53389 0.71178 0.0
H59 H 0.35232 0.49981 0.16982 0.0
H60 H 0.33372 0.54657 0.10656 0.0
H61 H 0.30448 0.50327 0.08087 0.0
H62 H 0.30164 0.56422 0.75696 0.0
H63 H 0.32791 0.51788 0.7496 0.0
H64 H 0.27513 0.51923 0.76009 0.0
C65 C 0.04756 0.30802 0.29458 0.0
N66 N 1.02215 0.27845 0.25765 0.0
N67 N 1.03095 0.33353 0.39411 0.0
C68 C 0.08935 0.31058 0.24397 0.0
C69 C 0.99467 0.31838 0.4158 0.0
N70 N 0.98924 0.28532 0.33376 0.0
C71 C 0.96705 0.33147 0.53878 0.0
H72 H 0.10863 0.30128 0.33822 0.0
H73 H 0.09682 0.3415 0.21556 0.0
H74 H 0.09484 0.29152 0.14511 0.0
H75 H 0.93639 0.33064 0.49901 0.0
H76 H 0.97376 0.36151 0.57839 0.0
H77 H 0.96926 0.31085 0.63583 0.0
C78 C 0.26473 0.06166 0.24697 0.0
N79 N 0.29287 1.03355 0.22298 0.0
N80 N 0.23539 0.04772 0.33842 0.0
C81 C 0.26631 0.10293 0.18797 0.0
C82 C 0.24684 1.01059 0.36954 0.0
N83 N 0.28081 1.00196 0.29942 0.0
C84 C 0.22959 0.9857 0.49465 0.0
H85 H 0.27691 0.12256 0.2787 0.0
H86 H 0.23647 0.11281 0.15626 0.0
H87 H 0.28623 0.10529 0.08941 0.0
H88 H 0.1979 0.99145 0.50864 0.0
H89 H 0.24449 0.99293 0.60208 0.0
H90 H 0.23447 0.95403 0.47388 0.0
C91 C 0.53692 0.26622 0.26025 0.0
N92 N 0.56271 0.29697 0.24649 0.0
N93 N 0.55022 0.23828 0.36085 0.0
C94 C 0.49974 0.26288 0.17149 0.0
C95 C 0.58425 0.25398 0.41065 0.0
N96 N 0.59217 0.28827 0.33913 0.0
C97 C 0.60866 0.23739 0.53809 0.0
H98 H 0.4864 0.2923 0.15502 0.0
H99 H 0.4785 0.24295 0.22738 0.0
H100 H 0.50662 0.25076 0.05866 0.0
H101 H 0.63987 0.2358 0.50377 0.0
H102 H 0.59851 0.2084 0.5779 0.0
H103 H 0.60644 0.25666 0.63772 0.0
Ho104 Ho 0.06117 1.03682 0.94465 0.0
Ho105 Ho 1.00668 0.0519 0.75223 0.0
C106 C 0.03858 0.96739 0.70873 0.0
C107 C 0.10699 1.01419 0.15975 0.0
C108 C 0.13117 0.98353 0.22774 0.0
C109 C 0.12059 0.96958 0.37041 0.0
C110 C 0.13921 0.93703 0.43106 0.0
C111 C 0.16915 0.91803 0.34979 0.0
C112 C 0.18461 0.93701 0.22114 0.0
C113 C 0.16512 0.96917 0.1582 0.0
C114 C 0.0972 0.07052 0.70034 0.0
C115 C 1.0338 0.12439 0.96505 0.0
C116 C 0.94678 0.0752 0.6001 0.0
C117 C 0.91514 0.10083 0.65455 0.0
C118 C 0.92183 0.1255 0.77807 0.0
C119 C 0.90525 0.16307 0.77762 0.0
C120 C 0.88852 0.17634 0.64152 0.0
C121 C 0.8693 0.14781 0.55511 0.0
C122 C 0.88316 0.10909 0.56228 0.0
C123 C 0.974 1.02607 1.01795 0.0
O124 O 0.04973 0.97472 0.8492 0.0
O125 O 1.02574 0.99735 0.62876 0.0
O126 O 0.11924 1.03104 0.03636 0.0
O127 O 0.06912 1.00921 0.16256 0.0
O128 O 0.09999 0.08183 0.83834 0.0
O129 O 0.07059 0.04406 0.69332 0.0
O130 O 1.01925 0.11551 0.8309 0.0
O131 O 0.04778 0.09543 0.04648 0.0
O132 O 0.94862 0.04081 0.66337 0.0
O133 O 0.98125 0.09185 0.58864 0.0
O134 O 0.97165 1.00798 0.89127 0.0
O135 O 1.00013 0.05187 1.00089 0.0
H136 H 0.09625 0.98241 0.431 0.0
H137 H 0.127 0.92463 0.53351 0.0
H138 H 0.20934 0.92479 0.16132 0.0
H139 H 0.1755 0.98143 0.05246 0.0
H140 H 0.94436 0.11862 0.85898 0.0
H141 H 0.91623 0.18418 0.8582 0.0
H142 H 0.85044 0.15639 0.46265 0.0
H143 H 0.87265 0.08729 0.48529 0.0
Ho144 Ho 0.53492 0.06249 0.89187 0.0
Ho145 Ho 0.52372 1.00262 0.73227 0.0
C146 C 0.60844 1.03716 0.68245 0.0
C147 C 0.5539 0.12838 1.01211 0.0
C148 C 0.57662 0.1604 0.94193 0.0
C149 C 0.60085 0.15225 0.81811 0.0
C150 C 0.63841 0.1687 0.81474 0.0
C151 C 0.65171 0.18729 0.94651 0.0
C152 C 0.6235 0.20736 0.03129 0.0
C153 C 0.5849 0.19373 0.02657 0.0
C154 C 0.50703 0.08686 0.61723 0.0
C155 C 0.45277 1.02951 0.95976 0.0
C156 C 0.50178 0.94638 0.55663 0.0
C157 C 0.47027 0.91801 0.54002 0.0
C158 C 0.44909 0.90379 0.6647 0.0
C159 C 0.41082 0.89035 0.64312 0.0
C160 C 0.39413 0.89339 0.49851 0.0
C161 C 0.41898 0.89683 0.3735 0.0
C162 C 0.45648 0.91143 0.39442 0.0
C163 C 0.5586 0.97514 0.98861 0.0
O164 O 0.59889 0.05399 0.81178 0.0
O165 O 0.58041 1.01796 0.61282 0.0
O166 O 0.51972 0.12205 0.95391 0.0
O167 O 0.57318 0.09575 0.03733 0.0
O168 O 0.48882 0.09082 0.74319 0.0
O169 O 0.53384 0.06226 0.64156 0.0
O170 O 0.46095 1.01277 0.82824 0.0
O171 O 0.48191 0.04677 0.02893 0.0
O172 O 0.52523 0.9415 0.67007 0.0
O173 O 0.49221 0.98307 0.53531 0.0
O174 O 0.57219 0.97216 0.85369 0.0
O175 O 0.53051 1.00005 0.98433 0.0
H176 H 0.59366 0.12895 0.74049 0.0
H177 H 0.65931 0.15739 0.73423 0.0
H178 H 0.63214 0.22565 0.12506 0.0
H179 H 0.56406 0.20374 0.10793 0.0
H180 H 0.45978 0.90804 0.77847 0.0
H181 H 0.39222 0.88645 0.74113 0.0
H182 H 0.40701 0.8978 0.26029 0.0
H183 H 0.47259 0.92228 0.29743 0.0
Ho184 Ho 0.52353 0.54283 0.96403 0.0
Ho185 Ho 0.56871 0.52852 0.72564 0.0
C186 C 0.53839 0.61635 0.73132 0.0
C187 C 0.48484 0.56028 0.20552 0.0
C188 C 0.45492 0.58689 0.26196 0.0
C189 C 0.46218 0.60467 0.39973 0.0
C190 C 0.44116 0.63749 0.44184 0.0
C191 C 0.4117 0.65272 0.34749 0.0
C192 C 0.39996 0.63057 0.22146 0.0
C193 C 0.4221 0.59806 0.17689 0.0
C194 C 0.47956 0.5173 0.72104 0.0
C195 C 0.554 0.45547 0.96124 0.0
C196 C 0.60517 0.50783 0.48373 0.0
C197 C 0.63592 0.481 0.43737 0.0
C198 C 0.63319 0.46454 0.29453 0.0
C199 C 0.6544 0.43107 0.26124 0.0
C200 C 0.67968 0.41443 0.36997 0.0
C201 C 0.68838 0.43632 0.50026 0.0
C202 C 0.66555 0.46889 0.53645 0.0
C203 C 0.61429 0.55637 0.95643 0.0
O204 O 0.53101 0.60709 0.87488 0.0
O205 O 0.54737 0.58731 0.64043 0.0
O206 O 0.47374 0.53365 0.11015 0.0
O207 O 0.51834 0.57639 0.16915 0.0
O208 O 0.4782 0.50311 0.85601 0.0
O209 O 0.50594 0.54323 0.72096 0.0
O210 O 0.56087 0.46452 0.81737 0.0
O211 O 0.54547 0.48464 0.05154 0.0
O212 O 0.61597 0.53683 0.56887 0.0
O213 O 0.57239 0.49165 0.52804 0.0
O214 O 0.61505 0.56838 0.81863 0.0
O215 O 0.58758 0.5305 0.96841 0.0
H216 H 0.48635 0.59508 0.46915 0.0
H217 H 0.45143 0.65331 0.5397 0.0
H218 H 0.37731 0.64145 0.14679 0.0
H219 H 0.41544 0.58379 0.07117 0.0
H220 H 0.61194 0.47533 0.21403 0.0
H221 H 0.64721 0.41617 0.15743 0.0
H222 H 0.70871 0.42508 0.58364 0.0
H223 H 0.66898 0.48254 0.64573 0.0
Ho224 Ho 1.03052 0.51975 0.98884 0.0
Ho225 Ho 0.0506 0.56111 0.74584 0.0
C226 C 0.962 0.53423 0.74302 0.0
C227 C 1.00631 0.48691 0.23522 0.0
C228 C 0.9825 0.45383 0.28455 0.0
C229 C 0.96729 0.45455 0.43018 0.0
C230 C 0.93745 0.42897 0.47022 0.0
C231 C 0.92172 0.40328 0.36172 0.0
C232 C 0.94347 0.39646 0.22924 0.0
C233 C 0.97295 0.42286 0.18767 0.0
C234 C 0.05732 0.46964 0.76761 0.0
C235 C 0.11865 0.54557 0.99613 0.0
C236 C 0.07621 0.59516 0.5037 0.0
C237 C 0.10099 0.62922 0.4762 0.0
C238 C 0.12535 0.62947 0.34964 0.0
C239 C 0.15878 0.65292 0.35042 0.0
C240 C 0.16997 0.67076 0.48703 0.0
C241 C 0.14022 0.68027 0.58995 0.0
C242 C 0.10603 0.65774 0.58882 0.0
C243 C 1.02235 0.61112 0.96402 0.0
O244 O 0.96873 0.52882 0.88891 0.0
O245 O 0.99256 0.5402 0.6555 0.0
O246 O 0.03901 0.47807 0.16883 0.0
O247 O 0.98783 0.51567 0.16831 0.0
O248 O 0.06696 0.46872 0.90781 0.0
O249 O 1.03414 0.49817 0.74896 0.0
O250 O 0.11245 0.55062 0.84934 0.0
O251 O 0.08763 0.54144 0.08199 0.0
O252 O 0.04255 0.60271 0.56508 0.0
O253 O 0.09364 0.56515 0.56685 0.0
O254 O 1.01322 0.61166 0.82346 0.0
O255 O 0.04617 0.5831 0.98474 0.0
H256 H 0.97619 0.477 0.50862 0.0
H257 H 0.92295 0.43422 0.5768 0.0
H258 H 0.93311 0.37561 0.14642 0.0
H259 H 0.98595 0.42097 0.07645 0.0
H260 H 0.12078 0.60894 0.25836 0.0
H261 H 0.17997 0.64835 0.26118 0.0
H262 H 0.14722 0.69657 0.69101 0.0
H263 H 0.0865 0.65894 0.68507 0.0
C264 C 0.16586 0.0688 0.35232 0.0
C265 C 0.20348 0.06742 0.41684 0.0
C266 C 0.13139 0.0709 0.44232 0.0
C267 C 0.13332 0.07239 0.60105 0.0
H268 H 0.16335 0.06587 0.23164 0.0
H269 H 0.10307 0.07037 0.38785 0.0
S270 S 0.22576 0.07659 0.82347 0.0
N271 N 0.2407 0.07312 0.64703 0.0
N272 N 0.1775 0.07744 0.81622 0.0
C273 C 0.17125 0.07508 0.66514 0.0
C274 C 0.20585 0.07286 0.57333 0.0
C275 C 0.49913 0.19241 0.46467 0.0
C276 C 0.53599 0.19865 0.39705 0.0
C277 C 0.48843 0.15525 0.52524 0.0
C278 C 0.51397 0.12258 0.51978 0.0
H279 H 0.47946 0.21697 0.47976 0.0
H280 H 0.46075 0.15267 0.58416 0.0
S281 S 0.61401 0.12299 0.35692 0.0
N282 N 0.59823 0.16829 0.33249 0.0
N283 N 0.57716 0.09904 0.4344 0.0
C284 C 0.54986 0.12793 0.44454 0.0
C285 C 0.56112 0.16569 0.3869 0.0
C286 C 0.39256 0.49347 0.46149 0.0
C287 C 0.36798 0.52636 0.48042 0.0
C288 C 0.42955 0.49113 0.53399 0.0
C289 C 0.44286 0.52117 0.63063 0.0
H290 H 0.38225 0.46855 0.39749 0.0
H291 H 0.44712 0.46497 0.51922 0.0
S292 S 0.38869 0.61171 0.72794 0.0
N293 N 0.36119 0.59025 0.59943 0.0
N294 N 0.42732 0.58315 0.74859 0.0
C295 C 0.4187 0.55397 0.64986 0.0
C296 C 0.38241 0.55738 0.57054 0.0
C297 C 0.05417 0.40259 0.41965 0.0
C298 C 0.04846 0.36495 0.48258 0.0
C299 C 0.05868 0.43622 0.51198 0.0
C300 C 0.0579 0.43346 0.67064 0.0
H301 H 0.05272 0.40625 0.29853 0.0
H302 H 0.0615 0.46483 0.45924 0.0
S303 S 0.05017 0.3404 0.89016 0.0
N304 N 0.0477 0.32628 0.71262 0.0
N305 N 0.0556 0.38863 0.88528 0.0
C306 C 0.05583 0.39537 0.73407 0.0
C307 C 0.05143 0.36139 0.64032 0.0
C308 C 0.87031 1.01276 0.17947 0.0
C309 C 0.85933 0.05146 0.2163 0.0
C310 C 0.90811 1.0042 0.12221 0.0
C311 C 0.93713 1.03362 0.10584 0.0
H312 H 0.84895 0.98933 0.18747 0.0
H313 H 0.91436 0.97447 0.08666 0.0
S314 S 0.92446 0.1393 0.19559 0.0
N315 N 0.88108 0.11956 0.22698 0.0
N316 N 0.95275 0.10248 0.14471 0.0
C317 C 0.92718 0.07186 0.15133 0.0
C318 C 0.8882 0.08103 0.19881 0.0
C319 C 0.55633 0.90125 0.31756 0.0
C320 C 0.5533 0.86502 0.2414 0.0
C321 C 0.55687 0.93751 0.24064 0.0
C322 C 0.55851 0.93791 0.08425 0.0
H323 H 0.55504 0.90091 0.43911 0.0
H324 H 0.55629 0.96476 0.303 0.0
S325 S 0.5748 0.8487 0.79472 0.0
N326 N 0.56752 0.87995 0.9451 0.0
N327 N 0.57184 0.8934 0.87044 0.0
C328 C 0.5628 0.89758 1.01023 0.0
C329 C 0.55758 0.86092 0.08268 0.0
C330 C 0.68236 0.55839 0.30216 0.0
C331 C 0.71985 0.55375 0.23872 0.0
C332 C 0.64832 0.56068 0.21093 0.0
C333 C 0.6505 0.55812 0.0527 0.0
H334 H 0.6793 0.55761 0.42352 0.0
H335 H 0.61998 0.56334 0.2643 0.0
S336 S 0.74253 0.55124 0.83009 0.0
N337 N 0.75739 0.55132 1.0073 0.0
N338 N 0.69437 0.55501 0.83653 0.0
C339 C 0.68826 0.5568 0.98785 0.0
C340 C 0.72263 0.55486 0.08053 0.0
C341 C 1.02279 0.67811 0.31276 0.0
C342 C 1.01971 0.71634 0.25115 0.0
C343 C 1.02233 0.64417 0.22066 0.0
C344 C 1.01845 0.64688 0.06293 0.0
H345 H 1.02847 0.67479 0.43215 0.0
H346 H 1.02607 0.61559 0.27226 0.0
S347 S 1.00435 0.73975 0.84707 0.0
N348 N 1.00941 0.75435 1.02341 0.0
N349 N 1.0072 0.69135 0.85151 0.0
C350 C 1.0122 0.6848 1.00154 0.0
C351 C 1.01313 0.71922 0.09512 0.0
C352 C 0.97827 0.22523 0.47492 0.0
C353 C 0.96302 0.25492 0.38336 0.0
C354 C 0.95382 0.20049 0.55654 0.0
C355 C 0.91268 0.20495 0.55427 0.0
H356 H 1.00956 0.22245 0.48988 0.0
H357 H 0.96784 0.17782 0.62301 0.0
S358 S 0.85819 0.27659 0.31885 0.0
N359 N 0.90474 0.28615 0.28263 0.0
N360 N 0.85781 0.23962 0.44088 0.0
C361 C 0.89684 0.23349 0.45681 0.0
C362 C 0.92219 0.25859 0.37091 0.0
C363 C 0.30341 0.93339 0.31916 0.0
C364 C 0.30679 0.97308 0.35873 0.0
C365 C 0.32931 0.90555 0.37962 0.0
C366 C 0.35855 0.91705 0.48202 0.0
H367 H 0.28159 0.92432 0.23806 0.0
H368 H 0.32824 0.87561 0.33901 0.0
S369 S 0.37743 1.01856 0.61813 0.0
N370 N 0.33887 1.02255 0.508 0.0
N371 N 0.38876 0.97145 0.6182 0.0
C372 C 0.36046 0.95676 0.52658 0.0
C373 C 0.33429 0.98454 0.46517 0.0
C374 C 0.63882 0.32506 0.49457 0.0
C375 C 0.62761 0.3105 0.35369 0.0
C376 C 0.6679 0.35348 0.50575 0.0
C377 C 0.68316 0.37108 0.37408 0.0
H378 H 0.6227 0.31768 0.59507 0.0
H379 H 0.67181 0.36685 0.61526 0.0
S380 S 0.67674 0.33015 0.98911 0.0
N381 N 0.64437 0.30477 0.08852 0.0
N382 N 0.69796 0.36053 0.10895 0.0
C383 C 0.67936 0.35008 0.23869 0.0
C384 C 0.65028 0.32034 0.22727 0.0
C385 C 0.21757 0.58326 0.61733 0.0
C386 C 0.24768 0.58219 0.51195 0.0
C387 C 0.1973 0.6182 0.64122 0.0
C388 C 0.20498 0.65188 0.55115 0.0
H389 H 0.20803 0.55646 0.67271 0.0
H390 H 0.17121 0.61649 0.7103 0.0
S391 S 0.29023 0.66618 0.30014 0.0
N392 N 0.2923 0.61951 0.35177 0.0
N393 N 0.25174 0.68472 0.38738 0.0
C394 C 0.2396 0.6527 0.46689 0.0
C395 C 0.26095 0.61746 0.44591 0.0
C396 C 0.1348 0.82977 0.52541 0.0
C397 C 0.11725 0.81433 0.39576 0.0
C398 C 0.16371 0.85887 0.51239 0.0
C399 C 0.17299 0.87485 0.36939 0.0
H400 H 0.12394 0.82167 0.63601 0.0
H401 H 0.17269 0.87403 0.6138 0.0
S402 S 0.14917 0.83038 1.00008 0.0
N403 N 0.12076 0.80761 0.12315 0.0
N404 N 0.17634 0.86047 0.10066 0.0
C405 C 0.16339 0.8522 0.24247 0.0
C406 C 0.13364 0.82333 0.25455 0.0
C407 C 0.70064 0.10072 0.13789 0.0
C408 C 0.73103 0.11798 0.21861 0.0
C409 C 0.67564 0.12358 0.05057 0.0
C410 C 0.68061 0.16473 0.03675 0.0
H411 H 0.69741 0.06912 0.13581 0.0
H412 H 0.65209 0.10851 0.99385 0.0
S413 S 0.75416 0.22421 0.23978 0.0
N414 N 0.76363 0.17842 0.29123 0.0
N415 N 0.71632 0.22199 0.12397 0.0
C416 C 0.70983 0.18262 0.1235 0.0
C417 C 0.73522 0.1591 0.21443 0.0
C418 C 0.44751 0.74544 0.22554 0.0
C419 C 0.45835 0.7605 0.36631 0.0
C420 C 0.42088 0.71459 0.21518 0.0
C421 C 0.40707 0.69592 0.34692 0.0
H422 H 0.46229 0.75481 0.12413 0.0
H423 H 0.41759 0.70094 0.10581 0.0
S424 S 0.41372 0.73552 0.73428 0.0
N425 N 0.44311 0.76392 0.63304 0.0
N426 N 0.39405 0.70406 0.61471 0.0
C427 C 0.41067 0.71647 0.48364 0.0
C428 C 0.43742 0.74841 0.49406 0.0
C429 C 0.83389 0.44846 0.24249 0.0
C430 C 0.81746 0.45604 0.38403 0.0
C431 C 0.86231 0.41969 0.22589 0.0
C432 C 0.87848 0.40131 0.35437 0.0
H433 H 0.82704 0.46698 0.14647 0.0
H434 H 0.87657 0.41814 0.11692 0.0
S435 S 0.83404 0.39978 0.73557 0.0
N436 N 0.80894 0.43352 0.64204 0.0
N437 N 0.86615 0.38178 0.61462 0.0
C438 C 0.85666 0.40272 0.48905 0.0
C439 C 0.82627 0.43097 0.50469 0.0
C440 C 1.00467 0.23191 0.0507 0.0
C441 C 1.0293 0.24241 0.17205 0.0
C442 C 1.00732 0.19472 0.97945 0.0
C443 C 1.03384 0.16567 0.02938 0.0
H444 H 0.9826 0.25247 1.0125 0.0
H445 H 0.9874 0.1882 0.88835 0.0
S446 S 0.10469 0.17813 0.34466 0.0
N447 N 0.0813 0.22052 0.33762 0.0
N448 N 0.08591 0.1511 0.20857 0.0
C449 C 0.05893 0.17618 0.14987 0.0
C450 C 0.05674 0.21424 0.21983 0.0
C451 C 0.34371 1.00534 0.0498 0.0
C452 C 0.33139 1.03582 0.14708 0.0
C453 C 0.38243 1.00322 0.99103 0.0
C454 C 0.41129 1.03156 0.02524 0.0
H455 H 0.32323 0.98224 1.02124 0.0
H456 H 0.39003 0.97848 0.92088 0.0
S457 S 0.39618 0.11538 0.28731 0.0
N458 N 0.35309 0.09335 0.28398 0.0
N459 N 0.42461 0.09023 0.1722 0.0
C460 C 0.39956 0.06182 0.12496 0.0
C461 C 0.36014 0.06389 0.18513 0.0
C462 C 0.55805 0.37036 0.25489 0.0
C463 C 0.55779 0.3354 0.17029 0.0
C464 C 0.55623 0.40805 0.18607 0.0
C465 C 0.55571 0.4136 0.02732 0.0
H466 H 0.55957 0.36852 0.37673 0.0
H467 H 0.55553 0.43327 0.25972 0.0
S468 S 0.5516 0.33155 0.75246 0.0
N469 N 0.55443 0.30883 0.91738 0.0
N470 N 0.55246 0.37918 0.78819 0.0
C471 C 0.55491 0.3787 0.94093 0.0
C472 C 0.55569 0.34001 1.01185 0.0
C473 C 0.22993 0.55838 0.09558 0.0
C474 C 0.23438 0.53484 0.22659 0.0
C475 C 0.19317 0.56135 1.01858 0.0
C476 C 0.15913 0.54124 0.06895 0.0
H477 H 0.25441 0.57589 0.05619 0.0
H478 H 0.191 0.581 0.92348 0.0
S479 S 0.15567 0.47547 0.4059 0.0
N480 N 0.20142 0.49097 0.40081 0.0
N481 N 0.13393 0.49618 0.25966 0.0
C482 C 0.16387 0.51736 0.19881 0.0
C483 C 0.20084 0.51431 0.27591 0.0
C484 C 0.03783 0.88172 0.41979 0.0
C485 C 0.04156 0.84758 0.50962 0.0
C486 C 1.03625 0.91989 0.48442 0.0
C487 C 0.03949 0.92608 0.64211 0.0
H488 H 0.03658 0.8789 0.29832 0.0
H489 H 1.03318 0.94487 0.40922 0.0
S490 S 0.04723 0.84602 0.92727 0.0
N491 N 0.04669 0.82254 0.76471 0.0
N492 N 0.0445 0.89327 0.88538 0.0
C493 C 0.04276 0.8919 0.7325 0.0
C494 C 0.04371 0.85313 0.66672 0.0
C495 C 0.71167 0.07802 0.58111 0.0
C496 C 0.72398 0.05482 0.45845 0.0
C497 C 0.67547 0.07111 0.65645 0.0
C498 C 0.64887 0.0417 0.60986 0.0
H499 H 0.73009 0.10199 0.61835 0.0
H500 H 0.66781 0.08969 0.74971 0.0
S501 S 0.66731 0.9726 0.29357 0.0
N502 N 0.70704 1.00031 0.29694 0.0
N503 N 0.63893 0.98862 0.43101 0.0
C504 C 0.66122 1.01817 0.48735 0.0
C505 C 0.69855 1.02444 0.41385 0.0
C506 C 0.53509 0.70211 0.43937 0.0
C507 C 0.53178 0.73659 0.52563 0.0
C508 C 0.53797 0.6643 0.5072 0.0
C509 C 0.53606 0.65822 0.66578 0.0
H510 H 0.53526 0.70441 0.3175 0.0
H511 H 0.54117 0.6394 0.4329 0.0
S512 S 0.5299 0.73928 0.94406 0.0
N513 N 0.5289 0.76234 0.77953 0.0
N514 N 0.53271 0.69185 0.90648 0.0
C515 C 0.53321 0.69274 0.75345 0.0
C516 C 0.53133 0.73148 0.68391 0.0
C517 C 0.85013 0.51709 0.69014 0.0
C518 C 0.84301 0.52911 0.53974 0.0
C519 C 0.8881 0.51908 0.75592 0.0
C520 C 0.92099 0.53308 0.6743 0.0
H521 H 0.82614 0.50572 0.75729 0.0
H522 H 0.89173 0.50905 0.87119 0.0
S523 S 0.91721 0.57012 0.27787 0.0
N524 N 0.87174 0.55642 0.31329 0.0
N525 N 0.94217 0.56095 0.43361 0.0
C526 C 0.9137 0.54589 0.52421 0.0
C527 C 0.87516 0.54374 0.45815 0.0
loop_
_geom_bond_atom_site_label_1
_geom_bond_atom_site_label_2
_geom_bond_distance
_geom_bond_site_symmetry_2
_ccdc_geom_bond_type
C0 N1 1.317 . S
C0 N2 1.348 . S
C0 C3 1.485 . S
N1 C0 1.317 . S
N1 N5 1.370 . S
N2 C0 1.348 . S
N2 C4 1.346 . S
C3 C0 1.485 . S
C3 H7 0.960 . S
C3 H8 0.961 . S
C3 H9 0.960 . S
C4 N2 1.346 . S
C4 N5 1.307 . S
C4 C6 1.486 . S
N5 N1 1.370 . S
N5 C4 1.307 . S
C6 C4 1.486 . S
C6 H10 0.960 . S
C6 H11 0.960 . S
C6 H12 0.959 . S
H7 C3 0.960 . S
H8 C3 0.961 . S
H9 C3 0.960 . S
H10 C6 0.960 . S
H11 C6 0.960 . S
H12 C6 0.959 . S
C13 N14 1.317 . S
C13 N15 1.348 . S
C13 C16 1.485 . S
N14 C13 1.317 . S
N14 N18 1.371 . S
N15 C13 1.348 . S
N15 C17 1.346 1_655 S
C16 C13 1.485 . S
C16 H20 0.960 1_655 S
C16 H21 0.961 . S
C16 H22 0.960 . S
C17 N15 1.346 1_455 S
C17 N18 1.307 1_455 S
C17 C19 1.486 . S
N18 N14 1.371 . S
N18 C17 1.307 1_655 S
C19 C17 1.486 . S
C19 H23 0.960 1_455 S
C19 H24 0.960 . S
C19 H25 0.959 . S
H20 C16 0.960 1_455 S
H21 C16 0.961 . S
H22 C16 0.960 . S
H23 C19 0.960 1_655 S
H24 C19 0.960 . S
H25 C19 0.959 . S
C26 N27 1.317 . S
C26 N28 1.348 . S
C26 C29 1.485 . S
N27 C26 1.317 . S
N27 N31 1.371 . S
N28 C26 1.348 . S
N28 C30 1.346 1_565 S
C29 C26 1.485 . S
C29 H33 0.960 1_565 S
C29 H34 0.961 . S
C29 H35 0.960 . S
C30 N28 1.346 1_545 S
C30 N31 1.307 1_545 S
C30 C32 1.486 . S
N31 N27 1.371 . S
N31 C30 1.307 1_565 S
C32 C30 1.486 . S
C32 H36 0.960 1_545 S
C32 H37 0.960 . S
C32 H38 0.959 . S
H33 C29 0.960 1_545 S
H34 C29 0.961 . S
H35 C29 0.960 . S
H36 C32 0.960 1_565 S
H37 C32 0.960 . S
H38 C32 0.959 . S
C39 N40 1.317 . S
C39 N41 1.348 . S
C39 C42 1.485 . S
N40 C39 1.317 . S
N40 N44 1.370 . S
N41 C39 1.348 . S
N41 C43 1.346 . S
C42 C39 1.485 . S
C42 H46 0.960 . S
C42 H47 0.961 . S
C42 H48 0.960 . S
C43 N41 1.346 . S
C43 N44 1.307 . S
C43 C45 1.486 . S
N44 N40 1.370 . S
N44 C43 1.307 . S
C45 C43 1.486 . S
C45 H49 0.960 . S
C45 H50 0.960 . S
C45 H51 0.959 . S
H46 C42 0.960 . S
H47 C42 0.961 . S
H48 C42 0.960 . S
H49 C45 0.960 . S
H50 C45 0.960 . S
H51 C45 0.959 . S
C52 N53 1.317 . S
C52 N54 1.348 1_556 S
C52 C55 1.485 . S
N53 C52 1.317 . S
N53 N57 1.370 1_556 S
N54 C52 1.348 1_554 S
N54 C56 1.346 . S
C55 C52 1.485 . S
C55 H59 0.960 . S
C55 H60 0.961 . S
C55 H61 0.960 . S
C56 N54 1.346 . S
C56 N57 1.307 . S
C56 C58 1.486 . S
N57 N53 1.370 1_554 S
N57 C56 1.307 . S
C58 C56 1.486 . S
C58 H62 0.960 . S
C58 H63 0.960 . S
C58 H64 0.959 . S
H59 C55 0.960 . S
H60 C55 0.961 . S
H61 C55 0.960 . S
H62 C58 0.960 . S
H63 C58 0.960 . S
H64 C58 0.959 . S
C65 N66 1.317 . S
C65 N67 1.350 1_556 S
C65 C68 1.485 . S
N66 C65 1.317 . S
N66 N70 1.371 1_556 S
N67 C65 1.350 1_554 S
N67 C69 1.345 1_655 S
C68 C65 1.485 . S
C68 H72 0.960 1_655 S
C68 H73 0.961 . S
C68 H74 0.960 . S
C69 N67 1.345 1_455 S
C69 N70 1.307 1_455 S
C69 C71 1.486 . S
N70 N66 1.371 1_554 S
N70 C69 1.307 1_655 S
C71 C69 1.486 . S
C71 H75 0.960 1_455 S
C71 H76 0.960 . S
C71 H77 0.959 . S
H72 C68 0.960 1_455 S
H73 C68 0.961 . S
H74 C68 0.960 . S
H75 C71 0.960 1_655 S
H76 C71 0.960 . S
H77 C71 0.959 . S
C78 N79 1.317 . S
C78 N80 1.350 1_556 S
C78 C81 1.485 . S
N79 C78 1.317 . S
N79 N83 1.371 1_556 S
N80 C78 1.350 1_554 S
N80 C82 1.345 1_565 S
C81 C78 1.485 . S
C81 H85 0.960 1_565 S
C81 H86 0.961 . S
C81 H87 0.960 . S
C82 N80 1.345 1_545 S
C82 N83 1.307 1_545 S
C82 C84 1.487 . S
N83 N79 1.371 1_554 S
N83 C82 1.307 1_565 S
C84 C82 1.487 . S
C84 H88 0.960 1_545 S
C84 H89 0.960 . S
C84 H90 0.959 . S
H85 C81 0.960 1_545 S
H86 C81 0.961 . S
H87 C81 0.960 . S
H88 C84 0.960 1_565 S
H89 C84 0.960 . S
H90 C84 0.959 . S
C91 N92 1.317 . S
C91 N93 1.348 1_556 S
C91 C94 1.485 . S
N92 C91 1.317 . S
N92 N96 1.370 1_556 S
N93 C91 1.348 1_554 S
N93 C95 1.346 . S
C94 C91 1.485 . S
C94 H98 0.960 . S
C94 H99 0.961 . S
C94 H100 0.960 . S
C95 N93 1.346 . S
C95 N96 1.307 . S
C95 C97 1.486 . S
N96 N92 1.370 1_554 S
N96 C95 1.307 . S
C97 C95 1.486 . S
C97 H101 0.960 . S
C97 H102 0.960 . S
C97 H103 0.959 . S
H98 C94 0.960 . S
H99 C94 0.961 . S
H100 C94 0.960 . S
H101 C97 0.960 . S
H102 C97 0.960 . S
H103 C97 0.959 . S
Ho104 C107 2.811 1_556 S
Ho104 O124 2.322 . S
Ho104 O126 2.378 1_556 S
Ho104 O127 2.524 1_556 S
Ho104 O128 2.381 . S
Ho104 O129 2.669 1_565 S
Ho104 O131 2.346 1_565 S
Ho104 O135 2.305 1_455 S
Ho105 C116 2.811 . S
Ho105 O125 2.346 1_545 S
Ho105 O129 2.305 1_655 S
Ho105 O130 2.322 . S
Ho105 O132 2.378 . S
Ho105 O133 2.524 . S
Ho105 O134 2.381 . S
Ho105 O135 2.669 1_545 S
C106 O124 1.259 1_655 S
C106 O125 1.268 . S
C107 Ho104 2.811 1_554 S
C107 C108 1.488 . S
C107 O126 1.215 . S
C107 O127 1.289 . S
C108 C107 1.488 . S
C108 C109 1.348 . S
C108 C113 1.413 . S
C109 C108 1.348 . S
C109 C110 1.442 . S
C109 H136 0.930 1_455 S
C110 C109 1.442 . S
C110 C111 1.381 . S
C110 H137 0.931 . S
C111 C110 1.381 . S
C111 C112 1.321 . S
C112 C111 1.321 . S
C112 C113 1.403 . S
C112 H138 0.934 . S
C113 C108 1.413 . S
C113 C112 1.403 . S
C113 H139 0.930 . S
C114 O128 1.275 . S
C114 O129 1.256 1_565 S
C115 O130 1.259 1_455 S
C115 O131 1.268 . S
C116 Ho105 2.811 . S
C116 C117 1.488 . S
C116 O132 1.215 . S
C116 O133 1.289 . S
C117 C116 1.488 . S
C117 C118 1.348 . S
C117 C122 1.413 . S
C118 C117 1.348 . S
C118 C119 1.442 . S
C118 H140 0.930 1_655 S
C119 C118 1.442 . S
C119 C120 1.381 . S
C119 H141 0.931 . S
C120 C119 1.381 . S
C120 C121 1.321 . S
C121 C120 1.321 . S
C121 C122 1.403 . S
C121 H142 0.934 . S
C122 C117 1.413 . S
C122 C121 1.403 . S
C122 H143 0.930 . S
C123 O134 1.275 . S
C123 O135 1.256 1_545 S
O124 Ho104 2.322 . S
O124 C106 1.259 1_455 S
O125 Ho105 2.346 1_565 S
O125 C106 1.268 . S
O126 Ho104 2.378 1_554 S
O126 C107 1.215 . S
O127 Ho104 2.524 1_554 S
O127 C107 1.289 . S
O128 Ho104 2.381 . S
O128 C114 1.275 . S
O129 Ho104 2.669 1_545 S
O129 Ho105 2.305 1_455 S
O129 C114 1.256 1_545 S
O130 Ho105 2.322 . S
O130 C115 1.259 1_655 S
O131 Ho104 2.346 1_545 S
O131 C115 1.268 . S
O132 Ho105 2.378 . S
O132 C116 1.215 . S
O133 Ho105 2.524 . S
O133 C116 1.289 . S
O134 Ho105 2.381 . S
O134 C123 1.275 . S
O135 Ho104 2.305 1_655 S
O135 Ho105 2.669 1_565 S
O135 C123 1.256 1_565 S
H136 C109 0.930 1_655 S
H137 C110 0.931 . S
H138 C112 0.934 . S
H139 C113 0.930 . S
H140 C118 0.930 1_455 S
H141 C119 0.931 . S
H142 C121 0.934 . S
H143 C122 0.930 . S
Ho144 C147 2.811 1_556 S
Ho144 O164 2.322 . S
Ho144 O166 2.378 1_556 S
Ho144 O167 2.524 1_556 S
Ho144 O168 2.381 . S
Ho144 O169 2.669 . S
Ho144 O171 2.346 . S
Ho144 O175 2.305 1_545 S
Ho145 C156 2.811 . S
Ho145 O165 2.346 . S
Ho145 O169 2.305 1_565 S
Ho145 O170 2.322 . S
Ho145 O172 2.378 . S
Ho145 O173 2.524 . S
Ho145 O174 2.381 . S
Ho145 O175 2.669 . S
C146 O164 1.259 1_565 S
C146 O165 1.268 . S
C147 Ho144 2.811 1_554 S
C147 C148 1.488 . S
C147 O166 1.215 . S
C147 O167 1.289 . S
C148 C147 1.488 . S
C148 C149 1.348 . S
C148 C153 1.413 . S
C149 C148 1.348 . S
C149 C150 1.442 . S
C149 H176 0.930 1_545 S
C150 C149 1.442 . S
C150 C151 1.381 . S
C150 H177 0.931 . S
C151 C150 1.381 . S
C151 C152 1.321 . S
C152 C151 1.321 . S
C152 C153 1.403 . S
C152 H178 0.934 . S
C153 C148 1.413 . S
C153 C152 1.403 . S
C153 H179 0.930 . S
C154 O168 1.275 . S
C154 O169 1.256 . S
C155 O170 1.259 1_545 S
C155 O171 1.268 . S
C156 Ho145 2.811 . S
C156 C157 1.488 . S
C156 O172 1.215 . S
C156 O173 1.289 . S
C157 C156 1.488 . S
C157 C158 1.348 . S
C157 C162 1.413 . S
C158 C157 1.348 . S
C158 C159 1.442 . S
C158 H180 0.930 1_565 S
C159 C158 1.442 . S
C159 C160 1.381 . S
C159 H181 0.931 . S
C160 C159 1.381 . S
C160 C161 1.321 . S
C161 C160 1.321 . S
C161 C162 1.403 . S
C161 H182 0.934 . S
C162 C157 1.413 . S
C162 C161 1.403 . S
C162 H183 0.930 . S
C163 O174 1.275 . S
C163 O175 1.256 . S
O164 Ho144 2.322 . S
O164 C146 1.259 1_545 S
O165 Ho145 2.346 . S
O165 C146 1.268 . S
O166 Ho144 2.378 1_554 S
O166 C147 1.215 . S
O167 Ho144 2.524 1_554 S
O167 C147 1.289 . S
O168 Ho144 2.381 . S
O168 C154 1.275 . S
O169 Ho144 2.669 . S
O169 Ho145 2.305 1_545 S
O169 C154 1.256 . S
O170 Ho145 2.322 . S
O170 C155 1.259 1_565 S
O171 Ho144 2.346 . S
O171 C155 1.268 . S
O172 Ho145 2.378 . S
O172 C156 1.215 . S
O173 Ho145 2.524 . S
O173 C156 1.289 . S
O174 Ho145 2.381 . S
O174 C163 1.275 . S
O175 Ho144 2.305 1_565 S
O175 Ho145 2.669 . S
O175 C163 1.256 . S
H176 C149 0.930 1_565 S
H177 C150 0.931 . S
H178 C152 0.934 . S
H179 C153 0.930 . S
H180 C158 0.930 1_545 S
H181 C159 0.931 . S
H182 C161 0.934 . S
H183 C162 0.930 . S
Ho184 C187 2.811 1_556 S
Ho184 O204 2.322 . S
Ho184 O206 2.378 1_556 S
Ho184 O207 2.524 1_556 S
Ho184 O208 2.381 . S
Ho184 O209 2.669 . S
Ho184 O211 2.346 . S
Ho184 O215 2.305 . S
Ho185 C196 2.811 . S
Ho185 O205 2.346 . S
Ho185 O209 2.305 . S
Ho185 O210 2.322 . S
Ho185 O212 2.378 . S
Ho185 O213 2.524 . S
Ho185 O214 2.381 . S
Ho185 O215 2.669 . S
C186 O204 1.259 . S
C186 O205 1.268 . S
C187 Ho184 2.811 1_554 S
C187 C188 1.488 . S
C187 O206 1.215 . S
C187 O207 1.289 . S
C188 C187 1.488 . S
C188 C189 1.348 . S
C188 C193 1.413 . S
C189 C188 1.348 . S
C189 C190 1.442 . S
C189 H216 0.930 . S
C190 C189 1.442 . S
C190 C191 1.381 . S
C190 H217 0.931 . S
C191 C190 1.381 . S
C191 C192 1.321 . S
C192 C191 1.321 . S
C192 C193 1.403 . S
C192 H218 0.934 . S
C193 C188 1.413 . S
C193 C192 1.403 . S
C193 H219 0.930 . S
C194 O208 1.275 . S
C194 O209 1.256 . S
C195 O210 1.259 . S
C195 O211 1.268 . S
C196 Ho185 2.811 . S
C196 C197 1.488 . S
C196 O212 1.215 . S
C196 O213 1.289 . S
C197 C196 1.488 . S
C197 C198 1.348 . S
C197 C202 1.413 . S
C198 C197 1.348 . S
C198 C199 1.442 . S
C198 H220 0.930 . S
C199 C198 1.442 . S
C199 C200 1.381 . S
C199 H221 0.931 . S
C200 C199 1.381 . S
C200 C201 1.321 . S
C201 C200 1.321 . S
C201 C202 1.403 . S
C201 H222 0.934 . S
C202 C197 1.413 . S
C202 C201 1.403 . S
C202 H223 0.930 . S
C203 O214 1.275 . S
C203 O215 1.256 . S
O204 Ho184 2.322 . S
O204 C186 1.259 . S
O205 Ho185 2.346 . S
O205 C186 1.268 . S
O206 Ho184 2.378 1_554 S
O206 C187 1.215 . S
O207 Ho184 2.524 1_554 S
O207 C187 1.289 . S
O208 Ho184 2.381 . S
O208 C194 1.275 . S
O209 Ho184 2.669 . S
O209 Ho185 2.305 . S
O209 C194 1.256 . S
O210 Ho185 2.322 . S
O210 C195 1.259 . S
O211 Ho184 2.346 . S
O211 C195 1.268 . S
O212 Ho185 2.378 . S
O212 C196 1.215 . S
O213 Ho185 2.524 . S
O213 C196 1.289 . S
O214 Ho185 2.381 . S
O214 C203 1.275 . S
O215 Ho184 2.305 . S
O215 Ho185 2.669 . S
O215 C203 1.256 . S
H216 C189 0.930 . S
H217 C190 0.931 . S
H218 C192 0.934 . S
H219 C193 0.930 . S
H220 C198 0.930 . S
H221 C199 0.931 . S
H222 C201 0.934 . S
H223 C202 0.930 . S
Ho224 C227 2.811 1_556 S
Ho224 O244 2.322 . S
Ho224 O246 2.378 1_556 S
Ho224 O247 2.524 1_556 S
Ho224 O248 2.381 . S
Ho224 O249 2.669 1_655 S
Ho224 O251 2.346 1_655 S
Ho224 O255 2.305 . S
Ho225 C236 2.811 . S
Ho225 O245 2.346 1_455 S
Ho225 O249 2.305 . S
Ho225 O250 2.322 . S
Ho225 O252 2.378 . S
Ho225 O253 2.524 . S
Ho225 O254 2.381 . S
Ho225 O255 2.669 1_455 S
C226 O244 1.259 . S
C226 O245 1.268 . S
C227 Ho224 2.811 1_554 S
C227 C228 1.488 . S
C227 O246 1.215 . S
C227 O247 1.289 . S
C228 C227 1.488 . S
C228 C229 1.348 . S
C228 C233 1.413 . S
C229 C228 1.348 . S
C229 C230 1.442 . S
C229 H256 0.930 . S
C230 C229 1.442 . S
C230 C231 1.381 . S
C230 H257 0.931 . S
C231 C230 1.381 . S
C231 C232 1.321 . S
C232 C231 1.321 . S
C232 C233 1.403 . S
C232 H258 0.934 . S
C233 C228 1.413 . S
C233 C232 1.403 . S
C233 H259 0.930 . S
C234 O248 1.282 . S
C234 O249 1.252 1_655 S
C235 O250 1.259 . S
C235 O251 1.268 . S
C236 Ho225 2.811 . S
C236 C237 1.488 . S
C236 O252 1.215 . S
C236 O253 1.289 . S
C237 C236 1.488 . S
C237 C238 1.348 . S
C237 C242 1.413 . S
C238 C237 1.348 . S
C238 C239 1.442 . S
C238 H260 0.930 . S
C239 C238 1.442 . S
C239 C240 1.381 . S
C239 H261 0.931 . S
C240 C239 1.381 . S
C240 C241 1.321 . S
C241 C240 1.321 . S
C241 C242 1.403 . S
C241 H262 0.934 . S
C242 C237 1.413 . S
C242 C241 1.403 . S
C242 H263 0.930 . S
C243 O254 1.285 . S
C243 O255 1.250 1_455 S
O244 Ho224 2.322 . S
O244 C226 1.259 . S
O245 Ho225 2.346 1_655 S
O245 C226 1.268 . S
O246 Ho224 2.378 1_554 S
O246 C227 1.215 . S
O247 Ho224 2.524 1_554 S
O247 C227 1.289 . S
O248 Ho224 2.381 . S
O248 C234 1.282 . S
O249 Ho224 2.669 1_455 S
O249 Ho225 2.305 . S
O249 C234 1.252 1_455 S
O250 Ho225 2.322 . S
O250 C235 1.259 . S
O251 Ho224 2.346 1_455 S
O251 C235 1.268 . S
O252 Ho225 2.378 . S
O252 C236 1.215 . S
O253 Ho225 2.524 . S
O253 C236 1.289 . S
O254 Ho225 2.381 . S
O254 C243 1.285 . S
O255 Ho224 2.305 . S
O255 Ho225 2.669 1_655 S
O255 C243 1.250 1_655 S
H256 C229 0.930 . S
H257 C230 0.931 . S
H258 C232 0.934 . S
H259 C233 0.930 . S
H260 C238 0.930 . S
H261 C239 0.931 . S
H262 C241 0.934 . S
H263 C242 0.930 . S
C264 C265 1.371 . S
C264 C266 1.419 . S
C264 H268 0.930 . S
C265 C264 1.371 . S
C265 C274 1.427 1_545 S
C266 C264 1.419 . S
C266 C267 1.368 . S
C266 H269 0.929 . S
C267 C266 1.368 . S
C267 C273 1.423 1_545 S
H268 C264 0.930 . S
H269 C266 0.929 . S
S270 N271 1.613 . S
S270 N272 1.610 . S
N271 S270 1.613 . S
N271 C274 1.350 . S
N272 S270 1.610 . S
N272 C273 1.351 . S
C273 C267 1.423 1_565 S
C273 N272 1.351 . S
C273 C274 1.434 . S
C274 C265 1.427 1_565 S
C274 N271 1.350 . S
C274 C273 1.434 . S
C275 C276 1.369 . S
C275 C277 1.419 . S
C275 H279 0.930 . S
C276 C275 1.369 . S
C276 C285 1.429 . S
C277 C275 1.419 . S
C277 C278 1.363 . S
C277 H280 0.929 . S
C278 C277 1.363 . S
C278 C284 1.428 . S
H279 C275 0.930 . S
H280 C277 0.929 . S
S281 N282 1.613 . S
S281 N283 1.610 . S
N282 S281 1.613 . S
N282 C285 1.350 . S
N283 S281 1.610 . S
N283 C284 1.351 . S
C284 C278 1.428 . S
C284 N283 1.351 . S
C284 C285 1.434 . S
C285 C276 1.429 . S
C285 N282 1.350 . S
C285 C284 1.434 . S
C286 C287 1.369 . S
C286 C288 1.419 . S
C286 H290 0.930 . S
C287 C286 1.369 . S
C287 C296 1.429 . S
C288 C286 1.419 . S
C288 C289 1.363 . S
C288 H291 0.929 . S
C289 C288 1.363 . S
C289 C295 1.428 . S
H290 C286 0.930 . S
H291 C288 0.929 . S
S292 N293 1.613 . S
S292 N294 1.610 . S
N293 S292 1.613 . S
N293 C296 1.350 . S
N294 S292 1.610 . S
N294 C295 1.351 . S
C295 C289 1.428 . S
C295 N294 1.351 . S
C295 C296 1.434 . S
C296 C287 1.429 . S
C296 N293 1.350 . S
C296 C295 1.434 . S
C297 C298 1.369 1_655 S
C297 C299 1.419 . S
C297 H301 0.930 . S
C298 C297 1.369 1_455 S
C298 C307 1.429 . S
C299 C297 1.419 . S
C299 C300 1.363 1_655 S
C299 H302 0.929 . S
C300 C299 1.363 1_455 S
C300 C306 1.428 . S
H301 C297 0.930 . S
H302 C299 0.929 . S
S303 N304 1.613 . S
S303 N305 1.610 . S
N304 S303 1.613 . S
N304 C307 1.350 . S
N305 S303 1.610 . S
N305 C306 1.351 . S
C306 C300 1.428 . S
C306 N305 1.351 . S
C306 C307 1.434 . S
C307 C298 1.429 . S
C307 N304 1.350 . S
C307 C306 1.434 . S
C308 C309 1.365 1_565 S
C308 C310 1.419 . S
C308 H312 0.930 . S
C309 C308 1.365 1_545 S
C309 C318 1.433 . S
C310 C308 1.419 . S
C310 C311 1.367 . S
C310 H313 0.929 . S
C311 C310 1.367 . S
C311 C317 1.424 1_565 S
H312 C308 0.930 . S
H313 C310 0.929 . S
S314 N315 1.613 . S
S314 N316 1.610 . S
N315 S314 1.613 . S
N315 C318 1.350 . S
N316 S314 1.610 . S
N316 C317 1.351 . S
C317 C311 1.424 1_545 S
C317 N316 1.351 . S
C317 C318 1.434 . S
C318 C309 1.433 . S
C318 N315 1.350 . S
C318 C317 1.434 . S
C319 C320 1.369 . S
C319 C321 1.419 . S
C319 H323 0.930 . S
C320 C319 1.369 . S
C320 C329 1.429 . S
C321 C319 1.419 . S
C321 C322 1.363 . S
C321 H324 0.929 . S
C322 C321 1.363 . S
C322 C328 1.428 . S
H323 C319 0.930 . S
H324 C321 0.929 . S
S325 N326 1.613 . S
S325 N327 1.610 . S
N326 S325 1.613 . S
N326 C329 1.350 . S
N327 S325 1.610 . S
N327 C328 1.351 . S
C328 C322 1.428 . S
C328 N327 1.351 . S
C328 C329 1.434 . S
C329 C320 1.429 . S
C329 N326 1.350 . S
C329 C328 1.434 . S
C330 C331 1.369 . S
C330 C332 1.419 . S
C330 H334 0.930 . S
C331 C330 1.369 . S
C331 C340 1.429 . S
C332 C330 1.419 . S
C332 C333 1.363 . S
C332 H335 0.929 . S
C333 C332 1.363 . S
C333 C339 1.428 . S
H334 C330 0.930 . S
H335 C332 0.929 . S
S336 N337 1.613 . S
S336 N338 1.610 . S
N337 S336 1.613 . S
N337 C340 1.350 . S
N338 S336 1.610 . S
N338 C339 1.351 . S
C339 C333 1.428 . S
C339 N338 1.351 . S
C339 C340 1.434 . S
C340 C331 1.429 . S
C340 N337 1.350 . S
C340 C339 1.434 . S
C341 C342 1.363 1_455 S
C341 C343 1.419 . S
C341 H345 0.930 . S
C342 C341 1.363 1_655 S
C342 C351 1.436 . S
C343 C341 1.419 . S
C343 C344 1.363 1_455 S
C343 H346 0.929 . S
C344 C343 1.363 1_655 S
C344 C350 1.428 . S
H345 C341 0.930 . S
H346 C343 0.929 . S
S347 N348 1.613 . S
S347 N349 1.610 . S
N348 S347 1.613 . S
N348 C351 1.350 . S
N349 S347 1.610 . S
N349 C350 1.351 . S
C350 C344 1.428 . S
C350 N349 1.351 . S
C350 C351 1.434 . S
C351 C342 1.436 . S
C351 N348 1.350 . S
C351 C350 1.434 . S
C352 C353 1.369 1_455 S
C352 C354 1.419 1_455 S
C352 H356 0.930 . S
C353 C352 1.369 1_655 S
C353 C362 1.429 . S
C354 C352 1.419 1_655 S
C354 C355 1.363 . S
C354 H357 0.929 . S
C355 C354 1.363 . S
C355 C361 1.428 . S
H356 C352 0.930 . S
H357 C354 0.929 . S
S358 N359 1.613 . S
S358 N360 1.610 . S
N359 S358 1.613 . S
N359 C362 1.350 . S
N360 S358 1.610 . S
N360 C361 1.351 . S
C361 C355 1.428 . S
C361 N360 1.351 . S
C361 C362 1.434 . S
C362 C353 1.429 . S
C362 N359 1.350 . S
C362 C361 1.434 . S
C363 C364 1.369 . S
C363 C365 1.419 . S
C363 H367 0.930 . S
C364 C363 1.369 . S
C364 C373 1.429 1_565 S
C365 C363 1.419 . S
C365 C366 1.363 . S
C365 H368 0.929 . S
C366 C365 1.363 . S
C366 C372 1.428 . S
H367 C363 0.930 . S
H368 C365 0.929 . S
S369 N370 1.613 . S
S369 N371 1.610 1_545 S
N370 S369 1.613 . S
N370 C373 1.350 . S
N371 S369 1.610 1_565 S
N371 C372 1.351 . S
C372 C366 1.428 . S
C372 N371 1.351 . S
C372 C373 1.434 1_565 S
C373 C364 1.429 1_545 S
C373 N370 1.350 . S
C373 C372 1.434 1_545 S
C374 C375 1.369 . S
C374 C376 1.419 . S
C374 H378 0.930 . S
C375 C374 1.369 . S
C375 C384 1.429 . S
C376 C374 1.419 . S
C376 C377 1.363 . S
C376 H379 0.929 . S
C377 C376 1.363 . S
C377 C383 1.428 . S
H378 C374 0.930 . S
H379 C376 0.929 . S
S380 N381 1.613 . S
S380 N382 1.610 1_556 S
N381 S380 1.613 . S
N381 C384 1.350 1_556 S
N382 S380 1.610 1_554 S
N382 C383 1.351 . S
C383 C377 1.428 . S
C383 N382 1.351 . S
C383 C384 1.434 . S
C384 C375 1.429 . S
C384 N381 1.350 1_554 S
C384 C383 1.434 . S
C385 C386 1.369 . S
C385 C387 1.419 . S
C385 H389 0.930 . S
C386 C385 1.369 . S
C386 C395 1.429 . S
C387 C385 1.419 . S
C387 C388 1.363 . S
C387 H390 0.929 . S
C388 C387 1.363 . S
C388 C394 1.428 . S
H389 C385 0.930 . S
H390 C387 0.929 . S
S391 N392 1.613 . S
S391 N393 1.610 . S
N392 S391 1.613 . S
N392 C395 1.350 . S
N393 S391 1.610 . S
N393 C394 1.351 . S
C394 C388 1.428 . S
C394 N393 1.351 . S
C394 C395 1.434 . S
C395 C386 1.429 . S
C395 N392 1.350 . S
C395 C394 1.434 . S
C396 C397 1.369 . S
C396 C398 1.419 . S
C396 H400 0.930 1_455 S
C397 C396 1.369 . S
C397 C406 1.429 . S
C398 C396 1.419 . S
C398 C399 1.363 . S
C398 H401 0.929 . S
C399 C398 1.363 . S
C399 C405 1.428 . S
H400 C396 0.930 1_655 S
H401 C398 0.929 . S
S402 N403 1.613 . S
S402 N404 1.610 . S
N403 S402 1.613 . S
N403 C406 1.350 . S
N404 S402 1.610 . S
N404 C405 1.351 . S
C405 C399 1.428 . S
C405 N404 1.351 . S
C405 C406 1.434 . S
C406 C397 1.429 . S
C406 N403 1.350 . S
C406 C405 1.434 . S
C407 C408 1.369 1_565 S
C407 C409 1.419 1_565 S
C407 H411 0.930 . S
C408 C407 1.369 1_545 S
C408 C417 1.429 . S
C409 C407 1.419 1_545 S
C409 C410 1.363 . S
C409 H412 0.929 . S
C410 C409 1.363 . S
C410 C416 1.428 . S
H411 C407 0.930 . S
H412 C409 0.929 . S
S413 N414 1.613 . S
S413 N415 1.610 . S
N414 S413 1.613 . S
N414 C417 1.350 . S
N415 S413 1.610 . S
N415 C416 1.351 . S
C416 C410 1.428 . S
C416 N415 1.351 . S
C416 C417 1.434 . S
C417 C408 1.429 . S
C417 N414 1.350 . S
C417 C416 1.434 . S
C418 C419 1.369 . S
C418 C420 1.419 . S
C418 H422 0.930 . S
C419 C418 1.369 . S
C419 C428 1.429 . S
C420 C418 1.419 . S
C420 C421 1.363 . S
C420 H423 0.929 . S
C421 C420 1.363 . S
C421 C427 1.428 . S
H422 C418 0.930 . S
H423 C420 0.929 . S
S424 N425 1.613 . S
S424 N426 1.610 . S
N425 S424 1.613 . S
N425 C428 1.350 . S
N426 S424 1.610 . S
N426 C427 1.351 . S
C427 C421 1.428 . S
C427 N426 1.351 . S
C427 C428 1.434 . S
C428 C419 1.429 . S
C428 N425 1.350 . S
C428 C427 1.434 . S
C429 C430 1.369 . S
C429 C431 1.419 . S
C429 H433 0.930 . S
C430 C429 1.369 . S
C430 C439 1.429 . S
C431 C429 1.419 . S
C431 C432 1.363 . S
C431 H434 0.929 . S
C432 C431 1.363 . S
C432 C438 1.428 . S
H433 C429 0.930 . S
H434 C431 0.929 . S
S435 N436 1.613 . S
S435 N437 1.610 . S
N436 S435 1.613 . S
N436 C439 1.350 . S
N437 S435 1.610 . S
N437 C438 1.351 . S
C438 C432 1.428 . S
C438 N437 1.351 . S
C438 C439 1.434 . S
C439 C430 1.429 . S
C439 N436 1.350 . S
C439 C438 1.434 . S
C440 C441 1.369 1_654 S
C440 C442 1.419 . S
C440 H444 0.930 . S
C441 C440 1.369 1_456 S
C441 C450 1.429 . S
C442 C440 1.419 . S
C442 C443 1.363 1_654 S
C442 H445 0.929 . S
C443 C442 1.363 1_456 S
C443 C449 1.428 . S
H444 C440 0.930 . S
H445 C442 0.929 . S
S446 N447 1.613 . S
S446 N448 1.610 . S
N447 S446 1.613 . S
N447 C450 1.350 . S
N448 S446 1.610 . S
N448 C449 1.351 . S
C449 C443 1.428 . S
C449 N448 1.351 . S
C449 C450 1.434 . S
C450 C441 1.429 . S
C450 N447 1.350 . S
C450 C449 1.434 . S
C451 C452 1.369 1_565 S
C451 C453 1.419 . S
C451 H455 0.930 . S
C452 C451 1.369 1_545 S
C452 C461 1.429 . S
C453 C451 1.419 . S
C453 C454 1.363 1_565 S
C453 H456 0.929 . S
C454 C453 1.363 1_545 S
C454 C460 1.428 . S
H455 C451 0.930 . S
H456 C453 0.929 . S
S457 N458 1.613 . S
S457 N459 1.610 . S
N458 S457 1.613 . S
N458 C461 1.350 . S
N459 S457 1.610 . S
N459 C460 1.351 . S
C460 C454 1.428 . S
C460 N459 1.351 . S
C460 C461 1.434 . S
C461 C452 1.429 . S
C461 N458 1.350 . S
C461 C460 1.434 . S
C462 C463 1.369 1_554 S
C462 C464 1.419 . S
C462 H466 0.930 . S
C463 C462 1.369 1_556 S
C463 C472 1.429 . S
C464 C462 1.419 . S
C464 C465 1.363 1_554 S
C464 H467 0.929 . S
C465 C464 1.363 1_556 S
C465 C471 1.428 . S
H466 C462 0.930 . S
H467 C464 0.929 . S
S468 N469 1.613 . S
S468 N470 1.610 . S
N469 S468 1.613 . S
N469 C472 1.350 . S
N470 S468 1.610 . S
N470 C471 1.351 . S
C471 C465 1.428 . S
C471 N470 1.351 . S
C471 C472 1.434 . S
C472 C463 1.429 . S
C472 N469 1.350 . S
C472 C471 1.434 . S
C473 C474 1.369 . S
C473 C475 1.419 . S
C473 H477 0.930 . S
C474 C473 1.369 . S
C474 C483 1.429 . S
C475 C473 1.419 . S
C475 C476 1.363 . S
C475 H478 0.929 . S
C476 C475 1.363 . S
C476 C482 1.428 . S
H477 C473 0.930 . S
H478 C475 0.929 . S
S479 N480 1.613 . S
S479 N481 1.610 . S
N480 S479 1.613 . S
N480 C483 1.350 . S
N481 S479 1.610 . S
N481 C482 1.351 . S
C482 C476 1.428 . S
C482 N481 1.351 . S
C482 C483 1.434 . S
C483 C474 1.429 . S
C483 N480 1.350 . S
C483 C482 1.434 . S
C484 C485 1.369 . S
C484 C486 1.419 . S
C484 H488 0.930 . S
C485 C484 1.369 . S
C485 C494 1.426 1_655 S
C486 C484 1.419 . S
C486 C487 1.363 . S
C486 H489 0.929 . S
C487 C486 1.363 . S
C487 C493 1.428 . S
H488 C484 0.930 . S
H489 C486 0.929 . S
S490 N491 1.613 . S
S490 N492 1.610 . S
N491 S490 1.613 . S
N491 C494 1.353 1_554 S
N492 S490 1.610 . S
N492 C493 1.351 1_454 S
C493 C487 1.428 . S
C493 N492 1.351 1_656 S
C493 C494 1.432 1_655 S
C494 C485 1.426 1_455 S
C494 N491 1.353 1_556 S
C494 C493 1.432 1_455 S
C495 C496 1.369 . S
C495 C497 1.419 . S
C495 H499 0.925 1_565 S
C496 C495 1.369 . S
C496 C505 1.429 . S
C497 C495 1.419 . S
C497 C498 1.363 . S
C497 H500 0.929 . S
C498 C497 1.363 . S
C498 C504 1.428 . S
H499 C495 0.925 1_545 S
H500 C497 0.929 . S
S501 N502 1.613 . S
S501 N503 1.610 . S
N502 S501 1.613 . S
N502 C505 1.350 1_554 S
N503 S501 1.610 . S
N503 C504 1.351 1_554 S
C504 C498 1.428 . S
C504 N503 1.351 1_556 S
C504 C505 1.434 . S
C505 C496 1.429 . S
C505 N502 1.350 1_556 S
C505 C504 1.434 . S
C506 C507 1.369 . S
C506 C508 1.419 . S
C506 H510 0.930 . S
C507 C506 1.369 . S
C507 C516 1.429 . S
C508 C506 1.419 . S
C508 C509 1.363 . S
C508 H511 0.929 . S
C509 C508 1.363 . S
C509 C515 1.428 . S
H510 C506 0.930 . S
H511 C508 0.929 . S
S512 N513 1.613 1_554 S
S512 N514 1.610 1_554 S
N513 S512 1.613 1_556 S
N513 C516 1.350 . S
N514 S512 1.610 1_556 S
N514 C515 1.351 . S
C515 C509 1.428 . S
C515 N514 1.351 . S
C515 C516 1.434 . S
C516 C507 1.429 . S
C516 N513 1.350 . S
C516 C515 1.434 . S
C517 C518 1.369 . S
C517 C519 1.419 . S
C517 H521 0.930 . S
C518 C517 1.369 . S
C518 C527 1.429 . S
C519 C517 1.419 . S
C519 C520 1.363 . S
C519 H522 0.929 . S
C520 C519 1.363 . S
C520 C526 1.428 . S
H521 C517 0.930 . S
H522 C519 0.929 . S
S523 N524 1.613 . S
S523 N525 1.610 . S
N524 S523 1.613 . S
N524 C527 1.350 . S
N525 S523 1.610 . S
N525 C526 1.351 . S
C526 C520 1.428 . S
C526 N525 1.351 . S
C526 C527 1.434 . S
C527 C518 1.429 . S
C527 N524 1.350 . S
C527 C526 1.434 . S
C265 N80 1.998 1_545 S
C267 C114 2.160 1_545 S
C278 C154 2.179 . S
C276 N93 2.018 . S
C289 C194 2.191 . S
C287 N54 2.029 . S
C300 C234 2.176 1_455 S
C298 N67 2.011 1_455 S
C311 C123 2.163 1_564 S
C309 N28 1.994 1_545 S
C320 N41 2.006 . S
C322 C163 2.181 1_554 S
C331 N2 2.020 . S
C333 C203 2.192 1_554 S
C342 N15 2.014 . S
C344 C243 2.175 1_654 S
C355 C120 0.829 . S
C353 N70 0.824 . S
C366 C160 0.812 . S
C364 N83 0.838 . S
C377 C200 0.822 . S
C375 N96 0.818 . S
C386 N57 0.819 . S
C388 C240 0.821 . S
C397 N18 0.828 1_455 S
C399 C111 0.830 . S
C410 C151 0.828 . S
C408 N31 0.822 1_545 S
C421 C191 0.815 . S
C419 N44 0.830 . S
C430 N5 0.825 . S
C432 C231 0.825 . S
C441 N66 2.410 1_455 S
C443 C115 2.521 . S
C452 N79 2.368 1_545 S
C454 C155 2.483 . S
C465 C195 2.466 . S
C463 N92 2.360 . S
C476 C235 2.511 . S
C474 N53 2.396 . S
C485 N14 2.398 . S
C487 C106 2.527 . S
C498 C146 2.482 . S
C496 N27 2.356 . S
C509 C186 2.468 . S
C507 N40 2.337 . S
C518 N1 2.373 . S
C520 C226 2.513 . S
