# Generated by pormake.
# Topology apo, (3,6)-cn, num edge types: 1
# Building blocks:
#     Node 0, Type 0, BuildingBlock: BETDIP_clean_linker_0, # of connection points: 3
#     Node 1, Type 0, BuildingBlock: BETDIP_clean_linker_0, # of connection points: 3
#     Node 2, Type 0, BuildingBlock: BETDIP_clean_linker_0, # of connection points: 3
#     Node 3, Type 0, BuildingBlock: BETDIP_clean_linker_0, # of connection points: 3
#     Node 4, Type 0, BuildingBlock: BETDIP_clean_linker_0, # of connection points: 3
#     Node 5, Type 0, BuildingBlock: BETDIP_clean_linker_0, # of connection points: 3
#     Node 6, Type 0, BuildingBlock: BETDIP_clean_linker_0, # of connection points: 3
#     Node 7, Type 0, BuildingBlock: BETDIP_clean_linker_0, # of connection points: 3
#     Node 8, Type 1, BuildingBlock: KUMBOL_clean_sbu_1, # of connection points: 6
#     Node 9, Type 1, BuildingBlock: KUMBOL_clean_sbu_1, # of connection points: 6
#     Node 10, Type 1, BuildingBlock: KUMBOL_clean_sbu_1, # of connection points: 6
#     Node 11, Type 1, BuildingBlock: KUMBOL_clean_sbu_1, # of connection points: 6
#     Edge 12, Type (0, 1), BuildingBlock: AJUNOK_clean_linker_0, # of connection points: 2
#     Edge 13, Type (0, 1), BuildingBlock: AJUNOK_clean_linker_0, # of connection points: 2
#     Edge 14, Type (0, 1), BuildingBlock: AJUNOK_clean_linker_0, # of connection points: 2
#     Edge 15, Type (0, 1), BuildingBlock: AJUNOK_clean_linker_0, # of connection points: 2
#     Edge 16, Type (0, 1), BuildingBlock: AJUNOK_clean_linker_0, # of connection points: 2
#     Edge 17, Type (0, 1), BuildingBlock: AJUNOK_clean_linker_0, # of connection points: 2
#     Edge 18, Type (0, 1), BuildingBlock: AJUNOK_clean_linker_0, # of connection points: 2
#     Edge 19, Type (0, 1), BuildingBlock: AJUNOK_clean_linker_0, # of connection points: 2
#     Edge 20, Type (0, 1), BuildingBlock: AJUNOK_clean_linker_0, # of connection points: 2
#     Edge 21, Type (0, 1), BuildingBlock: AJUNOK_clean_linker_0, # of connection points: 2
#     Edge 22, Type (0, 1), BuildingBlock: AJUNOK_clean_linker_0, # of connection points: 2
#     Edge 23, Type (0, 1), BuildingBlock: AJUNOK_clean_linker_0, # of connection points: 2
#     Edge 24, Type (0, 1), BuildingBlock: AJUNOK_clean_linker_0, # of connection points: 2
#     Edge 25, Type (0, 1), BuildingBlock: AJUNOK_clean_linker_0, # of connection points: 2
#     Edge 26, Type (0, 1), BuildingBlock: AJUNOK_clean_linker_0, # of connection points: 2
#     Edge 27, Type (0, 1), BuildingBlock: AJUNOK_clean_linker_0, # of connection points: 2
#     Edge 28, Type (0, 1), BuildingBlock: AJUNOK_clean_linker_0, # of connection points: 2
#     Edge 29, Type (0, 1), BuildingBlock: AJUNOK_clean_linker_0, # of connection points: 2
#     Edge 30, Type (0, 1), BuildingBlock: AJUNOK_clean_linker_0, # of connection points: 2
#     Edge 31, Type (0, 1), BuildingBlock: AJUNOK_clean_linker_0, # of connection points: 2
#     Edge 32, Type (0, 1), BuildingBlock: AJUNOK_clean_linker_0, # of connection points: 2
#     Edge 33, Type (0, 1), BuildingBlock: AJUNOK_clean_linker_0, # of connection points: 2
#     Edge 34, Type (0, 1), BuildingBlock: AJUNOK_clean_linker_0, # of connection points: 2
#     Edge 35, Type (0, 1), BuildingBlock: AJUNOK_clean_linker_0, # of connection points: 2
# Relax obj value: 0.037
# Max RMSD: 0.217
# Mean RMSD: 0.168
data_MOF--net-apo--node1-KUMBOL_clean_sbu_1--node2-BETDIP_clean_linker_0--edge1-AJUNOK_clean_linker_0
_symmetry_space_group_name_H-M    P1
_symmetry_Int_Tables_number       1
_symmetry_cell_setting            triclinic
loop_
_symmetry_equiv_pos_as_xyz
'x, y, z'
_cell_length_a     20.899676
_cell_length_b     30.560448
_cell_length_c     39.508905
_cell_angle_alpha  89.574046
_cell_angle_beta   90.197197
_cell_angle_gamma 90.82932
loop_
_atom_site_label
_atom_site_type_symbol
_atom_site_fract_x
_atom_site_fract_y
_atom_site_fract_z
_atom_type_partial_charge
H0 H 0.28219 0.33682 0.45294 0.0
H1 H 0.28607 0.39776 0.35392 0.0
H2 H 0.39208 0.45515 0.43512 0.0
H3 H 0.2514 0.33627 0.33548 0.0
C4 C 0.2285 0.317 0.35524 0.0
C5 C 0.29862 0.36267 0.43603 0.0
C6 C 0.33963 0.396 0.4483 0.0
C7 C 0.28001 0.36189 0.40175 0.0
C8 C 0.30085 0.39614 0.3801 0.0
C9 C 0.34188 0.42915 0.3921 0.0
C10 C 0.36106 0.429 0.42601 0.0
N11 N 0.2409 0.32637 0.38998 0.0
H12 H 0.21607 0.15395 0.9578 0.0
H13 H 0.18188 0.11392 0.85539 0.0
H14 H 0.11604 0.03226 0.93788 0.0
H15 H 0.30937 0.14215 0.86649 0.0
C16 C 0.28853 0.17386 0.87142 0.0
C17 C 0.19545 0.13057 0.94024 0.0
C18 C 0.16492 0.09221 0.95242 0.0
C19 C 0.20273 0.13807 0.90543 0.0
C20 C 0.17736 0.1077 0.88234 0.0
C21 C 0.14549 0.06969 0.89389 0.0
C22 C 0.1404 0.06168 0.92894 0.0
N23 N 0.23594 0.17625 0.89397 0.0
H24 H 0.75821 0.18189 0.60144 0.0
H25 H 0.74156 0.10941 0.6947 0.0
H26 H 0.86888 0.06566 0.6172 0.0
H27 H 0.64312 0.13899 0.69429 0.0
C28 C 0.65311 0.17223 0.68575 0.0
C29 C 0.77165 0.15418 0.61709 0.0
C30 C 0.81697 0.12447 0.60538 0.0
C31 C 0.74346 0.14871 0.64888 0.0
C32 C 0.76168 0.11347 0.66965 0.0
C33 C 0.80621 0.08311 0.6583 0.0
C34 C 0.83409 0.08885 0.6261 0.0
N35 N 0.69859 0.18003 0.65972 0.0
H36 H 0.75839 0.34386 0.09488 0.0
H37 H 0.72092 0.39229 0.19454 0.0
H38 H 0.6373 0.45542 0.10801 0.0
H39 H 0.81533 0.36155 0.20598 0.0
C40 C 0.81258 0.33109 0.19203 0.0
C41 C 0.73469 0.36696 0.11112 0.0
C42 C 0.6973 0.40035 0.09685 0.0
C43 C 0.74419 0.36412 0.1462 0.0
C44 C 0.71426 0.39423 0.16742 0.0
C45 C 0.6758 0.4273 0.15388 0.0
C46 C 0.66747 0.43015 0.11855 0.0
N47 N 0.78339 0.33034 0.15943 0.0
H48 H 0.74955 0.64743 0.58849 0.0
H49 H 0.70141 0.60305 0.6888 0.0
H50 H 0.64517 0.52604 0.60265 0.0
H51 H 0.79425 0.64122 0.70121 0.0
C52 C 0.79184 0.67021 0.68522 0.0
C53 C 0.72694 0.62335 0.605 0.0
C54 C 0.69639 0.58629 0.59109 0.0
C55 C 0.73064 0.62922 0.64005 0.0
C56 C 0.70115 0.59819 0.66168 0.0
C57 C 0.67048 0.56078 0.64838 0.0
C58 C 0.66913 0.55465 0.61305 0.0
N59 N 0.76352 0.667 0.65252 0.0
H60 H 0.79445 0.83466 0.09372 0.0
H61 H 0.79422 0.88708 0.19444 0.0
H62 H 0.89457 0.95558 0.11536 0.0
H63 H 0.69293 0.85743 0.19207 0.0
C64 C 0.70457 0.82505 0.18299 0.0
C65 C 0.8095 0.85973 0.11141 0.0
C66 C 0.84789 0.89532 0.10028 0.0
C67 C 0.78912 0.85686 0.14524 0.0
C68 C 0.80919 0.88916 0.16829 0.0
C69 C 0.84809 0.92445 0.15782 0.0
C70 C 0.86631 0.92757 0.12372 0.0
N71 N 0.74866 0.82138 0.15578 0.0
H72 H 0.27042 0.84542 0.45265 0.0
H73 H 0.24157 0.90033 0.35368 0.0
H74 H 0.1462 0.95529 0.43941 0.0
H75 H 0.32604 0.86368 0.34007 0.0
C76 C 0.32683 0.83471 0.35608 0.0
C77 C 0.24745 0.86922 0.43633 0.0
C78 C 0.20711 0.90059 0.45021 0.0
C79 C 0.26019 0.86879 0.40169 0.0
C80 C 0.23141 0.89993 0.38042 0.0
C81 C 0.18926 0.93095 0.39349 0.0
C82 C 0.17811 0.93146 0.42871 0.0
N83 N 0.30043 0.83561 0.38912 0.0
H84 H 0.24265 0.67045 0.94725 0.0
H85 H 0.26851 0.61751 0.84819 0.0
H86 H 0.35619 0.55535 0.93408 0.0
H87 H 0.26687 0.68951 0.83365 0.0
C88 C 0.22785 0.70135 0.84901 0.0
C89 C 0.26458 0.64652 0.93104 0.0
C90 C 0.30069 0.61239 0.94508 0.0
C91 C 0.25562 0.64984 0.89603 0.0
C92 C 0.27982 0.61719 0.87492 0.0
C93 C 0.31646 0.58304 0.88835 0.0
C94 C 0.32723 0.58123 0.92347 0.0
N95 N 0.22061 0.68563 0.88272 0.0
C96 C 0.79837 0.08182 0.29371 0.0
C97 C 0.78911 1.00464 0.30869 0.0
C98 C 0.82427 0.04433 0.30802 0.0
C99 C 0.72824 1.00267 0.2936 0.0
C100 C 0.7361 0.08028 0.2798 0.0
C101 C 0.70187 0.04036 0.27912 0.0
N102 N 0.83248 0.12014 0.29506 0.0
C103 C 0.80373 0.15862 0.28661 0.0
C104 C 0.70917 0.11917 0.268 0.0
C105 C 0.74266 0.15861 0.27205 0.0
Gd106 Gd 0.05632 0.11581 0.2355 0.0
Gd107 Gd 0.93676 0.11482 0.31796 0.0
N108 N 0.88419 0.04675 0.32141 0.0
C109 C 0.81585 0.96832 0.32499 0.0
C110 C 0.9094 0.01219 0.33876 0.0
C111 C 0.8758 0.97233 0.34057 0.0
H112 H 0.95614 0.01529 0.35041 0.0
H113 H 0.89641 0.94463 0.35364 0.0
H114 H 0.0013 0.19878 0.18742 0.0
H115 H 0.82668 0.18971 0.29166 0.0
H116 H 0.03865 0.27116 0.16728 0.0
H117 H 0.79023 0.93727 0.32612 0.0
H118 H 0.70069 0.97236 0.29353 0.0
H119 H 0.18421 0.06653 0.26838 0.0
H120 H 0.66153 0.11936 0.2571 0.0
H121 H 0.72095 0.18916 0.26458 0.0
H122 H 0.25765 0.27972 0.20397 0.0
H123 H 0.65425 0.03854 0.26824 0.0
H124 H 0.34394 0.15542 0.26213 0.0
H125 H 0.29813 0.08356 0.2794 0.0
N126 N 0.16518 0.12873 0.24638 0.0
C127 C 0.18994 0.16761 0.2354 0.0
C128 C 0.20339 0.09822 0.26124 0.0
C129 C 0.2938 0.1482 0.2574 0.0
C130 C 0.26809 0.10764 0.26727 0.0
C131 C 0.25479 0.17867 0.241 0.0
H132 H 0.32828 0.22868 0.2341 0.0
N133 N 0.08789 0.18434 0.2133 0.0
C134 C 0.15 0.19635 0.21852 0.0
C135 C 0.13303 0.26449 0.18863 0.0
C136 C 0.17413 0.23694 0.2066 0.0
C137 C 0.04872 0.21 0.19416 0.0
C138 C 0.07026 0.2507 0.18205 0.0
O139 O 0.94153 0.05784 0.28138 0.0
O140 O 0.95214 0.09915 0.23481 0.0
O141 O 0.06451 0.11421 0.18081 0.0
O142 O 0.08176 0.05547 0.21007 0.0
O143 O 0.03698 0.09072 0.3245 0.0
O144 O 0.066 0.05955 0.27354 0.0
O145 O 0.09348 0.15041 0.28234 0.0
O146 O 0.00617 0.17248 0.31463 0.0
O147 O 0.95666 0.10095 0.37085 0.0
O148 O 0.87707 0.14179 0.35751 0.0
O149 O 0.96191 0.15136 0.23322 0.0
O150 O 0.93755 0.17733 0.28635 0.0
C151 C 0.93386 0.06255 0.24876 0.0
C152 C 0.06655 0.06075 0.30707 0.0
C153 C 0.13502 0.06386 0.15674 0.0
C154 C 0.17523 0.06092 0.09855 0.0
C155 C 0.24337 0.04028 0.14602 0.0
C156 C 0.19434 0.04934 0.16875 0.0
C157 C 0.23399 0.04591 0.11121 0.0
C158 C 0.1257 0.06948 0.12161 0.0
C159 C 0.08209 0.07366 0.18006 0.0
C160 C 0.23841 0.24854 0.21271 0.0
C161 C 0.27865 0.21947 0.22986 0.0
H162 H 0.14968 0.29596 0.17909 0.0
C163 C 0.06615 0.17633 0.30437 0.0
C164 C 0.9403 0.18217 0.25316 0.0
C165 C 0.92555 0.15253 0.41108 0.0
C166 C 0.92088 0.16441 0.47203 0.0
C167 C 0.97951 0.21547 0.4357 0.0
C168 C 0.96285 0.19072 0.40731 0.0
C169 C 0.95894 0.20237 0.46793 0.0
C170 C 0.90425 0.13969 0.44337 0.0
C171 C 0.91024 0.12461 0.38201 0.0
H172 H 0.28904 0.02907 0.15543 0.0
H173 H 0.20285 0.04501 0.19562 0.0
H174 H 0.27313 0.03926 0.09418 0.0
H175 H 0.0797 0.08032 0.11226 0.0
H176 H 0.00844 0.24491 0.43272 0.0
H177 H 0.97925 0.20118 0.38253 0.0
H178 H 0.97171 0.2223 0.48955 0.0
H179 H 0.87532 0.11015 0.44626 0.0
C180 C 0.68344 0.4291 0.78383 0.0
C181 C 0.67714 0.50771 0.79113 0.0
C182 C 0.64989 0.46545 0.79462 0.0
C183 C 0.73732 0.513 0.77576 0.0
C184 C 0.74407 0.43422 0.76873 0.0
C185 C 0.77066 0.47638 0.76459 0.0
N186 N 0.65559 0.38877 0.78716 0.0
C187 C 0.68635 0.35215 0.77695 0.0
C188 C 0.77578 0.39681 0.75786 0.0
C189 C 0.74687 0.3556 0.76209 0.0
Gd190 Gd 0.40856 0.38465 0.743 0.0
Gd191 Gd 0.55326 0.38654 0.81098 0.0
N192 N 0.59079 0.45944 0.80856 0.0
C193 C 0.64343 0.54336 0.80359 0.0
C194 C 0.56051 0.49356 0.82327 0.0
C195 C 0.58543 0.53612 0.82031 0.0
H196 H 0.51837 0.48806 0.83829 0.0
H197 H 0.5604 0.56323 0.83141 0.0
H198 H 0.42059 0.27624 0.73332 0.0
H199 H 0.66428 0.32024 0.78034 0.0
H200 H 0.35192 0.21027 0.73891 0.0
H201 H 0.66271 0.57636 0.80141 0.0
H202 H 0.75873 0.54527 0.77261 0.0
H203 H 0.31485 0.47069 0.75816 0.0
H204 H 0.82246 0.39938 0.7461 0.0
H205 H 0.7711 0.32652 0.75384 0.0
H206 H 0.1465 0.26638 0.76907 0.0
H207 H 0.81706 0.481 0.75284 0.0
H208 H 0.12684 0.42165 0.78089 0.0
H209 H 0.20276 0.48396 0.77416 0.0
N210 N 0.30316 0.40144 0.75744 0.0
C211 C 0.26198 0.36676 0.76037 0.0
C212 C 0.28255 0.44317 0.76185 0.0
C213 C 0.17615 0.41557 0.77422 0.0
C214 C 0.2189 0.45084 0.77053 0.0
C215 C 0.19734 0.3729 0.76897 0.0
H216 H 0.10622 0.3405 0.7787 0.0
N217 N 0.34778 0.3199 0.7478 0.0
C218 C 0.28466 0.32485 0.75492 0.0
C219 C 0.26818 0.24649 0.75245 0.0
C220 C 0.24332 0.28816 0.7579 0.0
C221 C 0.37163 0.27963 0.74101 0.0
C222 C 0.33252 0.24227 0.74374 0.0
O223 O 0.56934 0.40825 0.75615 0.0
O224 O 0.47654 0.44258 0.7427 0.0
O225 O 0.42373 0.36479 0.69103 0.0
O226 O 0.35228 0.41298 0.70225 0.0
O227 O 0.45882 0.41762 0.82414 0.0
O228 O 0.42351 0.44573 0.77345 0.0
O229 O 0.38866 0.34993 0.79335 0.0
O230 O 0.48564 0.32876 0.81638 0.0
O231 O 0.5546 0.40049 0.86488 0.0
O232 O 0.62069 0.354 0.84447 0.0
O233 O 0.49677 0.34446 0.73251 0.0
O234 O 0.54208 0.3226 0.78366 0.0
C235 C 0.53847 0.43859 0.73934 0.0
C236 C 0.42439 0.44549 0.80665 0.0
C237 C 0.4042 0.41835 0.64939 0.0
C238 C 0.41158 0.42846 0.58814 0.0
C239 C 0.46306 0.48057 0.6262 0.0
C240 C 0.44084 0.45662 0.65408 0.0
C241 C 0.44848 0.46671 0.59342 0.0
C242 C 0.38936 0.40445 0.6164 0.0
C243 C 0.38241 0.39218 0.67864 0.0
C244 C 0.17893 0.29418 0.76653 0.0
C245 C 0.15602 0.33641 0.77206 0.0
H246 H 0.23804 0.21747 0.75464 0.0
C247 C 0.42296 0.32518 0.81379 0.0
C248 C 0.53011 0.3171 0.75121 0.0
C249 C 0.65412 0.39438 0.89269 0.0
C250 C 0.6955 0.41197 0.94914 0.0
C251 C 0.75607 0.43253 0.89881 0.0
C252 C 0.70854 0.41422 0.87823 0.0
C253 C 0.74983 0.43135 0.93397 0.0
C254 C 0.64786 0.39319 0.92821 0.0
C255 C 0.60312 0.37544 0.87116 0.0
H256 H 0.49133 0.5101 0.63 0.0
H257 H 0.4519 0.46803 0.67927 0.0
H258 H 0.46521 0.48632 0.57219 0.0
H259 H 0.36115 0.37479 0.61274 0.0
H260 H 0.79812 0.44753 0.88745 0.0
H261 H 0.71455 0.4154 0.8511 0.0
H262 H 0.78801 0.4451 0.94935 0.0
H263 H 0.60572 0.37808 0.93949 0.0
C264 C 0.77692 0.84436 0.78171 0.0
C265 C 0.77333 0.76579 0.79058 0.0
C266 C 0.80575 0.80643 0.79268 0.0
C267 C 0.71281 0.7636 0.77507 0.0
C268 C 0.71445 0.84276 0.76812 0.0
C269 C 0.68346 0.80205 0.76378 0.0
N270 N 0.80785 0.8831 0.78704 0.0
C271 C 0.77583 0.92151 0.78308 0.0
C272 C 0.68399 0.88219 0.76079 0.0
C273 C 0.7143 0.92173 0.76903 0.0
Gd274 Gd 0.03851 0.89815 0.72762 0.0
Gd275 Gd 0.91492 0.87874 0.80631 0.0
N276 N 0.86449 0.80968 0.80711 0.0
C277 C 0.80197 0.72893 0.80507 0.0
C278 C 0.89111 0.77454 0.82308 0.0
C279 C 0.86061 0.7335 0.82195 0.0
H280 H 0.93689 0.77816 0.83568 0.0
H281 H 0.88254 0.7054 0.83381 0.0
H282 H 0.96651 0.97073 0.6765 0.0
H283 H 0.7976 0.95225 0.79057 0.0
H284 H 0.96825 0.05055 0.66587 0.0
H285 H 0.77859 0.69709 0.80405 0.0
H286 H 0.68751 0.73258 0.77266 0.0
H287 H 0.17828 0.87441 0.76419 0.0
H288 H 0.63603 0.88243 0.75029 0.0
H289 H 0.69002 0.95238 0.76494 0.0
H290 H 0.14692 0.10266 0.73159 0.0
H291 H 0.63583 0.8001 0.75293 0.0
H292 H 0.27968 0.99452 0.78393 0.0
H293 H 0.27304 0.91366 0.78744 0.0
N294 N 0.1321 0.93256 0.74834 0.0
C295 C 0.13643 0.9767 0.74456 0.0
C296 C 0.18134 0.90965 0.76241 0.0
C297 C 0.23832 0.97745 0.7736 0.0
C298 C 0.23477 0.93179 0.77561 0.0
C299 C 0.18918 1.00047 0.75754 0.0
H300 H 0.23139 0.06514 0.76371 0.0
N301 N 0.03961 0.97332 0.71385 0.0
C302 C 0.08816 0.99779 0.72716 0.0
C303 C 0.0469 0.06269 0.70009 0.0
C304 C 0.09237 0.04331 0.72128 0.0
C305 C -0.00056 0.99129 0.69047 0.0
C306 C 0.00133 0.03632 0.68384 0.0
O307 O 0.93371 0.82388 0.76985 0.0
O308 O 0.94876 0.8567 0.71806 0.0
O309 O 0.05423 0.90528 0.6737 0.0
O310 O 0.10427 0.85528 0.70136 0.0
O311 O 0.01471 0.8496 0.81203 0.0
O312 O 0.05709 0.83748 0.75832 0.0
O313 O 0.0593 0.92094 0.78162 0.0
O314 O 0.96324 0.94447 0.80035 0.0
O315 O 0.95214 0.87355 0.85743 0.0
O316 O 0.85445 0.89278 0.84963 0.0
O317 O 0.93394 0.91297 0.72041 0.0
O318 O 0.90494 0.93895 0.77231 0.0
C319 C 0.92612 0.82438 0.73694 0.0
C320 C 0.05556 0.83048 0.79131 0.0
C321 C 0.15452 0.88686 0.65264 0.0
C322 C 0.20252 0.90117 0.59729 0.0
C323 C 0.26402 0.91381 0.64876 0.0
C324 C 0.21186 0.90002 0.66834 0.0
C325 C 0.25942 0.91459 0.61345 0.0
C326 C 0.15016 0.88744 0.61714 0.0
C327 C 0.0971 0.87517 0.67237 0.0
C328 C 0.14335 0.06756 0.73543 0.0
C329 C 0.19161 0.04618 0.75359 0.0
H330 H 0.04856 0.09752 0.69477 0.0
C331 C 0.02552 0.94857 0.79914 0.0
C332 C 0.89975 0.93902 0.73906 0.0
C333 C 0.90753 0.91842 0.89879 0.0
C334 C 0.90678 0.93503 0.95912 0.0
C335 C 0.94257 0.98998 0.91818 0.0
C336 C 0.93096 0.96073 0.89179 0.0
C337 C 0.93077 0.97725 0.95168 0.0
C338 C 0.89488 0.90583 0.93241 0.0
C339 C 0.89968 0.88616 0.87166 0.0
H340 H 0.30811 0.92405 0.66099 0.0
H341 H 0.21624 0.90005 0.69559 0.0
H342 H 0.30054 0.9252 0.59875 0.0
H343 H 0.10548 0.87804 0.60499 0.0
H344 H 0.96102 0.02254 0.91267 0.0
H345 H 0.9407 0.9709 0.86603 0.0
H346 H 0.93984 1.00049 0.97177 0.0
H347 H 0.87725 0.87298 0.93787 0.0
C348 C 0.69874 0.6747 0.29125 0.0
C349 C 0.68408 0.74904 0.31024 0.0
C350 C 0.66132 0.70562 0.30683 0.0
C351 C 0.74371 0.76114 0.29644 0.0
C352 C 0.75935 0.68625 0.27821 0.0
C353 C 0.7813 0.7298 0.28049 0.0
N354 N 0.6752 0.63325 0.28845 0.0
C355 C 0.71131 0.60095 0.27497 0.0
C356 C 0.79597 0.65362 0.26328 0.0
C357 C 0.7721 0.61068 0.26199 0.0
Gd358 Gd 0.43463 0.616 0.23329 0.0
Gd359 Gd 0.57104 0.62016 0.30811 0.0
N360 N 0.6035 0.69291 0.31947 0.0
C361 C 0.64677 0.77874 0.32797 0.0
C362 C 0.56958 0.72082 0.33909 0.0
C363 C 0.58983 0.76432 0.34302 0.0
H364 H 0.52757 0.70958 0.35239 0.0
H365 H 0.56186 0.78654 0.35797 0.0
H366 H 0.45427 0.51487 0.205 0.0
H367 H 0.69288 0.56778 0.27391 0.0
H368 H 0.39859 0.44277 0.20787 0.0
H369 H 0.66244 0.81242 0.33111 0.0
H370 H 0.76163 0.79447 0.29846 0.0
H371 H 0.32688 0.69006 0.25975 0.0
H372 H 0.84288 0.66113 0.25299 0.0
H373 H 0.80037 0.58514 0.25089 0.0
H374 H 0.2058 0.47159 0.26932 0.0
H375 H 0.8275 0.73947 0.27031 0.0
H376 H 0.16418 0.62035 0.29863 0.0
H377 H 0.2222 0.69017 0.28791 0.0
N378 N 0.33265 0.6206 0.25836 0.0
C379 C 0.29957 0.58215 0.26191 0.0
C380 C 0.30417 0.6592 0.26604 0.0
C381 C 0.21116 0.62001 0.28713 0.0
C382 C 0.24388 0.65946 0.28127 0.0
C383 C 0.23821 0.58077 0.27668 0.0
H384 H 0.15841 0.5388 0.29146 0.0
N385 N 0.38413 0.54694 0.23419 0.0
C386 C 0.32577 0.54424 0.24918 0.0
C387 C 0.31935 0.46703 0.23671 0.0
C388 C 0.29214 0.50404 0.25125 0.0
C389 C 0.40929 0.51164 0.21825 0.0
C390 C 0.37782 0.47098 0.21978 0.0
O391 O 0.59464 0.64503 0.25538 0.0
O392 O 0.50168 0.67505 0.23523 0.0
O393 O 0.44577 0.60469 0.17914 0.0
O394 O 0.3708 0.64622 0.19709 0.0
O395 O 0.47697 0.6548 0.31694 0.0
O396 O 0.44008 0.67758 0.26447 0.0
O397 O 0.44555 0.5617 0.27229 0.0
O398 O 0.46977 0.59972 0.31976 0.0
O399 O 0.59715 0.6255 0.36118 0.0
O400 O 0.60772 0.56371 0.33561 0.0
O401 O 0.53045 0.58737 0.22169 0.0
O402 O 0.57008 0.5607 0.27305 0.0
C403 C 0.56423 0.67611 0.23932 0.0
C404 C 0.44472 0.68204 0.29749 0.0
C405 C 0.34814 0.60475 0.14863 0.0
C406 C 0.3077 0.59089 0.09161 0.0
C407 C 0.24982 0.56277 0.14064 0.0
C408 C 0.29539 0.58166 0.16204 0.0
C409 C 0.25566 0.56746 0.10566 0.0
C410 C 0.35451 0.60891 0.11339 0.0
C411 C 0.39478 0.62645 0.17116 0.0
C412 C 0.23222 0.50225 0.2672 0.0
C413 C 0.20528 0.54053 0.27986 0.0
H414 H 0.29502 0.43551 0.2378 0.0
C415 C 0.44151 0.56668 0.30502 0.0
C416 C 0.56371 0.55911 0.23961 0.0
C417 C 0.66879 0.57556 0.38627 0.0
C418 C 0.71101 0.56895 0.44403 0.0
C419 C 0.77882 0.55433 0.39548 0.0
C420 C 0.72845 0.56382 0.37335 0.0
C421 C 0.77025 0.55673 0.43054 0.0
C422 C 0.66034 0.57802 0.42157 0.0
C423 C 0.61388 0.58488 0.364 0.0
H424 H 0.20921 0.54513 0.15122 0.0
H425 H 0.28867 0.57888 0.18903 0.0
H426 H 0.21866 0.55351 0.08959 0.0
H427 H 0.39556 0.6264 0.10305 0.0
H428 H 0.82481 0.54522 0.38542 0.0
H429 H 0.736 0.56185 0.3463 0.0
H430 H 0.81026 0.54971 0.44712 0.0
H431 H 0.61394 0.58661 0.43153 0.0
C432 C 0.15444 0.00745 0.38017 0.0
C433 C 0.1585 0.96343 0.37039 0.0
C434 C 0.12622 0.03873 0.35902 0.0
C435 C 0.10171 0.02756 0.32693 0.0
H436 H 0.17353 0.01802 0.40433 0.0
H437 H 0.12354 0.07208 0.368 0.0
S438 S 0.09949 0.91702 0.28909 0.0
N439 N 0.13333 0.9101 0.32652 0.0
N440 N 0.08372 0.96969 0.28614 0.0
C441 C 0.10652 0.98402 0.31639 0.0
C442 C 0.13394 0.95179 0.33826 0.0
C443 C 0.33804 0.50421 0.87634 0.0
C444 C 0.34182 0.54839 0.866 0.0
C445 C 0.36351 0.47099 0.8565 0.0
C446 C 0.39241 0.48053 0.82525 0.0
H447 H 0.31546 0.49518 0.90006 0.0
H448 H 0.36079 0.43755 0.86576 0.0
S449 S 0.41666 0.59042 0.78679 0.0
N450 N 0.37931 0.59978 0.82273 0.0
N451 N 0.42416 0.53682 0.78474 0.0
C452 C 0.39531 0.52421 0.81408 0.0
C453 C 0.37077 0.55827 0.83463 0.0
C454 C 0.5867 0.54247 0.69168 0.0
C455 C 0.6381 0.52898 0.67156 0.0
C456 C 0.55483 0.51302 0.71354 0.0
C457 C 0.5739 0.46917 0.71656 0.0
H458 H 0.57048 0.57594 0.69016 0.0
H459 H 0.5151 0.52474 0.72831 0.0
S460 S 0.70736 0.41805 0.67038 0.0
N461 N 0.70748 0.46921 0.65653 0.0
N462 N 0.64836 0.41401 0.69798 0.0
C463 C 0.62605 0.45553 0.69708 0.0
C464 C 0.65783 0.48535 0.67442 0.0
C465 C 0.86471 1.00327 0.17293 0.0
C466 C 0.86859 0.95885 0.18219 0.0
C467 C 0.88552 0.03634 0.19484 0.0
C468 C 0.91062 0.02642 0.22703 0.0
H469 H 0.84518 0.01265 0.14855 0.0
H470 H 0.88164 0.07004 0.18645 0.0
S471 S 0.93196 0.91535 0.2634 0.0
N472 N 0.90051 0.90665 0.22564 0.0
N473 N 0.93862 0.969 0.26703 0.0
C474 C 0.91412 0.98224 0.23685 0.0
C475 C 0.89333 0.94844 0.2144 0.0
C476 C 0.84408 0.05193 0.71373 0.0
C477 C 0.82301 0.04532 0.68021 0.0
C478 C 0.86428 0.01672 0.73399 0.0
C479 C 0.86401 0.97385 0.72131 0.0
H480 H 0.84762 0.08473 0.72383 0.0
H481 H 0.88387 0.02351 0.75884 0.0
S482 S 0.80246 0.93852 0.63754 0.0
N483 N 0.79534 0.99225 0.63697 0.0
N484 N 0.8329 0.92617 0.67496 0.0
C485 C 0.83829 0.96658 0.68886 0.0
C486 C 0.81826 1.00232 0.66824 0.0
C487 C 0.65426 0.50505 0.16914 0.0
C488 C 0.64719 0.46019 0.17667 0.0
C489 C 0.62893 0.53683 0.19044 0.0
C490 C 0.5963 0.52502 0.22027 0.0
H491 H 0.67979 0.5157 0.14665 0.0
H492 H 0.63458 0.57101 0.1834 0.0
S493 S 0.56049 0.41235 0.25035 0.0
N494 N 0.60202 0.40563 0.21531 0.0
N495 N 0.55556 0.46576 0.25556 0.0
C496 C 0.58895 0.48048 0.22825 0.0
C497 C 0.61409 0.44797 0.20638 0.0
C498 C 0.32847 0.49847 0.35904 0.0
C499 C 0.36695 0.46326 0.36892 0.0
C500 C 0.35311 0.53216 0.33831 0.0
C501 C 0.41615 0.53083 0.3262 0.0
H502 H 0.27964 0.50039 0.36797 0.0
H503 H 0.32295 0.55953 0.332 0.0
S504 S 0.53588 0.44594 0.34529 0.0
N505 N 0.47107 0.42944 0.36583 0.0
N506 N 0.51652 0.49198 0.32588 0.0
C507 C 0.45471 0.49567 0.33574 0.0
C508 C 0.4302 0.46194 0.35733 0.0
C509 C 0.14023 0.99727 0.86422 0.0
C510 C 0.11547 0.03928 0.86919 0.0
C511 C 0.11214 0.96838 0.84069 0.0
C512 C 0.05758 0.9803 0.82197 0.0
H513 H 0.18167 0.9868 0.87851 0.0
H514 H 0.13226 0.93617 0.83776 0.0
S515 S 0.97573 0.08694 0.82517 0.0
N516 N 0.03478 0.09177 0.85285 0.0
N517 N 0.9812 0.03728 0.80933 0.0
C518 C 0.03291 0.02233 0.82657 0.0
C519 C 0.06204 0.05187 0.85003 0.0
C520 C 0.18216 0.04334 1.00307 0.0
C521 C 0.16127 0.0835 0.98964 0.0
C522 C 0.18517 0.03598 0.03821 0.0
C523 C 0.16676 0.06827 0.06138 0.0
H524 H 0.19836 0.01791 0.98632 0.0
H525 H 0.20277 1.00487 0.04735 0.0
S526 S 0.10441 0.17795 0.03922 0.0
N527 N 0.11833 0.15502 1.0023 0.0
N528 N 0.12475 0.14142 0.06818 0.0
C529 C 0.14372 0.10799 0.04824 0.0
C530 C 0.14091 0.11556 1.01248 0.0
C531 C 0.31349 0.39753 0.51027 0.0
C532 C 0.35964 0.3977 0.48442 0.0
C533 C 0.3309 0.40582 0.54405 0.0
C534 C 0.39503 0.41461 0.55311 0.0
H535 H 0.26329 0.39299 0.50412 0.0
H536 H 0.29355 0.40725 0.56294 0.0
S537 S 0.53499 0.41211 0.4957 0.0
N538 N 0.47285 0.40252 0.47077 0.0
N539 N 0.50547 0.41807 0.53408 0.0
C540 C 0.44193 0.41235 0.52778 0.0
C541 C 0.42427 0.40388 0.49351 0.0
C542 C 0.67872 0.36772 0.03919 0.0
C543 C 0.69172 0.40476 0.05928 0.0
C544 C 0.67761 0.37058 1.00365 0.0
C545 C 0.69006 0.4105 0.98677 0.0
H546 H 0.66997 0.33614 0.05104 0.0
H547 H 0.66901 0.34101 0.98928 0.0
S548 S 0.72361 0.51755 0.0274 0.0
N549 N 0.71559 0.48289 0.05941 0.0
N550 N 0.71219 0.48834 0.99286 0.0
C551 C 0.70123 0.44799 1.00654 0.0
C552 C 0.7023 0.44512 0.04267 0.0
C553 C 0.80503 0.13618 0.54297 0.0
C554 C 0.84535 0.13112 0.57129 0.0
C555 C 0.83006 0.14585 0.51084 0.0
C556 C 0.89628 0.15152 0.50594 0.0
H557 H 0.75361 0.13304 0.54576 0.0
H558 H 0.79721 0.15008 0.48984 0.0
S559 S 0.02241 0.14027 0.57157 0.0
N560 N 0.95481 0.13119 0.59219 0.0
N561 N 0.00192 0.14978 0.53178 0.0
C562 C 0.93723 0.14582 0.53391 0.0
C563 C 0.91176 0.13541 0.56657 0.0
C564 C 0.81941 0.89568 0.03833 0.0
C565 C 0.86597 0.90077 0.06393 0.0
C566 C 0.8334 0.9057 1.00435 0.0
C567 C 0.89426 0.92158 0.99475 0.0
H568 H 0.77109 0.88543 0.04473 0.0
H569 H 0.79569 0.90244 0.98562 0.0
S570 S 0.03535 0.93546 0.051 0.0
N571 N 0.97753 0.91839 0.07647 0.0
N572 N 0.00292 0.93835 1.01289 0.0
C573 C 0.9419 0.9252 1.01977 0.0
C574 C 0.928 0.9145 0.05425 0.0
C575 C 0.71801 0.54265 0.53867 0.0
C576 C 0.69443 0.58083 0.5536 0.0
C577 C 0.7225 0.53883 0.50328 0.0
C578 C 0.70274 0.57276 0.48144 0.0
H579 H 0.73499 0.51611 0.55448 0.0
H580 H 0.74197 0.50914 0.49293 0.0
S581 S 0.63431 0.67852 0.50785 0.0
N582 N 0.64846 0.65241 0.54378 0.0
N583 N 0.65717 0.64537 0.47752 0.0
C584 C 0.67736 0.61056 0.49609 0.0
C585 C 0.67321 0.61456 0.53206 0.0
C586 C 0.29684 0.56645 0.9977 0.0
C587 C 0.30768 0.60759 0.98238 0.0
C588 C 0.29886 0.56121 0.0329 0.0
C589 C 0.31157 0.59692 0.05429 0.0
H590 H 0.28496 0.53817 0.98242 0.0
H591 H 0.28955 0.52895 0.04348 0.0
S592 S 0.34667 0.71119 0.02684 0.0
N593 N 0.33551 0.68422 0.9912 0.0
N594 N 0.33663 0.6748 0.05753 0.0
C595 C 0.32406 0.6381 0.03932 0.0
C596 C 0.32252 0.64335 1.00337 0.0
C597 C 0.21533 0.93945 0.50564 0.0
C598 C 0.19812 0.90169 0.48743 0.0
C599 C 0.21573 0.93924 0.54119 0.0
C600 C 0.19812 0.90145 0.55974 0.0
H601 H 0.23095 0.96881 0.49233 0.0
H602 H 0.23061 0.96872 0.55428 0.0
S603 S 0.14565 0.79496 0.52385 0.0
N604 N 0.16032 0.82622 0.49041 0.0
N605 N 0.16097 0.8258 0.55715 0.0
C606 C 0.17867 0.864 0.54176 0.0
C607 C 0.17876 0.86411 0.50564 0.0
C608 C 0.16496 0.28039 0.31012 0.0
C609 C 0.18511 0.28092 0.34415 0.0
C610 C 0.12549 0.24673 0.29768 0.0
C611 C 0.10556 0.21198 0.31863 0.0
H612 H 0.17964 0.30638 0.2929 0.0
H613 H 0.10993 0.24814 0.27157 0.0
S614 S 0.14605 0.19648 0.40919 0.0
N615 N 0.18204 0.2431 0.39863 0.0
N616 N 0.10906 0.17915 0.37467 0.0
C617 C 0.12497 0.21185 0.35266 0.0
C618 C 0.16463 0.24647 0.36557 0.0
C619 C 0.28981 0.25095 0.84876 0.0
C620 C 0.32311 0.21382 0.85972 0.0
C621 C 0.32259 0.28745 0.83503 0.0
C622 C 0.38986 0.28827 0.83193 0.0
H623 H 0.23803 0.25129 0.84981 0.0
H624 H 0.29478 0.31503 0.82647 0.0
S625 S 0.49905 0.20153 0.86294 0.0
N626 N 0.42656 0.18146 0.87006 0.0
N627 N 0.48856 0.25023 0.8456 0.0
C628 C 0.42364 0.25221 0.84503 0.0
C629 C 0.39013 0.21486 0.85836 0.0
C630 C 0.62844 0.25215 0.68995 0.0
C631 C 0.61978 0.20891 0.70184 0.0
C632 C 0.5983 0.2871 0.70582 0.0
C633 C 0.55963 0.27994 0.73435 0.0
H634 H 0.65875 0.2592 0.66835 0.0
H635 H 0.60627 0.31999 0.69614 0.0
S636 S 0.51794 0.1731 0.77378 0.0
N637 N 0.56683 0.16086 0.74262 0.0
N638 N 0.51134 0.22688 0.77278 0.0
C639 C 0.54993 0.23706 0.7462 0.0
C640 C 0.57969 0.20142 0.72979 0.0
C641 C 0.877 0.29623 0.23771 0.0
C642 C 0.84377 0.29203 0.20683 0.0
C643 C 0.90747 0.26042 0.2528 0.0
C644 C 0.90605 0.21915 0.23743 0.0
H645 H 0.87976 0.3276 0.25028 0.0
H646 H 0.93317 0.26523 0.27638 0.0
S647 S 0.82157 0.18964 0.15783 0.0
N648 N 0.80871 0.24245 0.16225 0.0
N649 N 0.86564 0.17526 0.19069 0.0
C650 C 0.87191 0.21418 0.20691 0.0
C651 C 0.84085 0.2506 0.19155 0.0
C652 C 0.86882 0.70736 0.7241 0.0
C653 C 0.82704 0.71033 0.69627 0.0
C654 C 0.90238 0.74415 0.7361 0.0
C655 C 0.89492 0.78567 0.7211 0.0
H656 H 0.87559 0.67625 0.73687 0.0
H657 H 0.93412 0.74005 0.75758 0.0
S658 S 0.79102 0.81151 0.64764 0.0
N659 N 0.78032 0.75838 0.65374 0.0
N660 N 0.84298 0.82761 0.67674 0.0
C661 C 0.85413 0.78911 0.69291 0.0
C662 C 0.82005 0.75149 0.68048 0.0
C663 C 0.68709 0.7435 0.19007 0.0
C664 C 0.66985 0.78672 0.19768 0.0
C665 C 0.65353 0.70754 0.20418 0.0
C666 C 0.60098 0.71377 0.22566 0.0
H667 H 0.72673 0.73736 0.17327 0.0
H668 H 0.66795 0.67472 0.19777 0.0
S669 S 0.54094 0.81977 0.25614 0.0
N670 N 0.60001 0.83327 0.23027 0.0
N671 N 0.5366 0.7658 0.25589 0.0
C672 C 0.58442 0.75659 0.23402 0.0
C673 C 0.61902 0.79304 0.22026 0.0
C674 C 0.37228 0.79397 0.30808 0.0
C675 C 0.35565 0.79461 0.34245 0.0
C676 C 0.39945 0.75701 0.29366 0.0
C677 C 0.4124 0.71952 0.31323 0.0
H678 H 0.36396 0.82227 0.29206 0.0
H679 H 0.41086 0.75811 0.26697 0.0
S680 S 0.37385 0.70323 0.40411 0.0
N681 N 0.35106 0.75362 0.39555 0.0
N682 N 0.40254 0.68414 0.36836 0.0
C683 C 0.39459 0.71926 0.34753 0.0
C684 C 0.36632 0.75686 0.36221 0.0
C685 C 0.13764 0.75448 0.85423 0.0
C686 C 0.18441 0.73436 0.83441 0.0
C687 C 0.09645 0.78564 0.84017 0.0
C688 C 0.10016 0.79762 0.80569 0.0
H689 H 0.13277 0.74629 0.88082 0.0
H690 H 0.06129 0.80021 0.85653 0.0
S691 S 0.215 0.75358 0.74311 0.0
N692 N 0.23257 0.72827 0.7789 0.0
N693 N 0.15518 0.78606 0.75213 0.0
C694 C 0.14694 0.77739 0.78565 0.0
C695 C 0.18902 0.746 0.8001 0.0
loop_
_geom_bond_atom_site_label_1
_geom_bond_atom_site_label_2
_geom_bond_distance
_geom_bond_site_symmetry_2
_ccdc_geom_bond_type
H0 C5 0.930 . S
H1 C8 0.930 . S
H2 C10 0.930 . S
H3 C4 1.016 . S
C4 H3 1.016 . S
C4 N11 1.286 . S
C5 H0 0.930 . S
C5 C6 1.397 . S
C5 C7 1.361 . S
C6 C5 1.397 . S
C6 C10 1.390 . S
C7 C5 1.361 . S
C7 C8 1.393 . S
C7 N11 1.413 . S
C8 H1 0.930 . S
C8 C7 1.393 . S
C8 C9 1.399 . S
C9 C8 1.399 . S
C9 C10 1.381 . S
C10 H2 0.930 . S
C10 C6 1.390 . S
C10 C9 1.381 . S
N11 C4 1.286 . S
N11 C7 1.413 . S
H12 C17 0.930 . S
H13 C20 0.930 . S
H14 C22 0.930 . S
H15 C16 1.016 . S
C16 H15 1.016 . S
C16 N23 1.286 . S
C17 H12 0.930 . S
C17 C18 1.397 . S
C17 C19 1.361 . S
C18 C17 1.397 . S
C18 C22 1.390 . S
C19 C17 1.361 . S
C19 C20 1.393 . S
C19 N23 1.413 . S
C20 H13 0.930 . S
C20 C19 1.393 . S
C20 C21 1.399 . S
C21 C20 1.399 . S
C21 C22 1.381 . S
C22 H14 0.930 . S
C22 C18 1.390 . S
C22 C21 1.381 . S
N23 C16 1.286 . S
N23 C19 1.413 . S
H24 C29 0.930 . S
H25 C32 0.930 . S
H26 C34 0.930 . S
H27 C28 1.016 . S
C28 H27 1.016 . S
C28 N35 1.286 . S
C29 H24 0.930 . S
C29 C30 1.397 . S
C29 C31 1.361 . S
C30 C29 1.397 . S
C30 C34 1.390 . S
C31 C29 1.361 . S
C31 C32 1.393 . S
C31 N35 1.413 . S
C32 H25 0.930 . S
C32 C31 1.393 . S
C32 C33 1.399 . S
C33 C32 1.399 . S
C33 C34 1.381 . S
C34 H26 0.930 . S
C34 C30 1.390 . S
C34 C33 1.381 . S
N35 C28 1.286 . S
N35 C31 1.413 . S
H36 C41 0.930 . S
H37 C44 0.930 . S
H38 C46 0.930 . S
H39 C40 1.016 . S
C40 H39 1.016 . S
C40 N47 1.286 . S
C41 H36 0.930 . S
C41 C42 1.397 . S
C41 C43 1.361 . S
C42 C41 1.397 . S
C42 C46 1.390 . S
C43 C41 1.361 . S
C43 C44 1.393 . S
C43 N47 1.413 . S
C44 H37 0.930 . S
C44 C43 1.393 . S
C44 C45 1.399 . S
C45 C44 1.399 . S
C45 C46 1.381 . S
C46 H38 0.930 . S
C46 C42 1.390 . S
C46 C45 1.381 . S
N47 C40 1.286 . S
N47 C43 1.413 . S
H48 C53 0.930 . S
H49 C56 0.930 . S
H50 C58 0.930 . S
H51 C52 1.016 . S
C52 H51 1.016 . S
C52 N59 1.286 . S
C53 H48 0.930 . S
C53 C54 1.397 . S
C53 C55 1.361 . S
C54 C53 1.397 . S
C54 C58 1.390 . S
C55 C53 1.361 . S
C55 C56 1.393 . S
C55 N59 1.413 . S
C56 H49 0.930 . S
C56 C55 1.393 . S
C56 C57 1.399 . S
C57 C56 1.399 . S
C57 C58 1.381 . S
C58 H50 0.930 . S
C58 C54 1.390 . S
C58 C57 1.381 . S
N59 C52 1.286 . S
N59 C55 1.413 . S
H60 C65 0.930 . S
H61 C68 0.930 . S
H62 C70 0.930 . S
H63 C64 1.016 . S
C64 H63 1.016 . S
C64 N71 1.286 . S
C65 H60 0.930 . S
C65 C66 1.397 . S
C65 C67 1.361 . S
C66 C65 1.397 . S
C66 C70 1.390 . S
C67 C65 1.361 . S
C67 C68 1.393 . S
C67 N71 1.413 . S
C68 H61 0.930 . S
C68 C67 1.393 . S
C68 C69 1.399 . S
C69 C68 1.399 . S
C69 C70 1.381 . S
C70 H62 0.930 . S
C70 C66 1.390 . S
C70 C69 1.381 . S
N71 C64 1.286 . S
N71 C67 1.413 . S
H72 C77 0.930 . S
H73 C80 0.930 . S
H74 C82 0.930 . S
H75 C76 1.016 . S
C76 H75 1.016 . S
C76 N83 1.286 . S
C77 H72 0.930 . S
C77 C78 1.397 . S
C77 C79 1.361 . S
C78 C77 1.397 . S
C78 C82 1.390 . S
C79 C77 1.361 . S
C79 C80 1.393 . S
C79 N83 1.413 . S
C80 H73 0.930 . S
C80 C79 1.393 . S
C80 C81 1.399 . S
C81 C80 1.399 . S
C81 C82 1.381 . S
C82 H74 0.930 . S
C82 C78 1.390 . S
C82 C81 1.381 . S
N83 C76 1.286 . S
N83 C79 1.413 . S
H84 C89 0.930 . S
H85 C92 0.930 . S
H86 C94 0.930 . S
H87 C88 1.016 . S
C88 H87 1.016 . S
C88 N95 1.286 . S
C89 H84 0.930 . S
C89 C90 1.397 . S
C89 C91 1.361 . S
C90 C89 1.397 . S
C90 C94 1.390 . S
C91 C89 1.361 . S
C91 C92 1.393 . S
C91 N95 1.413 . S
C92 H85 0.930 . S
C92 C91 1.393 . S
C92 C93 1.399 . S
C93 C92 1.399 . S
C93 C94 1.381 . S
C94 H86 0.930 . S
C94 C90 1.390 . S
C94 C93 1.381 . S
N95 C88 1.286 . S
N95 C91 1.413 . S
C96 C98 1.422 . S
C96 C100 1.415 . S
C96 N102 1.369 . S
C97 C98 1.421 1_565 S
C97 C99 1.417 . S
C97 C109 1.422 . S
C98 C96 1.422 . S
C98 C97 1.421 1_545 S
C98 N108 1.359 . S
C99 C97 1.417 . S
C99 C101 1.329 1_565 S
C99 H118 0.930 . S
C100 C96 1.415 . S
C100 C101 1.437 . S
C100 C104 1.413 . S
C101 C99 1.329 1_545 S
C101 C100 1.437 . S
C101 H123 0.929 . S
N102 C96 1.369 . S
N102 C103 1.338 . S
N102 Gd107 2.622 . S
C103 N102 1.338 . S
C103 C105 1.378 . S
C103 H115 0.929 . S
C104 C100 1.413 . S
C104 C105 1.348 . S
C104 H120 0.931 . S
C105 C103 1.378 . S
C105 C104 1.348 . S
C105 H121 0.930 . S
Gd106 N126 2.622 . S
Gd106 N133 2.570 . S
Gd106 O140 2.353 1_455 S
Gd106 O141 2.468 . S
Gd106 O142 2.427 . S
Gd106 O144 2.388 . S
Gd106 O145 2.386 . S
Gd106 O149 2.307 1_455 S
Gd106 C159 2.805 . S
Gd107 N102 2.622 . S
Gd107 N108 2.570 . S
Gd107 O139 2.386 . S
Gd107 O143 2.307 1_655 S
Gd107 O146 2.353 1_655 S
Gd107 O147 2.468 . S
Gd107 O148 2.427 . S
Gd107 O150 2.388 . S
Gd107 C171 2.805 . S
N108 C98 1.359 . S
N108 Gd107 2.570 . S
N108 C110 1.343 1_545 S
C109 C97 1.422 . S
C109 C111 1.321 . S
C109 H117 0.931 . S
C110 N108 1.343 1_565 S
C110 C111 1.390 . S
C110 H112 0.931 . S
C111 C109 1.321 . S
C111 C110 1.390 . S
C111 H113 0.930 . S
H112 C110 0.931 . S
H113 C111 0.930 . S
H114 C137 0.931 . S
H115 C103 0.929 . S
H116 C138 0.930 . S
H117 C109 0.931 . S
H118 C99 0.930 . S
H119 C128 0.929 . S
H120 C104 0.931 . S
H121 C105 0.930 . S
H122 C160 0.930 . S
H123 C101 0.929 . S
H124 C129 0.931 . S
H125 C130 0.930 . S
N126 Gd106 2.622 . S
N126 C127 1.369 . S
N126 C128 1.338 . S
C127 N126 1.369 . S
C127 C131 1.415 . S
C127 C134 1.422 . S
C128 H119 0.929 . S
C128 N126 1.338 . S
C128 C130 1.378 . S
C129 H124 0.931 . S
C129 C130 1.348 . S
C129 C131 1.413 . S
C130 H125 0.930 . S
C130 C128 1.378 . S
C130 C129 1.348 . S
C131 C127 1.415 . S
C131 C129 1.413 . S
C131 C161 1.437 . S
H132 C161 0.929 . S
N133 Gd106 2.570 . S
N133 C134 1.359 . S
N133 C137 1.343 . S
C134 C127 1.422 . S
C134 N133 1.359 . S
C134 C136 1.421 . S
C135 C136 1.422 . S
C135 C138 1.321 . S
C135 H162 0.931 . S
C136 C134 1.421 . S
C136 C135 1.422 . S
C136 C160 1.417 . S
C137 H114 0.931 . S
C137 N133 1.343 . S
C137 C138 1.390 . S
C138 H116 0.930 . S
C138 C135 1.321 . S
C138 C137 1.390 . S
O139 Gd107 2.386 . S
O139 C151 1.265 . S
O140 Gd106 2.353 1_655 S
O140 C151 1.242 . S
O141 Gd106 2.468 . S
O141 C159 1.263 . S
O142 Gd106 2.427 . S
O142 C159 1.252 . S
O143 Gd107 2.307 1_455 S
O143 C152 1.261 . S
O144 Gd106 2.388 . S
O144 C152 1.252 . S
O145 Gd106 2.386 . S
O145 C163 1.265 . S
O146 Gd107 2.353 1_455 S
O146 C163 1.242 . S
O147 Gd107 2.468 . S
O147 C171 1.263 . S
O148 Gd107 2.427 . S
O148 C171 1.252 . S
O149 Gd106 2.307 1_655 S
O149 C164 1.261 . S
O150 Gd107 2.388 . S
O150 C164 1.252 . S
C151 O139 1.265 . S
C151 O140 1.242 . S
C152 O143 1.261 . S
C152 O144 1.252 . S
C153 C156 1.394 . S
C153 C158 1.370 . S
C153 C159 1.500 . S
C154 C157 1.383 . S
C154 C158 1.395 . S
C155 C156 1.396 . S
C155 C157 1.365 . S
C155 H172 0.929 . S
C156 C153 1.394 . S
C156 C155 1.396 . S
C156 H173 0.930 . S
C157 C154 1.383 . S
C157 C155 1.365 . S
C157 H174 0.931 . S
C158 C153 1.370 . S
C158 C154 1.395 . S
C158 H175 0.930 . S
C159 Gd106 2.805 . S
C159 O141 1.263 . S
C159 O142 1.252 . S
C159 C153 1.500 . S
C160 H122 0.930 . S
C160 C136 1.417 . S
C160 C161 1.329 . S
C161 C131 1.437 . S
C161 H132 0.929 . S
C161 C160 1.329 . S
H162 C135 0.931 . S
C163 O145 1.265 . S
C163 O146 1.242 . S
C164 O149 1.261 . S
C164 O150 1.252 . S
C165 C168 1.394 . S
C165 C170 1.370 . S
C165 C171 1.500 . S
C166 C169 1.383 . S
C166 C170 1.395 . S
C167 C168 1.396 . S
C167 C169 1.365 . S
C167 H176 0.929 . S
C168 C165 1.394 . S
C168 C167 1.396 . S
C168 H177 0.930 . S
C169 C166 1.383 . S
C169 C167 1.365 . S
C169 H178 0.931 . S
C170 C165 1.370 . S
C170 C166 1.395 . S
C170 H179 0.930 . S
C171 Gd107 2.805 . S
C171 O147 1.263 . S
C171 O148 1.252 . S
C171 C165 1.500 . S
H172 C155 0.929 . S
H173 C156 0.930 . S
H174 C157 0.931 . S
H175 C158 0.930 . S
H176 C167 0.929 . S
H177 C168 0.930 . S
H178 C169 0.931 . S
H179 C170 0.930 . S
C180 C182 1.422 . S
C180 C184 1.415 . S
C180 N186 1.369 . S
C181 C182 1.421 . S
C181 C183 1.417 . S
C181 C193 1.422 . S
C182 C180 1.422 . S
C182 C181 1.421 . S
C182 N192 1.359 . S
C183 C181 1.417 . S
C183 C185 1.329 . S
C183 H202 0.930 . S
C184 C180 1.415 . S
C184 C185 1.437 . S
C184 C188 1.413 . S
C185 C183 1.329 . S
C185 C184 1.437 . S
C185 H207 0.929 . S
N186 C180 1.369 . S
N186 C187 1.338 . S
N186 Gd191 2.622 . S
C187 N186 1.338 . S
C187 C189 1.378 . S
C187 H199 0.929 . S
C188 C184 1.413 . S
C188 C189 1.348 . S
C188 H204 0.931 . S
C189 C187 1.378 . S
C189 C188 1.348 . S
C189 H205 0.930 . S
Gd190 N210 2.622 . S
Gd190 N217 2.570 . S
Gd190 O224 2.353 . S
Gd190 O225 2.468 . S
Gd190 O226 2.427 . S
Gd190 O228 2.388 . S
Gd190 O229 2.386 . S
Gd190 O233 2.307 . S
Gd190 C243 2.805 . S
Gd191 N186 2.622 . S
Gd191 N192 2.570 . S
Gd191 O223 2.386 . S
Gd191 O227 2.307 . S
Gd191 O230 2.353 . S
Gd191 O231 2.468 . S
Gd191 O232 2.427 . S
Gd191 O234 2.388 . S
Gd191 C255 2.805 . S
N192 C182 1.359 . S
N192 Gd191 2.570 . S
N192 C194 1.343 . S
C193 C181 1.422 . S
C193 C195 1.321 . S
C193 H201 0.931 . S
C194 N192 1.343 . S
C194 C195 1.390 . S
C194 H196 0.931 . S
C195 C193 1.321 . S
C195 C194 1.390 . S
C195 H197 0.930 . S
H196 C194 0.931 . S
H197 C195 0.930 . S
H198 C221 0.931 . S
H199 C187 0.929 . S
H200 C222 0.930 . S
H201 C193 0.931 . S
H202 C183 0.930 . S
H203 C212 0.929 . S
H204 C188 0.931 . S
H205 C189 0.930 . S
H206 C244 0.930 . S
H207 C185 0.929 . S
H208 C213 0.931 . S
H209 C214 0.930 . S
N210 Gd190 2.622 . S
N210 C211 1.369 . S
N210 C212 1.338 . S
C211 N210 1.369 . S
C211 C215 1.415 . S
C211 C218 1.422 . S
C212 H203 0.929 . S
C212 N210 1.338 . S
C212 C214 1.378 . S
C213 H208 0.931 . S
C213 C214 1.348 . S
C213 C215 1.413 . S
C214 H209 0.930 . S
C214 C212 1.378 . S
C214 C213 1.348 . S
C215 C211 1.415 . S
C215 C213 1.413 . S
C215 C245 1.437 . S
H216 C245 0.929 . S
N217 Gd190 2.570 . S
N217 C218 1.359 . S
N217 C221 1.343 . S
C218 C211 1.422 . S
C218 N217 1.359 . S
C218 C220 1.421 . S
C219 C220 1.422 . S
C219 C222 1.321 . S
C219 H246 0.931 . S
C220 C218 1.421 . S
C220 C219 1.422 . S
C220 C244 1.417 . S
C221 H198 0.931 . S
C221 N217 1.343 . S
C221 C222 1.390 . S
C222 H200 0.930 . S
C222 C219 1.321 . S
C222 C221 1.390 . S
O223 Gd191 2.386 . S
O223 C235 1.265 . S
O224 Gd190 2.353 . S
O224 C235 1.242 . S
O225 Gd190 2.468 . S
O225 C243 1.263 . S
O226 Gd190 2.427 . S
O226 C243 1.252 . S
O227 Gd191 2.307 . S
O227 C236 1.261 . S
O228 Gd190 2.388 . S
O228 C236 1.252 . S
O229 Gd190 2.386 . S
O229 C247 1.265 . S
O230 Gd191 2.353 . S
O230 C247 1.242 . S
O231 Gd191 2.468 . S
O231 C255 1.263 . S
O232 Gd191 2.427 . S
O232 C255 1.252 . S
O233 Gd190 2.307 . S
O233 C248 1.261 . S
O234 Gd191 2.388 . S
O234 C248 1.252 . S
C235 O223 1.265 . S
C235 O224 1.242 . S
C236 O227 1.261 . S
C236 O228 1.252 . S
C237 C240 1.394 . S
C237 C242 1.370 . S
C237 C243 1.500 . S
C238 C241 1.383 . S
C238 C242 1.395 . S
C239 C240 1.396 . S
C239 C241 1.365 . S
C239 H256 0.929 . S
C240 C237 1.394 . S
C240 C239 1.396 . S
C240 H257 0.930 . S
C241 C238 1.383 . S
C241 C239 1.365 . S
C241 H258 0.931 . S
C242 C237 1.370 . S
C242 C238 1.395 . S
C242 H259 0.930 . S
C243 Gd190 2.805 . S
C243 O225 1.263 . S
C243 O226 1.252 . S
C243 C237 1.500 . S
C244 H206 0.930 . S
C244 C220 1.417 . S
C244 C245 1.329 . S
C245 C215 1.437 . S
C245 H216 0.929 . S
C245 C244 1.329 . S
H246 C219 0.931 . S
C247 O229 1.265 . S
C247 O230 1.242 . S
C248 O233 1.261 . S
C248 O234 1.252 . S
C249 C252 1.394 . S
C249 C254 1.370 . S
C249 C255 1.500 . S
C250 C253 1.383 . S
C250 C254 1.395 . S
C251 C252 1.396 . S
C251 C253 1.365 . S
C251 H260 0.929 . S
C252 C249 1.394 . S
C252 C251 1.396 . S
C252 H261 0.930 . S
C253 C250 1.383 . S
C253 C251 1.365 . S
C253 H262 0.931 . S
C254 C249 1.370 . S
C254 C250 1.395 . S
C254 H263 0.930 . S
C255 Gd191 2.805 . S
C255 O231 1.263 . S
C255 O232 1.252 . S
C255 C249 1.500 . S
H256 C239 0.929 . S
H257 C240 0.930 . S
H258 C241 0.931 . S
H259 C242 0.930 . S
H260 C251 0.929 . S
H261 C252 0.930 . S
H262 C253 0.931 . S
H263 C254 0.930 . S
C264 C266 1.422 . S
C264 C268 1.415 . S
C264 N270 1.369 . S
C265 C266 1.421 . S
C265 C267 1.417 . S
C265 C277 1.422 . S
C266 C264 1.422 . S
C266 C265 1.421 . S
C266 N276 1.359 . S
C267 C265 1.417 . S
C267 C269 1.329 . S
C267 H286 0.930 . S
C268 C264 1.415 . S
C268 C269 1.437 . S
C268 C272 1.413 . S
C269 C267 1.329 . S
C269 C268 1.437 . S
C269 H291 0.929 . S
N270 C264 1.369 . S
N270 C271 1.338 . S
N270 Gd275 2.622 . S
C271 N270 1.338 . S
C271 C273 1.378 . S
C271 H283 0.929 . S
C272 C268 1.413 . S
C272 C273 1.348 . S
C272 H288 0.931 . S
C273 C271 1.378 . S
C273 C272 1.348 . S
C273 H289 0.930 . S
Gd274 N294 2.622 . S
Gd274 N301 2.570 . S
Gd274 O308 2.353 . S
Gd274 O309 2.468 . S
Gd274 O310 2.427 . S
Gd274 O312 2.388 . S
Gd274 O313 2.386 . S
Gd274 O317 2.300 1_455 S
Gd274 C327 2.805 . S
Gd275 N270 2.622 . S
Gd275 N276 2.570 . S
Gd275 O307 2.386 . S
Gd275 O311 2.307 1_655 S
Gd275 O314 2.353 1_655 S
Gd275 O315 2.468 . S
Gd275 O316 2.427 . S
Gd275 O318 2.388 . S
Gd275 C339 2.805 . S
N276 C266 1.359 . S
N276 Gd275 2.570 . S
N276 C278 1.343 . S
C277 C265 1.422 . S
C277 C279 1.321 . S
C277 H285 0.931 . S
C278 N276 1.343 . S
C278 C279 1.390 . S
C278 H280 0.931 . S
C279 C277 1.321 . S
C279 C278 1.390 . S
C279 H281 0.930 . S
H280 C278 0.931 . S
H281 C279 0.930 . S
H282 C305 0.931 . S
H283 C271 0.929 . S
H284 C306 0.930 . S
H285 C277 0.931 . S
H286 C267 0.930 . S
H287 C296 0.929 . S
H288 C272 0.931 . S
H289 C273 0.930 . S
H290 C328 0.930 . S
H291 C269 0.929 . S
H292 C297 0.931 . S
H293 C298 0.930 . S
N294 Gd274 2.622 . S
N294 C295 1.369 . S
N294 C296 1.338 . S
C295 N294 1.369 . S
C295 C299 1.415 . S
C295 C302 1.422 . S
C296 H287 0.929 . S
C296 N294 1.338 . S
C296 C298 1.378 . S
C297 H292 0.931 . S
C297 C298 1.348 . S
C297 C299 1.413 . S
C298 H293 0.930 . S
C298 C296 1.378 . S
C298 C297 1.348 . S
C299 C295 1.415 . S
C299 C297 1.413 . S
C299 C329 1.437 . S
H300 C329 0.929 . S
N301 Gd274 2.570 . S
N301 C302 1.359 . S
N301 C305 1.343 1_565 S
C302 C295 1.422 . S
C302 N301 1.359 . S
C302 C304 1.421 1_565 S
C303 C304 1.422 . S
C303 C306 1.321 . S
C303 H330 0.931 . S
C304 C302 1.421 1_545 S
C304 C303 1.422 . S
C304 C328 1.417 . S
C305 H282 0.931 . S
C305 N301 1.343 1_545 S
C305 C306 1.390 . S
C306 H284 0.930 . S
C306 C303 1.321 . S
C306 C305 1.390 . S
O307 Gd275 2.386 . S
O307 C319 1.265 . S
O308 Gd274 2.353 . S
O308 C319 1.242 1_455 S
O309 Gd274 2.468 . S
O309 C327 1.263 . S
O310 Gd274 2.427 . S
O310 C327 1.252 . S
O311 Gd275 2.307 1_455 S
O311 C320 1.261 . S
O312 Gd274 2.388 . S
O312 C320 1.252 . S
O313 Gd274 2.386 . S
O313 C331 1.265 . S
O314 Gd275 2.353 1_455 S
O314 C331 1.242 . S
O315 Gd275 2.468 . S
O315 C339 1.263 . S
O316 Gd275 2.427 . S
O316 C339 1.252 . S
O317 Gd274 2.300 1_655 S
O317 C332 1.270 . S
O318 Gd275 2.388 . S
O318 C332 1.252 . S
C319 O307 1.265 . S
C319 O308 1.242 1_655 S
C320 O311 1.261 . S
C320 O312 1.252 . S
C321 C324 1.394 . S
C321 C326 1.370 . S
C321 C327 1.500 . S
C322 C325 1.383 . S
C322 C326 1.395 . S
C323 C324 1.396 . S
C323 C325 1.365 . S
C323 H340 0.929 . S
C324 C321 1.394 . S
C324 C323 1.396 . S
C324 H341 0.930 . S
C325 C322 1.383 . S
C325 C323 1.365 . S
C325 H342 0.931 . S
C326 C321 1.370 . S
C326 C322 1.395 . S
C326 H343 0.930 . S
C327 Gd274 2.805 . S
C327 O309 1.263 . S
C327 O310 1.252 . S
C327 C321 1.500 . S
C328 H290 0.930 . S
C328 C304 1.417 . S
C328 C329 1.329 1_545 S
C329 C299 1.437 . S
C329 H300 0.929 . S
C329 C328 1.329 1_565 S
H330 C303 0.931 . S
C331 O313 1.265 . S
C331 O314 1.242 . S
C332 O317 1.270 . S
C332 O318 1.252 . S
C333 C336 1.394 . S
C333 C338 1.370 . S
C333 C339 1.500 . S
C334 C337 1.383 . S
C334 C338 1.395 . S
C335 C336 1.396 . S
C335 C337 1.365 . S
C335 H344 0.929 . S
C336 C333 1.394 . S
C336 C335 1.396 . S
C336 H345 0.930 . S
C337 C334 1.383 . S
C337 C335 1.365 . S
C337 H346 0.931 . S
C338 C333 1.370 . S
C338 C334 1.395 . S
C338 H347 0.930 . S
C339 Gd275 2.805 . S
C339 O315 1.263 . S
C339 O316 1.252 . S
C339 C333 1.500 . S
H340 C323 0.929 . S
H341 C324 0.930 . S
H342 C325 0.931 . S
H343 C326 0.930 . S
H344 C335 0.929 . S
H345 C336 0.930 . S
H346 C337 0.931 . S
H347 C338 0.930 . S
C348 C350 1.422 . S
C348 C352 1.415 . S
C348 N354 1.369 . S
C349 C350 1.421 . S
C349 C351 1.417 . S
C349 C361 1.422 . S
C350 C348 1.422 . S
C350 C349 1.421 . S
C350 N360 1.359 . S
C351 C349 1.417 . S
C351 C353 1.329 . S
C351 H370 0.930 . S
C352 C348 1.415 . S
C352 C353 1.437 . S
C352 C356 1.413 . S
C353 C351 1.329 . S
C353 C352 1.437 . S
C353 H375 0.929 . S
N354 C348 1.369 . S
N354 C355 1.338 . S
N354 Gd359 2.622 . S
C355 N354 1.338 . S
C355 C357 1.378 . S
C355 H367 0.929 . S
C356 C352 1.413 . S
C356 C357 1.348 . S
C356 H372 0.931 . S
C357 C355 1.378 . S
C357 C356 1.348 . S
C357 H373 0.930 . S
Gd358 N378 2.622 . S
Gd358 N385 2.570 . S
Gd358 O392 2.353 . S
Gd358 O393 2.468 . S
Gd358 O394 2.427 . S
Gd358 O396 2.388 . S
Gd358 O397 2.386 . S
Gd358 O401 2.307 . S
Gd358 C411 2.805 . S
Gd359 N354 2.622 . S
Gd359 N360 2.570 . S
Gd359 O391 2.386 . S
Gd359 O395 2.307 . S
Gd359 O398 2.353 . S
Gd359 O399 2.468 . S
Gd359 O400 2.427 . S
Gd359 O402 2.388 . S
Gd359 C423 2.805 . S
N360 C350 1.359 . S
N360 Gd359 2.570 . S
N360 C362 1.343 . S
C361 C349 1.422 . S
C361 C363 1.321 . S
C361 H369 0.931 . S
C362 N360 1.343 . S
C362 C363 1.390 . S
C362 H364 0.931 . S
C363 C361 1.321 . S
C363 C362 1.390 . S
C363 H365 0.930 . S
H364 C362 0.931 . S
H365 C363 0.930 . S
H366 C389 0.931 . S
H367 C355 0.929 . S
H368 C390 0.930 . S
H369 C361 0.931 . S
H370 C351 0.930 . S
H371 C380 0.929 . S
H372 C356 0.931 . S
H373 C357 0.930 . S
H374 C412 0.930 . S
H375 C353 0.929 . S
H376 C381 0.931 . S
H377 C382 0.930 . S
N378 Gd358 2.622 . S
N378 C379 1.369 . S
N378 C380 1.338 . S
C379 N378 1.369 . S
C379 C383 1.415 . S
C379 C386 1.422 . S
C380 H371 0.929 . S
C380 N378 1.338 . S
C380 C382 1.378 . S
C381 H376 0.931 . S
C381 C382 1.348 . S
C381 C383 1.413 . S
C382 H377 0.930 . S
C382 C380 1.378 . S
C382 C381 1.348 . S
C383 C379 1.415 . S
C383 C381 1.413 . S
C383 C413 1.437 . S
H384 C413 0.929 . S
N385 Gd358 2.570 . S
N385 C386 1.359 . S
N385 C389 1.343 . S
C386 C379 1.422 . S
C386 N385 1.359 . S
C386 C388 1.421 . S
C387 C388 1.422 . S
C387 C390 1.321 . S
C387 H414 0.931 . S
C388 C386 1.421 . S
C388 C387 1.422 . S
C388 C412 1.417 . S
C389 H366 0.931 . S
C389 N385 1.343 . S
C389 C390 1.390 . S
C390 H368 0.930 . S
C390 C387 1.321 . S
C390 C389 1.390 . S
O391 Gd359 2.386 . S
O391 C403 1.265 . S
O392 Gd358 2.353 . S
O392 C403 1.242 . S
O393 Gd358 2.468 . S
O393 C411 1.263 . S
O394 Gd358 2.427 . S
O394 C411 1.252 . S
O395 Gd359 2.307 . S
O395 C404 1.261 . S
O396 Gd358 2.388 . S
O396 C404 1.252 . S
O397 Gd358 2.386 . S
O397 C415 1.265 . S
O398 Gd359 2.353 . S
O398 C415 1.242 . S
O399 Gd359 2.468 . S
O399 C423 1.263 . S
O400 Gd359 2.427 . S
O400 C423 1.252 . S
O401 Gd358 2.307 . S
O401 C416 1.261 . S
O402 Gd359 2.388 . S
O402 C416 1.252 . S
C403 O391 1.265 . S
C403 O392 1.242 . S
C404 O395 1.261 . S
C404 O396 1.252 . S
C405 C408 1.394 . S
C405 C410 1.370 . S
C405 C411 1.500 . S
C406 C409 1.383 . S
C406 C410 1.395 . S
C407 C408 1.396 . S
C407 C409 1.365 . S
C407 H424 0.929 . S
C408 C405 1.394 . S
C408 C407 1.396 . S
C408 H425 0.930 . S
C409 C406 1.383 . S
C409 C407 1.365 . S
C409 H426 0.931 . S
C410 C405 1.370 . S
C410 C406 1.395 . S
C410 H427 0.930 . S
C411 Gd358 2.805 . S
C411 O393 1.263 . S
C411 O394 1.252 . S
C411 C405 1.500 . S
C412 H374 0.930 . S
C412 C388 1.417 . S
C412 C413 1.329 . S
C413 C383 1.437 . S
C413 H384 0.929 . S
C413 C412 1.329 . S
H414 C387 0.931 . S
C415 O397 1.265 . S
C415 O398 1.242 . S
C416 O401 1.261 . S
C416 O402 1.252 . S
C417 C420 1.394 . S
C417 C422 1.370 . S
C417 C423 1.500 . S
C418 C421 1.383 . S
C418 C422 1.395 . S
C419 C420 1.396 . S
C419 C421 1.365 . S
C419 H428 0.929 . S
C420 C417 1.394 . S
C420 C419 1.396 . S
C420 H429 0.930 . S
C421 C418 1.383 . S
C421 C419 1.365 . S
C421 H430 0.931 . S
C422 C417 1.370 . S
C422 C418 1.395 . S
C422 H431 0.930 . S
C423 Gd359 2.805 . S
C423 O399 1.263 . S
C423 O400 1.252 . S
C423 C417 1.500 . S
H424 C407 0.929 . S
H425 C408 0.930 . S
H426 C409 0.931 . S
H427 C410 0.930 . S
H428 C419 0.929 . S
H429 C420 0.930 . S
H430 C421 0.931 . S
H431 C422 0.930 . S
C432 C433 1.369 . S
C432 C434 1.419 1_565 S
C432 H436 0.930 . S
C433 C432 1.369 . S
C433 C442 1.429 . S
C434 C432 1.419 1_545 S
C434 C435 1.363 1_545 S
C434 H437 0.929 . S
C435 C434 1.363 1_565 S
C435 C441 1.428 . S
H436 C432 0.930 . S
H437 C434 0.929 . S
S438 N439 1.613 . S
S438 N440 1.610 . S
N439 S438 1.613 . S
N439 C442 1.350 . S
N440 S438 1.610 . S
N440 C441 1.351 . S
C441 C435 1.428 . S
C441 N440 1.351 . S
C441 C442 1.434 . S
C442 C433 1.429 . S
C442 N439 1.350 . S
C442 C441 1.434 . S
C443 C444 1.369 . S
C443 C445 1.419 . S
C443 H447 0.930 . S
C444 C443 1.369 . S
C444 C453 1.429 . S
C445 C443 1.419 . S
C445 C446 1.363 . S
C445 H448 0.929 . S
C446 C445 1.363 . S
C446 C452 1.428 . S
H447 C443 0.930 . S
H448 C445 0.929 . S
S449 N450 1.613 . S
S449 N451 1.610 . S
N450 S449 1.613 . S
N450 C453 1.350 . S
N451 S449 1.610 . S
N451 C452 1.351 . S
C452 C446 1.428 . S
C452 N451 1.351 . S
C452 C453 1.434 . S
C453 C444 1.429 . S
C453 N450 1.350 . S
C453 C452 1.434 . S
C454 C455 1.369 . S
C454 C456 1.419 . S
C454 H458 0.930 . S
C455 C454 1.369 . S
C455 C464 1.429 . S
C456 C454 1.419 . S
C456 C457 1.363 . S
C456 H459 0.929 . S
C457 C456 1.363 . S
C457 C463 1.428 . S
H458 C454 0.930 . S
H459 C456 0.929 . S
S460 N461 1.613 . S
S460 N462 1.610 . S
N461 S460 1.613 . S
N461 C464 1.350 . S
N462 S460 1.610 . S
N462 C463 1.351 . S
C463 C457 1.428 . S
C463 N462 1.351 . S
C463 C464 1.434 . S
C464 C455 1.429 . S
C464 N461 1.350 . S
C464 C463 1.434 . S
C465 C466 1.369 . S
C465 C467 1.419 1_565 S
C465 H469 0.930 . S
C466 C465 1.369 . S
C466 C475 1.429 . S
C467 C465 1.419 1_545 S
C467 C468 1.363 1_545 S
C467 H470 0.929 . S
C468 C467 1.363 1_565 S
C468 C474 1.428 . S
H469 C465 0.930 . S
H470 C467 0.929 . S
S471 N472 1.613 . S
S471 N473 1.610 . S
N472 S471 1.613 . S
N472 C475 1.350 . S
N473 S471 1.610 . S
N473 C474 1.351 . S
C474 C468 1.428 . S
C474 N473 1.351 . S
C474 C475 1.434 . S
C475 C466 1.429 . S
C475 N472 1.350 . S
C475 C474 1.434 . S
C476 C477 1.369 . S
C476 C478 1.419 . S
C476 H480 0.930 . S
C477 C476 1.369 . S
C477 C486 1.429 . S
C478 C476 1.419 . S
C478 C479 1.363 . S
C478 H481 0.929 . S
C479 C478 1.363 . S
C479 C485 1.428 1_545 S
H480 C476 0.930 . S
H481 C478 0.929 . S
S482 N483 1.613 1_565 S
S482 N484 1.610 . S
N483 S482 1.613 1_545 S
N483 C486 1.350 . S
N484 S482 1.610 . S
N484 C485 1.351 . S
C485 C479 1.428 1_565 S
C485 N484 1.351 . S
C485 C486 1.434 1_565 S
C486 C477 1.429 . S
C486 N483 1.350 . S
C486 C485 1.434 1_545 S
C487 C488 1.369 . S
C487 C489 1.419 . S
C487 H491 0.930 . S
C488 C487 1.369 . S
C488 C497 1.429 . S
C489 C487 1.419 . S
C489 C490 1.363 . S
C489 H492 0.929 . S
C490 C489 1.363 . S
C490 C496 1.428 . S
H491 C487 0.930 . S
H492 C489 0.929 . S
S493 N494 1.613 . S
S493 N495 1.610 . S
N494 S493 1.613 . S
N494 C497 1.350 . S
N495 S493 1.610 . S
N495 C496 1.351 . S
C496 C490 1.428 . S
C496 N495 1.351 . S
C496 C497 1.434 . S
C497 C488 1.429 . S
C497 N494 1.350 . S
C497 C496 1.434 . S
C498 C499 1.369 . S
C498 C500 1.419 . S
C498 H502 0.930 . S
C499 C498 1.369 . S
C499 C508 1.429 . S
C500 C498 1.419 . S
C500 C501 1.363 . S
C500 H503 0.929 . S
C501 C500 1.363 . S
C501 C507 1.428 . S
H502 C498 0.930 . S
H503 C500 0.929 . S
S504 N505 1.613 . S
S504 N506 1.610 . S
N505 S504 1.613 . S
N505 C508 1.350 . S
N506 S504 1.610 . S
N506 C507 1.351 . S
C507 C501 1.428 . S
C507 N506 1.351 . S
C507 C508 1.434 . S
C508 C499 1.429 . S
C508 N505 1.350 . S
C508 C507 1.434 . S
C509 C510 1.369 . S
C509 C511 1.419 . S
C509 H513 0.930 . S
C510 C509 1.369 . S
C510 C519 1.429 . S
C511 C509 1.419 . S
C511 C512 1.363 . S
C511 H514 0.928 1_545 S
C512 C511 1.363 . S
C512 C518 1.428 . S
H513 C509 0.930 . S
H514 C511 0.928 1_565 S
S515 N516 1.613 . S
S515 N517 1.610 . S
N516 S515 1.613 . S
N516 C519 1.350 . S
N517 S515 1.610 . S
N517 C518 1.351 . S
C518 C512 1.428 . S
C518 N517 1.351 . S
C518 C519 1.434 . S
C519 C510 1.429 . S
C519 N516 1.350 . S
C519 C518 1.434 . S
C520 C521 1.369 . S
C520 C522 1.419 1_556 S
C520 H524 0.930 . S
C521 C520 1.369 . S
C521 C530 1.429 . S
C522 C520 1.419 1_554 S
C522 C523 1.363 . S
C522 H525 0.929 . S
C523 C522 1.363 . S
C523 C529 1.428 . S
H524 C520 0.930 . S
H525 C522 0.929 . S
S526 N527 1.613 1_554 S
S526 N528 1.610 . S
N527 S526 1.613 1_556 S
N527 C530 1.350 . S
N528 S526 1.610 . S
N528 C529 1.351 . S
C529 C523 1.428 . S
C529 N528 1.351 . S
C529 C530 1.434 1_554 S
C530 C521 1.429 . S
C530 N527 1.350 . S
C530 C529 1.434 1_556 S
C531 C532 1.369 . S
C531 C533 1.419 . S
C531 H535 0.930 . S
C532 C531 1.369 . S
C532 C541 1.429 . S
C533 C531 1.419 . S
C533 C534 1.363 . S
C533 H536 0.929 . S
C534 C533 1.363 . S
C534 C540 1.428 . S
H535 C531 0.930 . S
H536 C533 0.929 . S
S537 N538 1.613 . S
S537 N539 1.610 . S
N538 S537 1.613 . S
N538 C541 1.350 . S
N539 S537 1.610 . S
N539 C540 1.351 . S
C540 C534 1.428 . S
C540 N539 1.351 . S
C540 C541 1.434 . S
C541 C532 1.429 . S
C541 N538 1.350 . S
C541 C540 1.434 . S
C542 C543 1.369 . S
C542 C544 1.419 1_554 S
C542 H546 0.930 . S
C543 C542 1.369 . S
C543 C552 1.429 . S
C544 C542 1.419 1_556 S
C544 C545 1.363 . S
C544 H547 0.929 . S
C545 C544 1.363 . S
C545 C551 1.428 . S
H546 C542 0.930 . S
H547 C544 0.929 . S
S548 N549 1.613 . S
S548 N550 1.610 1_554 S
N549 S548 1.613 . S
N549 C552 1.350 . S
N550 S548 1.610 1_556 S
N550 C551 1.351 . S
C551 C545 1.428 . S
C551 N550 1.351 . S
C551 C552 1.434 1_556 S
C552 C543 1.429 . S
C552 N549 1.350 . S
C552 C551 1.434 1_554 S
C553 C554 1.369 . S
C553 C555 1.419 . S
C553 H557 0.930 . S
C554 C553 1.369 . S
C554 C563 1.429 . S
C555 C553 1.419 . S
C555 C556 1.363 . S
C555 H558 0.929 . S
C556 C555 1.363 . S
C556 C562 1.428 . S
H557 C553 0.930 . S
H558 C555 0.929 . S
S559 N560 1.613 . S
S559 N561 1.610 . S
N560 S559 1.613 . S
N560 C563 1.350 . S
N561 S559 1.610 . S
N561 C562 1.351 . S
C562 C556 1.428 . S
C562 N561 1.351 . S
C562 C563 1.434 . S
C563 C554 1.429 . S
C563 N560 1.350 . S
C563 C562 1.434 . S
C564 C565 1.369 . S
C564 C566 1.419 1_554 S
C564 H568 0.930 . S
C565 C564 1.369 . S
C565 C574 1.429 . S
C566 C564 1.419 1_556 S
C566 C567 1.363 . S
C566 H569 0.929 . S
C567 C566 1.363 . S
C567 C573 1.428 . S
H568 C564 0.930 . S
H569 C566 0.929 . S
S570 N571 1.618 . S
S570 N572 1.583 1_554 S
N571 S570 1.618 . S
N571 C574 1.350 . S
N572 S570 1.583 1_556 S
N572 C573 1.353 . S
C573 C567 1.428 . S
C573 N572 1.353 . S
C573 C574 1.434 1_556 S
C574 C565 1.429 . S
C574 N571 1.350 . S
C574 C573 1.434 1_554 S
C575 C576 1.369 . S
C575 C577 1.419 . S
C575 H579 0.930 . S
C576 C575 1.369 . S
C576 C585 1.429 . S
C577 C575 1.419 . S
C577 C578 1.363 . S
C577 H580 0.929 . S
C578 C577 1.363 . S
C578 C584 1.428 . S
H579 C575 0.930 . S
H580 C577 0.929 . S
S581 N582 1.613 . S
S581 N583 1.610 . S
N582 S581 1.613 . S
N582 C585 1.350 . S
N583 S581 1.610 . S
N583 C584 1.351 . S
C584 C578 1.428 . S
C584 N583 1.351 . S
C584 C585 1.434 . S
C585 C576 1.429 . S
C585 N582 1.350 . S
C585 C584 1.434 . S
C586 C587 1.369 . S
C586 C588 1.419 1_556 S
C586 H590 0.930 . S
C587 C586 1.369 . S
C587 C596 1.429 . S
C588 C586 1.419 1_554 S
C588 C589 1.363 . S
C588 H591 0.929 . S
C589 C588 1.363 . S
C589 C595 1.428 . S
H590 C586 0.930 . S
H591 C588 0.929 . S
S592 N593 1.613 . S
S592 N594 1.610 1_556 S
N593 S592 1.613 . S
N593 C596 1.350 . S
N594 S592 1.610 1_554 S
N594 C595 1.351 . S
C595 C589 1.428 . S
C595 N594 1.351 . S
C595 C596 1.434 1_554 S
C596 C587 1.429 . S
C596 N593 1.350 . S
C596 C595 1.434 1_556 S
C597 C598 1.369 . S
C597 C599 1.419 . S
C597 H601 0.930 . S
C598 C597 1.369 . S
C598 C607 1.429 . S
C599 C597 1.419 . S
C599 C600 1.363 . S
C599 H602 0.929 . S
C600 C599 1.363 . S
C600 C606 1.428 . S
H601 C597 0.930 . S
H602 C599 0.929 . S
S603 N604 1.613 . S
S603 N605 1.610 . S
N604 S603 1.613 . S
N604 C607 1.350 . S
N605 S603 1.610 . S
N605 C606 1.351 . S
C606 C600 1.428 . S
C606 N605 1.351 . S
C606 C607 1.434 . S
C607 C598 1.429 . S
C607 N604 1.350 . S
C607 C606 1.434 . S
C608 C609 1.369 . S
C608 C610 1.419 . S
C608 H612 0.930 . S
C609 C608 1.369 . S
C609 C618 1.429 . S
C610 C608 1.419 . S
C610 C611 1.363 . S
C610 H613 0.929 . S
C611 C610 1.363 . S
C611 C617 1.428 . S
H612 C608 0.930 . S
H613 C610 0.929 . S
S614 N615 1.613 . S
S614 N616 1.610 . S
N615 S614 1.613 . S
N615 C618 1.350 . S
N616 S614 1.610 . S
N616 C617 1.351 . S
C617 C611 1.428 . S
C617 N616 1.351 . S
C617 C618 1.434 . S
C618 C609 1.429 . S
C618 N615 1.350 . S
C618 C617 1.434 . S
C619 C620 1.369 . S
C619 C621 1.419 . S
C619 H623 0.930 . S
C620 C619 1.369 . S
C620 C629 1.429 . S
C621 C619 1.419 . S
C621 C622 1.363 . S
C621 H624 0.929 . S
C622 C621 1.363 . S
C622 C628 1.428 . S
H623 C619 0.930 . S
H624 C621 0.929 . S
S625 N626 1.613 . S
S625 N627 1.610 . S
N626 S625 1.613 . S
N626 C629 1.350 . S
N627 S625 1.610 . S
N627 C628 1.351 . S
C628 C622 1.428 . S
C628 N627 1.351 . S
C628 C629 1.434 . S
C629 C620 1.429 . S
C629 N626 1.350 . S
C629 C628 1.434 . S
C630 C631 1.369 . S
C630 C632 1.419 . S
C630 H634 0.930 . S
C631 C630 1.369 . S
C631 C640 1.429 . S
C632 C630 1.419 . S
C632 C633 1.363 . S
C632 H635 0.929 . S
C633 C632 1.363 . S
C633 C639 1.428 . S
H634 C630 0.930 . S
H635 C632 0.929 . S
S636 N637 1.613 . S
S636 N638 1.610 . S
N637 S636 1.613 . S
N637 C640 1.350 . S
N638 S636 1.610 . S
N638 C639 1.351 . S
C639 C633 1.428 . S
C639 N638 1.351 . S
C639 C640 1.434 . S
C640 C631 1.429 . S
C640 N637 1.350 . S
C640 C639 1.434 . S
C641 C642 1.369 . S
C641 C643 1.419 . S
C641 H645 0.930 . S
C642 C641 1.369 . S
C642 C651 1.429 . S
C643 C641 1.419 . S
C643 C644 1.363 . S
C643 H646 0.929 . S
C644 C643 1.363 . S
C644 C650 1.428 . S
H645 C641 0.930 . S
H646 C643 0.929 . S
S647 N648 1.613 1_455 S
S647 N649 1.610 . S
N648 S647 1.613 1_655 S
N648 C651 1.350 . S
N649 S647 1.610 . S
N649 C650 1.351 1_455 S
C650 C644 1.428 . S
C650 N649 1.351 1_655 S
C650 C651 1.434 . S
C651 C642 1.429 . S
C651 N648 1.350 . S
C651 C650 1.434 . S
C652 C653 1.369 . S
C652 C654 1.419 . S
C652 H656 0.930 . S
C653 C652 1.369 . S
C653 C662 1.429 . S
C654 C652 1.419 . S
C654 C655 1.363 . S
C654 H657 0.929 . S
C655 C654 1.363 . S
C655 C661 1.428 . S
H656 C652 0.930 . S
H657 C654 0.929 . S
S658 N659 1.613 . S
S658 N660 1.610 . S
N659 S658 1.613 . S
N659 C662 1.350 . S
N660 S658 1.610 . S
N660 C661 1.351 . S
C661 C655 1.428 . S
C661 N660 1.351 . S
C661 C662 1.434 . S
C662 C653 1.429 . S
C662 N659 1.350 . S
C662 C661 1.434 . S
C663 C664 1.369 . S
C663 C665 1.419 . S
C663 H667 0.930 . S
C664 C663 1.369 . S
C664 C673 1.429 . S
C665 C663 1.419 . S
C665 C666 1.363 . S
C665 H668 0.929 . S
C666 C665 1.363 . S
C666 C672 1.428 . S
H667 C663 0.930 . S
H668 C665 0.929 . S
S669 N670 1.613 . S
S669 N671 1.610 . S
N670 S669 1.613 . S
N670 C673 1.350 . S
N671 S669 1.610 . S
N671 C672 1.351 . S
C672 C666 1.428 . S
C672 N671 1.351 . S
C672 C673 1.434 . S
C673 C664 1.429 . S
C673 N670 1.350 . S
C673 C672 1.434 . S
C674 C675 1.369 . S
C674 C676 1.419 . S
C674 H678 0.930 . S
C675 C674 1.369 . S
C675 C684 1.429 . S
C676 C674 1.419 . S
C676 C677 1.363 . S
C676 H679 0.929 . S
C677 C676 1.363 . S
C677 C683 1.428 . S
H678 C674 0.930 . S
H679 C676 0.929 . S
S680 N681 1.613 . S
S680 N682 1.610 . S
N681 S680 1.613 . S
N681 C684 1.350 . S
N682 S680 1.610 . S
N682 C683 1.351 . S
C683 C677 1.428 . S
C683 N682 1.351 . S
C683 C684 1.434 . S
C684 C675 1.429 . S
C684 N681 1.350 . S
C684 C683 1.434 . S
C685 C686 1.369 . S
C685 C687 1.419 . S
C685 H689 0.930 . S
C686 C685 1.369 . S
C686 C695 1.429 . S
C687 C685 1.419 . S
C687 C688 1.363 . S
C687 H690 0.929 . S
C688 C687 1.363 . S
C688 C694 1.428 . S
H689 C685 0.930 . S
H690 C687 0.929 . S
S691 N692 1.613 . S
S691 N693 1.610 . S
N692 S691 1.613 . S
N692 C695 1.350 . S
N693 S691 1.610 . S
N693 C694 1.351 . S
C694 C688 1.428 . S
C694 N693 1.351 . S
C694 C695 1.434 . S
C695 C686 1.429 . S
C695 N692 1.350 . S
C695 C694 1.434 . S
C433 C81 1.677 . S
C435 C152 1.663 1_565 S
C446 C236 1.664 . S
C444 C93 1.676 . S
C457 C235 1.664 . S
C455 C57 1.676 . S
C466 C69 1.675 . S
C468 C151 1.666 1_565 S
C479 C332 1.666 1_545 S
C477 C33 1.671 . S
C490 C416 1.663 . S
C488 C45 1.671 . S
C499 C9 1.668 . S
C501 C415 1.664 . S
C510 C21 1.667 . S
C512 C331 1.665 1_545 S
C523 C154 1.444 . S
C521 C18 1.605 . S
C534 C238 1.447 . S
C532 C6 1.601 . S
C545 C250 1.372 . S
C543 C42 1.601 . S
C556 C166 1.364 . S
C554 C30 1.602 . S
C567 C334 1.448 . S
C565 C66 1.611 . S
C576 C54 1.612 . S
C578 C418 1.449 . S
C589 C406 1.365 . S
C587 C90 1.610 . S
C598 C78 1.609 . S
C600 C322 1.368 . S
C611 C163 1.523 . S
C609 C4 1.508 . S
C622 C247 1.523 . S
C620 C16 1.505 . S
C631 C28 1.500 . S
C633 C248 1.489 . S
C644 C164 1.493 . S
C642 C40 1.503 . S
C655 C319 1.523 . S
C653 C52 1.502 . S
C664 C64 1.497 . S
C666 C403 1.524 . S
C675 C76 1.497 . S
C677 C404 1.491 . S
C686 C88 1.492 . S
C688 C320 1.488 . S
