# Generated by pormake.
# Topology anh, (6,3)-cn, num edge types: 1
# Building blocks:
#     Node 0, Type 0, BuildingBlock: BETFEN_clean_sbu_0, # of connection points: 6
#     Node 1, Type 0, BuildingBlock: BETFEN_clean_sbu_0, # of connection points: 6
#     Node 2, Type 0, BuildingBlock: BETFEN_clean_sbu_0, # of connection points: 6
#     Node 3, Type 1, BuildingBlock: CUQRIR_clean_linker_1, # of connection points: 3
#     Node 4, Type 1, BuildingBlock: CUQRIR_clean_linker_1, # of connection points: 3
#     Node 5, Type 1, BuildingBlock: CUQRIR_clean_linker_1, # of connection points: 3
#     Node 6, Type 1, BuildingBlock: CUQRIR_clean_linker_1, # of connection points: 3
#     Node 7, Type 1, BuildingBlock: CUQRIR_clean_linker_1, # of connection points: 3
#     Node 8, Type 1, BuildingBlock: CUQRIR_clean_linker_1, # of connection points: 3
#     Edge 9, Type (0, 1), BuildingBlock: UVAHIK_clean_linker_0, # of connection points: 2
#     Edge 10, Type (0, 1), BuildingBlock: UVAHIK_clean_linker_0, # of connection points: 2
#     Edge 11, Type (0, 1), BuildingBlock: UVAHIK_clean_linker_0, # of connection points: 2
#     Edge 12, Type (0, 1), BuildingBlock: UVAHIK_clean_linker_0, # of connection points: 2
#     Edge 13, Type (0, 1), BuildingBlock: UVAHIK_clean_linker_0, # of connection points: 2
#     Edge 14, Type (0, 1), BuildingBlock: UVAHIK_clean_linker_0, # of connection points: 2
#     Edge 15, Type (0, 1), BuildingBlock: UVAHIK_clean_linker_0, # of connection points: 2
#     Edge 16, Type (0, 1), BuildingBlock: UVAHIK_clean_linker_0, # of connection points: 2
#     Edge 17, Type (0, 1), BuildingBlock: UVAHIK_clean_linker_0, # of connection points: 2
#     Edge 18, Type (0, 1), BuildingBlock: UVAHIK_clean_linker_0, # of connection points: 2
#     Edge 19, Type (0, 1), BuildingBlock: UVAHIK_clean_linker_0, # of connection points: 2
#     Edge 20, Type (0, 1), BuildingBlock: UVAHIK_clean_linker_0, # of connection points: 2
#     Edge 21, Type (0, 1), BuildingBlock: UVAHIK_clean_linker_0, # of connection points: 2
#     Edge 22, Type (0, 1), BuildingBlock: UVAHIK_clean_linker_0, # of connection points: 2
#     Edge 23, Type (0, 1), BuildingBlock: UVAHIK_clean_linker_0, # of connection points: 2
#     Edge 24, Type (0, 1), BuildingBlock: UVAHIK_clean_linker_0, # of connection points: 2
#     Edge 25, Type (0, 1), BuildingBlock: UVAHIK_clean_linker_0, # of connection points: 2
#     Edge 26, Type (0, 1), BuildingBlock: UVAHIK_clean_linker_0, # of connection points: 2
# Relax obj value: 0.161
# Max RMSD: 0.210
# Mean RMSD: 0.156
data_MOF--net-anh--node1-BETFEN_clean_sbu_0--node2-CUQRIR_clean_linker_1--edge1-UVAHIK_clean_linker_0
_symmetry_space_group_name_H-M    P1
_symmetry_Int_Tables_number       1
_symmetry_cell_setting            triclinic
loop_
_symmetry_equiv_pos_as_xyz
'x, y, z'
_cell_length_a     36.235352
_cell_length_b     36.782175
_cell_length_c     60.883411
_cell_angle_alpha  84.39493
_cell_angle_beta   91.640152
_cell_angle_gamma 104.15288
loop_
_atom_site_label
_atom_site_type_symbol
_atom_site_fract_x
_atom_site_fract_y
_atom_site_fract_z
_atom_type_partial_charge
Pr0 Pr 0.03304 0.52166 0.16525 0.0
Pr1 Pr 0.05146 0.60493 0.14974 0.0
C2 C 1.00467 0.45221 0.18547 0.0
C3 C 0.96844 0.42356 0.18845 0.0
C4 C 0.96866 0.38543 0.18928 0.0
C5 C 0.93486 0.35754 0.19249 0.0
C6 C 0.90007 0.36723 0.19502 0.0
C7 C 0.8999 0.40562 0.19388 0.0
C8 C 0.9338 0.43355 0.19059 0.0
C9 C 0.05109 0.53752 0.12068 0.0
C10 C 0.96248 0.5622 0.14806 0.0
C11 C 0.08272 0.67543 0.13199 0.0
C12 C 0.11798 0.70321 0.13671 0.0
C13 C 0.14007 0.69635 0.15522 0.0
C14 C 0.17381 0.7224 0.15976 0.0
C15 C 0.18628 0.75581 0.1458 0.0
C16 C 0.16399 0.76247 0.1272 0.0
C17 C 0.13011 0.73634 0.1227 0.0
C18 C 0.03584 0.58856 0.19473 0.0
C19 C 0.12279 0.56387 0.16452 0.0
O20 O 1.00822 0.48312 0.19518 0.0
O21 O 1.01952 0.45807 0.16575 0.0
O22 O 0.03011 0.55321 0.13073 0.0
O23 O 0.06166 0.51132 0.13331 0.0
O24 O 0.98828 0.59038 0.13832 0.0
O25 O 0.97254 0.53525 0.16108 0.0
O26 O 0.08724 0.64536 0.12366 0.0
O27 O 0.0569 0.66777 0.14744 0.0
O28 O 0.05639 0.57347 0.18402 0.0
O29 O 1.0237 0.61404 0.18238 0.0
O30 O 0.09793 0.53422 0.17364 0.0
O31 O 0.11174 0.59188 0.15323 0.0
H32 H 0.99508 0.37719 0.18751 0.0
H33 H 0.936 0.32834 0.19283 0.0
H34 H 0.87372 0.4141 0.19593 0.0
H35 H 0.93296 0.46287 0.18991 0.0
H36 H 0.13111 0.67084 0.16621 0.0
H37 H 0.18985 0.71656 0.1744 0.0
H38 H 0.17295 0.78765 0.11597 0.0
H39 H 0.11347 0.74191 0.10825 0.0
Pr40 Pr 0.64008 0.08287 0.51464 0.0
Pr41 Pr 0.5491 0.05957 0.52391 0.0
C42 C 0.71184 0.11331 0.50058 0.0
C43 C 0.73861 0.15038 0.49515 0.0
C44 C 0.77045 0.16176 0.50876 0.0
C45 C 0.79669 0.19618 0.50382 0.0
C46 C 0.79197 0.22 0.48497 0.0
C47 C 0.75998 0.20862 0.47134 0.0
C48 C 0.73357 0.17418 0.47637 0.0
C49 C 0.6165 0.06329 0.5582 0.0
C50 C 0.5931 0.15083 0.51993 0.0
C51 C 0.48081 1.03126 0.5428 0.0
C52 C 0.4472 1.00114 0.53787 0.0
C53 C 0.43087 1.00009 0.51666 0.0
C54 C 0.4013 0.96969 0.51168 0.0
C55 C 0.38763 0.93942 0.52769 0.0
C56 C 0.40349 0.94097 0.54906 0.0
C57 C 0.43294 0.97156 0.55408 0.0
C58 C 0.56234 0.06341 0.47846 0.0
C59 C 0.59751 0.99271 0.51905 0.0
O60 O 0.6832 0.10253 0.48713 0.0
O61 O 0.70296 0.10396 0.5214 0.0
O62 O 0.6021 0.08293 0.54395 0.0
O63 O 0.64583 0.05424 0.55048 0.0
O64 O 0.56206 0.12486 0.52644 0.0
O65 O 0.62421 0.1419 0.51343 0.0
O66 O 0.51127 1.01992 0.54939 0.0
O67 O 0.48824 0.0619 0.52903 0.0
O68 O 0.58682 0.06922 0.49358 0.0
O69 O 0.52849 0.05523 0.4869 0.0
O70 O 0.62679 1.01832 0.51003 0.0
O71 O 0.56815 1.00217 0.52747 0.0
H72 H 0.77514 0.14393 0.52329 0.0
H73 H 0.82056 0.20423 0.51491 0.0
H74 H 0.75566 0.226 0.45655 0.0
H75 H 0.70943 0.16616 0.46545 0.0
H76 H 0.44135 1.02238 0.50375 0.0
H77 H 0.38932 0.96985 0.49518 0.0
H78 H 0.39399 0.91803 0.56174 0.0
H79 H 0.44528 0.97164 0.57051 0.0
Pr80 Pr 0.55964 0.59915 0.82102 0.0
Pr81 Pr 0.57987 0.6827 0.83962 0.0
C82 C 0.55293 0.54277 0.79553 0.0
C83 C 0.57064 0.51088 0.79785 0.0
C84 C 0.60017 0.51063 0.81327 0.0
C85 C 0.6142 0.47858 0.8177 0.0
C86 C 0.59887 0.44629 0.80679 0.0
C87 C 0.57028 0.44724 0.79071 0.0
C88 C 0.5562 0.47934 0.78632 0.0
C89 C 0.57261 0.59457 0.86678 0.0
C90 C 0.65064 0.64625 0.82926 0.0
C91 C 0.58026 0.74081 0.86304 0.0
C92 C 0.54929 0.751 0.8742 0.0
C93 C 0.54718 0.78863 0.87241 0.0
C94 C 0.51346 0.79775 0.87759 0.0
C95 C 0.48119 0.76928 0.88456 0.0
C96 C 0.4846 0.73197 0.8883 0.0
C97 C 0.5184 0.72287 0.88313 0.0
C98 C 0.57874 0.67949 0.79401 0.0
C99 C 0.48853 0.63289 0.83525 0.0
O100 O 0.57635 0.57587 0.7909 0.0
O101 O 0.52823 0.54233 0.81098 0.0
O102 O 0.57348 0.62292 0.85356 0.0
O103 O 0.56474 0.56478 0.85601 0.0
O104 O 0.63984 0.6701 0.84115 0.0
O105 O 0.62624 0.62152 0.81812 0.0
O106 O 0.59041 0.71052 0.87151 0.0
O107 O 0.57749 0.74309 0.84146 0.0
O108 O 0.55573 0.65834 0.80764 0.0
O109 O 0.60295 0.70547 0.80371 0.0
O110 O 0.49851 0.60894 0.8231 0.0
O111 O 0.51372 0.65965 0.84448 0.0
H112 H 0.6115 0.53484 0.82239 0.0
H113 H 0.63639 0.47874 0.83002 0.0
H114 H 0.55752 0.42257 0.78228 0.0
H115 H 0.53319 0.47907 0.77453 0.0
H116 H 0.57059 0.81067 0.86542 0.0
H117 H 0.51177 0.82677 0.87425 0.0
H118 H 0.46038 0.70959 0.8939 0.0
H119 H 0.51942 0.69357 0.8847 0.0
C120 C 0.54099 1.04815 0.21335 0.0
N121 N 0.56395 0.06505 0.22929 0.0
N122 N 0.51428 1.01831 0.22232 0.0
C123 C 0.54612 0.05905 0.18897 0.0
C124 C 0.52171 1.01762 0.24424 0.0
N125 N 0.55212 1.0458 0.24849 0.0
C126 C 0.49728 0.99133 0.26157 0.0
H127 H 0.53454 1.0345 0.17944 0.0
H128 H 0.57663 0.07072 0.18491 0.0
H129 H 0.5305 0.08099 0.18394 0.0
H130 H 0.50934 0.96652 0.26571 0.0
H131 H 0.46771 0.9813 0.2555 0.0
H132 H 0.49664 1.00537 0.27683 0.0
C133 C 0.59881 0.57046 0.53928 0.0
N134 N 0.59635 0.59656 0.55324 0.0
N135 N 0.59467 0.5358 0.55046 0.0
C136 C 0.60273 0.57819 0.51469 0.0
C137 C 0.58987 0.54187 0.57165 0.0
N138 N 0.59058 0.57847 0.57333 0.0
C139 C 0.58699 0.5124 0.59094 0.0
H140 H 0.58823 0.60045 0.5084 0.0
H141 H 0.59081 0.55227 0.50638 0.0
H142 H 0.63339 0.58823 0.51055 0.0
H143 H 0.5999 0.52517 0.60599 0.0
H144 H 0.60135 0.49026 0.58735 0.0
H145 H 0.55652 0.49896 0.59428 0.0
C146 C 0.06794 0.62381 0.85457 0.0
N147 N 0.09295 0.61668 0.87047 0.0
N148 N 0.03335 0.62093 0.86344 0.0
C149 C 0.07756 0.63492 0.83063 0.0
C150 C 0.03813 0.61166 0.88517 0.0
N151 N 0.07417 0.60894 0.88946 0.0
C152 C 1.00765 0.60593 0.90233 0.0
H153 H 0.08877 0.66592 0.82816 0.0
H154 H 0.05199 0.62711 0.82003 0.0
H155 H 0.0998 0.62143 0.82553 0.0
H156 H 1.01223 0.58565 0.91626 0.0
H157 H 0.979 0.59559 0.89507 0.0
H158 H 1.00878 0.63328 0.90891 0.0
C159 C 0.08571 0.59482 0.46171 0.0
N160 N 0.0653 0.57589 0.44556 0.0
N161 N 0.10549 0.62944 0.45341 0.0
C162 C 0.0842 0.58072 0.48577 0.0
C163 C 0.09643 0.6308 0.43166 0.0
N164 N 0.07177 0.59847 0.42696 0.0
C165 C 0.11379 0.66258 0.41472 0.0
H166 H 0.09061 0.60449 0.4963 0.0
H167 H 0.10577 0.56404 0.48918 0.0
H168 H 0.05579 0.56223 0.49015 0.0
H169 H 0.14244 0.67794 0.42003 0.0
H170 H 0.0952 0.68259 0.41261 0.0
H171 H 0.11619 0.65194 0.39851 0.0
C172 C 0.47839 1.05277 0.80737 0.0
N173 N 0.4694 1.02976 0.79089 0.0
N174 N 0.51117 0.07915 0.80277 0.0
C175 C 0.45754 1.04731 0.82894 0.0
C176 C 0.52185 0.07149 0.78298 0.0
N177 N 0.49688 1.04116 0.77598 0.0
C178 C 0.55542 0.09493 0.76987 0.0
H179 H 0.47599 0.06147 0.842 0.0
H180 H 0.44744 1.01691 0.83446 0.0
H181 H 0.4324 0.0595 0.82666 0.0
H182 H 0.58098 0.08448 0.7748 0.0
H183 H 0.56103 0.12494 0.77315 0.0
H184 H 0.5507 0.09283 0.75191 0.0
C185 C 0.54484 0.57369 0.13494 0.0
N186 N 0.57078 0.57629 0.11887 0.0
N187 N 0.51245 0.58131 0.12619 0.0
C188 C 0.55147 0.56497 0.15912 0.0
C189 C 0.51946 0.58829 0.10429 0.0
N190 N 0.55494 0.58552 0.09985 0.0
C191 C 0.49092 0.59656 0.08726 0.0
H192 H 0.54512 0.53396 0.16293 0.0
H193 H 0.53259 0.57623 0.16924 0.0
H194 H 0.58164 0.57687 0.16355 0.0
H195 H 0.48836 0.62584 0.08809 0.0
H196 H 0.46252 0.57744 0.09094 0.0
H197 H 0.49935 0.59377 0.07027 0.0
C198 C 0.19043 0.60036 0.16023 0.0
C199 C 0.16416 0.566 0.16613 0.0
C200 C 0.22931 0.60226 0.15953 0.0
C201 C 0.30415 0.55168 0.17631 0.0
H202 H 0.35548 0.61144 0.12502 0.0
C203 C 0.45453 0.54711 0.14655 0.0
C204 C 0.47758 0.58097 0.13697 0.0
C205 C 0.41747 0.54558 0.15332 0.0
C206 C 0.34184 0.5951 0.13964 0.0
H207 H 0.15835 0.5069 0.1768 0.0
H208 H 0.22652 0.51009 0.17523 0.0
H209 H 0.2887 0.60784 0.13075 0.0
H210 H 0.48165 0.64007 0.12817 0.0
H211 H 0.41737 0.63794 0.14036 0.0
H212 H 0.35764 0.53856 0.18489 0.0
C213 C 0.21695 0.53567 0.17136 0.0
C214 C 0.30342 0.59301 0.14293 0.0
C215 C 0.17787 0.5338 0.1722 0.0
C216 C 0.46407 0.6137 0.13543 0.0
C217 C 0.42726 0.6123 0.14224 0.0
C218 C 0.3428 0.55375 0.17298 0.0
C219 C 0.24303 0.56979 0.16452 0.0
C220 C 0.28407 0.5715 0.16135 0.0
C221 C 0.40302 0.57798 0.15058 0.0
C222 C 0.36214 0.57571 0.15466 0.0
H223 H 0.18097 0.62587 0.15577 0.0
H224 H 0.24862 0.6292 0.15473 0.0
H225 H 0.29015 0.53501 0.19073 0.0
H226 H 0.4645 0.52153 0.14764 0.0
H227 H 0.39954 0.51867 0.15957 0.0
C228 C 0.80903 0.28883 0.471 0.0
C229 C 0.8205 0.25637 0.47958 0.0
C230 C 0.83589 0.32307 0.4664 0.0
C231 C 0.93262 0.37379 0.48142 0.0
H232 H 0.92654 0.43753 0.4275 0.0
C233 C 0.05039 0.50788 0.45747 0.0
C234 C 0.03875 0.53959 0.44804 0.0
C235 C 1.02425 0.47286 0.46048 0.0
C236 C 0.92843 0.4203 0.44276 0.0
H237 H 0.86957 0.23445 0.48938 0.0
H238 H 0.91618 0.2942 0.48168 0.0
H239 H 0.87963 0.3776 0.43446 0.0
H240 H 0.99121 0.5601 0.43433 0.0
H241 H 0.94513 0.49914 0.43979 0.0
H242 H 0.98093 0.41656 0.48996 0.0
C243 C 0.88634 0.29323 0.47877 0.0
C244 C 0.90154 0.38592 0.44672 0.0
C245 C 0.85956 0.25899 0.48324 0.0
C246 C 1.00073 0.53579 0.44143 0.0
C247 C 0.9745 0.50087 0.44452 0.0
C248 C 0.95934 0.40824 0.47754 0.0
C249 C 0.87483 0.32571 0.47038 0.0
C250 C 0.90336 0.36226 0.46609 0.0
C251 C 0.98585 0.46895 0.45421 0.0
C252 C 0.95763 0.43198 0.45815 0.0
H253 H 0.7792 0.28803 0.46826 0.0
H254 H 0.82609 0.3477 0.46017 0.0
H255 H 0.93446 0.35645 0.49666 0.0
H256 H 0.07976 0.51028 0.46243 0.0
H257 H 0.03421 0.44883 0.46761 0.0
C258 C 0.41353 0.75617 0.87163 0.0
C259 C 0.44326 0.778 0.88358 0.0
C260 C 0.38356 0.77123 0.86324 0.0
C261 C 0.35565 0.86409 0.85534 0.0
H262 H 0.37492 0.85299 0.79439 0.0
C263 C 0.45035 0.96126 0.78991 0.0
C264 C 0.44021 0.99523 0.79153 0.0
C265 C 0.4247 0.92709 0.79601 0.0
C266 C 0.36831 0.85619 0.81123 0.0
H267 H 0.46117 0.82938 0.89967 0.0
H268 H 0.41032 0.85625 0.88458 0.0
H269 H 0.3732 0.80089 0.82204 0.0
H270 H 0.39424 1.02047 0.79828 0.0
H271 H 0.34936 0.96039 0.80986 0.0
H272 H 0.35607 0.92125 0.84473 0.0
C273 C 0.40952 0.8276 0.88144 0.0
C274 C 0.367 0.82606 0.82724 0.0
C275 C 0.4392 0.8124 0.88998 0.0
C276 C 0.40272 0.99443 0.79728 0.0
C277 C 0.37709 0.96017 0.80377 0.0
C278 C 0.35752 0.89443 0.83934 0.0
C279 C 0.38328 0.80857 0.86635 0.0
C280 C 0.36473 0.83107 0.84978 0.0
C281 C 0.3885 0.92623 0.8042 0.0
C282 C 0.36773 0.89174 0.81755 0.0
H283 H 0.41554 0.72931 0.86657 0.0
H284 H 0.36311 0.75526 0.85231 0.0
H285 H 0.35208 0.86832 0.87243 0.0
H286 H 0.4792 0.96114 0.78589 0.0
H287 H 0.43482 0.90165 0.79643 0.0
C288 C 0.89317 0.52956 0.15283 0.0
C289 C 0.92149 0.56087 0.14441 0.0
C290 C 0.85455 0.52875 0.14963 0.0
C291 C 0.78938 0.5747 0.11491 0.0
H292 H 0.71784 0.53374 0.16246 0.0
C293 C 0.63978 0.60249 0.11505 0.0
C294 C 0.60921 0.57218 0.12155 0.0
C295 C 0.6772 0.59889 0.11745 0.0
C296 C 0.73738 0.54486 0.14894 0.0
H297 H 0.93124 0.616 0.12612 0.0
H298 H 0.86424 0.61491 0.12093 0.0
H299 H 0.78446 0.53171 0.16734 0.0
H300 H 0.59327 0.51464 0.13613 0.0
H301 H 0.65911 0.50813 0.14067 0.0
H302 H 0.74246 0.58853 0.09671 0.0
C303 C 0.87171 0.59057 0.12961 0.0
C304 C 0.7756 0.54367 0.1517 0.0
C305 C 0.91026 0.5913 0.13271 0.0
C306 C 0.61659 0.5383 0.13097 0.0
C307 C 0.65414 0.5347 0.13357 0.0
C308 C 0.7513 0.57609 0.11221 0.0
C309 C 0.84329 0.5593 0.13801 0.0
C310 C 0.8022 0.55892 0.13479 0.0
C311 C 0.68488 0.56493 0.12669 0.0
C312 C 0.72491 0.56153 0.12926 0.0
H313 H 0.90077 0.50555 0.16185 0.0
H314 H 0.83353 0.50399 0.1561 0.0
H315 H 0.80878 0.58596 0.10134 0.0
H316 H 0.63468 0.62923 0.1085 0.0
H317 H 0.7002 0.62298 0.11245 0.0
C318 C 0.35802 0.89237 0.50106 0.0
C319 C 0.35776 0.906 0.52184 0.0
C320 C 0.32978 0.86151 0.49527 0.0
C321 C 0.25786 0.77833 0.51786 0.0
H322 H 0.21245 0.7858 0.45965 0.0
C323 C 0.16151 0.65163 0.47699 0.0
C324 C 0.13015 0.65865 0.46477 0.0
C325 C 0.18771 0.68115 0.48598 0.0
C326 C 0.22461 0.78336 0.47602 0.0
H327 H 0.32755 0.89733 0.55292 0.0
H328 H 0.27843 0.843 0.54284 0.0
H329 H 0.26154 0.83855 0.47123 0.0
H330 H 0.10016 0.70101 0.45332 0.0
H331 H 0.14589 0.75275 0.46889 0.0
H332 H 0.2208 0.72292 0.52255 0.0
C333 C 0.3007 0.8563 0.53109 0.0
C334 C 0.25302 0.81343 0.48257 0.0
C335 C 0.32887 0.88741 0.53686 0.0
C336 C 0.12449 0.69521 0.46244 0.0
C337 C 0.15067 0.72469 0.4713 0.0
C338 C 0.22958 0.74801 0.51122 0.0
C339 C 0.30067 0.84327 0.51015 0.0
C340 C 0.27005 0.81127 0.50352 0.0
C341 C 0.18299 0.71816 0.48278 0.0
C342 C 0.21262 0.75026 0.49023 0.0
H343 H 0.3803 0.90531 0.48927 0.0
H344 H 0.33091 0.85171 0.47915 0.0
H345 H 0.27063 0.77578 0.53406 0.0
H346 H 0.16644 0.62363 0.47882 0.0
H347 H 0.21245 0.67528 0.49464 0.0
C348 C 0.61203 0.3982 0.83599 0.0
C349 C 0.6099 0.41061 0.81349 0.0
C350 C 0.61579 0.36178 0.8424 0.0
C351 C 0.63116 0.27504 0.821 0.0
H352 H 0.54721 0.22448 0.85966 0.0
C353 C 0.56812 0.11747 0.81982 0.0
C354 C 0.52906 0.11028 0.81497 0.0
C355 C 0.58685 0.15126 0.82811 0.0
C356 C 0.57114 0.23816 0.8491 0.0
H357 H 0.61353 0.39601 0.78014 0.0
H358 H 0.61925 0.3323 0.79122 0.0
H359 H 0.56861 0.29278 0.85695 0.0
H360 H 0.47828 0.13078 0.8163 0.0
H361 H 0.51062 0.18986 0.83074 0.0
H362 H 0.63138 0.22066 0.81164 0.0
C363 C 0.61834 0.35063 0.80398 0.0
C364 C 0.5837 0.27732 0.84769 0.0
C365 C 0.61453 0.38697 0.79758 0.0
C366 C 0.50839 0.13584 0.82009 0.0
C367 C 0.52697 0.16952 0.82844 0.0
C368 C 0.61852 0.23589 0.82235 0.0
C369 C 0.61755 0.33715 0.82644 0.0
C370 C 0.6124 0.29626 0.83268 0.0
C371 C 0.56666 0.17822 0.83176 0.0
C372 C 0.58696 0.21729 0.83548 0.0
H373 H 0.60842 0.41577 0.84865 0.0
H374 H 0.61544 0.35228 0.85982 0.0
H375 H 0.65383 0.28887 0.80961 0.0
H376 H 0.58433 0.09766 0.81622 0.0
H377 H 0.61734 0.15702 0.83074 0.0
C378 C 0.62869 0.93973 0.51311 0.0
C379 C 0.59782 0.95187 0.52078 0.0
C380 C 0.62919 0.9014 0.51566 0.0
C381 C 0.5854 0.81133 0.54912 0.0
H382 H 0.62451 0.76449 0.50357 0.0
C383 C 0.56626 0.64991 0.55453 0.0
C384 C 0.59631 0.63581 0.5477 0.0
C385 C 0.56699 0.68826 0.55052 0.0
C386 C 0.61387 0.77714 0.5166 0.0
H387 H 0.54286 0.93245 0.53686 0.0
H388 H 0.54362 0.86626 0.54107 0.0
H389 H 0.62503 0.83132 0.49797 0.0
H390 H 0.65056 0.65077 0.53109 0.0
H391 H 0.65215 0.71801 0.52401 0.0
H392 H 0.57437 0.75745 0.56782 0.0
C393 C 0.56783 0.88631 0.53338 0.0
C394 C 0.61416 0.81561 0.51337 0.0
C395 C 0.56729 0.92448 0.5308 0.0
C396 C 0.62686 0.66086 0.53633 0.0
C397 C 0.62767 0.69938 0.5323 0.0
C398 C 0.58516 0.77299 0.55236 0.0
C399 C 0.5989 0.87412 0.52604 0.0
C400 C 0.59965 0.83326 0.52953 0.0
C401 C 0.5979 0.71378 0.53956 0.0
C402 C 0.5991 0.75512 0.5361 0.0
H403 H 0.65277 0.95987 0.50534 0.0
H404 H 0.65377 0.89329 0.50993 0.0
H405 H 0.57475 0.82389 0.56219 0.0
H406 H 0.54214 0.63111 0.56306 0.0
H407 H 0.54311 0.69786 0.55597 0.0
C408 C 0.71898 0.67309 0.83934 0.0
C409 C 0.69165 0.64661 0.82855 0.0
C410 C 0.75742 0.67241 0.83933 0.0
C411 C 0.81949 0.60824 0.83347 0.0
H412 H 0.89962 0.70032 0.82855 0.0
C413 C 0.97754 0.60417 0.83911 0.0
C414 C 0.99976 0.62902 0.85311 0.0
C415 C 0.94149 0.6084 0.83224 0.0
C416 C 0.87759 0.67435 0.83003 0.0
H417 H 0.6836 0.59893 0.80898 0.0
H418 H 0.75055 0.59793 0.80893 0.0
H419 H 0.83326 0.70353 0.82435 0.0
H420 H 1.00297 0.67816 0.87044 0.0
H421 H 0.94004 0.68577 0.85863 0.0
H422 H 0.86359 0.57907 0.8397 0.0
C423 C 0.74219 0.61902 0.81756 0.0
C424 C 0.83955 0.6762 0.82766 0.0
C425 C 0.70379 0.61976 0.8175 0.0
C426 C 0.98625 0.65903 0.85942 0.0
C427 C 0.95032 0.66333 0.85259 0.0
C428 C 0.85749 0.60639 0.83589 0.0
C429 C 0.76944 0.64516 0.8286 0.0
C430 C 0.81001 0.64319 0.82965 0.0
C431 C 0.92706 0.63753 0.83934 0.0
C432 C 0.88701 0.63945 0.83451 0.0
H433 H 0.71071 0.69415 0.84803 0.0
H434 H 0.77759 0.69266 0.84824 0.0
H435 H 0.79745 0.5823 0.83539 0.0
H436 H 0.98745 0.58059 0.83435 0.0
H437 H 0.92452 0.5883 0.82184 0.0
C438 C 0.25402 0.77123 0.15933 0.0
C439 C 0.22217 0.78356 0.15087 0.0
C440 C 0.28704 0.79706 0.16526 0.0
C441 C 0.33932 0.89689 0.15738 0.0
H442 H 0.38441 0.8745 0.21404 0.0
C443 C 0.45679 1.00627 0.19887 0.0
C444 C 0.48463 0.99286 0.21135 0.0
C445 C 0.42601 0.98104 0.18992 0.0
C446 C 0.37265 0.88098 0.198 0.0
H447 H 0.20051 0.833 0.1417 0.0
H448 H 0.25843 0.87813 0.15183 0.0
H449 H 0.32873 0.83 0.20116 0.0
H450 H 0.50355 0.94336 0.22361 0.0
H451 H 0.45047 0.89906 0.20757 0.0
H452 H 0.38343 0.94787 0.15418 0.0
C453 C 0.25778 0.84839 0.15375 0.0
C454 C 0.34061 0.85546 0.19065 0.0
C455 C 0.22461 0.82251 0.14792 0.0
C456 C 0.48207 0.95407 0.21415 0.0
C457 C 0.45156 0.92886 0.2051 0.0
C458 C 0.37161 0.92238 0.16467 0.0
C459 C 0.28916 0.8359 0.16277 0.0
C460 C 0.32355 0.86309 0.17028 0.0
C461 C 0.4227 0.94193 0.19321 0.0
C462 C 0.3887 0.91474 0.1851 0.0
H463 H 0.25349 0.74153 0.16137 0.0
H464 H 0.31099 0.78661 0.1718 0.0
H465 H 0.32698 0.90339 0.1415 0.0
H466 H 0.45827 1.03616 0.19672 0.0
H467 H 0.40418 0.99214 0.18108 0.0
C468 C 0.56158 0.20221 0.52805 0.0
C469 C 0.59346 0.19154 0.52057 0.0
C470 C 0.56204 0.2403 0.52904 0.0
C471 C 0.62797 0.33565 0.53045 0.0
H472 H 0.53595 0.36981 0.51749 0.0
C473 C 0.62492 0.49324 0.53198 0.0
C474 C 0.59327 0.49982 0.54226 0.0
C475 C 0.62525 0.45674 0.52701 0.0
C476 C 0.56189 0.3608 0.52135 0.0
H477 H 0.65089 0.21331 0.50806 0.0
H478 H 0.65153 0.27952 0.50956 0.0
H479 H 0.53613 0.30454 0.51367 0.0
H480 H 0.53681 0.4739 0.55471 0.0
H481 H 0.53705 0.41047 0.5461 0.0
H482 H 0.65361 0.39194 0.53828 0.0
C483 C 0.62624 0.25837 0.51497 0.0
C484 C 0.56197 0.32316 0.51919 0.0
C485 C 0.62578 0.22024 0.51399 0.0
C486 C 0.56148 0.46953 0.54671 0.0
C487 C 0.56166 0.4332 0.54168 0.0
C488 C 0.62789 0.37335 0.53259 0.0
C489 C 0.59438 0.26906 0.52255 0.0
C490 C 0.59488 0.30981 0.52394 0.0
C491 C 0.59379 0.42601 0.53209 0.0
C492 C 0.59472 0.38644 0.52831 0.0
H493 H 0.53618 0.18111 0.53336 0.0
H494 H 0.53713 0.24712 0.5353 0.0
H495 H 0.65377 0.32655 0.53455 0.0
H496 H 0.64987 0.51609 0.52857 0.0
H497 H 0.65033 0.45252 0.5194 0.0
C498 C 0.41952 0.61176 0.82447 0.0
C499 C 0.44755 0.63014 0.83877 0.0
C500 C 0.38102 0.61036 0.8277 0.0
C501 C 0.31819 0.65687 0.85646 0.0
H502 H 0.24034 0.56751 0.84528 0.0
C503 C 0.1575 0.65246 0.85915 0.0
C504 C 0.13281 0.61882 0.86778 0.0
C505 C 0.19588 0.65407 0.85556 0.0
C506 C 0.2617 0.59259 0.8487 0.0
H507 H 0.45689 0.66001 0.86814 0.0
H508 H 0.39016 0.65698 0.87406 0.0
H509 H 0.30694 0.56922 0.83943 0.0
H510 H 0.1283 0.56045 0.87909 0.0
H511 H 0.19558 0.56328 0.8738 0.0
H512 H 0.27311 0.67981 0.8664 0.0
C513 C 0.39778 0.64473 0.8599 0.0
C514 C 0.29995 0.59377 0.84502 0.0
C515 C 0.43615 0.64639 0.85656 0.0
C516 C 0.14707 0.58687 0.8729 0.0
C517 C 0.18546 0.58842 0.86946 0.0
C518 C 0.27997 0.65563 0.86023 0.0
C519 C 0.36965 0.62699 0.84542 0.0
C520 C 0.32875 0.62589 0.84891 0.0
C521 C 0.21039 0.622 0.8606 0.0
C522 C 0.25117 0.62343 0.85646 0.0
H523 H 0.42736 0.59904 0.81056 0.0
H524 H 0.36026 0.59678 0.81606 0.0
H525 H 0.33945 0.6823 0.85937 0.0
H526 H 0.14694 0.67741 0.85506 0.0
H527 H 0.21397 0.68027 0.84844 0.0
C528 C 0.86463 0.30429 0.21275 0.0
C529 C 0.86434 0.33727 0.19902 0.0
C530 C 0.83149 0.27559 0.21609 0.0
C531 C 0.72687 0.25556 0.21297 0.0
H532 H 0.73409 0.15251 0.2108 0.0
C533 C 0.59408 0.13 0.21421 0.0
C534 C 0.59686 0.09624 0.22623 0.0
C535 C 0.62622 0.16002 0.21095 0.0
C536 C 0.7316 0.18105 0.21176 0.0
H537 H 0.82863 0.36589 0.17814 0.0
H538 H 0.77059 0.31581 0.18419 0.0
H539 H 0.79084 0.20382 0.20509 0.0
H540 H 0.63483 0.06719 0.24446 0.0
H541 H 0.69097 0.11983 0.23937 0.0
H542 H 0.66765 0.23275 0.21984 0.0
C543 C 0.79656 0.31237 0.19245 0.0
C544 C 0.76416 0.21049 0.20844 0.0
C545 C 0.82982 0.34108 0.18902 0.0
C546 C 0.63212 0.09308 0.2352 0.0
C547 C 0.66423 0.12308 0.23205 0.0
C548 C 0.69427 0.22606 0.21641 0.0
C549 C 0.79713 0.27916 0.20588 0.0
C550 C 0.76222 0.24806 0.20909 0.0
C551 C 0.66177 0.15686 0.21975 0.0
C552 C 0.69627 0.18842 0.21592 0.0
H553 H 0.89046 0.30072 0.22112 0.0
H554 H 0.83271 0.25066 0.22686 0.0
H555 H 0.72454 0.28419 0.2138 0.0
H556 H 0.56698 0.13308 0.20737 0.0
H557 H 0.62331 0.18545 0.20123 0.0
C558 C 0.05404 0.57852 0.08511 0.0
C559 C 0.06048 0.54595 0.09702 0.0
C560 C 0.06338 0.5864 0.06272 0.0
C561 C 0.07078 0.5406 0.01377 0.0
H562 H 0.13158 0.6374 0.98954 0.0
C563 C 0.09292 0.56929 0.92045 0.0
C564 C 0.09007 0.60483 0.91116 0.0
C565 C 0.09836 0.56279 0.94319 0.0
C566 C 0.11425 0.61031 0.99595 0.0
H567 H 0.08167 0.49613 0.09498 0.0
H568 H 0.09677 0.50932 0.05567 0.0
H569 H 0.12102 0.62521 0.02932 0.0
H570 H 0.09133 0.66163 0.91779 0.0
H571 H 0.09936 0.65048 0.95754 0.0
H572 H 0.06178 0.52609 0.98068 0.0
C573 C 0.08497 0.52891 0.06372 0.0
C574 C 0.10837 0.60337 0.01875 0.0
C575 C 0.07634 0.52141 0.08618 0.0
C576 C 0.09443 0.63426 0.92471 0.0
C577 C 0.09902 0.6277 0.94749 0.0
C578 C 0.07598 0.54774 0.99098 0.0
C579 C 0.0786 0.56147 0.0518 0.0
C580 C 0.08635 0.56854 0.02782 0.0
C581 C 0.0997 0.59148 0.95718 0.0
C582 C 0.09753 0.58283 0.98167 0.0
H583 H 0.04188 0.59791 0.0931 0.0
H584 H 0.05792 0.61154 0.0538 0.0
H585 H 0.05338 0.51363 0.02037 0.0
H586 H 0.08839 0.54595 0.91035 0.0
H587 H 0.09962 0.53476 0.94988 0.0
C588 C 0.60678 0.0756 0.44606 0.0
C589 C 0.56971 0.06733 0.45453 0.0
C590 C 0.61269 0.07944 0.42319 0.0
C591 C 0.5641 0.09687 0.37014 0.0
H592 H 0.63251 1.04595 0.34511 0.0
C593 C 0.56856 0.09128 0.27653 0.0
C594 C 0.56669 0.05539 0.26998 0.0
C595 C 0.57792 0.09901 0.29832 0.0
C596 C 0.61334 0.0604 0.35184 0.0
H597 H 0.5098 0.05622 0.44586 0.0
H598 H 0.51992 0.06249 0.40631 0.0
H599 H 0.63028 1.04715 0.38511 0.0
H600 H 0.57546 1.00025 0.28027 0.0
H601 H 0.59063 1.013 0.31853 0.0
H602 H 0.54546 0.10835 0.33721 0.0
C603 C 0.54457 0.06673 0.41712 0.0
C604 C 0.61237 0.06142 0.37475 0.0
C605 C 0.53875 0.06282 0.43983 0.0
C606 C 0.57636 1.02798 0.28515 0.0
C607 C 0.58545 1.03552 0.30696 0.0
C608 C 0.56498 0.09577 0.34733 0.0
C609 C 0.58156 0.07527 0.40848 0.0
C610 C 0.58688 0.07871 0.38418 0.0
C611 C 0.58532 0.07082 0.31399 0.0
C612 C 0.58887 0.07668 0.3379 0.0
H613 H 0.6311 0.07902 0.45707 0.0
H614 H 0.64153 0.08604 0.41703 0.0
H615 H 0.54463 0.11101 0.37686 0.0
H616 H 0.56118 0.11279 0.26503 0.0
H617 H 0.5782 0.1267 0.30305 0.0
C618 C 0.55071 0.64552 0.76168 0.0
C619 C 0.57965 0.67314 0.77046 0.0
C620 C 0.55178 0.63817 0.73968 0.0
C621 C 0.59554 0.67733 0.68535 0.0
H622 H 0.56476 0.57284 0.67277 0.0
C623 C 0.61655 0.62412 0.60043 0.0
C624 C 0.58715 0.595 0.59345 0.0
C625 C 0.61517 0.63679 0.6213 0.0
C626 C 0.57301 0.60221 0.67593 0.0
H627 H 0.6322 0.71513 0.76305 0.0
H628 H 0.63445 0.70197 0.7245 0.0
H629 H 0.56414 0.58849 0.71059 0.0
H630 H 0.53235 0.5579 0.60182 0.0
H631 H 0.52961 0.57989 0.63824 0.0
H632 H 0.60486 0.69077 0.65052 0.0
C633 C 0.61063 0.68628 0.73459 0.0
C634 C 0.57264 0.61122 0.69766 0.0
C635 C 0.60947 0.69372 0.75668 0.0
C636 C 0.55553 0.58002 0.60711 0.0
C637 C 0.55413 0.59252 0.62792 0.0
C638 C 0.59606 0.66826 0.66354 0.0
C639 C 0.58194 0.65814 0.72587 0.0
C640 C 0.58355 0.6489 0.70267 0.0
C641 C 0.58436 0.62039 0.63551 0.0
C642 C 0.58444 0.63058 0.65858 0.0
H643 H 0.52721 0.62936 0.77188 0.0
H644 H 0.5288 0.61683 0.73346 0.0
H645 H 0.60382 0.70666 0.68858 0.0
H646 H 0.64123 0.6359 0.5901 0.0
H647 H 0.63895 0.65822 0.62667 0.0
C648 C 0.56762 0.0607 0.58667 0.0
C649 C 0.60053 1.05067 0.58041 0.0
C650 C 0.55269 1.04953 0.60782 0.0
C651 C 0.51755 1.00736 0.65078 0.0
H652 H 0.59007 1.02984 0.69854 0.0
C653 C 0.52944 1.00885 0.75238 0.0
C654 C 0.49931 1.02535 0.75562 0.0
C655 C 0.53771 1.00148 0.73126 0.0
C656 C 0.56937 1.02242 0.68553 0.0
H657 H 0.64336 1.02064 0.59114 0.0
H658 H 0.61756 1.00155 0.62838 0.0
H659 H 0.61274 1.03662 0.6609 0.0
H660 H 0.453 1.0456 0.7401 0.0
H661 H 0.46778 1.03387 0.70283 0.0
H662 H 0.47408 0.99375 0.67543 0.0
C663 C 0.60329 1.01798 0.61686 0.0
C664 C 0.58247 1.02648 0.66389 0.0
C665 C 0.61803 1.02887 0.59559 0.0
C666 C 0.47602 1.03234 0.73778 0.0
C667 C 0.48459 1.02556 0.71653 0.0
C668 C 0.50441 1.00296 0.6725 0.0
C669 C 0.57062 1.02844 0.62322 0.0
C670 C 0.55669 1.01977 0.64626 0.0
C671 C 0.51647 1.01138 0.71292 0.0
C672 C 0.53014 1.01118 0.69011 0.0
H673 H 0.5536 0.07758 0.57529 0.0
H674 H 0.52781 0.05847 0.61234 0.0
H675 H 0.49707 1.00157 0.63749 0.0
H676 H 0.54771 1.00351 0.76608 0.0
H677 H 0.56187 0.98969 0.7292 0.0
C678 C 0.5674 0.62159 0.90209 0.0
C679 C 0.57874 0.59488 0.89073 0.0
C680 C 0.57147 0.62095 0.925 0.0
C681 C 0.58917 0.55853 0.97463 0.0
H682 H 0.5946 0.6494 0.00302 0.0
C683 C 0.55597 0.55279 0.06685 0.0
C684 C 0.56945 0.58468 0.07826 0.0
C685 C 0.56387 0.55385 0.04445 0.0
C686 C 0.59401 0.62375 0.99557 0.0
H687 H 0.60433 0.54733 0.89393 0.0
H688 H 0.61411 0.54759 0.93369 0.0
H689 H 0.59766 0.65282 0.96336 0.0
H690 H 0.60224 0.64237 0.07576 0.0
H691 H 0.61948 0.64357 0.0372 0.0
H692 H 0.58816 0.52991 0.00689 0.0
C693 C 0.60036 0.56808 0.92532 0.0
C694 C 0.59482 0.62558 0.97255 0.0
C695 C 0.59512 0.56804 0.90247 0.0
C696 C 0.59246 0.61718 0.06732 0.0
C697 C 0.60146 0.61798 0.04506 0.0
C698 C 0.58957 0.5569 0.99767 0.0
C699 C 0.5881 0.59421 0.93704 0.0
C700 C 0.59126 0.59284 0.96166 0.0
C701 C 0.58621 0.58673 0.03304 0.0
C702 C 0.59084 0.58927 0.00854 0.0
H703 H 0.55412 0.64216 0.89335 0.0
H704 H 0.56059 0.64093 0.93321 0.0
H705 H 0.58603 0.53247 0.96713 0.0
H706 H 0.53746 0.52778 0.07505 0.0
H707 H 0.55071 0.52939 0.03597 0.0
C708 C 0.04931 0.55795 0.23168 0.0
C709 C 0.03203 0.58326 0.21897 0.0
C710 C 0.04774 0.55506 0.25475 0.0
C711 C 0.03785 0.61155 0.2996 0.0
H712 H 1.02323 0.51748 0.33685 0.0
C713 C 0.03627 0.61158 0.3934 0.0
C714 C 0.05743 0.58923 0.40544 0.0
C715 C 1.02733 0.60665 0.37127 0.0
C716 C 1.0276 0.54399 0.32667 0.0
H717 H 0.99822 0.62413 0.22028 0.0
H718 H 0.99542 0.61907 0.26046 0.0
H719 H 1.01911 0.51671 0.29669 0.0
H720 H 0.08449 0.54325 0.40458 0.0
H721 H 0.06967 0.5348 0.36557 0.0
H722 H 0.04745 0.63907 0.32923 0.0
C723 C 1.01062 0.60184 0.25268 0.0
C724 C 1.02521 0.54353 0.30369 0.0
C725 C 1.0121 0.60464 0.22967 0.0
C726 C 0.06792 0.56054 0.39545 0.0
C727 C 0.05933 0.55577 0.3732 0.0
C728 C 0.04043 0.61204 0.32247 0.0
C729 C 1.02898 0.57752 0.2655 0.0
C730 C 0.03034 0.57736 0.28992 0.0
C731 C 0.03988 0.57955 0.36066 0.0
C732 C 0.03536 0.57831 0.33634 0.0
H733 H 0.06475 0.54102 0.22382 0.0
H734 H 0.06236 0.53624 0.26417 0.0
H735 H 0.04274 0.63815 0.28945 0.0
H736 H 1.02779 0.63367 0.40101 0.0
H737 H 1.01149 0.62483 0.36231 0.0
loop_
_geom_bond_atom_site_label_1
_geom_bond_atom_site_label_2
_geom_bond_distance
_geom_bond_site_symmetry_2
_ccdc_geom_bond_type
Pr0 C2 2.880 . S
Pr0 O20 2.562 . S
Pr0 O21 2.490 . S
Pr0 O22 2.695 1_655 S
Pr0 O23 2.512 . S
Pr0 O25 2.437 . S
Pr0 O28 2.436 . S
Pr0 O30 2.438 1_655 S
Pr1 C11 2.880 . S
Pr1 O22 2.436 . S
Pr1 O24 2.438 1_455 S
Pr1 O26 2.562 . S
Pr1 O27 2.490 . S
Pr1 O28 2.695 1_455 S
Pr1 O29 2.512 . S
Pr1 O31 2.437 . S
C2 Pr0 2.880 . S
C2 C3 1.491 . S
C2 O20 1.254 . S
C2 O21 1.225 . S
C3 C2 1.491 . S
C3 C4 1.392 . S
C3 C8 1.356 . S
C4 C3 1.392 . S
C4 C5 1.368 . S
C4 H32 0.929 . S
C5 C4 1.368 . S
C5 C6 1.386 . S
C5 H33 0.929 . S
C6 C5 1.386 . S
C6 C7 1.373 . S
C7 C6 1.373 . S
C7 C8 1.409 . S
C7 H34 0.931 . S
C8 C3 1.356 . S
C8 C7 1.409 . S
C8 H35 0.930 . S
C9 O22 1.270 . S
C9 O23 1.248 1_455 S
C10 O24 1.267 . S
C10 O25 1.278 . S
C11 Pr1 2.880 . S
C11 C12 1.491 . S
C11 O26 1.254 . S
C11 O27 1.225 . S
C12 C11 1.491 . S
C12 C13 1.392 . S
C12 C17 1.356 . S
C13 C12 1.392 . S
C13 C14 1.368 . S
C13 H36 0.929 . S
C14 C13 1.368 . S
C14 C15 1.386 . S
C14 H37 0.929 . S
C15 C14 1.386 . S
C15 C16 1.373 . S
C16 C15 1.373 . S
C16 C17 1.409 . S
C16 H38 0.931 . S
C17 C12 1.356 . S
C17 C16 1.409 . S
C17 H39 0.930 . S
C18 O28 1.270 1_455 S
C18 O29 1.248 . S
C19 O30 1.267 . S
C19 O31 1.278 . S
O20 Pr0 2.562 . S
O20 C2 1.254 . S
O21 Pr0 2.490 . S
O21 C2 1.225 . S
O22 Pr0 2.695 1_455 S
O22 Pr1 2.436 . S
O22 C9 1.270 . S
O23 Pr0 2.512 . S
O23 C9 1.248 1_655 S
O24 Pr1 2.438 1_655 S
O24 C10 1.267 . S
O25 Pr0 2.437 . S
O25 C10 1.278 . S
O26 Pr1 2.562 . S
O26 C11 1.254 . S
O27 Pr1 2.490 . S
O27 C11 1.225 . S
O28 Pr0 2.436 . S
O28 Pr1 2.695 1_655 S
O28 C18 1.270 1_655 S
O29 Pr1 2.512 . S
O29 C18 1.248 . S
O30 Pr0 2.438 1_455 S
O30 C19 1.267 . S
O31 Pr1 2.437 . S
O31 C19 1.278 . S
H32 C4 0.929 . S
H33 C5 0.929 . S
H34 C7 0.931 . S
H35 C8 0.930 . S
H36 C13 0.929 . S
H37 C14 0.929 . S
H38 C16 0.931 . S
H39 C17 0.930 . S
Pr40 C42 2.880 . S
Pr40 O60 2.562 . S
Pr40 O61 2.490 . S
Pr40 O62 2.695 . S
Pr40 O63 2.512 . S
Pr40 O65 2.437 . S
Pr40 O68 2.436 . S
Pr40 O70 2.438 1_545 S
Pr41 C51 2.879 . S
Pr41 O62 2.436 1_565 S
Pr41 O64 2.439 1_565 S
Pr41 O66 2.562 . S
Pr41 O67 2.489 . S
Pr41 O68 2.695 1_565 S
Pr41 O69 2.512 1_565 S
Pr41 O71 2.436 . S
C42 Pr40 2.880 . S
C42 C43 1.491 . S
C42 O60 1.254 . S
C42 O61 1.225 . S
C43 C42 1.491 . S
C43 C44 1.392 . S
C43 C48 1.356 . S
C44 C43 1.392 . S
C44 C45 1.368 . S
C44 H72 0.929 . S
C45 C44 1.368 . S
C45 C46 1.386 . S
C45 H73 0.929 . S
C46 C45 1.386 . S
C46 C47 1.373 . S
C47 C46 1.373 . S
C47 C48 1.409 . S
C47 H74 0.931 . S
C48 C43 1.356 . S
C48 C47 1.409 . S
C48 H75 0.930 . S
C49 O62 1.270 . S
C49 O63 1.248 . S
C50 O64 1.267 . S
C50 O65 1.278 . S
C51 Pr41 2.879 . S
C51 C52 1.491 . S
C51 O66 1.254 . S
C51 O67 1.225 . S
C52 C51 1.491 . S
C52 C53 1.392 . S
C52 C57 1.356 . S
C53 C52 1.392 . S
C53 C54 1.368 . S
C53 H76 0.929 . S
C54 C53 1.368 . S
C54 C55 1.386 . S
C54 H77 0.929 . S
C55 C54 1.386 . S
C55 C56 1.373 . S
C56 C55 1.373 . S
C56 C57 1.409 . S
C56 H78 0.931 . S
C57 C52 1.356 . S
C57 C56 1.409 . S
C57 H79 0.930 . S
C58 O68 1.270 . S
C58 O69 1.248 . S
C59 O70 1.267 . S
C59 O71 1.278 . S
O60 Pr40 2.562 . S
O60 C42 1.254 . S
O61 Pr40 2.490 . S
O61 C42 1.225 . S
O62 Pr40 2.695 . S
O62 Pr41 2.436 1_545 S
O62 C49 1.270 . S
O63 Pr40 2.512 . S
O63 C49 1.248 . S
O64 Pr41 2.439 1_545 S
O64 C50 1.267 . S
O65 Pr40 2.437 . S
O65 C50 1.278 . S
O66 Pr41 2.562 . S
O66 C51 1.254 . S
O67 Pr41 2.489 . S
O67 C51 1.225 . S
O68 Pr40 2.436 . S
O68 Pr41 2.695 1_545 S
O68 C58 1.270 . S
O69 Pr41 2.512 1_545 S
O69 C58 1.248 . S
O70 Pr40 2.438 1_565 S
O70 C59 1.267 . S
O71 Pr41 2.436 . S
O71 C59 1.278 . S
H72 C44 0.929 . S
H73 C45 0.929 . S
H74 C47 0.931 . S
H75 C48 0.930 . S
H76 C53 0.929 . S
H77 C54 0.929 . S
H78 C56 0.931 . S
H79 C57 0.930 . S
Pr80 C82 2.880 . S
Pr80 O100 2.562 . S
Pr80 O101 2.490 . S
Pr80 O102 2.695 . S
Pr80 O103 2.512 . S
Pr80 O105 2.437 . S
Pr80 O108 2.436 . S
Pr80 O110 2.438 . S
Pr81 C91 2.880 . S
Pr81 O102 2.436 . S
Pr81 O104 2.438 . S
Pr81 O106 2.562 . S
Pr81 O107 2.490 . S
Pr81 O108 2.695 . S
Pr81 O109 2.512 . S
Pr81 O111 2.437 . S
C82 Pr80 2.880 . S
C82 C83 1.491 . S
C82 O100 1.254 . S
C82 O101 1.225 . S
C83 C82 1.491 . S
C83 C84 1.392 . S
C83 C88 1.356 . S
C84 C83 1.392 . S
C84 C85 1.368 . S
C84 H112 0.929 . S
C85 C84 1.368 . S
C85 C86 1.386 . S
C85 H113 0.929 . S
C86 C85 1.386 . S
C86 C87 1.373 . S
C87 C86 1.373 . S
C87 C88 1.409 . S
C87 H114 0.931 . S
C88 C83 1.356 . S
C88 C87 1.409 . S
C88 H115 0.930 . S
C89 O102 1.270 . S
C89 O103 1.248 . S
C90 O104 1.267 . S
C90 O105 1.278 . S
C91 Pr81 2.880 . S
C91 C92 1.491 . S
C91 O106 1.254 . S
C91 O107 1.225 . S
C92 C91 1.491 . S
C92 C93 1.392 . S
C92 C97 1.356 . S
C93 C92 1.392 . S
C93 C94 1.368 . S
C93 H116 0.929 . S
C94 C93 1.368 . S
C94 C95 1.386 . S
C94 H117 0.929 . S
C95 C94 1.386 . S
C95 C96 1.373 . S
C96 C95 1.373 . S
C96 C97 1.409 . S
C96 H118 0.931 . S
C97 C92 1.356 . S
C97 C96 1.409 . S
C97 H119 0.930 . S
C98 O108 1.270 . S
C98 O109 1.248 . S
C99 O110 1.267 . S
C99 O111 1.278 . S
O100 Pr80 2.562 . S
O100 C82 1.254 . S
O101 Pr80 2.490 . S
O101 C82 1.225 . S
O102 Pr80 2.695 . S
O102 Pr81 2.436 . S
O102 C89 1.270 . S
O103 Pr80 2.512 . S
O103 C89 1.248 . S
O104 Pr81 2.438 . S
O104 C90 1.267 . S
O105 Pr80 2.437 . S
O105 C90 1.278 . S
O106 Pr81 2.562 . S
O106 C91 1.254 . S
O107 Pr81 2.490 . S
O107 C91 1.225 . S
O108 Pr80 2.436 . S
O108 Pr81 2.695 . S
O108 C98 1.270 . S
O109 Pr81 2.512 . S
O109 C98 1.248 . S
O110 Pr80 2.438 . S
O110 C99 1.267 . S
O111 Pr81 2.437 . S
O111 C99 1.278 . S
H112 C84 0.929 . S
H113 C85 0.929 . S
H114 C87 0.931 . S
H115 C88 0.930 . S
H116 C93 0.929 . S
H117 C94 0.929 . S
H118 C96 0.931 . S
H119 C97 0.930 . S
C120 N121 1.317 . S
C120 N122 1.348 1_545 S
C120 C123 1.485 . S
N121 C120 1.317 . S
N121 N125 1.370 . S
N122 C120 1.348 1_565 S
N122 C124 1.346 . S
C123 C120 1.485 . S
C123 H127 0.960 . S
C123 H128 0.974 . S
C123 H129 0.960 . S
C124 N122 1.346 . S
C124 N125 1.307 1_565 S
C124 C126 1.486 . S
N125 N121 1.370 . S
N125 C124 1.307 1_545 S
C126 C124 1.486 . S
C126 H130 0.960 . S
C126 H131 0.960 . S
C126 H132 0.959 . S
H127 C123 0.960 . S
H128 C123 0.974 . S
H129 C123 0.960 . S
H130 C126 0.960 . S
H131 C126 0.960 . S
H132 C126 0.959 . S
C133 N134 1.317 . S
C133 N135 1.348 . S
C133 C136 1.485 . S
N134 C133 1.317 . S
N134 N138 1.370 . S
N135 C133 1.348 . S
N135 C137 1.346 . S
C136 C133 1.485 . S
C136 H140 0.960 . S
C136 H141 0.961 . S
C136 H142 0.960 . S
C137 N135 1.346 . S
C137 N138 1.307 . S
C137 C139 1.486 . S
N138 N134 1.370 . S
N138 C137 1.307 . S
C139 C137 1.486 . S
C139 H143 0.960 . S
C139 H144 0.960 . S
C139 H145 0.959 . S
H140 C136 0.960 . S
H141 C136 0.961 . S
H142 C136 0.960 . S
H143 C139 0.960 . S
H144 C139 0.960 . S
H145 C139 0.959 . S
C146 N147 1.317 . S
C146 N148 1.348 1_455 S
C146 C149 1.485 . S
N147 C146 1.317 . S
N147 N151 1.370 . S
N148 C146 1.348 1_655 S
N148 C150 1.346 . S
C149 C146 1.485 . S
C149 H153 0.960 . S
C149 H154 0.961 . S
C149 H155 0.960 . S
C150 N148 1.346 . S
C150 N151 1.307 1_655 S
C150 C152 1.486 . S
N151 N147 1.370 . S
N151 C150 1.307 1_455 S
C152 C150 1.486 . S
C152 H156 0.960 . S
C152 H157 0.960 . S
C152 H158 0.959 . S
H153 C149 0.960 . S
H154 C149 0.961 . S
H155 C149 0.960 . S
H156 C152 0.960 . S
H157 C152 0.960 . S
H158 C152 0.959 . S
C159 N160 1.317 . S
C159 N161 1.348 . S
C159 C162 1.485 . S
N160 C159 1.317 . S
N160 N164 1.370 . S
N161 C159 1.348 . S
N161 C163 1.346 . S
C162 C159 1.485 . S
C162 H166 0.960 . S
C162 H167 0.961 . S
C162 H168 0.960 . S
C163 N161 1.346 . S
C163 N164 1.307 . S
C163 C165 1.486 . S
N164 N160 1.370 . S
N164 C163 1.307 . S
C165 C163 1.486 . S
C165 H169 0.960 . S
C165 H170 0.960 . S
C165 H171 0.959 . S
H166 C162 0.960 . S
H167 C162 0.961 . S
H168 C162 0.960 . S
H169 C165 0.960 . S
H170 C165 0.960 . S
H171 C165 0.959 . S
C172 N173 1.317 . S
C172 N174 1.348 . S
C172 C175 1.485 . S
N173 C172 1.317 . S
N173 N177 1.370 . S
N174 C172 1.348 . S
N174 C176 1.346 . S
C175 C172 1.485 . S
C175 H179 0.960 . S
C175 H180 0.961 . S
C175 H181 0.960 . S
C176 N174 1.346 . S
C176 N177 1.307 . S
C176 C178 1.486 . S
N177 N173 1.370 . S
N177 C176 1.307 . S
C178 C176 1.486 . S
C178 H182 0.960 . S
C178 H183 0.960 . S
C178 H184 0.959 . S
H179 C175 0.960 . S
H180 C175 0.961 . S
H181 C175 0.960 . S
H182 C178 0.960 . S
H183 C178 0.960 . S
H184 C178 0.959 . S
C185 N186 1.317 . S
C185 N187 1.348 . S
C185 C188 1.485 . S
N186 C185 1.317 . S
N186 N190 1.370 . S
N187 C185 1.348 . S
N187 C189 1.346 . S
C188 C185 1.485 . S
C188 H192 0.960 . S
C188 H193 0.961 . S
C188 H194 0.960 . S
C189 N187 1.346 . S
C189 N190 1.307 . S
C189 C191 1.486 . S
N190 N186 1.370 . S
N190 C189 1.307 . S
C191 C189 1.486 . S
C191 H195 0.960 . S
C191 H196 0.960 . S
C191 H197 0.959 . S
H192 C188 0.960 . S
H193 C188 0.961 . S
H194 C188 0.960 . S
H195 C191 0.960 . S
H196 C191 0.960 . S
H197 C191 0.959 . S
C198 C199 1.349 . S
C198 C200 1.327 . S
C198 H223 0.950 . S
C199 C198 1.349 . S
C199 C215 1.349 . S
C200 C198 1.327 . S
C200 C219 1.429 . S
C200 H224 0.950 . S
C201 C218 1.574 . S
C201 C220 1.368 . S
C201 H225 0.949 . S
H202 C206 0.949 . S
C203 C204 1.349 . S
C203 C205 1.327 . S
C203 H226 0.950 . S
C204 C203 1.349 . S
C204 C216 1.349 . S
C205 C203 1.327 . S
C205 C221 1.429 . S
C205 H227 0.950 . S
C206 H202 0.949 . S
C206 C214 1.574 . S
C206 C222 1.368 . S
H207 C215 0.950 . S
H208 C213 0.950 . S
H209 C214 0.949 . S
H210 C216 0.950 . S
H211 C217 0.950 . S
H212 C218 0.949 . S
C213 H208 0.950 . S
C213 C215 1.327 . S
C213 C219 1.429 . S
C214 C206 1.574 . S
C214 H209 0.949 . S
C214 C220 1.368 . S
C215 C199 1.349 . S
C215 H207 0.950 . S
C215 C213 1.327 . S
C216 C204 1.349 . S
C216 H210 0.950 . S
C216 C217 1.327 . S
C217 H211 0.950 . S
C217 C216 1.327 . S
C217 C221 1.429 . S
C218 C201 1.574 . S
C218 H212 0.949 . S
C218 C222 1.368 . S
C219 C200 1.429 . S
C219 C213 1.429 . S
C219 C220 1.523 . S
C220 C201 1.368 . S
C220 C214 1.368 . S
C220 C219 1.523 . S
C221 C205 1.429 . S
C221 C217 1.429 . S
C221 C222 1.523 . S
C222 C206 1.368 . S
C222 C218 1.368 . S
C222 C221 1.523 . S
H223 C198 0.950 . S
H224 C200 0.950 . S
H225 C201 0.949 . S
H226 C203 0.950 . S
H227 C205 0.950 . S
C228 C229 1.349 . S
C228 C230 1.327 . S
C228 H253 0.950 . S
C229 C228 1.349 . S
C229 C245 1.349 . S
C230 C228 1.327 . S
C230 C249 1.429 . S
C230 H254 0.950 . S
C231 C248 1.574 . S
C231 C250 1.368 . S
C231 H255 0.949 . S
H232 C236 0.949 . S
C233 C234 1.349 . S
C233 C235 1.327 1_455 S
C233 H256 0.950 . S
C234 C233 1.349 . S
C234 C246 1.349 1_455 S
C235 C233 1.327 1_655 S
C235 C251 1.429 . S
C235 H257 0.950 . S
C236 H232 0.949 . S
C236 C244 1.574 . S
C236 C252 1.368 . S
H237 C245 0.950 . S
H238 C243 0.950 . S
H239 C244 0.949 . S
H240 C246 0.950 . S
H241 C247 0.950 . S
H242 C248 0.949 . S
C243 H238 0.950 . S
C243 C245 1.327 . S
C243 C249 1.429 . S
C244 C236 1.574 . S
C244 H239 0.949 . S
C244 C250 1.368 . S
C245 C229 1.349 . S
C245 H237 0.950 . S
C245 C243 1.327 . S
C246 C234 1.349 1_655 S
C246 H240 0.950 . S
C246 C247 1.327 . S
C247 H241 0.950 . S
C247 C246 1.327 . S
C247 C251 1.429 . S
C248 C231 1.574 . S
C248 H242 0.949 . S
C248 C252 1.368 . S
C249 C230 1.429 . S
C249 C243 1.429 . S
C249 C250 1.523 . S
C250 C231 1.368 . S
C250 C244 1.368 . S
C250 C249 1.523 . S
C251 C235 1.429 . S
C251 C247 1.429 . S
C251 C252 1.523 . S
C252 C236 1.368 . S
C252 C248 1.368 . S
C252 C251 1.523 . S
H253 C228 0.950 . S
H254 C230 0.950 . S
H255 C231 0.949 . S
H256 C233 0.950 . S
H257 C235 0.950 . S
C258 C259 1.349 . S
C258 C260 1.327 . S
C258 H283 0.950 . S
C259 C258 1.349 . S
C259 C275 1.349 . S
C260 C258 1.327 . S
C260 C279 1.429 . S
C260 H284 0.950 . S
C261 C278 1.574 . S
C261 C280 1.368 . S
C261 H285 0.949 . S
H262 C266 0.949 . S
C263 C264 1.349 . S
C263 C265 1.327 1_545 S
C263 H286 0.950 . S
C264 C263 1.349 . S
C264 C276 1.349 1_545 S
C265 C263 1.327 1_565 S
C265 C281 1.429 . S
C265 H287 0.950 . S
C266 H262 0.949 . S
C266 C274 1.574 . S
C266 C282 1.368 . S
H267 C275 0.950 . S
H268 C273 0.950 . S
H269 C274 0.949 . S
H270 C276 0.950 . S
H271 C277 0.950 . S
H272 C278 0.949 . S
C273 H268 0.950 . S
C273 C275 1.327 . S
C273 C279 1.429 . S
C274 C266 1.574 . S
C274 H269 0.949 . S
C274 C280 1.368 . S
C275 C259 1.349 . S
C275 H267 0.950 . S
C275 C273 1.327 . S
C276 C264 1.349 1_565 S
C276 H270 0.950 . S
C276 C277 1.327 . S
C277 H271 0.950 . S
C277 C276 1.327 . S
C277 C281 1.429 . S
C278 C261 1.574 . S
C278 H272 0.949 . S
C278 C282 1.368 . S
C279 C260 1.429 . S
C279 C273 1.429 . S
C279 C280 1.523 . S
C280 C261 1.368 . S
C280 C274 1.368 . S
C280 C279 1.523 . S
C281 C265 1.429 . S
C281 C277 1.429 . S
C281 C282 1.523 . S
C282 C266 1.368 . S
C282 C278 1.368 . S
C282 C281 1.523 . S
H283 C258 0.950 . S
H284 C260 0.950 . S
H285 C261 0.949 . S
H286 C263 0.950 . S
H287 C265 0.950 . S
C288 C289 1.349 . S
C288 C290 1.327 . S
C288 H313 0.950 . S
C289 C288 1.349 . S
C289 C305 1.349 . S
C290 C288 1.327 . S
C290 C309 1.429 . S
C290 H314 0.950 . S
C291 C308 1.574 . S
C291 C310 1.368 . S
C291 H315 0.949 . S
H292 C296 0.949 . S
C293 C294 1.349 . S
C293 C295 1.327 . S
C293 H316 0.950 . S
C294 C293 1.349 . S
C294 C306 1.349 . S
C295 C293 1.327 . S
C295 C311 1.429 . S
C295 H317 0.950 . S
C296 H292 0.949 . S
C296 C304 1.574 . S
C296 C312 1.368 . S
H297 C305 0.950 . S
H298 C303 0.950 . S
H299 C304 0.949 . S
H300 C306 0.950 . S
H301 C307 0.950 . S
H302 C308 0.949 . S
C303 H298 0.950 . S
C303 C305 1.327 . S
C303 C309 1.429 . S
C304 C296 1.574 . S
C304 H299 0.949 . S
C304 C310 1.368 . S
C305 C289 1.349 . S
C305 H297 0.950 . S
C305 C303 1.327 . S
C306 C294 1.349 . S
C306 H300 0.950 . S
C306 C307 1.327 . S
C307 H301 0.950 . S
C307 C306 1.327 . S
C307 C311 1.429 . S
C308 C291 1.574 . S
C308 H302 0.949 . S
C308 C312 1.368 . S
C309 C290 1.429 . S
C309 C303 1.429 . S
C309 C310 1.523 . S
C310 C291 1.368 . S
C310 C304 1.368 . S
C310 C309 1.523 . S
C311 C295 1.429 . S
C311 C307 1.429 . S
C311 C312 1.523 . S
C312 C296 1.368 . S
C312 C308 1.368 . S
C312 C311 1.523 . S
H313 C288 0.950 . S
H314 C290 0.950 . S
H315 C291 0.949 . S
H316 C293 0.950 . S
H317 C295 0.950 . S
C318 C319 1.349 . S
C318 C320 1.327 . S
C318 H343 0.950 . S
C319 C318 1.349 . S
C319 C335 1.349 . S
C320 C318 1.327 . S
C320 C339 1.429 . S
C320 H344 0.950 . S
C321 C338 1.574 . S
C321 C340 1.368 . S
C321 H345 0.949 . S
H322 C326 0.949 . S
C323 C324 1.349 . S
C323 C325 1.327 . S
C323 H346 0.950 . S
C324 C323 1.349 . S
C324 C336 1.349 . S
C325 C323 1.327 . S
C325 C341 1.429 . S
C325 H347 0.950 . S
C326 H322 0.949 . S
C326 C334 1.574 . S
C326 C342 1.368 . S
H327 C335 0.950 . S
H328 C333 0.950 . S
H329 C334 0.949 . S
H330 C336 0.950 . S
H331 C337 0.950 . S
H332 C338 0.949 . S
C333 H328 0.950 . S
C333 C335 1.327 . S
C333 C339 1.429 . S
C334 C326 1.574 . S
C334 H329 0.949 . S
C334 C340 1.368 . S
C335 C319 1.349 . S
C335 H327 0.950 . S
C335 C333 1.327 . S
C336 C324 1.349 . S
C336 H330 0.950 . S
C336 C337 1.327 . S
C337 H331 0.950 . S
C337 C336 1.327 . S
C337 C341 1.429 . S
C338 C321 1.574 . S
C338 H332 0.949 . S
C338 C342 1.368 . S
C339 C320 1.429 . S
C339 C333 1.429 . S
C339 C340 1.523 . S
C340 C321 1.368 . S
C340 C334 1.368 . S
C340 C339 1.523 . S
C341 C325 1.429 . S
C341 C337 1.429 . S
C341 C342 1.523 . S
C342 C326 1.368 . S
C342 C338 1.368 . S
C342 C341 1.523 . S
H343 C318 0.950 . S
H344 C320 0.950 . S
H345 C321 0.949 . S
H346 C323 0.950 . S
H347 C325 0.950 . S
C348 C349 1.349 . S
C348 C350 1.327 . S
C348 H373 0.950 . S
C349 C348 1.349 . S
C349 C365 1.349 . S
C350 C348 1.327 . S
C350 C369 1.429 . S
C350 H374 0.950 . S
C351 C368 1.574 . S
C351 C370 1.368 . S
C351 H375 0.949 . S
H352 C356 0.949 . S
C353 C354 1.349 . S
C353 C355 1.327 . S
C353 H376 0.950 . S
C354 C353 1.349 . S
C354 C366 1.349 . S
C355 C353 1.327 . S
C355 C371 1.429 . S
C355 H377 0.950 . S
C356 H352 0.949 . S
C356 C364 1.574 . S
C356 C372 1.368 . S
H357 C365 0.950 . S
H358 C363 0.950 . S
H359 C364 0.949 . S
H360 C366 0.950 . S
H361 C367 0.950 . S
H362 C368 0.949 . S
C363 H358 0.950 . S
C363 C365 1.327 . S
C363 C369 1.429 . S
C364 C356 1.574 . S
C364 H359 0.949 . S
C364 C370 1.368 . S
C365 C349 1.349 . S
C365 H357 0.950 . S
C365 C363 1.327 . S
C366 C354 1.349 . S
C366 H360 0.950 . S
C366 C367 1.327 . S
C367 H361 0.950 . S
C367 C366 1.327 . S
C367 C371 1.429 . S
C368 C351 1.574 . S
C368 H362 0.949 . S
C368 C372 1.368 . S
C369 C350 1.429 . S
C369 C363 1.429 . S
C369 C370 1.523 . S
C370 C351 1.368 . S
C370 C364 1.368 . S
C370 C369 1.523 . S
C371 C355 1.429 . S
C371 C367 1.429 . S
C371 C372 1.523 . S
C372 C356 1.368 . S
C372 C368 1.368 . S
C372 C371 1.523 . S
H373 C348 0.950 . S
H374 C350 0.950 . S
H375 C351 0.949 . S
H376 C353 0.950 . S
H377 C355 0.950 . S
C378 C379 1.349 . S
C378 C380 1.327 . S
C378 H403 0.950 . S
C379 C378 1.349 . S
C379 C395 1.349 . S
C380 C378 1.327 . S
C380 C399 1.429 . S
C380 H404 0.950 . S
C381 C398 1.574 . S
C381 C400 1.368 . S
C381 H405 0.949 . S
H382 C386 0.949 . S
C383 C384 1.349 . S
C383 C385 1.327 . S
C383 H406 0.950 . S
C384 C383 1.349 . S
C384 C396 1.349 . S
C385 C383 1.327 . S
C385 C401 1.429 . S
C385 H407 0.950 . S
C386 H382 0.949 . S
C386 C394 1.574 . S
C386 C402 1.368 . S
H387 C395 0.950 . S
H388 C393 0.950 . S
H389 C394 0.949 . S
H390 C396 0.950 . S
H391 C397 0.950 . S
H392 C398 0.949 . S
C393 H388 0.950 . S
C393 C395 1.327 . S
C393 C399 1.429 . S
C394 C386 1.574 . S
C394 H389 0.949 . S
C394 C400 1.368 . S
C395 C379 1.349 . S
C395 H387 0.950 . S
C395 C393 1.327 . S
C396 C384 1.349 . S
C396 H390 0.950 . S
C396 C397 1.327 . S
C397 H391 0.950 . S
C397 C396 1.327 . S
C397 C401 1.429 . S
C398 C381 1.574 . S
C398 H392 0.949 . S
C398 C402 1.368 . S
C399 C380 1.429 . S
C399 C393 1.429 . S
C399 C400 1.523 . S
C400 C381 1.368 . S
C400 C394 1.368 . S
C400 C399 1.523 . S
C401 C385 1.429 . S
C401 C397 1.429 . S
C401 C402 1.523 . S
C402 C386 1.368 . S
C402 C398 1.368 . S
C402 C401 1.523 . S
H403 C378 0.950 . S
H404 C380 0.950 . S
H405 C381 0.949 . S
H406 C383 0.950 . S
H407 C385 0.950 . S
C408 C409 1.349 . S
C408 C410 1.327 . S
C408 H433 0.950 . S
C409 C408 1.349 . S
C409 C425 1.349 . S
C410 C408 1.327 . S
C410 C429 1.429 . S
C410 H434 0.950 . S
C411 C428 1.574 . S
C411 C430 1.368 . S
C411 H435 0.949 . S
H412 C416 0.949 . S
C413 C414 1.349 . S
C413 C415 1.327 . S
C413 H436 0.950 . S
C414 C413 1.349 . S
C414 C426 1.349 . S
C415 C413 1.327 . S
C415 C431 1.429 . S
C415 H437 0.950 . S
C416 H412 0.949 . S
C416 C424 1.574 . S
C416 C432 1.368 . S
H417 C425 0.950 . S
H418 C423 0.950 . S
H419 C424 0.949 . S
H420 C426 0.950 . S
H421 C427 0.950 . S
H422 C428 0.949 . S
C423 H418 0.950 . S
C423 C425 1.327 . S
C423 C429 1.429 . S
C424 C416 1.574 . S
C424 H419 0.949 . S
C424 C430 1.368 . S
C425 C409 1.349 . S
C425 H417 0.950 . S
C425 C423 1.327 . S
C426 C414 1.349 . S
C426 H420 0.950 . S
C426 C427 1.327 . S
C427 H421 0.950 . S
C427 C426 1.327 . S
C427 C431 1.429 . S
C428 C411 1.574 . S
C428 H422 0.949 . S
C428 C432 1.368 . S
C429 C410 1.429 . S
C429 C423 1.429 . S
C429 C430 1.523 . S
C430 C411 1.368 . S
C430 C424 1.368 . S
C430 C429 1.523 . S
C431 C415 1.429 . S
C431 C427 1.429 . S
C431 C432 1.523 . S
C432 C416 1.368 . S
C432 C428 1.368 . S
C432 C431 1.523 . S
H433 C408 0.950 . S
H434 C410 0.950 . S
H435 C411 0.949 . S
H436 C413 0.950 . S
H437 C415 0.950 . S
C438 C439 1.349 . S
C438 C440 1.327 . S
C438 H463 0.950 . S
C439 C438 1.349 . S
C439 C455 1.349 . S
C440 C438 1.327 . S
C440 C459 1.429 . S
C440 H464 0.950 . S
C441 C458 1.574 . S
C441 C460 1.368 . S
C441 H465 0.949 . S
H442 C446 0.949 . S
C443 C444 1.349 . S
C443 C445 1.327 . S
C443 H466 0.950 . S
C444 C443 1.349 . S
C444 C456 1.349 . S
C445 C443 1.327 . S
C445 C461 1.429 . S
C445 H467 0.950 . S
C446 H442 0.949 . S
C446 C454 1.574 . S
C446 C462 1.368 . S
H447 C455 0.950 . S
H448 C453 0.950 . S
H449 C454 0.949 . S
H450 C456 0.950 . S
H451 C457 0.950 . S
H452 C458 0.949 . S
C453 H448 0.950 . S
C453 C455 1.327 . S
C453 C459 1.429 . S
C454 C446 1.574 . S
C454 H449 0.949 . S
C454 C460 1.368 . S
C455 C439 1.349 . S
C455 H447 0.950 . S
C455 C453 1.327 . S
C456 C444 1.349 . S
C456 H450 0.950 . S
C456 C457 1.327 . S
C457 H451 0.950 . S
C457 C456 1.327 . S
C457 C461 1.429 . S
C458 C441 1.574 . S
C458 H452 0.949 . S
C458 C462 1.368 . S
C459 C440 1.429 . S
C459 C453 1.429 . S
C459 C460 1.523 . S
C460 C441 1.368 . S
C460 C454 1.368 . S
C460 C459 1.523 . S
C461 C445 1.429 . S
C461 C457 1.429 . S
C461 C462 1.523 . S
C462 C446 1.368 . S
C462 C458 1.368 . S
C462 C461 1.523 . S
H463 C438 0.950 . S
H464 C440 0.950 . S
H465 C441 0.949 . S
H466 C443 0.950 . S
H467 C445 0.950 . S
C468 C469 1.349 . S
C468 C470 1.327 . S
C468 H493 0.950 . S
C469 C468 1.349 . S
C469 C485 1.349 . S
C470 C468 1.327 . S
C470 C489 1.429 . S
C470 H494 0.950 . S
C471 C488 1.574 . S
C471 C490 1.368 . S
C471 H495 0.949 . S
H472 C476 0.949 . S
C473 C474 1.349 . S
C473 C475 1.327 . S
C473 H496 0.950 . S
C474 C473 1.349 . S
C474 C486 1.349 . S
C475 C473 1.327 . S
C475 C491 1.429 . S
C475 H497 0.950 . S
C476 H472 0.949 . S
C476 C484 1.574 . S
C476 C492 1.368 . S
H477 C485 0.950 . S
H478 C483 0.950 . S
H479 C484 0.949 . S
H480 C486 0.950 . S
H481 C487 0.950 . S
H482 C488 0.949 . S
C483 H478 0.950 . S
C483 C485 1.327 . S
C483 C489 1.429 . S
C484 C476 1.574 . S
C484 H479 0.949 . S
C484 C490 1.368 . S
C485 C469 1.349 . S
C485 H477 0.950 . S
C485 C483 1.327 . S
C486 C474 1.349 . S
C486 H480 0.950 . S
C486 C487 1.327 . S
C487 H481 0.950 . S
C487 C486 1.327 . S
C487 C491 1.429 . S
C488 C471 1.574 . S
C488 H482 0.949 . S
C488 C492 1.368 . S
C489 C470 1.429 . S
C489 C483 1.429 . S
C489 C490 1.523 . S
C490 C471 1.368 . S
C490 C484 1.368 . S
C490 C489 1.523 . S
C491 C475 1.429 . S
C491 C487 1.429 . S
C491 C492 1.523 . S
C492 C476 1.368 . S
C492 C488 1.368 . S
C492 C491 1.523 . S
H493 C468 0.950 . S
H494 C470 0.950 . S
H495 C471 0.949 . S
H496 C473 0.950 . S
H497 C475 0.950 . S
C498 C499 1.349 . S
C498 C500 1.327 . S
C498 H523 0.950 . S
C499 C498 1.349 . S
C499 C515 1.349 . S
C500 C498 1.327 . S
C500 C519 1.429 . S
C500 H524 0.950 . S
C501 C518 1.574 . S
C501 C520 1.368 . S
C501 H525 0.949 . S
H502 C506 0.949 . S
C503 C504 1.349 . S
C503 C505 1.327 . S
C503 H526 0.950 . S
C504 C503 1.349 . S
C504 C516 1.349 . S
C505 C503 1.327 . S
C505 C521 1.429 . S
C505 H527 0.950 . S
C506 H502 0.949 . S
C506 C514 1.574 . S
C506 C522 1.368 . S
H507 C515 0.950 . S
H508 C513 0.950 . S
H509 C514 0.949 . S
H510 C516 0.950 . S
H511 C517 0.950 . S
H512 C518 0.949 . S
C513 H508 0.950 . S
C513 C515 1.327 . S
C513 C519 1.429 . S
C514 C506 1.574 . S
C514 H509 0.949 . S
C514 C520 1.368 . S
C515 C499 1.349 . S
C515 H507 0.950 . S
C515 C513 1.327 . S
C516 C504 1.349 . S
C516 H510 0.950 . S
C516 C517 1.327 . S
C517 H511 0.950 . S
C517 C516 1.327 . S
C517 C521 1.429 . S
C518 C501 1.574 . S
C518 H512 0.949 . S
C518 C522 1.368 . S
C519 C500 1.429 . S
C519 C513 1.429 . S
C519 C520 1.523 . S
C520 C501 1.368 . S
C520 C514 1.368 . S
C520 C519 1.523 . S
C521 C505 1.429 . S
C521 C517 1.429 . S
C521 C522 1.523 . S
C522 C506 1.368 . S
C522 C518 1.368 . S
C522 C521 1.523 . S
H523 C498 0.950 . S
H524 C500 0.950 . S
H525 C501 0.949 . S
H526 C503 0.950 . S
H527 C505 0.950 . S
C528 C529 1.349 . S
C528 C530 1.327 . S
C528 H553 0.950 . S
C529 C528 1.349 . S
C529 C545 1.349 . S
C530 C528 1.327 . S
C530 C549 1.429 . S
C530 H554 0.950 . S
C531 C548 1.574 . S
C531 C550 1.368 . S
C531 H555 0.949 . S
H532 C536 0.949 . S
C533 C534 1.349 . S
C533 C535 1.327 . S
C533 H556 0.950 . S
C534 C533 1.349 . S
C534 C546 1.349 . S
C535 C533 1.327 . S
C535 C551 1.429 . S
C535 H557 0.950 . S
C536 H532 0.949 . S
C536 C544 1.574 . S
C536 C552 1.368 . S
H537 C545 0.950 . S
H538 C543 0.950 . S
H539 C544 0.949 . S
H540 C546 0.950 . S
H541 C547 0.950 . S
H542 C548 0.949 . S
C543 H538 0.950 . S
C543 C545 1.327 . S
C543 C549 1.429 . S
C544 C536 1.574 . S
C544 H539 0.949 . S
C544 C550 1.368 . S
C545 C529 1.349 . S
C545 H537 0.950 . S
C545 C543 1.327 . S
C546 C534 1.349 . S
C546 H540 0.950 . S
C546 C547 1.327 . S
C547 H541 0.950 . S
C547 C546 1.327 . S
C547 C551 1.429 . S
C548 C531 1.574 . S
C548 H542 0.949 . S
C548 C552 1.368 . S
C549 C530 1.429 . S
C549 C543 1.429 . S
C549 C550 1.523 . S
C550 C531 1.368 . S
C550 C544 1.368 . S
C550 C549 1.523 . S
C551 C535 1.429 . S
C551 C547 1.429 . S
C551 C552 1.523 . S
C552 C536 1.368 . S
C552 C548 1.368 . S
C552 C551 1.523 . S
H553 C528 0.950 . S
H554 C530 0.950 . S
H555 C531 0.949 . S
H556 C533 0.950 . S
H557 C535 0.950 . S
C558 C559 1.349 . S
C558 C560 1.327 . S
C558 H583 0.950 . S
C559 C558 1.349 . S
C559 C575 1.349 1_455 S
C560 C558 1.327 . S
C560 C579 1.429 . S
C560 H584 0.950 . S
C561 C578 1.574 1_554 S
C561 C580 1.368 1_655 S
C561 H585 0.949 . S
H562 C566 0.949 . S
C563 C564 1.341 1_655 S
C563 C565 1.328 . S
C563 H586 0.956 . S
C564 C563 1.341 1_455 S
C564 C576 1.349 . S
C565 C563 1.328 . S
C565 C581 1.429 1_655 S
C565 H587 0.950 . S
C566 H562 0.949 . S
C566 C574 1.574 1_556 S
C566 C582 1.368 . S
H567 C575 0.950 . S
H568 C573 0.950 . S
H569 C574 0.949 . S
H570 C576 0.950 . S
H571 C577 0.950 . S
H572 C578 0.949 . S
C573 H568 0.950 . S
C573 C575 1.327 . S
C573 C579 1.429 1_655 S
C574 C566 1.574 1_554 S
C574 H569 0.949 . S
C574 C580 1.368 . S
C575 C559 1.349 1_655 S
C575 H567 0.950 . S
C575 C573 1.327 . S
C576 C564 1.349 . S
C576 H570 0.950 . S
C576 C577 1.327 . S
C577 H571 0.950 . S
C577 C576 1.327 . S
C577 C581 1.429 . S
C578 C561 1.574 1_556 S
C578 H572 0.949 . S
C578 C582 1.368 1_655 S
C579 C560 1.429 . S
C579 C573 1.429 1_455 S
C579 C580 1.523 . S
C580 C561 1.368 1_455 S
C580 C574 1.368 . S
C580 C579 1.523 . S
C581 C565 1.429 1_455 S
C581 C577 1.429 . S
C581 C582 1.523 . S
C582 C566 1.368 . S
C582 C578 1.368 1_455 S
C582 C581 1.523 . S
H583 C558 0.950 . S
H584 C560 0.950 . S
H585 C561 0.949 . S
H586 C563 0.956 . S
H587 C565 0.950 . S
C588 C589 1.349 . S
C588 C590 1.327 . S
C588 H613 0.950 . S
C589 C588 1.349 . S
C589 C605 1.349 . S
C590 C588 1.327 . S
C590 C609 1.429 . S
C590 H614 0.950 . S
C591 C608 1.575 . S
C591 C610 1.353 1_565 S
C591 H615 0.963 . S
H592 C596 0.949 . S
C593 C594 1.337 1_565 S
C593 C595 1.327 . S
C593 H616 0.963 . S
C594 C593 1.337 1_545 S
C594 C606 1.349 . S
C595 C593 1.327 . S
C595 C611 1.413 1_565 S
C595 H617 0.966 . S
C596 H592 0.949 . S
C596 C604 1.574 . S
C596 C612 1.368 . S
H597 C605 0.950 1_565 S
H598 C603 0.950 1_565 S
H599 C604 0.949 . S
H600 C606 0.950 . S
H601 C607 0.950 . S
H602 C608 0.949 . S
C603 H598 0.950 1_545 S
C603 C605 1.327 . S
C603 C609 1.429 . S
C604 C596 1.574 . S
C604 H599 0.949 . S
C604 C610 1.368 . S
C605 C589 1.349 . S
C605 H597 0.950 1_545 S
C605 C603 1.327 . S
C606 C594 1.349 . S
C606 H600 0.950 . S
C606 C607 1.327 . S
C607 H601 0.950 . S
C607 C606 1.327 . S
C607 C611 1.429 . S
C608 C591 1.575 . S
C608 H602 0.949 . S
C608 C612 1.368 1_565 S
C609 C590 1.429 . S
C609 C603 1.429 . S
C609 C610 1.523 . S
C610 C591 1.353 1_545 S
C610 C604 1.368 . S
C610 C609 1.523 . S
C611 C595 1.413 1_545 S
C611 C607 1.429 . S
C611 C612 1.523 . S
C612 C596 1.368 . S
C612 C608 1.368 1_545 S
C612 C611 1.523 . S
H613 C588 0.950 . S
H614 C590 0.950 . S
H615 C591 0.963 . S
H616 C593 0.963 . S
H617 C595 0.966 . S
C618 C619 1.349 . S
C618 C620 1.327 . S
C618 H643 0.950 . S
C619 C618 1.349 . S
C619 C635 1.349 . S
C620 C618 1.327 . S
C620 C639 1.429 . S
C620 H644 0.950 . S
C621 C638 1.574 . S
C621 C640 1.368 . S
C621 H645 0.949 . S
H622 C626 0.949 . S
C623 C624 1.349 . S
C623 C625 1.327 . S
C623 H646 0.950 . S
C624 C623 1.349 . S
C624 C636 1.349 . S
C625 C623 1.327 . S
C625 C641 1.429 . S
C625 H647 0.950 . S
C626 H622 0.949 . S
C626 C634 1.574 . S
C626 C642 1.368 . S
H627 C635 0.950 . S
H628 C633 0.950 . S
H629 C634 0.949 . S
H630 C636 0.950 . S
H631 C637 0.950 . S
H632 C638 0.949 . S
C633 H628 0.950 . S
C633 C635 1.327 . S
C633 C639 1.429 . S
C634 C626 1.574 . S
C634 H629 0.949 . S
C634 C640 1.368 . S
C635 C619 1.349 . S
C635 H627 0.950 . S
C635 C633 1.327 . S
C636 C624 1.349 . S
C636 H630 0.950 . S
C636 C637 1.327 . S
C637 H631 0.950 . S
C637 C636 1.327 . S
C637 C641 1.429 . S
C638 C621 1.574 . S
C638 H632 0.949 . S
C638 C642 1.368 . S
C639 C620 1.429 . S
C639 C633 1.429 . S
C639 C640 1.523 . S
C640 C621 1.368 . S
C640 C634 1.368 . S
C640 C639 1.523 . S
C641 C625 1.429 . S
C641 C637 1.429 . S
C641 C642 1.523 . S
C642 C626 1.368 . S
C642 C638 1.368 . S
C642 C641 1.523 . S
H643 C618 0.950 . S
H644 C620 0.950 . S
H645 C621 0.949 . S
H646 C623 0.950 . S
H647 C625 0.950 . S
C648 C649 1.349 . S
C648 C650 1.327 . S
C648 H673 0.950 . S
C649 C648 1.349 . S
C649 C665 1.349 1_545 S
C650 C648 1.327 . S
C650 C669 1.429 . S
C650 H674 0.950 . S
C651 C668 1.574 . S
C651 C670 1.368 1_565 S
C651 H675 0.949 . S
H652 C656 0.949 . S
C653 C654 1.349 . S
C653 C655 1.320 1_545 S
C653 H676 0.950 1_545 S
C654 C653 1.349 . S
C654 C666 1.349 . S
C655 C653 1.320 1_565 S
C655 C671 1.407 1_565 S
C655 H677 0.980 . S
C656 H652 0.949 . S
C656 C664 1.574 . S
C656 C672 1.368 . S
H657 C665 0.950 . S
H658 C663 0.950 . S
H659 C664 0.949 . S
H660 C666 0.950 . S
H661 C667 0.950 . S
H662 C668 0.949 . S
C663 H658 0.950 . S
C663 C665 1.327 . S
C663 C669 1.429 1_565 S
C664 C656 1.574 . S
C664 H659 0.949 . S
C664 C670 1.368 . S
C665 C649 1.349 1_565 S
C665 H657 0.950 . S
C665 C663 1.327 . S
C666 C654 1.349 . S
C666 H660 0.950 . S
C666 C667 1.327 . S
C667 H661 0.950 . S
C667 C666 1.327 . S
C667 C671 1.429 . S
C668 C651 1.574 . S
C668 H662 0.949 . S
C668 C672 1.368 1_565 S
C669 C650 1.429 . S
C669 C663 1.429 1_545 S
C669 C670 1.523 . S
C670 C651 1.368 1_545 S
C670 C664 1.368 . S
C670 C669 1.523 . S
C671 C655 1.407 1_545 S
C671 C667 1.429 . S
C671 C672 1.523 . S
C672 C656 1.368 . S
C672 C668 1.368 1_545 S
C672 C671 1.523 . S
H673 C648 0.950 . S
H674 C650 0.950 . S
H675 C651 0.949 . S
H676 C653 0.950 1_565 S
H677 C655 0.980 . S
C678 C679 1.349 . S
C678 C680 1.327 . S
C678 H703 0.950 . S
C679 C678 1.349 . S
C679 C695 1.349 . S
C680 C678 1.327 . S
C680 C699 1.429 . S
C680 H704 0.950 . S
C681 C698 1.574 1_556 S
C681 C700 1.368 . S
C681 H705 0.949 . S
H682 C686 0.949 . S
C683 C684 1.349 . S
C683 C685 1.327 . S
C683 H706 0.950 . S
C684 C683 1.349 . S
C684 C696 1.349 . S
C685 C683 1.327 . S
C685 C701 1.429 . S
C685 H707 0.950 . S
C686 H682 0.949 . S
C686 C694 1.574 1_554 S
C686 C702 1.368 . S
H687 C695 0.950 . S
H688 C693 0.950 . S
H689 C694 0.949 . S
H690 C696 0.950 . S
H691 C697 0.950 . S
H692 C698 0.949 . S
C693 H688 0.950 . S
C693 C695 1.327 . S
C693 C699 1.429 . S
C694 C686 1.574 1_556 S
C694 H689 0.949 . S
C694 C700 1.368 . S
C695 C679 1.349 . S
C695 H687 0.950 . S
C695 C693 1.327 . S
C696 C684 1.349 . S
C696 H690 0.950 . S
C696 C697 1.327 . S
C697 H691 0.950 . S
C697 C696 1.327 . S
C697 C701 1.429 . S
C698 C681 1.574 1_554 S
C698 H692 0.949 . S
C698 C702 1.368 . S
C699 C680 1.429 . S
C699 C693 1.429 . S
C699 C700 1.523 . S
C700 C681 1.368 . S
C700 C694 1.368 . S
C700 C699 1.523 . S
C701 C685 1.429 . S
C701 C697 1.429 . S
C701 C702 1.523 . S
C702 C686 1.368 . S
C702 C698 1.368 . S
C702 C701 1.523 . S
H703 C678 0.950 . S
H704 C680 0.950 . S
H705 C681 0.949 . S
H706 C683 0.950 . S
H707 C685 0.950 . S
C708 C709 1.349 . S
C708 C710 1.327 . S
C708 H733 0.950 . S
C709 C708 1.349 . S
C709 C725 1.349 1_455 S
C710 C708 1.327 . S
C710 C729 1.429 . S
C710 H734 0.950 . S
C711 C728 1.574 . S
C711 C730 1.368 1_655 S
C711 H735 0.949 . S
H712 C716 0.949 . S
C713 C714 1.349 . S
C713 C715 1.327 . S
C713 H736 0.950 1_455 S
C714 C713 1.349 . S
C714 C726 1.349 . S
C715 C713 1.327 . S
C715 C731 1.429 . S
C715 H737 0.950 1_455 S
C716 H712 0.949 . S
C716 C724 1.574 . S
C716 C732 1.368 . S
H717 C725 0.950 . S
H718 C723 0.950 . S
H719 C724 0.949 . S
H720 C726 0.950 . S
H721 C727 0.950 . S
H722 C728 0.961 . S
C723 H718 0.950 . S
C723 C725 1.327 . S
C723 C729 1.429 1_655 S
C724 C716 1.574 . S
C724 H719 0.949 . S
C724 C730 1.368 . S
C725 C709 1.349 1_655 S
C725 H717 0.950 . S
C725 C723 1.327 . S
C726 C714 1.349 . S
C726 H720 0.950 . S
C726 C727 1.327 . S
C727 H721 0.950 . S
C727 C726 1.327 . S
C727 C731 1.429 . S
C728 C711 1.574 . S
C728 H722 0.961 . S
C728 C732 1.355 1_655 S
C729 C710 1.429 . S
C729 C723 1.429 1_455 S
C729 C730 1.523 . S
C730 C711 1.368 1_455 S
C730 C724 1.368 . S
C730 C729 1.523 . S
C731 C715 1.429 . S
C731 C727 1.429 . S
C731 C732 1.523 . S
C732 C716 1.368 . S
C732 C728 1.355 1_455 S
C732 C731 1.523 . S
H733 C708 0.950 . S
H734 C710 0.950 . S
H735 C711 0.949 . S
H736 C713 0.950 1_655 S
H737 C715 0.950 1_655 S
C199 C19 1.539 . S
C204 N187 1.514 . S
C229 C46 1.102 . S
C234 N160 1.100 . S
C259 C95 0.280 . S
C264 N173 0.149 . S
C289 C10 2.205 . S
C294 N186 2.248 . S
C324 N161 1.333 . S
C319 C55 1.323 . S
C354 N174 0.525 . S
C349 C86 0.544 . S
C379 C59 2.941 . S
C384 N134 2.942 . S
C409 C90 1.594 . S
C414 N148 1.581 . S
C439 C15 1.308 . S
C444 N122 1.323 . S
C474 N135 3.022 . S
C469 C50 3.009 . S
C504 N147 2.178 . S
C499 C99 2.158 . S
C529 C6 1.026 . S
C534 N121 1.027 . S
C564 N151 1.461 . S
C559 C9 1.458 . S
C589 C58 1.518 . S
C594 N125 1.610 . S
C619 C98 1.692 . S
C624 N138 1.716 . S
C654 N177 1.350 . S
C649 C49 1.341 . S
C684 N190 1.437 . S
C679 C89 1.405 . S
C709 C18 1.463 . S
C714 N164 1.529 . S
