# Generated by pormake.
# Topology sit, (3,6)-cn, num edge types: 1
# Building blocks:
#     Node 0, Type 0, BuildingBlock: MIDCAF_clean_linker_0, # of connection points: 3
#     Node 1, Type 0, BuildingBlock: MIDCAF_clean_linker_0, # of connection points: 3
#     Node 2, Type 0, BuildingBlock: MIDCAF_clean_linker_0, # of connection points: 3
#     Node 3, Type 0, BuildingBlock: MIDCAF_clean_linker_0, # of connection points: 3
#     Node 4, Type 1, BuildingBlock: MIDCAF_clean_sbu_0, # of connection points: 6
#     Node 5, Type 1, BuildingBlock: MIDCAF_clean_sbu_0, # of connection points: 6
#     Edge 6, Type (0, 1), BuildingBlock: AJUNOK_clean_linker_0, # of connection points: 2
#     Edge 7, Type (0, 1), BuildingBlock: AJUNOK_clean_linker_0, # of connection points: 2
#     Edge 8, Type (0, 1), BuildingBlock: AJUNOK_clean_linker_0, # of connection points: 2
#     Edge 9, Type (0, 1), BuildingBlock: AJUNOK_clean_linker_0, # of connection points: 2
#     Edge 10, Type (0, 1), BuildingBlock: AJUNOK_clean_linker_0, # of connection points: 2
#     Edge 11, Type (0, 1), BuildingBlock: AJUNOK_clean_linker_0, # of connection points: 2
#     Edge 12, Type (0, 1), BuildingBlock: AJUNOK_clean_linker_0, # of connection points: 2
#     Edge 13, Type (0, 1), BuildingBlock: AJUNOK_clean_linker_0, # of connection points: 2
#     Edge 14, Type (0, 1), BuildingBlock: AJUNOK_clean_linker_0, # of connection points: 2
#     Edge 15, Type (0, 1), BuildingBlock: AJUNOK_clean_linker_0, # of connection points: 2
#     Edge 16, Type (0, 1), BuildingBlock: AJUNOK_clean_linker_0, # of connection points: 2
#     Edge 17, Type (0, 1), BuildingBlock: AJUNOK_clean_linker_0, # of connection points: 2
# Relax obj value: 0.112
# Max RMSD: 0.194
# Mean RMSD: 0.108
data_MOF--net-sit--node1-MIDCAF_clean_sbu_0--node2-MIDCAF_clean_linker_0--edge1-AJUNOK_clean_linker_0
_symmetry_space_group_name_H-M    P1
_symmetry_Int_Tables_number       1
_symmetry_cell_setting            triclinic
loop_
_symmetry_equiv_pos_as_xyz
'x, y, z'
_cell_length_a     22.884007
_cell_length_b     29.04482
_cell_length_c     34.194323
_cell_angle_alpha  89.742477
_cell_angle_beta   89.219888
_cell_angle_gamma 84.048936
loop_
_atom_site_label
_atom_site_type_symbol
_atom_site_fract_x
_atom_site_fract_y
_atom_site_fract_z
_atom_type_partial_charge
C0 C 0.83921 0.37632 0.00163 0.0
C1 C 0.8334 0.41839 0.98101 0.0
C2 C 0.87921 0.44685 0.98147 0.0
C3 C 0.9315 0.43224 0.00035 0.0
H4 H -0.00595 0.23823 0.055 0.0
H5 H 0.0036 0.16504 0.09099 0.0
H6 H 0.15196 0.209 0.15246 0.0
H7 H 0.1446 0.28034 0.11487 0.0
H8 H 0.2147 0.3432 0.03722 0.0
H9 H 0.29412 0.37533 0.00155 0.0
H10 H 0.17849 0.49743 0.97366 0.0
H11 H 0.09826 0.46563 0.00918 0.0
H12 H 0.89565 0.32809 0.03483 0.0
H13 H 0.80421 0.35389 0.00164 0.0
H14 H 0.8751 0.47985 0.9663 0.0
H15 H 0.96667 0.45447 -0.0009 0.0
N16 N 0.0054 0.3286 0.05177 0.0
N17 N 0.10646 0.33542 0.05616 0.0
N18 N 0.04405 0.39478 0.02757 0.0
C19 C 0.05987 0.31089 0.06309 0.0
C20 C 0.09876 0.3775 0.03832 0.0
C21 C -0.00286 0.37081 0.03426 0.0
C22 C 0.06836 0.26511 0.08237 0.0
C23 C 0.0294 0.23169 0.07569 0.0
C24 C 0.03498 0.18973 0.09621 0.0
C25 C 0.07894 0.18066 0.12437 0.0
C26 C 0.1189 0.21372 0.13006 0.0
C27 C 0.11416 0.25512 0.10891 0.0
C28 C 0.14976 0.40137 0.02537 0.0
C29 C 0.20636 0.37745 0.02454 0.0
C30 C 0.25186 0.39576 0.00417 0.0
C31 C 0.24178 0.43849 0.98483 0.0
C32 C 0.18697 0.46445 -0.01145 0.0
C33 C 0.14118 0.446 0.00868 0.0
C34 C 0.93896 0.3888 0.01909 0.0
C35 C 0.89161 0.36157 0.02049 0.0
C36 C 0.84137 0.64524 0.94989 0.0
C37 C 0.79846 0.63734 0.97814 0.0
C38 C 0.80428 0.65348 0.0165 0.0
C39 C 0.85222 0.67737 0.02618 0.0
H40 H 0.90387 0.81572 0.07078 0.0
H41 H 0.90525 0.8769 0.11946 0.0
H42 H 0.09463 0.85327 0.12261 0.0
H43 H 0.09361 0.79376 0.07326 0.0
H44 H 0.16283 0.71905 0.01512 0.0
H45 H 0.25184 0.68993 0.97922 0.0
H46 H 0.14664 0.63322 0.89108 0.0
H47 H 0.05778 0.6607 0.92749 0.0
H48 H 0.9216 0.67355 0.93704 0.0
H49 H 0.83745 0.63438 0.91985 0.0
H50 H 0.77214 0.64745 0.03897 0.0
H51 H 0.85644 0.68916 0.05592 0.0
N52 N 0.94799 0.74107 0.03347 0.0
N53 N 0.04891 0.74466 0.02154 0.0
N54 N -0.00087 0.69083 -0.01163 0.0
C55 C -0.00168 0.7608 0.0405 0.0
C56 C 0.0494 0.70969 -0.00462 0.0
C57 C 0.94856 0.70595 0.00729 0.0
C58 C -0.00142 0.79954 0.0684 0.0
C59 C 0.94582 0.82406 0.08149 0.0
C60 C 0.94659 0.85927 0.10916 0.0
C61 C 7e-05 0.87038 0.1245 0.0
C62 C 0.0528 0.84671 0.11053 0.0
C63 C 0.0521 0.81198 0.08259 0.0
C64 C 0.10342 0.69248 0.97398 0.0
C65 C 0.15874 0.70047 -0.01194 0.0
C66 C 0.20956 0.68396 0.96747 0.0
C67 C 0.2058 0.6601 0.93207 0.0
C68 C 0.15061 0.65145 0.91833 0.0
C69 C 0.09986 0.66738 0.93914 0.0
C70 C 0.89523 0.68448 -0.00225 0.0
C71 C 0.88929 0.66819 0.95963 0.0
C72 C 0.41752 0.94166 0.47188 0.0
C73 C 0.37836 0.91087 0.4595 0.0
C74 C 0.38719 0.86417 0.47072 0.0
C75 C 0.43577 0.84802 0.49291 0.0
H76 H 0.5193 0.72942 0.54663 0.0
H77 H 0.52105 0.65774 0.58446 0.0
H78 H 0.66683 0.69812 0.65074 0.0
H79 H 0.66705 0.76799 0.6118 0.0
H80 H 0.74536 0.83084 0.53753 0.0
H81 H 0.82894 0.86637 0.51118 0.0
H82 H 0.71967 0.99549 0.49569 0.0
H83 H 0.63493 0.9592 0.52053 0.0
H84 H 0.49713 0.94967 0.50198 0.0
H85 H 0.41106 0.9779 0.46369 0.0
H86 H 0.35682 0.84006 0.46184 0.0
H87 H 0.44219 0.81155 0.50028 0.0
N88 N 0.53651 0.81774 0.54067 0.0
N89 N 0.63525 0.825 0.55462 0.0
N90 N 0.57867 0.88475 0.52198 0.0
C91 C 0.58815 0.80011 0.55663 0.0
C92 C 0.63072 0.8674 0.5373 0.0
C93 C 0.53143 0.86023 0.52354 0.0
C94 C 0.59275 0.75455 0.57648 0.0
C95 C 0.55249 0.7224 0.56877 0.0
C96 C 0.5536 0.68128 0.59032 0.0
C97 C 0.59443 0.67176 0.6204 0.0
C98 C 0.63604 0.70325 0.62697 0.0
C99 C 0.63565 0.74384 0.60497 0.0
C100 C 0.6833 0.89189 0.53027 0.0
C101 C 0.73927 0.86707 0.52933 0.0
C102 C 0.78731 0.88754 0.5143 0.0
C103 C 0.78049 0.93341 0.50041 0.0
C104 C 0.72575 0.95962 0.50496 0.0
C105 C 0.6774 0.93891 0.51944 0.0
C106 C 0.47669 0.87827 0.50389 0.0
C107 C 0.46663 0.92541 0.49367 0.0
C108 C 0.36851 0.11537 0.49198 0.0
C109 C 0.31466 0.14168 0.48545 0.0
C110 C 0.30884 0.18934 0.49381 0.0
C111 C 0.35717 0.21082 0.5062 0.0
H112 H 0.42607 0.31808 0.57765 0.0
H113 H 0.43585 0.38019 0.62397 0.0
H114 H 0.61409 0.38864 0.58405 0.0
H115 H 0.60492 0.32647 0.53776 0.0
H116 H 0.67931 0.22848 0.51433 0.0
H117 H 0.76937 0.19215 0.48343 0.0
H118 H 0.6686 0.10099 0.41919 0.0
H119 H 0.5784 0.13669 0.45002 0.0
H120 H 0.45856 0.11593 0.50711 0.0
H121 H 0.37389 0.07853 0.48607 0.0
H122 H 0.26802 0.2106 0.48835 0.0
H123 H 0.3524 0.24799 0.5103 0.0
N124 N 0.46444 0.2507 0.53132 0.0
N125 N 0.56562 0.25058 0.51871 0.0
N126 N 0.51701 0.1876 0.49978 0.0
C127 C 0.51457 0.27203 0.53358 0.0
C128 C 0.56699 0.20844 0.50165 0.0
C129 C 0.46576 0.20823 0.51453 0.0
C130 C 0.51525 0.31631 0.5548 0.0
C131 C 0.46678 0.33404 0.57782 0.0
C132 C 0.47211 0.37004 0.60408 0.0
C133 C 0.52585 0.38897 0.6076 0.0
C134 C 0.57228 0.37446 0.58187 0.0
C135 C 0.56702 0.33856 0.55563 0.0
C136 C 0.62179 0.18558 0.48451 0.0
C137 C 0.67634 0.20049 0.49387 0.0
C138 C 0.72779 0.17955 0.47652 0.0
C139 C 0.72528 0.14379 0.44936 0.0
C140 C 0.67113 0.12844 0.44028 0.0
C141 C 0.61977 0.14892 0.45795 0.0
C142 C 0.41211 0.18501 0.50979 0.0
C143 C 0.41683 0.13684 0.504 0.0
Zn144 Zn 0.04367 0.10693 0.33731 0.0
Zn145 Zn 0.06253 0.93652 0.35013 0.0
Zn146 Zn 0.05466 1.02209 0.34157 0.0
C147 C 0.03144 0.95466 0.27301 0.0
C148 C 0.97491 0.96805 0.39993 0.0
O149 O 0.12888 0.04615 0.37285 0.0
O150 O 0.09166 0.11843 0.38309 0.0
C151 C 0.07193 0.07884 0.26345 0.0
O152 O 0.04773 0.99435 0.28203 0.0
O153 O 0.02811 0.92408 0.29905 0.0
O154 O 0.01197 0.93288 0.3974 0.0
O155 O -0.01944 1.00383 0.37839 0.0
O156 O 0.07807 0.11322 0.28478 0.0
O157 O 0.05642 0.04125 0.27865 0.0
O158 O 0.97296 0.05138 0.37043 0.0
O159 O 0.9578 0.12114 0.34406 0.0
C160 C 0.94038 0.08975 0.36548 0.0
O161 O 0.13927 0.99805 0.36935 0.0
O162 O 0.14815 0.92314 0.35671 0.0
C163 C 0.13029 0.08537 0.39003 0.0
C164 C 0.16971 0.95817 0.36968 0.0
Zn165 Zn 0.53518 0.60472 0.8328 0.0
Zn166 Zn 0.53568 0.43046 0.84214 0.0
Zn167 Zn 0.53144 0.52234 0.8384 0.0
C168 C 0.54298 0.45387 0.76364 0.0
C169 C 0.42993 0.46956 0.87775 0.0
O170 O 0.60186 0.54297 0.87627 0.0
O171 O 0.57339 0.61748 0.88211 0.0
C172 C 0.56874 0.57666 0.76171 0.0
O173 O 0.53795 0.49482 0.77834 0.0
O174 O 0.54446 0.41864 0.78548 0.0
O175 O 0.45778 0.43142 0.86801 0.0
O176 O 0.44983 0.50807 0.86849 0.0
O177 O 0.58009 0.6093 0.78355 0.0
O178 O 0.54436 0.54223 0.77617 0.0
O179 O 0.44654 0.55604 0.85939 0.0
O180 O 0.45043 0.62446 0.83183 0.0
C181 C 0.42207 0.59675 0.85094 0.0
O182 O 0.60695 0.49457 0.87389 0.0
O183 O 0.60532 0.41829 0.87545 0.0
C184 C 0.60555 0.58214 0.89314 0.0
C185 C 0.62847 0.45399 0.88516 0.0
C186 C 0.02367 0.13174 0.16909 0.0
C187 C 0.07769 0.14094 0.152 0.0
C188 C 0.02184 0.10483 0.20309 0.0
C189 C 0.07381 0.08656 0.22117 0.0
H190 H -0.01736 0.149 0.15857 0.0
H191 H -0.02021 0.10261 0.21758 0.0
S192 S 0.22536 0.09043 0.18326 0.0
N193 N 0.18374 0.12094 0.15132 0.0
N194 N 0.17991 0.07271 0.21672 0.0
C195 C 0.12756 0.091 0.20222 0.0
C196 C 0.12956 0.11756 0.16715 0.0
C197 C 0.96398 0.89353 0.19117 0.0
C198 C 0.00075 0.90106 0.15902 0.0
C199 C 0.97192 0.91398 0.2273 0.0
C200 C 0.01676 0.94286 0.23273 0.0
H201 H 0.9314 0.86913 0.18928 0.0
H202 H 0.94456 0.90518 0.25178 0.0
S203 S 0.11974 0.97868 0.15666 0.0
N204 N 0.07908 0.9439 0.13363 0.0
N205 N 0.09523 0.98116 0.20235 0.0
C206 C 0.05106 0.95351 0.20027 0.0
C207 C 0.04283 0.93278 0.16322 0.0
C208 C 0.53173 0.62828 0.66466 0.0
C209 C 0.58789 0.63376 0.64897 0.0
C210 C 0.52524 0.60349 0.69938 0.0
C211 C 0.57456 0.58348 0.71948 0.0
H212 H 0.4928 0.64694 0.65234 0.0
H213 H 0.48186 0.60417 0.71263 0.0
S214 S 0.72957 0.57793 0.68625 0.0
N215 N 0.69267 0.60882 0.65225 0.0
N216 N 0.68009 0.56404 0.71867 0.0
C217 C 0.63016 0.58415 0.70207 0.0
C218 C 0.6369 0.60879 0.66641 0.0
C219 C 0.58277 0.39602 0.66786 0.0
C220 C 0.53743 0.41476 0.64335 0.0
C221 C 0.5867 0.41148 0.70622 0.0
C222 C 0.54612 0.44674 0.72118 0.0
H223 H 0.61275 0.36673 0.65841 0.0
H224 H 0.61986 0.39402 0.72497 0.0
S225 S 0.42453 0.51169 0.66731 0.0
N226 N 0.45488 0.47361 0.63533 0.0
N227 N 0.46295 0.50331 0.70777 0.0
C228 C 0.50368 0.46856 0.69612 0.0
C229 C 0.49906 0.45229 0.65707 0.0
C230 C 0.29741 0.42314 0.92312 0.0
C231 C 0.28524 0.45162 0.95586 0.0
C232 C 0.34213 0.43125 0.89666 0.0
C233 C 0.37655 0.46801 0.90209 0.0
H234 H 0.27303 0.3936 0.9185 0.0
H235 H 0.35115 0.40753 0.87243 0.0
S236 S 0.36006 0.55381 0.98258 0.0
N237 N 0.30814 0.51945 -0.00854 0.0
N238 N 0.39452 0.53389 0.94235 0.0
C239 C 0.36346 0.49783 0.93407 0.0
C240 C 0.31707 0.48986 0.96081 0.0
C241 C 0.75399 0.57762 0.93946 0.0
C242 C 0.74638 0.61519 0.96563 0.0
C243 C 0.707 0.56485 0.91775 0.0
C244 C 0.65057 0.58796 0.92247 0.0
H245 H 0.79747 0.56044 0.93336 0.0
H246 H 0.71604 0.53984 0.89466 0.0
S247 S 0.60503 0.68276 -0.00781 0.0
N248 N 0.67663 0.67195 -0.0019 0.0
N249 N 0.58759 0.64565 0.95895 0.0
C250 C 0.6411 0.62222 0.95143 0.0
C251 C 0.68915 0.63612 0.97291 0.0
C252 C 0.72461 0.43155 0.97311 0.0
C253 C 0.78136 0.4308 0.9567 0.0
C254 C 0.67482 0.44038 0.94979 0.0
C255 C 0.6806 0.44846 0.90952 0.0
H256 H 0.71878 0.42491 0.00405 0.0
H257 H 0.63163 0.44026 0.96317 0.0
S258 S 0.81879 0.4488 0.85225 0.0
N259 N 0.84023 0.43825 0.89764 0.0
N260 N 0.74623 0.45425 0.85388 0.0
C261 C 0.73676 0.44762 0.89272 0.0
C262 C 0.78737 0.43916 0.91639 0.0
C263 C 0.269 0.59961 0.89463 0.0
C264 C 0.25933 0.64512 0.90904 0.0
C265 C 0.32085 0.58446 0.87419 0.0
C266 C 0.36477 0.61412 0.86808 0.0
H267 H 0.23695 0.57526 0.89997 0.0
H268 H 0.32695 0.54923 0.86359 0.0
S269 S 0.35756 0.73799 0.89619 0.0
N270 N 0.29496 0.72096 0.91226 0.0
N271 N 0.39349 0.69204 0.87551 0.0
C272 C 0.3544 0.66027 0.88085 0.0
C273 C 0.30152 0.67579 0.90116 0.0
C274 C 0.88714 0.9418 0.48981 0.0
C275 C 0.82877 0.95114 0.47731 0.0
C276 C 0.93436 0.94919 0.46498 0.0
C277 C 0.92485 0.96686 0.42707 0.0
H278 H 0.89641 0.92686 0.51843 0.0
H279 H -0.02132 0.93987 0.47514 0.0
S280 S 0.78117 0.99904 0.38059 0.0
N281 N 0.76438 0.98068 0.42469 0.0
N282 N 0.85363 0.99498 0.37836 0.0
C283 C 0.86705 0.97863 0.41479 0.0
C284 C 0.81882 0.97086 0.43993 0.0
C285 C 0.28059 0.09611 0.43014 0.0
C286 C 0.26736 0.12093 0.46502 0.0
C287 C 0.23587 0.08244 0.40667 0.0
C288 C 0.17676 0.09306 0.41751 0.0
H289 H 0.32562 0.08933 0.41982 0.0
H290 H 0.24748 0.06534 0.37913 0.0
S291 S 0.11921 0.15118 0.50846 0.0
N292 N 0.19125 0.15093 0.51119 0.0
N293 N 0.10703 0.12558 0.46674 0.0
C294 C 0.16301 0.11548 0.45324 0.0
C295 C 0.20842 0.12927 0.47716 0.0
C296 C 0.28516 0.96109 0.44722 0.0
C297 C 0.32884 0.92688 0.43411 0.0
C298 C 0.23453 0.97275 0.42521 0.0
C299 C 0.22688 0.95136 0.3891 0.0
H300 H 0.28887 0.97725 0.47545 0.0
H301 H 0.19988 0.99677 0.43751 0.0
S302 S 0.3317 0.86327 0.34032 0.0
N303 N 0.36345 0.8741 0.3819 0.0
N304 N 0.26878 0.89674 0.34011 0.0
C305 C 0.27159 0.91869 0.37496 0.0
C306 C 0.32263 0.90641 0.39752 0.0
C307 C 0.78218 0.13108 0.3875 0.0
C308 C 0.77871 0.12517 0.42822 0.0
C309 C 0.83467 0.11849 0.36708 0.0
C310 C 0.88462 0.09885 0.38678 0.0
H311 H 0.74472 0.14706 0.37159 0.0
H312 H 0.83645 0.12464 0.33583 0.0
S313 S 0.89715 0.07493 0.49302 0.0
N314 N 0.82844 0.09738 0.48737 0.0
N315 N 0.92764 0.07371 0.44891 0.0
C316 C 0.88126 0.09165 0.42731 0.0
C317 C 0.828 0.10482 0.44811 0.0
loop_
_geom_bond_atom_site_label_1
_geom_bond_atom_site_label_2
_geom_bond_distance
_geom_bond_site_symmetry_2
_ccdc_geom_bond_type
C0 C1 1.384 . S
C0 H13 0.947 . S
C0 C35 1.382 1_655 S
C1 C0 1.384 . S
C1 C2 1.378 . S
C2 C1 1.378 . S
C2 C3 1.378 1_556 S
C2 H14 0.952 1_556 S
C3 C2 1.378 1_554 S
C3 H15 0.950 . S
C3 C34 1.383 1_654 S
H4 C23 0.947 . S
H5 C24 0.946 . S
H6 C26 0.953 . S
H7 C27 0.945 . S
H8 C29 0.952 . S
H9 C30 0.948 1_554 S
H10 C32 0.950 . S
H11 C33 0.948 . S
H12 C35 0.951 . S
H13 C0 0.947 . S
H14 C2 0.952 1_554 S
H15 C3 0.950 . S
N16 C19 1.382 . S
N16 C21 1.363 . S
N17 C19 1.371 . S
N17 C20 1.372 . S
N18 C20 1.361 1_556 S
N18 C21 1.377 1_556 S
C19 N16 1.382 . S
C19 N17 1.371 . S
C19 C22 1.480 . S
C20 N17 1.372 . S
C20 N18 1.361 1_554 S
C20 C28 1.457 1_554 S
C21 N16 1.363 . S
C21 N18 1.377 1_554 S
C21 C34 1.479 1_554 S
C22 C19 1.480 . S
C22 C23 1.383 . S
C22 C27 1.385 . S
C23 H4 0.947 . S
C23 C22 1.383 . S
C23 C24 1.388 . S
C24 H5 0.946 . S
C24 C23 1.388 . S
C24 C25 1.384 . S
C25 C24 1.384 . S
C25 C26 1.377 . S
C26 H6 0.953 . S
C26 C25 1.377 . S
C26 C27 1.369 . S
C27 H7 0.945 . S
C27 C22 1.385 . S
C27 C26 1.369 . S
C28 C20 1.457 1_556 S
C28 C29 1.372 1_556 S
C28 C33 1.364 . S
C29 H8 0.952 . S
C29 C28 1.372 1_554 S
C29 C30 1.389 1_554 S
C30 H9 0.948 1_556 S
C30 C29 1.389 1_556 S
C30 C31 1.387 . S
C31 C30 1.387 . S
C31 C32 1.372 . S
C32 H10 0.950 . S
C32 C31 1.372 . S
C32 C33 1.379 . S
C33 H11 0.948 . S
C33 C28 1.364 . S
C33 C32 1.379 . S
C34 C3 1.383 1_456 S
C34 C21 1.479 1_556 S
C34 C35 1.398 . S
C35 C0 1.382 1_455 S
C35 H12 0.951 . S
C35 C34 1.398 . S
C36 C37 1.384 . S
C36 H49 0.947 . S
C36 C71 1.382 . S
C37 C36 1.384 . S
C37 C38 1.378 . S
C38 C37 1.378 . S
C38 C39 1.378 1_556 S
C38 H50 0.952 1_556 S
C39 C38 1.378 1_554 S
C39 H51 0.950 . S
C39 C70 1.383 1_554 S
H40 C59 0.947 . S
H41 C60 0.946 . S
H42 C62 0.953 . S
H43 C63 0.945 . S
H44 C65 0.952 . S
H45 C66 0.949 1_554 S
H46 C68 0.950 . S
H47 C69 0.948 . S
H48 C71 0.951 . S
H49 C36 0.947 . S
H50 C38 0.952 1_554 S
H51 C39 0.950 . S
N52 C55 1.382 1_655 S
N52 C57 1.363 . S
N53 C55 1.371 . S
N53 C56 1.372 . S
N54 C56 1.361 1_556 S
N54 C57 1.377 1_456 S
C55 N52 1.382 1_455 S
C55 N53 1.371 . S
C55 C58 1.480 . S
C56 N53 1.372 . S
C56 N54 1.361 1_554 S
C56 C64 1.457 1_554 S
C57 N52 1.363 . S
C57 N54 1.377 1_654 S
C57 C70 1.479 1_554 S
C58 C55 1.480 . S
C58 C59 1.383 1_455 S
C58 C63 1.385 . S
C59 H40 0.947 . S
C59 C58 1.383 1_655 S
C59 C60 1.388 . S
C60 H41 0.946 . S
C60 C59 1.388 . S
C60 C61 1.378 1_655 S
C61 C60 1.378 1_455 S
C61 C62 1.382 . S
C62 H42 0.953 . S
C62 C61 1.382 . S
C62 C63 1.369 . S
C63 H43 0.945 . S
C63 C58 1.385 . S
C63 C62 1.369 . S
C64 C56 1.457 1_556 S
C64 C65 1.372 1_556 S
C64 C69 1.364 . S
C65 H44 0.952 . S
C65 C64 1.372 1_554 S
C65 C66 1.389 1_554 S
C66 H45 0.949 1_556 S
C66 C65 1.389 1_556 S
C66 C67 1.387 . S
C67 C66 1.387 . S
C67 C68 1.372 . S
C68 H46 0.950 . S
C68 C67 1.372 . S
C68 C69 1.379 . S
C69 H47 0.948 . S
C69 C64 1.364 . S
C69 C68 1.379 . S
C70 C39 1.383 1_556 S
C70 C57 1.479 1_556 S
C70 C71 1.398 . S
C71 C36 1.382 . S
C71 H48 0.951 . S
C71 C70 1.398 . S
C72 C73 1.384 . S
C72 H85 0.947 . S
C72 C107 1.382 . S
C73 C72 1.384 . S
C73 C74 1.378 . S
C74 C73 1.378 . S
C74 C75 1.378 . S
C74 H86 0.952 . S
C75 C74 1.378 . S
C75 H87 0.950 . S
C75 C106 1.383 . S
H76 C95 0.947 . S
H77 C96 0.946 . S
H78 C98 0.953 . S
H79 C99 0.945 . S
H80 C101 0.952 . S
H81 C102 0.949 . S
H82 C104 0.950 . S
H83 C105 0.948 . S
H84 C107 0.951 . S
H85 C72 0.947 . S
H86 C74 0.952 . S
H87 C75 0.950 . S
N88 C91 1.382 . S
N88 C93 1.363 . S
N89 C91 1.371 . S
N89 C92 1.372 . S
N90 C92 1.361 . S
N90 C93 1.377 . S
C91 N88 1.382 . S
C91 N89 1.371 . S
C91 C94 1.480 . S
C92 N89 1.372 . S
C92 N90 1.361 . S
C92 C100 1.457 . S
C93 N88 1.363 . S
C93 N90 1.377 . S
C93 C106 1.479 . S
C94 C91 1.480 . S
C94 C95 1.383 . S
C94 C99 1.385 . S
C95 H76 0.947 . S
C95 C94 1.383 . S
C95 C96 1.388 . S
C96 H77 0.946 . S
C96 C95 1.388 . S
C96 C97 1.384 . S
C97 C96 1.384 . S
C97 C98 1.377 . S
C98 H78 0.953 . S
C98 C97 1.377 . S
C98 C99 1.369 . S
C99 H79 0.945 . S
C99 C94 1.385 . S
C99 C98 1.369 . S
C100 C92 1.457 . S
C100 C101 1.372 . S
C100 C105 1.364 . S
C101 H80 0.952 . S
C101 C100 1.372 . S
C101 C102 1.389 . S
C102 H81 0.949 . S
C102 C101 1.389 . S
C102 C103 1.387 . S
C103 C102 1.387 . S
C103 C104 1.372 . S
C104 H82 0.950 . S
C104 C103 1.372 . S
C104 C105 1.379 . S
C105 H83 0.948 . S
C105 C100 1.364 . S
C105 C104 1.379 . S
C106 C75 1.383 . S
C106 C93 1.479 . S
C106 C107 1.398 . S
C107 C72 1.382 . S
C107 H84 0.951 . S
C107 C106 1.398 . S
C108 C109 1.384 . S
C108 H121 0.947 . S
C108 C143 1.382 . S
C109 C108 1.384 . S
C109 C110 1.378 . S
C110 C109 1.378 . S
C110 C111 1.378 . S
C110 H122 0.952 . S
C111 C110 1.378 . S
C111 H123 0.950 . S
C111 C142 1.383 . S
H112 C131 0.947 . S
H113 C132 0.946 . S
H114 C134 0.953 . S
H115 C135 0.945 . S
H116 C137 0.952 . S
H117 C138 0.949 . S
H118 C140 0.950 . S
H119 C141 0.948 . S
H120 C143 0.951 . S
H121 C108 0.947 . S
H122 C110 0.952 . S
H123 C111 0.950 . S
N124 C127 1.382 . S
N124 C129 1.363 . S
N125 C127 1.371 . S
N125 C128 1.372 . S
N126 C128 1.361 . S
N126 C129 1.377 . S
C127 N124 1.382 . S
C127 N125 1.371 . S
C127 C130 1.480 . S
C128 N125 1.372 . S
C128 N126 1.361 . S
C128 C136 1.457 . S
C129 N124 1.363 . S
C129 N126 1.377 . S
C129 C142 1.479 . S
C130 C127 1.480 . S
C130 C131 1.383 . S
C130 C135 1.385 . S
C131 H112 0.947 . S
C131 C130 1.383 . S
C131 C132 1.388 . S
C132 H113 0.946 . S
C132 C131 1.388 . S
C132 C133 1.384 . S
C133 C132 1.384 . S
C133 C134 1.377 . S
C134 H114 0.953 . S
C134 C133 1.377 . S
C134 C135 1.369 . S
C135 H115 0.945 . S
C135 C130 1.385 . S
C135 C134 1.369 . S
C136 C128 1.457 . S
C136 C137 1.372 . S
C136 C141 1.364 . S
C137 H116 0.952 . S
C137 C136 1.372 . S
C137 C138 1.389 . S
C138 H117 0.949 . S
C138 C137 1.389 . S
C138 C139 1.387 . S
C139 C138 1.387 . S
C139 C140 1.372 . S
C140 H118 0.950 . S
C140 C139 1.372 . S
C140 C141 1.379 . S
C141 H119 0.948 . S
C141 C136 1.364 . S
C141 C140 1.379 . S
C142 C111 1.383 . S
C142 C129 1.479 . S
C142 C143 1.398 . S
C143 C108 1.382 . S
C143 H120 0.951 . S
C143 C142 1.398 . S
Zn144 O150 1.920 . S
Zn144 O156 1.898 . S
Zn144 O159 1.905 1_455 S
Zn145 O153 1.905 . S
Zn145 O154 1.898 . S
Zn145 O162 1.920 . S
Zn146 O149 2.080 . S
Zn146 O152 2.114 1_545 S
Zn146 O155 2.120 1_545 S
Zn146 O157 2.120 . S
Zn146 O158 2.114 1_455 S
Zn146 O161 2.080 1_545 S
C147 O152 1.166 . S
C147 O153 1.182 . S
C148 O154 1.167 . S
C148 O155 1.299 . S
O149 Zn146 2.080 . S
O149 C163 1.305 . S
O150 Zn144 1.920 . S
O150 C163 1.234 . S
C151 O156 1.167 . S
C151 O157 1.299 . S
O152 Zn146 2.114 1_565 S
O152 C147 1.166 . S
O153 Zn145 1.905 . S
O153 C147 1.182 . S
O154 Zn145 1.898 . S
O154 C148 1.167 . S
O155 Zn146 2.120 1_565 S
O155 C148 1.299 . S
O156 Zn144 1.898 . S
O156 C151 1.167 . S
O157 Zn146 2.120 . S
O157 C151 1.299 . S
O158 Zn146 2.114 1_655 S
O158 C160 1.166 . S
O159 Zn144 1.905 1_655 S
O159 C160 1.182 . S
C160 O158 1.166 . S
C160 O159 1.182 . S
O161 Zn146 2.080 1_565 S
O161 C164 1.305 . S
O162 Zn145 1.920 . S
O162 C164 1.234 . S
C163 O149 1.305 . S
C163 O150 1.234 . S
C164 O161 1.305 . S
C164 O162 1.234 . S
Zn165 O171 1.920 . S
Zn165 O177 1.898 . S
Zn165 O180 1.905 . S
Zn166 O174 1.905 . S
Zn166 O175 1.898 . S
Zn166 O183 1.920 . S
Zn167 O170 2.080 . S
Zn167 O173 2.114 . S
Zn167 O176 2.120 . S
Zn167 O178 2.120 . S
Zn167 O179 2.114 . S
Zn167 O182 2.080 . S
C168 O173 1.166 . S
C168 O174 1.182 . S
C169 O175 1.167 . S
C169 O176 1.299 . S
O170 Zn167 2.080 . S
O170 C184 1.305 . S
O171 Zn165 1.920 . S
O171 C184 1.234 . S
C172 O177 1.167 . S
C172 O178 1.299 . S
O173 Zn167 2.114 . S
O173 C168 1.166 . S
O174 Zn166 1.905 . S
O174 C168 1.182 . S
O175 Zn166 1.898 . S
O175 C169 1.167 . S
O176 Zn167 2.120 . S
O176 C169 1.299 . S
O177 Zn165 1.898 . S
O177 C172 1.167 . S
O178 Zn167 2.120 . S
O178 C172 1.299 . S
O179 Zn167 2.114 . S
O179 C181 1.166 . S
O180 Zn165 1.905 . S
O180 C181 1.182 . S
C181 O179 1.166 . S
C181 O180 1.182 . S
O182 Zn167 2.080 . S
O182 C185 1.305 . S
O183 Zn166 1.920 . S
O183 C185 1.234 . S
C184 O170 1.305 . S
C184 O171 1.234 . S
C185 O182 1.305 . S
C185 O183 1.234 . S
C186 C187 1.369 . S
C186 C188 1.419 . S
C186 H190 0.930 . S
C187 C186 1.369 . S
C187 C196 1.429 . S
C188 C186 1.419 . S
C188 C189 1.363 . S
C188 H191 0.929 . S
C189 C188 1.363 . S
C189 C195 1.428 . S
H190 C186 0.930 . S
H191 C188 0.929 . S
S192 N193 1.622 . S
S192 N194 1.613 . S
N193 S192 1.622 . S
N193 C196 1.350 . S
N194 S192 1.613 . S
N194 C195 1.351 . S
C195 C189 1.428 . S
C195 N194 1.351 . S
C195 C196 1.434 . S
C196 C187 1.429 . S
C196 N193 1.350 . S
C196 C195 1.434 . S
C197 C198 1.369 1_655 S
C197 C199 1.419 . S
C197 H201 0.930 . S
C198 C197 1.369 1_455 S
C198 C207 1.429 . S
C199 C197 1.419 . S
C199 C200 1.363 1_655 S
C199 H202 0.929 . S
C200 C199 1.363 1_455 S
C200 C206 1.428 . S
H201 C197 0.930 . S
H202 C199 0.929 . S
S203 N204 1.613 . S
S203 N205 1.610 . S
N204 S203 1.613 . S
N204 C207 1.350 . S
N205 S203 1.610 . S
N205 C206 1.351 . S
C206 C200 1.428 . S
C206 N205 1.351 . S
C206 C207 1.434 . S
C207 C198 1.429 . S
C207 N204 1.350 . S
C207 C206 1.434 . S
C208 C209 1.369 . S
C208 C210 1.419 . S
C208 H212 0.930 . S
C209 C208 1.369 . S
C209 C218 1.429 . S
C210 C208 1.419 . S
C210 C211 1.363 . S
C210 H213 0.929 . S
C211 C210 1.363 . S
C211 C217 1.428 . S
H212 C208 0.930 . S
H213 C210 0.929 . S
S214 N215 1.613 . S
S214 N216 1.610 . S
N215 S214 1.613 . S
N215 C218 1.350 . S
N216 S214 1.610 . S
N216 C217 1.351 . S
C217 C211 1.428 . S
C217 N216 1.351 . S
C217 C218 1.434 . S
C218 C209 1.429 . S
C218 N215 1.350 . S
C218 C217 1.434 . S
C219 C220 1.369 . S
C219 C221 1.419 . S
C219 H223 0.930 . S
C220 C219 1.369 . S
C220 C229 1.429 . S
C221 C219 1.419 . S
C221 C222 1.363 . S
C221 H224 0.929 . S
C222 C221 1.363 . S
C222 C228 1.428 . S
H223 C219 0.930 . S
H224 C221 0.929 . S
S225 N226 1.613 . S
S225 N227 1.610 . S
N226 S225 1.613 . S
N226 C229 1.350 . S
N227 S225 1.610 . S
N227 C228 1.351 . S
C228 C222 1.428 . S
C228 N227 1.351 . S
C228 C229 1.434 . S
C229 C220 1.429 . S
C229 N226 1.350 . S
C229 C228 1.434 . S
C230 C231 1.369 . S
C230 C232 1.419 . S
C230 H234 0.930 . S
C231 C230 1.369 . S
C231 C240 1.429 . S
C232 C230 1.419 . S
C232 C233 1.363 . S
C232 H235 0.929 . S
C233 C232 1.363 . S
C233 C239 1.428 . S
H234 C230 0.930 . S
H235 C232 0.929 . S
S236 N237 1.613 . S
S236 N238 1.610 . S
N237 S236 1.613 . S
N237 C240 1.350 1_554 S
N238 S236 1.610 . S
N238 C239 1.351 1_554 S
C239 C233 1.428 . S
C239 N238 1.351 1_556 S
C239 C240 1.434 . S
C240 C231 1.429 . S
C240 N237 1.350 1_556 S
C240 C239 1.434 . S
C241 C242 1.369 . S
C241 C243 1.419 . S
C241 H245 0.930 . S
C242 C241 1.369 . S
C242 C251 1.429 . S
C243 C241 1.419 . S
C243 C244 1.363 . S
C243 H246 0.929 . S
C244 C243 1.363 . S
C244 C250 1.428 . S
H245 C241 0.930 . S
H246 C243 0.929 . S
S247 N248 1.613 . S
S247 N249 1.610 . S
N248 S247 1.613 . S
N248 C251 1.350 . S
N249 S247 1.610 . S
N249 C250 1.351 . S
C250 C244 1.428 . S
C250 N249 1.351 . S
C250 C251 1.434 . S
C251 C242 1.429 . S
C251 N248 1.350 . S
C251 C250 1.434 . S
C252 C253 1.369 . S
C252 C254 1.419 . S
C252 H256 0.930 . S
C253 C252 1.369 . S
C253 C262 1.429 . S
C254 C252 1.419 . S
C254 C255 1.363 . S
C254 H257 0.929 . S
C255 C254 1.363 . S
C255 C261 1.428 . S
H256 C252 0.930 . S
H257 C254 0.929 . S
S258 N259 1.613 . S
S258 N260 1.610 . S
N259 S258 1.613 . S
N259 C262 1.350 . S
N260 S258 1.610 . S
N260 C261 1.351 . S
C261 C255 1.428 . S
C261 N260 1.351 . S
C261 C262 1.434 . S
C262 C253 1.429 . S
C262 N259 1.350 . S
C262 C261 1.434 . S
C263 C264 1.369 . S
C263 C265 1.419 . S
C263 H267 0.930 . S
C264 C263 1.369 . S
C264 C273 1.429 . S
C265 C263 1.419 . S
C265 C266 1.363 . S
C265 H268 0.929 . S
C266 C265 1.363 . S
C266 C272 1.428 . S
H267 C263 0.930 . S
H268 C265 0.929 . S
S269 N270 1.613 . S
S269 N271 1.610 . S
N270 S269 1.613 . S
N270 C273 1.350 . S
N271 S269 1.610 . S
N271 C272 1.351 . S
C272 C266 1.428 . S
C272 N271 1.351 . S
C272 C273 1.434 . S
C273 C264 1.429 . S
C273 N270 1.350 . S
C273 C272 1.434 . S
C274 C275 1.369 . S
C274 C276 1.419 . S
C274 H278 0.930 . S
C275 C274 1.369 . S
C275 C284 1.429 . S
C276 C274 1.419 . S
C276 C277 1.363 . S
C276 H279 0.929 1_655 S
C277 C276 1.363 . S
C277 C283 1.428 . S
H278 C274 0.930 . S
H279 C276 0.929 1_455 S
S280 N281 1.613 . S
S280 N282 1.610 . S
N281 S280 1.613 . S
N281 C284 1.350 . S
N282 S280 1.610 . S
N282 C283 1.351 . S
C283 C277 1.428 . S
C283 N282 1.351 . S
C283 C284 1.434 . S
C284 C275 1.429 . S
C284 N281 1.350 . S
C284 C283 1.434 . S
C285 C286 1.369 . S
C285 C287 1.419 . S
C285 H289 0.930 . S
C286 C285 1.369 . S
C286 C295 1.429 . S
C287 C285 1.419 . S
C287 C288 1.363 . S
C287 H290 0.929 . S
C288 C287 1.363 . S
C288 C294 1.428 . S
H289 C285 0.930 . S
H290 C287 0.929 . S
S291 N292 1.613 . S
S291 N293 1.610 . S
N292 S291 1.613 . S
N292 C295 1.350 . S
N293 S291 1.610 . S
N293 C294 1.351 . S
C294 C288 1.428 . S
C294 N293 1.351 . S
C294 C295 1.434 . S
C295 C286 1.429 . S
C295 N292 1.350 . S
C295 C294 1.434 . S
C296 C297 1.369 . S
C296 C298 1.419 . S
C296 H300 0.930 . S
C297 C296 1.369 . S
C297 C306 1.429 . S
C298 C296 1.419 . S
C298 C299 1.363 . S
C298 H301 0.929 . S
C299 C298 1.363 . S
C299 C305 1.428 . S
H300 C296 0.930 . S
H301 C298 0.929 . S
S302 N303 1.613 . S
S302 N304 1.610 . S
N303 S302 1.613 . S
N303 C306 1.350 . S
N304 S302 1.610 . S
N304 C305 1.351 . S
C305 C299 1.428 . S
C305 N304 1.351 . S
C305 C306 1.434 . S
C306 C297 1.429 . S
C306 N303 1.350 . S
C306 C305 1.434 . S
C307 C308 1.369 . S
C307 C309 1.419 . S
C307 H311 0.930 . S
C308 C307 1.369 . S
C308 C317 1.429 . S
C309 C307 1.419 . S
C309 C310 1.363 . S
C309 H312 0.929 . S
C310 C309 1.363 . S
C310 C316 1.428 . S
H311 C307 0.930 . S
H312 C309 0.929 . S
S313 N314 1.613 . S
S313 N315 1.610 . S
N314 S313 1.613 . S
N314 C317 1.350 . S
N315 S313 1.610 . S
N315 C316 1.351 . S
C316 C310 1.428 . S
C316 N315 1.351 . S
C316 C317 1.434 . S
C317 C308 1.429 . S
C317 N314 1.350 . S
C317 C316 1.434 . S
C189 C151 1.500 . S
C187 C25 1.533 . S
C200 C147 1.501 . S
C198 C61 1.553 . S
C211 C172 1.498 . S
C209 C97 1.532 . S
C220 C133 1.555 . S
C222 C168 1.503 . S
C231 C31 1.323 . S
C233 C169 1.159 . S
C244 C184 1.168 . S
C242 C37 1.398 . S
C253 C1 1.668 . S
C255 C185 1.523 . S
C266 C181 1.534 . S
C264 C67 1.693 . S
C277 C148 1.151 1_655 S
C275 C103 1.328 . S
C286 C109 1.393 . S
C288 C163 1.178 . S
C299 C164 1.513 . S
C297 C73 1.673 . S
C310 C160 1.541 . S
C308 C139 1.691 . S
