# Generated by pormake.
# Topology ant, (3,6)-cn, num edge types: 1
# Building blocks:
#     Node 0, Type 0, BuildingBlock: VETTIZ_charged_linker_0, # of connection points: 3
#     Node 1, Type 0, BuildingBlock: VETTIZ_charged_linker_0, # of connection points: 3
#     Node 2, Type 0, BuildingBlock: VETTIZ_charged_linker_0, # of connection points: 3
#     Node 3, Type 0, BuildingBlock: VETTIZ_charged_linker_0, # of connection points: 3
#     Node 4, Type 0, BuildingBlock: VETTIZ_charged_linker_0, # of connection points: 3
#     Node 5, Type 0, BuildingBlock: VETTIZ_charged_linker_0, # of connection points: 3
#     Node 6, Type 0, BuildingBlock: VETTIZ_charged_linker_0, # of connection points: 3
#     Node 7, Type 0, BuildingBlock: VETTIZ_charged_linker_0, # of connection points: 3
#     Node 8, Type 1, BuildingBlock: MIDCAF_clean_sbu_0, # of connection points: 6
#     Node 9, Type 1, BuildingBlock: MIDCAF_clean_sbu_0, # of connection points: 6
#     Node 10, Type 1, BuildingBlock: MIDCAF_clean_sbu_0, # of connection points: 6
#     Node 11, Type 1, BuildingBlock: MIDCAF_clean_sbu_0, # of connection points: 6
#     Edge 12, Type (0, 1), BuildingBlock: MIFKUJ_clean_linker_0, # of connection points: 2
#     Edge 13, Type (0, 1), BuildingBlock: MIFKUJ_clean_linker_0, # of connection points: 2
#     Edge 14, Type (0, 1), BuildingBlock: MIFKUJ_clean_linker_0, # of connection points: 2
#     Edge 15, Type (0, 1), BuildingBlock: MIFKUJ_clean_linker_0, # of connection points: 2
#     Edge 16, Type (0, 1), BuildingBlock: MIFKUJ_clean_linker_0, # of connection points: 2
#     Edge 17, Type (0, 1), BuildingBlock: MIFKUJ_clean_linker_0, # of connection points: 2
#     Edge 18, Type (0, 1), BuildingBlock: MIFKUJ_clean_linker_0, # of connection points: 2
#     Edge 19, Type (0, 1), BuildingBlock: MIFKUJ_clean_linker_0, # of connection points: 2
#     Edge 20, Type (0, 1), BuildingBlock: MIFKUJ_clean_linker_0, # of connection points: 2
#     Edge 21, Type (0, 1), BuildingBlock: MIFKUJ_clean_linker_0, # of connection points: 2
#     Edge 22, Type (0, 1), BuildingBlock: MIFKUJ_clean_linker_0, # of connection points: 2
#     Edge 23, Type (0, 1), BuildingBlock: MIFKUJ_clean_linker_0, # of connection points: 2
#     Edge 24, Type (0, 1), BuildingBlock: MIFKUJ_clean_linker_0, # of connection points: 2
#     Edge 25, Type (0, 1), BuildingBlock: MIFKUJ_clean_linker_0, # of connection points: 2
#     Edge 26, Type (0, 1), BuildingBlock: MIFKUJ_clean_linker_0, # of connection points: 2
#     Edge 27, Type (0, 1), BuildingBlock: MIFKUJ_clean_linker_0, # of connection points: 2
#     Edge 28, Type (0, 1), BuildingBlock: MIFKUJ_clean_linker_0, # of connection points: 2
#     Edge 29, Type (0, 1), BuildingBlock: MIFKUJ_clean_linker_0, # of connection points: 2
#     Edge 30, Type (0, 1), BuildingBlock: MIFKUJ_clean_linker_0, # of connection points: 2
#     Edge 31, Type (0, 1), BuildingBlock: MIFKUJ_clean_linker_0, # of connection points: 2
#     Edge 32, Type (0, 1), BuildingBlock: MIFKUJ_clean_linker_0, # of connection points: 2
#     Edge 33, Type (0, 1), BuildingBlock: MIFKUJ_clean_linker_0, # of connection points: 2
#     Edge 34, Type (0, 1), BuildingBlock: MIFKUJ_clean_linker_0, # of connection points: 2
#     Edge 35, Type (0, 1), BuildingBlock: MIFKUJ_clean_linker_0, # of connection points: 2
# Relax obj value: 0.106
# Max RMSD: 0.160
# Mean RMSD: 0.107
data_MOF--net-ant--node1-MIDCAF_clean_sbu_0--node2-VETTIZ_charged_linker_0--edge1-MIFKUJ_clean_linker_0
_symmetry_space_group_name_H-M    P1
_symmetry_Int_Tables_number       1
_symmetry_cell_setting            triclinic
loop_
_symmetry_equiv_pos_as_xyz
'x, y, z'
_cell_length_a     42.516045
_cell_length_b     42.16194
_cell_length_c     115.98938
_cell_angle_alpha  90.177337
_cell_angle_beta   93.396749
_cell_angle_gamma 89.976171
loop_
_atom_site_label
_atom_site_type_symbol
_atom_site_fract_x
_atom_site_fract_y
_atom_site_fract_z
_atom_type_partial_charge
C0 C 0.2255 0.1554 0.09493 0.0
C1 C 0.22566 0.12303 0.09188 0.0
C2 C 0.22276 0.11429 0.08017 0.0
C3 C 0.21777 0.16936 0.07461 0.0
C4 C 0.22137 0.17823 0.08611 0.0
C5 C 0.21915 0.2138 0.08754 0.0
H6 H 0.19305 0.35809 0.06236 0.0
C7 C 0.21233 0.19817 0.06759 0.0
C8 C 0.21314 0.22449 0.07505 0.0
H9 H 0.2132 0.33856 0.09861 0.0
H10 H 0.21705 0.28247 0.09442 0.0
H11 H 0.24527 0.3093 0.05288 0.0
H12 H 0.14597 0.30231 0.05775 0.0
H13 H 0.15259 0.28137 0.04503 0.0
H14 H 0.16083 0.32335 0.0458 0.0
H15 H 0.21595 0.33034 0.04414 0.0
H16 H 0.22746 0.2905 0.04061 0.0
C17 C 0.25115 0.22596 0.09285 0.0
C18 C 0.19087 0.22118 0.09491 0.0
C19 C 0.18959 0.18644 0.0243 0.0
C20 C 0.18098 0.20817 0.01552 0.0
C21 C 0.17947 0.24072 0.01827 0.0
C22 C 0.18606 0.2514 0.02962 0.0
C23 C 0.19402 0.22931 0.03837 0.0
C24 C 0.19576 0.19747 0.03561 0.0
C25 C 0.20336 0.17726 0.04604 0.0
C26 C 0.20596 0.2022 0.05553 0.0
C27 C 0.2006 0.23261 0.05099 0.0
C28 C 0.23537 0.16065 0.04444 0.0
C29 C 0.17523 0.15437 0.04745 0.0
C30 C 0.19875 0.34187 0.0694 0.0
C31 C 0.20295 0.35295 0.08083 0.0
C32 C 0.20959 0.33072 0.08974 0.0
C33 C 0.21196 0.29814 0.08728 0.0
C34 C 0.2075 0.28749 0.07579 0.0
C35 C 0.20111 0.30935 0.0671 0.0
C36 C 0.19658 0.29403 0.05541 0.0
C37 C 0.20165 0.25939 0.05846 0.0
C38 C 0.20798 0.2555 0.07042 0.0
C39 C 0.22243 0.30671 0.04776 0.0
C40 C 0.16236 0.30065 0.05063 0.0
H41 H 0.2166 0.12878 0.06281 0.0
H42 H 0.22765 0.16261 0.10391 0.0
H43 H 0.17054 0.20555 0.09236 0.0
H44 H 0.18195 0.24559 0.09375 0.0
H45 H 0.19712 0.21721 0.10423 0.0
H46 H 0.271 0.21309 0.08909 0.0
H47 H 0.25308 0.22224 0.10234 0.0
H48 H 0.25527 0.25123 0.09102 0.0
H49 H 0.19051 0.16124 0.02249 0.0
H50 H 0.17316 0.25794 0.01162 0.0
H51 H 0.18437 0.27644 0.03115 0.0
H52 H 0.25145 0.17635 0.03982 0.0
H53 H 0.23214 0.13851 0.03929 0.0
H54 H 0.24844 0.15516 0.05271 0.0
H55 H 0.15261 0.16521 0.04413 0.0
H56 H 0.1714 0.14884 0.05657 0.0
H57 H 0.17828 0.13189 0.04263 0.0
H58 H 0.22306 0.08947 0.07769 0.0
C59 C 0.21897 0.13718 0.07154 0.0
C60 C 0.19253 0.80875 0.33738 0.0
C61 C 0.22139 0.80997 0.33206 0.0
C62 C 0.2214 0.81093 0.31994 0.0
C63 C 0.1644 0.80828 0.31849 0.0
C64 C 0.16431 0.80759 0.33041 0.0
C65 C 0.1314 0.80419 0.33447 0.0
H66 H 0.9759 0.77728 0.32079 0.0
C67 C 0.13155 0.8051 0.31371 0.0
C68 C 0.112 0.80239 0.32302 0.0
H69 H 0.02053 0.79128 0.3548 0.0
H70 H 0.07099 0.79986 0.34645 0.0
H71 H 0.0083 0.83572 0.31004 0.0
H72 H 0.03104 0.73642 0.30979 0.0
H73 H 0.03541 0.75084 0.29577 0.0
H74 H 0.99744 0.75298 0.30186 0.0
H75 H 0.98767 0.80836 0.30045 0.0
H76 H 0.02309 0.82822 0.29651 0.0
C77 C 0.12363 0.83426 0.34144 0.0
C78 C 0.12986 0.77297 0.34139 0.0
C79 C 0.10822 0.80472 0.27013 0.0
C80 C 0.0803 0.80056 0.26311 0.0
C81 C 0.05182 0.79541 0.26848 0.0
C82 C 0.05108 0.79452 0.28053 0.0
C83 C 0.07913 0.79867 0.28739 0.0
C84 C 0.10708 0.8036 0.28218 0.0
C85 C 0.13466 0.80669 0.29087 0.0
C86 C 0.11845 0.80362 0.30216 0.0
C87 C 0.086 0.79885 0.30004 0.0
C88 C 0.14926 0.84003 0.28954 0.0
C89 C 0.15764 0.77879 0.28898 0.0
C90 C 0.99668 0.78187 0.32641 0.0
C91 C 0.99464 0.78309 0.33842 0.0
C92 C 0.02183 0.79001 0.34551 0.0
C93 C 0.05098 0.79493 0.34064 0.0
C94 C 0.05276 0.79329 0.32857 0.0
C95 C 0.02568 0.78742 0.32169 0.0
C96 C 0.03121 0.78869 0.30904 0.0
C97 C 0.06626 0.79546 0.3094 0.0
C98 C 0.079 0.79772 0.32085 0.0
C99 C 0.01149 0.81646 0.30363 0.0
C100 C 0.02323 0.75567 0.30373 0.0
H101 H 0.19478 0.81098 0.30396 0.0
H102 H 0.19204 0.80767 0.34669 0.0
H103 H 0.14203 0.75351 0.33692 0.0
H104 H 0.10561 0.7645 0.34227 0.0
H105 H 0.14155 0.77573 0.35016 0.0
H106 H 0.13454 0.85567 0.33776 0.0
H107 H 0.13267 0.8322 0.35059 0.0
H108 H 0.09814 0.83948 0.34114 0.0
H109 H 0.13053 0.80889 0.26635 0.0
H110 H 0.03004 0.79143 0.26336 0.0
H111 H 0.02866 0.79033 0.28402 0.0
H112 H 0.13046 0.85824 0.28822 0.0
H113 H 0.16409 0.84083 0.28198 0.0
H114 H 0.16353 0.84785 0.29729 0.0
H115 H 0.1451 0.75787 0.28505 0.0
H116 H 0.16889 0.76972 0.29716 0.0
H117 H 0.17623 0.78567 0.28313 0.0
H118 H 0.24347 0.81188 0.31574 0.0
C119 C 0.19312 0.81031 0.31314 0.0
C120 C 0.72378 0.65497 0.59378 0.0
C121 C 0.72414 0.62279 0.59043 0.0
C122 C 0.71987 0.61493 0.57865 0.0
C123 C 0.71268 0.67023 0.57374 0.0
C124 C 0.71784 0.67835 0.58525 0.0
C125 C 0.71494 0.71376 0.58707 0.0
H126 H 0.68517 0.85943 0.5633 0.0
C127 C 0.70548 0.69934 0.56708 0.0
C128 C 0.70685 0.72518 0.57477 0.0
H129 H 0.70796 0.83814 0.59924 0.0
H130 H 0.71138 0.78213 0.59463 0.0
H131 H 0.73553 0.81121 0.5527 0.0
H132 H 0.63718 0.80396 0.55912 0.0
H133 H 0.64216 0.78334 0.54621 0.0
H134 H 0.65054 0.82529 0.54698 0.0
H135 H 0.70526 0.83262 0.54456 0.0
H136 H 0.71634 0.793 0.54057 0.0
C137 C 0.74724 0.72641 0.59187 0.0
C138 C 0.68772 0.71985 0.59507 0.0
C139 C 0.67681 0.68999 0.52406 0.0
C140 C 0.66764 0.71223 0.5155 0.0
C141 C 0.66628 0.7446 0.51858 0.0
C142 C 0.67375 0.75458 0.52996 0.0
C143 C 0.68261 0.73199 0.53843 0.0
C144 C 0.68407 0.70035 0.53539 0.0
C145 C 0.69347 0.67961 0.54552 0.0
C146 C 0.69724 0.704 0.55517 0.0
C147 C 0.69092 0.7346 0.55097 0.0
C148 C 0.72525 0.66346 0.54312 0.0
C149 C 0.6659 0.65635 0.54732 0.0
C150 C 0.69128 0.84279 0.57017 0.0
C151 C 0.69657 0.8533 0.58162 0.0
C152 C 0.70367 0.83066 0.59034 0.0
C153 C 0.70578 0.79817 0.58765 0.0
C154 C 0.70047 0.7881 0.57611 0.0
C155 C 0.69321 0.81039 0.56764 0.0
C156 C 0.68732 0.79569 0.55591 0.0
C157 C 0.69276 0.76093 0.55864 0.0
C158 C 0.70057 0.75639 0.57049 0.0
C159 C 0.71216 0.80882 0.54792 0.0
C160 C 0.65263 0.80247 0.55172 0.0
H161 H 0.71089 0.63054 0.56154 0.0
H162 H 0.72694 0.6616 0.6028 0.0
H163 H 0.66763 0.7036 0.59286 0.0
H164 H 0.67783 0.74397 0.59418 0.0
H165 H 0.69551 0.71579 0.60426 0.0
H166 H 0.76669 0.71508 0.58734 0.0
H167 H 0.75104 0.72115 0.60123 0.0
H168 H 0.75004 0.75213 0.59055 0.0
H169 H 0.67849 0.66499 0.522 0.0
H170 H 0.65889 0.76226 0.51222 0.0
H171 H 0.67211 0.7795 0.53172 0.0
H172 H 0.73985 0.67896 0.53781 0.0
H173 H 0.72144 0.64078 0.53835 0.0
H174 H 0.74022 0.65905 0.55107 0.0
H175 H 0.64275 0.66774 0.54503 0.0
H176 H 0.66439 0.64901 0.5564 0.0
H177 H 0.66761 0.63488 0.54182 0.0
H178 H 0.72042 0.59036 0.57589 0.0
C179 C 0.71429 0.63835 0.57032 0.0
C180 C 0.67293 0.30455 0.83728 0.0
C181 C 0.70182 0.30608 0.83196 0.0
C182 C 0.70159 0.31007 0.8199 0.0
C183 C 0.64463 0.30851 0.81849 0.0
C184 C 0.64461 0.30564 0.83037 0.0
C185 C 0.61159 0.30274 0.83438 0.0
H186 H 0.45477 0.28763 0.82012 0.0
C187 C 0.61173 0.30712 0.81369 0.0
C188 C 0.59207 0.30384 0.82294 0.0
H189 H 0.50044 0.28964 0.8544 0.0
H190 H 0.55108 0.2977 0.84626 0.0
H191 H 0.49184 0.34538 0.81055 0.0
H192 H 0.50657 0.24466 0.80851 0.0
H193 H 0.51275 0.26033 0.79482 0.0
H194 H 0.47469 0.26461 0.8007 0.0
H195 H 0.46836 0.32061 0.80083 0.0
H196 H 0.5049 0.33789 0.79673 0.0
C197 C 0.60514 0.33172 0.84211 0.0
C198 C 0.60874 0.27038 0.84048 0.0
C199 C 0.58959 0.30729 0.77015 0.0
C200 C 0.56175 0.30461 0.76303 0.0
C201 C 0.53263 0.30292 0.76821 0.0
C202 C 0.53132 0.30325 0.78026 0.0
C203 C 0.55944 0.30515 0.78725 0.0
C204 C 0.58788 0.30754 0.78216 0.0
C205 C 0.61535 0.30922 0.79092 0.0
C206 C 0.5987 0.30734 0.80213 0.0
C207 C 0.56604 0.30474 0.79991 0.0
C208 C 0.63195 0.34163 0.78957 0.0
C209 C 0.63657 0.27987 0.78914 0.0
C210 C 0.47571 0.28946 0.82588 0.0
C211 C 0.47369 0.28758 0.8379 0.0
C212 C 0.50142 0.29099 0.8451 0.0
C213 C 0.53077 0.29554 0.84036 0.0
C214 C 0.53239 0.29687 0.82828 0.0
C215 C 0.505 0.29418 0.8213 0.0
C216 C 0.5107 0.29685 0.80871 0.0
C217 C 0.54608 0.30134 0.8092 0.0
C218 C 0.55888 0.30111 0.82067 0.0
C219 C 0.49294 0.32653 0.80385 0.0
C220 C 0.50053 0.26516 0.80277 0.0
H221 H 0.67489 0.31406 0.80404 0.0
H222 H 0.67241 0.30144 0.84653 0.0
H223 H 0.62064 0.25144 0.83565 0.0
H224 H 0.58417 0.26237 0.84094 0.0
H225 H 0.61998 0.27123 0.84937 0.0
H226 H 0.61627 0.35346 0.83877 0.0
H227 H 0.6149 0.32793 0.85109 0.0
H228 H 0.57984 0.33747 0.84225 0.0
H229 H 0.61242 0.30818 0.76648 0.0
H230 H 0.5108 0.30125 0.76293 0.0
H231 H 0.50845 0.30162 0.78365 0.0
H232 H 0.61475 0.36032 0.7867 0.0
H233 H 0.65003 0.34024 0.78305 0.0
H234 H 0.64298 0.35073 0.79779 0.0
H235 H 0.6221 0.25875 0.78654 0.0
H236 H 0.65016 0.27248 0.79708 0.0
H237 H 0.6531 0.2842 0.78225 0.0
H238 H 0.72353 0.31183 0.81563 0.0
C239 C 0.67328 0.3114 0.81317 0.0
C240 C 0.04568 0.81983 0.91471 0.0
C241 C 0.05116 0.84633 0.92205 0.0
C242 C 0.05728 0.84111 0.93397 0.0
C243 C 0.05249 0.78431 0.93116 0.0
C244 C 0.04635 0.78909 0.91946 0.0
C245 C 0.04081 0.75811 0.91305 0.0
H246 H 0.03891 0.59644 0.91525 0.0
C247 C 0.05195 0.74983 0.93341 0.0
C248 C 0.04504 0.73414 0.92284 0.0
H249 H 0.0201 0.6545 0.88504 0.0
H250 H 0.02695 0.70224 0.89683 0.0
H251 H 0.09613 0.63664 0.92627 0.0
H252 H 0.99692 0.63553 0.93134 0.0
H253 H 0.01536 0.64276 0.94502 0.0
H254 H 0.02319 0.60614 0.93758 0.0
H255 H 0.07718 0.60516 0.93359 0.0
H256 H 0.09223 0.63979 0.94121 0.0
C257 C 0.06636 0.75449 0.9042 0.0
C258 C 0.00675 0.75811 0.90758 0.0
C259 C 0.07568 0.70924 0.97435 0.0
C260 C 0.07721 0.67855 0.97912 0.0
C261 C 0.07113 0.65224 0.97181 0.0
C262 C 0.06387 0.65632 0.95998 0.0
C263 C 0.0626 0.68708 0.95532 0.0
C264 C 0.06829 0.7129 0.96248 0.0
C265 C 0.06561 0.74378 0.95601 0.0
C266 C 0.05742 0.73217 0.94377 0.0
C267 C 0.05586 0.699 0.94344 0.0
C268 C 0.09822 0.76033 0.95709 0.0
C269 C 0.03838 0.76322 0.96087 0.0
C270 C 0.03646 0.61942 0.91114 0.0
C271 C 0.02945 0.62178 0.89921 0.0
C272 C 0.02562 0.65215 0.89424 0.0
C273 C 0.02972 0.67975 0.90109 0.0
C274 C 0.03739 0.67687 0.91303 0.0
C275 C 0.04016 0.64692 0.91782 0.0
C276 C 0.04743 0.64769 0.93061 0.0
C277 C 0.0491 0.68304 0.93281 0.0
C278 C 0.04345 0.70032 0.92253 0.0
C279 C 0.07978 0.63133 0.93316 0.0
C280 C 0.01953 0.63208 0.93652 0.0
H281 H 0.06285 0.80832 0.94767 0.0
H282 H 0.04069 0.82295 0.90552 0.0
H283 H 0.99029 0.76907 0.91355 0.0
H284 H 0.99754 0.734 0.90586 0.0
H285 H 0.00517 0.77186 0.89941 0.0
H286 H 0.0899 0.76112 0.90819 0.0
H287 H 0.0613 0.77013 0.89663 0.0
H288 H 0.06879 0.72991 0.90111 0.0
H289 H 0.07983 0.73001 0.97974 0.0
H290 H 0.07251 0.62835 0.97522 0.0
H291 H 0.05974 0.63525 0.95491 0.0
H292 H 0.11762 0.7426 0.95706 0.0
H293 H 0.10126 0.77404 0.96528 0.0
H294 H 0.10236 0.77616 0.94977 0.0
H295 H 0.01933 0.74735 0.96362 0.0
H296 H 0.02658 0.77904 0.95438 0.0
H297 H 0.0468 0.77749 0.9685 0.0
H298 H 0.06219 0.86083 0.93981 0.0
C299 C 0.05793 0.81044 0.93854 0.0
C300 C 0.74654 0.79923 0.16097 0.0
C301 C 0.77646 0.79937 0.16683 0.0
C302 C 0.77878 0.80164 0.17895 0.0
C303 C 0.72194 0.80325 0.1793 0.0
C304 C 0.71962 0.80159 0.16737 0.0
C305 C 0.6859 0.80343 0.16261 0.0
H306 H 0.53042 0.80621 0.17285 0.0
C307 C 0.6898 0.8054 0.18339 0.0
C308 C 0.66849 0.80589 0.17366 0.0
H309 H 0.57178 0.80883 0.13977 0.0
H310 H 0.62422 0.80918 0.14932 0.0
H311 H 0.58038 0.75642 0.18552 0.0
H312 H 0.57373 0.85815 0.18426 0.0
H313 H 0.59064 0.84906 0.19802 0.0
H314 H 0.5513 0.83533 0.19388 0.0
H315 H 0.54978 0.77886 0.1918 0.0
H316 H 0.58674 0.77135 0.19966 0.0
C317 C 0.67804 0.77229 0.15596 0.0
C318 C 0.68196 0.83377 0.15516 0.0
C319 C 0.67415 0.80284 0.22648 0.0
C320 C 0.64723 0.80433 0.23298 0.0
C321 C 0.61747 0.80829 0.22709 0.0
C322 C 0.61449 0.80976 0.215 0.0
C323 C 0.64153 0.80746 0.20866 0.0
C324 C 0.67077 0.80468 0.21442 0.0
C325 C 0.69701 0.80386 0.20628 0.0
C326 C 0.6786 0.80602 0.19468 0.0
C327 C 0.64614 0.80773 0.19613 0.0
C328 C 0.71425 0.77163 0.20782 0.0
C329 C 0.71827 0.83333 0.20872 0.0
C330 C 0.55087 0.8067 0.1677 0.0
C331 C 0.54729 0.80705 0.1556 0.0
C332 C 0.57422 0.80844 0.14912 0.0
C333 C 0.60452 0.80855 0.15468 0.0
C334 C 0.60777 0.80765 0.16683 0.0
C335 C 0.58112 0.80732 0.17311 0.0
C336 C 0.58879 0.80797 0.18591 0.0
C337 C 0.6245 0.80811 0.18633 0.0
C338 C 0.63557 0.80752 0.17515 0.0
C339 C 0.57568 0.77721 0.1911 0.0
C340 C 0.57533 0.83904 0.19087 0.0
H341 H 0.75511 0.8049 0.19443 0.0
H342 H 0.74423 0.79794 0.15163 0.0
H343 H 0.69816 0.85287 0.15848 0.0
H344 H 0.65816 0.84423 0.15538 0.0
H345 H 0.68722 0.829 0.14605 0.0
H346 H 0.6872 0.75146 0.16099 0.0
H347 H 0.68897 0.77204 0.1475 0.0
H348 H 0.65251 0.7682 0.15446 0.0
H349 H 0.6974 0.7996 0.23063 0.0
H350 H 0.59634 0.8103 0.23181 0.0
H351 H 0.59118 0.81245 0.21107 0.0
H352 H 0.69699 0.75203 0.20861 0.0
H353 H 0.73021 0.77167 0.21576 0.0
H354 H 0.72801 0.76511 0.20041 0.0
H355 H 0.70503 0.85305 0.2126 0.0
H356 H 0.72707 0.84356 0.20075 0.0
H357 H 0.73861 0.82759 0.21482 0.0
H358 H 0.80165 0.80164 0.1836 0.0
C359 C 0.75173 0.80346 0.18521 0.0
C360 C 0.55953 0.31339 0.4154 0.0
C361 C 0.56403 0.34032 0.42259 0.0
C362 C 0.56858 0.33586 0.43461 0.0
C363 C 0.56445 0.27888 0.43219 0.0
C364 C 0.55962 0.28293 0.42039 0.0
C365 C 0.55447 0.25153 0.4142 0.0
H366 H 0.55286 0.08989 0.41785 0.0
C367 C 0.56381 0.24455 0.43471 0.0
C368 C 0.55787 0.22816 0.42421 0.0
H369 H 0.53473 0.14572 0.38705 0.0
H370 H 0.54114 0.19432 0.3984 0.0
H371 H 0.6093 0.13042 0.4286 0.0
H372 H 0.50999 0.13063 0.43349 0.0
H373 H 0.52857 0.13727 0.44719 0.0
H374 H 0.53595 0.10079 0.43962 0.0
H375 H 0.59052 0.10026 0.43663 0.0
H376 H 0.60552 0.13616 0.44343 0.0
C377 C 0.58067 0.24719 0.40566 0.0
C378 C 0.52079 0.25131 0.4084 0.0
C379 C 0.58549 0.20674 0.4761 0.0
C380 C 0.58811 0.17637 0.48112 0.0
C381 C 0.58329 0.14952 0.47395 0.0
C382 C 0.57624 0.15279 0.46207 0.0
C383 C 0.57405 0.18325 0.45718 0.0
C384 C 0.57859 0.20958 0.46418 0.0
C385 C 0.57579 0.24003 0.45744 0.0
C386 C 0.56875 0.22758 0.44524 0.0
C387 C 0.56777 0.19438 0.44518 0.0
C388 C 0.60803 0.25727 0.45874 0.0
C389 C 0.54775 0.25918 0.46186 0.0
C390 C 0.55039 0.11257 0.41352 0.0
C391 C 0.54371 0.11405 0.40155 0.0
C392 C 0.53996 0.14405 0.39628 0.0
C393 C 0.54379 0.17215 0.40288 0.0
C394 C 0.55106 0.17016 0.41488 0.0
C395 C 0.55376 0.14055 0.41995 0.0
C396 C 0.56057 0.14223 0.43275 0.0
C397 C 0.56182 0.17772 0.43464 0.0
C398 C 0.55656 0.1943 0.42418 0.0
C399 C 0.59301 0.12631 0.43561 0.0
C400 C 0.53257 0.12679 0.43865 0.0
H401 H 0.57254 0.30394 0.44862 0.0
H402 H 0.55564 0.31601 0.40614 0.0
H403 H 0.50391 0.26284 0.41407 0.0
H404 H 0.51157 0.22713 0.40684 0.0
H405 H 0.5199 0.26442 0.40009 0.0
H406 H 0.60404 0.25342 0.40988 0.0
H407 H 0.57652 0.26279 0.39802 0.0
H408 H 0.58277 0.22252 0.40263 0.0
H409 H 0.58866 0.22795 0.48133 0.0
H410 H 0.58561 0.12584 0.4775 0.0
H411 H 0.57309 0.13136 0.45713 0.0
H412 H 0.6278 0.23993 0.45917 0.0
H413 H 0.61003 0.27175 0.46676 0.0
H414 H 0.6126 0.2725 0.4513 0.0
H415 H 0.52873 0.24309 0.46448 0.0
H416 H 0.53622 0.27451 0.45515 0.0
H417 H 0.55526 0.27393 0.46948 0.0
H418 H 0.57252 0.35599 0.44034 0.0
C419 C 0.5688 0.30548 0.43942 0.0
C420 C 0.25738 0.28446 0.66288 0.0
C421 C 0.28656 0.27597 0.66841 0.0
C422 C 0.28892 0.27277 0.68051 0.0
C423 C 0.23397 0.28684 0.68149 0.0
C424 C 0.23127 0.28939 0.66959 0.0
C425 C 0.19788 0.29697 0.66528 0.0
H426 H 0.04633 0.32714 0.67792 0.0
C427 C 0.20299 0.29386 0.68601 0.0
C428 C 0.18151 0.29966 0.67659 0.0
H429 H 0.08306 0.31757 0.64413 0.0
H430 H 0.13551 0.30922 0.6529 0.0
H431 H 0.08401 0.26915 0.68925 0.0
H432 H 0.10432 0.36923 0.68923 0.0
H433 H 0.11508 0.35499 0.70312 0.0
H434 H 0.07445 0.35264 0.69771 0.0
H435 H 0.06208 0.29746 0.69714 0.0
H436 H 0.09782 0.27986 0.7033 0.0
C437 C 0.18518 0.26873 0.65781 0.0
C438 C 0.19804 0.32894 0.65879 0.0
C439 C 0.19269 0.29456 0.72939 0.0
C440 C 0.16747 0.30056 0.73639 0.0
C441 C 0.13798 0.30917 0.73108 0.0
C442 C 0.1336 0.31117 0.71901 0.0
C443 C 0.15896 0.30451 0.71213 0.0
C444 C 0.18794 0.2967 0.71737 0.0
C445 C 0.21233 0.29068 0.70878 0.0
C446 C 0.19322 0.29599 0.69748 0.0
C447 C 0.16197 0.30393 0.69946 0.0
C448 C 0.22356 0.25577 0.71012 0.0
C449 C 0.23869 0.31586 0.71081 0.0
C450 C 0.06572 0.32372 0.67239 0.0
C451 C 0.06048 0.32312 0.66031 0.0
C452 C 0.08638 0.31791 0.65346 0.0
C453 C 0.11681 0.31306 0.65857 0.0
C454 C 0.12148 0.31308 0.67068 0.0
C455 C 0.09612 0.31851 0.67736 0.0
C456 C 0.10512 0.31693 0.69008 0.0
C457 C 0.13995 0.30926 0.68997 0.0
C458 C 0.14958 0.30713 0.67858 0.0
C459 C 0.08624 0.28963 0.69532 0.0
C460 C 0.09932 0.35001 0.69542 0.0
H461 H 0.26652 0.27562 0.69622 0.0
H462 H 0.25491 0.28675 0.65357 0.0
H463 H 0.21332 0.34643 0.66365 0.0
H464 H 0.17453 0.34003 0.65782 0.0
H465 H 0.20728 0.32594 0.65009 0.0
H466 H 0.19498 0.24586 0.66118 0.0
H467 H 0.19177 0.27109 0.64873 0.0
H468 H 0.15939 0.26593 0.65793 0.0
H469 H 0.21575 0.28829 0.73318 0.0
H470 H 0.11806 0.31361 0.73626 0.0
H471 H 0.11053 0.31746 0.7155 0.0
H472 H 0.20458 0.24033 0.7132 0.0
H473 H 0.24412 0.25382 0.71644 0.0
H474 H 0.22958 0.24492 0.70184 0.0
H475 H 0.22862 0.33916 0.71322 0.0
H476 H 0.25154 0.32079 0.70302 0.0
H477 H 0.25582 0.30863 0.71792 0.0
H478 H 0.3112 0.26649 0.68494 0.0
C479 C 0.26293 0.27825 0.68705 0.0
Zn480 Zn 0.18038 0.71038 0.13866 0.0
Zn481 Zn 0.12556 0.78616 0.10666 0.0
Zn482 Zn 0.15441 0.74764 0.1221 0.0
C483 C 0.13855 0.72842 0.0956 0.0
C484 C 0.18093 0.81654 0.11421 0.0
O485 O 0.12526 0.74816 0.1375 0.0
O486 O 0.14994 0.71762 0.15061 0.0
C487 C 0.16836 0.67238 0.11899 0.0
O488 O 0.14809 0.71998 0.10588 0.0
O489 O 0.12852 0.75617 0.09363 0.0
O490 O 0.15644 0.8209 0.10772 0.0
O491 O 0.18456 0.79058 0.12 0.0
O492 O 0.17683 0.67051 0.12958 0.0
O493 O 0.16046 0.6994 0.11448 0.0
O494 O 0.20092 0.76801 0.12684 0.0
O495 O 0.22109 0.7343 0.13989 0.0
C496 C 0.22383 0.75887 0.13381 0.0
O497 O 0.10745 0.76036 0.12793 0.0
O498 O 0.08509 0.79096 0.11426 0.0
C499 C 0.12746 0.73603 0.14771 0.0
C500 C 0.08373 0.77653 0.12374 0.0
Zn501 Zn 0.57575 0.69352 0.35701 0.0
Zn502 Zn 0.63492 0.76517 0.38949 0.0
Zn503 Zn 0.60482 0.72967 0.37341 0.0
C504 C 0.58058 0.7984 0.38251 0.0
C505 C 0.67584 0.7585 0.37178 0.0
O506 O 0.59577 0.68141 0.38067 0.0
O507 O 0.57625 0.65322 0.36576 0.0
C508 C 0.53608 0.74561 0.36158 0.0
O509 O 0.57743 0.77414 0.37573 0.0
O510 O 0.60337 0.79984 0.38998 0.0
O511 O 0.67368 0.773 0.38123 0.0
O512 O 0.65269 0.74135 0.3676 0.0
O513 O 0.53692 0.72051 0.35561 0.0
O514 O 0.55959 0.75318 0.36857 0.0
O515 O 0.63419 0.72833 0.35824 0.0
O516 O 0.60722 0.69878 0.34533 0.0
C517 C 0.63091 0.71581 0.34809 0.0
O518 O 0.60924 0.70107 0.38942 0.0
O519 O 0.63665 0.73231 0.40169 0.0
C520 C 0.58565 0.65486 0.37627 0.0
C521 C 0.62289 0.70629 0.39946 0.0
Zn522 Zn 0.63673 0.28844 0.61069 0.0
Zn523 Zn 0.70159 0.2117 0.63771 0.0
Zn524 Zn 0.66924 0.24846 0.62438 0.0
C525 C 0.74318 0.25675 0.63086 0.0
C526 C 0.67863 0.17388 0.61994 0.0
O527 O 0.62292 0.25768 0.63206 0.0
O528 O 0.59766 0.28916 0.61941 0.0
C529 C 0.69083 0.32053 0.61837 0.0
O530 O 0.71656 0.2702 0.62808 0.0
O531 O 0.74384 0.22815 0.63406 0.0
O532 O 0.68682 0.17113 0.63052 0.0
O533 O 0.67405 0.20167 0.61551 0.0
O534 O 0.6656 0.325 0.61232 0.0
O535 O 0.69665 0.29341 0.62318 0.0
O536 O 0.66093 0.22381 0.6076 0.0
O537 O 0.63892 0.26168 0.59666 0.0
C538 C 0.6498 0.23389 0.59772 0.0
O539 O 0.6443 0.24435 0.64025 0.0
O540 O 0.683 0.22671 0.65213 0.0
C541 C 0.59808 0.27355 0.62869 0.0
C542 C 0.65562 0.23801 0.65051 0.0
Zn543 Zn 0.0684 0.20238 0.85867 0.0
Zn544 Zn 0.11208 0.27671 0.89228 0.0
Zn545 Zn 0.08903 0.23927 0.87576 0.0
C546 C 0.09782 0.21913 0.90241 0.0
C547 C 0.06068 0.30859 0.8824 0.0
O548 O 0.12138 0.24232 0.86136 0.0
O549 O 0.09921 0.21316 0.8472 0.0
C550 C 0.07845 0.16291 0.87772 0.0
O551 O 0.09328 0.21062 0.89177 0.0
O552 O 0.10404 0.2476 0.90502 0.0
O553 O 0.08336 0.31286 0.88975 0.0
O554 O 0.058 0.28215 0.87678 0.0
O555 O 0.0735 0.16146 0.86689 0.0
O556 O 0.08299 0.19007 0.88273 0.0
O557 O 0.04221 0.25838 0.87025 0.0
O558 O 0.02581 0.22251 0.85732 0.0
C559 C 0.02051 0.24711 0.86316 0.0
O560 O 0.13715 0.25301 0.87159 0.0
O561 O 0.15576 0.27959 0.88698 0.0
C562 C 0.12085 0.23163 0.85092 0.0
C563 C 0.16006 0.26722 0.87727 0.0
H564 H 0.17356 0.38063 0.09872 0.0
H565 H 0.16614 0.43716 0.10242 0.0
H566 H 0.21638 0.46004 0.07231 0.0
H567 H 0.22469 0.40348 0.06873 0.0
H568 H 0.23384 0.49892 0.08996 0.0
H569 H 0.13689 0.46545 0.07131 0.0
H570 H 0.08983 0.4319 0.06772 0.0
H571 H 0.05904 0.45516 0.10131 0.0
H572 H 0.10618 0.48849 0.10518 0.0
H573 H 0.18682 0.66162 0.09695 0.0
H574 H 0.18997 0.60977 0.08719 0.0
H575 H 0.15022 0.56466 0.11633 0.0
H576 H 0.14705 0.61592 0.12598 0.0
H577 H 0.12633 0.53996 0.09547 0.0
H578 H 0.22787 0.5669 0.11472 0.0
H579 H 0.27455 0.60117 0.11807 0.0
H580 H 0.29584 0.59089 0.08252 0.0
H581 H 0.24897 0.5569 0.07893 0.0
C582 C 0.18339 0.39765 0.09296 0.0
C583 C 0.19961 0.38744 0.0834 0.0
C584 C 0.17883 0.43 0.09501 0.0
C585 C 0.19024 0.45291 0.08753 0.0
C586 C 0.20716 0.44285 0.07815 0.0
C587 C 0.2117 0.41048 0.07608 0.0
C588 C 0.18442 0.48728 0.08955 0.0
C589 C 0.21026 0.50799 0.09093 0.0
C590 C 0.15368 0.49924 0.09085 0.0
C591 C 0.12522 0.47929 0.08857 0.0
C592 C 0.12021 0.46323 0.07797 0.0
C593 C 0.0935 0.44428 0.07587 0.0
C594 C 0.07149 0.44135 0.08429 0.0
C595 C 0.07612 0.45743 0.0948 0.0
C596 C 0.10282 0.47638 0.09695 0.0
C597 C 0.1781 0.64067 0.10109 0.0
C598 C 0.16666 0.64269 0.11219 0.0
C599 C 0.1801 0.6111 0.09557 0.0
C600 C 0.17052 0.5833 0.10108 0.0
C601 C 0.15769 0.58572 0.1119 0.0
C602 C 0.15602 0.61501 0.11743 0.0
C603 C 0.17576 0.55125 0.09618 0.0
C604 C 0.14982 0.53095 0.09426 0.0
C605 C 0.20634 0.53972 0.09433 0.0
C606 C 0.23475 0.5597 0.09653 0.0
C607 C 0.24239 0.57214 0.10761 0.0
C608 C 0.26889 0.59148 0.10955 0.0
C609 C 0.28809 0.5983 0.10051 0.0
C610 C 0.2809 0.58566 0.08951 0.0
C611 C 0.25439 0.56634 0.08752 0.0
H612 H 0.30857 0.61331 0.10203 0.0
H613 H 0.05082 0.42668 0.08265 0.0
H614 H 0.95955 0.82552 0.34984 0.0
H615 H 0.90553 0.81859 0.35567 0.0
H616 H 0.90677 0.72124 0.34397 0.0
H617 H 0.9601 0.72896 0.33755 0.0
H618 H 0.85534 0.74461 0.33666 0.0
H619 H 0.90854 0.74535 0.37399 0.0
H620 H 0.94437 0.76503 0.38992 0.0
H621 H 0.88974 0.85037 0.39176 0.0
H622 H 0.8538 0.8314 0.37574 0.0
H623 H 0.70604 0.71141 0.36043 0.0
H624 H 0.76075 0.71214 0.35485 0.0
H625 H 0.7682 0.81081 0.36473 0.0
H626 H 0.71434 0.80947 0.37089 0.0
H627 H 0.81616 0.78188 0.37375 0.0
H628 H 0.7676 0.78116 0.33412 0.0
H629 H 0.73316 0.75911 0.31831 0.0
H630 H 0.77959 0.66889 0.32209 0.0
H631 H 0.81493 0.69082 0.33779 0.0
C632 C 0.94834 0.80257 0.34871 0.0
C633 C 0.96385 0.77769 0.34335 0.0
C634 C 0.91752 0.7985 0.35208 0.0
C635 C 0.90199 0.76919 0.35043 0.0
C636 C 0.91805 0.74408 0.34534 0.0
C637 C 0.94856 0.74839 0.34174 0.0
C638 C 0.86843 0.7653 0.35329 0.0
C639 C 0.84698 0.75235 0.34487 0.0
C640 C 0.85711 0.7756 0.36392 0.0
C641 C 0.87862 0.78704 0.3736 0.0
C642 C 0.90428 0.76841 0.37774 0.0
C643 C 0.9246 0.77942 0.38679 0.0
C644 C 0.91937 0.80896 0.39183 0.0
C645 C 0.89377 0.82751 0.38785 0.0
C646 C 0.8734 0.81662 0.37879 0.0
C647 C 0.71922 0.73338 0.36115 0.0
C648 C 0.70603 0.76035 0.36611 0.0
C649 C 0.75053 0.73385 0.35794 0.0
C650 C 0.76885 0.76161 0.35933 0.0
C651 C 0.75486 0.789 0.36367 0.0
C652 C 0.72396 0.7883 0.36711 0.0
C653 C 0.80305 0.762 0.35701 0.0
C654 C 0.82465 0.77412 0.36557 0.0
C655 C 0.81463 0.75051 0.3466 0.0
C656 C 0.79358 0.73749 0.33717 0.0
C657 C 0.77034 0.7566 0.33159 0.0
C658 C 0.75069 0.7441 0.32264 0.0
C659 C 0.75385 0.71242 0.31927 0.0
C660 C 0.77706 0.69336 0.32474 0.0
C661 C 0.79704 0.70586 0.33361 0.0
H662 H 0.73848 0.70257 0.31242 0.0
H663 H 0.93513 0.81745 0.39884 0.0
H664 H 0.68288 0.57508 0.59277 0.0
H665 H 0.69023 0.52701 0.60417 0.0
H666 H 0.77956 0.56226 0.61847 0.0
H667 H 0.77224 0.61085 0.60679 0.0
H668 H 0.78534 0.502 0.61121 0.0
H669 H 0.71954 0.55311 0.63633 0.0
H670 H 0.67529 0.58554 0.64251 0.0
H671 H 0.60944 0.51657 0.62832 0.0
H672 H 0.65322 0.48394 0.62189 0.0
H673 H 0.7046 0.35091 0.63869 0.0
H674 H 0.7261 0.4048 0.64095 0.0
H675 H 0.7424 0.4067 0.60458 0.0
H676 H 0.72119 0.35307 0.60241 0.0
H677 H 0.69774 0.45336 0.63136 0.0
H678 H 0.79836 0.45746 0.59832 0.0
H679 H 0.84437 0.42487 0.59401 0.0
H680 H 0.84587 0.38419 0.62792 0.0
H681 H 0.80029 0.41694 0.63255 0.0
C682 C 0.70381 0.57287 0.59852 0.0
C683 C 0.72696 0.59663 0.59893 0.0
C684 C 0.70797 0.54542 0.60508 0.0
C685 C 0.73532 0.54104 0.61229 0.0
C686 C 0.7582 0.56518 0.61301 0.0
C687 C 0.75392 0.59297 0.60643 0.0
C688 C 0.74024 0.51004 0.61826 0.0
C689 C 0.76648 0.49144 0.61578 0.0
C690 C 0.71637 0.49664 0.62473 0.0
C691 C 0.68976 0.51604 0.62862 0.0
C692 C 0.69562 0.54491 0.63447 0.0
C693 C 0.67061 0.56334 0.63803 0.0
C694 C 0.63958 0.55312 0.63582 0.0
C695 C 0.6335 0.52443 0.63005 0.0
C696 C 0.65842 0.50591 0.62647 0.0
C697 C 0.71416 0.36243 0.63133 0.0
C698 C 0.71186 0.34785 0.62042 0.0
C699 C 0.7262 0.39325 0.6326 0.0
C700 C 0.73604 0.40984 0.62296 0.0
C701 C 0.73561 0.39428 0.61221 0.0
C702 C 0.72346 0.36364 0.61095 0.0
C703 C 0.74154 0.44468 0.62347 0.0
C704 C 0.71721 0.46405 0.62715 0.0
C705 C 0.76763 0.45886 0.61846 0.0
C706 C 0.79572 0.43972 0.61578 0.0
C707 C 0.80866 0.44185 0.60492 0.0
C708 C 0.83466 0.42325 0.60241 0.0
C709 C 0.84801 0.40245 0.61068 0.0
C710 C 0.83547 0.40026 0.62151 0.0
C711 C 0.80953 0.41883 0.62407 0.0
H712 H 0.86809 0.38803 0.60871 0.0
H713 H 0.62024 0.56743 0.63857 0.0
H714 H 0.72361 0.33647 0.85191 0.0
H715 H 0.77643 0.33175 0.86172 0.0
H716 H 0.8013 0.2617 0.83664 0.0
H717 H 0.74904 0.26615 0.82697 0.0
H718 H 0.82124 0.2446 0.85845 0.0
H719 H 0.82239 0.33966 0.8341 0.0
H720 H 0.80486 0.39344 0.82835 0.0
H721 H 0.83012 0.42795 0.86253 0.0
H722 H 0.84729 0.37422 0.86851 0.0
H723 H 0.97608 0.23782 0.84574 0.0
H724 H 0.92108 0.25396 0.84495 0.0
H725 H 0.93669 0.30459 0.87712 0.0
H726 H 0.99213 0.28762 0.87819 0.0
H727 H 0.89489 0.33581 0.85788 0.0
H728 H 0.90448 0.24239 0.88089 0.0
H729 H 0.92428 0.18893 0.88594 0.0
H730 H 0.87911 0.15142 0.85474 0.0
H731 H 0.85948 0.20476 0.8494 0.0
C732 C 0.74033 0.31983 0.84862 0.0
C733 C 0.7324 0.30188 0.83863 0.0
C734 C 0.77047 0.31728 0.85418 0.0
C735 C 0.79289 0.29653 0.84986 0.0
C736 C 0.78444 0.27785 0.84013 0.0
C737 C 0.75463 0.28056 0.83457 0.0
C738 C 0.82566 0.29452 0.855 0.0
C739 C 0.83726 0.26463 0.85845 0.0
C740 C 0.84642 0.32083 0.85536 0.0
C741 C 0.83581 0.35294 0.85178 0.0
C742 C 0.82394 0.35868 0.8404 0.0
C743 C 0.8141 0.38914 0.8371 0.0
C744 C 0.8163 0.41408 0.84508 0.0
C745 C 0.82838 0.40861 0.85637 0.0
C746 C 0.83816 0.37817 0.85972 0.0
C747 C 0.96807 0.25268 0.85261 0.0
C748 C 0.98858 0.26134 0.86205 0.0
C749 C 0.93659 0.26194 0.85212 0.0
C750 C 0.92481 0.28012 0.86103 0.0
C751 C 0.94544 0.29051 0.87017 0.0
C752 C 0.97713 0.28097 0.87072 0.0
C753 C 0.89042 0.28577 0.86095 0.0
C754 C 0.87861 0.31614 0.85839 0.0
C755 C 0.86933 0.25995 0.86148 0.0
C756 C 0.88061 0.22765 0.86472 0.0
C757 C 0.89893 0.22278 0.87507 0.0
C758 C 0.91011 0.19249 0.87799 0.0
C759 C 0.90299 0.1668 0.87066 0.0
C760 C 0.8846 0.17134 0.86041 0.0
C761 C 0.87339 0.2016 0.85744 0.0
H762 H 0.91169 0.14337 0.87293 0.0
H763 H 0.8087 0.43765 0.84251 0.0
H764 H 0.07123 0.5732 0.89925 0.0
H765 H 0.06433 0.52123 0.89023 0.0
H766 H 0.97455 0.55066 0.87451 0.0
H767 H 0.98136 0.60314 0.88374 0.0
H768 H 0.96964 0.49403 0.88489 0.0
H769 H 0.03499 0.53571 0.85734 0.0
H770 H 0.0796 0.56501 0.84987 0.0
H771 H 0.14463 0.4995 0.86661 0.0
H772 H 0.10047 0.47006 0.87433 0.0
H773 H 0.04183 0.33292 0.86128 0.0
H774 H 0.02178 0.38703 0.85776 0.0
H775 H 0.01396 0.40002 0.89439 0.0
H776 H 0.03429 0.34665 0.89787 0.0
H777 H 0.05496 0.43775 0.86579 0.0
H778 H 0.95895 0.45408 0.89986 0.0
H779 H 0.91321 0.42447 0.90627 0.0
H780 H 0.90608 0.3737 0.8741 0.0
H781 H 0.95116 0.40355 0.86733 0.0
C782 C 0.05022 0.56879 0.89373 0.0
C783 C 0.0268 0.59218 0.89222 0.0
C784 C 0.04636 0.5391 0.8885 0.0
C785 C 0.01903 0.532 0.88158 0.0
C786 C 0.9959 0.55562 0.87977 0.0
C787 C 0.99989 0.58562 0.88497 0.0
C788 C 0.01416 0.49904 0.87715 0.0
C789 C 0.98804 0.48177 0.88057 0.0
C790 C 0.03756 0.48321 0.8711 0.0
C791 C 0.06433 0.50068 0.86643 0.0
C792 C 0.0588 0.52763 0.85948 0.0
C793 C 0.08402 0.54427 0.8552 0.0
C794 C 0.11493 0.53413 0.85777 0.0
C795 C 0.12067 0.50731 0.86462 0.0
C796 C 0.09554 0.49059 0.86893 0.0
C797 C 0.03455 0.34697 0.86849 0.0
C798 C 0.03957 0.33577 0.87985 0.0
C799 C 0.02335 0.37792 0.86649 0.0
C800 C 0.01638 0.39767 0.87581 0.0
C801 C 0.01876 0.38524 0.88704 0.0
C802 C 0.03041 0.3547 0.88904 0.0
C803 C 0.0116 0.43243 0.87428 0.0
C804 C 0.03601 0.45009 0.86978 0.0
C805 C 0.98637 0.4486 0.87916 0.0
C806 C 0.95862 0.43109 0.8831 0.0
C807 C 0.94744 0.43688 0.89408 0.0
C808 C 0.92161 0.42 0.89779 0.0
C809 C 0.90672 0.39724 0.89059 0.0
C810 C 0.91758 0.39136 0.87965 0.0
C811 C 0.94329 0.40826 0.87588 0.0
H812 H 0.88677 0.38414 0.89348 0.0
H813 H 0.13442 0.54705 0.85445 0.0
H814 H 0.79273 0.75303 0.15183 0.0
H815 H 0.84374 0.74657 0.14311 0.0
H816 H 0.87623 0.83427 0.15891 0.0
H817 H 0.82568 0.84043 0.1678 0.0
H818 H 0.89066 0.82435 0.13449 0.0
H819 H 0.89728 0.77252 0.17215 0.0
H820 H 0.87936 0.7341 0.18634 0.0
H821 H 0.89289 0.65779 0.16253 0.0
H822 H 0.91048 0.69589 0.14813 0.0
H823 H 0.05328 0.82734 0.13211 0.0
H824 H 0.99979 0.82848 0.13882 0.0
H825 H 0.99226 0.72723 0.13346 0.0
H826 H 0.0468 0.72597 0.12771 0.0
H827 H 0.9611 0.73886 0.15008 0.0
H828 H 0.95953 0.78603 0.11336 0.0
H829 H 0.97502 0.82141 0.0978 0.0
H830 H 0.94917 0.90269 0.11753 0.0
H831 H 0.93394 0.86781 0.1333 0.0
C832 C 0.81067 0.77109 0.15327 0.0
C833 C 0.8055 0.79717 0.16048 0.0
C834 C 0.83971 0.76735 0.14834 0.0
C835 C 0.86367 0.78992 0.15042 0.0
C836 C 0.85797 0.81667 0.1572 0.0
C837 C 0.82922 0.82011 0.16229 0.0
C838 C 0.89542 0.78493 0.14616 0.0
C839 C 0.90631 0.80595 0.13797 0.0
C840 C 0.91511 0.75997 0.15033 0.0
C841 C 0.90474 0.73708 0.15901 0.0
C842 C 0.89608 0.74759 0.16989 0.0
C843 C 0.88606 0.72587 0.17798 0.0
C844 C 0.88483 0.69354 0.17531 0.0
C845 C 0.89374 0.68286 0.16457 0.0
C846 C 0.90376 0.7045 0.15644 0.0
C847 C 0.0403 0.80533 0.13264 0.0
C848 C 0.05383 0.77659 0.12943 0.0
C849 C 0.00959 0.80598 0.13629 0.0
C850 C 0.99132 0.77813 0.13621 0.0
C851 C 0.00557 0.74913 0.1335 0.0
C852 C 0.03672 0.74836 0.13024 0.0
C853 C 0.95739 0.77945 0.1388 0.0
C854 C 0.94575 0.7574 0.14654 0.0
C855 C 0.93677 0.80314 0.13403 0.0
C856 C 0.94582 0.82429 0.12456 0.0
C857 C 0.95734 0.81146 0.11442 0.0
C858 C 0.96605 0.83142 0.10556 0.0
C859 C 0.96314 0.86428 0.10668 0.0
C860 C 0.95144 0.87723 0.11667 0.0
C861 C 0.94272 0.85737 0.12558 0.0
H862 H 0.9699 0.8797 0.09981 0.0
H863 H 0.87711 0.67675 0.18159 0.0
H864 H 0.53518 0.3932 0.43069 0.0
H865 H 0.53972 0.44793 0.42411 0.0
H866 H 0.59844 0.4169 0.39719 0.0
H867 H 0.59435 0.36191 0.40387 0.0
H868 H 0.62296 0.46946 0.40889 0.0
H869 H 0.52285 0.4377 0.39084 0.0
H870 H 0.46889 0.41612 0.39037 0.0
H871 H 0.44163 0.48969 0.41344 0.0
H872 H 0.49559 0.51146 0.41417 0.0
H873 H 0.61331 0.60004 0.37055 0.0
H874 H 0.6106 0.54864 0.38016 0.0
H875 H 0.55599 0.59073 0.40641 0.0
H876 H 0.55858 0.64244 0.39665 0.0
H877 H 0.52961 0.5348 0.39698 0.0
H878 H 0.62778 0.5718 0.41233 0.0
H879 H 0.68153 0.59334 0.41299 0.0
H880 H 0.71332 0.51112 0.39509 0.0
H881 H 0.65955 0.48912 0.39419 0.0
C882 C 0.54903 0.39798 0.42335 0.0
C883 C 0.56447 0.37314 0.41782 0.0
C884 C 0.55149 0.4293 0.41957 0.0
C885 C 0.56938 0.43662 0.41014 0.0
C886 C 0.58454 0.41186 0.4045 0.0
C887 C 0.58193 0.3804 0.40824 0.0
C888 C 0.57244 0.47012 0.40625 0.0
C889 C 0.60262 0.48365 0.40612 0.0
C890 C 0.54579 0.48904 0.4031 0.0
C891 C 0.51334 0.476 0.40266 0.0
C892 C 0.50542 0.44911 0.39589 0.0
C893 C 0.47483 0.43688 0.39556 0.0
C894 C 0.45187 0.45147 0.40189 0.0
C895 C 0.45945 0.47838 0.40855 0.0
C896 C 0.49003 0.49069 0.40892 0.0
C897 C 0.60119 0.5984 0.37848 0.0
C898 C 0.58672 0.62524 0.38303 0.0
C899 C 0.59965 0.56906 0.38396 0.0
C900 C 0.58327 0.56583 0.39405 0.0
C901 C 0.56891 0.59272 0.39867 0.0
C902 C 0.57078 0.6223 0.39322 0.0
C903 C 0.5802 0.53396 0.39934 0.0
C904 C 0.55001 0.52074 0.39979 0.0
C905 C 0.60691 0.51539 0.40278 0.0
C906 C 0.63939 0.52875 0.40317 0.0
C907 C 0.64608 0.55831 0.40845 0.0
C908 C 0.67663 0.57064 0.40888 0.0
C909 C 0.70084 0.55362 0.40408 0.0
C910 C 0.69453 0.52426 0.39883 0.0
C911 C 0.664 0.51181 0.39838 0.0
H912 H 0.7245 0.56319 0.40442 0.0
H913 H 0.42819 0.44197 0.40162 0.0
H914 H 0.03228 0.28775 0.64279 0.0
H915 H 0.97728 0.28921 0.63547 0.0
H916 H 0.95968 0.36704 0.65846 0.0
H917 H 0.0147 0.36529 0.66595 0.0
H918 H 0.91639 0.32536 0.66028 0.0
H919 H 0.95754 0.37634 0.62819 0.0
H920 H 0.99283 0.38559 0.61243 0.0
H921 H 0.96282 0.29796 0.59636 0.0
H922 H 0.92767 0.28792 0.61211 0.0
H923 H 0.75671 0.31685 0.63859 0.0
H924 H 0.80894 0.34187 0.64078 0.0
H925 H 0.85001 0.25925 0.62558 0.0
H926 H 0.79794 0.23472 0.6232 0.0
H927 H 0.87867 0.31644 0.61909 0.0
H928 H 0.84637 0.26275 0.65398 0.0
H929 H 0.81033 0.2551 0.66964 0.0
H930 H 0.82348 0.35224 0.68009 0.0
H931 H 0.85931 0.36052 0.66437 0.0
C932 C 0.01688 0.30562 0.64612 0.0
C933 C 0.02789 0.32636 0.65498 0.0
C934 C 0.98537 0.30652 0.64189 0.0
C935 C 0.96421 0.32849 0.6463 0.0
C936 C 0.97543 0.34985 0.65491 0.0
C937 C 0.00689 0.34879 0.65921 0.0
C938 C 0.92997 0.32712 0.64266 0.0
C939 C 0.90819 0.32424 0.65125 0.0
C940 C 0.91895 0.32544 0.63089 0.0
C941 C 0.94011 0.33128 0.62139 0.0
C942 C 0.95864 0.35891 0.62135 0.0
C943 C 0.97859 0.36432 0.6124 0.0
C944 C 0.98011 0.34235 0.60341 0.0
C945 C 0.96163 0.31495 0.60333 0.0
C946 C 0.94164 0.30941 0.61226 0.0
C947 C 0.77671 0.30475 0.63529 0.0
C948 C 0.7733 0.27411 0.63061 0.0
C949 C 0.80658 0.31883 0.63666 0.0
C950 C 0.83342 0.30232 0.6334 0.0
C951 C 0.82967 0.27249 0.62811 0.0
C952 C 0.79995 0.25841 0.62682 0.0
C953 C 0.86573 0.31381 0.63671 0.0
C954 C 0.88704 0.31845 0.62808 0.0
C955 C 0.87635 0.31746 0.64843 0.0
C956 C 0.85521 0.31233 0.65795 0.0
C957 C 0.84141 0.2825 0.65958 0.0
C958 C 0.82105 0.27805 0.66846 0.0
C959 C 0.81455 0.30319 0.67584 0.0
C960 C 0.82849 0.33281 0.67436 0.0
C961 C 0.84883 0.33739 0.66547 0.0
H962 H 0.79877 0.29971 0.68271 0.0
H963 H 0.99557 0.34659 0.59649 0.0
H964 H 0.31397 0.31743 0.65402 0.0
H965 H 0.36675 0.31323 0.64669 0.0
H966 H 0.37644 0.21919 0.66109 0.0
H967 H 0.32424 0.22392 0.66873 0.0
H968 H 0.42488 0.25167 0.66775 0.0
H969 H 0.37114 0.23445 0.63101 0.0
H970 H 0.33306 0.24513 0.61462 0.0
H971 H 0.37825 0.33418 0.6087 0.0
H972 H 0.41636 0.32424 0.62516 0.0
H973 H 0.57327 0.22391 0.64036 0.0
H974 H 0.52059 0.22104 0.64787 0.0
H975 H 0.50447 0.31904 0.63874 0.0
H976 H 0.55678 0.32179 0.63116 0.0
H977 H 0.4593 0.28 0.62904 0.0
H978 H 0.4878 0.30074 0.67324 0.0
H979 H 0.51681 0.28868 0.69178 0.0
H980 H 0.51781 0.18977 0.68289 0.0
H981 H 0.48798 0.20126 0.66444 0.0
C982 C 0.32712 0.29559 0.65532 0.0
C983 C 0.31517 0.27102 0.66193 0.0
C984 C 0.35728 0.29315 0.65114 0.0
C985 C 0.37572 0.26583 0.65331 0.0
C986 C 0.36286 0.24057 0.65935 0.0
C987 C 0.33299 0.2432 0.66366 0.0
C988 C 0.40938 0.26475 0.65037 0.0
C989 C 0.43224 0.25733 0.65919 0.0
C990 C 0.41932 0.27264 0.63931 0.0
C991 C 0.39646 0.2787 0.62939 0.0
C992 C 0.37282 0.25642 0.62627 0.0
C993 C 0.35125 0.26233 0.61696 0.0
C994 C 0.35319 0.29035 0.61064 0.0
C995 C 0.37676 0.31249 0.61361 0.0
C996 C 0.39838 0.30672 0.62292 0.0
C997 C 0.5589 0.2451 0.64038 0.0
C998 C 0.56918 0.27309 0.63523 0.0
C999 C 0.52874 0.24348 0.64467 0.0
C1000 C 0.5085 0.2699 0.64396 0.0
C1001 C 0.51956 0.29832 0.63939 0.0
C1002 C 0.54948 0.29987 0.63505 0.0
C1003 C 0.47464 0.26715 0.64645 0.0
C1004 C 0.45176 0.27401 0.63753 0.0
C1005 C 0.46454 0.25832 0.65736 0.0
C1006 C 0.48657 0.25195 0.66738 0.0
C1007 C 0.49481 0.27653 0.67516 0.0
C1008 C 0.51104 0.26975 0.6857 0.0
C1009 C 0.51927 0.2385 0.68848 0.0
C1010 C 0.51153 0.21398 0.68069 0.0
C1011 C 0.49498 0.22061 0.6702 0.0
H1012 H 0.53133 0.23323 0.69672 0.0
H1013 H 0.33647 0.29487 0.60343 0.0
H1014 H 0.5182 0.85062 0.14121 0.0
H1015 H 0.46255 0.85064 0.13396 0.0
H1016 H 0.44926 0.76002 0.15013 0.0
H1017 H 0.5044 0.76031 0.15755 0.0
H1018 H 0.41897 0.76574 0.12736 0.0
H1019 H 0.43132 0.8212 0.1644 0.0
H1020 H 0.4535 0.86321 0.1773 0.0
H1021 H 0.4151 0.93444 0.15411 0.0
H1022 H 0.39311 0.89276 0.14098 0.0
H1023 H 0.26367 0.76707 0.15268 0.0
H1024 H 0.31805 0.78598 0.15316 0.0
H1025 H 0.30793 0.80582 0.11667 0.0
H1026 H 0.25301 0.78742 0.11619 0.0
H1027 H 0.35002 0.84293 0.14618 0.0
H1028 H 0.37667 0.77014 0.1066 0.0
H1029 H 0.35444 0.72576 0.0948 0.0
H1030 H 0.31442 0.68621 0.1247 0.0
H1031 H 0.33678 0.73008 0.13668 0.0
C1032 C 0.50341 0.83053 0.143 0.0
C1033 C 0.51531 0.80549 0.14993 0.0
C1034 C 0.47176 0.83057 0.13889 0.0
C1035 C 0.45188 0.80532 0.14152 0.0
C1036 C 0.46427 0.77961 0.14796 0.0
C1037 C 0.49564 0.77984 0.15222 0.0
C1038 C 0.41756 0.80655 0.13854 0.0
C1039 C 0.40393 0.78301 0.13128 0.0
C1040 C 0.39795 0.82893 0.14372 0.0
C1041 C 0.41096 0.85391 0.15165 0.0
C1042 C 0.42787 0.84582 0.16201 0.0
C1043 C 0.44036 0.86956 0.16937 0.0
C1044 C 0.43581 0.90147 0.16651 0.0
C1045 C 0.41868 0.90971 0.1563 0.0
C1046 C 0.4062 0.88604 0.1489 0.0
C1047 C 0.27279 0.77623 0.14482 0.0
C1048 C 0.25429 0.77566 0.13439 0.0
C1049 C 0.30377 0.78718 0.14512 0.0
C1050 C 0.317 0.7971 0.13495 0.0
C1051 C 0.29806 0.79827 0.12461 0.0
C1052 C 0.26675 0.78784 0.12436 0.0
C1053 C 0.35147 0.80203 0.13505 0.0
C1054 C 0.36512 0.82651 0.14186 0.0
C1055 C 0.37111 0.78036 0.12953 0.0
C1056 C 0.35802 0.75358 0.12248 0.0
C1057 C 0.36317 0.75191 0.11064 0.0
C1058 C 0.35057 0.72685 0.10393 0.0
C1059 C 0.33292 0.70325 0.10898 0.0
C1060 C 0.32797 0.70457 0.12078 0.0
C1061 C 0.34058 0.72954 0.12753 0.0
H1062 H 0.32315 0.68389 0.10377 0.0
H1063 H 0.44548 0.91982 0.17222 0.0
H1064 H 0.4287 0.24461 0.83073 0.0
H1065 H 0.37583 0.23851 0.8376 0.0
H1066 H 0.39513 0.31281 0.86269 0.0
H1067 H 0.44836 0.31867 0.85593 0.0
H1068 H 0.36378 0.267 0.87209 0.0
H1069 H 0.35133 0.32553 0.83698 0.0
H1070 H 0.35466 0.33838 0.81637 0.0
H1071 H 0.3009 0.25513 0.80691 0.0
H1072 H 0.29778 0.24141 0.82747 0.0
H1073 H 0.20742 0.30876 0.88315 0.0
H1074 H 0.26114 0.30845 0.87674 0.0
H1075 H 0.23879 0.22717 0.85512 0.0
H1076 H 0.18523 0.22683 0.86174 0.0
H1077 H 0.27129 0.27212 0.84401 0.0
H1078 H 0.28146 0.21723 0.87975 0.0
H1079 H 0.27458 0.20879 0.90047 0.0
H1080 H 0.3301 0.29165 0.90884 0.0
H1081 H 0.3369 0.30091 0.88814 0.0
C1082 C 0.42167 0.25963 0.83772 0.0
C1083 C 0.44256 0.28232 0.84273 0.0
C1084 C 0.39141 0.25618 0.84162 0.0
C1085 C 0.38122 0.27564 0.85051 0.0
C1086 C 0.40241 0.2976 0.8558 0.0
C1087 C 0.43284 0.30088 0.85196 0.0
C1088 C 0.34839 0.27328 0.85419 0.0
C1089 C 0.34358 0.26875 0.86596 0.0
C1090 C 0.32192 0.27464 0.84617 0.0
C1091 C 0.3248 0.28215 0.83378 0.0
C1092 C 0.34064 0.30968 0.83051 0.0
C1093 C 0.3424 0.31718 0.81883 0.0
C1094 C 0.32813 0.29751 0.81034 0.0
C1095 C 0.31207 0.27027 0.8135 0.0
C1096 C 0.31035 0.2626 0.82516 0.0
C1097 C 0.2139 0.29086 0.877 0.0
C1098 C 0.19188 0.26815 0.87278 0.0
C1099 C 0.24464 0.29063 0.87339 0.0
C1100 C 0.25404 0.26756 0.86556 0.0
C1101 C 0.23199 0.24519 0.86117 0.0
C1102 C 0.20126 0.24529 0.86483 0.0
C1103 C 0.2868 0.26721 0.86186 0.0
C1104 C 0.29159 0.2708 0.8501 0.0
C1105 C 0.31312 0.26563 0.8699 0.0
C1106 C 0.30946 0.25992 0.88237 0.0
C1107 C 0.29202 0.23379 0.886 0.0
C1108 C 0.28815 0.22884 0.89774 0.0
C1109 C 0.30183 0.24971 0.90596 0.0
C1110 C 0.31949 0.27552 0.90246 0.0
C1111 C 0.32338 0.28061 0.89072 0.0
H1112 H 0.29878 0.24585 0.91505 0.0
H1113 H 0.32942 0.30342 0.8013 0.0
H1114 H 0.24848 0.85513 0.34644 0.0
H1115 H 0.30241 0.85449 0.35553 0.0
H1116 H 0.3163 0.76061 0.34183 0.0
H1117 H 0.26295 0.76152 0.33264 0.0
H1118 H 0.34157 0.76819 0.36482 0.0
H1119 H 0.33951 0.82186 0.32732 0.0
H1120 H 0.32214 0.86433 0.31381 0.0
H1121 H 0.35905 0.93463 0.33783 0.0
H1122 H 0.37624 0.89252 0.35155 0.0
H1123 H 0.49912 0.7574 0.34228 0.0
H1124 H 0.44663 0.78115 0.34107 0.0
H1125 H 0.45449 0.80058 0.37766 0.0
H1126 H 0.50754 0.77701 0.37888 0.0
H1127 H 0.41808 0.84008 0.34746 0.0
H1128 H 0.38177 0.77343 0.38668 0.0
H1129 H 0.39959 0.72916 0.39935 0.0
H1130 H 0.44001 0.68285 0.3707 0.0
H1131 H 0.42206 0.72664 0.35786 0.0
C1132 C 0.26299 0.83422 0.34559 0.0
C1133 C 0.2518 0.80834 0.33889 0.0
C1134 C 0.29369 0.83388 0.35075 0.0
C1135 C 0.31336 0.8075 0.34934 0.0
C1136 C 0.3015 0.78111 0.34308 0.0
C1137 C 0.27112 0.78165 0.33782 0.0
C1138 C 0.34711 0.80786 0.35345 0.0
C1139 C 0.35821 0.78436 0.36122 0.0
C1140 C 0.36891 0.82893 0.34878 0.0
C1141 C 0.35875 0.85412 0.34051 0.0
C1142 C 0.34367 0.84639 0.32975 0.0
C1143 C 0.33391 0.87038 0.32205 0.0
C1144 C 0.33939 0.90217 0.32498 0.0
C1145 C 0.35474 0.91001 0.33559 0.0
C1146 C 0.36449 0.8861 0.34333 0.0
C1147 C 0.48997 0.76742 0.35002 0.0
C1148 C 0.50723 0.76519 0.36068 0.0
C1149 C 0.46008 0.78119 0.3493 0.0
C1150 C 0.44659 0.79244 0.35928 0.0
C1151 C 0.46452 0.79203 0.36986 0.0
C1152 C 0.49478 0.77864 0.37054 0.0
C1153 C 0.41247 0.80008 0.35865 0.0
C1154 C 0.40131 0.82486 0.35147 0.0
C1155 C 0.39059 0.78016 0.36383 0.0
C1156 C 0.40091 0.75342 0.37138 0.0
C1157 C 0.39438 0.75373 0.3831 0.0
C1158 C 0.4045 0.72874 0.39031 0.0
C1159 C 0.42102 0.70327 0.38584 0.0
C1160 C 0.42731 0.70264 0.37415 0.0
C1161 C 0.41719 0.72754 0.36691 0.0
H1162 H 0.42888 0.68398 0.39144 0.0
H1163 H 0.33183 0.92071 0.319 0.0
H1164 H 0.7211 0.90306 0.57004 0.0
H1165 H 0.71574 0.9598 0.57403 0.0
H1166 H 0.66156 0.93833 0.60329 0.0
H1167 H 0.66666 0.88144 0.59929 0.0
H1168 H 0.63485 0.98688 0.5893 0.0
H1169 H 0.73619 0.95935 0.60768 0.0
H1170 H 0.79007 0.93749 0.60833 0.0
H1171 H 0.81536 0.0039 0.58245 0.0
H1172 H 0.76146 0.02587 0.58154 0.0
H1173 H 0.64929 0.12021 0.62589 0.0
H1174 H 0.64944 0.06879 0.61614 0.0
H1175 H 0.70115 0.10928 0.58887 0.0
H1176 H 0.70069 0.16129 0.59865 0.0
H1177 H 0.72882 0.05393 0.59875 0.0
H1178 H 0.63034 0.08641 0.58203 0.0
H1179 H 0.57704 0.1095 0.58139 0.0
H1180 H 0.54624 0.03527 0.60332 0.0
H1181 H 0.59958 0.01205 0.60431 0.0
C1182 C 0.70797 0.91042 0.57731 0.0
C1183 C 0.69434 0.88774 0.58436 0.0
C1184 C 0.70503 0.94285 0.5796 0.0
C1185 C 0.68829 0.95333 0.58897 0.0
C1186 C 0.67453 0.93078 0.596 0.0
C1187 C 0.67772 0.89829 0.59378 0.0
C1188 C 0.68548 0.98778 0.59153 0.0
C1189 C 0.65536 1.00151 0.59145 0.0
C1190 C 0.71231 0.00716 0.5939 0.0
C1191 C 0.7447 0.99398 0.59444 0.0
C1192 C 0.75316 0.96909 0.60205 0.0
C1193 C 0.78372 0.95672 0.60248 0.0
C1194 C 0.8061 0.96922 0.59541 0.0
C1195 C 0.79798 0.99419 0.58791 0.0
C1196 C 0.76744 0.00662 0.58744 0.0
C1197 C 0.6601 0.1183 0.61768 0.0
C1198 C 0.67477 0.14467 0.61296 0.0
C1199 C 0.66014 0.08894 0.61211 0.0
C1200 C 0.67524 0.08518 0.60177 0.0
C1201 C 0.68931 0.1117 0.59684 0.0
C1202 C 0.68884 0.14137 0.60236 0.0
C1203 C 0.67816 0.0529 0.59676 0.0
C1204 C 0.7083 0.03949 0.5964 0.0
C1205 C 0.65136 0.03391 0.59392 0.0
C1206 C 0.61909 0.04759 0.59331 0.0
C1207 C 0.6123 0.07514 0.5868 0.0
C1208 C 0.58205 0.08824 0.58636 0.0
C1209 C 0.55827 0.07388 0.59231 0.0
C1210 C 0.56469 0.04636 0.59871 0.0
C1211 C 0.59494 0.0332 0.59921 0.0
H1212 H 0.53485 0.08405 0.59194 0.0
H1213 H 0.82975 0.95962 0.59576 0.0
H1214 H 0.27636 0.10475 0.10593 0.0
H1215 H 0.2821 0.0538 0.11616 0.0
H1216 H 0.18478 0.03202 0.10667 0.0
H1217 H 0.17912 0.08272 0.09667 0.0
H1218 H 0.20088 0.00671 0.12719 0.0
H1219 H 0.24429 0.01199 0.08918 0.0
H1220 H 0.28051 0.03304 0.07522 0.0
H1221 H 0.35993 0.0059 0.09764 0.0
H1222 H 0.32408 0.98507 0.1118 0.0
H1223 H 0.20058 0.85306 0.09706 0.0
H1224 H 0.22399 0.90555 0.09904 0.0
H1225 H 0.23489 0.89343 0.13599 0.0
H1226 H 0.21105 0.84033 0.13398 0.0
H1227 H 0.27474 0.93697 0.10733 0.0
H1228 H 0.21001 0.96401 0.14766 0.0
H1229 H 0.16763 0.94218 0.15897 0.0
H1230 H 0.12229 0.90313 0.12804 0.0
H1231 H 0.16419 0.92507 0.11656 0.0
C1232 C 0.25599 0.08952 0.10647 0.0
C1233 C 0.22729 0.09748 0.10058 0.0
C1234 C 0.2593 0.06037 0.11223 0.0
C1235 C 0.23398 0.03883 0.11206 0.0
C1236 C 0.20464 0.04816 0.10698 0.0
C1237 C 0.20138 0.07712 0.10125 0.0
C1238 C 0.2385 0.0051 0.11555 0.0
C1239 C 0.21761 0.99158 0.12308 0.0
C1240 C 0.26006 0.98513 0.11012 0.0
C1241 C 0.28157 0.99739 0.1016 0.0
C1242 C 0.26948 0.0107 0.09115 0.0
C1243 C 0.28993 0.02258 0.0832 0.0
C1244 C 0.32251 0.0209 0.08556 0.0
C1245 C 0.33469 0.00726 0.09584 0.0
C1246 C 0.31433 0.99544 0.10384 0.0
C1247 C 0.209 0.86111 0.10558 0.0
C1248 C 0.20374 0.84287 0.11538 0.0
C1249 C 0.22249 0.89114 0.10671 0.0
C1250 C 0.23069 0.90376 0.11768 0.0
C1251 C 0.22841 0.8843 0.12744 0.0
C1252 C 0.21502 0.85392 0.12629 0.0
C1253 C 0.23649 0.93851 0.11868 0.0
C1254 C 0.2592 0.95224 0.11194 0.0
C1255 C 0.21595 0.95858 0.12455 0.0
C1256 C 0.19039 0.94579 0.13131 0.0
C1257 C 0.19094 0.95081 0.1433 0.0
C1258 C 0.16701 0.93844 0.14972 0.0
C1259 C 0.14235 0.92117 0.14423 0.0
C1260 C 0.14145 0.91641 0.13229 0.0
C1261 C 0.16527 0.92881 0.12582 0.0
H1262 H 0.12389 0.91155 0.14923 0.0
H1263 H 0.33831 0.03009 0.07939 0.0
H1264 H 0.58636 0.06625 0.40195 0.0
H1265 H 0.58055 0.01371 0.39325 0.0
H1266 H 0.4899 0.04039 0.37755 0.0
H1267 H 0.49568 0.09349 0.38641 0.0
H1268 H 0.48729 0.98286 0.38829 0.0
H1269 H 0.5492 0.02804 0.36029 0.0
H1270 H 0.5921 0.05937 0.35257 0.0
H1271 H 0.66059 0.99627 0.36869 0.0
H1272 H 0.61815 0.96481 0.37666 0.0
H1273 H 0.55843 0.82517 0.36218 0.0
H1274 H 0.53805 0.8795 0.35973 0.0
H1275 H 0.538 0.89 0.39673 0.0
H1276 H 0.55897 0.83637 0.39919 0.0
H1277 H 0.5734 0.93084 0.36819 0.0
H1278 H 0.47923 0.94045 0.40312 0.0
H1279 H 0.43501 0.9084 0.40948 0.0
H1280 H 0.42682 0.86174 0.37648 0.0
H1281 H 0.47059 0.89384 0.36984 0.0
C1282 C 0.56537 0.0611 0.39651 0.0
C1283 C 0.54148 0.08394 0.39485 0.0
C1284 C 0.56211 0.03108 0.39149 0.0
C1285 C 0.53488 0.02306 0.38466 0.0
C1286 C 0.51116 0.04605 0.38275 0.0
C1287 C 0.51457 0.0764 0.38773 0.0
C1288 C 0.53107 0.99 0.38021 0.0
C1289 C 0.50586 0.97155 0.38375 0.0
C1290 C 0.55468 0.97536 0.3739 0.0
C1291 C 0.58042 0.99409 0.3691 0.0
C1292 C 0.57341 0.02093 0.36225 0.0
C1293 C 0.59766 0.03872 0.35782 0.0
C1294 C 0.62905 0.02983 0.36014 0.0
C1295 C 0.63626 1.00311 0.36689 0.0
C1296 C 0.6121 0.98525 0.37134 0.0
C1297 C 0.553 0.83876 0.36976 0.0
C1298 C 0.56032 0.8267 0.38088 0.0
C1299 C 0.54157 0.86982 0.36835 0.0
C1300 C 0.53655 0.88884 0.37804 0.0
C1301 C 0.54141 0.87573 0.38912 0.0
C1302 C 0.55341 0.84507 0.39053 0.0
C1303 C 0.53076 0.92351 0.37693 0.0
C1304 C 0.55429 0.94227 0.3724 0.0
C1305 C 0.50529 0.93841 0.3821 0.0
C1306 C 0.47837 0.91956 0.38599 0.0
C1307 C 0.46785 0.92357 0.39717 0.0
C1308 C 0.44288 0.90532 0.40084 0.0
C1309 C 0.42815 0.88301 0.39339 0.0
C1310 C 0.43829 0.87896 0.38225 0.0
C1311 C 0.46322 0.89717 0.37854 0.0
H1312 H 0.40887 0.86888 0.39626 0.0
H1313 H 0.64779 0.04363 0.35671 0.0
H1314 H 0.07666 0.86801 0.90231 0.0
H1315 H 0.08119 0.92307 0.89595 0.0
H1316 H 0.03176 0.9547 0.9253 0.0
H1317 H 0.0262 0.89975 0.93147 0.0
H1318 H 0.01302 0.98814 0.90678 0.0
H1319 H 0.11244 0.95916 0.92526 0.0
H1320 H 0.16013 0.92651 0.92885 0.0
H1321 H 0.18641 0.94329 0.89421 0.0
H1322 H 0.13861 0.97568 0.89036 0.0
H1323 H 0.05753 0.15066 0.89932 0.0
H1324 H 0.05411 0.09845 0.90863 0.0
H1325 H 0.09679 0.05494 0.87968 0.0
H1326 H 0.1006 0.10665 0.87054 0.0
H1327 H 0.11957 0.02941 0.89994 0.0
H1328 H 0.01792 0.05514 0.88122 0.0
H1329 H 0.9706 0.08845 0.87778 0.0
H1330 H 0.94913 0.07845 0.9133 0.0
H1331 H 0.99661 0.04542 0.91698 0.0
C1332 C 0.06627 0.88662 0.9073 0.0
C1333 C 0.05137 0.87941 0.91748 0.0
C1334 C 0.06918 0.91817 0.90372 0.0
C1335 C 0.0574 0.9432 0.91027 0.0
C1336 C 0.0413 0.93592 0.92014 0.0
C1337 C 0.03835 0.90445 0.92371 0.0
C1338 C 0.06252 0.97694 0.90701 0.0
C1339 C 0.03639 0.99724 0.90545 0.0
C1340 C 0.09295 0.98896 0.90519 0.0
C1341 C 0.12179 0.96961 0.90749 0.0
C1342 C 0.12827 0.9557 0.91838 0.0
C1343 C 0.15534 0.93726 0.92046 0.0
C1344 C 0.17625 0.93277 0.91175 0.0
C1345 C 0.17017 0.94676 0.90094 0.0
C1346 C 0.14311 0.96518 0.89881 0.0
C1347 C 0.06686 0.13003 0.89512 0.0
C1348 C 0.07943 0.13273 0.88424 0.0
C1349 C 0.06461 0.10018 0.90037 0.0
C1350 C 0.07492 0.07267 0.89479 0.0
C1351 C 0.08868 0.07571 0.88416 0.0
C1352 C 0.09072 0.10531 0.87892 0.0
C1353 C 0.07006 0.04037 0.89954 0.0
C1354 C 0.09625 0.02033 0.90138 0.0
C1355 C 0.03973 0.02866 0.90165 0.0
C1356 C 0.01098 0.04812 0.89941 0.0
C1357 C 0.00321 0.06023 0.88831 0.0
C1358 C 0.97636 0.07903 0.88632 0.0
C1359 C 0.95692 0.08564 0.89532 0.0
C1360 C 0.96424 0.07336 0.90634 0.0
C1361 C 0.99111 0.05459 0.90838 0.0
H1362 H 0.93615 0.10023 0.89376 0.0
H1363 H 0.19719 0.91849 0.91339 0.0
H1364 H 0.12993 0.22526 0.00165 0.0
H1365 H 0.1156 0.20709 0.98202 0.0
H1366 H 0.19792 0.14711 0.98287 0.0
H1367 H 0.21249 0.16539 0.00261 0.0
H1368 H 0.19057 0.18432 0.96303 0.0
H1369 H 0.12943 0.11165 0.9833 0.0
H1370 H 0.09321 0.09436 0.99787 0.0
H1371 H 0.01963 0.15206 0.98198 0.0
H1372 H 0.05554 0.1701 0.96742 0.0
H1373 H 0.13378 0.1659 0.90562 0.0
H1374 H 0.14696 0.14134 0.9245 0.0
H1375 H 0.07597 0.19872 0.93961 0.0
H1376 H 0.06295 0.22293 0.92091 0.0
H1377 H 0.08399 0.14343 0.95122 0.0
H1378 H 0.14969 0.22826 0.93628 0.0
H1379 H 0.1849 0.25 0.92209 0.0
H1380 H 0.24893 0.17234 0.92841 0.0
H1381 H 0.2138 0.14992 0.94253 0.0
C1382 C 0.14501 0.20825 0.99766 0.0
C1383 C 0.17239 0.19684 0.00363 0.0
C1384 C 0.13663 0.19761 0.98649 0.0
C1385 C 0.15547 0.17541 0.98106 0.0
C1386 C 0.18293 0.16402 0.98696 0.0
C1387 C 0.19117 0.17443 0.99821 0.0
C1388 C 0.14713 0.16593 0.96894 0.0
C1389 C 0.16767 0.17439 0.96045 0.0
C1390 C 0.11713 0.15327 0.96559 0.0
C1391 C 0.09526 0.1423 0.97427 0.0
C1392 C 0.10558 0.12081 0.98295 0.0
C1393 C 0.08509 0.11085 0.9912 0.0
C1394 C 0.05414 0.12211 0.99085 0.0
C1395 C 0.04361 0.14332 0.98223 0.0
C1396 C 0.06401 0.15338 0.97396 0.0
C1397 C 0.12005 0.17198 0.91289 0.0
C1398 C 0.09755 0.19634 0.91193 0.0
C1399 C 0.12768 0.15813 0.92367 0.0
C1400 C 0.11291 0.16874 0.93351 0.0
C1401 C 0.08775 0.1902 0.93217 0.0
C1402 C 0.08031 0.20407 0.92148 0.0
C1403 C 0.12692 0.16305 0.94534 0.0
C1404 C 0.10743 0.15195 0.95381 0.0
C1405 C 0.15776 0.17364 0.9487 0.0
C1406 C 0.17899 0.18723 0.94032 0.0
C1407 C 0.1712 0.21576 0.93458 0.0
C1408 C 0.19113 0.22819 0.92656 0.0
C1409 C 0.21909 0.21251 0.92432 0.0
C1410 C 0.22722 0.1844 0.93013 0.0
C1411 C 0.20731 0.17181 0.93813 0.0
H1412 H 0.2345 0.22218 0.91812 0.0
H1413 H 0.03832 0.11439 0.99726 0.0
H1414 H 0.12544 0.77593 0.24967 0.0
H1415 H 0.12493 0.77411 0.22862 0.0
H1416 H 0.03544 0.82251 0.22633 0.0
H1417 H 0.03613 0.82536 0.2474 0.0
H1418 H 0.03561 0.76894 0.21268 0.0
H1419 H 0.0984 0.86181 0.21917 0.0
H1420 H 0.14174 0.89393 0.22814 0.0
H1421 H 0.2095 0.83035 0.21466 0.0
H1422 H 0.16657 0.79757 0.20574 0.0
H1423 H 0.10397 0.79539 0.1512 0.0
H1424 H 0.08422 0.81526 0.16935 0.0
H1425 H 0.08595 0.72015 0.18295 0.0
H1426 H 0.10612 0.70042 0.16502 0.0
H1427 H 0.12222 0.80844 0.18972 0.0
H1428 H 0.03438 0.71172 0.20155 0.0
H1429 H 0.9892 0.682 0.19258 0.0
H1430 H 0.96825 0.75974 0.16956 0.0
H1431 H 0.01374 0.78931 0.1781 0.0
C1432 C 0.10592 0.78679 0.24472 0.0
C1433 C 0.08079 0.80074 0.25028 0.0
C1434 C 0.10563 0.78562 0.23267 0.0
C1435 C 0.08021 0.7983 0.22592 0.0
C1436 C 0.05524 0.81251 0.23139 0.0
C1437 C 0.05562 0.81393 0.24344 0.0
C1438 C 0.0791 0.79527 0.21316 0.0
C1439 C 0.05442 0.77784 0.20765 0.0
C1440 C 0.1033 0.80736 0.20655 0.0
C1441 C 0.12923 0.82712 0.21184 0.0
C1442 C 0.12254 0.85455 0.21818 0.0
C1443 C 0.14704 0.8729 0.22325 0.0
C1444 C 0.17835 0.86416 0.22199 0.0
C1445 C 0.18523 0.83709 0.21563 0.0
C1446 C 0.16082 0.81864 0.21055 0.0
C1447 C 0.09892 0.77862 0.1579 0.0
C1448 C 0.10669 0.7464 0.15676 0.0
C1449 C 0.08787 0.79002 0.16829 0.0
C1450 C 0.08374 0.7692 0.17752 0.0
C1451 C 0.0887 0.73662 0.17593 0.0
C1452 C 0.10025 0.72535 0.16568 0.0
C1453 C 0.07919 0.78139 0.18932 0.0
C1454 C 0.10305 0.80021 0.1947 0.0
C1455 C 0.05419 0.77081 0.19581 0.0
C1456 C 0.0275 0.75258 0.19041 0.0
C1457 C 0.02019 0.72231 0.19451 0.0
C1458 C 0.99464 0.7054 0.18945 0.0
C1459 C 0.97605 0.71876 0.18039 0.0
C1460 C 0.98296 0.74905 0.17639 0.0
C1461 C 0.00873 0.76583 0.18129 0.0
H1462 H 0.95626 0.70569 0.17651 0.0
H1463 H 0.19729 0.8784 0.22592 0.0
H1464 H 0.68238 0.7412 0.49546 0.0
H1465 H 0.66647 0.72553 0.47569 0.0
H1466 H 0.6187 0.64365 0.48836 0.0
H1467 H 0.63404 0.65947 0.50824 0.0
H1468 H 0.65265 0.62997 0.46893 0.0
H1469 H 0.57489 0.70331 0.48016 0.0
H1470 H 0.55516 0.7527 0.48859 0.0
H1471 H 0.59991 0.80734 0.46302 0.0
H1472 H 0.62033 0.7583 0.45454 0.0
H1473 H 0.56951 0.68902 0.40932 0.0
H1474 H 0.56687 0.67039 0.42921 0.0
H1475 H 0.66787 0.65864 0.43166 0.0
H1476 H 0.67033 0.677 0.41179 0.0
H1477 H 0.59351 0.70915 0.44465 0.0
H1478 H 0.69201 0.61443 0.45319 0.0
H1479 H 0.70777 0.56264 0.4454 0.0
H1480 H 0.61286 0.54613 0.43201 0.0
H1481 H 0.59665 0.59803 0.43954 0.0
C1482 C 0.66831 0.71997 0.49407 0.0
C1483 C 0.65923 0.70179 0.50345 0.0
C1484 C 0.65939 0.71094 0.48276 0.0
C1485 C 0.64114 0.68361 0.48058 0.0
C1486 C 0.63282 0.6648 0.48987 0.0
C1487 C 0.64167 0.67388 0.50122 0.0
C1488 C 0.62993 0.67567 0.46858 0.0
C1489 C 0.6395 0.6471 0.46361 0.0
C1490 C 0.61178 0.69751 0.46177 0.0
C1491 C 0.59927 0.72711 0.46675 0.0
C1492 C 0.58068 0.72587 0.47638 0.0
C1493 C 0.56936 0.75381 0.48116 0.0
C1494 C 0.57631 0.78314 0.47635 0.0
C1495 C 0.59454 0.78459 0.46674 0.0
C1496 C 0.60596 0.75673 0.46193 0.0
C1497 C 0.59083 0.68057 0.41389 0.0
C1498 C 0.62008 0.68407 0.40906 0.0
C1499 C 0.58936 0.67017 0.42529 0.0
C1500 C 0.61717 0.66327 0.43197 0.0
C1501 C 0.64603 0.66339 0.42667 0.0
C1502 C 0.64749 0.67396 0.41531 0.0
C1503 C 0.61739 0.66398 0.44478 0.0
C1504 C 0.60594 0.69149 0.44996 0.0
C1505 C 0.63324 0.64089 0.45177 0.0
C1506 C 0.64316 0.61015 0.44691 0.0
C1507 C 0.67452 0.59976 0.44857 0.0
C1508 C 0.68355 0.57043 0.44417 0.0
C1509 C 0.66133 0.55111 0.43822 0.0
C1510 C 0.63006 0.56115 0.43661 0.0
C1511 C 0.62101 0.59064 0.44084 0.0
H1512 H 0.66834 0.52839 0.43483 0.0
H1513 H 0.56752 0.80475 0.48007 0.0
H1514 H 0.52794 0.26501 0.74822 0.0
H1515 H 0.53453 0.25688 0.72763 0.0
H1516 H 0.60656 0.32901 0.72854 0.0
H1517 H 0.59933 0.33809 0.74904 0.0
H1518 H 0.5694 0.33113 0.70844 0.0
H1519 H 0.62614 0.25211 0.73169 0.0
H1520 H 0.63095 0.20919 0.74609 0.0
H1521 H 0.56514 0.15258 0.72543 0.0
H1522 H 0.55962 0.19535 0.71099 0.0
H1523 H 0.6715 0.28512 0.66531 0.0
H1524 H 0.64634 0.29909 0.68309 0.0
H1525 H 0.57742 0.22522 0.67624 0.0
H1526 H 0.6028 0.21122 0.65841 0.0
H1527 H 0.60539 0.22318 0.69826 0.0
H1528 H 0.55831 0.29956 0.67282 0.0
H1529 H 0.55518 0.34261 0.65858 0.0
H1530 H 0.60456 0.40477 0.68281 0.0
H1531 H 0.60833 0.36193 0.69722 0.0
C1532 C 0.54465 0.27969 0.74399 0.0
C1533 C 0.56336 0.30199 0.7503 0.0
C1534 C 0.54853 0.27485 0.73224 0.0
C1535 C 0.57135 0.29202 0.72661 0.0
C1536 C 0.58888 0.31544 0.73273 0.0
C1537 C 0.58497 0.32035 0.74447 0.0
C1538 C 0.57893 0.28384 0.71465 0.0
C1539 C 0.57743 0.30761 0.70619 0.0
C1540 C 0.58868 0.25291 0.7117 0.0
C1541 C 0.59215 0.22709 0.72034 0.0
C1542 C 0.6125 0.23061 0.73027 0.0
C1543 C 0.61539 0.20629 0.73843 0.0
C1544 C 0.59828 0.17822 0.7367 0.0
C1545 C 0.57832 0.17437 0.72678 0.0
C1546 C 0.5753 0.19864 0.7186 0.0
C1547 C 0.65067 0.27228 0.66756 0.0
C1548 C 0.63861 0.24751 0.66054 0.0
C1549 C 0.6363 0.28028 0.67765 0.0
C1550 C 0.60978 0.26345 0.68089 0.0
C1551 C 0.59762 0.23871 0.67381 0.0
C1552 C 0.6119 0.23088 0.66363 0.0
C1553 C 0.59624 0.27057 0.69204 0.0
C1554 C 0.59692 0.24662 0.70041 0.0
C1555 C 0.58588 0.3014 0.69487 0.0
C1556 C 0.58358 0.32735 0.68617 0.0
C1557 C 0.56857 0.32232 0.67516 0.0
C1558 C 0.5667 0.34673 0.66703 0.0
C1559 C 0.57965 0.37642 0.66979 0.0
C1560 C 0.59449 0.38175 0.68069 0.0
C1561 C 0.59644 0.3574 0.68886 0.0
H1562 H 0.5782 0.3953 0.66348 0.0
H1563 H 0.60055 0.15941 0.74302 0.0
H1564 H 0.12284 0.70889 0.99259 0.0
H1565 H 0.13605 0.70161 0.0132 0.0
H1566 H 0.06405 0.62988 0.01455 0.0
H1567 H 0.05016 0.63762 0.99395 0.0
H1568 H 0.06119 0.67162 0.03206 0.0
H1569 H 0.14086 0.60818 0.01662 0.0
H1570 H 0.18349 0.59491 0.00393 0.0
H1571 H 0.23996 0.67063 0.01886 0.0
H1572 H 0.19749 0.68468 0.03153 0.0
H1573 H 0.10941 0.67118 0.09147 0.0
H1574 H 0.1028 0.6447 0.0725 0.0
H1575 H 0.16513 0.71333 0.05835 0.0
H1576 H 0.17168 0.73935 0.07712 0.0
H1577 H 0.17104 0.65626 0.04798 0.0
H1578 H 0.08617 0.72754 0.05868 0.0
H1579 H 0.04357 0.7436 0.07102 0.0
H1580 H 0.99734 0.65418 0.0646 0.0
H1581 H 0.03994 0.63748 0.05233 0.0
C1582 C 0.10972 0.69166 0.99728 0.0
C1583 C 0.08544 0.67386 0.99164 0.0
C1584 C 0.11756 0.68722 0.00903 0.0
C1585 C 0.10139 0.6648 0.01538 0.0
C1586 C 0.07703 0.64708 0.0098 0.0
C1587 C 0.06923 0.65145 0.99802 0.0
C1588 C 0.10894 0.66138 0.02798 0.0
C1589 C 0.08506 0.66736 0.03555 0.0
C1590 C 0.14011 0.65605 0.03255 0.0
C1591 C 0.16589 0.64756 0.025 0.0
C1592 C 0.16229 0.62214 0.01716 0.0
C1593 C 0.18644 0.61446 0.00997 0.0
C1594 C 0.2144 0.63193 0.01058 0.0
C1595 C 0.21829 0.6571 0.0184 0.0
C1596 C 0.1942 0.66489 0.0256 0.0
C1597 C 0.12251 0.6797 0.08437 0.0
C1598 C 0.14094 0.70722 0.08563 0.0
C1599 C 0.11865 0.66474 0.07355 0.0
C1600 C 0.13311 0.67737 0.06396 0.0
C1601 C 0.15377 0.70313 0.06559 0.0
C1602 C 0.15745 0.71805 0.07631 0.0
C1603 C 0.12353 0.66764 0.05196 0.0
C1604 C 0.147 0.65932 0.04449 0.0
C1605 C 0.09203 0.671 0.04744 0.0
C1606 C 0.06636 0.68113 0.05472 0.0
C1607 C 0.067 0.71126 0.05996 0.0
C1608 C 0.04287 0.72047 0.06694 0.0
C1609 C 0.01782 0.69988 0.06863 0.0
C1610 C 0.0168 0.67007 0.06331 0.0
C1611 C 0.04093 0.66071 0.05635 0.0
H1612 H 0.99915 0.70706 0.07403 0.0
H1613 H 0.23307 0.62596 0.005 0.0
H1614 H 0.69437 0.82606 0.24832 0.0
H1615 H 0.7006 0.81599 0.26909 0.0
H1616 H 0.61241 0.76534 0.2675 0.0
H1617 H 0.60658 0.77387 0.24672 0.0
H1618 H 0.62051 0.80761 0.28669 0.0
H1619 H 0.67536 0.72451 0.26694 0.0
H1620 H 0.71466 0.70365 0.25406 0.0
H1621 H 0.78904 0.74674 0.27534 0.0
H1622 H 0.75008 0.7683 0.28824 0.0
H1623 H 0.64768 0.68006 0.32997 0.0
H1624 H 0.66217 0.7007 0.31139 0.0
H1625 H 0.67194 0.79442 0.32617 0.0
H1626 H 0.65747 0.77378 0.34485 0.0
H1627 H 0.70672 0.73581 0.30079 0.0
H1628 H 0.62743 0.8432 0.30776 0.0
H1629 H 0.58645 0.86019 0.32069 0.0
H1630 H 0.55852 0.76325 0.32492 0.0
H1631 H 0.59894 0.74579 0.31187 0.0
C1632 C 0.67635 0.81261 0.25235 0.0
C1633 C 0.65003 0.80064 0.24577 0.0
C1634 C 0.67984 0.80717 0.26424 0.0
C1635 C 0.65695 0.78997 0.26979 0.0
C1636 C 0.63018 0.77894 0.26337 0.0
C1637 C 0.62686 0.78398 0.25147 0.0
C1638 C 0.6616 0.78156 0.28215 0.0
C1639 C 0.63973 0.79242 0.28985 0.0
C1640 C 0.68641 0.76139 0.2862 0.0
C1641 C 0.70977 0.74845 0.27844 0.0
C1642 C 0.70006 0.72985 0.26879 0.0
C1643 C 0.72228 0.71784 0.26151 0.0
C1644 C 0.75431 0.72399 0.26385 0.0
C1645 C 0.7642 0.74209 0.27351 0.0
C1646 C 0.74207 0.75422 0.2808 0.0
C1647 C 0.65424 0.7048 0.32938 0.0
C1648 C 0.651 0.72543 0.33878 0.0
C1649 C 0.66247 0.71659 0.31875 0.0
C1650 C 0.66718 0.74922 0.31733 0.0
C1651 C 0.66783 0.76921 0.32706 0.0
C1652 C 0.65989 0.75734 0.33776 0.0
C1653 C 0.66625 0.76247 0.30549 0.0
C1654 C 0.68839 0.75213 0.29782 0.0
C1655 C 0.64159 0.78292 0.30145 0.0
C1656 C 0.61643 0.79322 0.30896 0.0
C1657 C 0.61241 0.82557 0.31141 0.0
C1658 C 0.5893 0.83526 0.31876 0.0
C1659 C 0.56997 0.8128 0.32366 0.0
C1660 C 0.57355 0.78061 0.32115 0.0
C1661 C 0.59655 0.77081 0.31377 0.0
H1662 H 0.55218 0.82034 0.32938 0.0
H1663 H 0.77148 0.71464 0.25821 0.0
H1664 H 0.63032 0.21126 0.49461 0.0
H1665 H 0.6439 0.20558 0.51519 0.0
H1666 H 0.58008 0.12636 0.51668 0.0
H1667 H 0.56511 0.13293 0.49612 0.0
H1668 H 0.57324 0.16354 0.5344 0.0
H1669 H 0.66089 0.11468 0.51874 0.0
H1670 H 0.70463 0.10767 0.50594 0.0
H1671 H 0.74989 0.191 0.52036 0.0
H1672 H 0.7062 0.19882 0.53314 0.0
H1673 H 0.62798 0.17318 0.5939 0.0
H1674 H 0.62238 0.14587 0.57505 0.0
H1675 H 0.66743 0.22492 0.55918 0.0
H1676 H 0.67318 0.25175 0.57781 0.0
H1677 H 0.68458 0.16807 0.54975 0.0
H1678 H 0.58699 0.22213 0.56075 0.0
H1679 H 0.54312 0.22817 0.5736 0.0
H1680 H 0.5177 0.13051 0.56802 0.0
H1681 H 0.56165 0.12388 0.55522 0.0
C1682 C 0.6189 0.1928 0.49931 0.0
C1683 C 0.59658 0.17259 0.49368 0.0
C1684 C 0.62708 0.18922 0.51106 0.0
C1685 C 0.61354 0.16507 0.51746 0.0
C1686 C 0.5911 0.14495 0.5119 0.0
C1687 C 0.58273 0.14862 0.50013 0.0
C1688 C 0.62185 0.16222 0.53005 0.0
C1689 C 0.59761 0.16364 0.53775 0.0
C1690 C 0.65361 0.16204 0.53449 0.0
C1691 C 0.68016 0.15738 0.52689 0.0
C1692 C 0.68008 0.13162 0.51914 0.0
C1693 C 0.70488 0.12749 0.51189 0.0
C1694 C 0.73001 0.14889 0.51233 0.0
C1695 C 0.73042 0.17443 0.52004 0.0
C1696 C 0.70566 0.17869 0.52731 0.0
C1697 C 0.63748 0.18409 0.58641 0.0
C1698 C 0.65104 0.21444 0.58722 0.0
C1699 C 0.63413 0.16863 0.57567 0.0
C1700 C 0.64428 0.1835 0.5657 0.0
C1701 C 0.65956 0.21292 0.56674 0.0
C1702 C 0.66269 0.22832 0.57737 0.0
C1703 C 0.63604 0.1711 0.55393 0.0
C1704 C 0.66027 0.16678 0.54637 0.0
C1705 C 0.60433 0.16825 0.54962 0.0
C1706 C 0.57769 0.17245 0.55714 0.0
C1707 C 0.57208 0.20195 0.5623 0.0
C1708 C 0.54722 0.20548 0.56957 0.0
C1709 C 0.52767 0.17972 0.57164 0.0
C1710 C 0.53286 0.15043 0.56641 0.0
C1711 C 0.55773 0.14678 0.55915 0.0
H1712 H 0.50846 0.18248 0.57728 0.0
H1713 H 0.74918 0.14566 0.5067 0.0
H1714 H 0.1987 0.25315 0.74828 0.0
H1715 H 0.20332 0.24498 0.76915 0.0
H1716 H 0.14984 0.33029 0.77422 0.0
H1717 H 0.14559 0.33901 0.75329 0.0
H1718 H 0.20126 0.32222 0.79086 0.0
H1719 H 0.11242 0.26332 0.77405 0.0
H1720 H 0.08618 0.22538 0.76042 0.0
H1721 H 0.14771 0.15115 0.77334 0.0
H1722 H 0.17463 0.18881 0.78694 0.0
H1723 H 0.12926 0.29195 0.84374 0.0
H1724 H 0.15166 0.30721 0.82564 0.0
H1725 H 0.18549 0.2115 0.82141 0.0
H1726 H 0.161 0.19595 0.83908 0.0
H1727 H 0.14992 0.22456 0.80422 0.0
H1728 H 0.23728 0.28311 0.82228 0.0
H1729 H 0.26467 0.32233 0.83521 0.0
H1730 H 0.20664 0.39671 0.82046 0.0
H1731 H 0.17912 0.35826 0.80736 0.0
C1732 C 0.1884 0.27051 0.75383 0.0
C1733 C 0.17162 0.29666 0.74912 0.0
C1734 C 0.19098 0.26574 0.76576 0.0
C1735 C 0.17679 0.28694 0.77322 0.0
C1736 C 0.16101 0.3137 0.7686 0.0
C1737 C 0.1583 0.31844 0.75665 0.0
C1738 C 0.17617 0.27971 0.78571 0.0
C1739 C 0.18998 0.30095 0.79385 0.0
C1740 C 0.16203 0.25165 0.78955 0.0
C1741 C 0.14576 0.22895 0.78142 0.0
C1742 C 0.12053 0.23897 0.77391 0.0
C1743 C 0.1055 0.21751 0.7662 0.0
C1744 C 0.11534 0.1859 0.76599 0.0
C1745 C 0.14016 0.17566 0.7735 0.0
C1746 C 0.1553 0.19705 0.78122 0.0
C1747 C 0.1426 0.27459 0.83915 0.0
C1748 C 0.14335 0.24281 0.84269 0.0
C1749 C 0.15558 0.28332 0.8288 0.0
C1750 C 0.17021 0.2605 0.82203 0.0
C1751 C 0.17407 0.22952 0.82637 0.0
C1752 C 0.16025 0.22062 0.83649 0.0
C1753 C 0.17543 0.26688 0.80965 0.0
C1754 C 0.16202 0.24554 0.8014 0.0
C1755 C 0.19001 0.29483 0.80579 0.0
C1756 C 0.20596 0.31775 0.8139 0.0
C1757 C 0.23017 0.30778 0.82186 0.0
C1758 C 0.24578 0.32985 0.82919 0.0
C1759 C 0.23725 0.36183 0.82871 0.0
C1760 C 0.21319 0.37191 0.82084 0.0
C1761 C 0.19768 0.35004 0.81343 0.0
H1762 H 0.24937 0.37882 0.8344 0.0
H1763 H 0.10367 0.16931 0.76001 0.0
loop_
_geom_bond_atom_site_label_1
_geom_bond_atom_site_label_2
_geom_bond_distance
_geom_bond_site_symmetry_2
_ccdc_geom_bond_type
C0 C1 1.391 . S
C0 C4 1.391 . S
C0 H42 0.948 . S
C1 C0 1.391 . S
C1 C2 1.391 . S
C2 C1 1.391 . S
C2 H58 0.947 . S
C2 C59 1.392 . S
C3 C4 1.391 . S
C3 C7 1.397 . S
C3 C59 1.419 . S
C4 C0 1.391 . S
C4 C3 1.391 . S
C4 C5 1.399 . S
C5 C4 1.399 . S
C5 C8 1.396 . S
C5 C17 1.453 . S
C5 C18 1.684 . S
H6 C30 0.948 . S
C7 C3 1.397 . S
C7 C8 1.394 . S
C7 C26 1.723 . S
C8 C5 1.396 . S
C8 C7 1.394 . S
C8 C38 1.723 . S
H9 C32 0.947 . S
H10 C33 0.948 . S
H11 C39 0.982 . S
H12 C40 0.979 . S
H13 C40 0.980 . S
H14 C40 0.983 . S
H15 C39 0.979 . S
H16 C39 0.977 . S
C17 C5 1.453 . S
C17 H46 0.982 . S
C17 H47 0.979 . S
C17 H48 0.977 . S
C18 C5 1.684 . S
C18 H43 0.979 . S
C18 H44 0.980 . S
C18 H45 0.983 . S
C19 C20 1.391 . S
C19 C24 1.391 . S
C19 H49 0.948 . S
C20 C19 1.391 . S
C20 C21 1.391 . S
C21 C20 1.391 . S
C21 C22 1.392 . S
C21 H50 0.947 . S
C22 C21 1.392 . S
C22 C23 1.419 . S
C22 H51 0.948 . S
C23 C22 1.419 . S
C23 C24 1.391 . S
C23 C27 1.397 . S
C24 C19 1.391 . S
C24 C23 1.391 . S
C24 C25 1.399 . S
C25 C24 1.399 . S
C25 C26 1.396 . S
C25 C28 1.453 . S
C25 C29 1.684 . S
C26 C7 1.723 . S
C26 C25 1.396 . S
C26 C27 1.394 . S
C27 C23 1.397 . S
C27 C26 1.394 . S
C27 C37 1.723 . S
C28 C25 1.453 . S
C28 H52 0.982 . S
C28 H53 0.979 . S
C28 H54 0.977 . S
C29 C25 1.684 . S
C29 H55 0.979 . S
C29 H56 0.980 . S
C29 H57 0.983 . S
C30 H6 0.948 . S
C30 C31 1.391 . S
C30 C35 1.391 . S
C31 C30 1.391 . S
C31 C32 1.391 . S
C32 H9 0.947 . S
C32 C31 1.391 . S
C32 C33 1.392 . S
C33 H10 0.948 . S
C33 C32 1.392 . S
C33 C34 1.419 . S
C34 C33 1.419 . S
C34 C35 1.391 . S
C34 C38 1.397 . S
C35 C30 1.391 . S
C35 C34 1.391 . S
C35 C36 1.399 . S
C36 C35 1.399 . S
C36 C37 1.396 . S
C36 C39 1.453 . S
C36 C40 1.684 . S
C37 C27 1.723 . S
C37 C36 1.396 . S
C37 C38 1.394 . S
C38 C8 1.723 . S
C38 C34 1.397 . S
C38 C37 1.394 . S
C39 H11 0.982 . S
C39 H15 0.979 . S
C39 H16 0.977 . S
C39 C36 1.453 . S
C40 H12 0.979 . S
C40 H13 0.980 . S
C40 H14 0.983 . S
C40 C36 1.684 . S
H41 C59 0.948 . S
H42 C0 0.948 . S
H43 C18 0.979 . S
H44 C18 0.980 . S
H45 C18 0.983 . S
H46 C17 0.982 . S
H47 C17 0.979 . S
H48 C17 0.977 . S
H49 C19 0.948 . S
H50 C21 0.947 . S
H51 C22 0.948 . S
H52 C28 0.982 . S
H53 C28 0.979 . S
H54 C28 0.977 . S
H55 C29 0.979 . S
H56 C29 0.980 . S
H57 C29 0.983 . S
H58 C2 0.947 . S
C59 C2 1.392 . S
C59 C3 1.419 . S
C59 H41 0.948 . S
C60 C61 1.391 . S
C60 C64 1.391 . S
C60 H102 0.948 . S
C61 C60 1.391 . S
C61 C62 1.391 . S
C62 C61 1.391 . S
C62 H118 0.947 . S
C62 C119 1.392 . S
C63 C64 1.391 . S
C63 C67 1.397 . S
C63 C119 1.419 . S
C64 C60 1.391 . S
C64 C63 1.391 . S
C64 C65 1.399 . S
C65 C64 1.399 . S
C65 C68 1.396 . S
C65 C77 1.453 . S
C65 C78 1.684 . S
H66 C90 0.948 1_655 S
C67 C63 1.397 . S
C67 C68 1.394 . S
C67 C86 1.723 . S
C68 C65 1.396 . S
C68 C67 1.394 . S
C68 C98 1.723 . S
H69 C92 0.947 . S
H70 C93 0.948 . S
H71 C99 0.982 . S
H72 C100 0.979 . S
H73 C100 0.980 . S
H74 C100 0.983 . S
H75 C99 0.979 . S
H76 C99 0.977 . S
C77 C65 1.453 . S
C77 H106 0.982 . S
C77 H107 0.979 . S
C77 H108 0.977 . S
C78 C65 1.684 . S
C78 H103 0.979 . S
C78 H104 0.980 . S
C78 H105 0.983 . S
C79 C80 1.391 . S
C79 C84 1.391 . S
C79 H109 0.948 . S
C80 C79 1.391 . S
C80 C81 1.391 . S
C81 C80 1.391 . S
C81 C82 1.392 . S
C81 H110 0.947 . S
C82 C81 1.392 . S
C82 C83 1.419 . S
C82 H111 0.948 . S
C83 C82 1.419 . S
C83 C84 1.391 . S
C83 C87 1.397 . S
C84 C79 1.391 . S
C84 C83 1.391 . S
C84 C85 1.399 . S
C85 C84 1.399 . S
C85 C86 1.396 . S
C85 C88 1.453 . S
C85 C89 1.684 . S
C86 C67 1.723 . S
C86 C85 1.396 . S
C86 C87 1.394 . S
C87 C83 1.397 . S
C87 C86 1.394 . S
C87 C97 1.723 . S
C88 C85 1.453 . S
C88 H112 0.982 . S
C88 H113 0.979 . S
C88 H114 0.977 . S
C89 C85 1.684 . S
C89 H115 0.979 . S
C89 H116 0.980 . S
C89 H117 0.983 . S
C90 H66 0.948 1_455 S
C90 C91 1.391 . S
C90 C95 1.391 . S
C91 C90 1.391 . S
C91 C92 1.391 . S
C92 H69 0.947 . S
C92 C91 1.391 . S
C92 C93 1.392 . S
C93 H70 0.948 . S
C93 C92 1.392 . S
C93 C94 1.419 . S
C94 C93 1.419 . S
C94 C95 1.391 . S
C94 C98 1.397 . S
C95 C90 1.391 . S
C95 C94 1.391 . S
C95 C96 1.399 . S
C96 C95 1.399 . S
C96 C97 1.396 . S
C96 C99 1.453 . S
C96 C100 1.684 . S
C97 C87 1.723 . S
C97 C96 1.396 . S
C97 C98 1.394 . S
C98 C68 1.723 . S
C98 C94 1.397 . S
C98 C97 1.394 . S
C99 H71 0.982 . S
C99 H75 0.979 . S
C99 H76 0.977 . S
C99 C96 1.453 . S
C100 H72 0.979 . S
C100 H73 0.980 . S
C100 H74 0.983 . S
C100 C96 1.684 . S
H101 C119 0.948 . S
H102 C60 0.948 . S
H103 C78 0.979 . S
H104 C78 0.980 . S
H105 C78 0.983 . S
H106 C77 0.982 . S
H107 C77 0.979 . S
H108 C77 0.977 . S
H109 C79 0.948 . S
H110 C81 0.947 . S
H111 C82 0.948 . S
H112 C88 0.982 . S
H113 C88 0.979 . S
H114 C88 0.977 . S
H115 C89 0.979 . S
H116 C89 0.980 . S
H117 C89 0.983 . S
H118 C62 0.947 . S
C119 C62 1.392 . S
C119 C63 1.419 . S
C119 H101 0.948 . S
C120 C121 1.391 . S
C120 C124 1.391 . S
C120 H162 0.948 . S
C121 C120 1.391 . S
C121 C122 1.391 . S
C122 C121 1.391 . S
C122 H178 0.947 . S
C122 C179 1.392 . S
C123 C124 1.391 . S
C123 C127 1.397 . S
C123 C179 1.419 . S
C124 C120 1.391 . S
C124 C123 1.391 . S
C124 C125 1.399 . S
C125 C124 1.399 . S
C125 C128 1.396 . S
C125 C137 1.453 . S
C125 C138 1.684 . S
H126 C150 0.948 . S
C127 C123 1.397 . S
C127 C128 1.394 . S
C127 C146 1.723 . S
C128 C125 1.396 . S
C128 C127 1.394 . S
C128 C158 1.723 . S
H129 C152 0.947 . S
H130 C153 0.948 . S
H131 C159 0.982 . S
H132 C160 0.979 . S
H133 C160 0.980 . S
H134 C160 0.983 . S
H135 C159 0.979 . S
H136 C159 0.977 . S
C137 C125 1.453 . S
C137 H166 0.982 . S
C137 H167 0.979 . S
C137 H168 0.977 . S
C138 C125 1.684 . S
C138 H163 0.979 . S
C138 H164 0.980 . S
C138 H165 0.983 . S
C139 C140 1.391 . S
C139 C144 1.391 . S
C139 H169 0.948 . S
C140 C139 1.391 . S
C140 C141 1.391 . S
C141 C140 1.391 . S
C141 C142 1.392 . S
C141 H170 0.947 . S
C142 C141 1.392 . S
C142 C143 1.419 . S
C142 H171 0.948 . S
C143 C142 1.419 . S
C143 C144 1.391 . S
C143 C147 1.397 . S
C144 C139 1.391 . S
C144 C143 1.391 . S
C144 C145 1.399 . S
C145 C144 1.399 . S
C145 C146 1.396 . S
C145 C148 1.453 . S
C145 C149 1.684 . S
C146 C127 1.723 . S
C146 C145 1.396 . S
C146 C147 1.394 . S
C147 C143 1.397 . S
C147 C146 1.394 . S
C147 C157 1.723 . S
C148 C145 1.453 . S
C148 H172 0.982 . S
C148 H173 0.979 . S
C148 H174 0.977 . S
C149 C145 1.684 . S
C149 H175 0.979 . S
C149 H176 0.980 . S
C149 H177 0.983 . S
C150 H126 0.948 . S
C150 C151 1.391 . S
C150 C155 1.391 . S
C151 C150 1.391 . S
C151 C152 1.391 . S
C152 H129 0.947 . S
C152 C151 1.391 . S
C152 C153 1.392 . S
C153 H130 0.948 . S
C153 C152 1.392 . S
C153 C154 1.419 . S
C154 C153 1.419 . S
C154 C155 1.391 . S
C154 C158 1.397 . S
C155 C150 1.391 . S
C155 C154 1.391 . S
C155 C156 1.399 . S
C156 C155 1.399 . S
C156 C157 1.396 . S
C156 C159 1.453 . S
C156 C160 1.684 . S
C157 C147 1.723 . S
C157 C156 1.396 . S
C157 C158 1.394 . S
C158 C128 1.723 . S
C158 C154 1.397 . S
C158 C157 1.394 . S
C159 H131 0.982 . S
C159 H135 0.979 . S
C159 H136 0.977 . S
C159 C156 1.453 . S
C160 H132 0.979 . S
C160 H133 0.980 . S
C160 H134 0.983 . S
C160 C156 1.684 . S
H161 C179 0.948 . S
H162 C120 0.948 . S
H163 C138 0.979 . S
H164 C138 0.980 . S
H165 C138 0.983 . S
H166 C137 0.982 . S
H167 C137 0.979 . S
H168 C137 0.977 . S
H169 C139 0.948 . S
H170 C141 0.947 . S
H171 C142 0.948 . S
H172 C148 0.982 . S
H173 C148 0.979 . S
H174 C148 0.977 . S
H175 C149 0.979 . S
H176 C149 0.980 . S
H177 C149 0.983 . S
H178 C122 0.947 . S
C179 C122 1.392 . S
C179 C123 1.419 . S
C179 H161 0.948 . S
C180 C181 1.391 . S
C180 C184 1.391 . S
C180 H222 0.948 . S
C181 C180 1.391 . S
C181 C182 1.391 . S
C182 C181 1.391 . S
C182 H238 0.947 . S
C182 C239 1.392 . S
C183 C184 1.391 . S
C183 C187 1.397 . S
C183 C239 1.419 . S
C184 C180 1.391 . S
C184 C183 1.391 . S
C184 C185 1.399 . S
C185 C184 1.399 . S
C185 C188 1.396 . S
C185 C197 1.453 . S
C185 C198 1.684 . S
H186 C210 0.948 . S
C187 C183 1.397 . S
C187 C188 1.394 . S
C187 C206 1.723 . S
C188 C185 1.396 . S
C188 C187 1.394 . S
C188 C218 1.723 . S
H189 C212 0.947 . S
H190 C213 0.948 . S
H191 C219 0.982 . S
H192 C220 0.979 . S
H193 C220 0.980 . S
H194 C220 0.983 . S
H195 C219 0.979 . S
H196 C219 0.977 . S
C197 C185 1.453 . S
C197 H226 0.982 . S
C197 H227 0.979 . S
C197 H228 0.977 . S
C198 C185 1.684 . S
C198 H223 0.979 . S
C198 H224 0.980 . S
C198 H225 0.983 . S
C199 C200 1.391 . S
C199 C204 1.391 . S
C199 H229 0.948 . S
C200 C199 1.391 . S
C200 C201 1.391 . S
C201 C200 1.391 . S
C201 C202 1.392 . S
C201 H230 0.947 . S
C202 C201 1.392 . S
C202 C203 1.419 . S
C202 H231 0.948 . S
C203 C202 1.419 . S
C203 C204 1.391 . S
C203 C207 1.397 . S
C204 C199 1.391 . S
C204 C203 1.391 . S
C204 C205 1.399 . S
C205 C204 1.399 . S
C205 C206 1.396 . S
C205 C208 1.453 . S
C205 C209 1.684 . S
C206 C187 1.723 . S
C206 C205 1.396 . S
C206 C207 1.394 . S
C207 C203 1.397 . S
C207 C206 1.394 . S
C207 C217 1.723 . S
C208 C205 1.453 . S
C208 H232 0.982 . S
C208 H233 0.979 . S
C208 H234 0.977 . S
C209 C205 1.684 . S
C209 H235 0.979 . S
C209 H236 0.980 . S
C209 H237 0.983 . S
C210 H186 0.948 . S
C210 C211 1.391 . S
C210 C215 1.391 . S
C211 C210 1.391 . S
C211 C212 1.391 . S
C212 H189 0.947 . S
C212 C211 1.391 . S
C212 C213 1.392 . S
C213 H190 0.948 . S
C213 C212 1.392 . S
C213 C214 1.419 . S
C214 C213 1.419 . S
C214 C215 1.391 . S
C214 C218 1.397 . S
C215 C210 1.391 . S
C215 C214 1.391 . S
C215 C216 1.399 . S
C216 C215 1.399 . S
C216 C217 1.396 . S
C216 C219 1.453 . S
C216 C220 1.684 . S
C217 C207 1.723 . S
C217 C216 1.396 . S
C217 C218 1.394 . S
C218 C188 1.723 . S
C218 C214 1.397 . S
C218 C217 1.394 . S
C219 H191 0.982 . S
C219 H195 0.979 . S
C219 H196 0.977 . S
C219 C216 1.453 . S
C220 H192 0.979 . S
C220 H193 0.980 . S
C220 H194 0.983 . S
C220 C216 1.684 . S
H221 C239 0.948 . S
H222 C180 0.948 . S
H223 C198 0.979 . S
H224 C198 0.980 . S
H225 C198 0.983 . S
H226 C197 0.982 . S
H227 C197 0.979 . S
H228 C197 0.977 . S
H229 C199 0.948 . S
H230 C201 0.947 . S
H231 C202 0.948 . S
H232 C208 0.982 . S
H233 C208 0.979 . S
H234 C208 0.977 . S
H235 C209 0.979 . S
H236 C209 0.980 . S
H237 C209 0.983 . S
H238 C182 0.947 . S
C239 C182 1.392 . S
C239 C183 1.419 . S
C239 H221 0.948 . S
C240 C241 1.391 . S
C240 C244 1.391 . S
C240 H282 0.948 . S
C241 C240 1.391 . S
C241 C242 1.391 . S
C242 C241 1.391 . S
C242 H298 0.947 . S
C242 C299 1.392 . S
C243 C244 1.391 . S
C243 C247 1.397 . S
C243 C299 1.419 . S
C244 C240 1.391 . S
C244 C243 1.391 . S
C244 C245 1.399 . S
C245 C244 1.399 . S
C245 C248 1.396 . S
C245 C257 1.453 . S
C245 C258 1.684 . S
H246 C270 0.948 . S
C247 C243 1.397 . S
C247 C248 1.394 . S
C247 C266 1.723 . S
C248 C245 1.396 . S
C248 C247 1.394 . S
C248 C278 1.723 . S
H249 C272 0.947 . S
H250 C273 0.948 . S
H251 C279 0.982 . S
H252 C280 0.979 1_655 S
H253 C280 0.980 . S
H254 C280 0.983 . S
H255 C279 0.979 . S
H256 C279 0.977 . S
C257 C245 1.453 . S
C257 H286 0.982 . S
C257 H287 0.979 . S
C257 H288 0.977 . S
C258 C245 1.684 . S
C258 H283 0.979 1_455 S
C258 H284 0.980 . S
C258 H285 0.983 . S
C259 C260 1.391 . S
C259 C264 1.391 . S
C259 H289 0.948 . S
C260 C259 1.391 . S
C260 C261 1.391 . S
C261 C260 1.391 . S
C261 C262 1.392 . S
C261 H290 0.947 . S
C262 C261 1.392 . S
C262 C263 1.419 . S
C262 H291 0.948 . S
C263 C262 1.419 . S
C263 C264 1.391 . S
C263 C267 1.397 . S
C264 C259 1.391 . S
C264 C263 1.391 . S
C264 C265 1.399 . S
C265 C264 1.399 . S
C265 C266 1.396 . S
C265 C268 1.453 . S
C265 C269 1.684 . S
C266 C247 1.723 . S
C266 C265 1.396 . S
C266 C267 1.394 . S
C267 C263 1.397 . S
C267 C266 1.394 . S
C267 C277 1.723 . S
C268 C265 1.453 . S
C268 H292 0.982 . S
C268 H293 0.979 . S
C268 H294 0.977 . S
C269 C265 1.684 . S
C269 H295 0.979 1_455 S
C269 H296 0.980 . S
C269 H297 0.983 . S
C270 H246 0.948 . S
C270 C271 1.391 . S
C270 C275 1.391 . S
C271 C270 1.391 . S
C271 C272 1.391 . S
C272 H249 0.947 . S
C272 C271 1.391 . S
C272 C273 1.392 . S
C273 H250 0.948 . S
C273 C272 1.392 . S
C273 C274 1.419 . S
C274 C273 1.419 . S
C274 C275 1.391 . S
C274 C278 1.397 . S
C275 C270 1.391 . S
C275 C274 1.391 . S
C275 C276 1.399 . S
C276 C275 1.399 . S
C276 C277 1.396 . S
C276 C279 1.453 . S
C276 C280 1.684 . S
C277 C267 1.723 . S
C277 C276 1.396 . S
C277 C278 1.394 . S
C278 C248 1.723 . S
C278 C274 1.397 . S
C278 C277 1.394 . S
C279 H251 0.982 . S
C279 H255 0.979 . S
C279 H256 0.977 . S
C279 C276 1.453 . S
C280 H252 0.979 1_455 S
C280 H253 0.980 . S
C280 H254 0.983 . S
C280 C276 1.684 . S
H281 C299 0.948 . S
H282 C240 0.948 . S
H283 C258 0.979 1_655 S
H284 C258 0.980 . S
H285 C258 0.983 . S
H286 C257 0.982 . S
H287 C257 0.979 . S
H288 C257 0.977 . S
H289 C259 0.948 . S
H290 C261 0.947 . S
H291 C262 0.948 . S
H292 C268 0.982 . S
H293 C268 0.979 . S
H294 C268 0.977 . S
H295 C269 0.979 1_655 S
H296 C269 0.980 . S
H297 C269 0.983 . S
H298 C242 0.947 . S
C299 C242 1.392 . S
C299 C243 1.419 . S
C299 H281 0.948 . S
C300 C301 1.391 . S
C300 C304 1.391 . S
C300 H342 0.948 . S
C301 C300 1.391 . S
C301 C302 1.391 . S
C302 C301 1.391 . S
C302 H358 0.947 . S
C302 C359 1.392 . S
C303 C304 1.391 . S
C303 C307 1.397 . S
C303 C359 1.419 . S
C304 C300 1.391 . S
C304 C303 1.391 . S
C304 C305 1.399 . S
C305 C304 1.399 . S
C305 C308 1.396 . S
C305 C317 1.453 . S
C305 C318 1.684 . S
H306 C330 0.948 . S
C307 C303 1.397 . S
C307 C308 1.394 . S
C307 C326 1.723 . S
C308 C305 1.396 . S
C308 C307 1.394 . S
C308 C338 1.723 . S
H309 C332 0.947 . S
H310 C333 0.948 . S
H311 C339 0.982 . S
H312 C340 0.979 . S
H313 C340 0.980 . S
H314 C340 0.983 . S
H315 C339 0.979 . S
H316 C339 0.977 . S
C317 C305 1.453 . S
C317 H346 0.982 . S
C317 H347 0.979 . S
C317 H348 0.977 . S
C318 C305 1.684 . S
C318 H343 0.979 . S
C318 H344 0.980 . S
C318 H345 0.983 . S
C319 C320 1.391 . S
C319 C324 1.391 . S
C319 H349 0.948 . S
C320 C319 1.391 . S
C320 C321 1.391 . S
C321 C320 1.391 . S
C321 C322 1.392 . S
C321 H350 0.947 . S
C322 C321 1.392 . S
C322 C323 1.419 . S
C322 H351 0.948 . S
C323 C322 1.419 . S
C323 C324 1.391 . S
C323 C327 1.397 . S
C324 C319 1.391 . S
C324 C323 1.391 . S
C324 C325 1.399 . S
C325 C324 1.399 . S
C325 C326 1.396 . S
C325 C328 1.453 . S
C325 C329 1.684 . S
C326 C307 1.723 . S
C326 C325 1.396 . S
C326 C327 1.394 . S
C327 C323 1.397 . S
C327 C326 1.394 . S
C327 C337 1.723 . S
C328 C325 1.453 . S
C328 H352 0.982 . S
C328 H353 0.979 . S
C328 H354 0.977 . S
C329 C325 1.684 . S
C329 H355 0.979 . S
C329 H356 0.980 . S
C329 H357 0.983 . S
C330 H306 0.948 . S
C330 C331 1.391 . S
C330 C335 1.391 . S
C331 C330 1.391 . S
C331 C332 1.391 . S
C332 H309 0.947 . S
C332 C331 1.391 . S
C332 C333 1.392 . S
C333 H310 0.948 . S
C333 C332 1.392 . S
C333 C334 1.419 . S
C334 C333 1.419 . S
C334 C335 1.391 . S
C334 C338 1.397 . S
C335 C330 1.391 . S
C335 C334 1.391 . S
C335 C336 1.399 . S
C336 C335 1.399 . S
C336 C337 1.396 . S
C336 C339 1.453 . S
C336 C340 1.684 . S
C337 C327 1.723 . S
C337 C336 1.396 . S
C337 C338 1.394 . S
C338 C308 1.723 . S
C338 C334 1.397 . S
C338 C337 1.394 . S
C339 H311 0.982 . S
C339 H315 0.979 . S
C339 H316 0.977 . S
C339 C336 1.453 . S
C340 H312 0.979 . S
C340 H313 0.980 . S
C340 H314 0.983 . S
C340 C336 1.684 . S
H341 C359 0.948 . S
H342 C300 0.948 . S
H343 C318 0.979 . S
H344 C318 0.980 . S
H345 C318 0.983 . S
H346 C317 0.982 . S
H347 C317 0.979 . S
H348 C317 0.977 . S
H349 C319 0.948 . S
H350 C321 0.947 . S
H351 C322 0.948 . S
H352 C328 0.982 . S
H353 C328 0.979 . S
H354 C328 0.977 . S
H355 C329 0.979 . S
H356 C329 0.980 . S
H357 C329 0.983 . S
H358 C302 0.947 . S
C359 C302 1.392 . S
C359 C303 1.419 . S
C359 H341 0.948 . S
C360 C361 1.391 . S
C360 C364 1.391 . S
C360 H402 0.948 . S
C361 C360 1.391 . S
C361 C362 1.391 . S
C362 C361 1.391 . S
C362 H418 0.947 . S
C362 C419 1.392 . S
C363 C364 1.391 . S
C363 C367 1.397 . S
C363 C419 1.419 . S
C364 C360 1.391 . S
C364 C363 1.391 . S
C364 C365 1.399 . S
C365 C364 1.399 . S
C365 C368 1.396 . S
C365 C377 1.453 . S
C365 C378 1.684 . S
H366 C390 0.948 . S
C367 C363 1.397 . S
C367 C368 1.394 . S
C367 C386 1.723 . S
C368 C365 1.396 . S
C368 C367 1.394 . S
C368 C398 1.723 . S
H369 C392 0.947 . S
H370 C393 0.948 . S
H371 C399 0.982 . S
H372 C400 0.979 . S
H373 C400 0.980 . S
H374 C400 0.983 . S
H375 C399 0.979 . S
H376 C399 0.977 . S
C377 C365 1.453 . S
C377 H406 0.982 . S
C377 H407 0.979 . S
C377 H408 0.977 . S
C378 C365 1.684 . S
C378 H403 0.979 . S
C378 H404 0.980 . S
C378 H405 0.983 . S
C379 C380 1.391 . S
C379 C384 1.391 . S
C379 H409 0.948 . S
C380 C379 1.391 . S
C380 C381 1.391 . S
C381 C380 1.391 . S
C381 C382 1.392 . S
C381 H410 0.947 . S
C382 C381 1.392 . S
C382 C383 1.419 . S
C382 H411 0.948 . S
C383 C382 1.419 . S
C383 C384 1.391 . S
C383 C387 1.397 . S
C384 C379 1.391 . S
C384 C383 1.391 . S
C384 C385 1.399 . S
C385 C384 1.399 . S
C385 C386 1.396 . S
C385 C388 1.453 . S
C385 C389 1.684 . S
C386 C367 1.723 . S
C386 C385 1.396 . S
C386 C387 1.394 . S
C387 C383 1.397 . S
C387 C386 1.394 . S
C387 C397 1.723 . S
C388 C385 1.453 . S
C388 H412 0.982 . S
C388 H413 0.979 . S
C388 H414 0.977 . S
C389 C385 1.684 . S
C389 H415 0.979 . S
C389 H416 0.980 . S
C389 H417 0.983 . S
C390 H366 0.948 . S
C390 C391 1.391 . S
C390 C395 1.391 . S
C391 C390 1.391 . S
C391 C392 1.391 . S
C392 H369 0.947 . S
C392 C391 1.391 . S
C392 C393 1.392 . S
C393 H370 0.948 . S
C393 C392 1.392 . S
C393 C394 1.419 . S
C394 C393 1.419 . S
C394 C395 1.391 . S
C394 C398 1.397 . S
C395 C390 1.391 . S
C395 C394 1.391 . S
C395 C396 1.399 . S
C396 C395 1.399 . S
C396 C397 1.396 . S
C396 C399 1.453 . S
C396 C400 1.684 . S
C397 C387 1.723 . S
C397 C396 1.396 . S
C397 C398 1.394 . S
C398 C368 1.723 . S
C398 C394 1.397 . S
C398 C397 1.394 . S
C399 H371 0.982 . S
C399 H375 0.979 . S
C399 H376 0.977 . S
C399 C396 1.453 . S
C400 H372 0.979 . S
C400 H373 0.980 . S
C400 H374 0.983 . S
C400 C396 1.684 . S
H401 C419 0.948 . S
H402 C360 0.948 . S
H403 C378 0.979 . S
H404 C378 0.980 . S
H405 C378 0.983 . S
H406 C377 0.982 . S
H407 C377 0.979 . S
H408 C377 0.977 . S
H409 C379 0.948 . S
H410 C381 0.947 . S
H411 C382 0.948 . S
H412 C388 0.982 . S
H413 C388 0.979 . S
H414 C388 0.977 . S
H415 C389 0.979 . S
H416 C389 0.980 . S
H417 C389 0.983 . S
H418 C362 0.947 . S
C419 C362 1.392 . S
C419 C363 1.419 . S
C419 H401 0.948 . S
C420 C421 1.391 . S
C420 C424 1.391 . S
C420 H462 0.948 . S
C421 C420 1.391 . S
C421 C422 1.391 . S
C422 C421 1.391 . S
C422 H478 0.947 . S
C422 C479 1.392 . S
C423 C424 1.391 . S
C423 C427 1.397 . S
C423 C479 1.419 . S
C424 C420 1.391 . S
C424 C423 1.391 . S
C424 C425 1.399 . S
C425 C424 1.399 . S
C425 C428 1.396 . S
C425 C437 1.453 . S
C425 C438 1.684 . S
H426 C450 0.948 . S
C427 C423 1.397 . S
C427 C428 1.394 . S
C427 C446 1.723 . S
C428 C425 1.396 . S
C428 C427 1.394 . S
C428 C458 1.723 . S
H429 C452 0.947 . S
H430 C453 0.948 . S
H431 C459 0.982 . S
H432 C460 0.979 . S
H433 C460 0.980 . S
H434 C460 0.983 . S
H435 C459 0.979 . S
H436 C459 0.977 . S
C437 C425 1.453 . S
C437 H466 0.982 . S
C437 H467 0.979 . S
C437 H468 0.977 . S
C438 C425 1.684 . S
C438 H463 0.979 . S
C438 H464 0.980 . S
C438 H465 0.983 . S
C439 C440 1.391 . S
C439 C444 1.391 . S
C439 H469 0.948 . S
C440 C439 1.391 . S
C440 C441 1.391 . S
C441 C440 1.391 . S
C441 C442 1.392 . S
C441 H470 0.947 . S
C442 C441 1.392 . S
C442 C443 1.419 . S
C442 H471 0.948 . S
C443 C442 1.419 . S
C443 C444 1.391 . S
C443 C447 1.397 . S
C444 C439 1.391 . S
C444 C443 1.391 . S
C444 C445 1.399 . S
C445 C444 1.399 . S
C445 C446 1.396 . S
C445 C448 1.453 . S
C445 C449 1.684 . S
C446 C427 1.723 . S
C446 C445 1.396 . S
C446 C447 1.394 . S
C447 C443 1.397 . S
C447 C446 1.394 . S
C447 C457 1.723 . S
C448 C445 1.453 . S
C448 H472 0.982 . S
C448 H473 0.979 . S
C448 H474 0.977 . S
C449 C445 1.684 . S
C449 H475 0.979 . S
C449 H476 0.980 . S
C449 H477 0.983 . S
C450 H426 0.948 . S
C450 C451 1.391 . S
C450 C455 1.391 . S
C451 C450 1.391 . S
C451 C452 1.391 . S
C452 H429 0.947 . S
C452 C451 1.391 . S
C452 C453 1.392 . S
C453 H430 0.948 . S
C453 C452 1.392 . S
C453 C454 1.419 . S
C454 C453 1.419 . S
C454 C455 1.391 . S
C454 C458 1.397 . S
C455 C450 1.391 . S
C455 C454 1.391 . S
C455 C456 1.399 . S
C456 C455 1.399 . S
C456 C457 1.396 . S
C456 C459 1.453 . S
C456 C460 1.684 . S
C457 C447 1.723 . S
C457 C456 1.396 . S
C457 C458 1.394 . S
C458 C428 1.723 . S
C458 C454 1.397 . S
C458 C457 1.394 . S
C459 H431 0.982 . S
C459 H435 0.979 . S
C459 H436 0.977 . S
C459 C456 1.453 . S
C460 H432 0.979 . S
C460 H433 0.980 . S
C460 H434 0.983 . S
C460 C456 1.684 . S
H461 C479 0.948 . S
H462 C420 0.948 . S
H463 C438 0.979 . S
H464 C438 0.980 . S
H465 C438 0.983 . S
H466 C437 0.982 . S
H467 C437 0.979 . S
H468 C437 0.977 . S
H469 C439 0.948 . S
H470 C441 0.947 . S
H471 C442 0.948 . S
H472 C448 0.982 . S
H473 C448 0.979 . S
H474 C448 0.977 . S
H475 C449 0.979 . S
H476 C449 0.980 . S
H477 C449 0.983 . S
H478 C422 0.947 . S
C479 C422 1.392 . S
C479 C423 1.419 . S
C479 H461 0.948 . S
Zn480 O486 1.920 . S
Zn480 O492 1.898 . S
Zn480 O495 1.905 . S
Zn481 O489 1.905 . S
Zn481 O490 1.898 . S
Zn481 O498 1.920 . S
Zn482 O485 2.080 . S
Zn482 O488 2.114 . S
Zn482 O491 2.120 . S
Zn482 O493 2.120 . S
Zn482 O494 2.114 . S
Zn482 O497 2.080 . S
C483 O488 1.166 . S
C483 O489 1.182 . S
C484 O490 1.167 . S
C484 O491 1.299 . S
O485 Zn482 2.080 . S
O485 C499 1.305 . S
O486 Zn480 1.920 . S
O486 C499 1.234 . S
C487 O492 1.167 . S
C487 O493 1.299 . S
O488 Zn482 2.114 . S
O488 C483 1.166 . S
O489 Zn481 1.905 . S
O489 C483 1.182 . S
O490 Zn481 1.898 . S
O490 C484 1.167 . S
O491 Zn482 2.120 . S
O491 C484 1.299 . S
O492 Zn480 1.898 . S
O492 C487 1.167 . S
O493 Zn482 2.120 . S
O493 C487 1.299 . S
O494 Zn482 2.114 . S
O494 C496 1.166 . S
O495 Zn480 1.905 . S
O495 C496 1.182 . S
C496 O494 1.166 . S
C496 O495 1.182 . S
O497 Zn482 2.080 . S
O497 C500 1.305 . S
O498 Zn481 1.920 . S
O498 C500 1.234 . S
C499 O485 1.305 . S
C499 O486 1.234 . S
C500 O497 1.305 . S
C500 O498 1.234 . S
Zn501 O507 1.920 . S
Zn501 O513 1.898 . S
Zn501 O516 1.905 . S
Zn502 O510 1.905 . S
Zn502 O511 1.898 . S
Zn502 O519 1.920 . S
Zn503 O506 2.080 . S
Zn503 O509 2.114 . S
Zn503 O512 2.120 . S
Zn503 O514 2.120 . S
Zn503 O515 2.114 . S
Zn503 O518 2.080 . S
C504 O509 1.166 . S
C504 O510 1.182 . S
C505 O511 1.167 . S
C505 O512 1.299 . S
O506 Zn503 2.080 . S
O506 C520 1.305 . S
O507 Zn501 1.920 . S
O507 C520 1.234 . S
C508 O513 1.167 . S
C508 O514 1.299 . S
O509 Zn503 2.114 . S
O509 C504 1.166 . S
O510 Zn502 1.905 . S
O510 C504 1.182 . S
O511 Zn502 1.898 . S
O511 C505 1.167 . S
O512 Zn503 2.120 . S
O512 C505 1.299 . S
O513 Zn501 1.898 . S
O513 C508 1.167 . S
O514 Zn503 2.120 . S
O514 C508 1.299 . S
O515 Zn503 2.114 . S
O515 C517 1.166 . S
O516 Zn501 1.905 . S
O516 C517 1.182 . S
C517 O515 1.166 . S
C517 O516 1.182 . S
O518 Zn503 2.080 . S
O518 C521 1.305 . S
O519 Zn502 1.920 . S
O519 C521 1.234 . S
C520 O506 1.305 . S
C520 O507 1.234 . S
C521 O518 1.305 . S
C521 O519 1.234 . S
Zn522 O528 1.920 . S
Zn522 O534 1.898 . S
Zn522 O537 1.905 . S
Zn523 O531 1.905 . S
Zn523 O532 1.898 . S
Zn523 O540 1.920 . S
Zn524 O527 2.080 . S
Zn524 O530 2.114 . S
Zn524 O533 2.120 . S
Zn524 O535 2.120 . S
Zn524 O536 2.114 . S
Zn524 O539 2.080 . S
C525 O530 1.166 . S
C525 O531 1.182 . S
C526 O532 1.167 . S
C526 O533 1.299 . S
O527 Zn524 2.080 . S
O527 C541 1.305 . S
O528 Zn522 1.920 . S
O528 C541 1.234 . S
C529 O534 1.167 . S
C529 O535 1.299 . S
O530 Zn524 2.114 . S
O530 C525 1.166 . S
O531 Zn523 1.905 . S
O531 C525 1.182 . S
O532 Zn523 1.898 . S
O532 C526 1.167 . S
O533 Zn524 2.120 . S
O533 C526 1.299 . S
O534 Zn522 1.898 . S
O534 C529 1.167 . S
O535 Zn524 2.120 . S
O535 C529 1.299 . S
O536 Zn524 2.114 . S
O536 C538 1.166 . S
O537 Zn522 1.905 . S
O537 C538 1.182 . S
C538 O536 1.166 . S
C538 O537 1.182 . S
O539 Zn524 2.080 . S
O539 C542 1.305 . S
O540 Zn523 1.920 . S
O540 C542 1.234 . S
C541 O527 1.305 . S
C541 O528 1.234 . S
C542 O539 1.305 . S
C542 O540 1.234 . S
Zn543 O549 1.920 . S
Zn543 O555 1.898 . S
Zn543 O558 1.905 . S
Zn544 O552 1.905 . S
Zn544 O553 1.898 . S
Zn544 O561 1.920 . S
Zn545 O548 2.080 . S
Zn545 O551 2.114 . S
Zn545 O554 2.120 . S
Zn545 O556 2.120 . S
Zn545 O557 2.114 . S
Zn545 O560 2.080 . S
C546 O551 1.166 . S
C546 O552 1.182 . S
C547 O553 1.167 . S
C547 O554 1.299 . S
O548 Zn545 2.080 . S
O548 C562 1.305 . S
O549 Zn543 1.920 . S
O549 C562 1.234 . S
C550 O555 1.167 . S
C550 O556 1.299 . S
O551 Zn545 2.114 . S
O551 C546 1.166 . S
O552 Zn544 1.905 . S
O552 C546 1.182 . S
O553 Zn544 1.898 . S
O553 C547 1.167 . S
O554 Zn545 2.120 . S
O554 C547 1.299 . S
O555 Zn543 1.898 . S
O555 C550 1.167 . S
O556 Zn545 2.120 . S
O556 C550 1.299 . S
O557 Zn545 2.114 . S
O557 C559 1.166 . S
O558 Zn543 1.905 . S
O558 C559 1.182 . S
C559 O557 1.166 . S
C559 O558 1.182 . S
O560 Zn545 2.080 . S
O560 C563 1.305 . S
O561 Zn544 1.920 . S
O561 C563 1.234 . S
C562 O548 1.305 . S
C562 O549 1.234 . S
C563 O560 1.305 . S
C563 O561 1.234 . S
H564 C582 0.951 . S
H565 C584 0.951 . S
H566 C586 0.950 . S
H567 C587 0.950 . S
H568 C589 0.950 . S
H569 C592 0.950 . S
H570 C593 0.950 . S
H571 C595 0.950 . S
H572 C596 0.950 . S
H573 C597 0.951 . S
H574 C599 0.951 . S
H575 C601 0.950 . S
H576 C602 0.950 . S
H577 C604 0.950 . S
H578 C607 0.950 . S
H579 C608 0.950 . S
H580 C610 0.950 . S
H581 C611 0.950 . S
C582 H564 0.951 . S
C582 C583 1.366 . S
C582 C584 1.388 . S
C583 C582 1.366 . S
C583 C587 1.385 . S
C584 H565 0.951 . S
C584 C582 1.388 . S
C584 C585 1.366 . S
C585 C584 1.366 . S
C585 C586 1.414 . S
C585 C588 1.499 . S
C586 H566 0.950 . S
C586 C585 1.414 . S
C586 C587 1.374 . S
C587 H567 0.950 . S
C587 C583 1.385 . S
C587 C586 1.374 . S
C588 C585 1.499 . S
C588 C589 1.373 . S
C588 C590 1.389 . S
C589 H568 0.950 . S
C589 C588 1.373 . S
C589 C605 1.377 . S
C590 C588 1.389 . S
C590 C591 1.524 . S
C590 C604 1.377 . S
C591 C590 1.524 . S
C591 C592 1.397 . S
C591 C596 1.363 . S
C592 H569 0.950 . S
C592 C591 1.397 . S
C592 C593 1.334 . S
C593 H570 0.950 . S
C593 C592 1.334 . S
C593 C594 1.287 . S
C594 C593 1.287 . S
C594 C595 1.524 . S
C594 H613 0.913 . S
C595 H571 0.950 . S
C595 C594 1.524 . S
C595 C596 1.415 . S
C596 H572 0.950 . S
C596 C591 1.363 . S
C596 C595 1.415 . S
C597 H573 0.951 . S
C597 C598 1.366 . S
C597 C599 1.388 . S
C598 C597 1.366 . S
C598 C602 1.385 . S
C599 H574 0.951 . S
C599 C597 1.388 . S
C599 C600 1.366 . S
C600 C599 1.366 . S
C600 C601 1.414 . S
C600 C603 1.499 . S
C601 H575 0.950 . S
C601 C600 1.414 . S
C601 C602 1.374 . S
C602 H576 0.950 . S
C602 C598 1.385 . S
C602 C601 1.374 . S
C603 C600 1.499 . S
C603 C604 1.373 . S
C603 C605 1.389 . S
C604 H577 0.950 . S
C604 C590 1.377 . S
C604 C603 1.373 . S
C605 C589 1.377 . S
C605 C603 1.389 . S
C605 C606 1.524 . S
C606 C605 1.524 . S
C606 C607 1.397 . S
C606 C611 1.363 . S
C607 H578 0.950 . S
C607 C606 1.397 . S
C607 C608 1.334 . S
C608 H579 0.950 . S
C608 C607 1.334 . S
C608 C609 1.287 . S
C609 C608 1.287 . S
C609 C610 1.524 . S
C609 H612 0.999 . S
C610 H580 0.950 . S
C610 C609 1.524 . S
C610 C611 1.415 . S
C611 H581 0.950 . S
C611 C606 1.363 . S
C611 C610 1.415 . S
H612 C609 0.999 . S
H613 C594 0.913 . S
H614 C632 0.951 . S
H615 C634 0.951 . S
H616 C636 0.950 . S
H617 C637 0.950 . S
H618 C639 0.950 . S
H619 C642 0.950 . S
H620 C643 0.950 . S
H621 C645 0.950 . S
H622 C646 0.950 . S
H623 C647 0.951 . S
H624 C649 0.951 . S
H625 C651 0.950 . S
H626 C652 0.950 . S
H627 C654 0.950 . S
H628 C657 0.950 . S
H629 C658 0.950 . S
H630 C660 0.950 . S
H631 C661 0.950 . S
C632 H614 0.951 . S
C632 C633 1.366 . S
C632 C634 1.388 . S
C633 C632 1.366 . S
C633 C637 1.385 . S
C634 H615 0.951 . S
C634 C632 1.388 . S
C634 C635 1.366 . S
C635 C634 1.366 . S
C635 C636 1.414 . S
C635 C638 1.499 . S
C636 H616 0.950 . S
C636 C635 1.414 . S
C636 C637 1.374 . S
C637 H617 0.950 . S
C637 C633 1.385 . S
C637 C636 1.374 . S
C638 C635 1.499 . S
C638 C639 1.373 . S
C638 C640 1.389 . S
C639 H618 0.950 . S
C639 C638 1.373 . S
C639 C655 1.377 . S
C640 C638 1.389 . S
C640 C641 1.524 . S
C640 C654 1.377 . S
C641 C640 1.524 . S
C641 C642 1.397 . S
C641 C646 1.363 . S
C642 H619 0.950 . S
C642 C641 1.397 . S
C642 C643 1.334 . S
C643 H620 0.950 . S
C643 C642 1.334 . S
C643 C644 1.287 . S
C644 C643 1.287 . S
C644 C645 1.524 . S
C644 H663 0.913 . S
C645 H621 0.950 . S
C645 C644 1.524 . S
C645 C646 1.415 . S
C646 H622 0.950 . S
C646 C641 1.363 . S
C646 C645 1.415 . S
C647 H623 0.951 . S
C647 C648 1.366 . S
C647 C649 1.388 . S
C648 C647 1.366 . S
C648 C652 1.385 . S
C649 H624 0.951 . S
C649 C647 1.388 . S
C649 C650 1.366 . S
C650 C649 1.366 . S
C650 C651 1.414 . S
C650 C653 1.499 . S
C651 H625 0.950 . S
C651 C650 1.414 . S
C651 C652 1.374 . S
C652 H626 0.950 . S
C652 C648 1.385 . S
C652 C651 1.374 . S
C653 C650 1.499 . S
C653 C654 1.373 . S
C653 C655 1.389 . S
C654 H627 0.950 . S
C654 C640 1.377 . S
C654 C653 1.373 . S
C655 C639 1.377 . S
C655 C653 1.389 . S
C655 C656 1.524 . S
C656 C655 1.524 . S
C656 C657 1.397 . S
C656 C661 1.363 . S
C657 H628 0.950 . S
C657 C656 1.397 . S
C657 C658 1.334 . S
C658 H629 0.950 . S
C658 C657 1.334 . S
C658 C659 1.287 . S
C659 C658 1.287 . S
C659 C660 1.524 . S
C659 H662 0.999 . S
C660 H630 0.950 . S
C660 C659 1.524 . S
C660 C661 1.415 . S
C661 H631 0.950 . S
C661 C656 1.363 . S
C661 C660 1.415 . S
H662 C659 0.999 . S
H663 C644 0.913 . S
H664 C682 0.951 . S
H665 C684 0.951 . S
H666 C686 0.950 . S
H667 C687 0.950 . S
H668 C689 0.950 . S
H669 C692 0.950 . S
H670 C693 0.950 . S
H671 C695 0.950 . S
H672 C696 0.950 . S
H673 C697 0.951 . S
H674 C699 0.951 . S
H675 C701 0.950 . S
H676 C702 0.950 . S
H677 C704 0.950 . S
H678 C707 0.950 . S
H679 C708 0.950 . S
H680 C710 0.950 . S
H681 C711 0.950 . S
C682 H664 0.951 . S
C682 C683 1.366 . S
C682 C684 1.388 . S
C683 C682 1.366 . S
C683 C687 1.385 . S
C684 H665 0.951 . S
C684 C682 1.388 . S
C684 C685 1.366 . S
C685 C684 1.366 . S
C685 C686 1.414 . S
C685 C688 1.499 . S
C686 H666 0.950 . S
C686 C685 1.414 . S
C686 C687 1.374 . S
C687 H667 0.950 . S
C687 C683 1.385 . S
C687 C686 1.374 . S
C688 C685 1.499 . S
C688 C689 1.373 . S
C688 C690 1.389 . S
C689 H668 0.950 . S
C689 C688 1.373 . S
C689 C705 1.377 . S
C690 C688 1.389 . S
C690 C691 1.524 . S
C690 C704 1.377 . S
C691 C690 1.524 . S
C691 C692 1.397 . S
C691 C696 1.363 . S
C692 H669 0.950 . S
C692 C691 1.397 . S
C692 C693 1.334 . S
C693 H670 0.950 . S
C693 C692 1.334 . S
C693 C694 1.287 . S
C694 C693 1.287 . S
C694 C695 1.524 . S
C694 H713 0.913 . S
C695 H671 0.950 . S
C695 C694 1.524 . S
C695 C696 1.415 . S
C696 H672 0.950 . S
C696 C691 1.363 . S
C696 C695 1.415 . S
C697 H673 0.951 . S
C697 C698 1.366 . S
C697 C699 1.388 . S
C698 C697 1.366 . S
C698 C702 1.385 . S
C699 H674 0.951 . S
C699 C697 1.388 . S
C699 C700 1.366 . S
C700 C699 1.366 . S
C700 C701 1.414 . S
C700 C703 1.499 . S
C701 H675 0.950 . S
C701 C700 1.414 . S
C701 C702 1.374 . S
C702 H676 0.950 . S
C702 C698 1.385 . S
C702 C701 1.374 . S
C703 C700 1.499 . S
C703 C704 1.373 . S
C703 C705 1.389 . S
C704 H677 0.950 . S
C704 C690 1.377 . S
C704 C703 1.373 . S
C705 C689 1.377 . S
C705 C703 1.389 . S
C705 C706 1.524 . S
C706 C705 1.524 . S
C706 C707 1.397 . S
C706 C711 1.363 . S
C707 H678 0.950 . S
C707 C706 1.397 . S
C707 C708 1.334 . S
C708 H679 0.950 . S
C708 C707 1.334 . S
C708 C709 1.287 . S
C709 C708 1.287 . S
C709 C710 1.524 . S
C709 H712 0.999 . S
C710 H680 0.950 . S
C710 C709 1.524 . S
C710 C711 1.415 . S
C711 H681 0.950 . S
C711 C706 1.363 . S
C711 C710 1.415 . S
H712 C709 0.999 . S
H713 C694 0.913 . S
H714 C732 0.951 . S
H715 C734 0.951 . S
H716 C736 0.950 . S
H717 C737 0.950 . S
H718 C739 0.950 . S
H719 C742 0.950 . S
H720 C743 0.950 . S
H721 C745 0.950 . S
H722 C746 0.950 . S
H723 C747 0.951 . S
H724 C749 0.951 . S
H725 C751 0.950 . S
H726 C752 0.950 . S
H727 C754 0.950 . S
H728 C757 0.950 . S
H729 C758 0.950 . S
H730 C760 0.950 . S
H731 C761 0.950 . S
C732 H714 0.951 . S
C732 C733 1.366 . S
C732 C734 1.388 . S
C733 C732 1.366 . S
C733 C737 1.385 . S
C734 H715 0.951 . S
C734 C732 1.388 . S
C734 C735 1.366 . S
C735 C734 1.366 . S
C735 C736 1.414 . S
C735 C738 1.499 . S
C736 H716 0.950 . S
C736 C735 1.414 . S
C736 C737 1.374 . S
C737 H717 0.950 . S
C737 C733 1.385 . S
C737 C736 1.374 . S
C738 C735 1.499 . S
C738 C739 1.373 . S
C738 C740 1.389 . S
C739 H718 0.950 . S
C739 C738 1.373 . S
C739 C755 1.377 . S
C740 C738 1.389 . S
C740 C741 1.524 . S
C740 C754 1.377 . S
C741 C740 1.524 . S
C741 C742 1.397 . S
C741 C746 1.363 . S
C742 H719 0.950 . S
C742 C741 1.397 . S
C742 C743 1.334 . S
C743 H720 0.950 . S
C743 C742 1.334 . S
C743 C744 1.287 . S
C744 C743 1.287 . S
C744 C745 1.524 . S
C744 H763 0.913 . S
C745 H721 0.950 . S
C745 C744 1.524 . S
C745 C746 1.415 . S
C746 H722 0.950 . S
C746 C741 1.363 . S
C746 C745 1.415 . S
C747 H723 0.951 . S
C747 C748 1.366 . S
C747 C749 1.388 1_455 S
C748 C747 1.366 . S
C748 C752 1.385 . S
C749 H724 0.951 . S
C749 C747 1.388 1_655 S
C749 C750 1.366 . S
C750 C749 1.366 . S
C750 C751 1.414 . S
C750 C753 1.499 . S
C751 H725 0.950 . S
C751 C750 1.414 . S
C751 C752 1.374 1_655 S
C752 H726 0.950 . S
C752 C748 1.385 . S
C752 C751 1.374 1_455 S
C753 C750 1.499 . S
C753 C754 1.373 . S
C753 C755 1.389 . S
C754 H727 0.950 . S
C754 C740 1.377 . S
C754 C753 1.373 . S
C755 C739 1.377 . S
C755 C753 1.389 . S
C755 C756 1.524 . S
C756 C755 1.524 . S
C756 C757 1.397 . S
C756 C761 1.363 . S
C757 H728 0.950 . S
C757 C756 1.397 . S
C757 C758 1.334 . S
C758 H729 0.950 . S
C758 C757 1.334 . S
C758 C759 1.287 . S
C759 C758 1.287 . S
C759 C760 1.524 . S
C759 H762 0.999 . S
C760 H730 0.950 . S
C760 C759 1.524 . S
C760 C761 1.415 . S
C761 H731 0.950 . S
C761 C756 1.363 . S
C761 C760 1.415 . S
H762 C759 0.999 . S
H763 C744 0.913 . S
H764 C782 0.951 . S
H765 C784 0.951 . S
H766 C786 0.950 . S
H767 C787 0.950 . S
H768 C789 0.950 . S
H769 C792 0.950 . S
H770 C793 0.950 . S
H771 C795 0.950 . S
H772 C796 0.950 . S
H773 C797 0.951 . S
H774 C799 0.951 . S
H775 C801 0.950 . S
H776 C802 0.950 . S
H777 C804 0.950 . S
H778 C807 0.950 . S
H779 C808 0.950 . S
H780 C810 0.950 . S
H781 C811 0.952 . S
C782 H764 0.951 . S
C782 C783 1.366 . S
C782 C784 1.388 . S
C783 C782 1.366 . S
C783 C787 1.385 . S
C784 H765 0.951 . S
C784 C782 1.388 . S
C784 C785 1.366 . S
C785 C784 1.366 . S
C785 C786 1.414 . S
C785 C788 1.499 . S
C786 H766 0.950 . S
C786 C785 1.414 . S
C786 C787 1.374 . S
C787 H767 0.950 . S
C787 C783 1.385 . S
C787 C786 1.374 . S
C788 C785 1.499 . S
C788 C789 1.373 . S
C788 C790 1.389 . S
C789 H768 0.950 . S
C789 C788 1.373 . S
C789 C805 1.377 . S
C790 C788 1.389 . S
C790 C791 1.524 . S
C790 C804 1.377 . S
C791 C790 1.524 . S
C791 C792 1.397 . S
C791 C796 1.363 . S
C792 H769 0.950 . S
C792 C791 1.397 . S
C792 C793 1.334 . S
C793 H770 0.950 . S
C793 C792 1.334 . S
C793 C794 1.287 . S
C794 C793 1.287 . S
C794 C795 1.524 . S
C794 H813 0.913 . S
C795 H771 0.950 . S
C795 C794 1.524 . S
C795 C796 1.415 . S
C796 H772 0.950 . S
C796 C791 1.363 . S
C796 C795 1.415 . S
C797 H773 0.951 . S
C797 C798 1.366 . S
C797 C799 1.388 . S
C798 C797 1.366 . S
C798 C802 1.385 . S
C799 H774 0.951 . S
C799 C797 1.388 . S
C799 C800 1.366 . S
C800 C799 1.366 . S
C800 C801 1.414 . S
C800 C803 1.499 . S
C801 H775 0.950 . S
C801 C800 1.414 . S
C801 C802 1.374 . S
C802 H776 0.950 . S
C802 C798 1.385 . S
C802 C801 1.374 . S
C803 C800 1.499 . S
C803 C804 1.373 . S
C803 C805 1.389 . S
C804 H777 0.950 . S
C804 C790 1.377 . S
C804 C803 1.373 . S
C805 C789 1.377 . S
C805 C803 1.389 . S
C805 C806 1.524 . S
C806 C805 1.524 . S
C806 C807 1.397 . S
C806 C811 1.350 1_455 S
C807 H778 0.950 . S
C807 C806 1.397 . S
C807 C808 1.334 . S
C808 H779 0.950 . S
C808 C807 1.334 . S
C808 C809 1.287 1_455 S
C809 C808 1.287 1_655 S
C809 C810 1.524 . S
C809 H812 0.999 . S
C810 H780 0.950 . S
C810 C809 1.524 . S
C810 C811 1.426 . S
C811 H781 0.952 . S
C811 C806 1.350 1_655 S
C811 C810 1.426 . S
H812 C809 0.999 . S
H813 C794 0.913 . S
H814 C832 0.951 . S
H815 C834 0.951 . S
H816 C836 0.950 . S
H817 C837 0.950 . S
H818 C839 0.950 . S
H819 C842 0.950 . S
H820 C843 0.950 . S
H821 C845 0.950 . S
H822 C846 0.950 . S
H823 C847 0.951 . S
H824 C849 0.951 . S
H825 C851 0.950 . S
H826 C852 0.950 . S
H827 C854 0.950 . S
H828 C857 0.950 . S
H829 C858 0.950 . S
H830 C860 0.950 . S
H831 C861 0.950 . S
C832 H814 0.951 . S
C832 C833 1.366 . S
C832 C834 1.388 . S
C833 C832 1.366 . S
C833 C837 1.385 . S
C834 H815 0.951 . S
C834 C832 1.388 . S
C834 C835 1.366 . S
C835 C834 1.366 . S
C835 C836 1.414 . S
C835 C838 1.499 . S
C836 H816 0.950 . S
C836 C835 1.414 . S
C836 C837 1.374 . S
C837 H817 0.950 . S
C837 C833 1.385 . S
C837 C836 1.374 . S
C838 C835 1.499 . S
C838 C839 1.373 . S
C838 C840 1.389 . S
C839 H818 0.950 . S
C839 C838 1.373 . S
C839 C855 1.377 . S
C840 C838 1.389 . S
C840 C841 1.524 . S
C840 C854 1.377 . S
C841 C840 1.524 . S
C841 C842 1.397 . S
C841 C846 1.363 . S
C842 H819 0.950 . S
C842 C841 1.397 . S
C842 C843 1.334 . S
C843 H820 0.950 . S
C843 C842 1.334 . S
C843 C844 1.287 . S
C844 C843 1.287 . S
C844 C845 1.524 . S
C844 H863 0.913 . S
C845 H821 0.950 . S
C845 C844 1.524 . S
C845 C846 1.415 . S
C846 H822 0.950 . S
C846 C841 1.363 . S
C846 C845 1.415 . S
C847 H823 0.951 . S
C847 C848 1.366 . S
C847 C849 1.388 1_455 S
C848 C847 1.366 . S
C848 C852 1.385 . S
C849 H824 0.951 . S
C849 C847 1.388 1_655 S
C849 C850 1.366 . S
C850 C849 1.366 . S
C850 C851 1.414 . S
C850 C853 1.499 . S
C851 H825 0.950 . S
C851 C850 1.414 . S
C851 C852 1.374 1_655 S
C852 H826 0.950 . S
C852 C848 1.385 . S
C852 C851 1.374 1_455 S
C853 C850 1.499 . S
C853 C854 1.373 . S
C853 C855 1.389 . S
C854 H827 0.950 . S
C854 C840 1.377 . S
C854 C853 1.373 . S
C855 C839 1.377 . S
C855 C853 1.389 . S
C855 C856 1.524 . S
C856 C855 1.524 . S
C856 C857 1.397 . S
C856 C861 1.363 . S
C857 H828 0.950 . S
C857 C856 1.397 . S
C857 C858 1.334 . S
C858 H829 0.950 . S
C858 C857 1.334 . S
C858 C859 1.287 . S
C859 C858 1.287 . S
C859 C860 1.524 . S
C859 H862 0.999 . S
C860 H830 0.950 . S
C860 C859 1.524 . S
C860 C861 1.415 . S
C861 H831 0.950 . S
C861 C856 1.363 . S
C861 C860 1.415 . S
H862 C859 0.999 . S
H863 C844 0.913 . S
H864 C882 0.951 . S
H865 C884 0.951 . S
H866 C886 0.950 . S
H867 C887 0.950 . S
H868 C889 0.950 . S
H869 C892 0.950 . S
H870 C893 0.950 . S
H871 C895 0.950 . S
H872 C896 0.950 . S
H873 C897 0.951 . S
H874 C899 0.951 . S
H875 C901 0.950 . S
H876 C902 0.950 . S
H877 C904 0.950 . S
H878 C907 0.950 . S
H879 C908 0.950 . S
H880 C910 0.950 . S
H881 C911 0.950 . S
C882 H864 0.951 . S
C882 C883 1.366 . S
C882 C884 1.388 . S
C883 C882 1.366 . S
C883 C887 1.385 . S
C884 H865 0.951 . S
C884 C882 1.388 . S
C884 C885 1.366 . S
C885 C884 1.366 . S
C885 C886 1.414 . S
C885 C888 1.499 . S
C886 H866 0.950 . S
C886 C885 1.414 . S
C886 C887 1.374 . S
C887 H867 0.950 . S
C887 C883 1.385 . S
C887 C886 1.374 . S
C888 C885 1.499 . S
C888 C889 1.373 . S
C888 C890 1.389 . S
C889 H868 0.950 . S
C889 C888 1.373 . S
C889 C905 1.377 . S
C890 C888 1.389 . S
C890 C891 1.524 . S
C890 C904 1.377 . S
C891 C890 1.524 . S
C891 C892 1.397 . S
C891 C896 1.363 . S
C892 H869 0.950 . S
C892 C891 1.397 . S
C892 C893 1.334 . S
C893 H870 0.950 . S
C893 C892 1.334 . S
C893 C894 1.287 . S
C894 C893 1.287 . S
C894 C895 1.524 . S
C894 H913 0.913 . S
C895 H871 0.950 . S
C895 C894 1.524 . S
C895 C896 1.415 . S
C896 H872 0.950 . S
C896 C891 1.363 . S
C896 C895 1.415 . S
C897 H873 0.951 . S
C897 C898 1.366 . S
C897 C899 1.388 . S
C898 C897 1.366 . S
C898 C902 1.385 . S
C899 H874 0.951 . S
C899 C897 1.388 . S
C899 C900 1.366 . S
C900 C899 1.366 . S
C900 C901 1.414 . S
C900 C903 1.499 . S
C901 H875 0.950 . S
C901 C900 1.414 . S
C901 C902 1.374 . S
C902 H876 0.950 . S
C902 C898 1.385 . S
C902 C901 1.374 . S
C903 C900 1.499 . S
C903 C904 1.373 . S
C903 C905 1.389 . S
C904 H877 0.950 . S
C904 C890 1.377 . S
C904 C903 1.373 . S
C905 C889 1.377 . S
C905 C903 1.389 . S
C905 C906 1.524 . S
C906 C905 1.524 . S
C906 C907 1.397 . S
C906 C911 1.363 . S
C907 H878 0.950 . S
C907 C906 1.397 . S
C907 C908 1.334 . S
C908 H879 0.950 . S
C908 C907 1.334 . S
C908 C909 1.287 . S
C909 C908 1.287 . S
C909 C910 1.524 . S
C909 H912 0.999 . S
C910 H880 0.950 . S
C910 C909 1.524 . S
C910 C911 1.415 . S
C911 H881 0.950 . S
C911 C906 1.363 . S
C911 C910 1.415 . S
H912 C909 0.999 . S
H913 C894 0.913 . S
H914 C932 0.951 . S
H915 C934 0.951 . S
H916 C936 0.950 . S
H917 C937 0.950 . S
H918 C939 0.950 . S
H919 C942 0.950 . S
H920 C943 0.950 . S
H921 C945 0.950 . S
H922 C946 0.950 . S
H923 C947 0.951 . S
H924 C949 0.951 . S
H925 C951 0.950 . S
H926 C952 0.950 . S
H927 C954 0.950 . S
H928 C957 0.950 . S
H929 C958 0.950 . S
H930 C960 0.950 . S
H931 C961 0.950 . S
C932 H914 0.951 . S
C932 C933 1.366 . S
C932 C934 1.388 . S
C933 C932 1.366 . S
C933 C937 1.385 . S
C934 H915 0.951 . S
C934 C932 1.388 . S
C934 C935 1.366 . S
C935 C934 1.366 . S
C935 C936 1.414 . S
C935 C938 1.499 . S
C936 H916 0.950 . S
C936 C935 1.414 . S
C936 C937 1.374 . S
C937 H917 0.950 . S
C937 C933 1.385 . S
C937 C936 1.374 . S
C938 C935 1.499 . S
C938 C939 1.373 . S
C938 C940 1.389 . S
C939 H918 0.950 . S
C939 C938 1.373 . S
C939 C955 1.377 . S
C940 C938 1.389 . S
C940 C941 1.524 . S
C940 C954 1.377 . S
C941 C940 1.524 . S
C941 C942 1.397 . S
C941 C946 1.363 . S
C942 H919 0.950 . S
C942 C941 1.397 . S
C942 C943 1.334 . S
C943 H920 0.950 . S
C943 C942 1.334 . S
C943 C944 1.287 . S
C944 C943 1.287 . S
C944 C945 1.524 . S
C944 H963 0.913 . S
C945 H921 0.950 . S
C945 C944 1.524 . S
C945 C946 1.415 . S
C946 H922 0.950 . S
C946 C941 1.363 . S
C946 C945 1.415 . S
C947 H923 0.951 . S
C947 C948 1.366 . S
C947 C949 1.388 . S
C948 C947 1.366 . S
C948 C952 1.385 . S
C949 H924 0.951 . S
C949 C947 1.388 . S
C949 C950 1.366 . S
C950 C949 1.366 . S
C950 C951 1.414 . S
C950 C953 1.499 . S
C951 H925 0.950 . S
C951 C950 1.414 . S
C951 C952 1.374 . S
C952 H926 0.950 . S
C952 C948 1.385 . S
C952 C951 1.374 . S
C953 C950 1.499 . S
C953 C954 1.373 . S
C953 C955 1.389 . S
C954 H927 0.950 . S
C954 C940 1.377 . S
C954 C953 1.373 . S
C955 C939 1.377 . S
C955 C953 1.389 . S
C955 C956 1.524 . S
C956 C955 1.524 . S
C956 C957 1.397 . S
C956 C961 1.363 . S
C957 H928 0.950 . S
C957 C956 1.397 . S
C957 C958 1.334 . S
C958 H929 0.950 . S
C958 C957 1.334 . S
C958 C959 1.287 . S
C959 C958 1.287 . S
C959 C960 1.524 . S
C959 H962 0.999 . S
C960 H930 0.950 . S
C960 C959 1.524 . S
C960 C961 1.415 . S
C961 H931 0.950 . S
C961 C956 1.363 . S
C961 C960 1.415 . S
H962 C959 0.999 . S
H963 C944 0.913 . S
H964 C982 0.951 . S
H965 C984 0.951 . S
H966 C986 0.950 . S
H967 C987 0.950 . S
H968 C989 0.950 . S
H969 C992 0.950 . S
H970 C993 0.950 . S
H971 C995 0.950 . S
H972 C996 0.950 . S
H973 C997 0.951 . S
H974 C999 0.951 . S
H975 C1001 0.950 . S
H976 C1002 0.950 . S
H977 C1004 0.950 . S
H978 C1007 0.950 . S
H979 C1008 0.950 . S
H980 C1010 0.950 . S
H981 C1011 0.950 . S
C982 H964 0.951 . S
C982 C983 1.366 . S
C982 C984 1.388 . S
C983 C982 1.366 . S
C983 C987 1.385 . S
C984 H965 0.951 . S
C984 C982 1.388 . S
C984 C985 1.366 . S
C985 C984 1.366 . S
C985 C986 1.414 . S
C985 C988 1.499 . S
C986 H966 0.950 . S
C986 C985 1.414 . S
C986 C987 1.374 . S
C987 H967 0.950 . S
C987 C983 1.385 . S
C987 C986 1.374 . S
C988 C985 1.499 . S
C988 C989 1.373 . S
C988 C990 1.389 . S
C989 H968 0.950 . S
C989 C988 1.373 . S
C989 C1005 1.377 . S
C990 C988 1.389 . S
C990 C991 1.524 . S
C990 C1004 1.377 . S
C991 C990 1.524 . S
C991 C992 1.397 . S
C991 C996 1.363 . S
C992 H969 0.950 . S
C992 C991 1.397 . S
C992 C993 1.334 . S
C993 H970 0.950 . S
C993 C992 1.334 . S
C993 C994 1.287 . S
C994 C993 1.287 . S
C994 C995 1.524 . S
C994 H1013 0.913 . S
C995 H971 0.950 . S
C995 C994 1.524 . S
C995 C996 1.415 . S
C996 H972 0.950 . S
C996 C991 1.363 . S
C996 C995 1.415 . S
C997 H973 0.951 . S
C997 C998 1.366 . S
C997 C999 1.388 . S
C998 C997 1.366 . S
C998 C1002 1.385 . S
C999 H974 0.951 . S
C999 C997 1.388 . S
C999 C1000 1.366 . S
C1000 C999 1.366 . S
C1000 C1001 1.414 . S
C1000 C1003 1.499 . S
C1001 H975 0.950 . S
C1001 C1000 1.414 . S
C1001 C1002 1.374 . S
C1002 H976 0.950 . S
C1002 C998 1.385 . S
C1002 C1001 1.374 . S
C1003 C1000 1.499 . S
C1003 C1004 1.373 . S
C1003 C1005 1.389 . S
C1004 H977 0.950 . S
C1004 C990 1.377 . S
C1004 C1003 1.373 . S
C1005 C989 1.377 . S
C1005 C1003 1.389 . S
C1005 C1006 1.524 . S
C1006 C1005 1.524 . S
C1006 C1007 1.397 . S
C1006 C1011 1.363 . S
C1007 H978 0.950 . S
C1007 C1006 1.397 . S
C1007 C1008 1.334 . S
C1008 H979 0.950 . S
C1008 C1007 1.334 . S
C1008 C1009 1.287 . S
C1009 C1008 1.287 . S
C1009 C1010 1.524 . S
C1009 H1012 0.999 . S
C1010 H980 0.950 . S
C1010 C1009 1.524 . S
C1010 C1011 1.415 . S
C1011 H981 0.950 . S
C1011 C1006 1.363 . S
C1011 C1010 1.415 . S
H1012 C1009 0.999 . S
H1013 C994 0.913 . S
H1014 C1032 0.951 . S
H1015 C1034 0.951 . S
H1016 C1036 0.950 . S
H1017 C1037 0.950 . S
H1018 C1039 0.950 . S
H1019 C1042 0.950 . S
H1020 C1043 0.950 . S
H1021 C1045 0.950 . S
H1022 C1046 0.950 . S
H1023 C1047 0.951 . S
H1024 C1049 0.951 . S
H1025 C1051 0.950 . S
H1026 C1052 0.950 . S
H1027 C1054 0.950 . S
H1028 C1057 0.950 . S
H1029 C1058 0.950 . S
H1030 C1060 0.950 . S
H1031 C1061 0.950 . S
C1032 H1014 0.951 . S
C1032 C1033 1.366 . S
C1032 C1034 1.388 . S
C1033 C1032 1.366 . S
C1033 C1037 1.385 . S
C1034 H1015 0.951 . S
C1034 C1032 1.388 . S
C1034 C1035 1.366 . S
C1035 C1034 1.366 . S
C1035 C1036 1.414 . S
C1035 C1038 1.499 . S
C1036 H1016 0.950 . S
C1036 C1035 1.414 . S
C1036 C1037 1.374 . S
C1037 H1017 0.950 . S
C1037 C1033 1.385 . S
C1037 C1036 1.374 . S
C1038 C1035 1.499 . S
C1038 C1039 1.373 . S
C1038 C1040 1.389 . S
C1039 H1018 0.950 . S
C1039 C1038 1.373 . S
C1039 C1055 1.377 . S
C1040 C1038 1.389 . S
C1040 C1041 1.524 . S
C1040 C1054 1.377 . S
C1041 C1040 1.524 . S
C1041 C1042 1.397 . S
C1041 C1046 1.363 . S
C1042 H1019 0.950 . S
C1042 C1041 1.397 . S
C1042 C1043 1.334 . S
C1043 H1020 0.950 . S
C1043 C1042 1.334 . S
C1043 C1044 1.287 . S
C1044 C1043 1.287 . S
C1044 C1045 1.524 . S
C1044 H1063 0.913 . S
C1045 H1021 0.950 . S
C1045 C1044 1.524 . S
C1045 C1046 1.415 . S
C1046 H1022 0.950 . S
C1046 C1041 1.363 . S
C1046 C1045 1.415 . S
C1047 H1023 0.951 . S
C1047 C1048 1.366 . S
C1047 C1049 1.388 . S
C1048 C1047 1.366 . S
C1048 C1052 1.385 . S
C1049 H1024 0.951 . S
C1049 C1047 1.388 . S
C1049 C1050 1.366 . S
C1050 C1049 1.366 . S
C1050 C1051 1.414 . S
C1050 C1053 1.499 . S
C1051 H1025 0.950 . S
C1051 C1050 1.414 . S
C1051 C1052 1.374 . S
C1052 H1026 0.950 . S
C1052 C1048 1.385 . S
C1052 C1051 1.374 . S
C1053 C1050 1.499 . S
C1053 C1054 1.373 . S
C1053 C1055 1.389 . S
C1054 H1027 0.950 . S
C1054 C1040 1.377 . S
C1054 C1053 1.373 . S
C1055 C1039 1.377 . S
C1055 C1053 1.389 . S
C1055 C1056 1.524 . S
C1056 C1055 1.524 . S
C1056 C1057 1.397 . S
C1056 C1061 1.363 . S
C1057 H1028 0.950 . S
C1057 C1056 1.397 . S
C1057 C1058 1.334 . S
C1058 H1029 0.950 . S
C1058 C1057 1.334 . S
C1058 C1059 1.287 . S
C1059 C1058 1.287 . S
C1059 C1060 1.524 . S
C1059 H1062 0.999 . S
C1060 H1030 0.950 . S
C1060 C1059 1.524 . S
C1060 C1061 1.415 . S
C1061 H1031 0.950 . S
C1061 C1056 1.363 . S
C1061 C1060 1.415 . S
H1062 C1059 0.999 . S
H1063 C1044 0.913 . S
H1064 C1082 0.951 . S
H1065 C1084 0.951 . S
H1066 C1086 0.950 . S
H1067 C1087 0.950 . S
H1068 C1089 0.950 . S
H1069 C1092 0.950 . S
H1070 C1093 0.950 . S
H1071 C1095 0.950 . S
H1072 C1096 0.950 . S
H1073 C1097 0.951 . S
H1074 C1099 0.951 . S
H1075 C1101 0.950 . S
H1076 C1102 0.950 . S
H1077 C1104 0.950 . S
H1078 C1107 0.950 . S
H1079 C1108 0.950 . S
H1080 C1110 0.950 . S
H1081 C1111 0.950 . S
C1082 H1064 0.951 . S
C1082 C1083 1.366 . S
C1082 C1084 1.388 . S
C1083 C1082 1.366 . S
C1083 C1087 1.385 . S
C1084 H1065 0.951 . S
C1084 C1082 1.388 . S
C1084 C1085 1.366 . S
C1085 C1084 1.366 . S
C1085 C1086 1.414 . S
C1085 C1088 1.499 . S
C1086 H1066 0.950 . S
C1086 C1085 1.414 . S
C1086 C1087 1.374 . S
C1087 H1067 0.950 . S
C1087 C1083 1.385 . S
C1087 C1086 1.374 . S
C1088 C1085 1.499 . S
C1088 C1089 1.373 . S
C1088 C1090 1.389 . S
C1089 H1068 0.950 . S
C1089 C1088 1.373 . S
C1089 C1105 1.377 . S
C1090 C1088 1.389 . S
C1090 C1091 1.524 . S
C1090 C1104 1.377 . S
C1091 C1090 1.524 . S
C1091 C1092 1.397 . S
C1091 C1096 1.363 . S
C1092 H1069 0.950 . S
C1092 C1091 1.397 . S
C1092 C1093 1.334 . S
C1093 H1070 0.950 . S
C1093 C1092 1.334 . S
C1093 C1094 1.287 . S
C1094 C1093 1.287 . S
C1094 C1095 1.524 . S
C1094 H1113 0.913 . S
C1095 H1071 0.950 . S
C1095 C1094 1.524 . S
C1095 C1096 1.415 . S
C1096 H1072 0.950 . S
C1096 C1091 1.363 . S
C1096 C1095 1.415 . S
C1097 H1073 0.951 . S
C1097 C1098 1.366 . S
C1097 C1099 1.388 . S
C1098 C1097 1.366 . S
C1098 C1102 1.385 . S
C1099 H1074 0.951 . S
C1099 C1097 1.388 . S
C1099 C1100 1.366 . S
C1100 C1099 1.366 . S
C1100 C1101 1.414 . S
C1100 C1103 1.499 . S
C1101 H1075 0.950 . S
C1101 C1100 1.414 . S
C1101 C1102 1.374 . S
C1102 H1076 0.950 . S
C1102 C1098 1.385 . S
C1102 C1101 1.374 . S
C1103 C1100 1.499 . S
C1103 C1104 1.373 . S
C1103 C1105 1.389 . S
C1104 H1077 0.950 . S
C1104 C1090 1.377 . S
C1104 C1103 1.373 . S
C1105 C1089 1.377 . S
C1105 C1103 1.389 . S
C1105 C1106 1.524 . S
C1106 C1105 1.524 . S
C1106 C1107 1.397 . S
C1106 C1111 1.363 . S
C1107 H1078 0.950 . S
C1107 C1106 1.397 . S
C1107 C1108 1.334 . S
C1108 H1079 0.950 . S
C1108 C1107 1.334 . S
C1108 C1109 1.287 . S
C1109 C1108 1.287 . S
C1109 C1110 1.524 . S
C1109 H1112 0.999 . S
C1110 H1080 0.950 . S
C1110 C1109 1.524 . S
C1110 C1111 1.415 . S
C1111 H1081 0.950 . S
C1111 C1106 1.363 . S
C1111 C1110 1.415 . S
H1112 C1109 0.999 . S
H1113 C1094 0.913 . S
H1114 C1132 0.951 . S
H1115 C1134 0.951 . S
H1116 C1136 0.950 . S
H1117 C1137 0.950 . S
H1118 C1139 0.950 . S
H1119 C1142 0.950 . S
H1120 C1143 0.950 . S
H1121 C1145 0.950 . S
H1122 C1146 0.950 . S
H1123 C1147 0.951 . S
H1124 C1149 0.951 . S
H1125 C1151 0.950 . S
H1126 C1152 0.950 . S
H1127 C1154 0.950 . S
H1128 C1157 0.950 . S
H1129 C1158 0.950 . S
H1130 C1160 0.950 . S
H1131 C1161 0.950 . S
C1132 H1114 0.951 . S
C1132 C1133 1.366 . S
C1132 C1134 1.388 . S
C1133 C1132 1.366 . S
C1133 C1137 1.385 . S
C1134 H1115 0.951 . S
C1134 C1132 1.388 . S
C1134 C1135 1.366 . S
C1135 C1134 1.366 . S
C1135 C1136 1.414 . S
C1135 C1138 1.499 . S
C1136 H1116 0.950 . S
C1136 C1135 1.414 . S
C1136 C1137 1.374 . S
C1137 H1117 0.950 . S
C1137 C1133 1.385 . S
C1137 C1136 1.374 . S
C1138 C1135 1.499 . S
C1138 C1139 1.373 . S
C1138 C1140 1.389 . S
C1139 H1118 0.950 . S
C1139 C1138 1.373 . S
C1139 C1155 1.377 . S
C1140 C1138 1.389 . S
C1140 C1141 1.524 . S
C1140 C1154 1.377 . S
C1141 C1140 1.524 . S
C1141 C1142 1.397 . S
C1141 C1146 1.363 . S
C1142 H1119 0.950 . S
C1142 C1141 1.397 . S
C1142 C1143 1.334 . S
C1143 H1120 0.950 . S
C1143 C1142 1.334 . S
C1143 C1144 1.287 . S
C1144 C1143 1.287 . S
C1144 C1145 1.524 . S
C1144 H1163 0.913 . S
C1145 H1121 0.950 . S
C1145 C1144 1.524 . S
C1145 C1146 1.415 . S
C1146 H1122 0.950 . S
C1146 C1141 1.363 . S
C1146 C1145 1.415 . S
C1147 H1123 0.951 . S
C1147 C1148 1.366 . S
C1147 C1149 1.388 . S
C1148 C1147 1.366 . S
C1148 C1152 1.385 . S
C1149 H1124 0.951 . S
C1149 C1147 1.388 . S
C1149 C1150 1.366 . S
C1150 C1149 1.366 . S
C1150 C1151 1.414 . S
C1150 C1153 1.499 . S
C1151 H1125 0.950 . S
C1151 C1150 1.414 . S
C1151 C1152 1.374 . S
C1152 H1126 0.950 . S
C1152 C1148 1.385 . S
C1152 C1151 1.374 . S
C1153 C1150 1.499 . S
C1153 C1154 1.373 . S
C1153 C1155 1.389 . S
C1154 H1127 0.950 . S
C1154 C1140 1.377 . S
C1154 C1153 1.373 . S
C1155 C1139 1.377 . S
C1155 C1153 1.389 . S
C1155 C1156 1.524 . S
C1156 C1155 1.524 . S
C1156 C1157 1.397 . S
C1156 C1161 1.363 . S
C1157 H1128 0.950 . S
C1157 C1156 1.397 . S
C1157 C1158 1.334 . S
C1158 H1129 0.950 . S
C1158 C1157 1.334 . S
C1158 C1159 1.287 . S
C1159 C1158 1.287 . S
C1159 C1160 1.524 . S
C1159 H1162 0.999 . S
C1160 H1130 0.950 . S
C1160 C1159 1.524 . S
C1160 C1161 1.415 . S
C1161 H1131 0.950 . S
C1161 C1156 1.363 . S
C1161 C1160 1.415 . S
H1162 C1159 0.999 . S
H1163 C1144 0.913 . S
H1164 C1182 0.951 . S
H1165 C1184 0.951 . S
H1166 C1186 0.950 . S
H1167 C1187 0.950 . S
H1168 C1189 0.950 . S
H1169 C1192 0.950 . S
H1170 C1193 0.950 . S
H1171 C1195 0.950 1_545 S
H1172 C1196 0.950 . S
H1173 C1197 0.951 . S
H1174 C1199 0.951 . S
H1175 C1201 0.950 . S
H1176 C1202 0.950 . S
H1177 C1204 0.950 . S
H1178 C1207 0.950 . S
H1179 C1208 0.950 . S
H1180 C1210 0.950 . S
H1181 C1211 0.950 . S
C1182 H1164 0.951 . S
C1182 C1183 1.366 . S
C1182 C1184 1.388 . S
C1183 C1182 1.366 . S
C1183 C1187 1.385 . S
C1184 H1165 0.951 . S
C1184 C1182 1.388 . S
C1184 C1185 1.366 . S
C1185 C1184 1.366 . S
C1185 C1186 1.414 . S
C1185 C1188 1.499 . S
C1186 H1166 0.950 . S
C1186 C1185 1.414 . S
C1186 C1187 1.374 . S
C1187 H1167 0.950 . S
C1187 C1183 1.385 . S
C1187 C1186 1.374 . S
C1188 C1185 1.499 . S
C1188 C1189 1.373 . S
C1188 C1190 1.389 . S
C1189 H1168 0.950 . S
C1189 C1188 1.373 . S
C1189 C1205 1.377 1_565 S
C1190 C1188 1.389 . S
C1190 C1191 1.524 . S
C1190 C1204 1.377 1_565 S
C1191 C1190 1.524 . S
C1191 C1192 1.397 . S
C1191 C1196 1.363 1_565 S
C1192 H1169 0.950 . S
C1192 C1191 1.397 . S
C1192 C1193 1.334 . S
C1193 H1170 0.950 . S
C1193 C1192 1.334 . S
C1193 C1194 1.287 . S
C1194 C1193 1.287 . S
C1194 C1195 1.524 . S
C1194 H1213 0.913 . S
C1195 H1171 0.950 1_565 S
C1195 C1194 1.524 . S
C1195 C1196 1.415 1_565 S
C1196 H1172 0.950 . S
C1196 C1191 1.363 1_545 S
C1196 C1195 1.415 1_545 S
C1197 H1173 0.951 . S
C1197 C1198 1.366 . S
C1197 C1199 1.388 . S
C1198 C1197 1.366 . S
C1198 C1202 1.385 . S
C1199 H1174 0.951 . S
C1199 C1197 1.388 . S
C1199 C1200 1.366 . S
C1200 C1199 1.366 . S
C1200 C1201 1.414 . S
C1200 C1203 1.499 . S
C1201 H1175 0.950 . S
C1201 C1200 1.414 . S
C1201 C1202 1.374 . S
C1202 H1176 0.950 . S
C1202 C1198 1.385 . S
C1202 C1201 1.374 . S
C1203 C1200 1.499 . S
C1203 C1204 1.373 . S
C1203 C1205 1.389 . S
C1204 H1177 0.950 . S
C1204 C1190 1.377 1_545 S
C1204 C1203 1.373 . S
C1205 C1189 1.377 1_545 S
C1205 C1203 1.389 . S
C1205 C1206 1.524 . S
C1206 C1205 1.524 . S
C1206 C1207 1.397 . S
C1206 C1211 1.363 . S
C1207 H1178 0.950 . S
C1207 C1206 1.397 . S
C1207 C1208 1.334 . S
C1208 H1179 0.950 . S
C1208 C1207 1.334 . S
C1208 C1209 1.287 . S
C1209 C1208 1.287 . S
C1209 C1210 1.524 . S
C1209 H1212 0.999 . S
C1210 H1180 0.950 . S
C1210 C1209 1.524 . S
C1210 C1211 1.415 . S
C1211 H1181 0.950 . S
C1211 C1206 1.363 . S
C1211 C1210 1.415 . S
H1212 C1209 0.999 . S
H1213 C1194 0.913 . S
H1214 C1232 0.951 . S
H1215 C1234 0.951 . S
H1216 C1236 0.950 . S
H1217 C1237 0.950 . S
H1218 C1239 0.950 1_545 S
H1219 C1242 0.950 . S
H1220 C1243 0.950 1_545 S
H1221 C1245 0.950 . S
H1222 C1246 0.950 . S
H1223 C1247 0.951 . S
H1224 C1249 0.951 . S
H1225 C1251 0.950 . S
H1226 C1252 0.950 . S
H1227 C1254 0.950 . S
H1228 C1257 0.950 . S
H1229 C1258 0.950 . S
H1230 C1260 0.950 . S
H1231 C1261 0.950 . S
C1232 H1214 0.951 . S
C1232 C1233 1.366 . S
C1232 C1234 1.388 . S
C1233 C1232 1.366 . S
C1233 C1237 1.385 . S
C1234 H1215 0.951 . S
C1234 C1232 1.388 . S
C1234 C1235 1.366 . S
C1235 C1234 1.366 . S
C1235 C1236 1.414 . S
C1235 C1238 1.522 . S
C1236 H1216 0.950 . S
C1236 C1235 1.414 . S
C1236 C1237 1.374 . S
C1237 H1217 0.950 . S
C1237 C1233 1.385 . S
C1237 C1236 1.374 . S
C1238 C1235 1.522 . S
C1238 C1239 1.369 1_545 S
C1238 C1240 1.371 1_545 S
C1239 H1218 0.950 1_565 S
C1239 C1238 1.369 1_565 S
C1239 C1255 1.377 . S
C1240 C1238 1.371 1_565 S
C1240 C1241 1.524 . S
C1240 C1254 1.377 . S
C1241 C1240 1.524 . S
C1241 C1242 1.397 . S
C1241 C1246 1.363 . S
C1242 H1219 0.950 . S
C1242 C1241 1.397 . S
C1242 C1243 1.334 . S
C1243 H1220 0.950 1_565 S
C1243 C1242 1.334 . S
C1243 C1244 1.287 . S
C1244 C1243 1.287 . S
C1244 C1245 1.524 . S
C1244 H1263 0.913 . S
C1245 H1221 0.950 . S
C1245 C1244 1.524 . S
C1245 C1246 1.415 . S
C1246 H1222 0.950 . S
C1246 C1241 1.363 . S
C1246 C1245 1.415 . S
C1247 H1223 0.951 . S
C1247 C1248 1.366 . S
C1247 C1249 1.388 . S
C1248 C1247 1.366 . S
C1248 C1252 1.385 . S
C1249 H1224 0.951 . S
C1249 C1247 1.388 . S
C1249 C1250 1.366 . S
C1250 C1249 1.366 . S
C1250 C1251 1.414 . S
C1250 C1253 1.499 . S
C1251 H1225 0.950 . S
C1251 C1250 1.414 . S
C1251 C1252 1.374 . S
C1252 H1226 0.950 . S
C1252 C1248 1.385 . S
C1252 C1251 1.374 . S
C1253 C1250 1.499 . S
C1253 C1254 1.373 . S
C1253 C1255 1.389 . S
C1254 H1227 0.950 . S
C1254 C1240 1.377 . S
C1254 C1253 1.373 . S
C1255 C1239 1.377 . S
C1255 C1253 1.389 . S
C1255 C1256 1.524 . S
C1256 C1255 1.524 . S
C1256 C1257 1.397 . S
C1256 C1261 1.363 . S
C1257 H1228 0.950 . S
C1257 C1256 1.397 . S
C1257 C1258 1.334 . S
C1258 H1229 0.950 . S
C1258 C1257 1.334 . S
C1258 C1259 1.287 . S
C1259 C1258 1.287 . S
C1259 C1260 1.524 . S
C1259 H1262 0.999 . S
C1260 H1230 0.950 . S
C1260 C1259 1.524 . S
C1260 C1261 1.415 . S
C1261 H1231 0.950 . S
C1261 C1256 1.363 . S
C1261 C1260 1.415 . S
H1262 C1259 0.999 . S
H1263 C1244 0.913 . S
H1264 C1282 0.951 . S
H1265 C1284 0.951 . S
H1266 C1286 0.950 . S
H1267 C1287 0.950 . S
H1268 C1289 0.950 . S
H1269 C1292 0.950 . S
H1270 C1293 0.950 . S
H1271 C1295 0.950 . S
H1272 C1296 0.950 1_565 S
H1273 C1297 0.951 . S
H1274 C1299 0.951 . S
H1275 C1301 0.950 . S
H1276 C1302 0.950 . S
H1277 C1304 0.950 . S
H1278 C1307 0.950 . S
H1279 C1308 0.950 . S
H1280 C1310 0.950 . S
H1281 C1311 0.950 . S
C1282 H1264 0.951 . S
C1282 C1283 1.366 . S
C1282 C1284 1.388 . S
C1283 C1282 1.366 . S
C1283 C1287 1.385 . S
C1284 H1265 0.951 . S
C1284 C1282 1.388 . S
C1284 C1285 1.366 . S
C1285 C1284 1.366 . S
C1285 C1286 1.414 . S
C1285 C1288 1.499 1_545 S
C1286 H1266 0.950 . S
C1286 C1285 1.414 . S
C1286 C1287 1.374 . S
C1287 H1267 0.950 . S
C1287 C1283 1.385 . S
C1287 C1286 1.374 . S
C1288 C1285 1.499 1_565 S
C1288 C1289 1.373 . S
C1288 C1290 1.389 . S
C1289 H1268 0.950 . S
C1289 C1288 1.373 . S
C1289 C1305 1.377 . S
C1290 C1288 1.389 . S
C1290 C1291 1.524 1_565 S
C1290 C1304 1.377 . S
C1291 C1290 1.524 1_545 S
C1291 C1292 1.397 . S
C1291 C1296 1.363 . S
C1292 H1269 0.950 . S
C1292 C1291 1.397 . S
C1292 C1293 1.334 . S
C1293 H1270 0.950 . S
C1293 C1292 1.334 . S
C1293 C1294 1.287 . S
C1294 C1293 1.287 . S
C1294 C1295 1.524 . S
C1294 H1313 0.913 . S
C1295 H1271 0.950 . S
C1295 C1294 1.524 . S
C1295 C1296 1.415 . S
C1296 H1272 0.950 1_545 S
C1296 C1291 1.363 . S
C1296 C1295 1.415 . S
C1297 H1273 0.951 . S
C1297 C1298 1.366 . S
C1297 C1299 1.388 . S
C1298 C1297 1.366 . S
C1298 C1302 1.385 . S
C1299 H1274 0.951 . S
C1299 C1297 1.388 . S
C1299 C1300 1.366 . S
C1300 C1299 1.366 . S
C1300 C1301 1.414 . S
C1300 C1303 1.499 . S
C1301 H1275 0.950 . S
C1301 C1300 1.414 . S
C1301 C1302 1.374 . S
C1302 H1276 0.950 . S
C1302 C1298 1.385 . S
C1302 C1301 1.374 . S
C1303 C1300 1.499 . S
C1303 C1304 1.373 . S
C1303 C1305 1.389 . S
C1304 H1277 0.950 . S
C1304 C1290 1.377 . S
C1304 C1303 1.373 . S
C1305 C1289 1.377 . S
C1305 C1303 1.389 . S
C1305 C1306 1.524 . S
C1306 C1305 1.524 . S
C1306 C1307 1.397 . S
C1306 C1311 1.363 . S
C1307 H1278 0.950 . S
C1307 C1306 1.397 . S
C1307 C1308 1.334 . S
C1308 H1279 0.950 . S
C1308 C1307 1.334 . S
C1308 C1309 1.287 . S
C1309 C1308 1.287 . S
C1309 C1310 1.524 . S
C1309 H1312 0.999 . S
C1310 H1280 0.950 . S
C1310 C1309 1.524 . S
C1310 C1311 1.415 . S
C1311 H1281 0.950 . S
C1311 C1306 1.363 . S
C1311 C1310 1.415 . S
H1312 C1309 0.999 . S
H1313 C1294 0.913 . S
H1314 C1332 0.951 . S
H1315 C1334 0.951 . S
H1316 C1336 0.950 . S
H1317 C1337 0.950 . S
H1318 C1339 0.955 . S
H1319 C1342 0.950 . S
H1320 C1343 0.950 . S
H1321 C1345 0.950 . S
H1322 C1346 0.950 . S
H1323 C1347 0.951 . S
H1324 C1349 0.951 . S
H1325 C1351 0.950 . S
H1326 C1352 0.950 . S
H1327 C1354 0.950 . S
H1328 C1357 0.950 . S
H1329 C1358 0.950 . S
H1330 C1360 0.950 . S
H1331 C1361 0.950 . S
C1332 H1314 0.951 . S
C1332 C1333 1.366 . S
C1332 C1334 1.388 . S
C1333 C1332 1.366 . S
C1333 C1337 1.385 . S
C1334 H1315 0.951 . S
C1334 C1332 1.388 . S
C1334 C1335 1.366 . S
C1335 C1334 1.366 . S
C1335 C1336 1.414 . S
C1335 C1338 1.499 . S
C1336 H1316 0.950 . S
C1336 C1335 1.414 . S
C1336 C1337 1.374 . S
C1337 H1317 0.950 . S
C1337 C1333 1.385 . S
C1337 C1336 1.374 . S
C1338 C1335 1.499 . S
C1338 C1339 1.373 1_565 S
C1338 C1340 1.389 . S
C1339 H1318 0.955 . S
C1339 C1338 1.373 1_545 S
C1339 C1355 1.377 . S
C1340 C1338 1.389 . S
C1340 C1341 1.524 . S
C1340 C1354 1.377 1_565 S
C1341 C1340 1.524 . S
C1341 C1342 1.397 . S
C1341 C1346 1.363 . S
C1342 H1319 0.950 . S
C1342 C1341 1.397 . S
C1342 C1343 1.334 . S
C1343 H1320 0.950 . S
C1343 C1342 1.334 . S
C1343 C1344 1.287 . S
C1344 C1343 1.287 . S
C1344 C1345 1.524 . S
C1344 H1363 0.913 . S
C1345 H1321 0.950 . S
C1345 C1344 1.524 . S
C1345 C1346 1.415 . S
C1346 H1322 0.950 . S
C1346 C1341 1.363 . S
C1346 C1345 1.415 . S
C1347 H1323 0.951 . S
C1347 C1348 1.366 . S
C1347 C1349 1.388 . S
C1348 C1347 1.366 . S
C1348 C1352 1.385 . S
C1349 H1324 0.951 . S
C1349 C1347 1.388 . S
C1349 C1350 1.366 . S
C1350 C1349 1.366 . S
C1350 C1351 1.414 . S
C1350 C1353 1.499 . S
C1351 H1325 0.950 . S
C1351 C1350 1.414 . S
C1351 C1352 1.374 . S
C1352 H1326 0.950 . S
C1352 C1348 1.385 . S
C1352 C1351 1.374 . S
C1353 C1350 1.499 . S
C1353 C1354 1.373 . S
C1353 C1355 1.389 . S
C1354 H1327 0.950 . S
C1354 C1340 1.377 1_545 S
C1354 C1353 1.373 . S
C1355 C1339 1.377 . S
C1355 C1353 1.389 . S
C1355 C1356 1.524 . S
C1356 C1355 1.524 . S
C1356 C1357 1.397 . S
C1356 C1361 1.363 . S
C1357 H1328 0.950 . S
C1357 C1356 1.397 . S
C1357 C1358 1.334 1_455 S
C1358 H1329 0.950 . S
C1358 C1357 1.334 1_655 S
C1358 C1359 1.287 . S
C1359 C1358 1.287 . S
C1359 C1360 1.524 . S
C1359 H1362 0.999 . S
C1360 H1330 0.950 . S
C1360 C1359 1.524 . S
C1360 C1361 1.415 1_655 S
C1361 H1331 0.950 . S
C1361 C1356 1.363 . S
C1361 C1360 1.415 1_455 S
H1362 C1359 0.999 . S
H1363 C1344 0.913 . S
H1364 C1382 0.951 . S
H1365 C1384 0.951 . S
H1366 C1386 0.950 . S
H1367 C1387 0.998 . S
H1368 C1389 0.950 . S
H1369 C1392 0.950 . S
H1370 C1393 0.950 . S
H1371 C1395 0.950 . S
H1372 C1396 0.950 . S
H1373 C1397 0.951 . S
H1374 C1399 0.951 . S
H1375 C1401 0.950 . S
H1376 C1402 0.950 . S
H1377 C1404 0.950 . S
H1378 C1407 0.950 . S
H1379 C1408 0.950 . S
H1380 C1410 0.950 . S
H1381 C1411 0.950 . S
C1382 H1364 0.951 . S
C1382 C1383 1.366 . S
C1382 C1384 1.388 1_554 S
C1383 C1382 1.366 . S
C1383 C1387 1.445 . S
C1384 H1365 0.951 . S
C1384 C1382 1.388 1_556 S
C1384 C1385 1.366 . S
C1385 C1384 1.366 . S
C1385 C1386 1.414 . S
C1385 C1388 1.499 . S
C1386 H1366 0.950 . S
C1386 C1385 1.414 . S
C1386 C1387 1.273 1_556 S
C1387 H1367 0.998 . S
C1387 C1383 1.445 . S
C1387 C1386 1.273 1_554 S
C1388 C1385 1.499 . S
C1388 C1389 1.373 . S
C1388 C1390 1.389 . S
C1389 H1368 0.950 . S
C1389 C1388 1.373 . S
C1389 C1405 1.377 . S
C1390 C1388 1.389 . S
C1390 C1391 1.524 . S
C1390 C1404 1.377 . S
C1391 C1390 1.524 . S
C1391 C1392 1.397 . S
C1391 C1396 1.363 . S
C1392 H1369 0.950 . S
C1392 C1391 1.397 . S
C1392 C1393 1.334 . S
C1393 H1370 0.950 . S
C1393 C1392 1.334 . S
C1393 C1394 1.287 . S
C1394 C1393 1.287 . S
C1394 C1395 1.524 . S
C1394 H1413 0.913 . S
C1395 H1371 0.950 . S
C1395 C1394 1.524 . S
C1395 C1396 1.415 . S
C1396 H1372 0.950 . S
C1396 C1391 1.363 . S
C1396 C1395 1.415 . S
C1397 H1373 0.951 . S
C1397 C1398 1.366 . S
C1397 C1399 1.388 . S
C1398 C1397 1.366 . S
C1398 C1402 1.385 . S
C1399 H1374 0.951 . S
C1399 C1397 1.388 . S
C1399 C1400 1.366 . S
C1400 C1399 1.366 . S
C1400 C1401 1.414 . S
C1400 C1403 1.499 . S
C1401 H1375 0.950 . S
C1401 C1400 1.414 . S
C1401 C1402 1.374 . S
C1402 H1376 0.950 . S
C1402 C1398 1.385 . S
C1402 C1401 1.374 . S
C1403 C1400 1.499 . S
C1403 C1404 1.373 . S
C1403 C1405 1.389 . S
C1404 H1377 0.950 . S
C1404 C1390 1.377 . S
C1404 C1403 1.373 . S
C1405 C1389 1.377 . S
C1405 C1403 1.389 . S
C1405 C1406 1.524 . S
C1406 C1405 1.524 . S
C1406 C1407 1.397 . S
C1406 C1411 1.363 . S
C1407 H1378 0.950 . S
C1407 C1406 1.397 . S
C1407 C1408 1.334 . S
C1408 H1379 0.950 . S
C1408 C1407 1.334 . S
C1408 C1409 1.287 . S
C1409 C1408 1.287 . S
C1409 C1410 1.524 . S
C1409 H1412 0.999 . S
C1410 H1380 0.950 . S
C1410 C1409 1.524 . S
C1410 C1411 1.415 . S
C1411 H1381 0.950 . S
C1411 C1406 1.363 . S
C1411 C1410 1.415 . S
H1412 C1409 0.999 . S
H1413 C1394 0.913 . S
H1414 C1432 0.951 . S
H1415 C1434 0.951 . S
H1416 C1436 0.950 . S
H1417 C1437 0.950 . S
H1418 C1439 0.950 . S
H1419 C1442 0.950 . S
H1420 C1443 0.950 . S
H1421 C1445 0.950 . S
H1422 C1446 0.950 . S
H1423 C1447 0.951 . S
H1424 C1449 0.951 . S
H1425 C1451 0.950 . S
H1426 C1452 0.950 . S
H1427 C1454 0.950 . S
H1428 C1457 0.950 . S
H1429 C1458 0.950 . S
H1430 C1460 0.950 1_655 S
H1431 C1461 0.950 . S
C1432 H1414 0.951 . S
C1432 C1433 1.366 . S
C1432 C1434 1.388 . S
C1433 C1432 1.366 . S
C1433 C1437 1.385 . S
C1434 H1415 0.951 . S
C1434 C1432 1.388 . S
C1434 C1435 1.366 . S
C1435 C1434 1.366 . S
C1435 C1436 1.414 . S
C1435 C1438 1.499 . S
C1436 H1416 0.950 . S
C1436 C1435 1.414 . S
C1436 C1437 1.374 . S
C1437 H1417 0.950 . S
C1437 C1433 1.385 . S
C1437 C1436 1.374 . S
C1438 C1435 1.499 . S
C1438 C1439 1.373 . S
C1438 C1440 1.389 . S
C1439 H1418 0.950 . S
C1439 C1438 1.373 . S
C1439 C1455 1.377 . S
C1440 C1438 1.389 . S
C1440 C1441 1.524 . S
C1440 C1454 1.377 . S
C1441 C1440 1.524 . S
C1441 C1442 1.397 . S
C1441 C1446 1.363 . S
C1442 H1419 0.950 . S
C1442 C1441 1.397 . S
C1442 C1443 1.334 . S
C1443 H1420 0.950 . S
C1443 C1442 1.334 . S
C1443 C1444 1.287 . S
C1444 C1443 1.287 . S
C1444 C1445 1.524 . S
C1444 H1463 0.913 . S
C1445 H1421 0.950 . S
C1445 C1444 1.524 . S
C1445 C1446 1.415 . S
C1446 H1422 0.950 . S
C1446 C1441 1.363 . S
C1446 C1445 1.415 . S
C1447 H1423 0.951 . S
C1447 C1448 1.366 . S
C1447 C1449 1.388 . S
C1448 C1447 1.366 . S
C1448 C1452 1.385 . S
C1449 H1424 0.951 . S
C1449 C1447 1.388 . S
C1449 C1450 1.366 . S
C1450 C1449 1.366 . S
C1450 C1451 1.414 . S
C1450 C1453 1.499 . S
C1451 H1425 0.950 . S
C1451 C1450 1.414 . S
C1451 C1452 1.374 . S
C1452 H1426 0.950 . S
C1452 C1448 1.385 . S
C1452 C1451 1.374 . S
C1453 C1450 1.499 . S
C1453 C1454 1.373 . S
C1453 C1455 1.389 . S
C1454 H1427 0.950 . S
C1454 C1440 1.377 . S
C1454 C1453 1.373 . S
C1455 C1439 1.377 . S
C1455 C1453 1.389 . S
C1455 C1456 1.524 . S
C1456 C1455 1.524 . S
C1456 C1457 1.397 . S
C1456 C1461 1.363 . S
C1457 H1428 0.950 . S
C1457 C1456 1.397 . S
C1457 C1458 1.334 . S
C1458 H1429 0.950 . S
C1458 C1457 1.334 . S
C1458 C1459 1.287 . S
C1459 C1458 1.287 . S
C1459 C1460 1.524 . S
C1459 H1462 0.999 . S
C1460 H1430 0.950 1_455 S
C1460 C1459 1.524 . S
C1460 C1461 1.415 . S
C1461 H1431 0.950 . S
C1461 C1456 1.363 . S
C1461 C1460 1.415 . S
H1462 C1459 0.999 . S
H1463 C1444 0.913 . S
H1464 C1482 0.951 . S
H1465 C1484 0.951 . S
H1466 C1486 0.950 . S
H1467 C1487 0.950 . S
H1468 C1489 0.950 . S
H1469 C1492 0.950 . S
H1470 C1493 0.950 . S
H1471 C1495 0.950 . S
H1472 C1496 0.950 . S
H1473 C1497 0.951 . S
H1474 C1499 0.951 . S
H1475 C1501 0.950 . S
H1476 C1502 0.950 . S
H1477 C1504 0.950 . S
H1478 C1507 0.950 . S
H1479 C1508 0.950 . S
H1480 C1510 0.950 . S
H1481 C1511 0.950 . S
C1482 H1464 0.951 . S
C1482 C1483 1.366 . S
C1482 C1484 1.388 . S
C1483 C1482 1.366 . S
C1483 C1487 1.385 . S
C1484 H1465 0.951 . S
C1484 C1482 1.388 . S
C1484 C1485 1.366 . S
C1485 C1484 1.366 . S
C1485 C1486 1.414 . S
C1485 C1488 1.499 . S
C1486 H1466 0.950 . S
C1486 C1485 1.414 . S
C1486 C1487 1.374 . S
C1487 H1467 0.950 . S
C1487 C1483 1.385 . S
C1487 C1486 1.374 . S
C1488 C1485 1.499 . S
C1488 C1489 1.373 . S
C1488 C1490 1.389 . S
C1489 H1468 0.950 . S
C1489 C1488 1.373 . S
C1489 C1505 1.377 . S
C1490 C1488 1.389 . S
C1490 C1491 1.524 . S
C1490 C1504 1.377 . S
C1491 C1490 1.524 . S
C1491 C1492 1.397 . S
C1491 C1496 1.363 . S
C1492 H1469 0.950 . S
C1492 C1491 1.397 . S
C1492 C1493 1.334 . S
C1493 H1470 0.950 . S
C1493 C1492 1.334 . S
C1493 C1494 1.287 . S
C1494 C1493 1.287 . S
C1494 C1495 1.524 . S
C1494 H1513 0.913 . S
C1495 H1471 0.950 . S
C1495 C1494 1.524 . S
C1495 C1496 1.415 . S
C1496 H1472 0.950 . S
C1496 C1491 1.363 . S
C1496 C1495 1.415 . S
C1497 H1473 0.951 . S
C1497 C1498 1.366 . S
C1497 C1499 1.388 . S
C1498 C1497 1.366 . S
C1498 C1502 1.385 . S
C1499 H1474 0.951 . S
C1499 C1497 1.388 . S
C1499 C1500 1.366 . S
C1500 C1499 1.366 . S
C1500 C1501 1.414 . S
C1500 C1503 1.499 . S
C1501 H1475 0.950 . S
C1501 C1500 1.414 . S
C1501 C1502 1.374 . S
C1502 H1476 0.950 . S
C1502 C1498 1.385 . S
C1502 C1501 1.374 . S
C1503 C1500 1.499 . S
C1503 C1504 1.373 . S
C1503 C1505 1.389 . S
C1504 H1477 0.950 . S
C1504 C1490 1.377 . S
C1504 C1503 1.373 . S
C1505 C1489 1.377 . S
C1505 C1503 1.389 . S
C1505 C1506 1.524 . S
C1506 C1505 1.524 . S
C1506 C1507 1.397 . S
C1506 C1511 1.363 . S
C1507 H1478 0.950 . S
C1507 C1506 1.397 . S
C1507 C1508 1.334 . S
C1508 H1479 0.950 . S
C1508 C1507 1.334 . S
C1508 C1509 1.287 . S
C1509 C1508 1.287 . S
C1509 C1510 1.524 . S
C1509 H1512 0.999 . S
C1510 H1480 0.950 . S
C1510 C1509 1.524 . S
C1510 C1511 1.415 . S
C1511 H1481 0.950 . S
C1511 C1506 1.363 . S
C1511 C1510 1.415 . S
H1512 C1509 0.999 . S
H1513 C1494 0.913 . S
H1514 C1532 0.951 . S
H1515 C1534 0.951 . S
H1516 C1536 0.950 . S
H1517 C1537 0.950 . S
H1518 C1539 0.950 . S
H1519 C1542 0.950 . S
H1520 C1543 0.950 . S
H1521 C1545 0.950 . S
H1522 C1546 0.950 . S
H1523 C1547 0.951 . S
H1524 C1549 0.951 . S
H1525 C1551 0.950 . S
H1526 C1552 0.950 . S
H1527 C1554 0.950 . S
H1528 C1557 0.950 . S
H1529 C1558 0.950 . S
H1530 C1560 0.950 . S
H1531 C1561 0.950 . S
C1532 H1514 0.951 . S
C1532 C1533 1.366 . S
C1532 C1534 1.388 . S
C1533 C1532 1.366 . S
C1533 C1537 1.385 . S
C1534 H1515 0.951 . S
C1534 C1532 1.388 . S
C1534 C1535 1.366 . S
C1535 C1534 1.366 . S
C1535 C1536 1.414 . S
C1535 C1538 1.499 . S
C1536 H1516 0.950 . S
C1536 C1535 1.414 . S
C1536 C1537 1.374 . S
C1537 H1517 0.950 . S
C1537 C1533 1.385 . S
C1537 C1536 1.374 . S
C1538 C1535 1.499 . S
C1538 C1539 1.373 . S
C1538 C1540 1.389 . S
C1539 H1518 0.950 . S
C1539 C1538 1.373 . S
C1539 C1555 1.377 . S
C1540 C1538 1.389 . S
C1540 C1541 1.524 . S
C1540 C1554 1.377 . S
C1541 C1540 1.524 . S
C1541 C1542 1.397 . S
C1541 C1546 1.363 . S
C1542 H1519 0.950 . S
C1542 C1541 1.397 . S
C1542 C1543 1.334 . S
C1543 H1520 0.950 . S
C1543 C1542 1.334 . S
C1543 C1544 1.287 . S
C1544 C1543 1.287 . S
C1544 C1545 1.524 . S
C1544 H1563 0.913 . S
C1545 H1521 0.950 . S
C1545 C1544 1.524 . S
C1545 C1546 1.415 . S
C1546 H1522 0.950 . S
C1546 C1541 1.363 . S
C1546 C1545 1.415 . S
C1547 H1523 0.951 . S
C1547 C1548 1.366 . S
C1547 C1549 1.388 . S
C1548 C1547 1.366 . S
C1548 C1552 1.385 . S
C1549 H1524 0.951 . S
C1549 C1547 1.388 . S
C1549 C1550 1.366 . S
C1550 C1549 1.366 . S
C1550 C1551 1.414 . S
C1550 C1553 1.499 . S
C1551 H1525 0.950 . S
C1551 C1550 1.414 . S
C1551 C1552 1.374 . S
C1552 H1526 0.950 . S
C1552 C1548 1.385 . S
C1552 C1551 1.374 . S
C1553 C1550 1.499 . S
C1553 C1554 1.373 . S
C1553 C1555 1.389 . S
C1554 H1527 0.950 . S
C1554 C1540 1.377 . S
C1554 C1553 1.373 . S
C1555 C1539 1.377 . S
C1555 C1553 1.389 . S
C1555 C1556 1.524 . S
C1556 C1555 1.524 . S
C1556 C1557 1.397 . S
C1556 C1561 1.363 . S
C1557 H1528 0.950 . S
C1557 C1556 1.397 . S
C1557 C1558 1.334 . S
C1558 H1529 0.950 . S
C1558 C1557 1.334 . S
C1558 C1559 1.287 . S
C1559 C1558 1.287 . S
C1559 C1560 1.524 . S
C1559 H1562 0.999 . S
C1560 H1530 0.950 . S
C1560 C1559 1.524 . S
C1560 C1561 1.415 . S
C1561 H1531 0.950 . S
C1561 C1556 1.363 . S
C1561 C1560 1.415 . S
H1562 C1559 0.999 . S
H1563 C1544 0.913 . S
H1564 C1582 0.951 . S
H1565 C1584 0.951 . S
H1566 C1586 0.950 . S
H1567 C1587 0.950 . S
H1568 C1589 0.950 . S
H1569 C1592 0.950 . S
H1570 C1593 0.950 . S
H1571 C1595 0.950 . S
H1572 C1596 0.950 . S
H1573 C1597 0.951 . S
H1574 C1599 0.951 . S
H1575 C1601 0.950 . S
H1576 C1602 0.950 . S
H1577 C1604 0.950 . S
H1578 C1607 0.950 . S
H1579 C1608 0.950 . S
H1580 C1610 0.950 . S
H1581 C1611 0.950 . S
C1582 H1564 0.951 . S
C1582 C1583 1.366 . S
C1582 C1584 1.388 1_556 S
C1583 C1582 1.366 . S
C1583 C1587 1.385 . S
C1584 H1565 0.951 . S
C1584 C1582 1.388 1_554 S
C1584 C1585 1.366 . S
C1585 C1584 1.366 . S
C1585 C1586 1.414 . S
C1585 C1588 1.499 . S
C1586 H1566 0.950 . S
C1586 C1585 1.414 . S
C1586 C1587 1.374 1_554 S
C1587 H1567 0.950 . S
C1587 C1583 1.385 . S
C1587 C1586 1.374 1_556 S
C1588 C1585 1.499 . S
C1588 C1589 1.373 . S
C1588 C1590 1.389 . S
C1589 H1568 0.950 . S
C1589 C1588 1.373 . S
C1589 C1605 1.377 . S
C1590 C1588 1.389 . S
C1590 C1591 1.524 . S
C1590 C1604 1.377 . S
C1591 C1590 1.524 . S
C1591 C1592 1.397 . S
C1591 C1596 1.363 . S
C1592 H1569 0.950 . S
C1592 C1591 1.397 . S
C1592 C1593 1.334 . S
C1593 H1570 0.950 . S
C1593 C1592 1.334 . S
C1593 C1594 1.287 . S
C1594 C1593 1.287 . S
C1594 C1595 1.524 . S
C1594 H1613 0.913 . S
C1595 H1571 0.950 . S
C1595 C1594 1.524 . S
C1595 C1596 1.415 . S
C1596 H1572 0.950 . S
C1596 C1591 1.363 . S
C1596 C1595 1.415 . S
C1597 H1573 0.951 . S
C1597 C1598 1.366 . S
C1597 C1599 1.388 . S
C1598 C1597 1.366 . S
C1598 C1602 1.385 . S
C1599 H1574 0.951 . S
C1599 C1597 1.388 . S
C1599 C1600 1.366 . S
C1600 C1599 1.366 . S
C1600 C1601 1.414 . S
C1600 C1603 1.499 . S
C1601 H1575 0.950 . S
C1601 C1600 1.414 . S
C1601 C1602 1.374 . S
C1602 H1576 0.950 . S
C1602 C1598 1.385 . S
C1602 C1601 1.374 . S
C1603 C1600 1.499 . S
C1603 C1604 1.373 . S
C1603 C1605 1.389 . S
C1604 H1577 0.950 . S
C1604 C1590 1.377 . S
C1604 C1603 1.373 . S
C1605 C1589 1.377 . S
C1605 C1603 1.389 . S
C1605 C1606 1.524 . S
C1606 C1605 1.524 . S
C1606 C1607 1.397 . S
C1606 C1611 1.363 . S
C1607 H1578 0.950 . S
C1607 C1606 1.397 . S
C1607 C1608 1.334 1_455 S
C1608 H1579 0.950 . S
C1608 C1607 1.334 1_655 S
C1608 C1609 1.287 . S
C1609 C1608 1.287 . S
C1609 C1610 1.524 . S
C1609 H1612 0.999 . S
C1610 H1580 0.950 . S
C1610 C1609 1.524 . S
C1610 C1611 1.415 1_655 S
C1611 H1581 0.950 . S
C1611 C1606 1.363 . S
C1611 C1610 1.415 1_455 S
H1612 C1609 0.999 . S
H1613 C1594 0.913 . S
H1614 C1632 0.951 . S
H1615 C1634 0.951 . S
H1616 C1636 0.950 . S
H1617 C1637 0.950 . S
H1618 C1639 0.950 . S
H1619 C1642 0.950 . S
H1620 C1643 0.950 . S
H1621 C1645 0.950 . S
H1622 C1646 0.950 . S
H1623 C1647 0.951 . S
H1624 C1649 0.951 . S
H1625 C1651 0.950 . S
H1626 C1652 0.950 . S
H1627 C1654 0.950 . S
H1628 C1657 0.950 . S
H1629 C1658 0.950 . S
H1630 C1660 0.950 . S
H1631 C1661 0.950 . S
C1632 H1614 0.951 . S
C1632 C1633 1.366 . S
C1632 C1634 1.388 . S
C1633 C1632 1.366 . S
C1633 C1637 1.385 . S
C1634 H1615 0.951 . S
C1634 C1632 1.388 . S
C1634 C1635 1.366 . S
C1635 C1634 1.366 . S
C1635 C1636 1.414 . S
C1635 C1638 1.499 . S
C1636 H1616 0.950 . S
C1636 C1635 1.414 . S
C1636 C1637 1.374 . S
C1637 H1617 0.950 . S
C1637 C1633 1.385 . S
C1637 C1636 1.374 . S
C1638 C1635 1.499 . S
C1638 C1639 1.373 . S
C1638 C1640 1.389 . S
C1639 H1618 0.950 . S
C1639 C1638 1.373 . S
C1639 C1655 1.377 . S
C1640 C1638 1.389 . S
C1640 C1641 1.524 . S
C1640 C1654 1.377 . S
C1641 C1640 1.524 . S
C1641 C1642 1.397 . S
C1641 C1646 1.363 . S
C1642 H1619 0.950 . S
C1642 C1641 1.397 . S
C1642 C1643 1.334 . S
C1643 H1620 0.950 . S
C1643 C1642 1.334 . S
C1643 C1644 1.287 . S
C1644 C1643 1.287 . S
C1644 C1645 1.524 . S
C1644 H1663 0.913 . S
C1645 H1621 0.950 . S
C1645 C1644 1.524 . S
C1645 C1646 1.415 . S
C1646 H1622 0.950 . S
C1646 C1641 1.363 . S
C1646 C1645 1.415 . S
C1647 H1623 0.951 . S
C1647 C1648 1.366 . S
C1647 C1649 1.388 . S
C1648 C1647 1.366 . S
C1648 C1652 1.385 . S
C1649 H1624 0.951 . S
C1649 C1647 1.388 . S
C1649 C1650 1.366 . S
C1650 C1649 1.366 . S
C1650 C1651 1.414 . S
C1650 C1653 1.499 . S
C1651 H1625 0.950 . S
C1651 C1650 1.414 . S
C1651 C1652 1.374 . S
C1652 H1626 0.950 . S
C1652 C1648 1.385 . S
C1652 C1651 1.374 . S
C1653 C1650 1.499 . S
C1653 C1654 1.373 . S
C1653 C1655 1.389 . S
C1654 H1627 0.950 . S
C1654 C1640 1.377 . S
C1654 C1653 1.373 . S
C1655 C1639 1.377 . S
C1655 C1653 1.389 . S
C1655 C1656 1.524 . S
C1656 C1655 1.524 . S
C1656 C1657 1.397 . S
C1656 C1661 1.363 . S
C1657 H1628 0.950 . S
C1657 C1656 1.397 . S
C1657 C1658 1.334 . S
C1658 H1629 0.950 . S
C1658 C1657 1.334 . S
C1658 C1659 1.287 . S
C1659 C1658 1.287 . S
C1659 C1660 1.524 . S
C1659 H1662 0.999 . S
C1660 H1630 0.950 . S
C1660 C1659 1.524 . S
C1660 C1661 1.415 . S
C1661 H1631 0.950 . S
C1661 C1656 1.363 . S
C1661 C1660 1.415 . S
H1662 C1659 0.999 . S
H1663 C1644 0.913 . S
H1664 C1682 0.951 . S
H1665 C1684 0.951 . S
H1666 C1686 0.950 . S
H1667 C1687 0.950 . S
H1668 C1689 0.950 . S
H1669 C1692 0.950 . S
H1670 C1693 0.950 . S
H1671 C1695 0.950 . S
H1672 C1696 0.950 . S
H1673 C1697 0.951 . S
H1674 C1699 0.951 . S
H1675 C1701 0.950 . S
H1676 C1702 0.950 . S
H1677 C1704 0.950 . S
H1678 C1707 0.950 . S
H1679 C1708 0.950 . S
H1680 C1710 0.950 . S
H1681 C1711 0.950 . S
C1682 H1664 0.951 . S
C1682 C1683 1.366 . S
C1682 C1684 1.388 . S
C1683 C1682 1.366 . S
C1683 C1687 1.385 . S
C1684 H1665 0.951 . S
C1684 C1682 1.388 . S
C1684 C1685 1.366 . S
C1685 C1684 1.366 . S
C1685 C1686 1.414 . S
C1685 C1688 1.499 . S
C1686 H1666 0.950 . S
C1686 C1685 1.414 . S
C1686 C1687 1.374 . S
C1687 H1667 0.950 . S
C1687 C1683 1.385 . S
C1687 C1686 1.374 . S
C1688 C1685 1.499 . S
C1688 C1689 1.373 . S
C1688 C1690 1.389 . S
C1689 H1668 0.950 . S
C1689 C1688 1.373 . S
C1689 C1705 1.377 . S
C1690 C1688 1.389 . S
C1690 C1691 1.524 . S
C1690 C1704 1.377 . S
C1691 C1690 1.524 . S
C1691 C1692 1.397 . S
C1691 C1696 1.363 . S
C1692 H1669 0.950 . S
C1692 C1691 1.397 . S
C1692 C1693 1.334 . S
C1693 H1670 0.950 . S
C1693 C1692 1.334 . S
C1693 C1694 1.287 . S
C1694 C1693 1.287 . S
C1694 C1695 1.524 . S
C1694 H1713 0.913 . S
C1695 H1671 0.950 . S
C1695 C1694 1.524 . S
C1695 C1696 1.415 . S
C1696 H1672 0.950 . S
C1696 C1691 1.363 . S
C1696 C1695 1.415 . S
C1697 H1673 0.951 . S
C1697 C1698 1.366 . S
C1697 C1699 1.388 . S
C1698 C1697 1.366 . S
C1698 C1702 1.385 . S
C1699 H1674 0.951 . S
C1699 C1697 1.388 . S
C1699 C1700 1.366 . S
C1700 C1699 1.366 . S
C1700 C1701 1.414 . S
C1700 C1703 1.499 . S
C1701 H1675 0.950 . S
C1701 C1700 1.414 . S
C1701 C1702 1.374 . S
C1702 H1676 0.950 . S
C1702 C1698 1.385 . S
C1702 C1701 1.374 . S
C1703 C1700 1.499 . S
C1703 C1704 1.373 . S
C1703 C1705 1.389 . S
C1704 H1677 0.950 . S
C1704 C1690 1.377 . S
C1704 C1703 1.373 . S
C1705 C1689 1.377 . S
C1705 C1703 1.389 . S
C1705 C1706 1.524 . S
C1706 C1705 1.524 . S
C1706 C1707 1.397 . S
C1706 C1711 1.363 . S
C1707 H1678 0.950 . S
C1707 C1706 1.397 . S
C1707 C1708 1.334 . S
C1708 H1679 0.950 . S
C1708 C1707 1.334 . S
C1708 C1709 1.287 . S
C1709 C1708 1.287 . S
C1709 C1710 1.524 . S
C1709 H1712 0.999 . S
C1710 H1680 0.950 . S
C1710 C1709 1.524 . S
C1710 C1711 1.415 . S
C1711 H1681 0.950 . S
C1711 C1706 1.363 . S
C1711 C1710 1.415 . S
H1712 C1709 0.999 . S
H1713 C1694 0.913 . S
H1714 C1732 0.951 . S
H1715 C1734 0.951 . S
H1716 C1736 0.950 . S
H1717 C1737 0.950 . S
H1718 C1739 0.950 . S
H1719 C1742 0.950 . S
H1720 C1743 0.950 . S
H1721 C1745 0.950 . S
H1722 C1746 0.950 . S
H1723 C1747 0.951 . S
H1724 C1749 0.951 . S
H1725 C1751 0.950 . S
H1726 C1752 0.950 . S
H1727 C1754 0.950 . S
H1728 C1757 0.950 . S
H1729 C1758 0.950 . S
H1730 C1760 0.950 . S
H1731 C1761 0.950 . S
C1732 H1714 0.951 . S
C1732 C1733 1.366 . S
C1732 C1734 1.388 . S
C1733 C1732 1.366 . S
C1733 C1737 1.385 . S
C1734 H1715 0.951 . S
C1734 C1732 1.388 . S
C1734 C1735 1.366 . S
C1735 C1734 1.366 . S
C1735 C1736 1.414 . S
C1735 C1738 1.499 . S
C1736 H1716 0.950 . S
C1736 C1735 1.414 . S
C1736 C1737 1.374 . S
C1737 H1717 0.950 . S
C1737 C1733 1.385 . S
C1737 C1736 1.374 . S
C1738 C1735 1.499 . S
C1738 C1739 1.373 . S
C1738 C1740 1.389 . S
C1739 H1718 0.950 . S
C1739 C1738 1.373 . S
C1739 C1755 1.377 . S
C1740 C1738 1.389 . S
C1740 C1741 1.524 . S
C1740 C1754 1.377 . S
C1741 C1740 1.524 . S
C1741 C1742 1.397 . S
C1741 C1746 1.363 . S
C1742 H1719 0.950 . S
C1742 C1741 1.397 . S
C1742 C1743 1.334 . S
C1743 H1720 0.950 . S
C1743 C1742 1.334 . S
C1743 C1744 1.287 . S
C1744 C1743 1.287 . S
C1744 C1745 1.524 . S
C1744 H1763 0.913 . S
C1745 H1721 0.950 . S
C1745 C1744 1.524 . S
C1745 C1746 1.415 . S
C1746 H1722 0.950 . S
C1746 C1741 1.363 . S
C1746 C1745 1.415 . S
C1747 H1723 0.951 . S
C1747 C1748 1.366 . S
C1747 C1749 1.388 . S
C1748 C1747 1.366 . S
C1748 C1752 1.385 . S
C1749 H1724 0.951 . S
C1749 C1747 1.388 . S
C1749 C1750 1.366 . S
C1750 C1749 1.366 . S
C1750 C1751 1.414 . S
C1750 C1753 1.499 . S
C1751 H1725 0.950 . S
C1751 C1750 1.414 . S
C1751 C1752 1.374 . S
C1752 H1726 0.950 . S
C1752 C1748 1.385 . S
C1752 C1751 1.374 . S
C1753 C1750 1.499 . S
C1753 C1754 1.373 . S
C1753 C1755 1.389 . S
C1754 H1727 0.950 . S
C1754 C1740 1.377 . S
C1754 C1753 1.373 . S
C1755 C1739 1.377 . S
C1755 C1753 1.389 . S
C1755 C1756 1.524 . S
C1756 C1755 1.524 . S
C1756 C1757 1.397 . S
C1756 C1761 1.363 . S
C1757 H1728 0.950 . S
C1757 C1756 1.397 . S
C1757 C1758 1.334 . S
C1758 H1729 0.950 . S
C1758 C1757 1.334 . S
C1758 C1759 1.287 . S
C1759 C1758 1.287 . S
C1759 C1760 1.524 . S
C1759 H1762 0.999 . S
C1760 H1730 0.950 . S
C1760 C1759 1.524 . S
C1760 C1761 1.415 . S
C1761 H1731 0.950 . S
C1761 C1756 1.363 . S
C1761 C1760 1.415 . S
H1762 C1759 0.999 . S
H1763 C1744 0.913 . S
C598 C487 1.516 . S
C583 C31 1.638 . S
C648 C505 1.264 . S
C633 C91 1.350 1_655 S
C683 C121 1.271 . S
C698 C529 1.238 . S
C748 C559 1.270 . S
C733 C181 1.346 . S
C798 C547 1.251 . S
C783 C271 1.369 . S
C833 C301 1.313 . S
C848 C500 1.284 . S
C883 C361 1.578 . S
C898 C520 1.502 . S
C933 C451 1.423 1_655 S
C948 C525 1.269 . S
C983 C421 1.302 . S
C998 C541 1.270 . S
C1033 C331 1.425 . S
C1048 C496 1.266 . S
C1098 C563 1.270 . S
C1083 C211 1.350 . S
C1148 C508 1.268 . S
C1133 C61 1.352 . S
C1183 C151 1.632 . S
C1198 C526 1.508 . S
C1233 C1 1.284 . S
C1248 C484 1.252 . S
C1298 C504 1.241 . S
C1283 C391 1.350 . S
C1348 C550 1.515 . S
C1333 C241 1.600 . S
C1398 C546 1.319 . S
C1383 C20 1.448 . S
C1448 C499 1.317 . S
C1433 C80 1.389 . S
C1483 C140 1.428 . S
C1498 C521 1.295 . S
C1533 C200 1.416 . S
C1548 C542 1.338 . S
C1598 C483 1.319 . S
C1583 C260 1.475 . S
C1633 C320 1.442 . S
C1648 C517 1.365 . S
C1698 C538 1.336 . S
C1683 C380 1.492 . S
C1748 C562 1.339 . S
C1733 C440 1.418 . S
