# Generated by pormake.
# Topology eea, (3,6)-cn, num edge types: 1
# Building blocks:
#     Node 0, Type 0, BuildingBlock: KAKCAD_clean_linker_0, # of connection points: 3
#     Node 1, Type 0, BuildingBlock: KAKCAD_clean_linker_0, # of connection points: 3
#     Node 2, Type 0, BuildingBlock: KAKCAD_clean_linker_0, # of connection points: 3
#     Node 3, Type 0, BuildingBlock: KAKCAD_clean_linker_0, # of connection points: 3
#     Node 4, Type 0, BuildingBlock: KAKCAD_clean_linker_0, # of connection points: 3
#     Node 5, Type 0, BuildingBlock: KAKCAD_clean_linker_0, # of connection points: 3
#     Node 6, Type 0, BuildingBlock: KAKCAD_clean_linker_0, # of connection points: 3
#     Node 7, Type 0, BuildingBlock: KAKCAD_clean_linker_0, # of connection points: 3
#     Node 8, Type 0, BuildingBlock: KAKCAD_clean_linker_0, # of connection points: 3
#     Node 9, Type 0, BuildingBlock: KAKCAD_clean_linker_0, # of connection points: 3
#     Node 10, Type 0, BuildingBlock: KAKCAD_clean_linker_0, # of connection points: 3
#     Node 11, Type 0, BuildingBlock: KAKCAD_clean_linker_0, # of connection points: 3
#     Node 12, Type 0, BuildingBlock: KAKCAD_clean_linker_0, # of connection points: 3
#     Node 13, Type 0, BuildingBlock: KAKCAD_clean_linker_0, # of connection points: 3
#     Node 14, Type 0, BuildingBlock: KAKCAD_clean_linker_0, # of connection points: 3
#     Node 15, Type 0, BuildingBlock: KAKCAD_clean_linker_0, # of connection points: 3
#     Node 16, Type 0, BuildingBlock: KAKCAD_clean_linker_0, # of connection points: 3
#     Node 17, Type 0, BuildingBlock: KAKCAD_clean_linker_0, # of connection points: 3
#     Node 18, Type 1, BuildingBlock: KUMBUR_clean_sbu_0, # of connection points: 6
#     Node 19, Type 1, BuildingBlock: KUMBUR_clean_sbu_0, # of connection points: 6
#     Node 20, Type 1, BuildingBlock: KUMBUR_clean_sbu_0, # of connection points: 6
#     Node 21, Type 1, BuildingBlock: KUMBUR_clean_sbu_0, # of connection points: 6
#     Node 22, Type 1, BuildingBlock: KUMBUR_clean_sbu_0, # of connection points: 6
#     Node 23, Type 1, BuildingBlock: KUMBUR_clean_sbu_0, # of connection points: 6
#     Node 24, Type 1, BuildingBlock: KUMBUR_clean_sbu_0, # of connection points: 6
#     Node 25, Type 1, BuildingBlock: KUMBUR_clean_sbu_0, # of connection points: 6
#     Node 26, Type 1, BuildingBlock: KUMBUR_clean_sbu_0, # of connection points: 6
#     Edge 27, Type (0, 1), BuildingBlock: CIFDUS_clean_linker_0, # of connection points: 2
#     Edge 28, Type (0, 1), BuildingBlock: CIFDUS_clean_linker_0, # of connection points: 2
#     Edge 29, Type (0, 1), BuildingBlock: CIFDUS_clean_linker_0, # of connection points: 2
#     Edge 30, Type (0, 1), BuildingBlock: CIFDUS_clean_linker_0, # of connection points: 2
#     Edge 31, Type (0, 1), BuildingBlock: CIFDUS_clean_linker_0, # of connection points: 2
#     Edge 32, Type (0, 1), BuildingBlock: CIFDUS_clean_linker_0, # of connection points: 2
#     Edge 33, Type (0, 1), BuildingBlock: CIFDUS_clean_linker_0, # of connection points: 2
#     Edge 34, Type (0, 1), BuildingBlock: CIFDUS_clean_linker_0, # of connection points: 2
#     Edge 35, Type (0, 1), BuildingBlock: CIFDUS_clean_linker_0, # of connection points: 2
#     Edge 36, Type (0, 1), BuildingBlock: CIFDUS_clean_linker_0, # of connection points: 2
#     Edge 37, Type (0, 1), BuildingBlock: CIFDUS_clean_linker_0, # of connection points: 2
#     Edge 38, Type (0, 1), BuildingBlock: CIFDUS_clean_linker_0, # of connection points: 2
#     Edge 39, Type (0, 1), BuildingBlock: CIFDUS_clean_linker_0, # of connection points: 2
#     Edge 40, Type (0, 1), BuildingBlock: CIFDUS_clean_linker_0, # of connection points: 2
#     Edge 41, Type (0, 1), BuildingBlock: CIFDUS_clean_linker_0, # of connection points: 2
#     Edge 42, Type (0, 1), BuildingBlock: CIFDUS_clean_linker_0, # of connection points: 2
#     Edge 43, Type (0, 1), BuildingBlock: CIFDUS_clean_linker_0, # of connection points: 2
#     Edge 44, Type (0, 1), BuildingBlock: CIFDUS_clean_linker_0, # of connection points: 2
#     Edge 45, Type (0, 1), BuildingBlock: CIFDUS_clean_linker_0, # of connection points: 2
#     Edge 46, Type (0, 1), BuildingBlock: CIFDUS_clean_linker_0, # of connection points: 2
#     Edge 47, Type (0, 1), BuildingBlock: CIFDUS_clean_linker_0, # of connection points: 2
#     Edge 48, Type (0, 1), BuildingBlock: CIFDUS_clean_linker_0, # of connection points: 2
#     Edge 49, Type (0, 1), BuildingBlock: CIFDUS_clean_linker_0, # of connection points: 2
#     Edge 50, Type (0, 1), BuildingBlock: CIFDUS_clean_linker_0, # of connection points: 2
#     Edge 51, Type (0, 1), BuildingBlock: CIFDUS_clean_linker_0, # of connection points: 2
#     Edge 52, Type (0, 1), BuildingBlock: CIFDUS_clean_linker_0, # of connection points: 2
#     Edge 53, Type (0, 1), BuildingBlock: CIFDUS_clean_linker_0, # of connection points: 2
#     Edge 54, Type (0, 1), BuildingBlock: CIFDUS_clean_linker_0, # of connection points: 2
#     Edge 55, Type (0, 1), BuildingBlock: CIFDUS_clean_linker_0, # of connection points: 2
#     Edge 56, Type (0, 1), BuildingBlock: CIFDUS_clean_linker_0, # of connection points: 2
#     Edge 57, Type (0, 1), BuildingBlock: CIFDUS_clean_linker_0, # of connection points: 2
#     Edge 58, Type (0, 1), BuildingBlock: CIFDUS_clean_linker_0, # of connection points: 2
#     Edge 59, Type (0, 1), BuildingBlock: CIFDUS_clean_linker_0, # of connection points: 2
#     Edge 60, Type (0, 1), BuildingBlock: CIFDUS_clean_linker_0, # of connection points: 2
#     Edge 61, Type (0, 1), BuildingBlock: CIFDUS_clean_linker_0, # of connection points: 2
#     Edge 62, Type (0, 1), BuildingBlock: CIFDUS_clean_linker_0, # of connection points: 2
#     Edge 63, Type (0, 1), BuildingBlock: CIFDUS_clean_linker_0, # of connection points: 2
#     Edge 64, Type (0, 1), BuildingBlock: CIFDUS_clean_linker_0, # of connection points: 2
#     Edge 65, Type (0, 1), BuildingBlock: CIFDUS_clean_linker_0, # of connection points: 2
#     Edge 66, Type (0, 1), BuildingBlock: CIFDUS_clean_linker_0, # of connection points: 2
#     Edge 67, Type (0, 1), BuildingBlock: CIFDUS_clean_linker_0, # of connection points: 2
#     Edge 68, Type (0, 1), BuildingBlock: CIFDUS_clean_linker_0, # of connection points: 2
#     Edge 69, Type (0, 1), BuildingBlock: CIFDUS_clean_linker_0, # of connection points: 2
#     Edge 70, Type (0, 1), BuildingBlock: CIFDUS_clean_linker_0, # of connection points: 2
#     Edge 71, Type (0, 1), BuildingBlock: CIFDUS_clean_linker_0, # of connection points: 2
#     Edge 72, Type (0, 1), BuildingBlock: CIFDUS_clean_linker_0, # of connection points: 2
#     Edge 73, Type (0, 1), BuildingBlock: CIFDUS_clean_linker_0, # of connection points: 2
#     Edge 74, Type (0, 1), BuildingBlock: CIFDUS_clean_linker_0, # of connection points: 2
#     Edge 75, Type (0, 1), BuildingBlock: CIFDUS_clean_linker_0, # of connection points: 2
#     Edge 76, Type (0, 1), BuildingBlock: CIFDUS_clean_linker_0, # of connection points: 2
#     Edge 77, Type (0, 1), BuildingBlock: CIFDUS_clean_linker_0, # of connection points: 2
#     Edge 78, Type (0, 1), BuildingBlock: CIFDUS_clean_linker_0, # of connection points: 2
#     Edge 79, Type (0, 1), BuildingBlock: CIFDUS_clean_linker_0, # of connection points: 2
#     Edge 80, Type (0, 1), BuildingBlock: CIFDUS_clean_linker_0, # of connection points: 2
# Relax obj value: 0.009
# Max RMSD: 0.092
# Mean RMSD: 0.066
data_MOF--net-eea--node1-KUMBUR_clean_sbu_0--node2-KAKCAD_clean_linker_0--edge1-CIFDUS_clean_linker_0
_symmetry_space_group_name_H-M    P1
_symmetry_Int_Tables_number       1
_symmetry_cell_setting            triclinic
loop_
_symmetry_equiv_pos_as_xyz
'x, y, z'
_cell_length_a     55.839448
_cell_length_b     57.230899
_cell_length_c     80.407752
_cell_angle_alpha  90.029375
_cell_angle_beta   89.991128
_cell_angle_gamma 119.94261
loop_
_atom_site_label
_atom_site_type_symbol
_atom_site_fract_x
_atom_site_fract_y
_atom_site_fract_z
_atom_type_partial_charge
C0 C 0.2918 0.16671 0.49014 0.0
C1 C 0.31165 0.15951 0.49434 0.0
C2 C 0.27726 0.158 0.47515 0.0
C3 C 0.28264 0.14232 0.46389 0.0
C4 C 0.30302 0.13566 0.46806 0.0
C5 C 0.31712 0.14391 0.48319 0.0
C6 C 0.26685 0.13262 0.44799 0.0
C7 C 0.25845 0.14858 0.43923 0.0
C8 C 0.24308 0.1393 0.42441 0.0
C9 C 0.23674 0.1139 0.41815 0.0
C10 C 0.24552 0.09795 0.42648 0.0
C11 C 0.2601 0.10724 0.4415 0.0
C12 C 0.24003 0.07178 0.41939 0.0
C13 C 0.21402 0.05351 0.4127 0.0
C14 C 0.26102 0.06504 0.41914 0.0
C15 C 0.25614 0.04057 0.41239 0.0
C16 C 0.23011 0.0222 0.40577 0.0
C17 C 0.23387 0.15623 0.41546 0.0
C18 C 0.22495 0.17165 0.42439 0.0
C19 C 0.23402 0.15727 0.39795 0.0
C20 C 0.22567 0.17347 0.38963 0.0
C21 C 0.21732 0.18921 0.39861 0.0
C22 C 0.21693 0.18805 0.41606 0.0
C23 C 0.2091 0.02896 0.40599 0.0
H24 H 0.28709 0.17857 0.49864 0.0
H25 H 0.26143 0.16317 0.47258 0.0
H26 H 0.30829 0.1242 0.4596 0.0
H27 H 0.33259 0.13838 0.4861 0.0
H28 H 0.26443 0.16859 0.44374 0.0
H29 H 0.26576 0.09434 0.44825 0.0
H30 H 0.2251 0.10656 0.4067 0.0
H31 H 0.19736 0.05803 0.41288 0.0
H32 H 0.28141 0.07891 0.42395 0.0
H33 H 0.27292 0.03623 0.41216 0.0
H34 H 0.22399 0.17094 0.43784 0.0
H35 H 0.24114 0.14602 0.39066 0.0
H36 H 0.1887 0.01509 0.4012 0.0
H37 H 0.21023 0.19973 0.42329 0.0
H38 H 0.22643 0.17421 0.37616 0.0
C39 C 0.87846 0.17067 0.48329 0.0
C40 C 0.87405 0.1537 0.49704 0.0
C41 C 0.88485 0.16458 0.46764 0.0
C42 C 0.88643 0.14111 0.46526 0.0
C43 C 0.88221 0.12417 0.47888 0.0
C44 C 0.87642 0.13054 0.49463 0.0
C45 C 0.89122 0.1337 0.44845 0.0
C46 C 0.91454 0.15161 0.4392 0.0
C47 C 0.91852 0.14494 0.42301 0.0
C48 C 0.8989 0.12006 0.41613 0.0
C49 C 0.87528 0.10181 0.42522 0.0
C50 C 0.87177 0.10896 0.44142 0.0
C51 C 0.85404 0.07562 0.41776 0.0
C52 C 0.84819 0.0735 0.4006 0.0
C53 C 0.8391 0.05254 0.42777 0.0
C54 C 0.81872 0.02824 0.42086 0.0
C55 C 0.81327 0.02627 0.40375 0.0
C56 C 0.94286 0.16433 0.41317 0.0
C57 C 0.93933 0.17277 0.39741 0.0
C58 C 0.96966 0.1753 0.41972 0.0
C59 C 0.99249 0.19466 0.41078 0.0
C60 C 0.98885 0.2038 0.39529 0.0
C61 C 0.96209 0.19256 0.38863 0.0
C62 C 0.82825 0.04902 0.39366 0.0
H63 H 0.8763 0.18837 0.48444 0.0
H64 H 0.88772 0.17779 0.45725 0.0
H65 H 0.88351 0.10603 0.47734 0.0
H66 H 0.87387 0.11726 0.50489 0.0
H67 H 0.92943 0.17088 0.44453 0.0
H68 H 0.85337 0.09575 0.44848 0.0
H69 H 0.90242 0.11487 0.40376 0.0
H70 H 0.85868 0.09081 0.39249 0.0
H71 H 0.84331 0.05304 0.44094 0.0
H72 H 0.80761 0.0108 0.42883 0.0
H73 H 0.91885 0.16469 0.39213 0.0
H74 H 0.97291 0.16903 0.43182 0.0
H75 H 0.82424 0.04794 0.38042 0.0
H76 H 0.95877 0.19933 0.37672 0.0
H77 H 0.01288 0.2032 0.41625 0.0
C78 C 0.88576 0.74856 0.49065 0.0
C79 C 0.85968 0.72548 0.49327 0.0
C80 C 0.89402 0.75965 0.47465 0.0
C81 C 0.87629 0.74809 0.46093 0.0
C82 C 0.8506 0.72473 0.46349 0.0
C83 C 0.84252 0.7135 0.47935 0.0
C84 C 0.88389 0.76034 0.44399 0.0
C85 C 0.9098 0.76775 0.43687 0.0
C86 C 0.91575 0.77709 0.42031 0.0
C87 C 0.89571 0.77947 0.41104 0.0
C88 C 0.87027 0.77329 0.41817 0.0
C89 C 0.86451 0.76368 0.4346 0.0
C90 C 0.84967 0.77695 0.40852 0.0
C91 C 0.83865 0.79239 0.41503 0.0
C92 C 0.84069 0.76486 0.39282 0.0
C93 C 0.82059 0.76762 0.384 0.0
C94 C 0.80958 0.78307 0.39053 0.0
C95 C 0.94294 0.7847 0.41261 0.0
C96 C 0.9677 0.80307 0.42055 0.0
C97 C 0.94429 0.77458 0.39689 0.0
C98 C 0.96984 0.78278 0.38924 0.0
C99 C 0.99456 0.80173 0.39698 0.0
C100 C 0.99322 0.8117 0.41275 0.0
C101 C 0.81903 0.79566 0.40605 0.0
H102 H 0.89953 0.75851 0.50101 0.0
H103 H 0.91393 0.7777 0.47308 0.0
H104 H 0.83669 0.71498 0.45314 0.0
H105 H 0.82268 0.69528 0.48064 0.0
H106 H 0.92492 0.76534 0.44396 0.0
H107 H 0.8447 0.75852 0.44004 0.0
H108 H 0.90027 0.78699 0.39838 0.0
H109 H 0.84533 0.80204 0.42706 0.0
H110 H 0.8488 0.7528 0.38754 0.0
H111 H 0.81366 0.75773 0.37206 0.0
H112 H 0.96729 0.81132 0.43261 0.0
H113 H 0.92552 0.76032 0.39051 0.0
H114 H 0.81072 0.80749 0.41142 0.0
H115 H 0.01196 0.82618 0.41906 0.0
H116 H 0.97025 0.77481 0.37709 0.0
C117 C 0.13993 0.24585 0.53581 0.0
C118 C 0.14239 0.27102 0.53232 0.0
C119 C 0.13439 0.23549 0.55206 0.0
C120 C 0.13047 0.2498 0.56499 0.0
C121 C 0.13247 0.27475 0.5614 0.0
C122 C 0.13867 0.28538 0.54528 0.0
C123 C 0.12484 0.23922 0.58231 0.0
C124 C 0.14323 0.23303 0.59045 0.0
C125 C 0.13949 0.22547 0.60732 0.0
C126 C 0.1165 0.22343 0.61592 0.0
C127 C 0.09725 0.22873 0.60785 0.0
C128 C 0.10185 0.23675 0.59101 0.0
C129 C 0.0726 0.22637 0.61692 0.0
C130 C 0.05849 0.20626 0.62901 0.0
C131 C 0.06262 0.24405 0.61331 0.0
C132 C 0.03907 0.2414 0.62122 0.0
C133 C 0.02488 0.2213 0.6333 0.0
C134 C 0.16056 0.22119 0.61608 0.0
C135 C 0.17042 0.20517 0.60891 0.0
C136 C 0.17207 0.23432 0.63122 0.0
C137 C 0.1936 0.23224 0.63871 0.0
C138 C 0.20381 0.21661 0.63139 0.0
C139 C 0.19163 0.20271 0.61656 0.0
C140 C 0.03505 0.20382 0.63712 0.0
H141 H 0.14277 0.23443 0.52603 0.0
H142 H 0.13293 0.21621 0.55451 0.0
H143 H 0.12971 0.28626 0.57115 0.0
H144 H 0.14035 0.30477 0.5429 0.0
H145 H 0.16124 0.23539 0.58385 0.0
H146 H 0.08738 0.24082 0.58446 0.0
H147 H 0.11383 0.21796 0.62896 0.0
H148 H 0.06526 0.19204 0.63207 0.0
H149 H 0.07302 0.26015 0.60435 0.0
H150 H 0.03183 0.25503 0.61762 0.0
H151 H 0.16189 0.19473 0.59728 0.0
H152 H 0.16507 0.24696 0.63698 0.0
H153 H 0.02503 0.18827 0.64645 0.0
H154 H 0.19916 0.19067 0.61056 0.0
H155 H 0.20248 0.24309 0.65018 0.0
C156 C 0.69673 0.83423 0.54137 0.0
C157 C 0.70986 0.85157 0.52789 0.0
C158 C 0.70995 0.83922 0.5568 0.0
C159 C 0.7362 0.86195 0.55905 0.0
C160 C 0.74942 0.87918 0.54554 0.0
C161 C 0.73647 0.87384 0.53001 0.0
C162 C 0.74902 0.86851 0.57573 0.0
C163 C 0.7541 0.8501 0.58429 0.0
C164 C 0.76501 0.85563 0.60055 0.0
C165 C 0.77092 0.88029 0.60798 0.0
C166 C 0.76633 0.89918 0.59943 0.0
C167 C 0.75525 0.89293 0.58329 0.0
C168 C 0.77263 0.92523 0.60735 0.0
C169 C 0.76832 0.9267 0.62449 0.0
C170 C 0.78259 0.94883 0.59772 0.0
C171 C 0.78747 0.97303 0.60493 0.0
C172 C 0.78309 0.97433 0.62199 0.0
C173 C 0.77005 0.8357 0.60974 0.0
C174 C 0.75368 0.80785 0.60667 0.0
C175 C 0.79124 0.84423 0.62168 0.0
C176 C 0.79562 0.82556 0.63041 0.0
C177 C 0.77964 0.79774 0.62707 0.0
C178 C 0.75871 0.78927 0.61495 0.0
C179 C 0.77377 0.95108 0.63175 0.0
H180 H 0.67622 0.81692 0.53996 0.0
H181 H 0.69934 0.8258 0.56711 0.0
H182 H 0.76966 0.89685 0.54705 0.0
H183 H 0.74688 0.88751 0.51977 0.0
H184 H 0.7499 0.83168 0.57802 0.0
H185 H 0.75055 0.90668 0.5767 0.0
H186 H 0.77906 0.88487 0.6205 0.0
H187 H 0.7602 0.90895 0.63228 0.0
H188 H 0.78679 0.94873 0.58458 0.0
H189 H 0.79497 0.99083 0.59721 0.0
H190 H 0.73672 0.80013 0.59791 0.0
H191 H 0.8048 0.86541 0.6243 0.0
H192 H 0.77006 0.95162 0.64494 0.0
H193 H 0.74619 0.76823 0.61162 0.0
H194 H 0.81157 0.83316 0.63983 0.0
C195 C 0.11557 0.83585 0.5386 0.0
C196 C 0.14267 0.84576 0.53281 0.0
C197 C 0.11069 0.84417 0.55398 0.0
C198 C 0.13283 0.86224 0.56412 0.0
C199 C 0.15997 0.87254 0.55808 0.0
C200 C 0.1648 0.86455 0.54257 0.0
C201 C 0.12776 0.86929 0.58119 0.0
C202 C 0.10596 0.84992 0.59096 0.0
C203 C 0.10192 0.85578 0.60731 0.0
C204 C 0.12012 0.8811 0.61412 0.0
C205 C 0.14157 0.90128 0.6045 0.0
C206 C 0.14503 0.89511 0.58798 0.0
C207 C 0.16002 0.92873 0.61167 0.0
C208 C 0.1499 0.93975 0.62353 0.0
C209 C 0.1879 0.94416 0.60683 0.0
C210 C 0.20501 0.96984 0.61354 0.0
C211 C 0.19496 0.98066 0.6256 0.0
C212 C 0.07823 0.8355 0.61717 0.0
C213 C 0.05118 0.82529 0.61123 0.0
C214 C 0.08243 0.82632 0.63249 0.0
C215 C 0.05991 0.8067 0.64154 0.0
C216 C 0.03283 0.79652 0.6356 0.0
C217 C 0.02866 0.80618 0.62045 0.0
C218 C 0.16715 0.96508 0.63055 0.0
H219 H 0.09811 0.82162 0.53122 0.0
H220 H 0.0895 0.83627 0.55792 0.0
H221 H 0.17761 0.88615 0.56556 0.0
H222 H 0.18592 0.87235 0.53846 0.0
H223 H 0.09242 0.82987 0.58611 0.0
H224 H 0.16086 0.91057 0.58025 0.0
H225 H 0.11721 0.88501 0.62693 0.0
H226 H 0.12849 0.92897 0.62741 0.0
H227 H 0.19675 0.9364 0.59794 0.0
H228 H 0.22608 0.98122 0.60911 0.0
H229 H 0.04747 0.83221 0.59949 0.0
H230 H 0.10315 0.83394 0.63729 0.0
H231 H 0.15855 0.97223 0.63999 0.0
H232 H 0.00799 0.79842 0.61554 0.0
H233 H 0.0636 0.79949 0.65317 0.0
C234 C 0.94585 0.48544 0.82233 0.0
C235 C 0.96511 0.47713 0.82609 0.0
C236 C 0.93102 0.47781 0.80736 0.0
C237 C 0.93539 0.46203 0.79563 0.0
C238 C 0.95474 0.45389 0.79943 0.0
C239 C 0.96899 0.46093 0.81449 0.0
C240 C 0.92062 0.4545 0.7793 0.0
C241 C 0.91381 0.47201 0.77093 0.0
C242 C 0.90242 0.4658 0.75488 0.0
C243 C 0.89845 0.44231 0.74692 0.0
C244 C 0.90429 0.42409 0.7552 0.0
C245 C 0.9145 0.43007 0.77156 0.0
C246 C 0.90027 0.3991 0.7468 0.0
C247 C 0.87891 0.3853 0.73517 0.0
C248 C 0.91787 0.38876 0.75041 0.0
C249 C 0.91375 0.36496 0.74303 0.0
C250 C 0.89242 0.35113 0.7314 0.0
C251 C 0.89459 0.48384 0.74631 0.0
C252 C 0.87461 0.48893 0.75331 0.0
C253 C 0.90633 0.49531 0.73088 0.0
C254 C 0.89839 0.51188 0.72264 0.0
C255 C 0.87811 0.51665 0.72952 0.0
C256 C 0.8662 0.50498 0.74488 0.0
C257 C 0.87526 0.36186 0.72743 0.0
H258 H 0.94244 0.49818 0.83082 0.0
H259 H 0.91612 0.48427 0.80504 0.0
H260 H 0.95934 0.44229 0.79067 0.0
H261 H 0.98308 0.45353 0.81697 0.0
H262 H 0.91815 0.49092 0.77656 0.0
H263 H 0.9177 0.41556 0.77837 0.0
H264 H 0.89074 0.43835 0.73428 0.0
H265 H 0.86468 0.39232 0.73214 0.0
H266 H 0.93502 0.39903 0.75894 0.0
H267 H 0.92719 0.35731 0.74671 0.0
H268 H 0.8652 0.48011 0.76516 0.0
H269 H 0.92176 0.49159 0.72528 0.0
H270 H 0.85895 0.35225 0.7183 0.0
H271 H 0.85067 0.50859 0.75045 0.0
H272 H 0.90784 0.52074 0.71081 0.0
C273 C 0.54342 0.49597 0.81407 0.0
C274 C 0.54085 0.47969 0.82787 0.0
C275 C 0.54944 0.49009 0.79828 0.0
C276 C 0.55251 0.46748 0.79571 0.0
C277 C 0.54949 0.45083 0.80931 0.0
C278 C 0.54398 0.45699 0.82524 0.0
C279 C 0.55847 0.46139 0.77876 0.0
C280 C 0.58017 0.48163 0.76941 0.0
C281 C 0.58476 0.47712 0.75277 0.0
C282 C 0.56691 0.45181 0.74557 0.0
C283 C 0.54554 0.43118 0.75491 0.0
C284 C 0.54165 0.43596 0.77156 0.0
C285 C 0.52674 0.40482 0.7471 0.0
C286 C 0.5108 0.40334 0.7332 0.0
C287 C 0.52466 0.38104 0.75346 0.0
C288 C 0.50728 0.3562 0.74585 0.0
C289 C 0.4912 0.35469 0.73202 0.0
C290 C 0.60805 0.49885 0.743 0.0
C291 C 0.61613 0.52612 0.74558 0.0
C292 C 0.6228 0.49268 0.73126 0.0
C293 C 0.64513 0.51318 0.72251 0.0
C294 C 0.65359 0.54049 0.72541 0.0
C295 C 0.63868 0.54658 0.73708 0.0
C296 C 0.49291 0.37843 0.72584 0.0
H297 H 0.54039 0.51314 0.81535 0.0
H298 H 0.5512 0.50302 0.78795 0.0
H299 H 0.55186 0.4333 0.80765 0.0
H300 H 0.54257 0.44413 0.83551 0.0
H301 H 0.59367 0.50085 0.77529 0.0
H302 H 0.52474 0.42028 0.77864 0.0
H303 H 0.56945 0.44805 0.73267 0.0
H304 H 0.51202 0.42145 0.72815 0.0
H305 H 0.53681 0.38176 0.76416 0.0
H306 H 0.50622 0.33812 0.75083 0.0
H307 H 0.60508 0.53183 0.75423 0.0
H308 H 0.61749 0.47199 0.729 0.0
H309 H 0.48077 0.37773 0.71514 0.0
H310 H 0.64467 0.56726 0.73997 0.0
H311 H 0.65573 0.50753 0.7135 0.0
C312 C 0.56941 0.08788 0.82637 0.0
C313 C 0.54235 0.07091 0.8323 0.0
C314 C 0.57417 0.09815 0.8101 0.0
C315 C 0.55206 0.09138 0.79904 0.0
C316 C 0.52503 0.07441 0.80499 0.0
C317 C 0.52026 0.06472 0.82135 0.0
C318 C 0.55696 0.1014 0.78134 0.0
C319 C 0.58097 0.10629 0.77262 0.0
C320 C 0.58489 0.11434 0.75582 0.0
C321 C 0.56424 0.11708 0.74753 0.0
C322 C 0.54018 0.11264 0.75592 0.0
C323 C 0.53714 0.10538 0.77287 0.0
C324 C 0.51779 0.11479 0.74699 0.0
C325 C 0.52394 0.13488 0.73494 0.0
C326 C 0.48984 0.09646 0.75045 0.0
C327 C 0.46871 0.09815 0.74219 0.0
C328 C 0.47476 0.11808 0.73006 0.0
C329 C 0.61057 0.11971 0.74691 0.0
C330 C 0.63667 0.13733 0.75375 0.0
C331 C 0.60924 0.10732 0.73155 0.0
C332 C 0.63348 0.11215 0.72335 0.0
C333 C 0.65958 0.12995 0.73015 0.0
C334 C 0.66089 0.1426 0.74539 0.0
C335 C 0.50272 0.13651 0.72659 0.0
H336 H 0.58715 0.093 0.83417 0.0
H337 H 0.59531 0.11147 0.80628 0.0
H338 H 0.50728 0.0681 0.79698 0.0
H339 H 0.49905 0.05232 0.82533 0.0
H340 H 0.5964 0.10303 0.77865 0.0
H341 H 0.51925 0.1031 0.77953 0.0
H342 H 0.56694 0.1226 0.7345 0.0
H343 H 0.54519 0.14954 0.73203 0.0
H344 H 0.48415 0.08047 0.75945 0.0
H345 H 0.44753 0.08385 0.74547 0.0
H346 H 0.63834 0.14726 0.76552 0.0
H347 H 0.58941 0.09356 0.72602 0.0
H348 H 0.50825 0.15202 0.71727 0.0
H349 H 0.68069 0.15623 0.751 0.0
H350 H 0.63184 0.10215 0.71162 0.0
C351 C 0.8094 0.58622 0.87121 0.0
C352 C 0.80768 0.60963 0.86817 0.0
C353 C 0.80509 0.57505 0.88725 0.0
C354 C 0.79843 0.58669 0.90057 0.0
C355 C 0.7968 0.61001 0.89761 0.0
C356 C 0.80165 0.62148 0.88174 0.0
C357 C 0.79347 0.57504 0.91764 0.0
C358 C 0.81336 0.57069 0.92559 0.0
C359 C 0.81027 0.56287 0.94243 0.0
C360 C 0.78658 0.55871 0.95115 0.0
C361 C 0.76591 0.56178 0.94318 0.0
C362 C 0.76962 0.57009 0.92646 0.0
C363 C 0.74074 0.55708 0.95237 0.0
C364 C 0.71427 0.53973 0.94588 0.0
C365 C 0.74301 0.57054 0.96743 0.0
C366 C 0.71934 0.56742 0.97552 0.0
C367 C 0.69289 0.55027 0.96894 0.0
C368 C 0.83235 0.56024 0.95112 0.0
C369 C 0.84254 0.54418 0.94445 0.0
C370 C 0.8438 0.57429 0.96602 0.0
C371 C 0.86544 0.57286 0.97386 0.0
C372 C 0.87568 0.55687 0.96718 0.0
C373 C 0.86378 0.54226 0.9525 0.0
C374 C 0.69057 0.53613 0.95418 0.0
H375 H 0.81364 0.5762 0.86117 0.0
H376 H 0.80644 0.55701 0.88918 0.0
H377 H 0.79222 0.61973 0.9077 0.0
H378 H 0.80098 0.63993 0.88024 0.0
H379 H 0.83194 0.57474 0.91894 0.0
H380 H 0.75414 0.57328 0.9204 0.0
H381 H 0.78403 0.55263 0.9641 0.0
H382 H 0.71193 0.52904 0.93433 0.0
H383 H 0.76315 0.58411 0.97267 0.0
H384 H 0.72171 0.57858 0.98687 0.0
H385 H 0.83403 0.53308 0.93301 0.0
H386 H 0.83645 0.58692 0.97139 0.0
H387 H 0.67046 0.52299 0.94876 0.0
H388 H 0.87144 0.52996 0.94702 0.0
H389 H 0.87425 0.58433 0.98514 0.0
C390 C 0.36629 0.16866 0.8715 0.0
C391 C 0.37219 0.19049 0.861 0.0
C392 C 0.37948 0.17302 0.88692 0.0
C393 C 0.39905 0.19927 0.89204 0.0
C394 C 0.40573 0.2209 0.88113 0.0
C395 C 0.39229 0.21658 0.86586 0.0
C396 C 0.41143 0.2044 0.90899 0.0
C397 C 0.41874 0.18659 0.91637 0.0
C398 C 0.42929 0.19085 0.93272 0.0
C399 C 0.43359 0.21416 0.94131 0.0
C400 C 0.42738 0.23272 0.93386 0.0
C401 C 0.41556 0.22715 0.91793 0.0
C402 C 0.43346 0.25821 0.94245 0.0
C403 C 0.43002 0.25906 0.95975 0.0
C404 C 0.44268 0.28208 0.93319 0.0
C405 C 0.44748 0.30586 0.94089 0.0
C406 C 0.44375 0.30656 0.95808 0.0
C407 C 0.4356 0.17094 0.94081 0.0
C408 C 0.42047 0.14337 0.93666 0.0
C409 C 0.4565 0.17913 0.95292 0.0
C410 C 0.46162 0.16034 0.96087 0.0
C411 C 0.44675 0.13282 0.95655 0.0
C412 C 0.42628 0.12474 0.94417 0.0
C413 C 0.43535 0.2831 0.96751 0.0
H414 H 0.35078 0.14835 0.86803 0.0
H415 H 0.37364 0.15592 0.89505 0.0
H416 H 0.42119 0.24129 0.88445 0.0
H417 H 0.39754 0.23368 0.85784 0.0
H418 H 0.41657 0.16963 0.9092 0.0
H419 H 0.40906 0.24045 0.91256 0.0
H420 H 0.44184 0.218 0.9538 0.0
H421 H 0.42268 0.24108 0.96727 0.0
H422 H 0.44634 0.28249 0.91994 0.0
H423 H 0.45435 0.32385 0.93341 0.0
H424 H 0.40381 0.13589 0.9277 0.0
H425 H 0.46916 0.20012 0.95632 0.0
H426 H 0.43227 0.28322 0.98081 0.0
H427 H 0.41465 0.10398 0.94011 0.0
H428 H 0.47717 0.16761 0.97053 0.0
C429 C 0.80052 0.19015 0.87211 0.0
C430 C 0.82648 0.19212 0.86977 0.0
C431 C 0.79226 0.1937 0.88795 0.0
C432 C 0.80992 0.19958 0.90167 0.0
C433 C 0.83534 0.20058 0.89946 0.0
C434 C 0.84341 0.19668 0.88377 0.0
C435 C 0.80306 0.20651 0.91809 0.0
C436 C 0.77817 0.18905 0.92625 0.0
C437 C 0.77294 0.19525 0.94233 0.0
C438 C 0.79229 0.21968 0.94985 0.0
C439 C 0.81694 0.23753 0.94163 0.0
C440 C 0.82225 0.23064 0.92587 0.0
C441 C 0.83737 0.26346 0.94934 0.0
C442 C 0.82928 0.28156 0.95524 0.0
C443 C 0.8654 0.27084 0.95004 0.0
C444 C 0.88505 0.296 0.95629 0.0
C445 C 0.87721 0.3146 0.96176 0.0
C446 C 0.7481 0.17552 0.95167 0.0
C447 C 0.72159 0.16476 0.94472 0.0
C448 C 0.75096 0.16671 0.96747 0.0
C449 C 0.72782 0.14696 0.97598 0.0
C450 C 0.70133 0.13611 0.969 0.0
C451 C 0.69835 0.14544 0.9534 0.0
C452 C 0.849 0.30693 0.96126 0.0
H453 H 0.78699 0.18681 0.86164 0.0
H454 H 0.77259 0.19295 0.88935 0.0
H455 H 0.84916 0.2047 0.9099 0.0
H456 H 0.86316 0.19753 0.88259 0.0
H457 H 0.76353 0.17011 0.92045 0.0
H458 H 0.84126 0.24438 0.91947 0.0
H459 H 0.78832 0.22464 0.96218 0.0
H460 H 0.80782 0.27643 0.95466 0.0
H461 H 0.87212 0.2571 0.94572 0.0
H462 H 0.90641 0.30081 0.95684 0.0
H463 H 0.71887 0.17128 0.93257 0.0
H464 H 0.77121 0.17457 0.97304 0.0
H465 H 0.84214 0.32077 0.96511 0.0
H466 H 0.67814 0.13718 0.94772 0.0
H467 H 0.73062 0.14005 0.98797 0.0
C468 C 0.6057 0.82067 0.15709 0.0
C469 C 0.62354 0.81147 0.16251 0.0
C470 C 0.593 0.81329 0.14148 0.0
C471 C 0.59821 0.79697 0.13068 0.0
C472 C 0.6161 0.78785 0.13612 0.0
C473 C 0.62823 0.79466 0.15185 0.0
C474 C 0.58553 0.78974 0.11375 0.0
C475 C 0.58071 0.80788 0.10455 0.0
C476 C 0.5693 0.80137 0.08847 0.0
C477 C 0.56433 0.77699 0.0812 0.0
C478 C 0.56932 0.7586 0.09004 0.0
C479 C 0.57884 0.76483 0.10653 0.0
C480 C 0.56528 0.73325 0.08203 0.0
C481 C 0.54545 0.72023 0.06945 0.0
C482 C 0.58175 0.72208 0.08671 0.0
C483 C 0.57813 0.69843 0.07935 0.0
C484 C 0.55864 0.68565 0.06657 0.0
C485 C 0.56224 0.8199 0.07941 0.0
C486 C 0.55167 0.83413 0.08813 0.0
C487 C 0.56534 0.82311 0.06202 0.0
C488 C 0.55784 0.83989 0.05361 0.0
C489 C 0.54759 0.8542 0.06243 0.0
C490 C 0.54467 0.85125 0.07975 0.0
C491 C 0.54254 0.69713 0.06164 0.0
H492 H 0.60176 0.83391 0.16477 0.0
H493 H 0.57903 0.8204 0.13794 0.0
H494 H 0.62116 0.77567 0.12815 0.0
H495 H 0.64127 0.78659 0.15561 0.0
H496 H 0.58639 0.82743 0.10975 0.0
H497 H 0.58092 0.75012 0.11388 0.0
H498 H 0.55652 0.77237 0.06862 0.0
H499 H 0.53192 0.72767 0.06558 0.0
H500 H 0.59778 0.73163 0.09602 0.0
H501 H 0.59062 0.6902 0.08387 0.0
H502 H 0.54838 0.83178 0.10144 0.0
H503 H 0.57387 0.81294 0.05489 0.0
H504 H 0.52769 0.6885 0.05163 0.0
H505 H 0.53657 0.86193 0.0868 0.0
H506 H 0.56056 0.84211 0.04025 0.0
C507 C 0.23802 0.83891 0.15434 0.0
C508 C 0.2229 0.81823 0.16587 0.0
C509 C 0.24335 0.83281 0.13836 0.0
C510 C 0.23391 0.80591 0.13362 0.0
C511 C 0.21968 0.78539 0.14545 0.0
C512 C 0.21407 0.79146 0.1613 0.0
C513 C 0.2379 0.79898 0.1163 0.0
C514 C 0.26225 0.81553 0.10735 0.0
C515 C 0.26576 0.80905 0.09094 0.0
C516 C 0.24477 0.78507 0.08373 0.0
C517 C 0.22023 0.76813 0.09248 0.0
C518 C 0.21692 0.77569 0.10858 0.0
C519 C 0.19785 0.74262 0.08493 0.0
C520 C 0.19208 0.74076 0.06776 0.0
C521 C 0.18172 0.71987 0.09497 0.0
C522 C 0.16013 0.69627 0.08816 0.0
C523 C 0.15451 0.69455 0.07107 0.0
C524 C 0.29102 0.82771 0.08123 0.0
C525 C 0.30242 0.85578 0.08259 0.0
C526 C 0.30371 0.81781 0.07037 0.0
C527 C 0.3271 0.83554 0.06111 0.0
C528 C 0.33843 0.86363 0.06248 0.0
C529 C 0.3258 0.87345 0.07342 0.0
C530 C 0.17082 0.71688 0.0609 0.0
H531 H 0.24493 0.85972 0.1575 0.0
H532 H 0.25411 0.84913 0.12958 0.0
H533 H 0.2127 0.76451 0.14244 0.0
H534 H 0.20275 0.77515 0.17002 0.0
H535 H 0.27873 0.83331 0.11326 0.0
H536 H 0.19755 0.76364 0.11506 0.0
H537 H 0.24748 0.77972 0.07124 0.0
H538 H 0.20362 0.75785 0.05963 0.0
H539 H 0.18587 0.72012 0.10814 0.0
H540 H 0.14809 0.67915 0.09621 0.0
H541 H 0.29308 0.86422 0.09062 0.0
H542 H 0.29573 0.79634 0.06912 0.0
H543 H 0.16677 0.71601 0.04767 0.0
H544 H 0.33417 0.89491 0.0751 0.0
H545 H 0.33615 0.82721 0.05277 0.0
C546 C 0.23469 0.41262 0.1583 0.0
C547 C 0.20826 0.39539 0.16482 0.0
C548 C 0.23792 0.42275 0.14209 0.0
C549 C 0.2148 0.41542 0.13178 0.0
C550 C 0.18829 0.39855 0.13854 0.0
C551 C 0.18508 0.38889 0.15488 0.0
C552 C 0.21832 0.42422 0.1139 0.0
C553 C 0.24121 0.42745 0.1046 0.0
C554 C 0.24397 0.43419 0.08763 0.0
C555 C 0.22333 0.43738 0.07974 0.0
C556 C 0.20041 0.43472 0.08871 0.0
C557 C 0.19838 0.42848 0.10582 0.0
C558 C 0.17832 0.4379 0.08017 0.0
C559 C 0.18481 0.45695 0.06737 0.0
C560 C 0.15038 0.42161 0.08465 0.0
C561 C 0.12963 0.42428 0.07663 0.0
C562 C 0.13603 0.4431 0.0637 0.0
C563 C 0.2683 0.43736 0.07813 0.0
C564 C 0.29524 0.45471 0.08394 0.0
C565 C 0.26478 0.4226 0.06346 0.0
C566 C 0.28771 0.42457 0.05505 0.0
C567 C 0.31466 0.4418 0.06093 0.0
C568 C 0.31819 0.45711 0.07533 0.0
C569 C 0.16398 0.45945 0.05922 0.0
H570 H 0.25292 0.41814 0.16575 0.0
H571 H 0.25866 0.4362 0.13765 0.0
H572 H 0.16991 0.39195 0.13105 0.0
H573 H 0.16447 0.37541 0.15953 0.0
H574 H 0.25657 0.42379 0.11035 0.0
H575 H 0.18134 0.42726 0.11294 0.0
H576 H 0.22517 0.44183 0.06655 0.0
H577 H 0.20606 0.47014 0.06367 0.0
H578 H 0.14437 0.40644 0.09425 0.0
H579 H 0.10849 0.41162 0.08071 0.0
H580 H 0.29854 0.46639 0.09518 0.0
H581 H 0.24423 0.409 0.05875 0.0
H582 H 0.16982 0.47401 0.04926 0.0
H583 H 0.33869 0.47037 0.08022 0.0
H584 H 0.28441 0.41254 0.04397 0.0
C585 C 0.47906 0.92486 0.20269 0.0
C586 C 0.47947 0.94958 0.20086 0.0
C587 C 0.47475 0.91247 0.21836 0.0
C588 C 0.47028 0.92425 0.23249 0.0
C589 C 0.47102 0.949 0.23074 0.0
C590 C 0.47583 0.9616 0.21523 0.0
C591 C 0.46459 0.91098 0.2491 0.0
C592 C 0.48272 0.90328 0.25611 0.0
C593 C 0.47879 0.89333 0.27251 0.0
C594 C 0.45603 0.89049 0.28172 0.0
C595 C 0.43706 0.89699 0.27465 0.0
C596 C 0.44164 0.90738 0.25839 0.0
C597 C 0.41253 0.89323 0.28421 0.0
C598 C 0.38597 0.87918 0.27716 0.0
C599 C 0.41553 0.90418 0.30024 0.0
C600 C 0.39255 0.9018 0.30883 0.0
C601 C 0.36601 0.8879 0.30171 0.0
C602 C 0.4988 0.88648 0.28019 0.0
C603 C 0.5066 0.86968 0.27189 0.0
C604 C 0.51037 0.89684 0.29589 0.0
C605 C 0.52964 0.89092 0.30299 0.0
C606 C 0.53735 0.87403 0.29472 0.0
C607 C 0.52545 0.8633 0.27915 0.0
C608 C 0.36294 0.87632 0.28587 0.0
H609 H 0.48147 0.91471 0.19201 0.0
H610 H 0.47423 0.89335 0.21936 0.0
H611 H 0.46814 0.9588 0.24146 0.0
H612 H 0.47687 0.98098 0.21461 0.0
H613 H 0.50056 0.90618 0.24907 0.0
H614 H 0.42746 0.91306 0.25302 0.0
H615 H 0.4527 0.88259 0.29428 0.0
H616 H 0.38304 0.87042 0.26486 0.0
H617 H 0.43576 0.9152 0.30595 0.0
H618 H 0.39551 0.91088 0.32103 0.0
H619 H 0.49793 0.86131 0.25982 0.0
H620 H 0.50486 0.90995 0.30254 0.0
H621 H 0.34279 0.86569 0.28003 0.0
H622 H 0.53117 0.8504 0.27243 0.0
H623 H 0.53844 0.89943 0.31501 0.0
C624 C 0.04105 0.50747 0.2117 0.0
C625 C 0.05198 0.53049 0.20149 0.0
C626 C 0.04685 0.50977 0.2287 0.0
C627 C 0.06394 0.53513 0.23597 0.0
C628 C 0.07472 0.5582 0.22581 0.0
C629 C 0.06876 0.55592 0.20879 0.0
C630 C 0.07091 0.53738 0.25399 0.0
C631 C 0.07643 0.51848 0.2616 0.0
C632 C 0.08308 0.52026 0.27861 0.0
C633 C 0.08503 0.54205 0.28788 0.0
C634 C 0.08058 0.56177 0.28037 0.0
C635 C 0.07278 0.55877 0.26353 0.0
C636 C 0.08588 0.58641 0.28973 0.0
C637 C 0.07972 0.58542 0.30679 0.0
C638 C 0.09846 0.61156 0.28167 0.0
C639 C 0.10503 0.63505 0.29041 0.0
C640 C 0.09975 0.63426 0.30756 0.0
C641 C 0.08882 0.49985 0.28645 0.0
C642 C 0.07519 0.47292 0.28088 0.0
C643 C 0.10831 0.50712 0.29934 0.0
C644 C 0.11398 0.48811 0.30643 0.0
C645 C 0.101 0.46139 0.3005 0.0
C646 C 0.08147 0.45411 0.28763 0.0
C647 C 0.08664 0.60909 0.31562 0.0
H648 H 0.02841 0.4875 0.2065 0.0
H649 H 0.03792 0.4916 0.23617 0.0
H650 H 0.08823 0.57805 0.23093 0.0
H651 H 0.07734 0.5741 0.20136 0.0
H652 H 0.07639 0.50279 0.25405 0.0
H653 H 0.0681 0.57316 0.25781 0.0
H654 H 0.09057 0.54403 0.3009 0.0
H655 H 0.06967 0.56639 0.31338 0.0
H656 H 0.10395 0.61332 0.26863 0.0
H657 H 0.11448 0.65394 0.28366 0.0
H658 H 0.05961 0.46621 0.27125 0.0
H659 H 0.11967 0.52764 0.30388 0.0
H660 H 0.08229 0.60772 0.32882 0.0
H661 H 0.07121 0.43394 0.28248 0.0
H662 H 0.12865 0.49456 0.31657 0.0
C663 C 0.443 0.51177 0.20556 0.0
C664 C 0.47009 0.52255 0.19957 0.0
C665 C 0.43804 0.51936 0.22117 0.0
C666 C 0.46012 0.53746 0.23135 0.0
C667 C 0.48728 0.54815 0.22523 0.0
C668 C 0.49215 0.54101 0.20947 0.0
C669 C 0.45498 0.54489 0.24831 0.0
C670 C 0.43262 0.52612 0.25808 0.0
C671 C 0.42817 0.53282 0.27417 0.0
C672 C 0.44615 0.55857 0.28056 0.0
C673 C 0.46846 0.57754 0.27106 0.0
C674 C 0.47273 0.57066 0.255 0.0
C675 C 0.48768 0.60445 0.27804 0.0
C676 C 0.47785 0.6214 0.28351 0.0
C677 C 0.51593 0.61316 0.27947 0.0
C678 C 0.53404 0.63826 0.2865 0.0
C679 C 0.52441 0.65553 0.29193 0.0
C680 C 0.4051 0.51264 0.28449 0.0
C681 C 0.37784 0.50002 0.27853 0.0
C682 C 0.41029 0.50565 0.3003 0.0
C683 C 0.38865 0.4859 0.3098 0.0
C684 C 0.36139 0.47327 0.30383 0.0
C685 C 0.35613 0.48072 0.2882 0.0
C686 C 0.49604 0.64678 0.2902 0.0
H687 H 0.42563 0.49761 0.19808 0.0
H688 H 0.41682 0.51108 0.22517 0.0
H689 H 0.50494 0.56162 0.23272 0.0
H690 H 0.51327 0.54932 0.20521 0.0
H691 H 0.41911 0.5059 0.25348 0.0
H692 H 0.4897 0.58573 0.24768 0.0
H693 H 0.4429 0.56379 0.293 0.0
H694 H 0.45612 0.61513 0.2824 0.0
H695 H 0.5239 0.60026 0.27546 0.0
H696 H 0.55551 0.64381 0.28793 0.0
H697 H 0.37335 0.50517 0.2664 0.0
H698 H 0.43118 0.51505 0.30512 0.0
H699 H 0.48779 0.65957 0.29386 0.0
H700 H 0.33529 0.47107 0.28327 0.0
H701 H 0.3932 0.48043 0.32181 0.0
Tb702 Tb 0.50191 0.98789 0.99508 0.0
C703 C 0.55556 0.08975 0.03883 0.0
C704 C 0.60429 0.10426 0.03841 0.0
C705 C 0.58944 0.13736 0.04158 0.0
C706 C 0.57639 0.08368 0.03741 0.0
C707 C 0.56172 0.11657 0.04124 0.0
C708 C 0.61072 0.13121 0.04016 0.0
C709 C 0.51277 0.09999 0.04399 0.0
N710 N 0.52914 0.06906 0.03849 0.0
C711 C 0.50776 0.0737 0.04163 0.0
C712 C 0.53986 0.12157 0.04361 0.0
Tb713 Tb 0.52284 0.02684 0.03354 0.0
N714 N 0.56923 0.05741 0.03584 0.0
C715 C 0.58917 0.05018 0.03648 0.0
C716 C 0.6248 0.09704 0.03806 0.0
C717 C 0.61716 0.06984 0.03736 0.0
H718 H 0.4867 0.05727 0.04188 0.0
H719 H 0.63283 0.06397 0.03739 0.0
H720 H 0.63202 0.14734 0.0408 0.0
H721 H 0.49573 0.10358 0.0461 0.0
H722 H 0.58382 0.02932 0.03583 0.0
H723 H 0.39191 0.94965 0.99023 0.0
H724 H 0.64648 0.11223 0.03874 0.0
H725 H 0.53851 0.95816 0.98637 0.0
H726 H 0.44091 0.98474 0.99162 0.0
H727 H 0.53001 0.91194 0.98227 0.0
H728 H 0.59464 0.15815 0.04329 0.0
H729 H 0.37868 0.90145 0.99028 0.0
H730 H 0.39364 0.86659 0.98935 0.0
H731 H 0.54369 0.1419 0.0455 0.0
H732 H 0.43139 0.85627 0.98698 0.0
N733 N 0.45568 0.95689 0.99295 0.0
C734 C 0.43563 0.96387 0.99158 0.0
C735 C 0.4003 0.9168 0.9909 0.0
C736 C 0.421 0.90983 0.99112 0.0
C737 C 0.4077 0.94398 0.99081 0.0
C738 C 0.4488 0.93063 0.992 0.0
H739 H 0.48239 0.87314 0.98392 0.0
N740 N 0.49614 0.94576 0.99067 0.0
C741 C 0.51289 0.91526 0.98473 0.0
C742 C 0.46983 0.92482 0.99073 0.0
C743 C 0.51761 0.94148 0.98704 0.0
C744 C 0.48599 0.8934 0.98572 0.0
C745 C 0.46397 0.89806 0.98848 0.0
O746 O 0.52435 0.9959 0.97273 0.0
O747 O 0.53309 0.02226 1.00842 0.0
O748 O 0.51914 0.05205 0.01458 0.0
O749 O 0.48908 0.01887 0.99594 0.0
O750 O 0.5466 0.00352 0.99278 0.0
O751 O 0.48618 0.99634 0.97342 0.0
O752 O 0.49978 0.01772 0.05569 0.0
O753 O 0.49134 0.9925 0.02017 0.0
O754 O 0.5061 0.9628 0.01418 0.0
O755 O 0.53608 0.99651 0.03239 0.0
O756 O 0.47852 0.01247 0.03544 0.0
O757 O 0.53817 0.01762 0.05506 0.0
C758 C 0.55476 0.02366 1.00272 0.0
C759 C 0.49833 0.98408 0.94794 0.0
C760 C 0.49626 0.98469 0.91741 0.0
C761 C 0.50287 0.9984 0.93286 0.0
C762 C 0.48555 0.95656 0.91747 0.0
C763 C 0.48705 0.95606 0.94749 0.0
C764 C 0.48085 0.94245 0.93235 0.0
C765 C 0.5014 0.04384 1.00203 0.0
C766 C 0.50618 0.99849 0.96402 0.0
C767 C 0.43636 0.87702 0.9885 0.0
C768 C 0.41487 0.8829 0.98985 0.0
C769 C 0.47 0.99222 0.02558 0.0
C770 C 0.52421 0.02668 0.08098 0.0
C771 C 0.5179 0.01011 0.09515 0.0
C772 C 0.52202 0.02124 0.11125 0.0
C773 C 0.53291 0.04919 0.11295 0.0
C774 C 0.53537 0.05454 0.08299 0.0
C775 C 0.53973 0.0657 0.09891 0.0
C776 C 0.52377 0.97135 0.02679 0.0
C777 C 0.51758 0.01439 0.06428 0.0
H778 H 0.51125 0.02003 0.93321 0.0
H779 H 0.48098 0.94532 0.90595 0.0
H780 H 0.48331 0.94467 0.95881 0.0
H781 H 0.47249 0.92083 0.93215 0.0
H782 H 0.50913 0.98852 0.09365 0.0
H783 H 0.5364 0.0583 0.12517 0.0
H784 H 0.54038 0.0676 0.07228 0.0
H785 H 0.54823 0.08721 0.10038 0.0
Tb786 Tb 0.03115 0.51521 0.99465 0.0
C787 C 0.93199 0.47594 0.03966 0.0
C788 C 0.92055 0.51138 0.03669 0.0
C789 C 0.88419 0.46539 0.04205 0.0
C790 C 0.94025 0.50278 0.03661 0.0
C791 C 0.90402 0.45719 0.04301 0.0
C792 C 0.89243 0.49241 0.03884 0.0
C793 C 0.91772 0.42445 0.04995 0.0
N794 N 0.95166 0.46863 0.04056 0.0
C795 C 0.94516 0.44368 0.04646 0.0
C796 C 0.89697 0.43106 0.04789 0.0
Tb797 Tb 0.99543 0.50158 0.03378 0.0
N798 N 0.96772 0.52072 0.03479 0.0
C799 C 0.97684 0.54785 0.03484 0.0
C800 C 0.92975 0.53892 0.03528 0.0
C801 C 0.95803 0.55724 0.03475 0.0
H802 H 0.9609 0.43818 0.04789 0.0
H803 H 0.9654 0.57867 0.03421 0.0
H804 H 0.87701 0.49863 0.03869 0.0
H805 H 0.91257 0.40451 0.05413 0.0
H806 H 0.99845 0.56269 0.03442 0.0
H807 H 0.0646 0.44133 0.99263 0.0
H808 H 0.91527 0.54631 0.03523 0.0
H809 H 0.06396 0.57978 0.98404 0.0
H810 H 0.03057 0.45666 0.99361 0.0
H811 H 0.11188 0.61545 0.9782 0.0
H812 H 0.86255 0.45118 0.04433 0.0
H813 H 0.11453 0.47461 0.99079 0.0
H814 H 0.15195 0.52307 0.98756 0.0
H815 H 0.87573 0.41611 0.05061 0.0
H816 H 0.16488 0.5706 0.98347 0.0
N817 N 0.06082 0.49847 0.99301 0.0
C818 C 0.05223 0.47151 0.99282 0.0
C819 C 0.09966 0.48151 0.99129 0.0
C820 C 0.1082 0.50898 0.99035 0.0
C821 C 0.0715 0.46267 0.99227 0.0
C822 C 0.088 0.51686 0.99117 0.0
H823 H 0.14996 0.60519 0.97958 0.0
N824 N 0.07487 0.54974 0.98911 0.0
C825 C 0.10753 0.59532 0.98135 0.0
C826 C 0.09531 0.54348 0.98907 0.0
C827 C 0.08039 0.57504 0.98465 0.0
C828 C 0.12898 0.58947 0.98218 0.0
C829 C 0.12296 0.56317 0.98583 0.0
O830 O 0.02306 0.52899 0.9723 0.0
O831 O 0.99671 0.51296 1.00819 0.0
O832 O 0.96845 0.46788 0.01762 0.0
O833 O 0.99753 0.47266 0.9953 0.0
O834 O 0.01635 0.54418 0.99218 0.0
O835 O 0.02291 0.49131 0.97312 0.0
O836 O 0.0256 0.51042 0.05234 0.0
O837 O 0.02831 0.50158 0.01995 0.0
O838 O 0.05877 0.54509 0.01264 0.0
O839 O 0.02676 0.54466 0.0314 0.0
O840 O 1.00539 0.46908 0.03472 0.0
O841 O 0.98599 0.50454 0.05887 0.0
C842 C 0.99562 0.53267 1.0021 0.0
C843 C 0.03509 0.51536 0.94764 0.0
C844 C 0.03266 0.51652 0.91728 0.0
C845 C 0.01956 0.50819 0.9329 0.0
C846 C 0.06175 0.5321 0.91683 0.0
C847 C 0.06398 0.53017 0.94679 0.0
C848 C 0.0772 0.53853 0.93146 0.0
C849 C 0.97399 0.45909 1.0037 0.0
C850 C 0.02063 0.50864 0.96373 0.0
C851 C 0.14344 0.55573 0.98575 0.0
C852 C 0.13607 0.52867 0.98807 0.0
C853 C 0.02684 0.48011 0.02521 0.0
C854 C 0.00753 0.49037 0.07843 0.0
C855 C 0.00953 0.49949 0.0949 0.0
C856 C 1.00669 0.48247 0.1083 0.0
C857 C 1.00202 0.4564 0.10512 0.0
C858 C 1.00345 0.4644 0.07557 0.0
C859 C 1.00061 0.44754 0.08883 0.0
C860 C 0.05204 0.556 0.025 0.0
C861 C 0.00925 0.5079 0.06448 0.0
H862 H 0.99726 0.49613 0.93372 0.0
H863 H 0.07273 0.53971 0.90522 0.0
H864 H 0.07634 0.53562 0.9579 0.0
H865 H 0.09953 0.55036 0.93093 0.0
H866 H 0.01293 0.51957 0.09729 0.0
H867 H 0.99995 0.44307 0.11527 0.0
H868 H 1.00244 0.45692 0.06319 0.0
H869 H 0.99737 0.42754 0.08647 0.0
Tb870 Tb 0.51524 0.48898 0.03401 0.0
C871 C 0.45639 0.52984 0.98869 0.0
C872 C 0.40804 0.49613 0.99085 0.0
C873 C 0.4214 0.54296 0.98575 0.0
C874 C 0.43618 0.50349 0.99131 0.0
C875 C 0.44933 0.54986 0.98552 0.0
C876 C 0.40077 0.51612 0.98842 0.0
C877 C 0.49775 0.58133 0.98081 0.0
N878 N 0.48305 0.53555 0.98849 0.0
C879 C 0.50367 0.56069 0.98394 0.0
C880 C 0.4705 0.57598 0.9818 0.0
Tb881 Tb 0.49086 0.5008 0.99474 0.0
N882 N 0.44414 0.48485 0.99347 0.0
C883 C 0.42471 0.45803 0.99402 0.0
C884 C 0.38812 0.46887 0.99237 0.0
C885 C 0.39651 0.4497 0.9937 0.0
H886 H 0.52483 0.5651 0.98324 0.0
H887 H 0.38127 0.42849 0.99458 0.0
H888 H 0.37927 0.51093 0.98819 0.0
H889 H 0.51422 0.60134 0.97763 0.0
H890 H 0.43071 0.44289 0.99519 0.0
H891 H 0.625 0.56061 0.03354 0.0
H892 H 0.36627 0.46236 0.99214 0.0
H893 H 0.48116 0.42573 0.04736 0.0
H894 H 0.57562 0.54653 0.03295 0.0
H895 H 0.49149 0.38977 0.05444 0.0
H896 H 0.41552 0.55808 0.98349 0.0
H897 H 0.63966 0.52656 0.03658 0.0
H898 H 0.6263 0.47811 0.04153 0.0
H899 H 0.46596 0.59197 0.9793 0.0
H900 H 0.58985 0.43145 0.04738 0.0
N901 N 0.56191 0.50456 0.03511 0.0
C902 C 0.58148 0.53132 0.03434 0.0
C903 C 0.61784 0.5202 0.0363 0.0
C904 C 0.59777 0.49305 0.03821 0.0
C905 C 0.60965 0.53947 0.03465 0.0
C906 C 0.56968 0.48588 0.03767 0.0
H907 H 0.53948 0.3984 0.05259 0.0
N908 N 0.52281 0.4544 0.04112 0.0
C909 C 0.50796 0.40935 0.05053 0.0
C910 C 0.54936 0.4598 0.04085 0.0
C911 C 0.5022 0.42983 0.04653 0.0
C912 C 0.53506 0.41427 0.04943 0.0
C913 C 0.55626 0.4399 0.0448 0.0
O914 O 0.49422 0.47872 0.05691 0.0
O915 O 0.48243 0.48994 0.02053 0.0
O916 O 0.49468 0.5316 0.01213 0.0
O917 O 0.52713 0.5319 0.03055 0.0
O918 O 0.47091 0.46063 0.03787 0.0
O919 O 0.53246 0.51604 0.05412 0.0
O920 O 0.51172 0.51228 0.97182 0.0
O921 O 0.52358 0.49944 1.00811 0.0
O922 O 0.5099 0.45675 0.0172 0.0
O923 O 0.4792 0.45807 0.99794 0.0
O924 O 0.53514 0.5293 0.99108 0.0
O925 O 0.47414 0.47422 0.97439 0.0
C926 C 0.46143 0.47076 0.02727 0.0
C927 C 0.52162 0.49609 0.08087 0.0
C928 C 0.51973 0.49895 0.1111 0.0
C929 C 0.51359 0.50465 0.09515 0.0
C930 C 0.53424 0.48487 0.1126 0.0
C931 C 0.5365 0.48246 0.08262 0.0
C932 C 0.54276 0.47689 0.09842 0.0
C933 C 0.51335 0.54306 0.02402 0.0
C934 C 0.513 0.50028 0.06437 0.0
C935 C 0.5841 0.44651 0.04456 0.0
C936 C 0.60485 0.47307 0.04123 0.0
C937 C 0.54453 0.51875 1.00143 0.0
C938 C 0.48434 0.4949 0.94785 0.0
C939 C 0.49303 0.48747 0.93336 0.0
C940 C 0.48655 0.49338 0.91757 0.0
C941 C 0.47101 0.50648 0.91643 0.0
C942 C 0.46848 0.50759 0.94646 0.0
C943 C 0.46184 0.5133 0.93082 0.0
C944 C 0.49173 0.44597 1.00493 0.0
C945 C 0.49333 0.49064 0.96421 0.0
H946 H 0.50201 0.51514 0.09387 0.0
H947 H 0.53926 0.48033 0.12475 0.0
H948 H 0.54306 0.47591 0.07184 0.0
H949 H 0.55412 0.46623 0.09967 0.0
H950 H 0.5054 0.47775 0.93435 0.0
H951 H 0.46579 0.51121 0.9044 0.0
H952 H 0.46148 0.51331 0.95742 0.0
H953 H 0.44973 0.52325 0.92983 0.0
Tb954 Tb 0.16721 0.32105 0.33241 0.0
C955 C 0.21591 0.4215 0.37628 0.0
C956 C 0.26515 0.4384 0.37585 0.0
C957 C 0.24781 0.46962 0.37881 0.0
C958 C 0.23773 0.41682 0.37494 0.0
C959 C 0.22058 0.44785 0.37858 0.0
C960 C 0.27008 0.4649 0.37743 0.0
C961 C 0.17125 0.42887 0.38159 0.0
N962 N 0.18999 0.39989 0.37608 0.0
C963 C 0.16772 0.40308 0.37936 0.0
C964 C 0.19777 0.4514 0.38099 0.0
Tb965 Tb 0.1862 0.35862 0.37138 0.0
N966 N 0.232 0.39092 0.37356 0.0
C967 C 0.25293 0.38508 0.37428 0.0
C968 C 0.28669 0.4326 0.37561 0.0
C969 C 0.28052 0.40579 0.37507 0.0
H970 H 0.14713 0.38584 0.37974 0.0
H971 H 0.297 0.40103 0.37518 0.0
H972 H 0.29101 0.48179 0.378 0.0
H973 H 0.15352 0.43134 0.38376 0.0
H974 H 0.24866 0.36453 0.37374 0.0
H975 H 0.05627 0.27782 0.32872 0.0
H976 H 0.30806 0.44859 0.37623 0.0
H977 H 0.20661 0.29482 0.3224 0.0
H978 H 0.10447 0.31454 0.33041 0.0
H979 H 0.20066 0.24983 0.31709 0.0
H980 H 0.25188 0.49008 0.38041 0.0
H981 H 0.04564 0.23043 0.32694 0.0
H982 H 0.06315 0.19769 0.32425 0.0
H983 H 0.20046 0.47133 0.38278 0.0
H984 H 0.10258 0.19003 0.32096 0.0
N985 N 0.1215 0.28845 0.33011 0.0
C986 C 0.10039 0.29408 0.32959 0.0
C987 C 0.06696 0.24653 0.32769 0.0
C988 C 0.08867 0.241 0.32713 0.0
C989 C 0.07288 0.27324 0.32864 0.0
C990 C 0.11601 0.26271 0.32823 0.0
H991 H 0.154 0.20945 0.31797 0.0
N992 N 0.16375 0.28018 0.3267 0.0
C993 C 0.18284 0.25193 0.31978 0.0
C994 C 0.13797 0.2584 0.32642 0.0
C995 C 0.18611 0.27745 0.32278 0.0
C996 C 0.15648 0.22918 0.32033 0.0
C997 C 0.13356 0.23228 0.32341 0.0
O998 O 0.19038 0.3322 0.31026 0.0
O999 O 0.19722 0.35565 0.34616 0.0
O1000 O 0.18114 0.38326 0.35265 0.0
O1001 O 0.15161 0.34986 0.3341 0.0
O1002 O 0.21213 0.33843 0.33031 0.0
O1003 O 0.15044 0.32902 0.31105 0.0
O1004 O 0.16369 0.34949 0.39374 0.0
O1005 O 0.15632 0.32385 0.35772 0.0
O1006 O 0.1736 0.29637 0.35072 0.0
O1007 O 0.20125 0.32961 0.37001 0.0
O1008 O 0.14123 0.34092 0.37361 0.0
O1009 O 0.20271 0.35066 0.39283 0.0
C1010 C 0.2194 0.35813 0.3405 0.0
C1011 C 0.16548 0.32123 0.2851 0.0
C1012 C 0.16808 0.32602 0.25477 0.0
C1013 C 0.17161 0.33744 0.27077 0.0
C1014 C 0.158 0.29817 0.25334 0.0
C1015 C 0.15508 0.29343 0.28332 0.0
C1016 C 0.15136 0.28201 0.26752 0.0
C1017 C 0.16307 0.37466 0.34032 0.0
C1018 C 0.17147 0.33379 0.30173 0.0
C1019 C 0.10643 0.21032 0.32308 0.0
C1020 C 0.084 0.21468 0.32496 0.0
C1021 C 0.13413 0.3212 0.36346 0.0
C1022 C 0.18978 0.3615 0.4185 0.0
C1023 C 0.18549 0.3468 0.43337 0.0
C1024 C 0.19152 0.35996 0.44899 0.0
C1025 C 0.20156 0.38798 0.4493 0.0
C1026 C 0.2003 0.3894 0.41929 0.0
C1027 C 0.20605 0.4025 0.43459 0.0
C1028 C 0.19081 0.30504 0.36358 0.0
C1029 C 0.18238 0.34751 0.4023 0.0
H1030 H 0.17975 0.35897 0.27206 0.0
H1031 H 0.15495 0.28885 0.24121 0.0
H1032 H 0.15013 0.28061 0.29411 0.0
H1033 H 0.14345 0.26056 0.26626 0.0
H1034 H 0.17769 0.32528 0.43272 0.0
H1035 H 0.20567 0.39879 0.46095 0.0
H1036 H 0.20378 0.40105 0.4081 0.0
H1037 H 0.21384 0.42401 0.43507 0.0
Tb1038 Tb 0.70595 0.85212 0.32163 0.0
C1039 C 0.59679 0.80434 0.35993 0.0
C1040 C 0.5835 0.83853 0.35867 0.0
C1041 C 0.54816 0.79122 0.36035 0.0
C1042 C 0.60402 0.83104 0.35867 0.0
C1043 C 0.56883 0.7841 0.36129 0.0
C1044 C 0.55549 0.81842 0.35901 0.0
C1045 C 0.5841 0.75192 0.3661 0.0
N1046 N 0.61742 0.79843 0.36093 0.0
C1047 C 0.61154 0.77275 0.36466 0.0
C1048 C 0.56262 0.75754 0.36415 0.0
Tb1049 Tb 0.66166 0.83374 0.35799 0.0
N1050 N 0.63129 0.84976 0.35861 0.0
C1051 C 0.63942 0.87653 0.36005 0.0
C1052 C 0.59178 0.86597 0.35898 0.0
C1053 C 0.61986 0.88502 0.36001 0.0
H1054 H 0.62794 0.76812 0.36607 0.0
H1055 H 0.6265 0.90629 0.36066 0.0
H1056 H 0.53939 0.82374 0.35879 0.0
H1057 H 0.57954 0.73154 0.36864 0.0
H1058 H 0.66103 0.89159 0.36071 0.0
H1059 H 0.73976 0.77843 0.3212 0.0
H1060 H 0.57668 0.8726 0.35894 0.0
H1061 H 0.74051 0.91757 0.31313 0.0
H1062 H 0.70574 0.7937 0.32039 0.0
H1063 H 0.78909 0.95361 0.31038 0.0
H1064 H 0.52651 0.77595 0.36115 0.0
H1065 H 0.78972 0.81173 0.32244 0.0
H1066 H 0.82748 0.86037 0.3217 0.0
H1067 H 0.5414 0.74138 0.36528 0.0
H1068 H 0.84099 0.90822 0.3186 0.0
N1069 N 0.73588 0.83554 0.32163 0.0
C1070 C 0.7274 0.80862 0.32086 0.0
C1071 C 0.77484 0.81862 0.32209 0.0
C1072 C 0.78348 0.84614 0.32179 0.0
C1073 C 0.74668 0.79978 0.32133 0.0
C1074 C 0.76323 0.85398 0.32144 0.0
H1075 H 0.82678 0.94317 0.31399 0.0
N1076 N 0.75045 0.88697 0.31867 0.0
C1077 C 0.78425 0.93321 0.31314 0.0
C1078 C 0.77082 0.88072 0.31984 0.0
C1079 C 0.7567 0.91268 0.3147 0.0
C1080 C 0.80547 0.92725 0.31523 0.0
C1081 C 0.79888 0.90065 0.31837 0.0
O1082 O 0.70142 0.86739 0.2988 0.0
O1083 O 0.66964 0.84933 0.33302 0.0
O1084 O 0.63735 0.80583 0.33813 0.0
O1085 O 0.67295 0.80932 0.32119 0.0
O1086 O 0.69257 0.88195 0.31831 0.0
O1087 O 0.69951 0.82892 0.29999 0.0
O1088 O 0.66638 0.81806 0.38059 0.0
O1089 O 0.69802 0.83691 0.3466 0.0
O1090 O 0.72999 0.88039 0.34125 0.0
O1091 O 0.69476 0.87676 0.35869 0.0
O1092 O 0.67584 0.80437 0.36126 0.0
O1093 O 0.66807 0.85647 0.37984 0.0
C1094 C 0.67062 0.87025 0.32725 0.0
C1095 C 0.71599 0.85386 0.27508 0.0
C1096 C 0.71771 0.85332 0.2447 0.0
C1097 C 0.70254 0.84553 0.25968 0.0
C1098 C 0.74671 0.8694 0.24555 0.0
C1099 C 0.74487 0.86943 0.27561 0.0
C1100 C 0.76012 0.87714 0.2609 0.0
C1101 C 0.64666 0.79684 0.32597 0.0
C1102 C 0.69934 0.84709 0.29034 0.0
C1103 C 0.81928 0.8932 0.31951 0.0
C1104 C 0.81159 0.86595 0.32127 0.0
C1105 C 0.69797 0.81652 0.3525 0.0
C1106 C 0.65215 0.831 0.40464 0.0
C1107 C 0.66579 0.83557 0.41996 0.0
C1108 C 0.65075 0.8269 0.43496 0.0
C1109 C 0.62167 0.81385 0.43422 0.0
C1110 C 0.62327 0.8184 0.40424 0.0
C1111 C 0.60814 0.8099 0.41899 0.0
C1112 C 0.72094 0.88934 0.35357 0.0
C1113 C 0.6685 0.83819 0.38927 0.0
H1114 H 0.68024 0.83296 0.25946 0.0
H1115 H 0.75913 0.8764 0.23438 0.0
H1116 H 0.75564 0.87591 0.28729 0.0
H1117 H 0.78241 0.88945 0.26139 0.0
H1118 H 0.68817 0.84589 0.4201 0.0
H1119 H 0.60924 0.80626 0.44535 0.0
H1120 H 0.61241 0.81485 0.39259 0.0
H1121 H 0.5858 0.79988 0.41859 0.0
Tb1122 Tb 0.18592 0.8284 0.36738 0.0
C1123 C 0.12524 0.86273 0.32286 0.0
C1124 C 0.07926 0.82428 0.32574 0.0
C1125 C 0.08523 0.86871 0.32054 0.0
C1126 C 0.10821 0.83562 0.32582 0.0
C1127 C 0.11395 0.87941 0.31943 0.0
C1128 C 0.06789 0.84115 0.32373 0.0
C1129 C 0.15958 0.9144 0.31128 0.0
N1130 N 0.15271 0.87201 0.32146 0.0
C1131 C 0.16973 0.89699 0.3148 0.0
C1132 C 0.13167 0.9058 0.31399 0.0
Tb1133 Tb 0.16731 0.84197 0.32741 0.0
N1134 N 0.12003 0.82001 0.32736 0.0
C1135 C 0.10397 0.79255 0.32752 0.0
C1136 C 0.06268 0.79624 0.32687 0.0
C1137 C 0.07511 0.78028 0.32737 0.0
H1138 H 0.19139 0.90379 0.31283 0.0
H1139 H 0.0625 0.75853 0.32779 0.0
H1140 H 0.0457 0.8329 0.32389 0.0
H1141 H 0.17329 0.93444 0.30654 0.0
H1142 H 0.11324 0.77999 0.32789 0.0
H1143 H 0.29219 0.9099 0.3751 0.0
H1144 H 0.04035 0.7867 0.3268 0.0
H1145 H 0.16263 0.76159 0.37378 0.0
H1146 H 0.24227 0.88929 0.37648 0.0
H1147 H 0.18037 0.73053 0.3703 0.0
H1148 H 0.07615 0.88128 0.31822 0.0
H1149 H 0.31363 0.88247 0.36801 0.0
H1150 H 0.30773 0.83698 0.36199 0.0
H1151 H 0.12381 0.91924 0.31116 0.0
H1152 H 0.27704 0.78789 0.3602 0.0
N1153 N 0.23377 0.84997 0.36887 0.0
C1154 C 0.2505 0.8767 0.37279 0.0
C1155 C 0.29131 0.87313 0.3684 0.0
C1156 C 0.27439 0.84551 0.36568 0.0
C1157 C 0.27929 0.88865 0.37234 0.0
C1158 C 0.24539 0.83434 0.36628 0.0
H1159 H 0.22956 0.74797 0.36349 0.0
N1160 N 0.20072 0.79696 0.3672 0.0
C1161 C 0.19405 0.75195 0.36853 0.0
C1162 C 0.22822 0.80689 0.36516 0.0
C1163 C 0.18405 0.76985 0.3703 0.0
C1164 C 0.22177 0.76185 0.36468 0.0
C1165 C 0.23946 0.78968 0.36355 0.0
O1166 O 0.16395 0.80235 0.38716 0.0
O1167 O 0.15181 0.82385 0.35169 0.0
O1168 O 0.17557 0.87654 0.34314 0.0
O1169 O 0.19878 0.8715 0.36587 0.0
O1170 O 0.15503 0.83856 0.37535 0.0
O1171 O 0.19634 0.84326 0.3918 0.0
O1172 O 0.18692 0.85723 0.30429 0.0
O1173 O 0.19852 0.83921 0.34175 0.0
O1174 O 0.15802 0.79041 0.35443 0.0
O1175 O 0.16839 0.80433 0.32718 0.0
O1176 O 0.21134 0.87196 0.32653 0.0
O1177 O 0.15285 0.81692 0.30633 0.0
C1178 C 0.14023 0.83166 0.36216 0.0
C1179 C 0.18497 0.81229 0.41398 0.0
C1180 C 0.18569 0.81369 0.44436 0.0
C1181 C 0.18076 0.82226 0.42901 0.0
C1182 C 0.19514 0.79508 0.4445 0.0
C1183 C 0.19493 0.79415 0.41431 0.0
C1184 C 0.19995 0.78559 0.42954 0.0
C1185 C 0.19025 0.88553 0.357 0.0
C1186 C 0.17769 0.82066 0.39839 0.0
C1187 C 0.26811 0.80078 0.36174 0.0
C1188 C 0.28558 0.82869 0.36282 0.0
C1189 C 0.21988 0.85984 0.33633 0.0
C1190 C 0.15887 0.83838 0.28045 0.0
C1191 C 0.16864 0.83382 0.26536 0.0
C1192 C 0.15646 0.83449 0.25017 0.0
C1193 C 0.1349 0.84044 0.25023 0.0
C1194 C 0.13728 0.84421 0.28023 0.0
C1195 C 0.12554 0.84545 0.26518 0.0
C1196 C 0.16016 0.78544 0.33862 0.0
C1197 C 0.17027 0.83532 0.29628 0.0
H1198 H 0.173 0.83627 0.42877 0.0
H1199 H 0.19912 0.78818 0.45616 0.0
H1200 H 0.19864 0.78648 0.4029 0.0
H1201 H 0.20749 0.77145 0.42976 0.0
H1202 H 0.18499 0.82883 0.26548 0.0
H1203 H 0.12525 0.84113 0.23869 0.0
H1204 H 0.12917 0.84736 0.29164 0.0
H1205 H 0.10884 0.84991 0.26511 0.0
Tb1206 Tb 0.83243 0.65135 0.6616 0.0
C1207 C 0.88732 0.74988 0.70789 0.0
C1208 C 0.93622 0.76535 0.70654 0.0
C1209 C 0.92058 0.79747 0.71158 0.0
C1210 C 0.90846 0.74446 0.70555 0.0
C1211 C 0.89302 0.77634 0.71125 0.0
C1212 C 0.94217 0.79198 0.70922 0.0
C1213 C 0.84402 0.75864 0.71491 0.0
N1214 N 0.86106 0.72886 0.70752 0.0
C1215 C 0.83946 0.73272 0.71159 0.0
C1216 C 0.8709 0.7806 0.71455 0.0
Tb1217 Tb 0.85552 0.68735 0.70107 0.0
N1218 N 0.90177 0.71846 0.70313 0.0
C1219 C 0.92209 0.71174 0.70287 0.0
C1220 C 0.9571 0.75872 0.70526 0.0
C1221 C 0.94997 0.73173 0.70368 0.0
H1222 H 0.81856 0.716 0.71183 0.0
H1223 H 0.96593 0.72628 0.70299 0.0
H1224 H 0.96336 0.80835 0.70987 0.0
H1225 H 0.8268 0.76164 0.71774 0.0
H1226 H 0.91708 0.69106 0.70155 0.0
H1227 H 0.72296 0.61731 0.65898 0.0
H1228 H 0.9787 0.77416 0.70589 0.0
H1229 H 0.8665 0.62 0.65092 0.0
H1230 H 0.77232 0.65084 0.66032 0.0
H1231 H 0.85604 0.57337 0.64559 0.0
H1232 H 0.92543 0.818 0.71401 0.0
H1233 H 0.70782 0.56875 0.657 0.0
H1234 H 0.72078 0.53267 0.65389 0.0
H1235 H 0.87438 0.80063 0.71718 0.0
H1236 H 0.75711 0.52065 0.6501 0.0
N1237 N 0.78571 0.62185 0.65957 0.0
C1238 C 0.76636 0.62987 0.65939 0.0
C1239 C 0.72967 0.58345 0.65758 0.0
C1240 C 0.74956 0.57546 0.65668 0.0
C1241 C 0.73815 0.61083 0.65864 0.0
C1242 C 0.7777 0.59544 0.65756 0.0
H1243 H 0.8077 0.53578 0.64673 0.0
N1244 N 0.82454 0.60894 0.6554 0.0
C1245 C 0.83948 0.57739 0.64838 0.0
C1246 C 0.79791 0.58872 0.65536 0.0
C1247 C 0.8453 0.60382 0.65133 0.0
C1248 C 0.81218 0.55622 0.64909 0.0
C1249 C 0.79091 0.56179 0.65234 0.0
O1250 O 0.85218 0.6575 0.63833 0.0
O1251 O 0.8646 0.68432 0.67538 0.0
O1252 O 0.85151 0.71412 0.68342 0.0
O1253 O 0.81991 0.68225 0.6648 0.0
O1254 O 0.87685 0.66666 0.65806 0.0
O1255 O 0.81913 0.66603 0.64178 0.0
O1256 O 0.83339 0.67625 0.7236 0.0
O1257 O 0.82361 0.65395 0.68731 0.0
O1258 O 0.83762 0.62518 0.67936 0.0
O1259 O 0.8693 0.65759 0.6977 0.0
O1260 O 0.81098 0.67177 0.70427 0.0
O1261 O 0.87234 0.67748 0.72162 0.0
C1262 C 0.88576 0.68583 0.66876 0.0
C1263 C 0.82511 0.65364 0.61472 0.0
C1264 C 0.82518 0.65874 0.58443 0.0
C1265 C 0.8367 0.66911 0.60021 0.0
C1266 C 0.80219 0.63255 0.58344 0.0
C1267 C 0.80232 0.62754 0.61335 0.0
C1268 C 0.79099 0.61709 0.59778 0.0
C1269 C 0.83298 0.70686 0.67137 0.0
C1270 C 0.8364 0.66527 0.6312 0.0
C1271 C 0.76296 0.54153 0.65225 0.0
C1272 C 0.74229 0.54836 0.65442 0.0
C1273 C 0.8023 0.65245 0.69367 0.0
C1274 C 0.85923 0.68522 0.74825 0.0
C1275 C 0.85155 0.66834 0.76236 0.0
C1276 C 0.85613 0.67943 0.77849 0.0
C1277 C 0.86879 0.70753 0.78033 0.0
C1278 C 0.8722 0.71324 0.75041 0.0
C1279 C 0.87698 0.72429 0.76637 0.0
C1280 C 0.85684 0.63307 0.69106 0.0
C1281 C 0.85204 0.67329 0.73146 0.0
H1282 H 0.85423 0.68935 0.60125 0.0
H1283 H 0.79304 0.62389 0.57151 0.0
H1284 H 0.79316 0.61535 0.6243 0.0
H1285 H 0.77337 0.59694 0.59682 0.0
H1286 H 0.8414 0.64665 0.76079 0.0
H1287 H 0.87256 0.71652 0.7926 0.0
H1288 H 0.8783 0.72654 0.73978 0.0
H1289 H 0.88685 0.74593 0.76793 0.0
Tb1290 Tb 0.36597 0.17977 0.66014 0.0
C1291 C 0.2538 0.12512 0.69531 0.0
C1292 C 0.23678 0.15636 0.69286 0.0
C1293 C 0.20435 0.10816 0.69391 0.0
C1294 C 0.25889 0.15113 0.69381 0.0
C1295 C 0.2265 0.10328 0.69567 0.0
C1296 C 0.20948 0.1347 0.69253 0.0
C1297 C 0.24508 0.07382 0.7008 0.0
N1298 N 0.27577 0.12137 0.69708 0.0
C1299 C 0.27177 0.09622 0.70048 0.0
C1300 C 0.22234 0.07731 0.69818 0.0
Tb1301 Tb 0.31881 0.15899 0.69522 0.0
N1302 N 0.28554 0.1714 0.69423 0.0
C1303 C 0.29136 0.1976 0.69507 0.0
C1304 C 0.24277 0.18318 0.69274 0.0
C1305 C 0.27016 0.20387 0.69415 0.0
H1306 H 0.28922 0.09325 0.70235 0.0
H1307 H 0.27502 0.22469 0.69438 0.0
H1308 H 0.19222 0.13828 0.69161 0.0
H1309 H 0.24208 0.05389 0.70303 0.0
H1310 H 0.31235 0.21394 0.69598 0.0
H1311 H 0.41216 0.1162 0.66208 0.0
H1312 H 0.22641 0.18809 0.69197 0.0
H1313 H 0.3941 0.24542 0.65271 0.0
H1314 H 0.37399 0.12576 0.66009 0.0
H1315 H 0.44074 0.28542 0.65184 0.0
H1316 H 0.1832 0.09165 0.69402 0.0
H1317 H 0.46042 0.15367 0.6641 0.0
H1318 H 0.49367 0.20371 0.66395 0.0
H1319 H 0.20168 0.05996 0.69849 0.0
H1320 H 0.50149 0.24988 0.66117 0.0
N1321 N 0.40003 0.16846 0.66129 0.0
C1322 C 0.39484 0.14244 0.66084 0.0
C1323 C 0.4437 0.15805 0.66318 0.0
C1324 C 0.44901 0.18465 0.6627 0.0
C1325 C 0.4165 0.13686 0.66199 0.0
C1326 C 0.42646 0.18918 0.66158 0.0
H1327 H 0.48185 0.28056 0.65647 0.0
N1328 N 0.40848 0.21808 0.65822 0.0
C1329 C 0.43825 0.26572 0.65422 0.0
C1330 C 0.43087 0.21497 0.66 0.0
C1331 C 0.41183 0.24295 0.65466 0.0
C1332 C 0.46141 0.26291 0.65687 0.0
C1333 C 0.45792 0.23723 0.65953 0.0
O1334 O 0.3613 0.19319 0.63672 0.0
O1335 O 0.32739 0.17343 0.67011 0.0
O1336 O 0.29835 0.13021 0.67508 0.0
O1337 O 0.33675 0.13566 0.66027 0.0
O1338 O 0.34776 0.20546 0.65477 0.0
O1339 O 0.36308 0.15657 0.63908 0.0
O1340 O 0.32043 0.14378 0.71876 0.0
O1341 O 0.35721 0.16495 0.68523 0.0
O1342 O 0.38673 0.20852 0.68021 0.0
O1343 O 0.34851 0.20303 0.69524 0.0
O1344 O 0.33659 0.13302 0.70062 0.0
O1345 O 0.32498 0.18336 0.71611 0.0
C1346 C 0.32558 0.19232 0.66337 0.0
C1347 C 0.3789 0.18095 0.6139 0.0
C1348 C 0.3817 0.18118 0.58367 0.0
C1349 C 0.36608 0.17232 0.59835 0.0
C1350 C 0.41039 0.19851 0.58466 0.0
C1351 C 0.40764 0.19794 0.61475 0.0
C1352 C 0.4233 0.20661 0.60016 0.0
C1353 C 0.31012 0.1216 0.66427 0.0
C1354 C 0.36158 0.17345 0.62886 0.0
C1355 C 0.48052 0.23303 0.66134 0.0
C1356 C 0.47606 0.20675 0.66293 0.0
C1357 C 0.35883 0.14599 0.69205 0.0
C1358 C 0.30584 0.16009 0.7412 0.0
C1359 C 0.31684 0.16011 0.75686 0.0
C1360 C 0.30153 0.15696 0.77138 0.0
C1361 C 0.27484 0.15343 0.77004 0.0
C1362 C 0.27904 0.15625 0.74001 0.0
C1363 C 0.26361 0.15286 0.7544 0.0
C1364 C 0.37515 0.21699 0.69123 0.0
C1365 C 0.32317 0.16501 0.72645 0.0
H1366 H 0.34383 0.15936 0.59764 0.0
H1367 H 0.42277 0.20561 0.57346 0.0
H1368 H 0.41789 0.2048 0.6266 0.0
H1369 H 0.44544 0.21987 0.60088 0.0
H1370 H 0.33767 0.16335 0.75778 0.0
H1371 H 0.26267 0.15099 0.78108 0.0
H1372 H 0.2702 0.15617 0.72805 0.0
H1373 H 0.24299 0.15004 0.75345 0.0
Tb1374 Tb 0.84894 0.1527 0.70114 0.0
C1375 C 0.78414 0.19131 0.65978 0.0
C1376 C 0.73646 0.15581 0.66174 0.0
C1377 C 0.74747 0.20241 0.65877 0.0
C1378 C 0.76492 0.16442 0.66167 0.0
C1379 C 0.77573 0.21063 0.65795 0.0
C1380 C 0.72785 0.17502 0.66068 0.0
C1381 C 0.82354 0.24421 0.6533 0.0
N1382 N 0.81118 0.19834 0.65902 0.0
C1383 C 0.83083 0.22424 0.65512 0.0
C1384 C 0.79591 0.23746 0.65493 0.0
Tb1385 Tb 0.82119 0.16449 0.66325 0.0
N1386 N 0.77415 0.14657 0.66259 0.0
C1387 C 0.75573 0.11947 0.66227 0.0
C1388 C 0.71756 0.12814 0.66239 0.0
C1389 C 0.72725 0.10989 0.66235 0.0
H1390 H 0.85227 0.22972 0.65398 0.0
H1391 H 0.7128 0.08842 0.66253 0.0
H1392 H 0.70608 0.16884 0.6609 0.0
H1393 H 0.83925 0.2648 0.65066 0.0
H1394 H 0.76278 0.10503 0.66243 0.0
H1395 H 0.95713 0.22945 0.6994 0.0
H1396 H 0.6955 0.12067 0.6625 0.0
H1397 H 0.81927 0.08922 0.71377 0.0
H1398 H 0.9072 0.21242 0.69999 0.0
H1399 H 0.83296 0.05521 0.71956 0.0
H1400 H 0.74055 0.21697 0.65756 0.0
H1401 H 0.97499 0.1977 0.70085 0.0
H1402 H 0.96506 0.15003 0.70478 0.0
H1403 H 0.79032 0.25295 0.65346 0.0
H1404 H 0.93115 0.10242 0.7105 0.0
N1405 N 0.89615 0.17098 0.70122 0.0
C1406 C 0.91438 0.19813 0.70068 0.0
C1407 C 0.9529 0.19002 0.70108 0.0
C1408 C 0.93428 0.16244 0.70281 0.0
C1409 C 0.9429 0.20799 0.70033 0.0
C1410 C 0.90574 0.15354 0.70295 0.0
H1411 H 0.88182 0.06696 0.71645 0.0
N1412 N 0.8599 0.11996 0.70714 0.0
C1413 C 0.84834 0.07531 0.71571 0.0
C1414 C 0.88688 0.127 0.70613 0.0
C1415 C 0.84068 0.09471 0.71245 0.0
C1416 C 0.87592 0.08199 0.71389 0.0
C1417 C 0.89568 0.10824 0.70929 0.0
O1418 O 0.83068 0.13984 0.72477 0.0
O1419 O 0.81429 0.15186 0.6888 0.0
O1420 O 0.82327 0.19289 0.68198 0.0
O1421 O 0.85854 0.19505 0.69851 0.0
O1422 O 0.80543 0.12232 0.70563 0.0
O1423 O 0.86394 0.1804 0.72091 0.0
O1424 O 0.8411 0.1786 0.64026 0.0
O1425 O 0.85542 0.16404 0.67533 0.0
O1426 O 0.84415 0.12166 0.68343 0.0
O1427 O 0.81197 0.12223 0.66499 0.0
O1428 O 0.865 0.19455 0.65911 0.0
O1429 O 0.80466 0.13941 0.64222 0.0
C1430 C 0.79441 0.13163 0.69557 0.0
C1431 C 0.86017 0.1615 0.7475 0.0
C1432 C 0.86116 0.16339 0.77785 0.0
C1433 C 0.84874 0.16351 0.76264 0.0
C1434 C 0.88493 0.16083 0.77769 0.0
C1435 C 0.88383 0.15888 0.74761 0.0
C1436 C 0.89607 0.15847 0.76265 0.0
C1437 C 0.843 0.20505 0.69318 0.0
C1438 C 0.8475 0.16279 0.73175 0.0
C1439 C 0.92395 0.11657 0.70829 0.0
C1440 C 0.94324 0.14366 0.70503 0.0
C1441 C 0.8756 0.18406 0.66861 0.0
C1442 C 0.81334 0.16222 0.61642 0.0
C1443 C 0.82167 0.15576 0.60145 0.0
C1444 C 0.81486 0.1627 0.5861 0.0
C1445 C 0.79933 0.17585 0.58586 0.0
C1446 C 0.79745 0.17496 0.61597 0.0
C1447 C 0.79046 0.18169 0.60073 0.0
C1448 C 0.82578 0.11086 0.67123 0.0
C1449 C 0.82314 0.15722 0.63225 0.0
H1450 H 0.83059 0.16579 0.76256 0.0
H1451 H 0.89478 0.16044 0.78921 0.0
H1452 H 0.89296 0.15737 0.73611 0.0
H1453 H 0.91435 0.15646 0.76265 0.0
H1454 H 0.8341 0.14605 0.60173 0.0
H1455 H 0.79389 0.18137 0.57415 0.0
H1456 H 0.79079 0.18004 0.62732 0.0
H1457 H 0.77835 0.1917 0.60046 0.0
H1458 H 0.34901 0.91077 0.04785 0.0
H1459 H 0.38457 0.85974 0.05533 0.0
H1460 H 0.42744 0.8935 0.0421 0.0
H1461 H 0.45685 0.94004 0.03155 0.0
H1462 H 0.42196 0.99197 0.02662 0.0
H1463 H 0.37702 0.95558 0.03584 0.0
C1464 C 0.36613 0.90699 0.04667 0.0
C1465 C 0.36357 0.88285 0.05288 0.0
C1466 C 0.391 0.92682 0.03955 0.0
C1467 C 0.38579 0.87806 0.05068 0.0
C1468 C 0.41045 0.89748 0.04322 0.0
C1469 C 0.43918 0.94306 0.03211 0.0
C1470 C 0.44246 0.96844 0.02819 0.0
C1471 C 0.41357 0.92225 0.03801 0.0
C1472 C 0.4197 0.97245 0.02943 0.0
C1473 C 0.39409 0.95171 0.03476 0.0
H1474 H 0.13739 0.48884 0.05185 0.0
H1475 H 0.08379 0.40263 0.05577 0.0
H1476 H 0.04598 0.40646 0.04359 0.0
H1477 H 0.02719 0.43442 0.03297 0.0
H1478 H 0.08083 0.5203 0.02849 0.0
H1479 H 0.11959 0.51634 0.03916 0.0
C1480 C 0.11763 0.47078 0.04981 0.0
C1481 C 0.11357 0.44552 0.05506 0.0
C1482 C 0.09589 0.47303 0.04254 0.0
C1483 C 0.08753 0.42247 0.05235 0.0
C1484 C 0.06585 0.42458 0.04522 0.0
C1485 C 0.04749 0.45218 0.03413 0.0
C1486 C 0.05118 0.47753 0.02971 0.0
C1487 C 0.06965 0.44977 0.04049 0.0
C1488 C 0.0775 0.50047 0.03147 0.0
C1489 C 0.09966 0.49823 0.03773 0.0
H1490 H 0.51156 0.64418 0.0528 0.0
H1491 H 0.59754 0.66981 0.06201 0.0
H1492 H 0.59078 0.62766 0.05055 0.0
H1493 H 0.56049 0.58327 0.03778 0.0
H1494 H 0.47679 0.56123 0.02491 0.0
H1495 H 0.48308 0.60273 0.03735 0.0
C1496 C 0.52916 0.64111 0.05201 0.0
C1497 C 0.55496 0.66041 0.0586 0.0
C1498 C 0.52559 0.61736 0.04464 0.0
C1499 C 0.57712 0.65523 0.05763 0.0
C1500 C 0.57342 0.63116 0.05086 0.0
C1501 C 0.54369 0.58762 0.03771 0.0
C1502 C 0.5181 0.56901 0.03071 0.0
C1503 C 0.5477 0.61201 0.04441 0.0
C1504 C 0.49663 0.5751 0.03036 0.0
C1505 C 0.50019 0.59885 0.03749 0.0
H1506 H 0.8725 0.3445 0.98677 0.0
H1507 H 0.92993 0.3467 0.94996 0.0
H1508 H 0.96493 0.39102 0.95984 0.0
H1509 H 0.97934 0.42939 0.97885 0.0
H1510 H 0.92041 0.4286 0.01393 0.0
H1511 H 0.88596 0.38378 1.00465 0.0
C1512 C 0.8925 0.35473 0.98072 0.0
C1513 C 0.89844 0.34196 0.96769 0.0
C1514 C 0.91242 0.38056 0.98619 0.0
C1515 C 0.9248 0.35559 0.96025 0.0
C1516 C 0.94483 0.38113 0.9658 0.0
C1517 C 0.95897 0.41947 0.98447 0.0
C1518 C 0.95283 0.43221 0.99742 0.0
C1519 C 0.9389 0.3938 0.97878 0.0
C1520 C 0.92614 0.41905 1.00436 0.0
C1521 C 0.90625 0.39343 0.99893 0.0
H1522 H 0.64549 0.50522 0.97889 0.0
H1523 H 0.68439 0.59182 0.97639 0.0
H1524 H 0.64233 0.58977 0.98701 0.0
H1525 H 0.59345 0.56316 0.99533 0.0
H1526 H 0.5549 0.47676 0.99903 0.0
H1527 H 0.59769 0.47881 0.98987 0.0
C1528 C 0.64473 0.5236 0.9808 0.0
C1529 C 0.66792 0.54864 0.97675 0.0
C1530 C 0.62053 0.52227 0.98715 0.0
C1531 C 0.66683 0.57234 0.97946 0.0
C1532 C 0.64276 0.57117 0.98546 0.0
C1533 C 0.59462 0.54485 0.99432 0.0
C1534 C 0.57118 0.5199 0.99804 0.0
C1535 C 0.61936 0.54624 0.98912 0.0
C1536 C 0.57278 0.49625 0.99657 0.0
C1537 C 0.59722 0.49742 0.99119 0.0
H1538 H 0.4958 0.14101 0.96975 0.0
H1539 H 0.41065 0.07879 0.9625 0.0
H1540 H 0.42048 0.04582 0.97491 0.0
H1541 H 0.45304 0.03441 0.98821 0.0
H1542 H 0.53597 0.09785 0.99908 0.0
H1543 H 0.52681 0.13069 0.98543 0.0
C1544 C 0.47906 0.12045 0.97114 0.0
C1545 C 0.45253 0.11271 0.96486 0.0
C1546 C 0.48442 0.10168 0.97906 0.0
C1547 C 0.43154 0.08556 0.96662 0.0
C1548 C 0.43702 0.06658 0.97394 0.0
C1549 C 0.46907 0.05543 0.98754 0.0
C1550 C 0.49525 0.06364 0.99437 0.0
C1551 C 0.46339 0.07438 0.98016 0.0
C1552 C 0.5157 0.09101 0.99379 0.0
C1553 C 0.51048 0.10979 0.98597 0.0
H1554 H 0.65347 0.13447 0.97786 0.0
H1555 H 0.69504 0.08815 0.97911 0.0
H1556 H 0.65379 0.0497 0.99093 0.0
H1557 H 0.60469 0.02814 0.99885 0.0
H1558 H 0.56353 0.07479 0.99827 0.0
H1559 H 0.60571 0.11428 0.9886 0.0
C1560 C 0.65346 0.11599 0.98086 0.0
C1561 C 0.67705 0.11394 0.9775 0.0
C1562 C 0.62977 0.09409 0.98784 0.0
C1563 C 0.67705 0.0901 0.98161 0.0
C1564 C 0.65348 0.06812 0.98831 0.0
C1565 C 0.6052 0.04714 0.99686 0.0
C1566 C 0.58116 0.04867 0.9995 0.0
C1567 C 0.62957 0.06973 0.9912 0.0
C1568 C 0.58187 0.07323 0.99673 0.0
C1569 C 0.60597 0.09578 0.99101 0.0
H1570 H 0.87952 0.51333 0.97739 0.0
H1571 H 0.92577 0.60008 0.97444 0.0
H1572 H 0.96663 0.60036 0.9857 0.0
H1573 H 0.99 0.57577 0.99502 0.0
H1574 H 0.94339 0.4892 0.99912 0.0
H1575 H 0.90196 0.48893 0.98902 0.0
C1576 C 0.89855 0.53225 0.9793 0.0
C1577 C 0.89973 0.55665 0.97497 0.0
C1578 C 0.92188 0.53228 0.98603 0.0
C1579 C 0.92437 0.58107 0.97769 0.0
C1580 C 0.94775 0.58123 0.98409 0.0
C1581 C 0.97064 0.55691 0.99387 0.0
C1582 C 0.96969 0.5326 0.99797 0.0
C1583 C 0.94685 0.55696 0.98811 0.0
C1584 C 0.94459 0.50824 0.99631 0.0
C1585 C 0.92091 0.50807 0.99042 0.0
H1586 H 0.47796 0.33333 0.98385 0.0
H1587 H 0.42013 0.33633 0.94964 0.0
H1588 H 0.42907 0.37927 0.96157 0.0
H1589 H 0.45416 0.41634 0.9811 0.0
H1590 H 0.51475 0.41528 0.01398 0.0
H1591 H 0.50371 0.37113 1.00335 0.0
C1592 C 0.46719 0.34336 0.97917 0.0
C1593 C 0.44838 0.3318 0.96597 0.0
C1594 C 0.47291 0.36832 0.98584 0.0
C1595 C 0.43476 0.34501 0.95979 0.0
C1596 C 0.43985 0.3695 0.9666 0.0
C1597 C 0.46495 0.4065 0.98603 0.0
C1598 C 0.48495 0.41904 0.99858 0.0
C1599 C 0.45906 0.38144 0.97953 0.0
C1600 C 0.49882 0.40594 1.00462 0.0
C1601 C 0.49267 0.38071 0.99845 0.0
H1602 H 0.15837 0.66482 0.04617 0.0
H1603 H 0.10031 0.66758 0.08024 0.0
H1604 H 0.06305 0.62525 0.06878 0.0
H1605 H 0.04724 0.5872 0.04918 0.0
H1606 H 0.10687 0.58295 0.01701 0.0
H1607 H 0.14301 0.62603 0.02743 0.0
C1608 C 0.13749 0.65618 0.05096 0.0
C1609 C 0.13194 0.66927 0.0639 0.0
C1610 C 0.11641 0.6316 0.0446 0.0
C1611 C 0.10496 0.65775 0.07026 0.0
C1612 C 0.08371 0.63361 0.06371 0.0
C1613 C 0.0681 0.59572 0.04439 0.0
C1614 C 0.07397 0.58207 0.03188 0.0
C1615 C 0.0892 0.62027 0.05089 0.0
C1616 C 0.10134 0.59329 0.02615 0.0
C1617 C 0.12222 0.6179 0.03224 0.0
H1618 H 0.36204 0.4861 0.05041 0.0
H1619 H 0.32176 0.39942 0.05301 0.0
H1620 H 0.3631 0.40059 0.04181 0.0
H1621 H 0.412 0.42657 0.03318 0.0
H1622 H 0.45179 0.51305 0.02998 0.0
H1623 H 0.40955 0.51178 0.03922 0.0
C1624 C 0.36231 0.4675 0.0484 0.0
C1625 C 0.33897 0.44272 0.05266 0.0
C1626 C 0.3861 0.46832 0.0418 0.0
C1627 C 0.33944 0.41872 0.0498 0.0
C1628 C 0.36311 0.41939 0.04346 0.0
C1629 C 0.41119 0.44505 0.03427 0.0
C1630 C 0.43487 0.46985 0.03059 0.0
C1631 C 0.38673 0.44409 0.03968 0.0
C1632 C 0.43373 0.4937 0.03226 0.0
C1633 C 0.40958 0.49297 0.03774 0.0
H1634 H 0.56613 0.90657 0.06945 0.0
H1635 H 0.51314 0.84297 0.03581 0.0
H1636 H 0.50037 0.87337 0.02193 0.0
H1637 H 0.50366 0.91784 0.01997 0.0
H1638 H 0.55955 0.98205 0.05258 0.0
H1639 H 0.57123 0.95144 0.06651 0.0
C1640 C 0.55175 0.89942 0.0591 0.0
C1641 C 0.54042 0.87264 0.05369 0.0
C1642 C 0.5449 0.91705 0.05108 0.0
C1643 C 0.52213 0.86359 0.04012 0.0
C1644 C 0.51478 0.88091 0.03225 0.0
C1645 C 0.51877 0.92531 0.02989 0.0
C1646 C 0.53088 0.95239 0.03499 0.0
C1647 C 0.52601 0.9077 0.03766 0.0
C1648 C 0.54988 0.9614 0.04825 0.0
C1649 C 0.55666 0.94389 0.05627 0.0
H1650 H 0.03789 0.20765 0.38659 0.0
H1651 H 0.99307 0.25089 0.38514 0.0
H1652 H 0.03375 0.29062 0.37398 0.0
H1653 H 0.08321 0.31428 0.3669 0.0
H1654 H 0.12781 0.27086 0.36743 0.0
H1655 H 0.08618 0.22996 0.37643 0.0
C1656 C 0.03705 0.22573 0.38365 0.0
C1657 C 0.01267 0.22651 0.3868 0.0
C1658 C 0.06047 0.24843 0.37708 0.0
C1659 C 0.01163 0.24986 0.38278 0.0
C1660 C 0.03489 0.2726 0.37648 0.0
C1661 C 0.08359 0.29568 0.36874 0.0
C1662 C 0.10838 0.29546 0.36635 0.0
C1663 C 0.05957 0.27229 0.37391 0.0
C1664 C 0.10885 0.27141 0.36888 0.0
C1665 C 0.08508 0.24806 0.37417 0.0
H1666 H 0.80853 0.82863 0.38201 0.0
H1667 H 0.76086 0.74194 0.37903 0.0
H1668 H 0.72251 0.74466 0.36627 0.0
H1669 H 0.70144 0.77172 0.35752 0.0
H1670 H 0.74976 0.8584 0.35971 0.0
H1671 H 0.78888 0.85578 0.37098 0.0
C1672 C 0.78977 0.81039 0.37846 0.0
C1673 C 0.78739 0.78511 0.38157 0.0
C1674 C 0.76793 0.81213 0.37096 0.0
C1675 C 0.76316 0.76161 0.37673 0.0
C1676 C 0.74121 0.76316 0.3695 0.0
C1677 C 0.7207 0.78999 0.36029 0.0
C1678 C 0.72281 0.8152 0.35751 0.0
C1679 C 0.7432 0.78829 0.36678 0.0
C1680 C 0.74773 0.83876 0.36131 0.0
C1681 C 0.77009 0.83726 0.36792 0.0
H1682 H 0.20147 0.99725 0.37763 0.0
H1683 H 0.24726 0.98845 0.41804 0.0
H1684 H 0.23967 0.94599 0.40627 0.0
H1685 H 0.21941 0.91114 0.38492 0.0
H1686 H 0.17182 0.91875 0.34521 0.0
H1687 H 0.18045 0.9617 0.35642 0.0
C1688 C 0.20958 0.98593 0.38395 0.0
C1689 C 0.225 0.99612 0.39867 0.0
C1690 C 0.20494 0.96138 0.3772 0.0
C1691 C 0.23567 0.98132 0.40656 0.0
C1692 C 0.23121 0.95695 0.39989 0.0
C1693 C 0.21128 0.92228 0.37848 0.0
C1694 C 0.19584 0.91196 0.36376 0.0
C1695 C 0.21592 0.94682 0.38521 0.0
C1696 C 0.18467 0.92649 0.3561 0.0
C1697 C 0.18933 0.95101 0.36266 0.0
H1698 H 0.57899 0.68968 0.28441 0.0
H1699 H 0.51371 0.68208 0.31684 0.0
H1700 H 0.54507 0.72571 0.32918 0.0
H1701 H 0.59112 0.76569 0.33115 0.0
H1702 H 0.65769 0.77073 0.30118 0.0
H1703 H 0.62563 0.72843 0.28754 0.0
C1704 C 0.57158 0.69721 0.29435 0.0
C1705 C 0.54377 0.68234 0.29954 0.0
C1706 C 0.59 0.72196 0.30188 0.0
C1707 C 0.5347 0.6931 0.31222 0.0
C1708 C 0.55273 0.71803 0.31945 0.0
C1709 C 0.59883 0.75735 0.3219 0.0
C1710 C 0.62698 0.77127 0.31751 0.0
C1711 C 0.58045 0.73256 0.31444 0.0
C1712 C 0.63622 0.76048 0.30498 0.0
C1713 C 0.61788 0.73621 0.29715 0.0
H1714 H 0.31578 0.84346 0.30767 0.0
H1715 H 0.3619 0.92952 0.31507 0.0
H1716 H 0.32113 0.92838 0.32721 0.0
H1717 H 0.27133 0.90321 0.33408 0.0
H1718 H 0.22578 0.81701 0.32768 0.0
H1719 H 0.26709 0.81778 0.31682 0.0
C1720 C 0.31688 0.86191 0.31203 0.0
C1721 C 0.34176 0.88657 0.31035 0.0
C1722 C 0.29339 0.86106 0.31913 0.0
C1723 C 0.34303 0.91029 0.31626 0.0
C1724 C 0.31968 0.90966 0.32313 0.0
C1725 C 0.27068 0.88461 0.33052 0.0
C1726 C 0.24572 0.86006 0.33189 0.0
C1727 C 0.29463 0.88523 0.3244 0.0
C1728 C 0.24489 0.83609 0.32698 0.0
C1729 C 0.26848 0.83656 0.3207 0.0
H1730 H 0.15082 0.471 0.31288 0.0
H1731 H 0.06736 0.40637 0.30403 0.0
H1732 H 0.07967 0.37382 0.31444 0.0
H1733 H 0.11394 0.36357 0.32662 0.0
H1734 H 0.19531 0.42904 0.33861 0.0
H1735 H 0.18364 0.46138 0.3269 0.0
C1736 C 0.13499 0.44993 0.3135 0.0
C1737 C 0.10816 0.44142 0.30749 0.0
C1738 C 0.14183 0.43134 0.32015 0.0
C1739 C 0.08839 0.41372 0.30812 0.0
C1740 C 0.09531 0.39499 0.31425 0.0
C1741 C 0.1291 0.38492 0.32658 0.0
C1742 C 0.15553 0.39388 0.33326 0.0
C1743 C 0.12198 0.40356 0.32027 0.0
C1744 C 0.17485 0.42162 0.33345 0.0
C1745 C 0.1682 0.44014 0.32676 0.0
H1746 H 0.31323 0.46993 0.31378 0.0
H1747 H 0.3587 0.42736 0.31518 0.0
H1748 H 0.31931 0.38858 0.32822 0.0
H1749 H 0.27041 0.36526 0.33675 0.0
H1750 H 0.22529 0.40812 0.33585 0.0
H1751 H 0.266 0.44841 0.32547 0.0
C1752 C 0.31451 0.45223 0.31713 0.0
C1753 C 0.33861 0.45128 0.3134 0.0
C1754 C 0.29187 0.43012 0.32476 0.0
C1755 C 0.3403 0.42846 0.31795 0.0
C1756 C 0.31778 0.40628 0.32534 0.0
C1757 C 0.26977 0.38365 0.33458 0.0
C1758 C 0.24502 0.38385 0.33726 0.0
C1759 C 0.29326 0.40667 0.32846 0.0
C1760 C 0.24421 0.40762 0.33426 0.0
C1761 C 0.26746 0.4306 0.32813 0.0
H1762 H 0.58827 0.91023 0.30631 0.0
H1763 H 0.53368 0.82497 0.29936 0.0
H1764 H 0.56914 0.81574 0.31028 0.0
H1765 H 0.61695 0.83232 0.32022 0.0
H1766 H 0.67225 0.91786 0.32514 0.0
H1767 H 0.63544 0.92665 0.31661 0.0
C1768 C 0.58408 0.88962 0.30735 0.0
C1769 C 0.55841 0.86832 0.30204 0.0
C1770 C 0.6048 0.88456 0.31321 0.0
C1771 C 0.55336 0.84172 0.30325 0.0
C1772 C 0.57362 0.83645 0.30951 0.0
C1773 C 0.6207 0.8528 0.31971 0.0
C1774 C 0.64704 0.87443 0.32369 0.0
C1775 C 0.59958 0.85773 0.31432 0.0
C1776 C 0.65198 0.90093 0.32237 0.0
C1777 C 0.63097 0.90596 0.31747 0.0
H1778 H 0.14696 0.68204 0.30336 0.0
H1779 H 0.07247 0.64397 0.33284 0.0
H1780 H 0.086 0.68703 0.34653 0.0
H1781 H 0.11747 0.73662 0.3484 0.0
H1782 H 0.18905 0.77416 0.31652 0.0
H1783 H 0.1781 0.73035 0.30539 0.0
C1784 C 0.13346 0.6831 0.31266 0.0
C1785 C 0.10852 0.65981 0.31684 0.0
C1786 C 0.14086 0.70796 0.32003 0.0
C1787 C 0.09184 0.66152 0.32937 0.0
C1788 C 0.09948 0.6862 0.33713 0.0
C1789 C 0.13071 0.73499 0.33916 0.0
C1790 C 0.15398 0.75843 0.33324 0.0
C1791 C 0.12372 0.70969 0.33234 0.0
C1792 C 0.17096 0.75633 0.32118 0.0
C1793 C 0.16471 0.73131 0.3148 0.0
H1794 H 0.82172 0.99817 0.37984 0.0
H1795 H 0.75844 0.99641 0.41131 0.0
H1796 H 0.72382 0.95385 0.39849 0.0
H1797 H 0.71169 0.91748 0.37796 0.0
H1798 H 0.77664 0.91793 0.34854 0.0
H1799 H 0.81027 0.9606 0.36075 0.0
C1800 C 0.80031 0.98842 0.38382 0.0
C1801 C 0.79245 1.00035 0.39632 0.0
C1802 C 0.78079 0.96381 0.37667 0.0
C1803 C 0.76482 0.98746 0.40165 0.0
C1804 C 0.74508 0.96322 0.39432 0.0
C1805 C 0.73318 0.92689 0.37421 0.0
C1806 C 0.74131 0.91479 0.36186 0.0
C1807 C 0.75282 0.95122 0.38176 0.0
C1808 C 0.76943 0.92712 0.35748 0.0
C1809 C 0.78886 0.9515 0.36461 0.0
H1810 H 0.01525 0.77169 0.38353 0.0
H1811 H 0.03474 0.85377 0.39171 0.0
H1812 H 0.08039 0.87033 0.37924 0.0
H1813 H 0.11626 0.86147 0.36812 0.0
H1814 H 0.09866 0.7796 0.36281 0.0
H1815 H 0.05083 0.76286 0.37169 0.0
C1816 C 0.02942 0.79318 0.38238 0.0
C1817 C 0.02169 0.81149 0.38859 0.0
C1818 C 0.05594 0.80256 0.37558 0.0
C1819 C 0.04034 0.8393 0.38719 0.0
C1820 C 0.0664 0.84877 0.38001 0.0
C1821 C 0.10161 0.83999 0.36847 0.0
C1822 C 0.1104 0.82174 0.364 0.0
C1823 C 0.07461 0.83061 0.37441 0.0
C1824 C 0.09184 0.79395 0.36536 0.0
C1825 C 0.06465 0.78442 0.37069 0.0
H1826 H 0.23575 0.24172 0.40538 0.0
H1827 H 0.18224 0.17753 0.37219 0.0
H1828 H 0.16928 0.2077 0.35824 0.0
H1829 H 0.1723 0.25203 0.35616 0.0
H1830 H 0.22753 0.31643 0.38891 0.0
H1831 H 0.24022 0.28629 0.40253 0.0
C1832 C 0.22114 0.23433 0.39515 0.0
C1833 C 0.20978 0.20745 0.3899 0.0
C1834 C 0.214 0.25177 0.38715 0.0
C1835 C 0.19128 0.19821 0.37642 0.0
C1836 C 0.18381 0.2154 0.36849 0.0
C1837 C 0.18741 0.25962 0.36609 0.0
C1838 C 0.199 0.28659 0.37135 0.0
C1839 C 0.19498 0.24222 0.37381 0.0
C1840 C 0.2182 0.29583 0.38451 0.0
C1841 C 0.22554 0.2786 0.39235 0.0
H1842 H 0.70148 0.54158 0.71587 0.0
H1843 H 0.6615 0.58966 0.71518 0.0
H1844 H 0.7036 0.62796 0.70459 0.0
H1845 H 0.75296 0.64907 0.69757 0.0
H1846 H 0.79214 0.60061 0.69653 0.0
H1847 H 0.74896 0.56103 0.7052 0.0
C1848 C 0.7016 0.56016 0.71307 0.0
C1849 C 0.67829 0.56268 0.71682 0.0
C1850 C 0.72582 0.58213 0.7066 0.0
C1851 C 0.67927 0.5872 0.71308 0.0
C1852 C 0.70333 0.60916 0.70685 0.0
C1853 C 0.7518 0.62968 0.69899 0.0
C1854 C 0.77551 0.62763 0.69623 0.0
C1855 C 0.72691 0.60705 0.70396 0.0
C1856 C 0.77401 0.60256 0.69823 0.0
C1857 C 0.74936 0.57997 0.70334 0.0
H1858 H 0.47197 0.16289 0.72057 0.0
H1859 H 0.4257 0.07585 0.71924 0.0
H1860 H 0.38651 0.07704 0.7069 0.0
H1861 H 0.36418 0.10254 0.69772 0.0
H1862 H 0.4102 0.18934 0.69856 0.0
H1863 H 0.45066 0.18853 0.70943 0.0
C1864 C 0.45351 0.14416 0.71736 0.0
C1865 C 0.45182 0.1193 0.72117 0.0
C1866 C 0.4309 0.14493 0.71009 0.0
C1867 C 0.4275 0.0953 0.71693 0.0
C1868 C 0.40505 0.09592 0.70974 0.0
C1869 C 0.38323 0.12125 0.70011 0.0
C1870 C 0.38437 0.14594 0.69698 0.0
C1871 C 0.40633 0.12058 0.70652 0.0
C1872 C 0.40897 0.17007 0.70039 0.0
C1873 C 0.43207 0.16959 0.70677 0.0
H1874 H 0.84338 0.30746 0.72177 0.0
H1875 H 0.93123 0.33658 0.72354 0.0
H1876 H 0.92348 0.29361 0.71284 0.0
H1877 H 0.89183 0.24759 0.70291 0.0
H1878 H 0.80498 0.22076 0.69793 0.0
H1879 H 0.81246 0.26336 0.70949 0.0
C1880 C 0.86101 0.30482 0.71953 0.0
C1881 C 0.88785 0.32542 0.72376 0.0
C1882 C 0.8566 0.28038 0.71275 0.0
C1883 C 0.91021 0.32102 0.72094 0.0
C1884 C 0.90587 0.29646 0.71464 0.0
C1885 C 0.87458 0.2511 0.70443 0.0
C1886 C 0.84787 0.23101 0.69986 0.0
C1887 C 0.87915 0.27594 0.71062 0.0
C1888 C 0.82573 0.23593 0.7015 0.0
C1889 C 0.82998 0.26026 0.7081 0.0
H1890 H 0.25091 0.00592 0.63156 0.0
H1891 H 0.18046 0.01766 0.63626 0.0
H1892 H 0.20947 0.06115 0.64936 0.0
H1893 H 0.25483 0.09637 0.65915 0.0
H1894 H 0.32618 0.08708 0.65188 0.0
H1895 H 0.29688 0.0425 0.63964 0.0
C1896 C 0.24182 0.01806 0.63513 0.0
C1897 C 0.21322 0.00798 0.633 0.0
C1898 C 0.25885 0.04369 0.64212 0.0
C1899 C 0.20211 0.0242 0.63808 0.0
C1900 C 0.21877 0.04935 0.64545 0.0
C1901 C 0.26399 0.08459 0.65488 0.0
C1902 C 0.29262 0.09495 0.65648 0.0
C1903 C 0.24713 0.05927 0.64755 0.0
C1904 C 0.3042 0.07959 0.65073 0.0
C1905 C 0.28744 0.05406 0.64378 0.0
H1906 H 0.97814 0.17509 0.64372 0.0
H1907 H 0.01425 0.26169 0.64199 0.0
H1908 H 0.97174 0.25768 0.65291 0.0
H1909 H 0.9233 0.22961 0.66176 0.0
H1910 H 0.88792 0.14348 0.66501 0.0
H1911 H 0.93117 0.14736 0.65519 0.0
C1912 C 0.97703 0.19319 0.64599 0.0
C1913 C 0.99951 0.21865 0.64159 0.0
C1914 C 0.95252 0.19085 0.65263 0.0
C1915 C 0.99722 0.24172 0.64464 0.0
C1916 C 0.9729 0.2395 0.65106 0.0
C1917 C 0.92524 0.21175 0.66047 0.0
C1918 C 0.90255 0.18636 0.66434 0.0
C1919 C 0.95026 0.21417 0.65483 0.0
C1920 C 0.90518 0.16332 0.66247 0.0
C1921 C 0.92992 0.16553 0.65672 0.0
H1922 H 0.82867 0.80522 0.63997 0.0
H1923 H 0.74241 0.74464 0.6347 0.0
H1924 H 0.75154 0.71133 0.64728 0.0
H1925 H 0.784 0.69895 0.65957 0.0
H1926 H 0.86843 0.76076 0.66841 0.0
H1927 H 0.85964 0.79424 0.65525 0.0
C1928 C 0.81156 0.78499 0.64185 0.0
C1929 C 0.78491 0.77771 0.63596 0.0
C1930 C 0.81659 0.76604 0.64985 0.0
C1931 C 0.76339 0.75097 0.63844 0.0
C1932 C 0.76847 0.73182 0.64586 0.0
C1933 C 0.80043 0.71977 0.65862 0.0
C1934 C 0.82693 0.72731 0.66464 0.0
C1935 C 0.79503 0.73906 0.65148 0.0
C1936 C 0.8479 0.75444 0.66372 0.0
C1937 C 0.84289 0.77358 0.65618 0.0
H1938 H 0.98666 0.79653 0.64626 0.0
H1939 H 0.0256 0.74781 0.64488 0.0
H1940 H 0.98392 0.70956 0.65648 0.0
H1941 H 0.93487 0.68881 0.66442 0.0
H1942 H 0.89629 0.73777 0.66639 0.0
H1943 H 0.93929 0.77718 0.65746 0.0
C1944 C 0.98603 0.7776 0.64871 0.0
C1945 C 0.00894 0.77479 0.6446 0.0
C1946 C 0.96207 0.75579 0.65548 0.0
C1947 C 0.00816 0.75035 0.64798 0.0
C1948 C 0.98432 0.72848 0.65452 0.0
C1949 C 0.93615 0.70829 0.66317 0.0
C1950 C 0.91262 0.71053 0.66624 0.0
C1951 C 0.96095 0.73079 0.65795 0.0
C1952 C 0.91427 0.73569 0.66446 0.0
C1953 C 0.93882 0.75817 0.65918 0.0
H1954 H 0.20978 0.17278 0.63766 0.0
H1955 H 0.25263 0.25951 0.64133 0.0
H1956 H 0.29381 0.25962 0.65177 0.0
H1957 H 0.31843 0.23519 0.65889 0.0
H1958 H 0.27524 0.14849 0.65601 0.0
H1959 H 0.23364 0.14815 0.6463 0.0
C1960 C 0.22814 0.19167 0.64078 0.0
C1961 C 0.22814 0.21612 0.63865 0.0
C1962 C 0.25174 0.19158 0.64693 0.0
C1963 C 0.252 0.24041 0.64295 0.0
C1964 C 0.27562 0.24051 0.64883 0.0
C1965 C 0.29978 0.21625 0.65625 0.0
C1966 C 0.29972 0.19188 0.65856 0.0
C1967 C 0.27584 0.21625 0.65073 0.0
C1968 C 0.27562 0.16747 0.65485 0.0
C1969 C 0.25185 0.1673 0.64914 0.0
H1970 H 0.81635 1.00089 0.64807 0.0
H1971 H 0.76073 0.00489 0.61255 0.0
H1972 H 0.76837 0.04716 0.62495 0.0
H1973 H 0.79092 0.08283 0.6458 0.0
H1974 H 0.8497 0.08082 0.67982 0.0
H1975 H 0.84057 0.03783 0.66825 0.0
C1976 C 0.80587 0.01105 0.64315 0.0
C1977 C 0.78792 0.99988 0.62953 0.0
C1978 C 0.81081 0.03556 0.65012 0.0
C1979 C 0.77469 0.01327 0.62303 0.0
C1980 C 0.77901 0.03735 0.63013 0.0
C1981 C 0.80172 0.07302 0.65076 0.0
C1982 C 0.82047 0.08485 0.66402 0.0
C1983 C 0.79704 0.04868 0.64367 0.0
C1984 C 0.83456 0.07193 0.67 0.0
C1985 C 0.82953 0.04738 0.66328 0.0
H1986 H 0.43569 0.33026 0.72751 0.0
H1987 H 0.50627 0.32056 0.71837 0.0
H1988 H 0.47669 0.27742 0.70444 0.0
H1989 H 0.43079 0.24243 0.69513 0.0
H1990 H 0.35953 0.25051 0.70581 0.0
H1991 H 0.38923 0.29422 0.71897 0.0
C1992 C 0.44447 0.31862 0.72243 0.0
C1993 C 0.47303 0.32846 0.72386 0.0
C1994 C 0.42724 0.29358 0.7148 0.0
C1995 C 0.48429 0.31322 0.71743 0.0
C1996 C 0.46741 0.28864 0.70946 0.0
C1997 C 0.42174 0.25378 0.70029 0.0
C1998 C 0.39299 0.24329 0.6994 0.0
C1999 C 0.43886 0.27861 0.7081 0.0
C2000 C 0.38158 0.25809 0.70635 0.0
C2001 C 0.39856 0.28312 0.71385 0.0
H2002 H 0.67243 0.0927 0.7189 0.0
H2003 H 0.7049 0.17843 0.72256 0.0
H2004 H 0.7487 0.1868 0.71034 0.0
H2005 H 0.77907 0.16959 0.70077 0.0
H2006 H 0.74764 0.08393 0.69924 0.0
H2007 H 0.70222 0.07558 0.70841 0.0
C2008 C 0.68899 0.1132 0.71682 0.0
C2009 C 0.68544 0.13491 0.72165 0.0
C2010 C 0.71438 0.11783 0.71023 0.0
C2011 C 0.70722 0.16138 0.71906 0.0
C2012 C 0.73225 0.16617 0.71206 0.0
C2013 C 0.76209 0.14915 0.70205 0.0
C2014 C 0.76644 0.12736 0.69891 0.0
C2015 C 0.73626 0.14455 0.70787 0.0
C2016 C 0.74456 0.10096 0.70133 0.0
C2017 C 0.71865 0.0962 0.70662 0.0
H2018 H 0.91103 0.56881 0.72116 0.0
H2019 H 0.82667 0.50393 0.71897 0.0
H2020 H 0.81278 0.53375 0.70543 0.0
H2021 H 0.82455 0.57901 0.69532 0.0
H2022 H 0.90837 0.64458 0.69999 0.0
H2023 H 0.9227 0.61389 0.71131 0.0
C2024 C 0.88967 0.56125 0.71758 0.0
C2025 C 0.86987 0.53434 0.72092 0.0
C2026 C 0.88179 0.57867 0.7103 0.0
C2027 C 0.84217 0.52468 0.71648 0.0
C2028 C 0.83428 0.54168 0.70875 0.0
C2029 C 0.84596 0.58643 0.69873 0.0
C2030 C 0.86539 0.61396 0.69692 0.0
C2031 C 0.85387 0.56881 0.70574 0.0
C2032 C 0.89303 0.62349 0.70145 0.0
C2033 C 0.90124 0.60596 0.70789 0.0
H2034 H 0.51047 0.9495 0.17403 0.0
H2035 H 0.45647 0.97928 0.18959 0.0
H2036 H 0.46492 0.00375 0.16361 0.0
H2037 H 0.48854 0.01807 0.13663 0.0
H2038 H 0.53949 0.9859 0.11976 0.0
H2039 H 0.53072 0.96051 0.1458 0.0
C2040 C 0.50016 0.96096 0.17171 0.0
C2041 C 0.48332 0.96284 0.18416 0.0
C2042 C 0.5045 0.97459 0.15639 0.0
C2043 C 0.47034 0.97803 0.18069 0.0
C2044 C 0.47491 0.99192 0.16568 0.0
C2045 C 0.4976 0.00538 0.13865 0.0
C2046 C 0.51481 0.00401 0.12638 0.0
C2047 C 0.4922 0.99063 0.15353 0.0
C2048 C 0.52613 0.98722 0.12903 0.0
C2049 C 0.52121 0.97281 0.14394 0.0
H2050 H 1.00392 0.49611 0.18564 0.0
H2051 H 0.08796 0.55867 0.17624 0.0
H2052 H 0.08015 0.55165 0.14635 0.0
H2053 H 0.05077 0.52471 0.12289 0.0
H2054 H 0.96823 0.45982 0.13262 0.0
H2055 H 0.97412 0.47058 0.16233 0.0
C2056 C 0.0206 0.50817 0.17708 0.0
C2057 C 0.04655 0.52773 0.18326 0.0
C2058 C 0.01623 0.50351 0.15992 0.0
C2059 C 0.06767 0.54362 0.1719 0.0
C2060 C 0.06331 0.53948 0.15477 0.0
C2061 C 0.03397 0.51335 0.13154 0.0
C2062 C 0.0091 0.49161 0.12571 0.0
C2063 C 0.03785 0.51914 0.14865 0.0
C2064 C 0.98753 0.47666 0.13694 0.0
C2065 C 0.99094 0.48275 0.15389 0.0
H2066 H 0.49907 0.55409 0.17339 0.0
H2067 H 0.45318 0.47133 0.18951 0.0
H2068 H 0.46418 0.45656 0.16346 0.0
H2069 H 0.48826 0.46742 0.13646 0.0
H2070 H 0.53192 0.5498 0.11953 0.0
H2071 H 0.52035 0.56461 0.14543 0.0
C2072 C 0.49145 0.53284 0.17111 0.0
C2073 C 0.47551 0.51379 0.18333 0.0
C2074 C 0.49749 0.5245 0.15599 0.0
C2075 C 0.46542 0.48629 0.18023 0.0
C2076 C 0.47179 0.47788 0.16538 0.0
C2077 C 0.4951 0.48858 0.13847 0.0
C2078 C 0.51106 0.50757 0.12624 0.0
C2079 C 0.488 0.49681 0.15324 0.0
C2080 C 0.51957 0.53489 0.12881 0.0
C2081 C 0.51304 0.54333 0.14361 0.0
H2082 H 0.94902 0.48506 0.85692 0.0
H2083 H 0.01848 0.4884 0.83095 0.0
H2084 H 0.0443 0.49902 0.85678 0.0
H2085 H 0.04723 0.50673 0.88667 0.0
H2086 H 0.98073 0.50992 0.91214 0.0
H2087 H 0.9538 0.49716 0.88657 0.0
C2088 C 0.96995 0.48853 0.85678 0.0
C2089 C 0.98139 0.48536 0.84189 0.0
C2090 C 0.98526 0.49561 0.87165 0.0
C2091 C 0.00857 0.48975 0.84219 0.0
C2092 C 0.02357 0.49612 0.85698 0.0
C2093 C 0.02711 0.50524 0.88669 0.0
C2094 C 0.0162 0.50923 0.90153 0.0
C2095 C 0.01209 0.49897 0.87178 0.0
C2096 C 0.98964 0.50639 0.90113 0.0
C2097 C 0.97423 0.49936 0.88642 0.0
H2098 H 0.50991 0.44511 0.85303 0.0
H2099 H 0.55858 0.52991 0.84116 0.0
H2100 H 0.54594 0.54138 0.86759 0.0
H2101 H 0.51995 0.52757 0.89386 0.0
H2102 H 0.47459 0.44345 0.90701 0.0
H2103 H 0.48762 0.43153 0.88052 0.0
C2104 C 0.51822 0.46614 0.85627 0.0
C2105 C 0.53478 0.4865 0.84477 0.0
C2106 C 0.51148 0.47276 0.8718 0.0
C2107 C 0.54506 0.51363 0.84937 0.0
C2108 C 0.53806 0.52031 0.86461 0.0
C2109 C 0.51311 0.50666 0.89091 0.0
C2110 C 0.49621 0.48636 0.90221 0.0
C2111 C 0.52101 0.50006 0.87582 0.0
C2112 C 0.48765 0.45936 0.89844 0.0
C2113 C 0.49502 0.45258 0.88329 0.0
H2114 H 0.49973 0.02228 0.84313 0.0
H2115 H 0.57308 0.09307 0.86094 0.0
H2116 H 0.56545 0.07318 0.88861 0.0
H2117 H 0.53836 0.03499 0.90783 0.0
H2118 H 0.46263 0.96681 0.89012 0.0
H2119 H 0.47059 0.98684 0.86262 0.0
C2120 C 0.51386 0.03386 0.85303 0.0
C2121 C 0.53712 0.05928 0.8496 0.0
C2122 C 0.50894 0.0227 0.86911 0.0
C2123 C 0.55533 0.07324 0.86283 0.0
C2124 C 0.55084 0.06197 0.87882 0.0
C2125 C 0.52336 0.02468 0.89805 0.0
C2126 C 0.50021 0.99901 0.90113 0.0
C2127 C 0.52777 0.0366 0.88211 0.0
C2128 C 0.4811 0.98612 0.88814 0.0
C2129 C 0.48552 0.99766 0.87235 0.0
H2130 H 0.18558 0.31907 0.52292 0.0
H2131 H 0.11397 0.24877 0.50355 0.0
H2132 H 0.12313 0.26934 0.47579 0.0
H2133 H 0.15026 0.3087 0.45744 0.0
H2134 H 0.22387 0.37743 0.47688 0.0
H2135 H 0.21508 0.3562 0.50407 0.0
C2136 C 0.17209 0.30825 0.51257 0.0
C2137 C 0.14901 0.28259 0.51526 0.0
C2138 C 0.17773 0.32003 0.49666 0.0
C2139 C 0.13187 0.26857 0.50174 0.0
C2140 C 0.13707 0.28037 0.4859 0.0
C2141 C 0.16466 0.31889 0.46752 0.0
C2142 C 0.18737 0.34505 0.46504 0.0
C2143 C 0.1598 0.30627 0.48323 0.0
C2144 C 0.2057 0.35774 0.4784 0.0
C2145 C 0.20084 0.34553 0.49401 0.0
H2146 H 0.72625 0.84322 0.49784 0.0
H2147 H 0.66114 0.84981 0.52219 0.0
H2148 H 0.63742 0.84356 0.49554 0.0
H2149 H 0.63577 0.83706 0.46538 0.0
H2150 H 0.69864 0.82589 0.44141 0.0
H2151 H 0.72296 0.83377 0.46774 0.0
C2152 C 0.70685 0.84325 0.49722 0.0
C2153 C 0.69539 0.84703 0.51182 0.0
C2154 C 0.69309 0.83909 0.48194 0.0
C2155 C 0.67018 0.84682 0.51104 0.0
C2156 C 0.65671 0.84333 0.49583 0.0
C2157 C 0.65452 0.83586 0.46587 0.0
C2158 C 0.66531 0.8311 0.45123 0.0
C2159 C 0.66798 0.83945 0.4812 0.0
C2160 C 0.69004 0.8302 0.45226 0.0
C2161 C 0.7039 0.83443 0.4674 0.0
H2162 H 0.17544 0.87521 0.50699 0.0
H2163 H 0.12144 0.79352 0.52321 0.0
H2164 H 0.13049 0.77631 0.49753 0.0
H2165 H 0.15392 0.78447 0.47041 0.0
H2166 H 0.20596 0.86607 0.45347 0.0
H2167 H 0.19767 0.88338 0.4794 0.0
C2168 C 0.16574 0.85366 0.50487 0.0
C2169 C 0.14786 0.83565 0.51697 0.0
C2170 C 0.17074 0.84392 0.48996 0.0
C2171 C 0.13513 0.80777 0.51402 0.0
C2172 C 0.14039 0.79792 0.49938 0.0
C2173 C 0.16352 0.80603 0.47248 0.0
C2174 C 0.18067 0.824 0.46015 0.0
C2175 C 0.1582 0.81579 0.48727 0.0
C2176 C 0.19266 0.85189 0.46281 0.0
C2177 C 0.18795 0.86177 0.47763 0.0
H2178 H 0.67498 0.82057 0.17093 0.0
H2179 H 0.60359 0.82065 0.19166 0.0
H2180 H 0.62677 0.83464 0.21848 0.0
H2181 H 0.66718 0.84678 0.23607 0.0
H2182 H 0.73588 0.84091 0.2161 0.0
H2183 H 0.71359 0.82906 0.189 0.0
C2184 C 0.6641 0.82307 0.18132 0.0
C2185 C 0.63745 0.81954 0.17907 0.0
C2186 C 0.67712 0.83019 0.19691 0.0
C2187 C 0.62427 0.8237 0.19276 0.0
C2188 C 0.63742 0.83148 0.20821 0.0
C2189 C 0.67717 0.84245 0.22593 0.0
C2190 C 0.70342 0.84503 0.22826 0.0
C2191 C 0.66384 0.83474 0.21043 0.0
C2192 C 0.71605 0.8398 0.21472 0.0
C2193 C 0.7032 0.83276 0.19919 0.0
H2194 H 0.17229 0.79394 0.18021 0.0
H2195 H 0.25659 0.85641 0.18842 0.0
H2196 H 0.24387 0.86635 0.21561 0.0
H2197 H 0.20832 0.8575 0.23697 0.0
H2198 H 0.12375 0.79644 0.22779 0.0
H2199 H 0.13696 0.78552 0.20117 0.0
C2200 C 0.1879 0.80959 0.18803 0.0
C2201 C 0.21536 0.82431 0.18238 0.0
C2202 C 0.18034 0.81542 0.20347 0.0
C2203 C 0.2353 0.84488 0.19248 0.0
C2204 C 0.22804 0.85049 0.20804 0.0
C2205 C 0.19291 0.84172 0.22914 0.0
C2206 C 0.16513 0.82774 0.23429 0.0
C2207 C 0.20059 0.83593 0.21366 0.0
C2208 C 0.14523 0.80753 0.22401 0.0
C2209 C 0.15277 0.80127 0.20881 0.0
H2210 H 0.17689 0.39513 0.19105 0.0
H2211 H 0.23226 0.36711 0.17581 0.0
H2212 H 0.22535 0.34378 0.20236 0.0
H2213 H 0.20216 0.32981 0.22956 0.0
H2214 H 0.14875 0.3596 0.2457 0.0
H2215 H 0.1564 0.38394 0.21934 0.0
C2216 C 0.18748 0.38399 0.19363 0.0
C2217 C 0.20497 0.38273 0.18146 0.0
C2218 C 0.18375 0.37095 0.20909 0.0
C2219 C 0.21881 0.36847 0.185 0.0
C2220 C 0.21479 0.35505 0.20016 0.0
C2221 C 0.19235 0.34179 0.22731 0.0
C2222 C 0.17477 0.34279 0.23948 0.0
C2223 C 0.19713 0.35594 0.21224 0.0
C2224 C 0.16243 0.35861 0.23653 0.0
C2225 C 0.16669 0.37239 0.22143 0.0
H2226 H 0.8419 0.61048 0.84299 0.0
H2227 H 0.78278 0.63606 0.85434 0.0
H2228 H 0.79241 0.65943 0.82788 0.0
H2229 H 0.81884 0.67442 0.80178 0.0
H2230 H 0.87481 0.64602 0.78901 0.0
H2231 H 0.86461 0.6214 0.81545 0.0
C2232 C 0.83069 0.62071 0.83964 0.0
C2233 C 0.81208 0.62186 0.8511 0.0
C2234 C 0.8357 0.63363 0.82403 0.0
C2235 C 0.79799 0.63548 0.84627 0.0
C2236 C 0.80324 0.64871 0.83097 0.0
C2237 C 0.82855 0.66258 0.80476 0.0
C2238 C 0.84762 0.66208 0.79356 0.0
C2239 C 0.82232 0.64827 0.81986 0.0
C2240 C 0.85998 0.64658 0.79744 0.0
C2241 C 0.85424 0.63264 0.81259 0.0
H2242 H 0.36388 0.15465 0.83636 0.0
H2243 H 0.34627 0.21724 0.85044 0.0
H2244 H 0.32152 0.21138 0.82431 0.0
H2245 H 0.30598 0.18933 0.7971 0.0
H2246 H 0.32555 0.12841 0.78226 0.0
H2247 H 0.34831 0.13255 0.80903 0.0
C2248 C 0.35442 0.16682 0.83371 0.0
C2249 C 0.35685 0.18634 0.84524 0.0
C2250 C 0.34061 0.16364 0.81854 0.0
C2251 C 0.34482 0.20224 0.84164 0.0
C2252 C 0.33061 0.19884 0.82675 0.0
C2253 C 0.31498 0.17678 0.79985 0.0
C2254 C 0.31401 0.15849 0.78786 0.0
C2255 C 0.32851 0.17972 0.81507 0.0
C2256 C 0.32613 0.14265 0.79137 0.0
C2257 C 0.33911 0.14501 0.80664 0.0
H2258 H 0.79692 0.15935 0.84365 0.0
H2259 H 0.87895 0.2218 0.85759 0.0
H2260 H 0.89663 0.21826 0.83064 0.0
H2261 H 0.8893 0.19721 0.8032 0.0
H2262 H 0.80737 0.1363 0.78839 0.0
H2263 H 0.78909 0.13996 0.81538 0.0
C2264 C 0.8186 0.17241 0.84075 0.0
C2265 C 0.83658 0.19048 0.85286 0.0
C2266 C 0.82869 0.17063 0.82501 0.0
C2267 C 0.86467 0.20714 0.84878 0.0
C2268 C 0.87484 0.20532 0.83328 0.0
C2269 C 0.86745 0.18468 0.80592 0.0
C2270 C 0.84975 0.16635 0.7939 0.0
C2271 C 0.85712 0.18699 0.82137 0.0
C2272 C 0.82139 0.15062 0.79744 0.0
C2273 C 0.81097 0.15263 0.81289 0.0
H2274 H 0.31516 0.12757 0.51787 0.0
H2275 H 0.34099 0.21047 0.5067 0.0
H2276 H 0.36602 0.22474 0.53316 0.0
H2277 H 0.3803 0.21343 0.55959 0.0
H2278 H 0.35173 0.13026 0.57158 0.0
H2279 H 0.32807 0.11613 0.54468 0.0
C2280 C 0.32639 0.14874 0.52126 0.0
C2281 C 0.32647 0.16801 0.51041 0.0
C2282 C 0.34021 0.15667 0.53659 0.0
C2283 C 0.34067 0.19535 0.51494 0.0
C2284 C 0.35501 0.20348 0.53001 0.0
C2285 C 0.36899 0.19226 0.5562 0.0
C2286 C 0.36785 0.17286 0.56734 0.0
C2287 C 0.35492 0.18432 0.54093 0.0
C2288 C 0.35284 0.14544 0.56308 0.0
C2289 C 0.33936 0.13741 0.54774 0.0
H2290 H 0.84002 0.11805 0.52073 0.0
H2291 H 0.89102 0.20341 0.5111 0.0
H2292 H 0.87653 0.21354 0.53738 0.0
H2293 H 0.84904 0.19831 0.56317 0.0
H2294 H 0.8017 0.11338 0.574 0.0
H2295 H 0.81568 0.10294 0.54738 0.0
C2296 C 0.84849 0.13891 0.52443 0.0
C2297 C 0.86644 0.15985 0.51366 0.0
C2298 C 0.84073 0.1447 0.53985 0.0
C2299 C 0.87663 0.18674 0.51878 0.0
C2300 C 0.86855 0.19263 0.53393 0.0
C2301 C 0.84189 0.17755 0.55964 0.0
C2302 C 0.82425 0.15658 0.57034 0.0
C2303 C 0.85047 0.17179 0.54451 0.0
C2304 C 0.8153 0.12977 0.56587 0.0
C2305 C 0.82324 0.12384 0.55067 0.0
H2306 H 0.8897 0.72222 0.51962 0.0
H2307 H 0.80719 0.70332 0.50574 0.0
H2308 H 0.78969 0.68171 0.53247 0.0
H2309 H 0.79707 0.66667 0.55956 0.0
H2310 H 0.87935 0.68694 0.57444 0.0
H2311 H 0.89767 0.71007 0.54785 0.0
C2312 C 0.86796 0.71371 0.52248 0.0
C2313 C 0.84982 0.71403 0.51034 0.0
C2314 C 0.8579 0.70156 0.53816 0.0
C2315 C 0.82165 0.70275 0.51447 0.0
C2316 C 0.81156 0.69053 0.52988 0.0
C2317 C 0.81903 0.6762 0.557 0.0
C2318 C 0.83677 0.67486 0.56892 0.0
C2319 C 0.82938 0.68948 0.54173 0.0
C2320 C 0.86525 0.68774 0.56551 0.0
C2321 C 0.8757 0.70084 0.55026 0.0
loop_
_geom_bond_atom_site_label_1
_geom_bond_atom_site_label_2
_geom_bond_distance
_geom_bond_site_symmetry_2
_ccdc_geom_bond_type
C0 C1 1.386 . S
C0 C2 1.397 . S
C0 H24 0.931 . S
C1 C0 1.386 . S
C1 C5 1.397 . S
C2 C0 1.397 . S
C2 C3 1.384 . S
C2 H25 0.930 . S
C3 C2 1.384 . S
C3 C4 1.377 . S
C3 C6 1.481 . S
C4 C3 1.377 . S
C4 C5 1.389 . S
C4 H26 0.929 . S
C5 C1 1.397 . S
C5 C4 1.389 . S
C5 H27 0.931 . S
C6 C3 1.481 . S
C6 C7 1.387 . S
C6 C11 1.390 . S
C7 C6 1.387 . S
C7 C8 1.401 . S
C7 H28 0.930 . S
C8 C7 1.401 . S
C8 C9 1.376 . S
C8 C17 1.511 . S
C9 C8 1.376 . S
C9 C10 1.392 . S
C9 H30 0.931 . S
C10 C9 1.392 . S
C10 C11 1.361 . S
C10 C12 1.500 . S
C11 C6 1.390 . S
C11 C10 1.361 . S
C11 H29 0.931 . S
C12 C10 1.500 . S
C12 C13 1.371 . S
C12 C14 1.365 . S
C13 C12 1.371 . S
C13 C23 1.386 . S
C13 H31 0.931 . S
C14 C12 1.365 . S
C14 C15 1.409 . S
C14 H32 0.929 . S
C15 C14 1.409 . S
C15 C16 1.380 . S
C15 H33 0.930 . S
C16 C15 1.380 . S
C16 C23 1.357 . S
C17 C8 1.511 . S
C17 C18 1.341 . S
C17 C19 1.371 . S
C18 C17 1.341 . S
C18 C22 1.394 . S
C18 H34 0.930 . S
C19 C17 1.371 . S
C19 C20 1.392 . S
C19 H35 0.931 . S
C20 C19 1.392 . S
C20 C21 1.331 . S
C20 H38 0.932 . S
C21 C20 1.331 . S
C21 C22 1.336 . S
C22 C18 1.394 . S
C22 C21 1.336 . S
C22 H37 0.929 . S
C23 C13 1.386 . S
C23 C16 1.357 . S
C23 H36 0.928 . S
H24 C0 0.931 . S
H25 C2 0.930 . S
H26 C4 0.929 . S
H27 C5 0.931 . S
H28 C7 0.930 . S
H29 C11 0.931 . S
H30 C9 0.931 . S
H31 C13 0.931 . S
H32 C14 0.929 . S
H33 C15 0.930 . S
H34 C18 0.930 . S
H35 C19 0.931 . S
H36 C23 0.928 . S
H37 C22 0.929 . S
H38 C20 0.932 . S
C39 C40 1.386 . S
C39 C41 1.397 . S
C39 H63 0.931 . S
C40 C39 1.386 . S
C40 C44 1.397 . S
C41 C39 1.397 . S
C41 C42 1.384 . S
C41 H64 0.930 . S
C42 C41 1.384 . S
C42 C43 1.377 . S
C42 C45 1.481 . S
C43 C42 1.377 . S
C43 C44 1.389 . S
C43 H65 0.929 . S
C44 C40 1.397 . S
C44 C43 1.389 . S
C44 H66 0.931 . S
C45 C42 1.481 . S
C45 C46 1.387 . S
C45 C50 1.390 . S
C46 C45 1.387 . S
C46 C47 1.401 . S
C46 H67 0.930 . S
C47 C46 1.401 . S
C47 C48 1.376 . S
C47 C56 1.511 . S
C48 C47 1.376 . S
C48 C49 1.392 . S
C48 H69 0.931 . S
C49 C48 1.392 . S
C49 C50 1.361 . S
C49 C51 1.500 . S
C50 C45 1.390 . S
C50 C49 1.361 . S
C50 H68 0.931 . S
C51 C49 1.500 . S
C51 C52 1.371 . S
C51 C53 1.365 . S
C52 C51 1.371 . S
C52 C62 1.386 . S
C52 H70 0.931 . S
C53 C51 1.365 . S
C53 C54 1.409 . S
C53 H71 0.929 . S
C54 C53 1.409 . S
C54 C55 1.380 . S
C54 H72 0.930 . S
C55 C54 1.380 . S
C55 C62 1.357 . S
C56 C47 1.511 . S
C56 C57 1.341 . S
C56 C58 1.371 . S
C57 C56 1.341 . S
C57 C61 1.394 . S
C57 H73 0.930 . S
C58 C56 1.371 . S
C58 C59 1.392 . S
C58 H74 0.931 . S
C59 C58 1.392 . S
C59 C60 1.331 . S
C59 H77 0.932 . S
C60 C59 1.331 . S
C60 C61 1.336 . S
C61 C57 1.394 . S
C61 C60 1.336 . S
C61 H76 0.929 . S
C62 C52 1.386 . S
C62 C55 1.357 . S
C62 H75 0.928 . S
H63 C39 0.931 . S
H64 C41 0.930 . S
H65 C43 0.929 . S
H66 C44 0.931 . S
H67 C46 0.930 . S
H68 C50 0.931 . S
H69 C48 0.931 . S
H70 C52 0.931 . S
H71 C53 0.929 . S
H72 C54 0.930 . S
H73 C57 0.930 . S
H74 C58 0.931 . S
H75 C62 0.928 . S
H76 C61 0.929 . S
H77 C59 0.932 . S
C78 C79 1.386 . S
C78 C80 1.397 . S
C78 H102 0.931 . S
C79 C78 1.386 . S
C79 C83 1.397 . S
C80 C78 1.397 . S
C80 C81 1.384 . S
C80 H103 0.930 . S
C81 C80 1.384 . S
C81 C82 1.377 . S
C81 C84 1.481 . S
C82 C81 1.377 . S
C82 C83 1.389 . S
C82 H104 0.929 . S
C83 C79 1.397 . S
C83 C82 1.389 . S
C83 H105 0.931 . S
C84 C81 1.481 . S
C84 C85 1.387 . S
C84 C89 1.390 . S
C85 C84 1.387 . S
C85 C86 1.401 . S
C85 H106 0.930 . S
C86 C85 1.401 . S
C86 C87 1.376 . S
C86 C95 1.511 . S
C87 C86 1.376 . S
C87 C88 1.392 . S
C87 H108 0.931 . S
C88 C87 1.392 . S
C88 C89 1.361 . S
C88 C90 1.500 . S
C89 C84 1.390 . S
C89 C88 1.361 . S
C89 H107 0.931 . S
C90 C88 1.500 . S
C90 C91 1.371 . S
C90 C92 1.365 . S
C91 C90 1.371 . S
C91 C101 1.386 . S
C91 H109 0.931 . S
C92 C90 1.365 . S
C92 C93 1.409 . S
C92 H110 0.929 . S
C93 C92 1.409 . S
C93 C94 1.380 . S
C93 H111 0.930 . S
C94 C93 1.380 . S
C94 C101 1.357 . S
C95 C86 1.511 . S
C95 C96 1.341 . S
C95 C97 1.371 . S
C96 C95 1.341 . S
C96 C100 1.394 . S
C96 H112 0.930 . S
C97 C95 1.371 . S
C97 C98 1.392 . S
C97 H113 0.931 . S
C98 C97 1.392 . S
C98 C99 1.331 . S
C98 H116 0.932 . S
C99 C98 1.331 . S
C99 C100 1.336 . S
C100 C96 1.394 . S
C100 C99 1.336 . S
C100 H115 0.929 . S
C101 C91 1.386 . S
C101 C94 1.357 . S
C101 H114 0.928 . S
H102 C78 0.931 . S
H103 C80 0.930 . S
H104 C82 0.929 . S
H105 C83 0.931 . S
H106 C85 0.930 . S
H107 C89 0.931 . S
H108 C87 0.931 . S
H109 C91 0.931 . S
H110 C92 0.929 . S
H111 C93 0.930 . S
H112 C96 0.930 . S
H113 C97 0.931 . S
H114 C101 0.928 . S
H115 C100 0.929 . S
H116 C98 0.932 . S
C117 C118 1.386 . S
C117 C119 1.397 . S
C117 H141 0.931 . S
C118 C117 1.386 . S
C118 C122 1.397 . S
C119 C117 1.397 . S
C119 C120 1.384 . S
C119 H142 0.930 . S
C120 C119 1.384 . S
C120 C121 1.377 . S
C120 C123 1.481 . S
C121 C120 1.377 . S
C121 C122 1.389 . S
C121 H143 0.929 . S
C122 C118 1.397 . S
C122 C121 1.389 . S
C122 H144 0.931 . S
C123 C120 1.481 . S
C123 C124 1.387 . S
C123 C128 1.390 . S
C124 C123 1.387 . S
C124 C125 1.401 . S
C124 H145 0.930 . S
C125 C124 1.401 . S
C125 C126 1.376 . S
C125 C134 1.511 . S
C126 C125 1.376 . S
C126 C127 1.392 . S
C126 H147 0.931 . S
C127 C126 1.392 . S
C127 C128 1.361 . S
C127 C129 1.500 . S
C128 C123 1.390 . S
C128 C127 1.361 . S
C128 H146 0.931 . S
C129 C127 1.500 . S
C129 C130 1.371 . S
C129 C131 1.365 . S
C130 C129 1.371 . S
C130 C140 1.386 . S
C130 H148 0.931 . S
C131 C129 1.365 . S
C131 C132 1.409 . S
C131 H149 0.929 . S
C132 C131 1.409 . S
C132 C133 1.380 . S
C132 H150 0.930 . S
C133 C132 1.380 . S
C133 C140 1.357 . S
C134 C125 1.511 . S
C134 C135 1.341 . S
C134 C136 1.371 . S
C135 C134 1.341 . S
C135 C139 1.394 . S
C135 H151 0.930 . S
C136 C134 1.371 . S
C136 C137 1.392 . S
C136 H152 0.931 . S
C137 C136 1.392 . S
C137 C138 1.331 . S
C137 H155 0.932 . S
C138 C137 1.331 . S
C138 C139 1.336 . S
C139 C135 1.394 . S
C139 C138 1.336 . S
C139 H154 0.929 . S
C140 C130 1.386 . S
C140 C133 1.357 . S
C140 H153 0.928 . S
H141 C117 0.931 . S
H142 C119 0.930 . S
H143 C121 0.929 . S
H144 C122 0.931 . S
H145 C124 0.930 . S
H146 C128 0.931 . S
H147 C126 0.931 . S
H148 C130 0.931 . S
H149 C131 0.929 . S
H150 C132 0.930 . S
H151 C135 0.930 . S
H152 C136 0.931 . S
H153 C140 0.928 . S
H154 C139 0.929 . S
H155 C137 0.932 . S
C156 C157 1.386 . S
C156 C158 1.397 . S
C156 H180 0.931 . S
C157 C156 1.386 . S
C157 C161 1.397 . S
C158 C156 1.397 . S
C158 C159 1.384 . S
C158 H181 0.930 . S
C159 C158 1.384 . S
C159 C160 1.377 . S
C159 C162 1.481 . S
C160 C159 1.377 . S
C160 C161 1.389 . S
C160 H182 0.929 . S
C161 C157 1.397 . S
C161 C160 1.389 . S
C161 H183 0.931 . S
C162 C159 1.481 . S
C162 C163 1.387 . S
C162 C167 1.390 . S
C163 C162 1.387 . S
C163 C164 1.401 . S
C163 H184 0.930 . S
C164 C163 1.401 . S
C164 C165 1.376 . S
C164 C173 1.511 . S
C165 C164 1.376 . S
C165 C166 1.392 . S
C165 H186 0.931 . S
C166 C165 1.392 . S
C166 C167 1.361 . S
C166 C168 1.500 . S
C167 C162 1.390 . S
C167 C166 1.361 . S
C167 H185 0.931 . S
C168 C166 1.500 . S
C168 C169 1.371 . S
C168 C170 1.365 . S
C169 C168 1.371 . S
C169 C179 1.386 . S
C169 H187 0.931 . S
C170 C168 1.365 . S
C170 C171 1.409 . S
C170 H188 0.929 . S
C171 C170 1.409 . S
C171 C172 1.380 . S
C171 H189 0.930 . S
C172 C171 1.380 . S
C172 C179 1.357 . S
C173 C164 1.511 . S
C173 C174 1.341 . S
C173 C175 1.371 . S
C174 C173 1.341 . S
C174 C178 1.394 . S
C174 H190 0.930 . S
C175 C173 1.371 . S
C175 C176 1.392 . S
C175 H191 0.931 . S
C176 C175 1.392 . S
C176 C177 1.331 . S
C176 H194 0.932 . S
C177 C176 1.331 . S
C177 C178 1.336 . S
C178 C174 1.394 . S
C178 C177 1.336 . S
C178 H193 0.929 . S
C179 C169 1.386 . S
C179 C172 1.357 . S
C179 H192 0.928 . S
H180 C156 0.931 . S
H181 C158 0.930 . S
H182 C160 0.929 . S
H183 C161 0.931 . S
H184 C163 0.930 . S
H185 C167 0.931 . S
H186 C165 0.931 . S
H187 C169 0.931 . S
H188 C170 0.929 . S
H189 C171 0.930 . S
H190 C174 0.930 . S
H191 C175 0.931 . S
H192 C179 0.928 . S
H193 C178 0.929 . S
H194 C176 0.932 . S
C195 C196 1.386 . S
C195 C197 1.397 . S
C195 H219 0.931 . S
C196 C195 1.386 . S
C196 C200 1.397 . S
C197 C195 1.397 . S
C197 C198 1.384 . S
C197 H220 0.930 . S
C198 C197 1.384 . S
C198 C199 1.377 . S
C198 C201 1.481 . S
C199 C198 1.377 . S
C199 C200 1.389 . S
C199 H221 0.929 . S
C200 C196 1.397 . S
C200 C199 1.389 . S
C200 H222 0.931 . S
C201 C198 1.481 . S
C201 C202 1.387 . S
C201 C206 1.390 . S
C202 C201 1.387 . S
C202 C203 1.401 . S
C202 H223 0.930 . S
C203 C202 1.401 . S
C203 C204 1.376 . S
C203 C212 1.511 . S
C204 C203 1.376 . S
C204 C205 1.392 . S
C204 H225 0.931 . S
C205 C204 1.392 . S
C205 C206 1.361 . S
C205 C207 1.500 . S
C206 C201 1.390 . S
C206 C205 1.361 . S
C206 H224 0.931 . S
C207 C205 1.500 . S
C207 C208 1.371 . S
C207 C209 1.365 . S
C208 C207 1.371 . S
C208 C218 1.386 . S
C208 H226 0.931 . S
C209 C207 1.365 . S
C209 C210 1.409 . S
C209 H227 0.929 . S
C210 C209 1.409 . S
C210 C211 1.380 . S
C210 H228 0.930 . S
C211 C210 1.380 . S
C211 C218 1.357 . S
C212 C203 1.511 . S
C212 C213 1.341 . S
C212 C214 1.371 . S
C213 C212 1.341 . S
C213 C217 1.394 . S
C213 H229 0.930 . S
C214 C212 1.371 . S
C214 C215 1.392 . S
C214 H230 0.931 . S
C215 C214 1.392 . S
C215 C216 1.331 . S
C215 H233 0.932 . S
C216 C215 1.331 . S
C216 C217 1.336 . S
C217 C213 1.394 . S
C217 C216 1.336 . S
C217 H232 0.929 . S
C218 C208 1.386 . S
C218 C211 1.357 . S
C218 H231 0.928 . S
H219 C195 0.931 . S
H220 C197 0.930 . S
H221 C199 0.929 . S
H222 C200 0.931 . S
H223 C202 0.930 . S
H224 C206 0.931 . S
H225 C204 0.931 . S
H226 C208 0.931 . S
H227 C209 0.929 . S
H228 C210 0.930 . S
H229 C213 0.930 . S
H230 C214 0.931 . S
H231 C218 0.928 . S
H232 C217 0.929 . S
H233 C215 0.932 . S
C234 C235 1.386 . S
C234 C236 1.397 . S
C234 H258 0.931 . S
C235 C234 1.386 . S
C235 C239 1.397 . S
C236 C234 1.397 . S
C236 C237 1.384 . S
C236 H259 0.930 . S
C237 C236 1.384 . S
C237 C238 1.377 . S
C237 C240 1.481 . S
C238 C237 1.377 . S
C238 C239 1.389 . S
C238 H260 0.929 . S
C239 C235 1.397 . S
C239 C238 1.389 . S
C239 H261 0.931 . S
C240 C237 1.481 . S
C240 C241 1.387 . S
C240 C245 1.390 . S
C241 C240 1.387 . S
C241 C242 1.401 . S
C241 H262 0.930 . S
C242 C241 1.401 . S
C242 C243 1.376 . S
C242 C251 1.511 . S
C243 C242 1.376 . S
C243 C244 1.392 . S
C243 H264 0.931 . S
C244 C243 1.392 . S
C244 C245 1.361 . S
C244 C246 1.500 . S
C245 C240 1.390 . S
C245 C244 1.361 . S
C245 H263 0.931 . S
C246 C244 1.500 . S
C246 C247 1.371 . S
C246 C248 1.365 . S
C247 C246 1.371 . S
C247 C257 1.386 . S
C247 H265 0.931 . S
C248 C246 1.365 . S
C248 C249 1.409 . S
C248 H266 0.929 . S
C249 C248 1.409 . S
C249 C250 1.380 . S
C249 H267 0.930 . S
C250 C249 1.380 . S
C250 C257 1.357 . S
C251 C242 1.511 . S
C251 C252 1.341 . S
C251 C253 1.371 . S
C252 C251 1.341 . S
C252 C256 1.394 . S
C252 H268 0.930 . S
C253 C251 1.371 . S
C253 C254 1.392 . S
C253 H269 0.931 . S
C254 C253 1.392 . S
C254 C255 1.331 . S
C254 H272 0.932 . S
C255 C254 1.331 . S
C255 C256 1.336 . S
C256 C252 1.394 . S
C256 C255 1.336 . S
C256 H271 0.929 . S
C257 C247 1.386 . S
C257 C250 1.357 . S
C257 H270 0.928 . S
H258 C234 0.931 . S
H259 C236 0.930 . S
H260 C238 0.929 . S
H261 C239 0.931 . S
H262 C241 0.930 . S
H263 C245 0.931 . S
H264 C243 0.931 . S
H265 C247 0.931 . S
H266 C248 0.929 . S
H267 C249 0.930 . S
H268 C252 0.930 . S
H269 C253 0.931 . S
H270 C257 0.928 . S
H271 C256 0.929 . S
H272 C254 0.932 . S
C273 C274 1.386 . S
C273 C275 1.397 . S
C273 H297 0.931 . S
C274 C273 1.386 . S
C274 C278 1.397 . S
C275 C273 1.397 . S
C275 C276 1.384 . S
C275 H298 0.930 . S
C276 C275 1.384 . S
C276 C277 1.377 . S
C276 C279 1.481 . S
C277 C276 1.377 . S
C277 C278 1.389 . S
C277 H299 0.929 . S
C278 C274 1.397 . S
C278 C277 1.389 . S
C278 H300 0.931 . S
C279 C276 1.481 . S
C279 C280 1.387 . S
C279 C284 1.390 . S
C280 C279 1.387 . S
C280 C281 1.401 . S
C280 H301 0.930 . S
C281 C280 1.401 . S
C281 C282 1.376 . S
C281 C290 1.511 . S
C282 C281 1.376 . S
C282 C283 1.392 . S
C282 H303 0.931 . S
C283 C282 1.392 . S
C283 C284 1.361 . S
C283 C285 1.500 . S
C284 C279 1.390 . S
C284 C283 1.361 . S
C284 H302 0.931 . S
C285 C283 1.500 . S
C285 C286 1.371 . S
C285 C287 1.365 . S
C286 C285 1.371 . S
C286 C296 1.386 . S
C286 H304 0.931 . S
C287 C285 1.365 . S
C287 C288 1.409 . S
C287 H305 0.929 . S
C288 C287 1.409 . S
C288 C289 1.380 . S
C288 H306 0.930 . S
C289 C288 1.380 . S
C289 C296 1.357 . S
C290 C281 1.511 . S
C290 C291 1.341 . S
C290 C292 1.371 . S
C291 C290 1.341 . S
C291 C295 1.394 . S
C291 H307 0.930 . S
C292 C290 1.371 . S
C292 C293 1.392 . S
C292 H308 0.931 . S
C293 C292 1.392 . S
C293 C294 1.331 . S
C293 H311 0.932 . S
C294 C293 1.331 . S
C294 C295 1.336 . S
C295 C291 1.394 . S
C295 C294 1.336 . S
C295 H310 0.929 . S
C296 C286 1.386 . S
C296 C289 1.357 . S
C296 H309 0.928 . S
H297 C273 0.931 . S
H298 C275 0.930 . S
H299 C277 0.929 . S
H300 C278 0.931 . S
H301 C280 0.930 . S
H302 C284 0.931 . S
H303 C282 0.931 . S
H304 C286 0.931 . S
H305 C287 0.929 . S
H306 C288 0.930 . S
H307 C291 0.930 . S
H308 C292 0.931 . S
H309 C296 0.928 . S
H310 C295 0.929 . S
H311 C293 0.932 . S
C312 C313 1.386 . S
C312 C314 1.397 . S
C312 H336 0.931 . S
C313 C312 1.386 . S
C313 C317 1.397 . S
C314 C312 1.397 . S
C314 C315 1.384 . S
C314 H337 0.930 . S
C315 C314 1.384 . S
C315 C316 1.377 . S
C315 C318 1.481 . S
C316 C315 1.377 . S
C316 C317 1.389 . S
C316 H338 0.929 . S
C317 C313 1.397 . S
C317 C316 1.389 . S
C317 H339 0.931 . S
C318 C315 1.481 . S
C318 C319 1.387 . S
C318 C323 1.390 . S
C319 C318 1.387 . S
C319 C320 1.401 . S
C319 H340 0.930 . S
C320 C319 1.401 . S
C320 C321 1.376 . S
C320 C329 1.511 . S
C321 C320 1.376 . S
C321 C322 1.392 . S
C321 H342 0.931 . S
C322 C321 1.392 . S
C322 C323 1.361 . S
C322 C324 1.500 . S
C323 C318 1.390 . S
C323 C322 1.361 . S
C323 H341 0.931 . S
C324 C322 1.500 . S
C324 C325 1.371 . S
C324 C326 1.365 . S
C325 C324 1.371 . S
C325 C335 1.386 . S
C325 H343 0.931 . S
C326 C324 1.365 . S
C326 C327 1.409 . S
C326 H344 0.929 . S
C327 C326 1.409 . S
C327 C328 1.380 . S
C327 H345 0.930 . S
C328 C327 1.380 . S
C328 C335 1.357 . S
C329 C320 1.511 . S
C329 C330 1.341 . S
C329 C331 1.371 . S
C330 C329 1.341 . S
C330 C334 1.394 . S
C330 H346 0.930 . S
C331 C329 1.371 . S
C331 C332 1.392 . S
C331 H347 0.931 . S
C332 C331 1.392 . S
C332 C333 1.331 . S
C332 H350 0.932 . S
C333 C332 1.331 . S
C333 C334 1.336 . S
C334 C330 1.394 . S
C334 C333 1.336 . S
C334 H349 0.929 . S
C335 C325 1.386 . S
C335 C328 1.357 . S
C335 H348 0.928 . S
H336 C312 0.931 . S
H337 C314 0.930 . S
H338 C316 0.929 . S
H339 C317 0.931 . S
H340 C319 0.930 . S
H341 C323 0.931 . S
H342 C321 0.931 . S
H343 C325 0.931 . S
H344 C326 0.929 . S
H345 C327 0.930 . S
H346 C330 0.930 . S
H347 C331 0.931 . S
H348 C335 0.928 . S
H349 C334 0.929 . S
H350 C332 0.932 . S
C351 C352 1.386 . S
C351 C353 1.397 . S
C351 H375 0.931 . S
C352 C351 1.386 . S
C352 C356 1.397 . S
C353 C351 1.397 . S
C353 C354 1.384 . S
C353 H376 0.930 . S
C354 C353 1.384 . S
C354 C355 1.377 . S
C354 C357 1.481 . S
C355 C354 1.377 . S
C355 C356 1.389 . S
C355 H377 0.929 . S
C356 C352 1.397 . S
C356 C355 1.389 . S
C356 H378 0.931 . S
C357 C354 1.481 . S
C357 C358 1.387 . S
C357 C362 1.390 . S
C358 C357 1.387 . S
C358 C359 1.401 . S
C358 H379 0.930 . S
C359 C358 1.401 . S
C359 C360 1.376 . S
C359 C368 1.511 . S
C360 C359 1.376 . S
C360 C361 1.392 . S
C360 H381 0.931 . S
C361 C360 1.392 . S
C361 C362 1.361 . S
C361 C363 1.500 . S
C362 C357 1.390 . S
C362 C361 1.361 . S
C362 H380 0.931 . S
C363 C361 1.500 . S
C363 C364 1.371 . S
C363 C365 1.365 . S
C364 C363 1.371 . S
C364 C374 1.386 . S
C364 H382 0.931 . S
C365 C363 1.365 . S
C365 C366 1.409 . S
C365 H383 0.929 . S
C366 C365 1.409 . S
C366 C367 1.380 . S
C366 H384 0.930 . S
C367 C366 1.380 . S
C367 C374 1.357 . S
C368 C359 1.511 . S
C368 C369 1.341 . S
C368 C370 1.371 . S
C369 C368 1.341 . S
C369 C373 1.394 . S
C369 H385 0.930 . S
C370 C368 1.371 . S
C370 C371 1.392 . S
C370 H386 0.931 . S
C371 C370 1.392 . S
C371 C372 1.331 . S
C371 H389 0.932 . S
C372 C371 1.331 . S
C372 C373 1.336 . S
C373 C369 1.394 . S
C373 C372 1.336 . S
C373 H388 0.929 . S
C374 C364 1.386 . S
C374 C367 1.357 . S
C374 H387 0.928 . S
H375 C351 0.931 . S
H376 C353 0.930 . S
H377 C355 0.929 . S
H378 C356 0.931 . S
H379 C358 0.930 . S
H380 C362 0.931 . S
H381 C360 0.931 . S
H382 C364 0.931 . S
H383 C365 0.929 . S
H384 C366 0.930 . S
H385 C369 0.930 . S
H386 C370 0.931 . S
H387 C374 0.928 . S
H388 C373 0.929 . S
H389 C371 0.932 . S
C390 C391 1.386 . S
C390 C392 1.397 . S
C390 H414 0.931 . S
C391 C390 1.386 . S
C391 C395 1.397 . S
C392 C390 1.397 . S
C392 C393 1.384 . S
C392 H415 0.930 . S
C393 C392 1.384 . S
C393 C394 1.377 . S
C393 C396 1.481 . S
C394 C393 1.377 . S
C394 C395 1.389 . S
C394 H416 0.929 . S
C395 C391 1.397 . S
C395 C394 1.389 . S
C395 H417 0.931 . S
C396 C393 1.481 . S
C396 C397 1.387 . S
C396 C401 1.390 . S
C397 C396 1.387 . S
C397 C398 1.401 . S
C397 H418 0.930 . S
C398 C397 1.401 . S
C398 C399 1.376 . S
C398 C407 1.511 . S
C399 C398 1.376 . S
C399 C400 1.392 . S
C399 H420 0.931 . S
C400 C399 1.392 . S
C400 C401 1.361 . S
C400 C402 1.500 . S
C401 C396 1.390 . S
C401 C400 1.361 . S
C401 H419 0.931 . S
C402 C400 1.500 . S
C402 C403 1.371 . S
C402 C404 1.365 . S
C403 C402 1.371 . S
C403 C413 1.386 . S
C403 H421 0.931 . S
C404 C402 1.365 . S
C404 C405 1.409 . S
C404 H422 0.929 . S
C405 C404 1.409 . S
C405 C406 1.380 . S
C405 H423 0.930 . S
C406 C405 1.380 . S
C406 C413 1.357 . S
C407 C398 1.511 . S
C407 C408 1.341 . S
C407 C409 1.371 . S
C408 C407 1.341 . S
C408 C412 1.394 . S
C408 H424 0.930 . S
C409 C407 1.371 . S
C409 C410 1.392 . S
C409 H425 0.931 . S
C410 C409 1.392 . S
C410 C411 1.331 . S
C410 H428 0.932 . S
C411 C410 1.331 . S
C411 C412 1.336 . S
C412 C408 1.394 . S
C412 C411 1.336 . S
C412 H427 0.929 . S
C413 C403 1.386 . S
C413 C406 1.357 . S
C413 H426 0.928 . S
H414 C390 0.931 . S
H415 C392 0.930 . S
H416 C394 0.929 . S
H417 C395 0.931 . S
H418 C397 0.930 . S
H419 C401 0.931 . S
H420 C399 0.931 . S
H421 C403 0.931 . S
H422 C404 0.929 . S
H423 C405 0.930 . S
H424 C408 0.930 . S
H425 C409 0.931 . S
H426 C413 0.928 . S
H427 C412 0.929 . S
H428 C410 0.932 . S
C429 C430 1.386 . S
C429 C431 1.397 . S
C429 H453 0.931 . S
C430 C429 1.386 . S
C430 C434 1.397 . S
C431 C429 1.397 . S
C431 C432 1.384 . S
C431 H454 0.930 . S
C432 C431 1.384 . S
C432 C433 1.377 . S
C432 C435 1.481 . S
C433 C432 1.377 . S
C433 C434 1.389 . S
C433 H455 0.929 . S
C434 C430 1.397 . S
C434 C433 1.389 . S
C434 H456 0.931 . S
C435 C432 1.481 . S
C435 C436 1.387 . S
C435 C440 1.390 . S
C436 C435 1.387 . S
C436 C437 1.401 . S
C436 H457 0.930 . S
C437 C436 1.401 . S
C437 C438 1.376 . S
C437 C446 1.511 . S
C438 C437 1.376 . S
C438 C439 1.392 . S
C438 H459 0.931 . S
C439 C438 1.392 . S
C439 C440 1.361 . S
C439 C441 1.500 . S
C440 C435 1.390 . S
C440 C439 1.361 . S
C440 H458 0.931 . S
C441 C439 1.500 . S
C441 C442 1.371 . S
C441 C443 1.365 . S
C442 C441 1.371 . S
C442 C452 1.386 . S
C442 H460 0.931 . S
C443 C441 1.365 . S
C443 C444 1.409 . S
C443 H461 0.929 . S
C444 C443 1.409 . S
C444 C445 1.380 . S
C444 H462 0.930 . S
C445 C444 1.380 . S
C445 C452 1.357 . S
C446 C437 1.511 . S
C446 C447 1.341 . S
C446 C448 1.371 . S
C447 C446 1.341 . S
C447 C451 1.394 . S
C447 H463 0.930 . S
C448 C446 1.371 . S
C448 C449 1.392 . S
C448 H464 0.931 . S
C449 C448 1.392 . S
C449 C450 1.331 . S
C449 H467 0.932 . S
C450 C449 1.331 . S
C450 C451 1.336 . S
C451 C447 1.394 . S
C451 C450 1.336 . S
C451 H466 0.929 . S
C452 C442 1.386 . S
C452 C445 1.357 . S
C452 H465 0.928 . S
H453 C429 0.931 . S
H454 C431 0.930 . S
H455 C433 0.929 . S
H456 C434 0.931 . S
H457 C436 0.930 . S
H458 C440 0.931 . S
H459 C438 0.931 . S
H460 C442 0.931 . S
H461 C443 0.929 . S
H462 C444 0.930 . S
H463 C447 0.930 . S
H464 C448 0.931 . S
H465 C452 0.928 . S
H466 C451 0.929 . S
H467 C449 0.932 . S
C468 C469 1.386 . S
C468 C470 1.397 . S
C468 H492 0.931 . S
C469 C468 1.386 . S
C469 C473 1.397 . S
C470 C468 1.397 . S
C470 C471 1.384 . S
C470 H493 0.930 . S
C471 C470 1.384 . S
C471 C472 1.377 . S
C471 C474 1.481 . S
C472 C471 1.377 . S
C472 C473 1.389 . S
C472 H494 0.929 . S
C473 C469 1.397 . S
C473 C472 1.389 . S
C473 H495 0.931 . S
C474 C471 1.481 . S
C474 C475 1.387 . S
C474 C479 1.390 . S
C475 C474 1.387 . S
C475 C476 1.401 . S
C475 H496 0.930 . S
C476 C475 1.401 . S
C476 C477 1.376 . S
C476 C485 1.511 . S
C477 C476 1.376 . S
C477 C478 1.392 . S
C477 H498 0.931 . S
C478 C477 1.392 . S
C478 C479 1.361 . S
C478 C480 1.500 . S
C479 C474 1.390 . S
C479 C478 1.361 . S
C479 H497 0.931 . S
C480 C478 1.500 . S
C480 C481 1.371 . S
C480 C482 1.365 . S
C481 C480 1.371 . S
C481 C491 1.386 . S
C481 H499 0.931 . S
C482 C480 1.365 . S
C482 C483 1.409 . S
C482 H500 0.929 . S
C483 C482 1.409 . S
C483 C484 1.380 . S
C483 H501 0.930 . S
C484 C483 1.380 . S
C484 C491 1.357 . S
C485 C476 1.511 . S
C485 C486 1.341 . S
C485 C487 1.371 . S
C486 C485 1.341 . S
C486 C490 1.394 . S
C486 H502 0.930 . S
C487 C485 1.371 . S
C487 C488 1.392 . S
C487 H503 0.931 . S
C488 C487 1.392 . S
C488 C489 1.331 . S
C488 H506 0.932 . S
C489 C488 1.331 . S
C489 C490 1.336 . S
C490 C486 1.394 . S
C490 C489 1.336 . S
C490 H505 0.929 . S
C491 C481 1.386 . S
C491 C484 1.357 . S
C491 H504 0.928 . S
H492 C468 0.931 . S
H493 C470 0.930 . S
H494 C472 0.929 . S
H495 C473 0.931 . S
H496 C475 0.930 . S
H497 C479 0.931 . S
H498 C477 0.931 . S
H499 C481 0.931 . S
H500 C482 0.929 . S
H501 C483 0.930 . S
H502 C486 0.930 . S
H503 C487 0.931 . S
H504 C491 0.928 . S
H505 C490 0.929 . S
H506 C488 0.932 . S
C507 C508 1.386 . S
C507 C509 1.397 . S
C507 H531 0.931 . S
C508 C507 1.386 . S
C508 C512 1.397 . S
C509 C507 1.397 . S
C509 C510 1.384 . S
C509 H532 0.930 . S
C510 C509 1.384 . S
C510 C511 1.377 . S
C510 C513 1.481 . S
C511 C510 1.377 . S
C511 C512 1.389 . S
C511 H533 0.929 . S
C512 C508 1.397 . S
C512 C511 1.389 . S
C512 H534 0.931 . S
C513 C510 1.481 . S
C513 C514 1.387 . S
C513 C518 1.390 . S
C514 C513 1.387 . S
C514 C515 1.401 . S
C514 H535 0.930 . S
C515 C514 1.401 . S
C515 C516 1.376 . S
C515 C524 1.511 . S
C516 C515 1.376 . S
C516 C517 1.392 . S
C516 H537 0.931 . S
C517 C516 1.392 . S
C517 C518 1.361 . S
C517 C519 1.500 . S
C518 C513 1.390 . S
C518 C517 1.361 . S
C518 H536 0.931 . S
C519 C517 1.500 . S
C519 C520 1.371 . S
C519 C521 1.365 . S
C520 C519 1.371 . S
C520 C530 1.386 . S
C520 H538 0.931 . S
C521 C519 1.365 . S
C521 C522 1.409 . S
C521 H539 0.929 . S
C522 C521 1.409 . S
C522 C523 1.380 . S
C522 H540 0.930 . S
C523 C522 1.380 . S
C523 C530 1.357 . S
C524 C515 1.511 . S
C524 C525 1.341 . S
C524 C526 1.371 . S
C525 C524 1.341 . S
C525 C529 1.394 . S
C525 H541 0.930 . S
C526 C524 1.371 . S
C526 C527 1.392 . S
C526 H542 0.931 . S
C527 C526 1.392 . S
C527 C528 1.331 . S
C527 H545 0.932 . S
C528 C527 1.331 . S
C528 C529 1.336 . S
C529 C525 1.394 . S
C529 C528 1.336 . S
C529 H544 0.929 . S
C530 C520 1.386 . S
C530 C523 1.357 . S
C530 H543 0.928 . S
H531 C507 0.931 . S
H532 C509 0.930 . S
H533 C511 0.929 . S
H534 C512 0.931 . S
H535 C514 0.930 . S
H536 C518 0.931 . S
H537 C516 0.931 . S
H538 C520 0.931 . S
H539 C521 0.929 . S
H540 C522 0.930 . S
H541 C525 0.930 . S
H542 C526 0.931 . S
H543 C530 0.928 . S
H544 C529 0.929 . S
H545 C527 0.932 . S
C546 C547 1.386 . S
C546 C548 1.397 . S
C546 H570 0.931 . S
C547 C546 1.386 . S
C547 C551 1.397 . S
C548 C546 1.397 . S
C548 C549 1.384 . S
C548 H571 0.930 . S
C549 C548 1.384 . S
C549 C550 1.377 . S
C549 C552 1.481 . S
C550 C549 1.377 . S
C550 C551 1.389 . S
C550 H572 0.929 . S
C551 C547 1.397 . S
C551 C550 1.389 . S
C551 H573 0.931 . S
C552 C549 1.481 . S
C552 C553 1.387 . S
C552 C557 1.390 . S
C553 C552 1.387 . S
C553 C554 1.401 . S
C553 H574 0.930 . S
C554 C553 1.401 . S
C554 C555 1.376 . S
C554 C563 1.511 . S
C555 C554 1.376 . S
C555 C556 1.392 . S
C555 H576 0.931 . S
C556 C555 1.392 . S
C556 C557 1.361 . S
C556 C558 1.500 . S
C557 C552 1.390 . S
C557 C556 1.361 . S
C557 H575 0.931 . S
C558 C556 1.500 . S
C558 C559 1.371 . S
C558 C560 1.365 . S
C559 C558 1.371 . S
C559 C569 1.386 . S
C559 H577 0.931 . S
C560 C558 1.365 . S
C560 C561 1.409 . S
C560 H578 0.929 . S
C561 C560 1.409 . S
C561 C562 1.380 . S
C561 H579 0.930 . S
C562 C561 1.380 . S
C562 C569 1.357 . S
C563 C554 1.511 . S
C563 C564 1.341 . S
C563 C565 1.371 . S
C564 C563 1.341 . S
C564 C568 1.394 . S
C564 H580 0.930 . S
C565 C563 1.371 . S
C565 C566 1.392 . S
C565 H581 0.931 . S
C566 C565 1.392 . S
C566 C567 1.331 . S
C566 H584 0.932 . S
C567 C566 1.331 . S
C567 C568 1.336 . S
C568 C564 1.394 . S
C568 C567 1.336 . S
C568 H583 0.929 . S
C569 C559 1.386 . S
C569 C562 1.357 . S
C569 H582 0.928 . S
H570 C546 0.931 . S
H571 C548 0.930 . S
H572 C550 0.929 . S
H573 C551 0.931 . S
H574 C553 0.930 . S
H575 C557 0.931 . S
H576 C555 0.931 . S
H577 C559 0.931 . S
H578 C560 0.929 . S
H579 C561 0.930 . S
H580 C564 0.930 . S
H581 C565 0.931 . S
H582 C569 0.928 . S
H583 C568 0.929 . S
H584 C566 0.932 . S
C585 C586 1.386 . S
C585 C587 1.397 . S
C585 H609 0.931 . S
C586 C585 1.386 . S
C586 C590 1.397 . S
C587 C585 1.397 . S
C587 C588 1.384 . S
C587 H610 0.930 . S
C588 C587 1.384 . S
C588 C589 1.377 . S
C588 C591 1.481 . S
C589 C588 1.377 . S
C589 C590 1.389 . S
C589 H611 0.929 . S
C590 C586 1.397 . S
C590 C589 1.389 . S
C590 H612 0.931 . S
C591 C588 1.481 . S
C591 C592 1.387 . S
C591 C596 1.390 . S
C592 C591 1.387 . S
C592 C593 1.401 . S
C592 H613 0.930 . S
C593 C592 1.401 . S
C593 C594 1.376 . S
C593 C602 1.511 . S
C594 C593 1.376 . S
C594 C595 1.392 . S
C594 H615 0.931 . S
C595 C594 1.392 . S
C595 C596 1.361 . S
C595 C597 1.500 . S
C596 C591 1.390 . S
C596 C595 1.361 . S
C596 H614 0.931 . S
C597 C595 1.500 . S
C597 C598 1.371 . S
C597 C599 1.365 . S
C598 C597 1.371 . S
C598 C608 1.386 . S
C598 H616 0.931 . S
C599 C597 1.365 . S
C599 C600 1.409 . S
C599 H617 0.929 . S
C600 C599 1.409 . S
C600 C601 1.380 . S
C600 H618 0.930 . S
C601 C600 1.380 . S
C601 C608 1.357 . S
C602 C593 1.511 . S
C602 C603 1.341 . S
C602 C604 1.371 . S
C603 C602 1.341 . S
C603 C607 1.394 . S
C603 H619 0.930 . S
C604 C602 1.371 . S
C604 C605 1.392 . S
C604 H620 0.931 . S
C605 C604 1.392 . S
C605 C606 1.331 . S
C605 H623 0.932 . S
C606 C605 1.331 . S
C606 C607 1.336 . S
C607 C603 1.394 . S
C607 C606 1.336 . S
C607 H622 0.929 . S
C608 C598 1.386 . S
C608 C601 1.357 . S
C608 H621 0.928 . S
H609 C585 0.931 . S
H610 C587 0.930 . S
H611 C589 0.929 . S
H612 C590 0.931 . S
H613 C592 0.930 . S
H614 C596 0.931 . S
H615 C594 0.931 . S
H616 C598 0.931 . S
H617 C599 0.929 . S
H618 C600 0.930 . S
H619 C603 0.930 . S
H620 C604 0.931 . S
H621 C608 0.928 . S
H622 C607 0.929 . S
H623 C605 0.932 . S
C624 C625 1.386 . S
C624 C626 1.397 . S
C624 H648 0.931 . S
C625 C624 1.386 . S
C625 C629 1.397 . S
C626 C624 1.397 . S
C626 C627 1.384 . S
C626 H649 0.930 . S
C627 C626 1.384 . S
C627 C628 1.377 . S
C627 C630 1.481 . S
C628 C627 1.377 . S
C628 C629 1.389 . S
C628 H650 0.929 . S
C629 C625 1.397 . S
C629 C628 1.389 . S
C629 H651 0.931 . S
C630 C627 1.481 . S
C630 C631 1.387 . S
C630 C635 1.390 . S
C631 C630 1.387 . S
C631 C632 1.401 . S
C631 H652 0.930 . S
C632 C631 1.401 . S
C632 C633 1.376 . S
C632 C641 1.511 . S
C633 C632 1.376 . S
C633 C634 1.392 . S
C633 H654 0.931 . S
C634 C633 1.392 . S
C634 C635 1.361 . S
C634 C636 1.500 . S
C635 C630 1.390 . S
C635 C634 1.361 . S
C635 H653 0.931 . S
C636 C634 1.500 . S
C636 C637 1.371 . S
C636 C638 1.365 . S
C637 C636 1.371 . S
C637 C647 1.386 . S
C637 H655 0.931 . S
C638 C636 1.365 . S
C638 C639 1.409 . S
C638 H656 0.929 . S
C639 C638 1.409 . S
C639 C640 1.380 . S
C639 H657 0.930 . S
C640 C639 1.380 . S
C640 C647 1.357 . S
C641 C632 1.511 . S
C641 C642 1.341 . S
C641 C643 1.371 . S
C642 C641 1.341 . S
C642 C646 1.394 . S
C642 H658 0.930 . S
C643 C641 1.371 . S
C643 C644 1.392 . S
C643 H659 0.931 . S
C644 C643 1.392 . S
C644 C645 1.331 . S
C644 H662 0.932 . S
C645 C644 1.331 . S
C645 C646 1.336 . S
C646 C642 1.394 . S
C646 C645 1.336 . S
C646 H661 0.929 . S
C647 C637 1.386 . S
C647 C640 1.357 . S
C647 H660 0.928 . S
H648 C624 0.931 . S
H649 C626 0.930 . S
H650 C628 0.929 . S
H651 C629 0.931 . S
H652 C631 0.930 . S
H653 C635 0.931 . S
H654 C633 0.931 . S
H655 C637 0.931 . S
H656 C638 0.929 . S
H657 C639 0.930 . S
H658 C642 0.930 . S
H659 C643 0.931 . S
H660 C647 0.928 . S
H661 C646 0.929 . S
H662 C644 0.932 . S
C663 C664 1.386 . S
C663 C665 1.397 . S
C663 H687 0.931 . S
C664 C663 1.386 . S
C664 C668 1.397 . S
C665 C663 1.397 . S
C665 C666 1.384 . S
C665 H688 0.930 . S
C666 C665 1.384 . S
C666 C667 1.377 . S
C666 C669 1.481 . S
C667 C666 1.377 . S
C667 C668 1.389 . S
C667 H689 0.929 . S
C668 C664 1.397 . S
C668 C667 1.389 . S
C668 H690 0.931 . S
C669 C666 1.481 . S
C669 C670 1.387 . S
C669 C674 1.390 . S
C670 C669 1.387 . S
C670 C671 1.401 . S
C670 H691 0.930 . S
C671 C670 1.401 . S
C671 C672 1.376 . S
C671 C680 1.511 . S
C672 C671 1.376 . S
C672 C673 1.392 . S
C672 H693 0.931 . S
C673 C672 1.392 . S
C673 C674 1.361 . S
C673 C675 1.500 . S
C674 C669 1.390 . S
C674 C673 1.361 . S
C674 H692 0.931 . S
C675 C673 1.500 . S
C675 C676 1.371 . S
C675 C677 1.365 . S
C676 C675 1.371 . S
C676 C686 1.386 . S
C676 H694 0.931 . S
C677 C675 1.365 . S
C677 C678 1.409 . S
C677 H695 0.929 . S
C678 C677 1.409 . S
C678 C679 1.380 . S
C678 H696 0.930 . S
C679 C678 1.380 . S
C679 C686 1.357 . S
C680 C671 1.511 . S
C680 C681 1.341 . S
C680 C682 1.371 . S
C681 C680 1.341 . S
C681 C685 1.394 . S
C681 H697 0.930 . S
C682 C680 1.371 . S
C682 C683 1.392 . S
C682 H698 0.931 . S
C683 C682 1.392 . S
C683 C684 1.331 . S
C683 H701 0.932 . S
C684 C683 1.331 . S
C684 C685 1.336 . S
C685 C681 1.394 . S
C685 C684 1.336 . S
C685 H700 0.929 . S
C686 C676 1.386 . S
C686 C679 1.357 . S
C686 H699 0.928 . S
H687 C663 0.931 . S
H688 C665 0.930 . S
H689 C667 0.929 . S
H690 C668 0.931 . S
H691 C670 0.930 . S
H692 C674 0.931 . S
H693 C672 0.931 . S
H694 C676 0.931 . S
H695 C677 0.929 . S
H696 C678 0.930 . S
H697 C681 0.930 . S
H698 C682 0.931 . S
H699 C686 0.928 . S
H700 C685 0.929 . S
H701 C683 0.932 . S
Tb702 N733 2.660 . S
Tb702 N740 2.600 . S
Tb702 O746 2.546 . S
Tb702 O747 2.610 1_565 S
Tb702 O749 2.320 1_565 S
Tb702 O750 2.552 1_565 S
Tb702 O751 2.413 . S
Tb702 O753 2.362 1_556 S
Tb702 O754 2.421 . S
Tb702 C766 2.833 . S
C703 C706 1.432 . S
C703 C707 1.414 . S
C703 N710 1.359 . S
C704 C706 1.417 . S
C704 C708 1.432 . S
C704 C716 1.410 . S
C705 C707 1.444 . S
C705 C708 1.317 . S
C705 H728 0.929 . S
C706 C703 1.432 . S
C706 C704 1.417 . S
C706 N714 1.360 . S
C707 C703 1.414 . S
C707 C705 1.444 . S
C707 C712 1.385 . S
C708 C704 1.432 . S
C708 C705 1.317 . S
C708 H720 0.930 . S
C709 C711 1.392 . S
C709 C712 1.370 . S
C709 H721 0.931 . S
N710 C703 1.359 . S
N710 C711 1.327 . S
N710 Tb713 2.600 . S
C711 C709 1.392 . S
C711 N710 1.327 . S
C711 H718 0.930 . S
C712 C707 1.385 . S
C712 C709 1.370 . S
C712 H731 0.930 . S
Tb713 N710 2.600 . S
Tb713 N714 2.660 . S
Tb713 O747 2.362 1_554 S
Tb713 O748 2.421 . S
Tb713 O752 2.546 . S
Tb713 O753 2.610 1_545 S
Tb713 O755 2.320 1_545 S
Tb713 O756 2.552 1_545 S
Tb713 O757 2.413 . S
Tb713 C777 2.833 . S
N714 C706 1.360 . S
N714 Tb713 2.660 . S
N714 C715 1.305 . S
C715 N714 1.305 . S
C715 C717 1.407 . S
C715 H722 0.930 . S
C716 C704 1.410 . S
C716 C717 1.345 . S
C716 H724 0.930 . S
C717 C715 1.407 . S
C717 C716 1.345 . S
C717 H719 0.930 . S
H718 C711 0.930 . S
H719 C717 0.930 . S
H720 C708 0.930 . S
H721 C709 0.931 . S
H722 C715 0.930 . S
H723 C737 0.930 . S
H724 C716 0.930 . S
H725 C743 0.930 . S
H726 C734 0.930 . S
H727 C741 0.931 . S
H728 C705 0.929 . S
H729 C735 0.930 . S
H730 C768 0.930 . S
H731 C712 0.930 . S
H732 C767 0.929 . S
N733 Tb702 2.660 . S
N733 C734 1.305 . S
N733 C738 1.360 . S
C734 H726 0.930 . S
C734 N733 1.305 . S
C734 C737 1.407 . S
C735 H729 0.930 . S
C735 C736 1.410 . S
C735 C737 1.345 . S
C736 C735 1.410 . S
C736 C738 1.417 . S
C736 C768 1.432 . S
C737 H723 0.930 . S
C737 C734 1.407 . S
C737 C735 1.345 . S
C738 N733 1.360 . S
C738 C736 1.417 . S
C738 C742 1.432 . S
H739 C744 0.930 . S
N740 Tb702 2.600 . S
N740 C742 1.359 . S
N740 C743 1.327 . S
C741 H727 0.931 . S
C741 C743 1.392 . S
C741 C744 1.370 . S
C742 C738 1.432 . S
C742 N740 1.359 . S
C742 C745 1.414 . S
C743 H725 0.930 . S
C743 N740 1.327 . S
C743 C741 1.392 . S
C744 H739 0.930 . S
C744 C741 1.370 . S
C744 C745 1.385 . S
C745 C742 1.414 . S
C745 C744 1.385 . S
C745 C767 1.444 . S
O746 Tb702 2.546 . S
O746 C766 1.251 . S
O747 Tb702 2.610 1_545 S
O747 Tb713 2.362 1_556 S
O747 C758 1.283 . S
O748 Tb713 2.421 . S
O748 C765 1.262 1_554 S
O749 Tb702 2.320 1_545 S
O749 C765 1.260 . S
O750 Tb702 2.552 1_545 S
O750 C758 1.243 . S
O751 Tb702 2.413 . S
O751 C766 1.256 . S
O752 Tb713 2.546 . S
O752 C777 1.251 . S
O753 Tb702 2.362 1_554 S
O753 Tb713 2.610 1_565 S
O753 C769 1.283 . S
O754 Tb702 2.421 . S
O754 C776 1.262 1_556 S
O755 Tb713 2.320 1_565 S
O755 C776 1.260 . S
O756 Tb713 2.552 1_565 S
O756 C769 1.243 . S
O757 Tb713 2.413 . S
O757 C777 1.256 . S
C758 O747 1.283 . S
C758 O750 1.243 . S
C759 C761 1.382 1_565 S
C759 C763 1.393 . S
C759 C766 1.500 . S
C760 C761 1.400 . S
C760 C762 1.384 1_545 S
C761 C759 1.382 1_545 S
C761 C760 1.400 . S
C761 H778 0.930 . S
C762 C760 1.384 1_565 S
C762 C764 1.392 . S
C762 H779 0.931 . S
C763 C759 1.393 . S
C763 C764 1.401 . S
C763 H780 0.930 . S
C764 C762 1.392 . S
C764 C763 1.401 . S
C764 H781 0.930 . S
C765 O748 1.262 1_556 S
C765 O749 1.260 . S
C766 Tb702 2.833 . S
C766 O746 1.251 . S
C766 O751 1.256 . S
C766 C759 1.500 . S
C767 H732 0.929 . S
C767 C745 1.444 . S
C767 C768 1.317 . S
C768 H730 0.930 . S
C768 C736 1.432 . S
C768 C767 1.317 . S
C769 O753 1.283 . S
C769 O756 1.243 . S
C770 C771 1.382 1_545 S
C770 C774 1.393 . S
C770 C777 1.500 . S
C771 C770 1.382 1_565 S
C771 C772 1.400 . S
C771 H782 0.930 . S
C772 C771 1.400 . S
C772 C773 1.384 1_565 S
C773 C772 1.384 1_545 S
C773 C775 1.392 . S
C773 H783 0.931 . S
C774 C770 1.393 . S
C774 C775 1.401 . S
C774 H784 0.930 . S
C775 C773 1.392 . S
C775 C774 1.401 . S
C775 H785 0.930 . S
C776 O754 1.262 1_554 S
C776 O755 1.260 . S
C777 Tb713 2.833 . S
C777 O752 1.251 . S
C777 O757 1.256 . S
C777 C770 1.500 . S
H778 C761 0.930 . S
H779 C762 0.931 . S
H780 C763 0.930 . S
H781 C764 0.930 . S
H782 C771 0.930 . S
H783 C773 0.931 . S
H784 C774 0.930 . S
H785 C775 0.930 . S
Tb786 N817 2.660 . S
Tb786 N824 2.600 . S
Tb786 O830 2.546 . S
Tb786 O831 2.610 1_455 S
Tb786 O833 2.320 1_455 S
Tb786 O834 2.552 1_455 S
Tb786 O835 2.413 . S
Tb786 O837 2.362 1_556 S
Tb786 O838 2.421 . S
Tb786 C850 2.833 . S
C787 C790 1.432 . S
C787 C791 1.414 . S
C787 N794 1.359 . S
C788 C790 1.417 . S
C788 C792 1.432 . S
C788 C800 1.410 . S
C789 C791 1.444 . S
C789 C792 1.317 . S
C789 H812 0.929 . S
C790 C787 1.432 . S
C790 C788 1.417 . S
C790 N798 1.360 . S
C791 C787 1.414 . S
C791 C789 1.444 . S
C791 C796 1.385 . S
C792 C788 1.432 . S
C792 C789 1.317 . S
C792 H804 0.930 . S
C793 C795 1.392 . S
C793 C796 1.370 . S
C793 H805 0.931 . S
N794 C787 1.359 . S
N794 C795 1.327 . S
N794 Tb797 2.600 . S
C795 C793 1.392 . S
C795 N794 1.327 . S
C795 H802 0.930 . S
C796 C791 1.385 . S
C796 C793 1.370 . S
C796 H815 0.930 . S
Tb797 N794 2.600 . S
Tb797 N798 2.660 . S
Tb797 O831 2.362 1_554 S
Tb797 O832 2.421 . S
Tb797 O836 2.546 . S
Tb797 O837 2.610 1_655 S
Tb797 O839 2.320 1_655 S
Tb797 O840 2.552 1_655 S
Tb797 O841 2.413 . S
Tb797 C861 2.833 . S
N798 C790 1.360 . S
N798 Tb797 2.660 . S
N798 C799 1.305 . S
C799 N798 1.305 . S
C799 C801 1.407 . S
C799 H806 0.930 . S
C800 C788 1.410 . S
C800 C801 1.345 . S
C800 H808 0.930 . S
C801 C799 1.407 . S
C801 C800 1.345 . S
C801 H803 0.930 . S
H802 C795 0.930 . S
H803 C801 0.930 . S
H804 C792 0.930 . S
H805 C793 0.931 . S
H806 C799 0.930 . S
H807 C821 0.930 . S
H808 C800 0.930 . S
H809 C827 0.930 . S
H810 C818 0.930 . S
H811 C825 0.931 . S
H812 C789 0.929 . S
H813 C819 0.930 . S
H814 C852 0.930 . S
H815 C796 0.930 . S
H816 C851 0.929 . S
N817 Tb786 2.660 . S
N817 C818 1.305 . S
N817 C822 1.360 . S
C818 H810 0.930 . S
C818 N817 1.305 . S
C818 C821 1.407 . S
C819 H813 0.930 . S
C819 C820 1.410 . S
C819 C821 1.345 . S
C820 C819 1.410 . S
C820 C822 1.417 . S
C820 C852 1.432 . S
C821 H807 0.930 . S
C821 C818 1.407 . S
C821 C819 1.345 . S
C822 N817 1.360 . S
C822 C820 1.417 . S
C822 C826 1.432 . S
H823 C828 0.930 . S
N824 Tb786 2.600 . S
N824 C826 1.359 . S
N824 C827 1.327 . S
C825 H811 0.931 . S
C825 C827 1.392 . S
C825 C828 1.370 . S
C826 C822 1.432 . S
C826 N824 1.359 . S
C826 C829 1.414 . S
C827 H809 0.930 . S
C827 N824 1.327 . S
C827 C825 1.392 . S
C828 H823 0.930 . S
C828 C825 1.370 . S
C828 C829 1.385 . S
C829 C826 1.414 . S
C829 C828 1.385 . S
C829 C851 1.444 . S
O830 Tb786 2.546 . S
O830 C850 1.251 . S
O831 Tb786 2.610 1_655 S
O831 Tb797 2.362 1_556 S
O831 C842 1.283 . S
O832 Tb797 2.421 . S
O832 C849 1.262 1_554 S
O833 Tb786 2.320 1_655 S
O833 C849 1.260 . S
O834 Tb786 2.552 1_655 S
O834 C842 1.243 . S
O835 Tb786 2.413 . S
O835 C850 1.256 . S
O836 Tb797 2.546 . S
O836 C861 1.251 . S
O837 Tb786 2.362 1_554 S
O837 Tb797 2.610 1_455 S
O837 C853 1.283 . S
O838 Tb786 2.421 . S
O838 C860 1.262 1_556 S
O839 Tb797 2.320 1_455 S
O839 C860 1.260 . S
O840 Tb797 2.552 1_455 S
O840 C853 1.243 . S
O841 Tb797 2.413 . S
O841 C861 1.256 . S
C842 O831 1.283 . S
C842 O834 1.243 . S
C843 C845 1.382 1_455 S
C843 C847 1.393 . S
C843 C850 1.500 . S
C844 C845 1.400 . S
C844 C846 1.384 1_655 S
C845 C843 1.382 1_655 S
C845 C844 1.400 . S
C845 H862 0.930 . S
C846 C844 1.384 1_455 S
C846 C848 1.392 . S
C846 H863 0.931 . S
C847 C843 1.393 . S
C847 C848 1.401 . S
C847 H864 0.930 . S
C848 C846 1.392 . S
C848 C847 1.401 . S
C848 H865 0.930 . S
C849 O832 1.262 1_556 S
C849 O833 1.260 . S
C850 Tb786 2.833 . S
C850 O830 1.251 . S
C850 O835 1.256 . S
C850 C843 1.500 . S
C851 H816 0.929 . S
C851 C829 1.444 . S
C851 C852 1.317 . S
C852 H814 0.930 . S
C852 C820 1.432 . S
C852 C851 1.317 . S
C853 O837 1.283 . S
C853 O840 1.243 . S
C854 C855 1.382 1_655 S
C854 C858 1.393 . S
C854 C861 1.500 . S
C855 C854 1.382 1_455 S
C855 C856 1.400 . S
C855 H866 0.930 . S
C856 C855 1.400 . S
C856 C857 1.384 1_455 S
C857 C856 1.384 1_655 S
C857 C859 1.392 . S
C857 H867 0.931 . S
C858 C854 1.393 . S
C858 C859 1.401 . S
C858 H868 0.930 . S
C859 C857 1.392 . S
C859 C858 1.401 . S
C859 H869 0.930 . S
C860 O838 1.262 1_554 S
C860 O839 1.260 . S
C861 Tb797 2.833 . S
C861 O836 1.251 . S
C861 O841 1.256 . S
C861 C854 1.500 . S
H862 C845 0.930 . S
H863 C846 0.931 . S
H864 C847 0.930 . S
H865 C848 0.930 . S
H866 C855 0.930 . S
H867 C857 0.931 . S
H868 C858 0.930 . S
H869 C859 0.930 . S
Tb870 N901 2.660 . S
Tb870 N908 2.600 . S
Tb870 O914 2.546 . S
Tb870 O915 2.610 . S
Tb870 O917 2.320 . S
Tb870 O918 2.552 . S
Tb870 O919 2.413 . S
Tb870 O921 2.362 1_554 S
Tb870 O922 2.421 . S
Tb870 C934 2.833 . S
C871 C874 1.432 . S
C871 C875 1.414 . S
C871 N878 1.359 . S
C872 C874 1.417 . S
C872 C876 1.432 . S
C872 C884 1.410 . S
C873 C875 1.444 . S
C873 C876 1.317 . S
C873 H896 0.929 . S
C874 C871 1.432 . S
C874 C872 1.417 . S
C874 N882 1.360 . S
C875 C871 1.414 . S
C875 C873 1.444 . S
C875 C880 1.385 . S
C876 C872 1.432 . S
C876 C873 1.317 . S
C876 H888 0.930 . S
C877 C879 1.392 . S
C877 C880 1.370 . S
C877 H889 0.931 . S
N878 C871 1.359 . S
N878 C879 1.327 . S
N878 Tb881 2.600 . S
C879 C877 1.392 . S
C879 N878 1.327 . S
C879 H886 0.930 . S
C880 C875 1.385 . S
C880 C877 1.370 . S
C880 H899 0.930 . S
Tb881 N878 2.600 . S
Tb881 N882 2.660 . S
Tb881 O915 2.362 1_556 S
Tb881 O916 2.421 . S
Tb881 O920 2.546 . S
Tb881 O921 2.610 . S
Tb881 O923 2.320 . S
Tb881 O924 2.552 . S
Tb881 O925 2.413 . S
Tb881 C945 2.833 . S
N882 C874 1.360 . S
N882 Tb881 2.660 . S
N882 C883 1.305 . S
C883 N882 1.305 . S
C883 C885 1.407 . S
C883 H890 0.930 . S
C884 C872 1.410 . S
C884 C885 1.345 . S
C884 H892 0.930 . S
C885 C883 1.407 . S
C885 C884 1.345 . S
C885 H887 0.930 . S
H886 C879 0.930 . S
H887 C885 0.930 . S
H888 C876 0.930 . S
H889 C877 0.931 . S
H890 C883 0.930 . S
H891 C905 0.930 . S
H892 C884 0.930 . S
H893 C911 0.930 . S
H894 C902 0.930 . S
H895 C909 0.931 . S
H896 C873 0.929 . S
H897 C903 0.930 . S
H898 C936 0.930 . S
H899 C880 0.930 . S
H900 C935 0.929 . S
N901 Tb870 2.660 . S
N901 C902 1.305 . S
N901 C906 1.360 . S
C902 H894 0.930 . S
C902 N901 1.305 . S
C902 C905 1.407 . S
C903 H897 0.930 . S
C903 C904 1.410 . S
C903 C905 1.345 . S
C904 C903 1.410 . S
C904 C906 1.417 . S
C904 C936 1.432 . S
C905 H891 0.930 . S
C905 C902 1.407 . S
C905 C903 1.345 . S
C906 N901 1.360 . S
C906 C904 1.417 . S
C906 C910 1.432 . S
H907 C912 0.930 . S
N908 Tb870 2.600 . S
N908 C910 1.359 . S
N908 C911 1.327 . S
C909 H895 0.931 . S
C909 C911 1.392 . S
C909 C912 1.370 . S
C910 C906 1.432 . S
C910 N908 1.359 . S
C910 C913 1.414 . S
C911 H893 0.930 . S
C911 N908 1.327 . S
C911 C909 1.392 . S
C912 H907 0.930 . S
C912 C909 1.370 . S
C912 C913 1.385 . S
C913 C910 1.414 . S
C913 C912 1.385 . S
C913 C935 1.444 . S
O914 Tb870 2.546 . S
O914 C934 1.251 . S
O915 Tb870 2.610 . S
O915 Tb881 2.362 1_554 S
O915 C926 1.283 . S
O916 Tb881 2.421 . S
O916 C933 1.262 1_556 S
O917 Tb870 2.320 . S
O917 C933 1.260 . S
O918 Tb870 2.552 . S
O918 C926 1.243 . S
O919 Tb870 2.413 . S
O919 C934 1.256 . S
O920 Tb881 2.546 . S
O920 C945 1.251 . S
O921 Tb870 2.362 1_556 S
O921 Tb881 2.610 . S
O921 C937 1.283 . S
O922 Tb870 2.421 . S
O922 C944 1.262 1_554 S
O923 Tb881 2.320 . S
O923 C944 1.260 . S
O924 Tb881 2.552 . S
O924 C937 1.243 . S
O925 Tb881 2.413 . S
O925 C945 1.256 . S
C926 O915 1.283 . S
C926 O918 1.243 . S
C927 C929 1.382 . S
C927 C931 1.393 . S
C927 C934 1.500 . S
C928 C929 1.400 . S
C928 C930 1.384 . S
C929 C927 1.382 . S
C929 C928 1.400 . S
C929 H946 0.930 . S
C930 C928 1.384 . S
C930 C932 1.392 . S
C930 H947 0.931 . S
C931 C927 1.393 . S
C931 C932 1.401 . S
C931 H948 0.930 . S
C932 C930 1.392 . S
C932 C931 1.401 . S
C932 H949 0.930 . S
C933 O916 1.262 1_554 S
C933 O917 1.260 . S
C934 Tb870 2.833 . S
C934 O914 1.251 . S
C934 O919 1.256 . S
C934 C927 1.500 . S
C935 H900 0.929 . S
C935 C913 1.444 . S
C935 C936 1.317 . S
C936 H898 0.930 . S
C936 C904 1.432 . S
C936 C935 1.317 . S
C937 O921 1.283 . S
C937 O924 1.243 . S
C938 C939 1.382 . S
C938 C942 1.393 . S
C938 C945 1.500 . S
C939 C938 1.382 . S
C939 C940 1.400 . S
C939 H950 0.930 . S
C940 C939 1.400 . S
C940 C941 1.384 . S
C941 C940 1.384 . S
C941 C943 1.392 . S
C941 H951 0.931 . S
C942 C938 1.393 . S
C942 C943 1.401 . S
C942 H952 0.930 . S
C943 C941 1.392 . S
C943 C942 1.401 . S
C943 H953 0.930 . S
C944 O922 1.262 1_556 S
C944 O923 1.260 . S
C945 Tb881 2.833 . S
C945 O920 1.251 . S
C945 O925 1.256 . S
C945 C938 1.500 . S
H946 C929 0.930 . S
H947 C930 0.931 . S
H948 C931 0.930 . S
H949 C932 0.930 . S
H950 C939 0.930 . S
H951 C941 0.931 . S
H952 C942 0.930 . S
H953 C943 0.930 . S
Tb954 N985 2.660 . S
Tb954 N992 2.600 . S
Tb954 O998 2.546 . S
Tb954 O999 2.610 . S
Tb954 O1001 2.320 . S
Tb954 O1002 2.552 . S
Tb954 O1003 2.413 . S
Tb954 O1005 2.362 . S
Tb954 O1006 2.421 . S
Tb954 C1018 2.833 . S
C955 C958 1.432 . S
C955 C959 1.414 . S
C955 N962 1.359 . S
C956 C958 1.417 . S
C956 C960 1.432 . S
C956 C968 1.410 . S
C957 C959 1.444 . S
C957 C960 1.317 . S
C957 H980 0.929 . S
C958 C955 1.432 . S
C958 C956 1.417 . S
C958 N966 1.360 . S
C959 C955 1.414 . S
C959 C957 1.444 . S
C959 C964 1.385 . S
C960 C956 1.432 . S
C960 C957 1.317 . S
C960 H972 0.930 . S
C961 C963 1.392 . S
C961 C964 1.370 . S
C961 H973 0.931 . S
N962 C955 1.359 . S
N962 C963 1.327 . S
N962 Tb965 2.600 . S
C963 C961 1.392 . S
C963 N962 1.327 . S
C963 H970 0.930 . S
C964 C959 1.385 . S
C964 C961 1.370 . S
C964 H983 0.930 . S
Tb965 N962 2.600 . S
Tb965 N966 2.660 . S
Tb965 O999 2.362 . S
Tb965 O1000 2.421 . S
Tb965 O1004 2.546 . S
Tb965 O1005 2.610 . S
Tb965 O1007 2.320 . S
Tb965 O1008 2.552 . S
Tb965 O1009 2.413 . S
Tb965 C1029 2.833 . S
N966 C958 1.360 . S
N966 Tb965 2.660 . S
N966 C967 1.305 . S
C967 N966 1.305 . S
C967 C969 1.407 . S
C967 H974 0.930 . S
C968 C956 1.410 . S
C968 C969 1.345 . S
C968 H976 0.930 . S
C969 C967 1.407 . S
C969 C968 1.345 . S
C969 H971 0.930 . S
H970 C963 0.930 . S
H971 C969 0.930 . S
H972 C960 0.930 . S
H973 C961 0.931 . S
H974 C967 0.930 . S
H975 C989 0.930 . S
H976 C968 0.930 . S
H977 C995 0.930 . S
H978 C986 0.930 . S
H979 C993 0.931 . S
H980 C957 0.929 . S
H981 C987 0.930 . S
H982 C1020 0.930 . S
H983 C964 0.930 . S
H984 C1019 0.929 . S
N985 Tb954 2.660 . S
N985 C986 1.305 . S
N985 C990 1.360 . S
C986 H978 0.930 . S
C986 N985 1.305 . S
C986 C989 1.407 . S
C987 H981 0.930 . S
C987 C988 1.410 . S
C987 C989 1.345 . S
C988 C987 1.410 . S
C988 C990 1.417 . S
C988 C1020 1.432 . S
C989 H975 0.930 . S
C989 C986 1.407 . S
C989 C987 1.345 . S
C990 N985 1.360 . S
C990 C988 1.417 . S
C990 C994 1.432 . S
H991 C996 0.930 . S
N992 Tb954 2.600 . S
N992 C994 1.359 . S
N992 C995 1.327 . S
C993 H979 0.931 . S
C993 C995 1.392 . S
C993 C996 1.370 . S
C994 C990 1.432 . S
C994 N992 1.359 . S
C994 C997 1.414 . S
C995 H977 0.930 . S
C995 N992 1.327 . S
C995 C993 1.392 . S
C996 H991 0.930 . S
C996 C993 1.370 . S
C996 C997 1.385 . S
C997 C994 1.414 . S
C997 C996 1.385 . S
C997 C1019 1.444 . S
O998 Tb954 2.546 . S
O998 C1018 1.251 . S
O999 Tb954 2.610 . S
O999 Tb965 2.362 . S
O999 C1010 1.283 . S
O1000 Tb965 2.421 . S
O1000 C1017 1.262 . S
O1001 Tb954 2.320 . S
O1001 C1017 1.260 . S
O1002 Tb954 2.552 . S
O1002 C1010 1.243 . S
O1003 Tb954 2.413 . S
O1003 C1018 1.256 . S
O1004 Tb965 2.546 . S
O1004 C1029 1.251 . S
O1005 Tb954 2.362 . S
O1005 Tb965 2.610 . S
O1005 C1021 1.283 . S
O1006 Tb954 2.421 . S
O1006 C1028 1.262 . S
O1007 Tb965 2.320 . S
O1007 C1028 1.260 . S
O1008 Tb965 2.552 . S
O1008 C1021 1.243 . S
O1009 Tb965 2.413 . S
O1009 C1029 1.256 . S
C1010 O999 1.283 . S
C1010 O1002 1.243 . S
C1011 C1013 1.382 . S
C1011 C1015 1.393 . S
C1011 C1018 1.500 . S
C1012 C1013 1.400 . S
C1012 C1014 1.384 . S
C1013 C1011 1.382 . S
C1013 C1012 1.400 . S
C1013 H1030 0.930 . S
C1014 C1012 1.384 . S
C1014 C1016 1.392 . S
C1014 H1031 0.931 . S
C1015 C1011 1.393 . S
C1015 C1016 1.401 . S
C1015 H1032 0.930 . S
C1016 C1014 1.392 . S
C1016 C1015 1.401 . S
C1016 H1033 0.930 . S
C1017 O1000 1.262 . S
C1017 O1001 1.260 . S
C1018 Tb954 2.833 . S
C1018 O998 1.251 . S
C1018 O1003 1.256 . S
C1018 C1011 1.500 . S
C1019 H984 0.929 . S
C1019 C997 1.444 . S
C1019 C1020 1.317 . S
C1020 H982 0.930 . S
C1020 C988 1.432 . S
C1020 C1019 1.317 . S
C1021 O1005 1.283 . S
C1021 O1008 1.243 . S
C1022 C1023 1.382 . S
C1022 C1026 1.393 . S
C1022 C1029 1.500 . S
C1023 C1022 1.382 . S
C1023 C1024 1.400 . S
C1023 H1034 0.930 . S
C1024 C1023 1.400 . S
C1024 C1025 1.384 . S
C1025 C1024 1.384 . S
C1025 C1027 1.392 . S
C1025 H1035 0.931 . S
C1026 C1022 1.393 . S
C1026 C1027 1.401 . S
C1026 H1036 0.930 . S
C1027 C1025 1.392 . S
C1027 C1026 1.401 . S
C1027 H1037 0.930 . S
C1028 O1006 1.262 . S
C1028 O1007 1.260 . S
C1029 Tb965 2.833 . S
C1029 O1004 1.251 . S
C1029 O1009 1.256 . S
C1029 C1022 1.500 . S
H1030 C1013 0.930 . S
H1031 C1014 0.931 . S
H1032 C1015 0.930 . S
H1033 C1016 0.930 . S
H1034 C1023 0.930 . S
H1035 C1025 0.931 . S
H1036 C1026 0.930 . S
H1037 C1027 0.930 . S
Tb1038 N1069 2.660 . S
Tb1038 N1076 2.600 . S
Tb1038 O1082 2.546 . S
Tb1038 O1083 2.610 . S
Tb1038 O1085 2.320 . S
Tb1038 O1086 2.552 . S
Tb1038 O1087 2.413 . S
Tb1038 O1089 2.362 . S
Tb1038 O1090 2.421 . S
Tb1038 C1102 2.833 . S
C1039 C1042 1.432 . S
C1039 C1043 1.414 . S
C1039 N1046 1.359 . S
C1040 C1042 1.417 . S
C1040 C1044 1.432 . S
C1040 C1052 1.410 . S
C1041 C1043 1.444 . S
C1041 C1044 1.317 . S
C1041 H1064 0.929 . S
C1042 C1039 1.432 . S
C1042 C1040 1.417 . S
C1042 N1050 1.360 . S
C1043 C1039 1.414 . S
C1043 C1041 1.444 . S
C1043 C1048 1.385 . S
C1044 C1040 1.432 . S
C1044 C1041 1.317 . S
C1044 H1056 0.930 . S
C1045 C1047 1.392 . S
C1045 C1048 1.370 . S
C1045 H1057 0.931 . S
N1046 C1039 1.359 . S
N1046 C1047 1.327 . S
N1046 Tb1049 2.600 . S
C1047 C1045 1.392 . S
C1047 N1046 1.327 . S
C1047 H1054 0.930 . S
C1048 C1043 1.385 . S
C1048 C1045 1.370 . S
C1048 H1067 0.930 . S
Tb1049 N1046 2.600 . S
Tb1049 N1050 2.660 . S
Tb1049 O1083 2.362 . S
Tb1049 O1084 2.421 . S
Tb1049 O1088 2.546 . S
Tb1049 O1089 2.610 . S
Tb1049 O1091 2.320 . S
Tb1049 O1092 2.552 . S
Tb1049 O1093 2.413 . S
Tb1049 C1113 2.833 . S
N1050 C1042 1.360 . S
N1050 Tb1049 2.660 . S
N1050 C1051 1.305 . S
C1051 N1050 1.305 . S
C1051 C1053 1.407 . S
C1051 H1058 0.930 . S
C1052 C1040 1.410 . S
C1052 C1053 1.345 . S
C1052 H1060 0.930 . S
C1053 C1051 1.407 . S
C1053 C1052 1.345 . S
C1053 H1055 0.930 . S
H1054 C1047 0.930 . S
H1055 C1053 0.930 . S
H1056 C1044 0.930 . S
H1057 C1045 0.931 . S
H1058 C1051 0.930 . S
H1059 C1073 0.930 . S
H1060 C1052 0.930 . S
H1061 C1079 0.930 . S
H1062 C1070 0.930 . S
H1063 C1077 0.931 . S
H1064 C1041 0.929 . S
H1065 C1071 0.930 . S
H1066 C1104 0.930 . S
H1067 C1048 0.930 . S
H1068 C1103 0.929 . S
N1069 Tb1038 2.660 . S
N1069 C1070 1.305 . S
N1069 C1074 1.360 . S
C1070 H1062 0.930 . S
C1070 N1069 1.305 . S
C1070 C1073 1.407 . S
C1071 H1065 0.930 . S
C1071 C1072 1.410 . S
C1071 C1073 1.345 . S
C1072 C1071 1.410 . S
C1072 C1074 1.417 . S
C1072 C1104 1.432 . S
C1073 H1059 0.930 . S
C1073 C1070 1.407 . S
C1073 C1071 1.345 . S
C1074 N1069 1.360 . S
C1074 C1072 1.417 . S
C1074 C1078 1.432 . S
H1075 C1080 0.930 . S
N1076 Tb1038 2.600 . S
N1076 C1078 1.359 . S
N1076 C1079 1.327 . S
C1077 H1063 0.931 . S
C1077 C1079 1.392 . S
C1077 C1080 1.370 . S
C1078 C1074 1.432 . S
C1078 N1076 1.359 . S
C1078 C1081 1.414 . S
C1079 H1061 0.930 . S
C1079 N1076 1.327 . S
C1079 C1077 1.392 . S
C1080 H1075 0.930 . S
C1080 C1077 1.370 . S
C1080 C1081 1.385 . S
C1081 C1078 1.414 . S
C1081 C1080 1.385 . S
C1081 C1103 1.444 . S
O1082 Tb1038 2.546 . S
O1082 C1102 1.251 . S
O1083 Tb1038 2.610 . S
O1083 Tb1049 2.362 . S
O1083 C1094 1.283 . S
O1084 Tb1049 2.421 . S
O1084 C1101 1.262 . S
O1085 Tb1038 2.320 . S
O1085 C1101 1.260 . S
O1086 Tb1038 2.552 . S
O1086 C1094 1.243 . S
O1087 Tb1038 2.413 . S
O1087 C1102 1.256 . S
O1088 Tb1049 2.546 . S
O1088 C1113 1.251 . S
O1089 Tb1038 2.362 . S
O1089 Tb1049 2.610 . S
O1089 C1105 1.283 . S
O1090 Tb1038 2.421 . S
O1090 C1112 1.262 . S
O1091 Tb1049 2.320 . S
O1091 C1112 1.260 . S
O1092 Tb1049 2.552 . S
O1092 C1105 1.243 . S
O1093 Tb1049 2.413 . S
O1093 C1113 1.256 . S
C1094 O1083 1.283 . S
C1094 O1086 1.243 . S
C1095 C1097 1.382 . S
C1095 C1099 1.393 . S
C1095 C1102 1.500 . S
C1096 C1097 1.400 . S
C1096 C1098 1.384 . S
C1097 C1095 1.382 . S
C1097 C1096 1.400 . S
C1097 H1114 0.930 . S
C1098 C1096 1.384 . S
C1098 C1100 1.392 . S
C1098 H1115 0.931 . S
C1099 C1095 1.393 . S
C1099 C1100 1.401 . S
C1099 H1116 0.930 . S
C1100 C1098 1.392 . S
C1100 C1099 1.401 . S
C1100 H1117 0.930 . S
C1101 O1084 1.262 . S
C1101 O1085 1.260 . S
C1102 Tb1038 2.833 . S
C1102 O1082 1.251 . S
C1102 O1087 1.256 . S
C1102 C1095 1.500 . S
C1103 H1068 0.929 . S
C1103 C1081 1.444 . S
C1103 C1104 1.317 . S
C1104 H1066 0.930 . S
C1104 C1072 1.432 . S
C1104 C1103 1.317 . S
C1105 O1089 1.283 . S
C1105 O1092 1.243 . S
C1106 C1107 1.382 . S
C1106 C1110 1.393 . S
C1106 C1113 1.500 . S
C1107 C1106 1.382 . S
C1107 C1108 1.400 . S
C1107 H1118 0.930 . S
C1108 C1107 1.400 . S
C1108 C1109 1.384 . S
C1109 C1108 1.384 . S
C1109 C1111 1.392 . S
C1109 H1119 0.931 . S
C1110 C1106 1.393 . S
C1110 C1111 1.401 . S
C1110 H1120 0.930 . S
C1111 C1109 1.392 . S
C1111 C1110 1.401 . S
C1111 H1121 0.930 . S
C1112 O1090 1.262 . S
C1112 O1091 1.260 . S
C1113 Tb1049 2.833 . S
C1113 O1088 1.251 . S
C1113 O1093 1.256 . S
C1113 C1106 1.500 . S
H1114 C1097 0.930 . S
H1115 C1098 0.931 . S
H1116 C1099 0.930 . S
H1117 C1100 0.930 . S
H1118 C1107 0.930 . S
H1119 C1109 0.931 . S
H1120 C1110 0.930 . S
H1121 C1111 0.930 . S
Tb1122 N1153 2.660 . S
Tb1122 N1160 2.600 . S
Tb1122 O1166 2.546 . S
Tb1122 O1167 2.610 . S
Tb1122 O1169 2.320 . S
Tb1122 O1170 2.552 . S
Tb1122 O1171 2.413 . S
Tb1122 O1173 2.362 . S
Tb1122 O1174 2.421 . S
Tb1122 C1186 2.833 . S
C1123 C1126 1.432 . S
C1123 C1127 1.414 . S
C1123 N1130 1.359 . S
C1124 C1126 1.417 . S
C1124 C1128 1.432 . S
C1124 C1136 1.410 . S
C1125 C1127 1.444 . S
C1125 C1128 1.317 . S
C1125 H1148 0.929 . S
C1126 C1123 1.432 . S
C1126 C1124 1.417 . S
C1126 N1134 1.360 . S
C1127 C1123 1.414 . S
C1127 C1125 1.444 . S
C1127 C1132 1.385 . S
C1128 C1124 1.432 . S
C1128 C1125 1.317 . S
C1128 H1140 0.930 . S
C1129 C1131 1.392 . S
C1129 C1132 1.370 . S
C1129 H1141 0.931 . S
N1130 C1123 1.359 . S
N1130 C1131 1.327 . S
N1130 Tb1133 2.600 . S
C1131 C1129 1.392 . S
C1131 N1130 1.327 . S
C1131 H1138 0.930 . S
C1132 C1127 1.385 . S
C1132 C1129 1.370 . S
C1132 H1151 0.930 . S
Tb1133 N1130 2.600 . S
Tb1133 N1134 2.660 . S
Tb1133 O1167 2.362 . S
Tb1133 O1168 2.421 . S
Tb1133 O1172 2.546 . S
Tb1133 O1173 2.610 . S
Tb1133 O1175 2.320 . S
Tb1133 O1176 2.552 . S
Tb1133 O1177 2.413 . S
Tb1133 C1197 2.833 . S
N1134 C1126 1.360 . S
N1134 Tb1133 2.660 . S
N1134 C1135 1.305 . S
C1135 N1134 1.305 . S
C1135 C1137 1.407 . S
C1135 H1142 0.930 . S
C1136 C1124 1.410 . S
C1136 C1137 1.345 . S
C1136 H1144 0.930 . S
C1137 C1135 1.407 . S
C1137 C1136 1.345 . S
C1137 H1139 0.930 . S
H1138 C1131 0.930 . S
H1139 C1137 0.930 . S
H1140 C1128 0.930 . S
H1141 C1129 0.931 . S
H1142 C1135 0.930 . S
H1143 C1157 0.930 . S
H1144 C1136 0.930 . S
H1145 C1163 0.930 . S
H1146 C1154 0.930 . S
H1147 C1161 0.931 . S
H1148 C1125 0.929 . S
H1149 C1155 0.930 . S
H1150 C1188 0.930 . S
H1151 C1132 0.930 . S
H1152 C1187 0.929 . S
N1153 Tb1122 2.660 . S
N1153 C1154 1.305 . S
N1153 C1158 1.360 . S
C1154 H1146 0.930 . S
C1154 N1153 1.305 . S
C1154 C1157 1.407 . S
C1155 H1149 0.930 . S
C1155 C1156 1.410 . S
C1155 C1157 1.345 . S
C1156 C1155 1.410 . S
C1156 C1158 1.417 . S
C1156 C1188 1.432 . S
C1157 H1143 0.930 . S
C1157 C1154 1.407 . S
C1157 C1155 1.345 . S
C1158 N1153 1.360 . S
C1158 C1156 1.417 . S
C1158 C1162 1.432 . S
H1159 C1164 0.930 . S
N1160 Tb1122 2.600 . S
N1160 C1162 1.359 . S
N1160 C1163 1.327 . S
C1161 H1147 0.931 . S
C1161 C1163 1.392 . S
C1161 C1164 1.370 . S
C1162 C1158 1.432 . S
C1162 N1160 1.359 . S
C1162 C1165 1.414 . S
C1163 H1145 0.930 . S
C1163 N1160 1.327 . S
C1163 C1161 1.392 . S
C1164 H1159 0.930 . S
C1164 C1161 1.370 . S
C1164 C1165 1.385 . S
C1165 C1162 1.414 . S
C1165 C1164 1.385 . S
C1165 C1187 1.444 . S
O1166 Tb1122 2.546 . S
O1166 C1186 1.251 . S
O1167 Tb1122 2.610 . S
O1167 Tb1133 2.362 . S
O1167 C1178 1.283 . S
O1168 Tb1133 2.421 . S
O1168 C1185 1.262 . S
O1169 Tb1122 2.320 . S
O1169 C1185 1.260 . S
O1170 Tb1122 2.552 . S
O1170 C1178 1.243 . S
O1171 Tb1122 2.413 . S
O1171 C1186 1.256 . S
O1172 Tb1133 2.546 . S
O1172 C1197 1.251 . S
O1173 Tb1122 2.362 . S
O1173 Tb1133 2.610 . S
O1173 C1189 1.283 . S
O1174 Tb1122 2.421 . S
O1174 C1196 1.262 . S
O1175 Tb1133 2.320 . S
O1175 C1196 1.260 . S
O1176 Tb1133 2.552 . S
O1176 C1189 1.243 . S
O1177 Tb1133 2.413 . S
O1177 C1197 1.256 . S
C1178 O1167 1.283 . S
C1178 O1170 1.243 . S
C1179 C1181 1.382 . S
C1179 C1183 1.393 . S
C1179 C1186 1.500 . S
C1180 C1181 1.400 . S
C1180 C1182 1.384 . S
C1181 C1179 1.382 . S
C1181 C1180 1.400 . S
C1181 H1198 0.930 . S
C1182 C1180 1.384 . S
C1182 C1184 1.392 . S
C1182 H1199 0.931 . S
C1183 C1179 1.393 . S
C1183 C1184 1.401 . S
C1183 H1200 0.930 . S
C1184 C1182 1.392 . S
C1184 C1183 1.401 . S
C1184 H1201 0.930 . S
C1185 O1168 1.262 . S
C1185 O1169 1.260 . S
C1186 Tb1122 2.833 . S
C1186 O1166 1.251 . S
C1186 O1171 1.256 . S
C1186 C1179 1.500 . S
C1187 H1152 0.929 . S
C1187 C1165 1.444 . S
C1187 C1188 1.317 . S
C1188 H1150 0.930 . S
C1188 C1156 1.432 . S
C1188 C1187 1.317 . S
C1189 O1173 1.283 . S
C1189 O1176 1.243 . S
C1190 C1191 1.382 . S
C1190 C1194 1.393 . S
C1190 C1197 1.500 . S
C1191 C1190 1.382 . S
C1191 C1192 1.400 . S
C1191 H1202 0.930 . S
C1192 C1191 1.400 . S
C1192 C1193 1.384 . S
C1193 C1192 1.384 . S
C1193 C1195 1.392 . S
C1193 H1203 0.931 . S
C1194 C1190 1.393 . S
C1194 C1195 1.401 . S
C1194 H1204 0.930 . S
C1195 C1193 1.392 . S
C1195 C1194 1.401 . S
C1195 H1205 0.930 . S
C1196 O1174 1.262 . S
C1196 O1175 1.260 . S
C1197 Tb1133 2.833 . S
C1197 O1172 1.251 . S
C1197 O1177 1.256 . S
C1197 C1190 1.500 . S
H1198 C1181 0.930 . S
H1199 C1182 0.931 . S
H1200 C1183 0.930 . S
H1201 C1184 0.930 . S
H1202 C1191 0.930 . S
H1203 C1193 0.931 . S
H1204 C1194 0.930 . S
H1205 C1195 0.930 . S
Tb1206 N1237 2.660 . S
Tb1206 N1244 2.600 . S
Tb1206 O1250 2.546 . S
Tb1206 O1251 2.610 . S
Tb1206 O1253 2.320 . S
Tb1206 O1254 2.552 . S
Tb1206 O1255 2.413 . S
Tb1206 O1257 2.362 . S
Tb1206 O1258 2.421 . S
Tb1206 C1270 2.833 . S
C1207 C1210 1.432 . S
C1207 C1211 1.414 . S
C1207 N1214 1.359 . S
C1208 C1210 1.417 . S
C1208 C1212 1.432 . S
C1208 C1220 1.410 . S
C1209 C1211 1.444 . S
C1209 C1212 1.317 . S
C1209 H1232 0.929 . S
C1210 C1207 1.432 . S
C1210 C1208 1.417 . S
C1210 N1218 1.360 . S
C1211 C1207 1.414 . S
C1211 C1209 1.444 . S
C1211 C1216 1.385 . S
C1212 C1208 1.432 . S
C1212 C1209 1.317 . S
C1212 H1224 0.930 . S
C1213 C1215 1.392 . S
C1213 C1216 1.370 . S
C1213 H1225 0.931 . S
N1214 C1207 1.359 . S
N1214 C1215 1.327 . S
N1214 Tb1217 2.600 . S
C1215 C1213 1.392 . S
C1215 N1214 1.327 . S
C1215 H1222 0.930 . S
C1216 C1211 1.385 . S
C1216 C1213 1.370 . S
C1216 H1235 0.930 . S
Tb1217 N1214 2.600 . S
Tb1217 N1218 2.660 . S
Tb1217 O1251 2.362 . S
Tb1217 O1252 2.421 . S
Tb1217 O1256 2.546 . S
Tb1217 O1257 2.610 . S
Tb1217 O1259 2.320 . S
Tb1217 O1260 2.552 . S
Tb1217 O1261 2.413 . S
Tb1217 C1281 2.833 . S
N1218 C1210 1.360 . S
N1218 Tb1217 2.660 . S
N1218 C1219 1.305 . S
C1219 N1218 1.305 . S
C1219 C1221 1.407 . S
C1219 H1226 0.930 . S
C1220 C1208 1.410 . S
C1220 C1221 1.345 . S
C1220 H1228 0.930 . S
C1221 C1219 1.407 . S
C1221 C1220 1.345 . S
C1221 H1223 0.930 . S
H1222 C1215 0.930 . S
H1223 C1221 0.930 . S
H1224 C1212 0.930 . S
H1225 C1213 0.931 . S
H1226 C1219 0.930 . S
H1227 C1241 0.930 . S
H1228 C1220 0.930 . S
H1229 C1247 0.930 . S
H1230 C1238 0.930 . S
H1231 C1245 0.931 . S
H1232 C1209 0.929 . S
H1233 C1239 0.930 . S
H1234 C1272 0.930 . S
H1235 C1216 0.930 . S
H1236 C1271 0.929 . S
N1237 Tb1206 2.660 . S
N1237 C1238 1.305 . S
N1237 C1242 1.360 . S
C1238 H1230 0.930 . S
C1238 N1237 1.305 . S
C1238 C1241 1.407 . S
C1239 H1233 0.930 . S
C1239 C1240 1.410 . S
C1239 C1241 1.345 . S
C1240 C1239 1.410 . S
C1240 C1242 1.417 . S
C1240 C1272 1.432 . S
C1241 H1227 0.930 . S
C1241 C1238 1.407 . S
C1241 C1239 1.345 . S
C1242 N1237 1.360 . S
C1242 C1240 1.417 . S
C1242 C1246 1.432 . S
H1243 C1248 0.930 . S
N1244 Tb1206 2.600 . S
N1244 C1246 1.359 . S
N1244 C1247 1.327 . S
C1245 H1231 0.931 . S
C1245 C1247 1.392 . S
C1245 C1248 1.370 . S
C1246 C1242 1.432 . S
C1246 N1244 1.359 . S
C1246 C1249 1.414 . S
C1247 H1229 0.930 . S
C1247 N1244 1.327 . S
C1247 C1245 1.392 . S
C1248 H1243 0.930 . S
C1248 C1245 1.370 . S
C1248 C1249 1.385 . S
C1249 C1246 1.414 . S
C1249 C1248 1.385 . S
C1249 C1271 1.444 . S
O1250 Tb1206 2.546 . S
O1250 C1270 1.251 . S
O1251 Tb1206 2.610 . S
O1251 Tb1217 2.362 . S
O1251 C1262 1.283 . S
O1252 Tb1217 2.421 . S
O1252 C1269 1.262 . S
O1253 Tb1206 2.320 . S
O1253 C1269 1.260 . S
O1254 Tb1206 2.552 . S
O1254 C1262 1.243 . S
O1255 Tb1206 2.413 . S
O1255 C1270 1.256 . S
O1256 Tb1217 2.546 . S
O1256 C1281 1.251 . S
O1257 Tb1206 2.362 . S
O1257 Tb1217 2.610 . S
O1257 C1273 1.283 . S
O1258 Tb1206 2.421 . S
O1258 C1280 1.262 . S
O1259 Tb1217 2.320 . S
O1259 C1280 1.260 . S
O1260 Tb1217 2.552 . S
O1260 C1273 1.243 . S
O1261 Tb1217 2.413 . S
O1261 C1281 1.256 . S
C1262 O1251 1.283 . S
C1262 O1254 1.243 . S
C1263 C1265 1.382 . S
C1263 C1267 1.393 . S
C1263 C1270 1.500 . S
C1264 C1265 1.400 . S
C1264 C1266 1.384 . S
C1265 C1263 1.382 . S
C1265 C1264 1.400 . S
C1265 H1282 0.930 . S
C1266 C1264 1.384 . S
C1266 C1268 1.392 . S
C1266 H1283 0.931 . S
C1267 C1263 1.393 . S
C1267 C1268 1.401 . S
C1267 H1284 0.930 . S
C1268 C1266 1.392 . S
C1268 C1267 1.401 . S
C1268 H1285 0.930 . S
C1269 O1252 1.262 . S
C1269 O1253 1.260 . S
C1270 Tb1206 2.833 . S
C1270 O1250 1.251 . S
C1270 O1255 1.256 . S
C1270 C1263 1.500 . S
C1271 H1236 0.929 . S
C1271 C1249 1.444 . S
C1271 C1272 1.317 . S
C1272 H1234 0.930 . S
C1272 C1240 1.432 . S
C1272 C1271 1.317 . S
C1273 O1257 1.283 . S
C1273 O1260 1.243 . S
C1274 C1275 1.382 . S
C1274 C1278 1.393 . S
C1274 C1281 1.500 . S
C1275 C1274 1.382 . S
C1275 C1276 1.400 . S
C1275 H1286 0.930 . S
C1276 C1275 1.400 . S
C1276 C1277 1.384 . S
C1277 C1276 1.384 . S
C1277 C1279 1.392 . S
C1277 H1287 0.931 . S
C1278 C1274 1.393 . S
C1278 C1279 1.401 . S
C1278 H1288 0.930 . S
C1279 C1277 1.392 . S
C1279 C1278 1.401 . S
C1279 H1289 0.930 . S
C1280 O1258 1.262 . S
C1280 O1259 1.260 . S
C1281 Tb1217 2.833 . S
C1281 O1256 1.251 . S
C1281 O1261 1.256 . S
C1281 C1274 1.500 . S
H1282 C1265 0.930 . S
H1283 C1266 0.931 . S
H1284 C1267 0.930 . S
H1285 C1268 0.930 . S
H1286 C1275 0.930 . S
H1287 C1277 0.931 . S
H1288 C1278 0.930 . S
H1289 C1279 0.930 . S
Tb1290 N1321 2.660 . S
Tb1290 N1328 2.600 . S
Tb1290 O1334 2.546 . S
Tb1290 O1335 2.610 . S
Tb1290 O1337 2.320 . S
Tb1290 O1338 2.552 . S
Tb1290 O1339 2.413 . S
Tb1290 O1341 2.362 . S
Tb1290 O1342 2.421 . S
Tb1290 C1354 2.833 . S
C1291 C1294 1.432 . S
C1291 C1295 1.414 . S
C1291 N1298 1.359 . S
C1292 C1294 1.417 . S
C1292 C1296 1.432 . S
C1292 C1304 1.410 . S
C1293 C1295 1.444 . S
C1293 C1296 1.317 . S
C1293 H1316 0.929 . S
C1294 C1291 1.432 . S
C1294 C1292 1.417 . S
C1294 N1302 1.360 . S
C1295 C1291 1.414 . S
C1295 C1293 1.444 . S
C1295 C1300 1.385 . S
C1296 C1292 1.432 . S
C1296 C1293 1.317 . S
C1296 H1308 0.930 . S
C1297 C1299 1.392 . S
C1297 C1300 1.370 . S
C1297 H1309 0.931 . S
N1298 C1291 1.359 . S
N1298 C1299 1.327 . S
N1298 Tb1301 2.600 . S
C1299 C1297 1.392 . S
C1299 N1298 1.327 . S
C1299 H1306 0.930 . S
C1300 C1295 1.385 . S
C1300 C1297 1.370 . S
C1300 H1319 0.930 . S
Tb1301 N1298 2.600 . S
Tb1301 N1302 2.660 . S
Tb1301 O1335 2.362 . S
Tb1301 O1336 2.421 . S
Tb1301 O1340 2.546 . S
Tb1301 O1341 2.610 . S
Tb1301 O1343 2.320 . S
Tb1301 O1344 2.552 . S
Tb1301 O1345 2.413 . S
Tb1301 C1365 2.833 . S
N1302 C1294 1.360 . S
N1302 Tb1301 2.660 . S
N1302 C1303 1.305 . S
C1303 N1302 1.305 . S
C1303 C1305 1.407 . S
C1303 H1310 0.930 . S
C1304 C1292 1.410 . S
C1304 C1305 1.345 . S
C1304 H1312 0.930 . S
C1305 C1303 1.407 . S
C1305 C1304 1.345 . S
C1305 H1307 0.930 . S
H1306 C1299 0.930 . S
H1307 C1305 0.930 . S
H1308 C1296 0.930 . S
H1309 C1297 0.931 . S
H1310 C1303 0.930 . S
H1311 C1325 0.930 . S
H1312 C1304 0.930 . S
H1313 C1331 0.930 . S
H1314 C1322 0.930 . S
H1315 C1329 0.931 . S
H1316 C1293 0.929 . S
H1317 C1323 0.930 . S
H1318 C1356 0.930 . S
H1319 C1300 0.930 . S
H1320 C1355 0.929 . S
N1321 Tb1290 2.660 . S
N1321 C1322 1.305 . S
N1321 C1326 1.360 . S
C1322 H1314 0.930 . S
C1322 N1321 1.305 . S
C1322 C1325 1.407 . S
C1323 H1317 0.930 . S
C1323 C1324 1.410 . S
C1323 C1325 1.345 . S
C1324 C1323 1.410 . S
C1324 C1326 1.417 . S
C1324 C1356 1.432 . S
C1325 H1311 0.930 . S
C1325 C1322 1.407 . S
C1325 C1323 1.345 . S
C1326 N1321 1.360 . S
C1326 C1324 1.417 . S
C1326 C1330 1.432 . S
H1327 C1332 0.930 . S
N1328 Tb1290 2.600 . S
N1328 C1330 1.359 . S
N1328 C1331 1.327 . S
C1329 H1315 0.931 . S
C1329 C1331 1.392 . S
C1329 C1332 1.370 . S
C1330 C1326 1.432 . S
C1330 N1328 1.359 . S
C1330 C1333 1.414 . S
C1331 H1313 0.930 . S
C1331 N1328 1.327 . S
C1331 C1329 1.392 . S
C1332 H1327 0.930 . S
C1332 C1329 1.370 . S
C1332 C1333 1.385 . S
C1333 C1330 1.414 . S
C1333 C1332 1.385 . S
C1333 C1355 1.444 . S
O1334 Tb1290 2.546 . S
O1334 C1354 1.251 . S
O1335 Tb1290 2.610 . S
O1335 Tb1301 2.362 . S
O1335 C1346 1.283 . S
O1336 Tb1301 2.421 . S
O1336 C1353 1.262 . S
O1337 Tb1290 2.320 . S
O1337 C1353 1.260 . S
O1338 Tb1290 2.552 . S
O1338 C1346 1.243 . S
O1339 Tb1290 2.413 . S
O1339 C1354 1.256 . S
O1340 Tb1301 2.546 . S
O1340 C1365 1.251 . S
O1341 Tb1290 2.362 . S
O1341 Tb1301 2.610 . S
O1341 C1357 1.283 . S
O1342 Tb1290 2.421 . S
O1342 C1364 1.262 . S
O1343 Tb1301 2.320 . S
O1343 C1364 1.260 . S
O1344 Tb1301 2.552 . S
O1344 C1357 1.243 . S
O1345 Tb1301 2.413 . S
O1345 C1365 1.256 . S
C1346 O1335 1.283 . S
C1346 O1338 1.243 . S
C1347 C1349 1.382 . S
C1347 C1351 1.393 . S
C1347 C1354 1.500 . S
C1348 C1349 1.400 . S
C1348 C1350 1.384 . S
C1349 C1347 1.382 . S
C1349 C1348 1.400 . S
C1349 H1366 0.930 . S
C1350 C1348 1.384 . S
C1350 C1352 1.392 . S
C1350 H1367 0.931 . S
C1351 C1347 1.393 . S
C1351 C1352 1.401 . S
C1351 H1368 0.930 . S
C1352 C1350 1.392 . S
C1352 C1351 1.401 . S
C1352 H1369 0.930 . S
C1353 O1336 1.262 . S
C1353 O1337 1.260 . S
C1354 Tb1290 2.833 . S
C1354 O1334 1.251 . S
C1354 O1339 1.256 . S
C1354 C1347 1.500 . S
C1355 H1320 0.929 . S
C1355 C1333 1.444 . S
C1355 C1356 1.317 . S
C1356 H1318 0.930 . S
C1356 C1324 1.432 . S
C1356 C1355 1.317 . S
C1357 O1341 1.283 . S
C1357 O1344 1.243 . S
C1358 C1359 1.382 . S
C1358 C1362 1.393 . S
C1358 C1365 1.500 . S
C1359 C1358 1.382 . S
C1359 C1360 1.400 . S
C1359 H1370 0.930 . S
C1360 C1359 1.400 . S
C1360 C1361 1.384 . S
C1361 C1360 1.384 . S
C1361 C1363 1.392 . S
C1361 H1371 0.931 . S
C1362 C1358 1.393 . S
C1362 C1363 1.401 . S
C1362 H1372 0.930 . S
C1363 C1361 1.392 . S
C1363 C1362 1.401 . S
C1363 H1373 0.930 . S
C1364 O1342 1.262 . S
C1364 O1343 1.260 . S
C1365 Tb1301 2.833 . S
C1365 O1340 1.251 . S
C1365 O1345 1.256 . S
C1365 C1358 1.500 . S
H1366 C1349 0.930 . S
H1367 C1350 0.931 . S
H1368 C1351 0.930 . S
H1369 C1352 0.930 . S
H1370 C1359 0.930 . S
H1371 C1361 0.931 . S
H1372 C1362 0.930 . S
H1373 C1363 0.930 . S
Tb1374 N1405 2.660 . S
Tb1374 N1412 2.600 . S
Tb1374 O1418 2.546 . S
Tb1374 O1419 2.610 . S
Tb1374 O1421 2.320 . S
Tb1374 O1422 2.552 . S
Tb1374 O1423 2.413 . S
Tb1374 O1425 2.362 . S
Tb1374 O1426 2.421 . S
Tb1374 C1438 2.833 . S
C1375 C1378 1.432 . S
C1375 C1379 1.414 . S
C1375 N1382 1.359 . S
C1376 C1378 1.417 . S
C1376 C1380 1.432 . S
C1376 C1388 1.410 . S
C1377 C1379 1.444 . S
C1377 C1380 1.317 . S
C1377 H1400 0.929 . S
C1378 C1375 1.432 . S
C1378 C1376 1.417 . S
C1378 N1386 1.360 . S
C1379 C1375 1.414 . S
C1379 C1377 1.444 . S
C1379 C1384 1.385 . S
C1380 C1376 1.432 . S
C1380 C1377 1.317 . S
C1380 H1392 0.930 . S
C1381 C1383 1.392 . S
C1381 C1384 1.370 . S
C1381 H1393 0.931 . S
N1382 C1375 1.359 . S
N1382 C1383 1.327 . S
N1382 Tb1385 2.600 . S
C1383 C1381 1.392 . S
C1383 N1382 1.327 . S
C1383 H1390 0.930 . S
C1384 C1379 1.385 . S
C1384 C1381 1.370 . S
C1384 H1403 0.930 . S
Tb1385 N1382 2.600 . S
Tb1385 N1386 2.660 . S
Tb1385 O1419 2.362 . S
Tb1385 O1420 2.421 . S
Tb1385 O1424 2.546 . S
Tb1385 O1425 2.610 . S
Tb1385 O1427 2.320 . S
Tb1385 O1428 2.552 . S
Tb1385 O1429 2.413 . S
Tb1385 C1449 2.833 . S
N1386 C1378 1.360 . S
N1386 Tb1385 2.660 . S
N1386 C1387 1.305 . S
C1387 N1386 1.305 . S
C1387 C1389 1.407 . S
C1387 H1394 0.930 . S
C1388 C1376 1.410 . S
C1388 C1389 1.345 . S
C1388 H1396 0.930 . S
C1389 C1387 1.407 . S
C1389 C1388 1.345 . S
C1389 H1391 0.930 . S
H1390 C1383 0.930 . S
H1391 C1389 0.930 . S
H1392 C1380 0.930 . S
H1393 C1381 0.931 . S
H1394 C1387 0.930 . S
H1395 C1409 0.930 . S
H1396 C1388 0.930 . S
H1397 C1415 0.930 . S
H1398 C1406 0.930 . S
H1399 C1413 0.931 . S
H1400 C1377 0.929 . S
H1401 C1407 0.930 . S
H1402 C1440 0.930 . S
H1403 C1384 0.930 . S
H1404 C1439 0.929 . S
N1405 Tb1374 2.660 . S
N1405 C1406 1.305 . S
N1405 C1410 1.360 . S
C1406 H1398 0.930 . S
C1406 N1405 1.305 . S
C1406 C1409 1.407 . S
C1407 H1401 0.930 . S
C1407 C1408 1.410 . S
C1407 C1409 1.345 . S
C1408 C1407 1.410 . S
C1408 C1410 1.417 . S
C1408 C1440 1.432 . S
C1409 H1395 0.930 . S
C1409 C1406 1.407 . S
C1409 C1407 1.345 . S
C1410 N1405 1.360 . S
C1410 C1408 1.417 . S
C1410 C1414 1.432 . S
H1411 C1416 0.930 . S
N1412 Tb1374 2.600 . S
N1412 C1414 1.359 . S
N1412 C1415 1.327 . S
C1413 H1399 0.931 . S
C1413 C1415 1.392 . S
C1413 C1416 1.370 . S
C1414 C1410 1.432 . S
C1414 N1412 1.359 . S
C1414 C1417 1.414 . S
C1415 H1397 0.930 . S
C1415 N1412 1.327 . S
C1415 C1413 1.392 . S
C1416 H1411 0.930 . S
C1416 C1413 1.370 . S
C1416 C1417 1.385 . S
C1417 C1414 1.414 . S
C1417 C1416 1.385 . S
C1417 C1439 1.444 . S
O1418 Tb1374 2.546 . S
O1418 C1438 1.251 . S
O1419 Tb1374 2.610 . S
O1419 Tb1385 2.362 . S
O1419 C1430 1.283 . S
O1420 Tb1385 2.421 . S
O1420 C1437 1.262 . S
O1421 Tb1374 2.320 . S
O1421 C1437 1.260 . S
O1422 Tb1374 2.552 . S
O1422 C1430 1.243 . S
O1423 Tb1374 2.413 . S
O1423 C1438 1.256 . S
O1424 Tb1385 2.546 . S
O1424 C1449 1.251 . S
O1425 Tb1374 2.362 . S
O1425 Tb1385 2.610 . S
O1425 C1441 1.283 . S
O1426 Tb1374 2.421 . S
O1426 C1448 1.262 . S
O1427 Tb1385 2.320 . S
O1427 C1448 1.260 . S
O1428 Tb1385 2.552 . S
O1428 C1441 1.243 . S
O1429 Tb1385 2.413 . S
O1429 C1449 1.256 . S
C1430 O1419 1.283 . S
C1430 O1422 1.243 . S
C1431 C1433 1.382 . S
C1431 C1435 1.393 . S
C1431 C1438 1.500 . S
C1432 C1433 1.400 . S
C1432 C1434 1.384 . S
C1433 C1431 1.382 . S
C1433 C1432 1.400 . S
C1433 H1450 0.930 . S
C1434 C1432 1.384 . S
C1434 C1436 1.392 . S
C1434 H1451 0.931 . S
C1435 C1431 1.393 . S
C1435 C1436 1.401 . S
C1435 H1452 0.930 . S
C1436 C1434 1.392 . S
C1436 C1435 1.401 . S
C1436 H1453 0.930 . S
C1437 O1420 1.262 . S
C1437 O1421 1.260 . S
C1438 Tb1374 2.833 . S
C1438 O1418 1.251 . S
C1438 O1423 1.256 . S
C1438 C1431 1.500 . S
C1439 H1404 0.929 . S
C1439 C1417 1.444 . S
C1439 C1440 1.317 . S
C1440 H1402 0.930 . S
C1440 C1408 1.432 . S
C1440 C1439 1.317 . S
C1441 O1425 1.283 . S
C1441 O1428 1.243 . S
C1442 C1443 1.382 . S
C1442 C1446 1.393 . S
C1442 C1449 1.500 . S
C1443 C1442 1.382 . S
C1443 C1444 1.400 . S
C1443 H1454 0.930 . S
C1444 C1443 1.400 . S
C1444 C1445 1.384 . S
C1445 C1444 1.384 . S
C1445 C1447 1.392 . S
C1445 H1455 0.931 . S
C1446 C1442 1.393 . S
C1446 C1447 1.401 . S
C1446 H1456 0.930 . S
C1447 C1445 1.392 . S
C1447 C1446 1.401 . S
C1447 H1457 0.930 . S
C1448 O1426 1.262 . S
C1448 O1427 1.260 . S
C1449 Tb1385 2.833 . S
C1449 O1424 1.251 . S
C1449 O1429 1.256 . S
C1449 C1442 1.500 . S
H1450 C1433 0.930 . S
H1451 C1434 0.931 . S
H1452 C1435 0.930 . S
H1453 C1436 0.930 . S
H1454 C1443 0.930 . S
H1455 C1445 0.931 . S
H1456 C1446 0.930 . S
H1457 C1447 0.930 . S
H1458 C1464 0.930 . S
H1459 C1467 0.930 . S
H1460 C1468 0.930 . S
H1461 C1469 0.930 . S
H1462 C1472 0.930 . S
H1463 C1473 0.930 . S
C1464 H1458 0.930 . S
C1464 C1465 1.355 . S
C1464 C1466 1.415 . S
C1465 C1464 1.355 . S
C1465 C1467 1.419 . S
C1466 C1464 1.415 . S
C1466 C1471 1.425 . S
C1466 C1473 1.409 . S
C1467 H1459 0.930 . S
C1467 C1465 1.419 . S
C1467 C1468 1.362 . S
C1468 H1460 0.930 . S
C1468 C1467 1.362 . S
C1468 C1471 1.409 . S
C1469 H1461 0.930 . S
C1469 C1470 1.355 . S
C1469 C1471 1.415 . S
C1470 C1469 1.355 . S
C1470 C1472 1.419 . S
C1471 C1466 1.425 . S
C1471 C1468 1.409 . S
C1471 C1469 1.415 . S
C1472 H1462 0.930 . S
C1472 C1470 1.419 . S
C1472 C1473 1.362 . S
C1473 H1463 0.930 . S
C1473 C1466 1.409 . S
C1473 C1472 1.362 . S
H1474 C1480 0.930 . S
H1475 C1483 0.930 . S
H1476 C1484 0.930 . S
H1477 C1485 0.930 . S
H1478 C1488 0.930 . S
H1479 C1489 0.930 . S
C1480 H1474 0.930 . S
C1480 C1481 1.355 . S
C1480 C1482 1.415 . S
C1481 C1480 1.355 . S
C1481 C1483 1.419 . S
C1482 C1480 1.415 . S
C1482 C1487 1.425 . S
C1482 C1489 1.409 . S
C1483 H1475 0.930 . S
C1483 C1481 1.419 . S
C1483 C1484 1.362 . S
C1484 H1476 0.930 . S
C1484 C1483 1.362 . S
C1484 C1487 1.409 . S
C1485 H1477 0.930 . S
C1485 C1486 1.355 . S
C1485 C1487 1.415 . S
C1486 C1485 1.355 . S
C1486 C1488 1.419 . S
C1487 C1482 1.425 . S
C1487 C1484 1.409 . S
C1487 C1485 1.415 . S
C1488 H1478 0.930 . S
C1488 C1486 1.419 . S
C1488 C1489 1.362 . S
C1489 H1479 0.930 . S
C1489 C1482 1.409 . S
C1489 C1488 1.362 . S
H1490 C1496 0.930 . S
H1491 C1499 0.930 . S
H1492 C1500 0.930 . S
H1493 C1501 0.930 . S
H1494 C1504 0.930 . S
H1495 C1505 0.930 . S
C1496 H1490 0.930 . S
C1496 C1497 1.355 . S
C1496 C1498 1.415 . S
C1497 C1496 1.355 . S
C1497 C1499 1.419 . S
C1498 C1496 1.415 . S
C1498 C1503 1.425 . S
C1498 C1505 1.409 . S
C1499 H1491 0.930 . S
C1499 C1497 1.419 . S
C1499 C1500 1.362 . S
C1500 H1492 0.930 . S
C1500 C1499 1.362 . S
C1500 C1503 1.409 . S
C1501 H1493 0.930 . S
C1501 C1502 1.355 . S
C1501 C1503 1.415 . S
C1502 C1501 1.355 . S
C1502 C1504 1.419 . S
C1503 C1498 1.425 . S
C1503 C1500 1.409 . S
C1503 C1501 1.415 . S
C1504 H1494 0.930 . S
C1504 C1502 1.419 . S
C1504 C1505 1.362 . S
C1505 H1495 0.930 . S
C1505 C1498 1.409 . S
C1505 C1504 1.362 . S
H1506 C1512 0.930 . S
H1507 C1515 0.930 . S
H1508 C1516 0.930 . S
H1509 C1517 0.930 . S
H1510 C1520 0.919 1_554 S
H1511 C1521 0.930 1_554 S
C1512 H1506 0.930 . S
C1512 C1513 1.355 . S
C1512 C1514 1.415 . S
C1513 C1512 1.355 . S
C1513 C1515 1.419 . S
C1514 C1512 1.415 . S
C1514 C1519 1.425 . S
C1514 C1521 1.409 . S
C1515 H1507 0.930 . S
C1515 C1513 1.419 . S
C1515 C1516 1.362 . S
C1516 H1508 0.930 . S
C1516 C1515 1.362 . S
C1516 C1519 1.409 . S
C1517 H1509 0.930 . S
C1517 C1518 1.355 . S
C1517 C1519 1.415 . S
C1518 C1517 1.355 . S
C1518 C1520 1.428 . S
C1519 C1514 1.425 . S
C1519 C1516 1.409 . S
C1519 C1517 1.415 . S
C1520 H1510 0.919 1_556 S
C1520 C1518 1.428 . S
C1520 C1521 1.364 . S
C1521 H1511 0.930 1_556 S
C1521 C1514 1.409 . S
C1521 C1520 1.364 . S
H1522 C1528 0.930 . S
H1523 C1531 0.930 . S
H1524 C1532 0.930 . S
H1525 C1533 0.930 . S
H1526 C1536 0.930 1_554 S
H1527 C1537 0.930 1_554 S
C1528 H1522 0.930 . S
C1528 C1529 1.355 . S
C1528 C1530 1.415 . S
C1529 C1528 1.355 . S
C1529 C1531 1.419 . S
C1530 C1528 1.415 . S
C1530 C1535 1.425 . S
C1530 C1537 1.409 . S
C1531 H1523 0.930 . S
C1531 C1529 1.419 . S
C1531 C1532 1.362 . S
C1532 H1524 0.930 . S
C1532 C1531 1.362 . S
C1532 C1535 1.409 . S
C1533 H1525 0.930 . S
C1533 C1534 1.355 . S
C1533 C1535 1.415 . S
C1534 C1533 1.355 . S
C1534 C1536 1.419 . S
C1535 C1530 1.425 . S
C1535 C1532 1.409 . S
C1535 C1533 1.415 . S
C1536 H1526 0.930 1_556 S
C1536 C1534 1.419 . S
C1536 C1537 1.362 . S
C1537 H1527 0.930 1_556 S
C1537 C1530 1.409 . S
C1537 C1536 1.362 . S
H1538 C1544 0.930 . S
H1539 C1547 0.930 . S
H1540 C1548 0.930 . S
H1541 C1549 0.930 . S
H1542 C1552 0.930 . S
H1543 C1553 0.930 . S
C1544 H1538 0.930 . S
C1544 C1545 1.355 . S
C1544 C1546 1.415 . S
C1545 C1544 1.355 . S
C1545 C1547 1.419 . S
C1546 C1544 1.415 . S
C1546 C1551 1.425 . S
C1546 C1553 1.409 . S
C1547 H1539 0.930 . S
C1547 C1545 1.419 . S
C1547 C1548 1.362 . S
C1548 H1540 0.930 . S
C1548 C1547 1.362 . S
C1548 C1551 1.409 . S
C1549 H1541 0.930 . S
C1549 C1550 1.355 . S
C1549 C1551 1.415 . S
C1550 C1549 1.355 . S
C1550 C1552 1.419 . S
C1551 C1546 1.425 . S
C1551 C1548 1.409 . S
C1551 C1549 1.415 . S
C1552 H1542 0.930 . S
C1552 C1550 1.419 . S
C1552 C1553 1.362 . S
C1553 H1543 0.930 . S
C1553 C1546 1.409 . S
C1553 C1552 1.362 . S
H1554 C1560 0.930 . S
H1555 C1563 0.930 . S
H1556 C1564 0.930 . S
H1557 C1565 0.930 . S
H1558 C1568 0.930 . S
H1559 C1569 0.930 . S
C1560 H1554 0.930 . S
C1560 C1561 1.355 . S
C1560 C1562 1.415 . S
C1561 C1560 1.355 . S
C1561 C1563 1.419 . S
C1562 C1560 1.415 . S
C1562 C1567 1.425 . S
C1562 C1569 1.409 . S
C1563 H1555 0.930 . S
C1563 C1561 1.419 . S
C1563 C1564 1.362 . S
C1564 H1556 0.930 . S
C1564 C1563 1.362 . S
C1564 C1567 1.409 . S
C1565 H1557 0.930 . S
C1565 C1566 1.355 . S
C1565 C1567 1.415 . S
C1566 C1565 1.355 . S
C1566 C1568 1.419 . S
C1567 C1562 1.425 . S
C1567 C1564 1.409 . S
C1567 C1565 1.415 . S
C1568 H1558 0.930 . S
C1568 C1566 1.419 . S
C1568 C1569 1.362 . S
C1569 H1559 0.930 . S
C1569 C1562 1.409 . S
C1569 C1568 1.362 . S
H1570 C1576 0.930 . S
H1571 C1579 0.930 . S
H1572 C1580 0.930 . S
H1573 C1581 0.930 . S
H1574 C1584 0.930 1_554 S
H1575 C1585 0.930 . S
C1576 H1570 0.930 . S
C1576 C1577 1.355 . S
C1576 C1578 1.415 . S
C1577 C1576 1.355 . S
C1577 C1579 1.419 . S
C1578 C1576 1.415 . S
C1578 C1583 1.425 . S
C1578 C1585 1.409 . S
C1579 H1571 0.930 . S
C1579 C1577 1.419 . S
C1579 C1580 1.362 . S
C1580 H1572 0.930 . S
C1580 C1579 1.362 . S
C1580 C1583 1.409 . S
C1581 H1573 0.930 . S
C1581 C1582 1.355 . S
C1581 C1583 1.415 . S
C1582 C1581 1.355 . S
C1582 C1584 1.419 . S
C1583 C1578 1.425 . S
C1583 C1580 1.409 . S
C1583 C1581 1.415 . S
C1584 H1574 0.930 1_556 S
C1584 C1582 1.419 . S
C1584 C1585 1.362 . S
C1585 H1575 0.930 . S
C1585 C1578 1.409 . S
C1585 C1584 1.362 . S
H1586 C1592 0.930 . S
H1587 C1595 0.930 . S
H1588 C1596 0.930 . S
H1589 C1597 0.930 . S
H1590 C1600 0.930 1_554 S
H1591 C1601 0.930 1_554 S
C1592 H1586 0.930 . S
C1592 C1593 1.355 . S
C1592 C1594 1.415 . S
C1593 C1592 1.355 . S
C1593 C1595 1.419 . S
C1594 C1592 1.415 . S
C1594 C1599 1.425 . S
C1594 C1601 1.409 . S
C1595 H1587 0.930 . S
C1595 C1593 1.419 . S
C1595 C1596 1.362 . S
C1596 H1588 0.930 . S
C1596 C1595 1.362 . S
C1596 C1599 1.409 . S
C1597 H1589 0.930 . S
C1597 C1598 1.355 . S
C1597 C1599 1.415 . S
C1598 C1597 1.355 . S
C1598 C1600 1.419 . S
C1599 C1594 1.425 . S
C1599 C1596 1.409 . S
C1599 C1597 1.415 . S
C1600 H1590 0.930 1_556 S
C1600 C1598 1.419 . S
C1600 C1601 1.362 . S
C1601 H1591 0.930 1_556 S
C1601 C1594 1.409 . S
C1601 C1600 1.362 . S
H1602 C1608 0.930 . S
H1603 C1611 0.930 . S
H1604 C1612 0.930 . S
H1605 C1613 0.930 . S
H1606 C1616 0.930 . S
H1607 C1617 0.930 . S
C1608 H1602 0.930 . S
C1608 C1609 1.355 . S
C1608 C1610 1.415 . S
C1609 C1608 1.355 . S
C1609 C1611 1.419 . S
C1610 C1608 1.415 . S
C1610 C1615 1.425 . S
C1610 C1617 1.409 . S
C1611 H1603 0.930 . S
C1611 C1609 1.419 . S
C1611 C1612 1.362 . S
C1612 H1604 0.930 . S
C1612 C1611 1.362 . S
C1612 C1615 1.409 . S
C1613 H1605 0.930 . S
C1613 C1614 1.355 . S
C1613 C1615 1.415 . S
C1614 C1613 1.355 . S
C1614 C1616 1.419 . S
C1615 C1610 1.425 . S
C1615 C1612 1.409 . S
C1615 C1613 1.415 . S
C1616 H1606 0.930 . S
C1616 C1614 1.419 . S
C1616 C1617 1.362 . S
C1617 H1607 0.930 . S
C1617 C1610 1.409 . S
C1617 C1616 1.362 . S
H1618 C1624 0.930 . S
H1619 C1627 0.930 . S
H1620 C1628 0.930 . S
H1621 C1629 0.930 . S
H1622 C1632 0.930 . S
H1623 C1633 0.930 . S
C1624 H1618 0.930 . S
C1624 C1625 1.355 . S
C1624 C1626 1.415 . S
C1625 C1624 1.355 . S
C1625 C1627 1.419 . S
C1626 C1624 1.415 . S
C1626 C1631 1.425 . S
C1626 C1633 1.409 . S
C1627 H1619 0.930 . S
C1627 C1625 1.419 . S
C1627 C1628 1.362 . S
C1628 H1620 0.930 . S
C1628 C1627 1.362 . S
C1628 C1631 1.409 . S
C1629 H1621 0.930 . S
C1629 C1630 1.355 . S
C1629 C1631 1.415 . S
C1630 C1629 1.355 . S
C1630 C1632 1.419 . S
C1631 C1626 1.425 . S
C1631 C1628 1.409 . S
C1631 C1629 1.415 . S
C1632 H1622 0.930 . S
C1632 C1630 1.419 . S
C1632 C1633 1.362 . S
C1633 H1623 0.930 . S
C1633 C1626 1.409 . S
C1633 C1632 1.362 . S
H1634 C1640 0.930 . S
H1635 C1643 0.930 . S
H1636 C1644 0.930 . S
H1637 C1645 0.930 . S
H1638 C1648 0.930 . S
H1639 C1649 0.930 . S
C1640 H1634 0.930 . S
C1640 C1641 1.355 . S
C1640 C1642 1.415 . S
C1641 C1640 1.355 . S
C1641 C1643 1.419 . S
C1642 C1640 1.415 . S
C1642 C1647 1.425 . S
C1642 C1649 1.409 . S
C1643 H1635 0.930 . S
C1643 C1641 1.419 . S
C1643 C1644 1.362 . S
C1644 H1636 0.930 . S
C1644 C1643 1.362 . S
C1644 C1647 1.409 . S
C1645 H1637 0.930 . S
C1645 C1646 1.355 . S
C1645 C1647 1.415 . S
C1646 C1645 1.355 . S
C1646 C1648 1.419 . S
C1647 C1642 1.425 . S
C1647 C1644 1.409 . S
C1647 C1645 1.415 . S
C1648 H1638 0.930 . S
C1648 C1646 1.419 . S
C1648 C1649 1.362 . S
C1649 H1639 0.930 . S
C1649 C1642 1.409 . S
C1649 C1648 1.362 . S
H1650 C1656 0.930 . S
H1651 C1659 0.930 . S
H1652 C1660 0.930 . S
H1653 C1661 0.930 . S
H1654 C1664 0.930 . S
H1655 C1665 0.930 . S
C1656 H1650 0.930 . S
C1656 C1657 1.355 . S
C1656 C1658 1.415 . S
C1657 C1656 1.355 . S
C1657 C1659 1.419 . S
C1658 C1656 1.415 . S
C1658 C1663 1.425 . S
C1658 C1665 1.409 . S
C1659 H1651 0.930 . S
C1659 C1657 1.419 . S
C1659 C1660 1.362 . S
C1660 H1652 0.930 . S
C1660 C1659 1.362 . S
C1660 C1663 1.409 . S
C1661 H1653 0.930 . S
C1661 C1662 1.355 . S
C1661 C1663 1.415 . S
C1662 C1661 1.355 . S
C1662 C1664 1.419 . S
C1663 C1658 1.425 . S
C1663 C1660 1.409 . S
C1663 C1661 1.415 . S
C1664 H1654 0.930 . S
C1664 C1662 1.419 . S
C1664 C1665 1.362 . S
C1665 H1655 0.930 . S
C1665 C1658 1.409 . S
C1665 C1664 1.362 . S
H1666 C1672 0.930 . S
H1667 C1675 0.930 . S
H1668 C1676 0.930 . S
H1669 C1677 0.930 . S
H1670 C1680 0.930 . S
H1671 C1681 0.930 . S
C1672 H1666 0.930 . S
C1672 C1673 1.355 . S
C1672 C1674 1.415 . S
C1673 C1672 1.355 . S
C1673 C1675 1.419 . S
C1674 C1672 1.415 . S
C1674 C1679 1.425 . S
C1674 C1681 1.409 . S
C1675 H1667 0.930 . S
C1675 C1673 1.419 . S
C1675 C1676 1.362 . S
C1676 H1668 0.930 . S
C1676 C1675 1.362 . S
C1676 C1679 1.409 . S
C1677 H1669 0.930 . S
C1677 C1678 1.355 . S
C1677 C1679 1.415 . S
C1678 C1677 1.355 . S
C1678 C1680 1.419 . S
C1679 C1674 1.425 . S
C1679 C1676 1.409 . S
C1679 C1677 1.415 . S
C1680 H1670 0.930 . S
C1680 C1678 1.419 . S
C1680 C1681 1.362 . S
C1681 H1671 0.930 . S
C1681 C1674 1.409 . S
C1681 C1680 1.362 . S
H1682 C1688 0.930 1_545 S
H1683 C1691 0.930 . S
H1684 C1692 0.930 . S
H1685 C1693 0.930 . S
H1686 C1696 0.930 . S
H1687 C1697 0.930 . S
C1688 H1682 0.930 1_565 S
C1688 C1689 1.355 1_565 S
C1688 C1690 1.415 . S
C1689 C1688 1.355 1_545 S
C1689 C1691 1.419 1_545 S
C1690 C1688 1.415 . S
C1690 C1695 1.425 . S
C1690 C1697 1.409 . S
C1691 H1683 0.930 . S
C1691 C1689 1.419 1_565 S
C1691 C1692 1.362 . S
C1692 H1684 0.930 . S
C1692 C1691 1.362 . S
C1692 C1695 1.409 . S
C1693 H1685 0.930 . S
C1693 C1694 1.355 . S
C1693 C1695 1.415 . S
C1694 C1693 1.355 . S
C1694 C1696 1.419 . S
C1695 C1690 1.425 . S
C1695 C1692 1.409 . S
C1695 C1693 1.415 . S
C1696 H1686 0.930 . S
C1696 C1694 1.419 . S
C1696 C1697 1.362 . S
C1697 H1687 0.930 . S
C1697 C1690 1.409 . S
C1697 C1696 1.362 . S
H1698 C1704 0.930 . S
H1699 C1707 0.930 . S
H1700 C1708 0.930 . S
H1701 C1709 0.930 . S
H1702 C1712 0.930 . S
H1703 C1713 0.930 . S
C1704 H1698 0.930 . S
C1704 C1705 1.355 . S
C1704 C1706 1.415 . S
C1705 C1704 1.355 . S
C1705 C1707 1.419 . S
C1706 C1704 1.415 . S
C1706 C1711 1.425 . S
C1706 C1713 1.409 . S
C1707 H1699 0.930 . S
C1707 C1705 1.419 . S
C1707 C1708 1.362 . S
C1708 H1700 0.930 . S
C1708 C1707 1.362 . S
C1708 C1711 1.409 . S
C1709 H1701 0.930 . S
C1709 C1710 1.355 . S
C1709 C1711 1.415 . S
C1710 C1709 1.355 . S
C1710 C1712 1.419 . S
C1711 C1706 1.425 . S
C1711 C1708 1.409 . S
C1711 C1709 1.415 . S
C1712 H1702 0.930 . S
C1712 C1710 1.419 . S
C1712 C1713 1.362 . S
C1713 H1703 0.930 . S
C1713 C1706 1.409 . S
C1713 C1712 1.362 . S
H1714 C1720 0.930 . S
H1715 C1723 0.930 . S
H1716 C1724 0.930 . S
H1717 C1725 0.930 . S
H1718 C1728 0.930 . S
H1719 C1729 0.930 . S
C1720 H1714 0.930 . S
C1720 C1721 1.355 . S
C1720 C1722 1.415 . S
C1721 C1720 1.355 . S
C1721 C1723 1.419 . S
C1722 C1720 1.415 . S
C1722 C1727 1.425 . S
C1722 C1729 1.409 . S
C1723 H1715 0.930 . S
C1723 C1721 1.419 . S
C1723 C1724 1.362 . S
C1724 H1716 0.930 . S
C1724 C1723 1.362 . S
C1724 C1727 1.409 . S
C1725 H1717 0.930 . S
C1725 C1726 1.355 . S
C1725 C1727 1.415 . S
C1726 C1725 1.355 . S
C1726 C1728 1.419 . S
C1727 C1722 1.425 . S
C1727 C1724 1.409 . S
C1727 C1725 1.415 . S
C1728 H1718 0.930 . S
C1728 C1726 1.419 . S
C1728 C1729 1.362 . S
C1729 H1719 0.930 . S
C1729 C1722 1.409 . S
C1729 C1728 1.362 . S
H1730 C1736 0.930 . S
H1731 C1739 0.930 . S
H1732 C1740 0.930 . S
H1733 C1741 0.930 . S
H1734 C1744 0.930 . S
H1735 C1745 0.930 . S
C1736 H1730 0.930 . S
C1736 C1737 1.355 . S
C1736 C1738 1.415 . S
C1737 C1736 1.355 . S
C1737 C1739 1.419 . S
C1738 C1736 1.415 . S
C1738 C1743 1.425 . S
C1738 C1745 1.409 . S
C1739 H1731 0.930 . S
C1739 C1737 1.419 . S
C1739 C1740 1.362 . S
C1740 H1732 0.930 . S
C1740 C1739 1.362 . S
C1740 C1743 1.409 . S
C1741 H1733 0.930 . S
C1741 C1742 1.355 . S
C1741 C1743 1.415 . S
C1742 C1741 1.355 . S
C1742 C1744 1.419 . S
C1743 C1738 1.425 . S
C1743 C1740 1.409 . S
C1743 C1741 1.415 . S
C1744 H1734 0.930 . S
C1744 C1742 1.419 . S
C1744 C1745 1.362 . S
C1745 H1735 0.930 . S
C1745 C1738 1.409 . S
C1745 C1744 1.362 . S
H1746 C1752 0.930 . S
H1747 C1755 0.930 . S
H1748 C1756 0.930 . S
H1749 C1757 0.930 . S
H1750 C1760 0.930 . S
H1751 C1761 0.930 . S
C1752 H1746 0.930 . S
C1752 C1753 1.355 . S
C1752 C1754 1.415 . S
C1753 C1752 1.355 . S
C1753 C1755 1.419 . S
C1754 C1752 1.415 . S
C1754 C1759 1.425 . S
C1754 C1761 1.409 . S
C1755 H1747 0.930 . S
C1755 C1753 1.419 . S
C1755 C1756 1.362 . S
C1756 H1748 0.930 . S
C1756 C1755 1.362 . S
C1756 C1759 1.409 . S
C1757 H1749 0.930 . S
C1757 C1758 1.355 . S
C1757 C1759 1.415 . S
C1758 C1757 1.355 . S
C1758 C1760 1.419 . S
C1759 C1754 1.425 . S
C1759 C1756 1.409 . S
C1759 C1757 1.415 . S
C1760 H1750 0.930 . S
C1760 C1758 1.419 . S
C1760 C1761 1.362 . S
C1761 H1751 0.930 . S
C1761 C1754 1.409 . S
C1761 C1760 1.362 . S
H1762 C1768 0.930 . S
H1763 C1771 0.930 . S
H1764 C1772 0.930 . S
H1765 C1773 0.930 . S
H1766 C1776 0.930 . S
H1767 C1777 0.930 . S
C1768 H1762 0.930 . S
C1768 C1769 1.355 . S
C1768 C1770 1.415 . S
C1769 C1768 1.355 . S
C1769 C1771 1.419 . S
C1770 C1768 1.415 . S
C1770 C1775 1.425 . S
C1770 C1777 1.409 . S
C1771 H1763 0.930 . S
C1771 C1769 1.419 . S
C1771 C1772 1.362 . S
C1772 H1764 0.930 . S
C1772 C1771 1.362 . S
C1772 C1775 1.409 . S
C1773 H1765 0.930 . S
C1773 C1774 1.355 . S
C1773 C1775 1.415 . S
C1774 C1773 1.355 . S
C1774 C1776 1.419 . S
C1775 C1770 1.425 . S
C1775 C1772 1.409 . S
C1775 C1773 1.415 . S
C1776 H1766 0.930 . S
C1776 C1774 1.419 . S
C1776 C1777 1.362 . S
C1777 H1767 0.930 . S
C1777 C1770 1.409 . S
C1777 C1776 1.362 . S
H1778 C1784 0.930 . S
H1779 C1787 0.930 . S
H1780 C1788 0.930 . S
H1781 C1789 0.930 . S
H1782 C1792 0.930 . S
H1783 C1793 0.930 . S
C1784 H1778 0.930 . S
C1784 C1785 1.355 . S
C1784 C1786 1.415 . S
C1785 C1784 1.355 . S
C1785 C1787 1.419 . S
C1786 C1784 1.415 . S
C1786 C1791 1.425 . S
C1786 C1793 1.409 . S
C1787 H1779 0.930 . S
C1787 C1785 1.419 . S
C1787 C1788 1.362 . S
C1788 H1780 0.930 . S
C1788 C1787 1.362 . S
C1788 C1791 1.409 . S
C1789 H1781 0.930 . S
C1789 C1790 1.355 . S
C1789 C1791 1.415 . S
C1790 C1789 1.355 . S
C1790 C1792 1.419 . S
C1791 C1786 1.425 . S
C1791 C1788 1.409 . S
C1791 C1789 1.415 . S
C1792 H1782 0.930 . S
C1792 C1790 1.419 . S
C1792 C1793 1.362 . S
C1793 H1783 0.930 . S
C1793 C1786 1.409 . S
C1793 C1792 1.362 . S
H1794 C1800 0.930 . S
H1795 C1803 0.930 . S
H1796 C1804 0.930 . S
H1797 C1805 0.930 . S
H1798 C1808 0.930 . S
H1799 C1809 0.930 . S
C1800 H1794 0.930 . S
C1800 C1801 1.355 1_565 S
C1800 C1802 1.415 . S
C1801 C1800 1.355 1_545 S
C1801 C1803 1.419 1_545 S
C1802 C1800 1.415 . S
C1802 C1807 1.425 . S
C1802 C1809 1.409 . S
C1803 H1795 0.930 . S
C1803 C1801 1.419 1_565 S
C1803 C1804 1.362 . S
C1804 H1796 0.930 . S
C1804 C1803 1.362 . S
C1804 C1807 1.409 . S
C1805 H1797 0.930 . S
C1805 C1806 1.355 . S
C1805 C1807 1.415 . S
C1806 C1805 1.355 . S
C1806 C1808 1.419 . S
C1807 C1802 1.425 . S
C1807 C1804 1.409 . S
C1807 C1805 1.415 . S
C1808 H1798 0.930 . S
C1808 C1806 1.419 . S
C1808 C1809 1.362 . S
C1809 H1799 0.930 . S
C1809 C1802 1.409 . S
C1809 C1808 1.362 . S
H1810 C1816 0.930 . S
H1811 C1819 0.930 . S
H1812 C1820 0.930 . S
H1813 C1821 0.930 . S
H1814 C1824 0.930 . S
H1815 C1825 0.930 . S
C1816 H1810 0.930 . S
C1816 C1817 1.355 . S
C1816 C1818 1.415 . S
C1817 C1816 1.355 . S
C1817 C1819 1.419 . S
C1818 C1816 1.415 . S
C1818 C1823 1.425 . S
C1818 C1825 1.409 . S
C1819 H1811 0.930 . S
C1819 C1817 1.419 . S
C1819 C1820 1.362 . S
C1820 H1812 0.930 . S
C1820 C1819 1.362 . S
C1820 C1823 1.409 . S
C1821 H1813 0.930 . S
C1821 C1822 1.355 . S
C1821 C1823 1.415 . S
C1822 C1821 1.355 . S
C1822 C1824 1.419 . S
C1823 C1818 1.425 . S
C1823 C1820 1.409 . S
C1823 C1821 1.415 . S
C1824 H1814 0.930 . S
C1824 C1822 1.419 . S
C1824 C1825 1.362 . S
C1825 H1815 0.930 . S
C1825 C1818 1.409 . S
C1825 C1824 1.362 . S
H1826 C1832 0.930 . S
H1827 C1835 0.930 . S
H1828 C1836 0.930 . S
H1829 C1837 0.930 . S
H1830 C1840 0.930 . S
H1831 C1841 0.930 . S
C1832 H1826 0.930 . S
C1832 C1833 1.355 . S
C1832 C1834 1.415 . S
C1833 C1832 1.355 . S
C1833 C1835 1.419 . S
C1834 C1832 1.415 . S
C1834 C1839 1.425 . S
C1834 C1841 1.409 . S
C1835 H1827 0.930 . S
C1835 C1833 1.419 . S
C1835 C1836 1.362 . S
C1836 H1828 0.930 . S
C1836 C1835 1.362 . S
C1836 C1839 1.409 . S
C1837 H1829 0.930 . S
C1837 C1838 1.355 . S
C1837 C1839 1.415 . S
C1838 C1837 1.355 . S
C1838 C1840 1.419 . S
C1839 C1834 1.425 . S
C1839 C1836 1.409 . S
C1839 C1837 1.415 . S
C1840 H1830 0.930 . S
C1840 C1838 1.419 . S
C1840 C1841 1.362 . S
C1841 H1831 0.930 . S
C1841 C1834 1.409 . S
C1841 C1840 1.362 . S
H1842 C1848 0.930 . S
H1843 C1851 0.930 . S
H1844 C1852 0.930 . S
H1845 C1853 0.930 . S
H1846 C1856 0.930 . S
H1847 C1857 0.930 . S
C1848 H1842 0.930 . S
C1848 C1849 1.355 . S
C1848 C1850 1.415 . S
C1849 C1848 1.355 . S
C1849 C1851 1.419 . S
C1850 C1848 1.415 . S
C1850 C1855 1.425 . S
C1850 C1857 1.409 . S
C1851 H1843 0.930 . S
C1851 C1849 1.419 . S
C1851 C1852 1.362 . S
C1852 H1844 0.930 . S
C1852 C1851 1.362 . S
C1852 C1855 1.409 . S
C1853 H1845 0.930 . S
C1853 C1854 1.355 . S
C1853 C1855 1.415 . S
C1854 C1853 1.355 . S
C1854 C1856 1.419 . S
C1855 C1850 1.425 . S
C1855 C1852 1.409 . S
C1855 C1853 1.415 . S
C1856 H1846 0.930 . S
C1856 C1854 1.419 . S
C1856 C1857 1.362 . S
C1857 H1847 0.930 . S
C1857 C1850 1.409 . S
C1857 C1856 1.362 . S
H1858 C1864 0.930 . S
H1859 C1867 0.930 . S
H1860 C1868 0.930 . S
H1861 C1869 0.930 . S
H1862 C1872 0.930 . S
H1863 C1873 0.930 . S
C1864 H1858 0.930 . S
C1864 C1865 1.355 . S
C1864 C1866 1.415 . S
C1865 C1864 1.355 . S
C1865 C1867 1.419 . S
C1866 C1864 1.415 . S
C1866 C1871 1.425 . S
C1866 C1873 1.409 . S
C1867 H1859 0.930 . S
C1867 C1865 1.419 . S
C1867 C1868 1.362 . S
C1868 H1860 0.930 . S
C1868 C1867 1.362 . S
C1868 C1871 1.409 . S
C1869 H1861 0.930 . S
C1869 C1870 1.355 . S
C1869 C1871 1.415 . S
C1870 C1869 1.355 . S
C1870 C1872 1.419 . S
C1871 C1866 1.425 . S
C1871 C1868 1.409 . S
C1871 C1869 1.415 . S
C1872 H1862 0.930 . S
C1872 C1870 1.419 . S
C1872 C1873 1.362 . S
C1873 H1863 0.930 . S
C1873 C1866 1.409 . S
C1873 C1872 1.362 . S
H1874 C1880 0.930 . S
H1875 C1883 0.930 . S
H1876 C1884 0.930 . S
H1877 C1885 0.930 . S
H1878 C1888 0.930 . S
H1879 C1889 0.930 . S
C1880 H1874 0.930 . S
C1880 C1881 1.355 . S
C1880 C1882 1.415 . S
C1881 C1880 1.355 . S
C1881 C1883 1.419 . S
C1882 C1880 1.415 . S
C1882 C1887 1.425 . S
C1882 C1889 1.409 . S
C1883 H1875 0.930 . S
C1883 C1881 1.419 . S
C1883 C1884 1.362 . S
C1884 H1876 0.930 . S
C1884 C1883 1.362 . S
C1884 C1887 1.409 . S
C1885 H1877 0.930 . S
C1885 C1886 1.355 . S
C1885 C1887 1.415 . S
C1886 C1885 1.355 . S
C1886 C1888 1.419 . S
C1887 C1882 1.425 . S
C1887 C1884 1.409 . S
C1887 C1885 1.415 . S
C1888 H1878 0.930 . S
C1888 C1886 1.419 . S
C1888 C1889 1.362 . S
C1889 H1879 0.930 . S
C1889 C1882 1.409 . S
C1889 C1888 1.362 . S
H1890 C1896 0.911 1_565 S
H1891 C1899 0.930 . S
H1892 C1900 0.930 . S
H1893 C1901 0.930 . S
H1894 C1904 0.930 . S
H1895 C1905 0.930 . S
C1896 H1890 0.911 1_545 S
C1896 C1897 1.354 . S
C1896 C1898 1.415 . S
C1897 C1896 1.354 . S
C1897 C1899 1.425 . S
C1898 C1896 1.415 . S
C1898 C1903 1.425 . S
C1898 C1905 1.409 . S
C1899 H1891 0.930 . S
C1899 C1897 1.425 . S
C1899 C1900 1.362 . S
C1900 H1892 0.930 . S
C1900 C1899 1.362 . S
C1900 C1903 1.409 . S
C1901 H1893 0.930 . S
C1901 C1902 1.355 . S
C1901 C1903 1.415 . S
C1902 C1901 1.355 . S
C1902 C1904 1.419 . S
C1903 C1898 1.425 . S
C1903 C1900 1.409 . S
C1903 C1901 1.415 . S
C1904 H1894 0.930 . S
C1904 C1902 1.419 . S
C1904 C1905 1.362 . S
C1905 H1895 0.930 . S
C1905 C1898 1.409 . S
C1905 C1904 1.362 . S
H1906 C1912 0.930 . S
H1907 C1915 0.930 1_455 S
H1908 C1916 0.930 . S
H1909 C1917 0.930 . S
H1910 C1920 0.930 . S
H1911 C1921 0.930 . S
C1912 H1906 0.930 . S
C1912 C1913 1.355 . S
C1912 C1914 1.415 . S
C1913 C1912 1.355 . S
C1913 C1915 1.419 . S
C1914 C1912 1.415 . S
C1914 C1919 1.425 . S
C1914 C1921 1.409 . S
C1915 H1907 0.930 1_655 S
C1915 C1913 1.419 . S
C1915 C1916 1.362 . S
C1916 H1908 0.930 . S
C1916 C1915 1.362 . S
C1916 C1919 1.409 . S
C1917 H1909 0.930 . S
C1917 C1918 1.355 . S
C1917 C1919 1.415 . S
C1918 C1917 1.355 . S
C1918 C1920 1.419 . S
C1919 C1914 1.425 . S
C1919 C1916 1.409 . S
C1919 C1917 1.415 . S
C1920 H1910 0.930 . S
C1920 C1918 1.419 . S
C1920 C1921 1.362 . S
C1921 H1911 0.930 . S
C1921 C1914 1.409 . S
C1921 C1920 1.362 . S
H1922 C1928 0.930 . S
H1923 C1931 0.930 . S
H1924 C1932 0.930 . S
H1925 C1933 0.930 . S
H1926 C1936 0.930 . S
H1927 C1937 0.930 . S
C1928 H1922 0.930 . S
C1928 C1929 1.355 . S
C1928 C1930 1.415 . S
C1929 C1928 1.355 . S
C1929 C1931 1.419 . S
C1930 C1928 1.415 . S
C1930 C1935 1.425 . S
C1930 C1937 1.409 . S
C1931 H1923 0.930 . S
C1931 C1929 1.419 . S
C1931 C1932 1.362 . S
C1932 H1924 0.930 . S
C1932 C1931 1.362 . S
C1932 C1935 1.409 . S
C1933 H1925 0.930 . S
C1933 C1934 1.355 . S
C1933 C1935 1.415 . S
C1934 C1933 1.355 . S
C1934 C1936 1.419 . S
C1935 C1930 1.425 . S
C1935 C1932 1.409 . S
C1935 C1933 1.415 . S
C1936 H1926 0.930 . S
C1936 C1934 1.419 . S
C1936 C1937 1.362 . S
C1937 H1927 0.930 . S
C1937 C1930 1.409 . S
C1937 C1936 1.362 . S
H1938 C1944 0.930 . S
H1939 C1947 0.930 1_455 S
H1940 C1948 0.930 . S
H1941 C1949 0.930 . S
H1942 C1952 0.930 . S
H1943 C1953 0.930 . S
C1944 H1938 0.930 . S
C1944 C1945 1.355 . S
C1944 C1946 1.415 . S
C1945 C1944 1.355 . S
C1945 C1947 1.419 . S
C1946 C1944 1.415 . S
C1946 C1951 1.425 . S
C1946 C1953 1.409 . S
C1947 H1939 0.930 1_655 S
C1947 C1945 1.419 . S
C1947 C1948 1.362 . S
C1948 H1940 0.930 . S
C1948 C1947 1.362 . S
C1948 C1951 1.409 . S
C1949 H1941 0.930 . S
C1949 C1950 1.355 . S
C1949 C1951 1.415 . S
C1950 C1949 1.355 . S
C1950 C1952 1.419 . S
C1951 C1946 1.425 . S
C1951 C1948 1.409 . S
C1951 C1949 1.415 . S
C1952 H1942 0.930 . S
C1952 C1950 1.419 . S
C1952 C1953 1.362 . S
C1953 H1943 0.930 . S
C1953 C1946 1.409 . S
C1953 C1952 1.362 . S
H1954 C1960 0.930 . S
H1955 C1963 0.930 . S
H1956 C1964 0.930 . S
H1957 C1965 0.930 . S
H1958 C1968 0.930 . S
H1959 C1969 0.930 . S
C1960 H1954 0.930 . S
C1960 C1961 1.355 . S
C1960 C1962 1.415 . S
C1961 C1960 1.355 . S
C1961 C1963 1.419 . S
C1962 C1960 1.415 . S
C1962 C1967 1.425 . S
C1962 C1969 1.409 . S
C1963 H1955 0.930 . S
C1963 C1961 1.419 . S
C1963 C1964 1.362 . S
C1964 H1956 0.930 . S
C1964 C1963 1.362 . S
C1964 C1967 1.409 . S
C1965 H1957 0.930 . S
C1965 C1966 1.355 . S
C1965 C1967 1.415 . S
C1966 C1965 1.355 . S
C1966 C1968 1.419 . S
C1967 C1962 1.425 . S
C1967 C1964 1.409 . S
C1967 C1965 1.415 . S
C1968 H1958 0.930 . S
C1968 C1966 1.419 . S
C1968 C1969 1.362 . S
C1969 H1959 0.930 . S
C1969 C1962 1.409 . S
C1969 C1968 1.362 . S
H1970 C1976 0.930 . S
H1971 C1979 0.930 1_565 S
H1972 C1980 0.930 . S
H1973 C1981 0.930 . S
H1974 C1984 0.930 . S
H1975 C1985 0.930 . S
C1976 H1970 0.930 . S
C1976 C1977 1.355 1_545 S
C1976 C1978 1.415 . S
C1977 C1976 1.355 1_565 S
C1977 C1979 1.419 1_565 S
C1978 C1976 1.415 . S
C1978 C1983 1.425 . S
C1978 C1985 1.409 . S
C1979 H1971 0.930 1_545 S
C1979 C1977 1.419 1_545 S
C1979 C1980 1.362 . S
C1980 H1972 0.930 . S
C1980 C1979 1.362 . S
C1980 C1983 1.409 . S
C1981 H1973 0.930 . S
C1981 C1982 1.355 . S
C1981 C1983 1.415 . S
C1982 C1981 1.355 . S
C1982 C1984 1.419 . S
C1983 C1978 1.425 . S
C1983 C1980 1.409 . S
C1983 C1981 1.415 . S
C1984 H1974 0.930 . S
C1984 C1982 1.419 . S
C1984 C1985 1.362 . S
C1985 H1975 0.930 . S
C1985 C1978 1.409 . S
C1985 C1984 1.362 . S
H1986 C1992 0.930 . S
H1987 C1995 0.930 . S
H1988 C1996 0.930 . S
H1989 C1997 0.930 . S
H1990 C2000 0.930 . S
H1991 C2001 0.930 . S
C1992 H1986 0.930 . S
C1992 C1993 1.355 . S
C1992 C1994 1.415 . S
C1993 C1992 1.355 . S
C1993 C1995 1.419 . S
C1994 C1992 1.415 . S
C1994 C1999 1.425 . S
C1994 C2001 1.409 . S
C1995 H1987 0.930 . S
C1995 C1993 1.419 . S
C1995 C1996 1.362 . S
C1996 H1988 0.930 . S
C1996 C1995 1.362 . S
C1996 C1999 1.409 . S
C1997 H1989 0.930 . S
C1997 C1998 1.355 . S
C1997 C1999 1.415 . S
C1998 C1997 1.355 . S
C1998 C2000 1.419 . S
C1999 C1994 1.425 . S
C1999 C1996 1.409 . S
C1999 C1997 1.415 . S
C2000 H1990 0.930 . S
C2000 C1998 1.419 . S
C2000 C2001 1.362 . S
C2001 H1991 0.930 . S
C2001 C1994 1.409 . S
C2001 C2000 1.362 . S
H2002 C2008 0.930 . S
H2003 C2011 0.930 . S
H2004 C2012 0.930 . S
H2005 C2013 0.930 . S
H2006 C2016 0.930 . S
H2007 C2017 0.930 . S
C2008 H2002 0.930 . S
C2008 C2009 1.355 . S
C2008 C2010 1.415 . S
C2009 C2008 1.355 . S
C2009 C2011 1.419 . S
C2010 C2008 1.415 . S
C2010 C2015 1.425 . S
C2010 C2017 1.409 . S
C2011 H2003 0.930 . S
C2011 C2009 1.419 . S
C2011 C2012 1.362 . S
C2012 H2004 0.930 . S
C2012 C2011 1.362 . S
C2012 C2015 1.409 . S
C2013 H2005 0.930 . S
C2013 C2014 1.355 . S
C2013 C2015 1.415 . S
C2014 C2013 1.355 . S
C2014 C2016 1.419 . S
C2015 C2010 1.425 . S
C2015 C2012 1.409 . S
C2015 C2013 1.415 . S
C2016 H2006 0.930 . S
C2016 C2014 1.419 . S
C2016 C2017 1.362 . S
C2017 H2007 0.930 . S
C2017 C2010 1.409 . S
C2017 C2016 1.362 . S
H2018 C2024 0.930 . S
H2019 C2027 0.930 . S
H2020 C2028 0.930 . S
H2021 C2029 0.930 . S
H2022 C2032 0.930 . S
H2023 C2033 0.930 . S
C2024 H2018 0.930 . S
C2024 C2025 1.355 . S
C2024 C2026 1.415 . S
C2025 C2024 1.355 . S
C2025 C2027 1.419 . S
C2026 C2024 1.415 . S
C2026 C2031 1.425 . S
C2026 C2033 1.409 . S
C2027 H2019 0.930 . S
C2027 C2025 1.419 . S
C2027 C2028 1.362 . S
C2028 H2020 0.930 . S
C2028 C2027 1.362 . S
C2028 C2031 1.409 . S
C2029 H2021 0.930 . S
C2029 C2030 1.355 . S
C2029 C2031 1.415 . S
C2030 C2029 1.355 . S
C2030 C2032 1.419 . S
C2031 C2026 1.425 . S
C2031 C2028 1.409 . S
C2031 C2029 1.415 . S
C2032 H2022 0.930 . S
C2032 C2030 1.419 . S
C2032 C2033 1.362 . S
C2033 H2023 0.930 . S
C2033 C2026 1.409 . S
C2033 C2032 1.362 . S
H2034 C2040 0.930 . S
H2035 C2043 0.930 . S
H2036 C2044 0.930 . S
H2037 C2045 0.930 . S
H2038 C2048 0.920 1_545 S
H2039 C2049 0.930 . S
C2040 H2034 0.930 . S
C2040 C2041 1.355 . S
C2040 C2042 1.415 . S
C2041 C2040 1.355 . S
C2041 C2043 1.419 . S
C2042 C2040 1.415 . S
C2042 C2047 1.425 . S
C2042 C2049 1.409 . S
C2043 H2035 0.930 . S
C2043 C2041 1.419 . S
C2043 C2044 1.362 . S
C2044 H2036 0.930 . S
C2044 C2043 1.362 . S
C2044 C2047 1.409 . S
C2045 H2037 0.930 . S
C2045 C2046 1.355 . S
C2045 C2047 1.415 . S
C2046 C2045 1.355 . S
C2046 C2048 1.419 . S
C2047 C2042 1.425 . S
C2047 C2044 1.409 . S
C2047 C2045 1.415 . S
C2048 H2038 0.920 1_565 S
C2048 C2046 1.419 . S
C2048 C2049 1.362 . S
C2049 H2039 0.930 . S
C2049 C2042 1.409 . S
C2049 C2048 1.362 . S
H2050 C2056 0.930 . S
H2051 C2059 0.930 . S
H2052 C2060 0.930 . S
H2053 C2061 0.930 . S
H2054 C2064 0.950 . S
H2055 C2065 0.933 1_655 S
C2056 H2050 0.930 . S
C2056 C2057 1.355 . S
C2056 C2058 1.415 . S
C2057 C2056 1.355 . S
C2057 C2059 1.419 . S
C2058 C2056 1.415 . S
C2058 C2063 1.425 . S
C2058 C2065 1.406 . S
C2059 H2051 0.930 . S
C2059 C2057 1.419 . S
C2059 C2060 1.362 . S
C2060 H2052 0.930 . S
C2060 C2059 1.362 . S
C2060 C2063 1.409 . S
C2061 H2053 0.930 . S
C2061 C2062 1.355 . S
C2061 C2063 1.415 . S
C2062 C2061 1.355 . S
C2062 C2064 1.400 1_455 S
C2063 C2058 1.425 . S
C2063 C2060 1.409 . S
C2063 C2061 1.415 . S
C2064 H2054 0.950 . S
C2064 C2062 1.400 1_655 S
C2064 C2065 1.362 1_655 S
C2065 H2055 0.933 1_455 S
C2065 C2058 1.406 . S
C2065 C2064 1.362 1_455 S
H2066 C2072 0.930 . S
H2067 C2075 0.930 . S
H2068 C2076 0.930 . S
H2069 C2077 0.930 . S
H2070 C2080 0.930 . S
H2071 C2081 0.930 . S
C2072 H2066 0.930 . S
C2072 C2073 1.355 . S
C2072 C2074 1.415 . S
C2073 C2072 1.355 . S
C2073 C2075 1.419 . S
C2074 C2072 1.415 . S
C2074 C2079 1.425 . S
C2074 C2081 1.409 . S
C2075 H2067 0.930 . S
C2075 C2073 1.419 . S
C2075 C2076 1.362 . S
C2076 H2068 0.930 . S
C2076 C2075 1.362 . S
C2076 C2079 1.409 . S
C2077 H2069 0.930 . S
C2077 C2078 1.355 . S
C2077 C2079 1.415 . S
C2078 C2077 1.355 . S
C2078 C2080 1.419 . S
C2079 C2074 1.425 . S
C2079 C2076 1.409 . S
C2079 C2077 1.415 . S
C2080 H2070 0.930 . S
C2080 C2078 1.419 . S
C2080 C2081 1.362 . S
C2081 H2071 0.930 . S
C2081 C2074 1.409 . S
C2081 C2080 1.362 . S
H2082 C2088 0.930 . S
H2083 C2091 0.930 . S
H2084 C2092 0.930 1_455 S
H2085 C2093 0.930 1_455 S
H2086 C2096 0.930 . S
H2087 C2097 0.930 . S
C2088 H2082 0.930 . S
C2088 C2089 1.355 . S
C2088 C2090 1.415 . S
C2089 C2088 1.355 . S
C2089 C2091 1.419 . S
C2090 C2088 1.415 . S
C2090 C2095 1.425 . S
C2090 C2097 1.409 . S
C2091 H2083 0.930 . S
C2091 C2089 1.419 . S
C2091 C2092 1.362 . S
C2092 H2084 0.930 1_655 S
C2092 C2091 1.362 . S
C2092 C2095 1.409 . S
C2093 H2085 0.930 1_655 S
C2093 C2094 1.355 . S
C2093 C2095 1.415 . S
C2094 C2093 1.355 . S
C2094 C2096 1.419 . S
C2095 C2090 1.425 . S
C2095 C2092 1.409 . S
C2095 C2093 1.415 . S
C2096 H2086 0.930 . S
C2096 C2094 1.419 . S
C2096 C2097 1.362 . S
C2097 H2087 0.930 . S
C2097 C2090 1.409 . S
C2097 C2096 1.362 . S
H2098 C2104 0.930 . S
H2099 C2107 0.930 . S
H2100 C2108 0.930 . S
H2101 C2109 0.930 . S
H2102 C2112 0.930 . S
H2103 C2113 0.930 . S
C2104 H2098 0.930 . S
C2104 C2105 1.355 . S
C2104 C2106 1.415 . S
C2105 C2104 1.355 . S
C2105 C2107 1.419 . S
C2106 C2104 1.415 . S
C2106 C2111 1.425 . S
C2106 C2113 1.409 . S
C2107 H2099 0.930 . S
C2107 C2105 1.419 . S
C2107 C2108 1.362 . S
C2108 H2100 0.930 . S
C2108 C2107 1.362 . S
C2108 C2111 1.409 . S
C2109 H2101 0.930 . S
C2109 C2110 1.355 . S
C2109 C2111 1.415 . S
C2110 C2109 1.355 . S
C2110 C2112 1.419 . S
C2111 C2106 1.425 . S
C2111 C2108 1.409 . S
C2111 C2109 1.415 . S
C2112 H2102 0.930 . S
C2112 C2110 1.419 . S
C2112 C2113 1.362 . S
C2113 H2103 0.930 . S
C2113 C2106 1.409 . S
C2113 C2112 1.362 . S
H2114 C2120 0.930 . S
H2115 C2123 0.930 . S
H2116 C2124 0.930 . S
H2117 C2125 0.930 . S
H2118 C2128 0.930 1_565 S
H2119 C2129 0.930 1_565 S
C2120 H2114 0.930 . S
C2120 C2121 1.355 . S
C2120 C2122 1.415 . S
C2121 C2120 1.355 . S
C2121 C2123 1.419 . S
C2122 C2120 1.415 . S
C2122 C2127 1.425 . S
C2122 C2129 1.409 . S
C2123 H2115 0.930 . S
C2123 C2121 1.419 . S
C2123 C2124 1.362 . S
C2124 H2116 0.930 . S
C2124 C2123 1.362 . S
C2124 C2127 1.409 . S
C2125 H2117 0.930 . S
C2125 C2126 1.355 . S
C2125 C2127 1.415 . S
C2126 C2125 1.355 . S
C2126 C2128 1.419 . S
C2127 C2122 1.425 . S
C2127 C2124 1.409 . S
C2127 C2125 1.415 . S
C2128 H2118 0.930 1_545 S
C2128 C2126 1.419 . S
C2128 C2129 1.362 . S
C2129 H2119 0.930 1_545 S
C2129 C2122 1.409 . S
C2129 C2128 1.362 . S
H2130 C2136 0.930 . S
H2131 C2139 0.930 . S
H2132 C2140 0.930 . S
H2133 C2141 0.930 . S
H2134 C2144 0.930 . S
H2135 C2145 0.930 . S
C2136 H2130 0.930 . S
C2136 C2137 1.355 . S
C2136 C2138 1.415 . S
C2137 C2136 1.355 . S
C2137 C2139 1.419 . S
C2138 C2136 1.415 . S
C2138 C2143 1.425 . S
C2138 C2145 1.409 . S
C2139 H2131 0.930 . S
C2139 C2137 1.419 . S
C2139 C2140 1.362 . S
C2140 H2132 0.930 . S
C2140 C2139 1.362 . S
C2140 C2143 1.409 . S
C2141 H2133 0.930 . S
C2141 C2142 1.355 . S
C2141 C2143 1.415 . S
C2142 C2141 1.355 . S
C2142 C2144 1.419 . S
C2143 C2138 1.425 . S
C2143 C2140 1.409 . S
C2143 C2141 1.415 . S
C2144 H2134 0.930 . S
C2144 C2142 1.419 . S
C2144 C2145 1.362 . S
C2145 H2135 0.930 . S
C2145 C2138 1.409 . S
C2145 C2144 1.362 . S
H2146 C2152 0.930 . S
H2147 C2155 0.930 . S
H2148 C2156 0.930 . S
H2149 C2157 0.930 . S
H2150 C2160 0.930 . S
H2151 C2161 0.930 . S
C2152 H2146 0.930 . S
C2152 C2153 1.355 . S
C2152 C2154 1.415 . S
C2153 C2152 1.355 . S
C2153 C2155 1.419 . S
C2154 C2152 1.415 . S
C2154 C2159 1.425 . S
C2154 C2161 1.409 . S
C2155 H2147 0.930 . S
C2155 C2153 1.419 . S
C2155 C2156 1.362 . S
C2156 H2148 0.930 . S
C2156 C2155 1.362 . S
C2156 C2159 1.409 . S
C2157 H2149 0.930 . S
C2157 C2158 1.355 . S
C2157 C2159 1.415 . S
C2158 C2157 1.355 . S
C2158 C2160 1.419 . S
C2159 C2154 1.425 . S
C2159 C2156 1.409 . S
C2159 C2157 1.415 . S
C2160 H2150 0.930 . S
C2160 C2158 1.419 . S
C2160 C2161 1.362 . S
C2161 H2151 0.930 . S
C2161 C2154 1.409 . S
C2161 C2160 1.362 . S
H2162 C2168 0.930 . S
H2163 C2171 0.930 . S
H2164 C2172 0.930 . S
H2165 C2173 0.930 . S
H2166 C2176 0.930 . S
H2167 C2177 0.930 . S
C2168 H2162 0.930 . S
C2168 C2169 1.355 . S
C2168 C2170 1.415 . S
C2169 C2168 1.355 . S
C2169 C2171 1.419 . S
C2170 C2168 1.415 . S
C2170 C2175 1.425 . S
C2170 C2177 1.409 . S
C2171 H2163 0.930 . S
C2171 C2169 1.419 . S
C2171 C2172 1.362 . S
C2172 H2164 0.930 . S
C2172 C2171 1.362 . S
C2172 C2175 1.409 . S
C2173 H2165 0.930 . S
C2173 C2174 1.355 . S
C2173 C2175 1.415 . S
C2174 C2173 1.355 . S
C2174 C2176 1.419 . S
C2175 C2170 1.425 . S
C2175 C2172 1.409 . S
C2175 C2173 1.415 . S
C2176 H2166 0.930 . S
C2176 C2174 1.419 . S
C2176 C2177 1.362 . S
C2177 H2167 0.930 . S
C2177 C2170 1.409 . S
C2177 C2176 1.362 . S
H2178 C2184 0.930 . S
H2179 C2187 0.930 . S
H2180 C2188 0.930 . S
H2181 C2189 0.930 . S
H2182 C2192 0.930 . S
H2183 C2193 0.930 . S
C2184 H2178 0.930 . S
C2184 C2185 1.355 . S
C2184 C2186 1.415 . S
C2185 C2184 1.355 . S
C2185 C2187 1.419 . S
C2186 C2184 1.415 . S
C2186 C2191 1.425 . S
C2186 C2193 1.409 . S
C2187 H2179 0.930 . S
C2187 C2185 1.419 . S
C2187 C2188 1.362 . S
C2188 H2180 0.930 . S
C2188 C2187 1.362 . S
C2188 C2191 1.409 . S
C2189 H2181 0.930 . S
C2189 C2190 1.355 . S
C2189 C2191 1.415 . S
C2190 C2189 1.355 . S
C2190 C2192 1.419 . S
C2191 C2186 1.425 . S
C2191 C2188 1.409 . S
C2191 C2189 1.415 . S
C2192 H2182 0.930 . S
C2192 C2190 1.419 . S
C2192 C2193 1.362 . S
C2193 H2183 0.930 . S
C2193 C2186 1.409 . S
C2193 C2192 1.362 . S
H2194 C2200 0.930 . S
H2195 C2203 0.930 . S
H2196 C2204 0.930 . S
H2197 C2205 0.930 . S
H2198 C2208 0.930 . S
H2199 C2209 0.930 . S
C2200 H2194 0.930 . S
C2200 C2201 1.355 . S
C2200 C2202 1.415 . S
C2201 C2200 1.355 . S
C2201 C2203 1.419 . S
C2202 C2200 1.415 . S
C2202 C2207 1.425 . S
C2202 C2209 1.409 . S
C2203 H2195 0.930 . S
C2203 C2201 1.419 . S
C2203 C2204 1.362 . S
C2204 H2196 0.930 . S
C2204 C2203 1.362 . S
C2204 C2207 1.409 . S
C2205 H2197 0.930 . S
C2205 C2206 1.355 . S
C2205 C2207 1.415 . S
C2206 C2205 1.355 . S
C2206 C2208 1.419 . S
C2207 C2202 1.425 . S
C2207 C2204 1.409 . S
C2207 C2205 1.415 . S
C2208 H2198 0.930 . S
C2208 C2206 1.419 . S
C2208 C2209 1.362 . S
C2209 H2199 0.930 . S
C2209 C2202 1.409 . S
C2209 C2208 1.362 . S
H2210 C2216 0.930 . S
H2211 C2219 0.930 . S
H2212 C2220 0.930 . S
H2213 C2221 0.930 . S
H2214 C2224 0.930 . S
H2215 C2225 0.930 . S
C2216 H2210 0.930 . S
C2216 C2217 1.355 . S
C2216 C2218 1.415 . S
C2217 C2216 1.355 . S
C2217 C2219 1.419 . S
C2218 C2216 1.415 . S
C2218 C2223 1.425 . S
C2218 C2225 1.409 . S
C2219 H2211 0.930 . S
C2219 C2217 1.419 . S
C2219 C2220 1.362 . S
C2220 H2212 0.930 . S
C2220 C2219 1.362 . S
C2220 C2223 1.409 . S
C2221 H2213 0.930 . S
C2221 C2222 1.355 . S
C2221 C2223 1.415 . S
C2222 C2221 1.355 . S
C2222 C2224 1.419 . S
C2223 C2218 1.425 . S
C2223 C2220 1.409 . S
C2223 C2221 1.415 . S
C2224 H2214 0.930 . S
C2224 C2222 1.419 . S
C2224 C2225 1.362 . S
C2225 H2215 0.930 . S
C2225 C2218 1.409 . S
C2225 C2224 1.362 . S
H2226 C2232 0.930 . S
H2227 C2235 0.930 . S
H2228 C2236 0.930 . S
H2229 C2237 0.930 . S
H2230 C2240 0.930 . S
H2231 C2241 0.930 . S
C2232 H2226 0.930 . S
C2232 C2233 1.355 . S
C2232 C2234 1.415 . S
C2233 C2232 1.355 . S
C2233 C2235 1.419 . S
C2234 C2232 1.415 . S
C2234 C2239 1.425 . S
C2234 C2241 1.409 . S
C2235 H2227 0.930 . S
C2235 C2233 1.419 . S
C2235 C2236 1.362 . S
C2236 H2228 0.930 . S
C2236 C2235 1.362 . S
C2236 C2239 1.409 . S
C2237 H2229 0.930 . S
C2237 C2238 1.355 . S
C2237 C2239 1.415 . S
C2238 C2237 1.355 . S
C2238 C2240 1.419 . S
C2239 C2234 1.425 . S
C2239 C2236 1.409 . S
C2239 C2237 1.415 . S
C2240 H2230 0.930 . S
C2240 C2238 1.419 . S
C2240 C2241 1.362 . S
C2241 H2231 0.930 . S
C2241 C2234 1.409 . S
C2241 C2240 1.362 . S
H2242 C2248 0.930 . S
H2243 C2251 0.930 . S
H2244 C2252 0.930 . S
H2245 C2253 0.930 . S
H2246 C2256 0.930 . S
H2247 C2257 0.930 . S
C2248 H2242 0.930 . S
C2248 C2249 1.355 . S
C2248 C2250 1.415 . S
C2249 C2248 1.355 . S
C2249 C2251 1.419 . S
C2250 C2248 1.415 . S
C2250 C2255 1.425 . S
C2250 C2257 1.409 . S
C2251 H2243 0.930 . S
C2251 C2249 1.419 . S
C2251 C2252 1.362 . S
C2252 H2244 0.930 . S
C2252 C2251 1.362 . S
C2252 C2255 1.409 . S
C2253 H2245 0.930 . S
C2253 C2254 1.355 . S
C2253 C2255 1.415 . S
C2254 C2253 1.355 . S
C2254 C2256 1.419 . S
C2255 C2250 1.425 . S
C2255 C2252 1.409 . S
C2255 C2253 1.415 . S
C2256 H2246 0.930 . S
C2256 C2254 1.419 . S
C2256 C2257 1.362 . S
C2257 H2247 0.930 . S
C2257 C2250 1.409 . S
C2257 C2256 1.362 . S
H2258 C2264 0.930 . S
H2259 C2267 0.930 . S
H2260 C2268 0.930 . S
H2261 C2269 0.930 . S
H2262 C2272 0.930 . S
H2263 C2273 0.930 . S
C2264 H2258 0.930 . S
C2264 C2265 1.355 . S
C2264 C2266 1.415 . S
C2265 C2264 1.355 . S
C2265 C2267 1.419 . S
C2266 C2264 1.415 . S
C2266 C2271 1.425 . S
C2266 C2273 1.409 . S
C2267 H2259 0.930 . S
C2267 C2265 1.419 . S
C2267 C2268 1.362 . S
C2268 H2260 0.930 . S
C2268 C2267 1.362 . S
C2268 C2271 1.409 . S
C2269 H2261 0.930 . S
C2269 C2270 1.355 . S
C2269 C2271 1.415 . S
C2270 C2269 1.355 . S
C2270 C2272 1.419 . S
C2271 C2266 1.425 . S
C2271 C2268 1.409 . S
C2271 C2269 1.415 . S
C2272 H2262 0.930 . S
C2272 C2270 1.419 . S
C2272 C2273 1.362 . S
C2273 H2263 0.930 . S
C2273 C2266 1.409 . S
C2273 C2272 1.362 . S
H2274 C2280 0.930 . S
H2275 C2283 0.930 . S
H2276 C2284 0.930 . S
H2277 C2285 0.930 . S
H2278 C2288 0.930 . S
H2279 C2289 0.930 . S
C2280 H2274 0.930 . S
C2280 C2281 1.355 . S
C2280 C2282 1.415 . S
C2281 C2280 1.355 . S
C2281 C2283 1.419 . S
C2282 C2280 1.415 . S
C2282 C2287 1.425 . S
C2282 C2289 1.409 . S
C2283 H2275 0.930 . S
C2283 C2281 1.419 . S
C2283 C2284 1.362 . S
C2284 H2276 0.930 . S
C2284 C2283 1.362 . S
C2284 C2287 1.409 . S
C2285 H2277 0.930 . S
C2285 C2286 1.355 . S
C2285 C2287 1.415 . S
C2286 C2285 1.355 . S
C2286 C2288 1.419 . S
C2287 C2282 1.425 . S
C2287 C2284 1.409 . S
C2287 C2285 1.415 . S
C2288 H2278 0.930 . S
C2288 C2286 1.419 . S
C2288 C2289 1.362 . S
C2289 H2279 0.930 . S
C2289 C2282 1.409 . S
C2289 C2288 1.362 . S
H2290 C2296 0.930 . S
H2291 C2299 0.930 . S
H2292 C2300 0.930 . S
H2293 C2301 0.930 . S
H2294 C2304 0.930 . S
H2295 C2305 0.930 . S
C2296 H2290 0.930 . S
C2296 C2297 1.355 . S
C2296 C2298 1.415 . S
C2297 C2296 1.355 . S
C2297 C2299 1.419 . S
C2298 C2296 1.415 . S
C2298 C2303 1.425 . S
C2298 C2305 1.409 . S
C2299 H2291 0.930 . S
C2299 C2297 1.419 . S
C2299 C2300 1.362 . S
C2300 H2292 0.930 . S
C2300 C2299 1.362 . S
C2300 C2303 1.409 . S
C2301 H2293 0.930 . S
C2301 C2302 1.355 . S
C2301 C2303 1.415 . S
C2302 C2301 1.355 . S
C2302 C2304 1.419 . S
C2303 C2298 1.425 . S
C2303 C2300 1.409 . S
C2303 C2301 1.415 . S
C2304 H2294 0.930 . S
C2304 C2302 1.419 . S
C2304 C2305 1.362 . S
C2305 H2295 0.930 . S
C2305 C2298 1.409 . S
C2305 C2304 1.362 . S
H2306 C2312 0.930 . S
H2307 C2315 0.930 . S
H2308 C2316 0.930 . S
H2309 C2317 0.930 . S
H2310 C2320 0.930 . S
H2311 C2321 0.930 . S
C2312 H2306 0.930 . S
C2312 C2313 1.355 . S
C2312 C2314 1.415 . S
C2313 C2312 1.355 . S
C2313 C2315 1.419 . S
C2314 C2312 1.415 . S
C2314 C2319 1.425 . S
C2314 C2321 1.409 . S
C2315 H2307 0.930 . S
C2315 C2313 1.419 . S
C2315 C2316 1.362 . S
C2316 H2308 0.930 . S
C2316 C2315 1.362 . S
C2316 C2319 1.409 . S
C2317 H2309 0.930 . S
C2317 C2318 1.355 . S
C2317 C2319 1.415 . S
C2318 C2317 1.355 . S
C2318 C2320 1.419 . S
C2319 C2314 1.425 . S
C2319 C2316 1.409 . S
C2319 C2317 1.415 . S
C2320 H2310 0.930 . S
C2320 C2318 1.419 . S
C2320 C2321 1.362 . S
C2321 H2311 0.930 . S
C2321 C2314 1.409 . S
C2321 C2320 1.362 . S
C1465 C528 1.421 . S
C1470 C769 1.345 . S
C1481 C562 1.501 . S
C1486 C853 1.452 . S
C1497 C484 1.498 . S
C1502 C933 1.471 . S
C1513 C445 1.428 . S
C1518 C849 1.370 . S
C1534 C937 1.394 . S
C1529 C367 1.430 . S
C1545 C411 1.422 . S
C1550 C765 1.395 . S
C1566 C758 1.362 . S
C1561 C450 1.461 . S
C1582 C842 1.446 . S
C1577 C372 1.482 . S
C1593 C406 1.483 . S
C1598 C944 1.446 . S
C1609 C523 1.449 . S
C1614 C860 1.426 . S
C1625 C567 1.431 . S
C1630 C926 1.354 . S
C1646 C776 1.358 . S
C1641 C489 1.412 . S
C1662 C1021 1.398 . S
C1657 C60 1.429 1_455 S
C1673 C94 1.485 . S
C1678 C1105 1.447 . S
C1689 C16 1.467 . S
C1694 C1185 1.401 . S
C1705 C679 1.451 . S
C1710 C1101 1.418 . S
C1721 C601 1.431 . S
C1726 C1189 1.398 . S
C1737 C645 1.428 . S
C1742 C1017 1.403 . S
C1753 C684 1.459 . S
C1758 C1010 1.415 . S
C1769 C606 1.461 . S
C1774 C1094 1.407 . S
C1790 C1196 1.469 . S
C1785 C640 1.500 . S
C1801 C55 1.444 . S
C1806 C1112 1.418 . S
C1822 C1178 1.317 . S
C1817 C99 1.402 1_455 S
C1833 C21 1.405 . S
C1838 C1028 1.345 . S
C1854 C1273 1.404 . S
C1849 C294 1.438 . S
C1865 C328 1.503 . S
C1870 C1357 1.440 . S
C1886 C1437 1.475 . S
C1881 C250 1.502 . S
C1902 C1353 1.362 . S
C1897 C211 1.424 1_545 S
C1918 C1441 1.338 . S
C1913 C133 1.443 1_655 S
C1929 C177 1.428 . S
C1934 C1269 1.403 . S
C1945 C216 1.449 1_655 S
C1950 C1262 1.331 . S
C1961 C138 1.487 . S
C1966 C1346 1.436 . S
C1982 C1448 1.464 . S
C1977 C172 1.493 . S
C1993 C289 1.423 . S
C1998 C1364 1.359 . S
C2009 C333 1.410 . S
C2014 C1430 1.297 . S
C2025 C255 1.401 . S
C2030 C1280 1.341 . S
C2041 C586 1.470 . S
C2046 C772 1.353 . S
C2062 C856 1.296 . S
C2057 C625 1.492 . S
C2073 C664 1.477 . S
C2078 C928 1.322 . S
C2089 C235 1.514 . S
C2094 C844 1.417 . S
C2105 C274 1.466 . S
C2110 C940 1.347 . S
C2126 C760 1.302 . S
C2121 C313 1.470 . S
C2137 C118 1.470 . S
C2142 C1024 1.323 . S
C2153 C157 1.501 . S
C2158 C1108 1.407 . S
C2169 C196 1.477 . S
C2174 C1180 1.324 . S
C2185 C469 1.501 . S
C2190 C1096 1.314 . S
C2206 C1192 1.323 . S
C2201 C508 1.466 . S
C2217 C547 1.468 . S
C2222 C1012 1.319 . S
C2233 C352 1.469 . S
C2238 C1276 1.400 . S
C2249 C391 1.501 . S
C2254 C1360 1.345 . S
C2270 C1432 1.307 . S
C2265 C430 1.480 . S
C2281 C1 1.506 . S
C2286 C1348 1.379 . S
C2297 C40 1.466 . S
C2302 C1444 1.373 . S
C2313 C79 1.470 . S
C2318 C1264 1.373 . S
