# Generated by pormake.
# Topology ctn, (3,4)-cn, num edge types: 1
# Building blocks:
#     Node 0, Type 0, BuildingBlock: CUQRIR_clean_linker_1, # of connection points: 3
#     Node 1, Type 0, BuildingBlock: CUQRIR_clean_linker_1, # of connection points: 3
#     Node 2, Type 0, BuildingBlock: CUQRIR_clean_linker_1, # of connection points: 3
#     Node 3, Type 0, BuildingBlock: CUQRIR_clean_linker_1, # of connection points: 3
#     Node 4, Type 0, BuildingBlock: CUQRIR_clean_linker_1, # of connection points: 3
#     Node 5, Type 0, BuildingBlock: CUQRIR_clean_linker_1, # of connection points: 3
#     Node 6, Type 0, BuildingBlock: CUQRIR_clean_linker_1, # of connection points: 3
#     Node 7, Type 0, BuildingBlock: CUQRIR_clean_linker_1, # of connection points: 3
#     Node 8, Type 0, BuildingBlock: CUQRIR_clean_linker_1, # of connection points: 3
#     Node 9, Type 0, BuildingBlock: CUQRIR_clean_linker_1, # of connection points: 3
#     Node 10, Type 0, BuildingBlock: CUQRIR_clean_linker_1, # of connection points: 3
#     Node 11, Type 0, BuildingBlock: CUQRIR_clean_linker_1, # of connection points: 3
#     Node 12, Type 0, BuildingBlock: CUQRIR_clean_linker_1, # of connection points: 3
#     Node 13, Type 0, BuildingBlock: CUQRIR_clean_linker_1, # of connection points: 3
#     Node 14, Type 0, BuildingBlock: CUQRIR_clean_linker_1, # of connection points: 3
#     Node 15, Type 0, BuildingBlock: CUQRIR_clean_linker_1, # of connection points: 3
#     Node 16, Type 1, BuildingBlock: TATPOV_clean_sbu_0, # of connection points: 4
#     Node 17, Type 1, BuildingBlock: TATPOV_clean_sbu_0, # of connection points: 4
#     Node 18, Type 1, BuildingBlock: TATPOV_clean_sbu_0, # of connection points: 4
#     Node 19, Type 1, BuildingBlock: TATPOV_clean_sbu_0, # of connection points: 4
#     Node 20, Type 1, BuildingBlock: TATPOV_clean_sbu_0, # of connection points: 4
#     Node 21, Type 1, BuildingBlock: TATPOV_clean_sbu_0, # of connection points: 4
#     Node 22, Type 1, BuildingBlock: TATPOV_clean_sbu_0, # of connection points: 4
#     Node 23, Type 1, BuildingBlock: TATPOV_clean_sbu_0, # of connection points: 4
#     Node 24, Type 1, BuildingBlock: TATPOV_clean_sbu_0, # of connection points: 4
#     Node 25, Type 1, BuildingBlock: TATPOV_clean_sbu_0, # of connection points: 4
#     Node 26, Type 1, BuildingBlock: TATPOV_clean_sbu_0, # of connection points: 4
#     Node 27, Type 1, BuildingBlock: TATPOV_clean_sbu_0, # of connection points: 4
#     Edge 28, Type (0, 1), BuildingBlock: AJUNOK_clean_linker_0, # of connection points: 2
#     Edge 29, Type (0, 1), BuildingBlock: AJUNOK_clean_linker_0, # of connection points: 2
#     Edge 30, Type (0, 1), BuildingBlock: AJUNOK_clean_linker_0, # of connection points: 2
#     Edge 31, Type (0, 1), BuildingBlock: AJUNOK_clean_linker_0, # of connection points: 2
#     Edge 32, Type (0, 1), BuildingBlock: AJUNOK_clean_linker_0, # of connection points: 2
#     Edge 33, Type (0, 1), BuildingBlock: AJUNOK_clean_linker_0, # of connection points: 2
#     Edge 34, Type (0, 1), BuildingBlock: AJUNOK_clean_linker_0, # of connection points: 2
#     Edge 35, Type (0, 1), BuildingBlock: AJUNOK_clean_linker_0, # of connection points: 2
#     Edge 36, Type (0, 1), BuildingBlock: AJUNOK_clean_linker_0, # of connection points: 2
#     Edge 37, Type (0, 1), BuildingBlock: AJUNOK_clean_linker_0, # of connection points: 2
#     Edge 38, Type (0, 1), BuildingBlock: AJUNOK_clean_linker_0, # of connection points: 2
#     Edge 39, Type (0, 1), BuildingBlock: AJUNOK_clean_linker_0, # of connection points: 2
#     Edge 40, Type (0, 1), BuildingBlock: AJUNOK_clean_linker_0, # of connection points: 2
#     Edge 41, Type (0, 1), BuildingBlock: AJUNOK_clean_linker_0, # of connection points: 2
#     Edge 42, Type (0, 1), BuildingBlock: AJUNOK_clean_linker_0, # of connection points: 2
#     Edge 43, Type (0, 1), BuildingBlock: AJUNOK_clean_linker_0, # of connection points: 2
#     Edge 44, Type (0, 1), BuildingBlock: AJUNOK_clean_linker_0, # of connection points: 2
#     Edge 45, Type (0, 1), BuildingBlock: AJUNOK_clean_linker_0, # of connection points: 2
#     Edge 46, Type (0, 1), BuildingBlock: AJUNOK_clean_linker_0, # of connection points: 2
#     Edge 47, Type (0, 1), BuildingBlock: AJUNOK_clean_linker_0, # of connection points: 2
#     Edge 48, Type (0, 1), BuildingBlock: AJUNOK_clean_linker_0, # of connection points: 2
#     Edge 49, Type (0, 1), BuildingBlock: AJUNOK_clean_linker_0, # of connection points: 2
#     Edge 50, Type (0, 1), BuildingBlock: AJUNOK_clean_linker_0, # of connection points: 2
#     Edge 51, Type (0, 1), BuildingBlock: AJUNOK_clean_linker_0, # of connection points: 2
#     Edge 52, Type (0, 1), BuildingBlock: AJUNOK_clean_linker_0, # of connection points: 2
#     Edge 53, Type (0, 1), BuildingBlock: AJUNOK_clean_linker_0, # of connection points: 2
#     Edge 54, Type (0, 1), BuildingBlock: AJUNOK_clean_linker_0, # of connection points: 2
#     Edge 55, Type (0, 1), BuildingBlock: AJUNOK_clean_linker_0, # of connection points: 2
#     Edge 56, Type (0, 1), BuildingBlock: AJUNOK_clean_linker_0, # of connection points: 2
#     Edge 57, Type (0, 1), BuildingBlock: AJUNOK_clean_linker_0, # of connection points: 2
#     Edge 58, Type (0, 1), BuildingBlock: AJUNOK_clean_linker_0, # of connection points: 2
#     Edge 59, Type (0, 1), BuildingBlock: AJUNOK_clean_linker_0, # of connection points: 2
#     Edge 60, Type (0, 1), BuildingBlock: AJUNOK_clean_linker_0, # of connection points: 2
#     Edge 61, Type (0, 1), BuildingBlock: AJUNOK_clean_linker_0, # of connection points: 2
#     Edge 62, Type (0, 1), BuildingBlock: AJUNOK_clean_linker_0, # of connection points: 2
#     Edge 63, Type (0, 1), BuildingBlock: AJUNOK_clean_linker_0, # of connection points: 2
#     Edge 64, Type (0, 1), BuildingBlock: AJUNOK_clean_linker_0, # of connection points: 2
#     Edge 65, Type (0, 1), BuildingBlock: AJUNOK_clean_linker_0, # of connection points: 2
#     Edge 66, Type (0, 1), BuildingBlock: AJUNOK_clean_linker_0, # of connection points: 2
#     Edge 67, Type (0, 1), BuildingBlock: AJUNOK_clean_linker_0, # of connection points: 2
#     Edge 68, Type (0, 1), BuildingBlock: AJUNOK_clean_linker_0, # of connection points: 2
#     Edge 69, Type (0, 1), BuildingBlock: AJUNOK_clean_linker_0, # of connection points: 2
#     Edge 70, Type (0, 1), BuildingBlock: AJUNOK_clean_linker_0, # of connection points: 2
#     Edge 71, Type (0, 1), BuildingBlock: AJUNOK_clean_linker_0, # of connection points: 2
#     Edge 72, Type (0, 1), BuildingBlock: AJUNOK_clean_linker_0, # of connection points: 2
#     Edge 73, Type (0, 1), BuildingBlock: AJUNOK_clean_linker_0, # of connection points: 2
#     Edge 74, Type (0, 1), BuildingBlock: AJUNOK_clean_linker_0, # of connection points: 2
#     Edge 75, Type (0, 1), BuildingBlock: AJUNOK_clean_linker_0, # of connection points: 2
# Relax obj value: 0.088
# Max RMSD: 0.207
# Mean RMSD: 0.128
data_MOF--net-ctn--node1-TATPOV_clean_sbu_0--node2-CUQRIR_clean_linker_1--edge1-AJUNOK_clean_linker_0
_symmetry_space_group_name_H-M    P1
_symmetry_Int_Tables_number       1
_symmetry_cell_setting            triclinic
loop_
_symmetry_equiv_pos_as_xyz
'x, y, z'
_cell_length_a     36.728316
_cell_length_b     33.932522
_cell_length_c     34.927255
_cell_angle_alpha  98.212713
_cell_angle_beta   90.0008
_cell_angle_gamma 94.384603
loop_
_atom_site_label
_atom_site_type_symbol
_atom_site_fract_x
_atom_site_fract_y
_atom_site_fract_z
_atom_type_partial_charge
C0 C 0.04155 0.98916 0.07507 0.0
N1 N 0.05948 1.00276 0.04493 0.0
N2 N 0.01075 0.00811 0.08301 0.0
C3 C 0.05383 0.95749 0.09725 0.0
C4 C 0.01015 0.03334 0.05642 0.0
N5 N 0.03972 0.03031 0.03328 0.0
C6 C 0.98003 0.06019 0.05224 0.0
H7 H 0.03423 0.93073 0.09179 0.0
H8 H 0.05355 0.9685 0.12873 0.0
H9 H 0.08131 0.9482 0.08898 0.0
H10 H 0.98849 0.09076 0.06678 0.0
H11 H 0.95442 0.04941 0.06557 0.0
H12 H 0.97482 0.06194 0.02126 0.0
C13 C 0.2606 0.7328 0.24047 0.0
N14 N 0.27441 0.71563 0.26949 0.0
N15 N 0.28297 0.76427 0.23297 0.0
C16 C 0.22656 0.71722 0.21747 0.0
C17 C 0.31104 0.76544 0.25846 0.0
N18 N 0.30564 0.73621 0.28104 0.0
C19 C 0.34512 0.79304 0.25924 0.0
H20 H 0.23424 0.69742 0.1911 0.0
H21 H 0.21254 0.74206 0.2081 0.0
H22 H 0.20736 0.69995 0.2345 0.0
H23 H 0.34168 0.81753 0.24195 0.0
H24 H 0.36799 0.77567 0.24735 0.0
H25 H 0.35244 0.80601 0.28947 0.0
C26 C 0.97993 0.49952 0.08655 0.0
N27 N 0.99839 0.4668 0.08889 0.0
N28 N 0.95478 0.49188 0.05759 0.0
C29 C 0.98716 0.53912 0.11193 0.0
C30 C 0.95822 0.45328 0.04284 0.0
N31 N 0.98433 0.43775 0.06219 0.0
C32 C 0.93748 0.43126 0.00805 0.0
H33 H 0.99115 0.53455 0.14244 0.0
H34 H 0.96486 0.55898 0.11021 0.0
H35 H 0.01259 0.55447 0.10243 0.0
H36 H 0.95577 0.42926 0.98266 0.0
H37 H 0.91304 0.44648 1.00148 0.0
H38 H 0.9286 0.40043 0.01289 0.0
C39 C 0.69868 0.73285 0.22626 0.0
N40 N 0.72831 0.75324 0.21332 0.0
N41 N 0.68125 0.7567 0.25347 0.0
C42 C 0.68541 0.69058 0.21073 0.0
C43 C 0.70085 0.79236 0.25622 0.0
N44 N 0.7292 0.79043 0.23155 0.0
C45 C 0.69273 0.82895 0.28367 0.0
H46 H 0.65565 0.68519 0.21528 0.0
H47 H 0.69983 0.66996 0.22629 0.0
H48 H 0.69138 0.68373 0.17944 0.0
H49 H 0.67484 0.82119 0.3075 0.0
H50 H 0.67876 0.84935 0.26741 0.0
H51 H 0.71839 0.84513 0.29611 0.0
C52 C 0.02378 0.99264 0.48591 0.0
N53 N 0.05679 0.99648 0.50391 0.0
N54 N 0.02459 0.013 0.45535 0.0
C55 C 0.99137 0.96651 0.49656 0.0
C56 C 0.05942 0.02891 0.45484 0.0
N57 N 0.07918 0.01887 0.48431 0.0
C58 C 0.07409 0.05455 0.42573 0.0
H59 H 0.97201 0.95797 0.47187 0.0
H60 H 0.97687 0.983 0.52094 0.0
H61 H 1.00035 0.93897 0.50616 0.0
H62 H 0.09512 0.0776 0.43915 0.0
H63 H 0.05189 0.0693 0.41322 0.0
H64 H 0.08708 0.0354 0.40199 0.0
C65 C 0.19543 0.7522 0.78901 0.0
N66 N 0.21985 0.73372 0.80772 0.0
N67 N 0.18891 0.73268 0.75292 0.0
C68 C 0.17964 0.7908 0.80493 0.0
C69 C 0.21053 0.70195 0.74991 0.0
N70 N 0.2299 0.70288 0.78313 0.0
C71 C 0.21021 0.66938 0.7158 0.0
H72 H 0.17066 0.80661 0.7813 0.0
H73 H 0.20003 0.81066 0.82346 0.0
H74 H 0.15563 0.7843 0.82291 0.0
H75 H 0.23072 0.67816 0.69464 0.0
H76 H 0.18308 0.66503 0.70119 0.0
H77 H 0.21718 0.64073 0.72468 0.0
C78 C 0.93321 0.55248 0.44679 0.0
N79 N 0.95831 0.584 0.44801 0.0
N80 N 0.90484 0.56162 0.47021 0.0
C81 C 0.93785 0.51138 0.42557 0.0
C82 C 0.91342 0.60002 0.4856 0.0
N83 N 0.94573 0.61377 0.47191 0.0
C84 C 0.89291 0.62213 0.51807 0.0
H85 H 0.91086 0.49493 0.41846 0.0
H86 H 0.95313 0.49447 0.44436 0.0
H87 H 0.95352 0.51318 0.39862 0.0
H88 H 0.90701 0.62056 0.54585 0.0
H89 H 0.86447 0.60879 0.51934 0.0
H90 H 0.89255 0.65407 0.51449 0.0
C91 C 0.79833 0.83035 0.85013 0.0
N92 N 0.82652 0.80902 0.83646 0.0
N93 N 0.79193 0.8583 0.8275 0.0
C94 C 0.77484 0.82142 0.88369 0.0
C95 C 0.81717 0.85334 0.79946 0.0
N96 N 0.83803 0.82312 0.80446 0.0
C97 C 0.81944 0.87594 0.76533 0.0
H98 H 0.76134 0.79079 0.8771 0.0
H99 H 0.75377 0.84309 0.89014 0.0
H100 H 0.7921 0.82244 0.90991 0.0
H101 H 0.848 0.8794 0.75522 0.0
H102 H 0.80906 0.90589 0.77263 0.0
H103 H 0.80244 0.85901 0.7413 0.0
C104 C 0.29782 0.32834 0.35055 0.0
N105 N 0.32637 0.30747 0.33713 0.0
N106 N 0.29181 0.35686 0.32844 0.0
C107 C 0.27375 0.31855 0.3834 0.0
C108 C 0.31767 0.35272 0.30097 0.0
N109 N 0.33854 0.32248 0.30583 0.0
C110 C 0.32048 0.37604 0.26736 0.0
H111 H 0.26052 0.28788 0.37605 0.0
H112 H 0.25246 0.33997 0.38976 0.0
H113 H 0.29054 0.31922 0.40989 0.0
H114 H 0.34921 0.37992 0.25791 0.0
H115 H 0.30984 0.40583 0.27491 0.0
H116 H 0.304 0.3594 0.24278 0.0
C117 C 0.47026 0.99901 0.59295 0.0
N118 N 0.49088 0.96779 0.59471 0.0
N119 N 0.44945 0.99286 0.56027 0.0
C120 C 0.468 0.03357 0.62482 0.0
C121 C 0.45788 0.95662 0.54252 0.0
N122 N 0.48253 0.94109 0.56369 0.0
C123 C 0.44362 0.93732 0.50329 0.0
H124 H 0.47037 0.02346 0.65351 0.0
H125 H 0.44198 0.04787 0.62324 0.0
H126 H 0.49107 0.05607 0.62217 0.0
H127 H 0.43532 0.95997 0.48572 0.0
H128 H 0.41951 0.91655 0.50717 0.0
H129 H 0.46451 0.91979 0.48725 0.0
C130 C 0.1997 0.23496 0.72201 0.0
N131 N 0.23041 0.25665 0.71351 0.0
N132 N 0.18741 0.24921 0.75744 0.0
C133 C 0.18241 0.19899 0.69642 0.0
C134 C 0.21163 0.28039 0.77014 0.0
N135 N 0.23819 0.28449 0.74375 0.0
C136 C 0.20719 0.30914 0.80663 0.0
H137 H 0.16454 0.20893 0.67465 0.0
H138 H 0.16554 0.17949 0.71357 0.0
H139 H 0.20366 0.1817 0.68073 0.0
H140 H 0.22057 0.29791 0.83098 0.0
H141 H 0.17791 0.31151 0.81367 0.0
H142 H 0.21992 0.33934 0.80404 0.0
C143 C 0.759 0.23526 0.74379 0.0
N144 N 0.7732 0.21665 0.77158 0.0
N145 N 0.78201 0.26615 0.73607 0.0
C146 C 0.72403 0.22132 0.7218 0.0
C147 C 0.81088 0.2654 0.76012 0.0
N148 N 0.8054 0.23562 0.78201 0.0
C149 C 0.84556 0.29194 0.76025 0.0
H150 H 0.73049 0.20235 0.69445 0.0
H151 H 0.71015 0.24704 0.71418 0.0
H152 H 0.70514 0.20368 0.73882 0.0
H153 H 0.84129 0.31879 0.74651 0.0
H154 H 0.86664 0.27493 0.74395 0.0
H155 H 0.85586 0.30125 0.79029 0.0
C156 C 0.53401 0.4915 0.57228 0.0
N157 N 0.5534 0.50361 0.54233 0.0
N158 N 0.50168 0.50819 0.5758 0.0
C159 C 0.54563 0.46166 0.59695 0.0
C160 C 0.50179 0.53085 0.54698 0.0
N161 N 0.53294 0.52789 0.52631 0.0
C162 C 0.47229 0.55762 0.54006 0.0
H163 H 0.56099 0.43854 0.57963 0.0
H164 H 0.52168 0.44691 0.61004 0.0
H165 H 0.56373 0.47739 0.62063 0.0
H166 H 0.48447 0.58782 0.5366 0.0
H167 H 0.45245 0.56051 0.56402 0.0
H168 H 0.45759 0.54516 0.51273 0.0
C169 C 0.52993 0.49317 0.98499 0.0
N170 N 0.56225 0.49703 1.00436 0.0
N171 N 0.5316 0.51467 0.95528 0.0
C172 C 0.49688 0.46723 0.99432 0.0
C173 C 0.56612 0.53179 0.957 0.0
N174 N 0.58489 0.52121 0.9869 0.0
C175 C 0.58168 0.55888 0.92953 0.0
H176 H 0.50496 0.44091 0.00687 0.0
H177 H 0.47982 0.45675 0.9681 0.0
H178 H 0.48016 0.4849 0.01587 0.0
H179 H 0.59822 0.58468 0.94563 0.0
H180 H 0.55988 0.57 0.91289 0.0
H181 H 0.60003 0.54212 0.90905 0.0
C182 C 0.69368 0.25501 0.29234 0.0
N183 N 0.7165 0.23542 0.31196 0.0
N184 N 0.68891 0.23663 0.25557 0.0
C185 C 0.67815 0.29388 0.30788 0.0
C186 C 0.70999 0.20544 0.25314 0.0
N187 N 0.72747 0.20518 0.28726 0.0
C188 C 0.7108 0.17334 0.2187 0.0
H189 H 0.65104 0.28758 0.32064 0.0
H190 H 0.67436 0.31194 0.28427 0.0
H191 H 0.69622 0.31155 0.33056 0.0
H192 H 0.73368 0.18116 0.19976 0.0
H193 H 0.68504 0.17074 0.20162 0.0
H194 H 0.71518 0.14405 0.22786 0.0
C195 C 0.43427 0.05533 0.94724 0.0
N196 N 0.45905 0.08719 0.94919 0.0
N197 N 0.40602 0.06339 0.97116 0.0
C198 C 0.43937 0.01474 0.92511 0.0
C199 C 0.41431 0.10154 0.98755 0.0
N200 N 0.44634 0.11615 0.97399 0.0
C201 C 0.39409 0.12229 0.02105 0.0
H202 H 0.41254 0.99808 0.91764 0.0
H203 H 0.45485 0.99752 0.94341 0.0
H204 H 0.45502 0.01744 0.8983 0.0
H205 H 0.40955 0.12138 0.04818 0.0
H206 H 0.36628 0.10762 0.02338 0.0
H207 H 0.39205 0.15409 0.01778 0.0
Zn208 Zn 0.31602 0.84655 0.01916 0.0
Zn209 Zn 0.25201 0.87761 0.02711 0.0
O210 O 0.25838 0.85234 0.07864 0.0
O211 O 0.31023 0.82423 0.06834 0.0
O212 O 0.20529 0.90818 0.03354 0.0
O213 O 0.34337 0.89942 0.01894 0.0
O214 O 0.28976 0.92435 0.01965 0.0
C215 C 0.28309 0.83157 0.08969 0.0
C216 C 0.26739 0.81358 0.95752 0.0
O217 O 0.24508 0.83551 0.97711 0.0
O218 O 0.29997 0.81361 0.9692 0.0
C219 C 0.18655 0.91738 0.00575 0.0
O220 O 0.19488 0.90377 0.96997 0.0
C221 C 0.32447 0.92886 0.01803 0.0
Zn222 Zn 0.08768 0.45335 0.30868 0.0
Zn223 Zn 0.13089 0.5161 0.29351 0.0
O224 O 0.09754 0.5423 0.33617 0.0
O225 O 0.06643 0.48943 0.35299 0.0
O226 O 0.16735 0.56092 0.28338 0.0
O227 O 0.13064 0.42238 0.31759 0.0
O228 O 0.16564 0.47563 0.30839 0.0
C229 C 0.07407 0.52686 0.35766 0.0
C230 C 0.0786 0.47076 0.23058 0.0
O231 O 0.10383 0.49816 0.24122 0.0
O232 O 0.06634 0.44827 0.25441 0.0
C233 C 0.18504 0.58308 0.31073 0.0
O234 O 0.1779 0.57836 0.34672 0.0
C235 C 0.16213 0.4399 0.31597 0.0
Zn236 Zn 0.80111 0.59285 0.93188 0.0
Zn237 Zn 0.79632 0.64641 0.99633 0.0
O238 O 0.83727 0.61303 0.01034 0.0
O239 O 0.84505 0.57246 0.95631 0.0
O240 O 0.79087 0.6863 0.04485 0.0
O241 O 0.80922 0.63792 0.89885 0.0
O242 O 0.81016 0.68079 0.95257 0.0
C243 C 0.85391 0.58518 0.99122 0.0
C244 C 0.73257 0.58258 0.97237 0.0
O245 O 0.74609 0.61381 0.99389 0.0
O246 O 0.75039 0.5678 0.94339 0.0
C247 C 0.79108 0.67288 0.07707 0.0
O248 O 0.79561 0.63486 0.07693 0.0
C249 C 0.81405 0.67353 0.91589 0.0
Zn250 Zn 0.82398 0.99904 0.33623 0.0
Zn251 Zn 0.86548 0.01068 0.27463 0.0
O252 O 0.83393 0.05922 0.28202 0.0
O253 O 0.79725 0.04764 0.32965 0.0
O254 O 0.89804 0.01926 0.22912 0.0
O255 O 0.86892 1.00676 0.37005 0.0
O256 O 0.90303 0.01128 0.31878 0.0
C257 C 0.80796 0.06952 0.30471 0.0
C258 C 0.81618 0.93313 0.27424 0.0
O259 O 0.83692 0.95617 0.25653 0.0
O260 O 0.80738 0.94381 0.309 0.0
C261 C 0.91172 0.98985 0.20896 0.0
O262 O 0.90381 0.95372 0.21749 0.0
C263 C 0.90011 0.01089 0.3551 0.0
Zn264 Zn 0.29501 0.09169 0.43252 0.0
Zn265 Zn 0.29131 0.14668 0.49633 0.0
O266 O 0.33249 0.11491 0.51268 0.0
O267 O 0.33449 0.06854 0.46159 0.0
O268 O 0.28183 0.18743 0.54298 0.0
O269 O 0.30775 0.13632 0.39955 0.0
O270 O 0.30653 0.18011 0.45245 0.0
C271 C 0.34575 0.08379 0.49516 0.0
C272 C 0.22625 0.08334 0.47014 0.0
O273 O 0.24138 0.11284 0.49282 0.0
O274 O 0.24296 0.06916 0.44015 0.0
C275 C 0.30122 0.19605 0.57365 0.0
O276 O 0.33228 0.17963 0.57568 0.0
C277 C 0.31217 0.17215 0.41614 0.0
Zn278 Zn 0.3306 0.50238 0.84016 0.0
Zn279 Zn 0.36934 0.509 0.77593 0.0
O280 O 0.33724 0.55728 0.78073 0.0
O281 O 0.303 0.54954 0.83122 0.0
O282 O 0.4017 0.51442 0.72963 0.0
O283 O 0.37619 0.5122 0.87287 0.0
O284 O 0.40794 0.51232 0.81947 0.0
C285 C 0.31216 0.56911 0.804 0.0
C286 C 0.32193 0.43195 0.78258 0.0
O287 O 0.34162 0.45322 0.7621 0.0
O288 O 0.31409 0.44571 0.81697 0.0
C289 C 0.39335 0.49893 0.69511 0.0
O290 O 0.36115 0.4796 0.68811 0.0
C291 C 0.4067 0.51424 0.85615 0.0
Zn292 Zn 0.81112 0.34859 0.52202 0.0
Zn293 Zn 0.7478 0.3802 0.53116 0.0
O294 O 0.75501 0.35563 0.58305 0.0
O295 O 0.80633 0.32674 0.57141 0.0
O296 O 0.70044 0.40989 0.53717 0.0
O297 O 0.83878 0.40093 0.52086 0.0
O298 O 0.78555 0.42682 0.52242 0.0
C299 C 0.7798 0.33458 0.59351 0.0
C300 C 0.76183 0.31462 0.46212 0.0
O301 O 0.74014 0.33712 0.48197 0.0
O302 O 0.7948 0.31494 0.47265 0.0
C303 C 0.68379 0.4206 0.50866 0.0
O304 O 0.69594 0.41051 0.47353 0.0
C305 C 0.82026 0.43068 0.52007 0.0
Zn306 Zn 0.58722 0.95463 0.81249 0.0
Zn307 Zn 0.62945 0.01673 0.79446 0.0
O308 O 0.59739 0.04364 0.8378 0.0
O309 O 0.56729 0.99145 0.85708 0.0
O310 O 0.66553 0.0614 0.78319 0.0
O311 O 0.63039 0.92362 0.82029 0.0
O312 O 0.66476 0.97638 0.80855 0.0
C313 C 0.57479 0.02887 0.86056 0.0
C314 C 0.57487 0.97082 0.73434 0.0
O315 O 0.60039 0.99834 0.74343 0.0
O316 O 0.56394 0.94875 0.75905 0.0
C317 C 0.68394 0.08281 0.81048 0.0
O318 O 0.67774 0.07704 0.84638 0.0
C319 C 0.66171 0.94097 0.81698 0.0
Zn320 Zn 0.99928 0.28219 0.87798 0.0
Zn321 Zn 0.00536 0.22059 0.90993 0.0
O322 O 0.04826 0.22111 0.87019 0.0
O323 O 0.03446 0.26767 0.83613 0.0
O324 O 0.01611 0.17403 0.93921 0.0
O325 O 0.01605 0.32065 0.92434 0.0
O326 O 0.00817 0.26885 0.95548 0.0
C327 C 0.05441 0.24025 0.84158 0.0
C328 C 0.93282 0.23356 0.87053 0.0
O329 O 0.95253 0.20887 0.88383 0.0
O330 O 0.94599 0.26859 0.86799 0.0
C331 C 0.02771 0.14041 0.92552 0.0
O332 O 0.03094 0.13115 0.88792 0.0
C333 C 0.01489 0.30643 0.95586 0.0
Zn334 Zn 0.49701 0.78702 0.38413 0.0
Zn335 Zn 0.50421 0.72455 0.41201 0.0
O336 O 0.54649 0.72726 0.37176 0.0
O337 O 0.53078 0.77518 0.34059 0.0
O338 O 0.51586 0.67658 0.43893 0.0
O339 O 0.51524 0.82457 0.43026 0.0
O340 O 0.5068 0.77135 0.45927 0.0
C341 C 0.55166 0.74802 0.34418 0.0
C342 C 0.43103 0.73841 0.37479 0.0
O343 O 0.45151 0.71295 0.38554 0.0
O344 O 0.44345 0.77427 0.37532 0.0
C345 C 0.52381 0.64211 0.42298 0.0
O346 O 0.52225 0.63346 0.38511 0.0
C347 C 0.514 0.80906 0.46103 0.0
Zn348 Zn 0.95682 0.83519 0.60483 0.0
Zn349 Zn 0.0125 0.81119 0.63812 0.0
O350 O 0.03507 0.86271 0.61858 0.0
O351 O 0.98578 0.88834 0.60042 0.0
O352 O 0.05318 0.79241 0.66652 0.0
O353 O 0.92396 0.82595 0.65049 0.0
O354 O 0.97294 0.8135 0.68124 0.0
C355 C 0.02013 0.89075 0.60537 0.0
C356 C 0.9819 0.76235 0.56383 0.0
O357 O 1.00267 0.76548 0.59346 0.0
O358 O 0.96035 0.78922 0.56078 0.0
C359 C 0.08253 0.78013 0.65175 0.0
O360 O 0.08888 0.78157 0.61494 0.0
C361 C 0.9387 0.81741 0.68076 0.0
Zn362 Zn 0.45785 0.33776 0.10674 0.0
Zn363 Zn 0.51374 0.31456 0.14057 0.0
O364 O 0.53594 0.3659 0.12057 0.0
O365 O 0.48661 0.39105 0.10189 0.0
O366 O 0.55499 0.29656 0.16856 0.0
O367 O 0.42531 0.32839 0.15273 0.0
O368 O 0.47436 0.31662 0.18379 0.0
C369 C 0.52094 0.39374 0.10712 0.0
C370 C 0.48313 0.26446 0.06696 0.0
O371 O 0.50398 0.26841 0.09655 0.0
O372 O 0.4616 0.29119 0.06321 0.0
C373 C 0.58442 0.28537 0.15305 0.0
O374 O 0.5896 0.28667 0.11603 0.0
C375 C 0.44006 0.32009 0.1831 0.0
C376 C 0.20824 0.75408 0.87689 0.0
C377 C 0.23318 0.74675 0.84659 0.0
C378 C 0.21945 0.77526 0.91294 0.0
C379 C 0.25619 0.78909 0.92017 0.0
H380 H 0.17955 0.74485 0.87198 0.0
H381 H 0.19914 0.78133 0.93506 0.0
S382 S 0.33237 0.77561 0.85054 0.0
N383 N 0.29598 0.75388 0.82615 0.0
N384 N 0.31783 0.79218 0.8942 0.0
C385 C 0.28171 0.78001 0.89057 0.0
C386 C 0.27005 0.75906 0.85373 0.0
C387 C 0.01748 0.55527 0.4455 0.0
C388 C 0.99451 0.58201 0.43255 0.0
C389 C 0.04576 0.54006 0.42234 0.0
C390 C 0.05261 0.55195 0.38592 0.0
H391 H 0.01106 0.54301 0.4719 0.0
H392 H 0.06066 0.51675 0.43177 0.0
S393 S 1.00371 0.62617 0.3419 0.0
N394 N 0.98273 0.62306 0.38335 0.0
N395 N 0.03701 0.59584 0.34018 0.0
C396 C 0.03246 0.58208 0.37466 0.0
C397 C 1.00313 0.59691 0.39801 0.0
C398 C 0.81781 0.73614 0.83311 0.0
C399 C 0.83518 0.77274 0.85027 0.0
C400 C 0.81261 0.7035 0.85388 0.0
C401 C 0.82391 0.70663 0.89291 0.0
H402 H 0.80545 0.73392 0.80466 0.0
H403 H 0.79754 0.67654 0.84004 0.0
S404 S 0.87534 0.7946 0.94889 0.0
N405 N 0.86743 0.80875 0.90653 0.0
N406 N 0.85722 0.74817 0.94603 0.0
C407 C 0.84371 0.7422 0.90927 0.0
C408 C 0.84961 0.77494 0.88777 0.0
C409 C 0.99671 1.00196 0.39003 0.0
C410 C 0.99488 0.01655 0.42964 0.0
C411 C 0.96625 1.0014 0.36558 0.0
C412 C 0.93299 0.01494 0.38023 0.0
H413 H 0.02144 0.9898 0.3783 0.0
H414 H 0.96836 0.98894 0.3354 0.0
S415 S 0.91629 0.06033 0.48126 0.0
N416 N 0.95897 0.04826 0.4817 0.0
N417 N 0.90136 0.04653 0.43638 0.0
C418 C 0.93154 0.03107 0.4196 0.0
C419 C 0.9626 0.03206 0.44415 0.0
C420 C 0.28565 0.23458 0.67965 0.0
C421 C 0.25128 0.24978 0.67869 0.0
C422 C 0.30279 0.21942 0.64529 0.0
C423 C 0.28596 0.21886 0.60884 0.0
H424 H 0.29824 0.23228 0.7072 0.0
H425 H 0.32845 0.20615 0.64753 0.0
S426 S 0.19811 0.26142 0.59165 0.0
N427 N 0.20291 0.26797 0.63919 0.0
N428 N 0.23457 0.23961 0.57441 0.0
C429 C 0.25268 0.23686 0.60775 0.0
C430 C 0.23546 0.25227 0.64275 0.0
C431 C 0.48309 0.51899 0.64402 0.0
C432 C 0.47453 0.50488 0.60511 0.0
C433 C 0.45659 0.51726 0.6728 0.0
C434 C 0.42056 0.50109 0.6637 0.0
H435 H 0.51039 0.53183 0.65207 0.0
H436 H 0.46455 0.52858 0.70243 0.0
S437 S 0.38526 0.45937 0.56531 0.0
N438 N 0.42846 0.47378 0.55856 0.0
N439 N 0.37829 0.47031 0.61223 0.0
C440 C 0.41193 0.48661 0.6246 0.0
C441 C 0.439 0.48854 0.59543 0.0
C442 C 0.80499 0.27372 0.67148 0.0
C443 C 0.78138 0.28515 0.70177 0.0
C444 C 0.80383 0.28987 0.6369 0.0
C445 C 0.77886 0.31821 0.63097 0.0
H446 H 0.82419 0.25163 0.67448 0.0
H447 H 0.8227 0.27963 0.61449 0.0
S448 S 0.71163 0.35848 0.70266 0.0
N449 N 0.73282 0.3267 0.72479 0.0
N450 N 0.73015 0.35723 0.6594 0.0
C451 C 0.75505 0.32998 0.66137 0.0
C452 C 0.75644 0.31344 0.69684 0.0
C453 C 0.54438 0.99299 0.63596 0.0
C454 C 0.51559 0.96371 0.62563 0.0
C455 C 0.5645 0.99408 0.67031 0.0
C456 C 0.55636 0.96599 0.69577 0.0
H457 H 0.55035 0.01612 0.61799 0.0
H458 H 0.58561 0.01807 0.67761 0.0
S459 S 0.48469 0.88149 0.67976 0.0
N460 N 0.48085 0.90506 0.64193 0.0
N461 N 0.51869 0.90608 0.70618 0.0
C462 C 0.52863 0.93528 0.6845 0.0
C463 C 0.50826 0.93436 0.6495 0.0
C464 C 0.85852 0.19945 0.79633 0.0
C465 C 0.83122 0.22499 0.80919 0.0
C466 C 0.89008 0.19807 0.819 0.0
C467 C 0.89531 0.22249 0.85502 0.0
H468 H 0.85675 0.18299 0.76737 0.0
H469 H 0.91194 0.18081 0.80665 0.0
S470 S 0.83 0.29142 0.90267 0.0
N471 N 0.80987 0.27227 0.86114 0.0
N472 N 0.86902 0.27031 0.90355 0.0
C473 C 0.86681 0.24575 0.86917 0.0
C474 C 0.83478 0.24685 0.8463 0.0
C475 C 0.47712 0.86804 0.54941 0.0
C476 C 0.49894 0.90425 0.55162 0.0
C477 C 0.48514 0.8344 0.52328 0.0
C478 C 0.51481 0.83644 0.49803 0.0
H479 H 0.45162 0.86715 0.56494 0.0
H480 H 0.46564 0.80849 0.51971 0.0
S481 S 0.58343 0.92233 0.49734 0.0
N482 N 0.55403 0.9383 0.53075 0.0
N483 N 0.56895 0.87565 0.48093 0.0
C484 C 0.53897 0.87106 0.50313 0.0
C485 C 0.53109 0.90489 0.53019 0.0
C486 C 0.15247 0.22728 0.81194 0.0
C487 C 0.15317 0.23907 0.77495 0.0
C488 C 0.11967 0.22447 0.83245 0.0
C489 C 0.08676 0.23411 0.81675 0.0
H490 H 0.17775 0.22203 0.82566 0.0
H491 H 0.12057 0.21731 0.86167 0.0
S492 S 0.07417 0.26324 0.71937 0.0
N493 N 0.11831 0.25781 0.72246 0.0
N494 N 0.0566 0.2525 0.76051 0.0
C495 C 0.08699 0.24368 0.7788 0.0
C496 C 0.12025 0.24622 0.758 0.0
C497 C 0.52635 0.54183 0.45972 0.0
C498 C 0.54264 0.55215 0.4966 0.0
C499 C 0.52233 0.57068 0.43508 0.0
C500 C 0.53324 0.61129 0.44704 0.0
H501 H 0.51398 0.51186 0.45119 0.0
H502 H 0.50822 0.56152 0.40765 0.0
S503 S 0.58012 0.65305 0.53972 0.0
N504 N 0.5724 0.60493 0.54248 0.0
N505 N 0.564 0.65955 0.49707 0.0
C506 C 0.55144 0.62155 0.48296 0.0
C507 C 0.55643 0.5919 0.50744 0.0
C508 C 0.85474 0.79344 0.73943 0.0
C509 C 0.86552 0.80861 0.77766 0.0
C510 C 0.87906 0.79501 0.70855 0.0
C511 C 0.91547 0.81098 0.71472 0.0
H512 H 0.8263 0.7839 0.73305 0.0
H513 H 0.86877 0.78517 0.67941 0.0
S514 S 0.95848 0.8494 0.81019 0.0
N515 N 0.91562 0.83677 0.82047 0.0
N516 N 0.9621 0.83803 0.76279 0.0
C517 C 0.92753 0.82264 0.75325 0.0
C518 C 0.9024 0.82173 0.78463 0.0
C519 C 0.04375 0.98982 0.57115 0.0
C520 C 0.06423 0.97857 0.53782 0.0
C521 C 0.03233 0.9621 0.59581 0.0
C522 C 0.04238 0.92259 0.58896 0.0
H523 H 0.03209 0.01848 0.57491 0.0
H524 H 0.01296 0.97064 0.61831 0.0
S525 S 0.1023 0.88083 0.51046 0.0
N526 N 0.09839 0.9272 0.50257 0.0
N527 N 0.07897 0.87557 0.55011 0.0
C528 C 0.06725 0.91275 0.55908 0.0
C529 C 0.07798 0.94078 0.53337 0.0
C530 C 0.17218 0.75201 0.69031 0.0
C531 C 0.16187 0.74053 0.72602 0.0
C532 C 0.14616 0.76383 0.6657 0.0
C533 C 0.10921 0.76466 0.67637 0.0
H534 H 0.20062 0.753 0.68207 0.0
H535 H 0.15524 0.77355 0.63882 0.0
S536 S 0.06858 0.73226 0.76532 0.0
N537 N 0.11264 0.72693 0.76945 0.0
N538 N 0.06349 0.74935 0.72384 0.0
C539 C 0.0986 0.75145 0.71146 0.0
C540 C 0.12503 0.7393 0.73615 0.0
C541 C 0.98589 0.65361 0.52103 0.0
C542 C 0.96513 0.651 0.48693 0.0
C543 C 0.99366 0.69045 0.54452 0.0
C544 C 0.98038 0.72571 0.53481 0.0
H545 H 0.99336 0.62657 0.53114 0.0
H546 H 0.00778 0.6907 0.57179 0.0
S547 S 0.92954 0.73448 0.44488 0.0
N548 N 0.93521 0.68634 0.44209 0.0
N549 N 0.94973 0.7559 0.48566 0.0
C550 C 0.96241 0.72367 0.49885 0.0
C551 C 0.95483 0.68618 0.47502 0.0
C552 C 0.75169 0.85598 0.21557 0.0
C553 C 0.75822 0.82121 0.23121 0.0
C554 C 0.77314 0.89188 0.22681 0.0
C555 C 0.80118 0.894 0.25457 0.0
H556 H 0.72802 0.85609 0.1971 0.0
H557 H 0.76576 0.91876 0.21627 0.0
S558 S 0.83101 0.81027 0.30111 0.0
N559 N 0.79648 0.79015 0.27275 0.0
N560 N 0.83631 0.85772 0.2948 0.0
C561 C 0.80952 0.85878 0.26823 0.0
C562 C 0.78818 0.82224 0.25619 0.0
C563 C 0.73975 0.14924 0.32182 0.0
C564 C 0.75093 0.17545 0.2958 0.0
C565 C 0.75885 0.11556 0.32504 0.0
C566 C 0.78979 0.10687 0.30222 0.0
H567 H 0.71516 0.15389 0.33843 0.0
H568 H 0.74855 0.09561 0.34482 0.0
S569 S 0.83183 0.1697 0.23268 0.0
N570 N 0.79598 0.19306 0.24929 0.0
N571 N 0.83208 0.12985 0.25484 0.0
C572 C 0.80208 0.13423 0.27736 0.0
C573 C 0.78261 0.1685 0.2743 0.0
C574 C 0.34744 0.0238 0.97503 0.0
C575 C 0.38362 0.03388 0.98764 0.0
C576 C 0.32722 0.99107 0.98716 0.0
C577 C 0.34306 0.96737 0.01165 0.0
H578 H 0.33539 0.04034 0.95461 0.0
H579 H 0.29989 0.98293 0.97555 0.0
S580 S 0.43589 0.98507 0.05556 0.0
N581 N 0.4334 0.02071 0.02825 0.0
N582 N 0.39601 0.95873 0.05066 0.0
C583 C 0.37868 0.97874 0.0259 0.0
C584 C 0.39885 0.01218 0.01395 0.0
C585 C 0.26034 0.41909 0.33474 0.0
C586 C 0.25916 0.37732 0.32673 0.0
C587 C 0.22873 0.43925 0.33156 0.0
C588 C 0.1949 0.41812 0.32074 0.0
H589 H 0.28595 0.43612 0.34312 0.0
H590 H 0.23081 0.47156 0.33763 0.0
S591 S 0.17855 0.30804 0.29548 0.0
N592 N 0.2225 0.31548 0.30644 0.0
N593 N 0.16275 0.35276 0.30131 0.0
C594 C 0.1936 0.37613 0.31294 0.0
C595 C 0.22584 0.35587 0.3157 0.0
C596 C 0.14187 0.00982 0.46356 0.0
C597 C 0.11778 0.02877 0.49004 0.0
C598 C 0.17709 0.02717 0.45821 0.0
C599 C 0.18971 0.06441 0.4791 0.0
H600 H 0.13232 0.98276 0.44483 0.0
H601 H 0.19403 0.01182 0.43643 0.0
S602 S 0.13742 0.12469 0.55414 0.0
N603 N 0.10909 0.08541 0.53875 0.0
N604 N 0.17551 0.11815 0.52965 0.0
C605 C 0.16646 0.0825 0.50745 0.0
C606 C 0.13049 0.06466 0.51269 0.0
C607 C 0.74153 0.18174 0.8205 0.0
C608 C 0.75783 0.1805 0.7841 0.0
C609 C 0.71876 0.14921 0.82952 0.0
C610 C 0.71119 0.11483 0.80206 0.0
H611 H 0.74481 0.2088 0.84117 0.0
H612 H 0.70557 0.15187 0.85741 0.0
S613 S 0.75179 0.09561 0.70454 0.0
N614 N 0.76859 0.1411 0.72227 0.0
N615 N 0.72521 0.08023 0.73848 0.0
C616 C 0.72922 0.11258 0.76639 0.0
C617 C 0.75278 0.14535 0.75763 0.0
C618 C 0.38756 1.0012 0.53729 0.0
C619 C 0.42308 0.01767 0.54753 0.0
C620 C 0.36257 0.02321 0.52082 0.0
C621 C 0.37194 0.0628 0.51503 0.0
H622 H 0.3794 0.97073 0.54126 0.0
H623 H 0.33576 0.00908 0.51231 0.0
S624 S 0.46105 0.12003 0.53757 0.0
N625 N 0.46644 0.07582 0.55049 0.0
N626 N 0.41853 0.11809 0.52149 0.0
C627 C 0.40681 0.08023 0.52643 0.0
C628 C 0.43264 0.05744 0.5423 0.0
C629 C 0.61749 0.49335 0.5569 0.0
C630 C 0.58853 0.49007 0.52988 0.0
C631 C 0.64821 0.47112 0.54977 0.0
C632 C 0.65165 0.44521 0.51491 0.0
H633 H 0.61533 0.51171 0.5847 0.0
H634 H 0.66918 0.47385 0.572 0.0
S635 S 0.58412 0.42731 0.43391 0.0
N636 N 0.5656 0.45951 0.46676 0.0
N637 N 0.62389 0.41919 0.45222 0.0
C638 C 0.62374 0.44333 0.48677 0.0
C639 C 0.59214 0.46546 0.49446 0.0
C640 C 0.76506 0.25952 0.3598 0.0
C641 C 0.72831 0.24726 0.35146 0.0
C642 C 0.77572 0.28009 0.39626 0.0
C643 C 0.74984 0.28959 0.42537 0.0
H644 H 0.78527 0.2552 0.33732 0.0
H645 H 0.80426 0.2903 0.40097 0.0
S646 S 0.65084 0.25842 0.41906 0.0
N647 N 0.66671 0.24121 0.37615 0.0
N648 N 0.68636 0.2812 0.44435 0.0
C649 C 0.71327 0.27536 0.41792 0.0
C650 C 0.70263 0.25372 0.38107 0.0
C651 C 0.51848 0.05925 0.94804 0.0
C652 C 0.4955 0.08558 0.93439 0.0
C653 C 0.5468 0.04363 0.92524 0.0
C654 C 0.55366 0.05469 0.88849 0.0
H655 H 0.51189 0.04741 0.97462 0.0
H656 H 0.56163 0.02053 0.93518 0.0
S657 S 0.50492 0.12786 0.84277 0.0
N658 N 0.48386 0.12559 0.88431 0.0
N659 N 0.53821 0.09759 0.84176 0.0
C660 C 0.53361 0.08457 0.87658 0.0
C661 C 0.50424 0.09983 0.89958 0.0
C662 C 0.31806 0.23451 0.3332 0.0
C663 C 0.33519 0.27113 0.35071 0.0
C664 C 0.31249 0.20179 0.35384 0.0
C665 C 0.32314 0.20487 0.39305 0.0
H666 H 0.30606 0.23238 0.30459 0.0
H667 H 0.29749 0.17489 0.33978 0.0
S668 S 0.37385 0.29274 0.44999 0.0
N669 N 0.36667 0.30699 0.40751 0.0
N670 N 0.35571 0.24629 0.44675 0.0
C671 C 0.34283 0.24039 0.40975 0.0
C672 C 0.34914 0.27318 0.3884 0.0
C673 C 0.46981 0.53331 0.94359 0.0
C674 C 0.50248 0.51868 0.92901 0.0
C675 C 0.43935 0.53281 0.91946 0.0
C676 C 0.44058 0.51789 0.87976 0.0
H677 H 0.46762 0.54418 0.97414 0.0
H678 H 0.41445 0.5436 0.93222 0.0
S679 S 0.5206 0.47699 0.82766 0.0
N680 N 0.53494 0.48938 0.87292 0.0
N681 N 0.47793 0.48916 0.82687 0.0
C682 C 0.47371 0.50449 0.86458 0.0
C683 C 0.50462 0.50468 0.88941 0.0
C684 C 0.74853 0.75313 0.14619 0.0
C685 C 0.75116 0.73885 0.18179 0.0
C686 C 0.76354 0.73303 0.11257 0.0
C687 C 0.78146 0.69789 0.1136 0.0
H688 H 0.73278 0.77842 0.14395 0.0
H689 H 0.75917 0.74381 0.08533 0.0
S690 S 0.80035 0.65281 0.20174 0.0
N691 N 0.77643 0.69105 0.21742 0.0
N692 N 0.80485 0.65301 0.15471 0.0
C693 C 0.78656 0.68532 0.14987 0.0
C694 C 0.77134 0.70588 0.18387 0.0
C695 C 0.96638 0.96759 0.11704 0.0
C696 C 0.9858 1.0043 0.1143 0.0
C697 C 0.9424 0.96332 0.14768 0.0
C698 C 0.93663 0.99578 0.17645 0.0
H699 H 0.96965 0.94212 0.09517 0.0
H700 H 0.92807 0.93437 0.14863 0.0
S701 S 0.98215 0.09805 0.18248 0.0
N702 N 0.99886 0.07328 0.14305 0.0
N703 N 0.95305 0.06591 0.20019 0.0
C704 C 0.95584 0.0328 0.17375 0.0
C705 C 0.9806 0.0369 0.14278 0.0
C706 C 0.30725 0.77164 0.16882 0.0
C707 C 0.28271 0.78269 0.19831 0.0
C708 C 0.30669 0.78753 0.13405 0.0
C709 C 0.28141 0.81521 0.12715 0.0
H710 H 0.3268 0.75014 0.17265 0.0
H711 H 0.32631 0.77768 0.1123 0.0
S712 S 0.21161 0.8541 0.19645 0.0
N713 N 0.23279 0.82302 0.21948 0.0
N714 N 0.23128 0.85309 0.15378 0.0
C715 C 0.2566 0.82652 0.15672 0.0
C716 C 0.25738 0.81024 0.19237 0.0
C717 C 0.01135 0.43774 0.14725 0.0
C718 C 0.02295 0.46203 0.11968 0.0
C719 C 0.03042 0.43964 0.18231 0.0
C720 C 0.06184 0.46609 0.19116 0.0
H721 H 0.98611 0.41892 0.14255 0.0
H722 H 0.01942 0.42142 0.20328 0.0
S723 S 0.10622 0.53132 0.12501 0.0
N724 N 0.06974 0.5095 0.10079 0.0
N725 N 0.10578 0.51377 0.16678 0.0
C726 C 0.07502 0.48857 0.1624 0.0
C727 C 0.05555 0.48635 0.12663 0.0
C728 C 0.33541 0.75352 0.34477 0.0
C729 C 0.33085 0.72751 0.30982 0.0
C730 C 0.36641 0.7536 0.36829 0.0
C731 C 0.39393 0.72743 0.35785 0.0
H732 H 0.31631 0.7761 0.35227 0.0
H733 H 0.37027 0.77643 0.39331 0.0
S734 S 0.39274 0.65081 0.27079 0.0
N735 N 0.35452 0.67286 0.26724 0.0
N736 N 0.41279 0.67249 0.31162 0.0
C737 C 0.38806 0.69893 0.3246 0.0
C738 C 0.3565 0.69914 0.30047 0.0
C739 C 0.9815 0.36445 0.04743 0.0
C740 C 1.00109 0.40174 0.04752 0.0
C741 C 0.98906 0.33134 0.02029 0.0
C742 C 0.01617 0.33492 0.99225 0.0
H743 H 0.95787 0.36209 0.06574 0.0
H744 H 0.9711 0.30428 0.01867 0.0
S745 S 0.07939 0.42422 0.98566 0.0
N746 N 0.052 0.43863 0.02161 0.0
N747 N 0.06631 0.37689 0.97045 0.0
C748 C 0.03854 0.3708 0.99517 0.0
C749 C 0.03104 0.40412 0.02298 0.0
C750 C 0.61667 0.76726 0.26372 0.0
C751 C 0.64747 0.74822 0.27236 0.0
C752 C 0.58511 0.76488 0.28586 0.0
C753 C 0.58331 0.74367 0.31784 0.0
H754 H 0.61764 0.78537 0.24054 0.0
H755 H 0.56247 0.78122 0.27863 0.0
S756 S 0.65665 0.68602 0.35004 0.0
N757 N 0.67426 0.70547 0.31274 0.0
N758 N 0.61486 0.70085 0.35504 0.0
C759 C 0.61353 0.72265 0.32541 0.0
C760 C 0.64569 0.72504 0.30253 0.0
C761 C 0.0382 0.04268 0.96553 0.0
C762 C 0.04841 0.05579 1.00431 0.0
C763 C 0.03326 0.07016 0.93959 0.0
C764 C 0.03741 0.11175 0.95188 0.0
H765 H 0.03135 0.01119 0.95606 0.0
H766 H 0.02393 0.05876 0.91041 0.0
S767 S 0.06805 0.16072 0.04962 0.0
N768 N 0.06605 0.11247 0.05266 0.0
N769 N 0.05606 0.16419 1.00471 0.0
C770 C 0.04984 0.12495 0.99001 0.0
C771 C 0.05561 0.09697 0.01594 0.0
C772 C 0.35625 0.2935 0.24096 0.0
C773 C 0.36653 0.30871 0.27932 0.0
C774 C 0.38068 0.296 0.21031 0.0
C775 C 0.41674 0.31302 0.21683 0.0
H776 H 0.32801 0.28321 0.2343 0.0
H777 H 0.37073 0.28601 0.18106 0.0
S778 S 0.45846 0.35234 0.31272 0.0
N779 N 0.41582 0.33826 0.32259 0.0
N780 N 0.46255 0.34131 0.26534 0.0
C781 C 0.42838 0.32486 0.25546 0.0
C782 C 0.40312 0.32298 0.28662 0.0
C783 C 0.58062 0.44157 0.03594 0.0
C784 C 0.568 0.47999 0.03918 0.0
C785 C 0.56873 0.41481 0.06158 0.0
C786 C 0.5433 0.42551 0.09074 0.0
H787 H 0.59598 0.43054 0.01073 0.0
H788 H 0.5762 0.38427 0.05572 0.0
S789 S 0.50784 0.52508 0.11557 0.0
N790 N 0.53411 0.52945 0.07778 0.0
N791 N 0.51051 0.47898 0.12486 0.0
C792 C 0.53401 0.46523 0.09693 0.0
C793 C 0.54699 0.49263 0.07162 0.0
C794 C 0.62627 0.24651 0.23765 0.0
C795 C 0.66318 0.24554 0.22782 0.0
C796 C 0.60104 0.25875 0.21284 0.0
C797 C 0.61182 0.2703 0.17711 0.0
H798 H 0.61708 0.23832 0.26511 0.0
H799 H 0.57288 0.25948 0.222 0.0
S800 S 0.70576 0.27172 0.13792 0.0
N801 N 0.70968 0.25619 0.18036 0.0
N802 N 0.66211 0.27878 0.13279 0.0
C803 C 0.64866 0.26823 0.16642 0.0
C804 C 0.67441 0.25593 0.19203 0.0
C805 C 0.45311 0.18882 0.98007 0.0
C806 C 0.46543 0.15336 0.98965 0.0
C807 C 0.46107 0.22526 1.00399 0.0
C808 C 0.48157 0.22739 0.03844 0.0
H809 H 0.43471 0.18769 0.95565 0.0
H810 H 0.44922 0.25147 0.99651 0.0
S811 S 0.52373 0.14269 0.07321 0.0
N812 N 0.50155 0.12244 0.03321 0.0
N813 N 0.51747 0.19085 0.07826 0.0
C814 C 0.4967 0.19239 0.04638 0.0
C815 C 0.48837 0.15534 0.02194 0.0
C816 C 0.2657 0.34655 0.72311 0.0
C817 C 0.26679 0.31624 0.74657 0.0
C818 C 0.28618 0.38342 0.73303 0.0
C819 C 0.30773 0.39094 0.76699 0.0
H820 H 0.24683 0.34279 0.6988 0.0
H821 H 0.28293 0.40708 0.7158 0.0
S822 S 0.32399 0.31872 0.83414 0.0
N823 N 0.29479 0.29404 0.80166 0.0
N824 N 0.33235 0.36345 0.82115 0.0
C825 C 0.31117 0.35965 0.78872 0.0
C826 C 0.29099 0.32216 0.77821 0.0
C827 C 0.24409 0.64908 0.81978 0.0
C828 C 0.2536 0.6732 0.79143 0.0
C829 C 0.26358 0.61592 0.82394 0.0
C830 C 0.29331 0.60565 0.79981 0.0
H831 H 0.22054 0.65499 0.83773 0.0
H832 H 0.2546 0.59769 0.84571 0.0
S833 S 0.33087 0.66277 0.72365 0.0
N834 N 0.29583 0.68716 0.74096 0.0
N835 N 0.33263 0.62486 0.7483 0.0
C836 C 0.30389 0.63085 0.77235 0.0
C837 C 0.284 0.66462 0.76831 0.0
C838 C 0.84542 0.52366 0.47463 0.0
C839 C 0.88169 0.53313 0.48726 0.0
C840 C 0.82436 0.49194 0.48762 0.0
C841 C 0.83941 0.4687 0.51307 0.0
H842 H 0.83394 0.53984 0.45355 0.0
H843 H 0.79702 0.48411 0.47593 0.0
S844 S 0.9321 0.48525 0.55738 0.0
N845 N 0.9307 0.51996 0.52885 0.0
N846 N 0.89171 0.45994 0.55294 0.0
C847 C 0.8751 0.47957 0.52734 0.0
C848 C 0.89614 0.51194 0.51447 0.0
C849 C 0.76048 0.92054 0.83335 0.0
C850 C 0.75923 0.87872 0.82601 0.0
C851 C 0.72873 0.94061 0.83062 0.0
C852 C 0.69472 0.91934 0.82097 0.0
H853 H 0.7862 0.93766 0.84092 0.0
H854 H 0.73082 0.97294 0.83622 0.0
S855 S 0.67816 0.80913 0.79757 0.0
N856 N 0.72232 0.81671 0.8074 0.0
N857 N 0.66235 0.85384 0.80315 0.0
C858 C 0.69339 0.87733 0.81373 0.0
C859 C 0.72574 0.85716 0.816 0.0
C860 C 0.63623 0.56837 0.0122 0.0
C861 C 0.62348 0.53041 0.99343 0.0
C862 C 0.67202 0.58443 0.00658 0.0
C863 C 0.69616 0.56333 0.98134 0.0
H864 H 0.61748 0.58688 0.02896 0.0
H865 H 0.68006 0.61446 0.02045 0.0
S866 S 0.67639 0.46076 0.92856 0.0
N867 N 0.63812 0.47097 0.95138 0.0
N868 N 0.70525 0.50039 0.94056 0.0
C869 C 0.68422 0.52419 0.96442 0.0
C870 C 0.64798 0.50793 0.97059 0.0
C871 C 0.24201 0.68231 0.31906 0.0
C872 C 0.25915 0.67995 0.28302 0.0
C873 C 0.21922 0.65005 0.32864 0.0
C874 C 0.2125 0.61481 0.30211 0.0
H875 H 0.24462 0.71001 0.33889 0.0
H876 H 0.20529 0.65357 0.35612 0.0
S877 S 0.25569 0.59252 0.20622 0.0
N878 N 0.27173 0.6386 0.2228 0.0
N879 N 0.22837 0.57819 0.24005 0.0
C880 C 0.23147 0.61144 0.26696 0.0
C881 C 0.25502 0.64397 0.25765 0.0
C882 C 0.93613 0.52761 0.00518 0.0
C883 C 0.93177 0.51898 0.04313 0.0
C884 C 0.91136 0.55011 0.98888 0.0
C885 C 0.88184 0.56536 0.01032 0.0
H886 H 0.95824 0.51578 0.98772 0.0
H887 H 0.91504 0.5551 0.95913 0.0
S888 S 0.85874 0.55073 0.11102 0.0
N889 N 0.8958 0.52654 0.1015 0.0
N890 N 0.84998 0.57043 0.07172 0.0
C891 C 0.87795 0.55793 0.04879 0.0
C892 C 0.90274 0.53428 0.065 0.0
C893 C 0.09436 0.96078 0.99691 0.0
C894 C 0.09387 0.98979 0.02987 0.0
C895 C 0.12498 0.93849 0.98848 0.0
C896 C 0.15578 0.94367 0.01337 0.0
H897 H 0.07008 0.95362 0.97892 0.0
H898 H 0.1237 0.91558 0.96341 0.0
S899 S 0.16904 0.019 0.1013 0.0
N900 N 0.12779 0.02515 0.08539 0.0
N901 N 0.18482 0.98281 0.07053 0.0
C902 C 0.1562 0.97413 0.04531 0.0
C903 C 0.12546 0.99737 0.05321 0.0
loop_
_geom_bond_atom_site_label_1
_geom_bond_atom_site_label_2
_geom_bond_distance
_geom_bond_site_symmetry_2
_ccdc_geom_bond_type
C0 N1 1.317 1_565 S
C0 N2 1.348 1_465 S
C0 C3 1.485 . S
N1 C0 1.317 1_545 S
N1 N5 1.370 . S
N2 C0 1.348 1_645 S
N2 C4 1.346 . S
C3 C0 1.485 . S
C3 H7 0.960 . S
C3 H8 0.961 . S
C3 H9 0.960 . S
C4 N2 1.346 . S
C4 N5 1.307 1_655 S
C4 C6 1.486 . S
N5 N1 1.370 . S
N5 C4 1.307 1_455 S
C6 C4 1.486 . S
C6 H10 0.960 . S
C6 H11 0.960 . S
C6 H12 0.959 . S
H7 C3 0.960 . S
H8 C3 0.961 . S
H9 C3 0.960 . S
H10 C6 0.960 . S
H11 C6 0.960 . S
H12 C6 0.959 . S
C13 N14 1.317 . S
C13 N15 1.348 . S
C13 C16 1.485 . S
N14 C13 1.317 . S
N14 N18 1.370 . S
N15 C13 1.348 . S
N15 C17 1.346 . S
C16 C13 1.485 . S
C16 H20 0.960 . S
C16 H21 0.961 . S
C16 H22 0.960 . S
C17 N15 1.346 . S
C17 N18 1.307 . S
C17 C19 1.486 . S
N18 N14 1.370 . S
N18 C17 1.307 . S
C19 C17 1.486 . S
C19 H23 0.960 . S
C19 H24 0.960 . S
C19 H25 0.959 . S
H20 C16 0.960 . S
H21 C16 0.961 . S
H22 C16 0.960 . S
H23 C19 0.960 . S
H24 C19 0.960 . S
H25 C19 0.959 . S
C26 N27 1.317 . S
C26 N28 1.348 . S
C26 C29 1.485 . S
N27 C26 1.317 . S
N27 N31 1.370 . S
N28 C26 1.348 . S
N28 C30 1.346 . S
C29 C26 1.485 . S
C29 H33 0.960 . S
C29 H34 0.961 . S
C29 H35 0.960 . S
C30 N28 1.346 . S
C30 N31 1.307 . S
C30 C32 1.486 . S
N31 N27 1.370 . S
N31 C30 1.307 . S
C32 C30 1.486 . S
C32 H36 0.960 1_554 S
C32 H37 0.960 . S
C32 H38 0.959 . S
H33 C29 0.960 . S
H34 C29 0.961 . S
H35 C29 0.960 . S
H36 C32 0.960 1_556 S
H37 C32 0.960 . S
H38 C32 0.959 . S
C39 N40 1.317 . S
C39 N41 1.348 . S
C39 C42 1.485 . S
N40 C39 1.317 . S
N40 N44 1.370 . S
N41 C39 1.348 . S
N41 C43 1.346 . S
C42 C39 1.485 . S
C42 H46 0.960 . S
C42 H47 0.961 . S
C42 H48 0.960 . S
C43 N41 1.346 . S
C43 N44 1.307 . S
C43 C45 1.486 . S
N44 N40 1.370 . S
N44 C43 1.307 . S
C45 C43 1.486 . S
C45 H49 0.960 . S
C45 H50 0.960 . S
C45 H51 0.959 . S
H46 C42 0.960 . S
H47 C42 0.961 . S
H48 C42 0.960 . S
H49 C45 0.960 . S
H50 C45 0.960 . S
H51 C45 0.959 . S
C52 N53 1.317 . S
C52 N54 1.348 . S
C52 C55 1.485 1_455 S
N53 C52 1.317 . S
N53 N57 1.370 . S
N54 C52 1.348 . S
N54 C56 1.346 . S
C55 C52 1.485 1_655 S
C55 H59 0.958 1_655 S
C55 H60 0.961 . S
C55 H61 0.960 . S
C56 N54 1.346 . S
C56 N57 1.307 . S
C56 C58 1.486 1_565 S
N57 N53 1.370 . S
N57 C56 1.307 . S
C58 C56 1.486 1_545 S
C58 H62 0.960 . S
C58 H63 0.960 . S
C58 H64 0.959 . S
H59 C55 0.958 1_455 S
H60 C55 0.961 . S
H61 C55 0.960 . S
H62 C58 0.960 . S
H63 C58 0.960 . S
H64 C58 0.959 . S
C65 N66 1.317 . S
C65 N67 1.348 . S
C65 C68 1.485 . S
N66 C65 1.317 . S
N66 N70 1.370 . S
N67 C65 1.348 . S
N67 C69 1.346 . S
C68 C65 1.485 . S
C68 H72 0.960 . S
C68 H73 0.961 . S
C68 H74 0.960 . S
C69 N67 1.346 . S
C69 N70 1.307 . S
C69 C71 1.486 . S
N70 N66 1.370 . S
N70 C69 1.307 . S
C71 C69 1.486 . S
C71 H75 0.960 . S
C71 H76 0.960 . S
C71 H77 0.959 . S
H72 C68 0.960 . S
H73 C68 0.961 . S
H74 C68 0.960 . S
H75 C71 0.960 . S
H76 C71 0.960 . S
H77 C71 0.959 . S
C78 N79 1.317 . S
C78 N80 1.348 . S
C78 C81 1.485 . S
N79 C78 1.317 . S
N79 N83 1.370 . S
N80 C78 1.348 . S
N80 C82 1.346 . S
C81 C78 1.485 . S
C81 H85 0.960 . S
C81 H86 0.961 . S
C81 H87 0.960 . S
C82 N80 1.346 . S
C82 N83 1.307 . S
C82 C84 1.486 . S
N83 N79 1.370 . S
N83 C82 1.307 . S
C84 C82 1.486 . S
C84 H88 0.960 . S
C84 H89 0.960 . S
C84 H90 0.959 . S
H85 C81 0.960 . S
H86 C81 0.961 . S
H87 C81 0.960 . S
H88 C84 0.960 . S
H89 C84 0.960 . S
H90 C84 0.959 . S
C91 N92 1.317 . S
C91 N93 1.348 . S
C91 C94 1.485 . S
N92 C91 1.317 . S
N92 N96 1.370 . S
N93 C91 1.348 . S
N93 C95 1.346 . S
C94 C91 1.485 . S
C94 H98 0.960 . S
C94 H99 0.961 . S
C94 H100 0.960 . S
C95 N93 1.346 . S
C95 N96 1.307 . S
C95 C97 1.486 . S
N96 N92 1.370 . S
N96 C95 1.307 . S
C97 C95 1.486 . S
C97 H101 0.960 . S
C97 H102 0.960 . S
C97 H103 0.959 . S
H98 C94 0.960 . S
H99 C94 0.961 . S
H100 C94 0.960 . S
H101 C97 0.960 . S
H102 C97 0.960 . S
H103 C97 0.959 . S
C104 N105 1.317 . S
C104 N106 1.348 . S
C104 C107 1.485 . S
N105 C104 1.317 . S
N105 N109 1.370 . S
N106 C104 1.348 . S
N106 C108 1.346 . S
C107 C104 1.485 . S
C107 H111 0.960 . S
C107 H112 0.961 . S
C107 H113 0.960 . S
C108 N106 1.346 . S
C108 N109 1.307 . S
C108 C110 1.486 . S
N109 N105 1.370 . S
N109 C108 1.307 . S
C110 C108 1.486 . S
C110 H114 0.960 . S
C110 H115 0.960 . S
C110 H116 0.959 . S
H111 C107 0.960 . S
H112 C107 0.961 . S
H113 C107 0.960 . S
H114 C110 0.960 . S
H115 C110 0.960 . S
H116 C110 0.959 . S
C117 N118 1.317 . S
C117 N119 1.348 . S
C117 C120 1.485 1_565 S
N118 C117 1.317 . S
N118 N122 1.370 . S
N119 C117 1.348 . S
N119 C121 1.346 . S
C120 C117 1.485 1_545 S
C120 H124 0.960 . S
C120 H125 0.961 . S
C120 H126 0.960 . S
C121 N119 1.346 . S
C121 N122 1.307 . S
C121 C123 1.486 . S
N122 N118 1.370 . S
N122 C121 1.307 . S
C123 C121 1.486 . S
C123 H127 0.960 . S
C123 H128 0.960 . S
C123 H129 0.959 . S
H124 C120 0.960 . S
H125 C120 0.961 . S
H126 C120 0.960 . S
H127 C123 0.960 . S
H128 C123 0.960 . S
H129 C123 0.959 . S
C130 N131 1.317 . S
C130 N132 1.348 . S
C130 C133 1.485 . S
N131 C130 1.317 . S
N131 N135 1.370 . S
N132 C130 1.348 . S
N132 C134 1.346 . S
C133 C130 1.485 . S
C133 H137 0.960 . S
C133 H138 0.961 . S
C133 H139 0.960 . S
C134 N132 1.346 . S
C134 N135 1.307 . S
C134 C136 1.486 . S
N135 N131 1.370 . S
N135 C134 1.307 . S
C136 C134 1.486 . S
C136 H140 0.960 . S
C136 H141 0.960 . S
C136 H142 0.959 . S
H137 C133 0.960 . S
H138 C133 0.961 . S
H139 C133 0.960 . S
H140 C136 0.960 . S
H141 C136 0.960 . S
H142 C136 0.959 . S
C143 N144 1.317 . S
C143 N145 1.348 . S
C143 C146 1.485 . S
N144 C143 1.317 . S
N144 N148 1.370 . S
N145 C143 1.348 . S
N145 C147 1.346 . S
C146 C143 1.485 . S
C146 H150 0.960 . S
C146 H151 0.961 . S
C146 H152 0.960 . S
C147 N145 1.346 . S
C147 N148 1.307 . S
C147 C149 1.486 . S
N148 N144 1.370 . S
N148 C147 1.307 . S
C149 C147 1.486 . S
C149 H153 0.960 . S
C149 H154 0.960 . S
C149 H155 0.959 . S
H150 C146 0.960 . S
H151 C146 0.961 . S
H152 C146 0.960 . S
H153 C149 0.960 . S
H154 C149 0.960 . S
H155 C149 0.959 . S
C156 N157 1.317 . S
C156 N158 1.348 . S
C156 C159 1.485 . S
N157 C156 1.317 . S
N157 N161 1.370 . S
N158 C156 1.348 . S
N158 C160 1.346 . S
C159 C156 1.485 . S
C159 H163 0.960 . S
C159 H164 0.961 . S
C159 H165 0.960 . S
C160 N158 1.346 . S
C160 N161 1.307 . S
C160 C162 1.486 . S
N161 N157 1.370 . S
N161 C160 1.307 . S
C162 C160 1.486 . S
C162 H166 0.960 . S
C162 H167 0.960 . S
C162 H168 0.959 . S
H163 C159 0.960 . S
H164 C159 0.961 . S
H165 C159 0.960 . S
H166 C162 0.960 . S
H167 C162 0.960 . S
H168 C162 0.959 . S
C169 N170 1.317 . S
C169 N171 1.348 . S
C169 C172 1.485 . S
N170 C169 1.317 . S
N170 N174 1.370 . S
N171 C169 1.348 . S
N171 C173 1.346 . S
C172 C169 1.485 . S
C172 H176 0.960 . S
C172 H177 0.961 . S
C172 H178 0.960 . S
C173 N171 1.346 . S
C173 N174 1.307 . S
C173 C175 1.486 . S
N174 N170 1.370 . S
N174 C173 1.307 . S
C175 C173 1.486 . S
C175 H179 0.960 . S
C175 H180 0.960 . S
C175 H181 0.959 . S
H176 C172 0.960 . S
H177 C172 0.961 . S
H178 C172 0.960 . S
H179 C175 0.960 . S
H180 C175 0.960 . S
H181 C175 0.959 . S
C182 N183 1.317 . S
C182 N184 1.348 . S
C182 C185 1.485 . S
N183 C182 1.317 . S
N183 N187 1.370 . S
N184 C182 1.348 . S
N184 C186 1.346 . S
C185 C182 1.485 . S
C185 H189 0.960 . S
C185 H190 0.961 . S
C185 H191 0.960 . S
C186 N184 1.346 . S
C186 N187 1.307 . S
C186 C188 1.486 . S
N187 N183 1.370 . S
N187 C186 1.307 . S
C188 C186 1.486 . S
C188 H192 0.960 . S
C188 H193 0.960 . S
C188 H194 0.959 . S
H189 C185 0.960 . S
H190 C185 0.961 . S
H191 C185 0.960 . S
H192 C188 0.960 . S
H193 C188 0.960 . S
H194 C188 0.959 . S
C195 N196 1.317 . S
C195 N197 1.348 . S
C195 C198 1.485 . S
N196 C195 1.317 . S
N196 N200 1.370 . S
N197 C195 1.348 . S
N197 C199 1.346 . S
C198 C195 1.485 . S
C198 H202 0.960 . S
C198 H203 0.961 1_545 S
C198 H204 0.960 . S
C199 N197 1.346 . S
C199 N200 1.307 . S
C199 C201 1.486 1_556 S
N200 N196 1.370 . S
N200 C199 1.307 . S
C201 C199 1.486 1_554 S
C201 H205 0.960 . S
C201 H206 0.960 . S
C201 H207 0.959 . S
H202 C198 0.960 . S
H203 C198 0.961 1_565 S
H204 C198 0.960 . S
H205 C201 0.960 . S
H206 C201 0.960 . S
H207 C201 0.959 . S
Zn208 O211 2.033 . S
Zn208 O213 2.048 1_554 S
Zn208 O218 2.065 1_554 S
Zn209 O210 1.962 . S
Zn209 O212 1.986 . S
Zn209 O214 1.996 . S
Zn209 O217 1.943 1_554 S
O210 Zn209 1.962 . S
O210 C215 1.254 . S
O211 Zn208 2.033 . S
O211 C215 1.269 . S
O212 Zn209 1.986 . S
O212 C219 1.262 . S
O213 Zn208 2.048 1_556 S
O213 C221 1.260 . S
O214 Zn209 1.996 . S
O214 C221 1.257 1_554 S
C215 O210 1.254 . S
C215 O211 1.269 . S
C216 O217 1.249 . S
C216 O218 1.270 . S
O217 Zn209 1.943 1_556 S
O217 C216 1.249 . S
O218 Zn208 2.065 1_556 S
O218 C216 1.270 . S
C219 O212 1.262 . S
C219 O220 1.232 . S
O220 C219 1.232 . S
C221 O213 1.260 . S
C221 O214 1.257 1_556 S
Zn222 O225 2.031 . S
Zn222 O227 2.049 . S
Zn222 O232 2.067 . S
Zn223 O224 1.962 . S
Zn223 O226 1.986 . S
Zn223 O228 1.996 . S
Zn223 O231 1.943 . S
O224 Zn223 1.962 . S
O224 C229 1.254 . S
O225 Zn222 2.031 . S
O225 C229 1.269 . S
O226 Zn223 1.986 . S
O226 C233 1.262 . S
O227 Zn222 2.049 . S
O227 C235 1.260 . S
O228 Zn223 1.996 . S
O228 C235 1.257 . S
C229 O224 1.254 . S
C229 O225 1.269 . S
C230 O231 1.249 . S
C230 O232 1.270 . S
O231 Zn223 1.943 . S
O231 C230 1.249 . S
O232 Zn222 2.067 . S
O232 C230 1.270 . S
C233 O226 1.262 . S
C233 O234 1.232 . S
O234 C233 1.232 . S
C235 O227 1.260 . S
C235 O228 1.257 . S
Zn236 O239 2.031 . S
Zn236 O241 2.049 . S
Zn236 O246 2.067 . S
Zn237 O238 1.962 . S
Zn237 O240 1.986 . S
Zn237 O242 1.996 1_554 S
Zn237 O245 1.943 . S
O238 Zn237 1.962 . S
O238 C243 1.254 . S
O239 Zn236 2.031 . S
O239 C243 1.269 1_556 S
O240 Zn237 1.986 . S
O240 C247 1.262 . S
O241 Zn236 2.049 . S
O241 C249 1.260 . S
O242 Zn237 1.996 1_556 S
O242 C249 1.257 . S
C243 O238 1.254 . S
C243 O239 1.269 1_554 S
C244 O245 1.249 1_556 S
C244 O246 1.270 . S
O245 Zn237 1.943 . S
O245 C244 1.249 1_554 S
O246 Zn236 2.067 . S
O246 C244 1.270 . S
C247 O240 1.262 . S
C247 O248 1.232 . S
O248 C247 1.232 . S
C249 O241 1.260 . S
C249 O242 1.257 . S
Zn250 O253 2.031 . S
Zn250 O255 2.049 1_545 S
Zn250 O260 2.067 1_545 S
Zn251 O252 1.962 . S
Zn251 O254 1.986 . S
Zn251 O256 1.996 . S
Zn251 O259 1.943 1_545 S
O252 Zn251 1.962 . S
O252 C257 1.254 . S
O253 Zn250 2.031 . S
O253 C257 1.269 . S
O254 Zn251 1.986 . S
O254 C261 1.262 . S
O255 Zn250 2.049 1_565 S
O255 C263 1.260 . S
O256 Zn251 1.996 . S
O256 C263 1.257 1_545 S
C257 O252 1.254 . S
C257 O253 1.269 . S
C258 O259 1.249 . S
C258 O260 1.270 . S
O259 Zn251 1.943 1_565 S
O259 C258 1.249 . S
O260 Zn250 2.067 1_565 S
O260 C258 1.270 . S
C261 O254 1.262 . S
C261 O262 1.232 . S
O262 C261 1.232 . S
C263 O255 1.260 . S
C263 O256 1.257 1_565 S
Zn264 O267 2.031 . S
Zn264 O269 2.049 . S
Zn264 O274 2.067 . S
Zn265 O266 1.962 . S
Zn265 O268 1.986 . S
Zn265 O270 1.996 . S
Zn265 O273 1.943 . S
O266 Zn265 1.962 . S
O266 C271 1.254 . S
O267 Zn264 2.031 . S
O267 C271 1.269 . S
O268 Zn265 1.986 . S
O268 C275 1.262 . S
O269 Zn264 2.049 . S
O269 C277 1.260 . S
O270 Zn265 1.996 . S
O270 C277 1.257 . S
C271 O266 1.254 . S
C271 O267 1.269 . S
C272 O273 1.249 . S
C272 O274 1.270 . S
O273 Zn265 1.943 . S
O273 C272 1.249 . S
O274 Zn264 2.067 . S
O274 C272 1.270 . S
C275 O268 1.262 . S
C275 O276 1.232 . S
O276 C275 1.232 . S
C277 O269 1.260 . S
C277 O270 1.257 . S
Zn278 O281 2.031 . S
Zn278 O283 2.049 . S
Zn278 O288 2.067 . S
Zn279 O280 1.962 . S
Zn279 O282 1.986 . S
Zn279 O284 1.996 . S
Zn279 O287 1.943 . S
O280 Zn279 1.962 . S
O280 C285 1.254 . S
O281 Zn278 2.031 . S
O281 C285 1.269 . S
O282 Zn279 1.986 . S
O282 C289 1.262 . S
O283 Zn278 2.049 . S
O283 C291 1.260 . S
O284 Zn279 1.996 . S
O284 C291 1.257 . S
C285 O280 1.254 . S
C285 O281 1.269 . S
C286 O287 1.249 . S
C286 O288 1.270 . S
O287 Zn279 1.943 . S
O287 C286 1.249 . S
O288 Zn278 2.067 . S
O288 C286 1.270 . S
C289 O282 1.262 . S
C289 O290 1.232 . S
O290 C289 1.232 . S
C291 O283 1.260 . S
C291 O284 1.257 . S
Zn292 O295 2.031 . S
Zn292 O297 2.049 . S
Zn292 O302 2.067 . S
Zn293 O294 1.962 . S
Zn293 O296 1.986 . S
Zn293 O298 1.996 . S
Zn293 O301 1.943 . S
O294 Zn293 1.962 . S
O294 C299 1.254 . S
O295 Zn292 2.031 . S
O295 C299 1.269 . S
O296 Zn293 1.986 . S
O296 C303 1.262 . S
O297 Zn292 2.049 . S
O297 C305 1.260 . S
O298 Zn293 1.996 . S
O298 C305 1.257 . S
C299 O294 1.254 . S
C299 O295 1.269 . S
C300 O301 1.249 . S
C300 O302 1.270 . S
O301 Zn293 1.943 . S
O301 C300 1.249 . S
O302 Zn292 2.067 . S
O302 C300 1.270 . S
C303 O296 1.262 . S
C303 O304 1.232 . S
O304 C303 1.232 . S
C305 O297 1.260 . S
C305 O298 1.257 . S
Zn306 O309 2.031 1_565 S
Zn306 O311 2.049 . S
Zn306 O316 2.067 . S
Zn307 O308 1.962 . S
Zn307 O310 1.986 . S
Zn307 O312 1.996 1_545 S
Zn307 O315 1.943 . S
O308 Zn307 1.962 . S
O308 C313 1.254 . S
O309 Zn306 2.031 1_545 S
O309 C313 1.269 . S
O310 Zn307 1.986 . S
O310 C317 1.262 . S
O311 Zn306 2.049 . S
O311 C319 1.260 . S
O312 Zn307 1.996 1_565 S
O312 C319 1.257 . S
C313 O308 1.254 . S
C313 O309 1.269 . S
C314 O315 1.249 1_565 S
C314 O316 1.270 . S
O315 Zn307 1.943 . S
O315 C314 1.249 1_545 S
O316 Zn306 2.067 . S
O316 C314 1.270 . S
C317 O310 1.262 . S
C317 O318 1.232 . S
O318 C317 1.232 . S
C319 O311 1.260 . S
C319 O312 1.257 . S
Zn320 O323 2.031 . S
Zn320 O325 2.049 1_455 S
Zn320 O330 2.067 1_455 S
Zn321 O322 1.962 . S
Zn321 O324 1.986 . S
Zn321 O326 1.996 . S
Zn321 O329 1.943 1_455 S
O322 Zn321 1.962 . S
O322 C327 1.254 . S
O323 Zn320 2.031 . S
O323 C327 1.269 . S
O324 Zn321 1.986 . S
O324 C331 1.262 . S
O325 Zn320 2.049 1_655 S
O325 C333 1.260 . S
O326 Zn321 1.996 . S
O326 C333 1.257 1_455 S
C327 O322 1.254 . S
C327 O323 1.269 . S
C328 O329 1.249 . S
C328 O330 1.270 . S
O329 Zn321 1.943 1_655 S
O329 C328 1.249 . S
O330 Zn320 2.067 1_655 S
O330 C328 1.270 . S
C331 O324 1.262 . S
C331 O332 1.232 . S
O332 C331 1.232 . S
C333 O325 1.260 . S
C333 O326 1.257 1_655 S
Zn334 O337 2.031 . S
Zn334 O339 2.049 . S
Zn334 O344 2.067 . S
Zn335 O336 1.962 . S
Zn335 O338 1.986 . S
Zn335 O340 1.996 . S
Zn335 O343 1.943 . S
O336 Zn335 1.962 . S
O336 C341 1.254 . S
O337 Zn334 2.031 . S
O337 C341 1.269 . S
O338 Zn335 1.986 . S
O338 C345 1.262 . S
O339 Zn334 2.049 . S
O339 C347 1.260 . S
O340 Zn335 1.996 . S
O340 C347 1.257 . S
C341 O336 1.254 . S
C341 O337 1.269 . S
C342 O343 1.249 . S
C342 O344 1.270 . S
O343 Zn335 1.943 . S
O343 C342 1.249 . S
O344 Zn334 2.067 . S
O344 C342 1.270 . S
C345 O338 1.262 . S
C345 O346 1.232 . S
O346 C345 1.232 . S
C347 O339 1.260 . S
C347 O340 1.257 . S
Zn348 O351 2.031 1_655 S
Zn348 O353 2.049 . S
Zn348 O358 2.067 . S
Zn349 O350 1.962 . S
Zn349 O352 1.986 . S
Zn349 O354 1.996 1_455 S
Zn349 O357 1.943 . S
O350 Zn349 1.962 . S
O350 C355 1.254 . S
O351 Zn348 2.031 1_455 S
O351 C355 1.269 . S
O352 Zn349 1.986 . S
O352 C359 1.262 . S
O353 Zn348 2.049 . S
O353 C361 1.260 . S
O354 Zn349 1.996 1_655 S
O354 C361 1.257 . S
C355 O350 1.254 . S
C355 O351 1.269 . S
C356 O357 1.249 1_655 S
C356 O358 1.270 . S
O357 Zn349 1.943 . S
O357 C356 1.249 1_455 S
O358 Zn348 2.067 . S
O358 C356 1.270 . S
C359 O352 1.262 . S
C359 O360 1.232 . S
O360 C359 1.232 . S
C361 O353 1.260 . S
C361 O354 1.257 . S
Zn362 O365 2.031 . S
Zn362 O367 2.049 . S
Zn362 O372 2.067 . S
Zn363 O364 1.962 . S
Zn363 O366 1.986 . S
Zn363 O368 1.996 . S
Zn363 O371 1.943 . S
O364 Zn363 1.962 . S
O364 C369 1.254 . S
O365 Zn362 2.031 . S
O365 C369 1.269 . S
O366 Zn363 1.986 . S
O366 C373 1.262 . S
O367 Zn362 2.049 . S
O367 C375 1.260 . S
O368 Zn363 1.996 . S
O368 C375 1.257 . S
C369 O364 1.254 . S
C369 O365 1.269 . S
C370 O371 1.249 . S
C370 O372 1.270 . S
O371 Zn363 1.943 . S
O371 C370 1.249 . S
O372 Zn362 2.067 . S
O372 C370 1.270 . S
C373 O366 1.262 . S
C373 O374 1.232 . S
O374 C373 1.232 . S
C375 O367 1.260 . S
C375 O368 1.257 . S
C376 C377 1.369 . S
C376 C378 1.419 . S
C376 H380 0.930 . S
C377 C376 1.369 . S
C377 C386 1.429 . S
C378 C376 1.419 . S
C378 C379 1.363 . S
C378 H381 0.929 . S
C379 C378 1.363 . S
C379 C385 1.428 . S
H380 C376 0.930 . S
H381 C378 0.929 . S
S382 N383 1.613 . S
S382 N384 1.610 . S
N383 S382 1.613 . S
N383 C386 1.350 . S
N384 S382 1.610 . S
N384 C385 1.351 . S
C385 C379 1.428 . S
C385 N384 1.351 . S
C385 C386 1.434 . S
C386 C377 1.429 . S
C386 N383 1.350 . S
C386 C385 1.434 . S
C387 C388 1.361 1_455 S
C387 C389 1.419 . S
C387 H391 0.930 . S
C388 C387 1.361 1_655 S
C388 C397 1.429 . S
C389 C387 1.419 . S
C389 C390 1.363 . S
C389 H392 0.929 . S
C390 C389 1.363 . S
C390 C396 1.428 . S
H391 C387 0.930 . S
H392 C389 0.929 . S
S393 N394 1.613 . S
S393 N395 1.610 1_655 S
N394 S393 1.613 . S
N394 C397 1.350 . S
N395 S393 1.610 1_455 S
N395 C396 1.351 . S
C396 C390 1.428 . S
C396 N395 1.351 . S
C396 C397 1.434 1_455 S
C397 C388 1.429 . S
C397 N394 1.350 . S
C397 C396 1.434 1_655 S
C398 C399 1.369 . S
C398 C400 1.419 . S
C398 H402 0.930 . S
C399 C398 1.369 . S
C399 C408 1.429 . S
C400 C398 1.419 . S
C400 C401 1.363 . S
C400 H403 0.929 . S
C401 C400 1.363 . S
C401 C407 1.428 . S
H402 C398 0.930 . S
H403 C400 0.929 . S
S404 N405 1.613 . S
S404 N406 1.610 . S
N405 S404 1.613 . S
N405 C408 1.350 . S
N406 S404 1.610 . S
N406 C407 1.351 . S
C407 C401 1.428 . S
C407 N406 1.351 . S
C407 C408 1.434 . S
C408 C399 1.429 . S
C408 N405 1.350 . S
C408 C407 1.434 . S
C409 C410 1.369 1_655 S
C409 C411 1.419 . S
C409 H413 0.930 . S
C410 C409 1.369 1_455 S
C410 C419 1.429 1_465 S
C411 C409 1.419 . S
C411 C412 1.363 . S
C411 H414 0.929 . S
C412 C411 1.363 . S
C412 C418 1.428 1_565 S
H413 C409 0.930 . S
H414 C411 0.929 . S
S415 N416 1.613 1_655 S
S415 N417 1.610 . S
N416 S415 1.613 1_455 S
N416 C419 1.350 1_455 S
N417 S415 1.610 . S
N417 C418 1.351 . S
C418 C412 1.428 1_545 S
C418 N417 1.351 . S
C418 C419 1.434 . S
C419 C410 1.429 1_645 S
C419 N416 1.350 1_655 S
C419 C418 1.434 . S
C420 C421 1.369 . S
C420 C422 1.419 . S
C420 H424 0.930 . S
C421 C420 1.369 . S
C421 C430 1.429 . S
C422 C420 1.419 . S
C422 C423 1.363 . S
C422 H425 0.929 . S
C423 C422 1.363 . S
C423 C429 1.428 . S
H424 C420 0.930 . S
H425 C422 0.929 . S
S426 N427 1.613 . S
S426 N428 1.610 . S
N427 S426 1.613 . S
N427 C430 1.350 . S
N428 S426 1.610 . S
N428 C429 1.351 . S
C429 C423 1.428 . S
C429 N428 1.351 . S
C429 C430 1.434 . S
C430 C421 1.429 . S
C430 N427 1.350 . S
C430 C429 1.434 . S
C431 C432 1.369 . S
C431 C433 1.419 . S
C431 H435 0.930 . S
C432 C431 1.369 . S
C432 C441 1.429 . S
C433 C431 1.419 . S
C433 C434 1.363 . S
C433 H436 0.929 . S
C434 C433 1.363 . S
C434 C440 1.428 . S
H435 C431 0.930 . S
H436 C433 0.929 . S
S437 N438 1.613 . S
S437 N439 1.610 . S
N438 S437 1.613 . S
N438 C441 1.350 . S
N439 S437 1.610 . S
N439 C440 1.351 . S
C440 C434 1.428 . S
C440 N439 1.351 . S
C440 C441 1.434 . S
C441 C432 1.429 . S
C441 N438 1.350 . S
C441 C440 1.434 . S
C442 C443 1.369 . S
C442 C444 1.419 . S
C442 H446 0.930 . S
C443 C442 1.369 . S
C443 C452 1.429 . S
C444 C442 1.419 . S
C444 C445 1.363 . S
C444 H447 0.929 . S
C445 C444 1.363 . S
C445 C451 1.428 . S
H446 C442 0.930 . S
H447 C444 0.929 . S
S448 N449 1.613 . S
S448 N450 1.610 . S
N449 S448 1.613 . S
N449 C452 1.350 . S
N450 S448 1.610 . S
N450 C451 1.351 . S
C451 C445 1.428 . S
C451 N450 1.351 . S
C451 C452 1.434 . S
C452 C443 1.429 . S
C452 N449 1.350 . S
C452 C451 1.434 . S
C453 C454 1.369 . S
C453 C455 1.419 . S
C453 H457 0.930 . S
C454 C453 1.369 . S
C454 C463 1.429 . S
C455 C453 1.419 . S
C455 C456 1.363 . S
C455 H458 0.929 1_565 S
C456 C455 1.363 . S
C456 C462 1.428 . S
H457 C453 0.930 . S
H458 C455 0.929 1_545 S
S459 N460 1.613 . S
S459 N461 1.610 . S
N460 S459 1.613 . S
N460 C463 1.350 . S
N461 S459 1.610 . S
N461 C462 1.351 . S
C462 C456 1.428 . S
C462 N461 1.351 . S
C462 C463 1.434 . S
C463 C454 1.429 . S
C463 N460 1.350 . S
C463 C462 1.434 . S
C464 C465 1.369 . S
C464 C466 1.419 . S
C464 H468 0.930 . S
C465 C464 1.369 . S
C465 C474 1.429 . S
C466 C464 1.419 . S
C466 C467 1.363 . S
C466 H469 0.929 . S
C467 C466 1.363 . S
C467 C473 1.428 . S
H468 C464 0.930 . S
H469 C466 0.929 . S
S470 N471 1.613 . S
S470 N472 1.610 . S
N471 S470 1.613 . S
N471 C474 1.350 . S
N472 S470 1.610 . S
N472 C473 1.351 . S
C473 C467 1.428 . S
C473 N472 1.351 . S
C473 C474 1.434 . S
C474 C465 1.429 . S
C474 N471 1.350 . S
C474 C473 1.434 . S
C475 C476 1.369 . S
C475 C477 1.419 . S
C475 H479 0.930 . S
C476 C475 1.369 . S
C476 C485 1.429 . S
C477 C475 1.419 . S
C477 C478 1.363 . S
C477 H480 0.929 . S
C478 C477 1.363 . S
C478 C484 1.428 . S
H479 C475 0.930 . S
H480 C477 0.929 . S
S481 N482 1.613 . S
S481 N483 1.610 . S
N482 S481 1.613 . S
N482 C485 1.350 . S
N483 S481 1.610 . S
N483 C484 1.351 . S
C484 C478 1.428 . S
C484 N483 1.351 . S
C484 C485 1.434 . S
C485 C476 1.429 . S
C485 N482 1.350 . S
C485 C484 1.434 . S
C486 C487 1.369 . S
C486 C488 1.419 . S
C486 H490 0.930 . S
C487 C486 1.369 . S
C487 C496 1.429 . S
C488 C486 1.419 . S
C488 C489 1.363 . S
C488 H491 0.929 . S
C489 C488 1.363 . S
C489 C495 1.428 . S
H490 C486 0.930 . S
H491 C488 0.929 . S
S492 N493 1.613 . S
S492 N494 1.610 . S
N493 S492 1.613 . S
N493 C496 1.350 . S
N494 S492 1.610 . S
N494 C495 1.351 . S
C495 C489 1.428 . S
C495 N494 1.351 . S
C495 C496 1.434 . S
C496 C487 1.429 . S
C496 N493 1.350 . S
C496 C495 1.434 . S
C497 C498 1.369 . S
C497 C499 1.419 . S
C497 H501 0.930 . S
C498 C497 1.369 . S
C498 C507 1.429 . S
C499 C497 1.419 . S
C499 C500 1.363 . S
C499 H502 0.929 . S
C500 C499 1.363 . S
C500 C506 1.428 . S
H501 C497 0.930 . S
H502 C499 0.929 . S
S503 N504 1.613 . S
S503 N505 1.610 . S
N504 S503 1.613 . S
N504 C507 1.350 . S
N505 S503 1.610 . S
N505 C506 1.351 . S
C506 C500 1.428 . S
C506 N505 1.351 . S
C506 C507 1.434 . S
C507 C498 1.429 . S
C507 N504 1.350 . S
C507 C506 1.434 . S
C508 C509 1.369 . S
C508 C510 1.419 . S
C508 H512 0.930 . S
C509 C508 1.369 . S
C509 C518 1.429 . S
C510 C508 1.419 . S
C510 C511 1.363 . S
C510 H513 0.929 . S
C511 C510 1.363 . S
C511 C517 1.428 . S
H512 C508 0.930 . S
H513 C510 0.929 . S
S514 N515 1.613 . S
S514 N516 1.610 . S
N515 S514 1.613 . S
N515 C518 1.350 . S
N516 S514 1.610 . S
N516 C517 1.351 . S
C517 C511 1.428 . S
C517 N516 1.351 . S
C517 C518 1.434 . S
C518 C509 1.429 . S
C518 N515 1.350 . S
C518 C517 1.434 . S
C519 C520 1.369 . S
C519 C521 1.419 . S
C519 H523 0.930 . S
C520 C519 1.369 . S
C520 C529 1.429 . S
C521 C519 1.419 . S
C521 C522 1.363 . S
C521 H524 0.929 . S
C522 C521 1.363 . S
C522 C528 1.428 . S
H523 C519 0.930 . S
H524 C521 0.929 . S
S525 N526 1.613 . S
S525 N527 1.610 . S
N526 S525 1.613 . S
N526 C529 1.350 . S
N527 S525 1.610 . S
N527 C528 1.351 . S
C528 C522 1.428 . S
C528 N527 1.351 . S
C528 C529 1.434 . S
C529 C520 1.429 . S
C529 N526 1.350 . S
C529 C528 1.434 . S
C530 C531 1.369 . S
C530 C532 1.419 . S
C530 H534 0.930 . S
C531 C530 1.369 . S
C531 C540 1.429 . S
C532 C530 1.419 . S
C532 C533 1.363 . S
C532 H535 0.929 . S
C533 C532 1.363 . S
C533 C539 1.428 . S
H534 C530 0.930 . S
H535 C532 0.929 . S
S536 N537 1.613 . S
S536 N538 1.610 . S
N537 S536 1.613 . S
N537 C540 1.350 . S
N538 S536 1.610 . S
N538 C539 1.351 . S
C539 C533 1.428 . S
C539 N538 1.351 . S
C539 C540 1.434 . S
C540 C531 1.429 . S
C540 N537 1.350 . S
C540 C539 1.434 . S
C541 C542 1.369 . S
C541 C543 1.423 . S
C541 H545 0.930 . S
C542 C541 1.369 . S
C542 C551 1.429 . S
C543 C541 1.423 . S
C543 C544 1.368 . S
C543 H546 0.920 1_655 S
C544 C543 1.368 . S
C544 C550 1.428 . S
H545 C541 0.930 . S
H546 C543 0.920 1_455 S
S547 N548 1.613 . S
S547 N549 1.610 . S
N548 S547 1.613 . S
N548 C551 1.350 . S
N549 S547 1.610 . S
N549 C550 1.351 . S
C550 C544 1.428 . S
C550 N549 1.351 . S
C550 C551 1.434 . S
C551 C542 1.429 . S
C551 N548 1.350 . S
C551 C550 1.434 . S
C552 C553 1.369 . S
C552 C554 1.419 . S
C552 H556 0.930 . S
C553 C552 1.369 . S
C553 C562 1.429 . S
C554 C552 1.419 . S
C554 C555 1.363 . S
C554 H557 0.929 . S
C555 C554 1.363 . S
C555 C561 1.428 . S
H556 C552 0.930 . S
H557 C554 0.929 . S
S558 N559 1.613 . S
S558 N560 1.610 . S
N559 S558 1.613 . S
N559 C562 1.350 . S
N560 S558 1.610 . S
N560 C561 1.351 . S
C561 C555 1.428 . S
C561 N560 1.351 . S
C561 C562 1.434 . S
C562 C553 1.429 . S
C562 N559 1.350 . S
C562 C561 1.434 . S
C563 C564 1.369 . S
C563 C565 1.419 . S
C563 H567 0.930 . S
C564 C563 1.369 . S
C564 C573 1.429 . S
C565 C563 1.419 . S
C565 C566 1.363 . S
C565 H568 0.929 . S
C566 C565 1.363 . S
C566 C572 1.428 . S
H567 C563 0.930 . S
H568 C565 0.929 . S
S569 N570 1.613 . S
S569 N571 1.610 . S
N570 S569 1.613 . S
N570 C573 1.350 . S
N571 S569 1.610 . S
N571 C572 1.351 . S
C572 C566 1.428 . S
C572 N571 1.351 . S
C572 C573 1.434 . S
C573 C564 1.429 . S
C573 N570 1.350 . S
C573 C572 1.434 . S
C574 C575 1.369 1_565 S
C574 C576 1.419 . S
C574 H578 0.930 . S
C575 C574 1.369 1_545 S
C575 C584 1.427 1_556 S
C576 C574 1.419 . S
C576 C577 1.363 . S
C576 H579 0.929 . S
C577 C576 1.363 . S
C577 C583 1.428 1_556 S
H578 C574 0.930 . S
H579 C576 0.929 . S
S580 N581 1.613 . S
S580 N582 1.610 . S
N581 S580 1.613 . S
N581 C584 1.351 . S
N582 S580 1.610 . S
N582 C583 1.351 1_545 S
C583 C577 1.428 1_554 S
C583 N582 1.351 1_565 S
C583 C584 1.435 1_565 S
C584 C575 1.427 1_554 S
C584 N581 1.351 . S
C584 C583 1.435 1_545 S
C585 C586 1.369 . S
C585 C587 1.419 . S
C585 H589 0.930 . S
C586 C585 1.369 . S
C586 C595 1.429 . S
C587 C585 1.419 . S
C587 C588 1.363 . S
C587 H590 0.929 . S
C588 C587 1.363 . S
C588 C594 1.428 . S
H589 C585 0.930 . S
H590 C587 0.929 . S
S591 N592 1.613 . S
S591 N593 1.610 . S
N592 S591 1.613 . S
N592 C595 1.350 . S
N593 S591 1.610 . S
N593 C594 1.351 . S
C594 C588 1.428 . S
C594 N593 1.351 . S
C594 C595 1.434 . S
C595 C586 1.429 . S
C595 N592 1.350 . S
C595 C594 1.434 . S
C596 C597 1.369 1_565 S
C596 C598 1.419 1_565 S
C596 H600 0.930 . S
C597 C596 1.369 1_545 S
C597 C606 1.429 . S
C598 C596 1.419 1_545 S
C598 C599 1.363 . S
C598 H601 0.929 . S
C599 C598 1.363 . S
C599 C605 1.428 . S
H600 C596 0.930 . S
H601 C598 0.929 . S
S602 N603 1.613 . S
S602 N604 1.610 . S
N603 S602 1.613 . S
N603 C606 1.350 . S
N604 S602 1.610 . S
N604 C605 1.351 . S
C605 C599 1.428 . S
C605 N604 1.351 . S
C605 C606 1.434 . S
C606 C597 1.429 . S
C606 N603 1.350 . S
C606 C605 1.434 . S
C607 C608 1.369 . S
C607 C609 1.419 . S
C607 H611 0.930 . S
C608 C607 1.369 . S
C608 C617 1.429 . S
C609 C607 1.419 . S
C609 C610 1.363 . S
C609 H612 0.929 . S
C610 C609 1.363 . S
C610 C616 1.428 . S
H611 C607 0.930 . S
H612 C609 0.929 . S
S613 N614 1.613 . S
S613 N615 1.610 . S
N614 S613 1.613 . S
N614 C617 1.350 . S
N615 S613 1.610 . S
N615 C616 1.351 . S
C616 C610 1.428 . S
C616 N615 1.351 . S
C616 C617 1.434 . S
C617 C608 1.429 . S
C617 N614 1.350 . S
C617 C616 1.434 . S
C618 C619 1.369 1_565 S
C618 C620 1.419 1_565 S
C618 H622 0.930 . S
C619 C618 1.369 1_545 S
C619 C628 1.429 . S
C620 C618 1.419 1_545 S
C620 C621 1.363 . S
C620 H623 0.929 . S
C621 C620 1.363 . S
C621 C627 1.428 . S
H622 C618 0.930 . S
H623 C620 0.929 . S
S624 N625 1.613 . S
S624 N626 1.610 . S
N625 S624 1.613 . S
N625 C628 1.350 . S
N626 S624 1.610 . S
N626 C627 1.351 . S
C627 C621 1.428 . S
C627 N626 1.351 . S
C627 C628 1.434 . S
C628 C619 1.429 . S
C628 N625 1.350 . S
C628 C627 1.434 . S
C629 C630 1.369 . S
C629 C631 1.419 . S
C629 H633 0.930 . S
C630 C629 1.369 . S
C630 C639 1.429 . S
C631 C629 1.419 . S
C631 C632 1.363 . S
C631 H634 0.929 . S
C632 C631 1.363 . S
C632 C638 1.428 . S
H633 C629 0.930 . S
H634 C631 0.929 . S
S635 N636 1.613 . S
S635 N637 1.610 . S
N636 S635 1.613 . S
N636 C639 1.350 . S
N637 S635 1.610 . S
N637 C638 1.351 . S
C638 C632 1.428 . S
C638 N637 1.351 . S
C638 C639 1.434 . S
C639 C630 1.429 . S
C639 N636 1.350 . S
C639 C638 1.434 . S
C640 C641 1.369 . S
C640 C642 1.419 . S
C640 H644 0.930 . S
C641 C640 1.369 . S
C641 C650 1.429 . S
C642 C640 1.419 . S
C642 C643 1.363 . S
C642 H645 0.929 . S
C643 C642 1.363 . S
C643 C649 1.428 . S
H644 C640 0.930 . S
H645 C642 0.929 . S
S646 N647 1.613 . S
S646 N648 1.610 . S
N647 S646 1.613 . S
N647 C650 1.350 . S
N648 S646 1.610 . S
N648 C649 1.351 . S
C649 C643 1.428 . S
C649 N648 1.351 . S
C649 C650 1.434 . S
C650 C641 1.429 . S
C650 N647 1.350 . S
C650 C649 1.434 . S
C651 C652 1.369 . S
C651 C653 1.419 . S
C651 H655 0.930 . S
C652 C651 1.369 . S
C652 C661 1.429 . S
C653 C651 1.419 . S
C653 C654 1.363 . S
C653 H656 0.929 . S
C654 C653 1.363 . S
C654 C660 1.428 . S
H655 C651 0.930 . S
H656 C653 0.929 . S
S657 N658 1.613 . S
S657 N659 1.610 . S
N658 S657 1.613 . S
N658 C661 1.350 . S
N659 S657 1.610 . S
N659 C660 1.351 . S
C660 C654 1.428 . S
C660 N659 1.351 . S
C660 C661 1.434 . S
C661 C652 1.429 . S
C661 N658 1.350 . S
C661 C660 1.434 . S
C662 C663 1.369 . S
C662 C664 1.419 . S
C662 H666 0.930 . S
C663 C662 1.369 . S
C663 C672 1.429 . S
C664 C662 1.419 . S
C664 C665 1.363 . S
C664 H667 0.929 . S
C665 C664 1.363 . S
C665 C671 1.428 . S
H666 C662 0.930 . S
H667 C664 0.929 . S
S668 N669 1.613 . S
S668 N670 1.610 . S
N669 S668 1.613 . S
N669 C672 1.350 . S
N670 S668 1.610 . S
N670 C671 1.351 . S
C671 C665 1.428 . S
C671 N670 1.351 . S
C671 C672 1.434 . S
C672 C663 1.429 . S
C672 N669 1.350 . S
C672 C671 1.434 . S
C673 C674 1.369 . S
C673 C675 1.419 . S
C673 H677 0.930 . S
C674 C673 1.369 . S
C674 C683 1.429 . S
C675 C673 1.419 . S
C675 C676 1.363 . S
C675 H678 0.929 . S
C676 C675 1.363 . S
C676 C682 1.428 . S
H677 C673 0.930 . S
H678 C675 0.929 . S
S679 N680 1.613 . S
S679 N681 1.610 . S
N680 S679 1.613 . S
N680 C683 1.350 . S
N681 S679 1.610 . S
N681 C682 1.351 . S
C682 C676 1.428 . S
C682 N681 1.351 . S
C682 C683 1.434 . S
C683 C674 1.429 . S
C683 N680 1.350 . S
C683 C682 1.434 . S
C684 C685 1.369 . S
C684 C686 1.419 . S
C684 H688 0.930 . S
C685 C684 1.369 . S
C685 C694 1.429 . S
C686 C684 1.419 . S
C686 C687 1.363 . S
C686 H689 0.929 . S
C687 C686 1.363 . S
C687 C693 1.428 . S
H688 C684 0.930 . S
H689 C686 0.929 . S
S690 N691 1.613 . S
S690 N692 1.610 . S
N691 S690 1.613 . S
N691 C694 1.350 . S
N692 S690 1.610 . S
N692 C693 1.351 . S
C693 C687 1.428 . S
C693 N692 1.351 . S
C693 C694 1.434 . S
C694 C685 1.429 . S
C694 N691 1.350 . S
C694 C693 1.434 . S
C695 C696 1.369 1_565 S
C695 C697 1.419 . S
C695 H699 0.930 . S
C696 C695 1.369 1_545 S
C696 C705 1.429 . S
C697 C695 1.419 . S
C697 C698 1.363 1_565 S
C697 H700 0.929 . S
C698 C697 1.363 1_545 S
C698 C704 1.428 . S
H699 C695 0.930 . S
H700 C697 0.929 . S
S701 N702 1.613 . S
S701 N703 1.610 . S
N702 S701 1.613 . S
N702 C705 1.350 . S
N703 S701 1.610 . S
N703 C704 1.351 . S
C704 C698 1.428 . S
C704 N703 1.351 . S
C704 C705 1.434 . S
C705 C696 1.429 . S
C705 N702 1.350 . S
C705 C704 1.434 . S
C706 C707 1.369 . S
C706 C708 1.419 . S
C706 H710 0.930 . S
C707 C706 1.369 . S
C707 C716 1.429 . S
C708 C706 1.419 . S
C708 C709 1.363 . S
C708 H711 0.929 . S
C709 C708 1.363 . S
C709 C715 1.428 . S
H710 C706 0.930 . S
H711 C708 0.929 . S
S712 N713 1.613 . S
S712 N714 1.610 . S
N713 S712 1.613 . S
N713 C716 1.350 . S
N714 S712 1.610 . S
N714 C715 1.351 . S
C715 C709 1.428 . S
C715 N714 1.351 . S
C715 C716 1.434 . S
C716 C707 1.429 . S
C716 N713 1.350 . S
C716 C715 1.434 . S
C717 C718 1.373 . S
C717 C719 1.430 . S
C717 H721 0.914 1_455 S
C718 C717 1.373 . S
C718 C727 1.429 . S
C719 C717 1.430 . S
C719 C720 1.363 . S
C719 H722 0.929 . S
C720 C719 1.363 . S
C720 C726 1.428 . S
H721 C717 0.914 1_655 S
H722 C719 0.929 . S
S723 N724 1.613 . S
S723 N725 1.610 . S
N724 S723 1.613 . S
N724 C727 1.350 . S
N725 S723 1.610 . S
N725 C726 1.351 . S
C726 C720 1.428 . S
C726 N725 1.351 . S
C726 C727 1.434 . S
C727 C718 1.429 . S
C727 N724 1.350 . S
C727 C726 1.434 . S
C728 C729 1.369 . S
C728 C730 1.419 . S
C728 H732 0.930 . S
C729 C728 1.369 . S
C729 C738 1.429 . S
C730 C728 1.419 . S
C730 C731 1.363 . S
C730 H733 0.929 . S
C731 C730 1.363 . S
C731 C737 1.428 . S
H732 C728 0.930 . S
H733 C730 0.929 . S
S734 N735 1.613 . S
S734 N736 1.610 . S
N735 S734 1.613 . S
N735 C738 1.350 . S
N736 S734 1.610 . S
N736 C737 1.351 . S
C737 C731 1.428 . S
C737 N736 1.351 . S
C737 C738 1.434 . S
C738 C729 1.429 . S
C738 N735 1.350 . S
C738 C737 1.434 . S
C739 C740 1.369 . S
C739 C741 1.419 . S
C739 H743 0.930 . S
C740 C739 1.369 . S
C740 C749 1.429 1_655 S
C741 C739 1.419 . S
C741 C742 1.363 1_554 S
C741 H744 0.929 . S
C742 C741 1.363 1_556 S
C742 C748 1.428 1_655 S
H743 C739 0.930 . S
H744 C741 0.929 . S
S745 N746 1.613 1_556 S
S745 N747 1.610 . S
N746 S745 1.613 1_554 S
N746 C749 1.350 . S
N747 S745 1.610 . S
N747 C748 1.351 . S
C748 C742 1.428 1_455 S
C748 N747 1.351 . S
C748 C749 1.434 1_556 S
C749 C740 1.429 1_455 S
C749 N746 1.350 . S
C749 C748 1.434 1_554 S
C750 C751 1.369 . S
C750 C752 1.419 . S
C750 H754 0.930 . S
C751 C750 1.369 . S
C751 C760 1.429 . S
C752 C750 1.419 . S
C752 C753 1.363 . S
C752 H755 0.929 . S
C753 C752 1.363 . S
C753 C759 1.428 . S
H754 C750 0.930 . S
H755 C752 0.929 . S
S756 N757 1.613 . S
S756 N758 1.610 . S
N757 S756 1.613 . S
N757 C760 1.350 . S
N758 S756 1.610 . S
N758 C759 1.351 . S
C759 C753 1.428 . S
C759 N758 1.351 . S
C759 C760 1.434 . S
C760 C751 1.429 . S
C760 N757 1.350 . S
C760 C759 1.434 . S
C761 C762 1.369 1_556 S
C761 C763 1.419 . S
C761 H765 0.930 . S
C762 C761 1.369 1_554 S
C762 C771 1.429 . S
C763 C761 1.419 . S
C763 C764 1.363 . S
C763 H766 0.929 . S
C764 C763 1.363 . S
C764 C770 1.428 1_556 S
H765 C761 0.930 . S
H766 C763 0.929 . S
S767 N768 1.613 . S
S767 N769 1.610 . S
N768 S767 1.613 . S
N768 C771 1.350 1_655 S
N769 S767 1.610 . S
N769 C770 1.351 1_655 S
C770 C764 1.428 1_554 S
C770 N769 1.351 1_455 S
C770 C771 1.434 . S
C771 C762 1.429 . S
C771 N768 1.350 1_455 S
C771 C770 1.434 . S
C772 C773 1.369 . S
C772 C774 1.419 . S
C772 H776 0.930 . S
C773 C772 1.369 . S
C773 C782 1.429 . S
C774 C772 1.419 . S
C774 C775 1.363 . S
C774 H777 0.929 . S
C775 C774 1.363 . S
C775 C781 1.428 . S
H776 C772 0.930 . S
H777 C774 0.929 . S
S778 N779 1.613 . S
S778 N780 1.610 . S
N779 S778 1.613 . S
N779 C782 1.350 . S
N780 S778 1.610 . S
N780 C781 1.351 . S
C781 C775 1.428 . S
C781 N780 1.351 . S
C781 C782 1.434 . S
C782 C773 1.429 . S
C782 N779 1.350 . S
C782 C781 1.434 . S
C783 C784 1.369 . S
C783 C785 1.419 . S
C783 H787 0.930 1_554 S
C784 C783 1.369 . S
C784 C793 1.429 . S
C785 C783 1.419 . S
C785 C786 1.363 . S
C785 H788 0.929 . S
C786 C785 1.363 . S
C786 C792 1.428 . S
H787 C783 0.930 1_556 S
H788 C785 0.929 . S
S789 N790 1.613 . S
S789 N791 1.610 . S
N790 S789 1.613 . S
N790 C793 1.350 . S
N791 S789 1.610 . S
N791 C792 1.351 . S
C792 C786 1.428 . S
C792 N791 1.351 . S
C792 C793 1.434 . S
C793 C784 1.429 . S
C793 N790 1.350 . S
C793 C792 1.434 . S
C794 C795 1.369 . S
C794 C796 1.419 . S
C794 H798 0.930 . S
C795 C794 1.369 . S
C795 C804 1.429 . S
C796 C794 1.419 . S
C796 C797 1.363 . S
C796 H799 0.929 . S
C797 C796 1.363 . S
C797 C803 1.428 . S
H798 C794 0.930 . S
H799 C796 0.929 . S
S800 N801 1.613 . S
S800 N802 1.610 . S
N801 S800 1.613 . S
N801 C804 1.350 . S
N802 S800 1.610 . S
N802 C803 1.351 . S
C803 C797 1.428 . S
C803 N802 1.351 . S
C803 C804 1.434 . S
C804 C795 1.429 . S
C804 N801 1.350 . S
C804 C803 1.434 . S
C805 C806 1.369 1_554 S
C805 C807 1.419 . S
C805 H809 0.930 . S
C806 C805 1.369 1_556 S
C806 C815 1.429 1_556 S
C807 C805 1.419 . S
C807 C808 1.363 . S
C807 H810 0.929 . S
C808 C807 1.363 . S
C808 C814 1.428 . S
H809 C805 0.930 . S
H810 C807 0.929 . S
S811 N812 1.613 1_554 S
S811 N813 1.610 . S
N812 S811 1.613 1_556 S
N812 C815 1.350 1_556 S
N813 S811 1.610 . S
N813 C814 1.351 . S
C814 C808 1.428 . S
C814 N813 1.351 . S
C814 C815 1.434 . S
C815 C806 1.429 1_554 S
C815 N812 1.350 1_554 S
C815 C814 1.434 . S
C816 C817 1.369 . S
C816 C818 1.419 . S
C816 H820 0.930 . S
C817 C816 1.369 . S
C817 C826 1.429 . S
C818 C816 1.419 . S
C818 C819 1.363 . S
C818 H821 0.929 . S
C819 C818 1.363 . S
C819 C825 1.428 . S
H820 C816 0.930 . S
H821 C818 0.929 . S
S822 N823 1.613 . S
S822 N824 1.610 . S
N823 S822 1.613 . S
N823 C826 1.350 . S
N824 S822 1.610 . S
N824 C825 1.351 . S
C825 C819 1.428 . S
C825 N824 1.351 . S
C825 C826 1.434 . S
C826 C817 1.429 . S
C826 N823 1.350 . S
C826 C825 1.434 . S
C827 C828 1.369 . S
C827 C829 1.419 . S
C827 H831 0.930 . S
C828 C827 1.369 . S
C828 C837 1.429 . S
C829 C827 1.419 . S
C829 C830 1.363 . S
C829 H832 0.929 . S
C830 C829 1.363 . S
C830 C836 1.428 . S
H831 C827 0.930 . S
H832 C829 0.929 . S
S833 N834 1.613 . S
S833 N835 1.610 . S
N834 S833 1.613 . S
N834 C837 1.350 . S
N835 S833 1.610 . S
N835 C836 1.351 . S
C836 C830 1.428 . S
C836 N835 1.351 . S
C836 C837 1.434 . S
C837 C828 1.429 . S
C837 N834 1.350 . S
C837 C836 1.434 . S
C838 C839 1.369 . S
C838 C840 1.419 . S
C838 H842 0.930 . S
C839 C838 1.369 . S
C839 C848 1.429 . S
C840 C838 1.419 . S
C840 C841 1.363 . S
C840 H843 0.929 . S
C841 C840 1.363 . S
C841 C847 1.428 . S
H842 C838 0.930 . S
H843 C840 0.929 . S
S844 N845 1.613 . S
S844 N846 1.610 . S
N845 S844 1.613 . S
N845 C848 1.350 . S
N846 S844 1.610 . S
N846 C847 1.351 . S
C847 C841 1.428 . S
C847 N846 1.351 . S
C847 C848 1.434 . S
C848 C839 1.429 . S
C848 N845 1.350 . S
C848 C847 1.434 . S
C849 C850 1.369 . S
C849 C851 1.419 . S
C849 H853 0.930 . S
C850 C849 1.369 . S
C850 C859 1.429 . S
C851 C849 1.419 . S
C851 C852 1.363 . S
C851 H854 0.929 . S
C852 C851 1.363 . S
C852 C858 1.428 . S
H853 C849 0.930 . S
H854 C851 0.929 . S
S855 N856 1.613 . S
S855 N857 1.610 . S
N856 S855 1.613 . S
N856 C859 1.350 . S
N857 S855 1.610 . S
N857 C858 1.351 . S
C858 C852 1.428 . S
C858 N857 1.351 . S
C858 C859 1.434 . S
C859 C850 1.429 . S
C859 N856 1.350 . S
C859 C858 1.434 . S
C860 C861 1.369 . S
C860 C862 1.419 . S
C860 H864 0.930 . S
C861 C860 1.369 . S
C861 C870 1.429 1_556 S
C862 C860 1.419 . S
C862 C863 1.363 . S
C862 H865 0.929 . S
C863 C862 1.363 . S
C863 C869 1.428 1_556 S
H864 C860 0.930 . S
H865 C862 0.929 . S
S866 N867 1.613 . S
S866 N868 1.610 . S
N867 S866 1.613 . S
N867 C870 1.350 . S
N868 S866 1.610 . S
N868 C869 1.351 . S
C869 C863 1.428 1_554 S
C869 N868 1.351 . S
C869 C870 1.434 . S
C870 C861 1.429 1_554 S
C870 N867 1.350 . S
C870 C869 1.434 . S
C871 C872 1.369 . S
C871 C873 1.419 . S
C871 H875 0.930 . S
C872 C871 1.369 . S
C872 C881 1.429 . S
C873 C871 1.419 . S
C873 C874 1.363 . S
C873 H876 0.929 . S
C874 C873 1.363 . S
C874 C880 1.428 . S
H875 C871 0.930 . S
H876 C873 0.929 . S
S877 N878 1.613 . S
S877 N879 1.610 . S
N878 S877 1.613 . S
N878 C881 1.350 . S
N879 S877 1.610 . S
N879 C880 1.351 . S
C880 C874 1.428 . S
C880 N879 1.351 . S
C880 C881 1.434 . S
C881 C872 1.429 . S
C881 N878 1.350 . S
C881 C880 1.434 . S
C882 C883 1.369 . S
C882 C884 1.419 . S
C882 H886 0.930 . S
C883 C882 1.369 . S
C883 C892 1.429 . S
C884 C882 1.419 . S
C884 C885 1.363 . S
C884 H887 0.929 . S
C885 C884 1.363 . S
C885 C891 1.428 . S
H886 C882 0.930 . S
H887 C884 0.929 . S
S888 N889 1.613 . S
S888 N890 1.610 . S
N889 S888 1.613 . S
N889 C892 1.350 . S
N890 S888 1.610 . S
N890 C891 1.351 . S
C891 C885 1.428 . S
C891 N890 1.351 . S
C891 C892 1.434 . S
C892 C883 1.429 . S
C892 N889 1.350 . S
C892 C891 1.434 . S
C893 C894 1.369 . S
C893 C895 1.419 . S
C893 H897 0.930 1_554 S
C894 C893 1.369 . S
C894 C903 1.429 1_565 S
C895 C893 1.419 . S
C895 C896 1.363 . S
C895 H898 0.929 1_554 S
C896 C895 1.363 . S
C896 C902 1.428 . S
H897 C893 0.930 1_556 S
H898 C895 0.929 1_556 S
S899 N900 1.613 . S
S899 N901 1.610 . S
N900 S899 1.613 . S
N900 C903 1.350 . S
N901 S899 1.610 . S
N901 C902 1.351 1_545 S
C902 C896 1.428 . S
C902 N901 1.351 1_565 S
C902 C903 1.434 1_565 S
C903 C894 1.429 1_545 S
C903 N900 1.350 . S
C903 C902 1.434 1_545 S
C379 C216 1.337 . S
C377 N66 1.326 . S
C390 C229 1.549 . S
C388 N79 1.531 . S
C399 N92 1.765 . S
C401 C249 1.685 . S
C412 C263 1.364 . S
C410 N54 1.388 . S
C423 C275 1.516 . S
C421 N131 1.519 . S
C434 C289 1.267 . S
C432 N158 1.262 . S
C443 N145 1.528 . S
C445 C299 1.525 . S
C456 C314 1.709 . S
C454 N118 1.709 . S
C465 N148 1.809 . S
C467 C328 1.743 . S
C478 C347 1.407 . S
C476 N122 1.496 . S
C487 N132 1.313 . S
C489 C327 1.288 . S
C500 C345 1.470 . S
C498 N161 1.437 . S
C509 N96 1.831 . S
C511 C361 1.776 . S
C520 N53 1.632 . S
C522 C355 1.656 . S
C531 N67 1.240 . S
C533 C359 1.246 . S
C542 N83 1.413 . S
C544 C356 1.414 . S
C553 N44 1.426 . S
C555 C258 1.428 . S
C564 N187 1.466 . S
C566 C257 1.486 . S
C577 C221 1.200 . S
C575 N197 1.263 . S
C588 C235 1.368 . S
C586 N106 1.446 . S
C597 N57 1.756 1_545 S
C599 C272 1.789 . S
C610 C317 1.508 . S
C608 N144 1.477 . S
C621 C271 1.420 . S
C619 N119 1.412 1_545 S
C632 C303 1.687 . S
C630 N157 1.640 . S
C643 C300 1.341 . S
C641 N183 1.324 . S
C652 N196 1.526 . S
C654 C313 1.549 . S
C663 N105 1.758 . S
C665 C277 1.692 . S
C676 C291 1.365 . S
C674 N171 1.390 . S
C685 N40 1.518 . S
C687 C247 1.514 . S
C698 C261 1.267 . S
C696 N2 1.260 . S
C709 C215 1.525 . S
C707 N15 1.528 . S
C720 C230 1.709 . S
C718 N27 1.711 1_455 S
C729 N18 1.807 . S
C731 C342 1.745 . S
C740 N31 1.498 . S
C742 C333 1.407 . S
C751 N41 1.311 . S
C753 C341 1.292 . S
C762 N5 1.436 . S
C764 C331 1.470 . S
C775 C375 1.777 . S
C773 N109 1.831 . S
C786 C369 1.657 . S
C784 N170 1.634 1_554 S
C797 C373 1.245 . S
C795 N184 1.240 . S
C806 N200 1.410 . S
C808 C370 1.418 . S
C817 N135 1.426 . S
C819 C286 1.427 . S
C830 C285 1.486 . S
C828 N70 1.466 . S
C841 C305 1.196 . S
C839 N80 1.262 . S
C852 C319 1.371 . S
C850 N93 1.446 . S
C861 N174 1.761 . S
C863 C244 1.791 . S
C874 C233 1.508 . S
C872 N14 1.482 . S
C883 N28 1.414 . S
C885 C243 1.420 . S
C896 C219 1.689 . S
C894 N1 1.640 1_565 S
