# Generated by pormake.
# Topology csq, (4,8)-cn, num edge types: 1
# Building blocks:
#     Node 0, Type 0, BuildingBlock: MUDLON_clean_linker_0, # of connection points: 4
#     Node 1, Type 0, BuildingBlock: MUDLON_clean_linker_0, # of connection points: 4
#     Node 2, Type 0, BuildingBlock: MUDLON_clean_linker_0, # of connection points: 4
#     Node 3, Type 0, BuildingBlock: MUDLON_clean_linker_0, # of connection points: 4
#     Node 4, Type 0, BuildingBlock: MUDLON_clean_linker_0, # of connection points: 4
#     Node 5, Type 0, BuildingBlock: MUDLON_clean_linker_0, # of connection points: 4
#     Node 6, Type 1, BuildingBlock: TAGTUT_clean_sbu_3, # of connection points: 8
#     Node 7, Type 1, BuildingBlock: TAGTUT_clean_sbu_3, # of connection points: 8
#     Node 8, Type 1, BuildingBlock: TAGTUT_clean_sbu_3, # of connection points: 8
#     Edge 9, Type (0, 1), BuildingBlock: AJUNOK_clean_linker_0, # of connection points: 2
#     Edge 10, Type (0, 1), BuildingBlock: AJUNOK_clean_linker_0, # of connection points: 2
#     Edge 11, Type (0, 1), BuildingBlock: AJUNOK_clean_linker_0, # of connection points: 2
#     Edge 12, Type (0, 1), BuildingBlock: AJUNOK_clean_linker_0, # of connection points: 2
#     Edge 13, Type (0, 1), BuildingBlock: AJUNOK_clean_linker_0, # of connection points: 2
#     Edge 14, Type (0, 1), BuildingBlock: AJUNOK_clean_linker_0, # of connection points: 2
#     Edge 15, Type (0, 1), BuildingBlock: AJUNOK_clean_linker_0, # of connection points: 2
#     Edge 16, Type (0, 1), BuildingBlock: AJUNOK_clean_linker_0, # of connection points: 2
#     Edge 17, Type (0, 1), BuildingBlock: AJUNOK_clean_linker_0, # of connection points: 2
#     Edge 18, Type (0, 1), BuildingBlock: AJUNOK_clean_linker_0, # of connection points: 2
#     Edge 19, Type (0, 1), BuildingBlock: AJUNOK_clean_linker_0, # of connection points: 2
#     Edge 20, Type (0, 1), BuildingBlock: AJUNOK_clean_linker_0, # of connection points: 2
#     Edge 21, Type (0, 1), BuildingBlock: AJUNOK_clean_linker_0, # of connection points: 2
#     Edge 22, Type (0, 1), BuildingBlock: AJUNOK_clean_linker_0, # of connection points: 2
#     Edge 23, Type (0, 1), BuildingBlock: AJUNOK_clean_linker_0, # of connection points: 2
#     Edge 24, Type (0, 1), BuildingBlock: AJUNOK_clean_linker_0, # of connection points: 2
#     Edge 25, Type (0, 1), BuildingBlock: AJUNOK_clean_linker_0, # of connection points: 2
#     Edge 26, Type (0, 1), BuildingBlock: AJUNOK_clean_linker_0, # of connection points: 2
#     Edge 27, Type (0, 1), BuildingBlock: AJUNOK_clean_linker_0, # of connection points: 2
#     Edge 28, Type (0, 1), BuildingBlock: AJUNOK_clean_linker_0, # of connection points: 2
#     Edge 29, Type (0, 1), BuildingBlock: AJUNOK_clean_linker_0, # of connection points: 2
#     Edge 30, Type (0, 1), BuildingBlock: AJUNOK_clean_linker_0, # of connection points: 2
#     Edge 31, Type (0, 1), BuildingBlock: AJUNOK_clean_linker_0, # of connection points: 2
#     Edge 32, Type (0, 1), BuildingBlock: AJUNOK_clean_linker_0, # of connection points: 2
# Relax obj value: 0.041
# Max RMSD: 0.118
# Mean RMSD: 0.078
data_MOF--net-csq--node1-TAGTUT_clean_sbu_3--node2-MUDLON_clean_linker_0--edge1-AJUNOK_clean_linker_0
_symmetry_space_group_name_H-M    P1
_symmetry_Int_Tables_number       1
_symmetry_cell_setting            triclinic
loop_
_symmetry_equiv_pos_as_xyz
'x, y, z'
_cell_length_a     57.77512
_cell_length_b     57.049527
_cell_length_c     18.852754
_cell_angle_alpha  92.904968
_cell_angle_beta   92.996441
_cell_angle_gamma 119.95864
loop_
_atom_site_label
_atom_site_type_symbol
_atom_site_fract_x
_atom_site_fract_y
_atom_site_fract_z
_atom_type_partial_charge
H0 H 0.34902 0.4889 0.17501 0.0
N1 N 0.30497 0.43783 0.15185 0.0
H2 H 0.3874 0.50181 0.26177 0.0
H3 H 0.30405 0.41285 0.26727 0.0
H4 H 0.34162 0.42639 0.35707 0.0
H5 H 0.31728 0.40102 0.10756 0.0
H6 H 0.34779 0.40553 0.01688 0.0
H7 H 0.32133 0.47543 0.05408 0.0
H8 H 0.35182 0.48 0.96257 0.0
H9 H 0.30069 0.48003 0.21471 0.0
H10 H 0.25757 0.40432 0.08227 0.0
H11 H 0.25914 0.48038 0.22613 0.0
H12 H 0.2162 0.40556 0.08867 0.0
H13 H 0.14163 0.48731 0.19021 0.0
H14 H 0.1282 0.50942 0.28078 0.0
H15 H 0.0978 0.43803 0.39711 0.0
H16 H 0.11149 0.41621 0.30695 0.0
H17 H 0.08167 0.3991 0.13634 0.0
H18 H 0.0572 0.40064 0.02779 0.0
H19 H 0.12982 0.46969 0.9716 0.0
H20 H 0.15377 0.4687 0.07977 0.0
H21 H 0.18084 0.48187 0.19172 0.0
H22 H 0.22381 0.48485 0.1763 0.0
H23 H 0.18539 0.39734 0.17191 0.0
N24 N 0.13192 0.43483 0.18605 0.0
H25 H 0.14226 0.39463 0.18223 0.0
C26 C 0.32407 0.44943 0.21361 0.0
C27 C 0.34713 0.47534 0.21526 0.0
C28 C 0.36899 0.48278 0.2649 0.0
C29 C 0.36773 0.46457 0.31389 0.0
C30 C 0.34338 0.44031 0.31784 0.0
C31 C 0.32182 0.43268 0.26746 0.0
C32 C 0.31699 0.43774 0.08703 0.0
C33 C 0.32407 0.41782 0.07442 0.0
C34 C 0.34168 0.42059 0.02349 0.0
C35 C 0.35224 0.44322 0.98362 0.0
C36 C 0.34379 0.46232 0.99271 0.0
C37 C 0.32629 0.45965 0.04438 0.0
C38 C 0.28218 0.44176 0.14846 0.0
C39 C 0.28242 0.46374 0.18669 0.0
C40 C 0.25853 0.46401 0.19286 0.0
C41 C 0.23406 0.44265 0.15975 0.0
C42 C 0.2344 0.42186 0.11715 0.0
C43 C 0.25811 0.42131 0.11233 0.0
C44 C 0.12759 0.45 0.24212 0.0
C45 C 0.13259 0.47662 0.2359 0.0
C46 C 0.12482 0.48924 0.28749 0.0
C47 C 0.11225 0.4756 0.3464 0.0
C48 C 0.10805 0.44935 0.3533 0.0
C49 C 0.11573 0.43678 0.30179 0.0
C50 C 0.11946 0.43374 0.11673 0.0
C51 C 0.09238 0.41412 0.09957 0.0
C52 C 0.07853 0.41484 0.03742 0.0
C53 C 0.09173 0.43523 0.9915 0.0
C54 C 0.11926 0.45375 0.00629 0.0
C55 C 0.13299 0.45317 0.06845 0.0
C56 C 0.15822 0.43786 0.18708 0.0
C57 C 0.18167 0.46334 0.18749 0.0
C58 C 0.20635 0.46502 0.17899 0.0
C59 C 0.20814 0.44131 0.17144 0.0
C60 C 0.18477 0.41601 0.175 0.0
C61 C 0.16012 0.41437 0.18204 0.0
H62 H 0.70586 0.08949 0.1251 0.0
N63 N 0.71477 0.13724 0.08837 0.0
H64 H 0.67522 0.06221 0.2109 0.0
H65 H 0.69541 0.15685 0.19072 0.0
H66 H 0.66477 0.12966 0.27725 0.0
H67 H 0.67151 0.14484 0.07227 0.0
H68 H 0.63443 0.12229 0.97844 0.0
H69 H 0.71257 0.10834 0.97114 0.0
H70 H 0.67571 0.08611 0.87653 0.0
H71 H 0.76034 0.15853 0.17179 0.0
H72 H 0.71625 0.18079 0.02421 0.0
H73 H 0.79794 0.20501 0.18118 0.0
H74 H 0.754 0.22637 0.03049 0.0
H75 H 0.92174 0.34185 0.16101 0.0
H76 H 0.94287 0.37163 0.27129 0.0
H77 H 0.86778 0.36732 0.30879 0.0
H78 H 0.84734 0.33908 0.19694 0.0
H79 H 0.89266 0.38028 0.10694 0.0
H80 H 0.90182 0.40751 0.008 0.0
H81 H 0.8636 0.33524 0.86127 0.0
H82 H 0.85605 0.3075 0.96095 0.0
H83 H 0.87123 0.2776 0.10741 0.0
H84 H 0.83176 0.23263 0.10952 0.0
H85 H 0.78106 0.26837 0.09843 0.0
N86 N 0.87281 0.32461 0.09985 0.0
H87 H 0.82069 0.313 0.09211 0.0
C88 C 0.70282 0.12503 0.15154 0.0
C89 C 0.69771 0.09866 0.16005 0.0
C90 C 0.68017 0.08313 0.20878 0.0
C91 C 0.6676 0.09387 0.25022 0.0
C92 C 0.67411 0.12094 0.24531 0.0
C93 C 0.69175 0.13652 0.19653 0.0
C94 C 0.69486 0.12817 0.02845 0.0
C95 C 0.67271 0.13225 0.02949 0.0
C96 C 0.65153 0.11938 0.97612 0.0
C97 C 0.65238 0.10263 0.92064 0.0
C98 C 0.67485 0.09928 0.91848 0.0
C99 C 0.69589 0.11196 0.97203 0.0
C100 C 0.73518 0.16572 0.09787 0.0
C101 C 0.75859 0.1734 0.142 0.0
C102 C 0.78022 0.19993 0.14658 0.0
C103 C 0.77917 0.21941 0.10587 0.0
C104 C 0.75544 0.21203 0.06329 0.0
C105 C 0.73366 0.18558 0.05947 0.0
C106 C 0.88311 0.33832 0.17044 0.0
C107 C 0.90979 0.34698 0.19382 0.0
C108 C 0.92172 0.36377 0.257 0.0
C109 C 0.90703 0.37205 0.2981 0.0
C110 C 0.87969 0.36163 0.27746 0.0
C111 C 0.8679 0.34524 0.21368 0.0
C112 C 0.87315 0.34117 0.04299 0.0
C113 C 0.88543 0.36974 0.05425 0.0
C114 C 0.89046 0.38565 0.99682 0.0
C115 C 0.88316 0.37368 0.92627 0.0
C116 C 0.86953 0.34519 0.91489 0.0
C117 C 0.86499 0.32924 0.97225 0.0
C118 C 0.84888 0.29849 0.09996 0.0
C119 C 0.85153 0.27557 0.10517 0.0
C120 C 0.82896 0.24998 0.10722 0.0
C121 C 0.80317 0.24685 0.10497 0.0
C122 C 0.80055 0.26996 0.0997 0.0
C123 C 0.82319 0.29554 0.09675 0.0
H124 H 0.60456 0.91993 0.99716 0.0
N125 N 0.57739 0.87309 0.0545 0.0
H126 H 0.58919 0.93592 0.89719 0.0
H127 H 0.53104 0.84268 0.9661 0.0
H128 H 0.51614 0.85802 0.86413 0.0
H129 H 0.53758 0.88625 0.07226 0.0
H130 H 0.52484 0.89687 0.18374 0.0
H131 H 0.59918 0.87716 0.18586 0.0
H132 H 0.5842 0.88472 0.29885 0.0
H133 H 0.60906 0.85624 0.0022 0.0
H134 H 0.53463 0.82791 0.09859 0.0
H135 H 0.60494 0.81175 0.00852 0.0
H136 H 0.53191 0.78487 0.11357 0.0
H137 H 0.59504 0.67367 0.05082 0.0
H138 H 0.58438 0.64296 0.94312 0.0
H139 H 0.5137 0.64848 0.89063 0.0
H140 H 0.52354 0.67769 -0.0011 0.0
H141 H 0.5132 0.6574 0.1164 0.0
H142 H 0.49629 0.62895 0.2154 0.0
H143 H 0.57684 0.66713 0.31814 0.0
H144 H 0.59343 0.69596 0.21994 0.0
H145 H 0.60914 0.74252 0.09828 0.0
H146 H 0.61094 0.78558 0.0842 0.0
H147 H 0.52411 0.74406 0.07401 0.0
N148 N 0.56603 0.69404 0.10072 0.0
H149 H 0.52317 0.70237 0.09753 0.0
C150 C 0.56917 0.88019 0.98911 0.0
C151 C 0.58552 0.90616 0.96725 0.0
C152 C 0.57681 0.91511 0.90956 0.0
C153 C 0.55158 0.89808 0.87199 0.0
C154 C 0.53572 0.87156 0.89185 0.0
C155 C 0.54429 0.86272 0.95008 0.0
C156 C 0.56976 0.88102 0.1198 0.0
C157 C 0.5483 0.88615 0.12087 0.0
C158 C 0.54039 0.89155 0.1855 0.0
C159 C 0.55279 0.89076 0.25094 0.0
C160 C 0.57412 0.88553 0.24977 0.0
C161 C 0.58278 0.88127 0.18514 0.0
C162 C 0.57263 0.84566 0.0513 0.0
C163 C 0.5919 0.84039 0.025 0.0
C164 C 0.58969 0.81503 0.03001 0.0
C165 C 0.56848 0.7946 0.0636 0.0
C166 C 0.54847 0.79966 0.08682 0.0
C167 C 0.55016 0.8246 0.07913 0.0
C168 C 0.56029 0.6781 0.0335 0.0
C169 C 0.57749 0.66853 0.01539 0.0
C170 C 0.57158 0.65134 0.95337 0.0
C171 C 0.54839 0.64366 0.90791 0.0
C172 C 0.53176 0.65417 0.92456 0.0
C173 C 0.53747 0.671 0.98693 0.0
C174 C 0.55472 0.67887 0.16092 0.0
C175 C 0.52713 0.66015 0.16096 0.0
C176 C 0.51747 0.64383 0.21757 0.0
C177 C 0.53515 0.64599 0.27508 0.0
C178 C 0.56254 0.66545 0.27581 0.0
C179 C 0.57214 0.68175 0.21943 0.0
C180 C 0.56613 0.71922 0.09764 0.0
C181 C 0.59063 0.74304 0.0942 0.0
C182 C 0.59148 0.76754 0.08472 0.0
C183 C 0.56763 0.76856 0.07615 0.0
C184 C 0.54304 0.74454 0.08108 0.0
C185 C 0.54237 0.72032 0.09351 0.0
H186 H 0.92287 0.61078 0.04517 0.0
N187 N 0.87187 0.57381 0.01005 0.0
H188 H 0.95424 0.60755 0.13151 0.0
H189 H 0.85812 0.53585 0.10613 0.0
H190 H 0.8894 0.53235 0.19213 0.0
H191 H 0.86264 0.522 0.98262 0.0
H192 H 0.88429 0.50979 0.89154 0.0
H193 H 0.88467 0.59688 0.88873 0.0
H194 H 0.90422 0.58365 0.7938 0.0
H195 H 0.86728 0.61672 0.04222 0.0
H196 H 0.82179 0.52943 0.00941 0.0
H197 H 0.82667 0.61779 0.06625 0.0
H198 H 0.78059 0.53016 0.03168 0.0
H199 H 0.72036 0.62546 0.18692 0.0
H200 H 0.70111 0.62712 0.29895 0.0
H201 H 0.65771 0.53947 0.28625 0.0
H202 H 0.67695 0.53798 0.17526 0.0
H203 H 0.67832 0.60168 0.04519 0.0
H204 H 0.63863 0.57867 0.95899 0.0
H205 H 0.64429 0.50601 0.95298 0.0
H206 H 0.68357 0.52881 0.04075 0.0
H207 H 0.74649 0.61279 0.02502 0.0
H208 H 0.78603 0.60962 0.0008 0.0
H209 H 0.75878 0.54079 0.12662 0.0
N210 N 0.70695 0.58146 0.10072 0.0
H211 H 0.71898 0.54367 0.14876 0.0
C212 C 0.88831 0.5737 0.0697 0.0
C213 C 0.9154 0.59397 0.07837 0.0
C214 C 0.93324 0.59196 0.12693 0.0
C215 C 0.92421 0.56942 0.16702 0.0
C216 C 0.89684 0.54961 0.16051 0.0
C217 C 0.87895 0.55178 0.11232 0.0
C218 C 0.87326 0.56104 0.94401 0.0
C219 C 0.87108 0.53527 0.94067 0.0
C220 C 0.88333 0.5282 0.88836 0.0
C221 C 0.89702 0.54646 0.83798 0.0
C222 C 0.89474 0.56978 0.83408 0.0
C223 C 0.88327 0.5772 0.88749 0.0
C224 C 0.84738 0.57312 0.02367 0.0
C225 C 0.84836 0.5978 0.03992 0.0
C226 C 0.82514 0.59833 0.05316 0.0
C227 C 0.80034 0.57407 0.05014 0.0
C228 C 0.79942 0.54917 0.0348 0.0
C229 C 0.82284 0.5487 0.02168 0.0
C230 C 0.70006 0.58171 0.17286 0.0
C231 C 0.70736 0.6067 0.20977 0.0
C232 C 0.69631 0.60761 0.27329 0.0
C233 C 0.67775 0.58342 0.30062 0.0
C234 C 0.67214 0.55842 0.26661 0.0
C235 C 0.68312 0.55753 0.20308 0.0
C236 C 0.68422 0.56726 0.04833 0.0
C237 C 0.67097 0.5808 0.02527 0.0
C238 C 0.64825 0.5676 0.97682 0.0
C239 C 0.63851 0.54062 0.94993 0.0
C240 C 0.65155 0.52684 0.9732 0.0
C241 C 0.67409 0.53996 0.02279 0.0
C242 C 0.73001 0.57883 0.08926 0.0
C243 C 0.74915 0.59709 0.04739 0.0
C244 C 0.77172 0.59527 0.03391 0.0
C245 C 0.77567 0.57508 0.06236 0.0
C246 C 0.75623 0.55645 0.1036 0.0
C247 C 0.73356 0.55827 0.11691 0.0
H248 H 0.1305 0.66158 0.13749 0.0
N249 N 0.13739 0.71253 0.11936 0.0
H250 H 0.12202 0.63944 0.24668 0.0
H251 H 0.13853 0.73345 0.24993 0.0
H252 H 0.13221 0.71192 0.36179 0.0
H253 H 0.08989 0.6994 0.05581 0.0
H254 H 0.06677 0.66898 0.94755 0.0
H255 H 0.1577 0.68829 0.03385 0.0
H256 H 0.13436 0.65697 0.92706 0.0
H257 H 0.18747 0.71992 0.15072 0.0
H258 H 0.1445 0.75858 0.0737 0.0
H259 H 0.23001 0.76239 0.14841 0.0
H260 H 0.18679 0.8006 0.0667 0.0
H261 H 0.34871 0.87495 0.11675 0.0
H262 H 0.3877 0.89392 0.20516 0.0
H263 H 0.35526 0.93627 0.32245 0.0
H264 H 0.31686 0.91793 0.23284 0.0
H265 H 0.31031 0.93255 0.07325 0.0
H266 H 0.33184 0.95774 0.97161 0.0
H267 H 0.34812 0.89443 0.90299 0.0
H268 H 0.32606 0.86922 0.00271 0.0
H269 H 0.30329 0.83782 0.08205 0.0
H270 H 0.26167 0.7942 0.0777 0.0
H271 H 0.22012 0.8359 0.14469 0.0
N272 N 0.3089 0.88793 0.11284 0.0
H273 H 0.26149 0.87935 0.14412 0.0
C274 C 0.13474 0.6993 0.18459 0.0
C275 C 0.13106 0.67299 0.18566 0.0
C276 C 0.12672 0.66037 0.24919 0.0
C277 C 0.12683 0.67396 0.31383 0.0
C278 C 0.13183 0.70074 0.31316 0.0
C279 C 0.13548 0.71309 0.24927 0.0
C280 C 0.12516 0.69566 0.05339 0.0
C281 C 0.0998 0.69049 0.0272 0.0
C282 C 0.08675 0.67326 0.9653 0.0
C283 C 0.09876 0.66061 0.92861 0.0
C284 C 0.12478 0.66681 0.95314 0.0
C285 C 0.13799 0.68438 0.01473 0.0
C286 C 0.16289 0.73646 0.11375 0.0
C287 C 0.18728 0.73754 0.13266 0.0
C288 C 0.21158 0.76178 0.13063 0.0
C289 C 0.21187 0.78511 0.10834 0.0
C290 C 0.18736 0.78335 0.08622 0.0
C291 C 0.16318 0.75934 0.08949 0.0
C292 C 0.33002 0.89534 0.16818 0.0
C293 C 0.34984 0.88805 0.16186 0.0
C294 C 0.37206 0.89878 0.21256 0.0
C295 C 0.3746 0.91676 0.2702 0.0
C296 C 0.35401 0.92279 0.27794 0.0
C297 C 0.33201 0.91223 0.2273 0.0
C298 C 0.31694 0.89931 0.04612 0.0
C299 C 0.31787 0.92384 0.03494 0.0
C300 C 0.3302 0.93818 0.97723 0.0
C301 C 0.342 0.92821 0.93027 0.0
C302 C 0.33909 0.90254 0.93826 0.0
C303 C 0.32665 0.88817 0.99577 0.0
C304 C 0.2852 0.86181 0.11202 0.0
C305 C 0.28513 0.83755 0.09458 0.0
C306 C 0.26133 0.81257 0.09305 0.0
C307 C 0.23738 0.81146 0.11006 0.0
C308 C 0.23791 0.8359 0.12927 0.0
C309 C 0.26154 0.86076 0.12969 0.0
H310 H 0.48162 0.35482 0.10285 0.0
N311 N 0.44219 0.30173 0.11685 0.0
H312 H 0.49163 0.37709 0.99345 0.0
H313 H 0.42407 0.27911 0.98371 0.0
H314 H 0.43597 0.30096 0.87263 0.0
H315 H 0.40803 0.31593 0.16467 0.0
H316 H 0.41563 0.34762 0.26834 0.0
H317 H 0.48656 0.32642 0.21494 0.0
H318 H 0.49375 0.35719 0.31838 0.0
H319 H 0.48961 0.30208 0.11634 0.0
H320 H 0.40514 0.25144 0.13656 0.0
H321 H 0.49688 0.26477 0.14261 0.0
H322 H 0.41145 0.21299 0.15532 0.0
H323 H 0.51435 0.15231 0.17133 0.0
H324 H 0.53234 0.13923 0.07192 0.0
H325 H 0.45388 0.09883 0.95626 0.0
H326 H 0.4359 0.11178 0.05617 0.0
H327 H 0.43189 0.09242 0.23064 0.0
H328 H 0.44287 0.07548 0.33608 0.0
H329 H 0.515 0.1533 0.3867 0.0
H330 H 0.5038 0.17007 0.28027 0.0
H331 H 0.49689 0.18544 0.11476 0.0
H332 H 0.49239 0.22469 0.10009 0.0
H333 H 0.42644 0.19345 0.234 0.0
N334 N 0.46202 0.13965 0.179 0.0
H335 H 0.42932 0.15253 0.24221 0.0
C336 C 0.45139 0.31515 0.05233 0.0
C337 C 0.47134 0.34271 0.05336 0.0
C338 C 0.47738 0.3555 0.99006 0.0
C339 C 0.46419 0.34102 0.92394 0.0
C340 C 0.44579 0.31304 0.92258 0.0
C341 C 0.43918 0.30043 0.98606 0.0
C342 C 0.44652 0.31862 0.18163 0.0
C343 C 0.42656 0.3245 0.1988 0.0
C344 C 0.43081 0.34232 0.25817 0.0
C345 C 0.45506 0.35434 0.30191 0.0
C346 C 0.4746 0.34757 0.28667 0.0
C347 C 0.4705 0.33004 0.22687 0.0
C348 C 0.44686 0.27952 0.1262 0.0
C349 C 0.4726 0.28277 0.12613 0.0
C350 C 0.47661 0.26121 0.1402 0.0
C351 C 0.4548 0.23568 0.1519 0.0
C352 C 0.42893 0.23243 0.14912 0.0
C353 C 0.42513 0.25424 0.13731 0.0
C354 C 0.47354 0.13259 0.12142 0.0
C355 C 0.50095 0.14052 0.1249 0.0
C356 C 0.51131 0.1333 0.06786 0.0
C357 C 0.49459 0.11845 0.00617 0.0
C358 C 0.46735 0.11088 0.00255 0.0
C359 C 0.45698 0.11793 0.05967 0.0
C360 C 0.46711 0.13224 0.24746 0.0
C361 C 0.44965 0.10601 0.26568 0.0
C362 C 0.45583 0.09651 0.32634 0.0
C363 C 0.47967 0.11319 0.37003 0.0
C364 C 0.49643 0.14011 0.35408 0.0
C365 C 0.49013 0.14965 0.29333 0.0
C366 C 0.46296 0.16544 0.17868 0.0
C367 C 0.48134 0.18674 0.14104 0.0
C368 C 0.47895 0.20964 0.13327 0.0
C369 C 0.45875 0.21231 0.16485 0.0
C370 C 0.44165 0.19183 0.20662 0.0
C371 C 0.44351 0.16854 0.21244 0.0
C372 C 0.05028 0.49708 0.5389 0.0
C373 C 0.02891 0.46 0.79216 0.0
C374 C 0.9513 0.44962 0.73914 0.0
Mg375 Mg 0.02592 0.52942 0.45163 0.0
Mg376 Mg 0.01024 0.56907 0.54301 0.0
O377 O 0.00402 0.53383 0.52472 0.0
Mg378 Mg 0.01095 0.51623 0.60518 0.0
O379 O 0.01807 0.49668 0.68008 0.0
Mg380 Mg 0.00036 0.45876 0.63193 0.0
Mg381 Mg 0.00623 0.49866 0.76891 0.0
C382 C 0.97445 0.53998 0.66831 0.0
O383 O 0.03896 0.55691 0.67647 0.0
O384 O 0.00375 0.54368 0.37248 0.0
O385 O 0.02491 0.54206 0.78354 0.0
O386 O 0.06047 0.57379 0.46974 0.0
O387 O 0.99323 0.57002 0.44096 0.0
O388 O 0.05214 0.59882 0.54701 0.0
O389 O 0.98237 0.47438 0.54541 0.0
O390 O 0.9917 0.48578 0.43446 0.0
C391 C 0.97874 0.46823 0.47795 0.0
C392 C 0.99295 0.5586 0.38041 0.0
O393 O 0.97763 0.51922 0.66077 0.0
O394 O 0.0213 0.44945 0.72719 0.0
O395 O 0.98693 0.56114 0.63407 0.0
O396 O 0.96218 0.44195 0.69311 0.0
O397 O 0.02482 0.4787 0.81796 0.0
O398 O 0.96377 0.47362 0.76978 0.0
O399 O 0.04386 0.51559 0.54287 0.0
O400 O 0.03782 0.4754 0.57075 0.0
C401 C 0.06762 0.59636 0.50533 0.0
C402 C 0.03801 0.56128 0.74391 0.0
C403 C 0.50744 0.04321 0.50834 0.0
C404 C 0.5817 0.02442 0.41813 0.0
C405 C 0.53225 0.94492 0.47778 0.0
Mg406 Mg 0.46846 0.01667 0.63481 0.0
Mg407 Mg 0.48796 0.99481 0.76834 0.0
O408 O 0.48036 0.99125 0.66983 0.0
Mg409 Mg 0.51066 0.00032 0.60928 0.0
O410 O 0.53891 0.00959 0.54254 0.0
Mg411 Mg 0.51655 0.99391 0.44948 0.0
Mg412 Mg 0.56446 -0.00059 0.56168 0.0
C413 C 0.51284 0.95852 0.72176 0.0
O414 O 0.54489 0.02823 0.6958 0.0
O415 O 0.43222 0.99518 0.70323 0.0
O416 O 0.57743 0.01916 0.66785 0.0
O417 O 0.49061 0.04906 0.7299 0.0
O418 O 0.44808 0.98182 0.7953 0.0
O419 O 0.51192 0.03659 0.80691 0.0
O420 O 0.47944 0.97393 0.51603 0.0
O421 O 0.44832 0.98512 0.53959 0.0
C422 C 0.45677 0.97238 0.50061 0.0
C423 C 0.42943 0.984 0.76209 0.0
O424 O 0.51505 0.96554 0.65734 0.0
O425 O 0.55713 0.01665 0.39732 0.0
O426 O 0.50462 0.96849 0.77027 0.0
O427 O 0.52078 0.9558 0.4442 0.0
O428 O 0.58865 0.01995 0.47919 0.0
O429 O 0.54816 0.95702 0.53364 0.0
O430 O 0.50557 0.03503 0.57095 0.0
O431 O 0.51276 0.0318 0.45658 0.0
C432 C 0.50618 0.05415 0.7863 0.0
C433 C 0.56833 0.03105 0.70768 0.0
C434 C 0.51585 0.54546 0.73453 0.0
C435 C 0.43428 0.45627 0.79867 0.0
C436 C 0.47697 0.41744 0.72357 0.0
Mg437 Mg 0.55503 0.55685 0.60687 0.0
Mg438 Mg 0.53201 0.51836 0.45826 0.0
O439 O 0.53846 0.51932 0.5562 0.0
Mg440 Mg 0.50727 0.49858 0.61366 0.0
O441 O 0.47832 0.47997 0.67822 0.0
Mg442 Mg 0.49967 0.48413 0.77001 0.0
Mg443 Mg 0.4498 0.44498 0.65117 0.0
C444 C 0.49794 0.45523 0.47869 0.0
O445 O 0.47466 0.49579 0.5312 0.0
O446 O 0.59099 0.56909 0.53759 0.0
O447 O 0.44095 0.45337 0.54596 0.0
O448 O 0.53699 0.57346 0.52348 0.0
O449 O 0.57322 0.54077 0.43684 0.0
O450 O 0.51417 0.54217 0.43334 0.0
O451 O 0.53636 0.4988 0.70172 0.0
O452 O 0.57177 0.53974 0.68909 0.0
C453 C 0.56065 0.51758 0.71958 0.0
C454 C 0.5931 0.56011 0.47577 0.0
O455 O 0.49838 0.45868 0.54711 0.0
O456 O 0.45924 0.46944 0.82261 0.0
O457 O 0.50801 0.47504 0.43909 0.0
O458 O 0.49107 0.44016 0.76073 0.0
O459 O 0.42636 0.44553 0.73441 0.0
O460 O 0.46059 0.41463 0.67134 0.0
O461 O 0.51726 0.53966 0.66903 0.0
O462 O 0.50831 0.52755 0.7794 0.0
C463 C 0.52208 0.56554 0.46468 0.0
C464 C 0.45152 0.47477 0.51187 0.0
C465 C 0.08416 0.49668 0.37338 0.0
C466 C 0.10142 0.48743 0.39793 0.0
C467 C 0.06918 0.50239 0.42057 0.0
C468 C 0.07099 0.49888 0.49347 0.0
H469 H 0.08079 0.4977 0.31684 0.0
H470 H 0.05466 0.5075 0.39908 0.0
S471 S 0.11693 0.48031 0.58621 0.0
N472 N 0.12242 0.47921 0.50134 0.0
N473 N 0.09383 0.48923 0.5894 0.0
C474 C 0.08979 0.4919 0.51929 0.0
C475 C 0.10514 0.48636 0.47167 0.0
C476 C 0.62074 0.07393 0.2846 0.0
C477 C 0.64608 0.07609 0.2938 0.0
C478 C 0.59964 0.0564 0.32312 0.0
C479 C 0.60326 0.04064 0.37265 0.0
H480 H 0.61714 0.0857 0.24683 0.0
H481 H 0.5806 0.05571 0.31521 0.0
S482 S 0.66578 0.03859 0.41474 0.0
N483 N 0.67362 0.06091 0.35485 0.0
N484 N 0.63404 0.02776 0.42705 0.0
C485 C 0.62849 0.04241 0.38154 0.0
C486 C 0.64988 0.06018 0.34215 0.0
C487 C 0.51108 0.59791 0.30624 0.0
C488 C 0.526 0.62576 0.32907 0.0
C489 C 0.50748 0.57824 0.35289 0.0
C490 C 0.51885 0.58563 0.42418 0.0
H491 H 0.50382 0.59126 0.25064 0.0
H492 H 0.4974 0.55723 0.3311 0.0
S493 S 0.55399 0.65563 0.5142 0.0
N494 N 0.54784 0.65954 0.43042 0.0
N495 N 0.54144 0.62267 0.51826 0.0
C496 C 0.53127 0.61327 0.44952 0.0
C497 C 0.53485 0.63331 0.40188 0.0
C498 C 0.95934 0.58816 0.26906 0.0
C499 C 0.94335 0.56691 0.21654 0.0
C500 C 0.97632 0.58567 0.31977 0.0
C501 C 0.97818 0.56198 0.31931 0.0
H502 H 0.95803 0.60648 0.27244 0.0
H503 H 0.98761 0.60224 0.3608 0.0
S504 S 0.94231 0.5016 0.18807 0.0
N505 N 0.93168 0.52224 0.16337 0.0
N506 N 0.96381 0.51753 0.25895 0.0
C507 C 0.96327 0.54109 0.26485 0.0
C508 C 0.94571 0.54353 0.21353 0.0
C509 C 0.41127 0.95907 0.33621 0.0
C510 C 0.39915 0.93083 0.32049 0.0
C511 C 0.43158 0.97267 0.39153 0.0
C512 C 0.4408 0.95865 0.43268 0.0
H513 H 0.40419 0.97059 0.30748 0.0
H514 H 0.43926 0.99418 0.40446 0.0
S515 S 0.41789 0.88526 0.4087 0.0
N516 N 0.39933 0.8896 0.34691 0.0
N517 N 0.43812 0.91558 0.45079 0.0
C518 C 0.43044 0.93085 0.41432 0.0
C519 C 0.40944 0.91682 0.35807 0.0
C520 C 0.46218 0.4004 0.32764 0.0
C521 C 0.46224 0.37784 0.35345 0.0
C522 C 0.47307 0.42486 0.36995 0.0
C523 C 0.48405 0.42776 0.44053 0.0
H524 H 0.45487 0.3996 0.27291 0.0
H525 H 0.47327 0.44188 0.3463 0.0
S526 S 0.48667 0.37378 0.53575 0.0
N527 N 0.47272 0.35908 0.45504 0.0
N528 N 0.49259 0.40529 0.53616 0.0
C529 C 0.48291 0.40491 0.46865 0.0
C530 C 0.47223 0.37992 0.42463 0.0
C531 C 0.51446 0.90551 0.8287 0.0
C532 C 0.54016 0.90936 0.82049 0.0
C533 C 0.50494 0.92003 0.79155 0.0
C534 C 0.52061 0.93885 0.74433 0.0
H535 H 0.50226 0.89258 0.86776 0.0
H536 H 0.4857 0.9176 0.80292 0.0
S537 S 0.58779 0.95392 0.69662 0.0
N538 N 0.57995 0.93121 0.75555 0.0
N539 N 0.56206 0.95895 0.6866 0.0
C540 C 0.54548 0.94149 0.73147 0.0
C541 C 0.55529 0.9267 0.76954 0.0
C542 C 0.59144 0.52655 0.90592 0.0
C543 C 0.61594 0.528 0.89376 0.0
C544 C 0.57187 0.52011 0.84938 0.0
C545 C 0.57648 0.5153 0.77921 0.0
H546 H 0.58804 0.53187 0.9588 0.0
H547 H 0.55404 0.52099 0.85979 0.0
S548 S 0.63642 0.51498 0.72 0.0
N549 N 0.64287 0.52233 0.80724 0.0
N550 N 0.60631 0.51085 0.70083 0.0
C551 C 0.60015 0.51518 0.76701 0.0
C552 C 0.61986 0.52134 0.82448 0.0
C553 C 0.05687 0.61756 0.88779 0.0
C554 C 0.08246 0.63785 0.87295 0.0
C555 C 0.0422 0.59374 0.84288 0.0
C556 C 0.0523 0.58904 0.78068 0.0
H557 H 0.04859 0.61935 0.93668 0.0
H558 H 0.02308 0.57833 0.85881 0.0
S559 S 0.11676 0.6373 0.71228 0.0
N560 N 0.11631 0.65303 0.78786 0.0
N561 N 0.08843 0.60779 0.7028 0.0
C562 C 0.07708 0.60985 0.76233 0.0
C563 C 0.09228 0.63428 0.80879 0.0
C564 C 0.51667 0.09302 0.96356 0.0
C565 C 0.50463 0.10853 0.94801 0.0
C566 C 0.52023 0.07776 0.90921 0.0
C567 C 0.51167 0.07735 0.83749 0.0
H568 H 0.52137 0.09091 0.01842 0.0
H569 H 0.52755 0.0644 0.92451 0.0
S570 S 0.48578 0.1205 0.76826 0.0
N571 N 0.48918 0.12699 0.85574 0.0
N572 N 0.49585 0.09839 0.75312 0.0
C573 C 0.50278 0.09553 0.82081 0.0
C574 C 0.49911 0.11099 0.87626 0.0
C575 C 0.3969 0.44852 0.96333 0.0
C576 C 0.37325 0.44752 0.93594 0.0
C577 C 0.41693 0.45198 0.91902 0.0
C578 C 0.41369 0.45399 0.84562 0.0
H579 H 0.39993 0.44666 0.01951 0.0
H580 H 0.43475 0.45246 0.94205 0.0
S581 S 0.35571 0.45341 0.7486 0.0
N582 N 0.34799 0.44957 0.83196 0.0
N583 N 0.38535 0.45573 0.74805 0.0
C584 C 0.3902 0.45333 0.81787 0.0
C585 C 0.37006 0.45021 0.86322 0.0
C586 C 0.90612 0.38335 0.81361 0.0
C587 C 0.89391 0.3909 0.86577 0.0
C588 C 0.92233 0.40175 0.76674 0.0
C589 C 0.92739 0.42865 0.77084 0.0
H590 H 0.90506 0.36384 0.81249 0.0
H591 H 0.93286 0.39547 0.73164 0.0
S592 S 0.89463 0.45638 0.88469 0.0
N593 N 0.88345 0.42526 0.90828 0.0
N594 N 0.91484 0.46028 0.82186 0.0
C595 C 0.91299 0.43554 0.81719 0.0
C596 C 0.8961 0.41661 0.86436 0.0
C597 C 0.91094 0.51936 0.75964 0.0
C598 C 0.9172 0.54388 0.79829 0.0
C599 C 0.93006 0.51754 0.72014 0.0
C600 C 0.95582 0.54024 0.71812 0.0
H601 H 0.89101 0.50179 0.75837 0.0
H602 H 0.92432 0.49871 0.68873 0.0
S603 S 0.9836 0.60728 0.82068 0.0
N604 N 0.95223 0.58987 0.84056 0.0
N605 N 0.98752 0.58674 0.7642 0.0
C606 C 0.96268 0.56426 0.75972 0.0
C607 C 0.94353 0.56601 0.80041 0.0
C608 C 0.36001 0.93582 0.81029 0.0
C609 C 0.36098 0.94596 0.88078 0.0
C610 C 0.38141 0.94973 0.76832 0.0
C611 C 0.40436 0.97398 0.79605 0.0
H612 H 0.34332 0.91628 0.78905 0.0
H613 H 0.38085 0.94046 0.71617 0.0
S614 S 0.41599 0.01032 0.97418 0.0
N615 N 0.38613 0.98288 0.97392 0.0
N616 N 0.42618 0.00877 0.89479 0.0
C617 C 0.40482 0.98525 0.86421 0.0
C618 C 0.3831 0.97131 0.90671 0.0
C619 C 0.49373 0.37741 0.8474 0.0
C620 C 0.46811 0.35589 0.85853 0.0
C621 C 0.49705 0.39583 0.79688 0.0
C622 C 0.47495 0.3932 0.75457 0.0
H623 H 0.5112 0.38107 0.88104 0.0
H624 H 0.5168 0.41337 0.79457 0.0
S625 S 0.40413 0.33833 0.7551 0.0
N626 N 0.42054 0.33167 0.81762 0.0
N627 N 0.42706 0.36557 0.72086 0.0
C628 C 0.44968 0.37017 0.7596 0.0
C629 C 0.44617 0.3517 0.81209 0.0
C630 C 0.079 0.46643 0.93899 0.0
C631 C 0.07623 0.44052 0.93631 0.0
C632 C 0.06373 0.47228 0.89146 0.0
C633 C 0.04506 0.45252 0.83883 0.0
H634 H 0.0927 0.48223 0.97943 0.0
H635 H 0.06662 0.4926 0.89631 0.0
S636 S 0.03074 0.38163 0.80803 0.0
N637 N 0.05389 0.39491 0.8764 0.0
N638 N 0.02502 0.40605 0.78561 0.0
C639 C 0.04239 0.42659 0.83435 0.0
C640 C 0.0579 0.42051 0.8837 0.0
C641 C 0.60377 0.06964 0.88539 0.0
C642 C 0.62962 0.08772 0.86586 0.0
C643 C 0.58303 0.05201 0.83359 0.0
C644 C 0.58786 0.0521 0.76142 0.0
H645 H 0.59998 0.06813 0.94113 0.0
H646 H 0.56373 0.03736 0.8503 0.0
S647 S 0.65054 0.09878 0.68247 0.0
N648 N 0.65772 0.10703 0.76924 0.0
N649 N 0.619 0.07389 0.67211 0.0
C650 C 0.61301 0.0714 0.74115 0.0
C651 C 0.63389 0.08925 0.79341 0.0
C652 C 0.51295 0.5992 0.84859 0.0
C653 C 0.5392 0.62139 0.85048 0.0
C654 C 0.50491 0.57539 0.80533 0.0
C655 C 0.52271 0.57291 0.76188 0.0
H656 H 0.49901 0.59944 0.8845 0.0
H657 H 0.48509 0.55815 0.80917 0.0
S658 S 0.59239 0.62625 0.73973 0.0
N659 N 0.58208 0.6405 0.79915 0.0
N660 N 0.56685 0.59526 0.71798 0.0
C661 C 0.54831 0.59553 0.75884 0.0
C662 C 0.55662 0.61989 0.80335 0.0
C663 C 0.51419 0.10271 0.41634 0.0
C664 C 0.48916 0.10074 0.42272 0.0
C665 C 0.52086 0.08535 0.45005 0.0
C666 C 0.50295 0.06567 0.49207 0.0
H667 H 0.52779 0.11611 0.38023 0.0
H668 H 0.53948 0.08614 0.43934 0.0
S669 S 0.43681 0.0553 0.53501 0.0
N670 N 0.44784 0.08002 0.48141 0.0
N671 N 0.46048 0.04724 0.54476 0.0
C672 C 0.47898 0.06518 0.50437 0.0
C673 C 0.47204 0.08277 0.46956 0.0
C674 C 0.40879 0.49371 0.39828 0.0
C675 C 0.39219 0.46918 0.35591 0.0
C676 C 0.42999 0.49658 0.44499 0.0
C677 C 0.43488 0.47491 0.45059 0.0
H678 H 0.4045 0.51014 0.39806 0.0
H679 H 0.44131 0.51502 0.4803 0.0
S680 S 0.40047 0.40874 0.34135 0.0
N681 N 0.38498 0.42479 0.31402 0.0
N682 N 0.42371 0.42967 0.40423 0.0
C683 C 0.41972 0.45122 0.40459 0.0
C684 C 0.39862 0.44848 0.35656 0.0
C685 C 0.94031 0.39469 0.40578 0.0
C686 C 0.92132 0.39456 0.35533 0.0
C687 C 0.95764 0.41811 0.45111 0.0
C688 C 0.95651 0.44199 0.44672 0.0
H689 H 0.9426 0.377 0.40783 0.0
H690 H 0.97312 0.41809 0.48612 0.0
S691 S 0.90958 0.45193 0.32804 0.0
N692 N 0.90174 0.42023 0.3071 0.0
N693 N 0.9341 0.46386 0.39254 0.0
C694 C 0.93668 0.44165 0.39983 0.0
C695 C 0.91908 0.41799 0.35404 0.0
C696 C 0.56561 0.915 0.37358 0.0
C697 C 0.54529 0.89807 0.31973 0.0
C698 C 0.56019 0.92716 0.43171 0.0
C699 C 0.53442 0.92344 0.43725 0.0
H700 H 0.58632 0.92084 0.3682 0.0
H701 H 0.57699 0.94192 0.46799 0.0
S702 S 0.47292 0.8757 0.3218 0.0
N703 N 0.49715 0.87336 0.28529 0.0
N704 N 0.48752 0.89808 0.39197 0.0
C705 C 0.51341 0.90437 0.38846 0.0
C706 C 0.51873 0.8913 0.33022 0.0
C707 C 0.65673 0.56731 0.41416 0.0
C708 C 0.66098 0.58362 0.35714 0.0
C709 C 0.63603 0.56183 0.45799 0.0
C710 C 0.61908 0.5725 0.44595 0.0
H711 H 0.6684 0.55742 0.4221 0.0
H712 H 0.63207 0.54764 0.4981 0.0
S713 S 0.62272 0.61763 0.30753 0.0
N714 N 0.6474 0.61164 0.29416 0.0
N715 N 0.60857 0.6012 0.37688 0.0
C716 C 0.62415 0.59017 0.39244 0.0
C717 C 0.64519 0.59585 0.34797 0.0
C718 C 0.09958 0.66158 0.41931 0.0
C719 C 0.11817 0.65898 0.37898 0.0
C720 C 0.08581 0.64313 0.46909 0.0
C721 C 0.08971 0.62104 0.47944 0.0
H722 H 0.09378 0.67646 0.40815 0.0
H723 H 0.06994 0.64453 0.49351 0.0
S724 S 0.14129 0.60948 0.40258 0.0
N725 N 0.14412 0.63629 0.36539 0.0
N726 N 0.11709 0.60071 0.45622 0.0
C727 C 0.11046 0.62012 0.44607 0.0
C728 C 0.12489 0.63924 0.39633 0.0
loop_
_geom_bond_atom_site_label_1
_geom_bond_atom_site_label_2
_geom_bond_distance
_geom_bond_site_symmetry_2
_ccdc_geom_bond_type
H0 C27 0.929 . S
N1 C26 1.433 . S
N1 C32 1.435 . S
N1 C38 1.423 . S
H2 C28 0.930 . S
H3 C31 0.931 . S
H4 C30 0.929 . S
H5 C33 0.930 . S
H6 C34 0.932 . S
H7 C37 0.929 . S
H8 C36 0.931 1_556 S
H9 C39 0.929 . S
H10 C43 0.932 . S
H11 C40 0.931 . S
H12 C42 0.929 . S
H13 C45 0.929 . S
H14 C46 0.930 . S
H15 C48 0.929 . S
H16 C49 0.931 . S
H17 C51 0.930 . S
H18 C52 0.932 . S
H19 C54 0.931 1_556 S
H20 C55 0.929 . S
H21 C57 0.929 . S
H22 C58 0.931 . S
H23 C60 0.929 . S
N24 C44 1.433 . S
N24 C50 1.435 . S
N24 C56 1.423 . S
H25 C61 0.932 . S
C26 N1 1.433 . S
C26 C27 1.363 . S
C26 C31 1.370 . S
C27 H0 0.929 . S
C27 C26 1.363 . S
C27 C28 1.385 . S
C28 H2 0.930 . S
C28 C27 1.385 . S
C28 C29 1.357 . S
C29 C28 1.357 . S
C29 C30 1.406 . S
C30 H4 0.929 . S
C30 C29 1.406 . S
C30 C31 1.391 . S
C31 H3 0.931 . S
C31 C26 1.370 . S
C31 C30 1.391 . S
C32 N1 1.435 . S
C32 C33 1.358 . S
C32 C37 1.371 . S
C33 H5 0.930 . S
C33 C32 1.358 . S
C33 C34 1.405 . S
C34 H6 0.932 . S
C34 C33 1.405 . S
C34 C35 1.383 . S
C35 C34 1.383 . S
C35 C36 1.393 . S
C36 H8 0.931 1_554 S
C36 C35 1.393 . S
C36 C37 1.382 . S
C37 H7 0.929 . S
C37 C32 1.371 . S
C37 C36 1.382 . S
C38 N1 1.423 . S
C38 C39 1.362 . S
C38 C43 1.388 . S
C39 H9 0.929 . S
C39 C38 1.362 . S
C39 C40 1.376 . S
C40 H11 0.931 . S
C40 C39 1.376 . S
C40 C41 1.396 . S
C41 C40 1.396 . S
C41 C42 1.348 . S
C41 C59 1.472 . S
C42 H12 0.929 . S
C42 C41 1.348 . S
C42 C43 1.443 . S
C43 H10 0.932 . S
C43 C38 1.388 . S
C43 C42 1.443 . S
C44 N24 1.433 . S
C44 C45 1.363 . S
C44 C49 1.370 . S
C45 H13 0.929 . S
C45 C44 1.363 . S
C45 C46 1.385 . S
C46 H14 0.930 . S
C46 C45 1.385 . S
C46 C47 1.357 . S
C47 C46 1.357 . S
C47 C48 1.406 . S
C48 H15 0.929 . S
C48 C47 1.406 . S
C48 C49 1.391 . S
C49 H16 0.931 . S
C49 C44 1.370 . S
C49 C48 1.391 . S
C50 N24 1.435 . S
C50 C51 1.358 . S
C50 C55 1.371 . S
C51 H17 0.930 . S
C51 C50 1.358 . S
C51 C52 1.405 . S
C52 H18 0.932 . S
C52 C51 1.405 . S
C52 C53 1.383 . S
C53 C52 1.383 . S
C53 C54 1.393 . S
C54 H19 0.931 1_554 S
C54 C53 1.393 . S
C54 C55 1.382 . S
C55 H20 0.929 . S
C55 C50 1.371 . S
C55 C54 1.382 . S
C56 N24 1.423 . S
C56 C57 1.362 . S
C56 C61 1.388 . S
C57 H21 0.929 . S
C57 C56 1.362 . S
C57 C58 1.376 . S
C58 H22 0.931 . S
C58 C57 1.376 . S
C58 C59 1.396 . S
C59 C41 1.472 . S
C59 C58 1.396 . S
C59 C60 1.348 . S
C60 H23 0.929 . S
C60 C59 1.348 . S
C60 C61 1.443 . S
C61 H25 0.932 . S
C61 C56 1.388 . S
C61 C60 1.443 . S
H62 C89 0.929 . S
N63 C88 1.433 . S
N63 C94 1.435 . S
N63 C100 1.423 . S
H64 C90 0.930 . S
H65 C93 0.931 . S
H66 C92 0.929 . S
H67 C95 0.930 . S
H68 C96 0.932 . S
H69 C99 0.929 . S
H70 C98 0.931 . S
H71 C101 0.929 . S
H72 C105 0.932 . S
H73 C102 0.931 . S
H74 C104 0.929 1_556 S
H75 C107 0.929 . S
H76 C108 0.930 . S
H77 C110 0.929 . S
H78 C111 0.931 . S
H79 C113 0.930 . S
H80 C114 0.932 . S
H81 C116 0.931 . S
H82 C117 0.929 . S
H83 C119 0.929 . S
H84 C120 0.931 . S
H85 C122 0.934 . S
N86 C106 1.433 . S
N86 C112 1.435 . S
N86 C118 1.423 . S
H87 C123 0.932 . S
C88 N63 1.433 . S
C88 C89 1.363 . S
C88 C93 1.370 . S
C89 H62 0.929 . S
C89 C88 1.363 . S
C89 C90 1.385 . S
C90 H64 0.930 . S
C90 C89 1.385 . S
C90 C91 1.357 . S
C91 C90 1.357 . S
C91 C92 1.406 . S
C92 H66 0.929 . S
C92 C91 1.406 . S
C92 C93 1.391 . S
C93 H65 0.931 . S
C93 C88 1.370 . S
C93 C92 1.391 . S
C94 N63 1.435 . S
C94 C95 1.358 . S
C94 C99 1.371 1_554 S
C95 H67 0.930 . S
C95 C94 1.358 . S
C95 C96 1.405 1_554 S
C96 H68 0.932 . S
C96 C95 1.405 1_556 S
C96 C97 1.383 . S
C97 C96 1.383 . S
C97 C98 1.393 . S
C98 H70 0.931 . S
C98 C97 1.393 . S
C98 C99 1.382 . S
C99 H69 0.929 . S
C99 C94 1.371 1_556 S
C99 C98 1.382 . S
C100 N63 1.423 . S
C100 C101 1.362 . S
C100 C105 1.388 . S
C101 H71 0.929 . S
C101 C100 1.362 . S
C101 C102 1.376 . S
C102 H73 0.931 . S
C102 C101 1.376 . S
C102 C103 1.396 . S
C103 C102 1.396 . S
C103 C104 1.348 . S
C103 C121 1.472 . S
C104 H74 0.929 1_554 S
C104 C103 1.348 . S
C104 C105 1.443 . S
C105 H72 0.932 . S
C105 C100 1.388 . S
C105 C104 1.443 . S
C106 N86 1.433 . S
C106 C107 1.363 . S
C106 C111 1.370 . S
C107 H75 0.929 . S
C107 C106 1.363 . S
C107 C108 1.385 . S
C108 H76 0.930 . S
C108 C107 1.385 . S
C108 C109 1.357 . S
C109 C108 1.357 . S
C109 C110 1.406 . S
C110 H77 0.929 . S
C110 C109 1.406 . S
C110 C111 1.391 . S
C111 H78 0.931 . S
C111 C106 1.370 . S
C111 C110 1.391 . S
C112 N86 1.435 . S
C112 C113 1.358 . S
C112 C117 1.371 1_554 S
C113 H79 0.930 . S
C113 C112 1.358 . S
C113 C114 1.405 . S
C114 H80 0.932 . S
C114 C113 1.405 . S
C114 C115 1.383 1_554 S
C115 C114 1.383 1_556 S
C115 C116 1.393 . S
C116 H81 0.931 . S
C116 C115 1.393 . S
C116 C117 1.382 . S
C117 H82 0.929 . S
C117 C112 1.371 1_556 S
C117 C116 1.382 . S
C118 N86 1.423 . S
C118 C119 1.362 . S
C118 C123 1.388 . S
C119 H83 0.929 . S
C119 C118 1.362 . S
C119 C120 1.376 . S
C120 H84 0.931 . S
C120 C119 1.376 . S
C120 C121 1.396 . S
C121 C103 1.472 . S
C121 C120 1.396 . S
C121 C122 1.348 . S
C122 H85 0.934 . S
C122 C121 1.348 . S
C122 C123 1.443 . S
C123 H87 0.932 . S
C123 C118 1.388 . S
C123 C122 1.443 . S
H124 C151 0.929 . S
N125 C150 1.433 1_554 S
N125 C156 1.435 . S
N125 C162 1.423 . S
H126 C152 0.930 . S
H127 C155 0.931 . S
H128 C154 0.929 . S
H129 C157 0.930 . S
H130 C158 0.932 . S
H131 C161 0.929 . S
H132 C160 0.931 . S
H133 C163 0.929 1_556 S
H134 C167 0.932 . S
H135 C164 0.931 1_556 S
H136 C166 0.929 . S
H137 C169 0.929 . S
H138 C170 0.930 . S
H139 C172 0.929 . S
H140 C173 0.931 . S
H141 C175 0.930 . S
H142 C176 0.932 . S
H143 C178 0.931 . S
H144 C179 0.929 . S
H145 C181 0.929 1_556 S
H146 C182 0.931 1_556 S
H147 C184 0.929 . S
N148 C168 1.433 1_554 S
N148 C174 1.435 . S
N148 C180 1.423 . S
H149 C185 0.932 . S
C150 N125 1.433 1_556 S
C150 C151 1.363 . S
C150 C155 1.370 . S
C151 H124 0.929 . S
C151 C150 1.363 . S
C151 C152 1.385 . S
C152 H126 0.930 . S
C152 C151 1.385 . S
C152 C153 1.357 . S
C153 C152 1.357 . S
C153 C154 1.406 . S
C154 H128 0.929 . S
C154 C153 1.406 . S
C154 C155 1.391 . S
C155 H127 0.931 . S
C155 C150 1.370 . S
C155 C154 1.391 . S
C156 N125 1.435 . S
C156 C157 1.358 . S
C156 C161 1.371 . S
C157 H129 0.930 . S
C157 C156 1.358 . S
C157 C158 1.405 . S
C158 H130 0.932 . S
C158 C157 1.405 . S
C158 C159 1.383 . S
C159 C158 1.383 . S
C159 C160 1.393 . S
C160 H132 0.931 . S
C160 C159 1.393 . S
C160 C161 1.382 . S
C161 H131 0.929 . S
C161 C156 1.371 . S
C161 C160 1.382 . S
C162 N125 1.423 . S
C162 C163 1.362 . S
C162 C167 1.388 . S
C163 H133 0.929 1_554 S
C163 C162 1.362 . S
C163 C164 1.376 . S
C164 H135 0.931 1_554 S
C164 C163 1.376 . S
C164 C165 1.396 . S
C165 C164 1.396 . S
C165 C166 1.348 . S
C165 C183 1.472 . S
C166 H136 0.929 . S
C166 C165 1.348 . S
C166 C167 1.443 . S
C167 H134 0.932 . S
C167 C162 1.388 . S
C167 C166 1.443 . S
C168 N148 1.433 1_556 S
C168 C169 1.363 . S
C168 C173 1.370 . S
C169 H137 0.929 . S
C169 C168 1.363 . S
C169 C170 1.385 . S
C170 H138 0.930 . S
C170 C169 1.385 . S
C170 C171 1.357 . S
C171 C170 1.357 . S
C171 C172 1.406 . S
C172 H139 0.929 . S
C172 C171 1.406 . S
C172 C173 1.391 . S
C173 H140 0.931 . S
C173 C168 1.370 . S
C173 C172 1.391 . S
C174 N148 1.435 . S
C174 C175 1.358 . S
C174 C179 1.371 . S
C175 H141 0.930 . S
C175 C174 1.358 . S
C175 C176 1.405 . S
C176 H142 0.932 . S
C176 C175 1.405 . S
C176 C177 1.383 . S
C177 C176 1.383 . S
C177 C178 1.393 . S
C178 H143 0.931 . S
C178 C177 1.393 . S
C178 C179 1.382 . S
C179 H144 0.929 . S
C179 C174 1.371 . S
C179 C178 1.382 . S
C180 N148 1.423 . S
C180 C181 1.362 . S
C180 C185 1.388 . S
C181 H145 0.929 1_554 S
C181 C180 1.362 . S
C181 C182 1.376 . S
C182 H146 0.931 1_554 S
C182 C181 1.376 . S
C182 C183 1.396 . S
C183 C165 1.472 . S
C183 C182 1.396 . S
C183 C184 1.348 . S
C184 H147 0.929 . S
C184 C183 1.348 . S
C184 C185 1.443 . S
C185 H149 0.932 . S
C185 C180 1.388 . S
C185 C184 1.443 . S
H186 C213 0.929 . S
N187 C212 1.433 . S
N187 C218 1.435 1_554 S
N187 C224 1.423 . S
H188 C214 0.930 . S
H189 C217 0.931 . S
H190 C216 0.929 . S
H191 C219 0.932 . S
H192 C220 0.932 . S
H193 C223 0.929 . S
H194 C222 0.931 . S
H195 C225 0.929 . S
H196 C229 0.932 . S
H197 C226 0.931 . S
H198 C228 0.929 . S
H199 C231 0.929 . S
H200 C232 0.930 . S
H201 C234 0.929 . S
H202 C235 0.931 . S
H203 C237 0.930 . S
H204 C238 0.932 . S
H205 C240 0.931 . S
H206 C241 0.929 . S
H207 C243 0.929 . S
H208 C244 0.931 . S
H209 C246 0.929 . S
N210 C230 1.433 . S
N210 C236 1.435 1_554 S
N210 C242 1.423 . S
H211 C247 0.932 . S
C212 N187 1.433 . S
C212 C213 1.363 . S
C212 C217 1.370 . S
C213 H186 0.929 . S
C213 C212 1.363 . S
C213 C214 1.385 . S
C214 H188 0.930 . S
C214 C213 1.385 . S
C214 C215 1.357 . S
C215 C214 1.357 . S
C215 C216 1.406 . S
C216 H190 0.929 . S
C216 C215 1.406 . S
C216 C217 1.391 . S
C217 H189 0.931 . S
C217 C212 1.370 . S
C217 C216 1.391 . S
C218 N187 1.435 1_556 S
C218 C219 1.358 . S
C218 C223 1.371 . S
C219 H191 0.932 . S
C219 C218 1.358 . S
C219 C220 1.405 . S
C220 H192 0.932 . S
C220 C219 1.405 . S
C220 C221 1.383 . S
C221 C220 1.383 . S
C221 C222 1.393 . S
C222 H194 0.931 . S
C222 C221 1.393 . S
C222 C223 1.382 . S
C223 H193 0.929 . S
C223 C218 1.371 . S
C223 C222 1.382 . S
C224 N187 1.423 . S
C224 C225 1.362 . S
C224 C229 1.388 1_554 S
C225 H195 0.929 . S
C225 C224 1.362 . S
C225 C226 1.376 . S
C226 H197 0.931 . S
C226 C225 1.376 . S
C226 C227 1.396 . S
C227 C226 1.396 . S
C227 C228 1.348 1_554 S
C227 C245 1.472 . S
C228 H198 0.929 . S
C228 C227 1.348 1_556 S
C228 C229 1.443 . S
C229 H196 0.932 . S
C229 C224 1.388 1_556 S
C229 C228 1.443 . S
C230 N210 1.433 . S
C230 C231 1.363 . S
C230 C235 1.370 . S
C231 H199 0.929 . S
C231 C230 1.363 . S
C231 C232 1.385 . S
C232 H200 0.930 . S
C232 C231 1.385 . S
C232 C233 1.357 . S
C233 C232 1.357 . S
C233 C234 1.406 . S
C234 H201 0.929 . S
C234 C233 1.406 . S
C234 C235 1.391 . S
C235 H202 0.931 . S
C235 C230 1.370 . S
C235 C234 1.391 . S
C236 N210 1.435 1_556 S
C236 C237 1.358 . S
C236 C241 1.371 . S
C237 H203 0.930 . S
C237 C236 1.358 . S
C237 C238 1.405 . S
C238 H204 0.932 . S
C238 C237 1.405 . S
C238 C239 1.383 . S
C239 C238 1.383 . S
C239 C240 1.393 . S
C240 H205 0.931 . S
C240 C239 1.393 . S
C240 C241 1.382 . S
C241 H206 0.929 . S
C241 C236 1.371 . S
C241 C240 1.382 . S
C242 N210 1.423 . S
C242 C243 1.362 . S
C242 C247 1.388 1_554 S
C243 H207 0.929 . S
C243 C242 1.362 . S
C243 C244 1.376 . S
C244 H208 0.931 . S
C244 C243 1.376 . S
C244 C245 1.396 . S
C245 C227 1.472 . S
C245 C244 1.396 . S
C245 C246 1.348 1_554 S
C246 H209 0.929 . S
C246 C245 1.348 1_556 S
C246 C247 1.443 . S
C247 H211 0.932 . S
C247 C242 1.388 1_556 S
C247 C246 1.443 . S
H248 C275 0.929 . S
N249 C274 1.433 . S
N249 C280 1.435 . S
N249 C286 1.423 . S
H250 C276 0.930 . S
H251 C279 0.931 . S
H252 C278 0.929 . S
H253 C281 0.930 . S
H254 C282 0.932 . S
H255 C285 0.929 . S
H256 C284 0.931 . S
H257 C287 0.929 . S
H258 C291 0.932 . S
H259 C288 0.931 . S
H260 C290 0.929 . S
H261 C293 0.929 . S
H262 C294 0.930 . S
H263 C296 0.929 . S
H264 C297 0.931 . S
H265 C299 0.930 . S
H266 C300 0.932 . S
H267 C302 0.931 . S
H268 C303 0.929 . S
H269 C305 0.929 . S
H270 C306 0.931 . S
H271 C308 0.929 . S
N272 C292 1.433 . S
N272 C298 1.435 . S
N272 C304 1.423 . S
H273 C309 0.932 . S
C274 N249 1.433 . S
C274 C275 1.363 . S
C274 C279 1.370 . S
C275 H248 0.929 . S
C275 C274 1.363 . S
C275 C276 1.385 . S
C276 H250 0.930 . S
C276 C275 1.385 . S
C276 C277 1.357 . S
C277 C276 1.357 . S
C277 C278 1.406 . S
C278 H252 0.929 . S
C278 C277 1.406 . S
C278 C279 1.391 . S
C279 H251 0.931 . S
C279 C274 1.370 . S
C279 C278 1.391 . S
C280 N249 1.435 . S
C280 C281 1.358 . S
C280 C285 1.371 1_554 S
C281 H253 0.930 . S
C281 C280 1.358 . S
C281 C282 1.405 1_554 S
C282 H254 0.932 . S
C282 C281 1.405 1_556 S
C282 C283 1.383 . S
C283 C282 1.383 . S
C283 C284 1.393 . S
C284 H256 0.931 . S
C284 C283 1.393 . S
C284 C285 1.382 . S
C285 H255 0.929 . S
C285 C280 1.371 1_556 S
C285 C284 1.382 . S
C286 N249 1.423 . S
C286 C287 1.362 . S
C286 C291 1.388 . S
C287 H257 0.929 . S
C287 C286 1.362 . S
C287 C288 1.376 . S
C288 H259 0.931 . S
C288 C287 1.376 . S
C288 C289 1.396 . S
C289 C288 1.396 . S
C289 C290 1.348 . S
C289 C307 1.472 . S
C290 H260 0.929 . S
C290 C289 1.348 . S
C290 C291 1.443 . S
C291 H258 0.932 . S
C291 C286 1.388 . S
C291 C290 1.443 . S
C292 N272 1.433 . S
C292 C293 1.363 . S
C292 C297 1.370 . S
C293 H261 0.929 . S
C293 C292 1.363 . S
C293 C294 1.385 . S
C294 H262 0.930 . S
C294 C293 1.385 . S
C294 C295 1.357 . S
C295 C294 1.357 . S
C295 C296 1.406 . S
C296 H263 0.929 . S
C296 C295 1.406 . S
C296 C297 1.391 . S
C297 H264 0.931 . S
C297 C292 1.370 . S
C297 C296 1.391 . S
C298 N272 1.435 . S
C298 C299 1.358 . S
C298 C303 1.371 . S
C299 H265 0.930 . S
C299 C298 1.358 . S
C299 C300 1.405 . S
C300 H266 0.932 . S
C300 C299 1.405 . S
C300 C301 1.383 1_554 S
C301 C300 1.383 1_556 S
C301 C302 1.393 . S
C302 H267 0.931 . S
C302 C301 1.393 . S
C302 C303 1.382 1_556 S
C303 H268 0.929 . S
C303 C298 1.371 . S
C303 C302 1.382 1_554 S
C304 N272 1.423 . S
C304 C305 1.362 . S
C304 C309 1.388 . S
C305 H269 0.929 . S
C305 C304 1.362 . S
C305 C306 1.376 . S
C306 H270 0.931 . S
C306 C305 1.376 . S
C306 C307 1.396 . S
C307 C289 1.472 . S
C307 C306 1.396 . S
C307 C308 1.348 . S
C308 H271 0.929 . S
C308 C307 1.348 . S
C308 C309 1.443 . S
C309 H273 0.932 . S
C309 C304 1.388 . S
C309 C308 1.443 . S
H310 C337 0.929 . S
N311 C336 1.433 . S
N311 C342 1.435 . S
N311 C348 1.423 . S
H312 C338 0.930 . S
H313 C341 0.931 . S
H314 C340 0.929 1_556 S
H315 C343 0.930 . S
H316 C344 0.932 . S
H317 C347 0.929 . S
H318 C346 0.931 . S
H319 C349 0.929 . S
H320 C353 0.932 . S
H321 C350 0.931 . S
H322 C352 0.929 . S
H323 C355 0.929 . S
H324 C356 0.930 . S
H325 C358 0.929 . S
H326 C359 0.931 . S
H327 C361 0.930 . S
H328 C362 0.932 . S
H329 C364 0.931 . S
H330 C365 0.929 . S
H331 C367 0.929 . S
H332 C368 0.931 . S
H333 C370 0.929 . S
N334 C354 1.433 . S
N334 C360 1.435 . S
N334 C366 1.423 . S
H335 C371 0.932 . S
C336 N311 1.433 . S
C336 C337 1.363 . S
C336 C341 1.370 . S
C337 H310 0.929 . S
C337 C336 1.363 . S
C337 C338 1.385 . S
C338 H312 0.930 . S
C338 C337 1.385 . S
C338 C339 1.357 1_554 S
C339 C338 1.357 1_556 S
C339 C340 1.406 1_556 S
C340 H314 0.929 1_554 S
C340 C339 1.406 1_554 S
C340 C341 1.391 . S
C341 H313 0.931 . S
C341 C336 1.370 . S
C341 C340 1.391 . S
C342 N311 1.435 . S
C342 C343 1.358 . S
C342 C347 1.371 . S
C343 H315 0.930 . S
C343 C342 1.358 . S
C343 C344 1.405 . S
C344 H316 0.932 . S
C344 C343 1.405 . S
C344 C345 1.383 . S
C345 C344 1.383 . S
C345 C346 1.393 . S
C346 H318 0.931 . S
C346 C345 1.393 . S
C346 C347 1.382 . S
C347 H317 0.929 . S
C347 C342 1.371 . S
C347 C346 1.382 . S
C348 N311 1.423 . S
C348 C349 1.362 . S
C348 C353 1.388 . S
C349 H319 0.929 . S
C349 C348 1.362 . S
C349 C350 1.376 . S
C350 H321 0.931 . S
C350 C349 1.376 . S
C350 C351 1.396 . S
C351 C350 1.396 . S
C351 C352 1.348 . S
C351 C369 1.472 . S
C352 H322 0.929 . S
C352 C351 1.348 . S
C352 C353 1.443 . S
C353 H320 0.932 . S
C353 C348 1.388 . S
C353 C352 1.443 . S
C354 N334 1.433 . S
C354 C355 1.363 . S
C354 C359 1.370 . S
C355 H323 0.929 . S
C355 C354 1.363 . S
C355 C356 1.385 . S
C356 H324 0.930 . S
C356 C355 1.385 . S
C356 C357 1.357 1_554 S
C357 C356 1.357 1_556 S
C357 C358 1.406 . S
C358 H325 0.929 . S
C358 C357 1.406 . S
C358 C359 1.391 1_556 S
C359 H326 0.931 . S
C359 C354 1.370 . S
C359 C358 1.391 1_554 S
C360 N334 1.435 . S
C360 C361 1.358 . S
C360 C365 1.371 . S
C361 H327 0.930 . S
C361 C360 1.358 . S
C361 C362 1.405 . S
C362 H328 0.932 . S
C362 C361 1.405 . S
C362 C363 1.383 . S
C363 C362 1.383 . S
C363 C364 1.393 . S
C364 H329 0.931 . S
C364 C363 1.393 . S
C364 C365 1.382 . S
C365 H330 0.929 . S
C365 C360 1.371 . S
C365 C364 1.382 . S
C366 N334 1.423 . S
C366 C367 1.362 . S
C366 C371 1.388 . S
C367 H331 0.929 . S
C367 C366 1.362 . S
C367 C368 1.376 . S
C368 H332 0.931 . S
C368 C367 1.376 . S
C368 C369 1.396 . S
C369 C351 1.472 . S
C369 C368 1.396 . S
C369 C370 1.348 . S
C370 H333 0.929 . S
C370 C369 1.348 . S
C370 C371 1.443 . S
C371 H335 0.932 . S
C371 C366 1.388 . S
C371 C370 1.443 . S
C372 O399 1.312 . S
C372 O400 1.208 . S
C373 O394 1.331 . S
C373 O397 1.244 . S
C374 O396 1.264 . S
C374 O398 1.273 . S
Mg375 O377 1.936 1_455 S
Mg375 O384 2.081 1_455 S
Mg375 O386 2.023 . S
Mg375 O390 2.031 1_455 S
Mg375 O399 2.291 . S
Mg376 O377 1.963 . S
Mg376 O387 1.942 . S
Mg376 O388 1.955 1_655 S
Mg376 O395 1.986 . S
O377 Mg375 1.936 1_655 S
O377 Mg376 1.963 . S
O377 Mg378 1.915 1_655 S
Mg378 O377 1.915 1_455 S
Mg378 O379 1.915 . S
Mg378 O383 2.013 . S
Mg378 O389 2.114 1_455 S
Mg378 O393 2.013 1_455 S
Mg378 O399 2.114 . S
O379 Mg378 1.915 . S
O379 Mg380 1.936 . S
O379 Mg381 1.963 . S
Mg380 O379 1.936 . S
Mg380 O389 2.291 1_455 S
Mg380 O394 2.081 . S
Mg380 O396 2.023 1_455 S
Mg380 O400 2.031 . S
Mg381 O379 1.963 . S
Mg381 O385 1.986 . S
Mg381 O397 1.942 . S
Mg381 O398 1.955 1_455 S
C382 O393 1.191 . S
C382 O395 1.307 . S
O383 Mg378 2.013 . S
O383 C402 1.191 . S
O384 Mg375 2.081 1_655 S
O384 C392 1.331 . S
O385 Mg381 1.986 . S
O385 C402 1.307 . S
O386 Mg375 2.023 . S
O386 C401 1.264 . S
O387 Mg376 1.942 . S
O387 C392 1.244 . S
O388 Mg376 1.955 1_455 S
O388 C401 1.273 . S
O389 Mg378 2.114 1_655 S
O389 Mg380 2.291 1_655 S
O389 C391 1.312 . S
O390 Mg375 2.031 1_655 S
O390 C391 1.208 . S
C391 O389 1.312 . S
C391 O390 1.208 . S
C392 O384 1.331 . S
C392 O387 1.244 . S
O393 Mg378 2.013 1_655 S
O393 C382 1.191 . S
O394 C373 1.331 . S
O394 Mg380 2.081 . S
O395 Mg376 1.986 . S
O395 C382 1.307 . S
O396 C374 1.264 . S
O396 Mg380 2.023 1_655 S
O397 C373 1.244 . S
O397 Mg381 1.942 . S
O398 C374 1.273 . S
O398 Mg381 1.955 1_655 S
O399 C372 1.312 . S
O399 Mg375 2.291 . S
O399 Mg378 2.114 . S
O400 C372 1.208 . S
O400 Mg380 2.031 . S
C401 O386 1.264 . S
C401 O388 1.273 . S
C402 O383 1.191 . S
C402 O385 1.307 . S
C403 O430 1.312 . S
C403 O431 1.208 . S
C404 O425 1.331 . S
C404 O428 1.244 . S
C405 O427 1.264 . S
C405 O429 1.273 . S
Mg406 O408 1.936 1_545 S
Mg406 O415 2.081 1_545 S
Mg406 O417 2.023 . S
Mg406 O421 2.031 1_545 S
Mg406 O430 2.291 . S
Mg407 O408 1.963 . S
Mg407 O418 1.942 . S
Mg407 O419 1.955 1_565 S
Mg407 O426 1.986 . S
O408 Mg406 1.936 1_565 S
O408 Mg407 1.963 . S
O408 Mg409 1.915 1_565 S
Mg409 O408 1.915 1_545 S
Mg409 O410 1.915 . S
Mg409 O414 2.013 . S
Mg409 O420 2.114 1_545 S
Mg409 O424 2.013 1_545 S
Mg409 O430 2.114 . S
O410 Mg409 1.915 . S
O410 Mg411 1.936 . S
O410 Mg412 1.963 . S
Mg411 O410 1.936 . S
Mg411 O420 2.291 1_545 S
Mg411 O425 2.081 . S
Mg411 O427 2.023 1_545 S
Mg411 O431 2.031 . S
Mg412 O410 1.963 . S
Mg412 O416 1.986 . S
Mg412 O428 1.942 . S
Mg412 O429 1.955 1_545 S
C413 O424 1.191 . S
C413 O426 1.307 . S
O414 Mg409 2.013 . S
O414 C433 1.191 . S
O415 Mg406 2.081 1_565 S
O415 C423 1.331 . S
O416 Mg412 1.986 . S
O416 C433 1.307 . S
O417 Mg406 2.023 . S
O417 C432 1.264 . S
O418 Mg407 1.942 . S
O418 C423 1.244 . S
O419 Mg407 1.955 1_545 S
O419 C432 1.273 . S
O420 Mg409 2.114 1_565 S
O420 Mg411 2.291 1_565 S
O420 C422 1.312 . S
O421 Mg406 2.031 1_565 S
O421 C422 1.208 . S
C422 O420 1.312 . S
C422 O421 1.208 . S
C423 O415 1.331 . S
C423 O418 1.244 . S
O424 Mg409 2.013 1_565 S
O424 C413 1.191 . S
O425 C404 1.331 . S
O425 Mg411 2.081 . S
O426 Mg407 1.986 . S
O426 C413 1.307 . S
O427 C405 1.264 . S
O427 Mg411 2.023 1_565 S
O428 C404 1.244 . S
O428 Mg412 1.942 . S
O429 C405 1.273 . S
O429 Mg412 1.955 1_565 S
O430 C403 1.312 . S
O430 Mg406 2.291 . S
O430 Mg409 2.114 . S
O431 C403 1.208 . S
O431 Mg411 2.031 . S
C432 O417 1.264 . S
C432 O419 1.273 . S
C433 O414 1.191 . S
C433 O416 1.307 . S
C434 O461 1.312 . S
C434 O462 1.208 . S
C435 O456 1.331 . S
C435 O459 1.244 . S
C436 O458 1.264 . S
C436 O460 1.273 . S
Mg437 O439 1.936 . S
Mg437 O446 2.081 . S
Mg437 O448 2.023 . S
Mg437 O452 2.031 . S
Mg437 O461 2.291 . S
Mg438 O439 1.963 . S
Mg438 O449 1.942 . S
Mg438 O450 1.955 . S
Mg438 O457 1.986 . S
O439 Mg437 1.936 . S
O439 Mg438 1.963 . S
O439 Mg440 1.915 . S
Mg440 O439 1.915 . S
Mg440 O441 1.915 . S
Mg440 O445 2.013 . S
Mg440 O451 2.114 . S
Mg440 O455 2.013 . S
Mg440 O461 2.114 . S
O441 Mg440 1.915 . S
O441 Mg442 1.936 . S
O441 Mg443 1.963 . S
Mg442 O441 1.936 . S
Mg442 O451 2.291 . S
Mg442 O456 2.081 . S
Mg442 O458 2.023 . S
Mg442 O462 2.031 . S
Mg443 O441 1.963 . S
Mg443 O447 1.986 . S
Mg443 O459 1.942 . S
Mg443 O460 1.955 . S
C444 O455 1.191 . S
C444 O457 1.307 . S
O445 Mg440 2.013 . S
O445 C464 1.191 . S
O446 Mg437 2.081 . S
O446 C454 1.331 . S
O447 Mg443 1.986 . S
O447 C464 1.307 . S
O448 Mg437 2.023 . S
O448 C463 1.264 . S
O449 Mg438 1.942 . S
O449 C454 1.244 . S
O450 Mg438 1.955 . S
O450 C463 1.273 . S
O451 Mg440 2.114 . S
O451 Mg442 2.291 . S
O451 C453 1.312 . S
O452 Mg437 2.031 . S
O452 C453 1.208 . S
C453 O451 1.312 . S
C453 O452 1.208 . S
C454 O446 1.331 . S
C454 O449 1.244 . S
O455 Mg440 2.013 . S
O455 C444 1.191 . S
O456 C435 1.331 . S
O456 Mg442 2.081 . S
O457 Mg438 1.986 . S
O457 C444 1.307 . S
O458 C436 1.264 . S
O458 Mg442 2.023 . S
O459 C435 1.244 . S
O459 Mg443 1.942 . S
O460 C436 1.273 . S
O460 Mg443 1.955 . S
O461 C434 1.312 . S
O461 Mg437 2.291 . S
O461 Mg440 2.114 . S
O462 C434 1.208 . S
O462 Mg442 2.031 . S
C463 O448 1.264 . S
C463 O450 1.273 . S
C464 O445 1.191 . S
C464 O447 1.307 . S
C465 C466 1.369 . S
C465 C467 1.419 . S
C465 H469 0.930 . S
C466 C465 1.369 . S
C466 C475 1.429 . S
C467 C465 1.419 . S
C467 C468 1.363 . S
C467 H470 0.929 . S
C468 C467 1.363 . S
C468 C474 1.428 . S
H469 C465 0.930 . S
H470 C467 0.929 . S
S471 N472 1.613 . S
S471 N473 1.610 . S
N472 S471 1.613 . S
N472 C475 1.350 . S
N473 S471 1.610 . S
N473 C474 1.351 . S
C474 C468 1.428 . S
C474 N473 1.351 . S
C474 C475 1.434 . S
C475 C466 1.429 . S
C475 N472 1.350 . S
C475 C474 1.434 . S
C476 C477 1.369 . S
C476 C478 1.419 . S
C476 H480 0.930 . S
C477 C476 1.369 . S
C477 C486 1.429 . S
C478 C476 1.419 . S
C478 C479 1.363 . S
C478 H481 0.929 . S
C479 C478 1.363 . S
C479 C485 1.428 . S
H480 C476 0.930 . S
H481 C478 0.929 . S
S482 N483 1.613 . S
S482 N484 1.610 . S
N483 S482 1.613 . S
N483 C486 1.350 . S
N484 S482 1.610 . S
N484 C485 1.351 . S
C485 C479 1.428 . S
C485 N484 1.351 . S
C485 C486 1.434 . S
C486 C477 1.429 . S
C486 N483 1.350 . S
C486 C485 1.434 . S
C487 C488 1.369 . S
C487 C489 1.419 . S
C487 H491 0.930 . S
C488 C487 1.369 . S
C488 C497 1.429 . S
C489 C487 1.419 . S
C489 C490 1.363 . S
C489 H492 0.929 . S
C490 C489 1.363 . S
C490 C496 1.428 . S
H491 C487 0.930 . S
H492 C489 0.929 . S
S493 N494 1.613 . S
S493 N495 1.610 . S
N494 S493 1.613 . S
N494 C497 1.350 . S
N495 S493 1.610 . S
N495 C496 1.351 . S
C496 C490 1.428 . S
C496 N495 1.351 . S
C496 C497 1.434 . S
C497 C488 1.429 . S
C497 N494 1.350 . S
C497 C496 1.434 . S
C498 C499 1.369 . S
C498 C500 1.419 . S
C498 H502 0.930 . S
C499 C498 1.369 . S
C499 C508 1.429 . S
C500 C498 1.419 . S
C500 C501 1.363 . S
C500 H503 0.929 . S
C501 C500 1.363 . S
C501 C507 1.428 . S
H502 C498 0.930 . S
H503 C500 0.929 . S
S504 N505 1.613 . S
S504 N506 1.610 . S
N505 S504 1.613 . S
N505 C508 1.350 . S
N506 S504 1.610 . S
N506 C507 1.351 . S
C507 C501 1.428 . S
C507 N506 1.351 . S
C507 C508 1.434 . S
C508 C499 1.429 . S
C508 N505 1.350 . S
C508 C507 1.434 . S
C509 C510 1.369 . S
C509 C511 1.419 . S
C509 H513 0.930 . S
C510 C509 1.369 . S
C510 C519 1.429 . S
C511 C509 1.419 . S
C511 C512 1.363 . S
C511 H514 0.929 . S
C512 C511 1.363 . S
C512 C518 1.428 . S
H513 C509 0.930 . S
H514 C511 0.929 . S
S515 N516 1.613 . S
S515 N517 1.610 . S
N516 S515 1.613 . S
N516 C519 1.350 . S
N517 S515 1.610 . S
N517 C518 1.351 . S
C518 C512 1.428 . S
C518 N517 1.351 . S
C518 C519 1.434 . S
C519 C510 1.429 . S
C519 N516 1.350 . S
C519 C518 1.434 . S
C520 C521 1.369 . S
C520 C522 1.419 . S
C520 H524 0.930 . S
C521 C520 1.369 . S
C521 C530 1.429 . S
C522 C520 1.419 . S
C522 C523 1.363 . S
C522 H525 0.929 . S
C523 C522 1.363 . S
C523 C529 1.428 . S
H524 C520 0.930 . S
H525 C522 0.929 . S
S526 N527 1.613 . S
S526 N528 1.610 . S
N527 S526 1.613 . S
N527 C530 1.350 . S
N528 S526 1.610 . S
N528 C529 1.351 . S
C529 C523 1.428 . S
C529 N528 1.351 . S
C529 C530 1.434 . S
C530 C521 1.429 . S
C530 N527 1.350 . S
C530 C529 1.434 . S
C531 C532 1.369 . S
C531 C533 1.419 . S
C531 H535 0.930 . S
C532 C531 1.369 . S
C532 C541 1.429 . S
C533 C531 1.419 . S
C533 C534 1.363 . S
C533 H536 0.929 . S
C534 C533 1.363 . S
C534 C540 1.428 . S
H535 C531 0.930 . S
H536 C533 0.929 . S
S537 N538 1.613 . S
S537 N539 1.610 . S
N538 S537 1.613 . S
N538 C541 1.350 . S
N539 S537 1.610 . S
N539 C540 1.351 . S
C540 C534 1.428 . S
C540 N539 1.351 . S
C540 C541 1.434 . S
C541 C532 1.429 . S
C541 N538 1.350 . S
C541 C540 1.434 . S
C542 C543 1.369 . S
C542 C544 1.419 . S
C542 H546 0.930 . S
C543 C542 1.369 . S
C543 C552 1.429 . S
C544 C542 1.419 . S
C544 C545 1.363 . S
C544 H547 0.929 . S
C545 C544 1.363 . S
C545 C551 1.428 . S
H546 C542 0.930 . S
H547 C544 0.929 . S
S548 N549 1.613 . S
S548 N550 1.610 . S
N549 S548 1.613 . S
N549 C552 1.350 . S
N550 S548 1.610 . S
N550 C551 1.351 . S
C551 C545 1.428 . S
C551 N550 1.351 . S
C551 C552 1.434 . S
C552 C543 1.429 . S
C552 N549 1.350 . S
C552 C551 1.434 . S
C553 C554 1.369 . S
C553 C555 1.419 . S
C553 H557 0.930 . S
C554 C553 1.369 . S
C554 C563 1.429 . S
C555 C553 1.419 . S
C555 C556 1.363 . S
C555 H558 0.929 . S
C556 C555 1.363 . S
C556 C562 1.428 . S
H557 C553 0.930 . S
H558 C555 0.929 . S
S559 N560 1.613 . S
S559 N561 1.610 . S
N560 S559 1.613 . S
N560 C563 1.350 . S
N561 S559 1.610 . S
N561 C562 1.351 . S
C562 C556 1.428 . S
C562 N561 1.351 . S
C562 C563 1.434 . S
C563 C554 1.429 . S
C563 N560 1.350 . S
C563 C562 1.434 . S
C564 C565 1.369 . S
C564 C566 1.419 . S
C564 H568 0.930 . S
C565 C564 1.369 . S
C565 C574 1.429 . S
C566 C564 1.419 . S
C566 C567 1.363 . S
C566 H569 0.929 . S
C567 C566 1.363 . S
C567 C573 1.428 . S
H568 C564 0.930 . S
H569 C566 0.929 . S
S570 N571 1.613 . S
S570 N572 1.610 . S
N571 S570 1.613 . S
N571 C574 1.350 . S
N572 S570 1.610 . S
N572 C573 1.351 . S
C573 C567 1.428 . S
C573 N572 1.351 . S
C573 C574 1.434 . S
C574 C565 1.429 . S
C574 N571 1.350 . S
C574 C573 1.434 . S
C575 C576 1.369 . S
C575 C577 1.419 . S
C575 H579 0.930 1_556 S
C576 C575 1.369 . S
C576 C585 1.429 . S
C577 C575 1.419 . S
C577 C578 1.363 . S
C577 H580 0.929 . S
C578 C577 1.363 . S
C578 C584 1.428 . S
H579 C575 0.930 1_554 S
H580 C577 0.929 . S
S581 N582 1.613 . S
S581 N583 1.610 . S
N582 S581 1.613 . S
N582 C585 1.350 . S
N583 S581 1.610 . S
N583 C584 1.351 . S
C584 C578 1.428 . S
C584 N583 1.351 . S
C584 C585 1.434 . S
C585 C576 1.429 . S
C585 N582 1.350 . S
C585 C584 1.434 . S
C586 C587 1.369 . S
C586 C588 1.419 . S
C586 H590 0.930 . S
C587 C586 1.369 . S
C587 C596 1.429 . S
C588 C586 1.419 . S
C588 C589 1.363 . S
C588 H591 0.929 . S
C589 C588 1.363 . S
C589 C595 1.428 . S
H590 C586 0.930 . S
H591 C588 0.929 . S
S592 N593 1.613 . S
S592 N594 1.610 . S
N593 S592 1.613 . S
N593 C596 1.350 . S
N594 S592 1.610 . S
N594 C595 1.351 . S
C595 C589 1.428 . S
C595 N594 1.351 . S
C595 C596 1.434 . S
C596 C587 1.429 . S
C596 N593 1.350 . S
C596 C595 1.434 . S
C597 C598 1.369 . S
C597 C599 1.419 . S
C597 H601 0.930 . S
C598 C597 1.369 . S
C598 C607 1.429 . S
C599 C597 1.419 . S
C599 C600 1.363 . S
C599 H602 0.929 . S
C600 C599 1.363 . S
C600 C606 1.428 . S
H601 C597 0.930 . S
H602 C599 0.929 . S
S603 N604 1.613 . S
S603 N605 1.610 . S
N604 S603 1.613 . S
N604 C607 1.350 . S
N605 S603 1.610 . S
N605 C606 1.351 . S
C606 C600 1.428 . S
C606 N605 1.351 . S
C606 C607 1.434 . S
C607 C598 1.429 . S
C607 N604 1.350 . S
C607 C606 1.434 . S
C608 C609 1.369 . S
C608 C610 1.419 . S
C608 H612 0.930 . S
C609 C608 1.369 . S
C609 C618 1.429 . S
C610 C608 1.419 . S
C610 C611 1.363 . S
C610 H613 0.929 . S
C611 C610 1.363 . S
C611 C617 1.428 . S
H612 C608 0.930 . S
H613 C610 0.929 . S
S614 N615 1.613 . S
S614 N616 1.610 . S
N615 S614 1.613 . S
N615 C618 1.350 . S
N616 S614 1.610 . S
N616 C617 1.351 . S
C617 C611 1.428 . S
C617 N616 1.351 . S
C617 C618 1.434 . S
C618 C609 1.429 . S
C618 N615 1.350 . S
C618 C617 1.434 . S
C619 C620 1.369 . S
C619 C621 1.419 . S
C619 H623 0.930 . S
C620 C619 1.369 . S
C620 C629 1.429 . S
C621 C619 1.419 . S
C621 C622 1.363 . S
C621 H624 0.929 . S
C622 C621 1.363 . S
C622 C628 1.428 . S
H623 C619 0.930 . S
H624 C621 0.929 . S
S625 N626 1.613 . S
S625 N627 1.610 . S
N626 S625 1.613 . S
N626 C629 1.350 . S
N627 S625 1.610 . S
N627 C628 1.351 . S
C628 C622 1.428 . S
C628 N627 1.351 . S
C628 C629 1.434 . S
C629 C620 1.429 . S
C629 N626 1.350 . S
C629 C628 1.434 . S
C630 C631 1.369 . S
C630 C632 1.419 . S
C630 H634 0.930 . S
C631 C630 1.369 . S
C631 C640 1.429 . S
C632 C630 1.419 . S
C632 C633 1.363 . S
C632 H635 0.929 . S
C633 C632 1.363 . S
C633 C639 1.428 . S
H634 C630 0.930 . S
H635 C632 0.929 . S
S636 N637 1.613 . S
S636 N638 1.610 . S
N637 S636 1.613 . S
N637 C640 1.350 . S
N638 S636 1.610 . S
N638 C639 1.351 . S
C639 C633 1.428 . S
C639 N638 1.351 . S
C639 C640 1.434 . S
C640 C631 1.429 . S
C640 N637 1.350 . S
C640 C639 1.434 . S
C641 C642 1.369 . S
C641 C643 1.419 . S
C641 H645 0.930 . S
C642 C641 1.369 . S
C642 C651 1.429 . S
C643 C641 1.419 . S
C643 C644 1.363 . S
C643 H646 0.929 . S
C644 C643 1.363 . S
C644 C650 1.428 . S
H645 C641 0.930 . S
H646 C643 0.929 . S
S647 N648 1.613 . S
S647 N649 1.610 . S
N648 S647 1.613 . S
N648 C651 1.350 . S
N649 S647 1.610 . S
N649 C650 1.351 . S
C650 C644 1.428 . S
C650 N649 1.351 . S
C650 C651 1.434 . S
C651 C642 1.429 . S
C651 N648 1.350 . S
C651 C650 1.434 . S
C652 C653 1.369 . S
C652 C654 1.419 . S
C652 H656 0.930 . S
C653 C652 1.369 . S
C653 C662 1.429 . S
C654 C652 1.419 . S
C654 C655 1.363 . S
C654 H657 0.929 . S
C655 C654 1.363 . S
C655 C661 1.428 . S
H656 C652 0.930 . S
H657 C654 0.929 . S
S658 N659 1.613 . S
S658 N660 1.610 . S
N659 S658 1.613 . S
N659 C662 1.350 . S
N660 S658 1.610 . S
N660 C661 1.351 . S
C661 C655 1.428 . S
C661 N660 1.351 . S
C661 C662 1.434 . S
C662 C653 1.429 . S
C662 N659 1.350 . S
C662 C661 1.434 . S
C663 C664 1.369 . S
C663 C665 1.419 . S
C663 H667 0.930 . S
C664 C663 1.369 . S
C664 C673 1.429 . S
C665 C663 1.419 . S
C665 C666 1.363 . S
C665 H668 0.929 . S
C666 C665 1.363 . S
C666 C672 1.428 . S
H667 C663 0.930 . S
H668 C665 0.929 . S
S669 N670 1.613 . S
S669 N671 1.610 . S
N670 S669 1.613 . S
N670 C673 1.350 . S
N671 S669 1.610 . S
N671 C672 1.351 . S
C672 C666 1.428 . S
C672 N671 1.351 . S
C672 C673 1.434 . S
C673 C664 1.429 . S
C673 N670 1.350 . S
C673 C672 1.434 . S
C674 C675 1.369 . S
C674 C676 1.419 . S
C674 H678 0.930 . S
C675 C674 1.369 . S
C675 C684 1.429 . S
C676 C674 1.419 . S
C676 C677 1.363 . S
C676 H679 0.929 . S
C677 C676 1.363 . S
C677 C683 1.428 . S
H678 C674 0.930 . S
H679 C676 0.929 . S
S680 N681 1.613 . S
S680 N682 1.610 . S
N681 S680 1.613 . S
N681 C684 1.350 . S
N682 S680 1.610 . S
N682 C683 1.351 . S
C683 C677 1.428 . S
C683 N682 1.351 . S
C683 C684 1.434 . S
C684 C675 1.429 . S
C684 N681 1.350 . S
C684 C683 1.434 . S
C685 C686 1.369 . S
C685 C687 1.419 . S
C685 H689 0.930 . S
C686 C685 1.369 . S
C686 C695 1.429 . S
C687 C685 1.419 . S
C687 C688 1.363 . S
C687 H690 0.929 . S
C688 C687 1.363 . S
C688 C694 1.428 . S
H689 C685 0.930 . S
H690 C687 0.929 . S
S691 N692 1.613 . S
S691 N693 1.610 . S
N692 S691 1.613 . S
N692 C695 1.350 . S
N693 S691 1.610 . S
N693 C694 1.351 . S
C694 C688 1.428 . S
C694 N693 1.351 . S
C694 C695 1.434 . S
C695 C686 1.429 . S
C695 N692 1.350 . S
C695 C694 1.434 . S
C696 C697 1.369 . S
C696 C698 1.419 . S
C696 H700 0.930 . S
C697 C696 1.369 . S
C697 C706 1.429 . S
C698 C696 1.419 . S
C698 C699 1.363 . S
C698 H701 0.929 . S
C699 C698 1.363 . S
C699 C705 1.428 . S
H700 C696 0.930 . S
H701 C698 0.929 . S
S702 N703 1.613 . S
S702 N704 1.610 . S
N703 S702 1.613 . S
N703 C706 1.350 . S
N704 S702 1.610 . S
N704 C705 1.351 . S
C705 C699 1.428 . S
C705 N704 1.351 . S
C705 C706 1.434 . S
C706 C697 1.429 . S
C706 N703 1.350 . S
C706 C705 1.434 . S
C707 C708 1.369 . S
C707 C709 1.419 . S
C707 H711 0.930 . S
C708 C707 1.369 . S
C708 C717 1.429 . S
C709 C707 1.419 . S
C709 C710 1.363 . S
C709 H712 0.929 . S
C710 C709 1.363 . S
C710 C716 1.428 . S
H711 C707 0.930 . S
H712 C709 0.929 . S
S713 N714 1.613 . S
S713 N715 1.610 . S
N714 S713 1.613 . S
N714 C717 1.350 . S
N715 S713 1.610 . S
N715 C716 1.351 . S
C716 C710 1.428 . S
C716 N715 1.351 . S
C716 C717 1.434 . S
C717 C708 1.429 . S
C717 N714 1.350 . S
C717 C716 1.434 . S
C718 C719 1.369 . S
C718 C720 1.419 . S
C718 H722 0.930 . S
C719 C718 1.369 . S
C719 C728 1.429 . S
C720 C718 1.419 . S
C720 C721 1.363 . S
C720 H723 0.929 . S
C721 C720 1.363 . S
C721 C727 1.428 . S
H722 C718 0.930 . S
H723 C720 0.929 . S
S724 N725 1.613 . S
S724 N726 1.610 . S
N725 S724 1.613 . S
N725 C728 1.350 . S
N726 S724 1.610 . S
N726 C727 1.351 . S
C727 C721 1.428 . S
C727 N726 1.351 . S
C727 C728 1.434 . S
C728 C719 1.429 . S
C728 N725 1.350 . S
C728 C727 1.434 . S
C466 C47 1.926 . S
C468 C372 2.037 . S
C477 C91 1.735 . S
C479 C404 1.825 . S
C490 C463 1.846 . S
C488 C177 1.964 . S
C501 C392 1.666 . S
C499 C215 1.657 . S
C510 C295 1.846 . S
C512 C422 1.880 . S
C523 C444 1.255 . S
C521 C345 1.227 . S
C534 C413 2.073 . S
C532 C153 1.922 . S
C543 C239 1.335 . S
C545 C453 1.228 . S
C556 C402 1.659 . S
C554 C283 1.698 . S
C565 C357 1.669 . S
C567 C432 1.737 . S
C576 C35 1.852 1_556 S
C578 C435 1.781 . S
C589 C374 1.529 . S
C587 C115 1.579 . S
C600 C382 1.578 . S
C598 C221 1.655 . S
C611 C423 1.453 . S
C609 C301 1.499 . S
C622 C436 2.110 . S
C620 C339 2.062 . S
C633 C373 1.459 . S
C631 C53 1.550 1_556 S
C644 C433 1.579 . S
C642 C97 1.683 . S
C653 C171 1.530 . S
C655 C434 1.633 . S
C666 C403 1.583 . S
C664 C363 1.640 . S
C677 C464 1.610 . S
C675 C29 1.460 . S
C688 C391 1.864 . S
C686 C109 1.868 . S
C699 C405 1.528 . S
C697 C159 1.638 . S
C708 C233 2.018 . S
C710 C454 2.015 . S
C719 C277 1.742 . S
C721 C401 1.894 . S
