# Generated by pormake.
# Topology ctn, (3,4)-cn, num edge types: 1
# Building blocks:
#     Node 0, Type 0, BuildingBlock: INOVEN_clean_linker_0, # of connection points: 3
#     Node 1, Type 0, BuildingBlock: INOVEN_clean_linker_0, # of connection points: 3
#     Node 2, Type 0, BuildingBlock: INOVEN_clean_linker_0, # of connection points: 3
#     Node 3, Type 0, BuildingBlock: INOVEN_clean_linker_0, # of connection points: 3
#     Node 4, Type 0, BuildingBlock: INOVEN_clean_linker_0, # of connection points: 3
#     Node 5, Type 0, BuildingBlock: INOVEN_clean_linker_0, # of connection points: 3
#     Node 6, Type 0, BuildingBlock: INOVEN_clean_linker_0, # of connection points: 3
#     Node 7, Type 0, BuildingBlock: INOVEN_clean_linker_0, # of connection points: 3
#     Node 8, Type 0, BuildingBlock: INOVEN_clean_linker_0, # of connection points: 3
#     Node 9, Type 0, BuildingBlock: INOVEN_clean_linker_0, # of connection points: 3
#     Node 10, Type 0, BuildingBlock: INOVEN_clean_linker_0, # of connection points: 3
#     Node 11, Type 0, BuildingBlock: INOVEN_clean_linker_0, # of connection points: 3
#     Node 12, Type 0, BuildingBlock: INOVEN_clean_linker_0, # of connection points: 3
#     Node 13, Type 0, BuildingBlock: INOVEN_clean_linker_0, # of connection points: 3
#     Node 14, Type 0, BuildingBlock: INOVEN_clean_linker_0, # of connection points: 3
#     Node 15, Type 0, BuildingBlock: INOVEN_clean_linker_0, # of connection points: 3
#     Node 16, Type 1, BuildingBlock: NAHDIM_clean_sbu_0, # of connection points: 4
#     Node 17, Type 1, BuildingBlock: NAHDIM_clean_sbu_0, # of connection points: 4
#     Node 18, Type 1, BuildingBlock: NAHDIM_clean_sbu_0, # of connection points: 4
#     Node 19, Type 1, BuildingBlock: NAHDIM_clean_sbu_0, # of connection points: 4
#     Node 20, Type 1, BuildingBlock: NAHDIM_clean_sbu_0, # of connection points: 4
#     Node 21, Type 1, BuildingBlock: NAHDIM_clean_sbu_0, # of connection points: 4
#     Node 22, Type 1, BuildingBlock: NAHDIM_clean_sbu_0, # of connection points: 4
#     Node 23, Type 1, BuildingBlock: NAHDIM_clean_sbu_0, # of connection points: 4
#     Node 24, Type 1, BuildingBlock: NAHDIM_clean_sbu_0, # of connection points: 4
#     Node 25, Type 1, BuildingBlock: NAHDIM_clean_sbu_0, # of connection points: 4
#     Node 26, Type 1, BuildingBlock: NAHDIM_clean_sbu_0, # of connection points: 4
#     Node 27, Type 1, BuildingBlock: NAHDIM_clean_sbu_0, # of connection points: 4
#     Edge 28, Type (0, 1), None
#     Edge 29, Type (0, 1), None
#     Edge 30, Type (0, 1), None
#     Edge 31, Type (0, 1), None
#     Edge 32, Type (0, 1), None
#     Edge 33, Type (0, 1), None
#     Edge 34, Type (0, 1), None
#     Edge 35, Type (0, 1), None
#     Edge 36, Type (0, 1), None
#     Edge 37, Type (0, 1), None
#     Edge 38, Type (0, 1), None
#     Edge 39, Type (0, 1), None
#     Edge 40, Type (0, 1), None
#     Edge 41, Type (0, 1), None
#     Edge 42, Type (0, 1), None
#     Edge 43, Type (0, 1), None
#     Edge 44, Type (0, 1), None
#     Edge 45, Type (0, 1), None
#     Edge 46, Type (0, 1), None
#     Edge 47, Type (0, 1), None
#     Edge 48, Type (0, 1), None
#     Edge 49, Type (0, 1), None
#     Edge 50, Type (0, 1), None
#     Edge 51, Type (0, 1), None
#     Edge 52, Type (0, 1), None
#     Edge 53, Type (0, 1), None
#     Edge 54, Type (0, 1), None
#     Edge 55, Type (0, 1), None
#     Edge 56, Type (0, 1), None
#     Edge 57, Type (0, 1), None
#     Edge 58, Type (0, 1), None
#     Edge 59, Type (0, 1), None
#     Edge 60, Type (0, 1), None
#     Edge 61, Type (0, 1), None
#     Edge 62, Type (0, 1), None
#     Edge 63, Type (0, 1), None
#     Edge 64, Type (0, 1), None
#     Edge 65, Type (0, 1), None
#     Edge 66, Type (0, 1), None
#     Edge 67, Type (0, 1), None
#     Edge 68, Type (0, 1), None
#     Edge 69, Type (0, 1), None
#     Edge 70, Type (0, 1), None
#     Edge 71, Type (0, 1), None
#     Edge 72, Type (0, 1), None
#     Edge 73, Type (0, 1), None
#     Edge 74, Type (0, 1), None
#     Edge 75, Type (0, 1), None
# Relax obj value: 0.052
# Max RMSD: 0.146
# Mean RMSD: 0.091
data_MOF--net-ctn--node1-NAHDIM_clean_sbu_0--node2-INOVEN_clean_linker_0--edge1-none
_symmetry_space_group_name_H-M    P1
_symmetry_Int_Tables_number       1
_symmetry_cell_setting            triclinic
loop_
_symmetry_equiv_pos_as_xyz
'x, y, z'
_cell_length_a     22.367513
_cell_length_b     23.633951
_cell_length_c     24.235808
_cell_angle_alpha  103.7617
_cell_angle_beta   89.357147
_cell_angle_gamma 96.772811
loop_
_atom_site_label
_atom_site_type_symbol
_atom_site_fract_x
_atom_site_fract_y
_atom_site_fract_z
_atom_type_partial_charge
H0 H 0.02631 0.10443 0.11892 0.0
H1 H 0.13506 0.96825 0.12886 0.0
H2 H 0.14441 0.04235 0.98268 0.0
N3 N 0.06292 0.11871 0.01941 0.0
N4 N 0.08204 0.12351 0.97199 0.0
C5 C 0.05925 0.07537 0.10089 0.0
C6 C 0.07785 0.03614 0.13082 0.0
C7 C 0.08284 0.0778 0.0476 0.0
C8 C 0.12583 0.04045 0.02376 0.0
C9 C 0.14478 0.00056 0.05272 0.0
C10 C 0.12046 -0.0013 0.10619 0.0
H11 H 0.26936 0.6735 0.15755 0.0
H12 H 0.34332 0.5988 0.28366 0.0
H13 H 0.44167 0.74634 0.23408 0.0
N14 N 0.3616 0.75892 0.16156 0.0
N15 N 0.31704 0.7698 0.13733 0.0
C16 C 0.30507 0.67316 0.18725 0.0
C17 C 0.3003 0.63052 0.21919 0.0
C18 C 0.35616 0.71497 0.19287 0.0
C19 C 0.40273 0.7136 0.23014 0.0
C20 C 0.3982 0.67236 0.26378 0.0
C21 C 0.34682 0.6309 0.25809 0.0
H22 H 0.97584 0.38893 0.94058 0.0
H23 H 0.11501 0.39181 0.06224 0.0
H24 H 0.99326 0.5242 0.09506 0.0
N25 N 0.93026 0.48207 -0.00516 0.0
N26 N 0.91648 0.53205 0.01639 0.0
C27 C 0.99888 0.40873 0.98088 0.0
C28 C 0.04819 0.38458 -0.00273 0.0
C29 C 0.9795 0.45935 0.0151 0.0
C30 C 1.0088 0.48555 0.06785 0.0
C31 C 0.05765 0.46101 0.08556 0.0
C32 C 0.07741 0.41105 0.04938 0.0
H33 H 0.81298 0.90547 0.27724 0.0
H34 H 0.89434 0.84844 0.1142 0.0
H35 H 0.73468 0.75011 0.15859 0.0
N36 N 0.72259 0.81906 0.26078 0.0
N37 N 0.67013 0.80096 0.24291 0.0
C38 C 0.81393 0.87482 0.23621 0.0
C39 C 0.85894 0.88362 0.19698 0.0
C40 C 0.76864 0.8273 0.22186 0.0
C41 C 0.76921 0.78741 0.16885 0.0
C42 C 0.81492 0.79414 0.13019 0.0
C43 C 0.85937 0.84261 0.14434 0.0
H44 H 0.97129 0.93082 0.43231 0.0
H45 H 0.11019 0.06722 0.41365 0.0
H46 H 0.13194 0.96402 0.53525 0.0
N47 N 0.02575 0.89452 0.50937 0.0
N48 N 0.05321 0.87976 0.54713 0.0
C49 C 1.01474 0.95614 0.44456 0.0
C50 C 0.03633 0.00098 0.41797 0.0
C51 C 0.04893 0.94228 0.4862 0.0
C52 C 0.10546 0.97455 0.50272 0.0
C53 C 0.12813 0.01988 0.4769 0.0
C54 C 0.09343 0.03238 0.43389 0.0
H55 H 0.27847 0.6478 0.71863 0.0
H56 H 0.3678 0.69446 0.88292 0.0
H57 H 0.21782 0.78168 0.8519 0.0
N58 N 0.19868 0.72318 0.74353 0.0
N59 N 0.16892 0.76571 0.75624 0.0
C60 C 0.28319 0.67386 0.762 0.0
C61 C 0.32853 0.66585 0.79826 0.0
C62 C 0.24382 0.71589 0.781 0.0
C63 C 0.24882 0.74961 0.83709 0.0
C64 C 0.29307 0.74218 0.87426 0.0
C65 C 0.33327 0.70041 0.85451 0.0
H66 H 0.95333 0.43681 0.39859 0.0
H67 H 0.89926 0.53422 0.56107 0.0
H68 H 0.0491 0.60522 0.4754 0.0
N69 N 0.04485 0.51203 0.38456 0.0
N70 N 0.08619 0.5506 0.37945 0.0
C71 C 0.95923 0.47543 0.43359 0.0
C72 C 0.92077 0.48029 0.48021 0.0
C73 C 1.00583 0.51986 0.43174 0.0
C74 C 1.01326 0.5705 0.47668 0.0
C75 C 0.97498 0.57597 0.52363 0.0
C76 C 0.92935 0.53025 0.52533 0.0
H77 H 0.78572 0.76411 0.88214 0.0
H78 H 0.93323 0.67095 0.81025 0.0
H79 H 0.87326 0.80281 0.73495 0.0
N80 N 0.78523 0.83078 0.8107 0.0
N81 N 0.77443 0.84951 0.7684 0.0
C82 C 0.81998 0.75552 0.85024 0.0
C83 C 0.85836 0.71272 0.85084 0.0
C84 C 0.8245 0.78734 0.80837 0.0
C85 C 0.86894 0.77729 0.76676 0.0
C86 C 0.90907 0.73586 0.76758 0.0
C87 C 0.90301 0.7034 0.80955 0.0
H88 H 0.28566 0.26401 0.38206 0.0
H89 H 0.43318 0.17086 0.31017 0.0
H90 H 0.37324 0.30276 0.2349 0.0
N91 N 0.28518 0.3307 0.31065 0.0
N92 N 0.27443 0.34947 0.26836 0.0
C93 C 0.31993 0.25543 0.35016 0.0
C94 C 0.35831 0.21262 0.35076 0.0
C95 C 0.32446 0.28726 0.30831 0.0
C96 C 0.3689 0.27722 0.2667 0.0
C97 C 0.40903 0.23579 0.26752 0.0
C98 C 0.40297 0.20331 0.30947 0.0
H99 H 0.47582 0.88899 0.4406 0.0
H100 H 0.61499 0.89185 0.56226 0.0
H101 H 0.49325 0.02424 0.59509 0.0
N102 N 0.43024 0.98212 0.49487 0.0
N103 N 0.41644 0.03209 0.51643 0.0
C104 C 0.49886 0.90878 0.4809 0.0
C105 C 0.54817 0.88462 0.49729 0.0
C106 C 0.47949 0.9594 0.51513 0.0
C107 C 0.50878 0.9856 0.56788 0.0
C108 C 0.55763 0.96105 0.58558 0.0
C109 C 0.5774 0.91109 0.5494 0.0
H110 H 0.31271 0.4058 0.77695 0.0
H111 H 0.39376 0.34897 0.61372 0.0
H112 H 0.23468 0.25014 0.65856 0.0
N113 N 0.22256 0.31917 0.76069 0.0
N114 N 0.17007 0.30107 0.74287 0.0
C115 C 0.31368 0.37512 0.73594 0.0
C116 C 0.3585 0.38406 0.69658 0.0
C117 C 0.26852 0.32746 0.72171 0.0
C118 C 0.26909 0.28754 0.66872 0.0
C119 C 0.31464 0.29439 0.62995 0.0
C120 C 0.35891 0.34304 0.64395 0.0
H121 H 0.76938 0.17347 0.65755 0.0
H122 H 0.84337 0.09876 0.78364 0.0
H123 H 0.94172 0.24628 0.73403 0.0
N124 N 0.86163 0.25887 0.66153 0.0
N125 N 0.81706 0.26977 0.63733 0.0
C126 C 0.8051 0.17312 0.68724 0.0
C127 C 0.80033 0.13048 0.71918 0.0
C128 C 0.8562 0.21493 0.69285 0.0
C129 C 0.90277 0.21354 0.7301 0.0
C130 C 0.89825 0.17231 0.76374 0.0
C131 C 0.84686 0.13086 0.75807 0.0
H132 H 0.52629 0.60436 0.61895 0.0
H133 H 0.63496 0.46809 0.62879 0.0
H134 H 0.64448 0.54241 0.48275 0.0
N135 N 0.56296 0.61873 0.51949 0.0
N136 N 0.58204 0.62353 0.47205 0.0
C137 C 0.55924 0.57531 0.60091 0.0
C138 C 0.57778 0.53601 0.63079 0.0
C139 C 0.58287 0.5778 0.54765 0.0
C140 C 0.62587 0.54046 0.5238 0.0
C141 C 0.64478 0.50052 0.55272 0.0
C142 C 0.62039 0.49858 0.60615 0.0
H143 H 0.47134 0.43085 0.93233 0.0
H144 H 0.61023 0.56727 0.9137 0.0
H145 H 0.63201 0.46401 0.03525 0.0
N146 N 0.52581 0.39452 0.00936 0.0
N147 N 0.55326 0.37976 0.04712 0.0
C148 C 0.51479 0.45617 0.94458 0.0
C149 C 0.53637 0.50102 0.91801 0.0
C150 C 0.54899 0.44229 -0.01379 0.0
C151 C 0.60552 0.47456 0.00273 0.0
C152 C 0.62818 0.5199 0.97692 0.0
C153 C 0.59348 0.53242 0.93393 0.0
H154 H 0.77845 0.14778 0.21864 0.0
H155 H 0.86782 0.19445 0.38291 0.0
H156 H 0.71782 0.28166 0.35194 0.0
N157 N 0.69865 0.22315 0.24357 0.0
N158 N 0.66886 0.26566 0.25629 0.0
C159 C 0.78318 0.17384 0.26201 0.0
C160 C 0.82853 0.16585 0.29827 0.0
C161 C 0.74381 0.21587 0.28102 0.0
C162 C 0.74882 0.24959 0.33712 0.0
C163 C 0.79308 0.24216 0.37427 0.0
C164 C 0.83329 0.2004 0.35451 0.0
H165 H 0.45326 0.93683 0.89856 0.0
H166 H 0.39911 0.0343 0.06098 0.0
H167 H 0.54897 0.10529 0.97532 0.0
N168 N 0.54476 0.01207 0.88452 0.0
N169 N 0.58606 0.05066 0.87938 0.0
C170 C 0.45914 0.97547 0.93354 0.0
C171 C 0.42067 0.98034 0.98015 0.0
C172 C 0.50573 0.01991 0.93169 0.0
C173 C 0.51314 0.07056 0.97661 0.0
C174 C 0.47483 0.07605 0.02355 0.0
C175 C 0.42921 0.03033 0.02525 0.0
C176 C 0.19118 0.96222 0.02812 0.0
O177 O 0.22466 0.97358 -0.01373 0.0
O178 O 0.26012 0.81652 0.94963 0.0
Zn179 Zn 0.27087 0.87216 0.02673 0.0
O180 O 0.34612 0.9285 0.02693 0.0
C181 C 0.32195 0.81209 0.10464 0.0
O182 O 0.37478 0.83777 0.09415 0.0
O183 O 0.20128 0.91996 0.04945 0.0
C184 C 0.36992 0.93463 0.98042 0.0
O185 O 0.34637 0.90269 0.93202 0.0
C186 C 0.2972 0.77911 0.93299 0.0
O187 O 0.34124 0.77636 0.96729 0.0
O188 O 0.27465 0.822 0.08215 0.0
C189 C 0.23717 0.3946 0.27269 0.0
O190 O 0.22232 0.42503 0.32266 0.0
O191 O 0.12112 0.49283 0.29605 0.0
Zn192 Zn 0.17804 0.47875 0.22991 0.0
O193 O 0.24421 0.54571 0.23883 0.0
C194 C 0.08738 0.48526 0.14208 0.0
O195 O 0.06547 0.52695 0.17991 0.0
O196 O 0.22129 0.40827 0.22798 0.0
C197 C 0.24736 0.58531 0.21128 0.0
O198 O 0.20432 0.58442 0.17454 0.0
C199 C 0.12527 0.5417 0.33274 0.0
O200 O 0.16699 0.58406 0.32797 0.0
O201 O 0.13261 0.46275 0.15516 0.0
C202 C 0.86706 0.55279 -0.00543 0.0
O203 O 0.83151 0.51811 0.95462 0.0
O204 O 0.80938 0.68667 0.93038 0.0
Zn205 Zn 0.78838 0.64517 -0.00744 0.0
O206 O 0.71083 0.59142 0.96877 0.0
C207 C 0.81726 0.74958 0.07613 0.0
O208 O 0.86453 0.75114 0.04359 0.0
O209 O 0.85713 0.60549 0.0141 0.0
C210 C 0.68735 0.5545 -0.00442 0.0
O211 O 0.71526 0.54868 0.04098 0.0
C212 C 0.85118 0.67809 0.89454 0.0
O213 O 0.88666 0.63798 0.89615 0.0
O214 O 0.77538 0.70728 0.0621 0.0
C215 C 0.86964 0.12075 0.27727 0.0
O216 O 0.85965 0.08403 0.22736 0.0
O217 O 0.02089 0.04104 0.3376 0.0
Zn218 Zn 0.96313 0.04876 0.27655 0.0
O219 O 0.90379 0.97446 0.25621 0.0
C220 C 0.05186 0.03311 0.18688 0.0
O221 O 0.07103 -0.00213 0.21556 0.0
O222 O 0.91407 0.1158 0.30737 0.0
C223 C 0.90491 0.93567 0.20991 0.0
O224 O 0.94618 0.94313 0.17256 0.0
C225 C 0.99843 0.01394 0.37384 0.0
O226 O 0.94063 -0.00495 0.37025 0.0
O227 O 1.00757 0.06089 0.20571 0.0
C228 C 0.36702 0.05283 0.4946 0.0
O229 O 0.33152 0.01815 0.45461 0.0
O230 O 0.30934 0.18659 0.43031 0.0
Zn231 Zn 0.28832 0.14516 0.49254 0.0
O232 O 0.21078 0.0914 0.46875 0.0
C233 C 0.31703 0.24979 0.57592 0.0
O234 O 0.36422 0.25147 0.5433 0.0
O235 O 0.35706 0.10551 0.51414 0.0
C236 C 0.1873 0.05449 0.49556 0.0
O237 O 0.2152 0.04867 0.54096 0.0
C238 C 0.35113 0.178 0.39447 0.0
O239 O 0.38661 0.13789 0.39608 0.0
O240 O 0.27529 0.20734 0.56202 0.0
C241 C 0.36965 0.62076 0.77727 0.0
O242 O 0.3597 0.58408 0.72734 0.0
O243 O 0.52093 0.54112 0.83767 0.0
Zn244 Zn 0.46318 0.54881 0.77659 0.0
O245 O 0.40396 0.47442 0.75621 0.0
C246 C 0.5517 0.53288 0.6868 0.0
O247 O 0.57044 0.4972 0.71521 0.0
O248 O 0.41404 0.61579 0.80739 0.0
C249 C 0.40427 0.43628 0.70937 0.0
O250 O 0.44453 0.44454 0.6714 0.0
C251 C 0.49847 0.51399 0.87389 0.0
O252 O 0.44068 0.49507 0.87027 0.0
O253 O 0.50771 0.56103 0.70583 0.0
C254 C 0.6912 0.46221 0.52812 0.0
O255 O 0.72469 0.47359 0.4863 0.0
O256 O 0.76016 0.31651 0.44965 0.0
Zn257 Zn 0.7709 0.37215 0.52674 0.0
O258 O 0.84617 0.42848 0.52697 0.0
C259 C 0.82197 0.31206 0.60464 0.0
O260 O 0.8748 0.33773 0.59413 0.0
O261 O 0.70131 0.41994 0.54945 0.0
C262 C 0.87 0.4346 0.48047 0.0
O263 O 0.84648 0.40265 0.43206 0.0
C264 C 0.79722 0.2791 0.433 0.0
O265 O 0.84126 0.27633 0.4673 0.0
O266 O 0.77467 0.32198 0.58216 0.0
C267 C 0.73718 0.89464 0.77272 0.0
O268 O 0.7224 0.92513 0.82269 0.0
O269 O 0.62109 -0.00715 0.79606 0.0
Zn270 Zn 0.67802 0.97876 0.72993 0.0
O271 O 0.74421 0.04571 0.73886 0.0
C272 C 0.58737 0.9853 0.6421 0.0
O273 O 0.56546 0.02698 0.67994 0.0
O274 O 0.72125 0.90826 0.72801 0.0
C275 C 0.74738 0.08528 0.71128 0.0
O276 O 0.70435 0.08438 0.67452 0.0
C277 C 0.62516 0.04175 0.83268 0.0
O278 O 0.66681 0.08415 0.82786 0.0
O279 O 0.6326 0.96277 0.65517 0.0
C280 C 0.06205 0.16532 0.94546 0.0
O281 O 0.02204 0.19925 0.96995 0.0
O282 O 0.99559 0.20687 0.80389 0.0
Zn283 Zn 0.06326 0.23475 0.86112 0.0
O284 O 0.03665 0.3029 0.91757 0.0
C285 C 0.12367 0.28691 0.77883 0.0
O286 O 0.0677 0.28833 0.76427 0.0
O287 O 0.08467 0.17161 0.89866 0.0
C288 C 0.06912 0.33204 0.95968 0.0
O289 O 0.12172 0.31581 0.9684 0.0
C290 C 0.94622 0.17508 0.80618 0.0
O291 O 0.93598 0.15088 0.8494 0.0
O292 O 0.13472 0.26536 0.82047 0.0
C293 C 0.56205 0.66535 0.44555 0.0
O294 O 0.5221 0.69933 0.47009 0.0
O295 O 0.49554 0.70691 0.30393 0.0
Zn296 Zn 0.5632 0.73476 0.36118 0.0
O297 O 0.5366 0.80292 0.41762 0.0
C298 C 0.62367 0.78683 0.27883 0.0
O299 O 0.56773 0.78821 0.26418 0.0
O300 O 0.5846 0.67162 0.39871 0.0
C301 C 0.56909 0.83208 0.4597 0.0
O302 O 0.62171 0.81587 0.4684 0.0
C303 C 0.44616 0.67513 0.30623 0.0
O304 O 0.4359 0.65095 0.34945 0.0
O305 O 0.63467 0.76535 0.32053 0.0
C306 C 0.02998 0.83081 0.568 0.0
O307 O 0.97989 0.79852 0.54672 0.0
O308 O 0.96333 0.75419 0.68623 0.0
Zn309 Zn 0.03464 0.74362 0.6335 0.0
O310 O 0.01873 0.67339 0.56733 0.0
C311 C 0.12228 0.77218 0.72053 0.0
O312 O 0.09411 0.8191 0.734 0.0
O313 O 0.05963 0.81624 0.60557 0.0
C314 C 0.98262 0.62883 0.57114 0.0
O315 O 0.9529 0.62972 0.61828 0.0
C316 C 0.95835 0.72733 0.7261 0.0
O317 O 0.99856 0.69241 0.73089 0.0
O318 O 0.10484 0.73152 0.67745 0.0
C319 C 0.53003 0.3308 0.06798 0.0
O320 O 0.47996 0.29849 0.04667 0.0
O321 O 0.46334 0.25419 0.18622 0.0
Zn322 Zn 0.53465 0.24362 0.1335 0.0
O323 O 0.51874 0.17339 0.06732 0.0
C324 C 0.62222 0.27213 0.22058 0.0
O325 O 0.59401 0.31902 0.23408 0.0
O326 O 0.55966 0.31624 0.10558 0.0
C327 C 0.48245 0.12893 0.07104 0.0
O328 O 0.45254 0.1299 0.11809 0.0
C329 C 0.45832 0.22726 0.22604 0.0
O330 O 0.49848 0.19227 0.23077 0.0
O331 O 0.60484 0.23151 0.17746 0.0
loop_
_geom_bond_atom_site_label_1
_geom_bond_atom_site_label_2
_geom_bond_distance
_geom_bond_site_symmetry_2
_ccdc_geom_bond_type
H0 C5 0.929 1_655 S
H1 C10 0.931 1_565 S
H2 C8 0.930 . S
N3 N4 1.234 1_554 S
N3 C7 1.453 . S
N4 N3 1.234 1_556 S
C5 H0 0.929 1_455 S
C5 C6 1.373 . S
C5 C7 1.368 . S
C6 C5 1.373 . S
C6 C10 1.397 . S
C7 N3 1.453 . S
C7 C5 1.368 . S
C7 C8 1.373 . S
C8 H2 0.930 . S
C8 C7 1.373 . S
C8 C9 1.371 . S
C9 C8 1.371 . S
C9 C10 1.383 . S
C10 H1 0.931 1_545 S
C10 C6 1.397 . S
C10 C9 1.383 . S
H11 C16 0.929 . S
H12 C21 0.931 . S
H13 C19 0.930 . S
N14 N15 1.234 . S
N14 C18 1.453 . S
N15 N14 1.234 . S
C16 H11 0.929 . S
C16 C17 1.373 . S
C16 C18 1.368 . S
C17 C16 1.373 . S
C17 C21 1.397 . S
C18 N14 1.453 . S
C18 C16 1.368 . S
C18 C19 1.373 . S
C19 H13 0.930 . S
C19 C18 1.373 . S
C19 C20 1.371 . S
C20 C19 1.371 . S
C20 C21 1.383 . S
C21 H12 0.931 . S
C21 C17 1.397 . S
C21 C20 1.383 . S
H22 C27 0.929 . S
H23 C32 0.931 . S
H24 C30 0.930 . S
N25 N26 1.234 1_556 S
N25 C29 1.453 1_556 S
N26 N25 1.234 1_554 S
C27 H22 0.929 . S
C27 C28 1.373 1_655 S
C27 C29 1.368 1_556 S
C28 C27 1.373 1_455 S
C28 C32 1.397 1_556 S
C29 N25 1.453 1_554 S
C29 C27 1.368 1_554 S
C29 C30 1.373 1_655 S
C30 H24 0.930 . S
C30 C29 1.373 1_455 S
C30 C31 1.371 . S
C31 C30 1.371 . S
C31 C32 1.383 . S
C32 H23 0.931 . S
C32 C28 1.397 1_554 S
C32 C31 1.383 . S
H33 C38 0.929 . S
H34 C43 0.931 . S
H35 C41 0.930 . S
N36 N37 1.234 . S
N36 C40 1.453 . S
N37 N36 1.234 . S
C38 H33 0.929 . S
C38 C39 1.373 . S
C38 C40 1.368 . S
C39 C38 1.373 . S
C39 C43 1.397 . S
C40 N36 1.453 . S
C40 C38 1.368 . S
C40 C41 1.373 . S
C41 H35 0.930 . S
C41 C40 1.373 . S
C41 C42 1.371 . S
C42 C41 1.371 . S
C42 C43 1.383 . S
C43 H34 0.931 . S
C43 C39 1.397 . S
C43 C42 1.383 . S
H44 C49 0.929 1_655 S
H45 C54 0.931 . S
H46 C52 0.930 1_565 S
N47 N48 1.234 . S
N47 C51 1.453 . S
N48 N47 1.234 . S
C49 H44 0.929 1_455 S
C49 C50 1.373 1_565 S
C49 C51 1.368 . S
C50 C49 1.373 1_545 S
C50 C54 1.397 . S
C51 N47 1.453 . S
C51 C49 1.368 . S
C51 C52 1.373 1_565 S
C52 H46 0.930 1_545 S
C52 C51 1.373 1_545 S
C52 C53 1.371 . S
C53 C52 1.371 . S
C53 C54 1.383 . S
C54 H45 0.931 . S
C54 C50 1.397 . S
C54 C53 1.383 . S
H55 C60 0.929 . S
H56 C65 0.931 . S
H57 C63 0.930 . S
N58 N59 1.234 . S
N58 C62 1.453 . S
N59 N58 1.234 . S
C60 H55 0.929 . S
C60 C61 1.373 . S
C60 C62 1.368 . S
C61 C60 1.373 . S
C61 C65 1.397 . S
C62 N58 1.453 . S
C62 C60 1.368 . S
C62 C63 1.373 . S
C63 H57 0.930 . S
C63 C62 1.373 . S
C63 C64 1.371 . S
C64 C63 1.371 . S
C64 C65 1.383 . S
C65 H56 0.931 . S
C65 C61 1.397 . S
C65 C64 1.383 . S
H66 C71 0.929 . S
H67 C76 0.931 . S
H68 C74 0.930 . S
N69 N70 1.234 . S
N69 C73 1.445 1_455 S
N70 N69 1.234 . S
C71 H66 0.929 . S
C71 C72 1.373 . S
C71 C73 1.378 . S
C72 C71 1.373 . S
C72 C76 1.397 . S
C73 N69 1.445 1_655 S
C73 C71 1.378 . S
C73 C74 1.371 1_655 S
C74 H68 0.930 . S
C74 C73 1.371 1_455 S
C74 C75 1.371 1_455 S
C75 C74 1.371 1_655 S
C75 C76 1.383 . S
C76 H67 0.931 . S
C76 C72 1.397 . S
C76 C75 1.383 . S
H77 C82 0.929 . S
H78 C87 0.931 . S
H79 C85 0.930 . S
N80 N81 1.234 . S
N80 C84 1.453 . S
N81 N80 1.234 . S
C82 H77 0.929 . S
C82 C83 1.373 . S
C82 C84 1.368 . S
C83 C82 1.373 . S
C83 C87 1.397 . S
C84 N80 1.453 . S
C84 C82 1.368 . S
C84 C85 1.373 . S
C85 H79 0.930 . S
C85 C84 1.373 . S
C85 C86 1.371 . S
C86 C85 1.371 . S
C86 C87 1.383 . S
C87 H78 0.931 . S
C87 C83 1.397 . S
C87 C86 1.383 . S
H88 C93 0.929 . S
H89 C98 0.931 . S
H90 C96 0.930 . S
N91 N92 1.234 . S
N91 C95 1.453 . S
N92 N91 1.234 . S
C93 H88 0.929 . S
C93 C94 1.373 . S
C93 C95 1.368 . S
C94 C93 1.373 . S
C94 C98 1.397 . S
C95 N91 1.453 . S
C95 C93 1.368 . S
C95 C96 1.373 . S
C96 H90 0.930 . S
C96 C95 1.373 . S
C96 C97 1.371 . S
C97 C96 1.371 . S
C97 C98 1.383 . S
C98 H89 0.931 . S
C98 C94 1.397 . S
C98 C97 1.383 . S
H99 C104 0.929 . S
H100 C109 0.931 . S
H101 C107 0.930 . S
N102 N103 1.234 . S
N102 C106 1.453 1_545 S
N103 N102 1.234 . S
C104 H99 0.929 . S
C104 C105 1.373 . S
C104 C106 1.368 . S
C105 C104 1.373 . S
C105 C109 1.397 . S
C106 N102 1.453 1_565 S
C106 C104 1.368 . S
C106 C107 1.373 1_565 S
C107 H101 0.930 . S
C107 C106 1.373 1_545 S
C107 C108 1.371 1_545 S
C108 C107 1.371 1_565 S
C108 C109 1.383 . S
C109 H100 0.931 . S
C109 C105 1.397 . S
C109 C108 1.383 . S
H110 C115 0.929 . S
H111 C120 0.931 . S
H112 C118 0.930 . S
N113 N114 1.234 . S
N113 C117 1.453 . S
N114 N113 1.234 . S
C115 H110 0.929 . S
C115 C116 1.373 . S
C115 C117 1.368 . S
C116 C115 1.373 . S
C116 C120 1.397 . S
C117 N113 1.453 . S
C117 C115 1.368 . S
C117 C118 1.373 . S
C118 H112 0.930 . S
C118 C117 1.373 . S
C118 C119 1.371 . S
C119 C118 1.371 . S
C119 C120 1.383 . S
C120 H111 0.931 . S
C120 C116 1.397 . S
C120 C119 1.383 . S
H121 C126 0.929 . S
H122 C131 0.931 . S
H123 C129 0.930 . S
N124 N125 1.234 . S
N124 C128 1.453 . S
N125 N124 1.234 . S
C126 H121 0.929 . S
C126 C127 1.373 . S
C126 C128 1.368 . S
C127 C126 1.373 . S
C127 C131 1.397 . S
C128 N124 1.453 . S
C128 C126 1.368 . S
C128 C129 1.373 . S
C129 H123 0.930 . S
C129 C128 1.373 . S
C129 C130 1.371 . S
C130 C129 1.371 . S
C130 C131 1.383 . S
C131 H122 0.931 . S
C131 C127 1.397 . S
C131 C130 1.383 . S
H132 C137 0.929 . S
H133 C142 0.931 . S
H134 C140 0.930 . S
N135 N136 1.234 . S
N135 C139 1.453 . S
N136 N135 1.234 . S
C137 H132 0.929 . S
C137 C138 1.373 . S
C137 C139 1.368 . S
C138 C137 1.373 . S
C138 C142 1.397 . S
C139 N135 1.453 . S
C139 C137 1.368 . S
C139 C140 1.373 . S
C140 H134 0.930 . S
C140 C139 1.373 . S
C140 C141 1.371 . S
C141 C140 1.371 . S
C141 C142 1.383 . S
C142 H133 0.931 . S
C142 C138 1.397 . S
C142 C141 1.383 . S
H143 C148 0.929 . S
H144 C153 0.931 . S
H145 C151 0.930 . S
N146 N147 1.234 . S
N146 C150 1.453 . S
N147 N146 1.234 . S
C148 H143 0.929 . S
C148 C149 1.373 . S
C148 C150 1.368 1_556 S
C149 C148 1.373 . S
C149 C153 1.397 . S
C150 N146 1.453 . S
C150 C148 1.368 1_554 S
C150 C151 1.373 . S
C151 H145 0.930 . S
C151 C150 1.373 . S
C151 C152 1.371 1_554 S
C152 C151 1.371 1_556 S
C152 C153 1.383 . S
C153 H144 0.931 . S
C153 C149 1.397 . S
C153 C152 1.383 . S
H154 C159 0.929 . S
H155 C164 0.931 . S
H156 C162 0.930 . S
N157 N158 1.234 . S
N157 C161 1.453 . S
N158 N157 1.234 . S
C159 H154 0.929 . S
C159 C160 1.373 . S
C159 C161 1.368 . S
C160 C159 1.373 . S
C160 C164 1.397 . S
C161 N157 1.453 . S
C161 C159 1.368 . S
C161 C162 1.373 . S
C162 H156 0.930 . S
C162 C161 1.373 . S
C162 C163 1.371 . S
C163 C162 1.371 . S
C163 C164 1.383 . S
C164 H155 0.931 . S
C164 C160 1.397 . S
C164 C163 1.383 . S
H165 C170 0.929 . S
H166 C175 0.931 . S
H167 C173 0.930 . S
N168 N169 1.222 1_565 S
N168 C172 1.448 1_565 S
N169 N168 1.222 1_545 S
C170 H165 0.929 . S
C170 C171 1.373 1_566 S
C170 C172 1.368 1_565 S
C171 C170 1.373 1_544 S
C171 C175 1.397 . S
C172 N168 1.448 1_545 S
C172 C170 1.368 1_545 S
C172 C173 1.373 . S
C173 H167 0.930 . S
C173 C172 1.373 . S
C173 C174 1.371 1_556 S
C174 C173 1.371 1_554 S
C174 C175 1.383 . S
C175 H166 0.931 . S
C175 C171 1.397 . S
C175 C174 1.383 . S
C176 O177 1.160 . S
C176 O183 1.185 . S
O177 C176 1.160 . S
O178 Zn179 1.895 1_556 S
O178 C186 1.289 . S
Zn179 O178 1.895 1_554 S
Zn179 O180 2.032 . S
Zn179 O183 2.086 . S
Zn179 O188 1.977 . S
O180 Zn179 2.032 . S
O180 C184 1.278 . S
C181 O182 1.203 . S
C181 O188 1.267 . S
O182 C181 1.203 . S
O183 C176 1.185 . S
O183 Zn179 2.086 . S
C184 O180 1.278 . S
C184 O185 1.211 . S
O185 C184 1.211 . S
C186 O178 1.289 . S
C186 O187 1.273 . S
O187 C186 1.273 . S
O188 Zn179 1.977 . S
O188 C181 1.267 . S
C189 O190 1.160 . S
C189 O196 1.185 . S
O190 C189 1.160 . S
O191 Zn192 1.899 . S
O191 C199 1.284 . S
Zn192 O191 1.899 . S
Zn192 O193 2.032 . S
Zn192 O196 2.086 . S
Zn192 O201 1.977 . S
O193 Zn192 2.032 . S
O193 C197 1.278 . S
C194 O195 1.203 . S
C194 O201 1.267 . S
O195 C194 1.203 . S
O196 C189 1.185 . S
O196 Zn192 2.086 . S
C197 O193 1.278 . S
C197 O198 1.211 . S
O198 C197 1.211 . S
C199 O191 1.284 . S
C199 O200 1.273 . S
O200 C199 1.273 . S
O201 Zn192 1.977 . S
O201 C194 1.267 . S
C202 O203 1.160 . S
C202 O209 1.185 1_556 S
O203 C202 1.160 . S
O204 Zn205 1.899 1_556 S
O204 C212 1.284 . S
Zn205 O204 1.899 1_554 S
Zn205 O206 2.032 1_554 S
Zn205 O209 2.086 . S
Zn205 O214 1.977 . S
O206 Zn205 2.032 1_556 S
O206 C210 1.278 . S
C207 O208 1.203 . S
C207 O214 1.267 . S
O208 C207 1.203 . S
O209 C202 1.185 1_554 S
O209 Zn205 2.086 . S
C210 O206 1.278 . S
C210 O211 1.211 1_556 S
O211 C210 1.211 1_554 S
C212 O204 1.284 . S
C212 O213 1.273 . S
O213 C212 1.273 . S
O214 Zn205 1.977 . S
O214 C207 1.267 . S
C215 O216 1.160 . S
C215 O222 1.185 . S
O216 C215 1.160 . S
O217 Zn218 1.899 . S
O217 C225 1.284 1_655 S
Zn218 O217 1.899 . S
Zn218 O219 2.032 1_545 S
Zn218 O222 2.086 . S
Zn218 O227 1.977 . S
O219 Zn218 2.032 1_565 S
O219 C223 1.278 . S
C220 O221 1.203 . S
C220 O227 1.267 1_455 S
O221 C220 1.203 . S
O222 C215 1.185 . S
O222 Zn218 2.086 . S
C223 O219 1.278 . S
C223 O224 1.211 . S
O224 C223 1.211 . S
C225 O217 1.284 1_455 S
C225 O226 1.273 1_445 S
O226 C225 1.273 1_665 S
O227 Zn218 1.977 . S
O227 C220 1.267 1_655 S
C228 O229 1.160 . S
C228 O235 1.185 . S
O229 C228 1.160 . S
O230 Zn231 1.899 . S
O230 C238 1.284 . S
Zn231 O230 1.899 . S
Zn231 O232 2.032 . S
Zn231 O235 2.086 . S
Zn231 O240 1.977 . S
O232 Zn231 2.032 . S
O232 C236 1.278 . S
C233 O234 1.203 . S
C233 O240 1.267 . S
O234 C233 1.203 . S
O235 C228 1.185 . S
O235 Zn231 2.086 . S
C236 O232 1.278 . S
C236 O237 1.211 . S
O237 C236 1.211 . S
C238 O230 1.284 . S
C238 O239 1.273 . S
O239 C238 1.273 . S
O240 Zn231 1.977 . S
O240 C233 1.267 . S
C241 O242 1.160 . S
C241 O248 1.185 . S
O242 C241 1.160 . S
O243 Zn244 1.899 . S
O243 C251 1.284 . S
Zn244 O243 1.899 . S
Zn244 O245 2.032 . S
Zn244 O248 2.086 . S
Zn244 O253 1.977 . S
O245 Zn244 2.032 . S
O245 C249 1.278 . S
C246 O247 1.203 . S
C246 O253 1.267 . S
O247 C246 1.203 . S
O248 C241 1.185 . S
O248 Zn244 2.086 . S
C249 O245 1.278 . S
C249 O250 1.211 . S
O250 C249 1.211 . S
C251 O243 1.284 . S
C251 O252 1.273 . S
O252 C251 1.273 . S
O253 Zn244 1.977 . S
O253 C246 1.267 . S
C254 O255 1.160 . S
C254 O261 1.185 . S
O255 C254 1.160 . S
O256 Zn257 1.899 . S
O256 C264 1.284 . S
Zn257 O256 1.899 . S
Zn257 O258 2.032 . S
Zn257 O261 2.086 . S
Zn257 O266 1.977 . S
O258 Zn257 2.032 . S
O258 C262 1.278 . S
C259 O260 1.203 . S
C259 O266 1.267 . S
O260 C259 1.203 . S
O261 C254 1.185 . S
O261 Zn257 2.086 . S
C262 O258 1.278 . S
C262 O263 1.211 . S
O263 C262 1.211 . S
C264 O256 1.284 . S
C264 O265 1.273 . S
O265 C264 1.273 . S
O266 Zn257 1.977 . S
O266 C259 1.267 . S
C267 O268 1.160 . S
C267 O274 1.185 . S
O268 C267 1.160 . S
O269 Zn270 1.899 . S
O269 C277 1.284 1_565 S
Zn270 O269 1.899 . S
Zn270 O271 2.032 1_565 S
Zn270 O274 2.086 . S
Zn270 O279 1.977 . S
O271 Zn270 2.032 1_545 S
O271 C275 1.278 . S
C272 O273 1.203 1_565 S
C272 O279 1.267 . S
O273 C272 1.203 1_545 S
O274 C267 1.185 . S
O274 Zn270 2.086 . S
C275 O271 1.278 . S
C275 O276 1.211 . S
O276 C275 1.211 . S
C277 O269 1.284 1_545 S
C277 O278 1.273 . S
O278 C277 1.273 . S
O279 Zn270 1.977 . S
O279 C272 1.267 . S
C280 O281 1.160 1_455 S
C280 O287 1.185 . S
O281 C280 1.160 1_655 S
O282 Zn283 1.899 1_655 S
O282 C290 1.284 . S
Zn283 O282 1.899 1_455 S
Zn283 O284 2.032 . S
Zn283 O287 2.086 . S
Zn283 O292 1.977 . S
O284 Zn283 2.032 . S
O284 C288 1.278 . S
C285 O286 1.203 . S
C285 O292 1.267 . S
O286 C285 1.203 . S
O287 C280 1.185 . S
O287 Zn283 2.086 . S
C288 O284 1.278 . S
C288 O289 1.211 . S
O289 C288 1.211 . S
C290 O282 1.284 . S
C290 O291 1.273 . S
O291 C290 1.273 . S
O292 Zn283 1.977 . S
O292 C285 1.267 . S
C293 O294 1.160 . S
C293 O300 1.185 . S
O294 C293 1.160 . S
O295 Zn296 1.899 . S
O295 C303 1.284 . S
Zn296 O295 1.899 . S
Zn296 O297 2.032 . S
Zn296 O300 2.086 . S
Zn296 O305 1.977 . S
O297 Zn296 2.032 . S
O297 C301 1.278 . S
C298 O299 1.203 . S
C298 O305 1.267 . S
O299 C298 1.203 . S
O300 C293 1.185 . S
O300 Zn296 2.086 . S
C301 O297 1.278 . S
C301 O302 1.211 . S
O302 C301 1.211 . S
C303 O295 1.284 . S
C303 O304 1.273 . S
O304 C303 1.273 . S
O305 Zn296 1.977 . S
O305 C298 1.267 . S
C306 O307 1.160 1_455 S
C306 O313 1.185 . S
O307 C306 1.160 1_655 S
O308 Zn309 1.899 1_655 S
O308 C316 1.284 . S
Zn309 O308 1.899 1_455 S
Zn309 O310 2.031 . S
Zn309 O313 2.086 . S
Zn309 O318 1.977 . S
O310 Zn309 2.031 . S
O310 C314 1.277 . S
C311 O312 1.203 . S
C311 O318 1.267 . S
O312 C311 1.203 . S
O313 C306 1.185 . S
O313 Zn309 2.086 . S
C314 O310 1.277 . S
C314 O315 1.211 . S
O315 C314 1.211 . S
C316 O308 1.284 . S
C316 O317 1.273 . S
O317 C316 1.273 . S
O318 Zn309 1.977 . S
O318 C311 1.267 . S
C319 O320 1.160 . S
C319 O326 1.185 . S
O320 C319 1.160 . S
O321 Zn322 1.899 . S
O321 C329 1.284 . S
Zn322 O321 1.899 . S
Zn322 O323 2.032 . S
Zn322 O326 2.086 . S
Zn322 O331 1.977 . S
O323 Zn322 2.032 . S
O323 C327 1.278 . S
C324 O325 1.203 . S
C324 O331 1.267 . S
O325 C324 1.203 . S
O326 C319 1.185 . S
O326 Zn322 2.086 . S
C327 O323 1.278 . S
C327 O328 1.211 . S
O328 C327 1.211 . S
C329 O321 1.284 . S
C329 O330 1.273 . S
O330 C329 1.273 . S
O331 Zn322 1.977 . S
O331 C324 1.267 . S
C186 C64 1.617 . S
C199 N70 1.419 . S
C83 C212 1.758 . S
C225 C50 1.547 . S
C233 C119 1.495 . S
C246 C138 1.587 . S
N125 C259 1.373 . S
C272 C108 1.567 . S
C130 C290 1.447 . S
C301 C105 1.410 . S
N114 C285 1.292 . S
C293 N136 1.609 . S
C86 C316 1.620 . S
N48 C306 1.745 . S
N59 C311 1.386 . S
C75 C314 1.323 1_655 S
C39 C223 1.538 . S
C160 C215 1.906 . S
C184 C171 1.519 1_565 S
C189 N92 1.296 . S
C53 C236 1.724 . S
C275 C127 1.580 . S
C228 N103 1.575 . S
C254 C141 1.691 . S
C264 C163 1.617 . S
N169 C277 1.419 . S
C94 C238 1.758 . S
C251 C149 1.546 . S
C42 C207 1.495 . S
C220 C6 1.587 . S
C181 N15 1.373 . S
C194 C31 1.567 . S
C20 C303 1.447 . S
C28 C288 1.410 . S
N37 C298 1.292 . S
N4 C280 1.609 . S
C329 C97 1.620 . S
C319 N147 1.745 . S
C324 N158 1.386 . S
C174 C327 1.323 . S
C116 C249 1.538 . S
C241 C61 1.906 . S
C262 C72 1.519 . S
C267 N81 1.296 . S
C152 C210 1.724 . S
C197 C17 1.580 . S
N26 C202 1.575 1_554 S
C176 C9 1.691 1_565 S
