# Generated by pormake.
# Topology zzz, (3,6)-cn, num edge types: 1
# Building blocks:
#     Node 0, Type 0, BuildingBlock: ESEHIV_clean_linker_0, # of connection points: 3
#     Node 1, Type 0, BuildingBlock: ESEHIV_clean_linker_0, # of connection points: 3
#     Node 2, Type 0, BuildingBlock: ESEHIV_clean_linker_0, # of connection points: 3
#     Node 3, Type 0, BuildingBlock: ESEHIV_clean_linker_0, # of connection points: 3
#     Node 4, Type 0, BuildingBlock: ESEHIV_clean_linker_0, # of connection points: 3
#     Node 5, Type 0, BuildingBlock: ESEHIV_clean_linker_0, # of connection points: 3
#     Node 6, Type 0, BuildingBlock: ESEHIV_clean_linker_0, # of connection points: 3
#     Node 7, Type 0, BuildingBlock: ESEHIV_clean_linker_0, # of connection points: 3
#     Node 8, Type 1, BuildingBlock: FUNLAD_clean_sbu_0, # of connection points: 6
#     Node 9, Type 1, BuildingBlock: FUNLAD_clean_sbu_0, # of connection points: 6
#     Node 10, Type 1, BuildingBlock: FUNLAD_clean_sbu_0, # of connection points: 6
#     Node 11, Type 1, BuildingBlock: FUNLAD_clean_sbu_0, # of connection points: 6
#     Edge 12, Type (0, 1), BuildingBlock: XUDNAN_clean_linker_2, # of connection points: 2
#     Edge 13, Type (0, 1), BuildingBlock: XUDNAN_clean_linker_2, # of connection points: 2
#     Edge 14, Type (0, 1), BuildingBlock: XUDNAN_clean_linker_2, # of connection points: 2
#     Edge 15, Type (0, 1), BuildingBlock: XUDNAN_clean_linker_2, # of connection points: 2
#     Edge 16, Type (0, 1), BuildingBlock: XUDNAN_clean_linker_2, # of connection points: 2
#     Edge 17, Type (0, 1), BuildingBlock: XUDNAN_clean_linker_2, # of connection points: 2
#     Edge 18, Type (0, 1), BuildingBlock: XUDNAN_clean_linker_2, # of connection points: 2
#     Edge 19, Type (0, 1), BuildingBlock: XUDNAN_clean_linker_2, # of connection points: 2
#     Edge 20, Type (0, 1), BuildingBlock: XUDNAN_clean_linker_2, # of connection points: 2
#     Edge 21, Type (0, 1), BuildingBlock: XUDNAN_clean_linker_2, # of connection points: 2
#     Edge 22, Type (0, 1), BuildingBlock: XUDNAN_clean_linker_2, # of connection points: 2
#     Edge 23, Type (0, 1), BuildingBlock: XUDNAN_clean_linker_2, # of connection points: 2
#     Edge 24, Type (0, 1), BuildingBlock: XUDNAN_clean_linker_2, # of connection points: 2
#     Edge 25, Type (0, 1), BuildingBlock: XUDNAN_clean_linker_2, # of connection points: 2
#     Edge 26, Type (0, 1), BuildingBlock: XUDNAN_clean_linker_2, # of connection points: 2
#     Edge 27, Type (0, 1), BuildingBlock: XUDNAN_clean_linker_2, # of connection points: 2
#     Edge 28, Type (0, 1), BuildingBlock: XUDNAN_clean_linker_2, # of connection points: 2
#     Edge 29, Type (0, 1), BuildingBlock: XUDNAN_clean_linker_2, # of connection points: 2
#     Edge 30, Type (0, 1), BuildingBlock: XUDNAN_clean_linker_2, # of connection points: 2
#     Edge 31, Type (0, 1), BuildingBlock: XUDNAN_clean_linker_2, # of connection points: 2
#     Edge 32, Type (0, 1), BuildingBlock: XUDNAN_clean_linker_2, # of connection points: 2
#     Edge 33, Type (0, 1), BuildingBlock: XUDNAN_clean_linker_2, # of connection points: 2
#     Edge 34, Type (0, 1), BuildingBlock: XUDNAN_clean_linker_2, # of connection points: 2
#     Edge 35, Type (0, 1), BuildingBlock: XUDNAN_clean_linker_2, # of connection points: 2
# Relax obj value: 0.267
# Max RMSD: 0.236
# Mean RMSD: 0.193
data_MOF--net-zzz--node1-FUNLAD_clean_sbu_0--node2-ESEHIV_clean_linker_0--edge1-XUDNAN_clean_linker_2
_symmetry_space_group_name_H-M    P1
_symmetry_Int_Tables_number       1
_symmetry_cell_setting            triclinic
loop_
_symmetry_equiv_pos_as_xyz
'x, y, z'
_cell_length_a     44.888868
_cell_length_b     50.169552
_cell_length_c     17.610605
_cell_angle_alpha  86.033447
_cell_angle_beta   85.405987
_cell_angle_gamma 92.273848
loop_
_atom_site_label
_atom_site_type_symbol
_atom_site_fract_x
_atom_site_fract_y
_atom_site_fract_z
_atom_type_partial_charge
H0 H 0.84751 0.42316 0.33036 0.0
H1 H 0.79028 0.42697 0.14784 0.0
H2 H 0.75983 0.45356 0.3674 0.0
C3 C 0.82573 0.42701 0.31061 0.0
C4 C 0.80426 0.43889 0.35815 0.0
C5 C 0.82086 0.42264 0.2349 0.0
C6 C 0.79326 0.42878 0.20772 0.0
C7 C 0.77081 0.43982 0.25489 0.0
C8 C 0.77652 0.44462 0.33054 0.0
H9 H 0.96179 0.83293 0.15181 0.0
H10 H 0.98662 0.75917 0.05882 0.0
H11 H 0.91783 0.75894 0.24438 0.0
C12 C 0.95944 0.81134 0.1517 0.0
C13 C 0.93827 0.79749 0.20426 0.0
C14 C 0.97742 0.79778 0.0996 0.0
C15 C 0.9733 0.76988 0.09965 0.0
C16 C 0.95148 0.75574 0.15059 0.0
C17 C 0.93429 0.76965 0.20383 0.0
H18 H 0.70898 0.01311 0.19042 0.0
H19 H 0.78065 0.01733 0.01443 0.0
H20 H 0.79754 0.99522 0.24897 0.0
C21 C 0.7326 0.0114 0.17367 0.0
C22 C 0.752 0.00441 0.22926 0.0
C23 C 0.74266 0.01559 0.09667 0.0
C24 C 0.77304 0.01347 0.07428 0.0
C25 C 0.79337 0.00595 0.12834 0.0
C26 C 0.78252 0.00129 0.20647 0.0
H27 H 0.52003 0.64623 0.26031 0.0
H28 H 0.56522 0.72239 0.27782 0.0
H29 H 0.515 0.70903 0.08418 0.0
C30 C 0.52585 0.66651 0.23695 0.0
C31 C 0.51584 0.67531 0.16672 0.0
C32 C 0.54436 0.68292 0.27619 0.0
C33 C 0.55096 0.70952 0.24782 0.0
C34 C 0.5395 0.71923 0.17953 0.0
C35 C 0.52213 0.70199 0.13913 0.0
H36 H 0.1609 0.58021 0.19804 0.0
H37 H 0.23087 0.58107 0.3489 0.0
H38 H 0.24334 0.54357 0.13622 0.0
C39 C 0.18364 0.57593 0.20952 0.0
C40 C 0.20075 0.56092 0.15916 0.0
C41 C 0.19416 0.58282 0.27856 0.0
C42 C 0.22335 0.57663 0.29406 0.0
C43 C 0.24164 0.56265 0.24309 0.0
C44 C 0.23013 0.55514 0.17497 0.0
H45 H 0.05973 0.17483 0.26994 0.0
H46 H 0.03688 0.24284 0.39388 0.0
H47 H 0.0892 0.254 0.17753 0.0
C48 C 0.06054 0.19625 0.27446 0.0
C49 C 0.07621 0.21294 0.21602 0.0
C50 C 0.04625 0.20667 0.33886 0.0
C51 C 0.04789 0.23437 0.34466 0.0
C52 C 0.06344 0.25144 0.28703 0.0
C53 C 0.07719 0.24079 0.22196 0.0
H54 H 0.35687 0.98416 0.21109 0.0
H55 H 0.28673 0.97592 0.3916 0.0
H56 H 0.26741 0.00258 0.16214 0.0
C57 C 0.33353 0.98607 0.23053 0.0
C58 C 0.31359 0.99455 0.17791 0.0
C59 C 0.32412 0.97966 0.30727 0.0
C60 C 0.29385 0.98118 0.33202 0.0
C61 C 0.2729 0.98971 0.28078 0.0
C62 C 0.28297 0.996 0.20269 0.0
H63 H 0.49291 0.34983 0.21316 0.0
H64 H 0.47406 0.26882 0.1624 0.0
H65 H 0.51257 0.28511 0.37196 0.0
C66 C 0.49249 0.32864 0.23046 0.0
C67 C 0.50382 0.31984 0.29932 0.0
C68 C 0.48128 0.31046 0.18191 0.0
C69 C 0.48206 0.28291 0.20094 0.0
C70 C 0.49338 0.27368 0.26984 0.0
C71 C 0.5039 0.29224 0.31893 0.0
C72 C 0.05109 0.94836 0.78004 0.0
N73 N 0.99237 0.96508 0.61248 0.0
C74 C 1.00489 0.9438 0.58077 0.0
C75 C 0.98756 0.92581 0.54448 0.0
C76 C 0.95689 0.92958 0.5407 0.0
C77 C 0.94458 0.95214 0.57176 0.0
C78 C 0.96285 0.96972 0.60804 0.0
Zn79 Zn 0.01923 0.98732 0.67461 0.0
C80 C 0.98758 0.99766 0.82684 0.0
N81 N 0.07713 0.02853 0.812 0.0
C82 C 0.07216 0.02967 0.88895 0.0
C83 C 0.09512 0.0474 0.76932 0.0
C84 C 0.10675 0.06953 0.80243 0.0
C85 C 0.09948 0.07265 0.88009 0.0
C86 C 0.08318 0.05173 0.92442 0.0
Zn87 Zn 0.05027 0.00495 0.75215 0.0
O88 O 0.03352 0.95136 0.72728 0.0
C89 C 0.08165 0.99445 0.59875 0.0
O90 O 0.06288 0.96881 0.8068 0.0
H91 H 0.09838 0.04672 0.7081 0.0
H92 H 0.02834 0.94036 0.58504 0.0
H93 H 0.05764 0.01466 0.92195 0.0
O94 O 0.05514 0.98699 0.58669 0.0
O95 O 0.08638 0.00259 0.66379 0.0
H96 H 0.95333 0.9867 0.63408 0.0
O97 O 0.03657 0.04068 0.69884 0.0
O98 O 1.00545 0.02364 0.62328 0.0
O99 O 0.01369 0.00655 0.83815 0.0
O100 O 0.98345 0.98805 0.76327 0.0
C101 C 0.01782 0.04394 0.64919 0.0
H102 H 0.99815 0.90906 0.51957 0.0
H103 H 0.92102 0.95578 0.56969 0.0
H104 H 0.1196 0.08497 0.76638 0.0
H105 H 0.0769 0.05335 0.98453 0.0
C106 C 0.4961 0.97047 0.60712 0.0
N107 N 0.5262 0.05014 0.61591 0.0
C108 C 0.5264 0.04872 0.539 0.0
C109 C 0.5233 0.07154 0.4912 0.0
C110 C 0.52091 0.09655 0.52191 0.0
C111 C 0.52105 0.09753 0.60169 0.0
C112 C 0.5235 0.07394 0.64787 0.0
Zn113 Zn 0.53039 0.01475 0.67932 0.0
C114 C 0.47923 0.00128 0.79556 0.0
N115 N 0.53789 0.93764 0.79257 0.0
C116 C 0.54996 0.91662 0.75813 0.0
C117 C 0.53019 0.93612 0.86919 0.0
C118 C 0.53438 0.91278 0.91419 0.0
C119 C 0.54731 0.89111 0.88029 0.0
C120 C 0.5552 0.8931 0.8014 0.0
Zn121 Zn 0.53325 0.97319 0.73103 0.0
O122 O 0.50288 0.99529 0.60688 0.0
C123 C 0.58414 0.9866 0.61358 0.0
O124 O 0.50697 0.95417 0.65469 0.0
H125 H 0.52119 0.95317 0.89584 0.0
H126 H 0.52899 0.02976 0.51415 0.0
H127 H 0.5559 0.91818 0.69722 0.0
O128 O 0.56988 0.00796 0.60774 0.0
O129 O 0.5737 0.96766 0.66125 0.0
H130 H 0.5235 0.07469 0.70911 0.0
O131 O 0.55943 0.99261 0.80733 0.0
O132 O 0.55814 0.03322 0.75279 0.0
O133 O 0.49257 0.97939 0.79778 0.0
O134 O 0.49064 0.02116 0.75253 0.0
C135 C 0.56778 0.01723 0.80336 0.0
H136 H 0.52261 0.06938 0.43064 0.0
H137 H 0.51972 0.1163 0.62832 0.0
H138 H 0.52823 0.91187 0.9751 0.0
H139 H 0.56511 0.87659 0.77362 0.0
C140 C 0.53358 0.46518 0.62762 0.0
N141 N 0.45498 0.50712 0.63441 0.0
C142 C 0.4625 0.50877 0.55766 0.0
C143 C 0.44062 0.51189 0.50636 0.0
C144 C 0.41082 0.51409 0.53416 0.0
C145 C 0.40355 0.513 0.61333 0.0
C146 C 0.42613 0.50918 0.66291 0.0
Zn147 Zn 0.48899 0.50172 0.70431 0.0
C148 C 0.48186 0.45383 0.80818 0.0
N149 N 0.56524 0.48998 0.82955 0.0
C150 C 0.59445 0.48919 0.80249 0.0
C151 C 0.557 0.48729 0.90591 0.0
C152 C 0.57844 0.48459 0.95844 0.0
C153 C 0.60864 0.48398 0.93229 0.0
C154 C 0.61669 0.48591 0.85336 0.0
Zn155 Zn 0.53155 0.49567 0.75919 0.0
O156 O 0.50834 0.47574 0.62788 0.0
C157 C 0.53965 0.54302 0.65535 0.0
O158 O 0.55093 0.47044 0.67873 0.0
H159 H 0.53367 0.48739 0.9265 0.0
H160 H 0.48559 0.50768 0.53585 0.0
H161 H 0.6005 0.4913 0.74161 0.0
O162 O 0.51306 0.53533 0.64476 0.0
O163 O 0.55439 0.52976 0.70231 0.0
H164 H 0.42062 0.50786 0.72401 0.0
O165 O 0.51134 0.52092 0.83816 0.0
O166 O 0.47016 0.52769 0.78196 0.0
O167 O 0.50867 0.4618 0.81443 0.0
O168 O 0.46561 0.46766 0.766 0.0
C169 C 0.48649 0.53211 0.8357 0.0
H170 H 0.44694 0.5129 0.44551 0.0
H171 H 0.38064 0.51462 0.6364 0.0
H172 H 0.57147 0.48284 0.019 0.0
H173 H 0.6399 0.48549 0.83151 0.0
C174 C 0.03237 0.53838 0.64483 0.0
N175 N 0.02846 0.45477 0.6406 0.0
C176 C 0.0288 0.46178 0.56446 0.0
C177 C 0.03603 0.44341 0.51087 0.0
C178 C 0.042 0.41705 0.53522 0.0
C179 C 0.04187 0.41042 0.61437 0.0
C180 C 0.03529 0.42973 0.66617 0.0
Zn181 Zn 0.01402 0.48248 0.71427 0.0
C182 C 0.05726 0.49905 0.81805 0.0
N183 N 0.98077 0.54411 0.84928 0.0
C184 C 0.96417 0.56407 0.82119 0.0
C185 C 0.98756 0.54263 0.92343 0.0
C186 C 0.97822 0.56212 0.97189 0.0
C187 C 0.96114 0.58287 0.94414 0.0
C188 C 0.95382 0.58361 0.86813 0.0
Zn189 Zn 0.99605 0.51607 0.77848 0.0
O190 O 0.03471 0.51345 0.63917 0.0
C191 C 0.95245 0.49866 0.67589 0.0
O192 O 0.01553 0.54663 0.69874 0.0
H193 H 1.00049 0.52646 0.94499 0.0
H194 H 0.02273 0.48154 0.54472 0.0
H195 H 0.95921 0.56502 0.76201 0.0
O196 O 0.97374 0.4835 0.66018 0.0
O197 O 0.95548 0.51598 0.72429 0.0
H198 H 0.03477 0.42443 0.72684 0.0
O199 O 0.97745 0.48558 0.85792 0.0
O200 O 0.99326 0.45222 0.79302 0.0
O201 O 0.03661 0.51512 0.83151 0.0
O202 O 0.05424 0.48164 0.76975 0.0
C203 C 0.97898 0.4606 0.8512 0.0
H204 H 0.03648 0.44988 0.45087 0.0
H205 H 0.04579 0.39033 0.63658 0.0
H206 H 0.98423 0.561 0.03036 0.0
H207 H 0.94098 0.59959 0.8447 0.0
H208 H 0.25148 0.00846 0.41725 0.0
H209 H 0.22163 0.97549 0.21345 0.0
H210 H 0.16922 0.97491 0.26989 0.0
H211 H 0.20216 0.96887 0.5497 0.0
H212 H 0.19602 0.99487 0.61416 0.0
H213 H 0.23062 0.99491 0.55494 0.0
H214 H 0.22214 0.04293 0.49944 0.0
H215 H 0.18755 0.0431 0.55882 0.0
H216 H 0.18779 0.04981 0.45688 0.0
H217 H 0.12001 0.97514 0.35382 0.0
H218 H 0.07875 0.97738 0.45451 0.0
H219 H 0.14133 0.00926 0.60444 0.0
C220 C 0.23399 0.00114 0.3841 0.0
C221 C 0.2409 0.99187 0.31069 0.0
C222 C 0.21707 0.98294 0.26925 0.0
C223 C 0.1872 0.98239 0.30117 0.0
C224 C 0.18139 0.99097 0.37453 0.0
C225 C 0.20418 0.00037 0.41515 0.0
C226 C 0.19231 0.00762 0.49388 0.0
C227 C 0.20609 0.99055 0.55687 0.0
C228 C 0.19777 0.03765 0.50275 0.0
C229 C 0.15925 0.00046 0.492 0.0
C230 C 0.15334 0.99102 0.42254 0.0
C231 C 0.12446 0.98266 0.40812 0.0
C232 C 0.10112 0.98399 0.4659 0.0
C233 C 0.10663 0.99353 0.53772 0.0
C234 C 0.13622 0.00192 0.55035 0.0
H235 H 0.47416 0.24526 0.4043 0.0
H236 H 0.51958 0.23736 0.18083 0.0
H237 H 0.53031 0.19059 0.21974 0.0
H238 H 0.52306 0.20887 0.51164 0.0
H239 H 0.49463 0.19276 0.57948 0.0
H240 H 0.48835 0.22482 0.5325 0.0
H241 H 0.43969 0.20564 0.48295 0.0
H242 H 0.44557 0.17358 0.53074 0.0
H243 H 0.44097 0.1762 0.42979 0.0
H244 H 0.54124 0.14704 0.28813 0.0
H245 H 0.5467 0.10748 0.37517 0.0
H246 H 0.49053 0.14222 0.55182 0.0
C247 C 0.48592 0.23347 0.36328 0.0
C248 C 0.49604 0.24476 0.28955 0.0
C249 C 0.51139 0.22889 0.23723 0.0
C250 C 0.51772 0.20242 0.25901 0.0
C251 C 0.50811 0.1921 0.33285 0.0
C252 C 0.49203 0.20693 0.38372 0.0
C253 C 0.48472 0.19121 0.46002 0.0
C254 C 0.49852 0.20526 0.5247 0.0
C255 C 0.45072 0.18636 0.47684 0.0
C256 C 0.49987 0.16545 0.44476 0.0
C257 C 0.51331 0.16645 0.3712 0.0
C258 C 0.53015 0.14573 0.34522 0.0
C259 C 0.53293 0.12319 0.39527 0.0
C260 C 0.51856 0.12121 0.47046 0.0
C261 C 0.50191 0.14286 0.49514 0.0
H262 H 0.28134 0.58735 0.33099 0.0
H263 H 0.2676 0.51502 0.21328 0.0
H264 H 0.31188 0.49654 0.26691 0.0
H265 H 0.36315 0.58856 0.32604 0.0
H266 H 0.36331 0.59907 0.42184 0.0
H267 H 0.33378 0.60868 0.36346 0.0
H268 H 0.29444 0.58779 0.4688 0.0
H269 H 0.32381 0.57788 0.52715 0.0
H270 H 0.29663 0.55321 0.50244 0.0
H271 H 0.35565 0.48431 0.34077 0.0
H272 H 0.39448 0.47903 0.43251 0.0
H273 H 0.3755 0.55663 0.51379 0.0
C274 C 0.2876 0.56768 0.31578 0.0
C275 C 0.27077 0.55289 0.26698 0.0
C276 C 0.28029 0.5273 0.24848 0.0
C277 C 0.30537 0.51641 0.27941 0.0
C278 C 0.32057 0.53114 0.32956 0.0
C279 C 0.31199 0.5562 0.34781 0.0
C280 C 0.3302 0.56682 0.40891 0.0
C281 C 0.34871 0.59229 0.3782 0.0
C282 C 0.31006 0.5717 0.48108 0.0
C283 C 0.35004 0.54361 0.42309 0.0
C284 C 0.34453 0.52343 0.3757 0.0
C285 C 0.36017 0.49997 0.37811 0.0
C286 C 0.38204 0.4971 0.4303 0.0
C287 C 0.38754 0.51732 0.48017 0.0
C288 C 0.37135 0.54082 0.47657 0.0
H289 H 0.08936 0.27586 0.399 0.0
H290 H 0.03934 0.29123 0.20159 0.0
H291 H 0.03272 0.33782 0.23652 0.0
H292 H 0.0458 0.30872 0.52453 0.0
H293 H 0.07535 0.32256 0.57545 0.0
H294 H 0.08071 0.29229 0.52817 0.0
H295 H 0.12816 0.31368 0.45038 0.0
H296 H 0.12332 0.34397 0.49854 0.0
H297 H 0.126 0.34517 0.39567 0.0
H298 H 0.02375 0.37905 0.30652 0.0
H299 H 0.01725 0.41367 0.39753 0.0
H300 H 0.07687 0.37285 0.54496 0.0
C301 C 0.078 0.28944 0.36177 0.0
C302 C 0.0651 0.28035 0.29729 0.0
C303 C 0.04976 0.29819 0.25042 0.0
C304 C 0.04583 0.32455 0.27008 0.0
C305 C 0.05789 0.33268 0.33587 0.0
C306 C 0.07427 0.31582 0.38004 0.0
C307 C 0.08302 0.32868 0.45079 0.0
C308 C 0.07046 0.31207 0.52401 0.0
C309 C 0.11716 0.33314 0.44868 0.0
C310 C 0.0678 0.35493 0.44155 0.0
C311 C 0.05357 0.35692 0.37478 0.0
C312 C 0.03563 0.37815 0.35766 0.0
C313 C 0.03223 0.39787 0.40992 0.0
C314 C 0.04693 0.3965 0.47855 0.0
C315 C 0.06522 0.37473 0.49354 0.0
H316 H 0.81643 0.98481 0.99675 0.0
H317 H 0.8436 0.02142 0.19795 0.0
H318 H 0.89654 0.02114 0.1463 0.0
H319 H 0.8806 0.94293 0.96836 0.0
H320 H 0.88207 0.94802 0.86578 0.0
H321 H 0.84685 0.94893 0.9221 0.0
H322 H 0.83889 0.99611 0.85955 0.0
H323 H 0.87411 0.9954 0.80336 0.0
H324 H 0.8671 0.02245 0.86366 0.0
H325 H 0.94665 0.01985 0.06676 0.0
H326 H 0.98896 0.01656 0.96946 0.0
H327 H 0.92842 0.98178 0.81928 0.0
C328 C 0.83344 0.99273 0.03036 0.0
C329 C 0.82562 0.00326 0.10162 0.0
C330 C 0.84885 0.01297 0.1438 0.0
C331 C 0.87903 0.01304 0.1146 0.0
C332 C 0.88576 0.0032 0.0432 0.0
C333 C 0.86355 0.99305 0.00197 0.0
C334 C 0.87638 0.98459 0.92541 0.0
C335 C 0.87117 0.95432 0.92014 0.0
C336 C 0.86335 0.0006 0.8591 0.0
C337 C 0.90928 0.99198 0.92914 0.0
C338 C 0.91432 0.00254 0.9977 0.0
C339 C 0.9429 0.01142 0.01321 0.0
C340 C 0.96684 0.00951 0.95739 0.0
C341 C 0.96218 -0.00113 0.88648 0.0
C342 C 0.9329 0.98991 0.87283 0.0
H343 H 0.50097 0.75705 0.13765 0.0
H344 H 0.59529 0.74257 0.14366 0.0
H345 H 0.60804 0.78619 0.07102 0.0
H346 H 0.50403 0.78648 0.95191 0.0
H347 H 0.47687 0.81113 0.97177 0.0
H348 H 0.47531 0.77996 0.02931 0.0
H349 H 0.47801 0.80552 0.15173 0.0
H350 H 0.47922 0.83683 0.09465 0.0
H351 H 0.5082 0.8299 0.15741 0.0
H352 H 0.60991 0.82879 0.98463 0.0
H353 H 0.60095 0.86974 0.90384 0.0
H354 H 0.50554 0.85742 0.9615 0.0
C355 C 0.52429 0.76339 0.12486 0.0
C356 C 0.54722 0.7467 0.1462 0.0
C357 C 0.5775 0.75536 0.12839 0.0
C358 C 0.58489 0.77997 0.0869 0.0
C359 C 0.56169 0.79574 0.06501 0.0
C360 C 0.53201 0.78802 0.08471 0.0
C361 C 0.51127 0.80829 0.05315 0.0
C362 C 0.49067 0.79571 0.99828 0.0
C363 C 0.49311 0.82089 0.11812 0.0
C364 C 0.53385 0.82833 0.01091 0.0
C365 C 0.56283 0.82069 0.01802 0.0
C366 C 0.58737 0.83521 0.97982 0.0
C367 C 0.58212 0.85826 0.93387 0.0
C368 C 0.55265 0.86661 0.92745 0.0
C369 C 0.52829 0.85152 0.96661 0.0
H370 H 0.73978 0.4168 0.14523 0.0
H371 H 0.73956 0.48454 0.2865 0.0
H372 H 0.69676 0.50193 0.223 0.0
H373 H 0.72734 0.45493 0.97512 0.0
H374 H 0.70433 0.42933 0.93846 0.0
H375 H 0.7325 0.42016 0.00145 0.0
H376 H 0.69242 0.39334 0.09358 0.0
H377 H 0.66414 0.40225 0.03055 0.0
H378 H 0.65966 0.40968 0.12939 0.0
H379 H 0.65522 0.51309 0.14072 0.0
H380 H 0.6185 0.51744 0.04339 0.0
H381 H 0.64921 0.44513 0.94749 0.0
C382 C 0.73079 0.43526 0.16324 0.0
C383 C 0.74311 0.44905 0.22175 0.0
C384 C 0.73024 0.47306 0.24354 0.0
C385 C 0.70604 0.48332 0.20718 0.0
C386 C 0.6951 0.46956 0.14849 0.0
C387 C 0.70709 0.4461 0.12649 0.0
C388 C 0.69252 0.43611 0.0585 0.0
C389 C 0.71555 0.43508 0.9893 0.0
C390 C 0.67621 0.40872 0.07928 0.0
C391 C 0.67063 0.45779 0.04525 0.0
C392 C 0.67221 0.47671 0.09844 0.0
C393 C 0.65382 0.49844 0.09869 0.0
C394 C 0.63314 0.50078 0.04334 0.0
C395 C 0.63141 0.48175 0.98801 0.0
C396 C 0.65049 0.46009 0.98873 0.0
H397 H 0.99249 0.71702 0.13874 0.0
H398 H 0.89742 0.72967 0.14261 0.0
H399 H 0.88847 0.68346 0.10659 0.0
H400 H 0.9982 0.68367 0.97733 0.0
H401 H 0.02505 0.66019 0.00743 0.0
H402 H 0.02342 0.6921 0.04762 0.0
H403 H 0.0156 0.66865 0.18399 0.0
H404 H 0.01749 0.63654 0.1442 0.0
H405 H 0.98549 0.64381 0.20661 0.0
H406 H 0.89116 0.63972 0.04641 0.0
H407 H 0.90496 0.60018 0.97673 0.0
H408 H 0.99793 0.61523 0.01633 0.0
C409 C 0.96971 0.70975 0.13412 0.0
C410 C 0.94561 0.72679 0.14366 0.0
C411 C 0.91612 0.71676 0.13665 0.0
C412 C 0.91085 0.69058 0.11596 0.0
C413 C 0.93527 0.67462 0.1039 0.0
C414 C 0.96408 0.68365 0.11414 0.0
C415 C 0.98671 0.66349 0.09115 0.0
C416 C 0.00968 0.67559 0.02708 0.0
C417 C 1.00223 0.65247 0.16064 0.0
C418 C 0.96633 0.64229 0.06273 0.0
C419 C 0.93669 0.64895 0.07116 0.0
C420 C 0.91415 0.6339 0.04146 0.0
C421 C 0.92216 0.61163 0.00172 0.0
C422 C 0.95237 0.60459 0.99259 0.0
C423 C 0.97458 0.61985 0.02462 0.0
H424 H 0.01435 0.15934 0.32721 0.0
H425 H 0.04625 0.2115 0.49316 0.0
H426 H 0.0305 0.17715 0.59615 0.0
H427 H 0.95277 0.12099 0.45597 0.0
H428 H 0.96205 0.09014 0.41497 0.0
H429 H 0.96688 0.12135 0.35712 0.0
H430 H 0.02242 0.1116 0.32282 0.0
H431 H 0.01787 0.08059 0.38065 0.0
H432 H 0.04648 0.10507 0.39854 0.0
H433 H 0.02264 0.13516 0.67578 0.0
H434 H 0.02376 0.08837 0.72658 0.0
H435 H 0.99983 0.06149 0.50968 0.0
C436 C 0.01743 0.16382 0.38539 0.0
C437 C 0.03158 0.18822 0.40179 0.0
C438 C 0.03495 0.19328 0.47885 0.0
C439 C 0.02611 0.17379 0.53795 0.0
C440 C 0.01391 0.14937 0.51921 0.0
C441 C 0.00939 0.14434 0.44476 0.0
C442 C 1.0009 0.11509 0.43807 0.0
C443 C 0.96873 0.1117 0.41519 0.0
C444 C 0.02326 0.10236 0.38175 0.0
C445 C 1.00325 0.10414 0.51953 0.0
C446 C 0.00991 0.12444 0.56572 0.0
C447 C 0.01666 0.11917 0.64084 0.0
C448 C 0.01745 0.09252 0.66898 0.0
C449 C 0.01171 0.07142 0.62197 0.0
C450 C 1.00357 0.0773 0.54717 0.0
H451 H 0.37754 0.00565 0.31704 0.0
H452 H 0.322 0.93753 0.41729 0.0
H453 H 0.36274 0.9243 0.49785 0.0
H454 H 0.44739 0.9728 0.30762 0.0
H455 H 0.46854 0.0021 0.33019 0.0
H456 H 0.43509 0.00566 0.28096 0.0
H457 H 0.41278 0.0347 0.38602 0.0
H458 H 0.44636 0.03163 0.43455 0.0
H459 H 0.41057 0.02187 0.4846 0.0
H460 H 0.41028 0.91953 0.56865 0.0
H461 H 0.45713 0.92646 0.63185 0.0
H462 H 0.48061 0.99676 0.47812 0.0
C463 C 0.37397 0.98782 0.35558 0.0
C464 C 0.34683 0.97244 0.36065 0.0
C465 C 0.34268 0.94961 0.41295 0.0
C466 C 0.36577 0.94182 0.45813 0.0
C467 C 0.39268 0.95711 0.44984 0.0
C468 C 0.39663 0.97976 0.40017 0.0
C469 C 0.42695 0.99351 0.40309 0.0
C470 C 0.44559 0.9935 0.32587 0.0
C471 C 0.42397 0.0221 0.42863 0.0
C472 C 0.43948 0.97534 0.46324 0.0
C473 C 0.41967 0.95425 0.48925 0.0
C474 C 0.42605 0.93581 0.54813 0.0
C475 C 0.4528 0.93974 0.5832 0.0
C476 C 0.47247 0.96205 0.55941 0.0
C477 C 0.46609 0.97939 0.49703 0.0
H478 H 0.48149 0.36836 0.32829 0.0
H479 H 0.55275 0.31633 0.38485 0.0
H480 H 0.57185 0.34996 0.46743 0.0
H481 H 0.52678 0.43079 0.31838 0.0
H482 H 0.49608 0.44897 0.35786 0.0
H483 H 0.48888 0.42102 0.30197 0.0
H484 H 0.45349 0.39844 0.41387 0.0
H485 H 0.46039 0.42641 0.46954 0.0
H486 H 0.46722 0.39304 0.5069 0.0
H487 H 0.58095 0.38894 0.55071 0.0
H488 H 0.57767 0.42827 0.62856 0.0
H489 H 0.50294 0.45497 0.50586 0.0
C490 C 0.50149 0.36412 0.3566 0.0
C491 C 0.51562 0.33967 0.34967 0.0
C492 C 0.54124 0.33476 0.3899 0.0
C493 C 0.55248 0.35388 0.43623 0.0
C494 C 0.53811 0.37791 0.44084 0.0
C495 C 0.51322 0.38303 0.40169 0.0
C496 C 0.50104 0.40985 0.41757 0.0
C497 C 0.50335 0.42877 0.3446 0.0
C498 C 0.46864 0.40673 0.45417 0.0
C499 C 0.52245 0.41883 0.4735 0.0
C500 C 0.54385 0.40036 0.4862 0.0
C501 C 0.56456 0.40373 0.54029 0.0
C502 C 0.56266 0.42616 0.58397 0.0
C503 C 0.54014 0.4447 0.57309 0.0
C504 C 0.52057 0.44129 0.51534 0.0
H505 H 0.18833 0.56214 0.42543 0.0
H506 H 0.14909 0.6186 0.26932 0.0
H507 H 0.10493 0.62017 0.36206 0.0
H508 H 0.12851 0.52396 0.46999 0.0
H509 H 0.13367 0.51583 0.56926 0.0
H510 H 0.16546 0.52519 0.5034 0.0
H511 H 0.18065 0.56352 0.58592 0.0
H512 H 0.14908 0.55387 0.65345 0.0
H513 H 0.15383 0.5878 0.61197 0.0
H514 H 0.06076 0.60755 0.45851 0.0
H515 H 0.02237 0.58242 0.54884 0.0
H516 H 0.09135 0.53424 0.63759 0.0
C517 C 0.17137 0.57612 0.41244 0.0
C518 C 0.17233 0.59043 0.34044 0.0
C519 C 0.14886 0.60751 0.32436 0.0
C520 C 0.12375 0.60861 0.37688 0.0
C521 C 0.12269 0.59284 0.44556 0.0
C522 C 0.14627 0.57728 0.46388 0.0
C523 C 0.13812 0.55883 0.53456 0.0
C524 C 0.14163 0.52924 0.51821 0.0
C525 C 0.15651 0.56648 0.60038 0.0
C526 C 0.10571 0.56504 0.55018 0.0
C527 C 0.09722 0.58522 0.49997 0.0
C528 C 0.06736 0.59224 0.49934 0.0
C529 C 0.04571 0.57791 0.55038 0.0
C530 C 0.05424 0.55659 0.59935 0.0
C531 C 0.08454 0.55066 0.60053 0.0
H532 H 0.01203 0.84274 0.12064 0.0
H533 H 0.99081 0.78849 0.94891 0.0
H534 H 0.02016 0.81797 0.85078 0.0
H535 H 0.99714 0.89837 0.01617 0.0
H536 H 0.02575 0.92009 0.04839 0.0
H537 H 0.01116 0.8914 0.10827 0.0
H538 H 0.06479 0.87452 0.11513 0.0
H539 H 0.07957 0.90328 0.05471 0.0
H540 H 0.08747 0.87007 0.02812 0.0
H541 H 0.04119 0.85677 0.76829 0.0
H542 H 0.05013 0.90242 0.70774 0.0
H543 H 0.0563 0.93321 0.93008 0.0
C544 C 0.01407 0.83672 0.06267 0.0
C545 C 0.99909 0.81315 0.04285 0.0
C546 C 1.00251 0.80605 0.96627 0.0
C547 C 0.01917 0.82275 0.90989 0.0
C548 C 0.03239 0.84647 0.93082 0.0
C549 C 0.03013 0.85342 0.00554 0.0
C550 C 0.04182 0.88192 0.0112 0.0
C551 C 0.01752 0.89893 0.04811 0.0
C552 C 0.0701 0.88247 0.05488 0.0
C553 C 0.04915 0.89051 0.92743 0.0
C554 C 0.04443 0.86947 0.88226 0.0
C555 C 0.0458 0.8732 0.80295 0.0
C556 C 0.05084 0.89921 0.76905 0.0
C557 C 0.05432 0.92115 0.81441 0.0
C558 C 0.05473 0.91661 0.89421 0.0
H559 H 0.69224 0.98569 0.08349 0.0
H560 H 0.74244 0.05718 0.9861 0.0
H561 H 0.70083 0.06794 0.90554 0.0
H562 H 0.65985 0.96828 0.91255 0.0
H563 H 0.62498 0.95616 0.96353 0.0
H564 H 0.65917 0.9546 0.01011 0.0
H565 H 0.63528 0.98123 0.11881 0.0
H566 H 0.60125 0.98341 0.0715 0.0
H567 H 0.62058 0.01344 0.0957 0.0
H568 H 0.65226 0.07075 0.83828 0.0
H569 H 0.60469 0.06264 0.7796 0.0
H570 H 0.58729 0.98976 0.92672 0.0
C571 C 0.69454 0.00355 0.04481 0.0
C572 C 0.72032 0.02072 0.04084 0.0
C573 C 0.72282 0.04375 0.98927 0.0
C574 C 0.69923 0.0501 0.94412 0.0
C575 C 0.67356 0.03312 0.95156 0.0
C576 C 0.67139 0.01013 1.00001 0.0
C577 C 0.64192 0.99482 0.99739 0.0
C578 C 0.64678 0.96682 0.96918 0.0
C579 C 0.62369 0.99314 0.07549 0.0
C580 C 0.6277 0.01265 0.9394 0.0
C581 C 0.64604 0.03478 0.91385 0.0
C582 C 0.63773 0.05353 0.85812 0.0
C583 C 0.61055 0.04889 0.82564 0.0
C584 C 0.59227 0.02561 0.84882 0.0
C585 C 0.60066 0.00783 0.90808 0.0
H586 H 0.53231 0.62433 0.15065 0.0
H587 H 0.46957 0.68176 0.07269 0.0
H588 H 0.4499 0.64858 0.98896 0.0
H589 H 0.55078 0.59899 0.97874 0.0
H590 H 0.55379 0.56506 0.01726 0.0
H591 H 0.56017 0.59234 0.07569 0.0
H592 H 0.51943 0.57171 0.178 0.0
H593 H 0.51285 0.5443 0.11957 0.0
H594 H 0.48227 0.56417 0.1511 0.0
H595 H 0.44082 0.60989 0.905 0.0
H596 H 0.44509 0.57103 0.82584 0.0
H597 H 0.51241 0.53958 0.96673 0.0
C598 C 0.51372 0.6298 0.11815 0.0
C599 C 0.50214 0.65554 0.1193 0.0
C600 C 0.47876 0.66214 0.07283 0.0
C601 C 0.46729 0.64334 0.02571 0.0
C602 C 0.47929 0.61807 0.02643 0.0
C603 C 0.50195 0.61137 0.07189 0.0
C604 C 0.51286 0.58388 0.05883 0.0
C605 C 0.54636 0.58517 0.03094 0.0
C606 C 0.50646 0.5649 0.13118 0.0
C607 C 0.49353 0.57634 0.9968 0.0
C608 C 0.47398 0.59604 0.97925 0.0
C609 C 0.45568 0.59416 0.91921 0.0
C610 C 0.45817 0.572 0.87474 0.0
C611 C 0.47903 0.5523 0.89037 0.0
C612 C 0.4961 0.5542 0.9537 0.0
H613 H 0.87727 0.4447 0.22648 0.0
H614 H 0.82154 0.38845 0.11842 0.0
H615 H 0.86271 0.38442 0.01797 0.0
H616 H 0.90384 0.4802 0.06877 0.0
H617 H 0.941 0.487 0.09667 0.0
H618 H 0.91053 0.48021 0.16839 0.0
H619 H 0.93884 0.44136 0.2303 0.0
H620 H 0.96965 0.44813 0.15844 0.0
H621 H 0.95195 0.41509 0.17309 0.0
H622 H 0.90646 0.39284 0.91864 0.0
H623 H 0.94591 0.41541 0.8272 0.0
H624 H 0.97191 0.46599 0.0023 0.0
C625 C 0.87413 0.43048 0.18396 0.0
C626 C 0.84641 0.41649 0.18107 0.0
C627 C 0.84273 0.3992 0.12195 0.0
C628 C 0.86608 0.39662 0.06517 0.0
C629 C 0.89296 0.41129 0.06885 0.0
C630 C 0.89704 0.42778 0.12728 0.0
C631 C 0.92581 0.44464 0.11297 0.0
C632 C 0.91991 0.47476 0.11155 0.0
C633 C 0.94787 0.43682 0.17222 0.0
C634 C 0.93645 0.43641 0.03496 0.0
C635 C 0.91785 0.41652 0.01119 0.0
C636 C 0.92158 0.4079 0.93741 0.0
C637 C 0.94408 0.42072 0.88593 0.0
C638 C 0.96187 0.44219 0.90849 0.0
C639 C 0.95876 0.44931 0.98447 0.0
H640 H 0.10787 0.16757 0.21656 0.0
H641 H 0.07511 0.22931 0.0642 0.0
H642 H 0.08762 0.20236 0.95472 0.0
H643 H 0.16606 0.14048 0.07747 0.0
H644 H 0.15627 0.1067 0.11547 0.0
H645 H 0.15346 0.13391 0.17705 0.0
H646 H 0.09796 0.11944 0.21578 0.0
H647 H 0.10039 0.09254 0.15378 0.0
H648 H 0.07234 0.11692 0.14257 0.0
H649 H 0.09344 0.16537 0.86794 0.0
H650 H 0.09176 0.12202 0.81093 0.0
H651 H 0.11755 0.08281 0.02157 0.0
C652 C 0.10414 0.1758 0.1598 0.0
C653 C 0.09042 0.20051 0.14885 0.0
C654 C 0.08597 0.21063 0.07382 0.0
C655 C 0.09293 0.19537 0.01136 0.0
C656 C 0.10443 0.17018 0.02504 0.0
C657 C 0.11026 0.16057 0.09752 0.0
C658 C 0.11783 0.13138 0.09966 0.0
C659 C 0.15035 0.12792 0.11851 0.0
C660 C 0.09581 0.11407 0.15625 0.0
C661 C 0.11379 0.12559 0.0179 0.0
C662 C 0.10691 0.1484 0.97528 0.0
C663 C 0.0996 0.14756 0.90015 0.0
C664 C 0.09881 0.12277 0.86817 0.0
C665 C 0.10493 0.09899 0.91148 0.0
C666 C 0.11305 0.10063 0.98686 0.0
H667 H 0.35763 0.03186 0.12797 0.0
H668 H 0.30141 0.96873 0.05144 0.0
H669 H 0.33554 0.96778 0.93403 0.0
H670 H 0.38457 0.06503 0.93125 0.0
H671 H 0.42138 0.07149 0.96188 0.0
H672 H 0.38894 0.07157 0.02923 0.0
H673 H 0.41254 0.03634 0.11754 0.0
H674 H 0.44465 0.03554 0.05002 0.0
H675 H 0.42312 0.00508 0.08099 0.0
H676 H 0.38125 0.96662 0.84184 0.0
H677 H 0.4317 0.96902 0.77339 0.0
H678 H 0.45853 0.03376 0.90714 0.0
C679 C 0.35164 0.01895 0.08424 0.0
C680 C 0.32647 0.00078 0.09782 0.0
C681 C 0.31998 0.98332 0.04111 0.0
C682 C 0.33951 0.98248 0.97468 0.0
C683 C 0.36523 -0.00054 0.96548 0.0
C684 C 0.37095 0.01786 0.01795 0.0
C685 C 0.4017 0.0317 0.99959 0.0
C686 C 0.39898 0.06173 0.97926 0.0
C687 C 0.42166 0.02686 0.06597 0.0
C688 C 0.41297 0.01753 0.93027 0.0
C689 C 0.39151 -0.00094 0.91141 0.0
C690 C 0.39781 0.98154 0.85476 0.0
C691 C 0.42657 0.98293 0.8165 0.0
C692 C 0.44873 0.00186 0.83421 0.0
C693 C 0.44171 0.01961 0.89119 0.0
H694 H 0.51504 0.32423 0.05122 0.0
H695 H 0.42481 0.32456 0.15658 0.0
H696 H 0.41145 0.35662 0.05268 0.0
H697 H 0.52391 0.38929 0.01701 0.0
H698 H 0.54626 0.39013 0.92707 0.0
H699 H 0.54623 0.36142 0.9936 0.0
H700 H 0.52968 0.33051 0.89126 0.0
H701 H 0.53022 0.35917 0.82335 0.0
H702 H 0.49685 0.33778 0.84231 0.0
H703 H 0.41145 0.3959 0.95374 0.0
H704 H 0.42503 0.43751 0.87106 0.0
H705 H 0.51573 0.41177 0.83499 0.0
C706 C 0.49203 0.32982 0.04933 0.0
C707 C 0.47062 0.32138 0.10971 0.0
C708 C 0.44112 0.33018 0.10888 0.0
C709 C 0.43344 0.34849 0.05033 0.0
C710 C 0.45559 0.35767 0.99328 0.0
C711 C 0.48424 0.34824 0.99187 0.0
C712 C 0.50535 0.36425 0.93305 0.0
C713 C 0.53196 0.37702 0.96993 0.0
C714 C 0.51615 0.34689 0.86866 0.0
C715 C 0.4847 0.38511 0.90484 0.0
C716 C 0.45587 0.38076 0.93839 0.0
C717 C 0.43379 0.39913 0.92581 0.0
C718 C 0.44162 0.4227 0.87898 0.0
C719 C 0.47139 0.42777 0.84717 0.0
C720 C 0.49276 0.40835 0.85872 0.0
H721 H 0.14402 0.53883 0.16652 0.0
H722 H 0.22402 0.55383 0.01156 0.0
H723 H 0.19758 0.53389 0.90912 0.0
H724 H 0.11678 0.47736 0.09451 0.0
H725 H 0.07829 0.48635 0.10647 0.0
H726 H 0.10484 0.49842 0.16903 0.0
H727 H 0.09148 0.5473 0.13332 0.0
H728 H 0.06474 0.53537 0.07139 0.0
H729 H 0.09402 0.55951 0.0342 0.0
H730 H 0.16022 0.51454 0.82135 0.0
H731 H 0.11529 0.50178 0.75584 0.0
H732 H 0.06023 0.50378 0.96863 0.0
C733 C 0.15613 0.5382 0.11101 0.0
C734 C 0.18605 0.54828 0.0969 0.0
C735 C 0.20112 0.54617 0.02386 0.0
C736 C 0.18627 0.53488 0.96542 0.0
C737 C 0.15645 0.52577 0.98119 0.0
C738 C 0.14161 0.52753 0.05235 0.0
C739 C 0.10902 0.51867 0.05413 0.0
C740 C 0.10183 0.49371 0.1093 0.0
C741 C 0.08863 0.54158 0.07441 0.0
C742 C 0.10745 0.51213 0.97223 0.0
C743 C 0.13508 0.5157 0.93108 0.0
C744 C 0.1386 0.51149 0.85334 0.0
C745 C 0.1131 0.5041 0.81672 0.0
C746 C 0.08461 0.50164 0.85781 0.0
C747 C 0.08192 0.50532 0.93645 0.0
H748 H 0.94531 0.79454 0.35507 0.0
H749 H 0.89917 0.83664 0.1805 0.0
H750 H 0.88729 0.87193 0.26767 0.0
H751 H 0.89892 0.81981 0.53179 0.0
H752 H 0.9326 0.82241 0.58055 0.0
H753 H 0.92768 0.79619 0.51695 0.0
H754 H 0.97799 0.81173 0.44166 0.0
H755 H 0.98284 0.83817 0.50347 0.0
H756 H 0.9832 0.84586 0.40187 0.0
H757 H 0.89319 0.90768 0.35579 0.0
H758 H 0.91548 0.93993 0.43731 0.0
H759 H 0.95808 0.87524 0.55632 0.0
C760 C 0.93099 0.81032 0.33757 0.0
C761 C 0.92244 0.81272 0.26236 0.0
C762 C 0.90518 0.83428 0.23888 0.0
C763 C 0.89839 0.85439 0.28804 0.0
C764 C 0.90897 0.85254 0.36049 0.0
C765 C 0.92448 0.83073 0.38582 0.0
C766 C 0.93847 0.83582 0.45921 0.0
C767 C 0.92351 0.81747 0.5261 0.0
C768 C 0.97262 0.83274 0.45093 0.0
C769 C 0.93073 0.86462 0.46739 0.0
C770 C 0.91287 0.87367 0.41151 0.0
C771 C 0.90633 0.90061 0.40136 0.0
C772 C 0.91909 0.91883 0.44787 0.0
C773 C 0.93851 0.91003 0.50292 0.0
C774 C 0.94326 0.88246 0.51466 0.0
H775 H 0.71865 0.0382 0.3104 0.0
H776 H 0.75137 0.95817 0.32281 0.0
H777 H 0.71426 0.94543 0.43277 0.0
H778 H 0.69572 0.04261 0.5197 0.0
H779 H 0.663 0.06034 0.49747 0.0
H780 H 0.69655 0.06435 0.43358 0.0
H781 H 0.666 0.05062 0.32272 0.0
H782 H 0.63256 0.04579 0.38632 0.0
H783 H 0.6454 0.01882 0.33146 0.0
H784 H 0.66761 0.93986 0.528 0.0
H785 H 0.61895 0.94271 0.60326 0.0
H786 H 0.61557 0.02594 0.52059 0.0
C787 C 0.71897 0.01836 0.33879 0.0
C788 C 0.73827 -0.00071 0.30905 0.0
C789 C 0.73739 0.97327 0.34592 0.0
C790 C 0.71609 0.96582 0.40784 0.0
C791 C 0.69594 0.98467 0.4322 0.0
C792 C 0.69761 0.01058 0.39934 0.0
C793 C 0.67146 0.02627 0.42878 0.0
C794 C 0.68234 0.04978 0.47251 0.0
C795 C 0.65276 0.03593 0.36343 0.0
C796 C 0.65428 0.00505 0.48205 0.0
C797 C 0.66882 0.98125 0.4842 0.0
C798 C 0.65633 0.95854 0.5273 0.0
C799 C 0.62856 0.9603 0.56961 0.0
C800 C 0.61328 0.98452 0.56789 0.0
C801 C 0.62654 0.0071 0.52335 0.0
H802 H 0.57325 0.63686 0.28657 0.0
H803 H 0.5417 0.70079 0.42044 0.0
H804 H 0.54913 0.67326 0.53913 0.0
H805 H 0.53184 0.58944 0.38509 0.0
H806 H 0.55756 0.56282 0.37911 0.0
H807 H 0.56045 0.59001 0.30698 0.0
H808 H 0.6157 0.60006 0.33229 0.0
H809 H 0.61321 0.57245 0.4041 0.0
H810 H 0.62514 0.60536 0.42786 0.0
H811 H 0.54785 0.63548 0.63994 0.0
H812 H 0.53765 0.59156 0.71254 0.0
H813 H 0.56623 0.55133 0.51169 0.0
C814 C 0.56927 0.64547 0.34102 0.0
C815 C 0.55708 0.67089 0.34486 0.0
C816 C 0.55153 0.68151 0.41657 0.0
C817 C 0.55562 0.66593 0.48413 0.0
C818 C 0.56547 0.63998 0.47847 0.0
C819 C 0.57258 0.62997 0.40836 0.0
C820 C 0.577 0.60017 0.41614 0.0
C821 C 0.55542 0.58474 0.36911 0.0
C822 C 0.60972 0.59416 0.39379 0.0
C823 C 0.5693 0.59452 0.50095 0.0
C824 C 0.56373 0.61783 0.53647 0.0
C825 C 0.55304 0.61726 0.61321 0.0
C826 C 0.5473 0.59231 0.65398 0.0
C827 C 0.55189 0.56843 0.61752 0.0
C828 C 0.56353 0.56951 0.54083 0.0
H829 H 0.83798 0.41431 0.46261 0.0
H830 H 0.7936 0.4879 0.41242 0.0
H831 H 0.82192 0.50996 0.5067 0.0
H832 H 0.85213 0.4242 0.66877 0.0
H833 H 0.8886 0.41065 0.65485 0.0
H834 H 0.85836 0.39858 0.60309 0.0
H835 H 0.89108 0.40982 0.47603 0.0
H836 H 0.92108 0.42253 0.52675 0.0
H837 H 0.90612 0.44353 0.45312 0.0
H838 H 0.86217 0.5264 0.58751 0.0
H839 H 0.9095 0.53493 0.64768 0.0
H840 H 0.93046 0.45181 0.63121 0.0
C841 C 0.83339 0.43478 0.47353 0.0
C842 C 0.81353 0.44931 0.43015 0.0
C843 C 0.80825 0.47613 0.44587 0.0
C844 C 0.82446 0.48893 0.49904 0.0
C845 C 0.84577 0.47462 0.53606 0.0
C846 C 0.84996 0.44797 0.52452 0.0
C847 C 0.87736 0.43816 0.56052 0.0
C848 C 0.86858 0.41663 0.6257 0.0
C849 C 0.90024 0.42793 0.50052 0.0
C850 C 0.88877 0.46373 0.59086 0.0
C851 C 0.86991 0.4844 0.57837 0.0
C852 C 0.87686 0.51024 0.59851 0.0
C853 C 0.90379 0.51496 0.63215 0.0
C854 C 0.92366 0.49411 0.64302 0.0
C855 C 0.91579 0.46821 0.62277 0.0
loop_
_geom_bond_atom_site_label_1
_geom_bond_atom_site_label_2
_geom_bond_distance
_geom_bond_site_symmetry_2
_ccdc_geom_bond_type
H0 C3 0.931 . S
H1 C6 0.928 . S
H2 C8 0.930 . S
C3 H0 0.931 . S
C3 C4 1.413 . S
C3 C5 1.360 . S
C4 C3 1.413 . S
C4 C8 1.429 . S
C5 C3 1.360 . S
C5 C6 1.372 . S
C6 H1 0.928 . S
C6 C5 1.372 . S
C6 C7 1.404 . S
C7 C6 1.404 . S
C7 C8 1.391 . S
C8 H2 0.930 . S
C8 C4 1.429 . S
C8 C7 1.391 . S
H9 C12 0.931 . S
H10 C15 0.928 . S
H11 C17 0.930 . S
C12 H9 0.931 . S
C12 C13 1.413 . S
C12 C14 1.360 1_554 S
C13 C12 1.413 . S
C13 C17 1.429 . S
C14 C12 1.360 1_556 S
C14 C15 1.372 . S
C15 H10 0.928 . S
C15 C14 1.372 . S
C15 C16 1.404 . S
C16 C15 1.404 . S
C16 C17 1.391 1_556 S
C17 H11 0.930 . S
C17 C13 1.429 . S
C17 C16 1.391 1_554 S
H18 C21 0.931 . S
H19 C24 0.928 1_556 S
H20 C26 0.929 . S
C21 H18 0.931 . S
C21 C22 1.413 . S
C21 C23 1.360 . S
C22 C21 1.413 . S
C22 C26 1.430 1_565 S
C23 C21 1.360 . S
C23 C24 1.374 . S
C24 H19 0.928 1_554 S
C24 C23 1.374 . S
C24 C25 1.405 . S
C25 C24 1.405 . S
C25 C26 1.389 1_565 S
C26 H20 0.929 . S
C26 C22 1.430 1_545 S
C26 C25 1.389 1_545 S
H27 C30 0.931 . S
H28 C33 0.928 . S
H29 C35 0.930 1_556 S
C30 H27 0.931 . S
C30 C31 1.413 . S
C30 C32 1.360 . S
C31 C30 1.413 . S
C31 C35 1.429 . S
C32 C30 1.360 . S
C32 C33 1.372 . S
C33 H28 0.928 . S
C33 C32 1.372 . S
C33 C34 1.404 . S
C34 C33 1.404 . S
C34 C35 1.391 . S
C35 H29 0.930 1_554 S
C35 C31 1.429 . S
C35 C34 1.391 . S
H36 C39 0.931 . S
H37 C42 0.928 . S
H38 C44 0.930 . S
C39 H36 0.931 . S
C39 C40 1.413 . S
C39 C41 1.360 . S
C40 C39 1.413 . S
C40 C44 1.429 . S
C41 C39 1.360 . S
C41 C42 1.372 . S
C42 H37 0.928 . S
C42 C41 1.372 . S
C42 C43 1.404 . S
C43 C42 1.404 . S
C43 C44 1.391 . S
C44 H38 0.930 . S
C44 C40 1.429 . S
C44 C43 1.391 . S
H45 C48 0.931 . S
H46 C51 0.928 . S
H47 C53 0.930 . S
C48 H45 0.931 . S
C48 C49 1.413 . S
C48 C50 1.360 . S
C49 C48 1.413 . S
C49 C53 1.429 . S
C50 C48 1.360 . S
C50 C51 1.372 . S
C51 H46 0.928 . S
C51 C50 1.372 . S
C51 C52 1.404 . S
C52 C51 1.404 . S
C52 C53 1.391 . S
C53 H47 0.930 . S
C53 C49 1.429 . S
C53 C52 1.391 . S
H54 C57 0.930 . S
H55 C60 0.928 . S
H56 C62 0.930 . S
C57 H54 0.930 . S
C57 C58 1.413 . S
C57 C59 1.360 . S
C58 C57 1.413 . S
C58 C62 1.429 1_565 S
C59 C57 1.360 . S
C59 C60 1.371 . S
C60 H55 0.928 . S
C60 C59 1.371 . S
C60 C61 1.404 . S
C61 C60 1.404 . S
C61 C62 1.392 1_565 S
C62 H56 0.930 . S
C62 C58 1.429 1_545 S
C62 C61 1.392 1_545 S
H63 C66 0.931 . S
H64 C69 0.928 . S
H65 C71 0.930 . S
C66 H63 0.931 . S
C66 C67 1.413 . S
C66 C68 1.360 . S
C67 C66 1.413 . S
C67 C71 1.429 . S
C68 C66 1.360 . S
C68 C69 1.372 . S
C69 H64 0.928 . S
C69 C68 1.372 . S
C69 C70 1.404 . S
C70 C69 1.404 . S
C70 C71 1.391 . S
C71 H65 0.930 . S
C71 C67 1.429 . S
C71 C70 1.391 . S
C72 O88 1.251 1_455 S
C72 O90 1.254 . S
N73 C74 1.333 . S
N73 C78 1.307 . S
N73 Zn79 2.020 1_655 S
C74 N73 1.333 . S
C74 C75 1.379 . S
C74 H92 0.952 . S
C75 C74 1.379 . S
C75 C76 1.390 . S
C75 H102 0.949 . S
C76 C75 1.390 . S
C76 C77 1.357 . S
C77 C76 1.357 . S
C77 C78 1.370 . S
C77 H103 0.950 . S
C78 N73 1.307 . S
C78 C77 1.370 . S
C78 H96 0.948 1_565 S
Zn79 N73 2.020 1_455 S
Zn79 O88 2.039 1_455 S
Zn79 O94 2.034 . S
Zn79 O98 2.025 1_565 S
Zn79 O100 2.023 1_465 S
C80 O99 1.246 . S
C80 O100 1.252 . S
N81 C82 1.307 . S
N81 C83 1.333 . S
N81 Zn87 2.020 . S
C82 N81 1.307 . S
C82 C86 1.370 1_556 S
C82 H93 0.948 1_545 S
C83 N81 1.333 . S
C83 C84 1.379 . S
C83 H91 0.952 . S
C84 C83 1.379 . S
C84 C85 1.390 1_556 S
C84 H104 0.949 . S
C85 C84 1.390 1_554 S
C85 C86 1.357 . S
C86 C82 1.370 1_554 S
C86 C85 1.357 . S
C86 H105 0.950 . S
Zn87 N81 2.020 . S
Zn87 O90 2.025 1_545 S
Zn87 O95 2.026 1_545 S
Zn87 O97 2.039 . S
Zn87 O99 2.034 1_455 S
O88 C72 1.251 1_655 S
O88 Zn79 2.039 1_655 S
C89 O94 1.246 . S
C89 O95 1.247 . S
O90 C72 1.254 . S
O90 Zn87 2.025 1_565 S
H91 C83 0.952 . S
H92 C74 0.952 . S
H93 C82 0.948 1_565 S
O94 Zn79 2.034 . S
O94 C89 1.246 . S
O95 Zn87 2.026 1_565 S
O95 C89 1.247 . S
H96 C78 0.948 1_545 S
O97 Zn87 2.039 . S
O97 C101 1.251 . S
O98 Zn79 2.025 1_545 S
O98 C101 1.254 . S
O99 C80 1.246 . S
O99 Zn87 2.034 1_655 S
O100 Zn79 2.023 1_645 S
O100 C80 1.252 . S
C101 O97 1.251 . S
C101 O98 1.254 . S
H102 C75 0.949 . S
H103 C77 0.950 . S
H104 C84 0.949 . S
H105 C86 0.950 . S
C106 O122 1.251 1_565 S
C106 O124 1.254 . S
N107 C108 1.333 . S
N107 C112 1.307 . S
N107 Zn113 2.020 . S
C108 N107 1.333 . S
C108 C109 1.379 . S
C108 H126 0.952 . S
C109 C108 1.379 . S
C109 C110 1.390 . S
C109 H136 0.949 . S
C110 C109 1.390 . S
C110 C111 1.357 . S
C111 C110 1.357 . S
C111 C112 1.370 . S
C111 H137 0.950 . S
C112 N107 1.307 . S
C112 C111 1.370 . S
C112 H130 0.948 . S
Zn113 N107 2.020 . S
Zn113 O122 2.039 . S
Zn113 O128 2.034 . S
Zn113 O132 2.025 . S
Zn113 O134 2.024 . S
C114 O133 1.246 1_545 S
C114 O134 1.249 . S
N115 C116 1.307 . S
N115 C117 1.333 . S
N115 Zn121 2.020 . S
C116 N115 1.307 . S
C116 C120 1.370 . S
C116 H127 0.948 . S
C117 N115 1.333 . S
C117 C118 1.379 . S
C117 H125 0.952 . S
C118 C117 1.379 . S
C118 C119 1.390 . S
C118 H138 0.949 . S
C119 C118 1.390 . S
C119 C120 1.357 . S
C120 C116 1.370 . S
C120 C119 1.357 . S
C120 H139 0.950 . S
Zn121 N115 2.020 . S
Zn121 O124 2.025 . S
Zn121 O129 2.024 . S
Zn121 O131 2.039 . S
Zn121 O133 2.034 . S
O122 C106 1.251 1_545 S
O122 Zn113 2.039 . S
C123 O128 1.246 1_565 S
C123 O129 1.249 . S
O124 C106 1.254 . S
O124 Zn121 2.025 . S
H125 C117 0.952 . S
H126 C108 0.952 . S
H127 C116 0.948 . S
O128 Zn113 2.034 . S
O128 C123 1.246 1_545 S
O129 Zn121 2.024 . S
O129 C123 1.249 . S
H130 C112 0.948 . S
O131 Zn121 2.039 . S
O131 C135 1.251 1_565 S
O132 Zn113 2.025 . S
O132 C135 1.254 . S
O133 C114 1.246 1_565 S
O133 Zn121 2.034 . S
O134 Zn113 2.024 . S
O134 C114 1.249 . S
C135 O131 1.251 1_545 S
C135 O132 1.254 . S
H136 C109 0.949 . S
H137 C111 0.950 . S
H138 C118 0.949 . S
H139 C120 0.950 . S
C140 O156 1.251 . S
C140 O158 1.254 . S
N141 C142 1.333 . S
N141 C146 1.307 . S
N141 Zn147 2.020 . S
C142 N141 1.333 . S
C142 C143 1.379 . S
C142 H160 0.952 . S
C143 C142 1.379 . S
C143 C144 1.390 . S
C143 H170 0.949 . S
C144 C143 1.390 . S
C144 C145 1.357 . S
C145 C144 1.357 . S
C145 C146 1.370 . S
C145 H171 0.950 . S
C146 N141 1.307 . S
C146 C145 1.370 . S
C146 H164 0.948 . S
Zn147 N141 2.020 . S
Zn147 O156 2.039 . S
Zn147 O162 2.034 . S
Zn147 O166 2.025 . S
Zn147 O168 2.024 . S
C148 O167 1.246 . S
C148 O168 1.249 . S
N149 C150 1.307 . S
N149 C151 1.333 . S
N149 Zn155 2.020 . S
C150 N149 1.307 . S
C150 C154 1.370 . S
C150 H161 0.948 . S
C151 N149 1.333 . S
C151 C152 1.379 . S
C151 H159 0.952 . S
C152 C151 1.379 . S
C152 C153 1.390 . S
C152 H172 0.949 . S
C153 C152 1.390 . S
C153 C154 1.357 . S
C154 C150 1.370 . S
C154 C153 1.357 . S
C154 H173 0.950 . S
Zn155 N149 2.020 . S
Zn155 O158 2.025 . S
Zn155 O163 2.024 . S
Zn155 O165 2.039 . S
Zn155 O167 2.034 . S
O156 C140 1.251 . S
O156 Zn147 2.039 . S
C157 O162 1.246 . S
C157 O163 1.249 . S
O158 C140 1.254 . S
O158 Zn155 2.025 . S
H159 C151 0.952 . S
H160 C142 0.952 . S
H161 C150 0.948 . S
O162 Zn147 2.034 . S
O162 C157 1.246 . S
O163 Zn155 2.024 . S
O163 C157 1.249 . S
H164 C146 0.948 . S
O165 Zn155 2.039 . S
O165 C169 1.251 . S
O166 Zn147 2.025 . S
O166 C169 1.254 . S
O167 C148 1.246 . S
O167 Zn155 2.034 . S
O168 Zn147 2.024 . S
O168 C148 1.249 . S
C169 O165 1.251 . S
C169 O166 1.254 . S
H170 C143 0.949 . S
H171 C145 0.950 . S
H172 C152 0.949 . S
H173 C154 0.950 . S
C174 O190 1.251 . S
C174 O192 1.254 . S
N175 C176 1.333 . S
N175 C180 1.307 . S
N175 Zn181 2.020 . S
C176 N175 1.333 . S
C176 C177 1.379 . S
C176 H194 0.952 . S
C177 C176 1.379 . S
C177 C178 1.390 . S
C177 H204 0.949 . S
C178 C177 1.390 . S
C178 C179 1.357 . S
C179 C178 1.357 . S
C179 C180 1.370 . S
C179 H205 0.950 . S
C180 N175 1.307 . S
C180 C179 1.370 . S
C180 H198 0.948 . S
Zn181 N175 2.020 . S
Zn181 O190 2.039 . S
Zn181 O196 2.034 1_455 S
Zn181 O200 2.025 1_455 S
Zn181 O202 2.024 . S
C182 O201 1.246 . S
C182 O202 1.249 . S
N183 C184 1.307 . S
N183 C185 1.333 . S
N183 Zn189 2.020 1_655 S
C184 N183 1.307 . S
C184 C188 1.370 . S
C184 H195 0.948 1_655 S
C185 N183 1.333 . S
C185 C186 1.379 . S
C185 H193 0.952 . S
C186 C185 1.379 . S
C186 C187 1.390 . S
C186 H206 0.949 . S
C187 C186 1.390 . S
C187 C188 1.357 . S
C188 C184 1.370 . S
C188 C187 1.357 . S
C188 H207 0.950 . S
Zn189 N183 2.020 1_455 S
Zn189 O192 2.025 . S
Zn189 O197 2.024 1_455 S
Zn189 O199 2.039 1_455 S
Zn189 O201 2.034 . S
O190 C174 1.251 . S
O190 Zn181 2.039 . S
C191 O196 1.246 . S
C191 O197 1.249 . S
O192 C174 1.254 . S
O192 Zn189 2.025 . S
H193 C185 0.952 . S
H194 C176 0.952 . S
H195 C184 0.948 1_455 S
O196 Zn181 2.034 1_655 S
O196 C191 1.246 . S
O197 Zn189 2.024 1_655 S
O197 C191 1.249 . S
H198 C180 0.948 . S
O199 Zn189 2.039 1_655 S
O199 C203 1.251 . S
O200 Zn181 2.025 1_655 S
O200 C203 1.254 . S
O201 C182 1.246 . S
O201 Zn189 2.034 . S
O202 Zn181 2.024 . S
O202 C182 1.249 . S
C203 O199 1.251 . S
C203 O200 1.254 . S
H204 C177 0.949 . S
H205 C179 0.950 . S
H206 C186 0.949 . S
H207 C188 0.950 . S
H208 C220 0.930 . S
H209 C222 0.930 . S
H210 C223 0.930 . S
H211 C227 0.959 . S
H212 C227 0.959 . S
H213 C227 0.961 . S
H214 C228 0.960 . S
H215 C228 0.961 . S
H216 C228 0.959 . S
H217 C231 0.929 . S
H218 C232 0.931 . S
H219 C234 0.930 . S
C220 H208 0.930 . S
C220 C221 1.399 1_545 S
C220 C225 1.399 . S
C221 C220 1.399 1_565 S
C221 C222 1.376 . S
C222 H209 0.930 . S
C222 C221 1.376 . S
C222 C223 1.388 . S
C223 H210 0.930 . S
C223 C222 1.388 . S
C223 C224 1.390 . S
C224 C223 1.390 . S
C224 C225 1.394 1_565 S
C224 C230 1.465 . S
C225 C220 1.399 . S
C225 C224 1.394 1_545 S
C225 C226 1.516 . S
C226 C225 1.516 . S
C226 C227 1.502 . S
C226 C228 1.561 . S
C226 C229 1.526 . S
C227 H211 0.959 . S
C227 H212 0.959 . S
C227 H213 0.961 . S
C227 C226 1.502 . S
C228 H214 0.960 . S
C228 H215 0.961 . S
C228 H216 0.959 . S
C228 C226 1.561 . S
C229 C226 1.526 . S
C229 C230 1.396 1_545 S
C229 C234 1.390 . S
C230 C224 1.465 . S
C230 C229 1.396 1_565 S
C230 C231 1.399 . S
C231 H217 0.929 . S
C231 C230 1.399 . S
C231 C232 1.385 . S
C232 H218 0.931 . S
C232 C231 1.385 . S
C232 C233 1.389 . S
C233 C232 1.389 . S
C233 C234 1.387 1_565 S
C234 H219 0.930 . S
C234 C229 1.390 . S
C234 C233 1.387 1_545 S
H235 C247 0.930 . S
H236 C249 0.930 . S
H237 C250 0.930 . S
H238 C254 0.959 . S
H239 C254 0.959 . S
H240 C254 0.961 . S
H241 C255 0.960 . S
H242 C255 0.961 . S
H243 C255 0.959 . S
H244 C258 0.929 . S
H245 C259 0.931 . S
H246 C261 0.930 . S
C247 H235 0.930 . S
C247 C248 1.399 . S
C247 C252 1.399 . S
C248 C247 1.399 . S
C248 C249 1.376 . S
C249 H236 0.930 . S
C249 C248 1.376 . S
C249 C250 1.388 . S
C250 H237 0.930 . S
C250 C249 1.388 . S
C250 C251 1.390 . S
C251 C250 1.390 . S
C251 C252 1.394 . S
C251 C257 1.465 . S
C252 C247 1.399 . S
C252 C251 1.394 . S
C252 C253 1.516 . S
C253 C252 1.516 . S
C253 C254 1.502 . S
C253 C255 1.561 . S
C253 C256 1.526 . S
C254 H238 0.959 . S
C254 H239 0.959 . S
C254 H240 0.961 . S
C254 C253 1.502 . S
C255 H241 0.960 . S
C255 H242 0.961 . S
C255 H243 0.959 . S
C255 C253 1.561 . S
C256 C253 1.526 . S
C256 C257 1.396 . S
C256 C261 1.390 . S
C257 C251 1.465 . S
C257 C256 1.396 . S
C257 C258 1.399 . S
C258 H244 0.929 . S
C258 C257 1.399 . S
C258 C259 1.385 . S
C259 H245 0.931 . S
C259 C258 1.385 . S
C259 C260 1.389 . S
C260 C259 1.389 . S
C260 C261 1.387 . S
C261 H246 0.930 . S
C261 C256 1.390 . S
C261 C260 1.387 . S
H262 C274 0.930 . S
H263 C276 0.930 . S
H264 C277 0.930 . S
H265 C281 0.959 . S
H266 C281 0.959 . S
H267 C281 0.961 . S
H268 C282 0.960 . S
H269 C282 0.961 . S
H270 C282 0.959 . S
H271 C285 0.929 . S
H272 C286 0.931 . S
H273 C288 0.930 . S
C274 H262 0.930 . S
C274 C275 1.399 . S
C274 C279 1.399 . S
C275 C274 1.399 . S
C275 C276 1.376 . S
C276 H263 0.930 . S
C276 C275 1.376 . S
C276 C277 1.388 . S
C277 H264 0.930 . S
C277 C276 1.388 . S
C277 C278 1.390 . S
C278 C277 1.390 . S
C278 C279 1.394 . S
C278 C284 1.465 . S
C279 C274 1.399 . S
C279 C278 1.394 . S
C279 C280 1.516 . S
C280 C279 1.516 . S
C280 C281 1.502 . S
C280 C282 1.561 . S
C280 C283 1.526 . S
C281 H265 0.959 . S
C281 H266 0.959 . S
C281 H267 0.961 . S
C281 C280 1.502 . S
C282 H268 0.960 . S
C282 H269 0.961 . S
C282 H270 0.959 . S
C282 C280 1.561 . S
C283 C280 1.526 . S
C283 C284 1.396 . S
C283 C288 1.390 . S
C284 C278 1.465 . S
C284 C283 1.396 . S
C284 C285 1.399 . S
C285 H271 0.929 . S
C285 C284 1.399 . S
C285 C286 1.385 . S
C286 H272 0.931 . S
C286 C285 1.385 . S
C286 C287 1.389 . S
C287 C286 1.389 . S
C287 C288 1.387 . S
C288 H273 0.930 . S
C288 C283 1.390 . S
C288 C287 1.387 . S
H289 C301 0.930 . S
H290 C303 0.930 . S
H291 C304 0.930 . S
H292 C308 0.959 . S
H293 C308 0.959 . S
H294 C308 0.961 . S
H295 C309 0.960 . S
H296 C309 0.961 . S
H297 C309 0.959 . S
H298 C312 0.929 . S
H299 C313 0.931 . S
H300 C315 0.930 . S
C301 H289 0.930 . S
C301 C302 1.399 . S
C301 C306 1.399 . S
C302 C301 1.399 . S
C302 C303 1.376 . S
C303 H290 0.930 . S
C303 C302 1.376 . S
C303 C304 1.388 . S
C304 H291 0.930 . S
C304 C303 1.388 . S
C304 C305 1.390 . S
C305 C304 1.390 . S
C305 C306 1.394 . S
C305 C311 1.465 . S
C306 C301 1.399 . S
C306 C305 1.394 . S
C306 C307 1.516 . S
C307 C306 1.516 . S
C307 C308 1.502 . S
C307 C309 1.561 . S
C307 C310 1.526 . S
C308 H292 0.959 . S
C308 H293 0.959 . S
C308 H294 0.961 . S
C308 C307 1.502 . S
C309 H295 0.960 . S
C309 H296 0.961 . S
C309 H297 0.959 . S
C309 C307 1.561 . S
C310 C307 1.526 . S
C310 C311 1.396 . S
C310 C315 1.390 . S
C311 C305 1.465 . S
C311 C310 1.396 . S
C311 C312 1.399 . S
C312 H298 0.929 . S
C312 C311 1.399 . S
C312 C313 1.385 . S
C313 H299 0.931 . S
C313 C312 1.385 . S
C313 C314 1.389 . S
C314 C313 1.389 . S
C314 C315 1.387 . S
C315 H300 0.930 . S
C315 C310 1.390 . S
C315 C314 1.387 . S
H316 C328 0.930 . S
H317 C330 0.930 . S
H318 C331 0.930 . S
H319 C335 0.959 . S
H320 C335 0.959 1_556 S
H321 C335 0.961 . S
H322 C336 0.960 . S
H323 C336 0.961 . S
H324 C336 0.959 . S
H325 C339 0.929 . S
H326 C340 0.931 . S
H327 C342 0.930 . S
C328 H316 0.930 . S
C328 C329 1.399 1_565 S
C328 C333 1.399 1_554 S
C329 C328 1.399 1_545 S
C329 C330 1.376 1_554 S
C330 H317 0.930 . S
C330 C329 1.376 1_556 S
C330 C331 1.388 . S
C331 H318 0.930 . S
C331 C330 1.388 . S
C331 C332 1.390 . S
C332 C331 1.390 . S
C332 C333 1.394 1_545 S
C332 C338 1.465 . S
C333 C328 1.399 1_556 S
C333 C332 1.394 1_565 S
C333 C334 1.516 . S
C334 C333 1.516 . S
C334 C335 1.502 1_556 S
C334 C336 1.561 . S
C334 C337 1.526 . S
C335 H319 0.959 . S
C335 H320 0.959 1_554 S
C335 H321 0.961 . S
C335 C334 1.502 1_554 S
C336 H322 0.960 . S
C336 H323 0.961 . S
C336 H324 0.959 . S
C336 C334 1.561 . S
C337 C334 1.526 . S
C337 C338 1.396 1_565 S
C337 C342 1.390 . S
C338 C332 1.465 . S
C338 C337 1.396 1_545 S
C338 C339 1.399 . S
C339 H325 0.929 . S
C339 C338 1.399 . S
C339 C340 1.385 . S
C340 H326 0.931 . S
C340 C339 1.385 . S
C340 C341 1.389 . S
C341 C340 1.389 . S
C341 C342 1.387 1_545 S
C342 H327 0.930 . S
C342 C337 1.390 . S
C342 C341 1.387 1_565 S
H343 C355 0.930 . S
H344 C357 0.930 . S
H345 C358 0.930 . S
H346 C362 0.959 . S
H347 C362 0.959 . S
H348 C362 0.961 . S
H349 C363 0.960 . S
H350 C363 0.961 . S
H351 C363 0.959 . S
H352 C366 0.929 . S
H353 C367 0.931 . S
H354 C369 0.930 . S
C355 H343 0.930 . S
C355 C356 1.399 . S
C355 C360 1.399 . S
C356 C355 1.399 . S
C356 C357 1.376 1_554 S
C357 H344 0.930 . S
C357 C356 1.376 1_556 S
C357 C358 1.388 . S
C358 H345 0.930 . S
C358 C357 1.388 . S
C358 C359 1.390 . S
C359 C358 1.390 . S
C359 C360 1.394 1_556 S
C359 C365 1.465 . S
C360 C355 1.399 . S
C360 C359 1.394 1_554 S
C360 C361 1.516 . S
C361 C360 1.516 . S
C361 C362 1.502 . S
C361 C363 1.561 . S
C361 C364 1.526 1_554 S
C362 H346 0.959 . S
C362 H347 0.959 . S
C362 H348 0.961 . S
C362 C361 1.502 . S
C363 H349 0.960 . S
C363 H350 0.961 . S
C363 H351 0.959 . S
C363 C361 1.561 . S
C364 C361 1.526 1_556 S
C364 C365 1.396 . S
C364 C369 1.390 . S
C365 C359 1.465 . S
C365 C364 1.396 . S
C365 C366 1.399 . S
C366 H352 0.929 . S
C366 C365 1.399 . S
C366 C367 1.385 . S
C367 H353 0.931 . S
C367 C366 1.385 . S
C367 C368 1.389 . S
C368 C367 1.389 . S
C368 C369 1.387 . S
C369 H354 0.930 . S
C369 C364 1.390 . S
C369 C368 1.387 . S
H370 C382 0.930 . S
H371 C384 0.930 . S
H372 C385 0.930 . S
H373 C389 0.959 . S
H374 C389 0.959 . S
H375 C389 0.961 . S
H376 C390 0.960 . S
H377 C390 0.961 . S
H378 C390 0.959 . S
H379 C393 0.929 . S
H380 C394 0.931 . S
H381 C396 0.930 . S
C382 H370 0.930 . S
C382 C383 1.399 . S
C382 C387 1.399 . S
C383 C382 1.399 . S
C383 C384 1.376 . S
C384 H371 0.930 . S
C384 C383 1.376 . S
C384 C385 1.388 1_554 S
C385 H372 0.930 . S
C385 C384 1.388 1_556 S
C385 C386 1.390 . S
C386 C385 1.390 . S
C386 C387 1.394 1_556 S
C386 C392 1.465 . S
C387 C382 1.399 . S
C387 C386 1.394 1_554 S
C387 C388 1.516 . S
C388 C387 1.516 . S
C388 C389 1.502 . S
C388 C390 1.561 . S
C388 C391 1.526 1_554 S
C389 H373 0.959 . S
C389 H374 0.959 . S
C389 H375 0.961 . S
C389 C388 1.502 . S
C390 H376 0.960 . S
C390 H377 0.961 . S
C390 H378 0.959 . S
C390 C388 1.561 . S
C391 C388 1.526 1_556 S
C391 C392 1.396 . S
C391 C396 1.390 . S
C392 C386 1.465 . S
C392 C391 1.396 . S
C392 C393 1.399 . S
C393 H379 0.929 . S
C393 C392 1.399 . S
C393 C394 1.385 . S
C394 H380 0.931 . S
C394 C393 1.385 . S
C394 C395 1.389 . S
C395 C394 1.389 . S
C395 C396 1.387 . S
C396 H381 0.930 . S
C396 C391 1.390 . S
C396 C395 1.387 . S
H397 C409 0.930 . S
H398 C411 0.930 . S
H399 C412 0.930 1_554 S
H400 C416 0.959 . S
H401 C416 0.959 . S
H402 C416 0.961 . S
H403 C417 0.960 1_455 S
H404 C417 0.959 1_455 S
H405 C417 0.958 1_455 S
H406 C420 0.929 . S
H407 C421 0.931 . S
H408 C423 0.930 . S
C409 H397 0.930 . S
C409 C410 1.399 . S
C409 C414 1.399 . S
C410 C409 1.399 . S
C410 C411 1.376 1_556 S
C411 H398 0.930 . S
C411 C410 1.376 1_554 S
C411 C412 1.388 1_554 S
C412 H399 0.930 1_556 S
C412 C411 1.388 1_556 S
C412 C413 1.390 . S
C413 C412 1.390 . S
C413 C414 1.394 . S
C413 C419 1.465 . S
C414 C409 1.399 . S
C414 C413 1.394 . S
C414 C415 1.516 . S
C415 C414 1.516 . S
C415 C416 1.502 . S
C415 C417 1.564 . S
C415 C418 1.526 . S
C416 H400 0.959 . S
C416 H401 0.959 . S
C416 H402 0.961 . S
C416 C415 1.502 . S
C417 H403 0.960 1_655 S
C417 H404 0.959 1_655 S
C417 H405 0.958 1_655 S
C417 C415 1.564 . S
C418 C415 1.526 . S
C418 C419 1.396 . S
C418 C423 1.390 . S
C419 C413 1.465 . S
C419 C418 1.396 . S
C419 C420 1.399 . S
C420 H406 0.929 . S
C420 C419 1.399 . S
C420 C421 1.385 . S
C421 H407 0.931 . S
C421 C420 1.385 . S
C421 C422 1.389 . S
C422 C421 1.389 . S
C422 C423 1.387 . S
C423 H408 0.930 . S
C423 C418 1.390 . S
C423 C422 1.387 . S
H424 C436 0.930 . S
H425 C438 0.930 . S
H426 C439 0.930 . S
H427 C443 0.959 . S
H428 C443 0.959 . S
H429 C443 0.961 . S
H430 C444 0.960 . S
H431 C444 0.961 . S
H432 C444 0.959 . S
H433 C447 0.929 . S
H434 C448 0.931 . S
H435 C450 0.930 . S
C436 H424 0.930 . S
C436 C437 1.399 . S
C436 C441 1.399 . S
C437 C436 1.399 . S
C437 C438 1.376 . S
C438 H425 0.930 . S
C438 C437 1.376 . S
C438 C439 1.388 . S
C439 H426 0.930 . S
C439 C438 1.388 . S
C439 C440 1.390 . S
C440 C439 1.390 . S
C440 C441 1.394 . S
C440 C446 1.465 . S
C441 C436 1.399 . S
C441 C440 1.394 . S
C441 C442 1.516 . S
C442 C441 1.516 . S
C442 C443 1.502 . S
C442 C444 1.561 . S
C442 C445 1.526 . S
C443 H427 0.959 . S
C443 H428 0.959 . S
C443 H429 0.961 . S
C443 C442 1.502 . S
C444 H430 0.960 . S
C444 H431 0.961 . S
C444 H432 0.959 . S
C444 C442 1.561 . S
C445 C442 1.526 . S
C445 C446 1.396 . S
C445 C450 1.390 . S
C446 C440 1.465 . S
C446 C445 1.396 . S
C446 C447 1.399 . S
C447 H433 0.929 . S
C447 C446 1.399 . S
C447 C448 1.385 . S
C448 H434 0.931 . S
C448 C447 1.385 . S
C448 C449 1.389 . S
C449 C448 1.389 . S
C449 C450 1.387 . S
C450 H435 0.930 . S
C450 C445 1.390 . S
C450 C449 1.387 . S
H451 C463 0.930 . S
H452 C465 0.930 . S
H453 C466 0.930 . S
H454 C470 0.959 . S
H455 C470 0.959 . S
H456 C470 0.961 . S
H457 C471 0.960 . S
H458 C471 0.961 . S
H459 C471 0.959 . S
H460 C474 0.929 . S
H461 C475 0.931 . S
H462 C477 0.930 . S
C463 H451 0.930 . S
C463 C464 1.399 1_545 S
C463 C468 1.399 . S
C464 C463 1.399 1_565 S
C464 C465 1.376 . S
C465 H452 0.930 . S
C465 C464 1.376 . S
C465 C466 1.388 . S
C466 H453 0.930 . S
C466 C465 1.388 . S
C466 C467 1.390 . S
C467 C466 1.390 . S
C467 C468 1.394 1_565 S
C467 C473 1.465 . S
C468 C463 1.399 . S
C468 C467 1.394 1_545 S
C468 C469 1.516 . S
C469 C468 1.516 . S
C469 C470 1.502 . S
C469 C471 1.561 . S
C469 C472 1.526 . S
C470 H454 0.959 . S
C470 H455 0.959 . S
C470 H456 0.961 . S
C470 C469 1.502 . S
C471 H457 0.960 . S
C471 H458 0.961 . S
C471 H459 0.959 . S
C471 C469 1.561 . S
C472 C469 1.526 . S
C472 C473 1.396 1_545 S
C472 C477 1.390 . S
C473 C467 1.465 . S
C473 C472 1.396 1_565 S
C473 C474 1.399 . S
C474 H460 0.929 . S
C474 C473 1.399 . S
C474 C475 1.385 . S
C475 H461 0.931 . S
C475 C474 1.385 . S
C475 C476 1.389 . S
C476 C475 1.389 . S
C476 C477 1.387 1_565 S
C477 H462 0.930 . S
C477 C472 1.390 . S
C477 C476 1.387 1_545 S
H478 C490 0.930 . S
H479 C492 0.930 . S
H480 C493 0.930 . S
H481 C497 0.959 . S
H482 C497 0.959 . S
H483 C497 0.961 . S
H484 C498 0.960 . S
H485 C498 0.961 . S
H486 C498 0.959 . S
H487 C501 0.929 . S
H488 C502 0.931 . S
H489 C504 0.930 . S
C490 H478 0.930 . S
C490 C491 1.399 . S
C490 C495 1.399 . S
C491 C490 1.399 . S
C491 C492 1.376 . S
C492 H479 0.930 . S
C492 C491 1.376 . S
C492 C493 1.388 . S
C493 H480 0.930 . S
C493 C492 1.388 . S
C493 C494 1.390 . S
C494 C493 1.390 . S
C494 C495 1.394 . S
C494 C500 1.465 . S
C495 C490 1.399 . S
C495 C494 1.394 . S
C495 C496 1.516 . S
C496 C495 1.516 . S
C496 C497 1.502 . S
C496 C498 1.561 . S
C496 C499 1.526 . S
C497 H481 0.959 . S
C497 H482 0.959 . S
C497 H483 0.961 . S
C497 C496 1.502 . S
C498 H484 0.960 . S
C498 H485 0.961 . S
C498 H486 0.959 . S
C498 C496 1.561 . S
C499 C496 1.526 . S
C499 C500 1.396 . S
C499 C504 1.390 . S
C500 C494 1.465 . S
C500 C499 1.396 . S
C500 C501 1.399 . S
C501 H487 0.929 . S
C501 C500 1.399 . S
C501 C502 1.385 . S
C502 H488 0.931 . S
C502 C501 1.385 . S
C502 C503 1.389 . S
C503 C502 1.389 . S
C503 C504 1.387 . S
C504 H489 0.930 . S
C504 C499 1.390 . S
C504 C503 1.387 . S
H505 C517 0.930 . S
H506 C519 0.930 . S
H507 C520 0.930 . S
H508 C524 0.959 . S
H509 C524 0.959 . S
H510 C524 0.961 . S
H511 C525 0.960 . S
H512 C525 0.961 . S
H513 C525 0.959 . S
H514 C528 0.929 . S
H515 C529 0.931 . S
H516 C531 0.930 . S
C517 H505 0.930 . S
C517 C518 1.399 . S
C517 C522 1.399 . S
C518 C517 1.399 . S
C518 C519 1.376 . S
C519 H506 0.930 . S
C519 C518 1.376 . S
C519 C520 1.388 . S
C520 H507 0.930 . S
C520 C519 1.388 . S
C520 C521 1.390 . S
C521 C520 1.390 . S
C521 C522 1.394 . S
C521 C527 1.465 . S
C522 C517 1.399 . S
C522 C521 1.394 . S
C522 C523 1.516 . S
C523 C522 1.516 . S
C523 C524 1.502 . S
C523 C525 1.561 . S
C523 C526 1.526 . S
C524 H508 0.959 . S
C524 H509 0.959 . S
C524 H510 0.961 . S
C524 C523 1.502 . S
C525 H511 0.960 . S
C525 H512 0.961 . S
C525 H513 0.959 . S
C525 C523 1.561 . S
C526 C523 1.526 . S
C526 C527 1.396 . S
C526 C531 1.390 . S
C527 C521 1.465 . S
C527 C526 1.396 . S
C527 C528 1.399 . S
C528 H514 0.929 . S
C528 C527 1.399 . S
C528 C529 1.385 . S
C529 H515 0.931 . S
C529 C528 1.385 . S
C529 C530 1.389 . S
C530 C529 1.389 . S
C530 C531 1.387 . S
C531 H516 0.930 . S
C531 C526 1.390 . S
C531 C530 1.387 . S
H532 C544 0.930 1_554 S
H533 C546 0.930 . S
H534 C547 0.930 . S
H535 C551 0.959 1_556 S
H536 C551 0.959 . S
H537 C551 0.961 . S
H538 C552 0.960 1_554 S
H539 C552 0.961 1_454 S
H540 C552 0.959 1_455 S
H541 C555 0.929 . S
H542 C556 0.931 1_455 S
H543 C558 0.930 1_455 S
C544 H532 0.930 1_556 S
C544 C545 1.399 . S
C544 C549 1.399 . S
C545 C544 1.399 . S
C545 C546 1.376 . S
C546 H533 0.930 . S
C546 C545 1.376 . S
C546 C547 1.388 . S
C547 H534 0.930 . S
C547 C546 1.388 . S
C547 C548 1.390 . S
C548 C547 1.390 . S
C548 C549 1.394 . S
C548 C554 1.465 . S
C549 C544 1.399 . S
C549 C548 1.394 . S
C549 C550 1.516 . S
C550 C549 1.516 . S
C550 C551 1.502 1_556 S
C550 C552 1.561 . S
C550 C553 1.526 . S
C551 H535 0.959 1_554 S
C551 H536 0.959 . S
C551 H537 0.961 . S
C551 C550 1.502 1_554 S
C552 H538 0.960 1_556 S
C552 H539 0.961 1_656 S
C552 H540 0.959 1_655 S
C552 C550 1.561 . S
C553 C550 1.526 . S
C553 C554 1.396 . S
C553 C558 1.390 . S
C554 C548 1.465 . S
C554 C553 1.396 . S
C554 C555 1.399 . S
C555 H541 0.929 . S
C555 C554 1.399 . S
C555 C556 1.385 . S
C556 H542 0.931 1_655 S
C556 C555 1.385 . S
C556 C557 1.389 1_655 S
C557 C556 1.389 1_455 S
C557 C558 1.387 1_455 S
C558 H543 0.930 1_655 S
C558 C553 1.390 . S
C558 C557 1.387 1_655 S
H559 C571 0.930 . S
H560 C573 0.930 . S
H561 C574 0.930 . S
H562 C578 0.959 . S
H563 C578 0.959 . S
H564 C578 0.961 . S
H565 C579 0.960 . S
H566 C579 0.961 . S
H567 C579 0.959 . S
H568 C582 0.929 . S
H569 C583 0.931 . S
H570 C585 0.930 . S
C571 H559 0.930 . S
C571 C572 1.399 1_566 S
C571 C576 1.399 . S
C572 C571 1.399 1_544 S
C572 C573 1.376 . S
C573 H560 0.930 . S
C573 C572 1.376 . S
C573 C574 1.388 . S
C574 H561 0.930 . S
C574 C573 1.388 . S
C574 C575 1.390 1_554 S
C575 C574 1.390 1_556 S
C575 C576 1.394 1_545 S
C575 C581 1.465 . S
C576 C571 1.399 . S
C576 C575 1.394 1_565 S
C576 C577 1.516 . S
C577 C576 1.516 . S
C577 C578 1.502 . S
C577 C579 1.561 . S
C577 C580 1.526 . S
C578 H562 0.959 . S
C578 H563 0.959 . S
C578 H564 0.961 . S
C578 C577 1.502 . S
C579 H565 0.960 . S
C579 H566 0.961 . S
C579 H567 0.959 . S
C579 C577 1.561 . S
C580 C577 1.526 . S
C580 C581 1.396 1_565 S
C580 C585 1.390 . S
C581 C575 1.465 . S
C581 C580 1.396 1_545 S
C581 C582 1.399 . S
C582 H568 0.929 . S
C582 C581 1.399 . S
C582 C583 1.385 . S
C583 H569 0.931 . S
C583 C582 1.385 . S
C583 C584 1.389 . S
C584 C583 1.389 . S
C584 C585 1.387 1_545 S
C585 H570 0.930 . S
C585 C580 1.390 . S
C585 C584 1.387 1_565 S
H586 C598 0.930 . S
H587 C600 0.930 . S
H588 C601 0.930 . S
H589 C605 0.959 . S
H590 C605 0.959 1_554 S
H591 C605 0.961 1_554 S
H592 C606 0.960 . S
H593 C606 0.961 . S
H594 C606 0.959 . S
H595 C609 0.929 . S
H596 C610 0.931 . S
H597 C612 0.930 . S
C598 H586 0.930 . S
C598 C599 1.399 . S
C598 C603 1.399 1_554 S
C599 C598 1.399 . S
C599 C600 1.376 1_554 S
C600 H587 0.930 . S
C600 C599 1.376 1_556 S
C600 C601 1.388 . S
C601 H588 0.930 . S
C601 C600 1.388 . S
C601 C602 1.390 . S
C602 C601 1.390 . S
C602 C603 1.394 . S
C602 C608 1.465 . S
C603 C598 1.399 1_556 S
C603 C602 1.394 . S
C603 C604 1.516 . S
C604 C603 1.516 . S
C604 C605 1.502 . S
C604 C606 1.561 1_556 S
C604 C607 1.526 . S
C605 H589 0.959 . S
C605 H590 0.959 1_556 S
C605 H591 0.961 1_556 S
C605 C604 1.502 . S
C606 H592 0.960 . S
C606 H593 0.961 . S
C606 H594 0.959 . S
C606 C604 1.561 1_554 S
C607 C604 1.526 . S
C607 C608 1.396 . S
C607 C612 1.390 . S
C608 C602 1.465 . S
C608 C607 1.396 . S
C608 C609 1.399 . S
C609 H595 0.929 . S
C609 C608 1.399 . S
C609 C610 1.385 . S
C610 H596 0.931 . S
C610 C609 1.385 . S
C610 C611 1.389 . S
C611 C610 1.389 . S
C611 C612 1.387 . S
C612 H597 0.930 . S
C612 C607 1.390 . S
C612 C611 1.387 . S
H613 C625 0.930 . S
H614 C627 0.930 . S
H615 C628 0.930 1_556 S
H616 C632 0.959 . S
H617 C632 0.959 . S
H618 C632 0.961 1_554 S
H619 C633 0.960 . S
H620 C633 0.961 . S
H621 C633 0.959 . S
H622 C636 0.929 . S
H623 C637 0.931 . S
H624 C639 0.930 . S
C625 H613 0.930 . S
C625 C626 1.399 . S
C625 C630 1.399 . S
C626 C625 1.399 . S
C626 C627 1.376 . S
C627 H614 0.930 . S
C627 C626 1.376 . S
C627 C628 1.388 . S
C628 H615 0.930 1_554 S
C628 C627 1.388 . S
C628 C629 1.390 1_554 S
C629 C628 1.390 1_556 S
C629 C630 1.394 1_556 S
C629 C635 1.465 . S
C630 C625 1.399 . S
C630 C629 1.394 1_554 S
C630 C631 1.516 . S
C631 C630 1.516 . S
C631 C632 1.502 1_554 S
C631 C633 1.561 . S
C631 C634 1.526 1_554 S
C632 H616 0.959 . S
C632 H617 0.959 . S
C632 H618 0.961 1_556 S
C632 C631 1.502 1_556 S
C633 H619 0.960 . S
C633 H620 0.961 . S
C633 H621 0.959 . S
C633 C631 1.561 . S
C634 C631 1.526 1_556 S
C634 C635 1.396 . S
C634 C639 1.390 . S
C635 C629 1.465 . S
C635 C634 1.396 . S
C635 C636 1.399 . S
C636 H622 0.929 . S
C636 C635 1.399 . S
C636 C637 1.385 . S
C637 H623 0.931 . S
C637 C636 1.385 . S
C637 C638 1.389 . S
C638 C637 1.389 . S
C638 C639 1.387 . S
C639 H624 0.930 . S
C639 C634 1.390 . S
C639 C638 1.387 . S
H640 C652 0.930 . S
H641 C654 0.930 . S
H642 C655 0.930 . S
H643 C659 0.959 . S
H644 C659 0.959 . S
H645 C659 0.961 . S
H646 C660 0.960 . S
H647 C660 0.961 . S
H648 C660 0.959 . S
H649 C663 0.929 . S
H650 C664 0.931 . S
H651 C666 0.930 . S
C652 H640 0.930 . S
C652 C653 1.399 . S
C652 C657 1.399 . S
C653 C652 1.399 . S
C653 C654 1.376 . S
C654 H641 0.930 . S
C654 C653 1.376 . S
C654 C655 1.388 . S
C655 H642 0.930 . S
C655 C654 1.388 . S
C655 C656 1.390 . S
C656 C655 1.390 . S
C656 C657 1.394 . S
C656 C662 1.465 . S
C657 C652 1.399 . S
C657 C656 1.394 . S
C657 C658 1.516 . S
C658 C657 1.516 . S
C658 C659 1.502 . S
C658 C660 1.561 . S
C658 C661 1.526 . S
C659 H643 0.959 . S
C659 H644 0.959 . S
C659 H645 0.961 . S
C659 C658 1.502 . S
C660 H646 0.960 . S
C660 H647 0.961 . S
C660 H648 0.959 . S
C660 C658 1.561 . S
C661 C658 1.526 . S
C661 C662 1.396 . S
C661 C666 1.390 . S
C662 C656 1.465 . S
C662 C661 1.396 . S
C662 C663 1.399 . S
C663 H649 0.929 . S
C663 C662 1.399 . S
C663 C664 1.385 . S
C664 H650 0.931 . S
C664 C663 1.385 . S
C664 C665 1.389 . S
C665 C664 1.389 . S
C665 C666 1.387 . S
C666 H651 0.930 . S
C666 C661 1.390 . S
C666 C665 1.387 . S
H667 C679 0.930 . S
H668 C681 0.930 . S
H669 C682 0.930 . S
H670 C686 0.959 . S
H671 C686 0.959 . S
H672 C686 0.961 1_554 S
H673 C687 0.960 . S
H674 C687 0.961 . S
H675 C687 0.959 . S
H676 C690 0.927 1_554 S
H677 C691 0.931 . S
H678 C693 0.930 . S
C679 H667 0.930 . S
C679 C680 1.399 1_545 S
C679 C684 1.399 . S
C680 C679 1.399 1_565 S
C680 C681 1.376 . S
C681 H668 0.930 . S
C681 C680 1.376 . S
C681 C682 1.388 . S
C682 H669 0.930 . S
C682 C681 1.388 . S
C682 C683 1.390 . S
C683 C682 1.390 . S
C683 C684 1.394 1_565 S
C683 C689 1.465 . S
C684 C679 1.399 . S
C684 C683 1.394 1_545 S
C684 C685 1.516 . S
C685 C684 1.516 . S
C685 C686 1.502 1_554 S
C685 C687 1.561 . S
C685 C688 1.526 . S
C686 H670 0.959 . S
C686 H671 0.959 . S
C686 H672 0.961 1_556 S
C686 C685 1.502 1_556 S
C687 H673 0.960 . S
C687 H674 0.961 . S
C687 H675 0.959 . S
C687 C685 1.561 . S
C688 C685 1.526 . S
C688 C689 1.396 1_545 S
C688 C693 1.390 1_554 S
C689 C683 1.465 . S
C689 C688 1.396 1_565 S
C689 C690 1.395 1_554 S
C690 H676 0.927 1_556 S
C690 C689 1.395 1_556 S
C690 C691 1.391 . S
C691 H677 0.931 . S
C691 C690 1.391 . S
C691 C692 1.372 1_565 S
C692 C691 1.372 1_545 S
C692 C693 1.402 . S
C693 H678 0.930 . S
C693 C688 1.390 1_556 S
C693 C692 1.402 . S
H694 C706 0.930 . S
H695 C708 0.930 . S
H696 C709 0.920 1_556 S
H697 C713 0.959 . S
H698 C713 0.959 . S
H699 C713 0.961 . S
H700 C714 0.960 . S
H701 C714 0.961 . S
H702 C714 0.959 . S
H703 C717 0.929 . S
H704 C718 0.931 . S
H705 C720 0.930 . S
C706 H694 0.930 . S
C706 C707 1.399 . S
C706 C711 1.399 . S
C707 C706 1.399 . S
C707 C708 1.376 . S
C708 H695 0.930 . S
C708 C707 1.376 . S
C708 C709 1.388 . S
C709 H696 0.920 1_554 S
C709 C708 1.388 . S
C709 C710 1.390 . S
C710 C709 1.390 . S
C710 C711 1.394 . S
C710 C716 1.465 1_554 S
C711 C706 1.399 . S
C711 C710 1.394 . S
C711 C712 1.516 . S
C712 C711 1.516 . S
C712 C713 1.502 . S
C712 C714 1.561 . S
C712 C715 1.526 . S
C713 H697 0.959 . S
C713 H698 0.959 . S
C713 H699 0.961 . S
C713 C712 1.502 . S
C714 H700 0.960 . S
C714 H701 0.961 . S
C714 H702 0.959 . S
C714 C712 1.561 . S
C715 C712 1.526 . S
C715 C716 1.396 1_554 S
C715 C720 1.390 1_554 S
C716 C710 1.465 1_556 S
C716 C715 1.396 1_556 S
C716 C717 1.399 . S
C717 H703 0.929 . S
C717 C716 1.399 . S
C717 C718 1.385 . S
C718 H704 0.931 . S
C718 C717 1.385 . S
C718 C719 1.389 . S
C719 C718 1.389 . S
C719 C720 1.387 . S
C720 H705 0.930 . S
C720 C715 1.390 1_556 S
C720 C719 1.387 . S
H721 C733 0.930 . S
H722 C735 0.930 . S
H723 C736 0.930 . S
H724 C740 0.959 . S
H725 C740 0.959 . S
H726 C740 0.961 . S
H727 C741 0.960 . S
H728 C741 0.961 . S
H729 C741 0.959 . S
H730 C744 0.929 . S
H731 C745 0.931 . S
H732 C747 0.930 . S
C733 H721 0.930 . S
C733 C734 1.399 . S
C733 C738 1.399 . S
C734 C733 1.399 . S
C734 C735 1.376 . S
C735 H722 0.930 . S
C735 C734 1.376 . S
C735 C736 1.388 . S
C736 H723 0.930 . S
C736 C735 1.388 . S
C736 C737 1.390 . S
C737 C736 1.390 . S
C737 C738 1.394 . S
C737 C743 1.465 1_554 S
C738 C733 1.399 . S
C738 C737 1.394 . S
C738 C739 1.516 . S
C739 C738 1.516 . S
C739 C740 1.502 1_554 S
C739 C741 1.561 . S
C739 C742 1.526 1_554 S
C740 H724 0.959 . S
C740 H725 0.959 . S
C740 H726 0.961 . S
C740 C739 1.502 1_556 S
C741 H727 0.960 . S
C741 H728 0.961 . S
C741 H729 0.959 . S
C741 C739 1.561 . S
C742 C739 1.526 1_556 S
C742 C743 1.396 . S
C742 C747 1.390 . S
C743 C737 1.465 1_556 S
C743 C742 1.396 . S
C743 C744 1.399 . S
C744 H730 0.929 . S
C744 C743 1.399 . S
C744 C745 1.385 . S
C745 H731 0.931 . S
C745 C744 1.385 . S
C745 C746 1.389 . S
C746 C745 1.389 . S
C746 C747 1.387 . S
C747 H732 0.930 . S
C747 C742 1.390 . S
C747 C746 1.387 . S
H748 C760 0.930 . S
H749 C762 0.930 . S
H750 C763 0.930 . S
H751 C767 0.959 . S
H752 C767 0.959 . S
H753 C767 0.961 . S
H754 C768 0.960 . S
H755 C768 0.961 . S
H756 C768 0.959 . S
H757 C771 0.929 . S
H758 C772 0.931 . S
H759 C774 0.930 . S
C760 H748 0.930 . S
C760 C761 1.399 . S
C760 C765 1.399 . S
C761 C760 1.399 . S
C761 C762 1.376 . S
C762 H749 0.930 . S
C762 C761 1.376 . S
C762 C763 1.388 . S
C763 H750 0.930 . S
C763 C762 1.388 . S
C763 C764 1.390 . S
C764 C763 1.390 . S
C764 C765 1.394 . S
C764 C770 1.465 . S
C765 C760 1.399 . S
C765 C764 1.394 . S
C765 C766 1.516 . S
C766 C765 1.516 . S
C766 C767 1.502 . S
C766 C768 1.561 . S
C766 C769 1.526 . S
C767 H751 0.959 . S
C767 H752 0.959 . S
C767 H753 0.961 . S
C767 C766 1.502 . S
C768 H754 0.960 . S
C768 H755 0.961 . S
C768 H756 0.959 . S
C768 C766 1.561 . S
C769 C766 1.526 . S
C769 C770 1.396 . S
C769 C774 1.390 . S
C770 C764 1.465 . S
C770 C769 1.396 . S
C770 C771 1.399 . S
C771 H757 0.929 . S
C771 C770 1.399 . S
C771 C772 1.385 . S
C772 H758 0.931 . S
C772 C771 1.385 . S
C772 C773 1.389 . S
C773 C772 1.389 . S
C773 C774 1.387 . S
C774 H759 0.930 . S
C774 C769 1.390 . S
C774 C773 1.387 . S
H775 C787 0.930 . S
H776 C789 0.930 . S
H777 C790 0.930 . S
H778 C794 0.959 . S
H779 C794 0.959 . S
H780 C794 0.961 . S
H781 C795 0.960 . S
H782 C795 0.961 . S
H783 C795 0.959 . S
H784 C798 0.929 . S
H785 C799 0.931 . S
H786 C801 0.930 . S
C787 H775 0.930 . S
C787 C788 1.399 1_545 S
C787 C792 1.399 . S
C788 C787 1.399 1_565 S
C788 C789 1.376 . S
C789 H776 0.930 . S
C789 C788 1.376 . S
C789 C790 1.388 . S
C790 H777 0.930 . S
C790 C789 1.388 . S
C790 C791 1.390 . S
C791 C790 1.390 . S
C791 C792 1.394 1_565 S
C791 C797 1.465 . S
C792 C787 1.399 . S
C792 C791 1.394 1_545 S
C792 C793 1.516 . S
C793 C792 1.516 . S
C793 C794 1.502 . S
C793 C795 1.561 . S
C793 C796 1.526 . S
C794 H778 0.959 . S
C794 H779 0.959 . S
C794 H780 0.961 . S
C794 C793 1.502 . S
C795 H781 0.960 . S
C795 H782 0.961 . S
C795 H783 0.959 . S
C795 C793 1.561 . S
C796 C793 1.526 . S
C796 C797 1.396 1_545 S
C796 C801 1.390 . S
C797 C791 1.465 . S
C797 C796 1.396 1_565 S
C797 C798 1.399 . S
C798 H784 0.929 . S
C798 C797 1.399 . S
C798 C799 1.385 . S
C799 H785 0.931 . S
C799 C798 1.385 . S
C799 C800 1.389 . S
C800 C799 1.389 . S
C800 C801 1.387 1_565 S
C801 H786 0.930 . S
C801 C796 1.390 . S
C801 C800 1.387 1_545 S
H802 C814 0.930 . S
H803 C816 0.930 . S
H804 C817 0.930 . S
H805 C821 0.959 . S
H806 C821 0.959 . S
H807 C821 0.961 . S
H808 C822 0.960 . S
H809 C822 0.961 . S
H810 C822 0.959 . S
H811 C825 0.929 . S
H812 C826 0.931 . S
H813 C828 0.930 . S
C814 H802 0.930 . S
C814 C815 1.399 . S
C814 C819 1.399 . S
C815 C814 1.399 . S
C815 C816 1.376 . S
C816 H803 0.930 . S
C816 C815 1.376 . S
C816 C817 1.388 . S
C817 H804 0.930 . S
C817 C816 1.388 . S
C817 C818 1.390 . S
C818 C817 1.390 . S
C818 C819 1.394 . S
C818 C824 1.465 . S
C819 C814 1.399 . S
C819 C818 1.394 . S
C819 C820 1.516 . S
C820 C819 1.516 . S
C820 C821 1.502 . S
C820 C822 1.561 . S
C820 C823 1.526 . S
C821 H805 0.959 . S
C821 H806 0.959 . S
C821 H807 0.961 . S
C821 C820 1.502 . S
C822 H808 0.960 . S
C822 H809 0.961 . S
C822 H810 0.959 . S
C822 C820 1.561 . S
C823 C820 1.526 . S
C823 C824 1.396 . S
C823 C828 1.390 . S
C824 C818 1.465 . S
C824 C823 1.396 . S
C824 C825 1.399 . S
C825 H811 0.929 . S
C825 C824 1.399 . S
C825 C826 1.385 . S
C826 H812 0.931 . S
C826 C825 1.385 . S
C826 C827 1.389 . S
C827 C826 1.389 . S
C827 C828 1.387 . S
C828 H813 0.930 . S
C828 C823 1.390 . S
C828 C827 1.387 . S
H829 C841 0.930 . S
H830 C843 0.930 . S
H831 C844 0.930 . S
H832 C848 0.959 . S
H833 C848 0.959 . S
H834 C848 0.961 . S
H835 C849 0.960 . S
H836 C849 0.961 . S
H837 C849 0.959 . S
H838 C852 0.929 . S
H839 C853 0.931 . S
H840 C855 0.930 . S
C841 H829 0.930 . S
C841 C842 1.399 . S
C841 C846 1.399 . S
C842 C841 1.399 . S
C842 C843 1.376 . S
C843 H830 0.930 . S
C843 C842 1.376 . S
C843 C844 1.388 . S
C844 H831 0.930 . S
C844 C843 1.388 . S
C844 C845 1.390 . S
C845 C844 1.390 . S
C845 C846 1.394 . S
C845 C851 1.465 . S
C846 C841 1.399 . S
C846 C845 1.394 . S
C846 C847 1.516 . S
C847 C846 1.516 . S
C847 C848 1.502 . S
C847 C849 1.561 . S
C847 C850 1.526 . S
C848 H832 0.959 . S
C848 H833 0.959 . S
C848 H834 0.961 . S
C848 C847 1.502 . S
C849 H835 0.960 . S
C849 H836 0.961 . S
C849 H837 0.959 . S
C849 C847 1.561 . S
C850 C847 1.526 . S
C850 C851 1.396 . S
C850 C855 1.390 . S
C851 C845 1.465 . S
C851 C850 1.396 . S
C851 C852 1.399 . S
C852 H838 0.929 . S
C852 C851 1.399 . S
C852 C853 1.385 . S
C853 H839 0.931 . S
C853 C852 1.385 . S
C853 C854 1.389 . S
C854 C853 1.389 . S
C854 C855 1.387 . S
C855 H840 0.930 . S
C855 C850 1.390 . S
C855 C854 1.387 . S
C221 C61 1.799 . S
C233 C89 1.808 . S
C260 C110 1.532 . S
C248 C70 1.546 . S
C287 C144 1.367 . S
C275 C43 1.321 . S
C314 C178 1.559 . S
C302 C52 1.503 . S
C341 C80 1.816 . S
C329 C25 1.772 1_545 S
C356 C34 1.520 . S
C368 C119 1.562 . S
C383 C7 1.303 . S
C395 C153 1.393 . S
C410 C16 1.553 . S
C422 C187 1.542 . S
C449 C101 0.292 . S
C437 C50 0.692 . S
C476 C106 0.723 . S
C464 C59 0.693 . S
C503 C140 0.723 . S
C491 C67 0.632 . S
C518 C41 0.425 . S
C530 C174 0.353 . S
C545 C14 0.623 . S
C557 C72 0.390 . S
C584 C135 0.722 . S
C572 C23 0.654 1_545 S
C611 C169 0.723 . S
C599 C31 0.669 . S
C626 C5 0.448 . S
C638 C203 0.352 . S
C653 C49 1.331 . S
C665 C85 1.367 . S
C680 C58 1.724 . S
C692 C114 1.795 . S
C719 C148 1.534 . S
C707 C68 1.519 . S
C746 C182 1.539 . S
C734 C40 1.480 . S
C761 C13 1.296 . S
C773 C76 1.399 . S
C800 C123 1.796 . S
C788 C22 1.719 . S
C827 C157 1.529 . S
C815 C32 1.517 . S
C842 C4 1.457 . S
C854 C191 1.553 . S
