# Generated by pormake.
# Topology pyr, (3,6)-cn, num edge types: 1
# Building blocks:
#     Node 0, Type 0, BuildingBlock: CUQRIR_clean_linker_1, # of connection points: 3
#     Node 1, Type 0, BuildingBlock: CUQRIR_clean_linker_1, # of connection points: 3
#     Node 2, Type 0, BuildingBlock: CUQRIR_clean_linker_1, # of connection points: 3
#     Node 3, Type 0, BuildingBlock: CUQRIR_clean_linker_1, # of connection points: 3
#     Node 4, Type 0, BuildingBlock: CUQRIR_clean_linker_1, # of connection points: 3
#     Node 5, Type 0, BuildingBlock: CUQRIR_clean_linker_1, # of connection points: 3
#     Node 6, Type 0, BuildingBlock: CUQRIR_clean_linker_1, # of connection points: 3
#     Node 7, Type 0, BuildingBlock: CUQRIR_clean_linker_1, # of connection points: 3
#     Node 8, Type 1, BuildingBlock: GEDQOX_clean_sbu_0, # of connection points: 6
#     Node 9, Type 1, BuildingBlock: GEDQOX_clean_sbu_0, # of connection points: 6
#     Node 10, Type 1, BuildingBlock: GEDQOX_clean_sbu_0, # of connection points: 6
#     Node 11, Type 1, BuildingBlock: GEDQOX_clean_sbu_0, # of connection points: 6
#     Edge 12, Type (0, 1), BuildingBlock: TEMPAE_clean_linker_10, # of connection points: 2
#     Edge 13, Type (0, 1), BuildingBlock: TEMPAE_clean_linker_10, # of connection points: 2
#     Edge 14, Type (0, 1), BuildingBlock: TEMPAE_clean_linker_10, # of connection points: 2
#     Edge 15, Type (0, 1), BuildingBlock: TEMPAE_clean_linker_10, # of connection points: 2
#     Edge 16, Type (0, 1), BuildingBlock: TEMPAE_clean_linker_10, # of connection points: 2
#     Edge 17, Type (0, 1), BuildingBlock: TEMPAE_clean_linker_10, # of connection points: 2
#     Edge 18, Type (0, 1), BuildingBlock: TEMPAE_clean_linker_10, # of connection points: 2
#     Edge 19, Type (0, 1), BuildingBlock: TEMPAE_clean_linker_10, # of connection points: 2
#     Edge 20, Type (0, 1), BuildingBlock: TEMPAE_clean_linker_10, # of connection points: 2
#     Edge 21, Type (0, 1), BuildingBlock: TEMPAE_clean_linker_10, # of connection points: 2
#     Edge 22, Type (0, 1), BuildingBlock: TEMPAE_clean_linker_10, # of connection points: 2
#     Edge 23, Type (0, 1), BuildingBlock: TEMPAE_clean_linker_10, # of connection points: 2
#     Edge 24, Type (0, 1), BuildingBlock: TEMPAE_clean_linker_10, # of connection points: 2
#     Edge 25, Type (0, 1), BuildingBlock: TEMPAE_clean_linker_10, # of connection points: 2
#     Edge 26, Type (0, 1), BuildingBlock: TEMPAE_clean_linker_10, # of connection points: 2
#     Edge 27, Type (0, 1), BuildingBlock: TEMPAE_clean_linker_10, # of connection points: 2
#     Edge 28, Type (0, 1), BuildingBlock: TEMPAE_clean_linker_10, # of connection points: 2
#     Edge 29, Type (0, 1), BuildingBlock: TEMPAE_clean_linker_10, # of connection points: 2
#     Edge 30, Type (0, 1), BuildingBlock: TEMPAE_clean_linker_10, # of connection points: 2
#     Edge 31, Type (0, 1), BuildingBlock: TEMPAE_clean_linker_10, # of connection points: 2
#     Edge 32, Type (0, 1), BuildingBlock: TEMPAE_clean_linker_10, # of connection points: 2
#     Edge 33, Type (0, 1), BuildingBlock: TEMPAE_clean_linker_10, # of connection points: 2
#     Edge 34, Type (0, 1), BuildingBlock: TEMPAE_clean_linker_10, # of connection points: 2
#     Edge 35, Type (0, 1), BuildingBlock: TEMPAE_clean_linker_10, # of connection points: 2
# Relax obj value: 0.189
# Max RMSD: 0.235
# Mean RMSD: 0.165
data_MOF--net-pyr--node1-GEDQOX_clean_sbu_0--node2-CUQRIR_clean_linker_1--edge1-TEMPAE_clean_linker_10
_symmetry_space_group_name_H-M    P1
_symmetry_Int_Tables_number       1
_symmetry_cell_setting            triclinic
loop_
_symmetry_equiv_pos_as_xyz
'x, y, z'
_cell_length_a     36.926805
_cell_length_b     37.172127
_cell_length_c     32.074858
_cell_angle_alpha  86.155529
_cell_angle_beta   92.946276
_cell_angle_gamma 89.174972
loop_
_atom_site_label
_atom_site_type_symbol
_atom_site_fract_x
_atom_site_fract_y
_atom_site_fract_z
_atom_type_partial_charge
C0 C 0.21515 0.21845 0.19161 0.0
N1 N 0.23845 0.18947 0.2003 0.0
N2 N 0.22672 0.24193 0.16096 0.0
C3 C 0.18098 0.22438 0.21412 0.0
C4 C 0.25843 0.22595 0.15098 0.0
N5 N 0.26633 0.19411 0.17472 0.0
C6 C 0.28027 0.24058 0.11554 0.0
H7 H 0.15937 0.20724 0.20119 0.0
H8 H 0.17158 0.25293 0.21012 0.0
H9 H 0.18533 0.21648 0.24801 0.0
H10 H 0.30189 0.25792 0.12805 0.0
H11 H 0.26297 0.25735 0.09225 0.0
H12 H 0.29304 0.21841 0.09966 0.0
C13 C 0.38129 0.74514 0.81632 0.0
N14 N 0.38005 0.77588 0.8367 0.0
N15 N 0.41509 0.73043 0.81928 0.0
C16 C 0.3514 0.73331 0.78677 0.0
C17 C 0.43449 0.75331 0.84232 0.0
N18 N 0.41331 0.78111 0.85274 0.0
C19 C 0.47449 0.74886 0.85282 0.0
H20 H 0.35607 0.7053 0.77808 0.0
H21 H 0.35019 0.75161 0.75793 0.0
H22 H 0.32484 0.73491 0.80122 0.0
H23 H 0.48958 0.76249 0.82742 0.0
H24 H 0.48243 0.71984 0.85512 0.0
H25 H 0.48213 0.76084 0.88273 0.0
C26 C 0.72765 0.42779 0.84987 0.0
N27 N 0.75313 0.41716 0.88022 0.0
N28 N 0.74116 0.45248 0.82219 0.0
C29 C 0.69103 0.41083 0.84442 0.0
C30 C 0.77599 0.45597 0.83613 0.0
N31 N 0.78335 0.43418 0.87114 0.0
C32 C 0.80259 0.48115 0.8162 0.0
H33 H 0.67976 0.41443 0.81168 0.0
H34 H 0.67198 0.42326 0.86518 0.0
H35 H 0.69306 0.38161 0.85334 0.0
H36 H 0.78851 0.50249 0.79529 0.0
H37 H 0.82086 0.46545 0.79754 0.0
H38 H 0.81959 0.4938 0.84054 0.0
C39 C 0.8159 0.86174 0.25444 0.0
N40 N 0.85097 0.87152 0.25159 0.0
N41 N 0.80084 0.87643 0.28716 0.0
C42 C 0.7989 0.83187 0.23093 0.0
C43 C 0.82798 0.896 0.30362 0.0
N44 N 0.85849 0.89272 0.28252 0.0
C45 C 0.82617 0.91398 0.34414 0.0
H46 H 0.77015 0.82782 0.23811 0.0
H47 H 0.8144 0.80634 0.23907 0.0
H48 H 0.80016 0.8382 0.19678 0.0
H49 H 0.79769 0.92097 0.35024 0.0
H50 H 0.84272 0.93869 0.34332 0.0
H51 H 0.83738 0.89527 0.37019 0.0
C52 C 0.87169 0.87208 0.90345 0.0
N53 N 0.90087 0.86655 0.87948 0.0
N54 N 0.85298 0.90364 0.89166 0.0
C55 C 0.85988 0.84483 0.93664 0.0
C56 C 0.87244 0.91691 0.85878 0.0
N57 N 0.90108 0.89469 0.85077 0.0
C58 C 0.86538 0.95337 0.8363 0.0
H59 H 0.86784 0.81706 0.92964 0.0
H60 H 0.83006 0.84605 0.93927 0.0
H61 H 0.87329 0.85058 0.96717 0.0
H62 H 0.85292 0.97224 0.85702 0.0
H63 H 0.84664 0.95043 0.80863 0.0
H64 H 0.89089 0.96515 0.8252 0.0
C65 C 0.72995 0.32421 0.29661 0.0
N66 N 0.73525 0.29472 0.27491 0.0
N67 N 0.69513 0.33621 0.2912 0.0
C68 C 0.75768 0.33869 0.32696 0.0
C69 C 0.67932 0.31281 0.26567 0.0
N70 N 0.70359 0.28734 0.25611 0.0
C71 C 0.63956 0.31338 0.25278 0.0
H72 H 0.74782 0.36352 0.34038 0.0
H73 H 0.78293 0.34495 0.31089 0.0
H74 H 0.76449 0.31777 0.35262 0.0
H75 H 0.62874 0.34145 0.24895 0.0
H76 H 0.62466 0.29869 0.27762 0.0
H77 H 0.63459 0.30021 0.22303 0.0
C78 C 0.37708 0.57885 0.15702 0.0
N79 N 0.40648 0.59477 0.17402 0.0
N80 N 0.36996 0.59175 0.11691 0.0
C81 C 0.35228 0.55432 0.18099 0.0
C82 C 0.39672 0.61558 0.11004 0.0
N83 N 0.41897 0.61737 0.14459 0.0
C84 C 0.3972 0.64179 0.07227 0.0
H85 H 0.36676 0.54067 0.20899 0.0
H86 H 0.3411 0.53375 0.1606 0.0
H87 H 0.32916 0.57042 0.1911 0.0
H88 H 0.38374 0.66743 0.07926 0.0
H89 H 0.38251 0.63087 0.04494 0.0
H90 H 0.42556 0.64778 0.06466 0.0
C91 C 0.27186 0.19226 0.81738 0.0
N92 N 0.28294 0.17934 0.78167 0.0
N93 N 0.29775 0.21277 0.83489 0.0
C94 C 0.23366 0.18993 0.83144 0.0
C95 C 0.32559 0.21004 0.8092 0.0
N96 N 0.31618 0.19113 0.77575 0.0
C97 C 0.35957 0.23185 0.81262 0.0
H98 H 0.21823 0.21461 0.8193 0.0
H99 H 0.23367 0.1884 0.86609 0.0
H100 H 0.21986 0.16602 0.81965 0.0
H101 H 0.38334 0.21526 0.8053 0.0
H102 H 0.36388 0.24144 0.84451 0.0
H103 H 0.35747 0.25546 0.78952 0.0
Nd104 Nd 0.10456 0.99805 0.52447 0.0
Nd105 Nd 0.05783 0.05727 0.52375 0.0
C106 C 0.13848 0.93469 0.53305 0.0
C107 C 0.15526 0.9146 0.57024 0.0
C108 C 0.18651 0.89357 0.56652 0.0
C109 C 0.2062 0.87919 0.60228 0.0
C110 C 0.19492 0.88558 0.64247 0.0
C111 C 0.1628 0.90566 0.646 0.0
C112 C 0.14325 0.92019 0.6102 0.0
C113 C 0.1345 0.05214 0.56911 0.0
C114 C 1.04513 0.99775 0.60017 0.0
C115 C 1.02286 0.1203 0.51633 0.0
C116 C 0.99841 0.13784 0.48314 0.0
C117 C 0.99352 0.17535 0.48005 0.0
C118 C 0.96848 0.19177 0.45019 0.0
C119 C 0.94765 0.17087 0.42313 0.0
C120 C 0.95359 0.13329 0.4256 0.0
C121 C 0.97885 0.11699 0.45514 0.0
C122 C 1.02793 1.00428 0.47713 0.0
C123 C 0.11914 0.05764 0.4497 0.0
O124 O 0.10314 0.93822 0.53122 0.0
O125 O 0.15449 0.96468 0.52239 0.0
O126 O 0.15153 0.03452 0.54266 0.0
O127 O 0.10252 0.04135 0.57175 0.0
O128 O 0.06437 0.97775 0.57624 0.0
O129 O 1.04277 0.03284 0.58984 0.0
O130 O 0.05681 0.11657 0.50768 0.0
O131 O 1.01037 0.09137 0.5354 0.0
O132 O 1.01076 1.02212 0.50326 0.0
O133 O 0.06027 1.01434 0.47592 0.0
O134 O 0.09949 0.07766 0.47337 0.0
O135 O 0.12103 0.02247 0.4594 0.0
H136 H 0.19653 0.88953 0.53598 0.0
H137 H 0.23111 0.86434 0.59839 0.0
H138 H 0.15315 0.91073 0.67642 0.0
H139 H 0.11945 0.93681 0.61384 0.0
H140 H 1.00865 0.19189 0.50113 0.0
H141 H 0.96517 0.22083 0.44864 0.0
H142 H 0.93786 0.11625 0.40571 0.0
H143 H 0.98243 0.08793 0.45682 0.0
Nd144 Nd 0.56426 1.01725 0.08466 0.0
Nd145 Nd 0.55593 0.05717 1.01552 0.0
C146 C 0.57541 0.96325 0.14265 0.0
C147 C 0.56056 0.92719 0.14968 0.0
C148 C 0.58162 0.89997 0.17195 0.0
C149 C 0.56941 0.86453 0.17485 0.0
C150 C 0.53596 0.85588 0.15537 0.0
C151 C 0.51457 0.88357 0.13396 0.0
C152 C 0.52686 0.91888 0.13096 0.0
C153 C 0.50343 0.0636 0.09303 0.0
C154 C 0.5152 0.98521 1.00903 0.0
C155 C 0.55187 0.1119 0.95829 0.0
C156 C 0.57496 0.14393 0.95413 0.0
C157 C 0.57987 0.16662 0.9873 0.0
C158 C 0.60537 0.19395 0.98556 0.0
C159 C 0.6261 0.19952 0.95033 0.0
C160 C 0.62054 0.17748 0.91667 0.0
C161 C 0.59527 0.14986 0.91863 0.0
C162 C 0.61614 1.01029 1.00836 0.0
C163 C 0.60431 0.08923 0.09169 0.0
O164 O 0.59423 0.96772 0.10957 0.0
O165 O 0.55356 0.99047 0.14674 0.0
O166 O 0.53058 0.0577 0.12009 0.0
O167 O 0.50981 0.04664 0.06051 0.0
O168 O 0.53803 0.97689 0.04106 0.0
O169 O 0.51211 1.0189 0.99447 0.0
O170 O 0.53152 0.10956 0.99035 0.0
O171 O 0.56765 0.08125 0.95237 0.0
O172 O 0.58805 1.01376 0.98239 0.0
O173 O 0.61026 0.02907 0.03952 0.0
O174 O 0.58126 0.09759 0.05995 0.0
O175 O 0.60758 0.05561 0.10586 0.0
H176 H 0.60793 0.90595 0.18611 0.0
H177 H 0.58666 0.84377 0.19119 0.0
H178 H 0.48842 0.87791 0.1192 0.0
H179 H 0.51037 0.93956 0.11332 0.0
H180 H 0.5644 0.16295 1.01496 0.0
H181 H 0.60862 0.21096 1.01159 0.0
H182 H 0.63621 0.1812 0.88913 0.0
H183 H 0.59218 0.1326 0.89282 0.0
Nd184 Nd 0.502 0.5154 0.53565 0.0
Nd185 Nd 0.55977 0.57197 0.52481 0.0
C186 C 0.4441 0.47463 0.54178 0.0
C187 C 0.43791 0.43639 0.55358 0.0
C188 C 0.40557 0.42029 0.54045 0.0
C189 C 0.39797 0.38502 0.5551 0.0
C190 C 0.42255 0.36555 0.58335 0.0
C191 C 0.4557 0.38119 0.59479 0.0
C192 C 0.46339 0.41626 0.57988 0.0
C193 C 0.56475 0.50079 0.58381 0.0
C194 C 0.50125 0.58425 0.5911 0.0
C195 C 0.61682 0.61389 0.52077 0.0
C196 C 0.62861 0.64386 0.49307 0.0
C197 C 0.65285 0.6687 0.50908 0.0
C198 C 0.66294 0.69859 0.48399 0.0
C199 C 0.64893 0.70407 0.44241 0.0
C200 C 0.62461 0.67905 0.4264 0.0
C201 C 0.61431 0.64923 0.45169 0.0
C202 C 0.49874 0.58472 0.47152 0.0
C203 C 0.56645 0.49765 0.47639 0.0
O204 O 0.45697 0.49363 0.57184 0.0
O205 O 0.45953 0.48184 0.50649 0.0
O206 O 0.54467 0.47574 0.56917 0.0
O207 O 0.54961 0.53108 0.57666 0.0
O208 O 0.48002 0.5655 0.56651 0.0
O209 O 0.5364 0.58437 0.58645 0.0
O210 O 0.61576 0.58206 0.50565 0.0
O211 O 0.58864 0.62093 0.54197 0.0
O212 O 0.51771 0.60989 0.48753 0.0
O213 O 0.51367 0.55478 0.482 0.0
O214 O 0.5844 0.52359 0.49421 0.0
O215 O 0.53197 0.49194 0.483 0.0
H216 H 0.38567 0.43541 0.52003 0.0
H217 H 0.37208 0.37371 0.54612 0.0
H218 H 0.47518 0.36667 0.61634 0.0
H219 H 0.4887 0.42809 0.59009 0.0
H220 H 0.66386 0.66504 0.54109 0.0
H221 H 0.68219 0.71713 0.4969 0.0
H222 H 0.61335 0.68274 0.39451 0.0
H223 H 0.59506 0.63052 0.43909 0.0
Nd224 Nd 1.03889 0.5515 0.04826 0.0
Nd225 Nd 0.08655 0.55388 0.97574 0.0
C226 C 0.98334 0.55681 0.09613 0.0
C227 C 0.96248 0.58887 0.10636 0.0
C228 C 0.95288 0.61611 0.07508 0.0
C229 C 0.94069 0.64984 0.08567 0.0
C230 C 0.93692 0.65648 0.1277 0.0
C231 C 0.944 0.62854 0.15887 0.0
C232 C 0.95703 0.595 0.14828 0.0
C233 C 0.1047 0.58155 0.06417 0.0
C234 C 1.03287 0.62434 0.97679 0.0
C235 C 0.14132 0.54522 0.92793 0.0
C236 C 0.15865 0.51072 0.92024 0.0
C237 C 0.19512 0.50872 0.9105 0.0
C238 C 0.21211 0.47505 0.90799 0.0
C239 C 0.19289 0.44298 0.91572 0.0
C240 C 0.15633 0.44539 0.92548 0.0
C241 C 0.1394 0.47885 0.92755 0.0
C242 C 1.02107 0.52203 0.96152 0.0
C243 C 0.09568 0.48251 0.04798 0.0
O244 O 0.97989 0.5476 0.0574 0.0
O245 O 1.01704 0.55557 0.11086 0.0
O246 O 0.0883 0.56142 0.09162 0.0
O247 O 0.08524 0.58712 0.03087 0.0
O248 O 1.0174 0.60395 1.00664 0.0
O249 O 0.06372 0.61281 0.96219 0.0
O250 O 0.14562 0.5542 0.96655 0.0
O251 O 0.10782 0.54974 0.91284 0.0
O252 O 1.03569 0.5438 0.93418 0.0
O253 O 1.04125 0.51687 0.99423 0.0
O254 O 0.10965 0.50244 1.01689 0.0
O255 O 0.0651 0.49373 0.06365 0.0
H256 H 0.95622 0.61177 0.04256 0.0
H257 H 0.935 0.67099 0.0612 0.0
H258 H 0.94119 0.63327 0.19153 0.0
H259 H 0.96444 0.57446 0.17293 0.0
H260 H 0.21051 0.53307 0.90544 0.0
H261 H 0.24018 0.47415 0.89985 0.0
H262 H 0.1409 0.4214 0.9326 0.0
H263 H 0.11139 0.47978 0.93608 0.0
C264 C 0.2462 0.16269 0.27431 0.0
C265 C 0.23163 0.1608 0.23299 0.0
C266 C 0.23047 0.14428 0.30952 0.0
C267 C 0.19833 0.12371 0.30444 0.0
C268 C 0.18439 0.12068 0.26258 0.0
C269 C 0.201 0.13884 0.22806 0.0
C270 C 0.2474 0.14842 0.35263 0.0
C271 C 0.15026 0.09998 0.25423 0.0
C272 C 0.16585 0.05508 0.39257 0.0
C273 C 0.13945 0.07468 0.4126 0.0
C274 C 0.18531 0.07056 0.35851 0.0
C275 C 0.17845 0.10685 0.34241 0.0
C276 C 0.15167 0.1267 0.36235 0.0
C277 C 0.13306 0.11076 0.39687 0.0
C278 C 0.21359 0.04786 0.33973 0.0
C279 C 0.1423 0.16507 0.34687 0.0
H280 H 0.26872 0.18051 0.27945 0.0
H281 H 0.18826 0.13811 0.19694 0.0
H282 H 0.22944 0.16546 0.37014 0.0
H283 H 0.2504 0.12177 0.37034 0.0
H284 H 0.27442 0.16112 0.35154 0.0
H285 H 0.14395 0.09786 0.22025 0.0
H286 H 0.15277 0.07241 0.26972 0.0
H287 H 0.12708 0.11367 0.26765 0.0
H288 H 0.17172 0.02738 0.40385 0.0
H289 H 0.11299 0.12669 0.41132 0.0
H290 H 0.24006 0.06163 0.34086 0.0
H291 H 0.20592 0.04458 0.30633 0.0
H292 H 0.21706 1.0207 0.35626 0.0
H293 H 0.12065 0.177 0.3647 0.0
H294 H 0.13315 0.16612 0.3133 0.0
H295 H 0.16674 0.18194 0.34942 0.0
C296 C 0.45494 0.83176 0.86183 0.0
C297 C 0.42451 0.81245 0.87397 0.0
C298 C 0.46745 0.86078 0.88407 0.0
C299 C 0.44846 0.87136 0.91866 0.0
C300 C 0.41662 0.853 0.92976 0.0
C301 C 0.40509 0.82365 0.90729 0.0
C302 C 0.50154 0.87951 0.87119 0.0
C303 C 0.39522 0.86382 0.9659 0.0
C304 C 0.5036 0.91996 1.00021 0.0
C305 C 0.49567 0.9563 0.98792 0.0
C306 C 0.48777 0.89208 0.97854 0.0
C307 C 0.46295 0.90064 0.94405 0.0
C308 C 0.4537 0.93721 0.93252 0.0
C309 C 0.47035 0.96462 0.95442 0.0
C310 C 0.49849 0.85347 0.99183 0.0
C311 C 0.42685 0.9474 0.89642 0.0
H312 H 0.46912 0.82393 0.83506 0.0
H313 H 0.38132 0.80886 0.91626 0.0
H314 H 0.49596 0.90875 0.86425 0.0
H315 H 0.52249 0.87672 0.89734 0.0
H316 H 0.5128 0.86833 0.84321 0.0
H317 H 0.36948 0.84888 0.96821 0.0
H318 H 0.41169 0.85848 0.99563 0.0
H319 H 0.38882 0.89316 0.96257 0.0
H320 H 0.52299 0.9132 0.02617 0.0
H321 H 0.46387 0.9926 0.9449 0.0
H322 H 0.51052 0.8405 0.96547 0.0
H323 H 0.47416 0.83797 1.00018 0.0
H324 H 0.51842 0.85139 1.01907 0.0
H325 H 0.43808 0.93984 0.86674 0.0
H326 H 0.42031 0.97676 0.89361 0.0
H327 H 0.40136 0.93238 0.90025 0.0
C328 C 0.73608 0.46113 0.74557 0.0
C329 C 0.72299 0.46791 0.78448 0.0
C330 C 0.71467 0.46935 0.70866 0.0
C331 C 0.67934 0.48403 0.71128 0.0
C332 C 0.66712 0.49311 0.75043 0.0
C333 C 0.68937 0.48522 0.78658 0.0
C334 C 0.72894 0.46022 0.66733 0.0
C335 C 0.62955 0.50864 0.7546 0.0
C336 C 0.62012 0.52347 0.61942 0.0
C337 C 0.59693 0.49477 0.61231 0.0
C338 C 0.64879 0.51968 0.64979 0.0
C339 C 0.65361 0.48668 0.67416 0.0
C340 C 0.63117 0.4571 0.66578 0.0
C341 C 0.60324 0.46142 0.63447 0.0
C342 C 0.67276 0.55146 0.65708 0.0
C343 C 0.63527 0.4216 0.69151 0.0
H344 H 0.76212 0.44752 0.74432 0.0
H345 H 0.67966 0.49038 0.81697 0.0
H346 H 0.71522 0.43591 0.65652 0.0
H347 H 0.72301 0.48255 0.64311 0.0
H348 H 0.75864 0.45468 0.66979 0.0
H349 H 0.62522 0.5163 0.78689 0.0
H350 H 0.62469 0.53278 0.73269 0.0
H351 H 0.60903 0.48844 0.74625 0.0
H352 H 0.61539 0.54918 0.60177 0.0
H353 H 0.58524 0.43927 0.62881 0.0
H354 H 0.70173 0.54284 0.65977 0.0
H355 H 0.66636 0.56289 0.68696 0.0
H356 H 0.66895 0.5731 0.63154 0.0
H357 H 0.66363 0.41134 0.69176 0.0
H358 H 0.61694 0.40076 0.67952 0.0
H359 H 0.6291 0.42558 0.72442 0.0
C360 C 0.89995 0.82655 0.25023 0.0
C361 C 0.87681 0.85244 0.2288 0.0
C362 C 0.91584 0.79905 0.22919 0.0
C363 C 0.90695 0.79656 0.18604 0.0
C364 C 0.88638 0.82459 0.16349 0.0
C365 C 0.87204 0.85262 0.18521 0.0
C366 C 0.93873 0.77043 0.25418 0.0
C367 C 0.87582 0.82286 0.11761 0.0
C368 C 0.95197 0.72126 0.13181 0.0
C369 C 0.92784 0.69309 0.13933 0.0
C370 C 0.94526 0.75558 0.14586 0.0
C371 C 0.91332 0.7618 0.16704 0.0
C372 C 0.8881 0.73369 0.17291 0.0
C373 C 0.89599 0.69945 0.15952 0.0
C374 C 0.9731 0.78454 0.1398 0.0
C375 C 0.85318 0.7395 0.19431 0.0
H376 H 0.90279 0.82553 0.28395 0.0
H377 H 0.85382 0.87258 0.16886 0.0
H378 H 0.92221 0.74614 0.26036 0.0
H379 H 0.96223 0.76235 0.23649 0.0
H380 H 0.9489 0.77983 0.28472 0.0
H381 H 0.86637 0.84956 0.1031 0.0
H382 H 0.89878 0.81307 0.10021 0.0
H383 H 0.8534 0.80354 0.11409 0.0
H384 H 0.97673 0.71602 0.1163 0.0
H385 H 0.87737 0.67755 0.16497 0.0
H386 H 0.98677 0.78935 0.1705 0.0
H387 H 0.95998 0.81036 0.12741 0.0
H388 H 0.99404 0.77691 0.11818 0.0
H389 H 0.85929 0.7446 0.2276 0.0
H390 H 0.83517 0.71587 0.1931 0.0
H391 H 0.83828 0.76355 0.17941 0.0
C392 C 0.33403 0.18749 0.16908 0.0
C393 C 0.29956 0.17139 0.17098 0.0
C394 C 0.36552 0.16928 0.15609 0.0
C395 C 0.36433 0.13264 0.14555 0.0
C396 C 0.33002 0.11544 0.14954 0.0
C397 C 0.29843 0.13482 0.16144 0.0
C398 C 0.40011 0.19004 0.15224 0.0
C399 C 0.32639 0.07642 0.1404 0.0
C400 C 0.4398 0.09483 0.07571 0.0
C401 C 0.46659 0.0797 0.1051 0.0
C402 C 0.40692 0.11158 0.08806 0.0
C403 C 0.39892 0.11285 0.1312 0.0
C404 C 0.42548 0.09661 0.16076 0.0
C405 C 0.45848 0.08117 0.14766 0.0
C406 C 0.38095 0.12887 0.0546 0.0
C407 C 0.4191 0.09552 0.20689 0.0
H408 H 0.33613 0.21542 0.17642 0.0
H409 H 0.27252 0.12154 0.1619 0.0
H410 H 0.42189 0.17714 0.17345 0.0
H411 H 0.40925 0.18956 0.11984 0.0
H412 H 0.39681 0.21857 0.15988 0.0
H413 H 0.29985 0.06543 0.14931 0.0
H414 H 0.32908 0.07358 0.1065 0.0
H415 H 0.34845 0.05995 0.15746 0.0
H416 H 0.44495 0.09456 0.04278 0.0
H417 H 0.47815 0.06979 0.17132 0.0
H418 H 0.37719 0.1579 0.05973 0.0
H419 H 0.35401 0.11624 0.0565 0.0
H420 H 0.39059 0.12639 1.02266 0.0
H421 H 0.41932 0.12326 0.21761 0.0
H422 H 0.44004 0.07902 0.22593 0.0
H423 H 0.39203 0.08427 0.21288 0.0
C424 C 0.31772 0.79916 0.83777 0.0
C425 C 0.35337 0.80389 0.82602 0.0
C426 C 0.28887 0.8179 0.81535 0.0
C427 C 0.29624 0.84149 0.78039 0.0
C428 C 0.33262 0.84962 0.77201 0.0
C429 C 0.36084 0.83069 0.79516 0.0
C430 C 0.25053 0.80922 0.82605 0.0
C431 C 0.34179 0.87477 0.7353 0.0
C432 C 0.2352 0.83909 0.6822 0.0
C433 C 0.21775 0.87291 0.68028 0.0
C434 C 0.25988 0.8282 0.71541 0.0
C435 C 0.26701 0.85154 0.74793 0.0
C436 C 0.24812 0.88494 0.7474 0.0
C437 C 0.22387 0.89537 0.71339 0.0
C438 C 0.27946 0.79228 0.7147 0.0
C439 C 0.25458 0.91028 0.78176 0.0
H440 H 0.31226 0.77829 0.86175 0.0
H441 H 0.38856 0.83394 0.78613 0.0
H442 H 0.23287 0.83374 0.82229 0.0
H443 H 0.23939 0.78957 0.80443 0.0
H444 H 0.24938 0.79716 0.85859 0.0
H445 H 0.37069 0.88271 0.73724 0.0
H446 H 0.33665 0.8611 0.7059 0.0
H447 H 0.32445 0.89948 0.73338 0.0
H448 H 0.23004 0.82129 0.65721 0.0
H449 H 0.21075 0.92173 0.71204 0.0
H450 H 0.27613 0.77584 0.74436 0.0
H451 H 0.30891 0.79672 0.71184 0.0
H452 H 0.26949 0.77661 0.68826 0.0
H453 H 0.25514 0.89539 0.81295 0.0
H454 H 0.23345 0.93197 0.78059 0.0
H455 H 0.28134 0.92305 0.77852 0.0
C456 C 0.81878 0.45518 0.93059 0.0
C457 C 0.81636 0.43364 0.89657 0.0
C458 C 0.85268 0.46494 0.9476 0.0
C459 C 0.88461 0.45232 0.93021 0.0
C460 C 0.88204 0.42736 0.89874 0.0
C461 C 0.84776 0.41867 0.88187 0.0
C462 C 0.85414 0.49183 0.98084 0.0
C463 C 0.91538 0.41267 0.87997 0.0
C464 C 0.96246 0.51708 0.9211 0.0
C465 C 0.98621 0.50417 0.95427 0.0
C466 C 0.92912 0.50063 0.91346 0.0
C467 C 0.91966 0.47007 0.93919 0.0
C468 C 0.94365 0.4568 0.97272 0.0
C469 C 0.97661 0.4743 0.98015 0.0
C470 C 0.90399 0.51604 0.8778 0.0
C471 C 0.93472 0.42394 1.00025 0.0
H472 H 0.79417 0.46701 0.94119 0.0
H473 H 0.84544 0.40229 0.85517 0.0
H474 H 0.87562 0.48425 1.0054 0.0
H475 H 0.86083 0.51872 0.96638 0.0
H476 H 0.82781 0.49421 0.9958 0.0
H477 H 0.90915 0.38882 0.86195 0.0
H478 H 0.92656 0.43383 0.85846 0.0
H479 H 0.93672 0.40499 0.9047 0.0
H480 H 0.9698 0.54035 0.9013 0.0
H481 H 0.99511 0.46427 1.00579 0.0
H482 H 0.87723 0.52299 0.88963 0.0
H483 H 0.89935 0.49562 0.85449 0.0
H484 H 0.91495 0.5406 0.86166 0.0
H485 H 0.90864 0.4283 1.01499 0.0
H486 H 0.95614 0.41728 0.02529 0.0
H487 H 0.93131 0.4004 0.98098 0.0
C488 C 0.7368 0.86381 0.29936 0.0
C489 C 0.7736 0.85905 0.31122 0.0
C490 C 0.71066 0.84271 0.31938 0.0
C491 C 0.72204 0.81629 0.35148 0.0
C492 C 0.75923 0.81251 0.36438 0.0
C493 C 0.78451 0.83396 0.344 0.0
C494 C 0.67123 0.8476 0.30508 0.0
C495 C 0.77261 0.78462 0.39835 0.0
C496 C 0.66394 0.76924 0.43096 0.0
C497 C 0.66137 0.7349 0.41554 0.0
C498 C 0.68096 0.79729 0.40852 0.0
C499 C 0.69603 0.7906 0.37007 0.0
C500 C 0.69114 0.75675 0.35295 0.0
C501 C 0.67374 0.72928 0.3759 0.0
C502 C 0.68515 0.83319 0.42744 0.0
C503 C 0.70697 0.74851 0.31208 0.0
H504 H 0.72879 0.88309 0.27358 0.0
H505 H 0.8132 0.83017 0.35236 0.0
H506 H 0.66224 0.82386 0.28834 0.0
H507 H 0.65414 0.84935 0.33235 0.0
H508 H 0.6664 0.87217 0.28372 0.0
H509 H 0.80222 0.7864 0.40584 0.0
H510 H 0.75813 0.78793 0.42733 0.0
H511 H 0.76687 0.75719 0.3883 0.0
H512 H 0.65376 0.77379 0.46132 0.0
H513 H 0.67187 0.70273 0.36397 0.0
H514 H 0.67949 0.85571 0.40339 0.0
H515 H 0.71353 0.83578 0.43984 0.0
H516 H 0.66685 0.83607 0.4535 0.0
H517 H 0.70052 0.77061 0.28776 0.0
H518 H 0.69679 0.72283 0.30049 0.0
H519 H 0.73696 0.74633 0.31648 0.0
C520 C 0.17639 0.27633 0.1184 0.0
C521 C 0.209 0.27609 0.14336 0.0
C522 C 0.15833 0.30909 0.10233 0.0
C523 C 0.17209 0.34344 0.11197 0.0
C524 C 0.205 0.34317 0.13746 0.0
C525 C 0.22299 0.31 0.15224 0.0
C526 C 0.12435 0.30686 0.0746 0.0
C527 C 0.22114 0.3782 0.14969 0.0
C528 C 0.14331 0.43154 0.04323 0.0
C529 C 0.11489 0.44677 0.06462 0.0
C530 C 0.16152 0.39845 0.05769 0.0
C531 C 0.15229 0.37926 0.09558 0.0
C532 C 0.12397 0.39476 0.11769 0.0
C533 C 0.10565 0.42755 0.10198 0.0
C534 C 0.19036 0.38367 0.03155 0.0
C535 C 0.11315 0.37678 0.1586 0.0
H536 H 0.16504 0.25063 0.11118 0.0
H537 H 0.24784 0.31056 0.17165 0.0
H538 H 0.10118 0.31936 0.08932 0.0
H539 H 0.12773 0.32225 0.04422 0.0
H540 H 0.11753 0.27861 0.06854 0.0
H541 H 0.24615 0.37395 0.17032 0.0
H542 H 0.22779 0.39495 0.12127 0.0
H543 H 0.20104 0.39369 0.16619 0.0
H544 H 0.15134 0.44546 1.01456 0.0
H545 H 0.08421 0.43842 0.11952 0.0
H546 H 0.18031 0.35897 1.01749 0.0
H547 H 0.2152 0.37593 0.05118 0.0
H548 H 0.19772 0.40337 1.00594 0.0
H549 H 0.10303 0.34938 0.15361 0.0
H550 H 0.09175 0.39232 0.17307 0.0
H551 H 0.13718 0.37361 0.18089 0.0
C552 C 0.76796 0.35464 0.90417 0.0
C553 C 0.74982 0.38703 0.91014 0.0
C554 C 0.75438 0.3216 0.91985 0.0
C555 C 0.72179 0.32138 0.94133 0.0
C556 C 0.70663 0.35435 0.95249 0.0
C557 C 0.72109 0.38691 0.93692 0.0
C558 C 0.77219 0.287 0.9088 0.0
C559 C 0.67245 0.35538 0.97622 0.0
C560 C 0.65197 0.25259 0.91184 0.0
C561 C 0.65232 0.22927 0.94788 0.0
C562 C 0.67506 0.28204 0.90921 0.0
C563 C 0.69946 0.28834 0.94348 0.0
C564 C 0.70075 0.26421 0.97965 0.0
C565 C 0.67678 0.23514 0.98162 0.0
C566 C 0.6718 0.30735 0.87033 0.0
C567 C 0.72647 0.2694 1.01676 0.0
H568 H 0.7902 0.35489 0.88338 0.0
H569 H 0.70734 0.4122 0.94151 0.0
H570 H 0.77219 0.26638 0.93548 0.0
H571 H 0.75663 0.27622 0.88199 0.0
H572 H 0.80054 0.29129 0.89981 0.0
H573 H 0.6674 0.38238 0.98791 0.0
H574 H 0.64897 0.34881 0.95524 0.0
H575 H 0.67394 0.33498 1.00314 0.0
H576 H 0.63266 0.24846 0.88604 0.0
H577 H 0.67722 0.21697 1.00955 0.0
H578 H 0.69891 0.31388 0.85884 0.0
H579 H 0.65842 0.33279 0.87804 0.0
H580 H 0.65534 0.29595 0.84458 0.0
H581 H 0.75222 0.28165 1.00712 0.0
H582 H 0.73283 0.24339 0.03496 0.0
H583 H 0.71353 0.28766 0.03782 0.0
C584 C 0.90952 0.88223 0.3336 0.0
C585 C 0.89389 0.9021 0.29847 0.0
C586 C 0.93804 0.89606 0.35774 0.0
C587 C 0.95021 0.93129 0.34732 0.0
C588 C 0.9364 0.95034 0.30994 0.0
C589 C 0.90832 0.93535 0.2858 0.0
C590 C 0.95216 0.87457 0.39696 0.0
C591 C 0.94835 0.98808 0.29787 0.0
C592 C 0.9709 0.98469 0.44179 0.0
C593 C 1.00886 0.98498 0.44399 0.0
C594 C 0.95172 0.96798 0.40989 0.0
C595 C 0.97098 0.95058 0.37965 0.0
C596 C 1.00939 0.95056 0.38176 0.0
C597 C 1.02796 0.96799 0.4139 0.0
C598 C 0.91072 0.96886 0.40873 0.0
C599 C 1.03075 0.93186 0.35041 0.0
H600 H 0.89736 0.85706 0.34406 0.0
H601 H 0.89549 0.95089 0.25912 0.0
H602 H 0.98199 0.87697 0.40147 0.0
H603 H 0.93973 0.88526 0.42449 0.0
H604 H 0.94545 0.84557 0.39614 0.0
H605 H 0.94051 0.99633 0.26466 0.0
H606 H 0.9354 1.00721 0.31792 0.0
H607 H 0.97814 0.99039 0.3029 0.0
H608 H 0.956 0.99791 0.46487 0.0
H609 H 0.05735 0.96823 0.41558 0.0
H610 H 0.90041 0.94102 0.41269 0.0
H611 H 0.8997 0.98073 0.37793 0.0
H612 H 0.89994 0.98477 0.43361 0.0
H613 H 1.02481 0.90264 0.35237 0.0
H614 H 0.06045 0.93519 0.35563 0.0
H615 H 1.02246 0.94263 0.31819 0.0
C616 C 0.42714 0.67016 0.79528 0.0
C617 C 0.42927 0.70763 0.7894 0.0
C618 C 0.43755 0.64796 0.764 0.0
C619 C 0.44982 0.6639 0.72597 0.0
C620 C 0.45192 0.70191 0.72016 0.0
C621 C 0.44171 0.72329 0.75208 0.0
C622 C 0.43535 0.60756 0.77151 0.0
C623 C 0.46468 0.72002 0.68011 0.0
C624 C 0.51103 0.6124 0.65888 0.0
C625 C 0.48693 0.60299 0.62625 0.0
C626 C 0.499 0.63106 0.6922 0.0
C627 C 0.46197 0.64106 0.69279 0.0
C628 C 0.43727 0.63108 0.6604 0.0
C629 C 0.45003 0.61187 0.62757 0.0
C630 C 0.52615 0.64076 0.72632 0.0
C631 C 0.39762 0.64162 0.65984 0.0
H632 H 0.4169 0.65846 0.82411 0.0
H633 H 0.44255 0.75243 0.74772 0.0
H634 H 0.41703 0.5966 0.74716 0.0
H635 H 0.46252 0.59496 0.76908 0.0
H636 H 0.42529 0.59947 0.80276 0.0
H637 H 0.46376 0.7499 0.6802 0.0
H638 H 0.49293 0.71128 0.67534 0.0
H639 H 0.44755 0.71186 0.65302 0.0
H640 H 0.53955 0.60519 0.65847 0.0
H641 H 0.43132 0.60461 0.60248 0.0
H642 H 0.51679 0.63135 0.75745 0.0
H643 H 0.52853 0.6705 0.72592 0.0
H644 H 0.55349 0.62886 0.72271 0.0
H645 H 0.38598 0.63223 0.68977 0.0
H646 H 0.38163 0.63028 0.63367 0.0
H647 H 0.39461 0.67144 0.65672 0.0
C648 C 0.91064 0.90521 0.77399 0.0
C649 C 0.92528 0.90131 0.81564 0.0
C650 C 0.93087 0.9191 0.73986 0.0
C651 C 0.96737 0.9303 0.74635 0.0
C652 C 0.98268 0.92557 0.7883 0.0
C653 C 0.96174 0.9114 0.82199 0.0
C654 C 0.91249 0.9229 0.69669 0.0
C655 C 1.02107 0.93677 0.798 0.0
C656 C 1.02805 0.9431 0.64936 0.0
C657 C 1.02608 0.9806 0.63834 0.0
C658 C 1.0099 0.92674 0.68406 0.0
C659 C 0.98865 0.94779 0.70968 0.0
C660 C 0.98688 0.9857 0.69895 0.0
C661 C 1.00525 1.00136 0.66404 0.0
C662 C 1.01322 0.88647 0.69305 0.0
C663 C 0.96513 1.01002 0.72437 0.0
H664 H 0.88246 0.89844 0.76829 0.0
H665 H 0.97347 0.90974 0.85373 0.0
H666 H 0.91013 0.95185 0.6858 0.0
H667 H 0.92904 0.90934 0.67424 0.0
H668 H 0.88494 0.91127 0.69586 0.0
H669 H 1.03024 0.92935 0.83103 0.0
H670 H 1.03977 0.92403 0.7771 0.0
H671 H 1.02309 0.96641 0.79204 0.0
H672 H 1.04376 0.92617 0.63054 0.0
H673 H 1.00304 0.03022 0.65675 0.0
H674 H 0.98604 0.87428 0.68992 0.0
H675 H 1.02382 0.88014 0.72576 0.0
H676 H 1.03142 0.87366 0.67161 0.0
H677 H 0.93621 1.00229 0.72266 0.0
H678 H 0.96696 0.03889 0.71337 0.0
H679 H 0.9748 1.00675 0.75776 0.0
C680 C 0.71317 0.24984 0.19713 0.0
C681 C 0.6958 0.25581 0.23384 0.0
C682 C 0.7025 0.22157 0.17242 0.0
C683 C 0.67397 0.19891 0.18512 0.0
C684 C 0.65769 0.20393 0.22339 0.0
C685 C 0.66899 0.23224 0.24737 0.0
C686 C 0.72072 0.21684 0.13204 0.0
C687 C 0.6272 0.18044 0.23814 0.0
C688 C 0.61322 0.15382 0.10601 0.0
C689 C 0.62447 0.11764 0.11272 0.0
C690 C 0.63017 0.1808 0.12809 0.0
C691 C 0.65926 0.17139 0.15749 0.0
C692 C 0.67181 0.13514 0.16306 0.0
C693 C 0.65408 0.10862 0.14081 0.0
C694 C 0.61581 0.21911 0.12134 0.0
C695 C 0.70315 0.12417 0.19357 0.0
H696 H 0.73404 0.26818 0.18706 0.0
H697 H 0.65621 0.23672 0.27629 0.0
H698 H 0.73025 0.1885 0.13083 0.0
H699 H 0.70092 0.22265 0.10515 0.0
H700 H 0.74416 0.23495 0.12818 0.0
H701 H 0.61859 0.18695 0.26949 0.0
H702 H 0.60345 0.18399 0.21552 0.0
H703 H 0.63562 0.1516 0.23957 0.0
H704 H 0.59019 0.16096 0.08468 0.0
H705 H 0.66315 0.08072 0.14584 0.0
H706 H 0.63815 0.23774 0.11403 0.0
H707 H 0.60413 0.22745 0.15048 0.0
H708 H 0.59452 0.22232 0.09553 0.0
H709 H 0.72649 0.1421 0.18834 0.0
H710 H 0.71215 0.09581 0.19091 0.0
H711 H 0.69502 0.12709 0.22601 0.0
C712 C 0.39166 0.60576 0.24608 0.0
C713 C 0.41678 0.5952 0.21782 0.0
C714 C 0.40153 0.60676 0.28877 0.0
C715 C 0.4375 0.59736 0.3032 0.0
C716 C 0.46323 0.58769 0.2744 0.0
C717 C 0.4525 0.58685 0.23191 0.0
C718 C 0.37347 0.6175 0.31844 0.0
C719 C 0.50192 0.57774 0.28855 0.0
C720 C 0.47748 0.62351 0.40805 0.0
C721 C 0.47699 0.59044 0.43174 0.0
C722 C 0.46327 0.62668 0.36647 0.0
C723 C 0.44806 0.59614 0.34858 0.0
C724 C 0.44535 0.56343 0.37336 0.0
C725 C 0.45992 0.56098 0.41466 0.0
C726 C 0.46656 0.66203 0.34096 0.0
C727 C 0.429 0.53036 0.35555 0.0
H728 H 0.36435 0.61345 0.23459 0.0
H729 H 0.47183 0.57936 0.20955 0.0
H730 H 0.36931 0.59486 0.34196 0.0
H731 H 0.38312 0.64068 0.33575 0.0
H732 H 0.34697 0.62499 0.30196 0.0
H733 H 0.51878 0.57202 0.26197 0.0
H734 H 0.51441 0.59994 0.30538 0.0
H735 H 0.50242 0.5535 0.31076 0.0
H736 H 0.49077 0.64632 0.42115 0.0
H737 H 0.45944 0.53543 0.43304 0.0
H738 H 0.44031 0.66995 0.32427 0.0
H739 H 0.4867 0.65894 0.31688 0.0
H740 H 0.47535 0.68415 0.36061 0.0
H741 H 0.40195 0.53703 0.34009 0.0
H742 H 0.42607 0.50807 0.37993 0.0
H743 H 0.44651 0.52066 0.33138 0.0
C744 C 0.2883 0.27812 0.83121 0.0
C745 C 0.28932 0.24509 0.85498 0.0
C746 C 0.27611 0.30964 0.84764 0.0
C747 C 0.26345 0.30794 0.88858 0.0
C748 C 0.26539 0.27486 0.91339 0.0
C749 C 0.2785 0.24364 0.89621 0.0
C750 C 0.27475 0.34431 0.82009 0.0
C751 C 0.25178 0.27202 0.95702 0.0
C752 C 0.24664 0.40047 0.92718 0.0
C753 C 0.21043 0.40705 0.9129 0.0
C754 C 0.26386 0.36724 0.92211 0.0
C755 C 0.24428 0.33997 0.90259 0.0
C756 C 0.20718 0.34571 0.89037 0.0
C757 C 0.19084 0.37924 0.89528 0.0
C758 C 0.30347 0.36205 0.93549 0.0
C759 C 0.18525 0.31722 0.86962 0.0
H760 H 0.29569 0.27894 0.7989 0.0
H761 H 0.27909 0.21792 0.91428 0.0
H762 H 0.24609 0.35207 0.81136 0.0
H763 H 0.28694 0.36654 0.83716 0.0
H764 H 0.28926 0.34177 0.7909 0.0
H765 H 0.26032 0.24618 0.97439 0.0
H766 H 0.26166 0.2947 0.97503 0.0
H767 H 0.22171 0.27371 0.95515 0.0
H768 H 0.26172 0.42149 0.94179 0.0
H769 H 0.16298 0.38405 0.88373 0.0
H770 H 0.31975 0.36243 0.90733 0.0
H771 H 0.30832 0.33548 0.9529 0.0
H772 H 0.31337 0.38355 0.95543 0.0
H773 H 0.19458 0.31431 0.83766 0.0
H774 H 0.1558 0.32406 0.86707 0.0
H775 H 0.18923 0.29068 0.88736 0.0
C776 C 0.81494 0.91745 0.95326 0.0
C777 C 0.82002 0.91928 0.90969 0.0
C778 C 0.78294 0.93119 0.97082 0.0
C779 C 0.75472 0.94959 0.94511 0.0
C780 C 0.7603 0.95254 0.90116 0.0
C781 C 0.79167 0.93685 0.88435 0.0
C782 C 0.77981 0.92554 1.01746 0.0
C783 C 0.73326 0.97241 0.87079 0.0
C784 C 0.65283 0.96277 0.97284 0.0
C785 C 0.65248 0.99384 0.99592 0.0
C786 C 0.6853 0.94769 0.95804 0.0
C787 C 0.71952 0.96473 0.96365 0.0
C788 C 0.71923 0.99655 0.98666 0.0
C789 C 0.68646 1.00994 1.00306 0.0
C790 C 0.68225 0.91314 0.9361 0.0
C791 C 0.75335 1.01755 0.99379 0.0
H792 H 0.83617 0.90514 0.97422 0.0
H793 H 0.79372 0.93838 0.85075 0.0
H794 H 0.79151 0.94897 0.03268 0.0
H795 H 0.75117 0.9229 0.02598 0.0
H796 H 0.79526 0.90106 0.03035 0.0
H797 H 0.74732 0.98669 0.84489 0.0
H798 H 0.71499 0.95266 0.85659 0.0
H799 H 0.71661 0.9924 0.88591 0.0
H800 H 0.62728 0.94967 0.96652 0.0
H801 H 0.68736 0.03414 1.02011 0.0
H802 H 0.70772 0.89676 0.93977 0.0
H803 H 0.67588 0.91972 0.90226 0.0
H804 H 0.65984 0.89649 0.94818 0.0
H805 H 0.76556 1.00948 0.02541 0.0
H806 H 0.74706 0.04692 0.99291 0.0
H807 H 0.77368 1.0129 0.97035 0.0
C808 C 0.76248 0.23769 0.30503 0.0
C809 C 0.76598 0.27048 0.2817 0.0
C810 C 0.79325 0.2182 0.32188 0.0
C811 C 0.82817 0.23223 0.31547 0.0
C812 C 0.83175 0.26375 0.28875 0.0
C813 C 0.80047 0.28245 0.27203 0.0
C814 C 0.7882 0.18443 0.34963 0.0
C815 C 0.86837 0.27963 0.28098 0.0
C816 C 0.8965 0.21556 0.40732 0.0
C817 C 0.91845 0.18782 0.39416 0.0
C818 C 0.86758 0.2306 0.38158 0.0
C819 C 0.86 0.21734 0.34174 0.0
C820 C 0.88221 0.18968 0.3279 0.0
C821 C 0.91128 0.17535 0.35419 0.0
C822 C 0.84465 0.26027 0.39745 0.0
C823 C 0.87489 0.17485 0.28567 0.0
H824 H 0.73567 0.22878 0.31273 0.0
H825 H 0.80283 0.30785 0.2538 0.0
H826 H 0.80775 0.16298 0.34265 0.0
H827 H 0.79348 0.19037 0.38282 0.0
H828 H 0.76024 0.17402 0.34593 0.0
H829 H 0.86696 0.30046 0.25442 0.0
H830 H 0.87875 0.29235 0.30946 0.0
H831 H 0.88822 0.25832 0.27444 0.0
H832 H 0.90127 0.22497 0.43835 0.0
H833 H 0.92835 0.15427 0.34345 0.0
H834 H 0.81636 0.25112 0.40023 0.0
H835 H 0.84384 0.28429 0.37491 0.0
H836 H 0.85501 0.26851 0.42845 0.0
H837 H 0.84767 0.16259 0.28429 0.0
H838 H 0.89537 0.15412 0.27897 0.0
H839 H 0.87469 0.19695 0.26064 0.0
C840 C 0.31299 0.6256 0.10426 0.0
C841 C 0.33403 0.59506 0.09788 0.0
C842 C 0.27586 0.62695 0.0933 0.0
C843 C 0.2596 0.59694 0.07554 0.0
C844 C 0.28131 0.56699 0.06638 0.0
C845 C 0.31848 0.56629 0.0781 0.0
C846 C 0.25365 0.65917 0.10403 0.0
C847 C 0.26489 0.53471 0.04693 0.0
C848 C 0.16388 0.57601 0.10425 0.0
C849 C 0.14372 0.58874 0.06798 0.0
C850 C 0.20162 0.57894 0.10711 0.0
C851 C 0.21958 0.59464 0.07262 0.0
C852 C 0.19929 0.60834 0.03624 0.0
C853 C 0.16139 0.60567 0.03459 0.0
C854 C 0.2223 0.56468 0.14684 0.0
C855 C 0.21767 0.62488 0.99879 0.0
H856 H 0.32536 0.64748 0.12024 0.0
H857 H 0.33509 0.54273 0.07362 0.0
H858 H 0.23475 0.66849 0.07739 0.0
H859 H 0.23703 0.65136 0.13094 0.0
H860 H 0.27097 0.68203 0.11257 0.0
H861 H 0.28594 0.51635 0.03613 0.0
H862 H 0.24896 0.51935 0.0703 0.0
H863 H 0.24601 0.54342 1.02 0.0
H864 H 0.15022 0.5631 0.13022 0.0
H865 H 0.14568 0.61585 1.00669 0.0
H866 H 0.23896 0.58632 0.15982 0.0
H867 H 0.24112 0.54258 0.13994 0.0
H868 H 0.20407 0.55424 0.17117 0.0
H869 H 0.23505 0.64738 1.0081 0.0
H870 H 0.19788 0.6352 0.97338 0.0
H871 H 0.23561 0.60443 0.98629 0.0
C872 C 0.36307 0.19164 0.72376 0.0
C873 C 0.32852 0.2019 0.73505 0.0
C874 C 0.3801 0.21126 0.69145 0.0
C875 C 0.36225 0.24208 0.67099 0.0
C876 C 0.32591 0.25009 0.67961 0.0
C877 C 0.30956 0.22982 0.71151 0.0
C878 C 0.41843 0.20121 0.68226 0.0
C879 C 0.3058 0.28282 0.65909 0.0
C880 C 0.41428 0.32736 0.64863 0.0
C881 C 0.41173 0.33113 0.60485 0.0
C882 C 0.39997 0.2974 0.67041 0.0
C883 C 0.38319 0.2701 0.64783 0.0
C884 C 0.38257 0.27262 0.60354 0.0
C885 C 0.39639 0.30346 0.58248 0.0
C886 C 0.40052 0.29638 0.71764 0.0
C887 C 0.36583 0.24363 0.57843 0.0
H888 H 0.37774 0.17022 0.74237 0.0
H889 H 0.2833 0.23834 0.72122 0.0
H890 H 0.4227 0.20524 0.64828 0.0
H891 H 0.43756 0.21879 0.69887 0.0
H892 H 0.42515 0.17273 0.69293 0.0
H893 H 0.27638 0.28228 0.66483 0.0
H894 H 0.31725 0.30751 0.67185 0.0
H895 H 0.30899 0.28485 0.62486 0.0
H896 H 0.42572 0.34892 0.66599 0.0
H897 H 0.39466 0.30626 0.54857 0.0
H898 H 0.41135 0.27006 0.73158 0.0
H899 H 0.37242 0.29958 0.72774 0.0
H900 H 0.41719 0.31813 0.73046 0.0
H901 H 0.37376 0.21645 0.59268 0.0
H902 H 0.37394 0.24587 0.54549 0.0
H903 H 0.33585 0.24602 0.57827 0.0
C904 C 0.92537 0.80605 0.86127 0.0
C905 C 0.92664 0.83558 0.88667 0.0
C906 C 0.94361 0.77238 0.87364 0.0
C907 C 0.96399 0.76713 0.91278 0.0
C908 C 0.96608 0.79736 0.93786 0.0
C909 C 0.94748 0.8305 0.92483 0.0
C910 C 0.93969 0.74173 0.84541 0.0
C911 C 0.987 0.79435 0.97961 0.0
C912 C 0.97941 0.67055 0.9685 0.0
C913 C 1.01526 0.66081 0.95985 0.0
C914 C 0.96265 0.70417 0.95332 0.0
C915 C 0.98165 0.73006 0.92834 0.0
C916 C 1.01783 0.72041 0.91929 0.0
C917 C 1.03387 0.68642 0.9347 0.0
C918 C 0.92424 0.712 0.96434 0.0
C919 C 1.03998 0.74636 0.89345 0.0
H920 H 0.90857 0.80868 0.8325 0.0
H921 H 0.94802 0.85236 0.94555 0.0
H922 H 0.96677 0.73055 0.83927 0.0
H923 H 0.92442 0.71968 0.86115 0.0
H924 H 0.92522 0.75019 0.81504 0.0
H925 H 0.98888 0.82068 0.99397 0.0
H926 H 0.97354 0.77501 1.0014 0.0
H927 H 1.01483 0.78374 0.97605 0.0
H928 H 0.96392 0.65158 0.98694 0.0
H929 H 0.06143 0.68009 0.92727 0.0
H930 H 0.90713 0.71957 0.93554 0.0
H931 H 0.92381 0.73525 0.98427 0.0
H932 H 0.91197 0.68859 0.98136 0.0
H933 H 1.0258 0.753 0.8625 0.0
H934 H 0.06743 0.73531 0.88853 0.0
H935 H 1.04293 0.77194 0.90916 0.0
C936 C 0.4767 0.64926 0.14401 0.0
C937 C 0.44019 0.64821 0.15317 0.0
C938 C 0.49632 0.68102 0.14794 0.0
C939 C 0.47849 0.71218 0.16062 0.0
C940 C 0.44186 0.71047 0.17154 0.0
C941 C 0.42319 0.67831 0.16781 0.0
C942 C 0.53551 0.68173 0.13676 0.0
C943 C 0.42177 0.74312 0.18485 0.0
C944 C 0.52799 0.79532 0.19304 0.0
C945 C 0.52364 0.81804 0.15632 0.0
C946 C 0.51481 0.76005 0.19451 0.0
C947 C 0.49663 0.7475 0.15853 0.0
C948 C 0.49316 0.76992 0.12105 0.0
C949 C 0.50691 0.80482 0.12036 0.0
C950 C 0.51925 0.73667 0.23487 0.0
C951 C 0.4738 0.75753 0.08202 0.0
H952 H 0.48941 0.62558 0.13274 0.0
H953 H 0.39477 0.67689 0.17463 0.0
H954 H 0.53802 0.6985 0.10715 0.0
H955 H 0.55239 0.69414 0.16136 0.0
H956 H 0.54651 0.65429 0.13265 0.0
H957 H 0.3942 0.7365 0.19503 0.0
H958 H 0.43716 0.75515 0.21091 0.0
H959 H 0.41912 0.76392 0.15834 0.0
H960 H 0.54077 0.80542 0.221 0.0
H961 H 0.50424 0.82192 0.09162 0.0
H962 H 0.53052 0.70976 0.22896 0.0
H963 H 0.49237 0.73235 0.24814 0.0
H964 H 0.5373 0.74897 0.25855 0.0
H965 H 0.48598 0.7318 0.0734 0.0
H966 H 0.47488 0.77771 0.05496 0.0
H967 H 0.44494 0.75243 0.08805 0.0
C968 C 0.23114 0.18135 0.73011 0.0
C969 C 0.26059 0.16251 0.75087 0.0
C970 C 0.20932 0.16519 0.69981 0.0
C971 C 0.21667 0.12902 0.69115 0.0
C972 C 0.24625 0.10982 0.71257 0.0
C973 C 0.26826 0.1271 0.74178 0.0
C974 C 0.17877 0.18689 0.67675 0.0
C975 C 0.25449 0.07099 0.70487 0.0
C976 C 0.14175 0.07526 0.64026 0.0
C977 C 0.15337 0.07422 0.59949 0.0
C978 C 0.162 0.09322 0.6705 0.0
C979 C 0.19388 0.11139 0.65915 0.0
C980 C 0.20474 0.11168 0.61744 0.0
C981 C 0.18462 0.09257 0.58826 0.0
C982 C 0.15006 0.09163 0.7149 0.0
C983 C 0.23793 0.13165 0.60382 0.0
H984 H 0.2256 0.20889 0.73732 0.0
H985 H 0.29113 0.11287 0.7582 0.0
H986 H 0.18251 0.18796 0.64258 0.0
H987 H 0.15251 0.17372 0.68216 0.0
H988 H 0.17718 0.21492 0.68666 0.0
H989 H 0.27743 0.05946 0.72552 0.0
H990 H 0.23019 0.05439 0.71013 0.0
H991 H 0.26132 0.06886 0.67185 0.0
H992 H 0.11769 0.06078 0.64895 0.0
H993 H 0.1934 0.09188 0.55657 0.0
H994 H 0.14646 0.11925 0.72528 0.0
H995 H 0.17137 0.07785 0.73614 0.0
H996 H 0.12425 0.077 0.7184 0.0
H997 H 0.23649 0.16001 0.61252 0.0
H998 H 0.24098 0.1316 0.56955 0.0
H999 H 0.26259 0.11903 0.62017 0.0
C1000 C 0.67402 0.35053 0.35943 0.0
C1001 C 0.67681 0.36009 0.31682 0.0
C1002 C 0.65617 0.37328 0.38513 0.0
C1003 C 0.64056 0.40624 0.36754 0.0
C1004 C 0.64322 0.4159 0.3243 0.0
C1005 C 0.66145 0.3926 0.29939 0.0
C1006 C 0.65395 0.36202 0.43103 0.0
C1007 C 0.6268 0.45074 0.30444 0.0
C1008 C 0.56634 0.44827 0.42703 0.0
C1009 C 0.58536 0.47459 0.44815 0.0
C1010 C 0.58387 0.42618 0.40023 0.0
C1011 C 0.62134 0.43044 0.39449 0.0
C1012 C 0.64067 0.45708 0.41547 0.0
C1013 C 0.62244 0.47887 0.44202 0.0
C1014 C 0.56235 0.39806 0.37834 0.0
C1015 C 0.6807 0.4623 0.41021 0.0
H1016 H 0.68587 0.32511 0.37243 0.0
H1017 H 0.66382 0.39964 0.26632 0.0
H1018 H 0.66645 0.38272 0.45028 0.0
H1019 H 0.62515 0.35997 0.43904 0.0
H1020 H 0.66782 0.33567 0.43978 0.0
H1021 H 0.6312 0.45418 0.27041 0.0
H1022 H 0.5972 0.45155 0.30889 0.0
H1023 H 0.63874 0.47395 0.31992 0.0
H1024 H 0.53766 0.44481 0.4314 0.0
H1025 H 0.63739 0.49914 0.45815 0.0
H1026 H 0.57357 0.37078 0.38816 0.0
H1027 H 0.56462 0.40212 0.344 0.0
H1028 H 0.53319 0.39886 0.38525 0.0
H1029 H 0.69595 0.43717 0.42099 0.0
H1030 H 0.69161 0.48473 0.42803 0.0
H1031 H 0.68581 0.468 0.37665 0.0
loop_
_geom_bond_atom_site_label_1
_geom_bond_atom_site_label_2
_geom_bond_distance
_geom_bond_site_symmetry_2
_ccdc_geom_bond_type
C0 N1 1.317 . S
C0 N2 1.348 . S
C0 C3 1.485 . S
N1 C0 1.317 . S
N1 N5 1.370 . S
N2 C0 1.348 . S
N2 C4 1.346 . S
C3 C0 1.485 . S
C3 H7 0.960 . S
C3 H8 0.961 . S
C3 H9 0.960 . S
C4 N2 1.346 . S
C4 N5 1.307 . S
C4 C6 1.486 . S
N5 N1 1.370 . S
N5 C4 1.307 . S
C6 C4 1.486 . S
C6 H10 0.960 . S
C6 H11 0.960 . S
C6 H12 0.959 . S
H7 C3 0.960 . S
H8 C3 0.961 . S
H9 C3 0.960 . S
H10 C6 0.960 . S
H11 C6 0.960 . S
H12 C6 0.959 . S
C13 N14 1.317 . S
C13 N15 1.348 . S
C13 C16 1.485 . S
N14 C13 1.317 . S
N14 N18 1.370 . S
N15 C13 1.348 . S
N15 C17 1.346 . S
C16 C13 1.485 . S
C16 H20 0.960 . S
C16 H21 0.961 . S
C16 H22 0.960 . S
C17 N15 1.346 . S
C17 N18 1.307 . S
C17 C19 1.486 . S
N18 N14 1.370 . S
N18 C17 1.307 . S
C19 C17 1.486 . S
C19 H23 0.960 . S
C19 H24 0.960 . S
C19 H25 0.959 . S
H20 C16 0.960 . S
H21 C16 0.961 . S
H22 C16 0.960 . S
H23 C19 0.960 . S
H24 C19 0.960 . S
H25 C19 0.959 . S
C26 N27 1.317 . S
C26 N28 1.348 . S
C26 C29 1.485 . S
N27 C26 1.317 . S
N27 N31 1.370 . S
N28 C26 1.348 . S
N28 C30 1.346 . S
C29 C26 1.485 . S
C29 H33 0.960 . S
C29 H34 0.961 . S
C29 H35 0.960 . S
C30 N28 1.346 . S
C30 N31 1.307 . S
C30 C32 1.486 . S
N31 N27 1.370 . S
N31 C30 1.307 . S
C32 C30 1.486 . S
C32 H36 0.960 . S
C32 H37 0.960 . S
C32 H38 0.959 . S
H33 C29 0.960 . S
H34 C29 0.961 . S
H35 C29 0.960 . S
H36 C32 0.960 . S
H37 C32 0.960 . S
H38 C32 0.959 . S
C39 N40 1.317 . S
C39 N41 1.348 . S
C39 C42 1.485 . S
N40 C39 1.317 . S
N40 N44 1.370 . S
N41 C39 1.348 . S
N41 C43 1.346 . S
C42 C39 1.485 . S
C42 H46 0.960 . S
C42 H47 0.961 . S
C42 H48 0.960 . S
C43 N41 1.346 . S
C43 N44 1.307 . S
C43 C45 1.486 . S
N44 N40 1.370 . S
N44 C43 1.307 . S
C45 C43 1.486 . S
C45 H49 0.960 . S
C45 H50 0.960 . S
C45 H51 0.959 . S
H46 C42 0.960 . S
H47 C42 0.961 . S
H48 C42 0.960 . S
H49 C45 0.960 . S
H50 C45 0.960 . S
H51 C45 0.959 . S
C52 N53 1.317 . S
C52 N54 1.348 . S
C52 C55 1.485 . S
N53 C52 1.317 . S
N53 N57 1.370 . S
N54 C52 1.348 . S
N54 C56 1.346 . S
C55 C52 1.485 . S
C55 H59 0.960 . S
C55 H60 0.961 . S
C55 H61 0.960 . S
C56 N54 1.346 . S
C56 N57 1.307 . S
C56 C58 1.486 . S
N57 N53 1.370 . S
N57 C56 1.307 . S
C58 C56 1.486 . S
C58 H62 0.960 . S
C58 H63 0.960 . S
C58 H64 0.959 . S
H59 C55 0.960 . S
H60 C55 0.961 . S
H61 C55 0.960 . S
H62 C58 0.960 . S
H63 C58 0.960 . S
H64 C58 0.959 . S
C65 N66 1.317 . S
C65 N67 1.348 . S
C65 C68 1.485 . S
N66 C65 1.317 . S
N66 N70 1.370 . S
N67 C65 1.348 . S
N67 C69 1.346 . S
C68 C65 1.485 . S
C68 H72 0.960 . S
C68 H73 0.961 . S
C68 H74 0.960 . S
C69 N67 1.346 . S
C69 N70 1.307 . S
C69 C71 1.486 . S
N70 N66 1.370 . S
N70 C69 1.307 . S
C71 C69 1.486 . S
C71 H75 0.960 . S
C71 H76 0.960 . S
C71 H77 0.959 . S
H72 C68 0.960 . S
H73 C68 0.961 . S
H74 C68 0.960 . S
H75 C71 0.960 . S
H76 C71 0.960 . S
H77 C71 0.959 . S
C78 N79 1.317 . S
C78 N80 1.348 . S
C78 C81 1.485 . S
N79 C78 1.317 . S
N79 N83 1.370 . S
N80 C78 1.348 . S
N80 C82 1.346 . S
C81 C78 1.485 . S
C81 H85 0.960 . S
C81 H86 0.961 . S
C81 H87 0.960 . S
C82 N80 1.346 . S
C82 N83 1.307 . S
C82 C84 1.486 . S
N83 N79 1.370 . S
N83 C82 1.307 . S
C84 C82 1.486 . S
C84 H88 0.960 . S
C84 H89 0.960 . S
C84 H90 0.959 . S
H85 C81 0.960 . S
H86 C81 0.961 . S
H87 C81 0.960 . S
H88 C84 0.960 . S
H89 C84 0.960 . S
H90 C84 0.959 . S
C91 N92 1.317 . S
C91 N93 1.348 . S
C91 C94 1.485 . S
N92 C91 1.317 . S
N92 N96 1.370 . S
N93 C91 1.348 . S
N93 C95 1.346 . S
C94 C91 1.485 . S
C94 H98 0.960 . S
C94 H99 0.961 . S
C94 H100 0.960 . S
C95 N93 1.346 . S
C95 N96 1.307 . S
C95 C97 1.486 . S
N96 N92 1.370 . S
N96 C95 1.307 . S
C97 C95 1.486 . S
C97 H101 0.960 . S
C97 H102 0.960 . S
C97 H103 0.959 . S
H98 C94 0.960 . S
H99 C94 0.961 . S
H100 C94 0.960 . S
H101 C97 0.960 . S
H102 C97 0.960 . S
H103 C97 0.959 . S
Nd104 C106 2.836 . S
Nd104 O124 2.500 . S
Nd104 O125 2.492 . S
Nd104 O126 2.487 1_565 S
Nd104 O127 2.682 1_565 S
Nd104 O128 2.410 . S
Nd104 O133 2.414 . S
Nd104 O135 2.424 1_565 S
Nd105 C115 2.835 . S
Nd105 O127 2.418 1_655 S
Nd105 O129 2.424 1_645 S
Nd105 O130 2.500 . S
Nd105 O131 2.490 . S
Nd105 O132 2.486 1_545 S
Nd105 O133 2.684 1_645 S
Nd105 O134 2.412 1_655 S
C106 Nd104 2.836 . S
C106 C107 1.498 . S
C106 O124 1.258 . S
C106 O125 1.239 . S
C107 C106 1.498 . S
C107 C108 1.366 . S
C107 C112 1.407 . S
C108 C107 1.366 . S
C108 C109 1.392 . S
C108 H136 0.930 . S
C109 C108 1.392 . S
C109 C110 1.398 . S
C109 H137 0.929 . S
C110 C109 1.398 . S
C110 C111 1.352 . S
C111 C110 1.352 . S
C111 C112 1.384 . S
C111 H138 0.930 . S
C112 C107 1.407 . S
C112 C111 1.384 . S
C112 H139 0.929 . S
C113 O126 1.241 . S
C113 O127 1.273 . S
C114 O128 1.251 . S
C114 O129 1.268 . S
C115 Nd105 2.835 . S
C115 C116 1.498 . S
C115 O130 1.258 . S
C115 O131 1.239 . S
C116 C115 1.498 . S
C116 C117 1.366 . S
C116 C121 1.407 . S
C117 C116 1.366 . S
C117 C118 1.392 . S
C117 H140 0.930 . S
C118 C117 1.392 . S
C118 C119 1.398 . S
C118 H141 0.929 . S
C119 C118 1.398 . S
C119 C120 1.352 . S
C120 C119 1.352 . S
C120 C121 1.384 . S
C120 H142 0.930 . S
C121 C116 1.407 . S
C121 C120 1.384 . S
C121 H143 0.929 . S
C122 O132 1.241 1_455 S
C122 O133 1.273 . S
C123 O134 1.251 . S
C123 O135 1.268 . S
O124 Nd104 2.500 . S
O124 C106 1.258 . S
O125 Nd104 2.492 . S
O125 C106 1.239 . S
O126 Nd104 2.487 1_545 S
O126 C113 1.241 . S
O127 Nd104 2.682 1_545 S
O127 Nd105 2.418 1_455 S
O127 C113 1.273 . S
O128 Nd104 2.410 . S
O128 C114 1.251 . S
O129 Nd105 2.424 1_465 S
O129 C114 1.268 . S
O130 Nd105 2.500 . S
O130 C115 1.258 . S
O131 Nd105 2.490 . S
O131 C115 1.239 . S
O132 Nd105 2.486 1_565 S
O132 C122 1.241 1_655 S
O133 Nd104 2.414 . S
O133 Nd105 2.684 1_465 S
O133 C122 1.273 . S
O134 Nd105 2.412 1_455 S
O134 C123 1.251 . S
O135 Nd104 2.424 1_545 S
O135 C123 1.268 . S
H136 C108 0.930 . S
H137 C109 0.929 . S
H138 C111 0.930 . S
H139 C112 0.929 . S
H140 C117 0.930 . S
H141 C118 0.929 . S
H142 C120 0.930 . S
H143 C121 0.929 . S
Nd144 C146 2.836 . S
Nd144 O164 2.500 . S
Nd144 O165 2.492 . S
Nd144 O166 2.487 1_565 S
Nd144 O167 2.682 1_565 S
Nd144 O168 2.410 . S
Nd144 O173 2.414 . S
Nd144 O175 2.424 1_565 S
Nd145 C155 2.836 . S
Nd145 O167 2.414 1_556 S
Nd145 O169 2.424 1_545 S
Nd145 O170 2.500 . S
Nd145 O171 2.492 . S
Nd145 O172 2.487 . S
Nd145 O173 2.682 1_546 S
Nd145 O174 2.410 1_556 S
C146 Nd144 2.836 . S
C146 C147 1.498 . S
C146 O164 1.258 . S
C146 O165 1.239 . S
C147 C146 1.498 . S
C147 C148 1.366 . S
C147 C152 1.407 . S
C148 C147 1.366 . S
C148 C149 1.392 . S
C148 H176 0.930 . S
C149 C148 1.392 . S
C149 C150 1.398 . S
C149 H177 0.929 . S
C150 C149 1.398 . S
C150 C151 1.352 . S
C151 C150 1.352 . S
C151 C152 1.384 . S
C151 H178 0.930 . S
C152 C147 1.407 . S
C152 C151 1.384 . S
C152 H179 0.929 . S
C153 O166 1.241 . S
C153 O167 1.273 . S
C154 O168 1.251 1_556 S
C154 O169 1.268 . S
C155 Nd145 2.836 . S
C155 C156 1.498 . S
C155 O170 1.258 . S
C155 O171 1.239 . S
C156 C155 1.498 . S
C156 C157 1.366 . S
C156 C161 1.407 . S
C157 C156 1.366 . S
C157 C158 1.392 . S
C157 H180 0.915 1_556 S
C158 C157 1.392 . S
C158 C159 1.398 . S
C158 H181 0.929 . S
C159 C158 1.398 . S
C159 C160 1.352 . S
C160 C159 1.352 . S
C160 C161 1.384 . S
C160 H182 0.930 . S
C161 C156 1.407 . S
C161 C160 1.384 . S
C161 H183 0.929 . S
C162 O172 1.241 1_564 S
C162 O173 1.273 . S
C163 O174 1.251 . S
C163 O175 1.268 . S
O164 Nd144 2.500 . S
O164 C146 1.258 . S
O165 Nd144 2.492 . S
O165 C146 1.239 . S
O166 Nd144 2.487 1_545 S
O166 C153 1.241 . S
O167 Nd144 2.682 1_545 S
O167 Nd145 2.414 1_554 S
O167 C153 1.273 . S
O168 Nd144 2.410 . S
O168 C154 1.251 1_554 S
O169 Nd145 2.424 1_565 S
O169 C154 1.268 . S
O170 Nd145 2.500 . S
O170 C155 1.258 . S
O171 Nd145 2.492 . S
O171 C155 1.239 . S
O172 Nd145 2.487 . S
O172 C162 1.241 1_546 S
O173 Nd144 2.414 . S
O173 Nd145 2.682 1_564 S
O173 C162 1.273 . S
O174 Nd145 2.410 1_554 S
O174 C163 1.251 . S
O175 Nd144 2.424 1_545 S
O175 C163 1.268 . S
H176 C148 0.930 . S
H177 C149 0.929 . S
H178 C151 0.930 . S
H179 C152 0.929 . S
H180 C157 0.915 1_554 S
H181 C158 0.929 . S
H182 C160 0.930 . S
H183 C161 0.929 . S
Nd184 C186 2.836 . S
Nd184 O204 2.500 . S
Nd184 O205 2.492 . S
Nd184 O206 2.487 . S
Nd184 O207 2.682 . S
Nd184 O208 2.410 . S
Nd184 O213 2.414 . S
Nd184 O215 2.424 . S
Nd185 C195 2.836 . S
Nd185 O207 2.414 . S
Nd185 O209 2.424 . S
Nd185 O210 2.500 . S
Nd185 O211 2.492 . S
Nd185 O212 2.487 . S
Nd185 O213 2.682 . S
Nd185 O214 2.410 . S
C186 Nd184 2.836 . S
C186 C187 1.498 . S
C186 O204 1.258 . S
C186 O205 1.239 . S
C187 C186 1.498 . S
C187 C188 1.366 . S
C187 C192 1.407 . S
C188 C187 1.366 . S
C188 C189 1.392 . S
C188 H216 0.930 . S
C189 C188 1.392 . S
C189 C190 1.398 . S
C189 H217 0.929 . S
C190 C189 1.398 . S
C190 C191 1.352 . S
C191 C190 1.352 . S
C191 C192 1.384 . S
C191 H218 0.930 . S
C192 C187 1.407 . S
C192 C191 1.384 . S
C192 H219 0.929 . S
C193 O206 1.241 . S
C193 O207 1.273 . S
C194 O208 1.251 . S
C194 O209 1.268 . S
C195 Nd185 2.836 . S
C195 C196 1.498 . S
C195 O210 1.258 . S
C195 O211 1.239 . S
C196 C195 1.498 . S
C196 C197 1.366 . S
C196 C201 1.407 . S
C197 C196 1.366 . S
C197 C198 1.392 . S
C197 H220 0.930 . S
C198 C197 1.392 . S
C198 C199 1.398 . S
C198 H221 0.929 . S
C199 C198 1.398 . S
C199 C200 1.352 . S
C200 C199 1.352 . S
C200 C201 1.384 . S
C200 H222 0.930 . S
C201 C196 1.407 . S
C201 C200 1.384 . S
C201 H223 0.929 . S
C202 O212 1.241 . S
C202 O213 1.273 . S
C203 O214 1.251 . S
C203 O215 1.268 . S
O204 Nd184 2.500 . S
O204 C186 1.258 . S
O205 Nd184 2.492 . S
O205 C186 1.239 . S
O206 Nd184 2.487 . S
O206 C193 1.241 . S
O207 Nd184 2.682 . S
O207 Nd185 2.414 . S
O207 C193 1.273 . S
O208 Nd184 2.410 . S
O208 C194 1.251 . S
O209 Nd185 2.424 . S
O209 C194 1.268 . S
O210 Nd185 2.500 . S
O210 C195 1.258 . S
O211 Nd185 2.492 . S
O211 C195 1.239 . S
O212 Nd185 2.487 . S
O212 C202 1.241 . S
O213 Nd184 2.414 . S
O213 Nd185 2.682 . S
O213 C202 1.273 . S
O214 Nd185 2.410 . S
O214 C203 1.251 . S
O215 Nd184 2.424 . S
O215 C203 1.268 . S
H216 C188 0.930 . S
H217 C189 0.929 . S
H218 C191 0.930 . S
H219 C192 0.929 . S
H220 C197 0.930 . S
H221 C198 0.929 . S
H222 C200 0.930 . S
H223 C201 0.929 . S
Nd224 C226 2.836 . S
Nd224 O244 2.500 . S
Nd224 O245 2.492 . S
Nd224 O246 2.487 1_655 S
Nd224 O247 2.682 1_655 S
Nd224 O248 2.410 . S
Nd224 O253 2.414 1_554 S
Nd224 O255 2.424 1_655 S
Nd225 C235 2.836 . S
Nd225 O247 2.414 1_556 S
Nd225 O249 2.424 1_455 S
Nd225 O250 2.500 . S
Nd225 O251 2.492 . S
Nd225 O252 2.487 1_455 S
Nd225 O253 2.682 1_455 S
Nd225 O254 2.410 . S
C226 Nd224 2.836 . S
C226 C227 1.498 . S
C226 O244 1.258 . S
C226 O245 1.239 . S
C227 C226 1.498 . S
C227 C228 1.366 . S
C227 C232 1.407 . S
C228 C227 1.366 . S
C228 C229 1.392 . S
C228 H256 0.930 . S
C229 C228 1.392 . S
C229 C230 1.398 . S
C229 H257 0.929 . S
C230 C229 1.398 . S
C230 C231 1.352 . S
C231 C230 1.352 . S
C231 C232 1.384 . S
C231 H258 0.930 . S
C232 C227 1.407 . S
C232 C231 1.384 . S
C232 H259 0.929 . S
C233 O246 1.241 . S
C233 O247 1.273 . S
C234 O248 1.251 1_556 S
C234 O249 1.268 . S
C235 Nd225 2.836 . S
C235 C236 1.498 . S
C235 O250 1.258 . S
C235 O251 1.239 . S
C236 C235 1.498 . S
C236 C237 1.366 . S
C236 C241 1.407 . S
C237 C236 1.366 . S
C237 C238 1.392 . S
C237 H260 0.930 . S
C238 C237 1.392 . S
C238 C239 1.398 . S
C238 H261 0.929 . S
C239 C238 1.398 . S
C239 C240 1.352 . S
C240 C239 1.352 . S
C240 C241 1.384 . S
C240 H262 0.930 . S
C241 C236 1.407 . S
C241 C240 1.384 . S
C241 H263 0.929 . S
C242 O252 1.241 . S
C242 O253 1.273 . S
C243 O254 1.251 1_554 S
C243 O255 1.268 . S
O244 Nd224 2.500 . S
O244 C226 1.258 . S
O245 Nd224 2.492 . S
O245 C226 1.239 . S
O246 Nd224 2.487 1_455 S
O246 C233 1.241 . S
O247 Nd224 2.682 1_455 S
O247 Nd225 2.414 1_554 S
O247 C233 1.273 . S
O248 Nd224 2.410 . S
O248 C234 1.251 1_554 S
O249 Nd225 2.424 1_655 S
O249 C234 1.268 . S
O250 Nd225 2.500 . S
O250 C235 1.258 . S
O251 Nd225 2.492 . S
O251 C235 1.239 . S
O252 Nd225 2.487 1_655 S
O252 C242 1.241 . S
O253 Nd224 2.414 1_556 S
O253 Nd225 2.682 1_655 S
O253 C242 1.273 . S
O254 Nd225 2.410 . S
O254 C243 1.251 1_556 S
O255 Nd224 2.424 1_455 S
O255 C243 1.268 . S
H256 C228 0.930 . S
H257 C229 0.929 . S
H258 C231 0.930 . S
H259 C232 0.929 . S
H260 C237 0.930 . S
H261 C238 0.929 . S
H262 C240 0.930 . S
H263 C241 0.929 . S
C264 C265 1.391 . S
C264 C266 1.394 . S
C264 H280 0.931 . S
C265 C264 1.391 . S
C265 C269 1.376 . S
C266 C264 1.394 . S
C266 C267 1.369 . S
C266 C270 1.531 . S
C267 C266 1.369 . S
C267 C268 1.410 . S
C267 C275 1.503 . S
C268 C267 1.410 . S
C268 C269 1.392 . S
C268 C271 1.511 . S
C269 C265 1.376 . S
C269 C268 1.392 . S
C269 H281 0.929 . S
C270 C266 1.531 . S
C270 H282 0.960 . S
C270 H283 0.962 . S
C270 H284 0.960 . S
C271 C268 1.511 . S
C271 H285 0.961 . S
C271 H286 0.961 . S
C271 H287 0.961 . S
C272 C273 1.370 . S
C272 C274 1.363 . S
C272 H288 0.931 . S
C273 C272 1.370 . S
C273 C277 1.408 . S
C274 C272 1.363 . S
C274 C275 1.370 . S
C274 C278 1.524 . S
C275 C267 1.503 . S
C275 C274 1.370 . S
C275 C276 1.403 . S
C276 C275 1.403 . S
C276 C277 1.404 . S
C276 C279 1.539 . S
C277 C273 1.408 . S
C277 C276 1.404 . S
C277 H289 0.930 . S
C278 C274 1.524 . S
C278 H290 0.956 . S
C278 H291 0.961 . S
C278 H292 0.961 . S
C279 C276 1.539 . S
C279 H293 0.958 . S
C279 H294 0.961 . S
C279 H295 0.960 . S
H280 C264 0.931 . S
H281 C269 0.929 . S
H282 C270 0.960 . S
H283 C270 0.962 . S
H284 C270 0.960 . S
H285 C271 0.961 . S
H286 C271 0.961 . S
H287 C271 0.961 . S
H288 C272 0.931 . S
H289 C277 0.930 . S
H290 C278 0.956 . S
H291 C278 0.961 . S
H292 C278 0.961 . S
H293 C279 0.958 . S
H294 C279 0.961 . S
H295 C279 0.960 . S
C296 C297 1.391 . S
C296 C298 1.394 . S
C296 H312 0.931 . S
C297 C296 1.391 . S
C297 C301 1.376 . S
C298 C296 1.394 . S
C298 C299 1.369 . S
C298 C302 1.531 . S
C299 C298 1.369 . S
C299 C300 1.410 . S
C299 C307 1.503 . S
C300 C299 1.410 . S
C300 C301 1.392 . S
C300 C303 1.511 . S
C301 C297 1.376 . S
C301 C300 1.392 . S
C301 H313 0.929 . S
C302 C298 1.531 . S
C302 H314 0.960 . S
C302 H315 0.962 . S
C302 H316 0.960 . S
C303 C300 1.511 . S
C303 H317 0.961 . S
C303 H318 0.961 . S
C303 H319 0.961 . S
C304 C305 1.370 . S
C304 C306 1.363 . S
C304 H320 0.960 . S
C305 C304 1.370 . S
C305 C309 1.408 . S
C306 C304 1.363 . S
C306 C307 1.370 . S
C306 C310 1.524 . S
C307 C299 1.503 . S
C307 C306 1.370 . S
C307 C308 1.403 . S
C308 C307 1.403 . S
C308 C309 1.404 . S
C308 C311 1.539 . S
C309 C305 1.408 . S
C309 C308 1.404 . S
C309 H321 0.930 . S
C310 C306 1.524 . S
C310 H322 0.956 . S
C310 H323 0.961 . S
C310 H324 0.961 . S
C311 C308 1.539 . S
C311 H325 0.958 . S
C311 H326 0.961 . S
C311 H327 0.960 . S
H312 C296 0.931 . S
H313 C301 0.929 . S
H314 C302 0.960 . S
H315 C302 0.962 . S
H316 C302 0.960 . S
H317 C303 0.961 . S
H318 C303 0.961 . S
H319 C303 0.961 . S
H320 C304 0.960 . S
H321 C309 0.930 . S
H322 C310 0.956 . S
H323 C310 0.961 . S
H324 C310 0.961 . S
H325 C311 0.958 . S
H326 C311 0.961 . S
H327 C311 0.960 . S
C328 C329 1.391 . S
C328 C330 1.394 . S
C328 H344 0.931 . S
C329 C328 1.391 . S
C329 C333 1.376 . S
C330 C328 1.394 . S
C330 C331 1.369 . S
C330 C334 1.531 . S
C331 C330 1.369 . S
C331 C332 1.410 . S
C331 C339 1.503 . S
C332 C331 1.410 . S
C332 C333 1.392 . S
C332 C335 1.511 . S
C333 C329 1.376 . S
C333 C332 1.392 . S
C333 H345 0.929 . S
C334 C330 1.531 . S
C334 H346 0.960 . S
C334 H347 0.962 . S
C334 H348 0.960 . S
C335 C332 1.511 . S
C335 H349 0.961 . S
C335 H350 0.961 . S
C335 H351 0.961 . S
C336 C337 1.370 . S
C336 C338 1.363 . S
C336 H352 0.931 . S
C337 C336 1.370 . S
C337 C341 1.408 . S
C338 C336 1.363 . S
C338 C339 1.370 . S
C338 C342 1.524 . S
C339 C331 1.503 . S
C339 C338 1.370 . S
C339 C340 1.403 . S
C340 C339 1.403 . S
C340 C341 1.404 . S
C340 C343 1.539 . S
C341 C337 1.408 . S
C341 C340 1.404 . S
C341 H353 0.930 . S
C342 C338 1.524 . S
C342 H354 0.956 . S
C342 H355 0.961 . S
C342 H356 0.961 . S
C343 C340 1.539 . S
C343 H357 0.958 . S
C343 H358 0.961 . S
C343 H359 0.960 . S
H344 C328 0.931 . S
H345 C333 0.929 . S
H346 C334 0.960 . S
H347 C334 0.962 . S
H348 C334 0.960 . S
H349 C335 0.961 . S
H350 C335 0.961 . S
H351 C335 0.961 . S
H352 C336 0.931 . S
H353 C341 0.930 . S
H354 C342 0.956 . S
H355 C342 0.961 . S
H356 C342 0.961 . S
H357 C343 0.958 . S
H358 C343 0.961 . S
H359 C343 0.960 . S
C360 C361 1.391 . S
C360 C362 1.394 . S
C360 H376 0.931 . S
C361 C360 1.391 . S
C361 C365 1.376 . S
C362 C360 1.394 . S
C362 C363 1.369 . S
C362 C366 1.531 . S
C363 C362 1.369 . S
C363 C364 1.410 . S
C363 C371 1.503 . S
C364 C363 1.410 . S
C364 C365 1.392 . S
C364 C367 1.511 . S
C365 C361 1.376 . S
C365 C364 1.392 . S
C365 H377 0.929 . S
C366 C362 1.531 . S
C366 H378 0.960 . S
C366 H379 0.962 . S
C366 H380 0.960 . S
C367 C364 1.511 . S
C367 H381 0.961 . S
C367 H382 0.961 . S
C367 H383 0.961 . S
C368 C369 1.370 . S
C368 C370 1.363 . S
C368 H384 0.931 . S
C369 C368 1.370 . S
C369 C373 1.408 . S
C370 C368 1.363 . S
C370 C371 1.370 . S
C370 C374 1.524 . S
C371 C363 1.503 . S
C371 C370 1.370 . S
C371 C372 1.403 . S
C372 C371 1.403 . S
C372 C373 1.404 . S
C372 C375 1.539 . S
C373 C369 1.408 . S
C373 C372 1.404 . S
C373 H385 0.930 . S
C374 C370 1.524 . S
C374 H386 0.956 . S
C374 H387 0.961 . S
C374 H388 0.961 . S
C375 C372 1.539 . S
C375 H389 0.958 . S
C375 H390 0.961 . S
C375 H391 0.960 . S
H376 C360 0.931 . S
H377 C365 0.929 . S
H378 C366 0.960 . S
H379 C366 0.962 . S
H380 C366 0.960 . S
H381 C367 0.961 . S
H382 C367 0.961 . S
H383 C367 0.961 . S
H384 C368 0.931 . S
H385 C373 0.930 . S
H386 C374 0.956 . S
H387 C374 0.961 . S
H388 C374 0.961 . S
H389 C375 0.958 . S
H390 C375 0.961 . S
H391 C375 0.960 . S
C392 C393 1.391 . S
C392 C394 1.394 . S
C392 H408 0.931 . S
C393 C392 1.391 . S
C393 C397 1.376 . S
C394 C392 1.394 . S
C394 C395 1.369 . S
C394 C398 1.531 . S
C395 C394 1.369 . S
C395 C396 1.410 . S
C395 C403 1.503 . S
C396 C395 1.410 . S
C396 C397 1.392 . S
C396 C399 1.511 . S
C397 C393 1.376 . S
C397 C396 1.392 . S
C397 H409 0.929 . S
C398 C394 1.531 . S
C398 H410 0.960 . S
C398 H411 0.962 . S
C398 H412 0.960 . S
C399 C396 1.511 . S
C399 H413 0.961 . S
C399 H414 0.961 . S
C399 H415 0.961 . S
C400 C401 1.370 . S
C400 C402 1.363 . S
C400 H416 0.931 . S
C401 C400 1.370 . S
C401 C405 1.408 . S
C402 C400 1.363 . S
C402 C403 1.370 . S
C402 C406 1.524 . S
C403 C395 1.503 . S
C403 C402 1.370 . S
C403 C404 1.403 . S
C404 C403 1.403 . S
C404 C405 1.404 . S
C404 C407 1.539 . S
C405 C401 1.408 . S
C405 C404 1.404 . S
C405 H417 0.930 . S
C406 C402 1.524 . S
C406 H418 0.956 . S
C406 H419 0.961 . S
C406 H420 0.961 . S
C407 C404 1.539 . S
C407 H421 0.958 . S
C407 H422 0.961 . S
C407 H423 0.960 . S
H408 C392 0.931 . S
H409 C397 0.929 . S
H410 C398 0.960 . S
H411 C398 0.962 . S
H412 C398 0.960 . S
H413 C399 0.961 . S
H414 C399 0.961 . S
H415 C399 0.961 . S
H416 C400 0.931 . S
H417 C405 0.930 . S
H418 C406 0.956 . S
H419 C406 0.961 . S
H420 C406 0.961 . S
H421 C407 0.958 . S
H422 C407 0.961 . S
H423 C407 0.960 . S
C424 C425 1.391 . S
C424 C426 1.394 . S
C424 H440 0.931 . S
C425 C424 1.391 . S
C425 C429 1.376 . S
C426 C424 1.394 . S
C426 C427 1.369 . S
C426 C430 1.531 . S
C427 C426 1.369 . S
C427 C428 1.410 . S
C427 C435 1.503 . S
C428 C427 1.410 . S
C428 C429 1.392 . S
C428 C431 1.511 . S
C429 C425 1.376 . S
C429 C428 1.392 . S
C429 H441 0.929 . S
C430 C426 1.531 . S
C430 H442 0.960 . S
C430 H443 0.962 . S
C430 H444 0.960 . S
C431 C428 1.511 . S
C431 H445 0.961 . S
C431 H446 0.961 . S
C431 H447 0.961 . S
C432 C433 1.370 . S
C432 C434 1.363 . S
C432 H448 0.931 . S
C433 C432 1.370 . S
C433 C437 1.408 . S
C434 C432 1.363 . S
C434 C435 1.370 . S
C434 C438 1.524 . S
C435 C427 1.503 . S
C435 C434 1.370 . S
C435 C436 1.403 . S
C436 C435 1.403 . S
C436 C437 1.404 . S
C436 C439 1.539 . S
C437 C433 1.408 . S
C437 C436 1.404 . S
C437 H449 0.930 . S
C438 C434 1.524 . S
C438 H450 0.956 . S
C438 H451 0.961 . S
C438 H452 0.961 . S
C439 C436 1.539 . S
C439 H453 0.958 . S
C439 H454 0.961 . S
C439 H455 0.960 . S
H440 C424 0.931 . S
H441 C429 0.929 . S
H442 C430 0.960 . S
H443 C430 0.962 . S
H444 C430 0.960 . S
H445 C431 0.961 . S
H446 C431 0.961 . S
H447 C431 0.961 . S
H448 C432 0.931 . S
H449 C437 0.930 . S
H450 C438 0.956 . S
H451 C438 0.961 . S
H452 C438 0.961 . S
H453 C439 0.958 . S
H454 C439 0.961 . S
H455 C439 0.960 . S
C456 C457 1.391 . S
C456 C458 1.394 . S
C456 H472 0.931 . S
C457 C456 1.391 . S
C457 C461 1.376 . S
C458 C456 1.394 . S
C458 C459 1.369 . S
C458 C462 1.531 . S
C459 C458 1.369 . S
C459 C460 1.410 . S
C459 C467 1.503 . S
C460 C459 1.410 . S
C460 C461 1.392 . S
C460 C463 1.511 . S
C461 C457 1.376 . S
C461 C460 1.392 . S
C461 H473 0.929 . S
C462 C458 1.531 . S
C462 H474 0.960 . S
C462 H475 0.962 . S
C462 H476 0.960 . S
C463 C460 1.511 . S
C463 H477 0.961 . S
C463 H478 0.961 . S
C463 H479 0.961 . S
C464 C465 1.370 . S
C464 C466 1.363 . S
C464 H480 0.931 . S
C465 C464 1.370 . S
C465 C469 1.408 . S
C466 C464 1.363 . S
C466 C467 1.370 . S
C466 C470 1.524 . S
C467 C459 1.503 . S
C467 C466 1.370 . S
C467 C468 1.403 . S
C468 C467 1.403 . S
C468 C469 1.404 . S
C468 C471 1.539 . S
C469 C465 1.408 . S
C469 C468 1.404 . S
C469 H481 0.930 . S
C470 C466 1.524 . S
C470 H482 0.956 . S
C470 H483 0.961 . S
C470 H484 0.961 . S
C471 C468 1.539 . S
C471 H485 0.958 . S
C471 H486 0.961 . S
C471 H487 0.960 . S
H472 C456 0.931 . S
H473 C461 0.929 . S
H474 C462 0.960 . S
H475 C462 0.962 . S
H476 C462 0.960 . S
H477 C463 0.961 . S
H478 C463 0.961 . S
H479 C463 0.961 . S
H480 C464 0.931 . S
H481 C469 0.930 . S
H482 C470 0.956 . S
H483 C470 0.961 . S
H484 C470 0.961 . S
H485 C471 0.958 . S
H486 C471 0.961 . S
H487 C471 0.960 . S
C488 C489 1.391 . S
C488 C490 1.394 . S
C488 H504 0.931 . S
C489 C488 1.391 . S
C489 C493 1.376 . S
C490 C488 1.394 . S
C490 C491 1.369 . S
C490 C494 1.531 . S
C491 C490 1.369 . S
C491 C492 1.410 . S
C491 C499 1.503 . S
C492 C491 1.410 . S
C492 C493 1.392 . S
C492 C495 1.511 . S
C493 C489 1.376 . S
C493 C492 1.392 . S
C493 H505 0.929 . S
C494 C490 1.531 . S
C494 H506 0.960 . S
C494 H507 0.962 . S
C494 H508 0.960 . S
C495 C492 1.511 . S
C495 H509 0.961 . S
C495 H510 0.961 . S
C495 H511 0.961 . S
C496 C497 1.370 . S
C496 C498 1.363 . S
C496 H512 0.931 . S
C497 C496 1.370 . S
C497 C501 1.408 . S
C498 C496 1.363 . S
C498 C499 1.370 . S
C498 C502 1.524 . S
C499 C491 1.503 . S
C499 C498 1.370 . S
C499 C500 1.403 . S
C500 C499 1.403 . S
C500 C501 1.404 . S
C500 C503 1.539 . S
C501 C497 1.408 . S
C501 C500 1.404 . S
C501 H513 0.930 . S
C502 C498 1.524 . S
C502 H514 0.956 . S
C502 H515 0.961 . S
C502 H516 0.961 . S
C503 C500 1.539 . S
C503 H517 0.958 . S
C503 H518 0.961 . S
C503 H519 0.960 . S
H504 C488 0.931 . S
H505 C493 0.929 . S
H506 C494 0.960 . S
H507 C494 0.962 . S
H508 C494 0.960 . S
H509 C495 0.961 . S
H510 C495 0.961 . S
H511 C495 0.961 . S
H512 C496 0.931 . S
H513 C501 0.930 . S
H514 C502 0.956 . S
H515 C502 0.961 . S
H516 C502 0.961 . S
H517 C503 0.958 . S
H518 C503 0.961 . S
H519 C503 0.960 . S
C520 C521 1.391 . S
C520 C522 1.394 . S
C520 H536 0.931 . S
C521 C520 1.391 . S
C521 C525 1.376 . S
C522 C520 1.394 . S
C522 C523 1.369 . S
C522 C526 1.531 . S
C523 C522 1.369 . S
C523 C524 1.410 . S
C523 C531 1.503 . S
C524 C523 1.410 . S
C524 C525 1.392 . S
C524 C527 1.511 . S
C525 C521 1.376 . S
C525 C524 1.392 . S
C525 H537 0.929 . S
C526 C522 1.531 . S
C526 H538 0.960 . S
C526 H539 0.962 . S
C526 H540 0.960 . S
C527 C524 1.511 . S
C527 H541 0.961 . S
C527 H542 0.961 . S
C527 H543 0.961 . S
C528 C529 1.370 . S
C528 C530 1.363 . S
C528 H544 0.926 1_554 S
C529 C528 1.370 . S
C529 C533 1.408 . S
C530 C528 1.363 . S
C530 C531 1.370 . S
C530 C534 1.524 . S
C531 C523 1.503 . S
C531 C530 1.370 . S
C531 C532 1.403 . S
C532 C531 1.403 . S
C532 C533 1.404 . S
C532 C535 1.539 . S
C533 C529 1.408 . S
C533 C532 1.404 . S
C533 H545 0.930 . S
C534 C530 1.524 . S
C534 H546 0.956 . S
C534 H547 0.961 1_554 S
C534 H548 0.961 1_554 S
C535 C532 1.539 . S
C535 H549 0.958 . S
C535 H550 0.961 . S
C535 H551 0.960 . S
H536 C520 0.931 . S
H537 C525 0.929 . S
H538 C526 0.960 . S
H539 C526 0.962 . S
H540 C526 0.960 . S
H541 C527 0.961 . S
H542 C527 0.961 . S
H543 C527 0.961 . S
H544 C528 0.926 1_556 S
H545 C533 0.930 . S
H546 C534 0.956 . S
H547 C534 0.961 1_556 S
H548 C534 0.961 1_556 S
H549 C535 0.958 . S
H550 C535 0.961 . S
H551 C535 0.960 . S
C552 C553 1.391 . S
C552 C554 1.394 . S
C552 H568 0.931 . S
C553 C552 1.391 . S
C553 C557 1.376 . S
C554 C552 1.394 . S
C554 C555 1.369 . S
C554 C558 1.531 . S
C555 C554 1.369 . S
C555 C556 1.410 . S
C555 C563 1.503 . S
C556 C555 1.410 . S
C556 C557 1.392 . S
C556 C559 1.511 . S
C557 C553 1.376 . S
C557 C556 1.392 . S
C557 H569 0.929 . S
C558 C554 1.531 . S
C558 H570 0.960 . S
C558 H571 0.962 . S
C558 H572 0.960 . S
C559 C556 1.511 . S
C559 H573 0.961 . S
C559 H574 0.961 . S
C559 H575 0.961 . S
C560 C561 1.370 . S
C560 C562 1.363 . S
C560 H576 0.931 . S
C561 C560 1.370 . S
C561 C565 1.408 . S
C562 C560 1.363 . S
C562 C563 1.370 . S
C562 C566 1.524 . S
C563 C555 1.503 . S
C563 C562 1.370 . S
C563 C564 1.403 . S
C564 C563 1.403 . S
C564 C565 1.404 . S
C564 C567 1.539 . S
C565 C561 1.408 . S
C565 C564 1.404 . S
C565 H577 0.930 . S
C566 C562 1.524 . S
C566 H578 0.956 . S
C566 H579 0.961 . S
C566 H580 0.961 . S
C567 C564 1.539 . S
C567 H581 0.958 . S
C567 H582 0.961 . S
C567 H583 0.960 . S
H568 C552 0.931 . S
H569 C557 0.929 . S
H570 C558 0.960 . S
H571 C558 0.962 . S
H572 C558 0.960 . S
H573 C559 0.961 . S
H574 C559 0.961 . S
H575 C559 0.961 . S
H576 C560 0.931 . S
H577 C565 0.930 . S
H578 C566 0.956 . S
H579 C566 0.961 . S
H580 C566 0.961 . S
H581 C567 0.958 . S
H582 C567 0.961 . S
H583 C567 0.960 . S
C584 C585 1.391 . S
C584 C586 1.394 . S
C584 H600 0.931 . S
C585 C584 1.391 . S
C585 C589 1.376 . S
C586 C584 1.394 . S
C586 C587 1.369 . S
C586 C590 1.531 . S
C587 C586 1.369 . S
C587 C588 1.410 . S
C587 C595 1.503 . S
C588 C587 1.410 . S
C588 C589 1.392 . S
C588 C591 1.511 . S
C589 C585 1.376 . S
C589 C588 1.392 . S
C589 H601 0.929 . S
C590 C586 1.531 . S
C590 H602 0.960 . S
C590 H603 0.962 . S
C590 H604 0.960 . S
C591 C588 1.511 . S
C591 H605 0.961 . S
C591 H606 0.961 . S
C591 H607 0.961 . S
C592 C593 1.370 1_655 S
C592 C594 1.363 . S
C592 H608 0.931 . S
C593 C592 1.370 1_455 S
C593 C597 1.408 1_455 S
C594 C592 1.363 . S
C594 C595 1.370 . S
C594 C598 1.524 . S
C595 C587 1.503 . S
C595 C594 1.370 . S
C595 C596 1.403 . S
C596 C595 1.403 . S
C596 C597 1.404 . S
C596 C599 1.539 . S
C597 C593 1.408 1_655 S
C597 C596 1.404 . S
C597 H609 0.930 1_655 S
C598 C594 1.524 . S
C598 H610 0.956 . S
C598 H611 0.961 . S
C598 H612 0.961 . S
C599 C596 1.539 . S
C599 H613 0.958 . S
C599 H614 0.961 . S
C599 H615 0.960 . S
H600 C584 0.931 . S
H601 C589 0.929 . S
H602 C590 0.960 . S
H603 C590 0.962 . S
H604 C590 0.960 . S
H605 C591 0.961 . S
H606 C591 0.961 . S
H607 C591 0.961 . S
H608 C592 0.931 . S
H609 C597 0.930 1_455 S
H610 C598 0.956 . S
H611 C598 0.961 . S
H612 C598 0.961 . S
H613 C599 0.958 . S
H614 C599 0.961 . S
H615 C599 0.960 . S
C616 C617 1.391 . S
C616 C618 1.394 . S
C616 H632 0.931 . S
C617 C616 1.391 . S
C617 C621 1.376 . S
C618 C616 1.394 . S
C618 C619 1.369 . S
C618 C622 1.531 . S
C619 C618 1.369 . S
C619 C620 1.410 . S
C619 C627 1.503 . S
C620 C619 1.410 . S
C620 C621 1.392 . S
C620 C623 1.511 . S
C621 C617 1.376 . S
C621 C620 1.392 . S
C621 H633 0.929 . S
C622 C618 1.531 . S
C622 H634 0.960 . S
C622 H635 0.962 . S
C622 H636 0.960 . S
C623 C620 1.511 . S
C623 H637 0.961 . S
C623 H638 0.961 . S
C623 H639 0.961 . S
C624 C625 1.370 . S
C624 C626 1.363 . S
C624 H640 0.931 . S
C625 C624 1.370 . S
C625 C629 1.408 . S
C626 C624 1.363 . S
C626 C627 1.370 . S
C626 C630 1.524 . S
C627 C619 1.503 . S
C627 C626 1.370 . S
C627 C628 1.403 . S
C628 C627 1.403 . S
C628 C629 1.404 . S
C628 C631 1.539 . S
C629 C625 1.408 . S
C629 C628 1.404 . S
C629 H641 0.930 . S
C630 C626 1.524 . S
C630 H642 0.956 . S
C630 H643 0.961 . S
C630 H644 0.961 . S
C631 C628 1.539 . S
C631 H645 0.958 . S
C631 H646 0.961 . S
C631 H647 0.960 . S
H632 C616 0.931 . S
H633 C621 0.929 . S
H634 C622 0.960 . S
H635 C622 0.962 . S
H636 C622 0.960 . S
H637 C623 0.961 . S
H638 C623 0.961 . S
H639 C623 0.961 . S
H640 C624 0.931 . S
H641 C629 0.930 . S
H642 C630 0.956 . S
H643 C630 0.961 . S
H644 C630 0.961 . S
H645 C631 0.958 . S
H646 C631 0.961 . S
H647 C631 0.960 . S
C648 C649 1.391 . S
C648 C650 1.394 . S
C648 H664 0.931 . S
C649 C648 1.391 . S
C649 C653 1.376 . S
C650 C648 1.394 . S
C650 C651 1.369 . S
C650 C654 1.531 . S
C651 C650 1.369 . S
C651 C652 1.410 . S
C651 C659 1.503 . S
C652 C651 1.410 . S
C652 C653 1.392 . S
C652 C655 1.511 . S
C653 C649 1.376 . S
C653 C652 1.392 . S
C653 H665 0.929 . S
C654 C650 1.531 . S
C654 H666 0.960 . S
C654 H667 0.962 . S
C654 H668 0.960 . S
C655 C652 1.511 . S
C655 H669 0.961 1_655 S
C655 H670 0.961 1_655 S
C655 H671 0.961 . S
C656 C657 1.370 . S
C656 C658 1.363 . S
C656 H672 0.931 1_655 S
C657 C656 1.370 . S
C657 C661 1.408 . S
C658 C656 1.363 . S
C658 C659 1.370 . S
C658 C662 1.524 . S
C659 C651 1.503 . S
C659 C658 1.370 . S
C659 C660 1.403 . S
C660 C659 1.403 . S
C660 C661 1.404 . S
C660 C663 1.539 . S
C661 C657 1.408 . S
C661 C660 1.404 . S
C661 H673 0.930 . S
C662 C658 1.524 . S
C662 H674 0.956 . S
C662 H675 0.961 . S
C662 H676 0.961 . S
C663 C660 1.539 . S
C663 H677 0.958 . S
C663 H678 0.961 1_565 S
C663 H679 0.960 . S
H664 C648 0.931 . S
H665 C653 0.929 . S
H666 C654 0.960 . S
H667 C654 0.962 . S
H668 C654 0.960 . S
H669 C655 0.961 1_455 S
H670 C655 0.961 1_455 S
H671 C655 0.961 . S
H672 C656 0.931 1_455 S
H673 C661 0.930 . S
H674 C662 0.956 . S
H675 C662 0.961 . S
H676 C662 0.961 . S
H677 C663 0.958 . S
H678 C663 0.961 1_545 S
H679 C663 0.960 . S
C680 C681 1.391 . S
C680 C682 1.394 . S
C680 H696 0.931 . S
C681 C680 1.391 . S
C681 C685 1.376 . S
C682 C680 1.394 . S
C682 C683 1.369 . S
C682 C686 1.531 . S
C683 C682 1.369 . S
C683 C684 1.410 . S
C683 C691 1.503 . S
C684 C683 1.410 . S
C684 C685 1.392 . S
C684 C687 1.511 . S
C685 C681 1.376 . S
C685 C684 1.392 . S
C685 H697 0.929 . S
C686 C682 1.531 . S
C686 H698 0.960 . S
C686 H699 0.962 . S
C686 H700 0.960 . S
C687 C684 1.511 . S
C687 H701 0.961 . S
C687 H702 0.961 . S
C687 H703 0.961 . S
C688 C689 1.370 . S
C688 C690 1.363 . S
C688 H704 0.931 . S
C689 C688 1.370 . S
C689 C693 1.408 . S
C690 C688 1.363 . S
C690 C691 1.370 . S
C690 C694 1.524 . S
C691 C683 1.503 . S
C691 C690 1.370 . S
C691 C692 1.403 . S
C692 C691 1.403 . S
C692 C693 1.404 . S
C692 C695 1.539 . S
C693 C689 1.408 . S
C693 C692 1.404 . S
C693 H705 0.930 . S
C694 C690 1.524 . S
C694 H706 0.956 . S
C694 H707 0.961 . S
C694 H708 0.961 . S
C695 C692 1.539 . S
C695 H709 0.958 . S
C695 H710 0.961 . S
C695 H711 0.960 . S
H696 C680 0.931 . S
H697 C685 0.929 . S
H698 C686 0.960 . S
H699 C686 0.962 . S
H700 C686 0.960 . S
H701 C687 0.961 . S
H702 C687 0.961 . S
H703 C687 0.961 . S
H704 C688 0.931 . S
H705 C693 0.930 . S
H706 C694 0.956 . S
H707 C694 0.961 . S
H708 C694 0.961 . S
H709 C695 0.958 . S
H710 C695 0.961 . S
H711 C695 0.960 . S
C712 C713 1.391 . S
C712 C714 1.394 . S
C712 H728 0.931 . S
C713 C712 1.391 . S
C713 C717 1.376 . S
C714 C712 1.394 . S
C714 C715 1.369 . S
C714 C718 1.531 . S
C715 C714 1.369 . S
C715 C716 1.410 . S
C715 C723 1.503 . S
C716 C715 1.410 . S
C716 C717 1.392 . S
C716 C719 1.511 . S
C717 C713 1.376 . S
C717 C716 1.392 . S
C717 H729 0.929 . S
C718 C714 1.531 . S
C718 H730 0.960 . S
C718 H731 0.962 . S
C718 H732 0.960 . S
C719 C716 1.511 . S
C719 H733 0.961 . S
C719 H734 0.961 . S
C719 H735 0.961 . S
C720 C721 1.370 . S
C720 C722 1.363 . S
C720 H736 0.931 . S
C721 C720 1.370 . S
C721 C725 1.408 . S
C722 C720 1.363 . S
C722 C723 1.370 . S
C722 C726 1.524 . S
C723 C715 1.503 . S
C723 C722 1.370 . S
C723 C724 1.403 . S
C724 C723 1.403 . S
C724 C725 1.404 . S
C724 C727 1.539 . S
C725 C721 1.408 . S
C725 C724 1.404 . S
C725 H737 0.930 . S
C726 C722 1.524 . S
C726 H738 0.956 . S
C726 H739 0.961 . S
C726 H740 0.961 . S
C727 C724 1.539 . S
C727 H741 0.958 . S
C727 H742 0.961 . S
C727 H743 0.960 . S
H728 C712 0.931 . S
H729 C717 0.929 . S
H730 C718 0.960 . S
H731 C718 0.962 . S
H732 C718 0.960 . S
H733 C719 0.961 . S
H734 C719 0.961 . S
H735 C719 0.961 . S
H736 C720 0.931 . S
H737 C725 0.930 . S
H738 C726 0.956 . S
H739 C726 0.961 . S
H740 C726 0.961 . S
H741 C727 0.958 . S
H742 C727 0.961 . S
H743 C727 0.960 . S
C744 C745 1.391 . S
C744 C746 1.394 . S
C744 H760 0.931 . S
C745 C744 1.391 . S
C745 C749 1.376 . S
C746 C744 1.394 . S
C746 C747 1.369 . S
C746 C750 1.531 . S
C747 C746 1.369 . S
C747 C748 1.410 . S
C747 C755 1.503 . S
C748 C747 1.410 . S
C748 C749 1.392 . S
C748 C751 1.511 . S
C749 C745 1.376 . S
C749 C748 1.392 . S
C749 H761 0.929 . S
C750 C746 1.531 . S
C750 H762 0.960 . S
C750 H763 0.962 . S
C750 H764 0.960 . S
C751 C748 1.511 . S
C751 H765 0.961 . S
C751 H766 0.961 . S
C751 H767 0.961 . S
C752 C753 1.370 . S
C752 C754 1.363 . S
C752 H768 0.931 . S
C753 C752 1.370 . S
C753 C757 1.408 . S
C754 C752 1.363 . S
C754 C755 1.370 . S
C754 C758 1.524 . S
C755 C747 1.503 . S
C755 C754 1.370 . S
C755 C756 1.403 . S
C756 C755 1.403 . S
C756 C757 1.404 . S
C756 C759 1.539 . S
C757 C753 1.408 . S
C757 C756 1.404 . S
C757 H769 0.930 . S
C758 C754 1.524 . S
C758 H770 0.956 . S
C758 H771 0.961 . S
C758 H772 0.961 . S
C759 C756 1.539 . S
C759 H773 0.958 . S
C759 H774 0.961 . S
C759 H775 0.960 . S
H760 C744 0.931 . S
H761 C749 0.929 . S
H762 C750 0.960 . S
H763 C750 0.962 . S
H764 C750 0.960 . S
H765 C751 0.961 . S
H766 C751 0.961 . S
H767 C751 0.961 . S
H768 C752 0.931 . S
H769 C757 0.930 . S
H770 C758 0.956 . S
H771 C758 0.961 . S
H772 C758 0.961 . S
H773 C759 0.958 . S
H774 C759 0.961 . S
H775 C759 0.960 . S
C776 C777 1.391 . S
C776 C778 1.394 . S
C776 H792 0.931 . S
C777 C776 1.391 . S
C777 C781 1.376 . S
C778 C776 1.394 . S
C778 C779 1.369 . S
C778 C782 1.531 1_556 S
C779 C778 1.369 . S
C779 C780 1.410 . S
C779 C787 1.503 . S
C780 C779 1.410 . S
C780 C781 1.392 . S
C780 C783 1.511 . S
C781 C777 1.376 . S
C781 C780 1.392 . S
C781 H793 0.929 . S
C782 C778 1.531 1_554 S
C782 H794 0.960 . S
C782 H795 0.962 . S
C782 H796 0.960 . S
C783 C780 1.511 . S
C783 H797 0.961 . S
C783 H798 0.961 . S
C783 H799 0.961 . S
C784 C785 1.369 1_556 S
C784 C786 1.363 . S
C784 H800 0.931 1_556 S
C785 C784 1.369 1_554 S
C785 C789 1.403 1_554 S
C786 C784 1.363 . S
C786 C787 1.370 . S
C786 C790 1.524 . S
C787 C779 1.503 . S
C787 C786 1.370 . S
C787 C788 1.403 . S
C788 C787 1.403 . S
C788 C789 1.404 . S
C788 C791 1.539 1_565 S
C789 C785 1.403 1_556 S
C789 C788 1.404 . S
C789 H801 0.930 1_565 S
C790 C786 1.524 . S
C790 H802 0.951 1_556 S
C790 H803 0.961 . S
C790 H804 0.961 . S
C791 C788 1.539 1_545 S
C791 H805 0.958 . S
C791 H806 0.961 . S
C791 H807 0.960 1_545 S
H792 C776 0.931 . S
H793 C781 0.929 . S
H794 C782 0.960 . S
H795 C782 0.962 . S
H796 C782 0.960 . S
H797 C783 0.961 . S
H798 C783 0.961 . S
H799 C783 0.961 . S
H800 C784 0.931 1_554 S
H801 C789 0.930 1_545 S
H802 C790 0.951 1_554 S
H803 C790 0.961 . S
H804 C790 0.961 . S
H805 C791 0.958 . S
H806 C791 0.961 . S
H807 C791 0.960 1_565 S
C808 C809 1.391 . S
C808 C810 1.394 . S
C808 H824 0.931 . S
C809 C808 1.391 . S
C809 C813 1.376 . S
C810 C808 1.394 . S
C810 C811 1.369 . S
C810 C814 1.531 . S
C811 C810 1.369 . S
C811 C812 1.410 . S
C811 C819 1.503 . S
C812 C811 1.410 . S
C812 C813 1.392 . S
C812 C815 1.511 . S
C813 C809 1.376 . S
C813 C812 1.392 . S
C813 H825 0.929 . S
C814 C810 1.531 . S
C814 H826 0.960 . S
C814 H827 0.962 . S
C814 H828 0.960 . S
C815 C812 1.511 . S
C815 H829 0.961 . S
C815 H830 0.961 . S
C815 H831 0.961 . S
C816 C817 1.370 . S
C816 C818 1.363 . S
C816 H832 0.931 . S
C817 C816 1.370 . S
C817 C821 1.408 . S
C818 C816 1.363 . S
C818 C819 1.370 . S
C818 C822 1.524 . S
C819 C811 1.503 . S
C819 C818 1.370 . S
C819 C820 1.403 . S
C820 C819 1.403 . S
C820 C821 1.404 . S
C820 C823 1.539 . S
C821 C817 1.408 . S
C821 C820 1.404 . S
C821 H833 0.930 . S
C822 C818 1.524 . S
C822 H834 0.956 . S
C822 H835 0.961 . S
C822 H836 0.961 . S
C823 C820 1.539 . S
C823 H837 0.958 . S
C823 H838 0.961 . S
C823 H839 0.960 . S
H824 C808 0.931 . S
H825 C813 0.929 . S
H826 C814 0.960 . S
H827 C814 0.962 . S
H828 C814 0.960 . S
H829 C815 0.961 . S
H830 C815 0.961 . S
H831 C815 0.961 . S
H832 C816 0.931 . S
H833 C821 0.930 . S
H834 C822 0.956 . S
H835 C822 0.961 . S
H836 C822 0.961 . S
H837 C823 0.958 . S
H838 C823 0.961 . S
H839 C823 0.960 . S
C840 C841 1.391 . S
C840 C842 1.394 . S
C840 H856 0.931 . S
C841 C840 1.391 . S
C841 C845 1.376 . S
C842 C840 1.394 . S
C842 C843 1.369 . S
C842 C846 1.531 . S
C843 C842 1.369 . S
C843 C844 1.410 . S
C843 C851 1.503 . S
C844 C843 1.410 . S
C844 C845 1.392 . S
C844 C847 1.511 . S
C845 C841 1.376 . S
C845 C844 1.392 . S
C845 H857 0.929 . S
C846 C842 1.531 . S
C846 H858 0.960 . S
C846 H859 0.962 . S
C846 H860 0.960 . S
C847 C844 1.511 . S
C847 H861 0.961 . S
C847 H862 0.961 . S
C847 H863 0.961 . S
C848 C849 1.370 . S
C848 C850 1.363 . S
C848 H864 0.931 . S
C849 C848 1.370 . S
C849 C853 1.408 . S
C850 C848 1.363 . S
C850 C851 1.370 . S
C850 C854 1.524 . S
C851 C843 1.503 . S
C851 C850 1.370 . S
C851 C852 1.403 . S
C852 C851 1.403 . S
C852 C853 1.404 . S
C852 C855 1.539 . S
C853 C849 1.408 . S
C853 C852 1.404 . S
C853 H865 0.930 . S
C854 C850 1.524 . S
C854 H866 0.956 . S
C854 H867 0.961 . S
C854 H868 0.961 . S
C855 C852 1.539 . S
C855 H869 0.958 . S
C855 H870 0.961 1_554 S
C855 H871 0.960 . S
H856 C840 0.931 . S
H857 C845 0.929 . S
H858 C846 0.960 . S
H859 C846 0.962 . S
H860 C846 0.960 . S
H861 C847 0.961 . S
H862 C847 0.961 . S
H863 C847 0.961 . S
H864 C848 0.931 . S
H865 C853 0.930 . S
H866 C854 0.956 . S
H867 C854 0.961 . S
H868 C854 0.961 . S
H869 C855 0.958 . S
H870 C855 0.961 1_556 S
H871 C855 0.960 . S
C872 C873 1.391 . S
C872 C874 1.394 . S
C872 H888 0.931 . S
C873 C872 1.391 . S
C873 C877 1.376 . S
C874 C872 1.394 . S
C874 C875 1.369 . S
C874 C878 1.531 . S
C875 C874 1.369 . S
C875 C876 1.410 . S
C875 C883 1.503 . S
C876 C875 1.410 . S
C876 C877 1.392 . S
C876 C879 1.511 . S
C877 C873 1.376 . S
C877 C876 1.392 . S
C877 H889 0.929 . S
C878 C874 1.531 . S
C878 H890 0.960 . S
C878 H891 0.962 . S
C878 H892 0.960 . S
C879 C876 1.511 . S
C879 H893 0.961 . S
C879 H894 0.961 . S
C879 H895 0.961 . S
C880 C881 1.370 . S
C880 C882 1.363 . S
C880 H896 0.931 . S
C881 C880 1.370 . S
C881 C885 1.408 . S
C882 C880 1.363 . S
C882 C883 1.370 . S
C882 C886 1.524 . S
C883 C875 1.503 . S
C883 C882 1.370 . S
C883 C884 1.403 . S
C884 C883 1.403 . S
C884 C885 1.404 . S
C884 C887 1.539 . S
C885 C881 1.408 . S
C885 C884 1.404 . S
C885 H897 0.930 . S
C886 C882 1.524 . S
C886 H898 0.956 . S
C886 H899 0.961 . S
C886 H900 0.961 . S
C887 C884 1.539 . S
C887 H901 0.958 . S
C887 H902 0.961 . S
C887 H903 0.960 . S
H888 C872 0.931 . S
H889 C877 0.929 . S
H890 C878 0.960 . S
H891 C878 0.962 . S
H892 C878 0.960 . S
H893 C879 0.961 . S
H894 C879 0.961 . S
H895 C879 0.961 . S
H896 C880 0.931 . S
H897 C885 0.930 . S
H898 C886 0.956 . S
H899 C886 0.961 . S
H900 C886 0.961 . S
H901 C887 0.958 . S
H902 C887 0.961 . S
H903 C887 0.960 . S
C904 C905 1.391 . S
C904 C906 1.394 . S
C904 H920 0.931 . S
C905 C904 1.391 . S
C905 C909 1.376 . S
C906 C904 1.394 . S
C906 C907 1.369 . S
C906 C910 1.531 . S
C907 C906 1.369 . S
C907 C908 1.410 . S
C907 C915 1.503 . S
C908 C907 1.410 . S
C908 C909 1.392 . S
C908 C911 1.511 . S
C909 C905 1.376 . S
C909 C908 1.392 . S
C909 H921 0.929 . S
C910 C906 1.531 . S
C910 H922 0.960 . S
C910 H923 0.962 . S
C910 H924 0.960 . S
C911 C908 1.511 . S
C911 H925 0.961 1_556 S
C911 H926 0.961 1_556 S
C911 H927 0.961 . S
C912 C913 1.370 . S
C912 C914 1.363 . S
C912 H928 0.931 . S
C913 C912 1.370 . S
C913 C917 1.408 . S
C914 C912 1.363 . S
C914 C915 1.370 . S
C914 C918 1.524 . S
C915 C907 1.503 . S
C915 C914 1.370 . S
C915 C916 1.403 . S
C916 C915 1.403 . S
C916 C917 1.404 . S
C916 C919 1.539 . S
C917 C913 1.408 . S
C917 C916 1.404 . S
C917 H929 0.930 1_655 S
C918 C914 1.524 . S
C918 H930 0.956 . S
C918 H931 0.961 . S
C918 H932 0.961 . S
C919 C916 1.539 . S
C919 H933 0.958 . S
C919 H934 0.961 1_655 S
C919 H935 0.960 . S
H920 C904 0.931 . S
H921 C909 0.929 . S
H922 C910 0.960 . S
H923 C910 0.962 . S
H924 C910 0.960 . S
H925 C911 0.961 1_554 S
H926 C911 0.961 1_554 S
H927 C911 0.961 . S
H928 C912 0.931 . S
H929 C917 0.930 1_455 S
H930 C918 0.956 . S
H931 C918 0.961 . S
H932 C918 0.961 . S
H933 C919 0.958 . S
H934 C919 0.961 1_455 S
H935 C919 0.960 . S
C936 C937 1.391 . S
C936 C938 1.394 . S
C936 H952 0.931 . S
C937 C936 1.391 . S
C937 C941 1.376 . S
C938 C936 1.394 . S
C938 C939 1.369 . S
C938 C942 1.531 . S
C939 C938 1.369 . S
C939 C940 1.410 . S
C939 C947 1.503 . S
C940 C939 1.410 . S
C940 C941 1.392 . S
C940 C943 1.511 . S
C941 C937 1.376 . S
C941 C940 1.392 . S
C941 H953 0.929 . S
C942 C938 1.531 . S
C942 H954 0.960 . S
C942 H955 0.962 . S
C942 H956 0.960 . S
C943 C940 1.511 . S
C943 H957 0.961 . S
C943 H958 0.961 . S
C943 H959 0.961 . S
C944 C945 1.370 . S
C944 C946 1.363 . S
C944 H960 0.931 . S
C945 C944 1.370 . S
C945 C949 1.408 . S
C946 C944 1.363 . S
C946 C947 1.370 . S
C946 C950 1.524 . S
C947 C939 1.503 . S
C947 C946 1.370 . S
C947 C948 1.403 . S
C948 C947 1.403 . S
C948 C949 1.404 . S
C948 C951 1.539 . S
C949 C945 1.408 . S
C949 C948 1.404 . S
C949 H961 0.930 . S
C950 C946 1.524 . S
C950 H962 0.956 . S
C950 H963 0.961 . S
C950 H964 0.961 . S
C951 C948 1.539 . S
C951 H965 0.958 . S
C951 H966 0.961 . S
C951 H967 0.960 . S
H952 C936 0.931 . S
H953 C941 0.929 . S
H954 C942 0.960 . S
H955 C942 0.962 . S
H956 C942 0.960 . S
H957 C943 0.961 . S
H958 C943 0.961 . S
H959 C943 0.961 . S
H960 C944 0.931 . S
H961 C949 0.930 . S
H962 C950 0.956 . S
H963 C950 0.961 . S
H964 C950 0.961 . S
H965 C951 0.958 . S
H966 C951 0.961 . S
H967 C951 0.960 . S
C968 C969 1.391 . S
C968 C970 1.394 . S
C968 H984 0.931 . S
C969 C968 1.391 . S
C969 C973 1.376 . S
C970 C968 1.394 . S
C970 C971 1.369 . S
C970 C974 1.531 . S
C971 C970 1.369 . S
C971 C972 1.410 . S
C971 C979 1.503 . S
C972 C971 1.410 . S
C972 C973 1.392 . S
C972 C975 1.511 . S
C973 C969 1.376 . S
C973 C972 1.392 . S
C973 H985 0.929 . S
C974 C970 1.531 . S
C974 H986 0.960 . S
C974 H987 0.962 . S
C974 H988 0.960 . S
C975 C972 1.511 . S
C975 H989 0.961 . S
C975 H990 0.961 . S
C975 H991 0.961 . S
C976 C977 1.370 . S
C976 C978 1.363 . S
C976 H992 0.931 . S
C977 C976 1.370 . S
C977 C981 1.408 . S
C978 C976 1.363 . S
C978 C979 1.370 . S
C978 C982 1.524 . S
C979 C971 1.503 . S
C979 C978 1.370 . S
C979 C980 1.403 . S
C980 C979 1.403 . S
C980 C981 1.404 . S
C980 C983 1.539 . S
C981 C977 1.408 . S
C981 C980 1.404 . S
C981 H993 0.930 . S
C982 C978 1.524 . S
C982 H994 0.956 . S
C982 H995 0.961 . S
C982 H996 0.961 . S
C983 C980 1.539 . S
C983 H997 0.958 . S
C983 H998 0.961 . S
C983 H999 0.960 . S
H984 C968 0.931 . S
H985 C973 0.929 . S
H986 C974 0.960 . S
H987 C974 0.962 . S
H988 C974 0.960 . S
H989 C975 0.961 . S
H990 C975 0.961 . S
H991 C975 0.961 . S
H992 C976 0.931 . S
H993 C981 0.930 . S
H994 C982 0.956 . S
H995 C982 0.961 . S
H996 C982 0.961 . S
H997 C983 0.958 . S
H998 C983 0.961 . S
H999 C983 0.960 . S
C1000 C1001 1.391 . S
C1000 C1002 1.394 . S
C1000 H1016 0.931 . S
C1001 C1000 1.391 . S
C1001 C1005 1.376 . S
C1002 C1000 1.394 . S
C1002 C1003 1.369 . S
C1002 C1006 1.531 . S
C1003 C1002 1.369 . S
C1003 C1004 1.410 . S
C1003 C1011 1.503 . S
C1004 C1003 1.410 . S
C1004 C1005 1.392 . S
C1004 C1007 1.511 . S
C1005 C1001 1.376 . S
C1005 C1004 1.392 . S
C1005 H1017 0.929 . S
C1006 C1002 1.531 . S
C1006 H1018 0.960 . S
C1006 H1019 0.962 . S
C1006 H1020 0.960 . S
C1007 C1004 1.511 . S
C1007 H1021 0.961 . S
C1007 H1022 0.961 . S
C1007 H1023 0.961 . S
C1008 C1009 1.370 . S
C1008 C1010 1.363 . S
C1008 H1024 0.931 . S
C1009 C1008 1.370 . S
C1009 C1013 1.408 . S
C1010 C1008 1.363 . S
C1010 C1011 1.370 . S
C1010 C1014 1.524 . S
C1011 C1003 1.503 . S
C1011 C1010 1.370 . S
C1011 C1012 1.403 . S
C1012 C1011 1.403 . S
C1012 C1013 1.404 . S
C1012 C1015 1.539 . S
C1013 C1009 1.408 . S
C1013 C1012 1.404 . S
C1013 H1025 0.930 . S
C1014 C1010 1.524 . S
C1014 H1026 0.956 . S
C1014 H1027 0.961 . S
C1014 H1028 0.961 . S
C1015 C1012 1.539 . S
C1015 H1029 0.958 . S
C1015 H1030 0.961 . S
C1015 H1031 0.960 . S
H1016 C1000 0.931 . S
H1017 C1005 0.929 . S
H1018 C1006 0.960 . S
H1019 C1006 0.962 . S
H1020 C1006 0.960 . S
H1021 C1007 0.961 . S
H1022 C1007 0.961 . S
H1023 C1007 0.961 . S
H1024 C1008 0.931 . S
H1025 C1013 0.930 . S
H1026 C1014 0.956 . S
H1027 C1014 0.961 . S
H1028 C1014 0.961 . S
H1029 C1015 0.958 . S
H1030 C1015 0.961 . S
H1031 C1015 0.960 . S
C265 N1 2.709 . S
C273 C123 2.758 . S
C297 N18 2.406 . S
C305 C154 2.476 . S
C337 C193 0.800 . S
C329 N28 0.818 . S
C361 N40 0.620 . S
C369 C230 0.651 . S
C401 C153 3.161 . S
C393 N5 3.213 . S
C433 C110 1.333 . S
C425 N14 1.319 . S
C465 C242 1.390 . S
C457 N31 1.454 . S
C497 C199 0.699 . S
C489 N41 0.652 . S
C521 N2 2.208 . S
C529 C243 2.233 . S
C561 C159 1.451 . S
C553 N27 1.426 . S
C585 N44 0.754 . S
C593 C122 0.714 . S
C617 N15 2.075 . S
C625 C194 2.082 . S
C657 C114 3.242 1_655 S
C649 N57 3.261 . S
C681 N70 1.934 . S
C689 C163 1.966 . S
C713 N79 1.181 . S
C721 C202 1.176 . S
C745 N93 0.386 . S
C753 C239 0.331 . S
C777 N54 2.886 . S
C785 C162 2.756 . S
C817 C119 1.749 . S
C809 N66 1.784 . S
C849 C233 0.816 . S
C841 N80 0.788 . S
C881 C190 1.063 . S
C873 N96 1.092 . S
C905 N53 2.256 . S
C913 C234 2.264 . S
C945 C150 1.378 . S
C937 N83 1.390 . S
C977 C113 0.627 . S
C969 N92 0.679 . S
C1001 N67 2.151 . S
C1009 C203 2.187 . S
