# Generated by pormake.
# Topology pth, (4,4)-cn, num edge types: 1
# Building blocks:
#     Node 0, Type 0, BuildingBlock: NAHDIM_clean_sbu_0, # of connection points: 4
#     Node 1, Type 0, BuildingBlock: NAHDIM_clean_sbu_0, # of connection points: 4
#     Node 2, Type 0, BuildingBlock: NAHDIM_clean_sbu_0, # of connection points: 4
#     Node 3, Type 1, BuildingBlock: AZAVOO_clean_linker_0, # of connection points: 4
#     Node 4, Type 1, BuildingBlock: AZAVOO_clean_linker_0, # of connection points: 4
#     Node 5, Type 1, BuildingBlock: AZAVOO_clean_linker_0, # of connection points: 4
#     Edge 6, Type (0, 1), BuildingBlock: UVAHIK_clean_linker_0, # of connection points: 2
#     Edge 7, Type (0, 1), BuildingBlock: UVAHIK_clean_linker_0, # of connection points: 2
#     Edge 8, Type (0, 1), BuildingBlock: UVAHIK_clean_linker_0, # of connection points: 2
#     Edge 9, Type (0, 1), BuildingBlock: UVAHIK_clean_linker_0, # of connection points: 2
#     Edge 10, Type (0, 1), BuildingBlock: UVAHIK_clean_linker_0, # of connection points: 2
#     Edge 11, Type (0, 1), BuildingBlock: UVAHIK_clean_linker_0, # of connection points: 2
#     Edge 12, Type (0, 1), BuildingBlock: UVAHIK_clean_linker_0, # of connection points: 2
#     Edge 13, Type (0, 1), BuildingBlock: UVAHIK_clean_linker_0, # of connection points: 2
#     Edge 14, Type (0, 1), BuildingBlock: UVAHIK_clean_linker_0, # of connection points: 2
#     Edge 15, Type (0, 1), BuildingBlock: UVAHIK_clean_linker_0, # of connection points: 2
#     Edge 16, Type (0, 1), BuildingBlock: UVAHIK_clean_linker_0, # of connection points: 2
#     Edge 17, Type (0, 1), BuildingBlock: UVAHIK_clean_linker_0, # of connection points: 2
# Relax obj value: 0.147
# Max RMSD: 0.228
# Mean RMSD: 0.208
data_MOF--net-pth--node1-NAHDIM_clean_sbu_0--node2-AZAVOO_clean_linker_0--edge1-UVAHIK_clean_linker_0
_symmetry_space_group_name_H-M    P1
_symmetry_Int_Tables_number       1
_symmetry_cell_setting            triclinic
loop_
_symmetry_equiv_pos_as_xyz
'x, y, z'
_cell_length_a     32.659357
_cell_length_b     32.974246
_cell_length_c     86.988523
_cell_angle_alpha  93.955594
_cell_angle_beta   89.094824
_cell_angle_gamma 120.50777
loop_
_atom_site_label
_atom_site_type_symbol
_atom_site_fract_x
_atom_site_fract_y
_atom_site_fract_z
_atom_type_partial_charge
C0 C 0.03357 0.97189 0.07379 0.0
O1 O -0.0046 0.96465 0.0664 0.0
O2 O 0.06131 0.10491 0.08814 0.0
Zn3 Zn 0.06749 0.07004 0.06934 0.0
O4 O 0.013 0.05072 0.05447 0.0
C5 C 0.16382 0.14868 0.06479 0.0
O6 O 0.16427 0.16034 0.07956 0.0
O7 O 0.06864 0.01366 0.07596 0.0
C8 C 0.01963 0.04621 0.04017 0.0
O9 O 0.06128 0.05352 0.03565 0.0
C10 C 0.02616 0.08453 0.09693 0.0
O11 O 0.99309 0.04055 0.09331 0.0
O12 O 0.12765 0.11218 0.05871 0.0
C13 C 0.05023 0.14584 0.38308 0.0
O14 O 0.01579 0.12091 0.39242 0.0
O15 O 0.07761 0.04595 0.39366 0.0
Zn16 Zn 0.09797 0.11268 0.40105 0.0
O17 O 0.06071 0.11374 0.41939 0.0
C18 C 0.19461 0.13388 0.40111 0.0
O19 O 0.18011 0.10564 0.38848 0.0
O20 O 0.08969 0.14734 0.3844 0.0
C21 C 0.0485 0.0843 0.42965 0.0
O22 O 0.05962 0.05115 0.42812 0.0
C23 C 0.036 0.01425 0.38912 0.0
O24 O 0.00199 0.0244 0.38889 0.0
O25 O 0.16602 0.14397 0.408 0.0
C26 C 0.15059 0.04271 0.72067 0.0
O27 O 0.16472 0.08785 0.72239 0.0
O28 O 0.02994 0.04342 0.71633 0.0
Zn29 Zn 0.06786 0.03811 0.73313 0.0
O30 O 0.11046 0.10095 0.74456 0.0
C31 C -0.0004 0.01099 0.75617 0.0
O32 O 0.00995 0.0546 0.75476 0.0
O33 O 0.10847 0.0127 0.72426 0.0
C34 C 0.13354 0.1005 0.7561 0.0
O35 O 0.12667 0.05982 0.76009 0.0
C36 C 0.03873 0.0817 0.71087 0.0
O37 O 0.07624 0.12156 0.71595 0.0
O38 O 0.02112 0.99464 0.74792 0.0
H39 H 0.98393 0.46482 0.13475 0.0
H40 H 0.06836 0.85604 0.25446 0.0
H41 H 0.93428 0.43883 0.21687 0.0
H42 H 0.93511 0.36838 0.20661 0.0
H43 H 0.07693 0.42606 0.2257 0.0
H44 H 0.07613 0.49705 0.2356 0.0
H45 H 0.94362 0.51804 0.19621 0.0
H46 H 0.94728 0.49317 0.16931 0.0
H47 H 0.08776 0.51634 0.17823 0.0
H48 H 0.08386 0.54174 0.20505 0.0
H49 H 0.9458 0.60756 0.21239 0.0
H50 H 0.94933 0.65148 0.19035 0.0
H51 H 0.09264 0.68179 0.18182 0.0
H52 H 0.08916 0.63894 0.20415 0.0
H53 H 0.94213 0.62055 0.24898 0.0
H54 H 0.94711 0.69618 0.25587 0.0
H55 H 0.09367 0.76943 0.24189 0.0
H56 H 0.08834 0.69354 0.23523 0.0
H57 H 0.93307 0.54312 0.26877 0.0
H58 H 0.92844 0.57767 0.29418 0.0
H59 H 0.07742 0.68332 0.29218 0.0
H60 H 0.08172 0.64823 0.26698 0.0
H61 H 0.93258 0.44821 0.2532 0.0
H62 H 0.93207 0.39673 0.27231 0.0
H63 H 0.07627 0.50222 0.28612 0.0
H64 H 0.07628 0.55341 0.26706 0.0
O65 O 0.98323 0.47477 0.14544 0.0
O66 O 0.05512 0.48672 0.15067 0.0
O67 O 0.98993 0.7863 0.25884 0.0
O68 O 0.06535 0.82565 0.25178 0.0
C69 C 0.00741 0.51852 0.23079 0.0
C70 C 0.0113 0.54712 0.21885 0.0
C71 C 0.01366 0.59066 0.22242 0.0
C72 C 0.01217 0.60567 0.23789 0.0
C73 C 0.00876 0.5772 0.24985 0.0
C74 C 0.00639 0.53365 0.2463 0.0
C75 C 0.00523 0.47301 0.22687 0.0
C76 C 0.96513 0.43578 0.21907 0.0
C77 C 0.9656 0.39548 0.21331 0.0
C78 C 0.00622 0.3918 0.21528 0.0
C79 C 0.04537 0.42817 0.22385 0.0
C80 C 0.04486 0.46851 0.2296 0.0
C81 C 0.01345 0.53163 0.20255 0.0
C82 C 0.97518 0.51783 0.19231 0.0
C83 C 0.97735 0.50357 0.17696 0.0
C84 C 0.01781 0.50275 0.17161 0.0
C85 C 0.05606 0.51653 0.18197 0.0
C86 C 0.0539 0.53094 0.19729 0.0
C87 C 0.01721 0.62018 0.20981 0.0
C88 C 0.97811 0.62425 0.20586 0.0
C89 C 0.98004 0.64886 0.19319 0.0
C90 C 0.02114 0.66974 0.18428 0.0
C91 C 0.06065 0.66642 0.18852 0.0
C92 C 0.05869 0.64186 0.20121 0.0
C93 C 0.01487 0.65163 0.24162 0.0
C94 C 0.97527 0.65299 0.24743 0.0
C95 C 0.97821 0.69622 0.25134 0.0
C96 C 0.02083 0.73888 0.24944 0.0
C97 C 0.06034 0.73728 0.2435 0.0
C98 C 0.05737 0.69401 0.23964 0.0
C99 C 0.00766 0.59342 0.26607 0.0
C100 C 0.96486 0.57306 0.27403 0.0
C101 C 0.96223 0.59297 0.28845 0.0
C102 C 0.0025 0.6333 0.29514 0.0
C103 C 0.04592 0.65193 0.28744 0.0
C104 C 0.04844 0.63216 0.27302 0.0
C105 C 0.00445 0.50443 0.25878 0.0
C106 C 0.96382 0.46027 0.26048 0.0
C107 C 0.9637 0.4309 0.27132 0.0
C108 C 0.0042 0.44538 0.28066 0.0
C109 C 0.04435 0.49031 0.27922 0.0
C110 C 0.04447 0.51955 0.26834 0.0
C111 C 0.02002 0.48762 0.1553 0.0
C112 C 0.02424 0.78491 0.25365 0.0
H113 H 0.6458 0.10007 0.46652 0.0
H114 H 0.30561 0.09163 0.58807 0.0
H115 H 0.61761 0.01209 0.5452 0.0
H116 H 0.69017 0.01775 0.53486 0.0
H117 H 0.77316 0.15648 0.55817 0.0
H118 H 0.69991 0.15055 0.56837 0.0
H119 H 0.5507 0.02847 0.52434 0.0
H120 H 0.58078 0.04542 0.49822 0.0
H121 H 0.68884 0.18593 0.51514 0.0
H122 H 0.65796 0.16863 0.54118 0.0
H123 H 0.46338 0.02012 0.53675 0.0
H124 H 0.42766 0.03476 0.51475 0.0
H125 H 0.52551 0.18457 0.52278 0.0
H126 H 0.56113 0.16956 0.54468 0.0
H127 H 0.43917 0.99345 0.57436 0.0
H128 H 0.36236 0.98533 0.58098 0.0
H129 H 0.42321 0.13565 0.57837 0.0
H130 H 0.49993 0.14331 0.57194 0.0
H131 H 0.51692 0.98483 0.59398 0.0
H132 H 0.47661 0.96277 0.61861 0.0
H133 H 0.49365 0.10163 0.62601 0.0
H134 H 0.53523 0.12366 0.60174 0.0
H135 H 0.61362 0.00199 0.57967 0.0
H136 H 0.66996 0.00262 0.59805 0.0
H137 H 0.6922 0.13446 0.61977 0.0
H138 H 0.6371 0.13425 0.60099 0.0
O139 O 0.63447 0.09412 0.47695 0.0
O140 O 0.68966 0.1658 0.48625 0.0
O141 O 0.306 0.01673 0.58664 0.0
O142 O 0.33552 0.0938 0.58541 0.0
C143 C 0.60911 0.07976 0.56171 0.0
C144 C 0.58348 0.08703 0.55042 0.0
C145 C 0.54023 0.08473 0.55414 0.0
C146 C 0.52181 0.07378 0.56902 0.0
C147 C 0.54792 0.06713 0.58042 0.0
C148 C 0.59195 0.07086 0.57682 0.0
C149 C 0.65371 0.08096 0.55746 0.0
C150 C 0.65159 0.04326 0.54831 0.0
C151 C 0.69307 0.04648 0.54251 0.0
C152 C 0.73733 0.08761 0.5457 0.0
C153 C 0.73948 0.12453 0.55546 0.0
C154 C 0.69788 0.12115 0.56133 0.0
C155 C 0.60214 0.09736 0.5346 0.0
C156 C 0.58076 0.06292 0.52235 0.0
C157 C 0.59807 0.07268 0.50746 0.0
C158 C 0.63722 0.11704 0.50458 0.0
C159 C 0.65864 0.15141 0.51695 0.0
C160 C 0.64117 0.14163 0.53183 0.0
C161 C 0.5146 0.09383 0.54225 0.0
C162 C 0.47647 0.05608 0.53387 0.0
C163 C 0.4565 0.06446 0.52129 0.0
C164 C 0.47412 0.11077 0.51705 0.0
C165 C 0.51113 0.14861 0.52587 0.0
C166 C 0.53142 0.14015 0.53834 0.0
C167 C 0.475 0.06892 0.57263 0.0
C168 C 0.43578 0.02455 0.57522 0.0
C169 C 0.39198 0.02003 0.57899 0.0
C170 C 0.38663 0.05987 0.5802 0.0
C171 C 0.42606 0.10426 0.57752 0.0
C172 C 0.46987 0.10872 0.57378 0.0
C173 C 0.52862 0.0557 0.59607 0.0
C174 C 0.51275 0.01069 0.60112 0.0
C175 C 0.48947 -0.00193 0.61511 0.0
C176 C 0.48169 0.03033 0.62425 0.0
C177 C 0.49958 0.0761 0.6194 0.0
C178 C 0.52298 0.08869 0.60547 0.0
C179 C 0.62156 0.06819 0.58898 0.0
C180 C 0.63047 0.03078 0.58848 0.0
C181 C 0.66243 0.0311 0.59904 0.0
C182 C 0.68582 0.06879 0.6103 0.0
C183 C 0.6754 0.10535 0.61107 0.0
C184 C 0.6436 0.10507 0.60048 0.0
C185 C 0.6555 0.1273 0.48874 0.0
C186 C 0.34023 0.0553 0.58427 0.0
H187 H 0.53992 0.74268 0.00162 0.0
H188 H 0.35826 0.29349 0.89431 0.0
H189 H 0.54068 0.72794 0.9189 0.0
H190 H 0.59876 0.80596 0.93059 0.0
H191 H 0.71067 0.77437 0.92174 0.0
H192 H 0.6526 0.69715 0.9099 0.0
H193 H 0.47207 0.64394 0.94072 0.0
H194 H 0.4871 0.68331 0.96664 0.0
H195 H 0.62867 0.70339 0.96659 0.0
H196 H 0.61287 0.66328 0.9408 0.0
H197 H 0.40707 0.53152 0.92704 0.0
H198 H 0.36967 0.47676 0.94735 0.0
H199 H 0.5079 0.50745 0.96314 0.0
H200 H 0.54502 0.5612 0.94254 0.0
H201 H 0.40356 0.51439 0.89175 0.0
H202 H 0.35009 0.42956 0.88618 0.0
H203 H 0.45354 0.40283 0.90639 0.0
H204 H 0.50691 0.4878 0.91169 0.0
H205 H 0.46038 0.59053 0.87072 0.0
H206 H 0.42837 0.53897 0.84715 0.0
H207 H 0.51705 0.47983 0.8555 0.0
H208 H 0.54741 0.53045 0.87936 0.0
H209 H 0.54493 0.70461 0.8815 0.0
H210 H 0.59605 0.75213 0.86111 0.0
H211 H 0.67075 0.67501 0.86095 0.0
H212 H 0.61893 0.62732 0.88097 0.0
O213 O 0.53452 0.72671 0.99145 0.0
O214 O 0.60724 0.7369 0.99071 0.0
O215 O 0.32685 0.34288 0.88603 0.0
O216 O 0.37865 0.32721 0.89642 0.0
C217 C 0.55681 0.65634 0.91045 0.0
C218 C 0.53275 0.62875 0.9229 0.0
C219 C 0.50098 0.57985 0.9202 0.0
C220 C 0.49208 0.55875 0.90502 0.0
C221 C 0.51598 0.58641 0.8926 0.0
C222 C 0.54906 0.63495 0.89533 0.0
C223 C 0.59252 0.70696 0.91365 0.0
C224 C 0.57802 0.73869 0.91902 0.0
C225 C 0.61115 0.783 0.9258 0.0
C226 C 0.65923 0.79611 0.9273 0.0
C227 C 0.67407 0.76568 0.92065 0.0
C228 C 0.64093 0.72145 0.91387 0.0
C229 C 0.54147 0.65107 0.93886 0.0
C230 C 0.50618 0.65663 0.94638 0.0
C231 C 0.51493 0.67924 0.96116 0.0
C232 C 0.55917 0.69669 0.96866 0.0
C233 C 0.59427 0.69052 0.96113 0.0
C234 C 0.58539 0.66772 0.94639 0.0
C235 C 0.47867 0.55016 0.93332 0.0
C236 C 0.42923 0.52653 0.93492 0.0
C237 C 0.40801 0.49534 0.94647 0.0
C238 C 0.43602 0.48792 0.95672 0.0
C239 C 0.48565 0.51289 0.95543 0.0
C240 C 0.50681 0.54354 0.94373 0.0
C241 C 0.45905 0.50715 0.90211 0.0
C242 C 0.41459 0.49013 0.89494 0.0
C243 C 0.38412 0.44167 0.89179 0.0
C244 C 0.39757 0.40939 0.89583 0.0
C245 C 0.44209 0.42668 0.90312 0.0
C246 C 0.47258 0.47516 0.90621 0.0
C247 C 0.50582 0.56383 0.87674 0.0
C248 C 0.47378 0.56733 0.8672 0.0
C249 C 0.45563 0.53787 0.85372 0.0
C250 C 0.46962 0.50473 0.84955 0.0
C251 C 0.50477 0.50423 0.85856 0.0
C252 C 0.52254 0.53339 0.87209 0.0
C253 C 0.57818 0.66248 0.88259 0.0
C254 C 0.57212 0.69788 0.87691 0.0
C255 C 0.60148 0.72507 0.86536 0.0
C256 C 0.63743 0.71728 0.85938 0.0
C257 C 0.64289 0.68136 0.86507 0.0
C258 C 0.61349 0.6542 0.87655 0.0
C259 C 0.5686 0.72131 0.98427 0.0
C260 C 0.36544 0.35789 0.89244 0.0
C261 C 0.06092 0.15525 0.11574 0.0
C262 C 0.02312 0.10995 0.11117 0.0
C263 C 0.05825 0.17949 0.12914 0.0
C264 C 0.9727 0.18794 0.15471 0.0
H265 H 0.0832 0.26233 0.18172 0.0
C266 C 0.97 0.30639 0.20603 0.0
C267 C 0.00934 0.35257 0.20706 0.0
C268 C 0.97118 0.27094 0.1966 0.0
C269 C 0.05207 0.2418 0.17428 0.0
H270 H 0.95299 0.05438 0.11716 0.0
H271 H 0.94828 0.09703 0.1406 0.0
H272 H 0.08584 0.21118 0.16056 0.0
H273 H 0.08113 0.39746 0.19933 0.0
H274 H 0.08319 0.33589 0.18293 0.0
H275 H 0.93944 0.2197 0.16805 0.0
C276 C 0.97989 0.11371 0.13374 0.0
C277 C 0.0536 0.21255 0.16217 0.0
C278 C 0.98267 0.08929 0.12035 0.0
C279 C 0.05053 0.36207 0.19899 0.0
C280 C 0.05169 0.32671 0.18957 0.0
C281 C 0.97122 0.21732 0.16679 0.0
C282 C 0.01765 0.15908 0.13826 0.0
C283 C 0.01428 0.1861 0.15206 0.0
C284 C 0.01169 0.28099 0.188 0.0
C285 C 0.01125 0.24535 0.1765 0.0
H286 H 0.09263 0.17217 0.10893 0.0
H287 H 0.08762 0.2147 0.1322 0.0
H288 H 0.94201 0.16832 0.14703 0.0
H289 H 0.93797 0.29791 0.21226 0.0
H290 H 0.94005 0.23587 0.1958 0.0
C291 C 0.01715 0.12749 0.44589 0.0
C292 C 0.02238 0.08788 0.44319 0.0
C293 C 0.99192 0.13088 0.4585 0.0
C294 C 0.94322 0.08132 0.49598 0.0
H295 H 0.85909 0.12931 0.48887 0.0
C296 C 0.78863 0.05594 0.53549 0.0
C297 C 0.77991 0.09354 0.53752 0.0
C298 C 0.82427 0.05906 0.52569 0.0
C299 C 0.88298 0.11654 0.49112 0.0
H300 H 0.0057 0.02096 0.45168 0.0
H301 H 0.96045 0.0263 0.47353 0.0
H302 H 0.90841 0.12633 0.46815 0.0
H303 H 0.80308 0.16465 0.53147 0.0
H304 H 0.86565 0.17027 0.51452 0.0
H305 H 0.91629 0.07028 0.5189 0.0
C306 C 0.97668 0.05518 0.46605 0.0
C307 C 0.91128 0.11482 0.47924 0.0
C308 C 0.00231 0.05195 0.45347 0.0
C309 C 0.8092 0.13525 0.53024 0.0
C310 C 0.84466 0.13828 0.5204 0.0
C311 C 0.91456 0.08277 0.50787 0.0
C312 C 0.97089 0.09454 0.46863 0.0
C313 C 0.94169 0.09713 0.4815 0.0
C314 C 0.85162 0.09973 0.51769 0.0
C315 C 0.88413 0.10035 0.50553 0.0
H316 H 0.03261 0.15604 0.43827 0.0
H317 H 0.98893 0.1621 0.46031 0.0
H318 H 0.9667 0.06804 0.49815 0.0
H319 H 0.76681 0.02353 0.54107 0.0
H320 H 0.82873 0.02873 0.52377 0.0
C321 C 0.94247 0.00091 0.77707 0.0
C322 C 0.96229 0.98111 0.7668 0.0
C323 C 0.90632 0.97262 0.78686 0.0
C324 C 0.81169 0.85054 0.79091 0.0
H325 H 0.81753 0.89164 0.83409 0.0
C326 C 0.68563 0.72777 0.83567 0.0
C327 C 0.67036 0.74743 0.84767 0.0
C328 C 0.71939 0.75655 0.82534 0.0
C329 C 0.81491 0.87996 0.82201 0.0
H330 H 0.95992 0.91616 0.75875 0.0
H331 H 0.89654 0.8667 0.77585 0.0
H332 H 0.88085 0.94141 0.81713 0.0
H333 H 0.67785 0.81273 0.85799 0.0
H334 H 0.73555 0.86277 0.83964 0.0
H335 H 0.7456 0.7893 0.79572 0.0
C336 C 0.9089 0.9041 0.77625 0.0
C337 C 0.85131 0.90842 0.81233 0.0
C338 C 0.94537 0.93246 0.76655 0.0
C339 C 0.68853 0.79639 0.8488 0.0
C340 C 0.72213 0.82516 0.83842 0.0
C341 C 0.77509 0.82222 0.80058 0.0
C342 C 0.88899 0.92391 0.78648 0.0
C343 C 0.85016 0.89388 0.79671 0.0
C344 C 0.73847 0.80566 0.8267 0.0
C345 C 0.77639 0.83649 0.81626 0.0
H346 H 0.95474 0.03828 0.77754 0.0
H347 H 0.89134 0.98875 0.79454 0.0
H348 H 0.8096 0.83881 0.77886 0.0
H349 H 0.67182 0.6901 0.83434 0.0
H350 H 0.73144 0.74036 0.81655 0.0
C351 C 0.07378 0.94156 0.08977 0.0
C352 C 0.03387 0.9329 0.08109 0.0
C353 C 0.07229 0.90636 0.09819 0.0
C354 C 0.98627 0.80186 0.11728 0.0
H355 H 0.09582 0.78876 0.12436 0.0
C356 C 0.98306 0.67518 0.16033 0.0
C357 C 0.02255 0.69438 0.1705 0.0
C358 C 0.984 0.69881 0.1475 0.0
C359 C 0.06499 0.79214 0.12251 0.0
H360 H 0.96204 0.87968 0.0737 0.0
H361 H 0.95962 0.81799 0.08834 0.0
H362 H 0.09837 0.83895 0.10455 0.0
H363 H 0.09405 0.75324 0.17514 0.0
H364 H 0.09564 0.79458 0.15276 0.0
H365 H 0.95331 0.75606 0.13547 0.0
C366 C 0.99177 0.8523 0.08881 0.0
C367 C 0.06642 0.82079 0.11117 0.0
C368 C 0.99325 0.88757 0.08038 0.0
C369 C 0.06328 0.7373 0.16742 0.0
C370 C 0.06423 0.7609 0.15459 0.0
C371 C 0.98481 0.77317 0.12858 0.0
C372 C 0.0309 0.86169 0.09809 0.0
C373 C 0.02742 0.82672 0.10866 0.0
C374 C 0.02446 0.74208 0.14456 0.0
C375 C 0.0245 0.76877 0.13153 0.0
H376 H 0.1057 0.97606 0.09052 0.0
H377 H 0.10286 0.91492 0.10534 0.0
H378 H 0.9559 0.80623 0.1158 0.0
H379 H 0.95149 0.64171 0.16224 0.0
H380 H 0.95305 0.68318 0.13987 0.0
C381 C 0.25476 0.17591 0.42252 0.0
C382 C 0.23963 0.146 0.40893 0.0
C383 C 0.29162 0.18002 0.43164 0.0
C384 C 0.33805 0.10612 0.44156 0.0
H385 H 0.4302 0.21739 0.46623 0.0
C386 C 0.44977 0.09292 0.4892 0.0
C387 C 0.45513 0.11945 0.50313 0.0
C388 C 0.43174 0.10086 0.47603 0.0
C389 C 0.40446 0.18596 0.45948 0.0
H390 H 0.25403 0.10021 0.39357 0.0
H391 H 0.31839 0.10737 0.40957 0.0
H392 H 0.38613 0.22547 0.44537 0.0
H393 H 0.44634 0.17526 0.51427 0.0
H394 H 0.41342 0.18829 0.4914 0.0
H395 H 0.35427 0.06621 0.45601 0.0
C396 C 0.30129 0.12715 0.41321 0.0
C397 C 0.37949 0.19067 0.4475 0.0
C398 C 0.26459 0.12325 0.40403 0.0
C399 C 0.44274 0.1545 0.50363 0.0
C400 C 0.42422 0.16214 0.49049 0.0
C401 C 0.36267 0.10137 0.45359 0.0
C402 C 0.31392 0.15417 0.42738 0.0
C403 C 0.34546 0.15067 0.43859 0.0
C404 C 0.41821 0.13519 0.47655 0.0
C405 C 0.39554 0.14111 0.46288 0.0
H406 H 0.23649 0.19422 0.42654 0.0
H407 H 0.30042 0.20095 0.44253 0.0
H408 H 0.31139 0.07454 0.43509 0.0
H409 H 0.45993 0.06628 0.48845 0.0
H410 H 0.42839 0.08006 0.46543 0.0
C411 C 0.1807 0.18895 0.75923 0.0
C412 C 0.17016 0.14504 0.76419 0.0
C413 C 0.21692 0.23087 0.76654 0.0
C414 C 0.32441 0.2767 0.79137 0.0
H415 H 0.30394 0.38111 0.80205 0.0
C416 C 0.43105 0.42058 0.83906 0.0
C417 C 0.44382 0.46746 0.83699 0.0
C418 C 0.40261 0.38433 0.82811 0.0
C419 C 0.31055 0.35261 0.7989 0.0
H420 H 0.18884 0.1107 0.78085 0.0
H421 H 0.25132 0.1836 0.79368 0.0
H422 H 0.24331 0.31141 0.78701 0.0
H423 H 0.43794 0.51311 0.82148 0.0
H424 H 0.38748 0.44932 0.80237 0.0
H425 H 0.39102 0.31732 0.80361 0.0
C426 C 0.23228 0.18572 0.78398 0.0
C427 C 0.2758 0.31266 0.79031 0.0
C428 C 0.19616 0.14392 0.7767 0.0
C429 C 0.42834 0.47733 0.82349 0.0
C430 C 0.39951 0.44088 0.81255 0.0
C431 C 0.35904 0.31653 0.79997 0.0
C432 C 0.24333 0.22966 0.77892 0.0
C433 C 0.28192 0.27386 0.78675 0.0
C434 C 0.3859 0.39394 0.81487 0.0
C435 C 0.35203 0.35446 0.80411 0.0
H436 H 0.16138 0.19097 0.74959 0.0
H437 H 0.22476 0.26418 0.76232 0.0
H438 H 0.33065 0.24782 0.78851 0.0
H439 H 0.44128 0.41143 0.84948 0.0
H440 H 0.39202 0.34843 0.83036 0.0
C441 C 0.96338 0.03862 0.69509 0.0
C442 C 0.00494 0.08124 0.69964 0.0
C443 C 0.92989 0.0381 0.68521 0.0
C444 C 0.91325 0.10544 0.65646 0.0
H445 H 0.7804 0.03046 0.66686 0.0
C446 C 0.76476 0.11372 0.62426 0.0
C447 C 0.72223 0.07086 0.62084 0.0
C448 C 0.7996 0.11565 0.63389 0.0
C449 C 0.81727 0.05112 0.66369 0.0
H450 H 0.04442 0.15663 0.69705 0.0
H451 H 0.98566 0.15566 0.67974 0.0
H452 H 0.8412 0.03271 0.68335 0.0
H453 H 0.68278 -0.00351 0.62498 0.0
H454 H 0.74403 -0.00039 0.64152 0.0
H455 H 0.88928 0.1236 0.63672 0.0
C456 C 0.97923 0.12266 0.68382 0.0
C457 C 0.85211 0.05245 0.67315 0.0
C458 C 0.01277 0.12323 0.69378 0.0
C459 C 0.7153 0.02997 0.62729 0.0
C460 C 0.75018 0.03189 0.6369 0.0
C461 C 0.87836 0.104 0.64695 0.0
C462 C 0.93718 0.08014 0.6796 0.0
C463 C 0.90044 0.07947 0.66961 0.0
C464 C 0.79277 0.07474 0.64029 0.0
C465 C 0.82995 0.0767 0.65044 0.0
H466 H 0.95629 0.00557 0.69932 0.0
H467 H 0.89821 0.00469 0.68196 0.0
H468 H 0.95018 0.12616 0.65335 0.0
H469 H 0.77149 0.14575 0.61931 0.0
H470 H 0.83176 0.1493 0.6364 0.0
C471 C 0.98926 0.02892 0.01291 0.0
C472 C 0.98086 0.03185 0.02873 0.0
C473 C 0.95235 0.01337 0.00207 0.0
C474 C 0.82338 0.93858 -0.00154 0.0
H475 H 0.84173 0.98914 0.95833 0.0
C476 C 0.67704 0.84629 0.95198 0.0
C477 C 0.69239 0.83762 0.93759 0.0
C478 C 0.70969 0.87939 0.96296 0.0
C479 C 0.83608 0.97463 0.96948 0.0
H480 H 0.92744 0.02219 0.04556 0.0
H481 H 0.86286 0.99492 0.02657 0.0
H482 H 0.90436 0.02954 0.97819 0.0
H483 H 0.75352 0.85952 0.923 0.0
H484 H 0.81075 0.91634 0.94231 0.0
H485 H 0.75614 0.88272 0.98968 0.0
C486 C 0.898 0.00434 0.0226 0.0
C487 C 0.8719 -0.00226 0.98084 0.0
C488 C 0.93499 0.02005 0.03345 0.0
C489 C 0.74069 0.865 0.93406 0.0
C490 C 0.77342 0.89794 0.94508 0.0
C491 C 0.78769 0.91543 0.98711 0.0
C492 C 0.90618 0.00031 0.0068 0.0
C493 C 0.86629 0.97939 0.99535 0.0
C494 C 0.75847 0.90431 0.95984 0.0
C495 C 0.79397 0.93263 0.97238 0.0
H496 H 0.02422 0.03789 0.00888 0.0
H497 H 0.95967 0.01005 0.99 0.0
H498 H 0.81823 0.92315 0.00943 0.0
H499 H 0.64019 0.82552 0.95517 0.0
H500 H 0.69692 0.88405 0.97413 0.0
C501 C 0.06154 0.95454 0.38594 0.0
C502 C 0.02707 0.96707 0.3835 0.0
C503 C 0.05522 0.91163 0.37964 0.0
C504 C 0.96698 0.79507 0.36065 0.0
H505 H 0.07857 0.80555 0.34063 0.0
C506 C 0.9609 0.66789 0.31059 0.0
C507 C -0.00141 0.65896 0.30924 0.0
C508 C 0.96106 0.69854 0.32253 0.0
C509 C 0.04726 0.80159 0.34642 0.0
H510 H 0.95802 0.94358 0.37308 0.0
H511 H 0.94748 0.86901 0.36173 0.0
H512 H 0.08502 0.87268 0.35609 0.0
H513 H 0.06404 0.6721 0.31998 0.0
H514 H 0.06424 0.72553 0.34091 0.0
H515 H 0.92897 0.7242 0.35041 0.0
C516 C 0.97909 0.89207 0.36872 0.0
C517 C 0.05094 0.84019 0.35529 0.0
C518 C 0.98525 0.93494 0.37514 0.0
C519 C 0.03491 0.67894 0.32061 0.0
C520 C 0.03503 0.70953 0.33256 0.0
C521 C 0.96327 0.75636 0.3517 0.0
C522 C 0.01448 0.88038 0.37064 0.0
C523 C 0.01076 0.83767 0.36234 0.0
C524 C -0.00109 0.72086 0.33336 0.0
C525 C 0.00327 0.75948 0.34431 0.0
H526 H 0.09388 0.97824 0.39252 0.0
H527 H 0.08271 0.90329 0.38162 0.0
H528 H 0.9355 0.79179 0.3661 0.0
H529 H 0.93269 0.65347 0.3019 0.0
H530 H 0.93297 0.7069 0.32271 0.0
C531 C 0.16668 0.98105 0.70853 0.0
C532 C 0.18352 0.02763 0.71454 0.0
C533 C 0.19804 0.9683 0.70173 0.0
C534 C 0.32544 0.00638 0.69806 0.0
H535 H 0.2911 0.95507 0.65574 0.0
C536 C 0.46232 0.04713 0.65109 0.0
C537 C 0.45158 0.01553 0.63805 0.0
C538 C 0.42984 0.03651 0.66293 0.0
C539 C 0.30103 0.96817 0.66766 0.0
H540 H 0.2465 0.09665 0.71889 0.0
H541 H 0.30097 0.0744 0.70714 0.0
H542 H 0.23206 0.95797 0.67237 0.0
H543 H 0.39973 0.94639 0.62778 0.0
H544 H 0.34377 0.92722 0.64868 0.0
H545 H 0.39491 0.01807 0.69322 0.0
C546 C 0.26371 0.04771 0.70766 0.0
C547 C 0.26708 0.96991 0.67718 0.0
C548 C 0.2324 0.06058 0.71424 0.0
C549 C 0.40923 0.97151 0.63767 0.0
C550 C 0.37685 0.96073 0.64958 0.0
C551 C 0.35933 0.00428 0.68858 0.0
C552 C 0.24678 0.00173 0.70109 0.0
C553 C 0.2795 0.99073 0.69227 0.0
C554 C 0.38598 0.99385 0.66206 0.0
C555 C 0.34805 0.98693 0.67307 0.0
H556 H 0.12917 0.95489 0.70864 0.0
H557 H 0.18414 0.93259 0.69675 0.0
H558 H 0.3357 0.02199 0.70975 0.0
H559 H 0.49504 0.08098 0.65186 0.0
H560 H 0.43805 0.06308 0.67229 0.0
C561 C 0.23766 0.22578 0.06039 0.0
C562 C 0.20165 0.18074 0.0547 0.0
C563 C 0.26888 0.25832 0.05026 0.0
C564 C 0.26755 0.28702 0.01094 0.0
H565 H 0.40428 0.3677 0.01564 0.0
C566 C 0.37594 0.40717 0.96377 0.0
C567 C 0.41323 0.45264 0.96829 0.0
C568 C 0.35374 0.3737 0.97459 0.0
C569 C 0.36604 0.34579 0.01429 0.0
H570 H 0.17252 0.13327 0.0341 0.0
H571 H 0.22668 0.18997 0.01656 0.0
H572 H 0.36027 0.30919 0.03444 0.0
H573 H 0.4572 0.49889 0.98753 0.0
H574 H 0.41733 0.44069 0.00667 0.0
H575 H 0.27243 0.32388 0.99118 0.0
C576 C 0.23034 0.20033 0.02878 0.0
C577 C 0.341 0.31227 0.025 0.0
C578 C 0.19941 0.16788 0.03885 0.0
C579 C 0.42851 0.46393 0.98379 0.0
C580 C 0.40586 0.43054 0.9947 0.0
C581 C 0.29234 0.32067 0.00038 0.0
C582 C 0.26432 0.24626 0.03432 0.0
C583 C 0.2916 0.28229 0.02329 0.0
C584 C 0.36789 0.38516 0.99023 0.0
C585 C 0.34194 0.35015 0.0018 0.0
H586 H 0.24042 0.23663 0.07255 0.0
H587 H 0.29485 0.2936 0.05478 0.0
H588 H 0.2293 0.26501 0.00956 0.0
H589 H 0.3642 0.39738 0.95181 0.0
H590 H 0.32545 0.33874 0.97067 0.0
C591 C 0.00072 0.17322 0.37073 0.0
C592 C 0.04382 0.17359 0.37171 0.0
C593 C 0.99526 0.20106 0.36051 0.0
C594 C 0.06491 0.30748 0.33937 0.0
H595 H 0.94678 0.26076 0.31638 0.0
C596 C 0.02622 0.42999 0.30621 0.0
C597 C 0.00546 0.41303 0.29141 0.0
C598 C 0.02954 0.39994 0.31601 0.0
C599 C 0.98009 0.27421 0.32265 0.0
H600 H 0.11464 0.20263 0.36249 0.0
H601 H 0.10489 0.25089 0.34453 0.0
H602 H 0.95589 0.20876 0.33286 0.0
H603 H 0.97194 0.35131 0.27526 0.0
H604 H 0.97772 0.29884 0.29238 0.0
H605 H 0.08943 0.37264 0.32898 0.0
C606 C 0.07558 0.22959 0.35184 0.0
C607 C 0.98513 0.24459 0.3322 0.0
C608 C 0.08105 0.20173 0.36206 0.0
C609 C 0.98745 0.36523 0.2867 0.0
C610 C 0.9908 0.33519 0.29649 0.0
C611 C 0.05985 0.3371 0.32985 0.0
C612 C 0.03277 0.22986 0.35105 0.0
C613 C 0.0276 0.26092 0.34067 0.0
C614 C 0.01223 0.35231 0.31121 0.0
C615 C 0.01736 0.32082 0.3214 0.0
H616 H 0.97134 0.15196 0.37801 0.0
H617 H 0.96201 0.20088 0.36029 0.0
H618 H 0.09787 0.32129 0.34589 0.0
H619 H 0.03983 0.46651 0.31023 0.0
H620 H 0.04552 0.41398 0.32738 0.0
loop_
_geom_bond_atom_site_label_1
_geom_bond_atom_site_label_2
_geom_bond_distance
_geom_bond_site_symmetry_2
_ccdc_geom_bond_type
C0 O1 1.160 . S
C0 O7 1.185 . S
O1 C0 1.160 . S
O2 Zn3 1.899 . S
O2 C10 1.284 . S
Zn3 O2 1.899 . S
Zn3 O4 2.032 . S
Zn3 O7 2.086 . S
Zn3 O12 1.977 . S
O4 Zn3 2.032 . S
O4 C8 1.284 . S
C5 O6 1.203 . S
C5 O12 1.267 . S
O6 C5 1.203 . S
O7 C0 1.185 . S
O7 Zn3 2.086 . S
C8 O4 1.284 . S
C8 O9 1.211 . S
O9 C8 1.211 . S
C10 O2 1.284 . S
C10 O11 1.273 . S
O11 C10 1.273 . S
O12 Zn3 1.977 . S
O12 C5 1.267 . S
C13 O14 1.160 . S
C13 O20 1.185 . S
O14 C13 1.160 . S
O15 Zn16 1.899 . S
O15 C23 1.284 . S
Zn16 O15 1.899 . S
Zn16 O17 2.032 . S
Zn16 O20 2.086 . S
Zn16 O25 1.977 . S
O17 Zn16 2.032 . S
O17 C21 1.278 . S
C18 O19 1.203 . S
C18 O25 1.267 . S
O19 C18 1.203 . S
O20 C13 1.185 . S
O20 Zn16 2.086 . S
C21 O17 1.278 . S
C21 O22 1.211 . S
O22 C21 1.211 . S
C23 O15 1.284 . S
C23 O24 1.273 1_545 S
O24 C23 1.273 1_565 S
O25 Zn16 1.977 . S
O25 C18 1.267 . S
C26 O27 1.160 . S
C26 O33 1.185 . S
O27 C26 1.160 . S
O28 Zn29 1.899 . S
O28 C36 1.284 . S
Zn29 O28 1.899 . S
Zn29 O30 2.032 . S
Zn29 O33 2.086 . S
Zn29 O38 1.977 . S
O30 Zn29 2.032 . S
O30 C34 1.278 . S
C31 O32 1.225 . S
C31 O38 1.260 . S
O32 C31 1.225 . S
O33 C26 1.185 . S
O33 Zn29 2.086 . S
C34 O30 1.278 . S
C34 O35 1.211 . S
O35 C34 1.211 . S
C36 O28 1.284 . S
C36 O37 1.273 . S
O37 C36 1.273 . S
O38 Zn29 1.977 . S
O38 C31 1.260 . S
H39 O65 0.856 . S
H40 O68 0.854 . S
H41 C76 0.930 . S
H42 C77 0.930 . S
H43 C79 0.930 . S
H44 C80 0.930 . S
H45 C82 0.931 1_655 S
H46 C83 0.930 1_655 S
H47 C85 0.930 . S
H48 C86 0.929 . S
H49 C88 0.930 1_655 S
H50 C89 0.931 1_655 S
H51 C91 0.930 . S
H52 C92 0.929 . S
H53 C94 0.931 1_655 S
H54 C95 0.930 1_655 S
H55 C97 0.930 . S
H56 C98 0.932 . S
H57 C100 0.930 . S
H58 C101 0.929 . S
H59 C103 0.931 . S
H60 C104 0.930 . S
H61 C106 0.929 1_655 S
H62 C107 0.931 1_655 S
H63 C109 0.930 . S
H64 C110 0.929 . S
O65 H39 0.856 . S
O65 C111 1.300 . S
O66 C111 1.209 . S
O67 C112 1.199 . S
O68 H40 0.854 . S
O68 C112 1.297 . S
C69 C70 1.404 . S
C69 C74 1.397 . S
C69 C75 1.492 . S
C70 C69 1.404 . S
C70 C71 1.396 . S
C70 C81 1.492 . S
C71 C70 1.396 . S
C71 C72 1.397 . S
C71 C87 1.509 . S
C72 C71 1.397 . S
C72 C73 1.412 . S
C72 C93 1.485 . S
C73 C72 1.412 . S
C73 C74 1.388 . S
C73 C99 1.490 . S
C74 C69 1.397 . S
C74 C73 1.388 . S
C74 C105 1.519 . S
C75 C69 1.492 . S
C75 C76 1.363 1_455 S
C75 C80 1.390 . S
C76 H41 0.930 . S
C76 C75 1.363 1_655 S
C76 C77 1.372 . S
C77 H42 0.930 . S
C77 C76 1.372 . S
C77 C78 1.383 1_655 S
C78 C77 1.383 1_455 S
C78 C79 1.395 . S
C79 H43 0.930 . S
C79 C78 1.395 . S
C79 C80 1.362 . S
C80 H44 0.930 . S
C80 C75 1.390 . S
C80 C79 1.362 . S
C81 C70 1.492 . S
C81 C82 1.377 . S
C81 C86 1.397 . S
C82 H45 0.931 1_455 S
C82 C81 1.377 . S
C82 C83 1.376 . S
C83 H46 0.930 1_455 S
C83 C82 1.376 . S
C83 C84 1.376 . S
C84 C83 1.376 . S
C84 C85 1.378 . S
C84 C111 1.486 . S
C85 H47 0.930 . S
C85 C84 1.378 . S
C85 C86 1.376 . S
C86 H48 0.929 . S
C86 C81 1.397 . S
C86 C85 1.376 . S
C87 C71 1.509 . S
C87 C88 1.391 . S
C87 C92 1.386 . S
C88 H49 0.930 1_455 S
C88 C87 1.391 . S
C88 C89 1.375 . S
C89 H50 0.931 1_455 S
C89 C88 1.375 . S
C89 C90 1.375 . S
C90 C89 1.375 . S
C90 C91 1.361 . S
C91 H51 0.930 . S
C91 C90 1.361 . S
C91 C92 1.399 . S
C92 H52 0.929 . S
C92 C87 1.386 . S
C92 C91 1.399 . S
C93 C72 1.485 . S
C93 C94 1.394 . S
C93 C98 1.360 . S
C94 H53 0.931 1_455 S
C94 C93 1.394 . S
C94 C95 1.372 . S
C95 H54 0.930 1_455 S
C95 C94 1.372 . S
C95 C96 1.397 . S
C96 C95 1.397 . S
C96 C97 1.390 . S
C96 C112 1.476 . S
C97 H55 0.930 . S
C97 C96 1.390 . S
C97 C98 1.366 . S
C98 H56 0.932 . S
C98 C93 1.360 . S
C98 C97 1.366 . S
C99 C73 1.490 . S
C99 C100 1.380 1_455 S
C99 C104 1.386 . S
C100 H57 0.930 . S
C100 C99 1.380 1_655 S
C100 C101 1.381 . S
C101 H58 0.929 . S
C101 C100 1.381 . S
C101 C102 1.371 1_655 S
C102 C101 1.371 1_455 S
C102 C103 1.380 . S
C103 H59 0.931 . S
C103 C102 1.380 . S
C103 C104 1.387 . S
C104 H60 0.930 . S
C104 C99 1.386 . S
C104 C103 1.387 . S
C105 C74 1.519 . S
C105 C106 1.377 . S
C105 C110 1.361 . S
C106 H61 0.929 1_455 S
C106 C105 1.377 . S
C106 C107 1.386 . S
C107 H62 0.931 1_455 S
C107 C106 1.386 . S
C107 C108 1.363 . S
C108 C107 1.363 . S
C108 C109 1.385 . S
C109 H63 0.930 . S
C109 C108 1.385 . S
C109 C110 1.396 . S
C110 H64 0.929 . S
C110 C105 1.361 . S
C110 C109 1.396 . S
C111 O65 1.300 . S
C111 O66 1.209 . S
C111 C84 1.486 . S
C112 O67 1.199 . S
C112 O68 1.297 . S
C112 C96 1.476 . S
H113 O139 0.856 . S
H114 O142 0.854 . S
H115 C150 0.930 . S
H116 C151 0.930 1_565 S
H117 C153 0.930 . S
H118 C154 0.930 . S
H119 C156 0.931 . S
H120 C157 0.930 . S
H121 C159 0.930 . S
H122 C160 0.929 . S
H123 C162 0.930 . S
H124 C163 0.931 . S
H125 C165 0.930 . S
H126 C166 0.929 . S
H127 C168 0.931 . S
H128 C169 0.930 . S
H129 C171 0.930 . S
H130 C172 0.932 . S
H131 C174 0.930 . S
H132 C175 0.929 1_565 S
H133 C177 0.931 . S
H134 C178 0.930 . S
H135 C180 0.929 . S
H136 C181 0.931 . S
H137 C183 0.930 . S
H138 C184 0.929 . S
O139 H113 0.856 . S
O139 C185 1.300 . S
O140 C185 1.209 . S
O141 C186 1.199 . S
O142 H114 0.854 . S
O142 C186 1.297 . S
C143 C144 1.404 . S
C143 C148 1.397 . S
C143 C149 1.492 . S
C144 C143 1.404 . S
C144 C145 1.396 . S
C144 C155 1.492 . S
C145 C144 1.396 . S
C145 C146 1.397 . S
C145 C161 1.509 . S
C146 C145 1.397 . S
C146 C147 1.412 . S
C146 C167 1.485 . S
C147 C146 1.412 . S
C147 C148 1.388 . S
C147 C173 1.490 . S
C148 C143 1.397 . S
C148 C147 1.388 . S
C148 C179 1.519 . S
C149 C143 1.492 . S
C149 C150 1.363 . S
C149 C154 1.390 . S
C150 H115 0.930 . S
C150 C149 1.363 . S
C150 C151 1.372 . S
C151 H116 0.930 1_545 S
C151 C150 1.372 . S
C151 C152 1.383 . S
C152 C151 1.383 . S
C152 C153 1.395 . S
C153 H117 0.930 . S
C153 C152 1.395 . S
C153 C154 1.362 . S
C154 H118 0.930 . S
C154 C149 1.390 . S
C154 C153 1.362 . S
C155 C144 1.492 . S
C155 C156 1.377 . S
C155 C160 1.397 . S
C156 H119 0.931 . S
C156 C155 1.377 . S
C156 C157 1.376 . S
C157 H120 0.930 . S
C157 C156 1.376 . S
C157 C158 1.376 . S
C158 C157 1.376 . S
C158 C159 1.378 . S
C158 C185 1.486 . S
C159 H121 0.930 . S
C159 C158 1.378 . S
C159 C160 1.376 . S
C160 H122 0.929 . S
C160 C155 1.397 . S
C160 C159 1.376 . S
C161 C145 1.509 . S
C161 C162 1.391 . S
C161 C166 1.386 . S
C162 H123 0.930 . S
C162 C161 1.391 . S
C162 C163 1.375 . S
C163 H124 0.931 . S
C163 C162 1.375 . S
C163 C164 1.375 . S
C164 C163 1.375 . S
C164 C165 1.361 . S
C165 H125 0.930 . S
C165 C164 1.361 . S
C165 C166 1.399 . S
C166 H126 0.929 . S
C166 C161 1.386 . S
C166 C165 1.399 . S
C167 C146 1.485 . S
C167 C168 1.394 . S
C167 C172 1.360 . S
C168 H127 0.931 . S
C168 C167 1.394 . S
C168 C169 1.372 . S
C169 H128 0.930 . S
C169 C168 1.372 . S
C169 C170 1.397 . S
C170 C169 1.397 . S
C170 C171 1.390 . S
C170 C186 1.476 . S
C171 H129 0.930 . S
C171 C170 1.390 . S
C171 C172 1.366 . S
C172 H130 0.932 . S
C172 C167 1.360 . S
C172 C171 1.366 . S
C173 C147 1.490 . S
C173 C174 1.380 . S
C173 C178 1.386 . S
C174 H131 0.930 . S
C174 C173 1.380 . S
C174 C175 1.381 . S
C175 H132 0.929 1_545 S
C175 C174 1.381 . S
C175 C176 1.371 . S
C176 C175 1.371 . S
C176 C177 1.380 . S
C177 H133 0.931 . S
C177 C176 1.380 . S
C177 C178 1.387 . S
C178 H134 0.930 . S
C178 C173 1.386 . S
C178 C177 1.387 . S
C179 C148 1.519 . S
C179 C180 1.377 . S
C179 C184 1.361 . S
C180 H135 0.929 . S
C180 C179 1.377 . S
C180 C181 1.386 . S
C181 H136 0.931 . S
C181 C180 1.386 . S
C181 C182 1.363 . S
C182 C181 1.363 . S
C182 C183 1.385 . S
C183 H137 0.930 . S
C183 C182 1.385 . S
C183 C184 1.396 . S
C184 H138 0.929 . S
C184 C179 1.361 . S
C184 C183 1.396 . S
C185 O139 1.300 . S
C185 O140 1.209 . S
C185 C158 1.486 . S
C186 O141 1.199 . S
C186 O142 1.297 . S
C186 C170 1.476 . S
H187 O213 0.856 . S
H188 O216 0.854 . S
H189 C224 0.930 . S
H190 C225 0.930 . S
H191 C227 0.930 . S
H192 C228 0.930 . S
H193 C230 0.931 . S
H194 C231 0.930 . S
H195 C233 0.930 . S
H196 C234 0.929 . S
H197 C236 0.930 . S
H198 C237 0.931 . S
H199 C239 0.930 . S
H200 C240 0.929 . S
H201 C242 0.931 . S
H202 C243 0.930 . S
H203 C245 0.930 . S
H204 C246 0.932 . S
H205 C248 0.930 . S
H206 C249 0.929 . S
H207 C251 0.931 . S
H208 C252 0.930 . S
H209 C254 0.929 . S
H210 C255 0.931 . S
H211 C257 0.930 . S
H212 C258 0.929 . S
O213 H187 0.856 . S
O213 C259 1.291 1_554 S
O214 C259 1.204 1_554 S
O215 C260 1.199 . S
O216 H188 0.854 . S
O216 C260 1.297 . S
C217 C218 1.404 . S
C217 C222 1.397 . S
C217 C223 1.492 . S
C218 C217 1.404 . S
C218 C219 1.396 . S
C218 C229 1.492 . S
C219 C218 1.396 . S
C219 C220 1.397 . S
C219 C235 1.509 . S
C220 C219 1.397 . S
C220 C221 1.412 . S
C220 C241 1.485 . S
C221 C220 1.412 . S
C221 C222 1.388 . S
C221 C247 1.490 . S
C222 C217 1.397 . S
C222 C221 1.388 . S
C222 C253 1.519 . S
C223 C217 1.492 . S
C223 C224 1.363 . S
C223 C228 1.390 . S
C224 H189 0.930 . S
C224 C223 1.363 . S
C224 C225 1.372 . S
C225 H190 0.930 . S
C225 C224 1.372 . S
C225 C226 1.383 . S
C226 C225 1.383 . S
C226 C227 1.395 . S
C227 H191 0.930 . S
C227 C226 1.395 . S
C227 C228 1.362 . S
C228 H192 0.930 . S
C228 C223 1.390 . S
C228 C227 1.362 . S
C229 C218 1.492 . S
C229 C230 1.377 . S
C229 C234 1.397 . S
C230 H193 0.931 . S
C230 C229 1.377 . S
C230 C231 1.376 . S
C231 H194 0.930 . S
C231 C230 1.376 . S
C231 C232 1.376 . S
C232 C231 1.376 . S
C232 C233 1.378 . S
C232 C259 1.500 . S
C233 H195 0.930 . S
C233 C232 1.378 . S
C233 C234 1.376 . S
C234 H196 0.929 . S
C234 C229 1.397 . S
C234 C233 1.376 . S
C235 C219 1.509 . S
C235 C236 1.391 . S
C235 C240 1.386 . S
C236 H197 0.930 . S
C236 C235 1.391 . S
C236 C237 1.375 . S
C237 H198 0.931 . S
C237 C236 1.375 . S
C237 C238 1.375 . S
C238 C237 1.375 . S
C238 C239 1.361 . S
C239 H199 0.930 . S
C239 C238 1.361 . S
C239 C240 1.399 . S
C240 H200 0.929 . S
C240 C235 1.386 . S
C240 C239 1.399 . S
C241 C220 1.485 . S
C241 C242 1.394 . S
C241 C246 1.360 . S
C242 H201 0.931 . S
C242 C241 1.394 . S
C242 C243 1.372 . S
C243 H202 0.930 . S
C243 C242 1.372 . S
C243 C244 1.397 . S
C244 C243 1.397 . S
C244 C245 1.390 . S
C244 C260 1.476 . S
C245 H203 0.930 . S
C245 C244 1.390 . S
C245 C246 1.366 . S
C246 H204 0.932 . S
C246 C241 1.360 . S
C246 C245 1.366 . S
C247 C221 1.490 . S
C247 C248 1.380 . S
C247 C252 1.386 . S
C248 H205 0.930 . S
C248 C247 1.380 . S
C248 C249 1.381 . S
C249 H206 0.929 . S
C249 C248 1.381 . S
C249 C250 1.371 . S
C250 C249 1.371 . S
C250 C251 1.380 . S
C251 H207 0.931 . S
C251 C250 1.380 . S
C251 C252 1.387 . S
C252 H208 0.930 . S
C252 C247 1.386 . S
C252 C251 1.387 . S
C253 C222 1.519 . S
C253 C254 1.377 . S
C253 C258 1.361 . S
C254 H209 0.929 . S
C254 C253 1.377 . S
C254 C255 1.386 . S
C255 H210 0.931 . S
C255 C254 1.386 . S
C255 C256 1.363 . S
C256 C255 1.363 . S
C256 C257 1.385 . S
C257 H211 0.930 . S
C257 C256 1.385 . S
C257 C258 1.396 . S
C258 H212 0.929 . S
C258 C253 1.361 . S
C258 C257 1.396 . S
C259 O213 1.291 1_556 S
C259 O214 1.204 1_556 S
C259 C232 1.500 . S
C260 O215 1.199 . S
C260 O216 1.297 . S
C260 C244 1.476 . S
C261 C262 1.349 . S
C261 C263 1.327 . S
C261 H286 0.950 . S
C262 C261 1.349 . S
C262 C278 1.349 . S
C263 C261 1.327 . S
C263 C282 1.429 . S
C263 H287 0.950 . S
C264 C281 1.574 . S
C264 C283 1.368 . S
C264 H288 0.949 . S
H265 C269 0.949 . S
C266 C267 1.349 . S
C266 C268 1.327 . S
C266 H289 0.950 . S
C267 C266 1.349 . S
C267 C279 1.349 . S
C268 C266 1.327 . S
C268 C284 1.429 . S
C268 H290 0.950 . S
C269 H265 0.949 . S
C269 C277 1.574 . S
C269 C285 1.368 . S
H270 C278 0.950 . S
H271 C276 0.950 . S
H272 C277 0.949 . S
H273 C279 0.950 . S
H274 C280 0.950 . S
H275 C281 0.949 . S
C276 H271 0.950 . S
C276 C278 1.327 . S
C276 C282 1.429 . S
C277 C269 1.574 . S
C277 H272 0.949 . S
C277 C283 1.368 . S
C278 C262 1.349 . S
C278 H270 0.950 . S
C278 C276 1.327 . S
C279 C267 1.349 . S
C279 H273 0.950 . S
C279 C280 1.327 . S
C280 H274 0.950 . S
C280 C279 1.327 . S
C280 C284 1.429 . S
C281 C264 1.574 . S
C281 H275 0.949 . S
C281 C285 1.368 . S
C282 C263 1.429 . S
C282 C276 1.429 . S
C282 C283 1.523 . S
C283 C264 1.368 . S
C283 C277 1.368 . S
C283 C282 1.523 . S
C284 C268 1.429 . S
C284 C280 1.429 . S
C284 C285 1.523 . S
C285 C269 1.368 . S
C285 C281 1.368 . S
C285 C284 1.523 . S
H286 C261 0.950 . S
H287 C263 0.950 . S
H288 C264 0.949 . S
H289 C266 0.950 . S
H290 C268 0.950 . S
C291 C292 1.349 . S
C291 C293 1.327 . S
C291 H316 0.950 . S
C292 C291 1.349 . S
C292 C308 1.349 . S
C293 C291 1.327 . S
C293 C312 1.429 . S
C293 H317 0.950 . S
C294 C311 1.574 . S
C294 C313 1.368 . S
C294 H318 0.949 . S
H295 C299 0.949 . S
C296 C297 1.349 . S
C296 C298 1.327 . S
C296 H319 0.950 . S
C297 C296 1.349 . S
C297 C309 1.349 . S
C298 C296 1.327 . S
C298 C314 1.429 . S
C298 H320 0.950 . S
C299 H295 0.949 . S
C299 C307 1.574 . S
C299 C315 1.368 . S
H300 C308 0.950 . S
H301 C306 0.950 . S
H302 C307 0.949 . S
H303 C309 0.950 . S
H304 C310 0.950 . S
H305 C311 0.967 . S
C306 H301 0.950 . S
C306 C308 1.327 . S
C306 C312 1.429 . S
C307 C299 1.574 . S
C307 H302 0.949 . S
C307 C313 1.368 . S
C308 C292 1.349 . S
C308 H300 0.950 . S
C308 C306 1.327 . S
C309 C297 1.349 . S
C309 H303 0.950 . S
C309 C310 1.327 . S
C310 H304 0.950 . S
C310 C309 1.327 . S
C310 C314 1.429 . S
C311 C294 1.574 . S
C311 H305 0.967 . S
C311 C315 1.368 . S
C312 C293 1.429 . S
C312 C306 1.429 . S
C312 C313 1.523 . S
C313 C294 1.368 . S
C313 C307 1.368 . S
C313 C312 1.523 . S
C314 C298 1.429 . S
C314 C310 1.429 . S
C314 C315 1.523 . S
C315 C299 1.368 . S
C315 C311 1.368 . S
C315 C314 1.523 . S
H316 C291 0.950 . S
H317 C293 0.950 . S
H318 C294 0.949 . S
H319 C296 0.950 . S
H320 C298 0.950 . S
C321 C322 1.349 . S
C321 C323 1.327 . S
C321 H346 0.950 1_655 S
C322 C321 1.349 . S
C322 C338 1.349 . S
C323 C321 1.327 . S
C323 C342 1.429 . S
C323 H347 0.950 . S
C324 C341 1.574 . S
C324 C343 1.368 . S
C324 H348 0.949 . S
H325 C329 0.949 . S
C326 C327 1.349 . S
C326 C328 1.327 . S
C326 H349 0.950 . S
C327 C326 1.349 . S
C327 C339 1.349 . S
C328 C326 1.327 . S
C328 C344 1.429 . S
C328 H350 0.950 . S
C329 H325 0.949 . S
C329 C337 1.574 . S
C329 C345 1.368 . S
H330 C338 0.950 . S
H331 C336 0.950 . S
H332 C337 0.949 . S
H333 C339 0.950 . S
H334 C340 0.950 . S
H335 C341 0.949 . S
C336 H331 0.950 . S
C336 C338 1.327 . S
C336 C342 1.429 . S
C337 C329 1.574 . S
C337 H332 0.949 . S
C337 C343 1.368 . S
C338 C322 1.349 . S
C338 H330 0.950 . S
C338 C336 1.327 . S
C339 C327 1.349 . S
C339 H333 0.950 . S
C339 C340 1.327 . S
C340 H334 0.950 . S
C340 C339 1.327 . S
C340 C344 1.429 . S
C341 C324 1.574 . S
C341 H335 0.949 . S
C341 C345 1.368 . S
C342 C323 1.429 . S
C342 C336 1.429 . S
C342 C343 1.523 . S
C343 C324 1.368 . S
C343 C337 1.368 . S
C343 C342 1.523 . S
C344 C328 1.429 . S
C344 C340 1.429 . S
C344 C345 1.523 . S
C345 C329 1.368 . S
C345 C341 1.368 . S
C345 C344 1.523 . S
H346 C321 0.950 1_455 S
H347 C323 0.950 . S
H348 C324 0.949 . S
H349 C326 0.950 . S
H350 C328 0.950 . S
C351 C352 1.343 . S
C351 C353 1.326 1_545 S
C351 H376 0.950 . S
C352 C351 1.343 . S
C352 C368 1.346 1_545 S
C353 C351 1.326 1_565 S
C353 C372 1.429 . S
C353 H377 0.950 . S
C354 C371 1.574 . S
C354 C373 1.368 . S
C354 H378 0.949 . S
H355 C359 0.949 . S
C356 C357 1.349 . S
C356 C358 1.327 . S
C356 H379 0.950 1_455 S
C357 C356 1.349 . S
C357 C369 1.349 . S
C358 C356 1.327 . S
C358 C374 1.429 . S
C358 H380 0.950 1_455 S
C359 H355 0.949 . S
C359 C367 1.574 . S
C359 C375 1.368 . S
H360 C368 0.950 . S
H361 C366 0.950 . S
H362 C367 0.949 . S
H363 C369 0.950 . S
H364 C370 0.950 . S
H365 C371 0.949 1_655 S
C366 H361 0.950 . S
C366 C368 1.327 . S
C366 C372 1.429 . S
C367 C359 1.574 . S
C367 H362 0.949 . S
C367 C373 1.368 . S
C368 C352 1.346 1_565 S
C368 H360 0.950 . S
C368 C366 1.327 . S
C369 C357 1.349 . S
C369 H363 0.950 . S
C369 C370 1.327 . S
C370 H364 0.950 . S
C370 C369 1.327 . S
C370 C374 1.429 . S
C371 C354 1.574 . S
C371 H365 0.949 1_455 S
C371 C375 1.368 . S
C372 C353 1.429 . S
C372 C366 1.429 . S
C372 C373 1.523 . S
C373 C354 1.368 . S
C373 C367 1.368 . S
C373 C372 1.523 . S
C374 C358 1.429 . S
C374 C370 1.429 . S
C374 C375 1.523 . S
C375 C359 1.368 . S
C375 C371 1.368 . S
C375 C374 1.523 . S
H376 C351 0.950 . S
H377 C353 0.950 . S
H378 C354 0.949 . S
H379 C356 0.950 1_655 S
H380 C358 0.950 1_655 S
C381 C382 1.349 . S
C381 C383 1.327 . S
C381 H406 0.950 . S
C382 C381 1.349 . S
C382 C398 1.349 . S
C383 C381 1.327 . S
C383 C402 1.429 . S
C383 H407 0.950 . S
C384 C401 1.574 . S
C384 C403 1.368 . S
C384 H408 0.949 . S
H385 C389 0.949 . S
C386 C387 1.349 . S
C386 C388 1.327 . S
C386 H409 0.950 . S
C387 C386 1.349 . S
C387 C399 1.349 . S
C388 C386 1.327 . S
C388 C404 1.429 . S
C388 H410 0.950 . S
C389 H385 0.949 . S
C389 C397 1.574 . S
C389 C405 1.368 . S
H390 C398 0.950 . S
H391 C396 0.950 . S
H392 C397 0.949 . S
H393 C399 0.950 . S
H394 C400 0.950 . S
H395 C401 0.949 . S
C396 H391 0.950 . S
C396 C398 1.327 . S
C396 C402 1.429 . S
C397 C389 1.574 . S
C397 H392 0.949 . S
C397 C403 1.368 . S
C398 C382 1.349 . S
C398 H390 0.950 . S
C398 C396 1.327 . S
C399 C387 1.349 . S
C399 H393 0.950 . S
C399 C400 1.327 . S
C400 H394 0.950 . S
C400 C399 1.327 . S
C400 C404 1.429 . S
C401 C384 1.574 . S
C401 H395 0.949 . S
C401 C405 1.368 . S
C402 C383 1.429 . S
C402 C396 1.429 . S
C402 C403 1.523 . S
C403 C384 1.368 . S
C403 C397 1.368 . S
C403 C402 1.523 . S
C404 C388 1.429 . S
C404 C400 1.429 . S
C404 C405 1.523 . S
C405 C389 1.368 . S
C405 C401 1.368 . S
C405 C404 1.523 . S
H406 C381 0.950 . S
H407 C383 0.950 . S
H408 C384 0.949 . S
H409 C386 0.950 . S
H410 C388 0.950 . S
C411 C412 1.349 . S
C411 C413 1.327 . S
C411 H436 0.950 . S
C412 C411 1.349 . S
C412 C428 1.349 . S
C413 C411 1.327 . S
C413 C432 1.429 . S
C413 H437 0.950 . S
C414 C431 1.574 . S
C414 C433 1.368 . S
C414 H438 0.949 . S
H415 C419 0.949 . S
C416 C417 1.349 . S
C416 C418 1.327 . S
C416 H439 0.950 . S
C417 C416 1.349 . S
C417 C429 1.349 . S
C418 C416 1.327 . S
C418 C434 1.429 . S
C418 H440 0.950 . S
C419 H415 0.949 . S
C419 C427 1.574 . S
C419 C435 1.368 . S
H420 C428 0.950 . S
H421 C426 0.950 . S
H422 C427 0.949 . S
H423 C429 0.950 . S
H424 C430 0.950 . S
H425 C431 0.949 . S
C426 H421 0.950 . S
C426 C428 1.327 . S
C426 C432 1.429 . S
C427 C419 1.574 . S
C427 H422 0.949 . S
C427 C433 1.368 . S
C428 C412 1.349 . S
C428 H420 0.950 . S
C428 C426 1.327 . S
C429 C417 1.349 . S
C429 H423 0.950 . S
C429 C430 1.327 . S
C430 H424 0.950 . S
C430 C429 1.327 . S
C430 C434 1.429 . S
C431 C414 1.574 . S
C431 H425 0.949 . S
C431 C435 1.368 . S
C432 C413 1.429 . S
C432 C426 1.429 . S
C432 C433 1.523 . S
C433 C414 1.368 . S
C433 C427 1.368 . S
C433 C432 1.523 . S
C434 C418 1.429 . S
C434 C430 1.429 . S
C434 C435 1.523 . S
C435 C419 1.368 . S
C435 C431 1.368 . S
C435 C434 1.523 . S
H436 C411 0.950 . S
H437 C413 0.950 . S
H438 C414 0.949 . S
H439 C416 0.950 . S
H440 C418 0.950 . S
C441 C442 1.349 . S
C441 C443 1.327 . S
C441 H466 0.950 . S
C442 C441 1.349 . S
C442 C458 1.349 1_655 S
C443 C441 1.327 . S
C443 C462 1.429 . S
C443 H467 0.950 . S
C444 C461 1.574 . S
C444 C463 1.368 . S
C444 H468 0.949 . S
H445 C449 0.949 . S
C446 C447 1.349 . S
C446 C448 1.327 . S
C446 H469 0.950 . S
C447 C446 1.349 . S
C447 C459 1.349 . S
C448 C446 1.327 . S
C448 C464 1.429 . S
C448 H470 0.950 . S
C449 H445 0.949 . S
C449 C457 1.574 . S
C449 C465 1.368 . S
H450 C458 0.950 . S
H451 C456 0.950 . S
H452 C457 0.949 . S
H453 C459 0.950 . S
H454 C460 0.950 . S
H455 C461 0.949 . S
C456 H451 0.950 . S
C456 C458 1.327 1_655 S
C456 C462 1.429 . S
C457 C449 1.574 . S
C457 H452 0.949 . S
C457 C463 1.368 . S
C458 C442 1.349 1_455 S
C458 H450 0.950 . S
C458 C456 1.327 1_455 S
C459 C447 1.349 . S
C459 H453 0.950 . S
C459 C460 1.327 . S
C460 H454 0.950 . S
C460 C459 1.327 . S
C460 C464 1.429 . S
C461 C444 1.574 . S
C461 H455 0.949 . S
C461 C465 1.368 . S
C462 C443 1.429 . S
C462 C456 1.429 . S
C462 C463 1.523 . S
C463 C444 1.368 . S
C463 C457 1.368 . S
C463 C462 1.523 . S
C464 C448 1.429 . S
C464 C460 1.429 . S
C464 C465 1.523 . S
C465 C449 1.368 . S
C465 C461 1.368 . S
C465 C464 1.523 . S
H466 C441 0.950 . S
H467 C443 0.950 . S
H468 C444 0.949 . S
H469 C446 0.950 . S
H470 C448 0.950 . S
C471 C472 1.349 1_545 S
C471 C473 1.327 1_545 S
C471 H496 0.950 1_655 S
C472 C471 1.349 1_565 S
C472 C488 1.349 . S
C473 C471 1.327 1_565 S
C473 C492 1.429 . S
C473 H497 0.950 . S
C474 C491 1.574 1_554 S
C474 C493 1.368 . S
C474 H498 0.949 . S
H475 C479 0.949 . S
C476 C477 1.349 . S
C476 C478 1.327 . S
C476 H499 0.950 . S
C477 C476 1.349 . S
C477 C489 1.349 . S
C478 C476 1.327 . S
C478 C494 1.429 . S
C478 H500 0.950 . S
C479 H475 0.949 . S
C479 C487 1.574 . S
C479 C495 1.368 . S
H480 C488 0.950 . S
H481 C486 0.950 . S
H482 C487 0.949 . S
H483 C489 0.950 . S
H484 C490 0.950 . S
H485 C491 0.952 . S
C486 H481 0.950 . S
C486 C488 1.327 . S
C486 C492 1.429 . S
C487 C479 1.574 . S
C487 H482 0.949 . S
C487 C493 1.368 1_556 S
C488 C472 1.349 . S
C488 H480 0.950 . S
C488 C486 1.327 . S
C489 C477 1.349 . S
C489 H483 0.950 . S
C489 C490 1.327 . S
C490 H484 0.950 . S
C490 C489 1.327 . S
C490 C494 1.429 . S
C491 C474 1.574 1_556 S
C491 H485 0.952 . S
C491 C495 1.368 . S
C492 C473 1.429 . S
C492 C486 1.429 . S
C492 C493 1.523 . S
C493 C474 1.368 . S
C493 C487 1.368 1_554 S
C493 C492 1.523 . S
C494 C478 1.429 . S
C494 C490 1.429 . S
C494 C495 1.523 . S
C495 C479 1.368 . S
C495 C491 1.368 . S
C495 C494 1.523 . S
H496 C471 0.950 1_455 S
H497 C473 0.950 . S
H498 C474 0.949 . S
H499 C476 0.950 . S
H500 C478 0.950 . S
C501 C502 1.349 . S
C501 C503 1.327 . S
C501 H526 0.950 1_565 S
C502 C501 1.349 . S
C502 C518 1.349 . S
C503 C501 1.327 . S
C503 C522 1.429 . S
C503 H527 0.950 . S
C504 C521 1.574 . S
C504 C523 1.368 1_655 S
C504 H528 0.949 . S
H505 C509 0.949 . S
C506 C507 1.349 1_655 S
C506 C508 1.327 . S
C506 H529 0.950 . S
C507 C506 1.349 1_455 S
C507 C519 1.349 . S
C508 C506 1.327 . S
C508 C524 1.429 1_655 S
C508 H530 0.950 . S
C509 H505 0.949 . S
C509 C517 1.574 . S
C509 C525 1.368 . S
H510 C518 0.950 1_655 S
H511 C516 0.950 1_655 S
H512 C517 0.949 . S
H513 C519 0.950 . S
H514 C520 0.950 . S
H515 C521 0.949 . S
C516 H511 0.950 1_455 S
C516 C518 1.327 . S
C516 C522 1.429 . S
C517 C509 1.574 . S
C517 H512 0.949 . S
C517 C523 1.368 . S
C518 C502 1.349 . S
C518 H510 0.950 1_455 S
C518 C516 1.327 . S
C519 C507 1.349 . S
C519 H513 0.950 . S
C519 C520 1.327 . S
C520 H514 0.950 . S
C520 C519 1.327 . S
C520 C524 1.429 . S
C521 C504 1.574 . S
C521 H515 0.949 . S
C521 C525 1.368 1_655 S
C522 C503 1.429 . S
C522 C516 1.429 . S
C522 C523 1.523 . S
C523 C504 1.368 1_455 S
C523 C517 1.368 . S
C523 C522 1.523 . S
C524 C508 1.429 1_455 S
C524 C520 1.429 . S
C524 C525 1.523 . S
C525 C509 1.368 . S
C525 C521 1.368 1_455 S
C525 C524 1.523 . S
H526 C501 0.950 1_545 S
H527 C503 0.950 . S
H528 C504 0.949 . S
H529 C506 0.950 . S
H530 C508 0.950 . S
C531 C532 1.349 . S
C531 C533 1.327 . S
C531 H556 0.950 1_545 S
C532 C531 1.349 . S
C532 C548 1.349 . S
C533 C531 1.327 . S
C533 C552 1.429 . S
C533 H557 0.950 1_545 S
C534 C551 1.574 . S
C534 C553 1.368 . S
C534 H558 0.949 . S
H535 C539 0.949 1_565 S
C536 C537 1.349 . S
C536 C538 1.327 . S
C536 H559 0.950 . S
C537 C536 1.349 . S
C537 C549 1.349 . S
C538 C536 1.327 . S
C538 C554 1.429 . S
C538 H560 0.950 . S
C539 H535 0.949 1_545 S
C539 C547 1.574 . S
C539 C555 1.368 . S
H540 C548 0.950 . S
H541 C546 0.950 . S
H542 C547 0.949 1_565 S
H543 C549 0.935 1_565 S
H544 C550 0.950 1_565 S
H545 C551 0.949 . S
C546 H541 0.950 . S
C546 C548 1.327 . S
C546 C552 1.429 . S
C547 C539 1.574 . S
C547 H542 0.949 1_545 S
C547 C553 1.368 . S
C548 C532 1.349 . S
C548 H540 0.950 . S
C548 C546 1.327 . S
C549 C537 1.349 . S
C549 H543 0.935 1_545 S
C549 C550 1.327 . S
C550 H544 0.950 1_545 S
C550 C549 1.327 . S
C550 C554 1.429 . S
C551 C534 1.574 . S
C551 H545 0.949 . S
C551 C555 1.368 . S
C552 C533 1.429 . S
C552 C546 1.429 . S
C552 C553 1.523 . S
C553 C534 1.368 . S
C553 C547 1.368 . S
C553 C552 1.523 . S
C554 C538 1.429 . S
C554 C550 1.429 . S
C554 C555 1.523 . S
C555 C539 1.368 . S
C555 C551 1.368 . S
C555 C554 1.523 . S
H556 C531 0.950 1_565 S
H557 C533 0.950 1_565 S
H558 C534 0.949 . S
H559 C536 0.950 . S
H560 C538 0.950 . S
C561 C562 1.349 . S
C561 C563 1.327 . S
C561 H586 0.950 . S
C562 C561 1.349 . S
C562 C578 1.349 . S
C563 C561 1.327 . S
C563 C582 1.429 . S
C563 H587 0.950 . S
C564 C581 1.574 1_554 S
C564 C583 1.368 . S
C564 H588 0.949 . S
H565 C569 0.949 . S
C566 C567 1.349 . S
C566 C568 1.327 . S
C566 H589 0.950 . S
C567 C566 1.349 . S
C567 C579 1.349 . S
C568 C566 1.327 . S
C568 C584 1.429 . S
C568 H590 0.950 . S
C569 H565 0.949 . S
C569 C577 1.574 . S
C569 C585 1.368 . S
H570 C578 0.950 . S
H571 C576 0.950 . S
H572 C577 0.949 . S
H573 C579 0.950 . S
H574 C580 0.950 1_554 S
H575 C581 0.949 . S
C576 H571 0.950 . S
C576 C578 1.327 . S
C576 C582 1.429 . S
C577 C569 1.574 . S
C577 H572 0.949 . S
C577 C583 1.368 . S
C578 C562 1.349 . S
C578 H570 0.950 . S
C578 C576 1.327 . S
C579 C567 1.349 . S
C579 H573 0.950 . S
C579 C580 1.327 . S
C580 H574 0.950 1_556 S
C580 C579 1.327 . S
C580 C584 1.429 . S
C581 C564 1.574 1_556 S
C581 H575 0.949 . S
C581 C585 1.368 1_556 S
C582 C563 1.429 . S
C582 C576 1.429 . S
C582 C583 1.523 . S
C583 C564 1.368 . S
C583 C577 1.368 . S
C583 C582 1.523 . S
C584 C568 1.429 . S
C584 C580 1.429 . S
C584 C585 1.523 1_556 S
C585 C569 1.368 . S
C585 C581 1.368 1_554 S
C585 C584 1.523 1_554 S
H586 C561 0.950 . S
H587 C563 0.950 . S
H588 C564 0.949 . S
H589 C566 0.950 . S
H590 C568 0.950 . S
C591 C592 1.349 . S
C591 C593 1.327 . S
C591 H616 0.950 . S
C592 C591 1.349 . S
C592 C608 1.349 . S
C593 C591 1.327 . S
C593 C612 1.429 . S
C593 H617 0.950 . S
C594 C611 1.574 . S
C594 C613 1.368 . S
C594 H618 0.949 . S
H595 C599 0.949 . S
C596 C597 1.349 . S
C596 C598 1.327 . S
C596 H619 0.950 . S
C597 C596 1.349 . S
C597 C609 1.349 . S
C598 C596 1.327 . S
C598 C614 1.429 . S
C598 H620 0.950 . S
C599 H595 0.949 . S
C599 C607 1.574 . S
C599 C615 1.368 . S
H600 C608 0.950 . S
H601 C606 0.950 . S
H602 C607 0.949 . S
H603 C609 0.950 1_655 S
H604 C610 0.952 . S
H605 C611 0.949 . S
C606 H601 0.950 . S
C606 C608 1.327 . S
C606 C612 1.429 . S
C607 C599 1.574 . S
C607 H602 0.949 . S
C607 C613 1.368 . S
C608 C592 1.349 . S
C608 H600 0.950 . S
C608 C606 1.327 . S
C609 C597 1.349 . S
C609 H603 0.950 1_455 S
C609 C610 1.327 . S
C610 H604 0.952 . S
C610 C609 1.327 . S
C610 C614 1.429 . S
C611 C594 1.574 . S
C611 H605 0.949 . S
C611 C615 1.368 . S
C612 C593 1.429 . S
C612 C606 1.429 . S
C612 C613 1.523 . S
C613 C594 1.368 . S
C613 C607 1.368 . S
C613 C612 1.523 . S
C614 C598 1.429 . S
C614 C610 1.429 . S
C614 C615 1.523 . S
C615 C599 1.368 . S
C615 C611 1.368 . S
C615 C614 1.523 . S
H616 C591 0.950 . S
H617 C593 0.950 . S
H618 C594 0.949 . S
H619 C596 0.950 . S
H620 C598 0.950 . S
C267 C78 1.269 . S
C262 C10 1.329 . S
C292 C21 1.277 1_655 S
C297 C152 1.277 . S
C322 C31 2.029 1_665 S
C327 C256 2.123 . S
C352 C0 0.639 . S
C357 C90 0.602 . S
C387 C164 0.580 . S
C382 C18 0.604 . S
C412 C34 1.376 . S
C417 C250 1.304 . S
C447 C182 2.132 . S
C442 C36 2.133 1_655 S
C472 C8 1.299 1_665 S
C477 C226 1.296 . S
C507 C102 1.308 . S
C502 C23 1.391 1_565 S
C537 C176 1.185 . S
C532 C26 1.226 . S
C567 C238 0.624 . S
C562 C5 0.648 . S
C592 C13 2.070 . S
C597 C108 2.142 . S
