# Generated by pormake.
# Topology apo, (3,6)-cn, num edge types: 1
# Building blocks:
#     Node 0, Type 0, BuildingBlock: CUQRIR_clean_linker_1, # of connection points: 3
#     Node 1, Type 0, BuildingBlock: CUQRIR_clean_linker_1, # of connection points: 3
#     Node 2, Type 0, BuildingBlock: CUQRIR_clean_linker_1, # of connection points: 3
#     Node 3, Type 0, BuildingBlock: CUQRIR_clean_linker_1, # of connection points: 3
#     Node 4, Type 0, BuildingBlock: CUQRIR_clean_linker_1, # of connection points: 3
#     Node 5, Type 0, BuildingBlock: CUQRIR_clean_linker_1, # of connection points: 3
#     Node 6, Type 0, BuildingBlock: CUQRIR_clean_linker_1, # of connection points: 3
#     Node 7, Type 0, BuildingBlock: CUQRIR_clean_linker_1, # of connection points: 3
#     Node 8, Type 1, BuildingBlock: KUMJIN_clean_sbu_1, # of connection points: 6
#     Node 9, Type 1, BuildingBlock: KUMJIN_clean_sbu_1, # of connection points: 6
#     Node 10, Type 1, BuildingBlock: KUMJIN_clean_sbu_1, # of connection points: 6
#     Node 11, Type 1, BuildingBlock: KUMJIN_clean_sbu_1, # of connection points: 6
#     Edge 12, Type (0, 1), BuildingBlock: ZUJKAS_clean_linker_0, # of connection points: 2
#     Edge 13, Type (0, 1), BuildingBlock: ZUJKAS_clean_linker_0, # of connection points: 2
#     Edge 14, Type (0, 1), BuildingBlock: ZUJKAS_clean_linker_0, # of connection points: 2
#     Edge 15, Type (0, 1), BuildingBlock: ZUJKAS_clean_linker_0, # of connection points: 2
#     Edge 16, Type (0, 1), BuildingBlock: ZUJKAS_clean_linker_0, # of connection points: 2
#     Edge 17, Type (0, 1), BuildingBlock: ZUJKAS_clean_linker_0, # of connection points: 2
#     Edge 18, Type (0, 1), BuildingBlock: ZUJKAS_clean_linker_0, # of connection points: 2
#     Edge 19, Type (0, 1), BuildingBlock: ZUJKAS_clean_linker_0, # of connection points: 2
#     Edge 20, Type (0, 1), BuildingBlock: ZUJKAS_clean_linker_0, # of connection points: 2
#     Edge 21, Type (0, 1), BuildingBlock: ZUJKAS_clean_linker_0, # of connection points: 2
#     Edge 22, Type (0, 1), BuildingBlock: ZUJKAS_clean_linker_0, # of connection points: 2
#     Edge 23, Type (0, 1), BuildingBlock: ZUJKAS_clean_linker_0, # of connection points: 2
#     Edge 24, Type (0, 1), BuildingBlock: ZUJKAS_clean_linker_0, # of connection points: 2
#     Edge 25, Type (0, 1), BuildingBlock: ZUJKAS_clean_linker_0, # of connection points: 2
#     Edge 26, Type (0, 1), BuildingBlock: ZUJKAS_clean_linker_0, # of connection points: 2
#     Edge 27, Type (0, 1), BuildingBlock: ZUJKAS_clean_linker_0, # of connection points: 2
#     Edge 28, Type (0, 1), BuildingBlock: ZUJKAS_clean_linker_0, # of connection points: 2
#     Edge 29, Type (0, 1), BuildingBlock: ZUJKAS_clean_linker_0, # of connection points: 2
#     Edge 30, Type (0, 1), BuildingBlock: ZUJKAS_clean_linker_0, # of connection points: 2
#     Edge 31, Type (0, 1), BuildingBlock: ZUJKAS_clean_linker_0, # of connection points: 2
#     Edge 32, Type (0, 1), BuildingBlock: ZUJKAS_clean_linker_0, # of connection points: 2
#     Edge 33, Type (0, 1), BuildingBlock: ZUJKAS_clean_linker_0, # of connection points: 2
#     Edge 34, Type (0, 1), BuildingBlock: ZUJKAS_clean_linker_0, # of connection points: 2
#     Edge 35, Type (0, 1), BuildingBlock: ZUJKAS_clean_linker_0, # of connection points: 2
# Relax obj value: 0.047
# Max RMSD: 0.212
# Mean RMSD: 0.169
data_MOF--net-apo--node1-KUMJIN_clean_sbu_1--node2-CUQRIR_clean_linker_1--edge1-ZUJKAS_clean_linker_0
_symmetry_space_group_name_H-M    P1
_symmetry_Int_Tables_number       1
_symmetry_cell_setting            triclinic
loop_
_symmetry_equiv_pos_as_xyz
'x, y, z'
_cell_length_a     33.67871
_cell_length_b     52.482252
_cell_length_c     60.267172
_cell_angle_alpha  89.921151
_cell_angle_beta   90.029207
_cell_angle_gamma 90.393065
loop_
_atom_site_label
_atom_site_type_symbol
_atom_site_fract_x
_atom_site_fract_y
_atom_site_fract_z
_atom_type_partial_charge
C0 C 0.26519 0.3413 0.42589 0.0
N1 N 0.28672 0.3631 0.42825 0.0
N2 N 0.2505 0.33944 0.40506 0.0
C3 C 0.25601 0.3227 0.44422 0.0
C4 C 0.26371 0.36075 0.39476 0.0
N5 N 0.28537 0.37534 0.40889 0.0
C6 C 0.25827 0.36605 0.37038 0.0
H7 H 0.28008 0.30841 0.44511 0.0
H8 H 0.22763 0.31249 0.44101 0.0
H9 H 0.25417 0.33257 0.46046 0.0
H10 H 0.23174 0.37819 0.36809 0.0
H11 H 0.25357 0.34814 0.36095 0.0
H12 H 0.28447 0.37623 0.36345 0.0
C13 C 0.23578 0.16748 0.9237 0.0
N14 N 0.21572 0.14521 0.92624 0.0
N15 N 0.25041 0.16951 0.90287 0.0
C16 C 0.24317 0.18654 0.94188 0.0
C17 C 0.23859 0.14771 0.8928 0.0
N18 N 0.21788 0.13272 0.90709 0.0
C19 C 0.24384 0.1424 0.86842 0.0
H20 H 0.21812 0.20015 0.94235 0.0
H21 H 0.271 0.19743 0.93887 0.0
H22 H 0.24502 0.17694 0.95826 0.0
H23 H 0.27102 0.1309 0.86604 0.0
H24 H 0.24721 0.16036 0.85884 0.0
H25 H 0.21812 0.13156 0.86172 0.0
C26 C 0.77173 0.16775 0.60615 0.0
N27 N 0.79207 0.14581 0.60335 0.0
N28 N 0.75626 0.16892 0.62687 0.0
C29 C 0.76473 0.18717 0.58821 0.0
C30 C 0.76787 0.14689 0.63653 0.0
N31 N 0.78909 0.13266 0.62213 0.0
C32 C 0.76189 0.14044 0.66068 0.0
H33 H 0.78968 0.20108 0.58819 0.0
H34 H 0.73668 0.19761 0.5911 0.0
H35 H 0.76351 0.17794 0.57166 0.0
H36 H 0.73448 0.12876 0.66243 0.0
H37 H 0.75868 0.15792 0.67083 0.0
H38 H 0.78718 0.12926 0.66721 0.0
C39 C 0.73877 0.33985 0.10548 0.0
N40 N 0.71664 0.36109 0.10257 0.0
N41 N 0.75323 0.33877 0.12646 0.0
C42 C 0.7487 0.32113 0.08747 0.0
C43 C 0.73922 0.36014 0.13616 0.0
N44 N 0.71742 0.37381 0.1216 0.0
C45 C 0.745 0.36699 0.16022 0.0
H46 H 0.72504 0.30635 0.0867 0.0
H47 H 0.77739 0.31162 0.09088 0.0
H48 H 0.75034 0.33077 0.07109 0.0
H49 H 0.77252 0.37857 0.16186 0.0
H50 H 0.74809 0.34962 0.17058 0.0
H51 H 0.7199 0.37843 0.16658 0.0
C52 C 0.73093 0.66886 0.60742 0.0
N53 N 0.71043 0.64688 0.60392 0.0
N54 N 0.74596 0.66947 0.62828 0.0
C55 C 0.73912 0.68876 0.58999 0.0
C56 C 0.73407 0.64707 0.63732 0.0
N57 N 0.7129 0.63325 0.62247 0.0
C58 C 0.74106 0.63936 0.66106 0.0
H59 H 0.76673 0.69956 0.59377 0.0
H60 H 0.71401 0.70232 0.58955 0.0
H61 H 0.74188 0.67991 0.57336 0.0
H62 H 0.74521 0.6563 0.67184 0.0
H63 H 0.76829 0.62762 0.66191 0.0
H64 H 0.7159 0.62776 0.66748 0.0
C65 C 0.76782 0.83949 0.10537 0.0
N66 N 0.78816 0.86156 0.10196 0.0
N67 N 0.75467 0.83807 0.1266 0.0
C68 C 0.76152 0.81918 0.0881 0.0
C69 C 0.76736 0.86012 0.13589 0.0
N70 N 0.78733 0.87448 0.1209 0.0
C71 C 0.76137 0.86722 0.15983 0.0
H72 H 0.73637 0.80638 0.09233 0.0
H73 H 0.78873 0.80748 0.08694 0.0
H74 H 0.75615 0.82797 0.07162 0.0
H75 H 0.78774 0.86114 0.16949 0.0
H76 H 0.7347 0.85761 0.16681 0.0
H77 H 0.75829 0.88811 0.16175 0.0
C78 C 0.23555 0.83821 0.4233 0.0
N79 N 0.21269 0.85916 0.42608 0.0
N80 N 0.24341 0.8345 0.40152 0.0
C81 C 0.25034 0.82142 0.44174 0.0
C82 C 0.22427 0.85366 0.39112 0.0
N83 N 0.2053 0.86848 0.406 0.0
C84 C 0.22514 0.85853 0.3665 0.0
H85 H 0.27869 0.82938 0.44816 0.0
H86 H 0.25607 0.80181 0.43581 0.0
H87 H 0.22861 0.82065 0.45556 0.0
H88 H 0.23908 0.84268 0.35727 0.0
H89 H 0.24193 0.87642 0.36325 0.0
H90 H 0.19452 0.86123 0.3602 0.0
C91 C 0.27202 0.66839 0.9243 0.0
N92 N 0.29304 0.64666 0.92673 0.0
N93 N 0.25939 0.67093 0.90309 0.0
C94 C 0.26231 0.6863 0.94296 0.0
C95 C 0.2735 0.65003 0.89273 0.0
N96 N 0.29394 0.63522 0.90708 0.0
C97 C 0.26855 0.64464 0.86836 0.0
H98 H 0.24007 0.67709 0.95398 0.0
H99 H 0.24995 0.70453 0.93691 0.0
H100 H 0.28933 0.6901 0.95301 0.0
H101 H 0.26559 0.66261 0.85879 0.0
H102 H 0.24118 0.63311 0.86587 0.0
H103 H 0.29414 0.63373 0.86186 0.0
Eu104 Eu 0.05077 0.11075 0.24315 0.0
C105 C 0.87786 0.08245 0.26762 0.0
N106 N 0.89438 0.10612 0.26896 0.0
C107 C 0.83712 0.12434 0.25171 0.0
C108 C 0.84028 0.07881 0.25776 0.0
C109 C 0.87456 0.12701 0.2615 0.0
C110 C 0.81995 0.10013 0.24975 0.0
C111 C 0.88312 0.03687 0.27386 0.0
C112 C 0.89933 0.06167 0.27543 0.0
C113 C 0.8457 0.03322 0.26404 0.0
C114 C 0.82439 0.0541 0.25597 0.0
Eu115 Eu 0.95783 0.10872 0.28525 0.0
N116 N 0.93598 0.06568 0.28445 0.0
C117 C 0.90483 0.01647 0.28244 0.0
C118 C 0.95575 0.04609 0.29431 0.0
C119 C 0.941 0.02117 0.29302 0.0
H120 H 0.88744 0.14576 0.26333 0.0
H121 H 0.95722 0.00567 0.30055 0.0
H122 H 0.11593 0.06495 0.25587 0.0
H123 H 0.06984 0.21439 0.24144 0.0
H124 H 0.98214 0.04954 0.30385 0.0
H125 H 0.89342 0.99715 0.28155 0.0
H126 H 0.03433 0.17377 0.23591 0.0
H127 H 0.82151 0.14095 0.24572 0.0
H128 H 0.83286 0.01429 0.26269 0.0
H129 H 0.79561 0.05092 0.24838 0.0
H130 H 0.1852 0.06152 0.26902 0.0
H131 H 0.79101 0.09812 0.24207 0.0
H132 H 0.13926 0.21446 0.25485 0.0
N133 N 0.11685 0.10541 0.25502 0.0
C134 C 0.13863 0.12709 0.25777 0.0
C135 C 0.17241 0.08007 0.26602 0.0
C136 C 0.17834 0.12602 0.26512 0.0
C137 C 0.1331 0.08207 0.25879 0.0
C138 C 0.19511 0.10213 0.26926 0.0
N139 N 0.08215 0.15096 0.24719 0.0
C140 C 0.06416 0.17346 0.24222 0.0
C141 C 0.14256 0.17332 0.25674 0.0
C142 C 0.12093 0.1505 0.2536 0.0
C143 C 0.12369 0.19652 0.25256 0.0
C144 C 0.08444 0.19656 0.24509 0.0
H145 H 0.22554 0.10052 0.27491 0.0
H146 H 0.23047 0.14826 0.27389 0.0
H147 H 0.19913 0.18964 0.26662 0.0
O148 O 0.04692 0.12156 0.2082 0.0
O149 O 0.05937 0.12875 0.27717 0.0
O150 O 0.99792 0.14351 0.28778 0.0
O151 O 0.08966 0.09345 0.21841 0.0
O152 O 0.99428 0.13199 0.23356 0.0
O153 O 0.96364 0.14539 0.26589 0.0
O154 O 0.954 0.1011 0.32089 0.0
O155 O 0.95095 0.09381 0.24986 0.0
O156 O 0.01115 0.07582 0.24272 0.0
O157 O 0.91291 0.12717 0.30567 0.0
O158 O 0.01623 0.0909 0.29602 0.0
O159 O 0.04422 0.07505 0.26398 0.0
C160 C 0.03689 0.14416 0.28874 0.0
C161 C 0.06297 0.08976 0.18234 0.0
C162 C 0.06622 0.08213 0.14239 0.0
C163 C 0.04044 0.06113 0.1451 0.0
C164 C 0.03762 0.06867 0.18465 0.0
C165 C 0.02634 0.05446 0.16612 0.0
C166 C 0.07737 0.0964 0.16122 0.0
C167 C 0.97008 0.14724 0.2444 0.0
C168 C 0.07363 0.10534 0.20173 0.0
C169 C 0.19995 0.14872 0.26822 0.0
C170 C 0.1821 0.17229 0.26407 0.0
C171 C 0.97254 0.07638 0.24015 0.0
C172 C 0.93241 0.1356 0.34258 0.0
C173 C 0.92852 0.14554 0.38217 0.0
C174 C 0.94538 0.16965 0.37768 0.0
C175 C 0.94925 0.15968 0.33857 0.0
C176 C 0.92224 0.12855 0.36437 0.0
C177 C 0.95576 0.17656 0.35606 0.0
C178 C 0.04057 0.07532 0.28572 0.0
C179 C 0.92592 0.11759 0.3242 0.0
H180 H 0.03163 0.04963 0.131 0.0
H181 H 0.02664 0.06327 0.2008 0.0
H182 H 0.00667 0.0382 0.16806 0.0
H183 H 0.09669 0.11289 0.15942 0.0
H184 H 0.94997 0.18341 0.39082 0.0
H185 H 0.95714 0.16544 0.3219 0.0
H186 H 0.90982 0.10976 0.36741 0.0
H187 H 0.96865 0.19515 0.35282 0.0
Eu188 Eu 0.45766 0.39343 0.74304 0.0
C189 C 0.61827 0.43652 0.77424 0.0
N190 N 0.60777 0.41172 0.77142 0.0
C191 C 0.66725 0.40414 0.75076 0.0
C192 C 0.65316 0.44642 0.76452 0.0
C193 C 0.63213 0.39525 0.76055 0.0
C194 C 0.67759 0.4299 0.75252 0.0
C195 C 0.60448 0.47762 0.79066 0.0
C196 C 0.59415 0.45185 0.78712 0.0
C197 C 0.63835 0.48789 0.78027 0.0
C198 C 0.66269 0.47232 0.76727 0.0
Eu199 Eu 0.5478 0.39819 0.78789 0.0
N200 N 0.56182 0.44125 0.7971 0.0
C201 C 0.58113 0.49206 0.80508 0.0
C202 C 0.54114 0.45465 0.81259 0.0
C203 C 0.54975 0.48038 0.8164 0.0
H204 H 0.62413 0.37534 0.75924 0.0
H205 H 0.53259 0.49106 0.82835 0.0
H206 H 0.38839 0.43534 0.76107 0.0
H207 H 0.43649 0.29292 0.72373 0.0
H208 H 0.51859 0.44543 0.82244 0.0
H209 H 0.58802 0.51193 0.80823 0.0
H210 H 0.46994 0.33517 0.72252 0.0
H211 H 0.68624 0.39114 0.74183 0.0
H212 H 0.64652 0.50771 0.78263 0.0
H213 H 0.68913 0.48038 0.75971 0.0
H214 H 0.32497 0.43431 0.78137 0.0
H215 H 0.7047 0.43677 0.74483 0.0
H216 H 0.37425 0.28742 0.74513 0.0
N217 N 0.39436 0.39502 0.76028 0.0
C218 C 0.3755 0.37227 0.7632 0.0
C219 C 0.33918 0.41668 0.77671 0.0
C220 C 0.33839 0.37078 0.77399 0.0
C221 C 0.37566 0.41718 0.76563 0.0
C222 C 0.32081 0.39334 0.7813 0.0
N223 N 0.42735 0.3528 0.74332 0.0
C224 C 0.44272 0.33277 0.73182 0.0
C225 C 0.37213 0.32695 0.75534 0.0
C226 C 0.39207 0.3506 0.75405 0.0
C227 C 0.3887 0.30592 0.74455 0.0
C228 C 0.42385 0.30894 0.73246 0.0
H229 H 0.29234 0.39301 0.78966 0.0
H230 H 0.2911 0.34546 0.78487 0.0
H231 H 0.32069 0.30706 0.76854 0.0
O232 O 0.46924 0.39128 0.70742 0.0
O233 O 0.47093 0.36116 0.76711 0.0
O234 O 0.48857 0.38191 0.79886 0.0
O235 O 0.41257 0.40468 0.71889 0.0
O236 O 0.51669 0.37634 0.73277 0.0
O237 O 0.5483 0.36366 0.76525 0.0
O238 O 0.57592 0.39999 0.82095 0.0
O239 O 0.55448 0.4137 0.75268 0.0
O240 O 0.49318 0.43 0.74543 0.0
O241 O 0.57732 0.3648 0.80154 0.0
O242 O 0.48776 0.41389 0.79819 0.0
O243 O 0.45847 0.42834 0.76579 0.0
C244 C 0.47009 0.3632 0.78876 0.0
C245 C 0.43563 0.42036 0.68446 0.0
C246 C 0.42522 0.43248 0.64567 0.0
C247 C 0.43608 0.45768 0.65117 0.0
C248 C 0.44629 0.44551 0.68954 0.0
C249 C 0.4467 0.46404 0.67291 0.0
C250 C 0.42546 0.41386 0.66258 0.0
C251 C 0.54186 0.3618 0.74371 0.0
C252 C 0.43504 0.40059 0.70174 0.0
C253 C 0.31938 0.34701 0.77639 0.0
C254 C 0.33616 0.32515 0.76704 0.0
C255 C 0.53187 0.43093 0.74332 0.0
C256 C 0.60956 0.36334 0.83762 0.0
C257 C 0.62802 0.35836 0.87663 0.0
C258 C 0.64794 0.33577 0.87122 0.0
C259 C 0.62983 0.34074 0.83266 0.0
C260 C 0.60929 0.37237 0.85966 0.0
C261 C 0.64906 0.32717 0.84936 0.0
C262 C 0.46332 0.42915 0.78753 0.0
C263 C 0.58699 0.37631 0.81991 0.0
H264 H 0.43569 0.47265 0.6388 0.0
H265 H 0.45403 0.45077 0.70636 0.0
H266 H 0.45487 0.48348 0.67693 0.0
H267 H 0.41803 0.39422 0.6588 0.0
H268 H 0.66283 0.32479 0.88395 0.0
H269 H 0.63059 0.33342 0.81587 0.0
H270 H 0.59338 0.38962 0.86376 0.0
H271 H 0.66455 0.30976 0.84538 0.0
Eu272 Eu 0.04488 0.89537 0.74518 0.0
C273 C 0.87816 0.86119 0.77818 0.0
N274 N 0.89171 0.88528 0.77477 0.0
C275 C 0.83228 0.89579 0.75504 0.0
C276 C 0.84138 0.85314 0.76939 0.0
C277 C 0.86903 0.90285 0.76403 0.0
C278 C 0.81857 0.87074 0.75752 0.0
C279 C 0.88732 0.81972 0.79506 0.0
C280 C 0.90093 0.84475 0.79085 0.0
C281 C 0.8514 0.81128 0.78565 0.0
C282 C 0.82839 0.82799 0.77292 0.0
Eu283 Eu 0.95407 0.8958 0.79001 0.0
N284 N 0.93521 0.85365 0.80003 0.0
C285 C 0.90954 0.80421 0.80923 0.0
C286 C 0.95499 0.83932 0.81534 0.0
C287 C 0.94314 0.81422 0.81972 0.0
H288 H 0.8796 0.92222 0.76221 0.0
H289 H 0.95954 0.80278 0.83149 0.0
H290 H 0.10783 0.85102 0.76576 0.0
H291 H 0.07901 0.99375 0.72327 0.0
H292 H 0.97948 0.84726 0.8246 0.0
H293 H 0.90015 0.78486 0.81286 0.0
H294 H 0.04029 0.95339 0.72313 0.0
H295 H 0.81459 0.90964 0.7462 0.0
H296 H 0.84065 0.79206 0.78856 0.0
H297 H 0.80034 0.82139 0.76618 0.0
H298 H 0.17003 0.84967 0.78718 0.0
H299 H 0.79014 0.8653 0.75049 0.0
H300 H 0.14081 0.99696 0.7454 0.0
N301 N 0.10635 0.89148 0.7641 0.0
C302 C 0.1277 0.91338 0.76668 0.0
C303 C 0.15812 0.86779 0.78188 0.0
C304 C 0.16452 0.91341 0.77787 0.0
C305 C 0.12223 0.86867 0.77024 0.0
C306 C 0.17902 0.89033 0.78609 0.0
N307 N 0.07925 0.93465 0.74541 0.0
C308 C 0.06708 0.95487 0.73292 0.0
C309 C 0.13714 0.95804 0.75731 0.0
C310 C 0.1142 0.93549 0.75666 0.0
C311 C 0.12392 0.97931 0.7454 0.0
C312 C 0.08902 0.9776 0.7329 0.0
H313 H 0.20715 0.88955 0.79479 0.0
H314 H 0.21458 0.93663 0.78838 0.0
H315 H 0.19066 0.97568 0.77029 0.0
O316 O 0.03774 0.89772 0.70907 0.0
O317 O 0.03591 0.92887 0.76888 0.0
O318 O 0.01585 0.90779 0.79982 0.0
O319 O 0.08904 0.87927 0.72273 0.0
O320 O 0.98834 0.91463 0.73424 0.0
O321 O 0.95643 0.92959 0.76592 0.0
O322 O 0.92639 0.89562 0.82307 0.0
O323 O 0.94414 0.88095 0.75502 0.0
O324 O 0.0028 0.86137 0.74656 0.0
O325 O 0.93164 0.9312 0.80433 0.0
O326 O 0.01214 0.87656 0.79971 0.0
O327 O 0.03756 0.86027 0.76711 0.0
C328 C 0.03332 0.92735 0.79057 0.0
C329 C 0.09747 0.90133 0.68884 0.0
C330 C 0.11666 0.91096 0.65065 0.0
C331 C 0.14356 0.9294 0.65854 0.0
C332 C 0.12557 0.91924 0.69634 0.0
C333 C 0.14813 0.93335 0.68126 0.0
C334 C 0.09351 0.89694 0.6659 0.0
C335 C 0.96504 0.93092 0.74448 0.0
C336 C 0.07196 0.88751 0.70478 0.0
C337 C 0.18643 0.9362 0.77967 0.0
C338 C 0.17285 0.95844 0.76933 0.0
C339 C 0.96386 0.86239 0.74563 0.0
C340 C 0.90077 0.93399 0.84087 0.0
C341 C 0.88145 0.93761 0.87996 0.0
C342 C 0.86678 0.96213 0.87552 0.0
C343 C 0.88602 0.95856 0.83701 0.0
C344 C 0.89806 0.92345 0.86239 0.0
C345 C 0.86899 0.97243 0.85421 0.0
C346 C 0.03268 0.85934 0.78878 0.0
C347 C 0.9201 0.92004 0.82256 0.0
H348 H 0.1618 0.9403 0.6471 0.0
H349 H 0.1303 0.92227 0.71382 0.0
H350 H 0.16947 0.94726 0.68723 0.0
H351 H 0.07238 0.88286 0.65994 0.0
H352 H 0.85321 0.97331 0.88853 0.0
H353 H 0.88767 0.96709 0.82066 0.0
H354 H 0.90985 0.90463 0.86561 0.0
H355 H 0.85756 0.99131 0.85104 0.0
Eu356 Eu 0.46292 0.60904 0.24465 0.0
C357 C 0.6256 0.64768 0.27785 0.0
N358 N 0.61356 0.62317 0.27499 0.0
C359 C 0.6735 0.61373 0.25539 0.0
C360 C 0.66164 0.6565 0.26867 0.0
C361 C 0.6373 0.60593 0.26461 0.0
C362 C 0.68552 0.6392 0.25719 0.0
C363 C 0.61371 0.68933 0.29368 0.0
C364 C 0.60184 0.66383 0.29017 0.0
C365 C 0.64878 0.69855 0.28381 0.0
C366 C 0.67274 0.68215 0.27137 0.0
Eu367 Eu 0.5517 0.61155 0.29031 0.0
N368 N 0.56824 0.65426 0.29963 0.0
C369 C 0.59059 0.7046 0.30756 0.0
C370 C 0.54761 0.66845 0.31463 0.0
C371 C 0.55781 0.69395 0.3184 0.0
H372 H 0.62792 0.58626 0.26321 0.0
H373 H 0.54072 0.70526 0.32992 0.0
H374 H 0.39675 0.65262 0.26344 0.0
H375 H 0.43534 0.50973 0.22353 0.0
H376 H 0.52365 0.6601 0.32407 0.0
H377 H 0.59865 0.72429 0.31066 0.0
H378 H 0.4722 0.55081 0.22373 0.0
H379 H 0.69203 0.60014 0.24683 0.0
H380 H 0.65813 0.71816 0.28613 0.0
H381 H 0.70008 0.68939 0.26421 0.0
H382 H 0.33285 0.65302 0.28319 0.0
H383 H 0.71347 0.64523 0.24991 0.0
H384 H 0.37161 0.50581 0.24378 0.0
N385 N 0.3998 0.61218 0.26187 0.0
C386 C 0.37905 0.58997 0.26397 0.0
C387 C 0.34583 0.63509 0.27825 0.0
C388 C 0.34142 0.58938 0.27425 0.0
C389 C 0.38266 0.63474 0.26757 0.0
C390 C 0.32543 0.61225 0.28199 0.0
N391 N 0.43012 0.56929 0.24428 0.0
C392 C 0.44444 0.54907 0.23262 0.0
C393 C 0.3723 0.54505 0.25492 0.0
C394 C 0.39422 0.56802 0.25448 0.0
C395 C 0.38761 0.52379 0.24387 0.0
C396 C 0.42362 0.52591 0.23244 0.0
H397 H 0.29663 0.6126 0.28999 0.0
H398 H 0.29155 0.56541 0.28374 0.0
H399 H 0.31859 0.5266 0.26678 0.0
O400 O 0.47326 0.60577 0.20898 0.0
O401 O 0.47164 0.5763 0.2692 0.0
O402 O 0.49029 0.59842 0.29988 0.0
O403 O 0.41873 0.62214 0.22075 0.0
O404 O 0.52104 0.59094 0.23492 0.0
O405 O 0.55107 0.5768 0.2674 0.0
O406 O 0.57844 0.61295 0.32365 0.0
O407 O 0.56162 0.62617 0.25515 0.0
O408 O 0.50214 0.6443 0.24625 0.0
O409 O 0.57631 0.5771 0.3052 0.0
O410 O 0.49251 0.62983 0.29932 0.0
O411 O 0.4668 0.64464 0.26617 0.0
C412 C 0.47366 0.57841 0.29087 0.0
C413 C 0.44364 0.63707 0.18664 0.0
C414 C 0.43234 0.65152 0.1487 0.0
C415 C 0.44842 0.67545 0.15438 0.0
C416 C 0.45972 0.66099 0.19201 0.0
C417 C 0.4622 0.68006 0.17589 0.0
C418 C 0.43029 0.63231 0.16496 0.0
C419 C 0.54421 0.57516 0.24583 0.0
C420 C 0.44037 0.61698 0.20349 0.0
C421 C 0.32032 0.56625 0.27572 0.0
C422 C 0.33566 0.54415 0.26601 0.0
C423 C 0.54108 0.64416 0.24542 0.0
C424 C 0.60646 0.57547 0.34194 0.0
C425 C 0.62476 0.57243 0.3812 0.0
C426 C 0.64127 0.54836 0.37703 0.0
C427 C 0.62308 0.55137 0.33831 0.0
C428 C 0.60776 0.5861 0.36343 0.0
C429 C 0.64052 0.53801 0.35574 0.0
C430 C 0.47109 0.6462 0.28787 0.0
C431 C 0.58655 0.58875 0.32341 0.0
H432 H 0.45071 0.69049 0.14212 0.0
H433 H 0.47013 0.66492 0.20866 0.0
H434 H 0.47472 0.69848 0.18009 0.0
H435 H 0.41767 0.61384 0.16089 0.0
H436 H 0.65513 0.53759 0.39024 0.0
H437 H 0.62255 0.54278 0.32198 0.0
H438 H 0.59456 0.60455 0.36646 0.0
H439 H 0.65336 0.51948 0.35276 0.0
H440 H 0.13378 0.87211 0.38698 0.0
H441 H 0.10586 0.91048 0.36979 0.0
H442 H 0.20384 0.95499 0.39538 0.0
H443 H 0.23183 0.91629 0.4123 0.0
H444 H 0.08325 0.9587 0.38446 0.0
H445 H 0.21313 0.96339 0.3277 0.0
H446 H 0.20296 0.93615 0.34515 0.0
H447 H 0.22513 0.96439 0.35674 0.0
C448 C 0.14853 0.8903 0.38936 0.0
C449 C 0.18467 0.89156 0.40084 0.0
C450 C 0.13281 0.91211 0.37952 0.0
C451 C 0.15324 0.93546 0.38093 0.0
C452 C 0.18801 0.93706 0.39378 0.0
H453 H 0.05738 0.07787 0.32982 0.0
H454 H 0.08644 0.04485 0.35322 0.0
C455 C 0.2037 0.91516 0.40364 0.0
C456 C 0.13948 0.95746 0.36758 0.0
H457 H 0.16519 0.99572 0.32389 0.0
C458 C 0.10122 0.96693 0.37131 0.0
C459 C 0.1627 0.96773 0.3501 0.0
C460 C 0.20312 0.9573 0.34447 0.0
C461 C 0.08557 0.9865 0.35809 0.0
C462 C 0.10916 0.99719 0.34096 0.0
C463 C 0.14736 0.98765 0.33718 0.0
C464 C 0.09427 0.01789 0.32647 0.0
C465 C 0.04346 0.99499 0.36216 0.0
C466 C 0.09069 0.01414 0.30348 0.0
C467 C 0.07444 0.03312 0.28998 0.0
C468 C 0.06157 0.05616 0.2993 0.0
C469 C 0.0666 0.06019 0.3222 0.0
C470 C 0.08302 0.0413 0.33562 0.0
H471 H 0.02624 0.98059 0.37174 0.0
H472 H 0.04393 0.01293 0.37187 0.0
H473 H 0.02779 0.99868 0.34627 0.0
H474 H 0.09943 0.99624 0.29608 0.0
H475 H 0.07072 0.02941 0.27243 0.0
H476 H 0.2539 0.59404 0.8932 0.0
H477 H 0.28226 0.5563 0.8758 0.0
H478 H 0.40003 0.5835 0.89202 0.0
H479 H 0.37137 0.62235 0.90739 0.0
H480 H 0.39947 0.57111 0.85182 0.0
H481 H 0.32651 0.49134 0.89562 0.0
H482 H 0.28967 0.51208 0.88432 0.0
H483 H 0.3232 0.52367 0.90545 0.0
C484 C 0.28577 0.59147 0.89353 0.0
C485 C 0.31048 0.61071 0.90208 0.0
C486 C 0.30202 0.56983 0.88374 0.0
C487 C 0.34339 0.56664 0.88293 0.0
C488 C 0.36803 0.58534 0.89258 0.0
H489 H 0.44909 0.42808 0.83197 0.0
H490 H 0.42076 0.46154 0.85481 0.0
C491 C 0.3517 0.60733 0.90182 0.0
C492 C 0.36089 0.54546 0.86984 0.0
H493 H 0.35317 0.48169 0.85946 0.0
C494 C 0.38972 0.5515 0.85378 0.0
C495 C 0.34863 0.51976 0.87239 0.0
C496 C 0.32064 0.51134 0.89057 0.0
C497 C 0.4062 0.53274 0.84008 0.0
C498 C 0.39194 0.50735 0.84161 0.0
C499 C 0.36357 0.50122 0.8579 0.0
C500 C 0.40743 0.48663 0.82727 0.0
C501 C 0.43948 0.54036 0.82459 0.0
C502 C 0.40852 0.48914 0.80403 0.0
C503 C 0.42601 0.4703 0.79093 0.0
C504 C 0.44161 0.44826 0.80079 0.0
C505 C 0.43804 0.44506 0.82388 0.0
C506 C 0.42158 0.46414 0.83698 0.0
H507 H 0.45508 0.55781 0.83049 0.0
H508 H 0.46165 0.52492 0.8229 0.0
H509 H 0.42702 0.54462 0.80796 0.0
H510 H 0.39644 0.50585 0.79603 0.0
H511 H 0.42808 0.47326 0.77318 0.0
H512 H 0.63433 0.62592 0.62674 0.0
H513 H 0.60201 0.58863 0.64398 0.0
H514 H 0.71492 0.55031 0.64621 0.0
H515 H 0.74707 0.58802 0.62977 0.0
H516 H 0.59397 0.53738 0.63601 0.0
H517 H 0.68589 0.55377 0.71113 0.0
H518 H 0.68417 0.57623 0.68849 0.0
H519 H 0.71487 0.54837 0.68665 0.0
C520 C 0.65175 0.60917 0.6304 0.0
C521 C 0.69293 0.60956 0.62707 0.0
C522 C 0.63348 0.58799 0.64032 0.0
C523 C 0.65626 0.56695 0.64694 0.0
C524 C 0.69694 0.56659 0.64181 0.0
H525 H 0.60448 0.42996 0.72313 0.0
H526 H 0.63422 0.46265 0.69923 0.0
C527 C 0.71521 0.58788 0.63219 0.0
C528 C 0.63818 0.54639 0.66067 0.0
H529 H 0.64575 0.51655 0.71095 0.0
C530 C 0.60526 0.53284 0.65239 0.0
C531 C 0.65263 0.54068 0.6822 0.0
C532 C 0.68605 0.55568 0.69277 0.0
C533 C 0.58691 0.51342 0.6649 0.0
C534 C 0.60183 0.50753 0.68622 0.0
C535 C 0.63466 0.52103 0.6945 0.0
C536 C 0.58348 0.48766 0.70043 0.0
C537 C 0.55195 0.49915 0.65521 0.0
C538 C 0.54542 0.49114 0.70932 0.0
C539 C 0.52875 0.47275 0.72337 0.0
C540 C 0.54977 0.4505 0.72867 0.0
C541 C 0.58785 0.44708 0.71968 0.0
C542 C 0.60471 0.46561 0.70585 0.0
H543 H 0.54928 0.50223 0.63703 0.0
H544 H 0.55446 0.47839 0.65848 0.0
H545 H 0.52425 0.50589 0.66318 0.0
H546 H 0.52885 0.50825 0.70563 0.0
H547 H 0.49955 0.47609 0.73027 0.0
H548 H 0.75589 0.92105 0.12483 0.0
H549 H 0.78864 0.95867 0.14109 0.0
H550 H 0.89802 0.91666 0.14596 0.0
H551 H 0.86511 0.87937 0.1293 0.0
H552 H 0.81866 0.95838 0.18302 0.0
H553 H 0.93785 0.98522 0.12389 0.0
H554 H 0.8969 0.96463 0.11625 0.0
H555 H 0.93846 0.95214 0.13144 0.0
C556 C 0.78728 0.92038 0.12867 0.0
C557 C 0.80837 0.89773 0.12566 0.0
C558 C 0.80589 0.94168 0.13808 0.0
C559 C 0.84591 0.9406 0.1446 0.0
C560 C 0.86743 0.9182 0.14062 0.0
H561 H 1.00038 0.02918 0.22974 0.0
H562 H 0.96867 0.99692 0.20621 0.0
C563 C 0.84877 0.89694 0.13113 0.0
C564 C 0.8637 0.9617 0.15778 0.0
H565 H 0.94257 1.00291 0.16037 0.0
C566 C 0.84547 0.96833 0.17791 0.0
C567 C 0.8989 0.97451 0.15123 0.0
C568 C 0.919 0.96896 0.12942 0.0
C569 C 0.86194 0.987 0.19189 0.0
C570 C 0.8973 0.99961 0.18544 0.0
C571 C 0.91544 0.99316 0.16526 0.0
C572 C 0.91623 0.01926 0.19964 0.0
C573 C 0.8422 0.99253 0.21382 0.0
C574 C 0.89726 0.04253 0.20366 0.0
C575 C 0.91544 0.06107 0.21694 0.0
C576 C 0.9529 0.05663 0.22643 0.0
C577 C 0.97165 0.03322 0.22251 0.0
C578 C 0.9536 0.01478 0.2091 0.0
H579 H 0.81958 0.97786 0.21821 0.0
H580 H 0.86465 0.9935 0.2273 0.0
H581 H 0.82724 0.01127 0.21292 0.0
H582 H 0.86858 0.04645 0.19632 0.0
H583 H 0.90045 0.07902 0.21949 0.0
H584 H 0.86749 0.12312 0.62142 0.0
H585 H 0.90024 0.08612 0.63841 0.0
H586 H 0.7855 0.05302 0.65296 0.0
H587 H 0.75322 0.08963 0.63553 0.0
H588 H 0.8915 0.07426 0.6822 0.0
H589 H 0.84559 0.9916 0.63109 0.0
H590 H 0.84109 0.02405 0.62148 0.0
H591 H 0.80423 0.01053 0.63971 0.0
C592 C 0.84958 0.10739 0.62749 0.0
C593 C 0.80805 0.10891 0.62717 0.0
C594 C 0.86814 0.08645 0.63736 0.0
C595 C 0.84531 0.06673 0.64686 0.0
C596 C 0.80376 0.0677 0.64538 0.0
H597 H 0.91338 0.96866 0.75731 0.0
H598 H 0.88423 1.00182 0.73382 0.0
C599 C 0.78532 0.08857 0.6355 0.0
C600 C 0.86446 0.04664 0.66041 0.0
H601 H 0.87016 0.98224 0.66749 0.0
C602 C 0.88719 0.05413 0.67886 0.0
C603 C 0.85887 0.0204 0.65602 0.0
C604 C 0.83644 0.01115 0.63587 0.0
C605 C 0.90393 0.03609 0.69326 0.0
C606 C 0.89704 0.00987 0.68935 0.0
C607 C 0.87493 1.00237 0.67066 0.0
C608 C 0.91402 0.98981 0.70381 0.0
C609 C 0.92931 0.04529 0.71232 0.0
C610 C 0.93957 0.9717 0.69464 0.0
C611 C 0.95581 0.95264 0.70789 0.0
C612 C 0.94693 0.9512 0.73069 0.0
C613 C 0.92102 0.96926 0.73986 0.0
C614 C 0.90454 0.98833 0.72649 0.0
H615 H 0.93993 0.06516 0.70969 0.0
H616 H 0.91149 0.04488 0.72779 0.0
H617 H 0.95548 0.03281 0.7147 0.0
H618 H 0.94722 0.97243 0.67719 0.0
H619 H 0.97556 0.93911 0.70014 0.0
H620 H 0.74523 0.4217 0.123 0.0
H621 H 0.71334 0.45764 0.14187 0.0
H622 H 0.60965 0.41082 0.15384 0.0
H623 H 0.64124 0.3754 0.13406 0.0
H624 H 0.58872 0.45899 0.14623 0.0
H625 H 0.70968 0.45729 0.2085 0.0
H626 H 0.72766 0.46359 0.18102 0.0
H627 H 0.70462 0.43334 0.18725 0.0
C628 C 0.71505 0.41963 0.12895 0.0
C629 C 0.69525 0.39619 0.12697 0.0
C630 C 0.69712 0.43988 0.14005 0.0
C631 C 0.6596 0.43666 0.1499 0.0
C632 C 0.63872 0.41371 0.14653 0.0
H633 H 0.57351 0.52937 0.26038 0.0
H634 H 0.60052 0.49491 0.23748 0.0
C635 C 0.65647 0.3936 0.13511 0.0
C636 C 0.64318 0.4565 0.16481 0.0
H637 H 0.66409 0.49158 0.21116 0.0
C638 C 0.60517 0.46608 0.16045 0.0
C639 C 0.66412 0.46521 0.18378 0.0
C640 C 0.70357 0.45413 0.19059 0.0
C641 C 0.58799 0.4846 0.17416 0.0
C642 C 0.60995 0.4944 0.19235 0.0
C643 C 0.64751 0.48434 0.19705 0.0
C644 C 0.59474 0.5154 0.20643 0.0
C645 C 0.54614 0.49305 0.16925 0.0
C646 C 0.5837 0.53858 0.19671 0.0
C647 C 0.56799 0.55805 0.20966 0.0
C648 C 0.5637 0.555 0.23273 0.0
C649 C 0.57644 0.53224 0.24266 0.0
C650 C 0.59175 0.51255 0.22958 0.0
H651 H 0.52935 0.47825 0.15991 0.0
H652 H 0.52968 0.49743 0.18473 0.0
H653 H 0.54716 0.51049 0.15883 0.0
H654 H 0.58703 0.5416 0.17903 0.0
H655 H 0.55909 0.57553 0.20153 0.0
H656 H 0.25315 0.41673 0.38994 0.0
H657 H 0.28898 0.4528 0.3736 0.0
H658 H 0.3988 0.42402 0.40043 0.0
H659 H 0.36304 0.38676 0.41523 0.0
H660 H 0.33176 0.49071 0.38636 0.0
H661 H 0.42813 0.42722 0.33677 0.0
H662 H 0.38706 0.41526 0.35291 0.0
H663 H 0.43378 0.42264 0.36607 0.0
C664 C 0.28495 0.41821 0.3923 0.0
C665 C 0.30556 0.39879 0.40332 0.0
C666 C 0.30541 0.43886 0.38311 0.0
C667 C 0.34688 0.44077 0.38512 0.0
C668 C 0.36705 0.42251 0.39791 0.0
H669 H 0.46578 0.57929 0.33602 0.0
H670 H 0.43752 0.54629 0.35995 0.0
C671 C 0.3466 0.40148 0.4067 0.0
C672 C 0.36862 0.46117 0.37285 0.0
H673 H 0.44117 0.47131 0.33417 0.0
C674 C 0.35574 0.48646 0.37497 0.0
C675 C 0.39941 0.45561 0.35761 0.0
C676 C 0.41266 0.4287 0.35299 0.0
C677 C 0.37224 0.50621 0.36212 0.0
C678 C 0.40387 0.50076 0.34742 0.0
C679 C 0.41717 0.47556 0.34555 0.0
C680 C 0.42249 0.52061 0.33308 0.0
C681 C 0.35426 0.53242 0.36374 0.0
C682 C 0.42553 0.5167 0.31008 0.0
C683 C 0.44298 0.53518 0.29646 0.0
C684 C 0.45687 0.55826 0.3054 0.0
C685 C 0.45469 0.56192 0.32849 0.0
C686 C 0.4381 0.54316 0.3422 0.0
H687 H 0.32337 0.53157 0.37019 0.0
H688 H 0.37208 0.54417 0.3754 0.0
H689 H 0.35385 0.54209 0.34734 0.0
H690 H 0.41426 0.49933 0.30261 0.0
H691 H 0.4457 0.5313 0.27894 0.0
H692 H 0.25179 0.09186 0.88827 0.0
H693 H 0.21729 0.05521 0.87204 0.0
H694 H 0.10656 0.08205 0.8991 0.0
H695 H 0.14087 0.11984 0.91379 0.0
H696 H 0.1757 0.01648 0.88479 0.0
H697 H 0.07742 0.07906 0.83532 0.0
H698 H 0.11821 0.0914 0.85147 0.0
H699 H 0.07169 0.08349 0.86462 0.0
C700 C 0.22009 0.0898 0.89075 0.0
C701 C 0.19878 0.10883 0.90181 0.0
C702 C 0.2004 0.06882 0.8816 0.0
C703 C 0.15903 0.06623 0.88369 0.0
C704 C 0.13824 0.08408 0.89655 0.0
H705 H 0.04225 0.92681 0.83565 0.0
H706 H 0.07065 0.9601 0.85915 0.0
C707 C 0.1579 0.10541 0.9053 0.0
C708 C 0.13792 0.04564 0.87137 0.0
H709 H 0.06524 0.03483 0.83288 0.0
C710 C 0.1515 0.0205 0.87346 0.0
C711 C 0.10689 0.05091 0.85617 0.0
C712 C 0.09295 0.0777 0.85155 0.0
C713 C 0.1353 1.0006 0.8607 0.0
C714 C 0.10333 0.00574 0.84611 0.0
C715 C 0.08947 0.03081 0.84419 0.0
C716 C 0.08478 0.98567 0.832 0.0
C717 C 0.15386 0.97456 0.86232 0.0
C718 C 0.08119 0.98941 0.809 0.0
C719 C 0.06366 0.97075 0.79562 0.0
C720 C 0.05023 0.94768 0.80482 0.0
C721 C 0.05295 0.94419 0.82792 0.0
C722 C 0.06965 0.96311 0.84139 0.0
H723 H 0.18485 0.97569 0.86861 0.0
H724 H 0.13652 0.96268 0.87413 0.0
H725 H 0.15416 0.96484 0.84597 0.0
H726 H 0.09208 0.00679 0.80133 0.0
H727 H 0.06049 0.97449 0.77809 0.0
H728 H 0.23255 0.10236 0.94893 0.0
H729 H 0.20616 0.09003 0.9855 0.0
H730 H 0.13053 0.1561 0.98499 0.0
H731 H 0.1576 0.16849 0.94872 0.0
H732 H 0.17153 0.15225 0.02333 0.0
H733 H 0.10051 0.0593 1.00367 0.0
H734 H 0.15186 0.06124 0.99586 0.0
H735 H 0.11622 0.08144 0.98242 0.0
C736 C 0.20975 0.11384 0.95658 0.0
C737 C 0.19694 0.13629 0.94625 0.0
C738 C 0.19464 0.10684 0.97737 0.0
C739 C 0.16608 0.12203 0.98793 0.0
C740 C 0.15253 0.1441 0.9772 0.0
H741 H 0.02449 0.08425 0.10351 0.0
H742 H 0.04963 0.09436 0.06644 0.0
C743 C 0.16784 0.15115 0.95654 0.0
C744 C 0.15189 0.11592 1.01067 0.0
H745 H 0.10562 0.07017 0.04184 0.0
C746 C 0.15702 0.13432 0.02736 0.0
C747 C 0.13269 0.09262 1.01589 0.0
C748 C 0.12461 0.07259 0.99849 0.0
C749 C 0.14354 0.13007 0.04911 0.0
C750 C 0.1252 0.10652 0.05447 0.0
C751 C 0.11996 0.08814 0.03776 0.0
C752 C 0.11022 0.1008 0.07713 0.0
C753 C 0.14823 0.15111 0.06598 0.0
C754 C 0.13593 0.10095 0.09549 0.0
C755 C 0.12158 0.09529 0.11673 0.0
C756 C 0.08133 0.08901 0.11998 0.0
C757 C 0.05572 0.08877 0.10153 0.0
C758 C 0.07002 0.09459 0.08035 0.0
H759 H 0.1527 0.16997 0.05791 0.0
H760 H 0.12185 0.15219 0.07697 0.0
H761 H 0.17465 0.14726 0.07643 0.0
H762 H 0.16724 0.10511 0.09336 0.0
H763 H 0.14216 0.09525 0.13055 0.0
H764 H 0.2775 0.40911 0.44747 0.0
H765 H 0.30567 0.42334 0.48299 0.0
H766 H 0.36395 0.35083 0.49038 0.0
H767 H 0.33766 0.33735 0.45435 0.0
H768 H 0.29224 0.40453 0.52278 0.0
H769 H 0.45328 0.39752 0.50643 0.0
H770 H 0.41681 0.39572 0.48454 0.0
H771 H 0.42812 0.36799 0.50097 0.0
C772 C 0.29715 0.39656 0.4565 0.0
C773 C 0.30547 0.37217 0.44829 0.0
C774 C 0.31299 0.40457 0.47683 0.0
C775 C 0.33739 0.3883 0.48932 0.0
C776 C 0.34606 0.36401 0.48091 0.0
H777 H 0.36818 0.39797 0.63223 0.0
H778 H 0.3483 0.38721 0.59451 0.0
C779 C 0.33061 0.35616 0.46048 0.0
C780 C 0.35152 0.39602 0.51176 0.0
H781 H 0.434 0.40013 0.54464 0.0
C782 C 0.32331 0.4038 0.52747 0.0
C783 C 0.3921 0.39539 0.5179 0.0
C784 C 0.42434 0.38896 0.50149 0.0
C785 C 0.33437 0.41047 0.54919 0.0
C786 C 0.37468 0.40854 0.55568 0.0
C787 C 0.40303 0.40129 0.53983 0.0
C788 C 0.38813 0.41422 0.57871 0.0
C789 C 0.3027 0.41995 0.56479 0.0
C790 C 0.41858 0.43211 0.58249 0.0
C791 C 0.43097 0.43777 0.60411 0.0
C792 C 0.41306 0.42576 0.62252 0.0
C793 C 0.38302 0.4075 0.61859 0.0
C794 C 0.37105 0.40161 0.59696 0.0
H795 H 0.27706 0.42795 0.55556 0.0
H796 H 0.29147 0.40379 0.57494 0.0
H797 H 0.31452 0.43484 0.57612 0.0
H798 H 0.43257 0.4419 0.5687 0.0
H799 H 0.45477 0.45149 0.60634 0.0
H800 H 0.66312 0.33425 0.07896 0.0
H801 H 0.64022 0.3437 0.04122 0.0
H802 H 0.70389 0.41529 0.04284 0.0
H803 H 0.72773 0.40532 0.08045 0.0
H804 H 0.59857 0.38312 0.02076 0.0
H805 H 0.75447 0.37841 0.99044 0.0
H806 H 0.74045 0.36829 0.01796 0.0
H807 H 0.74511 0.40164 1.01163 0.0
C808 C 0.67165 0.35214 0.07129 0.0
C809 C 0.69739 0.36897 0.08237 0.0
C810 C 0.65854 0.35757 0.04981 0.0
C811 C 0.67098 0.37997 0.03901 0.0
C812 C 0.69452 0.39767 0.05068 0.0
H813 H 0.65163 0.40403 0.89442 0.0
H814 H 0.65792 0.41458 0.93408 0.0
C815 C 0.70773 0.39216 0.07221 0.0
C816 C 0.66171 0.3835 1.01508 0.0
H817 H 0.70473 0.38395 0.96372 0.0
C818 C 0.62179 0.38365 1.0083 0.0
C819 C 0.69202 0.38414 0.99879 0.0
C820 C 0.73543 0.38291 1.00495 0.0
C821 C 0.61142 0.38369 0.98569 0.0
C822 C 0.64172 0.38333 0.96946 0.0
C823 C 0.68157 0.38437 0.97621 0.0
C824 C 0.63308 0.37881 0.94562 0.0
C825 C 0.56812 0.38359 0.97932 0.0
C826 C 0.61679 0.35534 0.939 0.0
C827 C 0.61363 0.34924 0.91652 0.0
C828 C 0.62649 0.36653 0.90017 0.0
C829 C 0.64122 0.39048 0.90672 0.0
C830 C 0.64489 0.39647 0.92931 0.0
H831 H 0.54931 0.39135 0.99282 0.0
H832 H 0.56313 0.39491 0.964 0.0
H833 H 0.55837 0.3637 0.97609 0.0
H834 H 0.60813 0.34125 0.95126 0.0
H835 H 0.60216 0.33065 0.91188 0.0
H836 H 0.85261 0.1696 0.58297 0.0
H837 H 0.87812 0.16055 0.54563 0.0
H838 H 0.79956 0.09555 0.541 0.0
H839 H 0.77428 0.10462 0.57858 0.0
H840 H 0.90726 0.10682 0.52471 0.0
H841 H 0.77245 0.15362 0.49013 0.0
H842 H 0.79075 0.1614 0.51749 0.0
H843 H 0.76757 0.1311 0.51261 0.0
C844 C 0.84163 0.15306 0.5741 0.0
C845 C 0.81164 0.13776 0.58339 0.0
C846 C 0.85611 0.1479 0.55288 0.0
C847 C 0.84056 0.12747 0.5406 0.0
C848 C 0.81193 0.11137 0.55029 0.0
H849 H 0.86276 0.11859 0.39607 0.0
H850 H 0.84229 0.1093 0.43417 0.0
C851 C 0.79768 0.11644 0.57167 0.0
C852 C 0.85169 0.12474 0.51699 0.0
H853 H 0.82257 0.14254 0.46505 0.0
C854 C 0.88863 0.1143 0.51158 0.0
C855 C 0.82714 0.13439 0.49998 0.0
C856 C 0.78723 0.14585 0.50515 0.0
C857 C 0.90207 0.11376 0.4895 0.0
C858 C 0.87841 0.12467 0.47255 0.0
C859 C 0.84079 0.13424 0.47798 0.0
C860 C 0.89292 0.12794 0.44939 0.0
C861 C 0.94147 0.10148 0.4846 0.0
C862 C 0.92827 0.14142 0.44519 0.0
C863 C 0.94036 0.14643 0.42343 0.0
C864 C 0.91701 0.13849 0.4053 0.0
C865 C 0.88181 0.1247 0.40955 0.0
C866 C 0.8699 0.11952 0.43136 0.0
H867 H 0.9485 0.08654 0.49705 0.0
H868 H 0.94181 0.09276 0.46783 0.0
H869 H 0.9653 0.11615 0.48544 0.0
H870 H 0.94609 0.14872 0.45876 0.0
H871 H 0.96788 0.1568 0.42085 0.0
H872 H 0.84341 0.83771 0.07727 0.0
H873 H 0.86534 0.84958 0.03977 0.0
H874 H 0.793 0.917 0.04274 0.0
H875 H 0.77043 0.90468 0.08006 0.0
H876 H 0.78047 0.88773 1.0046 0.0
H877 H 0.94142 0.90559 0.01793 0.0
H878 H 0.92358 0.87542 0.02809 0.0
H879 H 0.90616 0.90438 0.04048 0.0
C880 C 0.83264 0.85517 0.06991 0.0
C881 C 0.80522 0.87029 0.08137 0.0
C882 C 0.84535 0.86205 0.04861 0.0
C883 C 0.83103 0.88428 0.03847 0.0
C884 C 0.80454 0.89981 0.05025 0.0
H885 H 0.89981 0.96217 0.91857 0.0
H886 H 0.88934 0.94721 0.95656 0.0
C887 C 0.7919 0.89293 0.07157 0.0
C888 C 0.84145 0.89046 1.01509 0.0
H889 H 0.91892 0.90503 0.9806 0.0
C890 C 0.81075 0.8915 0.99935 0.0
C891 C 0.88095 0.89542 1.00827 0.0
C892 C 0.91496 0.89538 0.02457 0.0
C893 C 0.8184 0.89744 0.97701 0.0
C894 C 0.85795 0.90215 0.97011 0.0
C895 C 0.88869 0.90111 0.98585 0.0
C896 C 0.86745 0.90999 0.94698 0.0
C897 C 0.78394 0.89932 0.96108 0.0
C898 C 0.85971 0.89376 0.92892 0.0
C899 C 0.86559 0.90231 0.9071 0.0
C900 C 0.87922 0.92727 0.90297 0.0
C901 C 0.88859 0.943 0.92116 0.0
C902 C 0.88287 0.93443 0.9429 0.0
H903 H 0.75502 0.90036 0.96988 0.0
H904 H 0.78712 0.91637 0.95028 0.0
H905 H 0.78338 0.88222 0.95029 0.0
H906 H 0.84837 0.87466 0.9317 0.0
H907 H 0.8581 0.88973 0.89347 0.0
H908 H 0.65647 0.67157 0.57893 0.0
H909 H 0.63502 0.66023 0.54122 0.0
H910 H 0.70522 0.59188 0.54454 0.0
H911 H 0.72721 0.6036 0.58207 0.0
H912 H 0.71992 0.62196 0.5068 0.0
H913 H 0.55822 0.60492 0.51822 0.0
H914 H 0.57658 0.63467 0.52897 0.0
H915 H 0.59281 0.60527 0.54113 0.0
C916 C 0.66673 0.65397 0.57163 0.0
C917 C 0.69339 0.63841 0.58325 0.0
C918 C 0.65435 0.64742 0.5502 0.0
C919 C 0.6683 0.62511 0.54011 0.0
C920 C 0.69397 0.60913 0.55204 0.0
H921 H 0.60554 0.54758 0.41954 0.0
H922 H 0.61392 0.56265 0.45763 0.0
C923 C 0.70626 0.61568 0.57348 0.0
C924 C 0.65858 0.61933 0.51658 0.0
H925 H 0.58218 0.60524 0.48121 0.0
C926 C 0.6898 0.61834 0.50119 0.0
C927 C 0.61927 0.61459 0.50932 0.0
C928 C 0.58475 0.61468 0.52526 0.0
C929 C 0.68285 0.6126 0.47876 0.0
C930 C 0.64352 0.60801 0.47144 0.0
C931 C 0.61224 0.60906 0.48681 0.0
C932 C 0.63485 0.60018 0.44824 0.0
C933 C 0.71779 0.61077 0.46318 0.0
C934 C 0.64274 0.61655 0.43028 0.0
C935 C 0.638 0.60795 0.4084 0.0
C936 C 0.62547 0.5828 0.40418 0.0
C937 C 0.6159 0.56691 0.42225 0.0
C938 C 0.62043 0.57554 0.44403 0.0
H939 H 0.74648 0.60996 0.47225 0.0
H940 H 0.71511 0.5936 0.45252 0.0
H941 H 0.71842 0.62776 0.45221 0.0
H942 H 0.65341 0.63577 0.43317 0.0
H943 H 0.64561 0.62063 0.39484 0.0
H944 H 0.37 0.64783 0.93821 0.0
H945 H 0.39749 0.63998 0.97515 0.0
H946 H 0.27981 0.62228 0.99932 0.0
H947 H 0.2533 0.62801 0.96177 0.0
H948 H 0.38316 0.66779 1.00831 0.0
H949 H 0.33905 0.57035 0.03317 0.0
H950 H 0.33553 0.58122 1.00482 0.0
H951 H 0.29668 0.58821 0.02443 0.0
C952 C 0.35062 0.64068 0.95113 0.0
C953 C 0.30994 0.63751 0.9471 0.0
C954 C 0.3661 0.63667 0.97235 0.0
C955 C 0.34091 0.63015 0.99012 0.0
C956 C 0.30022 0.62641 0.9859 0.0
H957 H 0.38317 0.6814 0.12412 0.0
H958 H 0.36094 0.6746 0.08594 0.0
C959 C 0.28497 0.62983 0.96452 0.0
C960 C 0.35626 0.63081 1.0133 0.0
H961 H 0.35527 0.59933 0.06301 0.0
C962 C 0.37749 0.65258 0.02012 0.0
C963 C 0.34928 0.61098 0.02882 0.0
C964 C 0.32926 0.58628 0.02235 0.0
C965 C 0.39109 0.65535 0.04197 0.0
C966 C 0.38188 0.63631 0.05782 0.0
C967 C 0.3617 0.61416 0.05095 0.0
C968 C 0.39284 0.63927 0.08157 0.0
C969 C 0.41563 0.67862 0.04771 0.0
C970 C 0.41654 0.62105 0.09223 0.0
C971 C 0.42876 0.62472 0.11421 0.0
C972 C 0.41764 0.64675 0.12585 0.0
C973 C 0.39286 0.66453 0.11538 0.0
C974 C 0.38024 0.66068 0.09356 0.0
H975 H 0.4305 0.6867 0.0328 0.0
H976 H 0.39593 0.69353 0.05456 0.0
H977 H 0.43869 0.67413 0.06026 0.0
H978 H 0.4264 0.6043 0.08337 0.0
H979 H 0.44784 0.61071 0.12189 0.0
H980 H 0.13667 0.86917 0.43692 0.0
H981 H 0.11173 0.88221 0.4735 0.0
H982 H 0.23172 0.88303 0.4987 0.0
H983 H 0.25647 0.87149 0.46195 0.0
H984 H 0.11559 0.85681 0.51143 0.0
H985 H 0.19297 0.94889 0.5229 0.0
H986 H 0.191 0.93303 0.49638 0.0
H987 H 0.2277 0.9242 0.51673 0.0
C988 C 0.15759 0.87287 0.45019 0.0
C989 C 0.19838 0.86931 0.44677 0.0
C990 C 0.1434 0.88007 0.47109 0.0
C991 C 0.16984 0.88389 0.48886 0.0
C992 C 0.21073 0.88081 0.48522 0.0
H993 H 0.12982 0.86616 0.62926 0.0
H994 H 0.13736 0.85976 0.58924 0.0
C995 C 0.22486 0.8739 0.46431 0.0
C996 C 0.15481 0.88944 0.51154 0.0
H997 H 0.16965 0.92825 0.55618 0.0
C998 C 0.12695 0.87267 0.52112 0.0
C999 C 0.16904 0.91034 0.52412 0.0
C1000 C 0.19648 0.93027 0.51439 0.0
C1001 C 0.11417 0.87565 0.54316 0.0
C1002 C 0.1306 0.89551 0.55623 0.0
C1003 C 0.15729 0.91282 0.54635 0.0
C1004 C 0.12169 0.89844 0.58031 0.0
C1005 C 0.08303 0.85756 0.55208 0.0
C1006 C 0.11078 0.92233 0.58878 0.0
C1007 C 0.10745 0.92611 0.61166 0.0
C1008 C 0.11442 0.906 0.62651 0.0
C1009 C 0.12365 0.88183 0.61808 0.0
C1010 C 0.12775 0.87816 0.5952 0.0
H1011 H 0.06388 0.85004 0.53853 0.0
H1012 H 0.09787 0.84106 0.55999 0.0
H1013 H 0.06386 0.8669 0.5646 0.0
H1014 H 0.10598 0.93829 0.57771 0.0
H1015 H 0.1004 0.94493 0.61781 0.0
H1016 H 0.27061 0.29021 0.40048 0.0
H1017 H 0.23198 0.25682 0.38142 0.0
H1018 H 0.13755 0.3105 0.37002 0.0
H1019 H 0.17695 0.34391 0.3884 0.0
H1020 H 0.16051 0.23554 0.3893 0.0
H1021 H 0.15642 0.2853 0.30811 0.0
H1022 H 0.18775 0.29586 0.33061 0.0
H1023 H 0.13585 0.30382 0.33022 0.0
C1024 C 0.24149 0.29463 0.39395 0.0
C1025 C 0.22657 0.31942 0.39566 0.0
C1026 C 0.21951 0.2757 0.38307 0.0
C1027 C 0.18222 0.2813 0.37383 0.0
C1028 C 0.1667 0.3059 0.37639 0.0
H1029 H 0.00717 0.19009 0.30211 0.0
H1030 H 0.04136 0.22314 0.32374 0.0
C1031 C 0.18892 0.32488 0.38702 0.0
C1032 C 0.15968 0.26141 0.36152 0.0
H1033 H 0.11622 0.24814 0.31154 0.0
C1034 C 0.15094 0.23828 0.37228 0.0
C1035 C 0.14727 0.26495 0.33926 0.0
C1036 C 0.15762 0.28871 0.32629 0.0
C1037 C 0.12977 0.21876 0.3615 0.0
C1038 C 0.11721 0.22242 0.33935 0.0
C1039 C 0.1257 0.24552 0.3286 0.0
C1040 C 0.09619 0.20218 0.32682 0.0
C1041 C 0.1206 0.19445 0.37392 0.0
C1042 C 0.11585 0.17961 0.32129 0.0
C1043 C 0.09634 0.16067 0.30914 0.0
C1044 C 0.05683 0.164 0.3022 0.0
C1045 C 0.03728 0.18673 0.30764 0.0
C1046 C 0.05686 0.2057 0.31981 0.0
H1047 H 0.12448 0.19676 0.39211 0.0
H1048 H 0.08971 0.18797 0.37055 0.0
H1049 H 0.14102 0.17929 0.36823 0.0
H1050 H 0.14643 0.17674 0.32621 0.0
H1051 H 0.11226 0.1434 0.30516 0.0
H1052 H 0.22929 0.21888 0.90077 0.0
H1053 H 0.26661 0.25375 0.88286 0.0
H1054 H 0.3592 0.20106 0.86537 0.0
H1055 H 0.32199 0.16636 0.88347 0.0
H1056 H 0.3857 0.24931 0.8843 0.0
H1057 H 0.27991 0.26037 0.81401 0.0
H1058 H 0.25879 0.26108 0.84141 0.0
H1059 H 0.28074 0.23226 0.83133 0.0
C1060 C 0.25779 0.21496 0.89325 0.0
C1061 C 0.27297 0.19014 0.89335 0.0
C1062 C 0.27888 0.23473 0.88293 0.0
C1063 C 0.3154 0.22986 0.87261 0.0
C1064 C 0.33099 0.20514 0.87318 0.0
H1065 H 0.45593 0.31367 0.77792 0.0
H1066 H 0.41728 0.28217 0.79889 0.0
C1067 C 0.30982 0.1854 0.8834 0.0
C1068 C 0.33732 0.25041 0.86097 0.0
H1069 H 0.33412 0.28912 0.81541 0.0
C1070 C 0.3744 0.25813 0.86931 0.0
C1071 C 0.32255 0.26162 0.8413 0.0
C1072 C 0.28346 0.25336 0.8313 0.0
C1073 C 0.39712 0.2769 0.85848 0.0
C1074 C 0.38221 0.2882 0.83892 0.0
C1075 C 0.3452 0.28047 0.83054 0.0
C1076 C 0.40537 0.30741 0.8264 0.0
C1077 C 0.43729 0.28415 0.86768 0.0
C1078 C 0.41125 0.33199 0.83495 0.0
C1079 C 0.43282 0.35013 0.82284 0.0
C1080 C 0.44863 0.34389 0.80199 0.0
C1081 C 0.44323 0.31913 0.79369 0.0
C1082 C 0.42142 0.3011 0.80569 0.0
H1083 H 0.44709 0.27092 0.88098 0.0
H1084 H 0.4599 0.28432 0.85427 0.0
H1085 H 0.43591 0.30366 0.87471 0.0
H1086 H 0.39881 0.3372 0.85087 0.0
H1087 H 0.43651 0.36912 0.82959 0.0
H1088 H 0.77481 0.21903 0.62772 0.0
H1089 H 0.73746 0.25293 0.64617 0.0
H1090 H 0.6503 0.19756 0.66779 0.0
H1091 H 0.6865 0.16405 0.64822 0.0
H1092 H 0.61528 0.23982 0.65409 0.0
H1093 H 0.73724 0.26543 0.71186 0.0
H1094 H 0.75121 0.26852 0.68327 0.0
H1095 H 0.73896 0.23759 0.69439 0.0
C1096 C 0.74735 0.21431 0.63614 0.0
C1097 C 0.73349 0.18904 0.63673 0.0
C1098 C 0.72636 0.23354 0.64694 0.0
C1099 C 0.69161 0.22768 0.65884 0.0
C1100 C 0.67722 0.2025 0.65889 0.0
H1101 H 0.58396 0.32163 0.76023 0.0
H1102 H 0.61924 0.28901 0.73931 0.0
C1103 C 0.69792 0.18338 0.64786 0.0
C1104 C 0.67009 0.24766 0.67128 0.0
H1105 H 0.6811 0.29259 0.71176 0.0
C1106 C 0.62964 0.25133 0.66673 0.0
C1107 C 0.68869 0.26234 0.68807 0.0
C1108 C 0.73129 0.25813 0.69488 0.0
C1109 C 0.60734 0.26941 0.67838 0.0
C1110 C 0.62634 0.28479 0.69452 0.0
C1111 C 0.6667 0.28098 0.6992 0.0
C1112 C 0.60476 0.30464 0.70707 0.0
C1113 C 0.56343 0.27132 0.67365 0.0
C1114 C 0.58533 0.32446 0.69591 0.0
C1115 C 0.56476 0.34297 0.7078 0.0
C1116 C 0.56383 0.34228 0.73112 0.0
C1117 C 0.58406 0.32272 0.74228 0.0
C1118 C 0.60426 0.30406 0.73035 0.0
H1119 H 0.55159 0.25354 0.66606 0.0
H1120 H 0.54641 0.27526 0.68903 0.0
H1121 H 0.55828 0.28712 0.66177 0.0
H1122 H 0.58626 0.3257 0.67798 0.0
H1123 H 0.5499 0.35795 0.6987 0.0
H1124 H 0.82219 0.3447 0.1486 0.0
H1125 H 0.85982 0.31149 0.16787 0.0
H1126 H 0.77488 0.25501 0.14583 0.0
H1127 H 0.73642 0.28852 0.12735 0.0
H1128 H 0.7917 0.25002 0.18955 0.0
H1129 H 0.93175 0.25803 0.14177 0.0
H1130 H 0.91672 0.28773 0.15372 0.0
H1131 H 0.88627 0.27286 0.13281 0.0
C1132 C 0.81174 0.32516 0.14792 0.0
C1133 C 0.77662 0.31903 0.13652 0.0
C1134 C 0.83339 0.30619 0.15869 0.0
C1135 C 0.82054 0.28068 0.15798 0.0
C1136 C 0.78549 0.27453 0.14647 0.0
H1137 H 0.96026 0.1503 0.19946 0.0
H1138 H 0.9232 0.18227 0.17861 0.0
C1139 C 0.76373 0.29356 0.1358 0.0
C1140 C 0.84275 0.2606 0.16999 0.0
H1141 H 0.93419 0.23348 0.17507 0.0
C1142 C 0.8228 0.24629 0.1863 0.0
C1143 C 0.88319 0.25554 0.16555 0.0
C1144 C 0.90566 0.26916 0.14735 0.0
C1145 C 0.84237 0.22738 0.19855 0.0
C1146 C 0.88324 0.22307 0.19474 0.0
C1147 C 0.90299 0.23703 0.17816 0.0
C1148 C 0.90593 0.20389 0.20755 0.0
C1149 C 0.8189 0.21192 0.21519 0.0
C1150 C 0.90911 0.20567 0.23072 0.0
C1151 C 0.93015 0.18737 0.24271 0.0
C1152 C 0.94873 0.16706 0.23172 0.0
C1153 C 0.94629 0.16568 0.20845 0.0
C1154 C 0.92508 0.18392 0.1965 0.0
H1155 H 0.78653 0.21251 0.21167 0.0
H1156 H 0.82849 0.19172 0.21531 0.0
H1157 H 0.82376 0.21991 0.23202 0.0
H1158 H 0.89544 0.22128 0.23954 0.0
H1159 H 0.93192 0.18917 0.26059 0.0
H1160 H 0.72579 0.71874 0.63284 0.0
H1161 H 0.7641 0.75222 0.65201 0.0
H1162 H 0.856 0.69785 0.66666 0.0
H1163 H 0.81783 0.66458 0.64728 0.0
H1164 H 0.78985 0.75054 0.6977 0.0
H1165 H 0.91625 0.75932 0.63887 0.0
H1166 H 0.86946 0.74472 0.63125 0.0
H1167 H 0.90459 0.72743 0.64777 0.0
C1168 C 0.75441 0.71419 0.63995 0.0
C1169 C 0.76912 0.68929 0.63863 0.0
C1170 C 0.77613 0.73317 0.65093 0.0
C1171 C 0.81304 0.72755 0.66054 0.0
C1172 C 0.82786 0.70267 0.65908 0.0
H1173 H 0.98738 0.81384 0.73646 0.0
H1174 H 0.95012 0.7809 0.71631 0.0
C1175 C 0.80606 0.6837 0.64818 0.0
C1176 C 0.83539 0.74744 0.67283 0.0
H1177 H 0.92214 0.78151 0.67294 0.0
C1178 C 0.81867 0.75745 0.69225 0.0
C1179 C 0.8731 0.75621 0.66574 0.0
C1180 C 0.8919 0.74656 0.64467 0.0
C1181 C 0.83897 0.77575 0.70499 0.0
C1182 C 0.87658 0.78468 0.69782 0.0
C1183 C 0.89331 0.77464 0.6784 0.0
C1184 C 0.89893 0.8046 0.71015 0.0
C1185 C 0.82056 0.78479 0.72636 0.0
C1186 C 0.88278 0.82894 0.71306 0.0
C1187 C 0.90401 0.84774 0.7245 0.0
C1188 C 0.94182 0.84259 0.7332 0.0
C1189 C 0.95828 0.81835 0.72994 0.0
C1190 C 0.937 0.79952 0.7185 0.0
H1191 H 0.79687 0.77161 0.73227 0.0
H1192 H 0.84342 0.78665 0.73955 0.0
H1193 H 0.80705 0.80377 0.72368 0.0
H1194 H 0.85391 0.83351 0.70627 0.0
H1195 H 0.89099 0.86643 0.72628 0.0
H1196 H 0.68058 0.82172 0.11728 0.0
H1197 H 0.64273 0.78847 0.13712 0.0
H1198 H 0.74288 0.77607 0.18038 0.0
H1199 H 0.78058 0.80921 0.1604 0.0
H1200 H 0.66215 0.73598 0.14429 0.0
H1201 H 0.64914 0.79001 0.22312 0.0
H1202 H 0.66284 0.80496 0.19719 0.0
H1203 H 0.69887 0.78715 0.21265 0.0
C1204 C 0.69442 0.81158 0.13087 0.0
C1205 C 0.73336 0.81767 0.13732 0.0
C1206 C 0.67289 0.79276 0.14222 0.0
C1207 C 0.68987 0.78003 0.16037 0.0
C1208 C 0.72903 0.78592 0.16663 0.0
H1209 H 0.61374 0.64093 0.22576 0.0
H1210 H 0.64927 0.67417 0.20513 0.0
C1211 C 0.75057 0.80466 0.15522 0.0
C1212 C 0.66666 0.76057 0.17275 0.0
H1213 H 0.62788 0.74678 0.22379 0.0
C1214 C 0.65453 0.73835 0.16165 0.0
C1215 C 0.65637 0.76388 0.19532 0.0
C1216 C 0.66712 0.78787 0.20779 0.0
C1217 C 0.63308 0.71908 0.17266 0.0
C1218 C 0.62388 0.72206 0.19541 0.0
C1219 C 0.63528 0.7445 0.20639 0.0
C1220 C 0.6025 0.70203 0.2081 0.0
C1221 C 0.62007 0.6958 0.15985 0.0
C1222 C 0.56479 0.70685 0.217 0.0
C1223 C 0.54464 0.68797 0.22901 0.0
C1224 C 0.56205 0.66404 0.23249 0.0
C1225 C 0.59983 0.6593 0.22359 0.0
C1226 C 0.61997 0.67817 0.2116 0.0
H1227 H 0.62132 0.69904 0.14164 0.0
H1228 H 0.64005 0.67973 0.16392 0.0
H1229 H 0.58934 0.69009 0.16445 0.0
H1230 H 0.55089 0.7252 0.21454 0.0
H1231 H 0.51563 0.69219 0.23579 0.0
H1232 H 0.31399 0.84224 0.382 0.0
H1233 H 0.35433 0.81031 0.36261 0.0
H1234 H 0.26806 0.75224 0.37942 0.0
H1235 H 0.22759 0.78441 0.39843 0.0
H1236 H 0.38821 0.76504 0.37833 0.0
H1237 H 0.27789 0.74647 0.31168 0.0
H1238 H 0.27488 0.77365 0.32991 0.0
H1239 H 0.2587 0.74276 0.3393 0.0
C1240 C 0.30405 0.82258 0.38156 0.0
C1241 C 0.26811 0.8155 0.39161 0.0
C1242 C 0.3269 0.80444 0.37055 0.0
C1243 C 0.31387 0.77901 0.36934 0.0
C1244 C 0.27828 0.77184 0.37985 0.0
H1245 H 0.44737 0.64565 0.33113 0.0
H1246 H 0.41038 0.67854 0.3509 0.0
C1247 C 0.25544 0.79003 0.39083 0.0
C1248 C 0.33747 0.76004 0.35698 0.0
H1249 H 0.33364 0.71904 0.31308 0.0
C1250 C 0.37635 0.755 0.36404 0.0
C1251 C 0.32208 0.7473 0.33814 0.0
C1252 C 0.28124 0.75293 0.32913 0.0
C1253 C 0.40003 0.73714 0.353 0.0
C1254 C 0.38413 0.72379 0.33463 0.0
C1255 C 0.34555 0.72918 0.3273 0.0
C1256 C 0.40709 0.70412 0.32278 0.0
C1257 C 0.44201 0.7329 0.36087 0.0
C1258 C 0.4169 0.70748 0.30034 0.0
C1259 C 0.43808 0.68875 0.28903 0.0
C1260 C 0.44942 0.66626 0.29992 0.0
C1261 C 0.43938 0.66291 0.32238 0.0
C1262 C 0.41833 0.68167 0.33369 0.0
H1263 H 0.45278 0.74882 0.37147 0.0
H1264 H 0.44307 0.71512 0.37083 0.0
H1265 H 0.46256 0.73075 0.3466 0.0
H1266 H 0.40834 0.72466 0.29163 0.0
H1267 H 0.44556 0.69187 0.27175 0.0
H1268 H 0.18722 0.66473 0.88504 0.0
H1269 H 0.14749 0.69739 0.86621 0.0
H1270 H 0.23758 0.7537 0.88109 0.0
H1271 H 0.27759 0.72075 0.89947 0.0
H1272 H 0.11682 0.74331 0.88217 0.0
H1273 H 0.22426 0.7592 0.81352 0.0
H1274 H 0.22711 0.73216 0.83199 0.0
H1275 H 0.24482 0.76289 0.84085 0.0
C1276 C 0.19821 0.68415 0.88428 0.0
C1277 C 0.23509 0.69048 0.89363 0.0
C1278 C 0.17566 0.70272 0.87362 0.0
C1279 C 0.18986 0.72786 0.87204 0.0
C1280 C 0.22641 0.73432 0.88184 0.0
H1281 H 0.05716 0.86147 0.83186 0.0
H1282 H 0.09434 0.82922 0.85242 0.0
C1283 C 0.24899 0.71569 0.89247 0.0
C1284 C 0.1665 0.74716 0.85991 0.0
H1285 H 0.16902 0.78688 0.81502 0.0
C1286 C 0.12818 0.75286 0.86749 0.0
C1287 C 0.18127 0.75927 0.84059 0.0
C1288 C 0.22147 0.75296 0.83108 0.0
C1289 C 0.10436 0.77062 0.85639 0.0
C1290 C 0.11954 0.78319 0.83742 0.0
C1291 C 0.15766 0.7773 0.82969 0.0
C1292 C 0.09619 0.8024 0.82521 0.0
C1293 C 0.0629 0.77549 0.86479 0.0
C1294 C 0.08539 0.79807 0.80304 0.0
C1295 C 0.06413 0.81642 0.79128 0.0
C1296 C 0.0537 0.83949 0.80146 0.0
C1297 C 0.06447 0.84375 0.82368 0.0
C1298 C 0.08565 0.82536 0.83544 0.0
H1299 H 0.05246 0.76012 0.87611 0.0
H1300 H 0.06265 0.7937 0.87412 0.0
H1301 H 0.04161 0.77715 0.85079 0.0
H1302 H 0.09339 0.78047 0.79487 0.0
H1303 H 0.05606 0.81263 0.77419 0.0
loop_
_geom_bond_atom_site_label_1
_geom_bond_atom_site_label_2
_geom_bond_distance
_geom_bond_site_symmetry_2
_ccdc_geom_bond_type
C0 N1 1.317 . S
C0 N2 1.348 . S
C0 C3 1.485 . S
N1 C0 1.317 . S
N1 N5 1.370 . S
N2 C0 1.348 . S
N2 C4 1.346 . S
C3 C0 1.485 . S
C3 H7 0.960 . S
C3 H8 0.961 . S
C3 H9 0.960 . S
C4 N2 1.346 . S
C4 N5 1.307 . S
C4 C6 1.486 . S
N5 N1 1.370 . S
N5 C4 1.307 . S
C6 C4 1.486 . S
C6 H10 0.960 . S
C6 H11 0.960 . S
C6 H12 0.959 . S
H7 C3 0.960 . S
H8 C3 0.961 . S
H9 C3 0.960 . S
H10 C6 0.960 . S
H11 C6 0.960 . S
H12 C6 0.959 . S
C13 N14 1.317 . S
C13 N15 1.348 . S
C13 C16 1.485 . S
N14 C13 1.317 . S
N14 N18 1.370 . S
N15 C13 1.348 . S
N15 C17 1.346 . S
C16 C13 1.485 . S
C16 H20 0.960 . S
C16 H21 0.961 . S
C16 H22 0.960 . S
C17 N15 1.346 . S
C17 N18 1.307 . S
C17 C19 1.486 . S
N18 N14 1.370 . S
N18 C17 1.307 . S
C19 C17 1.486 . S
C19 H23 0.960 . S
C19 H24 0.960 . S
C19 H25 0.959 . S
H20 C16 0.960 . S
H21 C16 0.961 . S
H22 C16 0.960 . S
H23 C19 0.960 . S
H24 C19 0.960 . S
H25 C19 0.959 . S
C26 N27 1.317 . S
C26 N28 1.348 . S
C26 C29 1.485 . S
N27 C26 1.317 . S
N27 N31 1.370 . S
N28 C26 1.348 . S
N28 C30 1.346 . S
C29 C26 1.485 . S
C29 H33 0.960 . S
C29 H34 0.961 . S
C29 H35 0.960 . S
C30 N28 1.346 . S
C30 N31 1.307 . S
C30 C32 1.486 . S
N31 N27 1.370 . S
N31 C30 1.307 . S
C32 C30 1.486 . S
C32 H36 0.960 . S
C32 H37 0.960 . S
C32 H38 0.959 . S
H33 C29 0.960 . S
H34 C29 0.961 . S
H35 C29 0.960 . S
H36 C32 0.960 . S
H37 C32 0.960 . S
H38 C32 0.959 . S
C39 N40 1.317 . S
C39 N41 1.348 . S
C39 C42 1.485 . S
N40 C39 1.317 . S
N40 N44 1.370 . S
N41 C39 1.348 . S
N41 C43 1.346 . S
C42 C39 1.485 . S
C42 H46 0.960 . S
C42 H47 0.961 . S
C42 H48 0.960 . S
C43 N41 1.346 . S
C43 N44 1.307 . S
C43 C45 1.486 . S
N44 N40 1.370 . S
N44 C43 1.307 . S
C45 C43 1.486 . S
C45 H49 0.960 . S
C45 H50 0.960 . S
C45 H51 0.959 . S
H46 C42 0.960 . S
H47 C42 0.961 . S
H48 C42 0.960 . S
H49 C45 0.960 . S
H50 C45 0.960 . S
H51 C45 0.959 . S
C52 N53 1.317 . S
C52 N54 1.348 . S
C52 C55 1.485 . S
N53 C52 1.317 . S
N53 N57 1.370 . S
N54 C52 1.348 . S
N54 C56 1.346 . S
C55 C52 1.485 . S
C55 H59 0.960 . S
C55 H60 0.961 . S
C55 H61 0.960 . S
C56 N54 1.346 . S
C56 N57 1.307 . S
C56 C58 1.486 . S
N57 N53 1.370 . S
N57 C56 1.307 . S
C58 C56 1.486 . S
C58 H62 0.960 . S
C58 H63 0.960 . S
C58 H64 0.959 . S
H59 C55 0.960 . S
H60 C55 0.961 . S
H61 C55 0.960 . S
H62 C58 0.960 . S
H63 C58 0.960 . S
H64 C58 0.959 . S
C65 N66 1.317 . S
C65 N67 1.348 . S
C65 C68 1.485 . S
N66 C65 1.317 . S
N66 N70 1.370 . S
N67 C65 1.348 . S
N67 C69 1.346 . S
C68 C65 1.485 . S
C68 H72 0.960 . S
C68 H73 0.961 . S
C68 H74 0.960 . S
C69 N67 1.346 . S
C69 N70 1.307 . S
C69 C71 1.486 . S
N70 N66 1.370 . S
N70 C69 1.307 . S
C71 C69 1.486 . S
C71 H75 0.960 . S
C71 H76 0.960 . S
C71 H77 0.959 . S
H72 C68 0.960 . S
H73 C68 0.961 . S
H74 C68 0.960 . S
H75 C71 0.960 . S
H76 C71 0.960 . S
H77 C71 0.959 . S
C78 N79 1.317 . S
C78 N80 1.348 . S
C78 C81 1.485 . S
N79 C78 1.317 . S
N79 N83 1.370 . S
N80 C78 1.348 . S
N80 C82 1.346 . S
C81 C78 1.485 . S
C81 H85 0.960 . S
C81 H86 0.961 . S
C81 H87 0.960 . S
C82 N80 1.346 . S
C82 N83 1.307 . S
C82 C84 1.486 . S
N83 N79 1.370 . S
N83 C82 1.307 . S
C84 C82 1.486 . S
C84 H88 0.960 . S
C84 H89 0.960 . S
C84 H90 0.959 . S
H85 C81 0.960 . S
H86 C81 0.961 . S
H87 C81 0.960 . S
H88 C84 0.960 . S
H89 C84 0.960 . S
H90 C84 0.959 . S
C91 N92 1.317 . S
C91 N93 1.348 . S
C91 C94 1.485 . S
N92 C91 1.317 . S
N92 N96 1.370 . S
N93 C91 1.348 . S
N93 C95 1.346 . S
C94 C91 1.485 . S
C94 H98 0.960 . S
C94 H99 0.961 . S
C94 H100 0.960 . S
C95 N93 1.346 . S
C95 N96 1.307 . S
C95 C97 1.486 . S
N96 N92 1.370 . S
N96 C95 1.307 . S
C97 C95 1.486 . S
C97 H101 0.960 . S
C97 H102 0.960 . S
C97 H103 0.959 . S
H98 C94 0.960 . S
H99 C94 0.961 . S
H100 C94 0.960 . S
H101 C97 0.960 . S
H102 C97 0.960 . S
H103 C97 0.959 . S
Eu104 N133 2.600 . S
Eu104 N139 2.562 . S
Eu104 O148 2.462 . S
Eu104 O149 2.373 . S
Eu104 O151 2.432 . S
Eu104 O152 2.291 . S
Eu104 O156 2.335 . S
Eu104 O159 2.372 . S
Eu104 C168 2.787 . S
C105 N106 1.365 . S
C105 C108 1.405 . S
C105 C112 1.448 . S
N106 C105 1.365 . S
N106 C109 1.319 . S
N106 Eu115 2.600 . S
C107 C109 1.397 . S
C107 C110 1.367 . S
C107 H127 0.931 . S
C108 C105 1.405 . S
C108 C110 1.403 . S
C108 C114 1.439 . S
C109 N106 1.319 . S
C109 C107 1.397 . S
C109 H120 0.930 . S
C110 C107 1.367 . S
C110 C108 1.403 . S
C110 H131 0.929 . S
C111 C112 1.430 . S
C111 C113 1.387 . S
C111 C117 1.404 . S
C112 C105 1.448 . S
C112 C111 1.430 . S
C112 N116 1.351 . S
C113 C111 1.387 . S
C113 C114 1.374 . S
C113 H128 0.931 . S
C114 C108 1.439 . S
C114 C113 1.374 . S
C114 H129 0.931 . S
Eu115 N106 2.600 . S
Eu115 N116 2.562 . S
Eu115 O150 2.335 1_655 S
Eu115 O153 2.372 . S
Eu115 O154 2.462 . S
Eu115 O155 2.373 . S
Eu115 O157 2.432 . S
Eu115 O158 2.291 1_655 S
Eu115 C179 2.787 . S
N116 C112 1.351 . S
N116 Eu115 2.562 . S
N116 C118 1.325 . S
C117 C111 1.404 . S
C117 C119 1.366 . S
C117 H125 0.930 . S
C118 N116 1.325 . S
C118 C119 1.416 . S
C118 H124 0.929 . S
C119 C117 1.366 . S
C119 C118 1.416 . S
C119 H121 0.930 . S
H120 C109 0.930 . S
H121 C119 0.930 . S
H122 C137 0.930 . S
H123 C144 0.930 . S
H124 C118 0.929 . S
H125 C117 0.930 . S
H126 C140 0.929 . S
H127 C107 0.931 . S
H128 C113 0.931 . S
H129 C114 0.931 . S
H130 C135 0.931 . S
H131 C110 0.929 . S
H132 C143 0.930 . S
N133 Eu104 2.600 . S
N133 C134 1.365 . S
N133 C137 1.319 . S
C134 N133 1.365 . S
C134 C136 1.405 . S
C134 C142 1.448 . S
C135 H130 0.931 . S
C135 C137 1.397 . S
C135 C138 1.367 . S
C136 C134 1.405 . S
C136 C138 1.403 . S
C136 C169 1.439 . S
C137 H122 0.930 . S
C137 N133 1.319 . S
C137 C135 1.397 . S
C138 C135 1.367 . S
C138 C136 1.403 . S
C138 H145 0.929 . S
N139 Eu104 2.562 . S
N139 C140 1.325 . S
N139 C142 1.351 . S
C140 H126 0.929 . S
C140 N139 1.325 . S
C140 C144 1.416 . S
C141 C142 1.430 . S
C141 C143 1.404 . S
C141 C170 1.387 . S
C142 C134 1.448 . S
C142 N139 1.351 . S
C142 C141 1.430 . S
C143 H132 0.930 . S
C143 C141 1.404 . S
C143 C144 1.366 . S
C144 H123 0.930 . S
C144 C140 1.416 . S
C144 C143 1.366 . S
H145 C138 0.929 . S
H146 C169 0.931 . S
H147 C170 0.931 . S
O148 Eu104 2.462 . S
O148 C168 1.252 . S
O149 Eu104 2.373 . S
O149 C160 1.249 . S
O150 Eu115 2.335 1_455 S
O150 C160 1.264 . S
O151 Eu104 2.432 . S
O151 C168 1.268 . S
O152 Eu104 2.291 . S
O152 C167 1.255 1_455 S
O153 Eu115 2.372 . S
O153 C167 1.257 . S
O154 Eu115 2.462 . S
O154 C179 1.252 . S
O155 Eu115 2.373 . S
O155 C171 1.249 . S
O156 Eu104 2.335 . S
O156 C171 1.264 1_455 S
O157 Eu115 2.432 . S
O157 C179 1.268 . S
O158 Eu115 2.291 1_455 S
O158 C178 1.255 . S
O159 Eu104 2.372 . S
O159 C178 1.257 . S
C160 O149 1.249 . S
C160 O150 1.264 . S
C161 C164 1.382 . S
C161 C166 1.390 . S
C161 C168 1.506 . S
C162 C163 1.398 . S
C162 C166 1.392 . S
C163 C162 1.398 . S
C163 C165 1.372 . S
C163 H180 0.931 . S
C164 C161 1.382 . S
C164 C165 1.390 . S
C164 H181 0.931 . S
C165 C163 1.372 . S
C165 C164 1.390 . S
C165 H182 0.929 . S
C166 C161 1.390 . S
C166 C162 1.392 . S
C166 H183 0.930 . S
C167 O152 1.255 1_655 S
C167 O153 1.257 . S
C168 Eu104 2.787 . S
C168 O148 1.252 . S
C168 O151 1.268 . S
C168 C161 1.506 . S
C169 C136 1.439 . S
C169 H146 0.931 . S
C169 C170 1.374 . S
C170 C141 1.387 . S
C170 H147 0.931 . S
C170 C169 1.374 . S
C171 O155 1.249 . S
C171 O156 1.264 1_655 S
C172 C175 1.382 . S
C172 C176 1.390 . S
C172 C179 1.506 . S
C173 C174 1.398 . S
C173 C176 1.392 . S
C174 C173 1.398 . S
C174 C177 1.372 . S
C174 H184 0.931 . S
C175 C172 1.382 . S
C175 C177 1.390 . S
C175 H185 0.931 . S
C176 C172 1.390 . S
C176 C173 1.392 . S
C176 H186 0.930 . S
C177 C174 1.372 . S
C177 C175 1.390 . S
C177 H187 0.929 . S
C178 O158 1.255 . S
C178 O159 1.257 . S
C179 Eu115 2.787 . S
C179 O154 1.252 . S
C179 O157 1.268 . S
C179 C172 1.506 . S
H180 C163 0.931 . S
H181 C164 0.931 . S
H182 C165 0.929 . S
H183 C166 0.930 . S
H184 C174 0.931 . S
H185 C175 0.931 . S
H186 C176 0.930 . S
H187 C177 0.929 . S
Eu188 N217 2.600 . S
Eu188 N223 2.562 . S
Eu188 O232 2.462 . S
Eu188 O233 2.373 . S
Eu188 O235 2.432 . S
Eu188 O236 2.291 . S
Eu188 O240 2.335 . S
Eu188 O243 2.372 . S
Eu188 C252 2.787 . S
C189 N190 1.365 . S
C189 C192 1.405 . S
C189 C196 1.448 . S
N190 C189 1.365 . S
N190 C193 1.319 . S
N190 Eu199 2.600 . S
C191 C193 1.397 . S
C191 C194 1.367 . S
C191 H211 0.931 . S
C192 C189 1.405 . S
C192 C194 1.403 . S
C192 C198 1.439 . S
C193 N190 1.319 . S
C193 C191 1.397 . S
C193 H204 0.930 . S
C194 C191 1.367 . S
C194 C192 1.403 . S
C194 H215 0.929 . S
C195 C196 1.430 . S
C195 C197 1.387 . S
C195 C201 1.404 . S
C196 C189 1.448 . S
C196 C195 1.430 . S
C196 N200 1.351 . S
C197 C195 1.387 . S
C197 C198 1.374 . S
C197 H212 0.931 . S
C198 C192 1.439 . S
C198 C197 1.374 . S
C198 H213 0.931 . S
Eu199 N190 2.600 . S
Eu199 N200 2.562 . S
Eu199 O234 2.335 . S
Eu199 O237 2.372 . S
Eu199 O238 2.462 . S
Eu199 O239 2.373 . S
Eu199 O241 2.432 . S
Eu199 O242 2.291 . S
Eu199 C263 2.787 . S
N200 C196 1.351 . S
N200 Eu199 2.562 . S
N200 C202 1.325 . S
C201 C195 1.404 . S
C201 C203 1.366 . S
C201 H209 0.930 . S
C202 N200 1.325 . S
C202 C203 1.416 . S
C202 H208 0.929 . S
C203 C201 1.366 . S
C203 C202 1.416 . S
C203 H205 0.930 . S
H204 C193 0.930 . S
H205 C203 0.930 . S
H206 C221 0.930 . S
H207 C228 0.930 . S
H208 C202 0.929 . S
H209 C201 0.930 . S
H210 C224 0.929 . S
H211 C191 0.931 . S
H212 C197 0.931 . S
H213 C198 0.931 . S
H214 C219 0.931 . S
H215 C194 0.929 . S
H216 C227 0.930 . S
N217 Eu188 2.600 . S
N217 C218 1.365 . S
N217 C221 1.319 . S
C218 N217 1.365 . S
C218 C220 1.405 . S
C218 C226 1.448 . S
C219 H214 0.931 . S
C219 C221 1.397 . S
C219 C222 1.367 . S
C220 C218 1.405 . S
C220 C222 1.403 . S
C220 C253 1.439 . S
C221 H206 0.930 . S
C221 N217 1.319 . S
C221 C219 1.397 . S
C222 C219 1.367 . S
C222 C220 1.403 . S
C222 H229 0.929 . S
N223 Eu188 2.562 . S
N223 C224 1.325 . S
N223 C226 1.351 . S
C224 H210 0.929 . S
C224 N223 1.325 . S
C224 C228 1.416 . S
C225 C226 1.430 . S
C225 C227 1.404 . S
C225 C254 1.387 . S
C226 C218 1.448 . S
C226 N223 1.351 . S
C226 C225 1.430 . S
C227 H216 0.930 . S
C227 C225 1.404 . S
C227 C228 1.366 . S
C228 H207 0.930 . S
C228 C224 1.416 . S
C228 C227 1.366 . S
H229 C222 0.929 . S
H230 C253 0.931 . S
H231 C254 0.931 . S
O232 Eu188 2.462 . S
O232 C252 1.252 . S
O233 Eu188 2.373 . S
O233 C244 1.249 . S
O234 Eu199 2.335 . S
O234 C244 1.264 . S
O235 Eu188 2.432 . S
O235 C252 1.268 . S
O236 Eu188 2.291 . S
O236 C251 1.255 . S
O237 Eu199 2.372 . S
O237 C251 1.257 . S
O238 Eu199 2.462 . S
O238 C263 1.252 . S
O239 Eu199 2.373 . S
O239 C255 1.249 . S
O240 Eu188 2.335 . S
O240 C255 1.264 . S
O241 Eu199 2.432 . S
O241 C263 1.268 . S
O242 Eu199 2.291 . S
O242 C262 1.255 . S
O243 Eu188 2.372 . S
O243 C262 1.257 . S
C244 O233 1.249 . S
C244 O234 1.264 . S
C245 C248 1.382 . S
C245 C250 1.390 . S
C245 C252 1.506 . S
C246 C247 1.398 . S
C246 C250 1.392 . S
C247 C246 1.398 . S
C247 C249 1.372 . S
C247 H264 0.931 . S
C248 C245 1.382 . S
C248 C249 1.390 . S
C248 H265 0.931 . S
C249 C247 1.372 . S
C249 C248 1.390 . S
C249 H266 0.929 . S
C250 C245 1.390 . S
C250 C246 1.392 . S
C250 H267 0.930 . S
C251 O236 1.255 . S
C251 O237 1.257 . S
C252 Eu188 2.787 . S
C252 O232 1.252 . S
C252 O235 1.268 . S
C252 C245 1.506 . S
C253 C220 1.439 . S
C253 H230 0.931 . S
C253 C254 1.374 . S
C254 C225 1.387 . S
C254 H231 0.931 . S
C254 C253 1.374 . S
C255 O239 1.249 . S
C255 O240 1.264 . S
C256 C259 1.382 . S
C256 C260 1.390 . S
C256 C263 1.506 . S
C257 C258 1.398 . S
C257 C260 1.392 . S
C258 C257 1.398 . S
C258 C261 1.372 . S
C258 H268 0.931 . S
C259 C256 1.382 . S
C259 C261 1.390 . S
C259 H269 0.931 . S
C260 C256 1.390 . S
C260 C257 1.392 . S
C260 H270 0.930 . S
C261 C258 1.372 . S
C261 C259 1.390 . S
C261 H271 0.929 . S
C262 O242 1.255 . S
C262 O243 1.257 . S
C263 Eu199 2.787 . S
C263 O238 1.252 . S
C263 O241 1.268 . S
C263 C256 1.506 . S
H264 C247 0.931 . S
H265 C248 0.931 . S
H266 C249 0.929 . S
H267 C250 0.930 . S
H268 C258 0.931 . S
H269 C259 0.931 . S
H270 C260 0.930 . S
H271 C261 0.929 . S
Eu272 N301 2.600 . S
Eu272 N307 2.562 . S
Eu272 O316 2.462 . S
Eu272 O317 2.373 . S
Eu272 O319 2.432 . S
Eu272 O320 2.291 . S
Eu272 O324 2.335 . S
Eu272 O327 2.372 . S
Eu272 C336 2.787 . S
C273 N274 1.365 . S
C273 C276 1.405 . S
C273 C280 1.448 . S
N274 C273 1.365 . S
N274 C277 1.319 . S
N274 Eu283 2.600 . S
C275 C277 1.397 . S
C275 C278 1.367 . S
C275 H295 0.931 . S
C276 C273 1.405 . S
C276 C278 1.403 . S
C276 C282 1.439 . S
C277 N274 1.319 . S
C277 C275 1.397 . S
C277 H288 0.930 . S
C278 C275 1.367 . S
C278 C276 1.403 . S
C278 H299 0.929 . S
C279 C280 1.430 . S
C279 C281 1.387 . S
C279 C285 1.404 . S
C280 C273 1.448 . S
C280 C279 1.430 . S
C280 N284 1.351 . S
C281 C279 1.387 . S
C281 C282 1.374 . S
C281 H296 0.931 . S
C282 C276 1.439 . S
C282 C281 1.374 . S
C282 H297 0.931 . S
Eu283 N274 2.600 . S
Eu283 N284 2.562 . S
Eu283 O318 2.335 1_655 S
Eu283 O321 2.372 . S
Eu283 O322 2.462 . S
Eu283 O323 2.373 . S
Eu283 O325 2.432 . S
Eu283 O326 2.291 1_655 S
Eu283 C347 2.787 . S
N284 C280 1.351 . S
N284 Eu283 2.562 . S
N284 C286 1.325 . S
C285 C279 1.404 . S
C285 C287 1.366 . S
C285 H293 0.930 . S
C286 N284 1.325 . S
C286 C287 1.416 . S
C286 H292 0.929 . S
C287 C285 1.366 . S
C287 C286 1.416 . S
C287 H289 0.930 . S
H288 C277 0.930 . S
H289 C287 0.930 . S
H290 C305 0.930 . S
H291 C312 0.930 . S
H292 C286 0.929 . S
H293 C285 0.930 . S
H294 C308 0.929 . S
H295 C275 0.931 . S
H296 C281 0.931 . S
H297 C282 0.931 . S
H298 C303 0.931 . S
H299 C278 0.929 . S
H300 C311 0.930 . S
N301 Eu272 2.600 . S
N301 C302 1.365 . S
N301 C305 1.319 . S
C302 N301 1.365 . S
C302 C304 1.405 . S
C302 C310 1.448 . S
C303 H298 0.931 . S
C303 C305 1.397 . S
C303 C306 1.367 . S
C304 C302 1.405 . S
C304 C306 1.403 . S
C304 C337 1.439 . S
C305 H290 0.930 . S
C305 N301 1.319 . S
C305 C303 1.397 . S
C306 C303 1.367 . S
C306 C304 1.403 . S
C306 H313 0.929 . S
N307 Eu272 2.562 . S
N307 C308 1.325 . S
N307 C310 1.351 . S
C308 H294 0.929 . S
C308 N307 1.325 . S
C308 C312 1.416 . S
C309 C310 1.430 . S
C309 C311 1.404 . S
C309 C338 1.387 . S
C310 C302 1.448 . S
C310 N307 1.351 . S
C310 C309 1.430 . S
C311 H300 0.930 . S
C311 C309 1.404 . S
C311 C312 1.366 . S
C312 H291 0.930 . S
C312 C308 1.416 . S
C312 C311 1.366 . S
H313 C306 0.929 . S
H314 C337 0.931 . S
H315 C338 0.931 . S
O316 Eu272 2.462 . S
O316 C336 1.252 . S
O317 Eu272 2.373 . S
O317 C328 1.249 . S
O318 Eu283 2.335 1_455 S
O318 C328 1.264 . S
O319 Eu272 2.432 . S
O319 C336 1.268 . S
O320 Eu272 2.291 . S
O320 C335 1.255 1_455 S
O321 Eu283 2.372 . S
O321 C335 1.257 . S
O322 Eu283 2.462 . S
O322 C347 1.252 . S
O323 Eu283 2.373 . S
O323 C339 1.249 . S
O324 Eu272 2.335 . S
O324 C339 1.264 1_455 S
O325 Eu283 2.432 . S
O325 C347 1.268 . S
O326 Eu283 2.291 1_455 S
O326 C346 1.255 . S
O327 Eu272 2.372 . S
O327 C346 1.257 . S
C328 O317 1.249 . S
C328 O318 1.264 . S
C329 C332 1.382 . S
C329 C334 1.390 . S
C329 C336 1.506 . S
C330 C331 1.398 . S
C330 C334 1.392 . S
C331 C330 1.398 . S
C331 C333 1.372 . S
C331 H348 0.931 . S
C332 C329 1.382 . S
C332 C333 1.390 . S
C332 H349 0.931 . S
C333 C331 1.372 . S
C333 C332 1.390 . S
C333 H350 0.929 . S
C334 C329 1.390 . S
C334 C330 1.392 . S
C334 H351 0.930 . S
C335 O320 1.255 1_655 S
C335 O321 1.257 . S
C336 Eu272 2.787 . S
C336 O316 1.252 . S
C336 O319 1.268 . S
C336 C329 1.506 . S
C337 C304 1.439 . S
C337 H314 0.931 . S
C337 C338 1.374 . S
C338 C309 1.387 . S
C338 H315 0.931 . S
C338 C337 1.374 . S
C339 O323 1.249 . S
C339 O324 1.264 1_655 S
C340 C343 1.382 . S
C340 C344 1.390 . S
C340 C347 1.506 . S
C341 C342 1.398 . S
C341 C344 1.392 . S
C342 C341 1.398 . S
C342 C345 1.372 . S
C342 H352 0.931 . S
C343 C340 1.382 . S
C343 C345 1.390 . S
C343 H353 0.931 . S
C344 C340 1.390 . S
C344 C341 1.392 . S
C344 H354 0.930 . S
C345 C342 1.372 . S
C345 C343 1.390 . S
C345 H355 0.929 . S
C346 O326 1.255 . S
C346 O327 1.257 . S
C347 Eu283 2.787 . S
C347 O322 1.252 . S
C347 O325 1.268 . S
C347 C340 1.506 . S
H348 C331 0.931 . S
H349 C332 0.931 . S
H350 C333 0.929 . S
H351 C334 0.930 . S
H352 C342 0.931 . S
H353 C343 0.931 . S
H354 C344 0.930 . S
H355 C345 0.929 . S
Eu356 N385 2.600 . S
Eu356 N391 2.562 . S
Eu356 O400 2.462 . S
Eu356 O401 2.373 . S
Eu356 O403 2.432 . S
Eu356 O404 2.291 . S
Eu356 O408 2.335 . S
Eu356 O411 2.372 . S
Eu356 C420 2.787 . S
C357 N358 1.365 . S
C357 C360 1.405 . S
C357 C364 1.448 . S
N358 C357 1.365 . S
N358 C361 1.319 . S
N358 Eu367 2.600 . S
C359 C361 1.397 . S
C359 C362 1.367 . S
C359 H379 0.931 . S
C360 C357 1.405 . S
C360 C362 1.403 . S
C360 C366 1.439 . S
C361 N358 1.319 . S
C361 C359 1.397 . S
C361 H372 0.930 . S
C362 C359 1.367 . S
C362 C360 1.403 . S
C362 H383 0.929 . S
C363 C364 1.430 . S
C363 C365 1.387 . S
C363 C369 1.404 . S
C364 C357 1.448 . S
C364 C363 1.430 . S
C364 N368 1.351 . S
C365 C363 1.387 . S
C365 C366 1.374 . S
C365 H380 0.931 . S
C366 C360 1.439 . S
C366 C365 1.374 . S
C366 H381 0.931 . S
Eu367 N358 2.600 . S
Eu367 N368 2.562 . S
Eu367 O402 2.335 . S
Eu367 O405 2.372 . S
Eu367 O406 2.462 . S
Eu367 O407 2.373 . S
Eu367 O409 2.432 . S
Eu367 O410 2.291 . S
Eu367 C431 2.787 . S
N368 C364 1.351 . S
N368 Eu367 2.562 . S
N368 C370 1.325 . S
C369 C363 1.404 . S
C369 C371 1.366 . S
C369 H377 0.930 . S
C370 N368 1.325 . S
C370 C371 1.416 . S
C370 H376 0.929 . S
C371 C369 1.366 . S
C371 C370 1.416 . S
C371 H373 0.930 . S
H372 C361 0.930 . S
H373 C371 0.930 . S
H374 C389 0.930 . S
H375 C396 0.930 . S
H376 C370 0.929 . S
H377 C369 0.930 . S
H378 C392 0.929 . S
H379 C359 0.931 . S
H380 C365 0.931 . S
H381 C366 0.931 . S
H382 C387 0.931 . S
H383 C362 0.929 . S
H384 C395 0.930 . S
N385 Eu356 2.600 . S
N385 C386 1.365 . S
N385 C389 1.319 . S
C386 N385 1.365 . S
C386 C388 1.405 . S
C386 C394 1.448 . S
C387 H382 0.931 . S
C387 C389 1.397 . S
C387 C390 1.367 . S
C388 C386 1.405 . S
C388 C390 1.403 . S
C388 C421 1.439 . S
C389 H374 0.930 . S
C389 N385 1.319 . S
C389 C387 1.397 . S
C390 C387 1.367 . S
C390 C388 1.403 . S
C390 H397 0.929 . S
N391 Eu356 2.562 . S
N391 C392 1.325 . S
N391 C394 1.351 . S
C392 H378 0.929 . S
C392 N391 1.325 . S
C392 C396 1.416 . S
C393 C394 1.430 . S
C393 C395 1.404 . S
C393 C422 1.387 . S
C394 C386 1.448 . S
C394 N391 1.351 . S
C394 C393 1.430 . S
C395 H384 0.930 . S
C395 C393 1.404 . S
C395 C396 1.366 . S
C396 H375 0.930 . S
C396 C392 1.416 . S
C396 C395 1.366 . S
H397 C390 0.929 . S
H398 C421 0.931 . S
H399 C422 0.931 . S
O400 Eu356 2.462 . S
O400 C420 1.252 . S
O401 Eu356 2.373 . S
O401 C412 1.249 . S
O402 Eu367 2.335 . S
O402 C412 1.264 . S
O403 Eu356 2.432 . S
O403 C420 1.268 . S
O404 Eu356 2.291 . S
O404 C419 1.255 . S
O405 Eu367 2.372 . S
O405 C419 1.257 . S
O406 Eu367 2.462 . S
O406 C431 1.252 . S
O407 Eu367 2.373 . S
O407 C423 1.249 . S
O408 Eu356 2.335 . S
O408 C423 1.264 . S
O409 Eu367 2.432 . S
O409 C431 1.268 . S
O410 Eu367 2.291 . S
O410 C430 1.255 . S
O411 Eu356 2.372 . S
O411 C430 1.257 . S
C412 O401 1.249 . S
C412 O402 1.264 . S
C413 C416 1.382 . S
C413 C418 1.390 . S
C413 C420 1.506 . S
C414 C415 1.398 . S
C414 C418 1.392 . S
C415 C414 1.398 . S
C415 C417 1.372 . S
C415 H432 0.931 . S
C416 C413 1.382 . S
C416 C417 1.390 . S
C416 H433 0.931 . S
C417 C415 1.372 . S
C417 C416 1.390 . S
C417 H434 0.929 . S
C418 C413 1.390 . S
C418 C414 1.392 . S
C418 H435 0.930 . S
C419 O404 1.255 . S
C419 O405 1.257 . S
C420 Eu356 2.787 . S
C420 O400 1.252 . S
C420 O403 1.268 . S
C420 C413 1.506 . S
C421 C388 1.439 . S
C421 H398 0.931 . S
C421 C422 1.374 . S
C422 C393 1.387 . S
C422 H399 0.931 . S
C422 C421 1.374 . S
C423 O407 1.249 . S
C423 O408 1.264 . S
C424 C427 1.382 . S
C424 C428 1.390 . S
C424 C431 1.506 . S
C425 C426 1.398 . S
C425 C428 1.392 . S
C426 C425 1.398 . S
C426 C429 1.372 . S
C426 H436 0.931 . S
C427 C424 1.382 . S
C427 C429 1.390 . S
C427 H437 0.931 . S
C428 C424 1.390 . S
C428 C425 1.392 . S
C428 H438 0.930 . S
C429 C426 1.372 . S
C429 C427 1.390 . S
C429 H439 0.929 . S
C430 O410 1.255 . S
C430 O411 1.257 . S
C431 Eu367 2.787 . S
C431 O406 1.252 . S
C431 O409 1.268 . S
C431 C424 1.506 . S
H432 C415 0.931 . S
H433 C416 0.931 . S
H434 C417 0.929 . S
H435 C418 0.930 . S
H436 C426 0.931 . S
H437 C427 0.931 . S
H438 C428 0.930 . S
H439 C429 0.929 . S
H440 C448 0.929 . S
H441 C450 0.930 . S
H442 C452 0.930 . S
H443 C455 0.929 . S
H444 C458 0.930 . S
H445 C460 0.960 . S
H446 C460 0.960 . S
H447 C460 0.960 . S
C448 H440 0.929 . S
C448 C449 1.377 . S
C448 C450 1.384 . S
C449 C448 1.377 . S
C449 C455 1.390 . S
C450 H441 0.930 . S
C450 C448 1.384 . S
C450 C451 1.372 . S
C451 C450 1.372 . S
C451 C452 1.400 . S
C451 C456 1.490 . S
C452 H442 0.930 . S
C452 C451 1.400 . S
C452 C455 1.386 . S
H453 C469 0.930 . S
H454 C470 0.931 . S
C455 H443 0.929 . S
C455 C449 1.390 . S
C455 C452 1.386 . S
C456 C451 1.490 . S
C456 C458 1.395 . S
C456 C459 1.403 . S
H457 C463 0.930 . S
C458 H444 0.930 . S
C458 C456 1.395 . S
C458 C461 1.403 . S
C459 C456 1.403 . S
C459 C460 1.524 . S
C459 C463 1.400 . S
C460 H445 0.960 . S
C460 H446 0.960 . S
C460 H447 0.960 . S
C460 C459 1.524 . S
C461 C458 1.403 . S
C461 C462 1.392 . S
C461 C465 1.495 . S
C462 C461 1.392 . S
C462 C463 1.385 . S
C462 C464 1.478 1_565 S
C463 H457 0.930 . S
C463 C459 1.400 . S
C463 C462 1.385 . S
C464 C462 1.478 1_545 S
C464 C466 1.381 . S
C464 C470 1.383 . S
C465 C461 1.495 . S
C465 H471 0.959 . S
C465 H472 0.961 . S
C465 H473 0.960 . S
C466 C464 1.381 . S
C466 C467 1.394 . S
C466 H474 0.930 1_545 S
C467 C466 1.394 . S
C467 C468 1.383 . S
C467 H475 0.929 . S
C468 C467 1.383 . S
C468 C469 1.377 . S
C469 H453 0.930 . S
C469 C468 1.377 . S
C469 C470 1.379 . S
C470 H454 0.931 . S
C470 C464 1.383 . S
C470 C469 1.379 . S
H471 C465 0.959 . S
H472 C465 0.961 . S
H473 C465 0.960 . S
H474 C466 0.930 1_565 S
H475 C467 0.929 . S
H476 C484 0.929 . S
H477 C486 0.930 . S
H478 C488 0.930 . S
H479 C491 0.929 . S
H480 C494 0.930 . S
H481 C496 0.960 . S
H482 C496 0.960 . S
H483 C496 0.960 . S
C484 H476 0.929 . S
C484 C485 1.377 . S
C484 C486 1.384 . S
C485 C484 1.377 . S
C485 C491 1.390 . S
C486 H477 0.930 . S
C486 C484 1.384 . S
C486 C487 1.372 . S
C487 C486 1.372 . S
C487 C488 1.400 . S
C487 C492 1.490 . S
C488 H478 0.930 . S
C488 C487 1.400 . S
C488 C491 1.386 . S
H489 C505 0.930 . S
H490 C506 0.931 . S
C491 H479 0.929 . S
C491 C485 1.390 . S
C491 C488 1.386 . S
C492 C487 1.490 . S
C492 C494 1.395 . S
C492 C495 1.403 . S
H493 C499 0.930 . S
C494 H480 0.930 . S
C494 C492 1.395 . S
C494 C497 1.403 . S
C495 C492 1.403 . S
C495 C496 1.524 . S
C495 C499 1.400 . S
C496 H481 0.960 . S
C496 H482 0.960 . S
C496 H483 0.960 . S
C496 C495 1.524 . S
C497 C494 1.403 . S
C497 C498 1.392 . S
C497 C501 1.495 . S
C498 C497 1.392 . S
C498 C499 1.385 . S
C498 C500 1.478 . S
C499 H493 0.930 . S
C499 C495 1.400 . S
C499 C498 1.385 . S
C500 C498 1.478 . S
C500 C502 1.381 . S
C500 C506 1.383 . S
C501 C497 1.495 . S
C501 H507 0.959 . S
C501 H508 0.961 . S
C501 H509 0.960 . S
C502 C500 1.381 . S
C502 C503 1.394 . S
C502 H510 0.930 . S
C503 C502 1.394 . S
C503 C504 1.383 . S
C503 H511 0.929 . S
C504 C503 1.383 . S
C504 C505 1.377 . S
C505 H489 0.930 . S
C505 C504 1.377 . S
C505 C506 1.379 . S
C506 H490 0.931 . S
C506 C500 1.383 . S
C506 C505 1.379 . S
H507 C501 0.959 . S
H508 C501 0.961 . S
H509 C501 0.960 . S
H510 C502 0.930 . S
H511 C503 0.929 . S
H512 C520 0.929 . S
H513 C522 0.930 . S
H514 C524 0.930 . S
H515 C527 0.929 . S
H516 C530 0.930 . S
H517 C532 0.960 . S
H518 C532 0.960 . S
H519 C532 0.960 . S
C520 H512 0.929 . S
C520 C521 1.377 . S
C520 C522 1.384 . S
C521 C520 1.377 . S
C521 C527 1.390 . S
C522 H513 0.930 . S
C522 C520 1.384 . S
C522 C523 1.372 . S
C523 C522 1.372 . S
C523 C524 1.400 . S
C523 C528 1.490 . S
C524 H514 0.930 . S
C524 C523 1.400 . S
C524 C527 1.386 . S
H525 C541 0.930 . S
H526 C542 0.931 . S
C527 H515 0.929 . S
C527 C521 1.390 . S
C527 C524 1.386 . S
C528 C523 1.490 . S
C528 C530 1.395 . S
C528 C531 1.403 . S
H529 C535 0.930 . S
C530 H516 0.930 . S
C530 C528 1.395 . S
C530 C533 1.403 . S
C531 C528 1.403 . S
C531 C532 1.524 . S
C531 C535 1.400 . S
C532 H517 0.960 . S
C532 H518 0.960 . S
C532 H519 0.960 . S
C532 C531 1.524 . S
C533 C530 1.403 . S
C533 C534 1.392 . S
C533 C537 1.495 . S
C534 C533 1.392 . S
C534 C535 1.385 . S
C534 C536 1.478 . S
C535 H529 0.930 . S
C535 C531 1.400 . S
C535 C534 1.385 . S
C536 C534 1.478 . S
C536 C538 1.381 . S
C536 C542 1.383 . S
C537 C533 1.495 . S
C537 H543 0.959 . S
C537 H544 0.961 . S
C537 H545 0.960 . S
C538 C536 1.381 . S
C538 C539 1.394 . S
C538 H546 0.930 . S
C539 C538 1.394 . S
C539 C540 1.383 . S
C539 H547 0.929 . S
C540 C539 1.383 . S
C540 C541 1.377 . S
C541 H525 0.930 . S
C541 C540 1.377 . S
C541 C542 1.379 . S
C542 H526 0.931 . S
C542 C536 1.383 . S
C542 C541 1.379 . S
H543 C537 0.959 . S
H544 C537 0.961 . S
H545 C537 0.960 . S
H546 C538 0.930 . S
H547 C539 0.929 . S
H548 C556 0.929 . S
H549 C558 0.930 . S
H550 C560 0.930 . S
H551 C563 0.929 . S
H552 C566 0.930 . S
H553 C568 0.960 . S
H554 C568 0.960 . S
H555 C568 0.960 . S
C556 H548 0.929 . S
C556 C557 1.377 . S
C556 C558 1.384 . S
C557 C556 1.377 . S
C557 C563 1.390 . S
C558 H549 0.930 . S
C558 C556 1.384 . S
C558 C559 1.372 . S
C559 C558 1.372 . S
C559 C560 1.400 . S
C559 C564 1.490 . S
C560 H550 0.930 . S
C560 C559 1.400 . S
C560 C563 1.386 . S
H561 C577 0.930 . S
H562 C578 0.931 1_565 S
C563 H551 0.929 . S
C563 C557 1.390 . S
C563 C560 1.386 . S
C564 C559 1.490 . S
C564 C566 1.395 . S
C564 C567 1.403 . S
H565 C571 0.930 . S
C566 H552 0.930 . S
C566 C564 1.395 . S
C566 C569 1.403 . S
C567 C564 1.403 . S
C567 C568 1.524 . S
C567 C571 1.400 . S
C568 H553 0.960 . S
C568 H554 0.960 . S
C568 H555 0.960 . S
C568 C567 1.524 . S
C569 C566 1.403 . S
C569 C570 1.392 . S
C569 C573 1.495 . S
C570 C569 1.392 . S
C570 C571 1.385 . S
C570 C572 1.478 1_565 S
C571 H565 0.930 . S
C571 C567 1.400 . S
C571 C570 1.385 . S
C572 C570 1.478 1_545 S
C572 C574 1.381 . S
C572 C578 1.383 . S
C573 C569 1.495 . S
C573 H579 0.959 . S
C573 H580 0.961 . S
C573 H581 0.960 1_565 S
C574 C572 1.381 . S
C574 C575 1.394 . S
C574 H582 0.930 . S
C575 C574 1.394 . S
C575 C576 1.383 . S
C575 H583 0.929 . S
C576 C575 1.383 . S
C576 C577 1.377 . S
C577 H561 0.930 . S
C577 C576 1.377 . S
C577 C578 1.379 . S
C578 H562 0.931 1_545 S
C578 C572 1.383 . S
C578 C577 1.379 . S
H579 C573 0.959 . S
H580 C573 0.961 . S
H581 C573 0.960 1_545 S
H582 C574 0.930 . S
H583 C575 0.929 . S
H584 C592 0.929 . S
H585 C594 0.930 . S
H586 C596 0.930 . S
H587 C599 0.929 . S
H588 C602 0.930 . S
H589 C604 0.960 . S
H590 C604 0.960 . S
H591 C604 0.960 . S
C592 H584 0.929 . S
C592 C593 1.377 . S
C592 C594 1.384 . S
C593 C592 1.377 . S
C593 C599 1.390 . S
C594 H585 0.930 . S
C594 C592 1.384 . S
C594 C595 1.372 . S
C595 C594 1.372 . S
C595 C596 1.400 . S
C595 C600 1.490 . S
C596 H586 0.930 . S
C596 C595 1.400 . S
C596 C599 1.386 . S
H597 C613 0.930 . S
H598 C614 0.931 . S
C599 H587 0.929 . S
C599 C593 1.390 . S
C599 C596 1.386 . S
C600 C595 1.490 . S
C600 C602 1.395 . S
C600 C603 1.403 . S
H601 C607 0.930 1_565 S
C602 H588 0.930 . S
C602 C600 1.395 . S
C602 C605 1.403 . S
C603 C600 1.403 . S
C603 C604 1.524 . S
C603 C607 1.400 . S
C604 H589 0.960 . S
C604 H590 0.960 . S
C604 H591 0.960 . S
C604 C603 1.524 . S
C605 C602 1.403 . S
C605 C606 1.392 . S
C605 C609 1.495 . S
C606 C605 1.392 . S
C606 C607 1.385 . S
C606 C608 1.478 1_545 S
C607 H601 0.930 1_545 S
C607 C603 1.400 . S
C607 C606 1.385 . S
C608 C606 1.478 1_565 S
C608 C610 1.381 . S
C608 C614 1.383 . S
C609 C605 1.495 . S
C609 H615 0.959 . S
C609 H616 0.961 . S
C609 H617 0.960 . S
C610 C608 1.381 . S
C610 C611 1.394 . S
C610 H618 0.930 . S
C611 C610 1.394 . S
C611 C612 1.383 . S
C611 H619 0.929 . S
C612 C611 1.383 . S
C612 C613 1.377 . S
C613 H597 0.930 . S
C613 C612 1.377 . S
C613 C614 1.379 . S
C614 H598 0.931 . S
C614 C608 1.383 . S
C614 C613 1.379 . S
H615 C609 0.959 . S
H616 C609 0.961 . S
H617 C609 0.960 . S
H618 C610 0.930 . S
H619 C611 0.929 . S
H620 C628 0.929 . S
H621 C630 0.930 . S
H622 C632 0.930 . S
H623 C635 0.929 . S
H624 C638 0.930 . S
H625 C640 0.960 . S
H626 C640 0.960 . S
H627 C640 0.960 . S
C628 H620 0.929 . S
C628 C629 1.377 . S
C628 C630 1.384 . S
C629 C628 1.377 . S
C629 C635 1.390 . S
C630 H621 0.930 . S
C630 C628 1.384 . S
C630 C631 1.372 . S
C631 C630 1.372 . S
C631 C632 1.400 . S
C631 C636 1.490 . S
C632 H622 0.930 . S
C632 C631 1.400 . S
C632 C635 1.386 . S
H633 C649 0.930 . S
H634 C650 0.931 . S
C635 H623 0.929 . S
C635 C629 1.390 . S
C635 C632 1.386 . S
C636 C631 1.490 . S
C636 C638 1.395 . S
C636 C639 1.403 . S
H637 C643 0.930 . S
C638 H624 0.930 . S
C638 C636 1.395 . S
C638 C641 1.403 . S
C639 C636 1.403 . S
C639 C640 1.524 . S
C639 C643 1.400 . S
C640 H625 0.960 . S
C640 H626 0.960 . S
C640 H627 0.960 . S
C640 C639 1.524 . S
C641 C638 1.403 . S
C641 C642 1.392 . S
C641 C645 1.495 . S
C642 C641 1.392 . S
C642 C643 1.385 . S
C642 C644 1.478 . S
C643 H637 0.930 . S
C643 C639 1.400 . S
C643 C642 1.385 . S
C644 C642 1.478 . S
C644 C646 1.381 . S
C644 C650 1.383 . S
C645 C641 1.495 . S
C645 H651 0.959 . S
C645 H652 0.961 . S
C645 H653 0.960 . S
C646 C644 1.381 . S
C646 C647 1.394 . S
C646 H654 0.930 . S
C647 C646 1.394 . S
C647 C648 1.383 . S
C647 H655 0.929 . S
C648 C647 1.383 . S
C648 C649 1.377 . S
C649 H633 0.930 . S
C649 C648 1.377 . S
C649 C650 1.379 . S
C650 H634 0.931 . S
C650 C644 1.383 . S
C650 C649 1.379 . S
H651 C645 0.959 . S
H652 C645 0.961 . S
H653 C645 0.960 . S
H654 C646 0.930 . S
H655 C647 0.929 . S
H656 C664 0.929 . S
H657 C666 0.930 . S
H658 C668 0.930 . S
H659 C671 0.929 . S
H660 C674 0.930 . S
H661 C676 0.960 . S
H662 C676 0.960 . S
H663 C676 0.960 . S
C664 H656 0.929 . S
C664 C665 1.377 . S
C664 C666 1.384 . S
C665 C664 1.377 . S
C665 C671 1.390 . S
C666 H657 0.930 . S
C666 C664 1.384 . S
C666 C667 1.372 . S
C667 C666 1.372 . S
C667 C668 1.400 . S
C667 C672 1.490 . S
C668 H658 0.930 . S
C668 C667 1.400 . S
C668 C671 1.386 . S
H669 C685 0.930 . S
H670 C686 0.931 . S
C671 H659 0.929 . S
C671 C665 1.390 . S
C671 C668 1.386 . S
C672 C667 1.490 . S
C672 C674 1.395 . S
C672 C675 1.403 . S
H673 C679 0.930 . S
C674 H660 0.930 . S
C674 C672 1.395 . S
C674 C677 1.403 . S
C675 C672 1.403 . S
C675 C676 1.524 . S
C675 C679 1.400 . S
C676 H661 0.960 . S
C676 H662 0.960 . S
C676 H663 0.960 . S
C676 C675 1.524 . S
C677 C674 1.403 . S
C677 C678 1.392 . S
C677 C681 1.495 . S
C678 C677 1.392 . S
C678 C679 1.385 . S
C678 C680 1.478 . S
C679 H673 0.930 . S
C679 C675 1.400 . S
C679 C678 1.385 . S
C680 C678 1.478 . S
C680 C682 1.381 . S
C680 C686 1.383 . S
C681 C677 1.495 . S
C681 H687 0.959 . S
C681 H688 0.961 . S
C681 H689 0.960 . S
C682 C680 1.381 . S
C682 C683 1.394 . S
C682 H690 0.930 . S
C683 C682 1.394 . S
C683 C684 1.383 . S
C683 H691 0.929 . S
C684 C683 1.383 . S
C684 C685 1.377 . S
C685 H669 0.930 . S
C685 C684 1.377 . S
C685 C686 1.379 . S
C686 H670 0.931 . S
C686 C680 1.383 . S
C686 C685 1.379 . S
H687 C681 0.959 . S
H688 C681 0.961 . S
H689 C681 0.960 . S
H690 C682 0.930 . S
H691 C683 0.929 . S
H692 C700 0.929 . S
H693 C702 0.930 . S
H694 C704 0.930 . S
H695 C707 0.929 . S
H696 C710 0.930 . S
H697 C712 0.960 . S
H698 C712 0.960 . S
H699 C712 0.960 . S
C700 H692 0.929 . S
C700 C701 1.377 . S
C700 C702 1.384 . S
C701 C700 1.377 . S
C701 C707 1.390 . S
C702 H693 0.930 . S
C702 C700 1.384 . S
C702 C703 1.372 . S
C703 C702 1.372 . S
C703 C704 1.400 . S
C703 C708 1.490 . S
C704 H694 0.930 . S
C704 C703 1.400 . S
C704 C707 1.386 . S
H705 C721 0.930 . S
H706 C722 0.931 . S
C707 H695 0.929 . S
C707 C701 1.390 . S
C707 C704 1.386 . S
C708 C703 1.490 . S
C708 C710 1.395 . S
C708 C711 1.403 . S
H709 C715 0.930 . S
C710 H696 0.930 . S
C710 C708 1.395 . S
C710 C713 1.403 . S
C711 C708 1.403 . S
C711 C712 1.524 . S
C711 C715 1.400 . S
C712 H697 0.960 . S
C712 H698 0.960 . S
C712 H699 0.960 . S
C712 C711 1.524 . S
C713 C710 1.403 . S
C713 C714 1.392 . S
C713 C717 1.495 1_545 S
C714 C713 1.392 . S
C714 C715 1.385 . S
C714 C716 1.478 1_545 S
C715 H709 0.930 . S
C715 C711 1.400 . S
C715 C714 1.385 . S
C716 C714 1.478 1_565 S
C716 C718 1.381 . S
C716 C722 1.383 . S
C717 C713 1.495 1_565 S
C717 H723 0.959 . S
C717 H724 0.961 . S
C717 H725 0.960 . S
C718 C716 1.381 . S
C718 C719 1.394 . S
C718 H726 0.925 1_565 S
C719 C718 1.394 . S
C719 C720 1.383 . S
C719 H727 0.929 . S
C720 C719 1.383 . S
C720 C721 1.377 . S
C721 H705 0.930 . S
C721 C720 1.377 . S
C721 C722 1.379 . S
C722 H706 0.931 . S
C722 C716 1.383 . S
C722 C721 1.379 . S
H723 C717 0.959 . S
H724 C717 0.961 . S
H725 C717 0.960 . S
H726 C718 0.925 1_545 S
H727 C719 0.929 . S
H728 C736 0.929 . S
H729 C738 0.930 . S
H730 C740 0.930 . S
H731 C743 0.929 . S
H732 C746 0.930 . S
H733 C748 0.985 . S
H734 C748 0.960 . S
H735 C748 0.960 . S
C736 H728 0.929 . S
C736 C737 1.377 . S
C736 C738 1.384 . S
C737 C736 1.377 . S
C737 C743 1.390 . S
C738 H729 0.930 . S
C738 C736 1.384 . S
C738 C739 1.372 . S
C739 C738 1.372 . S
C739 C740 1.400 . S
C739 C744 1.490 1_556 S
C740 H730 0.930 . S
C740 C739 1.400 . S
C740 C743 1.386 . S
H741 C757 0.930 . S
H742 C758 0.931 . S
C743 H731 0.929 . S
C743 C737 1.390 . S
C743 C740 1.386 . S
C744 C739 1.490 1_554 S
C744 C746 1.395 . S
C744 C747 1.403 . S
H745 C751 0.930 . S
C746 H732 0.930 . S
C746 C744 1.395 . S
C746 C749 1.403 . S
C747 C744 1.403 . S
C747 C748 1.524 1_554 S
C747 C751 1.400 . S
C748 H733 0.985 . S
C748 H734 0.960 . S
C748 H735 0.960 . S
C748 C747 1.524 1_556 S
C749 C746 1.403 . S
C749 C750 1.392 . S
C749 C753 1.495 . S
C750 C749 1.392 . S
C750 C751 1.385 . S
C750 C752 1.478 . S
C751 H745 0.930 . S
C751 C747 1.400 . S
C751 C750 1.385 . S
C752 C750 1.478 . S
C752 C754 1.381 . S
C752 C758 1.383 . S
C753 C749 1.495 . S
C753 H759 0.959 . S
C753 H760 0.961 . S
C753 H761 0.960 . S
C754 C752 1.381 . S
C754 C755 1.394 . S
C754 H762 0.930 . S
C755 C754 1.394 . S
C755 C756 1.383 . S
C755 H763 0.929 . S
C756 C755 1.383 . S
C756 C757 1.377 . S
C757 H741 0.930 . S
C757 C756 1.377 . S
C757 C758 1.379 . S
C758 H742 0.931 . S
C758 C752 1.383 . S
C758 C757 1.379 . S
H759 C753 0.959 . S
H760 C753 0.961 . S
H761 C753 0.960 . S
H762 C754 0.930 . S
H763 C755 0.929 . S
H764 C772 0.929 . S
H765 C774 0.930 . S
H766 C776 0.930 . S
H767 C779 0.929 . S
H768 C782 0.930 . S
H769 C784 0.960 . S
H770 C784 0.960 . S
H771 C784 0.960 . S
C772 H764 0.929 . S
C772 C773 1.377 . S
C772 C774 1.384 . S
C773 C772 1.377 . S
C773 C779 1.390 . S
C774 H765 0.930 . S
C774 C772 1.384 . S
C774 C775 1.372 . S
C775 C774 1.372 . S
C775 C776 1.400 . S
C775 C780 1.490 . S
C776 H766 0.930 . S
C776 C775 1.400 . S
C776 C779 1.386 . S
H777 C793 0.930 . S
H778 C794 0.931 . S
C779 H767 0.929 . S
C779 C773 1.390 . S
C779 C776 1.386 . S
C780 C775 1.490 . S
C780 C782 1.395 . S
C780 C783 1.403 . S
H781 C787 0.930 . S
C782 H768 0.930 . S
C782 C780 1.395 . S
C782 C785 1.403 . S
C783 C780 1.403 . S
C783 C784 1.524 . S
C783 C787 1.400 . S
C784 H769 0.960 . S
C784 H770 0.960 . S
C784 H771 0.960 . S
C784 C783 1.524 . S
C785 C782 1.403 . S
C785 C786 1.392 . S
C785 C789 1.495 . S
C786 C785 1.392 . S
C786 C787 1.385 . S
C786 C788 1.478 . S
C787 H781 0.930 . S
C787 C783 1.400 . S
C787 C786 1.385 . S
C788 C786 1.478 . S
C788 C790 1.381 . S
C788 C794 1.383 . S
C789 C785 1.495 . S
C789 H795 0.959 . S
C789 H796 0.961 . S
C789 H797 0.960 . S
C790 C788 1.381 . S
C790 C791 1.394 . S
C790 H798 0.930 . S
C791 C790 1.394 . S
C791 C792 1.383 . S
C791 H799 0.929 . S
C792 C791 1.383 . S
C792 C793 1.377 . S
C793 H777 0.930 . S
C793 C792 1.377 . S
C793 C794 1.379 . S
C794 H778 0.931 . S
C794 C788 1.383 . S
C794 C793 1.379 . S
H795 C789 0.959 . S
H796 C789 0.961 . S
H797 C789 0.960 . S
H798 C790 0.930 . S
H799 C791 0.929 . S
H800 C808 0.929 . S
H801 C810 0.930 . S
H802 C812 0.930 . S
H803 C815 0.929 . S
H804 C818 0.930 1_554 S
H805 C820 0.960 . S
H806 C820 0.960 . S
H807 C820 0.960 . S
C808 H800 0.929 . S
C808 C809 1.377 . S
C808 C810 1.384 . S
C809 C808 1.377 . S
C809 C815 1.390 . S
C810 H801 0.930 . S
C810 C808 1.384 . S
C810 C811 1.372 . S
C811 C810 1.372 . S
C811 C812 1.400 . S
C811 C816 1.474 1_554 S
C812 H802 0.930 . S
C812 C811 1.400 . S
C812 C815 1.386 . S
H813 C829 0.930 . S
H814 C830 0.931 . S
C815 H803 0.929 . S
C815 C809 1.390 . S
C815 C812 1.386 . S
C816 C811 1.474 1_556 S
C816 C818 1.396 . S
C816 C819 1.417 . S
H817 C823 0.930 . S
C818 H804 0.930 1_556 S
C818 C816 1.396 . S
C818 C821 1.403 . S
C819 C816 1.417 . S
C819 C820 1.524 . S
C819 C823 1.400 . S
C820 H805 0.960 . S
C820 H806 0.960 . S
C820 H807 0.960 . S
C820 C819 1.524 . S
C821 C818 1.403 . S
C821 C822 1.392 . S
C821 C825 1.495 . S
C822 C821 1.392 . S
C822 C823 1.385 . S
C822 C824 1.478 . S
C823 H817 0.930 . S
C823 C819 1.400 . S
C823 C822 1.385 . S
C824 C822 1.478 . S
C824 C826 1.381 . S
C824 C830 1.383 . S
C825 C821 1.495 . S
C825 H831 0.959 . S
C825 H832 0.961 . S
C825 H833 0.960 . S
C826 C824 1.381 . S
C826 C827 1.394 . S
C826 H834 0.930 . S
C827 C826 1.394 . S
C827 C828 1.383 . S
C827 H835 0.929 . S
C828 C827 1.383 . S
C828 C829 1.377 . S
C829 H813 0.930 . S
C829 C828 1.377 . S
C829 C830 1.379 . S
C830 H814 0.931 . S
C830 C824 1.383 . S
C830 C829 1.379 . S
H831 C825 0.959 . S
H832 C825 0.961 . S
H833 C825 0.960 . S
H834 C826 0.930 . S
H835 C827 0.929 . S
H836 C844 0.929 . S
H837 C846 0.930 . S
H838 C848 0.930 . S
H839 C851 0.929 . S
H840 C854 0.930 . S
H841 C856 0.960 . S
H842 C856 0.960 . S
H843 C856 0.960 . S
C844 H836 0.929 . S
C844 C845 1.377 . S
C844 C846 1.384 . S
C845 C844 1.377 . S
C845 C851 1.390 . S
C846 H837 0.930 . S
C846 C844 1.384 . S
C846 C847 1.372 . S
C847 C846 1.372 . S
C847 C848 1.400 . S
C847 C852 1.490 . S
C848 H838 0.930 . S
C848 C847 1.400 . S
C848 C851 1.386 . S
H849 C865 0.930 . S
H850 C866 0.931 . S
C851 H839 0.929 . S
C851 C845 1.390 . S
C851 C848 1.386 . S
C852 C847 1.490 . S
C852 C854 1.395 . S
C852 C855 1.403 . S
H853 C859 0.930 . S
C854 H840 0.930 . S
C854 C852 1.395 . S
C854 C857 1.403 . S
C855 C852 1.403 . S
C855 C856 1.524 . S
C855 C859 1.400 . S
C856 H841 0.960 . S
C856 H842 0.960 . S
C856 H843 0.960 . S
C856 C855 1.524 . S
C857 C854 1.403 . S
C857 C858 1.392 . S
C857 C861 1.495 . S
C858 C857 1.392 . S
C858 C859 1.385 . S
C858 C860 1.478 . S
C859 H853 0.930 . S
C859 C855 1.400 . S
C859 C858 1.385 . S
C860 C858 1.478 . S
C860 C862 1.381 . S
C860 C866 1.383 . S
C861 C857 1.495 . S
C861 H867 0.959 . S
C861 H868 0.961 . S
C861 H869 0.960 . S
C862 C860 1.381 . S
C862 C863 1.394 . S
C862 H870 0.930 . S
C863 C862 1.394 . S
C863 C864 1.383 . S
C863 H871 0.929 . S
C864 C863 1.383 . S
C864 C865 1.377 . S
C865 H849 0.930 . S
C865 C864 1.377 . S
C865 C866 1.379 . S
C866 H850 0.931 . S
C866 C860 1.383 . S
C866 C865 1.379 . S
H867 C861 0.959 . S
H868 C861 0.961 . S
H869 C861 0.960 . S
H870 C862 0.930 . S
H871 C863 0.929 . S
H872 C880 0.929 . S
H873 C882 0.930 . S
H874 C884 0.930 . S
H875 C887 0.929 . S
H876 C890 0.930 . S
H877 C892 0.960 . S
H878 C892 0.960 . S
H879 C892 0.960 . S
C880 H872 0.929 . S
C880 C881 1.377 . S
C880 C882 1.384 . S
C881 C880 1.377 . S
C881 C887 1.390 . S
C882 H873 0.930 . S
C882 C880 1.384 . S
C882 C883 1.372 . S
C883 C882 1.372 . S
C883 C884 1.400 . S
C883 C888 1.490 1_554 S
C884 H874 0.930 . S
C884 C883 1.400 . S
C884 C887 1.386 . S
H885 C901 0.930 . S
H886 C902 0.931 . S
C887 H875 0.929 . S
C887 C881 1.390 . S
C887 C884 1.386 . S
C888 C883 1.490 1_556 S
C888 C890 1.395 . S
C888 C891 1.403 . S
H889 C895 0.930 . S
C890 H876 0.930 . S
C890 C888 1.395 . S
C890 C893 1.403 . S
C891 C888 1.403 . S
C891 C892 1.524 1_556 S
C891 C895 1.400 . S
C892 H877 0.960 . S
C892 H878 0.960 . S
C892 H879 0.960 . S
C892 C891 1.524 1_554 S
C893 C890 1.403 . S
C893 C894 1.392 . S
C893 C897 1.495 . S
C894 C893 1.392 . S
C894 C895 1.385 . S
C894 C896 1.478 . S
C895 H889 0.930 . S
C895 C891 1.400 . S
C895 C894 1.385 . S
C896 C894 1.478 . S
C896 C898 1.381 . S
C896 C902 1.383 . S
C897 C893 1.495 . S
C897 H903 0.959 . S
C897 H904 0.961 . S
C897 H905 0.960 . S
C898 C896 1.381 . S
C898 C899 1.394 . S
C898 H906 0.930 . S
C899 C898 1.394 . S
C899 C900 1.383 . S
C899 H907 0.929 . S
C900 C899 1.383 . S
C900 C901 1.377 . S
C901 H885 0.930 . S
C901 C900 1.377 . S
C901 C902 1.379 . S
C902 H886 0.931 . S
C902 C896 1.383 . S
C902 C901 1.379 . S
H903 C897 0.959 . S
H904 C897 0.961 . S
H905 C897 0.960 . S
H906 C898 0.930 . S
H907 C899 0.929 . S
H908 C916 0.929 . S
H909 C918 0.930 . S
H910 C920 0.930 . S
H911 C923 0.929 . S
H912 C926 0.930 . S
H913 C928 0.960 . S
H914 C928 0.960 . S
H915 C928 0.960 . S
C916 H908 0.929 . S
C916 C917 1.377 . S
C916 C918 1.384 . S
C917 C916 1.377 . S
C917 C923 1.390 . S
C918 H909 0.930 . S
C918 C916 1.384 . S
C918 C919 1.372 . S
C919 C918 1.372 . S
C919 C920 1.400 . S
C919 C924 1.490 . S
C920 H910 0.930 . S
C920 C919 1.400 . S
C920 C923 1.386 . S
H921 C937 0.930 . S
H922 C938 0.931 . S
C923 H911 0.929 . S
C923 C917 1.390 . S
C923 C920 1.386 . S
C924 C919 1.490 . S
C924 C926 1.395 . S
C924 C927 1.403 . S
H925 C931 0.930 . S
C926 H912 0.930 . S
C926 C924 1.395 . S
C926 C929 1.403 . S
C927 C924 1.403 . S
C927 C928 1.524 . S
C927 C931 1.400 . S
C928 H913 0.960 . S
C928 H914 0.960 . S
C928 H915 0.960 . S
C928 C927 1.524 . S
C929 C926 1.403 . S
C929 C930 1.392 . S
C929 C933 1.495 . S
C930 C929 1.392 . S
C930 C931 1.385 . S
C930 C932 1.478 . S
C931 H925 0.930 . S
C931 C927 1.400 . S
C931 C930 1.385 . S
C932 C930 1.478 . S
C932 C934 1.381 . S
C932 C938 1.383 . S
C933 C929 1.495 . S
C933 H939 0.959 . S
C933 H940 0.961 . S
C933 H941 0.960 . S
C934 C932 1.381 . S
C934 C935 1.394 . S
C934 H942 0.930 . S
C935 C934 1.394 . S
C935 C936 1.383 . S
C935 H943 0.929 . S
C936 C935 1.383 . S
C936 C937 1.377 . S
C937 H921 0.930 . S
C937 C936 1.377 . S
C937 C938 1.379 . S
C938 H922 0.931 . S
C938 C932 1.383 . S
C938 C937 1.379 . S
H939 C933 0.959 . S
H940 C933 0.961 . S
H941 C933 0.960 . S
H942 C934 0.930 . S
H943 C935 0.929 . S
H944 C952 0.929 . S
H945 C954 0.930 . S
H946 C956 0.930 . S
H947 C959 0.929 . S
H948 C962 0.930 1_556 S
H949 C964 0.960 . S
H950 C964 0.960 . S
H951 C964 0.960 . S
C952 H944 0.929 . S
C952 C953 1.377 . S
C952 C954 1.384 . S
C953 C952 1.377 . S
C953 C959 1.390 . S
C954 H945 0.930 . S
C954 C952 1.384 . S
C954 C955 1.372 . S
C955 C954 1.372 . S
C955 C956 1.400 . S
C955 C960 1.479 1_556 S
C956 H946 0.930 . S
C956 C955 1.400 . S
C956 C959 1.386 . S
H957 C973 0.930 . S
H958 C974 0.931 . S
C959 H947 0.929 . S
C959 C953 1.390 . S
C959 C956 1.386 . S
C960 C955 1.479 1_554 S
C960 C962 1.397 . S
C960 C963 1.412 . S
H961 C967 0.930 . S
C962 H948 0.930 1_554 S
C962 C960 1.397 . S
C962 C965 1.403 . S
C963 C960 1.412 . S
C963 C964 1.524 . S
C963 C967 1.400 . S
C964 H949 0.960 . S
C964 H950 0.960 . S
C964 H951 0.960 . S
C964 C963 1.524 . S
C965 C962 1.403 . S
C965 C966 1.392 . S
C965 C969 1.495 . S
C966 C965 1.392 . S
C966 C967 1.385 . S
C966 C968 1.478 . S
C967 H961 0.930 . S
C967 C963 1.400 . S
C967 C966 1.385 . S
C968 C966 1.478 . S
C968 C970 1.381 . S
C968 C974 1.383 . S
C969 C965 1.495 . S
C969 H975 0.959 . S
C969 H976 0.961 . S
C969 H977 0.960 . S
C970 C968 1.381 . S
C970 C971 1.394 . S
C970 H978 0.930 . S
C971 C970 1.394 . S
C971 C972 1.383 . S
C971 H979 0.929 . S
C972 C971 1.383 . S
C972 C973 1.377 . S
C973 H957 0.930 . S
C973 C972 1.377 . S
C973 C974 1.379 . S
C974 H958 0.931 . S
C974 C968 1.383 . S
C974 C973 1.379 . S
H975 C969 0.959 . S
H976 C969 0.961 . S
H977 C969 0.960 . S
H978 C970 0.930 . S
H979 C971 0.929 . S
H980 C988 0.929 . S
H981 C990 0.930 . S
H982 C992 0.930 . S
H983 C995 0.929 . S
H984 C998 0.930 . S
H985 C1000 0.960 . S
H986 C1000 0.960 . S
H987 C1000 0.960 . S
C988 H980 0.929 . S
C988 C989 1.377 . S
C988 C990 1.384 . S
C989 C988 1.377 . S
C989 C995 1.390 . S
C990 H981 0.930 . S
C990 C988 1.384 . S
C990 C991 1.372 . S
C991 C990 1.372 . S
C991 C992 1.400 . S
C991 C996 1.490 . S
C992 H982 0.930 . S
C992 C991 1.400 . S
C992 C995 1.386 . S
H993 C1009 0.930 . S
H994 C1010 0.931 . S
C995 H983 0.929 . S
C995 C989 1.390 . S
C995 C992 1.386 . S
C996 C991 1.490 . S
C996 C998 1.395 . S
C996 C999 1.403 . S
H997 C1003 0.930 . S
C998 H984 0.930 . S
C998 C996 1.395 . S
C998 C1001 1.403 . S
C999 C996 1.403 . S
C999 C1000 1.524 . S
C999 C1003 1.400 . S
C1000 H985 0.960 . S
C1000 H986 0.960 . S
C1000 H987 0.960 . S
C1000 C999 1.524 . S
C1001 C998 1.403 . S
C1001 C1002 1.392 . S
C1001 C1005 1.495 . S
C1002 C1001 1.392 . S
C1002 C1003 1.385 . S
C1002 C1004 1.478 . S
C1003 H997 0.930 . S
C1003 C999 1.400 . S
C1003 C1002 1.385 . S
C1004 C1002 1.478 . S
C1004 C1006 1.381 . S
C1004 C1010 1.383 . S
C1005 C1001 1.495 . S
C1005 H1011 0.959 . S
C1005 H1012 0.961 . S
C1005 H1013 0.960 . S
C1006 C1004 1.381 . S
C1006 C1007 1.394 . S
C1006 H1014 0.930 . S
C1007 C1006 1.394 . S
C1007 C1008 1.383 . S
C1007 H1015 0.929 . S
C1008 C1007 1.383 . S
C1008 C1009 1.377 . S
C1009 H993 0.930 . S
C1009 C1008 1.377 . S
C1009 C1010 1.379 . S
C1010 H994 0.931 . S
C1010 C1004 1.383 . S
C1010 C1009 1.379 . S
H1011 C1005 0.959 . S
H1012 C1005 0.961 . S
H1013 C1005 0.960 . S
H1014 C1006 0.930 . S
H1015 C1007 0.929 . S
H1016 C1024 0.929 . S
H1017 C1026 0.930 . S
H1018 C1028 0.930 . S
H1019 C1031 0.929 . S
H1020 C1034 0.930 . S
H1021 C1036 0.960 . S
H1022 C1036 0.960 . S
H1023 C1036 0.960 . S
C1024 H1016 0.929 . S
C1024 C1025 1.377 . S
C1024 C1026 1.384 . S
C1025 C1024 1.377 . S
C1025 C1031 1.390 . S
C1026 H1017 0.930 . S
C1026 C1024 1.384 . S
C1026 C1027 1.372 . S
C1027 C1026 1.372 . S
C1027 C1028 1.400 . S
C1027 C1032 1.490 . S
C1028 H1018 0.930 . S
C1028 C1027 1.400 . S
C1028 C1031 1.386 . S
H1029 C1045 0.930 . S
H1030 C1046 0.931 . S
C1031 H1019 0.929 . S
C1031 C1025 1.390 . S
C1031 C1028 1.386 . S
C1032 C1027 1.490 . S
C1032 C1034 1.395 . S
C1032 C1035 1.403 . S
H1033 C1039 0.930 . S
C1034 H1020 0.930 . S
C1034 C1032 1.395 . S
C1034 C1037 1.403 . S
C1035 C1032 1.403 . S
C1035 C1036 1.524 . S
C1035 C1039 1.400 . S
C1036 H1021 0.960 . S
C1036 H1022 0.960 . S
C1036 H1023 0.960 . S
C1036 C1035 1.524 . S
C1037 C1034 1.403 . S
C1037 C1038 1.392 . S
C1037 C1041 1.495 . S
C1038 C1037 1.392 . S
C1038 C1039 1.385 . S
C1038 C1040 1.478 . S
C1039 H1033 0.930 . S
C1039 C1035 1.400 . S
C1039 C1038 1.385 . S
C1040 C1038 1.478 . S
C1040 C1042 1.381 . S
C1040 C1046 1.383 . S
C1041 C1037 1.495 . S
C1041 H1047 0.959 . S
C1041 H1048 0.961 . S
C1041 H1049 0.960 . S
C1042 C1040 1.381 . S
C1042 C1043 1.394 . S
C1042 H1050 0.930 . S
C1043 C1042 1.394 . S
C1043 C1044 1.383 . S
C1043 H1051 0.929 . S
C1044 C1043 1.383 . S
C1044 C1045 1.377 . S
C1045 H1029 0.930 . S
C1045 C1044 1.377 . S
C1045 C1046 1.379 . S
C1046 H1030 0.931 . S
C1046 C1040 1.383 . S
C1046 C1045 1.379 . S
H1047 C1041 0.959 . S
H1048 C1041 0.961 . S
H1049 C1041 0.960 . S
H1050 C1042 0.930 . S
H1051 C1043 0.929 . S
H1052 C1060 0.929 . S
H1053 C1062 0.930 . S
H1054 C1064 0.930 . S
H1055 C1067 0.929 . S
H1056 C1070 0.930 . S
H1057 C1072 0.960 . S
H1058 C1072 0.960 . S
H1059 C1072 0.960 . S
C1060 H1052 0.929 . S
C1060 C1061 1.377 . S
C1060 C1062 1.384 . S
C1061 C1060 1.377 . S
C1061 C1067 1.390 . S
C1062 H1053 0.930 . S
C1062 C1060 1.384 . S
C1062 C1063 1.372 . S
C1063 C1062 1.372 . S
C1063 C1064 1.400 . S
C1063 C1068 1.490 . S
C1064 H1054 0.930 . S
C1064 C1063 1.400 . S
C1064 C1067 1.386 . S
H1065 C1081 0.930 . S
H1066 C1082 0.931 . S
C1067 H1055 0.929 . S
C1067 C1061 1.390 . S
C1067 C1064 1.386 . S
C1068 C1063 1.490 . S
C1068 C1070 1.395 . S
C1068 C1071 1.403 . S
H1069 C1075 0.930 . S
C1070 H1056 0.930 . S
C1070 C1068 1.395 . S
C1070 C1073 1.403 . S
C1071 C1068 1.403 . S
C1071 C1072 1.524 . S
C1071 C1075 1.400 . S
C1072 H1057 0.960 . S
C1072 H1058 0.960 . S
C1072 H1059 0.960 . S
C1072 C1071 1.524 . S
C1073 C1070 1.403 . S
C1073 C1074 1.392 . S
C1073 C1077 1.495 . S
C1074 C1073 1.392 . S
C1074 C1075 1.385 . S
C1074 C1076 1.478 . S
C1075 H1069 0.930 . S
C1075 C1071 1.400 . S
C1075 C1074 1.385 . S
C1076 C1074 1.478 . S
C1076 C1078 1.381 . S
C1076 C1082 1.383 . S
C1077 C1073 1.495 . S
C1077 H1083 0.959 . S
C1077 H1084 0.961 . S
C1077 H1085 0.960 . S
C1078 C1076 1.381 . S
C1078 C1079 1.394 . S
C1078 H1086 0.930 . S
C1079 C1078 1.394 . S
C1079 C1080 1.383 . S
C1079 H1087 0.929 . S
C1080 C1079 1.383 . S
C1080 C1081 1.377 . S
C1081 H1065 0.930 . S
C1081 C1080 1.377 . S
C1081 C1082 1.379 . S
C1082 H1066 0.931 . S
C1082 C1076 1.383 . S
C1082 C1081 1.379 . S
H1083 C1077 0.959 . S
H1084 C1077 0.961 . S
H1085 C1077 0.960 . S
H1086 C1078 0.930 . S
H1087 C1079 0.929 . S
H1088 C1096 0.929 . S
H1089 C1098 0.930 . S
H1090 C1100 0.930 . S
H1091 C1103 0.929 . S
H1092 C1106 0.930 . S
H1093 C1108 0.960 . S
H1094 C1108 0.960 . S
H1095 C1108 0.960 . S
C1096 H1088 0.929 . S
C1096 C1097 1.377 . S
C1096 C1098 1.384 . S
C1097 C1096 1.377 . S
C1097 C1103 1.390 . S
C1098 H1089 0.930 . S
C1098 C1096 1.384 . S
C1098 C1099 1.372 . S
C1099 C1098 1.372 . S
C1099 C1100 1.400 . S
C1099 C1104 1.490 . S
C1100 H1090 0.930 . S
C1100 C1099 1.400 . S
C1100 C1103 1.386 . S
H1101 C1117 0.930 . S
H1102 C1118 0.931 . S
C1103 H1091 0.929 . S
C1103 C1097 1.390 . S
C1103 C1100 1.386 . S
C1104 C1099 1.490 . S
C1104 C1106 1.395 . S
C1104 C1107 1.403 . S
H1105 C1111 0.930 . S
C1106 H1092 0.930 . S
C1106 C1104 1.395 . S
C1106 C1109 1.403 . S
C1107 C1104 1.403 . S
C1107 C1108 1.524 . S
C1107 C1111 1.400 . S
C1108 H1093 0.960 . S
C1108 H1094 0.960 . S
C1108 H1095 0.960 . S
C1108 C1107 1.524 . S
C1109 C1106 1.403 . S
C1109 C1110 1.392 . S
C1109 C1113 1.495 . S
C1110 C1109 1.392 . S
C1110 C1111 1.385 . S
C1110 C1112 1.478 . S
C1111 H1105 0.930 . S
C1111 C1107 1.400 . S
C1111 C1110 1.385 . S
C1112 C1110 1.478 . S
C1112 C1114 1.381 . S
C1112 C1118 1.383 . S
C1113 C1109 1.495 . S
C1113 H1119 0.959 . S
C1113 H1120 0.961 . S
C1113 H1121 0.960 . S
C1114 C1112 1.381 . S
C1114 C1115 1.394 . S
C1114 H1122 0.930 . S
C1115 C1114 1.394 . S
C1115 C1116 1.383 . S
C1115 H1123 0.929 . S
C1116 C1115 1.383 . S
C1116 C1117 1.377 . S
C1117 H1101 0.930 . S
C1117 C1116 1.377 . S
C1117 C1118 1.379 . S
C1118 H1102 0.931 . S
C1118 C1112 1.383 . S
C1118 C1117 1.379 . S
H1119 C1113 0.959 . S
H1120 C1113 0.961 . S
H1121 C1113 0.960 . S
H1122 C1114 0.930 . S
H1123 C1115 0.929 . S
H1124 C1132 0.929 . S
H1125 C1134 0.930 . S
H1126 C1136 0.930 . S
H1127 C1139 0.929 . S
H1128 C1142 0.930 . S
H1129 C1144 0.960 . S
H1130 C1144 0.960 . S
H1131 C1144 0.960 . S
C1132 H1124 0.929 . S
C1132 C1133 1.377 . S
C1132 C1134 1.384 . S
C1133 C1132 1.377 . S
C1133 C1139 1.390 . S
C1134 H1125 0.930 . S
C1134 C1132 1.384 . S
C1134 C1135 1.372 . S
C1135 C1134 1.372 . S
C1135 C1136 1.400 . S
C1135 C1140 1.490 . S
C1136 H1126 0.930 . S
C1136 C1135 1.400 . S
C1136 C1139 1.386 . S
H1137 C1153 0.930 . S
H1138 C1154 0.931 . S
C1139 H1127 0.929 . S
C1139 C1133 1.390 . S
C1139 C1136 1.386 . S
C1140 C1135 1.490 . S
C1140 C1142 1.395 . S
C1140 C1143 1.403 . S
H1141 C1147 0.930 . S
C1142 H1128 0.930 . S
C1142 C1140 1.395 . S
C1142 C1145 1.403 . S
C1143 C1140 1.403 . S
C1143 C1144 1.524 . S
C1143 C1147 1.400 . S
C1144 H1129 0.960 . S
C1144 H1130 0.960 . S
C1144 H1131 0.960 . S
C1144 C1143 1.524 . S
C1145 C1142 1.403 . S
C1145 C1146 1.392 . S
C1145 C1149 1.495 . S
C1146 C1145 1.392 . S
C1146 C1147 1.385 . S
C1146 C1148 1.478 . S
C1147 H1141 0.930 . S
C1147 C1143 1.400 . S
C1147 C1146 1.385 . S
C1148 C1146 1.478 . S
C1148 C1150 1.381 . S
C1148 C1154 1.383 . S
C1149 C1145 1.495 . S
C1149 H1155 0.959 . S
C1149 H1156 0.961 . S
C1149 H1157 0.960 . S
C1150 C1148 1.381 . S
C1150 C1151 1.394 . S
C1150 H1158 0.930 . S
C1151 C1150 1.394 . S
C1151 C1152 1.383 . S
C1151 H1159 0.929 . S
C1152 C1151 1.383 . S
C1152 C1153 1.377 . S
C1153 H1137 0.930 . S
C1153 C1152 1.377 . S
C1153 C1154 1.379 . S
C1154 H1138 0.931 . S
C1154 C1148 1.383 . S
C1154 C1153 1.379 . S
H1155 C1149 0.959 . S
H1156 C1149 0.961 . S
H1157 C1149 0.960 . S
H1158 C1150 0.930 . S
H1159 C1151 0.929 . S
H1160 C1168 0.929 . S
H1161 C1170 0.930 . S
H1162 C1172 0.930 . S
H1163 C1175 0.929 . S
H1164 C1178 0.930 . S
H1165 C1180 0.960 . S
H1166 C1180 0.960 . S
H1167 C1180 0.960 . S
C1168 H1160 0.929 . S
C1168 C1169 1.377 . S
C1168 C1170 1.384 . S
C1169 C1168 1.377 . S
C1169 C1175 1.390 . S
C1170 H1161 0.930 . S
C1170 C1168 1.384 . S
C1170 C1171 1.372 . S
C1171 C1170 1.372 . S
C1171 C1172 1.400 . S
C1171 C1176 1.490 . S
C1172 H1162 0.930 . S
C1172 C1171 1.400 . S
C1172 C1175 1.386 . S
H1173 C1189 0.930 . S
H1174 C1190 0.931 . S
C1175 H1163 0.929 . S
C1175 C1169 1.390 . S
C1175 C1172 1.386 . S
C1176 C1171 1.490 . S
C1176 C1178 1.395 . S
C1176 C1179 1.403 . S
H1177 C1183 0.930 . S
C1178 H1164 0.930 . S
C1178 C1176 1.395 . S
C1178 C1181 1.403 . S
C1179 C1176 1.403 . S
C1179 C1180 1.524 . S
C1179 C1183 1.400 . S
C1180 H1165 0.960 . S
C1180 H1166 0.960 . S
C1180 H1167 0.960 . S
C1180 C1179 1.524 . S
C1181 C1178 1.403 . S
C1181 C1182 1.392 . S
C1181 C1185 1.495 . S
C1182 C1181 1.392 . S
C1182 C1183 1.385 . S
C1182 C1184 1.478 . S
C1183 H1177 0.930 . S
C1183 C1179 1.400 . S
C1183 C1182 1.385 . S
C1184 C1182 1.478 . S
C1184 C1186 1.381 . S
C1184 C1190 1.383 . S
C1185 C1181 1.495 . S
C1185 H1191 0.959 . S
C1185 H1192 0.961 . S
C1185 H1193 0.960 . S
C1186 C1184 1.381 . S
C1186 C1187 1.394 . S
C1186 H1194 0.930 . S
C1187 C1186 1.394 . S
C1187 C1188 1.383 . S
C1187 H1195 0.929 . S
C1188 C1187 1.383 . S
C1188 C1189 1.377 . S
C1189 H1173 0.930 . S
C1189 C1188 1.377 . S
C1189 C1190 1.379 . S
C1190 H1174 0.931 . S
C1190 C1184 1.383 . S
C1190 C1189 1.379 . S
H1191 C1185 0.959 . S
H1192 C1185 0.961 . S
H1193 C1185 0.960 . S
H1194 C1186 0.930 . S
H1195 C1187 0.929 . S
H1196 C1204 0.929 . S
H1197 C1206 0.930 . S
H1198 C1208 0.930 . S
H1199 C1211 0.929 . S
H1200 C1214 0.930 . S
H1201 C1216 0.960 . S
H1202 C1216 0.960 . S
H1203 C1216 0.960 . S
C1204 H1196 0.929 . S
C1204 C1205 1.377 . S
C1204 C1206 1.384 . S
C1205 C1204 1.377 . S
C1205 C1211 1.390 . S
C1206 H1197 0.930 . S
C1206 C1204 1.384 . S
C1206 C1207 1.372 . S
C1207 C1206 1.372 . S
C1207 C1208 1.400 . S
C1207 C1212 1.490 . S
C1208 H1198 0.930 . S
C1208 C1207 1.400 . S
C1208 C1211 1.386 . S
H1209 C1225 0.930 . S
H1210 C1226 0.931 . S
C1211 H1199 0.929 . S
C1211 C1205 1.390 . S
C1211 C1208 1.386 . S
C1212 C1207 1.490 . S
C1212 C1214 1.395 . S
C1212 C1215 1.403 . S
H1213 C1219 0.930 . S
C1214 H1200 0.930 . S
C1214 C1212 1.395 . S
C1214 C1217 1.403 . S
C1215 C1212 1.403 . S
C1215 C1216 1.524 . S
C1215 C1219 1.400 . S
C1216 H1201 0.960 . S
C1216 H1202 0.960 . S
C1216 H1203 0.960 . S
C1216 C1215 1.524 . S
C1217 C1214 1.403 . S
C1217 C1218 1.392 . S
C1217 C1221 1.495 . S
C1218 C1217 1.392 . S
C1218 C1219 1.385 . S
C1218 C1220 1.478 . S
C1219 H1213 0.930 . S
C1219 C1215 1.400 . S
C1219 C1218 1.385 . S
C1220 C1218 1.478 . S
C1220 C1222 1.381 . S
C1220 C1226 1.383 . S
C1221 C1217 1.495 . S
C1221 H1227 0.959 . S
C1221 H1228 0.961 . S
C1221 H1229 0.960 . S
C1222 C1220 1.381 . S
C1222 C1223 1.394 . S
C1222 H1230 0.930 . S
C1223 C1222 1.394 . S
C1223 C1224 1.383 . S
C1223 H1231 0.929 . S
C1224 C1223 1.383 . S
C1224 C1225 1.377 . S
C1225 H1209 0.930 . S
C1225 C1224 1.377 . S
C1225 C1226 1.379 . S
C1226 H1210 0.931 . S
C1226 C1220 1.383 . S
C1226 C1225 1.379 . S
H1227 C1221 0.959 . S
H1228 C1221 0.961 . S
H1229 C1221 0.960 . S
H1230 C1222 0.930 . S
H1231 C1223 0.929 . S
H1232 C1240 0.929 . S
H1233 C1242 0.930 . S
H1234 C1244 0.930 . S
H1235 C1247 0.929 . S
H1236 C1250 0.930 . S
H1237 C1252 0.960 . S
H1238 C1252 0.960 . S
H1239 C1252 0.960 . S
C1240 H1232 0.929 . S
C1240 C1241 1.377 . S
C1240 C1242 1.384 . S
C1241 C1240 1.377 . S
C1241 C1247 1.390 . S
C1242 H1233 0.930 . S
C1242 C1240 1.384 . S
C1242 C1243 1.372 . S
C1243 C1242 1.372 . S
C1243 C1244 1.400 . S
C1243 C1248 1.490 . S
C1244 H1234 0.930 . S
C1244 C1243 1.400 . S
C1244 C1247 1.386 . S
H1245 C1261 0.930 . S
H1246 C1262 0.931 . S
C1247 H1235 0.929 . S
C1247 C1241 1.390 . S
C1247 C1244 1.386 . S
C1248 C1243 1.490 . S
C1248 C1250 1.395 . S
C1248 C1251 1.403 . S
H1249 C1255 0.930 . S
C1250 H1236 0.930 . S
C1250 C1248 1.395 . S
C1250 C1253 1.403 . S
C1251 C1248 1.403 . S
C1251 C1252 1.524 . S
C1251 C1255 1.400 . S
C1252 H1237 0.960 . S
C1252 H1238 0.960 . S
C1252 H1239 0.960 . S
C1252 C1251 1.524 . S
C1253 C1250 1.403 . S
C1253 C1254 1.392 . S
C1253 C1257 1.495 . S
C1254 C1253 1.392 . S
C1254 C1255 1.385 . S
C1254 C1256 1.478 . S
C1255 H1249 0.930 . S
C1255 C1251 1.400 . S
C1255 C1254 1.385 . S
C1256 C1254 1.478 . S
C1256 C1258 1.381 . S
C1256 C1262 1.383 . S
C1257 C1253 1.495 . S
C1257 H1263 0.959 . S
C1257 H1264 0.961 . S
C1257 H1265 0.960 . S
C1258 C1256 1.381 . S
C1258 C1259 1.394 . S
C1258 H1266 0.930 . S
C1259 C1258 1.394 . S
C1259 C1260 1.383 . S
C1259 H1267 0.929 . S
C1260 C1259 1.383 . S
C1260 C1261 1.377 . S
C1261 H1245 0.930 . S
C1261 C1260 1.377 . S
C1261 C1262 1.379 . S
C1262 H1246 0.931 . S
C1262 C1256 1.383 . S
C1262 C1261 1.379 . S
H1263 C1257 0.959 . S
H1264 C1257 0.961 . S
H1265 C1257 0.960 . S
H1266 C1258 0.930 . S
H1267 C1259 0.929 . S
H1268 C1276 0.929 . S
H1269 C1278 0.930 . S
H1270 C1280 0.930 . S
H1271 C1283 0.929 . S
H1272 C1286 0.930 . S
H1273 C1288 0.960 . S
H1274 C1288 0.960 . S
H1275 C1288 0.960 . S
C1276 H1268 0.929 . S
C1276 C1277 1.377 . S
C1276 C1278 1.384 . S
C1277 C1276 1.377 . S
C1277 C1283 1.390 . S
C1278 H1269 0.930 . S
C1278 C1276 1.384 . S
C1278 C1279 1.372 . S
C1279 C1278 1.372 . S
C1279 C1280 1.400 . S
C1279 C1284 1.490 . S
C1280 H1270 0.930 . S
C1280 C1279 1.400 . S
C1280 C1283 1.386 . S
H1281 C1297 0.930 . S
H1282 C1298 0.931 . S
C1283 H1271 0.929 . S
C1283 C1277 1.390 . S
C1283 C1280 1.386 . S
C1284 C1279 1.490 . S
C1284 C1286 1.395 . S
C1284 C1287 1.403 . S
H1285 C1291 0.930 . S
C1286 H1272 0.930 . S
C1286 C1284 1.395 . S
C1286 C1289 1.403 . S
C1287 C1284 1.403 . S
C1287 C1288 1.524 . S
C1287 C1291 1.400 . S
C1288 H1273 0.960 . S
C1288 H1274 0.960 . S
C1288 H1275 0.960 . S
C1288 C1287 1.524 . S
C1289 C1286 1.403 . S
C1289 C1290 1.392 . S
C1289 C1293 1.495 . S
C1290 C1289 1.392 . S
C1290 C1291 1.385 . S
C1290 C1292 1.478 . S
C1291 H1285 0.930 . S
C1291 C1287 1.400 . S
C1291 C1290 1.385 . S
C1292 C1290 1.478 . S
C1292 C1294 1.381 . S
C1292 C1298 1.383 . S
C1293 C1289 1.495 . S
C1293 H1299 0.959 . S
C1293 H1300 0.961 . S
C1293 H1301 0.960 . S
C1294 C1292 1.381 . S
C1294 C1295 1.394 . S
C1294 H1302 0.930 . S
C1295 C1294 1.394 . S
C1295 C1296 1.383 . S
C1295 H1303 0.929 . S
C1296 C1295 1.383 . S
C1296 C1297 1.377 . S
C1297 H1281 0.930 . S
C1297 C1296 1.377 . S
C1297 C1298 1.379 . S
C1298 H1282 0.931 . S
C1298 C1292 1.383 . S
C1298 C1297 1.379 . S
H1299 C1293 0.959 . S
H1300 C1293 0.961 . S
H1301 C1293 0.960 . S
H1302 C1294 0.930 . S
H1303 C1295 0.929 . S
C449 N83 1.655 . S
C468 C178 1.664 . S
C504 C262 1.638 . S
C485 N96 1.659 . S
C540 C255 1.666 . S
C521 N57 1.645 . S
C557 N70 1.652 . S
C576 C171 1.662 . S
C612 C335 1.650 . S
C593 N31 1.663 . S
C648 C419 1.661 . S
C629 N44 1.661 . S
C665 N5 1.647 . S
C684 C412 1.659 . S
C701 N18 1.647 . S
C720 C328 1.659 . S
C756 C162 1.469 . S
C737 N14 1.630 . S
C792 C246 1.433 . S
C773 N1 1.631 . S
C828 C257 1.463 . S
C809 N40 1.634 . S
C864 C173 1.463 . S
C845 N27 1.634 . S
C900 C341 1.436 . S
C881 N66 1.618 . S
C917 N53 1.618 . S
C936 C425 1.436 . S
C972 C414 1.426 . S
C953 N92 1.630 . S
C989 N79 1.630 . S
C1008 C330 1.442 . S
C1044 C160 1.558 . S
C1025 N2 1.568 . S
C1080 C244 1.569 . S
C1061 N15 1.569 . S
C1097 N28 1.566 . S
C1116 C251 1.544 . S
C1152 C167 1.518 . S
C1133 N41 1.566 . S
C1188 C339 1.560 . S
C1169 N54 1.565 . S
C1205 N67 1.566 . S
C1224 C423 1.559 . S
C1241 N80 1.560 . S
C1260 C430 1.537 . S
C1277 N93 1.561 . S
C1296 C346 1.544 . S
