# Generated by pormake.
# Topology ptr, (4,4)-cn, num edge types: 1
# Building blocks:
#     Node 0, Type 0, BuildingBlock: QUQFOY_clean_sbu_3, # of connection points: 4
#     Node 1, Type 0, BuildingBlock: QUQFOY_clean_sbu_3, # of connection points: 4
#     Node 2, Type 0, BuildingBlock: QUQFOY_clean_sbu_3, # of connection points: 4
#     Node 3, Type 0, BuildingBlock: QUQFOY_clean_sbu_3, # of connection points: 4
#     Node 4, Type 0, BuildingBlock: QUQFOY_clean_sbu_3, # of connection points: 4
#     Node 5, Type 0, BuildingBlock: QUQFOY_clean_sbu_3, # of connection points: 4
#     Node 6, Type 0, BuildingBlock: QUQFOY_clean_sbu_3, # of connection points: 4
#     Node 7, Type 0, BuildingBlock: QUQFOY_clean_sbu_3, # of connection points: 4
#     Node 8, Type 0, BuildingBlock: QUQFOY_clean_sbu_3, # of connection points: 4
#     Node 9, Type 0, BuildingBlock: QUQFOY_clean_sbu_3, # of connection points: 4
#     Node 10, Type 0, BuildingBlock: QUQFOY_clean_sbu_3, # of connection points: 4
#     Node 11, Type 0, BuildingBlock: QUQFOY_clean_sbu_3, # of connection points: 4
#     Node 12, Type 0, BuildingBlock: QUQFOY_clean_sbu_3, # of connection points: 4
#     Node 13, Type 0, BuildingBlock: QUQFOY_clean_sbu_3, # of connection points: 4
#     Node 14, Type 0, BuildingBlock: QUQFOY_clean_sbu_3, # of connection points: 4
#     Node 15, Type 0, BuildingBlock: QUQFOY_clean_sbu_3, # of connection points: 4
#     Node 16, Type 0, BuildingBlock: QUQFOY_clean_sbu_3, # of connection points: 4
#     Node 17, Type 0, BuildingBlock: QUQFOY_clean_sbu_3, # of connection points: 4
#     Node 18, Type 1, BuildingBlock: AZAVOO_clean_linker_0, # of connection points: 4
#     Node 19, Type 1, BuildingBlock: AZAVOO_clean_linker_0, # of connection points: 4
#     Node 20, Type 1, BuildingBlock: AZAVOO_clean_linker_0, # of connection points: 4
#     Node 21, Type 1, BuildingBlock: AZAVOO_clean_linker_0, # of connection points: 4
#     Node 22, Type 1, BuildingBlock: AZAVOO_clean_linker_0, # of connection points: 4
#     Node 23, Type 1, BuildingBlock: AZAVOO_clean_linker_0, # of connection points: 4
#     Node 24, Type 1, BuildingBlock: AZAVOO_clean_linker_0, # of connection points: 4
#     Node 25, Type 1, BuildingBlock: AZAVOO_clean_linker_0, # of connection points: 4
#     Node 26, Type 1, BuildingBlock: AZAVOO_clean_linker_0, # of connection points: 4
#     Node 27, Type 1, BuildingBlock: AZAVOO_clean_linker_0, # of connection points: 4
#     Node 28, Type 1, BuildingBlock: AZAVOO_clean_linker_0, # of connection points: 4
#     Node 29, Type 1, BuildingBlock: AZAVOO_clean_linker_0, # of connection points: 4
#     Node 30, Type 1, BuildingBlock: AZAVOO_clean_linker_0, # of connection points: 4
#     Node 31, Type 1, BuildingBlock: AZAVOO_clean_linker_0, # of connection points: 4
#     Node 32, Type 1, BuildingBlock: AZAVOO_clean_linker_0, # of connection points: 4
#     Node 33, Type 1, BuildingBlock: AZAVOO_clean_linker_0, # of connection points: 4
#     Node 34, Type 1, BuildingBlock: AZAVOO_clean_linker_0, # of connection points: 4
#     Node 35, Type 1, BuildingBlock: AZAVOO_clean_linker_0, # of connection points: 4
#     Edge 36, Type (0, 1), None
#     Edge 37, Type (0, 1), None
#     Edge 38, Type (0, 1), None
#     Edge 39, Type (0, 1), None
#     Edge 40, Type (0, 1), None
#     Edge 41, Type (0, 1), None
#     Edge 42, Type (0, 1), None
#     Edge 43, Type (0, 1), None
#     Edge 44, Type (0, 1), None
#     Edge 45, Type (0, 1), None
#     Edge 46, Type (0, 1), None
#     Edge 47, Type (0, 1), None
#     Edge 48, Type (0, 1), None
#     Edge 49, Type (0, 1), None
#     Edge 50, Type (0, 1), None
#     Edge 51, Type (0, 1), None
#     Edge 52, Type (0, 1), None
#     Edge 53, Type (0, 1), None
#     Edge 54, Type (0, 1), None
#     Edge 55, Type (0, 1), None
#     Edge 56, Type (0, 1), None
#     Edge 57, Type (0, 1), None
#     Edge 58, Type (0, 1), None
#     Edge 59, Type (0, 1), None
#     Edge 60, Type (0, 1), None
#     Edge 61, Type (0, 1), None
#     Edge 62, Type (0, 1), None
#     Edge 63, Type (0, 1), None
#     Edge 64, Type (0, 1), None
#     Edge 65, Type (0, 1), None
#     Edge 66, Type (0, 1), None
#     Edge 67, Type (0, 1), None
#     Edge 68, Type (0, 1), None
#     Edge 69, Type (0, 1), None
#     Edge 70, Type (0, 1), None
#     Edge 71, Type (0, 1), None
#     Edge 72, Type (0, 1), None
#     Edge 73, Type (0, 1), None
#     Edge 74, Type (0, 1), None
#     Edge 75, Type (0, 1), None
#     Edge 76, Type (0, 1), None
#     Edge 77, Type (0, 1), None
#     Edge 78, Type (0, 1), None
#     Edge 79, Type (0, 1), None
#     Edge 80, Type (0, 1), None
#     Edge 81, Type (0, 1), None
#     Edge 82, Type (0, 1), None
#     Edge 83, Type (0, 1), None
#     Edge 84, Type (0, 1), None
#     Edge 85, Type (0, 1), None
#     Edge 86, Type (0, 1), None
#     Edge 87, Type (0, 1), None
#     Edge 88, Type (0, 1), None
#     Edge 89, Type (0, 1), None
#     Edge 90, Type (0, 1), None
#     Edge 91, Type (0, 1), None
#     Edge 92, Type (0, 1), None
#     Edge 93, Type (0, 1), None
#     Edge 94, Type (0, 1), None
#     Edge 95, Type (0, 1), None
#     Edge 96, Type (0, 1), None
#     Edge 97, Type (0, 1), None
#     Edge 98, Type (0, 1), None
#     Edge 99, Type (0, 1), None
#     Edge 100, Type (0, 1), None
#     Edge 101, Type (0, 1), None
#     Edge 102, Type (0, 1), None
#     Edge 103, Type (0, 1), None
#     Edge 104, Type (0, 1), None
#     Edge 105, Type (0, 1), None
#     Edge 106, Type (0, 1), None
#     Edge 107, Type (0, 1), None
# Relax obj value: 0.069
# Max RMSD: 0.179
# Mean RMSD: 0.119
data_MOF--net-ptr--node1-QUQFOY_clean_sbu_3--node2-AZAVOO_clean_linker_0--edge1-none
_symmetry_space_group_name_H-M    P1
_symmetry_Int_Tables_number       1
_symmetry_cell_setting            triclinic
loop_
_symmetry_equiv_pos_as_xyz
'x, y, z'
_cell_length_a     45.446888
_cell_length_b     44.926661
_cell_length_c     37.753149
_cell_angle_alpha  94.305045
_cell_angle_beta   93.055096
_cell_angle_gamma 120.46388
loop_
_atom_site_label
_atom_site_type_symbol
_atom_site_fract_x
_atom_site_fract_y
_atom_site_fract_z
_atom_type_partial_charge
C0 C 0.91672 0.28483 0.00265 0.0
O1 O 0.89993 0.29965 0.00998 0.0
Cd2 Cd 0.92429 0.35847 0.03431 0.0
O3 O 0.94918 0.30092 0.01013 0.0
Cd4 Cd -0.00531 0.35847 0.04101 0.0
C5 C 0.98294 0.39759 0.97331 0.0
O6 O 0.96068 0.36504 0.08539 0.0
O7 O 0.01018 0.41037 0.08171 0.0
O8 O 0.01185 0.32282 0.07137 0.0
C9 C 0.98334 0.3959 0.09767 0.0
O10 O 0.95537 0.39056 0.9868 0.0
C11 C 0.04375 0.34222 0.06941 0.0
O12 O 0.00299 0.38834 0.98678 0.0
O13 O 0.05298 0.36884 0.05303 0.0
C14 C 0.61248 0.68384 0.08419 0.0
O15 O 0.58135 0.67279 0.07339 0.0
Cd16 Cd 0.54322 0.61433 0.04864 0.0
O17 O 0.6251 0.66447 0.07933 0.0
Cd18 Cd 0.60715 0.60667 0.04888 0.0
C19 C 0.558 0.57266 0.11457 0.0
O20 O 0.56855 0.60367 -0.00088 0.0
O21 O 0.56684 0.55587 0.00812 0.0
O22 O 0.65984 0.6422 0.02308 0.0
C23 C 0.55859 0.57236 0.98791 0.0
O24 O 0.53921 0.58206 0.09866 0.0
C25 C 0.6705 0.62108 0.0236 0.0
O26 O 0.58603 0.57841 0.10296 0.0
O27 O 0.65241 0.59335 0.03774 0.0
C28 C 0.31852 0.92078 0.03934 0.0
O29 O 0.32989 0.90267 0.02493 0.0
Cd30 Cd 0.38487 0.93165 0.00085 0.0
O31 O 0.33514 0.9536 0.04046 0.0
Cd32 Cd 0.38578 0.0035 0.02401 0.0
C33 C 0.43127 0.98248 0.07964 0.0
O34 O 0.38619 0.97531 0.96654 0.0
O35 O 0.42776 0.02836 0.98183 0.0
O36 O 0.34027 0.01493 0.01442 0.0
C37 C 0.41358 0.00148 0.95906 0.0
O38 O 0.42287 0.95677 0.05627 0.0
C39 C 0.35737 0.04665 0.02738 0.0
O40 O 0.42094 0.00365 0.0751 0.0
O41 O 0.38873 0.05904 0.03883 0.0
C42 C 0.90766 0.58887 0.01979 0.0
O43 O 0.89121 0.55757 0.02669 0.0
Cd44 Cd 0.9176 0.53117 0.0588 0.0
O45 O 0.93914 0.6086 0.03141 0.0
Cd46 Cd 0.98433 0.60542 0.06629 0.0
C47 C 0.97784 0.54602 0.00158 0.0
O48 O 0.95249 0.56873 0.11198 0.0
O49 O 0.00487 0.58114 0.10905 0.0
O50 O 0.00515 0.66527 0.09097 0.0
C51 C 0.97785 0.56677 0.12469 0.0
O52 O 0.95039 0.52399 0.01363 0.0
C53 C 0.03534 0.67634 0.08237 0.0
O54 O -0.00542 0.57762 0.01519 0.0
O55 O 0.04143 0.65425 0.0669 0.0
C56 C 0.30171 0.36595 0.03076 0.0
O57 O 0.2934 0.3679 -0.00107 0.0
Cd58 Cd 0.35101 0.41685 -0.00647 0.0
O59 O 0.33322 0.37906 0.04086 0.0
Cd60 Cd 0.36815 0.38338 0.99005 0.0
C61 C 0.41115 0.43158 0.05929 0.0
O62 O 0.37288 0.41811 0.93808 0.0
O63 O 0.41536 0.41134 0.95578 0.0
O64 O 0.32431 0.32456 0.96461 0.0
C65 C 0.40189 0.42157 0.93307 0.0
O66 O 0.39145 0.44246 0.04921 0.0
C67 C 0.34357 0.31235 0.9714 0.0
O68 O 0.41083 0.40717 0.03991 0.0
O69 O 0.37406 0.33361 0.98524 0.0
C70 C 0.67729 0.03905 0.02407 0.0
O71 O 0.68592 0.04868 0.05716 0.0
Cd72 Cd 0.62866 0.03684 0.06833 0.0
O73 O 0.64565 0.02049 0.01335 0.0
Cd74 Cd 0.61053 -0.01235 0.06129 0.0
C75 C 0.569 -0.00126 -0.00106 0.0
O76 O 0.60505 0.01477 0.12077 0.0
O77 O 0.56468 0.96238 0.09872 0.0
O78 O 0.65963 0.98435 0.08286 0.0
C79 C 0.57761 -0.01341 0.12465 0.0
O80 O 0.58906 0.02848 0.01636 0.0
C81 C 0.64537 0.95176 0.0744 0.0
O82 O 0.56868 0.97239 0.00955 0.0
O83 O 0.61463 0.93574 0.0594 0.0
C84 C 0.58231 0.63458 0.32891 0.0
O85 O 0.56781 0.65206 0.3346 0.0
Cd86 Cd 0.59531 0.71031 0.3606 0.0
O87 O 0.61419 0.64764 0.33859 0.0
Cd88 Cd 0.66182 0.70335 0.37084 0.0
C89 C 0.65702 0.74541 0.30216 0.0
O90 O 0.62574 0.7087 0.41294 0.0
O91 O 0.677 0.75296 0.41559 0.0
O92 O 0.67793 0.66545 0.39896 0.0
C93 C 0.64871 0.7378 0.42898 0.0
O94 O 0.62934 0.74061 0.31375 0.0
C95 C 0.70999 0.68567 0.39867 0.0
O96 O 0.67476 0.73449 0.31753 0.0
O97 O 0.71946 0.71332 0.38415 0.0
C98 C 0.27321 0.00196 0.42706 0.0
O99 O 0.24153 -0.00973 0.41863 0.0
Cd100 Cd 0.20405 0.93164 0.39482 0.0
O101 O 0.28619 0.9832 0.42007 0.0
Cd102 Cd 0.26855 0.92581 0.38899 0.0
C103 C 0.22638 0.8933 0.45882 0.0
O104 O 0.22833 0.92439 0.34251 0.0
O105 O 0.22748 0.87627 0.34677 0.0
O106 O 0.32076 0.96258 0.36318 0.0
C107 C 0.21879 0.89386 0.32879 0.0
O108 O 0.2061 0.90211 0.44528 0.0
C109 C 0.33103 0.9411 0.36141 0.0
O110 O 0.25263 0.89816 0.44383 0.0
O111 O 0.31288 0.91255 0.37414 0.0
C112 C 0.98407 0.24608 0.37104 0.0
O113 O -0.0046 0.22715 0.35872 0.0
Cd114 Cd 0.04947 0.25307 0.33297 0.0
O115 O 0.00065 0.27866 0.3699 0.0
Cd116 Cd 0.05176 0.32626 0.35093 0.0
C117 C 0.09954 0.30866 0.40779 0.0
O118 O 0.0483 0.29334 0.2951 0.0
O119 O 0.09037 0.34671 0.30488 0.0
O120 O 0.00849 0.3412 0.34257 0.0
C121 C 0.07474 0.31822 0.28449 0.0
O122 O 0.09007 0.28127 0.38651 0.0
C123 C 0.02779 0.37321 0.35379 0.0
O124 O 0.08898 0.32931 0.40152 0.0
O125 O 0.05912 0.38391 0.36363 0.0
C126 C 0.57268 0.9158 0.35067 0.0
O127 O 0.55775 0.88378 0.35501 0.0
Cd128 Cd 0.58503 0.85874 0.38804 0.0
O129 O 0.60319 0.93677 0.36475 0.0
Cd130 Cd 0.64855 0.93475 0.40058 0.0
C131 C 0.64956 0.87933 0.33578 0.0
O132 O 0.61438 0.89581 0.44355 0.0
O133 O 0.66821 0.91217 0.44634 0.0
O134 O 0.66849 -0.00522 0.42454 0.0
C135 C 0.6398 0.89579 0.45924 0.0
O136 O 0.62176 0.8552 0.34529 0.0
C137 C 0.6989 0.00574 0.41664 0.0
O138 O 0.66357 0.91026 0.35089 0.0
O139 O 0.7053 0.9835 0.40224 0.0
C140 C 0.9795 0.72493 0.3711 0.0
O141 O -0.00593 0.757 0.36716 0.0
Cd142 Cd 0.04733 0.78528 0.34006 0.0
O143 O -0.00817 0.70682 0.35943 0.0
Cd144 Cd 0.04098 0.71499 0.32964 0.0
C145 C 0.09177 0.76871 0.40213 0.0
O146 O 0.0453 0.75332 0.28408 0.0
O147 O 0.08599 0.74179 0.29227 0.0
O148 O 0.00031 0.65707 0.30051 0.0
C149 C 0.07222 0.75483 0.27385 0.0
O150 O 0.0877 0.79197 0.38941 0.0
C151 C 0.0193 0.64496 0.30878 0.0
O152 O 0.07681 0.738 0.3861 0.0
O153 O 0.0484 0.66578 0.3261 0.0
C154 C 0.3338 0.381 0.35572 0.0
O155 O 0.32271 0.39917 0.37054 0.0
Cd156 Cd 0.27103 0.37115 0.4005 0.0
O157 O 0.31983 0.34894 0.3592 0.0
Cd158 Cd 0.27499 0.30375 0.3885 0.0
C159 C 0.22202 0.31107 0.32829 0.0
O160 O 0.27394 0.33571 0.44386 0.0
O161 O 0.2325 0.28221 0.43041 0.0
O162 O 0.3239 0.29959 0.40752 0.0
C163 C 0.24717 0.30953 0.45262 0.0
O164 O 0.22935 0.33808 0.34911 0.0
C165 C 0.30946 0.26701 0.39916 0.0
O166 O 0.23544 0.29288 0.33522 0.0
O167 O 0.27844 0.25109 0.38496 0.0
C168 C 0.24867 0.95894 0.6733 0.0
O169 O 0.23269 0.97511 0.67752 0.0
Cd170 Cd 0.25717 0.03412 0.70031 0.0
O171 O 0.28085 0.97408 0.68263 0.0
Cd172 Cd 0.32572 0.03274 0.7124 0.0
C173 C 0.31809 0.0711 0.64171 0.0
O174 O 0.28926 0.03837 0.75427 0.0
O175 O 0.33902 0.08406 0.75325 0.0
O176 O 0.34612 0.00012 0.74439 0.0
C177 C 0.31156 0.06879 0.76805 0.0
O178 O 0.29003 0.0653 0.65314 0.0
C179 C 0.37771 0.02174 0.74303 0.0
O180 O 0.33667 0.06137 0.65755 0.0
O181 O 0.385 0.04763 0.72613 0.0
C182 C 0.93878 0.32851 0.75726 0.0
O183 O 0.90684 0.31451 0.74804 0.0
Cd184 Cd 0.87279 0.25648 0.72161 0.0
O185 O 0.95453 0.31256 0.74979 0.0
Cd186 Cd 0.94257 0.25749 0.71718 0.0
C187 C 0.89934 0.22072 0.78523 0.0
O188 O 0.90137 0.25448 0.67127 0.0
O189 O 0.90385 0.2079 0.67337 0.0
O190 O -0.00531 0.29766 0.69261 0.0
C191 C 0.89315 0.22463 0.65668 0.0
O192 O 0.87773 0.22759 0.7712 0.0
C193 C 0.00679 0.27771 0.69074 0.0
O194 O 0.92673 0.22807 0.77117 0.0
O195 O -0.01023 0.24866 0.70293 0.0
C196 C 0.65514 0.58155 0.70192 0.0
O197 O 0.66698 0.56335 0.68886 0.0
Cd198 Cd 0.72131 0.5925 0.6639 0.0
O199 O 0.67117 0.61421 0.70155 0.0
Cd200 Cd 0.72064 0.66415 0.68403 0.0
C201 C 0.76871 0.64691 0.74074 0.0
O202 O 0.71772 0.6327 0.62761 0.0
O203 O 0.75847 0.6867 0.63761 0.0
O204 O 0.67416 0.67455 0.67693 0.0
C205 C 0.74326 0.65843 0.61683 0.0
O206 O 0.76009 0.62017 0.7188 0.0
C207 C 0.69165 0.70674 0.68795 0.0
O208 O 0.75795 0.66747 0.73472 0.0
O209 O 0.72352 0.7197 0.69727 0.0
C210 C 0.24505 0.25397 0.6829 0.0
O211 O 0.22845 0.22218 0.68816 0.0
Cd212 Cd 0.25359 0.19522 0.72105 0.0
O213 O 0.27599 0.27366 0.69639 0.0
Cd214 Cd 0.31955 0.26926 0.73289 0.0
C215 C 0.31725 0.21224 0.66807 0.0
O216 O 0.28405 0.23199 0.77633 0.0
O217 O 0.33698 0.24505 0.77874 0.0
O218 O 0.34046 0.32944 0.75634 0.0
C219 C 0.30863 0.23054 0.79203 0.0
O220 O 0.2888 0.18946 0.67777 0.0
C221 C 0.37111 0.3397 0.74984 0.0
O222 O 0.33314 0.24327 0.6832 0.0
O223 O 0.37731 0.31699 0.73632 0.0
C224 C 0.64806 0.06126 0.70523 0.0
O225 O 0.66442 0.09325 0.70076 0.0
Cd226 Cd 0.71607 0.11789 0.67053 0.0
O227 O 0.65766 0.04104 0.69252 0.0
Cd228 Cd 0.70383 0.04466 0.65997 0.0
C229 C 0.76025 0.09827 0.72956 0.0
O230 O 0.70965 0.08358 0.61453 0.0
O231 O 0.74744 0.06786 0.62043 0.0
O232 O 0.66075 -0.01346 0.63265 0.0
C233 C 0.73524 0.08299 0.60315 0.0
O234 O 0.75761 0.12256 0.71738 0.0
C235 C 0.67873 0.97351 0.64178 0.0
O236 O 0.74258 0.06731 0.71429 0.0
O237 O 0.70828 -0.00605 0.65834 0.0
C238 C -0.00268 0.71188 0.69114 0.0
O239 O -0.01246 0.73155 0.70516 0.0
Cd240 Cd 0.9344 0.70556 0.73289 0.0
O241 O 0.98082 0.67959 0.69376 0.0
Cd242 Cd 0.93211 0.63553 0.71971 0.0
C243 C 0.88482 0.64987 0.65856 0.0
O244 O 0.93343 0.66794 0.77608 0.0
O245 O 0.8897 0.61574 0.7618 0.0
O246 O 0.97842 0.62723 0.73759 0.0
C247 C 0.90599 0.64247 0.78468 0.0
O248 O 0.8934 0.67683 0.6801 0.0
C249 C 0.96219 0.59457 0.72921 0.0
O250 O 0.8956 0.62944 0.66546 0.0
O251 O 0.93117 0.58032 0.71538 0.0
H252 H 0.17534 0.36819 0.92527 0.0
H253 H 0.28824 0.24241 0.21949 0.0
H254 H 0.15424 0.37411 0.11365 0.0
H255 H 0.11267 0.38633 0.08489 0.0
H256 H 0.03143 0.28132 0.09334 0.0
H257 H 0.07359 0.26891 0.12097 0.0
H258 H 0.20665 0.37294 0.07862 0.0
H259 H 0.20143 0.38107 0.01573 0.0
H260 H 0.1151 0.27573 -0.00587 0.0
H261 H 0.12088 0.26782 0.05705 0.0
H262 H 0.25986 0.36881 0.13863 0.0
H263 H 0.30472 0.39218 0.09836 0.0
H264 H 0.24167 0.30373 0.01956 0.0
H265 H 0.19765 0.27887 0.06115 0.0
H266 H 0.2519 0.3545 0.20773 0.0
H267 H 0.29756 0.34923 0.23813 0.0
H268 H 0.25829 0.24892 0.17644 0.0
H269 H 0.21249 0.25433 0.14699 0.0
H270 H 0.18815 0.35281 0.23666 0.0
H271 H 0.20706 0.35563 0.29854 0.0
H272 H 0.19471 0.25375 0.2774 0.0
H273 H 0.17298 0.25008 0.21522 0.0
H274 H 0.14286 0.36311 0.19323 0.0
H275 H 0.11351 0.36849 0.24361 0.0
H276 H 0.06647 0.25831 0.25043 0.0
H277 H 0.09669 0.25326 0.20042 0.0
O278 O 0.17686 0.36447 0.95006 0.0
O279 O 0.13237 0.31027 0.94047 0.0
O280 O 0.33336 0.32088 0.24691 0.0
O281 O 0.3076 0.26436 0.23005 0.0
C282 C 0.14322 0.31258 0.13277 0.0
C283 C 0.16783 0.31433 0.11036 0.0
C284 C 0.19613 0.31218 0.12437 0.0
C285 C 0.19859 0.30604 0.16025 0.0
C286 C 0.17317 0.30283 0.18241 0.0
C287 C 0.14569 0.30654 0.16868 0.0
C288 C 0.11698 0.32051 0.11905 0.0
C289 C 0.12746 0.3537 0.10918 0.0
C290 C 0.10374 0.36061 0.09264 0.0
C291 C 0.06889 0.33466 0.08644 0.0
C292 C 0.05819 0.30176 0.09757 0.0
C293 C 0.08212 0.29468 0.11356 0.0
C294 C 0.16436 0.31967 0.07228 0.0
C295 C 0.18674 0.35161 0.06022 0.0
C296 C 0.18364 0.3562 0.0243 0.0
C297 C 0.15791 0.329 -0.00013 0.0
C298 C 0.13525 0.29717 0.01221 0.0
C299 C 0.13846 0.29259 0.04812 0.0
C300 C 0.22551 0.322 0.10296 0.0
C301 C 0.25622 0.35368 0.11334 0.0
C302 C 0.28153 0.36731 0.09013 0.0
C303 C 0.27604 0.34998 0.05582 0.0
C304 C 0.24601 0.31767 0.04581 0.0
C305 C 0.22116 0.30337 0.06959 0.0
C306 C 0.22868 0.30462 0.17543 0.0
C307 C 0.25331 0.33145 0.20081 0.0
C308 C 0.2793 0.32829 0.21824 0.0
C309 C 0.28128 0.29824 0.2106 0.0
C310 C 0.25719 0.27197 0.18411 0.0
C311 C 0.2312 0.2752 0.16667 0.0
C312 C 0.17863 0.30107 0.22133 0.0
C313 C 0.18769 0.33027 0.24561 0.0
C314 C 0.19894 0.33194 0.28111 0.0
C315 C 0.2027 0.30498 0.29299 0.0
C316 C 0.1921 0.27493 0.26911 0.0
C317 C 0.17973 0.27282 0.23362 0.0
C318 C 0.12193 0.30782 0.19329 0.0
C319 C 0.12548 0.33997 0.20494 0.0
C320 C 0.10904 0.34307 0.23392 0.0
C321 C 0.0882 0.31389 0.25111 0.0
C322 C 0.08249 0.28118 0.23762 0.0
C323 C 0.09957 0.27823 0.20907 0.0
C324 C 0.15482 0.33388 0.96167 0.0
C325 C 0.30886 0.2951 0.23007 0.0
H326 H 0.7037 0.80767 0.93284 0.0
H327 H 0.73128 0.06123 0.25802 0.0
H328 H 0.62771 0.78927 0.13064 0.0
H329 H 0.59244 0.72999 0.102 0.0
H330 H 0.68154 0.71851 0.10711 0.0
H331 H 0.71695 0.77876 0.13614 0.0
H332 H 0.65388 0.81435 0.07092 0.0
H333 H 0.66461 0.80589 0.00949 0.0
H334 H 0.77393 0.8676 0.04103 0.0
H335 H 0.76285 0.87568 0.10268 0.0
H336 H 0.64116 0.85272 0.1051 0.0
H337 H 0.6163 0.88221 0.07548 0.0
H338 H 0.71313 0.97922 0.09832 0.0
H339 H 0.73852 0.94882 0.12667 0.0
H340 H 0.64711 0.89638 0.18228 0.0
H341 H 0.64639 0.9484 0.20542 0.0
H342 H 0.75655 0.00285 0.23156 0.0
H343 H 0.75684 0.95066 0.20815 0.0
H344 H 0.63311 0.83157 0.21928 0.0
H345 H 0.61246 0.83599 0.27652 0.0
H346 H 0.71657 0.90965 0.32175 0.0
H347 H 0.73748 0.90304 0.26446 0.0
H348 H 0.63126 0.77695 0.19681 0.0
H349 H 0.61549 0.74129 0.2457 0.0
H350 H 0.72234 0.79034 0.28639 0.0
H351 H 0.73811 0.82683 0.23719 0.0
O352 O 0.70005 0.81146 0.95739 0.0
O353 O 0.75602 0.84373 0.9749 0.0
O354 O 0.67434 0.01147 0.23384 0.0
O355 O 0.73084 0.04039 0.2485 0.0
C356 C 0.69453 0.82445 0.15178 0.0
C357 C 0.70189 0.85053 0.12929 0.0
C358 C 0.70283 0.88119 0.14247 0.0
C359 C 0.70244 0.88838 0.17947 0.0
C360 C 0.69797 0.86344 0.20253 0.0
C361 C 0.6944 0.83152 0.18878 0.0
C362 C 0.67475 0.78807 0.1353 0.0
C363 C 0.63958 0.77386 0.12563 0.0
C364 C 0.6195 0.74002 0.10923 0.0
C365 C 0.63419 0.71957 0.10219 0.0
C366 C 0.66953 0.73373 0.11223 0.0
C367 C 0.68979 0.76797 0.12875 0.0
C368 C 0.70761 0.84539 0.0915 0.0
C369 C 0.68014 0.82588 0.06474 0.0
C370 C 0.68634 0.82116 0.0295 0.0
C371 C 0.72014 0.83597 0.02033 0.0
C372 C 0.74759 0.85576 0.04718 0.0
C373 C 0.74132 0.86043 0.08241 0.0
C374 C 0.69187 0.89847 0.11748 0.0
C375 C 0.65763 0.87997 0.10202 0.0
C376 C 0.64327 0.89696 0.0855 0.0
C377 C 0.66263 0.93303 0.08498 0.0
C378 C 0.69757 0.95134 0.09853 0.0
C379 C 0.71219 0.93408 0.11453 0.0
C380 C 0.70205 0.91992 0.19348 0.0
C381 C 0.67103 0.91962 0.19297 0.0
C382 C 0.67071 0.94934 0.20621 0.0
C383 C 0.70144 0.97981 0.22034 0.0
C384 C 0.73245 0.97986 0.22086 0.0
C385 C 0.73271 0.95013 0.20753 0.0
C386 C 0.68682 0.86625 0.23812 0.0
C387 C 0.65161 0.84767 0.24191 0.0
C388 C 0.63986 0.8502 0.27455 0.0
C389 C 0.66301 0.87271 0.30356 0.0
C390 C 0.69834 0.89175 0.29975 0.0
C391 C 0.71026 0.88819 0.26721 0.0
C392 C 0.68593 0.80423 0.21299 0.0
C393 C 0.65149 0.77919 0.21529 0.0
C394 C 0.64245 0.7592 0.24366 0.0
C395 C 0.6677 0.76339 0.26999 0.0
C396 C 0.70242 0.78662 0.26637 0.0
C397 C 0.71144 0.80726 0.23823 0.0
C398 C 0.72663 0.83072 0.9829 0.0
C399 C 0.70125 0.01142 0.23458 0.0
H400 H 0.12163 0.8033 0.90473 0.0
H401 H 0.35822 0.00962 0.28122 0.0
H402 H 0.07525 0.79268 0.12003 0.0
H403 H 0.02866 0.73218 0.10319 0.0
H404 H 0.10362 0.7031 0.08059 0.0
H405 H 0.14959 0.76272 0.09874 0.0
H406 H 0.12964 0.84638 0.05679 0.0
H407 H 0.1196 0.83181 0.99182 0.0
H408 H 0.18813 0.79159 -0.00277 0.0
H409 H 0.19757 0.80587 0.06215 0.0
H410 H 0.22069 0.91627 0.07576 0.0
H411 H 0.26989 0.93881 0.04026 0.0
H412 H 0.29803 0.86828 0.08086 0.0
H413 H 0.24957 0.84677 0.11715 0.0
H414 H 0.22484 0.94371 0.156 0.0
H415 H 0.27196 -0.0059 0.19347 0.0
H416 H 0.30551 0.92775 0.23483 0.0
H417 H 0.25853 0.87768 0.19685 0.0
H418 H 0.1801 0.90965 0.21947 0.0
H419 H 0.1964 0.92512 0.28413 0.0
H420 H 0.20981 0.83669 0.28807 0.0
H421 H 0.1946 0.82225 0.22364 0.0
H422 H 0.10371 0.83922 0.19648 0.0
H423 H 0.07099 0.80831 0.2449 0.0
H424 H 0.10721 0.73643 0.23044 0.0
H425 H 0.13894 0.76672 0.18185 0.0
O426 O 0.1259 0.80877 0.93046 0.0
O427 O 0.16143 0.78852 0.93468 0.0
O428 O 0.32338 0.0238 0.24137 0.0
O429 O 0.34009 -0.00968 0.26531 0.0
C430 C 0.14437 0.817 0.12494 0.0
C431 C 0.17049 0.83684 0.10353 0.0
C432 C 0.20196 0.86542 0.11966 0.0
C433 C 0.20612 0.87616 0.15653 0.0
C434 C 0.17952 0.85701 0.17767 0.0
C435 C 0.14875 0.82734 0.16198 0.0
C436 C 0.11572 0.78213 0.11005 0.0
C437 C 0.08142 0.77322 0.11098 0.0
C438 C 0.05497 0.73875 0.10158 0.0
C439 C 0.06262 0.71303 0.09073 0.0
C440 C 0.09694 0.72238 0.08869 0.0
C441 C 0.12324 0.75653 0.09865 0.0
C442 C 0.16467 0.82763 0.06413 0.0
C443 C 0.14247 0.83445 0.04386 0.0
C444 C 0.1368 0.82611 0.00677 0.0
C445 C 0.15318 0.81068 0.98929 0.0
C446 C 0.17524 0.80363 0.0098 0.0
C447 C 0.18085 0.81195 0.04689 0.0
C448 C 0.23197 0.88026 0.09913 0.0
C449 C 0.2376 0.90589 0.07702 0.0
C450 C 0.26533 0.91834 0.05659 0.0
C451 C 0.28721 0.90473 0.05752 0.0
C452 C 0.2811 0.87862 0.07923 0.0
C453 C 0.25387 0.86678 0.10026 0.0
C454 C 0.23837 0.90715 0.1737 0.0
C455 C 0.24288 0.94029 0.17255 0.0
C456 C 0.26955 0.96893 0.1943 0.0
C457 C 0.29212 0.96482 0.21762 0.0
C458 C 0.28835 0.93174 0.2175 0.0
C459 C 0.26178 0.90318 0.19558 0.0
C460 C 0.1861 0.86482 0.21707 0.0
C461 C 0.18619 0.8935 0.23451 0.0
C462 C 0.19537 0.90216 0.27134 0.0
C463 C 0.20432 0.88205 0.29112 0.0
C464 C 0.20281 0.85253 0.27364 0.0
C465 C 0.1941 0.84421 0.23687 0.0
C466 C 0.12349 0.80502 0.18565 0.0
C467 C 0.1036 0.81612 0.20312 0.0
C468 C 0.08511 0.79861 0.23074 0.0
C469 C 0.08705 0.77038 0.24157 0.0
C470 C 0.10561 0.75837 0.22278 0.0
C471 C 0.12342 0.77537 0.19482 0.0
C472 C 0.14717 0.80194 0.94986 0.0
C473 C 0.3194 -0.00518 0.24209 0.0
H474 H 0.2649 0.19475 0.15803 0.0
H475 H 0.35287 0.97392 0.89385 0.0
H476 H 0.25846 0.1963 0.93971 0.0
H477 H 0.27809 0.25872 0.94867 0.0
H478 H 0.38115 0.28169 0.98006 0.0
H479 H 0.36148 0.22008 0.97071 0.0
H480 H 0.24409 0.1358 0.00886 0.0
H481 H 0.24223 0.15509 0.07067 0.0
H482 H 0.35306 0.209 0.08759 0.0
H483 H 0.35456 0.18994 0.02571 0.0
H484 H 0.26467 0.05805 -0.00311 0.0
H485 H 0.28957 0.02592 0.02162 0.0
H486 H 0.39105 0.11643 0.02487 0.0
H487 H 0.36616 0.14767 -0.00121 0.0
H488 H 0.24919 0.03651 0.92016 0.0
H489 H 0.25688 -0.01334 0.90783 0.0
H490 H 0.36666 0.05676 0.91342 0.0
H491 H 0.35852 0.10626 0.92563 0.0
H492 H 0.2455 0.06925 0.85752 0.0
H493 H 0.25235 0.04594 0.79973 0.0
H494 H 0.35943 0.12699 0.81095 0.0
H495 H 0.35248 0.14937 0.86894 0.0
H496 H 0.24393 0.14789 0.86634 0.0
H497 H 0.24913 0.18081 0.81543 0.0
H498 H 0.35942 0.23905 0.84036 0.0
H499 H 0.35388 0.20672 0.89126 0.0
O500 O 0.2662 0.18767 0.13359 0.0
O501 O 0.32268 0.21024 0.14237 0.0
O502 O 0.29276 0.958 0.89887 0.0
O503 O 0.3491 -0.00691 0.8989 0.0
C504 C 0.29858 0.16721 0.94739 0.0
C505 C 0.29981 0.14876 0.97549 0.0
C506 C 0.30151 0.11857 0.96781 0.0
C507 C 0.29871 0.10504 0.93194 0.0
C508 C 0.29567 0.12257 0.90387 0.0
C509 C 0.29603 0.15391 0.91156 0.0
C510 C 0.30846 0.20388 0.95552 0.0
C511 C 0.28512 0.21498 0.94893 0.0
C512 C 0.29642 0.25048 0.95373 0.0
C513 C 0.33114 0.27498 0.96501 0.0
C514 C 0.35424 0.26349 0.97147 0.0
C515 C 0.343 0.22829 0.9666 0.0
C516 C 0.2994 0.16111 0.01292 0.0
C517 C 0.26793 0.1518 0.02598 0.0
C518 C 0.26694 0.16286 0.06128 0.0
C519 C 0.29749 0.18342 0.08414 0.0
C520 C 0.32904 0.19298 0.07078 0.0
C521 C 0.32997 0.18201 0.03544 0.0
C522 C 0.31359 0.10515 -0.00387 0.0
C523 C 0.29207 0.07144 0.00469 0.0
C524 C 0.30638 0.05309 0.01848 0.0
C525 C 0.34226 0.06862 0.02438 0.0
C526 C 0.36335 0.10392 0.02055 0.0
C527 C 0.34908 0.12198 0.00608 0.0
C528 C 0.30329 0.07485 0.92379 0.0
C529 C 0.27482 0.04096 0.9186 0.0
C530 C 0.27932 0.01259 0.91164 0.0
C531 C 0.31241 0.01774 0.90965 0.0
C532 C 0.34085 0.05187 0.91473 0.0
C533 C 0.33629 0.08017 0.92168 0.0
C534 C 0.29837 0.1112 0.86702 0.0
C535 C 0.27022 0.08221 0.8471 0.0
C536 C 0.27424 0.06895 0.81426 0.0
C537 C 0.30646 0.08469 0.80091 0.0
C538 C 0.33428 0.11448 0.82044 0.0
C539 C 0.33032 0.12742 0.85342 0.0
C540 C 0.29854 0.17502 0.88231 0.0
C541 C 0.26909 0.16808 0.86092 0.0
C542 C 0.27211 0.18686 0.832 0.0
C543 C 0.30469 0.2123 0.82389 0.0
C544 C 0.33401 0.21945 0.84584 0.0
C545 C 0.33092 0.20113 0.87495 0.0
C546 C 0.29636 0.19467 0.12178 0.0
C547 C 0.31736 -0.01226 0.90219 0.0
H548 H 0.81152 0.14683 0.15023 0.0
H549 H 0.64127 0.92778 0.77837 0.0
H550 H 0.81617 0.18491 0.95592 0.0
H551 H 0.84797 0.24391 0.9854 0.0
H552 H 0.94275 0.24359 0.98043 0.0
H553 H 0.90992 0.18332 0.95079 0.0
H554 H 0.77972 0.13769 -0.00376 0.0
H555 H 0.78592 0.14447 0.06153 0.0
H556 H 0.86533 0.11834 0.06106 0.0
H557 H 0.85862 0.11129 -0.00433 0.0
H558 H 0.72647 0.09292 0.92652 0.0
H559 H 0.68104 0.07184 0.96618 0.0
H560 H 0.73038 0.02735 0.0248 0.0
H561 H 0.77477 0.04623 0.98318 0.0
H562 H 0.72992 0.0902 0.85998 0.0
H563 H 0.6814 0.04531 0.81913 0.0
H564 H 0.71324 0.97199 0.84045 0.0
H565 H 0.76178 0.01727 0.88141 0.0
H566 H 0.79375 0.15338 0.84429 0.0
H567 H 0.77604 0.15036 0.78173 0.0
H568 H 0.78434 0.05938 0.7582 0.0
H569 H 0.80464 0.06421 0.82122 0.0
H570 H 0.84686 0.20257 0.88823 0.0
H571 H 0.87268 0.23705 0.84007 0.0
H572 H 0.90871 0.16847 0.80537 0.0
H573 H 0.88257 0.13359 0.85421 0.0
O574 O 0.80963 0.14423 0.12438 0.0
O575 O 0.85063 0.13109 0.12266 0.0
O576 O 0.64596 0.98516 0.78357 0.0
O577 O 0.65982 0.94572 0.79508 0.0
C578 C 0.83958 0.14402 0.933 0.0
C579 C 0.8143 0.11844 0.95145 0.0
C580 C 0.78433 0.08997 0.93225 0.0
C581 C 0.78134 0.08552 0.89453 0.0
C582 C 0.80798 0.10983 0.87619 0.0
C583 C 0.8375 0.13874 0.89544 0.0
C584 C 0.86071 0.17971 0.95175 0.0
C585 C 0.84378 0.19735 0.96164 0.0
C586 C 0.86209 0.23124 0.9783 0.0
C587 C 0.89795 0.24853 0.98533 0.0
C588 C 0.91509 0.23088 0.9754 0.0
C589 C 0.89651 0.19657 0.95857 0.0
C590 C 0.81838 0.12349 0.99121 0.0
C591 C 0.79832 0.13327 0.01026 0.0
C592 C 0.80198 0.13721 0.04759 0.0
C593 C 0.82601 0.13178 0.06654 0.0
C594 C 0.84649 0.12258 0.0473 0.0
C595 C 0.84274 0.11857 0.00997 0.0
C596 C 0.75364 0.07051 0.95141 0.0
C597 C 0.7267 0.07715 0.94673 0.0
C598 C 0.70118 0.0658 0.9698 0.0
C599 C 0.70289 0.0487 -0.00139 0.0
C600 C 0.72906 0.04096 0.00283 0.0
C601 C 0.75401 0.05127 0.97891 0.0
C602 C 0.74933 0.05696 0.87373 0.0
C603 C 0.72612 0.0643 0.85618 0.0
C604 C 0.69859 0.03869 0.83262 0.0
C605 C 0.69372 0.00517 0.82615 0.0
C606 C 0.71644 -0.00239 0.84462 0.0
C607 C 0.74398 0.02331 0.86828 0.0
C608 C 0.80121 0.10948 0.8372 0.0
C609 C 0.79345 0.13383 0.82541 0.0
C610 C 0.78313 0.13194 0.78959 0.0
C611 C 0.77891 0.1047 0.76504 0.0
C612 C 0.78762 0.0808 0.77659 0.0
C613 C 0.79905 0.08339 0.81246 0.0
C614 C 0.86301 0.16564 0.87508 0.0
C615 C 0.86193 0.19594 0.87172 0.0
C616 C 0.87614 0.21527 0.84367 0.0
C617 C 0.89205 0.20491 0.81878 0.0
C618 C 0.89652 0.17686 0.82429 0.0
C619 C 0.88183 0.15714 0.85226 0.0
C620 C 0.82962 0.13566 0.10619 0.0
C621 C 0.66505 0.97819 0.80031 0.0
H622 H 0.83641 0.65824 0.161 0.0
H623 H 0.64528 0.63407 0.77748 0.0
H624 H 0.89687 0.67836 0.97886 0.0
H625 H 0.92709 0.65672 0.0148 0.0
H626 H 0.85039 0.55121 0.97241 0.0
H627 H 0.821 0.57316 0.93616 0.0
H628 H 0.83715 0.69246 0.01445 0.0
H629 H 0.84145 0.68859 0.07866 0.0
H630 H 0.7925 0.57678 0.05706 0.0
H631 H 0.78812 0.58105 -0.00704 0.0
H632 H 0.76925 0.69267 0.97162 0.0
H633 H 0.72155 0.68294 0.00617 0.0
H634 H 0.68739 0.57351 -0.00048 0.0
H635 H 0.73454 0.58335 0.96423 0.0
H636 H 0.77814 0.70695 0.90399 0.0
H637 H 0.73763 0.71221 0.86334 0.0
H638 H 0.68476 0.60158 0.82984 0.0
H639 H 0.72541 0.59674 0.87064 0.0
H640 H 0.8209 0.7065 0.85309 0.0
H641 H 0.80318 0.70495 0.79005 0.0
H642 H 0.7717 0.59615 0.77248 0.0
H643 H 0.78723 0.59748 0.83541 0.0
H644 H 0.88962 0.7008 0.88121 0.0
H645 H 0.91945 0.69982 0.82925 0.0
H646 H 0.86323 0.58755 0.81889 0.0
H647 H 0.83422 0.58881 0.8712 0.0
O648 O 0.83442 0.65916 0.1355 0.0
O649 O 0.80933 0.60179 0.12298 0.0
O650 O 0.68844 0.68912 0.81332 0.0
O651 O 0.66072 0.63245 0.79482 0.0
C652 C 0.83472 0.63901 0.93923 0.0
C653 C 0.81035 0.64001 0.96029 0.0
C654 C 0.78399 0.64419 0.94463 0.0
C655 C 0.78329 0.64963 0.90839 0.0
C656 C 0.80885 0.65062 0.88783 0.0
C657 C 0.83457 0.64522 0.90318 0.0
C658 C 0.8572 0.62733 0.9545 0.0
C659 C 0.88734 0.6507 0.97657 0.0
C660 C 0.90421 0.63824 -0.00264 0.0
C661 C 0.89071 0.60222 -0.00316 0.0
C662 C 0.86113 0.57904 0.97375 0.0
C663 C 0.84468 0.59154 0.95256 0.0
C664 C 0.81262 0.63709 -0.00086 0.0
C665 C 0.8274 0.66718 0.02369 0.0
C666 C 0.82982 0.66488 0.06032 0.0
C667 C 0.81741 0.63238 0.07301 0.0
C668 C 0.80242 0.60222 0.04821 0.0
C669 C 0.79998 0.60458 0.01158 0.0
C670 C 0.75516 0.63869 0.96527 0.0
C671 C 0.75136 0.66663 0.97752 0.0
C672 C 0.72434 0.66104 -0.00252 0.0
C673 C 0.70093 0.62748 0.00572 0.0
C674 C 0.70525 0.59969 -0.00605 0.0
C675 C 0.73198 0.60523 0.97362 0.0
C676 C 0.75449 0.65144 0.89045 0.0
C677 C 0.7572 0.68376 0.88861 0.0
C678 C 0.73433 0.68675 0.86498 0.0
C679 C 0.70832 0.65739 0.84288 0.0
C680 C 0.70469 0.62475 0.84619 0.0
C681 C 0.72758 0.62182 0.86981 0.0
C682 C 0.80532 0.65209 0.84876 0.0
C683 C 0.81077 0.68258 0.83534 0.0
C684 C 0.80075 0.68167 0.7994 0.0
C685 C 0.78601 0.65042 0.77634 0.0
C686 C 0.78325 0.62072 0.7894 0.0
C687 C 0.79226 0.62142 0.8254 0.0
C688 C 0.85994 0.64488 0.8802 0.0
C689 C 0.88492 0.67607 0.86866 0.0
C690 C 0.90164 0.67546 0.83876 0.0
C691 C 0.89308 0.6436 0.81962 0.0
C692 C 0.86998 0.61249 0.83286 0.0
C693 C 0.85379 0.61315 0.86312 0.0
C694 C 0.82008 0.63004 0.11195 0.0
C695 C 0.68533 0.66076 0.81616 0.0
H696 H 0.83571 0.70397 0.25142 0.0
H697 H 0.95829 0.59897 0.56257 0.0
H698 H 0.82022 0.7193 0.44511 0.0
H699 H 0.77824 0.73077 0.41632 0.0
H700 H 0.69856 0.62411 0.42058 0.0
H701 H 0.74136 0.61251 0.44844 0.0
H702 H 0.86778 0.72027 0.4063 0.0
H703 H 0.86109 0.72394 0.34235 0.0
H704 H 0.7879 0.61334 0.32487 0.0
H705 H 0.79518 0.60998 0.38887 0.0
H706 H 0.91824 0.7298 0.46332 0.0
H707 H 0.96496 0.75696 0.42551 0.0
H708 H 0.92914 0.65658 0.36598 0.0
H709 H 0.88174 0.62977 0.40343 0.0
H710 H 0.92099 0.70834 0.537 0.0
H711 H 0.9665 0.7056 0.57146 0.0
H712 H 0.93012 0.60316 0.51616 0.0
H713 H 0.88478 0.60629 0.48241 0.0
H714 H 0.85499 0.69743 0.56924 0.0
H715 H 0.87161 0.69673 0.63111 0.0
H716 H 0.85945 0.5955 0.60443 0.0
H717 H 0.8405 0.5956 0.5423 0.0
H718 H 0.80869 0.70699 0.5247 0.0
H719 H 0.78007 0.71028 0.57664 0.0
H720 H 0.73498 0.59976 0.57975 0.0
H721 H 0.76446 0.59683 0.52817 0.0
O722 O 0.83796 0.70196 0.27664 0.0
O723 O 0.8003 0.64507 0.26915 0.0
O724 O 0.0019 0.67812 0.58705 0.0
O725 O 0.97712 0.62131 0.57301 0.0
C726 C 0.81074 0.6581 0.46254 0.0
C727 C 0.83655 0.66204 0.44084 0.0
C728 C 0.86632 0.66337 0.45589 0.0
C729 C 0.86853 0.65652 0.49142 0.0
C730 C 0.8416 0.65003 0.51262 0.0
C731 C 0.81319 0.65198 0.49845 0.0
C732 C 0.7839 0.66498 0.44847 0.0
C733 C 0.79372 0.69834 0.43969 0.0
C734 C 0.76973 0.70482 0.42314 0.0
C735 C 0.73521 0.67822 0.41575 0.0
C736 C 0.72508 0.64504 0.42572 0.0
C737 C 0.74935 0.63841 0.44182 0.0
C738 C 0.83229 0.66477 0.40212 0.0
C739 C 0.85057 0.69682 0.38858 0.0
C740 C 0.84656 0.69886 0.35205 0.0
C741 C 0.82404 0.6689 0.32845 0.0
C742 C 0.80552 0.63689 0.34226 0.0
C743 C 0.80961 0.6349 0.37879 0.0
C744 C 0.89699 0.67783 0.43625 0.0
C745 C 0.92076 0.71367 0.44232 0.0
C746 C 0.94698 0.72921 0.42036 0.0
C747 C 0.95022 0.70895 0.39246 0.0
C748 C 0.92694 0.67281 0.38712 0.0
C749 C 0.90022 0.65739 0.40867 0.0
C750 C 0.8996 0.65746 0.50734 0.0
C751 C 0.92331 0.68558 0.53207 0.0
C752 C 0.94908 0.68379 0.55193 0.0
C753 C 0.95156 0.65376 0.5475 0.0
C754 C 0.92859 0.62629 0.52139 0.0
C755 C 0.90293 0.62822 0.50143 0.0
C756 C 0.84609 0.64643 0.55119 0.0
C757 C 0.85432 0.67437 0.57693 0.0
C758 C 0.86417 0.67399 0.6124 0.0
C759 C 0.86715 0.6461 0.62283 0.0
C760 C 0.85739 0.61733 0.59734 0.0
C761 C 0.84664 0.61739 0.56184 0.0
C762 C 0.78863 0.65168 0.52279 0.0
C763 C 0.79175 0.68331 0.53588 0.0
C764 C 0.77579 0.68522 0.56577 0.0
C765 C 0.75592 0.65538 0.58248 0.0
C766 C 0.75034 0.62315 0.5674 0.0
C767 C 0.7669 0.62137 0.53788 0.0
C768 C 0.81995 0.67111 0.28963 0.0
C769 C 0.97826 0.65171 0.57015 0.0
H770 H 0.36221 0.10445 0.27231 0.0
H771 H 0.40041 0.3884 0.57463 0.0
H772 H 0.28919 0.10757 0.4736 0.0
H773 H 0.25316 0.04747 0.44766 0.0
H774 H 0.34304 0.03762 0.44546 0.0
H775 H 0.37916 0.09855 0.4722 0.0
H776 H 0.31551 0.12576 0.40794 0.0
H777 H 0.32486 0.11097 0.34779 0.0
H778 H 0.43448 0.17741 0.37496 0.0
H779 H 0.4248 0.19174 0.4354 0.0
H780 H 0.30498 0.16949 0.43473 0.0
H781 H 0.28027 0.19763 0.40223 0.0
H782 H 0.37745 0.29459 0.42156 0.0
H783 H 0.40264 0.26556 0.45289 0.0
H784 H 0.31279 0.22121 0.50639 0.0
H785 H 0.3139 0.27532 0.5244 0.0
H786 H 0.42302 0.32644 0.55621 0.0
H787 H 0.42152 0.2722 0.53782 0.0
H788 H 0.29727 0.16326 0.55145 0.0
H789 H 0.27804 0.17144 0.60847 0.0
H790 H 0.38362 0.23655 0.65397 0.0
H791 H 0.40283 0.22615 0.59687 0.0
H792 H 0.29261 0.10633 0.53858 0.0
H793 H 0.2763 0.0719 0.58838 0.0
H794 H 0.38322 0.1113 0.62244 0.0
H795 H 0.39953 0.1465 0.57218 0.0
O796 O 0.3591 0.11094 0.29625 0.0
O797 O 0.41518 0.14633 0.31119 0.0
O798 O 0.3433 0.33948 0.54952 0.0
O799 O 0.39926 0.36675 0.56706 0.0
C800 C 0.35689 0.14415 0.48865 0.0
C801 C 0.36465 0.16814 0.46355 0.0
C802 C 0.36632 0.19983 0.47344 0.0
C803 C 0.36645 0.21015 0.5098 0.0
C804 C 0.36166 0.18726 0.53547 0.0
C805 C 0.35695 0.15419 0.52494 0.0
C806 C 0.33656 0.10698 0.47516 0.0
C807 C 0.301 0.09217 0.46813 0.0
C808 C 0.2805 0.05793 0.45305 0.0
C809 C 0.29524 0.03782 0.44445 0.0
C810 C 0.331 0.05257 0.4519 0.0
C811 C 0.35164 0.08717 0.46719 0.0
C812 C 0.36952 0.15953 0.42634 0.0
C813 C 0.34155 0.13696 0.4011 0.0
C814 C 0.34696 0.12862 0.36658 0.0
C815 C 0.38043 0.14286 0.35658 0.0
C816 C 0.40836 0.16588 0.38181 0.0
C817 C 0.4029 0.17414 0.41633 0.0
C818 C 0.35578 0.21536 0.44587 0.0
C819 C 0.32159 0.19631 0.43021 0.0
C820 C 0.3073 0.21254 0.41197 0.0
C821 C 0.32675 0.24835 0.40986 0.0
C822 C 0.3618 0.2669 0.42303 0.0
C823 C 0.37631 0.25041 0.44077 0.0
C824 C 0.36714 0.24298 0.52058 0.0
C825 C 0.3369 0.24419 0.51713 0.0
C826 C 0.33762 0.27509 0.52748 0.0
C827 C 0.36859 0.30524 0.54172 0.0
C828 C 0.39878 0.30375 0.54531 0.0
C829 C 0.39802 0.27284 0.53483 0.0
C830 C 0.35136 0.19347 0.57045 0.0
C831 C 0.31626 0.17851 0.57402 0.0
C832 C 0.30532 0.18309 0.60654 0.0
C833 C 0.32939 0.20406 0.63563 0.0
C834 C 0.36467 0.21983 0.63191 0.0
C835 C 0.37564 0.21414 0.59949 0.0
C836 C 0.34728 0.12869 0.55142 0.0
C837 C 0.31258 0.1069 0.55606 0.0
C838 C 0.30331 0.08755 0.58489 0.0
C839 C 0.32852 0.08918 0.60949 0.0
C840 C 0.36327 0.10954 0.60383 0.0
C841 C 0.3726 0.12949 0.57513 0.0
C842 C 0.38609 0.1336 0.32002 0.0
C843 C 0.36948 0.3381 0.55294 0.0
H844 H 0.78132 0.12977 0.23537 0.0
H845 H 0.02811 0.3363 0.60622 0.0
H846 H 0.73914 0.12274 0.4514 0.0
H847 H 0.69234 0.06198 0.43638 0.0
H848 H 0.76695 0.03229 0.41403 0.0
H849 H 0.81299 0.09207 0.43029 0.0
H850 H 0.7938 0.17661 0.38719 0.0
H851 H 0.78212 0.16075 0.32239 0.0
H852 H 0.84785 0.11722 0.32713 0.0
H853 H 0.85897 0.13283 0.39187 0.0
H854 H 0.88807 0.24637 0.40661 0.0
H855 H 0.93814 0.26783 0.37249 0.0
H856 H 0.95987 0.19202 0.41088 0.0
H857 H 0.91048 0.17151 0.44565 0.0
H858 H 0.89005 0.27303 0.48769 0.0
H859 H 0.93883 0.32278 0.52415 0.0
H860 H 0.97317 0.25501 0.55959 0.0
H861 H 0.92444 0.20557 0.52269 0.0
H862 H 0.84698 0.239 0.55131 0.0
H863 H 0.86757 0.25522 0.61508 0.0
H864 H 0.88123 0.16667 0.61501 0.0
H865 H 0.86136 0.15126 0.55136 0.0
H866 H 0.76934 0.16971 0.52815 0.0
H867 H 0.73571 0.13797 0.5757 0.0
H868 H 0.77073 0.06519 0.55976 0.0
H869 H 0.8035 0.09646 0.5122 0.0
O870 O 0.78636 0.1359 0.261 0.0
O871 O 0.81976 0.11312 0.26501 0.0
O872 O -0.00808 0.35143 0.56988 0.0
O873 O 0.00929 0.31725 0.59072 0.0
C874 C 0.80824 0.14675 0.45547 0.0
C875 C 0.83411 0.16598 0.43353 0.0
C876 C 0.86605 0.19413 0.44916 0.0
C877 C 0.87095 0.20522 0.48599 0.0
C878 C 0.84475 0.18653 0.50769 0.0
C879 C 0.81348 0.15723 0.49256 0.0
C880 C 0.77935 0.11184 0.44123 0.0
C881 C 0.74513 0.10307 0.4427 0.0
C882 C 0.71858 0.06846 0.4344 0.0
C883 C 0.72611 0.0425 0.42421 0.0
C884 C 0.76033 0.05173 0.42167 0.0
C885 C 0.78668 0.08598 0.43046 0.0
C886 C 0.82761 0.15635 0.39418 0.0
C887 C 0.80571 0.16373 0.37415 0.0
C888 C 0.79909 0.15464 0.33715 0.0
C889 C 0.81416 0.13784 0.31954 0.0
C890 C 0.83596 0.13029 0.3398 0.0
C891 C 0.84255 0.1394 0.37679 0.0
C892 C 0.89595 0.2076 0.42852 0.0
C893 C 0.9037 0.23452 0.40756 0.0
C894 C 0.93204 0.24648 0.38804 0.0
C895 C 0.95249 0.23119 0.38886 0.0
C896 C 0.94419 0.2038 0.4094 0.0
C897 C 0.91634 0.1924 0.42948 0.0
C898 C 0.90381 0.23581 0.50257 0.0
C899 C 0.90858 0.26916 0.50273 0.0
C900 C 0.93623 0.29743 0.52389 0.0
C901 C 0.95954 0.29273 0.54529 0.0
C902 C 0.95547 0.25945 0.54377 0.0
C903 C 0.92788 0.23124 0.52247 0.0
C904 C 0.85263 0.19397 0.54697 0.0
C905 C 0.85388 0.22289 0.56534 0.0
C906 C 0.86561 0.23202 0.60166 0.0
C907 C 0.87611 0.21223 0.61993 0.0
C908 C 0.87322 0.18233 0.6017 0.0
C909 C 0.86178 0.17342 0.56541 0.0
C910 C 0.78862 0.13518 0.5167 0.0
C911 C 0.76889 0.14635 0.53439 0.0
C912 C 0.74983 0.1283 0.56147 0.0
C913 C 0.75096 0.09941 0.57153 0.0
C914 C 0.76963 0.08756 0.55268 0.0
C915 C 0.78811 0.10517 0.52534 0.0
C916 C 0.80702 0.12816 0.28024 0.0
C917 C -0.01218 0.3223 0.56932 0.0
H918 H 0.95533 0.54257 0.48596 0.0
H919 H 0.02327 0.30364 0.21283 0.0
H920 H 0.93612 0.52943 0.27222 0.0
H921 H 0.95441 0.5912 0.28545 0.0
H922 H 0.05889 0.61594 0.3111 0.0
H923 H 0.04057 0.55482 0.29706 0.0
H924 H 0.92566 0.47366 0.33986 0.0
H925 H 0.92764 0.49763 0.40094 0.0
H926 H 0.03825 0.54678 0.41263 0.0
H927 H 0.03589 0.52281 0.35153 0.0
H928 H 0.93974 0.39243 0.32504 0.0
H929 H 0.9613 0.35723 0.34912 0.0
H930 H 0.06541 0.44279 0.35025 0.0
H931 H 0.04372 0.47712 0.32496 0.0
H932 H 0.92465 0.37004 0.25031 0.0
H933 H 0.93047 0.31926 0.23609 0.0
H934 H 0.03988 0.38732 0.23478 0.0
H935 H 0.03362 0.43778 0.24904 0.0
H936 H 0.92018 0.40137 0.18793 0.0
H937 H 0.92533 0.37494 0.13118 0.0
H938 H 0.03181 0.45662 0.13662 0.0
H939 H 0.02659 0.48213 0.19364 0.0
H940 H 0.91862 0.48272 0.19996 0.0
H941 H 0.92045 0.51695 0.1513 0.0
H942 H 0.03136 0.57295 0.16685 0.0
H943 H 0.0292 0.53934 0.21564 0.0
O944 O 0.95509 0.5329 0.46208 0.0
O945 O 0.0119 0.55762 0.46672 0.0
O946 O 0.96454 0.2892 0.2234 0.0
O947 O 0.02034 0.32321 0.21905 0.0
C948 C 0.97719 0.50131 0.27593 0.0
C949 C 0.97888 0.48281 0.30375 0.0
C950 C 0.97916 0.45195 0.29549 0.0
C951 C 0.97523 0.43825 0.25946 0.0
C952 C 0.97186 0.45598 0.2317 0.0
C953 C 0.97304 0.48768 0.23992 0.0
C954 C -0.01301 0.53789 0.28446 0.0
C955 C 0.96286 0.54835 0.28076 0.0
C956 C 0.97337 0.58347 0.28813 0.0
C957 C 0.00802 0.60819 0.29946 0.0
C958 C 0.03201 0.59743 0.30273 0.0
C959 C 0.02159 0.56258 0.29497 0.0
C960 C 0.98055 0.4961 0.34144 0.0
C961 C 0.95025 0.48936 0.35579 0.0
C962 C 0.95148 0.50317 0.39065 0.0
C963 C 0.98311 0.5241 0.41171 0.0
C964 C 0.01345 0.53066 0.3972 0.0
C965 C 0.01216 0.5168 0.36236 0.0
C966 C -0.00983 0.43724 0.32332 0.0
C967 C 0.96708 0.4041 0.33221 0.0
C968 C 0.97947 0.38399 0.34561 0.0
C969 C 0.01502 0.39717 0.35071 0.0
C970 C 0.03792 0.43203 0.34647 0.0
C971 C 0.02552 0.45186 0.33245 0.0
C972 C 0.9787 0.40745 0.25067 0.0
C973 C 0.9498 0.37384 0.24692 0.0
C974 C 0.95323 0.34494 0.23885 0.0
C975 C 0.98566 0.34925 0.23426 0.0
C976 C 0.01455 0.38308 0.23806 0.0
C977 C 0.01107 0.41192 0.24619 0.0
C978 C 0.97285 0.4439 0.1945 0.0
C979 C 0.94433 0.4139 0.17636 0.0
C980 C 0.94742 0.39878 0.14416 0.0
C981 C 0.97905 0.41366 0.12965 0.0
C982 C 0.00711 0.44465 0.1471 0.0
C983 C 0.00409 0.45947 0.17946 0.0
C984 C 0.97379 0.50845 0.21096 0.0
C985 C 0.94322 0.50253 0.19284 0.0
C986 C 0.94431 0.52214 0.16527 0.0
C987 C 0.97604 0.54748 0.15525 0.0
C988 C 0.00654 0.55347 0.17384 0.0
C989 C 0.0054 0.53431 0.20164 0.0
C990 C 0.98438 0.53924 0.4485 0.0
C991 C -0.01058 0.31868 0.22532 0.0
H992 H 0.48622 0.50965 0.4815 0.0
H993 H 0.33227 0.27603 0.1547 0.0
H994 H 0.47872 0.54091 0.278 0.0
H995 H 0.51427 0.60011 0.30651 0.0
H996 H 0.60278 0.58762 0.31112 0.0
H997 H 0.56617 0.52743 0.28214 0.0
H998 H 0.44986 0.5012 0.32856 0.0
H999 H 0.45967 0.5097 0.39382 0.0
H1000 H 0.52048 0.4606 0.38907 0.0
H1001 H 0.51026 0.4521 0.32378 0.0
H1002 H 0.39638 0.45943 0.27767 0.0
H1003 H 0.35155 0.43605 0.31814 0.0
H1004 H 0.37808 0.35894 0.33986 0.0
H1005 H 0.42377 0.38338 0.30006 0.0
H1006 H 0.37694 0.42597 0.20201 0.0
H1007 H 0.33018 0.37629 0.16318 0.0
H1008 H 0.3851 0.32127 0.17126 0.0
H1009 H 0.43112 0.37073 0.21017 0.0
H1010 H 0.43202 0.48703 0.17382 0.0
H1011 H 0.41122 0.47761 0.11069 0.0
H1012 H 0.45158 0.40972 0.09032 0.0
H1013 H 0.47252 0.41969 0.15375 0.0
H1014 H 0.4902 0.54415 0.20765 0.0
H1015 H 0.51771 0.57991 0.16055 0.0
H1016 H 0.57105 0.5245 0.14052 0.0
H1017 H 0.54285 0.4883 0.18791 0.0
O1018 O 0.48276 0.50616 0.45565 0.0
O1019 O 0.51407 0.48104 0.45169 0.0
O1020 O 0.30794 0.32065 0.11866 0.0
O1021 O 0.32074 0.28279 0.13765 0.0
C1022 C 0.49675 0.49422 0.26137 0.0
C1023 C 0.47291 0.46991 0.28196 0.0
C1024 C 0.44253 0.44058 0.26501 0.0
C1025 C 0.43791 0.43344 0.22754 0.0
C1026 C 0.46246 0.45713 0.20699 0.0
C1027 C 0.49196 0.48748 0.22384 0.0
C1028 C 0.51995 0.53007 0.27832 0.0
C1029 C 0.5058 0.55096 0.28523 0.0
C1030 C 0.52623 0.58482 0.30148 0.0
C1031 C 0.5614 0.5986 0.31119 0.0
C1032 C 0.57574 0.57765 0.30398 0.0
C1033 C 0.55502 0.54343 0.2875 0.0
C1034 C 0.47924 0.4759 0.32153 0.0
C1035 C 0.46523 0.49225 0.34167 0.0
C1036 C 0.47092 0.4971 0.37895 0.0
C1037 C 0.49082 0.48578 0.39669 0.0
C1038 C 0.505 0.46961 0.37628 0.0
C1039 C 0.49925 0.46474 0.33902 0.0
C1040 C 0.41302 0.42285 0.28589 0.0
C1041 C 0.39228 0.43731 0.29104 0.0
C1042 C 0.36707 0.4243 0.31446 0.0
C1043 C 0.36171 0.39607 0.33249 0.0
C1044 C 0.38189 0.38093 0.32644 0.0
C1045 C 0.40769 0.39452 0.30355 0.0
C1046 C 0.40712 0.40167 0.20921 0.0
C1047 C 0.37832 0.40278 0.196 0.0
C1048 C 0.35188 0.37455 0.17354 0.0
C1049 C 0.35372 0.34464 0.16416 0.0
C1050 C 0.3823 0.34342 0.17835 0.0
C1051 C 0.40872 0.37169 0.20069 0.0
C1052 C 0.45353 0.45385 0.16812 0.0
C1053 C 0.43695 0.47071 0.15548 0.0
C1054 C 0.42521 0.46539 0.11943 0.0
C1055 C 0.42962 0.44282 0.09553 0.0
C1056 C 0.44783 0.42731 0.10808 0.0
C1057 C 0.45967 0.43277 0.14423 0.0
C1058 C 0.51484 0.51394 0.20147 0.0
C1059 C 0.5087 0.54049 0.194 0.0
C1060 C 0.52413 0.56058 0.16675 0.0
C1061 C 0.54622 0.55467 0.14662 0.0
C1062 C 0.5542 0.52962 0.15569 0.0
C1063 C 0.53828 0.5091 0.18279 0.0
C1064 C 0.49667 0.49079 0.4363 0.0
C1065 C 0.32629 0.31541 0.13884 0.0
H1066 H 0.49065 0.96438 0.49496 0.0
H1067 H 0.3072 0.9676 0.11896 0.0
H1068 H 0.55582 0.0038 0.31668 0.0
H1069 H 0.58782 0.98292 0.35073 0.0
H1070 H 0.51799 0.87833 0.30001 0.0
H1071 H 0.48677 0.89965 0.26563 0.0
H1072 H 0.49351 0.01065 0.35375 0.0
H1073 H 0.49629 0.00148 0.41665 0.0
H1074 H 0.45284 0.89149 0.38511 0.0
H1075 H 0.44991 0.90103 0.32235 0.0
H1076 H 0.42977 0.01508 0.311 0.0
H1077 H 0.38206 0.0039 0.34609 0.0
H1078 H 0.34742 0.89423 0.33383 0.0
H1079 H 0.39461 0.90556 0.29801 0.0
H1080 H 0.43945 0.03322 0.24552 0.0
H1081 H 0.39953 0.04103 0.2068 0.0
H1082 H 0.34613 0.93172 0.16677 0.0
H1083 H 0.38626 0.92433 0.20563 0.0
H1084 H 0.48254 0.03602 0.19412 0.0
H1085 H 0.46518 0.03799 0.13201 0.0
H1086 H 0.43387 0.92975 0.10728 0.0
H1087 H 0.44907 0.92757 0.16929 0.0
H1088 H 0.55219 0.03122 0.22545 0.0
H1089 H 0.58645 0.03774 0.17552 0.0
H1090 H 0.53081 0.92611 0.14886 0.0
H1091 H 0.49738 0.91985 0.19951 0.0
O1092 O 0.48923 0.9674 0.46993 0.0
O1093 O 0.46691 0.91108 0.45232 0.0
O1094 O 0.35099 0.02095 0.15671 0.0
O1095 O 0.32246 0.96488 0.13548 0.0
C1096 C 0.49563 0.96384 0.27422 0.0
C1097 C 0.4705 0.96262 0.29556 0.0
C1098 C 0.44428 0.96755 0.28095 0.0
C1099 C 0.44402 0.97523 0.24547 0.0
C1100 C 0.46996 0.97779 0.22462 0.0
C1101 C 0.4958 0.97213 0.23896 0.0
C1102 C 0.5194 0.95328 0.28841 0.0
C1103 C 0.54821 0.97662 0.31217 0.0
C1104 C 0.56612 0.96455 0.33185 0.0
C1105 C 0.55499 0.92888 0.32844 0.0
C1106 C 0.52686 0.90585 0.30355 0.0
C1107 C 0.50938 0.91804 0.28348 0.0
C1108 C 0.47182 0.95657 0.33359 0.0
C1109 C 0.48462 0.98461 0.36054 0.0
C1110 C 0.48619 0.97929 0.39641 0.0
C1111 C 0.4749 0.94576 0.40592 0.0
C1112 C 0.46186 0.91766 0.37872 0.0
C1113 C 0.46027 0.92303 0.34287 0.0
C1114 C 0.41538 0.9611 0.3018 0.0
C1115 C 0.41173 -0.01132 0.31575 0.0
C1116 C 0.38471 0.98225 0.33599 0.0
C1117 C 0.36121 0.9482 0.34282 0.0
C1118 C 0.36535 0.92074 0.32931 0.0
C1119 C 0.39209 0.92714 0.3087 0.0
C1120 C 0.41551 0.97817 0.22859 0.0
C1121 C 0.41852 0.01082 0.22912 0.0
C1122 C 0.396 0.0153 0.20658 0.0
C1123 C 0.37 -0.01291 0.18325 0.0
C1124 C 0.36606 0.95404 0.18415 0.0
C1125 C 0.38863 0.94963 0.20666 0.0
C1126 C 0.46701 0.98164 0.18612 0.0
C1127 C 0.47253 0.01301 0.17498 0.0
C1128 C 0.46269 0.0141 0.13959 0.0
C1129 C 0.44808 0.98401 0.11481 0.0
C1130 C 0.44527 0.95347 0.12558 0.0
C1131 C 0.45412 0.95217 0.16103 0.0
C1132 C 0.52251 0.97507 0.21622 0.0
C1133 C 0.54841 0.00814 0.20968 0.0
C1134 C 0.56766 0.01182 0.18092 0.0
C1135 C 0.56078 0.98246 0.15788 0.0
C1136 C 0.53634 0.94922 0.1659 0.0
C1137 C 0.51758 0.94555 0.19511 0.0
C1138 C 0.47671 0.94022 0.44406 0.0
C1139 C 0.34736 -0.00786 0.15772 0.0
H1140 H 0.50305 0.05535 0.59774 0.0
H1141 H 0.66033 0.93958 0.89453 0.0
H1142 H 0.49018 0.06485 0.78961 0.0
H1143 H 0.44492 0.07133 0.76014 0.0
H1144 H 0.37145 0.96326 0.76786 0.0
H1145 H 0.41744 0.9567 0.79626 0.0
H1146 H 0.54066 0.06822 0.75109 0.0
H1147 H 0.53177 0.07329 0.68787 0.0
H1148 H 0.45794 0.96289 0.66914 0.0
H1149 H 0.46739 0.95815 0.7324 0.0
H1150 H 0.59342 0.07442 0.80021 0.0
H1151 H 0.63801 0.09756 0.75943 0.0
H1152 H 0.59568 -0.00585 0.70422 0.0
H1153 H 0.55042 0.97143 0.7446 0.0
H1154 H 0.60121 0.04741 0.87716 0.0
H1155 H 0.64452 0.0361 0.9036 0.0
H1156 H 0.59306 0.93458 0.84195 0.0
H1157 H 0.55005 0.94623 0.81578 0.0
H1158 H 0.54117 0.04921 0.91074 0.0
H1159 H 0.56208 0.04962 0.9717 0.0
H1160 H 0.53414 0.9423 0.94766 0.0
H1161 H 0.51268 0.94209 0.88655 0.0
H1162 H 0.48887 0.05559 0.87545 0.0
H1163 H 0.45693 0.05632 0.92541 0.0
H1164 H 0.40651 0.94442 0.91936 0.0
H1165 H 0.43941 0.94406 0.86991 0.0
O1166 O 0.50622 0.05276 0.62264 0.0
O1167 O 0.46839 -0.00408 0.61447 0.0
O1168 O 0.66949 -0.00262 0.91537 0.0
O1169 O 0.64428 0.94525 0.88369 0.0
C1170 C 0.48579 0.00572 0.80776 0.0
C1171 C 0.51042 0.00937 0.78447 0.0
C1172 C 0.53995 0.00908 0.79732 0.0
C1173 C 0.54348 0.00196 0.83248 0.0
C1174 C 0.51874 -0.00199 0.85587 0.0
C1175 C 0.49015 0.00041 0.84359 0.0
C1176 C 0.4571 0.01025 0.79479 0.0
C1177 C 0.46429 0.04259 0.785 0.0
C1178 C 0.43847 0.04619 0.76801 0.0
C1179 C 0.40479 0.01766 0.76123 0.0
C1180 C 0.39727 0.98562 0.77253 0.0
C1181 C 0.42336 0.98188 0.78899 0.0
C1182 C 0.50492 0.01276 0.74619 0.0
C1183 C 0.52281 0.04513 0.73322 0.0
C1184 C 0.51756 0.04797 0.69713 0.0
C1185 C 0.4942 0.01847 0.67341 0.0
C1186 C 0.47616 0.9861 0.68665 0.0
C1187 C 0.48148 0.98331 0.72274 0.0
C1188 C 0.56906 0.02126 0.77546 0.0
C1189 C 0.59402 0.05678 0.77944 0.0
C1190 C 0.61906 0.07002 0.75583 0.0
C1191 C 0.61994 0.04775 0.72833 0.0
C1192 C 0.59537 0.01194 0.72501 0.0
C1193 C 0.56983 -0.00117 0.7482 0.0
C1194 C 0.57248 -0.00242 0.84468 0.0
C1195 C 0.59964 0.02295 0.8691 0.0
C1196 C 0.62418 0.01633 0.88431 0.0
C1197 C 0.6219 0.98419 0.87531 0.0
C1198 C 0.59537 0.95943 0.84975 0.0
C1199 C 0.57093 0.96612 0.83453 0.0
C1200 C 0.52535 -0.00437 0.89425 0.0
C1201 C 0.53853 0.02546 0.91895 0.0
C1202 C 0.55067 0.02566 0.95376 0.0
C1203 C 0.55006 -0.00394 0.96451 0.0
C1204 C 0.53491 0.96549 0.94028 0.0
C1205 C 0.52267 0.96531 0.90537 0.0
C1206 C 0.46639 -0.0002 0.86921 0.0
C1207 C 0.47045 0.03121 0.8845 0.0
C1208 C 0.45239 0.03158 0.91311 0.0
C1209 C 0.42953 0.00044 0.92637 0.0
C1210 C 0.42396 0.96876 0.90958 0.0
C1211 C 0.44261 0.96849 0.88139 0.0
C1212 C 0.48872 0.02155 0.63506 0.0
C1213 C 0.6467 0.97615 0.89276 0.0
H1214 H -0.00471 0.41929 0.60282 0.0
H1215 H 0.03093 0.70728 0.89398 0.0
H1216 H 0.94236 0.42567 0.81157 0.0
H1217 H 0.91173 0.36563 0.78477 0.0
H1218 H 0.00861 0.3714 0.77244 0.0
H1219 H 0.03929 0.43217 0.80027 0.0
H1220 H 0.96089 0.44735 0.74358 0.0
H1221 H 0.96493 0.42947 0.68223 0.0
H1222 H 0.07524 0.49739 0.69866 0.0
H1223 H 0.07086 0.51485 0.76024 0.0
H1224 H 0.95239 0.49485 0.76554 0.0
H1225 H 0.92966 0.52488 0.73299 0.0
H1226 H 0.02963 0.61872 0.75021 0.0
H1227 H 0.05248 0.58796 0.78191 0.0
H1228 H 0.95674 0.53808 0.83703 0.0
H1229 H 0.95187 0.5893 0.85181 0.0
H1230 H 0.06173 0.65137 0.88009 0.0
H1231 H 0.0662 0.5999 0.86489 0.0
H1232 H 0.95047 0.48713 0.88852 0.0
H1233 H 0.93533 0.49921 0.94657 0.0
H1234 H 0.04262 0.57141 0.98163 0.0
H1235 H 0.05782 0.55727 0.92361 0.0
H1236 H 0.94884 0.43273 0.87544 0.0
H1237 H 0.93724 0.39785 0.92464 0.0
H1238 H 0.04602 0.43997 0.94997 0.0
H1239 H 0.05755 0.47564 0.90019 0.0
O1240 O -0.00574 0.42699 0.62712 0.0
O1241 O 0.0508 0.46289 0.63667 0.0
O1242 O 0.97582 0.65365 0.8725 0.0
O1243 O 0.0321 0.68661 0.88801 0.0
C1244 C 0.00962 0.47016 0.8205 0.0
C1245 C 0.01377 0.49242 0.79431 0.0
C1246 C 0.01409 0.52348 0.80371 0.0
C1247 C 0.01465 0.53438 0.83998 0.0
C1248 C 0.01318 0.51327 0.86648 0.0
C1249 C 0.01066 0.48104 0.85679 0.0
C1250 C -0.0071 0.43276 0.80856 0.0
C1251 C 0.95696 0.41359 0.80417 0.0
C1252 C 0.93953 0.37946 0.78835 0.0
C1253 C 0.95777 0.36389 0.7763 0.0
C1254 C -0.00607 0.38282 0.78158 0.0
C1255 C 0.01149 0.41731 0.79755 0.0
C1256 C 0.01564 0.4822 0.75651 0.0
C1257 C 0.98593 0.45829 0.734 0.0
C1258 C -0.0117 0.44815 0.69887 0.0
C1259 C 0.02043 0.46189 0.68555 0.0
C1260 C 0.0501 0.48623 0.70809 0.0
C1261 C 0.04767 0.49628 0.74324 0.0
C1262 C 0.00418 0.53917 0.77583 0.0
C1263 C 0.96987 0.52134 0.76059 0.0
C1264 C 0.95678 0.53863 0.74229 0.0
C1265 C 0.97772 0.57421 0.73959 0.0
C1266 C 0.01284 0.59127 0.75216 0.0
C1267 C 0.02603 0.57379 0.7701 0.0
C1268 C 0.01184 0.56543 0.84974 0.0
C1269 C 0.9797 0.5628 0.84639 0.0
C1270 C 0.97701 0.59207 0.85487 0.0
C1271 C 0.00644 0.62447 0.86708 0.0
C1272 C 0.03858 0.62685 0.87072 0.0
C1273 C 0.04122 0.59753 0.86211 0.0
C1274 C 0.00525 0.52058 0.90239 0.0
C1275 C 0.9708 0.50463 0.90915 0.0
C1276 C 0.96221 0.5116 0.94224 0.0
C1277 C -0.01212 0.53584 0.96862 0.0
C1278 C 0.02246 0.55231 0.96172 0.0
C1279 C 0.03115 0.54438 0.92879 0.0
C1280 C 0.00403 0.45674 0.88411 0.0
C1281 C 0.97023 0.43411 0.89107 0.0
C1282 C 0.96367 0.41434 0.91946 0.0
C1283 C -0.00924 0.41639 0.94138 0.0
C1284 C 0.02466 0.43784 0.93345 0.0
C1285 C 0.03126 0.45816 0.90511 0.0
C1286 C 0.02289 0.45074 0.64834 0.0
C1287 C 0.00373 0.65569 0.87599 0.0
H1288 H 0.45692 0.4538 0.56732 0.0
H1289 H 0.69473 0.67941 0.93803 0.0
H1290 H 0.4119 0.4573 0.78053 0.0
H1291 H 0.36494 0.39664 0.7658 0.0
H1292 H 0.43945 0.36508 0.75176 0.0
H1293 H 0.48572 0.42498 0.7677 0.0
H1294 H 0.46698 0.5075 0.71627 0.0
H1295 H 0.45628 0.48863 0.65201 0.0
H1296 H 0.52225 0.44589 0.664 0.0
H1297 H 0.53243 0.46459 0.72823 0.0
H1298 H 0.55768 0.57883 0.73641 0.0
H1299 H 0.60721 0.60044 0.70156 0.0
H1300 H 0.63337 0.52897 0.74357 0.0
H1301 H 0.58442 0.50829 0.77914 0.0
H1302 H 0.56078 0.60853 0.81304 0.0
H1303 H 0.60803 0.66024 0.84881 0.0
H1304 H 0.64211 0.59612 0.89479 0.0
H1305 H 0.59497 0.5447 0.85855 0.0
H1306 H 0.5164 0.57861 0.87567 0.0
H1307 H 0.53485 0.59963 0.9394 0.0
H1308 H 0.5485 0.51242 0.95259 0.0
H1309 H 0.53138 0.49257 0.88904 0.0
H1310 H 0.43683 0.5034 0.85267 0.0
H1311 H 0.40074 0.47255 0.89913 0.0
H1312 H 0.44373 0.40603 0.89811 0.0
H1313 H 0.4786 0.436 0.85098 0.0
O1314 O 0.46155 0.46108 0.59279 0.0
O1315 O 0.49489 0.43863 0.60054 0.0
O1316 O 0.65947 0.69176 0.89661 0.0
O1317 O 0.67661 0.65956 0.9227 0.0
C1318 C 0.48077 0.48077 0.78785 0.0
C1319 C 0.5067 0.49926 0.7658 0.0
C1320 C 0.53803 0.52858 0.78092 0.0
C1321 C 0.54223 0.54141 0.81716 0.0
C1322 C 0.51576 0.52355 0.83889 0.0
C1323 C 0.48528 0.49298 0.82437 0.0
C1324 C 0.4521 0.44548 0.77454 0.0
C1325 C 0.41787 0.43721 0.77385 0.0
C1326 C 0.39123 0.40268 0.7657 0.0
C1327 C 0.39866 0.37626 0.75777 0.0
C1328 C 0.43296 0.38491 0.75761 0.0
C1329 C 0.45943 0.41916 0.76629 0.0
C1330 C 0.5008 0.48782 0.72682 0.0
C1331 C 0.47915 0.49413 0.70492 0.0
C1332 C 0.47309 0.48332 0.66824 0.0
C1333 C 0.4885 0.46584 0.65282 0.0
C1334 C 0.51009 0.45941 0.67496 0.0
C1335 C 0.51612 0.47026 0.71164 0.0
C1336 C 0.56788 0.54232 0.76029 0.0
C1337 C 0.57418 0.56798 0.73805 0.0
C1338 C 0.60214 0.57994 0.71805 0.0
C1339 C 0.62363 0.5659 0.71968 0.0
C1340 C 0.61678 0.53968 0.74146 0.0
C1341 C 0.58926 0.52827 0.76202 0.0
C1342 C 0.57456 0.57298 0.83319 0.0
C1343 C 0.57898 0.60586 0.83021 0.0
C1344 C 0.60572 0.63526 0.851 0.0
C1345 C 0.62846 0.63219 0.87515 0.0
C1346 C 0.62483 0.59933 0.87679 0.0
C1347 C 0.59816 0.56999 0.85586 0.0
C1348 C 0.5223 0.53396 0.87796 0.0
C1349 C 0.52288 0.56387 0.89257 0.0
C1350 C 0.53338 0.57576 0.92886 0.0
C1351 C 0.5431 0.55763 0.95091 0.0
C1352 C 0.54095 0.52681 0.93636 0.0
C1353 C 0.531 0.51531 0.90011 0.0
C1354 C 0.46018 0.47181 0.84864 0.0
C1355 C 0.43773 0.48161 0.86197 0.0
C1356 C 0.41726 0.46407 0.88838 0.0
C1357 C 0.41983 0.43724 0.90226 0.0
C1358 C 0.44154 0.42683 0.88797 0.0
C1359 C 0.46126 0.44372 0.86102 0.0
C1360 C 0.48193 0.45431 0.61385 0.0
C1361 C 0.65571 0.66302 0.89873 0.0
H1362 H 0.59791 0.85533 0.82115 0.0
H1363 H 0.6842 0.63453 0.54942 0.0
H1364 H 0.59315 0.8586 0.60567 0.0
H1365 H 0.61332 0.921 0.61738 0.0
H1366 H 0.71563 0.94203 0.64903 0.0
H1367 H 0.69554 0.88047 0.63654 0.0
H1368 H 0.57765 0.79577 0.67236 0.0
H1369 H 0.57559 0.81522 0.73403 0.0
H1370 H 0.68635 0.86844 0.75163 0.0
H1371 H 0.68805 0.84909 0.68997 0.0
H1372 H 0.59849 0.71761 0.65758 0.0
H1373 H 0.62362 0.68541 0.68164 0.0
H1374 H 0.72485 0.77663 0.68622 0.0
H1375 H 0.69973 0.80794 0.66094 0.0
H1376 H 0.58244 0.69874 0.57952 0.0
H1377 H 0.58921 0.64863 0.56477 0.0
H1378 H 0.69935 0.71745 0.57281 0.0
H1379 H 0.69213 0.76725 0.5874 0.0
H1380 H 0.58063 0.73434 0.51783 0.0
H1381 H 0.58866 0.71385 0.45916 0.0
H1382 H 0.69619 0.79378 0.4749 0.0
H1383 H 0.68794 0.81352 0.53367 0.0
H1384 H 0.57726 0.81034 0.53184 0.0
H1385 H 0.58115 0.84437 0.48235 0.0
H1386 H 0.69156 0.90411 0.50614 0.0
H1387 H 0.6873 0.87051 0.55561 0.0
O1388 O 0.59925 0.84758 0.79699 0.0
O1389 O 0.65603 0.87239 0.80538 0.0
O1390 O 0.62425 0.61934 0.55391 0.0
O1391 O 0.68082 0.65382 0.55547 0.0
C1392 C 0.63256 0.82862 0.61177 0.0
C1393 C 0.63352 0.80923 0.63903 0.0
C1394 C 0.63515 0.77918 0.63017 0.0
C1395 C 0.63266 0.76677 0.59394 0.0
C1396 C 0.63003 0.78533 0.56672 0.0
C1397 C 0.63013 0.81637 0.57559 0.0
C1398 C 0.64278 0.8652 0.62123 0.0
C1399 C 0.61976 0.87683 0.61549 0.0
C1400 C 0.63136 0.91232 0.62191 0.0
C1401 C 0.66601 0.93621 0.63418 0.0
C1402 C 0.68877 0.92422 0.63985 0.0
C1403 C 0.67729 0.88906 0.63313 0.0
C1404 C 0.63293 0.82063 0.67679 0.0
C1405 C 0.60142 0.81149 0.68965 0.0
C1406 C 0.60032 0.82268 0.72486 0.0
C1407 C 0.63081 0.8433 0.74782 0.0
C1408 C 0.66238 0.85244 0.73474 0.0
C1409 C 0.66341 0.84125 0.69952 0.0
C1410 C 0.64727 0.76508 0.65768 0.0
C1411 C 0.62587 0.73107 0.6655 0.0
C1412 C 0.64033 0.7127 0.67891 0.0
C1413 C 0.67622 0.72845 0.68499 0.0
C1414 C 0.69715 0.7639 0.68171 0.0
C1415 C 0.68275 0.782 0.66772 0.0
C1416 C 0.63678 0.73648 0.58454 0.0
C1417 C 0.60796 0.70286 0.578 0.0
C1418 C 0.61193 0.67434 0.56965 0.0
C1419 C 0.64485 0.67905 0.56762 0.0
C1420 C 0.67366 0.7129 0.57411 0.0
C1421 C 0.66963 0.74137 0.58244 0.0
C1422 C 0.63362 0.77555 0.52963 0.0
C1423 C 0.60572 0.74767 0.50825 0.0
C1424 C 0.61042 0.73603 0.47489 0.0
C1425 C 0.6431 0.75224 0.46254 0.0
C1426 C 0.67072 0.78093 0.48363 0.0
C1427 C 0.66604 0.79232 0.51707 0.0
C1428 C 0.632 0.83807 0.54715 0.0
C1429 C 0.60216 0.83107 0.52647 0.0
C1430 C 0.60444 0.8505 0.49836 0.0
C1431 C 0.63666 0.87675 0.49034 0.0
C1432 C 0.66639 0.88392 0.51157 0.0
C1433 C 0.66404 0.86487 0.53985 0.0
C1434 C 0.62959 0.85532 0.78514 0.0
C1435 C 0.64921 0.64887 0.55863 0.0
H1436 H 0.14812 0.8162 0.82659 0.0
H1437 H -0.01026 0.61272 0.48367 0.0
H1438 H 0.14638 0.85908 0.63142 0.0
H1439 H 0.17967 0.91856 0.65918 0.0
H1440 H 0.2731 0.916 0.65178 0.0
H1441 H 0.2387 0.85513 0.62382 0.0
H1442 H 0.1146 0.81652 0.67498 0.0
H1443 H 0.12249 0.82045 0.74001 0.0
H1444 H 0.19058 0.78002 0.73126 0.0
H1445 H 0.18213 0.77583 0.66611 0.0
H1446 H 0.06553 0.7855 0.6124 0.0
H1447 H 0.01838 0.76498 0.65021 0.0
H1448 H 0.04142 0.68824 0.68291 0.0
H1449 H 0.0894 0.70976 0.64579 0.0
H1450 H 0.05561 0.7654 0.54021 0.0
H1451 H 0.00776 0.72264 0.49707 0.0
H1452 H 0.04306 0.65024 0.50757 0.0
H1453 H 0.09024 0.69299 0.55093 0.0
H1454 H 0.11965 0.82446 0.51678 0.0
H1455 H 0.1034 0.82015 0.45342 0.0
H1456 H 0.11664 0.73177 0.4339 0.0
H1457 H 0.13509 0.73777 0.49773 0.0
H1458 H 0.17309 0.87467 0.56171 0.0
H1459 H 0.19813 0.90877 0.51298 0.0
H1460 H 0.23667 0.84193 0.47995 0.0
H1461 H 0.21117 0.80744 0.52918 0.0
O1462 O 0.14542 0.81452 0.80077 0.0
O1463 O 0.18055 0.79402 0.79479 0.0
O1464 O 0.97999 0.66856 0.45043 0.0
O1465 O 0.98233 0.62355 0.46702 0.0
C1466 C 0.16808 0.81709 0.60756 0.0
C1467 C 0.1424 0.79209 0.62612 0.0
C1468 C 0.11151 0.76512 0.60713 0.0
C1469 C 0.10844 0.76001 0.56954 0.0
C1470 C 0.13557 0.7831 0.55093 0.0
C1471 C 0.16542 0.81182 0.56991 0.0
C1472 C 0.19009 0.85264 0.62624 0.0
C1473 C 0.174 0.87106 0.63639 0.0
C1474 C 0.19318 0.90527 0.65195 0.0
C1475 C 0.22911 0.92212 0.65764 0.0
C1476 C 0.24542 0.90362 0.64777 0.0
C1477 C 0.22594 0.86898 0.63193 0.0
C1478 C 0.14743 0.79543 0.66576 0.0
C1479 C 0.13098 0.80824 0.68707 0.0
C1480 C 0.13566 0.81061 0.72428 0.0
C1481 C 0.15706 0.80042 0.74086 0.0
C1482 C 0.17384 0.788 0.71937 0.0
C1483 C 0.16909 0.78561 0.68216 0.0
C1484 C 0.08047 0.74873 0.62611 0.0
C1485 C 0.0601 0.76398 0.62746 0.0
C1486 C 0.03365 0.75272 0.64947 0.0
C1487 C 0.02669 0.72546 0.6698 0.0
C1488 C 0.04652 0.70953 0.66763 0.0
C1489 C 0.07357 0.7214 0.64621 0.0
C1490 C 0.07607 0.73206 0.54899 0.0
C1491 C 0.05234 0.73991 0.53383 0.0
C1492 C 0.02532 0.71561 0.50885 0.0
C1493 C 0.02138 0.68287 0.49875 0.0
C1494 C 0.04469 0.67478 0.51498 0.0
C1495 C 0.07173 0.69917 0.53995 0.0
C1496 C 0.12911 0.78181 0.51173 0.0
C1497 C 0.12045 0.80508 0.49865 0.0
C1498 C 0.11107 0.8025 0.46239 0.0
C1499 C 0.10886 0.77569 0.43864 0.0
C1500 C 0.11835 0.75283 0.45161 0.0
C1501 C 0.12871 0.75608 0.48795 0.0
C1502 C 0.19052 0.83869 0.54929 0.0
C1503 C 0.18845 0.86836 0.54529 0.0
C1504 C 0.2022 0.88743 0.51694 0.0
C1505 C 0.21866 0.87744 0.49239 0.0
C1506 C 0.22399 0.85002 0.49852 0.0
C1507 C 0.20973 0.83054 0.52676 0.0
C1508 C 0.16182 0.80276 0.7804 0.0
C1509 C -0.00648 0.65794 0.47069 0.0
H1510 H 0.17894 0.32804 0.82699 0.0
H1511 H 0.97594 0.29547 0.45046 0.0
H1512 H 0.23547 0.34508 0.64483 0.0
H1513 H 0.26519 0.32227 0.67969 0.0
H1514 H 0.18844 0.21767 0.6345 0.0
H1515 H 0.15946 0.24078 0.59957 0.0
H1516 H 0.17595 0.36039 0.6801 0.0
H1517 H 0.1816 0.35729 0.74435 0.0
H1518 H 0.1349 0.24566 0.72379 0.0
H1519 H 0.12915 0.24915 0.65965 0.0
H1520 H 0.10416 0.35592 0.64061 0.0
H1521 H 0.05551 0.34193 0.67542 0.0
H1522 H 0.02689 0.23384 0.66361 0.0
H1523 H 0.07485 0.24791 0.62824 0.0
H1524 H 0.11346 0.37196 0.5714 0.0
H1525 H 0.07061 0.37568 0.53289 0.0
H1526 H 0.0196 0.26513 0.4996 0.0
H1527 H 0.06262 0.26183 0.53821 0.0
H1528 H 0.15511 0.37143 0.51804 0.0
H1529 H 0.13457 0.3678 0.45552 0.0
H1530 H 0.10562 0.25962 0.43987 0.0
H1531 H 0.12419 0.26304 0.50236 0.0
H1532 H 0.22654 0.36796 0.54569 0.0
H1533 H 0.2581 0.36701 0.49528 0.0
H1534 H 0.20312 0.25477 0.48615 0.0
H1535 H 0.17224 0.25602 0.53673 0.0
O1536 O 0.17642 0.32866 0.80148 0.0
O1537 O 0.15242 0.27136 0.78949 0.0
O1538 O 0.01943 0.35118 0.48502 0.0
O1539 O -0.00751 0.29448 0.46679 0.0
C1540 C 0.17339 0.30667 0.60475 0.0
C1541 C 0.14936 0.30755 0.6264 0.0
C1542 C 0.12219 0.31067 0.61119 0.0
C1543 C 0.12058 0.31571 0.57492 0.0
C1544 C 0.1459 0.31701 0.55376 0.0
C1545 C 0.17226 0.31232 0.56859 0.0
C1546 C 0.1958 0.2946 0.61922 0.0
C1547 C 0.22585 0.3174 0.64167 0.0
C1548 C 0.24245 0.30425 0.66182 0.0
C1549 C 0.22877 0.26812 0.6602 0.0
C1550 C 0.19935 0.24556 0.63663 0.0
C1551 C 0.18314 0.25874 0.61617 0.0
C1552 C 0.15247 0.30506 0.66528 0.0
C1553 C 0.16699 0.33532 0.68957 0.0
C1554 C 0.17019 0.33346 0.72624 0.0
C1555 C 0.1588 0.30123 0.73922 0.0
C1556 C 0.14404 0.2709 0.7147 0.0
C1557 C 0.14084 0.27282 0.67804 0.0
C1558 C 0.09284 0.3029 0.63187 0.0
C1559 C 0.08727 0.32928 0.64551 0.0
C1560 C 0.05971 0.32126 0.66556 0.0
C1561 C 0.03762 0.28682 0.67242 0.0
C1562 C 0.0437 0.26063 0.65912 0.0
C1563 C 0.0709 0.26858 0.63875 0.0
C1564 C 0.09097 0.31662 0.5577 0.0
C1565 C 0.09252 0.34846 0.55644 0.0
C1566 C 0.06828 0.35057 0.53407 0.0
C1567 C 0.04203 0.32078 0.51269 0.0
C1568 C 0.03967 0.28861 0.5154 0.0
C1569 C 0.06395 0.28657 0.53774 0.0
C1570 C 0.14116 0.31751 0.51466 0.0
C1571 C 0.145 0.34723 0.50078 0.0
C1572 C 0.13331 0.34511 0.46514 0.0
C1573 C 0.11834 0.31338 0.44283 0.0
C1574 C 0.11721 0.2845 0.45622 0.0
C1575 C 0.12803 0.28643 0.49194 0.0
C1576 C 0.19737 0.31207 0.54516 0.0
C1577 C 0.22232 0.34327 0.53363 0.0
C1578 C 0.2401 0.34267 0.50468 0.0
C1579 C 0.23266 0.3108 0.48647 0.0
C1580 C 0.20916 0.27972 0.49947 0.0
C1581 C 0.19185 0.28038 0.52873 0.0
C1582 C 0.16229 0.29937 0.77819 0.0
C1583 C 0.0174 0.32321 0.48737 0.0
loop_
_geom_bond_atom_site_label_1
_geom_bond_atom_site_label_2
_geom_bond_distance
_geom_bond_site_symmetry_2
_ccdc_geom_bond_type
C0 O1 1.306 1_556 S
C0 O3 1.160 1_556 S
O1 C0 1.306 1_554 S
O1 Cd2 2.228 . S
Cd2 O1 2.228 . S
Cd2 O6 2.273 . S
Cd2 O10 2.277 1_554 S
O3 C0 1.160 1_554 S
O3 Cd4 2.203 1_655 S
Cd4 O3 2.203 1_455 S
Cd4 O6 2.411 1_455 S
Cd4 O7 2.333 . S
Cd4 O8 2.352 . S
Cd4 O12 2.277 1_554 S
Cd4 O13 2.356 . S
C5 O10 1.209 1_455 S
C5 O12 1.226 . S
O6 Cd2 2.273 . S
O6 Cd4 2.411 1_655 S
O6 C9 1.320 . S
O7 Cd4 2.333 . S
O7 C9 1.214 1_455 S
O8 Cd4 2.352 . S
O8 C11 1.258 . S
C9 O6 1.320 . S
C9 O7 1.214 1_655 S
O10 Cd2 2.277 1_556 S
O10 C5 1.209 1_655 S
C11 O8 1.258 . S
C11 O13 1.282 . S
O12 Cd4 2.277 1_556 S
O12 C5 1.226 . S
O13 Cd4 2.356 . S
O13 C11 1.282 . S
C14 O15 1.306 . S
C14 O17 1.160 . S
O15 C14 1.306 . S
O15 Cd16 2.228 . S
Cd16 O15 2.228 . S
Cd16 O20 2.273 . S
Cd16 O24 2.277 . S
O17 C14 1.160 . S
O17 Cd18 2.203 . S
Cd18 O17 2.203 . S
Cd18 O20 2.411 . S
Cd18 O21 2.333 . S
Cd18 O22 2.352 . S
Cd18 O26 2.277 . S
Cd18 O27 2.356 . S
C19 O24 1.209 . S
C19 O26 1.226 . S
O20 Cd16 2.273 . S
O20 Cd18 2.411 . S
O20 C23 1.320 . S
O21 Cd18 2.333 . S
O21 C23 1.214 . S
O22 Cd18 2.352 . S
O22 C25 1.258 . S
C23 O20 1.320 . S
C23 O21 1.214 . S
O24 Cd16 2.277 . S
O24 C19 1.209 . S
C25 O22 1.258 . S
C25 O27 1.282 . S
O26 Cd18 2.277 . S
O26 C19 1.226 . S
O27 Cd18 2.356 . S
O27 C25 1.282 . S
C28 O29 1.306 . S
C28 O31 1.160 . S
O29 C28 1.306 . S
O29 Cd30 2.228 . S
Cd30 O29 2.228 . S
Cd30 O34 2.273 1_554 S
Cd30 O38 2.277 . S
O31 C28 1.160 . S
O31 Cd32 2.203 1_565 S
Cd32 O31 2.203 1_545 S
Cd32 O34 2.411 1_544 S
Cd32 O35 2.333 1_554 S
Cd32 O36 2.352 1_554 S
Cd32 O40 2.277 . S
Cd32 O41 2.356 . S
C33 O38 1.209 1_545 S
C33 O40 1.226 . S
O34 Cd30 2.273 1_556 S
O34 Cd32 2.411 1_566 S
O34 C37 1.320 . S
O35 Cd32 2.333 1_556 S
O35 C37 1.214 1_545 S
O36 Cd32 2.352 1_556 S
O36 C39 1.258 1_556 S
C37 O34 1.320 . S
C37 O35 1.214 1_565 S
O38 Cd30 2.277 . S
O38 C33 1.209 1_565 S
C39 O36 1.258 1_554 S
C39 O41 1.282 . S
O40 Cd32 2.277 . S
O40 C33 1.226 . S
O41 Cd32 2.356 . S
O41 C39 1.282 . S
C42 O43 1.306 . S
C42 O45 1.160 . S
O43 C42 1.306 . S
O43 Cd44 2.228 . S
Cd44 O43 2.228 . S
Cd44 O48 2.273 . S
Cd44 O52 2.277 . S
O45 C42 1.160 . S
O45 Cd46 2.203 1_655 S
Cd46 O45 2.203 1_455 S
Cd46 O48 2.411 1_455 S
Cd46 O49 2.333 . S
Cd46 O50 2.352 . S
Cd46 O54 2.277 . S
Cd46 O55 2.356 . S
C47 O52 1.193 1_456 S
C47 O54 1.220 1_556 S
O48 Cd44 2.273 . S
O48 Cd46 2.411 1_655 S
O48 C51 1.320 . S
O49 Cd46 2.333 . S
O49 C51 1.214 1_455 S
O50 Cd46 2.352 . S
O50 C53 1.258 . S
C51 O48 1.320 . S
C51 O49 1.214 1_655 S
O52 Cd44 2.277 . S
O52 C47 1.193 1_654 S
C53 O50 1.258 . S
C53 O55 1.282 . S
O54 Cd46 2.277 . S
O54 C47 1.220 1_554 S
O55 Cd46 2.356 . S
O55 C53 1.282 . S
C56 O57 1.306 . S
C56 O59 1.160 . S
O57 C56 1.306 . S
O57 Cd58 2.228 . S
Cd58 O57 2.228 . S
Cd58 O62 2.273 1_554 S
Cd58 O66 2.277 . S
O59 C56 1.160 . S
O59 Cd60 2.203 . S
Cd60 O59 2.203 . S
Cd60 O62 2.411 1_554 S
Cd60 O63 2.333 1_554 S
Cd60 O64 2.352 1_554 S
Cd60 O68 2.277 . S
Cd60 O69 2.356 1_554 S
C61 O66 1.209 . S
C61 O68 1.226 . S
O62 Cd58 2.273 1_556 S
O62 Cd60 2.411 1_556 S
O62 C65 1.320 . S
O63 Cd60 2.333 1_556 S
O63 C65 1.214 . S
O64 Cd60 2.352 1_556 S
O64 C67 1.258 . S
C65 O62 1.320 . S
C65 O63 1.214 . S
O66 Cd58 2.277 . S
O66 C61 1.209 . S
C67 O64 1.258 . S
C67 O69 1.282 . S
O68 Cd60 2.277 . S
O68 C61 1.226 . S
O69 Cd60 2.356 1_556 S
O69 C67 1.282 . S
C70 O71 1.306 . S
C70 O73 1.160 . S
O71 C70 1.306 . S
O71 Cd72 2.228 . S
Cd72 O71 2.228 . S
Cd72 O76 2.273 . S
Cd72 O80 2.277 . S
O73 C70 1.160 . S
O73 Cd74 2.203 1_545 S
Cd74 O73 2.203 1_565 S
Cd74 O76 2.411 1_565 S
Cd74 O77 2.333 . S
Cd74 O78 2.352 . S
Cd74 O82 2.277 . S
Cd74 O83 2.356 . S
C75 O80 1.204 1_566 S
C75 O82 1.223 1_556 S
O76 Cd72 2.273 . S
O76 Cd74 2.411 1_545 S
O76 C79 1.320 . S
O77 Cd74 2.333 . S
O77 C79 1.214 1_565 S
O78 Cd74 2.352 . S
O78 C81 1.258 . S
C79 O76 1.320 . S
C79 O77 1.214 1_545 S
O80 Cd72 2.277 . S
O80 C75 1.204 1_544 S
C81 O78 1.258 . S
C81 O83 1.282 . S
O82 Cd74 2.277 . S
O82 C75 1.223 1_554 S
O83 Cd74 2.356 . S
O83 C81 1.282 . S
C84 O85 1.306 . S
C84 O87 1.160 . S
O85 C84 1.306 . S
O85 Cd86 2.228 . S
Cd86 O85 2.228 . S
Cd86 O90 2.273 . S
Cd86 O94 2.277 . S
O87 C84 1.160 . S
O87 Cd88 2.203 . S
Cd88 O87 2.203 . S
Cd88 O90 2.411 . S
Cd88 O91 2.333 . S
Cd88 O92 2.352 . S
Cd88 O96 2.277 . S
Cd88 O97 2.356 . S
C89 O94 1.209 . S
C89 O96 1.226 . S
O90 Cd86 2.273 . S
O90 Cd88 2.411 . S
O90 C93 1.320 . S
O91 Cd88 2.333 . S
O91 C93 1.214 . S
O92 Cd88 2.352 . S
O92 C95 1.258 . S
C93 O90 1.320 . S
C93 O91 1.214 . S
O94 Cd86 2.277 . S
O94 C89 1.209 . S
C95 O92 1.258 . S
C95 O97 1.282 . S
O96 Cd88 2.277 . S
O96 C89 1.226 . S
O97 Cd88 2.356 . S
O97 C95 1.282 . S
C98 O99 1.306 . S
C98 O101 1.160 1_545 S
O99 C98 1.306 . S
O99 Cd100 2.228 1_545 S
Cd100 O99 2.228 1_565 S
Cd100 O104 2.273 . S
Cd100 O108 2.277 . S
O101 C98 1.160 1_565 S
O101 Cd102 2.203 . S
Cd102 O101 2.203 . S
Cd102 O104 2.411 . S
Cd102 O105 2.333 . S
Cd102 O106 2.352 . S
Cd102 O110 2.277 . S
Cd102 O111 2.356 . S
C103 O108 1.209 . S
C103 O110 1.226 . S
O104 Cd100 2.273 . S
O104 Cd102 2.411 . S
O104 C107 1.320 . S
O105 Cd102 2.333 . S
O105 C107 1.214 . S
O106 Cd102 2.352 . S
O106 C109 1.258 . S
C107 O104 1.320 . S
C107 O105 1.214 . S
O108 Cd100 2.277 . S
O108 C103 1.209 . S
C109 O106 1.258 . S
C109 O111 1.282 . S
O110 Cd102 2.277 . S
O110 C103 1.226 . S
O111 Cd102 2.356 . S
O111 C109 1.282 . S
C112 O113 1.306 . S
C112 O115 1.160 . S
O113 C112 1.306 . S
O113 Cd114 2.228 . S
Cd114 O113 2.228 . S
Cd114 O118 2.273 . S
Cd114 O122 2.277 . S
O115 C112 1.160 . S
O115 Cd116 2.203 . S
Cd116 O115 2.203 . S
Cd116 O118 2.411 . S
Cd116 O119 2.333 . S
Cd116 O120 2.352 . S
Cd116 O124 2.277 . S
Cd116 O125 2.356 . S
C117 O122 1.209 . S
C117 O124 1.226 . S
O118 Cd114 2.273 . S
O118 Cd116 2.411 . S
O118 C121 1.320 . S
O119 Cd116 2.333 . S
O119 C121 1.214 . S
O120 Cd116 2.352 . S
O120 C123 1.258 . S
C121 O118 1.320 . S
C121 O119 1.214 . S
O122 Cd114 2.277 . S
O122 C117 1.209 . S
C123 O120 1.258 . S
C123 O125 1.282 . S
O124 Cd116 2.277 . S
O124 C117 1.226 . S
O125 Cd116 2.356 . S
O125 C123 1.282 . S
C126 O127 1.306 . S
C126 O129 1.160 . S
O127 C126 1.306 . S
O127 Cd128 2.228 . S
Cd128 O127 2.228 . S
Cd128 O132 2.273 . S
Cd128 O136 2.277 . S
O129 C126 1.160 . S
O129 Cd130 2.203 . S
Cd130 O129 2.203 . S
Cd130 O132 2.411 . S
Cd130 O133 2.333 . S
Cd130 O134 2.352 1_565 S
Cd130 O138 2.277 . S
Cd130 O139 2.356 1_565 S
C131 O136 1.209 . S
C131 O138 1.226 . S
O132 Cd128 2.273 . S
O132 Cd130 2.411 . S
O132 C135 1.320 . S
O133 Cd130 2.333 . S
O133 C135 1.214 . S
O134 Cd130 2.352 1_545 S
O134 C137 1.258 . S
C135 O132 1.320 . S
C135 O133 1.214 . S
O136 Cd128 2.277 . S
O136 C131 1.209 . S
C137 O134 1.258 . S
C137 O139 1.282 . S
O138 Cd130 2.277 . S
O138 C131 1.226 . S
O139 Cd130 2.356 1_545 S
O139 C137 1.282 . S
C140 O141 1.312 1_655 S
C140 O143 1.160 1_655 S
O141 C140 1.312 1_455 S
O141 Cd142 2.238 . S
Cd142 O141 2.238 . S
Cd142 O146 2.273 . S
Cd142 O150 2.277 . S
O143 C140 1.160 1_455 S
O143 Cd144 2.203 . S
Cd144 O143 2.203 . S
Cd144 O146 2.411 . S
Cd144 O147 2.333 . S
Cd144 O148 2.352 . S
Cd144 O152 2.277 . S
Cd144 O153 2.356 . S
C145 O150 1.209 . S
C145 O152 1.226 . S
O146 Cd142 2.273 . S
O146 Cd144 2.411 . S
O146 C149 1.320 . S
O147 Cd144 2.333 . S
O147 C149 1.214 . S
O148 Cd144 2.352 . S
O148 C151 1.258 . S
C149 O146 1.320 . S
C149 O147 1.214 . S
O150 Cd142 2.277 . S
O150 C145 1.209 . S
C151 O148 1.258 . S
C151 O153 1.282 . S
O152 Cd144 2.277 . S
O152 C145 1.226 . S
O153 Cd144 2.356 . S
O153 C151 1.282 . S
C154 O155 1.306 . S
C154 O157 1.160 . S
O155 C154 1.306 . S
O155 Cd156 2.228 . S
Cd156 O155 2.228 . S
Cd156 O160 2.273 . S
Cd156 O164 2.277 . S
O157 C154 1.160 . S
O157 Cd158 2.203 . S
Cd158 O157 2.203 . S
Cd158 O160 2.411 . S
Cd158 O161 2.333 . S
Cd158 O162 2.352 . S
Cd158 O166 2.277 . S
Cd158 O167 2.356 . S
C159 O164 1.209 . S
C159 O166 1.226 . S
O160 Cd156 2.273 . S
O160 Cd158 2.411 . S
O160 C163 1.320 . S
O161 Cd158 2.333 . S
O161 C163 1.214 . S
O162 Cd158 2.352 . S
O162 C165 1.258 . S
C163 O160 1.320 . S
C163 O161 1.214 . S
O164 Cd156 2.277 . S
O164 C159 1.209 . S
C165 O162 1.258 . S
C165 O167 1.282 . S
O166 Cd158 2.277 . S
O166 C159 1.226 . S
O167 Cd158 2.356 . S
O167 C165 1.282 . S
C168 O169 1.306 . S
C168 O171 1.160 . S
O169 C168 1.306 . S
O169 Cd170 2.228 1_565 S
Cd170 O169 2.228 1_545 S
Cd170 O174 2.273 . S
Cd170 O178 2.277 . S
O171 C168 1.160 . S
O171 Cd172 2.203 1_565 S
Cd172 O171 2.203 1_545 S
Cd172 O174 2.411 . S
Cd172 O175 2.333 . S
Cd172 O176 2.352 . S
Cd172 O180 2.277 . S
Cd172 O181 2.356 . S
C173 O178 1.209 . S
C173 O180 1.226 . S
O174 Cd170 2.273 . S
O174 Cd172 2.411 . S
O174 C177 1.320 . S
O175 Cd172 2.333 . S
O175 C177 1.214 . S
O176 Cd172 2.352 . S
O176 C179 1.258 . S
C177 O174 1.320 . S
C177 O175 1.214 . S
O178 Cd170 2.277 . S
O178 C173 1.209 . S
C179 O176 1.258 . S
C179 O181 1.282 . S
O180 Cd172 2.277 . S
O180 C173 1.226 . S
O181 Cd172 2.356 . S
O181 C179 1.282 . S
C182 O183 1.306 . S
C182 O185 1.160 . S
O183 C182 1.306 . S
O183 Cd184 2.228 . S
Cd184 O183 2.228 . S
Cd184 O188 2.273 . S
Cd184 O192 2.277 . S
O185 C182 1.160 . S
O185 Cd186 2.203 . S
Cd186 O185 2.203 . S
Cd186 O188 2.411 . S
Cd186 O189 2.333 . S
Cd186 O190 2.352 1_655 S
Cd186 O194 2.277 . S
Cd186 O195 2.356 1_655 S
C187 O192 1.209 . S
C187 O194 1.226 . S
O188 Cd184 2.273 . S
O188 Cd186 2.411 . S
O188 C191 1.320 . S
O189 Cd186 2.333 . S
O189 C191 1.214 . S
O190 Cd186 2.352 1_455 S
O190 C193 1.258 . S
C191 O188 1.320 . S
C191 O189 1.214 . S
O192 Cd184 2.277 . S
O192 C187 1.209 . S
C193 O190 1.258 . S
C193 O195 1.282 . S
O194 Cd186 2.277 . S
O194 C187 1.226 . S
O195 Cd186 2.356 1_455 S
O195 C193 1.282 . S
C196 O197 1.306 . S
C196 O199 1.160 . S
O197 C196 1.306 . S
O197 Cd198 2.228 . S
Cd198 O197 2.228 . S
Cd198 O202 2.273 . S
Cd198 O206 2.277 . S
O199 C196 1.160 . S
O199 Cd200 2.203 . S
Cd200 O199 2.203 . S
Cd200 O202 2.411 . S
Cd200 O203 2.333 . S
Cd200 O204 2.352 . S
Cd200 O208 2.277 . S
Cd200 O209 2.356 . S
C201 O206 1.209 . S
C201 O208 1.226 . S
O202 Cd198 2.273 . S
O202 Cd200 2.411 . S
O202 C205 1.320 . S
O203 Cd200 2.333 . S
O203 C205 1.214 . S
O204 Cd200 2.352 . S
O204 C207 1.258 . S
C205 O202 1.320 . S
C205 O203 1.214 . S
O206 Cd198 2.277 . S
O206 C201 1.209 . S
C207 O204 1.258 . S
C207 O209 1.282 . S
O208 Cd200 2.277 . S
O208 C201 1.226 . S
O209 Cd200 2.356 . S
O209 C207 1.282 . S
C210 O211 1.306 . S
C210 O213 1.160 . S
O211 C210 1.306 . S
O211 Cd212 2.228 . S
Cd212 O211 2.228 . S
Cd212 O216 2.273 . S
Cd212 O220 2.277 . S
O213 C210 1.160 . S
O213 Cd214 2.203 . S
Cd214 O213 2.203 . S
Cd214 O216 2.411 . S
Cd214 O217 2.333 . S
Cd214 O218 2.352 . S
Cd214 O222 2.277 . S
Cd214 O223 2.356 . S
C215 O220 1.209 . S
C215 O222 1.226 . S
O216 Cd212 2.273 . S
O216 Cd214 2.411 . S
O216 C219 1.320 . S
O217 Cd214 2.333 . S
O217 C219 1.214 . S
O218 Cd214 2.352 . S
O218 C221 1.258 . S
C219 O216 1.320 . S
C219 O217 1.214 . S
O220 Cd212 2.277 . S
O220 C215 1.209 . S
C221 O218 1.258 . S
C221 O223 1.282 . S
O222 Cd214 2.277 . S
O222 C215 1.226 . S
O223 Cd214 2.356 . S
O223 C221 1.282 . S
C224 O225 1.306 . S
C224 O227 1.160 . S
O225 C224 1.306 . S
O225 Cd226 2.228 . S
Cd226 O225 2.228 . S
Cd226 O230 2.273 . S
Cd226 O234 2.277 . S
O227 C224 1.160 . S
O227 Cd228 2.203 . S
Cd228 O227 2.203 . S
Cd228 O230 2.411 . S
Cd228 O231 2.333 . S
Cd228 O232 2.352 1_545 S
Cd228 O236 2.277 . S
Cd228 O237 2.356 1_545 S
C229 O234 1.209 . S
C229 O236 1.226 . S
O230 Cd226 2.273 . S
O230 Cd228 2.411 . S
O230 C233 1.320 . S
O231 Cd228 2.333 . S
O231 C233 1.214 . S
O232 Cd228 2.352 1_565 S
O232 C235 1.258 . S
C233 O230 1.320 . S
C233 O231 1.214 . S
O234 Cd226 2.277 . S
O234 C229 1.209 . S
C235 O232 1.258 . S
C235 O237 1.282 . S
O236 Cd228 2.277 . S
O236 C229 1.226 . S
O237 Cd228 2.356 1_565 S
O237 C235 1.282 . S
C238 O239 1.306 1_455 S
C238 O241 1.160 1_455 S
O239 C238 1.306 1_655 S
O239 Cd240 2.228 . S
Cd240 O239 2.228 . S
Cd240 O244 2.273 . S
Cd240 O248 2.277 . S
O241 C238 1.160 1_655 S
O241 Cd242 2.203 . S
Cd242 O241 2.203 . S
Cd242 O244 2.411 . S
Cd242 O245 2.333 . S
Cd242 O246 2.352 . S
Cd242 O250 2.277 . S
Cd242 O251 2.356 . S
C243 O248 1.209 . S
C243 O250 1.226 . S
O244 Cd240 2.273 . S
O244 Cd242 2.411 . S
O244 C247 1.320 . S
O245 Cd242 2.333 . S
O245 C247 1.214 . S
O246 Cd242 2.352 . S
O246 C249 1.258 . S
C247 O244 1.320 . S
C247 O245 1.214 . S
O248 Cd240 2.277 . S
O248 C243 1.209 . S
C249 O246 1.258 . S
C249 O251 1.282 . S
O250 Cd242 2.277 . S
O250 C243 1.226 . S
O251 Cd242 2.356 . S
O251 C249 1.282 . S
H252 O278 0.856 . S
H253 O281 0.854 . S
H254 C289 0.930 . S
H255 C290 0.930 . S
H256 C292 0.930 . S
H257 C293 0.930 . S
H258 C295 0.931 . S
H259 C296 0.930 . S
H260 C298 0.930 . S
H261 C299 0.929 . S
H262 C301 0.930 . S
H263 C302 0.931 . S
H264 C304 0.930 . S
H265 C305 0.929 . S
H266 C307 0.931 . S
H267 C308 0.930 . S
H268 C310 0.930 . S
H269 C311 0.932 . S
H270 C313 0.930 . S
H271 C314 0.929 . S
H272 C316 0.931 . S
H273 C317 0.930 . S
H274 C319 0.929 . S
H275 C320 0.931 . S
H276 C322 0.930 . S
H277 C323 0.929 . S
O278 H252 0.856 . S
O278 C324 1.300 . S
O279 C324 1.209 . S
O280 C325 1.199 . S
O281 H253 0.854 . S
O281 C325 1.297 . S
C282 C283 1.404 . S
C282 C287 1.397 . S
C282 C288 1.492 . S
C283 C282 1.404 . S
C283 C284 1.396 . S
C283 C294 1.492 . S
C284 C283 1.396 . S
C284 C285 1.397 . S
C284 C300 1.509 . S
C285 C284 1.397 . S
C285 C286 1.412 . S
C285 C306 1.485 . S
C286 C285 1.412 . S
C286 C287 1.388 . S
C286 C312 1.490 . S
C287 C282 1.397 . S
C287 C286 1.388 . S
C287 C318 1.519 . S
C288 C282 1.492 . S
C288 C289 1.363 . S
C288 C293 1.390 . S
C289 H254 0.930 . S
C289 C288 1.363 . S
C289 C290 1.372 . S
C290 H255 0.930 . S
C290 C289 1.372 . S
C290 C291 1.383 . S
C291 C290 1.383 . S
C291 C292 1.395 . S
C292 H256 0.930 . S
C292 C291 1.395 . S
C292 C293 1.362 . S
C293 H257 0.930 . S
C293 C288 1.390 . S
C293 C292 1.362 . S
C294 C283 1.492 . S
C294 C295 1.377 . S
C294 C299 1.397 . S
C295 H258 0.931 . S
C295 C294 1.377 . S
C295 C296 1.376 . S
C296 H259 0.930 . S
C296 C295 1.376 . S
C296 C297 1.376 . S
C297 C296 1.376 . S
C297 C298 1.378 . S
C297 C324 1.486 1_554 S
C298 H260 0.930 . S
C298 C297 1.378 . S
C298 C299 1.376 . S
C299 H261 0.929 . S
C299 C294 1.397 . S
C299 C298 1.376 . S
C300 C284 1.509 . S
C300 C301 1.391 . S
C300 C305 1.386 . S
C301 H262 0.930 . S
C301 C300 1.391 . S
C301 C302 1.375 . S
C302 H263 0.931 . S
C302 C301 1.375 . S
C302 C303 1.375 . S
C303 C302 1.375 . S
C303 C304 1.361 . S
C304 H264 0.930 . S
C304 C303 1.361 . S
C304 C305 1.399 . S
C305 H265 0.929 . S
C305 C300 1.386 . S
C305 C304 1.399 . S
C306 C285 1.485 . S
C306 C307 1.394 . S
C306 C311 1.360 . S
C307 H266 0.931 . S
C307 C306 1.394 . S
C307 C308 1.372 . S
C308 H267 0.930 . S
C308 C307 1.372 . S
C308 C309 1.397 . S
C309 C308 1.397 . S
C309 C310 1.390 . S
C309 C325 1.476 . S
C310 H268 0.930 . S
C310 C309 1.390 . S
C310 C311 1.366 . S
C311 H269 0.932 . S
C311 C306 1.360 . S
C311 C310 1.366 . S
C312 C286 1.490 . S
C312 C313 1.380 . S
C312 C317 1.386 . S
C313 H270 0.930 . S
C313 C312 1.380 . S
C313 C314 1.381 . S
C314 H271 0.929 . S
C314 C313 1.381 . S
C314 C315 1.371 . S
C315 C314 1.371 . S
C315 C316 1.380 . S
C316 H272 0.931 . S
C316 C315 1.380 . S
C316 C317 1.387 . S
C317 H273 0.930 . S
C317 C312 1.386 . S
C317 C316 1.387 . S
C318 C287 1.519 . S
C318 C319 1.377 . S
C318 C323 1.361 . S
C319 H274 0.929 . S
C319 C318 1.377 . S
C319 C320 1.386 . S
C320 H275 0.931 . S
C320 C319 1.386 . S
C320 C321 1.363 . S
C321 C320 1.363 . S
C321 C322 1.385 . S
C322 H276 0.930 . S
C322 C321 1.385 . S
C322 C323 1.396 . S
C323 H277 0.929 . S
C323 C318 1.361 . S
C323 C322 1.396 . S
C324 O278 1.300 . S
C324 O279 1.209 . S
C324 C297 1.486 1_556 S
C325 O280 1.199 . S
C325 O281 1.297 . S
C325 C309 1.476 . S
H326 O352 0.856 . S
H327 O355 0.854 . S
H328 C363 0.930 . S
H329 C364 0.930 . S
H330 C366 0.930 . S
H331 C367 0.930 . S
H332 C369 0.931 . S
H333 C370 0.930 . S
H334 C372 0.930 . S
H335 C373 0.929 . S
H336 C375 0.930 . S
H337 C376 0.931 . S
H338 C378 0.930 . S
H339 C379 0.929 . S
H340 C381 0.931 . S
H341 C382 0.930 . S
H342 C384 0.930 1_545 S
H343 C385 0.932 . S
H344 C387 0.930 . S
H345 C388 0.929 . S
H346 C390 0.931 . S
H347 C391 0.930 . S
H348 C393 0.929 . S
H349 C394 0.931 . S
H350 C396 0.930 . S
H351 C397 0.929 . S
O352 H326 0.856 . S
O352 C398 1.300 . S
O353 C398 1.209 . S
O354 C399 1.199 . S
O355 H327 0.854 . S
O355 C399 1.297 . S
C356 C357 1.404 . S
C356 C361 1.397 . S
C356 C362 1.492 . S
C357 C356 1.404 . S
C357 C358 1.396 . S
C357 C368 1.492 . S
C358 C357 1.396 . S
C358 C359 1.397 . S
C358 C374 1.509 . S
C359 C358 1.397 . S
C359 C360 1.412 . S
C359 C380 1.485 . S
C360 C359 1.412 . S
C360 C361 1.388 . S
C360 C386 1.490 . S
C361 C356 1.397 . S
C361 C360 1.388 . S
C361 C392 1.519 . S
C362 C356 1.492 . S
C362 C363 1.363 . S
C362 C367 1.390 . S
C363 H328 0.930 . S
C363 C362 1.363 . S
C363 C364 1.372 . S
C364 H329 0.930 . S
C364 C363 1.372 . S
C364 C365 1.383 . S
C365 C364 1.383 . S
C365 C366 1.395 . S
C366 H330 0.930 . S
C366 C365 1.395 . S
C366 C367 1.362 . S
C367 H331 0.930 . S
C367 C362 1.390 . S
C367 C366 1.362 . S
C368 C357 1.492 . S
C368 C369 1.377 . S
C368 C373 1.397 . S
C369 H332 0.931 . S
C369 C368 1.377 . S
C369 C370 1.376 . S
C370 H333 0.930 . S
C370 C369 1.376 . S
C370 C371 1.376 . S
C371 C370 1.376 . S
C371 C372 1.378 . S
C371 C398 1.486 1_554 S
C372 H334 0.930 . S
C372 C371 1.378 . S
C372 C373 1.376 . S
C373 H335 0.929 . S
C373 C368 1.397 . S
C373 C372 1.376 . S
C374 C358 1.509 . S
C374 C375 1.391 . S
C374 C379 1.386 . S
C375 H336 0.930 . S
C375 C374 1.391 . S
C375 C376 1.375 . S
C376 H337 0.931 . S
C376 C375 1.375 . S
C376 C377 1.375 . S
C377 C376 1.375 . S
C377 C378 1.361 . S
C378 H338 0.930 . S
C378 C377 1.361 . S
C378 C379 1.399 . S
C379 H339 0.929 . S
C379 C374 1.386 . S
C379 C378 1.399 . S
C380 C359 1.485 . S
C380 C381 1.394 . S
C380 C385 1.360 . S
C381 H340 0.931 . S
C381 C380 1.394 . S
C381 C382 1.372 . S
C382 H341 0.930 . S
C382 C381 1.372 . S
C382 C383 1.397 . S
C383 C382 1.397 . S
C383 C384 1.390 . S
C383 C399 1.476 1_565 S
C384 H342 0.930 1_565 S
C384 C383 1.390 . S
C384 C385 1.366 . S
C385 H343 0.932 . S
C385 C380 1.360 . S
C385 C384 1.366 . S
C386 C360 1.490 . S
C386 C387 1.380 . S
C386 C391 1.386 . S
C387 H344 0.930 . S
C387 C386 1.380 . S
C387 C388 1.381 . S
C388 H345 0.929 . S
C388 C387 1.381 . S
C388 C389 1.371 . S
C389 C388 1.371 . S
C389 C390 1.380 . S
C390 H346 0.931 . S
C390 C389 1.380 . S
C390 C391 1.387 . S
C391 H347 0.930 . S
C391 C386 1.386 . S
C391 C390 1.387 . S
C392 C361 1.519 . S
C392 C393 1.377 . S
C392 C397 1.361 . S
C393 H348 0.929 . S
C393 C392 1.377 . S
C393 C394 1.386 . S
C394 H349 0.931 . S
C394 C393 1.386 . S
C394 C395 1.363 . S
C395 C394 1.363 . S
C395 C396 1.385 . S
C396 H350 0.930 . S
C396 C395 1.385 . S
C396 C397 1.396 . S
C397 H351 0.929 . S
C397 C392 1.361 . S
C397 C396 1.396 . S
C398 O352 1.300 . S
C398 O353 1.209 . S
C398 C371 1.486 1_556 S
C399 O354 1.199 . S
C399 O355 1.297 . S
C399 C383 1.476 1_545 S
H400 O426 0.856 . S
H401 O429 0.854 . S
H402 C437 0.930 . S
H403 C438 0.930 . S
H404 C440 0.930 . S
H405 C441 0.930 . S
H406 C443 0.931 . S
H407 C444 0.930 . S
H408 C446 0.930 . S
H409 C447 0.929 . S
H410 C449 0.930 . S
H411 C450 0.931 . S
H412 C452 0.930 . S
H413 C453 0.929 . S
H414 C455 0.931 . S
H415 C456 0.937 . S
H416 C458 0.930 . S
H417 C459 0.932 . S
H418 C461 0.930 . S
H419 C462 0.929 . S
H420 C464 0.931 . S
H421 C465 0.930 . S
H422 C467 0.929 . S
H423 C468 0.931 . S
H424 C470 0.930 . S
H425 C471 0.929 . S
O426 H400 0.856 . S
O426 C472 1.300 . S
O427 C472 1.209 . S
O428 C473 1.199 . S
O429 H401 0.854 . S
O429 C473 1.297 . S
C430 C431 1.404 . S
C430 C435 1.397 . S
C430 C436 1.492 . S
C431 C430 1.404 . S
C431 C432 1.396 . S
C431 C442 1.492 . S
C432 C431 1.396 . S
C432 C433 1.397 . S
C432 C448 1.509 . S
C433 C432 1.397 . S
C433 C434 1.412 . S
C433 C454 1.485 . S
C434 C433 1.412 . S
C434 C435 1.388 . S
C434 C460 1.490 . S
C435 C430 1.397 . S
C435 C434 1.388 . S
C435 C466 1.519 . S
C436 C430 1.492 . S
C436 C437 1.363 . S
C436 C441 1.390 . S
C437 H402 0.930 . S
C437 C436 1.363 . S
C437 C438 1.372 . S
C438 H403 0.930 . S
C438 C437 1.372 . S
C438 C439 1.383 . S
C439 C438 1.383 . S
C439 C440 1.395 . S
C440 H404 0.930 . S
C440 C439 1.395 . S
C440 C441 1.362 . S
C441 H405 0.930 . S
C441 C436 1.390 . S
C441 C440 1.362 . S
C442 C431 1.492 . S
C442 C443 1.377 . S
C442 C447 1.397 . S
C443 H406 0.931 . S
C443 C442 1.377 . S
C443 C444 1.376 . S
C444 H407 0.930 . S
C444 C443 1.376 . S
C444 C445 1.376 . S
C445 C444 1.376 . S
C445 C446 1.378 . S
C445 C472 1.486 1_554 S
C446 H408 0.930 . S
C446 C445 1.378 . S
C446 C447 1.376 . S
C447 H409 0.929 . S
C447 C442 1.397 . S
C447 C446 1.376 . S
C448 C432 1.509 . S
C448 C449 1.391 . S
C448 C453 1.386 . S
C449 H410 0.930 . S
C449 C448 1.391 . S
C449 C450 1.375 . S
C450 H411 0.931 . S
C450 C449 1.375 . S
C450 C451 1.375 . S
C451 C450 1.375 . S
C451 C452 1.361 . S
C452 H412 0.930 . S
C452 C451 1.361 . S
C452 C453 1.399 . S
C453 H413 0.929 . S
C453 C448 1.386 . S
C453 C452 1.399 . S
C454 C433 1.485 . S
C454 C455 1.394 . S
C454 C459 1.360 . S
C455 H414 0.931 . S
C455 C454 1.394 . S
C455 C456 1.369 1_565 S
C456 H415 0.937 . S
C456 C455 1.369 1_545 S
C456 C457 1.393 . S
C457 C456 1.393 . S
C457 C458 1.390 1_545 S
C457 C473 1.476 . S
C458 H416 0.930 . S
C458 C457 1.390 1_565 S
C458 C459 1.366 . S
C459 H417 0.932 . S
C459 C454 1.360 . S
C459 C458 1.366 . S
C460 C434 1.490 . S
C460 C461 1.380 . S
C460 C465 1.386 . S
C461 H418 0.930 . S
C461 C460 1.380 . S
C461 C462 1.381 . S
C462 H419 0.929 . S
C462 C461 1.381 . S
C462 C463 1.371 . S
C463 C462 1.371 . S
C463 C464 1.380 . S
C464 H420 0.931 . S
C464 C463 1.380 . S
C464 C465 1.387 . S
C465 H421 0.930 . S
C465 C460 1.386 . S
C465 C464 1.387 . S
C466 C435 1.519 . S
C466 C467 1.377 . S
C466 C471 1.361 . S
C467 H422 0.929 . S
C467 C466 1.377 . S
C467 C468 1.386 . S
C468 H423 0.931 . S
C468 C467 1.386 . S
C468 C469 1.363 . S
C469 C468 1.363 . S
C469 C470 1.385 . S
C470 H424 0.930 . S
C470 C469 1.385 . S
C470 C471 1.396 . S
C471 H425 0.929 . S
C471 C466 1.361 . S
C471 C470 1.396 . S
C472 O426 1.300 . S
C472 O427 1.209 . S
C472 C445 1.486 1_556 S
C473 O428 1.199 . S
C473 O429 1.297 . S
C473 C457 1.476 . S
H474 O500 0.856 . S
H475 O503 0.854 . S
H476 C511 0.930 . S
H477 C512 0.930 . S
H478 C514 0.930 . S
H479 C515 0.930 . S
H480 C517 0.926 1_556 S
H481 C518 0.930 . S
H482 C520 0.930 . S
H483 C521 0.929 . S
H484 C523 0.930 . S
H485 C524 0.931 1_554 S
H486 C526 0.931 1_554 S
H487 C527 0.929 . S
H488 C529 0.931 . S
H489 C530 0.930 1_565 S
H490 C532 0.930 . S
H491 C533 0.932 . S
H492 C535 0.930 . S
H493 C536 0.929 . S
H494 C538 0.931 . S
H495 C539 0.930 . S
H496 C541 0.929 . S
H497 C542 0.931 . S
H498 C544 0.930 . S
H499 C545 0.929 . S
O500 H474 0.856 . S
O500 C546 1.300 . S
O501 C546 1.209 . S
O502 C547 1.199 . S
O503 H475 0.854 . S
O503 C547 1.297 . S
C504 C505 1.404 . S
C504 C509 1.397 . S
C504 C510 1.492 . S
C505 C504 1.404 . S
C505 C506 1.396 . S
C505 C516 1.492 . S
C506 C505 1.396 . S
C506 C507 1.397 . S
C506 C522 1.509 . S
C507 C506 1.397 . S
C507 C508 1.412 . S
C507 C528 1.485 . S
C508 C507 1.412 . S
C508 C509 1.388 . S
C508 C534 1.490 . S
C509 C504 1.397 . S
C509 C508 1.388 . S
C509 C540 1.519 . S
C510 C504 1.492 . S
C510 C511 1.363 . S
C510 C515 1.390 . S
C511 H476 0.930 . S
C511 C510 1.363 . S
C511 C512 1.372 . S
C512 H477 0.930 . S
C512 C511 1.372 . S
C512 C513 1.383 . S
C513 C512 1.383 . S
C513 C514 1.395 . S
C514 H478 0.930 . S
C514 C513 1.395 . S
C514 C515 1.362 . S
C515 H479 0.930 . S
C515 C510 1.390 . S
C515 C514 1.362 . S
C516 C505 1.492 . S
C516 C517 1.377 1_556 S
C516 C521 1.397 . S
C517 H480 0.926 1_554 S
C517 C516 1.377 1_554 S
C517 C518 1.376 . S
C518 H481 0.930 . S
C518 C517 1.376 . S
C518 C519 1.376 . S
C519 C518 1.376 . S
C519 C520 1.378 . S
C519 C546 1.486 . S
C520 H482 0.930 . S
C520 C519 1.378 . S
C520 C521 1.376 1_554 S
C521 H483 0.929 . S
C521 C516 1.397 . S
C521 C520 1.376 1_556 S
C522 C506 1.509 . S
C522 C523 1.391 . S
C522 C527 1.386 . S
C523 H484 0.930 . S
C523 C522 1.391 . S
C523 C524 1.375 . S
C524 H485 0.931 1_556 S
C524 C523 1.375 . S
C524 C525 1.375 1_556 S
C525 C524 1.375 1_554 S
C525 C526 1.362 1_554 S
C526 H486 0.931 1_556 S
C526 C525 1.362 1_556 S
C526 C527 1.398 . S
C527 H487 0.929 . S
C527 C522 1.386 . S
C527 C526 1.398 . S
C528 C507 1.485 . S
C528 C529 1.394 . S
C528 C533 1.360 . S
C529 H488 0.931 . S
C529 C528 1.394 . S
C529 C530 1.372 . S
C530 H489 0.930 1_545 S
C530 C529 1.372 . S
C530 C531 1.397 . S
C531 C530 1.397 . S
C531 C532 1.390 . S
C531 C547 1.476 1_545 S
C532 H490 0.930 . S
C532 C531 1.390 . S
C532 C533 1.366 . S
C533 H491 0.932 . S
C533 C528 1.360 . S
C533 C532 1.366 . S
C534 C508 1.490 . S
C534 C535 1.380 . S
C534 C539 1.386 . S
C535 H492 0.930 . S
C535 C534 1.380 . S
C535 C536 1.381 . S
C536 H493 0.929 . S
C536 C535 1.381 . S
C536 C537 1.371 . S
C537 C536 1.371 . S
C537 C538 1.380 . S
C538 H494 0.931 . S
C538 C537 1.380 . S
C538 C539 1.387 . S
C539 H495 0.930 . S
C539 C534 1.386 . S
C539 C538 1.387 . S
C540 C509 1.519 . S
C540 C541 1.377 . S
C540 C545 1.361 . S
C541 H496 0.929 . S
C541 C540 1.377 . S
C541 C542 1.386 . S
C542 H497 0.931 . S
C542 C541 1.386 . S
C542 C543 1.363 . S
C543 C542 1.363 . S
C543 C544 1.385 . S
C544 H498 0.930 . S
C544 C543 1.385 . S
C544 C545 1.396 . S
C545 H499 0.929 . S
C545 C540 1.361 . S
C545 C544 1.396 . S
C546 O500 1.300 . S
C546 O501 1.209 . S
C546 C519 1.486 . S
C547 O502 1.199 . S
C547 O503 1.297 . S
C547 C531 1.476 1_565 S
H548 O574 0.856 . S
H549 O577 0.854 . S
H550 C585 0.930 . S
H551 C586 0.930 . S
H552 C588 0.930 . S
H553 C589 0.930 . S
H554 C591 0.931 . S
H555 C592 0.930 . S
H556 C594 0.930 . S
H557 C595 0.929 . S
H558 C597 0.930 . S
H559 C598 0.932 . S
H560 C600 0.930 . S
H561 C601 0.929 . S
H562 C603 0.931 . S
H563 C604 0.930 . S
H564 C606 0.930 . S
H565 C607 0.932 . S
H566 C609 0.930 . S
H567 C610 0.929 . S
H568 C612 0.931 . S
H569 C613 0.930 . S
H570 C615 0.929 . S
H571 C616 0.931 . S
H572 C618 0.930 . S
H573 C619 0.929 . S
O574 H548 0.856 . S
O574 C620 1.300 . S
O575 C620 1.209 . S
O576 C621 1.199 . S
O577 H549 0.854 . S
O577 C621 1.297 . S
C578 C579 1.404 . S
C578 C583 1.397 . S
C578 C584 1.492 . S
C579 C578 1.404 . S
C579 C580 1.396 . S
C579 C590 1.492 . S
C580 C579 1.396 . S
C580 C581 1.397 . S
C580 C596 1.509 . S
C581 C580 1.397 . S
C581 C582 1.412 . S
C581 C602 1.485 . S
C582 C581 1.412 . S
C582 C583 1.388 . S
C582 C608 1.490 . S
C583 C578 1.397 . S
C583 C582 1.388 . S
C583 C614 1.519 . S
C584 C578 1.492 . S
C584 C585 1.363 . S
C584 C589 1.390 . S
C585 H550 0.930 . S
C585 C584 1.363 . S
C585 C586 1.372 . S
C586 H551 0.930 . S
C586 C585 1.372 . S
C586 C587 1.383 . S
C587 C586 1.383 . S
C587 C588 1.395 . S
C588 H552 0.930 . S
C588 C587 1.395 . S
C588 C589 1.362 . S
C589 H553 0.930 . S
C589 C584 1.390 . S
C589 C588 1.362 . S
C590 C579 1.492 . S
C590 C591 1.377 1_556 S
C590 C595 1.397 1_556 S
C591 H554 0.931 . S
C591 C590 1.377 1_554 S
C591 C592 1.376 . S
C592 H555 0.930 . S
C592 C591 1.376 . S
C592 C593 1.376 . S
C593 C592 1.376 . S
C593 C594 1.378 . S
C593 C620 1.486 . S
C594 H556 0.930 . S
C594 C593 1.378 . S
C594 C595 1.376 . S
C595 H557 0.929 . S
C595 C590 1.397 1_554 S
C595 C594 1.376 . S
C596 C580 1.509 . S
C596 C597 1.391 . S
C596 C601 1.386 . S
C597 H558 0.930 . S
C597 C596 1.391 . S
C597 C598 1.368 1_556 S
C598 H559 0.932 . S
C598 C597 1.368 1_554 S
C598 C599 1.381 . S
C599 C598 1.381 . S
C599 C600 1.361 . S
C600 H560 0.930 . S
C600 C599 1.361 . S
C600 C601 1.399 1_554 S
C601 H561 0.929 . S
C601 C596 1.386 . S
C601 C600 1.399 1_556 S
C602 C581 1.485 . S
C602 C603 1.394 . S
C602 C607 1.360 . S
C603 H562 0.931 . S
C603 C602 1.394 . S
C603 C604 1.372 . S
C604 H563 0.930 . S
C604 C603 1.372 . S
C604 C605 1.397 1_545 S
C605 C604 1.397 1_565 S
C605 C606 1.390 . S
C605 C621 1.476 . S
C606 H564 0.930 . S
C606 C605 1.390 . S
C606 C607 1.366 1_565 S
C607 H565 0.932 . S
C607 C602 1.360 . S
C607 C606 1.366 1_545 S
C608 C582 1.490 . S
C608 C609 1.380 . S
C608 C613 1.386 . S
C609 H566 0.930 . S
C609 C608 1.380 . S
C609 C610 1.381 . S
C610 H567 0.929 . S
C610 C609 1.381 . S
C610 C611 1.371 . S
C611 C610 1.371 . S
C611 C612 1.380 . S
C612 H568 0.931 . S
C612 C611 1.380 . S
C612 C613 1.387 . S
C613 H569 0.930 . S
C613 C608 1.386 . S
C613 C612 1.387 . S
C614 C583 1.519 . S
C614 C615 1.377 . S
C614 C619 1.361 . S
C615 H570 0.929 . S
C615 C614 1.377 . S
C615 C616 1.386 . S
C616 H571 0.931 . S
C616 C615 1.386 . S
C616 C617 1.363 . S
C617 C616 1.363 . S
C617 C618 1.385 . S
C618 H572 0.930 . S
C618 C617 1.385 . S
C618 C619 1.396 . S
C619 H573 0.929 . S
C619 C614 1.361 . S
C619 C618 1.396 . S
C620 O574 1.300 . S
C620 O575 1.209 . S
C620 C593 1.486 . S
C621 O576 1.199 . S
C621 O577 1.297 . S
C621 C605 1.476 . S
H622 O648 0.856 . S
H623 O651 0.854 . S
H624 C659 0.930 . S
H625 C660 0.925 1_554 S
H626 C662 0.930 . S
H627 C663 0.930 . S
H628 C665 0.931 . S
H629 C666 0.930 . S
H630 C668 0.930 . S
H631 C669 0.929 1_556 S
H632 C671 0.930 1_556 S
H633 C672 0.931 . S
H634 C674 0.930 . S
H635 C675 0.929 . S
H636 C677 0.931 . S
H637 C678 0.930 . S
H638 C680 0.930 . S
H639 C681 0.932 . S
H640 C683 0.930 . S
H641 C684 0.929 . S
H642 C686 0.931 . S
H643 C687 0.930 . S
H644 C689 0.929 . S
H645 C690 0.931 . S
H646 C692 0.930 . S
H647 C693 0.929 . S
O648 H622 0.856 . S
O648 C694 1.300 . S
O649 C694 1.209 . S
O650 C695 1.199 . S
O651 H623 0.854 . S
O651 C695 1.297 . S
C652 C653 1.404 . S
C652 C657 1.397 . S
C652 C658 1.492 . S
C653 C652 1.404 . S
C653 C654 1.396 . S
C653 C664 1.492 1_556 S
C654 C653 1.396 . S
C654 C655 1.397 . S
C654 C670 1.509 . S
C655 C654 1.397 . S
C655 C656 1.412 . S
C655 C676 1.485 . S
C656 C655 1.412 . S
C656 C657 1.388 . S
C656 C682 1.490 . S
C657 C652 1.397 . S
C657 C656 1.388 . S
C657 C688 1.519 . S
C658 C652 1.492 . S
C658 C659 1.363 . S
C658 C663 1.390 . S
C659 H624 0.930 . S
C659 C658 1.363 . S
C659 C660 1.372 . S
C660 H625 0.925 1_556 S
C660 C659 1.372 . S
C660 C661 1.383 . S
C661 C660 1.383 . S
C661 C662 1.395 . S
C662 H626 0.930 . S
C662 C661 1.395 . S
C662 C663 1.362 . S
C663 H627 0.930 . S
C663 C658 1.390 . S
C663 C662 1.362 . S
C664 C653 1.492 1_554 S
C664 C665 1.377 . S
C664 C669 1.397 . S
C665 H628 0.931 . S
C665 C664 1.377 . S
C665 C666 1.376 . S
C666 H629 0.930 . S
C666 C665 1.376 . S
C666 C667 1.376 . S
C667 C666 1.376 . S
C667 C668 1.378 . S
C667 C694 1.486 . S
C668 H630 0.930 . S
C668 C667 1.378 . S
C668 C669 1.376 . S
C669 H631 0.929 1_554 S
C669 C664 1.397 . S
C669 C668 1.376 . S
C670 C654 1.509 . S
C670 C671 1.391 1_556 S
C670 C675 1.386 . S
C671 H632 0.930 1_554 S
C671 C670 1.391 1_554 S
C671 C672 1.375 . S
C672 H633 0.931 . S
C672 C671 1.375 . S
C672 C673 1.375 . S
C673 C672 1.375 . S
C673 C674 1.361 . S
C674 H634 0.930 . S
C674 C673 1.361 . S
C674 C675 1.399 1_554 S
C675 H635 0.929 . S
C675 C670 1.386 . S
C675 C674 1.399 1_556 S
C676 C655 1.485 . S
C676 C677 1.394 . S
C676 C681 1.360 . S
C677 H636 0.931 . S
C677 C676 1.394 . S
C677 C678 1.372 . S
C678 H637 0.930 . S
C678 C677 1.372 . S
C678 C679 1.397 . S
C679 C678 1.397 . S
C679 C680 1.390 . S
C679 C695 1.476 . S
C680 H638 0.930 . S
C680 C679 1.390 . S
C680 C681 1.366 . S
C681 H639 0.932 . S
C681 C676 1.360 . S
C681 C680 1.366 . S
C682 C656 1.490 . S
C682 C683 1.380 . S
C682 C687 1.386 . S
C683 H640 0.930 . S
C683 C682 1.380 . S
C683 C684 1.381 . S
C684 H641 0.929 . S
C684 C683 1.381 . S
C684 C685 1.371 . S
C685 C684 1.371 . S
C685 C686 1.380 . S
C686 H642 0.931 . S
C686 C685 1.380 . S
C686 C687 1.387 . S
C687 H643 0.930 . S
C687 C682 1.386 . S
C687 C686 1.387 . S
C688 C657 1.519 . S
C688 C689 1.377 . S
C688 C693 1.361 . S
C689 H644 0.929 . S
C689 C688 1.377 . S
C689 C690 1.386 . S
C690 H645 0.931 . S
C690 C689 1.386 . S
C690 C691 1.363 . S
C691 C690 1.363 . S
C691 C692 1.385 . S
C692 H646 0.930 . S
C692 C691 1.385 . S
C692 C693 1.396 . S
C693 H647 0.929 . S
C693 C688 1.361 . S
C693 C692 1.396 . S
C694 O648 1.300 . S
C694 O649 1.209 . S
C694 C667 1.486 . S
C695 O650 1.199 . S
C695 O651 1.297 . S
C695 C679 1.476 . S
H696 O722 0.856 . S
H697 O725 0.854 1_455 S
H698 C733 0.930 . S
H699 C734 0.930 . S
H700 C736 0.930 . S
H701 C737 0.930 . S
H702 C739 0.931 . S
H703 C740 0.930 . S
H704 C742 0.930 . S
H705 C743 0.929 . S
H706 C745 0.930 . S
H707 C746 0.931 . S
H708 C748 0.930 . S
H709 C749 0.929 . S
H710 C751 0.931 . S
H711 C752 0.930 . S
H712 C754 0.930 . S
H713 C755 0.932 . S
H714 C757 0.930 . S
H715 C758 0.929 . S
H716 C760 0.931 . S
H717 C761 0.930 . S
H718 C763 0.929 . S
H719 C764 0.931 . S
H720 C766 0.930 . S
H721 C767 0.929 . S
O722 H696 0.856 . S
O722 C768 1.300 . S
O723 C768 1.209 . S
O724 C769 1.199 1_455 S
O725 H697 0.854 1_655 S
O725 C769 1.297 . S
C726 C727 1.404 . S
C726 C731 1.397 . S
C726 C732 1.492 . S
C727 C726 1.404 . S
C727 C728 1.396 . S
C727 C738 1.492 . S
C728 C727 1.396 . S
C728 C729 1.397 . S
C728 C744 1.509 . S
C729 C728 1.397 . S
C729 C730 1.412 . S
C729 C750 1.485 . S
C730 C729 1.412 . S
C730 C731 1.388 . S
C730 C756 1.490 . S
C731 C726 1.397 . S
C731 C730 1.388 . S
C731 C762 1.519 . S
C732 C726 1.492 . S
C732 C733 1.363 . S
C732 C737 1.390 . S
C733 H698 0.930 . S
C733 C732 1.363 . S
C733 C734 1.372 . S
C734 H699 0.930 . S
C734 C733 1.372 . S
C734 C735 1.383 . S
C735 C734 1.383 . S
C735 C736 1.395 . S
C736 H700 0.930 . S
C736 C735 1.395 . S
C736 C737 1.362 . S
C737 H701 0.930 . S
C737 C732 1.390 . S
C737 C736 1.362 . S
C738 C727 1.492 . S
C738 C739 1.377 . S
C738 C743 1.397 . S
C739 H702 0.931 . S
C739 C738 1.377 . S
C739 C740 1.376 . S
C740 H703 0.930 . S
C740 C739 1.376 . S
C740 C741 1.376 . S
C741 C740 1.376 . S
C741 C742 1.378 . S
C741 C768 1.486 . S
C742 H704 0.930 . S
C742 C741 1.378 . S
C742 C743 1.376 . S
C743 H705 0.929 . S
C743 C738 1.397 . S
C743 C742 1.376 . S
C744 C728 1.509 . S
C744 C745 1.391 . S
C744 C749 1.386 . S
C745 H706 0.930 . S
C745 C744 1.391 . S
C745 C746 1.375 . S
C746 H707 0.931 . S
C746 C745 1.375 . S
C746 C747 1.375 . S
C747 C746 1.375 . S
C747 C748 1.361 . S
C748 H708 0.930 . S
C748 C747 1.361 . S
C748 C749 1.399 . S
C749 H709 0.929 . S
C749 C744 1.386 . S
C749 C748 1.399 . S
C750 C729 1.485 . S
C750 C751 1.394 . S
C750 C755 1.360 . S
C751 H710 0.931 . S
C751 C750 1.394 . S
C751 C752 1.372 . S
C752 H711 0.930 . S
C752 C751 1.372 . S
C752 C753 1.397 . S
C753 C752 1.397 . S
C753 C754 1.390 . S
C753 C769 1.476 . S
C754 H712 0.930 . S
C754 C753 1.390 . S
C754 C755 1.366 . S
C755 H713 0.932 . S
C755 C750 1.360 . S
C755 C754 1.366 . S
C756 C730 1.490 . S
C756 C757 1.380 . S
C756 C761 1.386 . S
C757 H714 0.930 . S
C757 C756 1.380 . S
C757 C758 1.381 . S
C758 H715 0.929 . S
C758 C757 1.381 . S
C758 C759 1.371 . S
C759 C758 1.371 . S
C759 C760 1.380 . S
C760 H716 0.931 . S
C760 C759 1.380 . S
C760 C761 1.387 . S
C761 H717 0.930 . S
C761 C756 1.386 . S
C761 C760 1.387 . S
C762 C731 1.519 . S
C762 C763 1.377 . S
C762 C767 1.361 . S
C763 H718 0.929 . S
C763 C762 1.377 . S
C763 C764 1.386 . S
C764 H719 0.931 . S
C764 C763 1.386 . S
C764 C765 1.363 . S
C765 C764 1.363 . S
C765 C766 1.385 . S
C766 H720 0.930 . S
C766 C765 1.385 . S
C766 C767 1.396 . S
C767 H721 0.929 . S
C767 C762 1.361 . S
C767 C766 1.396 . S
C768 O722 1.300 . S
C768 O723 1.209 . S
C768 C741 1.486 . S
C769 O724 1.199 1_655 S
C769 O725 1.297 . S
C769 C753 1.476 . S
H770 O796 0.856 . S
H771 O799 0.854 . S
H772 C807 0.930 . S
H773 C808 0.930 . S
H774 C810 0.930 . S
H775 C811 0.930 . S
H776 C813 0.931 . S
H777 C814 0.930 . S
H778 C816 0.930 . S
H779 C817 0.929 . S
H780 C819 0.930 . S
H781 C820 0.931 . S
H782 C822 0.930 . S
H783 C823 0.929 . S
H784 C825 0.931 . S
H785 C826 0.930 . S
H786 C828 0.930 . S
H787 C829 0.932 . S
H788 C831 0.930 . S
H789 C832 0.929 . S
H790 C834 0.931 . S
H791 C835 0.930 . S
H792 C837 0.929 . S
H793 C838 0.931 . S
H794 C840 0.930 . S
H795 C841 0.929 . S
O796 H770 0.856 . S
O796 C842 1.300 . S
O797 C842 1.209 . S
O798 C843 1.199 . S
O799 H771 0.854 . S
O799 C843 1.297 . S
C800 C801 1.404 . S
C800 C805 1.397 . S
C800 C806 1.492 . S
C801 C800 1.404 . S
C801 C802 1.396 . S
C801 C812 1.492 . S
C802 C801 1.396 . S
C802 C803 1.397 . S
C802 C818 1.509 . S
C803 C802 1.397 . S
C803 C804 1.412 . S
C803 C824 1.485 . S
C804 C803 1.412 . S
C804 C805 1.388 . S
C804 C830 1.490 . S
C805 C800 1.397 . S
C805 C804 1.388 . S
C805 C836 1.519 . S
C806 C800 1.492 . S
C806 C807 1.363 . S
C806 C811 1.390 . S
C807 H772 0.930 . S
C807 C806 1.363 . S
C807 C808 1.372 . S
C808 H773 0.930 . S
C808 C807 1.372 . S
C808 C809 1.383 . S
C809 C808 1.383 . S
C809 C810 1.395 . S
C810 H774 0.930 . S
C810 C809 1.395 . S
C810 C811 1.362 . S
C811 H775 0.930 . S
C811 C806 1.390 . S
C811 C810 1.362 . S
C812 C801 1.492 . S
C812 C813 1.377 . S
C812 C817 1.397 . S
C813 H776 0.931 . S
C813 C812 1.377 . S
C813 C814 1.376 . S
C814 H777 0.930 . S
C814 C813 1.376 . S
C814 C815 1.376 . S
C815 C814 1.376 . S
C815 C816 1.378 . S
C815 C842 1.486 . S
C816 H778 0.930 . S
C816 C815 1.378 . S
C816 C817 1.376 . S
C817 H779 0.929 . S
C817 C812 1.397 . S
C817 C816 1.376 . S
C818 C802 1.509 . S
C818 C819 1.391 . S
C818 C823 1.386 . S
C819 H780 0.930 . S
C819 C818 1.391 . S
C819 C820 1.375 . S
C820 H781 0.931 . S
C820 C819 1.375 . S
C820 C821 1.375 . S
C821 C820 1.375 . S
C821 C822 1.361 . S
C822 H782 0.930 . S
C822 C821 1.361 . S
C822 C823 1.399 . S
C823 H783 0.929 . S
C823 C818 1.386 . S
C823 C822 1.399 . S
C824 C803 1.485 . S
C824 C825 1.394 . S
C824 C829 1.360 . S
C825 H784 0.931 . S
C825 C824 1.394 . S
C825 C826 1.372 . S
C826 H785 0.930 . S
C826 C825 1.372 . S
C826 C827 1.397 . S
C827 C826 1.397 . S
C827 C828 1.390 . S
C827 C843 1.476 . S
C828 H786 0.930 . S
C828 C827 1.390 . S
C828 C829 1.366 . S
C829 H787 0.932 . S
C829 C824 1.360 . S
C829 C828 1.366 . S
C830 C804 1.490 . S
C830 C831 1.380 . S
C830 C835 1.386 . S
C831 H788 0.930 . S
C831 C830 1.380 . S
C831 C832 1.381 . S
C832 H789 0.929 . S
C832 C831 1.381 . S
C832 C833 1.371 . S
C833 C832 1.371 . S
C833 C834 1.380 . S
C834 H790 0.931 . S
C834 C833 1.380 . S
C834 C835 1.387 . S
C835 H791 0.930 . S
C835 C830 1.386 . S
C835 C834 1.387 . S
C836 C805 1.519 . S
C836 C837 1.377 . S
C836 C841 1.361 . S
C837 H792 0.929 . S
C837 C836 1.377 . S
C837 C838 1.386 . S
C838 H793 0.931 . S
C838 C837 1.386 . S
C838 C839 1.363 . S
C839 C838 1.363 . S
C839 C840 1.385 . S
C840 H794 0.930 . S
C840 C839 1.385 . S
C840 C841 1.396 . S
C841 H795 0.929 . S
C841 C836 1.361 . S
C841 C840 1.396 . S
C842 O796 1.300 . S
C842 O797 1.209 . S
C842 C815 1.486 . S
C843 O798 1.199 . S
C843 O799 1.297 . S
C843 C827 1.476 . S
H844 O870 0.856 . S
H845 O873 0.854 . S
H846 C881 0.930 . S
H847 C882 0.930 . S
H848 C884 0.930 . S
H849 C885 0.930 . S
H850 C887 0.931 . S
H851 C888 0.930 . S
H852 C890 0.930 . S
H853 C891 0.929 . S
H854 C893 0.930 . S
H855 C894 0.931 . S
H856 C896 0.930 . S
H857 C897 0.929 . S
H858 C899 0.931 . S
H859 C900 0.930 . S
H860 C902 0.935 . S
H861 C903 0.932 . S
H862 C905 0.930 . S
H863 C906 0.929 . S
H864 C908 0.931 . S
H865 C909 0.930 . S
H866 C911 0.929 . S
H867 C912 0.931 . S
H868 C914 0.930 . S
H869 C915 0.929 . S
O870 H844 0.856 . S
O870 C916 1.300 . S
O871 C916 1.209 . S
O872 C917 1.199 . S
O873 H845 0.854 . S
O873 C917 1.297 . S
C874 C875 1.404 . S
C874 C879 1.397 . S
C874 C880 1.492 . S
C875 C874 1.404 . S
C875 C876 1.396 . S
C875 C886 1.492 . S
C876 C875 1.396 . S
C876 C877 1.397 . S
C876 C892 1.509 . S
C877 C876 1.397 . S
C877 C878 1.412 . S
C877 C898 1.485 . S
C878 C877 1.412 . S
C878 C879 1.388 . S
C878 C904 1.490 . S
C879 C874 1.397 . S
C879 C878 1.388 . S
C879 C910 1.519 . S
C880 C874 1.492 . S
C880 C881 1.363 . S
C880 C885 1.390 . S
C881 H846 0.930 . S
C881 C880 1.363 . S
C881 C882 1.372 . S
C882 H847 0.930 . S
C882 C881 1.372 . S
C882 C883 1.383 . S
C883 C882 1.383 . S
C883 C884 1.395 . S
C884 H848 0.930 . S
C884 C883 1.395 . S
C884 C885 1.362 . S
C885 H849 0.930 . S
C885 C880 1.390 . S
C885 C884 1.362 . S
C886 C875 1.492 . S
C886 C887 1.377 . S
C886 C891 1.397 . S
C887 H850 0.931 . S
C887 C886 1.377 . S
C887 C888 1.376 . S
C888 H851 0.930 . S
C888 C887 1.376 . S
C888 C889 1.376 . S
C889 C888 1.376 . S
C889 C890 1.378 . S
C889 C916 1.486 . S
C890 H852 0.930 . S
C890 C889 1.378 . S
C890 C891 1.376 . S
C891 H853 0.929 . S
C891 C886 1.397 . S
C891 C890 1.376 . S
C892 C876 1.509 . S
C892 C893 1.391 . S
C892 C897 1.386 . S
C893 H854 0.930 . S
C893 C892 1.391 . S
C893 C894 1.375 . S
C894 H855 0.931 . S
C894 C893 1.375 . S
C894 C895 1.375 . S
C895 C894 1.375 . S
C895 C896 1.361 . S
C896 H856 0.930 . S
C896 C895 1.361 . S
C896 C897 1.399 . S
C897 H857 0.929 . S
C897 C892 1.386 . S
C897 C896 1.399 . S
C898 C877 1.485 . S
C898 C899 1.394 . S
C898 C903 1.360 . S
C899 H858 0.931 . S
C899 C898 1.394 . S
C899 C900 1.372 . S
C900 H859 0.930 . S
C900 C899 1.372 . S
C900 C901 1.397 . S
C901 C900 1.397 . S
C901 C902 1.390 . S
C901 C917 1.476 1_655 S
C902 H860 0.935 . S
C902 C901 1.390 . S
C902 C903 1.366 . S
C903 H861 0.932 . S
C903 C898 1.360 . S
C903 C902 1.366 . S
C904 C878 1.490 . S
C904 C905 1.380 . S
C904 C909 1.386 . S
C905 H862 0.930 . S
C905 C904 1.380 . S
C905 C906 1.381 . S
C906 H863 0.929 . S
C906 C905 1.381 . S
C906 C907 1.371 . S
C907 C906 1.371 . S
C907 C908 1.380 . S
C908 H864 0.931 . S
C908 C907 1.380 . S
C908 C909 1.387 . S
C909 H865 0.930 . S
C909 C904 1.386 . S
C909 C908 1.387 . S
C910 C879 1.519 . S
C910 C911 1.377 . S
C910 C915 1.361 . S
C911 H866 0.929 . S
C911 C910 1.377 . S
C911 C912 1.386 . S
C912 H867 0.931 . S
C912 C911 1.386 . S
C912 C913 1.363 . S
C913 C912 1.363 . S
C913 C914 1.385 . S
C914 H868 0.930 . S
C914 C913 1.385 . S
C914 C915 1.396 . S
C915 H869 0.929 . S
C915 C910 1.361 . S
C915 C914 1.396 . S
C916 O870 1.300 . S
C916 O871 1.209 . S
C916 C889 1.486 . S
C917 O872 1.199 . S
C917 O873 1.297 . S
C917 C901 1.476 1_455 S
H918 O944 0.856 . S
H919 O947 0.854 . S
H920 C955 0.930 . S
H921 C956 0.930 . S
H922 C958 0.930 . S
H923 C959 0.930 . S
H924 C961 0.931 1_655 S
H925 C962 0.930 1_655 S
H926 C964 0.930 . S
H927 C965 0.929 . S
H928 C967 0.930 . S
H929 C968 0.931 1_655 S
H930 C970 0.930 . S
H931 C971 0.929 . S
H932 C973 0.931 . S
H933 C974 0.930 . S
H934 C976 0.930 . S
H935 C977 0.932 . S
H936 C979 0.930 . S
H937 C980 0.929 . S
H938 C982 0.931 . S
H939 C983 0.930 . S
H940 C985 0.929 . S
H941 C986 0.931 . S
H942 C988 0.930 . S
H943 C989 0.929 . S
O944 H918 0.856 . S
O944 C990 1.300 . S
O945 C990 1.209 . S
O946 C991 1.199 1_655 S
O947 H919 0.854 . S
O947 C991 1.297 . S
C948 C949 1.404 . S
C948 C953 1.397 . S
C948 C954 1.492 . S
C949 C948 1.404 . S
C949 C950 1.396 . S
C949 C960 1.492 . S
C950 C949 1.396 . S
C950 C951 1.397 . S
C950 C966 1.509 . S
C951 C950 1.397 . S
C951 C952 1.418 . S
C951 C972 1.485 . S
C952 C951 1.418 . S
C952 C953 1.383 . S
C952 C978 1.490 1_455 S
C953 C948 1.397 . S
C953 C952 1.383 . S
C953 C984 1.519 1_455 S
C954 C948 1.492 . S
C954 C955 1.363 1_455 S
C954 C959 1.390 . S
C955 H920 0.930 . S
C955 C954 1.363 1_655 S
C955 C956 1.372 . S
C956 H921 0.930 . S
C956 C955 1.372 . S
C956 C957 1.392 . S
C957 C956 1.392 . S
C957 C958 1.367 1_655 S
C958 H922 0.930 . S
C958 C957 1.367 1_455 S
C958 C959 1.362 . S
C959 H923 0.930 . S
C959 C954 1.390 . S
C959 C958 1.362 . S
C960 C949 1.492 . S
C960 C961 1.377 . S
C960 C965 1.397 . S
C961 H924 0.931 1_455 S
C961 C960 1.377 . S
C961 C962 1.376 . S
C962 H925 0.930 1_455 S
C962 C961 1.376 . S
C962 C963 1.376 . S
C963 C962 1.376 . S
C963 C964 1.378 . S
C963 C990 1.486 . S
C964 H926 0.930 . S
C964 C963 1.378 . S
C964 C965 1.376 . S
C965 H927 0.929 . S
C965 C960 1.397 . S
C965 C964 1.376 . S
C966 C950 1.509 . S
C966 C967 1.391 1_455 S
C966 C971 1.386 . S
C967 H928 0.930 . S
C967 C966 1.391 1_655 S
C967 C968 1.375 1_655 S
C968 H929 0.931 1_455 S
C968 C967 1.375 1_455 S
C968 C969 1.375 . S
C969 C968 1.375 . S
C969 C970 1.361 . S
C970 H930 0.930 . S
C970 C969 1.361 . S
C970 C971 1.399 . S
C971 H931 0.929 . S
C971 C966 1.386 . S
C971 C970 1.399 . S
C972 C951 1.485 . S
C972 C973 1.394 1_455 S
C972 C977 1.360 . S
C973 H932 0.931 . S
C973 C972 1.394 1_655 S
C973 C974 1.372 . S
C974 H933 0.930 . S
C974 C973 1.372 . S
C974 C975 1.397 1_655 S
C975 C974 1.397 1_455 S
C975 C976 1.390 . S
C975 C991 1.476 . S
C976 H934 0.930 . S
C976 C975 1.390 . S
C976 C977 1.366 . S
C977 H935 0.932 . S
C977 C972 1.360 . S
C977 C976 1.366 . S
C978 C952 1.490 1_655 S
C978 C979 1.380 . S
C978 C983 1.386 1_655 S
C979 H936 0.930 . S
C979 C978 1.380 . S
C979 C980 1.381 . S
C980 H937 0.929 . S
C980 C979 1.381 . S
C980 C981 1.371 . S
C981 C980 1.371 . S
C981 C982 1.380 1_655 S
C982 H938 0.931 . S
C982 C981 1.380 1_455 S
C982 C983 1.387 . S
C983 H939 0.930 . S
C983 C978 1.386 1_455 S
C983 C982 1.387 . S
C984 C953 1.519 1_655 S
C984 C985 1.377 . S
C984 C989 1.361 1_655 S
C985 H940 0.929 . S
C985 C984 1.377 . S
C985 C986 1.386 . S
C986 H941 0.931 . S
C986 C985 1.386 . S
C986 C987 1.363 . S
C987 C986 1.363 . S
C987 C988 1.385 1_655 S
C988 H942 0.930 . S
C988 C987 1.385 1_455 S
C988 C989 1.396 . S
C989 H943 0.929 . S
C989 C984 1.361 1_455 S
C989 C988 1.396 . S
C990 O944 1.300 . S
C990 O945 1.209 . S
C990 C963 1.486 . S
C991 O946 1.199 1_455 S
C991 O947 1.297 . S
C991 C975 1.476 . S
H992 O1018 0.856 . S
H993 O1021 0.854 . S
H994 C1029 0.930 . S
H995 C1030 0.930 . S
H996 C1032 0.930 . S
H997 C1033 0.930 . S
H998 C1035 0.931 . S
H999 C1036 0.930 . S
H1000 C1038 0.930 . S
H1001 C1039 0.929 . S
H1002 C1041 0.930 . S
H1003 C1042 0.931 . S
H1004 C1044 0.930 . S
H1005 C1045 0.929 . S
H1006 C1047 0.931 . S
H1007 C1048 0.930 . S
H1008 C1050 0.930 . S
H1009 C1051 0.932 . S
H1010 C1053 0.930 . S
H1011 C1054 0.929 . S
H1012 C1056 0.931 . S
H1013 C1057 0.930 . S
H1014 C1059 0.929 . S
H1015 C1060 0.931 . S
H1016 C1062 0.930 . S
H1017 C1063 0.929 . S
O1018 H992 0.856 . S
O1018 C1064 1.300 . S
O1019 C1064 1.209 . S
O1020 C1065 1.199 . S
O1021 H993 0.854 . S
O1021 C1065 1.297 . S
C1022 C1023 1.404 . S
C1022 C1027 1.397 . S
C1022 C1028 1.492 . S
C1023 C1022 1.404 . S
C1023 C1024 1.396 . S
C1023 C1034 1.492 . S
C1024 C1023 1.396 . S
C1024 C1025 1.397 . S
C1024 C1040 1.509 . S
C1025 C1024 1.397 . S
C1025 C1026 1.412 . S
C1025 C1046 1.485 . S
C1026 C1025 1.412 . S
C1026 C1027 1.388 . S
C1026 C1052 1.490 . S
C1027 C1022 1.397 . S
C1027 C1026 1.388 . S
C1027 C1058 1.519 . S
C1028 C1022 1.492 . S
C1028 C1029 1.363 . S
C1028 C1033 1.390 . S
C1029 H994 0.930 . S
C1029 C1028 1.363 . S
C1029 C1030 1.372 . S
C1030 H995 0.930 . S
C1030 C1029 1.372 . S
C1030 C1031 1.383 . S
C1031 C1030 1.383 . S
C1031 C1032 1.395 . S
C1032 H996 0.930 . S
C1032 C1031 1.395 . S
C1032 C1033 1.362 . S
C1033 H997 0.930 . S
C1033 C1028 1.390 . S
C1033 C1032 1.362 . S
C1034 C1023 1.492 . S
C1034 C1035 1.377 . S
C1034 C1039 1.397 . S
C1035 H998 0.931 . S
C1035 C1034 1.377 . S
C1035 C1036 1.376 . S
C1036 H999 0.930 . S
C1036 C1035 1.376 . S
C1036 C1037 1.376 . S
C1037 C1036 1.376 . S
C1037 C1038 1.378 . S
C1037 C1064 1.486 . S
C1038 H1000 0.930 . S
C1038 C1037 1.378 . S
C1038 C1039 1.376 . S
C1039 H1001 0.929 . S
C1039 C1034 1.397 . S
C1039 C1038 1.376 . S
C1040 C1024 1.509 . S
C1040 C1041 1.391 . S
C1040 C1045 1.386 . S
C1041 H1002 0.930 . S
C1041 C1040 1.391 . S
C1041 C1042 1.375 . S
C1042 H1003 0.931 . S
C1042 C1041 1.375 . S
C1042 C1043 1.375 . S
C1043 C1042 1.375 . S
C1043 C1044 1.361 . S
C1044 H1004 0.930 . S
C1044 C1043 1.361 . S
C1044 C1045 1.399 . S
C1045 H1005 0.929 . S
C1045 C1040 1.386 . S
C1045 C1044 1.399 . S
C1046 C1025 1.485 . S
C1046 C1047 1.394 . S
C1046 C1051 1.360 . S
C1047 H1006 0.931 . S
C1047 C1046 1.394 . S
C1047 C1048 1.372 . S
C1048 H1007 0.930 . S
C1048 C1047 1.372 . S
C1048 C1049 1.397 . S
C1049 C1048 1.397 . S
C1049 C1050 1.390 . S
C1049 C1065 1.476 . S
C1050 H1008 0.930 . S
C1050 C1049 1.390 . S
C1050 C1051 1.366 . S
C1051 H1009 0.932 . S
C1051 C1046 1.360 . S
C1051 C1050 1.366 . S
C1052 C1026 1.490 . S
C1052 C1053 1.380 . S
C1052 C1057 1.386 . S
C1053 H1010 0.930 . S
C1053 C1052 1.380 . S
C1053 C1054 1.381 . S
C1054 H1011 0.929 . S
C1054 C1053 1.381 . S
C1054 C1055 1.371 . S
C1055 C1054 1.371 . S
C1055 C1056 1.380 . S
C1056 H1012 0.931 . S
C1056 C1055 1.380 . S
C1056 C1057 1.387 . S
C1057 H1013 0.930 . S
C1057 C1052 1.386 . S
C1057 C1056 1.387 . S
C1058 C1027 1.519 . S
C1058 C1059 1.377 . S
C1058 C1063 1.361 . S
C1059 H1014 0.929 . S
C1059 C1058 1.377 . S
C1059 C1060 1.386 . S
C1060 H1015 0.931 . S
C1060 C1059 1.386 . S
C1060 C1061 1.363 . S
C1061 C1060 1.363 . S
C1061 C1062 1.385 . S
C1062 H1016 0.930 . S
C1062 C1061 1.385 . S
C1062 C1063 1.396 . S
C1063 H1017 0.929 . S
C1063 C1058 1.361 . S
C1063 C1062 1.396 . S
C1064 O1018 1.300 . S
C1064 O1019 1.209 . S
C1064 C1037 1.486 . S
C1065 O1020 1.199 . S
C1065 O1021 1.297 . S
C1065 C1049 1.476 . S
H1066 O1092 0.856 . S
H1067 O1095 0.854 . S
H1068 C1103 0.930 . S
H1069 C1104 0.930 . S
H1070 C1106 0.930 . S
H1071 C1107 0.930 . S
H1072 C1109 0.931 . S
H1073 C1110 0.911 1_545 S
H1074 C1112 0.930 . S
H1075 C1113 0.929 . S
H1076 C1115 0.930 . S
H1077 C1116 0.931 . S
H1078 C1118 0.930 . S
H1079 C1119 0.929 . S
H1080 C1121 0.931 . S
H1081 C1122 0.930 . S
H1082 C1124 0.930 . S
H1083 C1125 0.932 . S
H1084 C1127 0.930 . S
H1085 C1128 0.929 . S
H1086 C1130 0.931 . S
H1087 C1131 0.930 . S
H1088 C1133 0.929 . S
H1089 C1134 0.931 . S
H1090 C1136 0.930 . S
H1091 C1137 0.929 . S
O1092 H1066 0.856 . S
O1092 C1138 1.300 . S
O1093 C1138 1.209 . S
O1094 C1139 1.199 1_545 S
O1095 H1067 0.854 . S
O1095 C1139 1.297 . S
C1096 C1097 1.404 . S
C1096 C1101 1.397 . S
C1096 C1102 1.492 . S
C1097 C1096 1.404 . S
C1097 C1098 1.396 . S
C1097 C1108 1.492 . S
C1098 C1097 1.396 . S
C1098 C1099 1.397 . S
C1098 C1114 1.509 . S
C1099 C1098 1.397 . S
C1099 C1100 1.413 . S
C1099 C1120 1.485 . S
C1100 C1099 1.413 . S
C1100 C1101 1.387 . S
C1100 C1126 1.492 1_565 S
C1101 C1096 1.397 . S
C1101 C1100 1.387 . S
C1101 C1132 1.522 1_565 S
C1102 C1096 1.492 . S
C1102 C1103 1.363 1_565 S
C1102 C1107 1.390 . S
C1103 H1068 0.930 . S
C1103 C1102 1.363 1_545 S
C1103 C1104 1.372 . S
C1104 H1069 0.930 . S
C1104 C1103 1.372 . S
C1104 C1105 1.383 . S
C1105 C1104 1.383 . S
C1105 C1106 1.395 1_545 S
C1106 H1070 0.930 . S
C1106 C1105 1.395 1_565 S
C1106 C1107 1.362 . S
C1107 H1071 0.930 . S
C1107 C1102 1.390 . S
C1107 C1106 1.362 . S
C1108 C1097 1.492 . S
C1108 C1109 1.377 1_565 S
C1108 C1113 1.397 . S
C1109 H1072 0.931 . S
C1109 C1108 1.377 1_545 S
C1109 C1110 1.365 1_545 S
C1110 H1073 0.911 1_565 S
C1110 C1109 1.365 1_565 S
C1110 C1111 1.406 . S
C1111 C1110 1.406 . S
C1111 C1112 1.378 . S
C1111 C1138 1.486 . S
C1112 H1074 0.930 . S
C1112 C1111 1.378 . S
C1112 C1113 1.376 . S
C1113 H1075 0.929 . S
C1113 C1108 1.397 . S
C1113 C1112 1.376 . S
C1114 C1098 1.509 . S
C1114 C1115 1.391 1_565 S
C1114 C1119 1.386 . S
C1115 H1076 0.930 . S
C1115 C1114 1.391 1_545 S
C1115 C1116 1.375 . S
C1116 H1077 0.931 . S
C1116 C1115 1.375 . S
C1116 C1117 1.375 1_545 S
C1117 C1116 1.375 1_565 S
C1117 C1118 1.361 . S
C1118 H1078 0.930 . S
C1118 C1117 1.361 . S
C1118 C1119 1.399 . S
C1119 H1079 0.929 . S
C1119 C1114 1.386 . S
C1119 C1118 1.399 . S
C1120 C1099 1.485 . S
C1120 C1121 1.394 1_565 S
C1120 C1125 1.360 . S
C1121 H1080 0.931 . S
C1121 C1120 1.394 1_545 S
C1121 C1122 1.372 . S
C1122 H1081 0.930 . S
C1122 C1121 1.372 . S
C1122 C1123 1.397 1_545 S
C1123 C1122 1.397 1_565 S
C1123 C1124 1.390 . S
C1123 C1139 1.476 . S
C1124 H1082 0.930 . S
C1124 C1123 1.390 . S
C1124 C1125 1.366 . S
C1125 H1083 0.932 . S
C1125 C1120 1.360 . S
C1125 C1124 1.366 . S
C1126 C1100 1.492 1_545 S
C1126 C1127 1.380 . S
C1126 C1131 1.386 1_545 S
C1127 H1084 0.930 . S
C1127 C1126 1.380 . S
C1127 C1128 1.381 . S
C1128 H1085 0.929 . S
C1128 C1127 1.381 . S
C1128 C1129 1.371 . S
C1129 C1128 1.371 . S
C1129 C1130 1.380 1_545 S
C1130 H1086 0.931 . S
C1130 C1129 1.380 1_565 S
C1130 C1131 1.387 . S
C1131 H1087 0.930 . S
C1131 C1126 1.386 1_565 S
C1131 C1130 1.387 . S
C1132 C1101 1.522 1_545 S
C1132 C1133 1.381 . S
C1132 C1137 1.353 1_545 S
C1133 H1088 0.929 . S
C1133 C1132 1.381 . S
C1133 C1134 1.386 . S
C1134 H1089 0.931 . S
C1134 C1133 1.386 . S
C1134 C1135 1.363 1_545 S
C1135 C1134 1.363 1_565 S
C1135 C1136 1.385 . S
C1136 H1090 0.930 . S
C1136 C1135 1.385 . S
C1136 C1137 1.396 . S
C1137 H1091 0.929 . S
C1137 C1132 1.353 1_565 S
C1137 C1136 1.396 . S
C1138 O1092 1.300 . S
C1138 O1093 1.209 . S
C1138 C1111 1.486 . S
C1139 O1094 1.199 1_565 S
C1139 O1095 1.297 . S
C1139 C1123 1.476 . S
H1140 O1166 0.856 . S
H1141 O1169 0.854 . S
H1142 C1177 0.930 . S
H1143 C1178 0.930 . S
H1144 C1180 0.930 . S
H1145 C1181 0.930 . S
H1146 C1183 0.931 . S
H1147 C1184 0.930 . S
H1148 C1186 0.930 . S
H1149 C1187 0.929 . S
H1150 C1189 0.930 . S
H1151 C1190 0.931 . S
H1152 C1192 0.930 . S
H1153 C1193 0.929 . S
H1154 C1195 0.931 . S
H1155 C1196 0.930 . S
H1156 C1198 0.930 . S
H1157 C1199 0.932 . S
H1158 C1201 0.930 . S
H1159 C1202 0.929 . S
H1160 C1204 0.931 . S
H1161 C1205 0.930 . S
H1162 C1207 0.929 . S
H1163 C1208 0.931 . S
H1164 C1210 0.930 . S
H1165 C1211 0.929 . S
O1166 H1140 0.856 . S
O1166 C1212 1.300 . S
O1167 C1212 1.209 1_565 S
O1168 C1213 1.199 1_545 S
O1169 H1141 0.854 . S
O1169 C1213 1.297 . S
C1170 C1171 1.404 . S
C1170 C1175 1.396 1_545 S
C1170 C1176 1.492 . S
C1171 C1170 1.404 . S
C1171 C1172 1.396 . S
C1171 C1182 1.492 . S
C1172 C1171 1.396 . S
C1172 C1173 1.397 . S
C1172 C1188 1.509 . S
C1173 C1172 1.397 . S
C1173 C1174 1.423 1_545 S
C1173 C1194 1.485 1_545 S
C1174 C1173 1.423 1_565 S
C1174 C1175 1.370 . S
C1174 C1200 1.500 . S
C1175 C1170 1.396 1_565 S
C1175 C1174 1.370 . S
C1175 C1206 1.518 . S
C1176 C1170 1.492 . S
C1176 C1177 1.363 . S
C1176 C1181 1.390 1_545 S
C1177 H1142 0.930 . S
C1177 C1176 1.363 . S
C1177 C1178 1.372 . S
C1178 H1143 0.930 . S
C1178 C1177 1.372 . S
C1178 C1179 1.383 . S
C1179 C1178 1.383 . S
C1179 C1180 1.395 1_545 S
C1180 H1144 0.930 . S
C1180 C1179 1.395 1_565 S
C1180 C1181 1.362 . S
C1181 H1145 0.930 . S
C1181 C1176 1.390 1_565 S
C1181 C1180 1.362 . S
C1182 C1171 1.492 . S
C1182 C1183 1.377 . S
C1182 C1187 1.397 1_545 S
C1183 H1146 0.931 . S
C1183 C1182 1.377 . S
C1183 C1184 1.376 . S
C1184 H1147 0.930 . S
C1184 C1183 1.376 . S
C1184 C1185 1.376 . S
C1185 C1184 1.376 . S
C1185 C1186 1.378 1_545 S
C1185 C1212 1.486 . S
C1186 H1148 0.930 . S
C1186 C1185 1.378 1_565 S
C1186 C1187 1.376 . S
C1187 H1149 0.929 . S
C1187 C1182 1.397 1_565 S
C1187 C1186 1.376 . S
C1188 C1172 1.509 . S
C1188 C1189 1.391 . S
C1188 C1193 1.386 1_545 S
C1189 H1150 0.930 . S
C1189 C1188 1.391 . S
C1189 C1190 1.375 . S
C1190 H1151 0.931 . S
C1190 C1189 1.375 . S
C1190 C1191 1.375 . S
C1191 C1190 1.375 . S
C1191 C1192 1.361 1_545 S
C1192 H1152 0.930 . S
C1192 C1191 1.361 1_565 S
C1192 C1193 1.399 . S
C1193 H1153 0.929 . S
C1193 C1188 1.386 1_565 S
C1193 C1192 1.399 . S
C1194 C1173 1.485 1_565 S
C1194 C1195 1.394 1_565 S
C1194 C1199 1.360 . S
C1195 H1154 0.931 . S
C1195 C1194 1.394 1_545 S
C1195 C1196 1.372 . S
C1196 H1155 0.930 . S
C1196 C1195 1.372 . S
C1196 C1197 1.397 1_545 S
C1197 C1196 1.397 1_565 S
C1197 C1198 1.390 . S
C1197 C1213 1.476 . S
C1198 H1156 0.930 . S
C1198 C1197 1.390 . S
C1198 C1199 1.366 . S
C1199 H1157 0.932 . S
C1199 C1194 1.360 . S
C1199 C1198 1.366 . S
C1200 C1174 1.500 . S
C1200 C1201 1.380 1_565 S
C1200 C1205 1.386 . S
C1201 H1158 0.930 . S
C1201 C1200 1.380 1_545 S
C1201 C1202 1.381 . S
C1202 H1159 0.929 . S
C1202 C1201 1.381 . S
C1202 C1203 1.335 1_545 S
C1203 C1202 1.335 1_565 S
C1203 C1204 1.408 . S
C1204 H1160 0.931 . S
C1204 C1203 1.408 . S
C1204 C1205 1.387 . S
C1205 H1161 0.930 . S
C1205 C1200 1.386 . S
C1205 C1204 1.387 . S
C1206 C1175 1.518 . S
C1206 C1207 1.377 1_565 S
C1206 C1211 1.361 . S
C1207 H1162 0.929 . S
C1207 C1206 1.377 1_545 S
C1207 C1208 1.386 . S
C1208 H1163 0.931 . S
C1208 C1207 1.386 . S
C1208 C1209 1.363 1_545 S
C1209 C1208 1.363 1_565 S
C1209 C1210 1.385 . S
C1210 H1164 0.930 . S
C1210 C1209 1.385 . S
C1210 C1211 1.396 . S
C1211 H1165 0.929 . S
C1211 C1206 1.361 . S
C1211 C1210 1.396 . S
C1212 O1166 1.300 . S
C1212 O1167 1.209 1_545 S
C1212 C1185 1.486 . S
C1213 O1168 1.199 1_565 S
C1213 O1169 1.297 . S
C1213 C1197 1.476 . S
H1214 O1240 0.856 . S
H1215 O1243 0.854 . S
H1216 C1251 0.930 . S
H1217 C1252 0.930 . S
H1218 C1254 0.930 . S
H1219 C1255 0.930 . S
H1220 C1257 0.931 . S
H1221 C1258 0.930 . S
H1222 C1260 0.930 . S
H1223 C1261 0.929 . S
H1224 C1263 0.930 . S
H1225 C1264 0.931 . S
H1226 C1266 0.930 . S
H1227 C1267 0.929 . S
H1228 C1269 0.931 . S
H1229 C1270 0.930 . S
H1230 C1272 0.930 . S
H1231 C1273 0.932 . S
H1232 C1275 0.930 . S
H1233 C1276 0.929 . S
H1234 C1278 0.931 . S
H1235 C1279 0.930 . S
H1236 C1281 0.929 . S
H1237 C1282 0.931 . S
H1238 C1284 0.930 . S
H1239 C1285 0.929 . S
O1240 H1214 0.856 . S
O1240 C1286 1.300 . S
O1241 C1286 1.212 1_455 S
O1242 C1287 1.199 1_655 S
O1243 H1215 0.854 . S
O1243 C1287 1.297 . S
C1244 C1245 1.404 . S
C1244 C1249 1.397 1_655 S
C1244 C1250 1.492 . S
C1245 C1244 1.404 . S
C1245 C1246 1.396 . S
C1245 C1256 1.492 . S
C1246 C1245 1.396 . S
C1246 C1247 1.395 . S
C1246 C1262 1.509 . S
C1247 C1246 1.395 . S
C1247 C1248 1.402 1_655 S
C1247 C1268 1.498 1_655 S
C1248 C1247 1.402 1_455 S
C1248 C1249 1.390 . S
C1248 C1274 1.490 . S
C1249 C1244 1.397 1_455 S
C1249 C1248 1.390 . S
C1249 C1280 1.517 . S
C1250 C1244 1.492 . S
C1250 C1251 1.363 . S
C1250 C1255 1.390 1_655 S
C1251 H1216 0.930 . S
C1251 C1250 1.363 . S
C1251 C1252 1.372 . S
C1252 H1217 0.930 . S
C1252 C1251 1.372 . S
C1252 C1253 1.383 . S
C1253 C1252 1.383 . S
C1253 C1254 1.395 1_655 S
C1254 H1218 0.930 . S
C1254 C1253 1.395 1_455 S
C1254 C1255 1.362 . S
C1255 H1219 0.930 . S
C1255 C1250 1.390 1_455 S
C1255 C1254 1.362 . S
C1256 C1245 1.492 . S
C1256 C1257 1.377 . S
C1256 C1261 1.397 1_655 S
C1257 H1220 0.931 . S
C1257 C1256 1.377 . S
C1257 C1258 1.376 . S
C1258 H1221 0.930 . S
C1258 C1257 1.376 . S
C1258 C1259 1.376 . S
C1259 C1258 1.376 . S
C1259 C1260 1.378 1_655 S
C1259 C1286 1.486 . S
C1260 H1222 0.930 . S
C1260 C1259 1.378 1_455 S
C1260 C1261 1.376 . S
C1261 H1223 0.929 . S
C1261 C1256 1.397 1_455 S
C1261 C1260 1.376 . S
C1262 C1246 1.509 . S
C1262 C1263 1.391 . S
C1262 C1267 1.386 1_655 S
C1263 H1224 0.930 . S
C1263 C1262 1.391 . S
C1263 C1264 1.375 . S
C1264 H1225 0.931 . S
C1264 C1263 1.375 . S
C1264 C1265 1.375 . S
C1265 C1264 1.375 . S
C1265 C1266 1.361 1_655 S
C1266 H1226 0.930 . S
C1266 C1265 1.361 1_455 S
C1266 C1267 1.399 . S
C1267 H1227 0.929 . S
C1267 C1262 1.386 1_455 S
C1267 C1266 1.399 . S
C1268 C1247 1.498 1_455 S
C1268 C1269 1.394 1_455 S
C1268 C1273 1.360 . S
C1269 H1228 0.931 . S
C1269 C1268 1.394 1_655 S
C1269 C1270 1.372 . S
C1270 H1229 0.930 . S
C1270 C1269 1.372 . S
C1270 C1271 1.397 1_655 S
C1271 C1270 1.397 1_455 S
C1271 C1272 1.390 . S
C1271 C1287 1.476 . S
C1272 H1230 0.930 . S
C1272 C1271 1.390 . S
C1272 C1273 1.366 . S
C1273 H1231 0.932 . S
C1273 C1268 1.360 . S
C1273 C1272 1.366 . S
C1274 C1248 1.490 . S
C1274 C1275 1.380 1_455 S
C1274 C1279 1.386 . S
C1275 H1232 0.930 . S
C1275 C1274 1.380 1_655 S
C1275 C1276 1.381 . S
C1276 H1233 0.929 . S
C1276 C1275 1.381 . S
C1276 C1277 1.371 1_655 S
C1277 C1276 1.371 1_455 S
C1277 C1278 1.380 . S
C1278 H1234 0.931 . S
C1278 C1277 1.380 . S
C1278 C1279 1.387 . S
C1279 H1235 0.930 . S
C1279 C1274 1.386 . S
C1279 C1278 1.387 . S
C1280 C1249 1.517 . S
C1280 C1281 1.377 1_455 S
C1280 C1285 1.361 . S
C1281 H1236 0.929 . S
C1281 C1280 1.377 1_655 S
C1281 C1282 1.386 . S
C1282 H1237 0.931 . S
C1282 C1281 1.386 . S
C1282 C1283 1.363 1_655 S
C1283 C1282 1.363 1_455 S
C1283 C1284 1.385 . S
C1284 H1238 0.930 . S
C1284 C1283 1.385 . S
C1284 C1285 1.396 . S
C1285 H1239 0.929 . S
C1285 C1280 1.361 . S
C1285 C1284 1.396 . S
C1286 O1240 1.300 . S
C1286 O1241 1.212 1_655 S
C1286 C1259 1.486 . S
C1287 O1242 1.199 1_455 S
C1287 O1243 1.297 . S
C1287 C1271 1.476 . S
H1288 O1314 0.856 . S
H1289 O1317 0.854 . S
H1290 C1325 0.930 . S
H1291 C1326 0.930 . S
H1292 C1328 0.930 . S
H1293 C1329 0.930 . S
H1294 C1331 0.931 . S
H1295 C1332 0.930 . S
H1296 C1334 0.930 . S
H1297 C1335 0.929 . S
H1298 C1337 0.930 . S
H1299 C1338 0.931 . S
H1300 C1340 0.930 . S
H1301 C1341 0.929 . S
H1302 C1343 0.931 . S
H1303 C1344 0.930 . S
H1304 C1346 0.930 . S
H1305 C1347 0.932 . S
H1306 C1349 0.930 . S
H1307 C1350 0.929 . S
H1308 C1352 0.931 . S
H1309 C1353 0.930 . S
H1310 C1355 0.929 . S
H1311 C1356 0.931 . S
H1312 C1358 0.930 . S
H1313 C1359 0.929 . S
O1314 H1288 0.856 . S
O1314 C1360 1.300 . S
O1315 C1360 1.209 . S
O1316 C1361 1.199 . S
O1317 H1289 0.854 . S
O1317 C1361 1.297 . S
C1318 C1319 1.404 . S
C1318 C1323 1.397 . S
C1318 C1324 1.492 . S
C1319 C1318 1.404 . S
C1319 C1320 1.396 . S
C1319 C1330 1.492 . S
C1320 C1319 1.396 . S
C1320 C1321 1.397 . S
C1320 C1336 1.509 . S
C1321 C1320 1.397 . S
C1321 C1322 1.412 . S
C1321 C1342 1.485 . S
C1322 C1321 1.412 . S
C1322 C1323 1.388 . S
C1322 C1348 1.490 . S
C1323 C1318 1.397 . S
C1323 C1322 1.388 . S
C1323 C1354 1.519 . S
C1324 C1318 1.492 . S
C1324 C1325 1.363 . S
C1324 C1329 1.390 . S
C1325 H1290 0.930 . S
C1325 C1324 1.363 . S
C1325 C1326 1.372 . S
C1326 H1291 0.930 . S
C1326 C1325 1.372 . S
C1326 C1327 1.383 . S
C1327 C1326 1.383 . S
C1327 C1328 1.395 . S
C1328 H1292 0.930 . S
C1328 C1327 1.395 . S
C1328 C1329 1.362 . S
C1329 H1293 0.930 . S
C1329 C1324 1.390 . S
C1329 C1328 1.362 . S
C1330 C1319 1.492 . S
C1330 C1331 1.377 . S
C1330 C1335 1.397 . S
C1331 H1294 0.931 . S
C1331 C1330 1.377 . S
C1331 C1332 1.376 . S
C1332 H1295 0.930 . S
C1332 C1331 1.376 . S
C1332 C1333 1.376 . S
C1333 C1332 1.376 . S
C1333 C1334 1.378 . S
C1333 C1360 1.486 . S
C1334 H1296 0.930 . S
C1334 C1333 1.378 . S
C1334 C1335 1.376 . S
C1335 H1297 0.929 . S
C1335 C1330 1.397 . S
C1335 C1334 1.376 . S
C1336 C1320 1.509 . S
C1336 C1337 1.391 . S
C1336 C1341 1.386 . S
C1337 H1298 0.930 . S
C1337 C1336 1.391 . S
C1337 C1338 1.375 . S
C1338 H1299 0.931 . S
C1338 C1337 1.375 . S
C1338 C1339 1.375 . S
C1339 C1338 1.375 . S
C1339 C1340 1.361 . S
C1340 H1300 0.930 . S
C1340 C1339 1.361 . S
C1340 C1341 1.399 . S
C1341 H1301 0.929 . S
C1341 C1336 1.386 . S
C1341 C1340 1.399 . S
C1342 C1321 1.485 . S
C1342 C1343 1.394 . S
C1342 C1347 1.360 . S
C1343 H1302 0.931 . S
C1343 C1342 1.394 . S
C1343 C1344 1.372 . S
C1344 H1303 0.930 . S
C1344 C1343 1.372 . S
C1344 C1345 1.397 . S
C1345 C1344 1.397 . S
C1345 C1346 1.390 . S
C1345 C1361 1.476 . S
C1346 H1304 0.930 . S
C1346 C1345 1.390 . S
C1346 C1347 1.366 . S
C1347 H1305 0.932 . S
C1347 C1342 1.360 . S
C1347 C1346 1.366 . S
C1348 C1322 1.490 . S
C1348 C1349 1.380 . S
C1348 C1353 1.386 . S
C1349 H1306 0.930 . S
C1349 C1348 1.380 . S
C1349 C1350 1.381 . S
C1350 H1307 0.929 . S
C1350 C1349 1.381 . S
C1350 C1351 1.371 . S
C1351 C1350 1.371 . S
C1351 C1352 1.380 . S
C1352 H1308 0.931 . S
C1352 C1351 1.380 . S
C1352 C1353 1.387 . S
C1353 H1309 0.930 . S
C1353 C1348 1.386 . S
C1353 C1352 1.387 . S
C1354 C1323 1.519 . S
C1354 C1355 1.377 . S
C1354 C1359 1.361 . S
C1355 H1310 0.929 . S
C1355 C1354 1.377 . S
C1355 C1356 1.386 . S
C1356 H1311 0.931 . S
C1356 C1355 1.386 . S
C1356 C1357 1.363 . S
C1357 C1356 1.363 . S
C1357 C1358 1.385 . S
C1358 H1312 0.930 . S
C1358 C1357 1.385 . S
C1358 C1359 1.396 . S
C1359 H1313 0.929 . S
C1359 C1354 1.361 . S
C1359 C1358 1.396 . S
C1360 O1314 1.300 . S
C1360 O1315 1.209 . S
C1360 C1333 1.486 . S
C1361 O1316 1.199 . S
C1361 O1317 1.297 . S
C1361 C1345 1.476 . S
H1362 O1388 0.856 . S
H1363 O1391 0.854 . S
H1364 C1399 0.930 . S
H1365 C1400 0.930 . S
H1366 C1402 0.930 . S
H1367 C1403 0.930 . S
H1368 C1405 0.931 . S
H1369 C1406 0.930 . S
H1370 C1408 0.930 . S
H1371 C1409 0.929 . S
H1372 C1411 0.930 . S
H1373 C1412 0.931 . S
H1374 C1414 0.930 . S
H1375 C1415 0.929 . S
H1376 C1417 0.931 . S
H1377 C1418 0.930 . S
H1378 C1420 0.930 . S
H1379 C1421 0.932 . S
H1380 C1423 0.930 . S
H1381 C1424 0.929 . S
H1382 C1426 0.931 . S
H1383 C1427 0.930 . S
H1384 C1429 0.929 . S
H1385 C1430 0.931 . S
H1386 C1432 0.930 . S
H1387 C1433 0.929 . S
O1388 H1362 0.856 . S
O1388 C1434 1.300 . S
O1389 C1434 1.209 . S
O1390 C1435 1.199 . S
O1391 H1363 0.854 . S
O1391 C1435 1.297 . S
C1392 C1393 1.404 . S
C1392 C1397 1.397 . S
C1392 C1398 1.492 . S
C1393 C1392 1.404 . S
C1393 C1394 1.396 . S
C1393 C1404 1.492 . S
C1394 C1393 1.396 . S
C1394 C1395 1.397 . S
C1394 C1410 1.509 . S
C1395 C1394 1.397 . S
C1395 C1396 1.412 . S
C1395 C1416 1.485 . S
C1396 C1395 1.412 . S
C1396 C1397 1.388 . S
C1396 C1422 1.490 . S
C1397 C1392 1.397 . S
C1397 C1396 1.388 . S
C1397 C1428 1.519 . S
C1398 C1392 1.492 . S
C1398 C1399 1.363 . S
C1398 C1403 1.390 . S
C1399 H1364 0.930 . S
C1399 C1398 1.363 . S
C1399 C1400 1.372 . S
C1400 H1365 0.930 . S
C1400 C1399 1.372 . S
C1400 C1401 1.383 . S
C1401 C1400 1.383 . S
C1401 C1402 1.395 . S
C1402 H1366 0.930 . S
C1402 C1401 1.395 . S
C1402 C1403 1.362 . S
C1403 H1367 0.930 . S
C1403 C1398 1.390 . S
C1403 C1402 1.362 . S
C1404 C1393 1.492 . S
C1404 C1405 1.377 . S
C1404 C1409 1.397 . S
C1405 H1368 0.931 . S
C1405 C1404 1.377 . S
C1405 C1406 1.376 . S
C1406 H1369 0.930 . S
C1406 C1405 1.376 . S
C1406 C1407 1.376 . S
C1407 C1406 1.376 . S
C1407 C1408 1.378 . S
C1407 C1434 1.486 . S
C1408 H1370 0.930 . S
C1408 C1407 1.378 . S
C1408 C1409 1.376 . S
C1409 H1371 0.929 . S
C1409 C1404 1.397 . S
C1409 C1408 1.376 . S
C1410 C1394 1.509 . S
C1410 C1411 1.391 . S
C1410 C1415 1.386 . S
C1411 H1372 0.930 . S
C1411 C1410 1.391 . S
C1411 C1412 1.375 . S
C1412 H1373 0.931 . S
C1412 C1411 1.375 . S
C1412 C1413 1.375 . S
C1413 C1412 1.375 . S
C1413 C1414 1.361 . S
C1414 H1374 0.930 . S
C1414 C1413 1.361 . S
C1414 C1415 1.399 . S
C1415 H1375 0.929 . S
C1415 C1410 1.386 . S
C1415 C1414 1.399 . S
C1416 C1395 1.485 . S
C1416 C1417 1.394 . S
C1416 C1421 1.360 . S
C1417 H1376 0.931 . S
C1417 C1416 1.394 . S
C1417 C1418 1.372 . S
C1418 H1377 0.930 . S
C1418 C1417 1.372 . S
C1418 C1419 1.397 . S
C1419 C1418 1.397 . S
C1419 C1420 1.390 . S
C1419 C1435 1.476 . S
C1420 H1378 0.930 . S
C1420 C1419 1.390 . S
C1420 C1421 1.366 . S
C1421 H1379 0.932 . S
C1421 C1416 1.360 . S
C1421 C1420 1.366 . S
C1422 C1396 1.490 . S
C1422 C1423 1.380 . S
C1422 C1427 1.386 . S
C1423 H1380 0.930 . S
C1423 C1422 1.380 . S
C1423 C1424 1.381 . S
C1424 H1381 0.929 . S
C1424 C1423 1.381 . S
C1424 C1425 1.371 . S
C1425 C1424 1.371 . S
C1425 C1426 1.380 . S
C1426 H1382 0.931 . S
C1426 C1425 1.380 . S
C1426 C1427 1.387 . S
C1427 H1383 0.930 . S
C1427 C1422 1.386 . S
C1427 C1426 1.387 . S
C1428 C1397 1.519 . S
C1428 C1429 1.377 . S
C1428 C1433 1.361 . S
C1429 H1384 0.929 . S
C1429 C1428 1.377 . S
C1429 C1430 1.386 . S
C1430 H1385 0.931 . S
C1430 C1429 1.386 . S
C1430 C1431 1.363 . S
C1431 C1430 1.363 . S
C1431 C1432 1.385 . S
C1432 H1386 0.930 . S
C1432 C1431 1.385 . S
C1432 C1433 1.396 . S
C1433 H1387 0.929 . S
C1433 C1428 1.361 . S
C1433 C1432 1.396 . S
C1434 O1388 1.300 . S
C1434 O1389 1.209 . S
C1434 C1407 1.486 . S
C1435 O1390 1.199 . S
C1435 O1391 1.297 . S
C1435 C1419 1.476 . S
H1436 O1462 0.856 . S
H1437 O1465 0.854 . S
H1438 C1473 0.930 . S
H1439 C1474 0.930 . S
H1440 C1476 0.930 . S
H1441 C1477 0.930 . S
H1442 C1479 0.931 . S
H1443 C1480 0.930 . S
H1444 C1482 0.930 . S
H1445 C1483 0.929 . S
H1446 C1485 0.930 . S
H1447 C1486 0.931 . S
H1448 C1488 0.930 . S
H1449 C1489 0.929 . S
H1450 C1491 0.931 . S
H1451 C1492 0.930 . S
H1452 C1494 0.930 . S
H1453 C1495 0.932 . S
H1454 C1497 0.930 . S
H1455 C1498 0.929 . S
H1456 C1500 0.931 . S
H1457 C1501 0.930 . S
H1458 C1503 0.929 . S
H1459 C1504 0.931 . S
H1460 C1506 0.930 . S
H1461 C1507 0.929 . S
O1462 H1436 0.856 . S
O1462 C1508 1.300 . S
O1463 C1508 1.209 . S
O1464 C1509 1.199 1_655 S
O1465 H1437 0.854 . S
O1465 C1509 1.297 1_655 S
C1466 C1467 1.404 . S
C1466 C1471 1.397 . S
C1466 C1472 1.492 . S
C1467 C1466 1.404 . S
C1467 C1468 1.396 . S
C1467 C1478 1.492 . S
C1468 C1467 1.396 . S
C1468 C1469 1.397 . S
C1468 C1484 1.509 . S
C1469 C1468 1.397 . S
C1469 C1470 1.412 . S
C1469 C1490 1.485 . S
C1470 C1469 1.412 . S
C1470 C1471 1.388 . S
C1470 C1496 1.490 . S
C1471 C1466 1.397 . S
C1471 C1470 1.388 . S
C1471 C1502 1.519 . S
C1472 C1466 1.492 . S
C1472 C1473 1.363 . S
C1472 C1477 1.390 . S
C1473 H1438 0.930 . S
C1473 C1472 1.363 . S
C1473 C1474 1.372 . S
C1474 H1439 0.930 . S
C1474 C1473 1.372 . S
C1474 C1475 1.383 . S
C1475 C1474 1.383 . S
C1475 C1476 1.395 . S
C1476 H1440 0.930 . S
C1476 C1475 1.395 . S
C1476 C1477 1.362 . S
C1477 H1441 0.930 . S
C1477 C1472 1.390 . S
C1477 C1476 1.362 . S
C1478 C1467 1.492 . S
C1478 C1479 1.377 . S
C1478 C1483 1.397 . S
C1479 H1442 0.931 . S
C1479 C1478 1.377 . S
C1479 C1480 1.376 . S
C1480 H1443 0.930 . S
C1480 C1479 1.376 . S
C1480 C1481 1.376 . S
C1481 C1480 1.376 . S
C1481 C1482 1.378 . S
C1481 C1508 1.486 . S
C1482 H1444 0.930 . S
C1482 C1481 1.378 . S
C1482 C1483 1.376 . S
C1483 H1445 0.929 . S
C1483 C1478 1.397 . S
C1483 C1482 1.376 . S
C1484 C1468 1.509 . S
C1484 C1485 1.391 . S
C1484 C1489 1.386 . S
C1485 H1446 0.930 . S
C1485 C1484 1.391 . S
C1485 C1486 1.375 . S
C1486 H1447 0.931 . S
C1486 C1485 1.375 . S
C1486 C1487 1.375 . S
C1487 C1486 1.375 . S
C1487 C1488 1.361 . S
C1488 H1448 0.930 . S
C1488 C1487 1.361 . S
C1488 C1489 1.399 . S
C1489 H1449 0.929 . S
C1489 C1484 1.386 . S
C1489 C1488 1.399 . S
C1490 C1469 1.485 . S
C1490 C1491 1.394 . S
C1490 C1495 1.360 . S
C1491 H1450 0.931 . S
C1491 C1490 1.394 . S
C1491 C1492 1.372 . S
C1492 H1451 0.930 . S
C1492 C1491 1.372 . S
C1492 C1493 1.397 . S
C1493 C1492 1.397 . S
C1493 C1494 1.390 . S
C1493 C1509 1.476 . S
C1494 H1452 0.930 . S
C1494 C1493 1.390 . S
C1494 C1495 1.366 . S
C1495 H1453 0.932 . S
C1495 C1490 1.360 . S
C1495 C1494 1.366 . S
C1496 C1470 1.490 . S
C1496 C1497 1.380 . S
C1496 C1501 1.386 . S
C1497 H1454 0.930 . S
C1497 C1496 1.380 . S
C1497 C1498 1.381 . S
C1498 H1455 0.929 . S
C1498 C1497 1.381 . S
C1498 C1499 1.371 . S
C1499 C1498 1.371 . S
C1499 C1500 1.380 . S
C1500 H1456 0.931 . S
C1500 C1499 1.380 . S
C1500 C1501 1.387 . S
C1501 H1457 0.930 . S
C1501 C1496 1.386 . S
C1501 C1500 1.387 . S
C1502 C1471 1.519 . S
C1502 C1503 1.377 . S
C1502 C1507 1.361 . S
C1503 H1458 0.929 . S
C1503 C1502 1.377 . S
C1503 C1504 1.386 . S
C1504 H1459 0.931 . S
C1504 C1503 1.386 . S
C1504 C1505 1.363 . S
C1505 C1504 1.363 . S
C1505 C1506 1.385 . S
C1506 H1460 0.930 . S
C1506 C1505 1.385 . S
C1506 C1507 1.396 . S
C1507 H1461 0.929 . S
C1507 C1502 1.361 . S
C1507 C1506 1.396 . S
C1508 O1462 1.300 . S
C1508 O1463 1.209 . S
C1508 C1481 1.486 . S
C1509 O1464 1.199 1_455 S
C1509 O1465 1.297 1_455 S
C1509 C1493 1.476 . S
H1510 O1536 0.856 . S
H1511 O1539 0.854 . S
H1512 C1547 0.930 . S
H1513 C1548 0.930 . S
H1514 C1550 0.930 . S
H1515 C1551 0.930 . S
H1516 C1553 0.931 . S
H1517 C1554 0.930 . S
H1518 C1556 0.930 . S
H1519 C1557 0.929 . S
H1520 C1559 0.930 . S
H1521 C1560 0.931 . S
H1522 C1562 0.930 . S
H1523 C1563 0.929 . S
H1524 C1565 0.931 . S
H1525 C1566 0.930 . S
H1526 C1568 0.930 . S
H1527 C1569 0.932 . S
H1528 C1571 0.930 . S
H1529 C1572 0.929 . S
H1530 C1574 0.931 . S
H1531 C1575 0.930 . S
H1532 C1577 0.929 . S
H1533 C1578 0.931 . S
H1534 C1580 0.930 . S
H1535 C1581 0.929 . S
O1536 H1510 0.856 . S
O1536 C1582 1.300 . S
O1537 C1582 1.209 . S
O1538 C1583 1.199 . S
O1539 H1511 0.854 . S
O1539 C1583 1.297 1_655 S
C1540 C1541 1.404 . S
C1540 C1545 1.397 . S
C1540 C1546 1.492 . S
C1541 C1540 1.404 . S
C1541 C1542 1.396 . S
C1541 C1552 1.492 . S
C1542 C1541 1.396 . S
C1542 C1543 1.397 . S
C1542 C1558 1.509 . S
C1543 C1542 1.397 . S
C1543 C1544 1.412 . S
C1543 C1564 1.485 . S
C1544 C1543 1.412 . S
C1544 C1545 1.388 . S
C1544 C1570 1.490 . S
C1545 C1540 1.397 . S
C1545 C1544 1.388 . S
C1545 C1576 1.519 . S
C1546 C1540 1.492 . S
C1546 C1547 1.363 . S
C1546 C1551 1.390 . S
C1547 H1512 0.930 . S
C1547 C1546 1.363 . S
C1547 C1548 1.372 . S
C1548 H1513 0.930 . S
C1548 C1547 1.372 . S
C1548 C1549 1.383 . S
C1549 C1548 1.383 . S
C1549 C1550 1.395 . S
C1550 H1514 0.930 . S
C1550 C1549 1.395 . S
C1550 C1551 1.362 . S
C1551 H1515 0.930 . S
C1551 C1546 1.390 . S
C1551 C1550 1.362 . S
C1552 C1541 1.492 . S
C1552 C1553 1.377 . S
C1552 C1557 1.397 . S
C1553 H1516 0.931 . S
C1553 C1552 1.377 . S
C1553 C1554 1.376 . S
C1554 H1517 0.930 . S
C1554 C1553 1.376 . S
C1554 C1555 1.376 . S
C1555 C1554 1.376 . S
C1555 C1556 1.378 . S
C1555 C1582 1.486 . S
C1556 H1518 0.930 . S
C1556 C1555 1.378 . S
C1556 C1557 1.376 . S
C1557 H1519 0.929 . S
C1557 C1552 1.397 . S
C1557 C1556 1.376 . S
C1558 C1542 1.509 . S
C1558 C1559 1.391 . S
C1558 C1563 1.386 . S
C1559 H1520 0.930 . S
C1559 C1558 1.391 . S
C1559 C1560 1.375 . S
C1560 H1521 0.931 . S
C1560 C1559 1.375 . S
C1560 C1561 1.375 . S
C1561 C1560 1.375 . S
C1561 C1562 1.361 . S
C1562 H1522 0.930 . S
C1562 C1561 1.361 . S
C1562 C1563 1.399 . S
C1563 H1523 0.929 . S
C1563 C1558 1.386 . S
C1563 C1562 1.399 . S
C1564 C1543 1.485 . S
C1564 C1565 1.394 . S
C1564 C1569 1.360 . S
C1565 H1524 0.931 . S
C1565 C1564 1.394 . S
C1565 C1566 1.372 . S
C1566 H1525 0.930 . S
C1566 C1565 1.372 . S
C1566 C1567 1.397 . S
C1567 C1566 1.397 . S
C1567 C1568 1.390 . S
C1567 C1583 1.476 . S
C1568 H1526 0.930 . S
C1568 C1567 1.390 . S
C1568 C1569 1.366 . S
C1569 H1527 0.932 . S
C1569 C1564 1.360 . S
C1569 C1568 1.366 . S
C1570 C1544 1.490 . S
C1570 C1571 1.380 . S
C1570 C1575 1.386 . S
C1571 H1528 0.930 . S
C1571 C1570 1.380 . S
C1571 C1572 1.381 . S
C1572 H1529 0.929 . S
C1572 C1571 1.381 . S
C1572 C1573 1.371 . S
C1573 C1572 1.371 . S
C1573 C1574 1.380 . S
C1574 H1530 0.931 . S
C1574 C1573 1.380 . S
C1574 C1575 1.387 . S
C1575 H1531 0.930 . S
C1575 C1570 1.386 . S
C1575 C1574 1.387 . S
C1576 C1545 1.519 . S
C1576 C1577 1.377 . S
C1576 C1581 1.361 . S
C1577 H1532 0.929 . S
C1577 C1576 1.377 . S
C1577 C1578 1.386 . S
C1578 H1533 0.931 . S
C1578 C1577 1.386 . S
C1578 C1579 1.363 . S
C1579 C1578 1.363 . S
C1579 C1580 1.385 . S
C1580 H1534 0.930 . S
C1580 C1579 1.385 . S
C1580 C1581 1.396 . S
C1581 H1535 0.929 . S
C1581 C1576 1.361 . S
C1581 C1580 1.396 . S
C1582 O1536 1.300 . S
C1582 O1537 1.209 . S
C1582 C1555 1.486 . S
C1583 O1538 1.199 . S
C1583 O1539 1.297 1_455 S
C1583 C1567 1.476 . S
C9 C981 1.907 . S
C19 C1061 2.010 . S
C1129 C33 1.552 . S
C37 C1209 2.026 . S
C5 C1283 1.627 . S
C23 C1351 2.304 1_554 S
C47 C1277 1.553 . S
C1357 C65 1.591 . S
C1203 C75 1.325 . S
C79 C1135 1.905 1_545 S
C987 C51 1.519 . S
C61 C1055 1.611 . S
C93 C1425 2.569 . S
C103 C1505 2.180 . S
C1573 C117 2.223 . S
C121 C321 2.579 . S
C89 C395 2.297 . S
C107 C463 2.410 . S
C131 C389 1.680 . S
C149 C469 1.666 . S
C315 C159 1.464 . S
C1579 C163 2.213 . S
C1431 C135 1.853 . S
C1499 C145 1.729 . S
C177 C537 2.452 . S
C187 C617 2.134 . S
C201 C685 2.202 . S
C205 C765 2.661 . S
C839 C173 2.357 . S
C907 C191 2.495 . S
C833 C215 1.813 . S
C913 C233 1.694 . S
C243 C759 1.451 . S
C691 C247 2.125 . S
C219 C543 1.826 . S
C611 C229 1.669 . S
C291 C11 2.459 . S
C14 C365 1.788 . S
C451 C28 2.035 . S
C525 C39 1.896 . S
C587 C0 1.988 . S
C673 C25 1.761 . S
C42 C661 3.156 1_554 S
C67 C513 2.460 . S
C70 C599 2.725 . S
C81 C377 2.721 . S
C439 C53 2.630 . S
C56 C303 2.777 . S
C735 C95 2.286 . S
C98 C809 1.871 . S
C112 C895 2.031 1_455 S
C969 C123 1.500 . S
C84 C1031 1.820 . S
C109 C1117 1.441 . S
C126 C1105 2.440 1_565 S
C151 C957 1.701 1_455 S
C1043 C154 2.563 . S
C165 C821 2.778 . S
C137 C883 2.522 . S
C747 C140 2.770 . S
C1179 C179 2.046 . S
C182 C1253 1.247 . S
C196 C1339 1.905 . S
C1413 C207 1.975 . S
C1475 C168 1.932 . S
C193 C1561 1.810 . S
C210 C1549 3.007 . S
C235 C1401 2.496 . S
C1487 C238 2.676 . S
C1265 C249 1.989 . S
C1327 C221 2.440 . S
C224 C1191 2.014 . S
