# Generated by pormake.
# Topology ctn, (3,4)-cn, num edge types: 1
# Building blocks:
#     Node 0, Type 0, BuildingBlock: MIDCAF_clean_linker_0, # of connection points: 3
#     Node 1, Type 0, BuildingBlock: MIDCAF_clean_linker_0, # of connection points: 3
#     Node 2, Type 0, BuildingBlock: MIDCAF_clean_linker_0, # of connection points: 3
#     Node 3, Type 0, BuildingBlock: MIDCAF_clean_linker_0, # of connection points: 3
#     Node 4, Type 0, BuildingBlock: MIDCAF_clean_linker_0, # of connection points: 3
#     Node 5, Type 0, BuildingBlock: MIDCAF_clean_linker_0, # of connection points: 3
#     Node 6, Type 0, BuildingBlock: MIDCAF_clean_linker_0, # of connection points: 3
#     Node 7, Type 0, BuildingBlock: MIDCAF_clean_linker_0, # of connection points: 3
#     Node 8, Type 0, BuildingBlock: MIDCAF_clean_linker_0, # of connection points: 3
#     Node 9, Type 0, BuildingBlock: MIDCAF_clean_linker_0, # of connection points: 3
#     Node 10, Type 0, BuildingBlock: MIDCAF_clean_linker_0, # of connection points: 3
#     Node 11, Type 0, BuildingBlock: MIDCAF_clean_linker_0, # of connection points: 3
#     Node 12, Type 0, BuildingBlock: MIDCAF_clean_linker_0, # of connection points: 3
#     Node 13, Type 0, BuildingBlock: MIDCAF_clean_linker_0, # of connection points: 3
#     Node 14, Type 0, BuildingBlock: MIDCAF_clean_linker_0, # of connection points: 3
#     Node 15, Type 0, BuildingBlock: MIDCAF_clean_linker_0, # of connection points: 3
#     Node 16, Type 1, BuildingBlock: KUFVIS_clean_sbu_0, # of connection points: 4
#     Node 17, Type 1, BuildingBlock: KUFVIS_clean_sbu_0, # of connection points: 4
#     Node 18, Type 1, BuildingBlock: KUFVIS_clean_sbu_0, # of connection points: 4
#     Node 19, Type 1, BuildingBlock: KUFVIS_clean_sbu_0, # of connection points: 4
#     Node 20, Type 1, BuildingBlock: KUFVIS_clean_sbu_0, # of connection points: 4
#     Node 21, Type 1, BuildingBlock: KUFVIS_clean_sbu_0, # of connection points: 4
#     Node 22, Type 1, BuildingBlock: KUFVIS_clean_sbu_0, # of connection points: 4
#     Node 23, Type 1, BuildingBlock: KUFVIS_clean_sbu_0, # of connection points: 4
#     Node 24, Type 1, BuildingBlock: KUFVIS_clean_sbu_0, # of connection points: 4
#     Node 25, Type 1, BuildingBlock: KUFVIS_clean_sbu_0, # of connection points: 4
#     Node 26, Type 1, BuildingBlock: KUFVIS_clean_sbu_0, # of connection points: 4
#     Node 27, Type 1, BuildingBlock: KUFVIS_clean_sbu_0, # of connection points: 4
#     Edge 28, Type (0, 1), BuildingBlock: TEMPAE_clean_linker_10, # of connection points: 2
#     Edge 29, Type (0, 1), BuildingBlock: TEMPAE_clean_linker_10, # of connection points: 2
#     Edge 30, Type (0, 1), BuildingBlock: TEMPAE_clean_linker_10, # of connection points: 2
#     Edge 31, Type (0, 1), BuildingBlock: TEMPAE_clean_linker_10, # of connection points: 2
#     Edge 32, Type (0, 1), BuildingBlock: TEMPAE_clean_linker_10, # of connection points: 2
#     Edge 33, Type (0, 1), BuildingBlock: TEMPAE_clean_linker_10, # of connection points: 2
#     Edge 34, Type (0, 1), BuildingBlock: TEMPAE_clean_linker_10, # of connection points: 2
#     Edge 35, Type (0, 1), BuildingBlock: TEMPAE_clean_linker_10, # of connection points: 2
#     Edge 36, Type (0, 1), BuildingBlock: TEMPAE_clean_linker_10, # of connection points: 2
#     Edge 37, Type (0, 1), BuildingBlock: TEMPAE_clean_linker_10, # of connection points: 2
#     Edge 38, Type (0, 1), BuildingBlock: TEMPAE_clean_linker_10, # of connection points: 2
#     Edge 39, Type (0, 1), BuildingBlock: TEMPAE_clean_linker_10, # of connection points: 2
#     Edge 40, Type (0, 1), BuildingBlock: TEMPAE_clean_linker_10, # of connection points: 2
#     Edge 41, Type (0, 1), BuildingBlock: TEMPAE_clean_linker_10, # of connection points: 2
#     Edge 42, Type (0, 1), BuildingBlock: TEMPAE_clean_linker_10, # of connection points: 2
#     Edge 43, Type (0, 1), BuildingBlock: TEMPAE_clean_linker_10, # of connection points: 2
#     Edge 44, Type (0, 1), BuildingBlock: TEMPAE_clean_linker_10, # of connection points: 2
#     Edge 45, Type (0, 1), BuildingBlock: TEMPAE_clean_linker_10, # of connection points: 2
#     Edge 46, Type (0, 1), BuildingBlock: TEMPAE_clean_linker_10, # of connection points: 2
#     Edge 47, Type (0, 1), BuildingBlock: TEMPAE_clean_linker_10, # of connection points: 2
#     Edge 48, Type (0, 1), BuildingBlock: TEMPAE_clean_linker_10, # of connection points: 2
#     Edge 49, Type (0, 1), BuildingBlock: TEMPAE_clean_linker_10, # of connection points: 2
#     Edge 50, Type (0, 1), BuildingBlock: TEMPAE_clean_linker_10, # of connection points: 2
#     Edge 51, Type (0, 1), BuildingBlock: TEMPAE_clean_linker_10, # of connection points: 2
#     Edge 52, Type (0, 1), BuildingBlock: TEMPAE_clean_linker_10, # of connection points: 2
#     Edge 53, Type (0, 1), BuildingBlock: TEMPAE_clean_linker_10, # of connection points: 2
#     Edge 54, Type (0, 1), BuildingBlock: TEMPAE_clean_linker_10, # of connection points: 2
#     Edge 55, Type (0, 1), BuildingBlock: TEMPAE_clean_linker_10, # of connection points: 2
#     Edge 56, Type (0, 1), BuildingBlock: TEMPAE_clean_linker_10, # of connection points: 2
#     Edge 57, Type (0, 1), BuildingBlock: TEMPAE_clean_linker_10, # of connection points: 2
#     Edge 58, Type (0, 1), BuildingBlock: TEMPAE_clean_linker_10, # of connection points: 2
#     Edge 59, Type (0, 1), BuildingBlock: TEMPAE_clean_linker_10, # of connection points: 2
#     Edge 60, Type (0, 1), BuildingBlock: TEMPAE_clean_linker_10, # of connection points: 2
#     Edge 61, Type (0, 1), BuildingBlock: TEMPAE_clean_linker_10, # of connection points: 2
#     Edge 62, Type (0, 1), BuildingBlock: TEMPAE_clean_linker_10, # of connection points: 2
#     Edge 63, Type (0, 1), BuildingBlock: TEMPAE_clean_linker_10, # of connection points: 2
#     Edge 64, Type (0, 1), BuildingBlock: TEMPAE_clean_linker_10, # of connection points: 2
#     Edge 65, Type (0, 1), BuildingBlock: TEMPAE_clean_linker_10, # of connection points: 2
#     Edge 66, Type (0, 1), BuildingBlock: TEMPAE_clean_linker_10, # of connection points: 2
#     Edge 67, Type (0, 1), BuildingBlock: TEMPAE_clean_linker_10, # of connection points: 2
#     Edge 68, Type (0, 1), BuildingBlock: TEMPAE_clean_linker_10, # of connection points: 2
#     Edge 69, Type (0, 1), BuildingBlock: TEMPAE_clean_linker_10, # of connection points: 2
#     Edge 70, Type (0, 1), BuildingBlock: TEMPAE_clean_linker_10, # of connection points: 2
#     Edge 71, Type (0, 1), BuildingBlock: TEMPAE_clean_linker_10, # of connection points: 2
#     Edge 72, Type (0, 1), BuildingBlock: TEMPAE_clean_linker_10, # of connection points: 2
#     Edge 73, Type (0, 1), BuildingBlock: TEMPAE_clean_linker_10, # of connection points: 2
#     Edge 74, Type (0, 1), BuildingBlock: TEMPAE_clean_linker_10, # of connection points: 2
#     Edge 75, Type (0, 1), BuildingBlock: TEMPAE_clean_linker_10, # of connection points: 2
# Relax obj value: 0.012
# Max RMSD: 0.063
# Mean RMSD: 0.029
data_MOF--net-ctn--node1-KUFVIS_clean_sbu_0--node2-MIDCAF_clean_linker_0--edge1-TEMPAE_clean_linker_10
_symmetry_space_group_name_H-M    P1
_symmetry_Int_Tables_number       1
_symmetry_cell_setting            triclinic
loop_
_symmetry_equiv_pos_as_xyz
'x, y, z'
_cell_length_a     67.205658
_cell_length_b     67.053267
_cell_length_c     67.387773
_cell_angle_alpha  90.989467
_cell_angle_beta   90.27719
_cell_angle_gamma 91.616853
loop_
_atom_site_label
_atom_site_type_symbol
_atom_site_fract_x
_atom_site_fract_y
_atom_site_fract_z
_atom_type_partial_charge
C0 C 0.9923 0.04475 0.0988 0.0
C1 C 0.99835 0.03154 0.11349 0.0
C2 C 0.01673 0.02227 0.11137 0.0
C3 C 0.02874 0.026 0.09489 0.0
H4 H 0.08372 0.01287 0.06975 0.0
H5 H 0.11183 0.99137 0.06324 0.0
H6 H 0.11047 0.00712 0.00145 0.0
H7 H 0.08253 0.02883 0.00788 0.0
H8 H 0.06763 0.08109 0.00848 0.0
H9 H 0.05965 0.10818 0.98617 0.0
H10 H 0.99825 0.10423 0.00443 0.0
H11 H 0.00619 0.07739 0.02705 0.0
H12 H 0.99921 0.05883 0.07133 0.0
H13 H 0.97829 0.05225 0.1001 0.0
H14 H 0.0217 0.01185 0.12233 0.0
H15 H 0.04275 0.01849 0.09375 0.0
N16 N 0.05181 0.03198 0.05925 0.0
N17 N 0.05871 0.04978 0.0303 0.0
N18 N 0.03081 0.05743 0.04951 0.0
C19 C 0.06345 0.03519 0.04312 0.0
C20 C 0.04244 0.061 0.03343 0.0
C21 C 0.03543 0.043 0.06255 0.0
C22 C 0.08086 0.02258 0.03933 0.0
C23 C 0.08943 0.01181 0.05478 0.0
C24 C 0.10557 0.99957 0.0511 0.0
C25 C 0.11324 0.99756 0.03184 0.0
C26 C 0.10472 0.00831 0.0164 0.0
C27 C 0.08881 0.02082 0.02013 0.0
C28 C 0.03754 0.07709 0.01956 0.0
C29 C 0.05241 0.08595 0.00772 0.0
C30 C 0.0479 0.10151 0.99502 0.0
C31 C 0.02836 0.10824 0.99361 0.0
C32 C 0.01342 0.09922 0.0052 0.0
C33 C 0.018 0.08394 0.01819 0.0
C34 C 0.02271 0.03919 0.08014 0.0
C35 C 0.00437 0.04858 0.08235 0.0
C36 C 0.27675 0.63063 0.21065 0.0
C37 C 0.26067 0.62887 0.19725 0.0
C38 C 0.26022 0.64171 0.18099 0.0
C39 C 0.27517 0.65634 0.1785 0.0
H40 H 0.28332 0.71184 0.15448 0.0
H41 H 0.2778 0.73742 0.13026 0.0
H42 H 0.3394 0.7572 0.13566 0.0
H43 H 0.34473 0.73197 0.16069 0.0
H44 H 0.36316 0.72239 0.20636 0.0
H45 H 0.38845 0.72651 0.23228 0.0
H46 H 0.37111 0.66907 0.25568 0.0
H47 H 0.34562 0.66505 0.23011 0.0
H48 H 0.30369 0.64639 0.21898 0.0
H49 H 0.27745 0.62112 0.22345 0.0
H50 H 0.24822 0.64054 0.17022 0.0
H51 H 0.27415 0.66612 0.16593 0.0
N52 N 0.30409 0.68887 0.17616 0.0
N53 N 0.33329 0.70555 0.18735 0.0
N54 N 0.32199 0.67629 0.20283 0.0
C55 C 0.31753 0.70426 0.17459 0.0
C56 C 0.33561 0.69158 0.20153 0.0
C57 C 0.30622 0.67477 0.19017 0.0
C58 C 0.3145 0.71978 0.15953 0.0
C59 C 0.29575 0.72158 0.1505 0.0
C60 C 0.2926 0.73623 0.13646 0.0
C61 C 0.30818 0.74934 0.13079 0.0
C62 C 0.32698 0.74754 0.1398 0.0
C63 C 0.33007 0.733 0.15409 0.0
C64 C 0.35216 0.69347 0.2162 0.0
C65 C 0.36482 0.71055 0.21692 0.0
C66 C 0.37941 0.71288 0.23173 0.0
C67 C 0.3817 0.69818 0.24614 0.0
C68 C 0.3695 0.68083 0.24502 0.0
C69 C 0.35492 0.67851 0.23026 0.0
C70 C 0.291 0.65846 0.19218 0.0
C71 C 0.29175 0.64523 0.20813 0.0
C72 C 0.98815 0.40488 0.00296 0.0
C73 C 0.98235 0.40448 0.98286 0.0
C74 C 0.97227 0.42095 0.97544 0.0
C75 C 0.96785 0.43718 0.98786 0.0
H76 H 0.93013 0.48679 0.99419 0.0
H77 H 0.90208 0.50814 0.9873 0.0
H78 H 0.90188 0.52777 0.04862 0.0
H79 H 0.92991 0.5066 0.05558 0.0
H80 H 0.96828 0.49787 0.08272 0.0
H81 H 0.98904 0.50386 0.11221 0.0
H82 H 0.03112 0.46152 0.0901 0.0
H83 H 0.01058 0.45551 0.06065 0.0
H84 H 0.98863 0.42085 0.03067 0.0
H85 H 0.9955 0.39236 0.00941 0.0
H86 H 0.96784 0.42139 0.95999 0.0
H87 H 0.96002 0.44956 0.9817 0.0
N88 N 0.95387 0.46676 0.01706 0.0
N89 N 0.9601 0.48477 0.04677 0.0
N90 N 0.97975 0.45766 0.03824 0.0
C91 C 0.94923 0.48189 0.02981 0.0
C92 C 0.97549 0.47279 0.05102 0.0
C93 C 0.96906 0.4545 0.02128 0.0
C94 C 0.9323 0.49495 0.02545 0.0
C95 C 0.92412 0.49565 0.00622 0.0
C96 C 0.90812 0.50794 0.00223 0.0
C97 C 0.89977 0.51956 0.01743 0.0
C98 C 0.9079 0.51883 0.03665 0.0
C99 C 0.92405 0.50678 0.04059 0.0
C100 C 0.98773 0.47624 0.06923 0.0
C101 C 0.98193 0.4898 0.08413 0.0
C102 C 0.99376 0.49317 0.10109 0.0
C103 C 0.01172 0.4832 0.10343 0.0
C104 C 0.01746 0.46958 0.08861 0.0
C105 C 0.00559 0.46607 0.07177 0.0
C106 C 0.97372 0.43749 0.00791 0.0
C107 C 0.98405 0.42122 0.01525 0.0
C108 C 0.71252 0.78146 0.13048 0.0
C109 C 0.70588 0.76147 0.13207 0.0
C110 C 0.69483 0.75594 0.14891 0.0
C111 C 0.69078 0.76999 0.16385 0.0
H112 H 0.64463 0.79055 0.20383 0.0
H113 H 0.61832 0.78508 0.22794 0.0
H114 H 0.64899 0.82535 0.26932 0.0
H115 H 0.6749 0.83146 0.24486 0.0
H116 H 0.70955 0.86043 0.22744 0.0
H117 H 0.73522 0.88656 0.2322 0.0
H118 H 0.75951 0.87223 0.17465 0.0
H119 H 0.7342 0.84596 0.16996 0.0
H120 H 0.71427 0.8106 0.14385 0.0
H121 H 0.72062 0.78643 0.11753 0.0
H122 H 0.68967 0.74066 0.15081 0.0
H123 H 0.68253 0.76517 0.17676 0.0
N124 N 0.68021 0.80155 0.1923 0.0
N125 N 0.69075 0.83073 0.20955 0.0
N126 N 0.70736 0.82064 0.18075 0.0
C127 C 0.67797 0.8147 0.20768 0.0
C128 C 0.70546 0.83384 0.19607 0.0
C129 C 0.69489 0.80445 0.17877 0.0
C130 C 0.66192 0.81142 0.2224 0.0
C131 C 0.64577 0.79826 0.21806 0.0
C132 C 0.6307 0.79505 0.23196 0.0
C133 C 0.63151 0.80469 0.25068 0.0
C134 C 0.64766 0.8179 0.25497 0.0
C135 C 0.66261 0.82131 0.24097 0.0
C136 C 0.7199 0.85089 0.19841 0.0
C137 C 0.72024 0.86295 0.21571 0.0
C138 C 0.7349 0.87801 0.21842 0.0
C139 C 0.7495 0.88135 0.20387 0.0
C140 C 0.74869 0.86979 0.18629 0.0
C141 C 0.7341 0.85475 0.18359 0.0
C142 C 0.69792 0.78981 0.16243 0.0
C143 C 0.70874 0.7954 0.14552 0.0
C144 C 0.0479 0.90443 0.52131 0.0
C145 C 0.02856 0.89604 0.52252 0.0
C146 C 0.01329 0.90417 0.51117 0.0
C147 C 0.01734 0.92021 0.49865 0.0
H148 H 0.99265 0.95574 0.45306 0.0
H149 H 0.97033 0.96424 0.42601 0.0
H150 H 0.01951 0.99353 0.39601 0.0
H151 H 0.04141 0.98591 0.42338 0.0
H152 H 0.07372 0.00558 0.45406 0.0
H153 H 0.10207 0.02802 0.46038 0.0
H154 H 0.12109 0.991 0.50826 0.0
H155 H 0.09256 0.9682 0.50196 0.0
H156 H 0.06699 0.9267 0.50846 0.0
H157 H 0.05992 0.89857 0.53003 0.0
H158 H 0.99827 0.89791 0.51175 0.0
H159 H 0.00526 0.92605 0.49 0.0
N160 N 0.02822 0.95012 0.46934 0.0
N161 N 0.04959 0.97635 0.45961 0.0
N162 N 0.05821 0.9568 0.48662 0.0
C163 C 0.03247 0.96541 0.45691 0.0
C164 C 0.06251 0.97226 0.47444 0.0
C165 C 0.04111 0.94564 0.48417 0.0
C166 C 0.0188 0.97018 0.44043 0.0
C167 C 0.99864 0.96404 0.44069 0.0
C168 C 0.98586 0.96886 0.42511 0.0
C169 C 0.99302 0.97966 0.40874 0.0
C170 C 0.01326 0.98564 0.40851 0.0
C171 C 0.02591 0.98111 0.42419 0.0
C172 C 0.08066 0.98511 0.47762 0.0
C173 C 0.08392 0.00203 0.46589 0.0
C174 C 0.10016 0.01499 0.46955 0.0
C175 C 0.11365 0.01138 0.48496 0.0
C176 C 0.11092 0.99412 0.49626 0.0
C177 C 0.09452 0.98113 0.49269 0.0
C178 C 0.0367 0.92866 0.49745 0.0
C179 C 0.0519 0.92063 0.50902 0.0
C180 C 0.2228 0.73634 0.87667 0.0
C181 C 0.20866 0.75125 0.87904 0.0
C182 C 0.19184 0.7508 0.86656 0.0
C183 C 0.18943 0.73609 0.85178 0.0
H184 H 0.15975 0.72601 0.80046 0.0
H185 H 0.1331 0.73024 0.77669 0.0
H186 H 0.14343 0.67166 0.75175 0.0
H187 H 0.17069 0.66761 0.7753 0.0
H188 H 0.20833 0.64336 0.79289 0.0
H189 H 0.23226 0.61704 0.78879 0.0
H190 H 0.27297 0.64892 0.82868 0.0
H191 H 0.24876 0.67484 0.83337 0.0
H192 H 0.2317 0.71048 0.86026 0.0
H193 H 0.23602 0.73638 0.88594 0.0
H194 H 0.18051 0.76186 0.86821 0.0
H195 H 0.17632 0.73638 0.84239 0.0
N196 N 0.18625 0.70763 0.81956 0.0
N197 N 0.19679 0.67904 0.80263 0.0
N198 N 0.21434 0.6912 0.83077 0.0
C199 C 0.18382 0.69416 0.80442 0.0
C200 C 0.21213 0.67748 0.81575 0.0
C201 C 0.20136 0.70627 0.83284 0.0
C202 C 0.1674 0.69642 0.78988 0.0
C203 C 0.15639 0.71395 0.78998 0.0
C204 C 0.14097 0.71636 0.77637 0.0
C205 C 0.13598 0.70125 0.76236 0.0
C206 C 0.147 0.6837 0.7622 0.0
C207 C 0.16258 0.68133 0.77577 0.0
C208 C 0.22659 0.66127 0.81344 0.0
C209 C 0.22236 0.64474 0.80084 0.0
C210 C 0.23616 0.62968 0.79841 0.0
C211 C 0.25465 0.63083 0.80833 0.0
C212 C 0.2588 0.64732 0.82103 0.0
C213 C 0.24491 0.66228 0.82363 0.0
C214 C 0.20374 0.72138 0.8491 0.0
C215 C 0.22037 0.72155 0.86187 0.0
C216 C 0.99823 0.60323 0.49737 0.0
C217 C 0.99176 0.60369 0.51722 0.0
C218 C 0.98314 0.58621 0.52514 0.0
C219 C 0.98014 0.56909 0.51335 0.0
H220 H 0.92755 0.53423 0.49312 0.0
H221 H 0.89759 0.5144 0.49969 0.0
H222 H 0.9238 0.46328 0.47108 0.0
H223 H 0.95336 0.48358 0.46354 0.0
H224 H 0.97803 0.5091 0.4198 0.0
H225 H 0.99823 0.50246 0.39071 0.0
H226 H 0.0488 0.53214 0.41959 0.0
H227 H 0.02817 0.53974 0.44817 0.0
H228 H 1.00028 0.58608 0.47029 0.0
H229 H 0.00479 0.61641 0.49069 0.0
H230 H 0.97855 0.58571 0.54051 0.0
H231 H 0.9731 0.55605 0.51987 0.0
N232 N 0.96542 0.53919 0.48483 0.0
N233 N 0.97256 0.51832 0.45768 0.0
N234 N 0.99329 0.54632 0.4651 0.0
C235 C 0.96078 0.52288 0.47336 0.0
C236 C 0.98886 0.52996 0.45349 0.0
C237 C 0.98163 0.55095 0.48083 0.0
C238 C 0.9428 0.51049 0.47775 0.0
C239 C 0.92692 0.51874 0.48826 0.0
C240 C 0.90976 0.50728 0.49217 0.0
C241 C 0.90816 0.48713 0.48601 0.0
C242 C 0.92425 0.47882 0.47575 0.0
C243 C 0.94128 0.49042 0.4715 0.0
C244 C 0.00147 0.52507 0.43622 0.0
C245 C 0.99348 0.51415 0.41993 0.0
C246 C 0.00516 0.51022 0.40328 0.0
C247 C 0.02523 0.51676 0.40265 0.0
C248 C 0.03331 0.52723 0.41926 0.0
C249 C 0.02152 0.53151 0.43573 0.0
C250 C 0.98612 0.56879 0.49343 0.0
C251 C 0.99558 0.58588 0.48564 0.0
C252 C 0.88339 0.80405 0.7776 0.0
C253 C 0.88477 0.81618 0.76082 0.0
C254 C 0.87042 0.83075 0.75809 0.0
C255 C 0.85473 0.83274 0.77151 0.0
H256 H 0.80739 0.86879 0.78828 0.0
H257 H 0.78185 0.89308 0.78271 0.0
H258 H 0.74049 0.85802 0.81764 0.0
H259 H 0.76628 0.8341 0.82384 0.0
H260 H 0.78194 0.79539 0.84568 0.0
H261 H 0.77734 0.76948 0.87035 0.0
H262 H 0.84017 0.75799 0.86872 0.0
H263 H 0.84489 0.78384 0.84387 0.0
H264 H 0.86697 0.79605 0.80345 0.0
H265 H 0.89401 0.79247 0.78003 0.0
H266 H 0.87117 0.84046 0.74542 0.0
H267 H 0.84373 0.84386 0.76871 0.0
N268 N 0.82117 0.83457 0.79842 0.0
N269 N 0.80226 0.8207 0.82419 0.0
N270 N 0.833 0.80728 0.81578 0.0
C271 C 0.80455 0.83461 0.80987 0.0
C272 C 0.81648 0.80705 0.82732 0.0
C273 C 0.83545 0.82092 0.80125 0.0
C274 C 0.78894 0.84944 0.80651 0.0
C275 C 0.79286 0.86624 0.79481 0.0
C276 C 0.77814 0.88015 0.79151 0.0
C277 C 0.75901 0.87753 0.79963 0.0
C278 C 0.7551 0.86073 0.81138 0.0
C279 C 0.7699 0.84692 0.81485 0.0
C280 C 0.81378 0.79169 0.84274 0.0
C281 C 0.79482 0.78742 0.85059 0.0
C282 C 0.79214 0.77249 0.86462 0.0
C283 C 0.80839 0.76168 0.87135 0.0
C284 C 0.82741 0.76614 0.86381 0.0
C285 C 0.83006 0.78089 0.84954 0.0
C286 C 0.85299 0.82013 0.78794 0.0
C287 C 0.86773 0.80601 0.79098 0.0
C288 C 0.37409 0.29484 0.26865 0.0
C289 C 0.37981 0.31052 0.25616 0.0
C290 C 0.37015 0.32876 0.25784 0.0
C291 C 0.35467 0.33109 0.27144 0.0
H292 H 0.29563 0.35357 0.2736 0.0
H293 H 0.27047 0.37809 0.26766 0.0
H294 H 0.25103 0.37337 0.32851 0.0
H295 H 0.27565 0.34805 0.33415 0.0
H296 H 0.27987 0.29667 0.34589 0.0
H297 H 0.27506 0.27155 0.37135 0.0
H298 H 0.33707 0.25699 0.36757 0.0
H299 H 0.34197 0.28197 0.34189 0.0
H300 H 0.35476 0.2848 0.29173 0.0
H301 H 0.38144 0.28068 0.26776 0.0
H302 H 0.37429 0.34104 0.24833 0.0
H303 H 0.34729 0.34524 0.27222 0.0
N304 N 0.31848 0.33182 0.29528 0.0
N305 N 0.30055 0.32039 0.32285 0.0
N306 N 0.32971 0.30456 0.31311 0.0
C307 C 0.30269 0.33341 0.3077 0.0
C308 C 0.31403 0.30593 0.32567 0.0
C309 C 0.33206 0.31745 0.29791 0.0
C310 C 0.28767 0.34882 0.30436 0.0
C311 C 0.28603 0.35778 0.28575 0.0
C312 C 0.27163 0.37199 0.28237 0.0
C313 C 0.25868 0.37788 0.29761 0.0
C314 C 0.26047 0.36902 0.3163 0.0
C315 C 0.2747 0.35456 0.31959 0.0
C316 C 0.3113 0.29131 0.34178 0.0
C317 C 0.29253 0.28821 0.35051 0.0
C318 C 0.28973 0.27375 0.36501 0.0
C319 C 0.30568 0.26229 0.37133 0.0
C320 C 0.32454 0.26567 0.36299 0.0
C321 C 0.32729 0.27991 0.34823 0.0
C322 C 0.34882 0.31533 0.28387 0.0
C323 C 0.35888 0.29726 0.28245 0.0
C324 C 0.49059 0.90701 0.50641 0.0
C325 C 0.48493 0.90693 0.48627 0.0
C326 C 0.47498 0.92355 0.47901 0.0
C327 C 0.47046 0.93957 0.49164 0.0
H328 H 0.43255 0.98823 0.49778 0.0
H329 H 0.4046 0.00941 0.49025 0.0
H330 H 0.40305 0.02925 0.55147 0.0
H331 H 0.431 0.00819 0.5591 0.0
H332 H 0.46814 0.99813 0.58766 0.0
H333 H 0.4882 0.00388 0.61769 0.0
H334 H 0.53166 0.96303 0.59547 0.0
H335 H 0.51181 0.95724 0.56552 0.0
H336 H 0.49078 0.92254 0.53438 0.0
H337 H 0.49787 0.89437 0.51271 0.0
H338 H 0.4707 0.92425 0.46354 0.0
H339 H 0.46269 0.95205 0.4856 0.0
N340 N 0.45594 0.96852 0.52094 0.0
N341 N 0.46126 0.98604 0.55107 0.0
N342 N 0.48127 0.95914 0.54262 0.0
C343 C 0.45088 0.9834 0.53377 0.0
C344 C 0.47658 0.97404 0.55553 0.0
C345 C 0.47105 0.95625 0.52534 0.0
C346 C 0.43406 0.99647 0.52907 0.0
C347 C 0.42628 0.9971 0.50966 0.0
C348 C 0.41033 0.0093 0.5053 0.0
C349 C 0.40162 0.02094 0.52027 0.0
C350 C 0.40935 0.0203 0.53966 0.0
C351 C 0.42546 0.00831 0.54399 0.0
C352 C 0.48835 0.97726 0.57409 0.0
C353 C 0.48195 0.99033 0.58917 0.0
C354 C 0.49337 0.99356 0.60643 0.0
C355 C 0.51152 0.98395 0.60888 0.0
C356 C 0.51784 0.9708 0.5939 0.0
C357 C 0.50636 0.96742 0.57677 0.0
C358 C 0.47608 0.93953 0.51175 0.0
C359 C 0.48638 0.92316 0.51892 0.0
C360 C 0.22327 0.27142 0.64142 0.0
C361 C 0.20894 0.25669 0.63584 0.0
C362 C 0.19067 0.25598 0.64594 0.0
C363 C 0.18669 0.26992 0.661 0.0
H364 H 0.15423 0.27894 0.71378 0.0
H365 H 0.12754 0.27395 0.73742 0.0
H366 H 0.13057 0.33677 0.75303 0.0
H367 H 0.15798 0.3416 0.72988 0.0
H368 H 0.19684 0.37066 0.70253 0.0
H369 H 0.22092 0.39862 0.70513 0.0
H370 H 0.26894 0.35691 0.70301 0.0
H371 H 0.24491 0.32954 0.69873 0.0
H372 H 0.23067 0.29659 0.66012 0.0
H373 H 0.23765 0.27217 0.63423 0.0
H374 H 0.17921 0.24496 0.64187 0.0
H375 H 0.17234 0.26914 0.66823 0.0
N376 N 0.1799 0.29881 0.69293 0.0
N377 N 0.18816 0.32952 0.70866 0.0
N378 N 0.20893 0.31651 0.68402 0.0
C379 C 0.17569 0.31325 0.70661 0.0
C380 C 0.20485 0.33112 0.69744 0.0
C381 C 0.19644 0.30042 0.68148 0.0
C382 C 0.15834 0.31067 0.71995 0.0
C383 C 0.14914 0.29175 0.72211 0.0
C384 C 0.13369 0.2889 0.73565 0.0
C385 C 0.1268 0.30495 0.74721 0.0
C386 C 0.13568 0.32399 0.74466 0.0
C387 C 0.15134 0.32679 0.73128 0.0
C388 C 0.21909 0.34805 0.70026 0.0
C389 C 0.21259 0.36765 0.70256 0.0
C390 C 0.22644 0.38363 0.70416 0.0
C391 C 0.24706 0.38023 0.70405 0.0
C392 C 0.25333 0.36039 0.70241 0.0
C393 C 0.23954 0.34459 0.70019 0.0
C394 C 0.20088 0.28494 0.66625 0.0
C395 C 0.21928 0.28539 0.65638 0.0
C396 C 0.78002 0.1245 0.69221 0.0
C397 C 0.75982 0.12918 0.69451 0.0
C398 C 0.75474 0.14945 0.69435 0.0
C399 C 0.76928 0.16445 0.6917 0.0
H400 H 0.78035 0.2167 0.65725 0.0
H401 H 0.7748 0.24296 0.63368 0.0
H402 H 0.83774 0.25821 0.63436 0.0
H403 H 0.84315 0.23237 0.6587 0.0
H404 H 0.86334 0.22101 0.70341 0.0
H405 H 0.88873 0.22425 0.72927 0.0
H406 H 0.87099 0.16638 0.75133 0.0
H407 H 0.84539 0.16317 0.72574 0.0
H408 H 0.81008 0.1356 0.68876 0.0
H409 H 0.78465 0.10917 0.69176 0.0
H410 H 0.73959 0.15394 0.69669 0.0
H411 H 0.76489 0.17988 0.69169 0.0
N412 N 0.80169 0.19091 0.67544 0.0
N413 N 0.83208 0.206 0.68555 0.0
N414 N 0.82129 0.17572 0.69943 0.0
C415 C 0.81548 0.20601 0.67391 0.0
C416 C 0.83503 0.19095 0.69846 0.0
C417 C 0.80463 0.17565 0.68798 0.0
C418 C 0.81222 0.22236 0.65982 0.0
C419 C 0.79303 0.22565 0.65241 0.0
C420 C 0.78986 0.24067 0.63875 0.0
C421 C 0.80584 0.25263 0.63187 0.0
C422 C 0.82503 0.24946 0.63945 0.0
C423 C 0.82816 0.23457 0.65336 0.0
C424 C 0.8521 0.19193 0.71256 0.0
C425 C 0.86497 0.20884 0.7136 0.0
C426 C 0.87962 0.21068 0.72839 0.0
C427 C 0.88175 0.19565 0.74248 0.0
C428 C 0.86949 0.17837 0.74091 0.0
C429 C 0.85486 0.17652 0.72614 0.0
C430 C 0.78934 0.15966 0.68989 0.0
C431 C 0.79465 0.1396 0.69029 0.0
C432 C 0.49179 0.54873 0.60027 0.0
C433 C 0.49703 0.53488 0.61467 0.0
C434 C 0.51503 0.5249 0.61258 0.0
C435 C 0.52748 0.52863 0.59644 0.0
H436 H 0.57292 0.50401 0.56481 0.0
H437 H 0.60053 0.48213 0.55825 0.0
H438 H 0.6223 0.5221 0.51322 0.0
H439 H 0.59474 0.54416 0.51978 0.0
H440 H 0.57012 0.58579 0.51275 0.0
H441 H 0.56267 0.61288 0.49019 0.0
H442 H 0.50081 0.60874 0.50684 0.0
H443 H 0.50818 0.58194 0.52962 0.0
H444 H 0.4998 0.56337 0.57338 0.0
H445 H 0.47808 0.55677 0.60156 0.0
H446 H 0.51936 0.51396 0.6233 0.0
H447 H 0.5412 0.5206 0.59533 0.0
N448 N 0.55183 0.53524 0.56182 0.0
N449 N 0.56038 0.55405 0.53395 0.0
N450 N 0.53182 0.5615 0.55225 0.0
C451 C 0.56426 0.53884 0.54636 0.0
C452 C 0.54415 0.5654 0.53677 0.0
C453 C 0.53563 0.54653 0.56494 0.0
C454 C 0.58151 0.52588 0.5428 0.0
C455 C 0.58361 0.50825 0.55356 0.0
C456 C 0.59938 0.49562 0.54974 0.0
C457 C 0.61355 0.50036 0.53518 0.0
C458 C 0.6117 0.51813 0.52464 0.0
C459 C 0.59582 0.53071 0.52835 0.0
C460 C 0.53974 0.58173 0.523 0.0
C461 C 0.55493 0.59065 0.51159 0.0
C462 C 0.55071 0.60619 0.49877 0.0
C463 C 0.53117 0.61282 0.49679 0.0
C464 C 0.51597 0.6038 0.50802 0.0
C465 C 0.52023 0.58855 0.52113 0.0
C466 C 0.5223 0.54253 0.58202 0.0
C467 C 0.50431 0.55257 0.58416 0.0
C468 C 0.53959 0.41381 0.02684 0.0
C469 C 0.52709 0.39794 0.02012 0.0
C470 C 0.51851 0.3988 0.00111 0.0
C471 C 0.52226 0.4153 0.98911 0.0
H472 H 0.49931 0.44536 0.94082 0.0
H473 H 0.47795 0.45229 0.91262 0.0
H474 H 0.50936 0.50867 0.90467 0.0
H475 H 0.53104 0.50158 0.93251 0.0
H476 H 0.56865 0.51196 0.95687 0.0
H477 H 0.59679 0.53456 0.96365 0.0
H478 H 0.61664 0.49626 0.01017 0.0
H479 H 0.58842 0.47329 0.00331 0.0
H480 H 0.55333 0.4421 0.02038 0.0
H481 H 0.54653 0.41344 0.04137 0.0
H482 H 0.50874 0.3868 0.99562 0.0
H483 H 0.51537 0.41553 0.97455 0.0
N484 N 0.52686 0.45237 0.96741 0.0
N485 N 0.54634 0.48078 0.96001 0.0
N486 N 0.55493 0.46107 0.98694 0.0
C487 C 0.53038 0.46852 0.95587 0.0
C488 C 0.55874 0.47717 0.97543 0.0
C489 C 0.53903 0.44859 0.98302 0.0
C490 C 0.517 0.47285 0.93896 0.0
C491 C 0.50167 0.45926 0.93311 0.0
C492 C 0.48931 0.4633 0.91699 0.0
C493 C 0.49191 0.48106 0.90636 0.0
C494 C 0.50711 0.49473 0.91234 0.0
C495 C 0.5195 0.49067 0.92839 0.0
C496 C 0.57613 0.49078 0.9796 0.0
C497 C 0.57895 0.50823 0.96855 0.0
C498 C 0.59506 0.52129 0.97249 0.0
C499 C 0.60884 0.51727 0.98755 0.0
C500 C 0.6063 0.49969 0.99842 0.0
C501 C 0.59006 0.48661 0.99454 0.0
C502 C 0.53491 0.43113 0.99575 0.0
C503 C 0.54358 0.43016 0.01474 0.0
C504 C 0.70666 0.22728 0.3855 0.0
C505 C 0.70741 0.24786 0.38138 0.0
C506 C 0.70708 0.25364 0.36137 0.0
C507 C 0.70528 0.23943 0.34607 0.0
H508 H 0.65307 0.21631 0.30769 0.0
H509 H 0.62737 0.22177 0.28317 0.0
H510 H 0.65965 0.187 0.24006 0.0
H511 H 0.68505 0.18076 0.26505 0.0
H512 H 0.7221 0.15556 0.28222 0.0
H513 H 0.74629 0.12965 0.27793 0.0
H514 H 0.75933 0.13241 0.34082 0.0
H515 H 0.73568 0.15905 0.34494 0.0
H516 H 0.70484 0.19731 0.37358 0.0
H517 H 0.70659 0.22212 0.40062 0.0
H518 H 0.70838 0.26917 0.35736 0.0
H519 H 0.7048 0.2444 0.33086 0.0
N520 N 0.68845 0.20743 0.31947 0.0
N521 N 0.6991 0.17927 0.3019 0.0
N522 N 0.71431 0.1886 0.33229 0.0
C523 C 0.68665 0.19482 0.30356 0.0
C524 C 0.71294 0.17602 0.31623 0.0
C525 C 0.70217 0.20441 0.33384 0.0
C526 C 0.67116 0.19813 0.28833 0.0
C527 C 0.65475 0.20984 0.29298 0.0
C528 C 0.64002 0.21309 0.27882 0.0
C529 C 0.64144 0.20499 0.2595 0.0
C530 C 0.6579 0.19327 0.25484 0.0
C531 C 0.67253 0.18977 0.26914 0.0
C532 C 0.72695 0.15944 0.31392 0.0
C533 C 0.73003 0.15059 0.29517 0.0
C534 C 0.74387 0.13559 0.29273 0.0
C535 C 0.75481 0.12881 0.30903 0.0
C536 C 0.75146 0.13745 0.32786 0.0
C537 C 0.73779 0.15266 0.33025 0.0
C538 C 0.70452 0.21905 0.35026 0.0
C539 C 0.70553 0.21301 0.37005 0.0
C540 C 0.48728 0.10563 0.00228 0.0
C541 C 0.49247 0.10273 0.02232 0.0
C542 C 0.49529 0.08309 0.02867 0.0
C543 C 0.49181 0.06683 0.01582 0.0
H544 H 0.43073 0.03156 0.00176 0.0
H545 H 0.40227 0.0103 0.00996 0.0
H546 H 0.4278 0.96151 0.97689 0.0
H547 H 0.45581 0.98331 0.96774 0.0
H548 H 0.49025 0.99696 0.93469 0.0
H549 H 0.50909 0.99064 0.90436 0.0
H550 H 0.52653 0.05301 0.90242 0.0
H551 H 0.50791 0.05939 0.93276 0.0
H552 H 0.47997 0.09183 0.97402 0.0
H553 H 0.48475 0.12042 0.99679 0.0
H554 H 0.49999 0.08013 0.0437 0.0
H555 H 0.49346 0.05187 0.02132 0.0
N556 N 0.46672 0.03923 0.9892 0.0
N557 N 0.47216 0.01933 0.9609 0.0
N558 N 0.49079 0.0492 0.966 0.0
C559 C 0.46205 0.02273 0.978 0.0
C560 C 0.48654 0.03252 0.95479 0.0
C561 C 0.48104 0.05245 0.9833 0.0
C562 C 0.44549 0.00915 0.98401 0.0
C563 C 0.43035 0.01625 0.99633 0.0
C564 C 0.41404 0.00395 0.00118 0.0
C565 C 0.41261 0.98408 0.99415 0.0
C566 C 0.42812 0.97682 0.98228 0.0
C567 C 0.44427 0.98927 0.97711 0.0
C568 C 0.49758 0.02869 0.93618 0.0
C569 C 0.49803 0.00935 0.92776 0.0
C570 C 0.50888 0.00569 0.91047 0.0
C571 C 0.5192 0.02134 0.90106 0.0
C572 C 0.51856 0.0407 0.9093 0.0
C573 C 0.50799 0.04431 0.92674 0.0
C574 C 0.4862 0.0698 0.99609 0.0
C575 C 0.48442 0.08929 0.98923 0.0
Mn576 Mn 0.25453 0.87387 0.00927 0.0
Mn577 Mn 0.25518 0.89711 0.9652 0.0
C578 C 0.23964 0.85859 0.98173 0.0
C579 C 0.26872 0.85333 0.03273 0.0
C580 C 0.22728 0.90807 0.99852 0.0
O581 O 0.27662 0.89499 0.01319 0.0
O582 O 0.27607 0.90901 0.98303 0.0
C583 C 0.29458 0.88435 0.95113 0.0
N584 N 0.27458 0.88554 0.94825 0.0
C585 C 0.27686 0.87113 0.91544 0.0
C586 C 0.2975 0.8698 0.91801 0.0
C587 C 0.30637 0.87634 0.93598 0.0
C588 C 0.26585 0.87904 0.93114 0.0
H589 H 0.30148 0.88953 0.96485 0.0
C590 C 0.28317 0.90751 1.00058 0.0
O591 O 0.25575 0.86648 0.03768 0.0
O592 O 0.27374 0.85235 0.01417 0.0
N593 N 0.23598 0.88709 0.94623 0.0
C594 C 0.21578 0.88821 0.94667 0.0
C595 C 0.20455 0.88172 0.93004 0.0
C596 C 0.21422 0.87449 0.91304 0.0
C597 C 0.23503 0.87345 0.91297 0.0
C598 C 0.24541 0.87998 0.93002 0.0
H599 H 0.20832 0.89408 0.95957 0.0
O600 O 0.2344 0.85359 0.99952 0.0
O601 O 0.25358 0.87241 0.98052 0.0
O602 O 0.23315 0.89509 0.01068 0.0
O603 O 0.23457 0.91012 0.9812 0.0
C604 C 0.24589 0.86618 0.89667 0.0
C605 C 0.26676 0.86483 0.89797 0.0
H606 H 0.30665 0.86371 0.90632 0.0
H607 H 0.32228 0.87532 0.9381 0.0
H608 H 0.18849 0.88249 0.93022 0.0
H609 H 0.20551 0.86973 0.90017 0.0
H610 H 0.23833 0.86142 0.8831 0.0
H611 H 0.27489 0.85884 0.88548 0.0
Mn612 Mn 0.136 0.50293 0.24814 0.0
Mn613 Mn 0.11543 0.54831 0.24948 0.0
C614 C 0.15196 0.52975 0.23319 0.0
C615 C 0.15606 0.47859 0.26147 0.0
C616 C 0.10166 0.51533 0.22108 0.0
O617 O 0.11588 0.50006 0.27044 0.0
O618 O 0.10294 0.53066 0.26958 0.0
C619 C 0.13011 0.56115 0.28933 0.0
N620 N 0.12845 0.56448 0.26952 0.0
C621 C 0.14493 0.59666 0.27307 0.0
C622 C 0.14675 0.59363 0.29353 0.0
C623 C 0.13941 0.57575 0.30167 0.0
C624 C 0.13574 0.58148 0.26149 0.0
H625 H 0.12433 0.5475 0.29567 0.0
C626 C 0.10387 0.51312 0.27667 0.0
O627 O 0.14194 0.47404 0.24885 0.0
O628 O 0.15823 0.49724 0.26674 0.0
N629 N 0.12589 0.56727 0.23113 0.0
C630 C 0.12379 0.56742 0.21101 0.0
C631 C 0.13044 0.58421 0.20052 0.0
C632 C 0.13891 0.60076 0.21085 0.0
C633 C 0.14109 0.60019 0.23153 0.0
C634 C 0.13417 0.58306 0.24118 0.0
H635 H 0.11695 0.55488 0.20306 0.0
O636 O 0.15563 0.51157 0.22774 0.0
O637 O 0.13909 0.53181 0.24743 0.0
O638 O 0.11355 0.50229 0.2273 0.0
O639 O 0.10129 0.53307 0.22821 0.0
C640 C 0.1498 0.61595 0.24297 0.0
C641 C 0.15191 0.6141 0.2637 0.0
H642 H 0.15382 0.6049 0.30311 0.0
H643 H 0.1408 0.57328 0.31744 0.0
H644 H 0.12882 0.58452 0.18455 0.0
H645 H 0.14368 0.61382 0.20273 0.0
H646 H 0.15511 0.6295 0.23598 0.0
H647 H 0.15894 0.62618 0.27228 0.0
Mn648 Mn 0.75627 0.6309 1.00062 0.0
Mn649 Mn 0.71703 0.65221 0.9786 0.0
C650 C 0.72507 0.6151 0.00124 0.0
C651 C 0.78437 0.61111 0.99999 0.0
C652 C 0.73298 0.66546 0.01882 0.0
O653 O 0.76972 0.65159 0.98282 0.0
O654 O 0.74234 0.6643 0.96908 0.0
C655 C 0.72403 0.63706 0.93778 0.0
N656 N 0.71174 0.63926 0.95362 0.0
C657 C 0.684 0.62452 0.93546 0.0
C658 C 0.69634 0.62209 0.91891 0.0
C659 C 0.71648 0.62826 0.92013 0.0
C660 C 0.69248 0.63298 0.95275 0.0
H661 H 0.73944 0.64206 0.93861 0.0
C662 C 0.7612 0.66365 0.97131 0.0
O663 O 0.78223 0.62514 0.01323 0.0
O664 O 0.77028 0.60872 0.98682 0.0
N665 N 0.69119 0.64256 0.98606 0.0
C666 C 0.68149 0.64559 0.00351 0.0
C667 C 0.66107 0.64083 0.00468 0.0
C668 C 0.65082 0.63331 0.98783 0.0
C669 C 0.6612 0.6299 0.97015 0.0
C670 C 0.6815 0.63508 0.96984 0.0
H671 H 0.68918 0.652 0.01631 0.0
O672 O 0.73868 0.61098 0.01416 0.0
O673 O 0.73018 0.62816 0.98795 0.0
O674 O 0.74693 0.65299 0.0196 0.0
O675 O 0.72098 0.66644 0.00417 0.0
C676 C 0.65218 0.62188 0.95273 0.0
C677 C 0.66363 0.61895 0.93548 0.0
H678 H 0.69051 0.61551 0.90521 0.0
H679 H 0.72609 0.62644 0.90743 0.0
H680 H 0.65316 0.64335 0.0184 0.0
H681 H 0.63495 0.63019 0.98865 0.0
H682 H 0.63647 0.61778 0.95248 0.0
H683 H 0.65659 0.6125 0.92228 0.0
Mn684 Mn 0.8777 0.00428 0.2584 0.0
Mn685 Mn 0.89771 0.95874 0.25484 0.0
C686 C 0.86089 0.97857 0.24145 0.0
C687 C 0.85824 0.02817 0.27393 0.0
C688 C 0.911 0.99325 0.2294 0.0
O689 O 0.89839 0.00547 0.28062 0.0
O690 O 0.91104 0.97494 0.27629 0.0
C691 C 0.88439 0.94343 0.29369 0.0
N692 N 0.88526 0.94142 0.27357 0.0
C693 C 0.86876 0.90915 0.27439 0.0
C694 C 0.86774 0.91082 0.29513 0.0
C695 C 0.87549 0.92809 0.30481 0.0
C696 C 0.87759 0.92501 0.26409 0.0
H697 H 0.89049 0.95659 0.3012 0.0
C698 C 0.91043 0.99192 0.28524 0.0
O699 O 0.87231 0.03312 0.2617 0.0
O700 O 0.85592 0.00933 0.27773 0.0
N701 N 0.88635 0.94114 0.23497 0.0
C702 C 0.88755 0.94237 0.21485 0.0
C703 C 0.88023 0.92641 0.20292 0.0
C704 C 0.87206 0.90926 0.2118 0.0
C705 C 0.87084 0.90841 0.23253 0.0
C706 C 0.87834 0.92478 0.24365 0.0
H707 H 0.89417 0.95537 0.20798 0.0
O708 O 0.85745 0.99707 0.23762 0.0
O709 O 0.87417 0.97555 0.25513 0.0
O710 O 0.89956 0.00596 0.23728 0.0
O711 O 0.91134 0.9751 0.2347 0.0
C712 C 0.86252 0.89195 0.24262 0.0
C713 C 0.8613 0.8924 0.26352 0.0
H714 H 0.86097 0.89898 0.30376 0.0
H715 H 0.87471 0.92952 0.3208 0.0
H716 H 0.88112 0.92721 0.18692 0.0
H717 H 0.86673 0.89686 0.20253 0.0
H718 H 0.85683 0.87894 0.23446 0.0
H719 H 0.85454 0.87982 0.27107 0.0
Mn720 Mn 0.25697 0.12995 0.50038 0.0
Mn721 Mn 0.21684 0.15027 0.47908 0.0
C722 C 0.22623 0.11322 0.50101 0.0
C723 C 0.28557 0.1109 0.49975 0.0
C724 C 0.23246 0.16326 0.51943 0.0
O725 O 0.26975 0.15095 0.48252 0.0
O726 O 0.24177 0.16372 0.47013 0.0
C727 C 0.22483 0.13674 0.43789 0.0
N728 N 0.2123 0.13793 0.45366 0.0
C729 C 0.18536 0.12252 0.43483 0.0
C730 C 0.19794 0.12113 0.41835 0.0
C731 C 0.21781 0.12815 0.41994 0.0
C732 C 0.19333 0.13082 0.45243 0.0
H733 H 0.24001 0.14237 0.439 0.0
C734 C 0.26071 0.16333 0.47179 0.0
O735 O 0.28311 0.12492 0.51293 0.0
O736 O 0.27153 0.10813 0.48658 0.0
N737 N 0.19132 0.13934 0.48597 0.0
C738 C 0.1813 0.1415 0.50337 0.0
C739 C 0.16104 0.13595 0.50415 0.0
C740 C 0.15127 0.1285 0.487 0.0
C741 C 0.16199 0.12596 0.46938 0.0
C742 C 0.18209 0.13195 0.46945 0.0
H743 H 0.1886 0.14781 0.51643 0.0
O744 O 0.23996 0.10956 0.51396 0.0
O745 O 0.23088 0.12649 0.48778 0.0
O746 O 0.24727 0.15179 0.51943 0.0
O747 O 0.21995 0.1637 0.50516 0.0
C748 C 0.15347 0.11805 0.45168 0.0
C749 C 0.16522 0.11607 0.43449 0.0
H750 H 0.19252 0.11471 0.40442 0.0
H751 H 0.22761 0.12712 0.40729 0.0
H752 H 0.15287 0.13778 0.51783 0.0
H753 H 0.1355 0.12478 0.48754 0.0
H754 H 0.13794 0.1133 0.45115 0.0
H755 H 0.15858 0.10971 0.42105 0.0
Mn756 Mn 0.37445 0.50426 0.75754 0.0
Mn757 Mn 0.3926 0.45824 0.75044 0.0
C758 C 0.3563 0.48037 0.73923 0.0
C759 C 0.35598 0.52764 0.77503 0.0
C760 C 0.4072 0.49431 0.72774 0.0
O761 O 0.39558 0.50307 0.77929 0.0
O762 O 0.40606 0.47195 0.77339 0.0
C763 C 0.37873 0.43935 0.7875 0.0
N764 N 0.37957 0.43942 0.76731 0.0
C765 C 0.36308 0.40716 0.76488 0.0
C766 C 0.36205 0.4067 0.78564 0.0
C767 C 0.3698 0.42293 0.79699 0.0
C768 C 0.37193 0.42402 0.75625 0.0
H769 H 0.38491 0.45167 0.79627 0.0
C770 C 0.40654 0.48841 0.78335 0.0
O771 O 0.37021 0.53303 0.76316 0.0
O772 O 0.35305 0.50862 0.77744 0.0
N773 N 0.38087 0.44302 0.72896 0.0
C774 C 0.38193 0.4464 0.70911 0.0
C775 C 0.37438 0.43185 0.69565 0.0
C776 C 0.36609 0.41389 0.70272 0.0
C777 C 0.36495 0.41084 0.72323 0.0
C778 C 0.37268 0.4259 0.73592 0.0
H779 H 0.38864 0.46003 0.70361 0.0
O780 O 0.35362 0.49926 0.73674 0.0
O781 O 0.36974 0.4759 0.75228 0.0
O782 O 0.39598 0.50681 0.73623 0.0
O783 O 0.40707 0.47587 0.73202 0.0
C784 C 0.35651 0.39345 0.73158 0.0
C785 C 0.35549 0.39165 0.75239 0.0
H786 H 0.35525 0.39403 0.79303 0.0
H787 H 0.36903 0.42271 0.81303 0.0
H788 H 0.37519 0.43435 0.67985 0.0
H789 H 0.36059 0.40257 0.69226 0.0
H790 H 0.35058 0.38144 0.72215 0.0
H791 H 0.34866 0.37836 0.75862 0.0
Mn792 Mn 0.75238 0.3746 0.50838 0.0
Mn793 Mn 0.74939 0.39483 0.46294 0.0
C794 C 0.73605 0.35722 0.48283 0.0
C795 C 0.76799 0.35561 0.53226 0.0
C796 C 0.72364 0.40749 0.49732 0.0
O797 O 0.77443 0.39597 0.50943 0.0
O798 O 0.77104 0.4084 0.47875 0.0
C799 C 0.78824 0.38262 0.4469 0.0
N800 N 0.76805 0.38297 0.44534 0.0
C801 C 0.76865 0.36733 0.41296 0.0
C802 C 0.78947 0.36685 0.41418 0.0
C803 C 0.79929 0.37442 0.43128 0.0
C804 C 0.75843 0.37551 0.42907 0.0
H805 H 0.79586 0.38863 0.45992 0.0
C806 C 0.77959 0.40797 0.49578 0.0
O807 O 0.75543 0.36918 0.5371 0.0
O808 O 0.77196 0.35344 0.51352 0.0
N809 N 0.72935 0.38315 0.44582 0.0
C810 C 0.70918 0.38349 0.44762 0.0
C811 C 0.69708 0.3759 0.43206 0.0
C812 C 0.70585 0.3683 0.41472 0.0
C813 C 0.72664 0.36795 0.41329 0.0
C814 C 0.73793 0.37566 0.4293 0.0
H815 H 0.7024 0.38962 0.46079 0.0
O816 O 0.73188 0.35365 0.50124 0.0
O817 O 0.7496 0.37111 0.4798 0.0
O818 O 0.73104 0.39586 0.50997 0.0
O819 O 0.72935 0.40812 0.47933 0.0
C820 C 0.73663 0.36022 0.39662 0.0
C821 C 0.75762 0.35983 0.3965 0.0
H822 H 0.79804 0.36059 0.40214 0.0
H823 H 0.81535 0.37406 0.43236 0.0
H824 H 0.68104 0.37611 0.43331 0.0
H825 H 0.69645 0.36272 0.40265 0.0
H826 H 0.72833 0.35434 0.3839 0.0
H827 H 0.76511 0.35353 0.38375 0.0
Mn828 Mn 0.63704 0.00346 0.75179 0.0
Mn829 Mn 0.61867 0.04983 0.75176 0.0
C830 C 0.65389 0.02874 0.73509 0.0
C831 C 0.65644 0.97918 0.76622 0.0
C832 C 0.60182 0.01542 0.72628 0.0
O833 O 0.61687 0.00267 0.77431 0.0
O834 O 0.60812 0.03494 0.77494 0.0
C835 C 0.6379 0.06656 0.78827 0.0
N836 N 0.6339 0.06779 0.76852 0.0
C837 C 0.64979 0.10032 0.76707 0.0
C838 C 0.65378 0.09957 0.78749 0.0
C839 C 0.64798 0.08252 0.79809 0.0
C840 C 0.63986 0.08389 0.75808 0.0
H841 H 0.63346 0.05349 0.7964 0.0
C842 C 0.60755 0.01726 0.78186 0.0
O843 O 0.64183 0.9744 0.75423 0.0
O844 O 0.65934 0.99802 0.77034 0.0
N845 N 0.62768 0.06616 0.73043 0.0
C846 C 0.62436 0.06366 0.71057 0.0
C847 C 0.63021 0.0789 0.69763 0.0
C848 C 0.63915 0.09662 0.70526 0.0
C849 C 0.64261 0.09876 0.72574 0.0
C850 C 0.63653 0.08304 0.73789 0.0
H851 H 0.61719 0.05021 0.70467 0.0
O852 O 0.65674 0.01013 0.7307 0.0
O853 O 0.64138 0.03211 0.74938 0.0
O854 O 0.61443 0.00258 0.73132 0.0
O855 O 0.60181 0.03312 0.73358 0.0
C856 C 0.65191 0.11582 0.73458 0.0
C857 C 0.65559 0.11656 0.75521 0.0
H858 H 0.66153 0.11187 0.79511 0.0
H859 H 0.6512 0.08172 0.8138 0.0
H860 H 0.62762 0.0771 0.68183 0.0
H861 H 0.64341 0.10844 0.69525 0.0
H862 H 0.65652 0.12837 0.72562 0.0
H863 H 0.66315 0.12957 0.76177 0.0
Mn864 Mn 0.00219 0.24924 0.87036 0.0
Mn865 Mn 0.95687 0.2461 0.89169 0.0
C866 C 0.97627 0.23215 0.85426 0.0
C867 C 0.02593 0.26509 0.85051 0.0
C868 C 0.99123 0.22085 0.90411 0.0
O869 O 0.00377 0.27159 0.89124 0.0
O870 O 0.97298 0.2683 0.90414 0.0
C871 C 0.94129 0.28448 0.87819 0.0
N872 N 0.93945 0.26425 0.87935 0.0
C873 C 0.90742 0.26403 0.86327 0.0
C874 C 0.90891 0.28487 0.86197 0.0
C875 C 0.92597 0.29512 0.86937 0.0
C876 C 0.92323 0.25422 0.87206 0.0
H877 H 0.95431 0.29243 0.884 0.0
C878 C 0.99019 0.27693 0.90323 0.0
O879 O 0.03092 0.25268 0.86411 0.0
O880 O 0.00714 0.26878 0.84883 0.0
N881 N 0.93947 0.22551 0.88104 0.0
C882 C 0.94097 0.20535 0.88226 0.0
C883 C 0.9254 0.19285 0.87494 0.0
C884 C 0.90835 0.20122 0.86675 0.0
C885 C 0.90716 0.22202 0.86564 0.0
C886 C 0.92318 0.2337 0.87305 0.0
H887 H 0.95394 0.19888 0.8888 0.0
O888 O 0.99464 0.22838 0.85012 0.0
O889 O 0.97353 0.24594 0.86775 0.0
O890 O 0.00373 0.22794 0.89174 0.0
O891 O 0.97335 0.22663 0.90541 0.0
C892 C 0.89073 0.23162 0.85742 0.0
C893 C 0.89094 0.2526 0.85607 0.0
H894 H 0.8971 0.29314 0.85523 0.0
H895 H 0.92726 0.3112 0.86838 0.0
H896 H 0.92646 0.17682 0.87577 0.0
H897 H 0.89629 0.19153 0.86131 0.0
H898 H 0.87792 0.22302 0.85193 0.0
H899 H 0.87839 0.25977 0.84937 0.0
Mn900 Mn 0.50387 0.75247 0.37234 0.0
Mn901 Mn 0.45869 0.74919 0.39392 0.0
C902 C 0.47798 0.735 0.35655 0.0
C903 C 0.52752 0.76815 0.35226 0.0
C904 C 0.49327 0.72435 0.40644 0.0
O905 O 0.50534 0.77514 0.39286 0.0
O906 O 0.47481 0.77146 0.40622 0.0
C907 C 0.44293 0.78747 0.38034 0.0
N908 N 0.44115 0.76725 0.38161 0.0
C909 C 0.40892 0.76691 0.36593 0.0
C910 C 0.41036 0.78774 0.36452 0.0
C911 C 0.42749 0.79805 0.37166 0.0
C912 C 0.42486 0.75716 0.37455 0.0
H913 H 0.456 0.79546 0.38597 0.0
C914 C 0.49189 0.78031 0.40506 0.0
O915 O 0.53261 0.75614 0.36617 0.0
O916 O 0.50868 0.77152 0.35035 0.0
N917 N 0.44126 0.72852 0.38346 0.0
C918 C 0.44281 0.70838 0.38477 0.0
C919 C 0.42716 0.69582 0.37773 0.0
C920 C 0.40997 0.70412 0.36974 0.0
C921 C 0.40874 0.72491 0.36852 0.0
C922 C 0.42486 0.73665 0.37564 0.0
H923 H 0.45587 0.70196 0.39119 0.0
O924 O 0.49637 0.73122 0.35245 0.0
O925 O 0.47523 0.74894 0.36988 0.0
O926 O 0.50569 0.73158 0.39408 0.0
O927 O 0.47528 0.72982 0.40763 0.0
C928 C 0.39218 0.73445 0.3605 0.0
C929 C 0.39235 0.75542 0.35903 0.0
H930 H 0.39844 0.79595 0.3579 0.0
H931 H 0.42874 0.81412 0.37058 0.0
H932 H 0.42824 0.67979 0.37864 0.0
H933 H 0.39784 0.69439 0.36454 0.0
H934 H 0.3793 0.72581 0.35525 0.0
H935 H 0.37969 0.76254 0.35247 0.0
Mn936 Mn 0.00787 0.74959 0.63152 0.0
Mn937 Mn 0.98332 0.70985 0.65078 0.0
C938 C 0.00755 0.71897 0.6148 0.0
C939 C 0.0086 0.77847 0.61263 0.0
C940 C 0.02382 0.72473 0.66557 0.0
O941 O 0.9901 0.76247 0.65232 0.0
O942 O 0.97375 0.73497 0.66279 0.0
C943 C 0.94333 0.71754 0.63453 0.0
N944 N 0.9589 0.70518 0.63666 0.0
C945 C 0.94055 0.67789 0.62098 0.0
C946 C 0.9243 0.69032 0.61858 0.0
C947 C 0.92578 0.7103 0.6252 0.0
C948 C 0.95791 0.68618 0.62966 0.0
H949 H 0.94425 0.73276 0.64007 0.0
C950 C 0.97698 0.75386 0.66308 0.0
O951 O 0.02157 0.77571 0.62657 0.0
O952 O 0.99497 0.76458 0.60986 0.0
N953 N 0.99061 0.6842 0.64085 0.0
C954 C 0.00729 0.67394 0.64506 0.0
C955 C 0.00824 0.65373 0.63944 0.0
C956 C 0.99174 0.64406 0.63025 0.0
C957 C 0.97446 0.65472 0.62676 0.0
C958 C 0.97462 0.67499 0.6321 0.0
H959 H 0.0198 0.6811 0.65267 0.0
O960 O 0.02117 0.7325 0.61119 0.0
O961 O 0.99422 0.72388 0.62776 0.0
O962 O 0.02579 0.73902 0.65341 0.0
O963 O 0.00842 0.71315 0.66601 0.0
C964 C 0.95685 0.64583 0.61883 0.0
C965 C 0.94001 0.65749 0.61562 0.0
H966 H 0.91057 0.68465 0.61182 0.0
H967 H 0.9133 0.71997 0.62346 0.0
H968 H 0.02153 0.64555 0.64247 0.0
H969 H 0.9924 0.62838 0.62625 0.0
H970 H 0.95618 0.63009 0.61493 0.0
H971 H 0.92668 0.65056 0.60918 0.0
Mn972 Mn 0.51011 0.25242 0.13107 0.0
Mn973 Mn 0.48476 0.2161 0.15526 0.0
C974 C 0.50689 0.22067 0.11708 0.0
C975 C 0.51153 0.27976 0.11012 0.0
C976 C 0.52708 0.22872 0.16564 0.0
O977 O 0.49468 0.26822 0.15176 0.0
O978 O 0.47869 0.24264 0.16661 0.0
C979 C 0.44455 0.22686 0.14171 0.0
N980 N 0.4589 0.21306 0.14357 0.0
C981 C 0.43732 0.18717 0.12968 0.0
C982 C 0.42228 0.20108 0.12764 0.0
C983 C 0.42596 0.22105 0.13357 0.0
C984 C 0.45568 0.19395 0.13748 0.0
H985 H 0.44726 0.24217 0.14646 0.0
C986 C 0.48284 0.26122 0.16478 0.0
O987 O 0.52526 0.27687 0.12328 0.0
O988 O 0.49679 0.26681 0.10922 0.0
N989 N 0.48873 0.18933 0.14634 0.0
C990 C 0.50484 0.17784 0.14931 0.0
C991 C 0.50343 0.15733 0.14484 0.0
C992 C 0.48539 0.14881 0.13775 0.0
C993 C 0.46907 0.16097 0.13458 0.0
C994 C 0.47135 0.18129 0.13933 0.0
H995 H 0.51854 0.18421 0.15537 0.0
O996 O 0.52095 0.23297 0.11151 0.0
O997 O 0.49465 0.22747 0.13034 0.0
O998 O 0.52878 0.24219 0.15256 0.0
O999 O 0.51127 0.21802 0.16799 0.0
C1000 C 0.45053 0.15367 0.12726 0.0
C1001 C 0.43477 0.16682 0.12449 0.0
H1002 H 0.40785 0.19659 0.12159 0.0
H1003 H 0.41444 0.23188 0.13204 0.0
H1004 H 0.5161 0.14803 0.14723 0.0
H1005 H 0.4842 0.13289 0.13487 0.0
H1006 H 0.44825 0.13798 0.12358 0.0
H1007 H 0.42068 0.16108 0.11859 0.0
C1008 C 0.21875 0.76372 0.91311 0.0
C1009 C 0.21169 0.76763 0.894 0.0
C1010 C 0.22214 0.77924 0.92709 0.0
C1011 C 0.21848 0.79918 0.92179 0.0
C1012 C 0.21089 0.80312 0.90268 0.0
C1013 C 0.20771 0.78735 0.889 0.0
C1014 C 0.22979 0.77434 0.94749 0.0
C1015 C 0.20686 0.82405 0.89631 0.0
C1016 C 0.21411 0.83756 0.96367 0.0
C1017 C 0.23357 0.84551 0.96483 0.0
C1018 C 0.20881 0.8228 0.94941 0.0
C1019 C 0.22336 0.81589 0.93601 0.0
C1020 C 0.24294 0.82426 0.93686 0.0
C1021 C 0.2479 0.83864 0.95156 0.0
C1022 C 0.18785 0.8141 0.94914 0.0
C1023 C 0.25879 0.81761 0.92261 0.0
H1024 H 0.22155 0.74848 0.91718 0.0
H1025 H 0.20254 0.79055 0.87416 0.0
H1026 H 0.24476 0.7814 0.94988 0.0
H1027 H 0.21983 0.78048 0.95903 0.0
H1028 H 0.23086 0.75801 0.94962 0.0
H1029 H 0.19775 0.82429 0.88253 0.0
H1030 H 0.19915 0.83247 0.90815 0.0
H1031 H 0.22127 0.83181 0.89347 0.0
H1032 H 0.20314 0.84257 0.97427 0.0
H1033 H 0.26318 0.84407 0.95308 0.0
H1034 H 0.18811 0.79797 0.95254 0.0
H1035 H 0.18118 0.81539 0.93415 0.0
H1036 H 0.17812 0.8216 0.96008 0.0
H1037 H 0.2616 0.80155 0.9246 0.0
H1038 H 0.27305 0.82618 0.92473 0.0
H1039 H 0.25362 0.81943 0.90709 0.0
C1040 C 0.03472 0.49591 0.37282 0.0
C1041 C 0.03745 0.51336 0.38451 0.0
C1042 C 0.04524 0.49322 0.35504 0.0
C1043 C 0.05914 0.50811 0.34898 0.0
C1044 C 0.06251 0.52539 0.36103 0.0
C1045 C 0.05148 0.52791 0.37846 0.0
C1046 C 0.04104 0.47472 0.34244 0.0
C1047 C 0.0774 0.54153 0.35523 0.0
C1048 C 0.09869 0.49838 0.31012 0.0
C1049 C 0.09117 0.50869 0.29393 0.0
C1050 C 0.08807 0.49733 0.32801 0.0
C1051 C 0.06933 0.50641 0.32949 0.0
C1052 C 0.06111 0.51562 0.31269 0.0
C1053 C 0.07226 0.51688 0.29521 0.0
C1054 C 0.09749 0.48769 0.34568 0.0
C1055 C 0.04098 0.52504 0.31347 0.0
H1056 H 0.02425 0.48436 0.37747 0.0
H1057 H 0.05352 0.54162 0.38706 0.0
H1058 H 0.03468 0.47899 0.32794 0.0
H1059 H 0.05506 0.46694 0.33932 0.0
H1060 H 0.03044 0.46413 0.34965 0.0
H1061 H 0.0795 0.55319 0.36703 0.0
H1062 H 0.09203 0.53497 0.35197 0.0
H1063 H 0.07229 0.54878 0.34151 0.0
H1064 H 0.11341 0.49223 0.3092 0.0
H1065 H 0.06638 0.52475 0.28264 0.0
H1066 H 0.08674 0.47726 0.35283 0.0
H1067 H 0.10177 0.49938 0.35688 0.0
H1068 H 0.11099 0.47942 0.34154 0.0
H1069 H 0.02977 0.51458 0.3199 0.0
H1070 H 0.03574 0.52946 0.29856 0.0
H1071 H 0.04181 0.53855 0.32322 0.0
C1072 C 0.81715 0.74538 0.90335 0.0
C1073 C 0.80534 0.74576 0.88615 0.0
C1074 C 0.81319 0.73138 0.91823 0.0
C1075 C 0.79722 0.71732 0.91567 0.0
C1076 C 0.78593 0.71704 0.89785 0.0
C1077 C 0.79004 0.73135 0.88339 0.0
C1078 C 0.82542 0.7323 0.93708 0.0
C1079 C 0.76894 0.70214 0.89439 0.0
C1080 C 0.78913 0.67184 0.94808 0.0
C1081 C 0.77319 0.67802 0.95976 0.0
C1082 C 0.7979 0.68481 0.93418 0.0
C1083 C 0.79071 0.70438 0.93231 0.0
C1084 C 0.77557 0.71102 0.94516 0.0
C1085 C 0.76686 0.69768 0.95855 0.0
C1086 C 0.81389 0.67714 0.92065 0.0
C1087 C 0.76771 0.73185 0.94399 0.0
H1088 H 0.82896 0.75656 0.90554 0.0
H1089 H 0.7811 0.73144 0.86995 0.0
H1090 H 0.81611 0.7377 0.9495 0.0
H1091 H 0.83042 0.71723 0.94096 0.0
H1092 H 0.83868 0.74247 0.93584 0.0
H1093 H 0.76296 0.70261 0.87901 0.0
H1094 H 0.77385 0.6868 0.89727 0.0
H1095 H 0.75669 0.70532 0.90485 0.0
H1096 H 0.79388 0.65656 0.94893 0.0
H1097 H 0.75459 0.70246 0.96771 0.0
H1098 H 0.82643 0.68818 0.91964 0.0
H1099 H 0.80766 0.67486 0.90547 0.0
H1100 H 0.81972 0.66274 0.92573 0.0
H1101 H 0.78017 0.74306 0.94408 0.0
H1102 H 0.75757 0.73535 0.95647 0.0
H1103 H 0.7594 0.73341 0.92985 0.0
C1104 C 0.98225 0.00215 0.38132 0.0
C1105 C 0.97972 0.98423 0.39167 0.0
C1106 C 0.97099 0.00588 0.36423 0.0
C1107 C 0.95652 0.99156 0.35751 0.0
C1108 C 0.95323 0.97387 0.36836 0.0
C1109 C 0.96498 0.97034 0.38515 0.0
C1110 C 0.97508 0.02482 0.35297 0.0
C1111 C 0.93774 0.95833 0.36183 0.0
C1112 C 0.91647 0.00434 0.32003 0.0
C1113 C 0.92347 0.99488 0.30283 0.0
C1114 C 0.92735 0.00396 0.3379 0.0
C1115 C 0.9458 0.99425 0.33838 0.0
C1116 C 0.95346 0.98578 0.32071 0.0
C1117 C 0.94209 0.98599 0.30322 0.0
C1118 C 0.91853 0.01288 0.35648 0.0
C1119 C 0.97328 0.97572 0.32044 0.0
H1120 H 0.99323 0.01323 0.38643 0.0
H1121 H 0.96299 0.95634 0.39278 0.0
H1122 H 0.98099 0.02106 0.33807 0.0
H1123 H 0.96109 0.0329 0.3507 0.0
H1124 H 0.98601 0.03498 0.36076 0.0
H1125 H 0.93574 0.94632 0.37286 0.0
H1126 H 0.9232 0.96537 0.35941 0.0
H1127 H 0.9422 0.95144 0.3475 0.0
H1128 H 0.90196 0.01101 0.31981 0.0
H1129 H 0.94756 0.97874 0.2899 0.0
H1130 H 0.92964 0.02276 0.36429 0.0
H1131 H 0.91432 1.00074 0.36678 0.0
H1132 H 0.90509 0.02157 0.35328 0.0
H1133 H 0.98497 0.98563 0.32733 0.0
H1134 H 0.97798 0.97164 0.30515 0.0
H1135 H 0.97232 0.96193 0.32929 0.0
C1136 C 0.207 0.2223 0.62036 0.0
C1137 C 0.21291 0.24248 0.61921 0.0
C1138 C 0.21041 0.20889 0.60458 0.0
C1139 C 0.22002 0.21581 0.58725 0.0
C1140 C 0.22618 0.23611 0.58606 0.0
C1141 C 0.2225 0.24919 0.602 0.0
C1142 C 0.20359 0.18735 0.60637 0.0
C1143 C 0.23645 0.24407 0.56782 0.0
C1144 C 0.24373 0.17854 0.55205 0.0
C1145 C 0.22933 0.17658 0.53692 0.0
C1146 C 0.24085 0.19116 0.56859 0.0
C1147 C 0.22313 0.20199 0.5701 0.0
C1148 C 0.20848 0.19996 0.55499 0.0
C1149 C 0.21177 0.18734 0.53859 0.0
C1150 C 0.25686 0.19304 0.58436 0.0
C1151 C 0.18933 0.21119 0.55611 0.0
H1152 H 0.19982 0.21693 0.63369 0.0
H1153 H 0.22683 0.26482 0.60082 0.0
H1154 H 0.19267 0.18339 0.59445 0.0
H1155 H 0.21641 0.17744 0.60442 0.0
H1156 H 0.1966 0.18427 0.62095 0.0
H1157 H 0.24093 0.26008 0.56952 0.0
H1158 H 0.24991 0.2354 0.56459 0.0
H1159 H 0.22639 0.2423 0.55477 0.0
H1160 H 0.25735 0.17033 0.55093 0.0
H1161 H 0.20047 0.18589 0.52709 0.0
H1162 H 0.25062 0.189 0.59901 0.0
H1163 H 0.26242 0.20875 0.58559 0.0
H1164 H 0.26964 0.18337 0.58115 0.0
H1165 H 0.18136 0.20756 0.57003 0.0
H1166 H 0.17925 0.20762 0.54335 0.0
H1167 H 0.19266 0.22749 0.55644 0.0
C1168 C 0.49155 0.52902 0.65091 0.0
C1169 C 0.48369 0.53059 0.6317 0.0
C1170 C 0.47924 0.52417 0.66701 0.0
C1171 C 0.4586 0.52068 0.66379 0.0
C1172 C 0.45052 0.52259 0.64449 0.0
C1173 C 0.46315 0.52757 0.62868 0.0
C1174 C 0.4884 0.52244 0.68739 0.0
C1175 C 0.4286 0.51884 0.64043 0.0
C1176 C 0.43073 0.48735 0.69989 0.0
C1177 C 0.42067 0.50126 0.71169 0.0
C1178 C 0.44308 0.4935 0.6843 0.0
C1179 C 0.44561 0.51409 0.68042 0.0
C1180 C 0.43568 0.52825 0.69233 0.0
C1181 C 0.42328 0.52167 0.70777 0.0
C1182 C 0.45332 0.47792 0.67187 0.0
C1183 C 0.43812 0.55033 0.6887 0.0
H1184 H 0.50737 0.53162 0.65337 0.0
H1185 H 0.45703 0.52857 0.61383 0.0
H1186 H 0.48067 0.5322 0.69816 0.0
H1187 H 0.48652 0.50689 0.69257 0.0
H1188 H 0.50452 0.52659 0.68758 0.0
H1189 H 0.42453 0.52177 0.62477 0.0
H1190 H 0.42447 0.50311 0.64372 0.0
H1191 H 0.41962 0.52843 0.65029 0.0
H1192 H 0.42879 0.47155 0.70267 0.0
H1193 H 0.41563 0.53255 0.71679 0.0
H1194 H 0.46969 0.48049 0.6726 0.0
H1195 H 0.44878 0.47912 0.6561 0.0
H1196 H 0.44977 0.46251 0.67681 0.0
H1197 H 0.45408 0.55495 0.68973 0.0
H1198 H 0.42963 0.55944 0.69947 0.0
H1199 H 0.43299 0.5537 0.67348 0.0
C1200 C 0.78835 0.26469 0.60151 0.0
C1201 C 0.80237 0.26821 0.61679 0.0
C1202 C 0.78411 0.27946 0.58775 0.0
C1203 C 0.7944 0.29815 0.58898 0.0
C1204 C 0.80902 0.30164 0.60393 0.0
C1205 C 0.81272 0.2867 0.61774 0.0
C1206 C 0.76829 0.27518 0.57213 0.0
C1207 C 0.8205 0.32129 0.60554 0.0
C1208 C 0.79161 0.32936 0.54251 0.0
C1209 C 0.77622 0.34226 0.54733 0.0
C1210 C 0.79831 0.31548 0.55624 0.0
C1211 C 0.78915 0.31424 0.57509 0.0
C1212 C 0.77398 0.3276 0.5802 0.0
C1213 C 0.76782 0.34154 0.56632 0.0
C1214 C 0.81479 0.30174 0.55039 0.0
C1215 C 0.76365 0.32661 0.60003 0.0
H1216 H 0.7806 0.25033 0.60029 0.0
H1217 H 0.82344 0.2897 0.62956 0.0
H1218 H 0.75614 0.28595 0.57379 0.0
H1219 H 0.77465 0.27712 0.55711 0.0
H1220 H 0.76176 0.25982 0.57308 0.0
H1221 H 0.83239 0.32112 0.61704 0.0
H1222 H 0.82737 0.32496 0.59107 0.0
H1223 H 0.81021 0.33341 0.60933 0.0
H1224 H 0.79824 0.32992 0.52789 0.0
H1225 H 0.75588 0.35142 0.57014 0.0
H1226 H 0.80883 0.28617 0.54918 0.0
H1227 H 0.8266 0.30209 0.56196 0.0
H1228 H 0.82159 0.30582 0.53597 0.0
H1229 H 0.75561 0.312 0.60132 0.0
H1230 H 0.75279 0.33866 0.60207 0.0
H1231 H 0.77472 0.32772 0.61228 0.0
C1232 C 0.54459 0.99193 0.6248 0.0
C1233 C 0.52411 0.98793 0.62679 0.0
C1234 C 0.55673 0.99592 0.64148 0.0
C1235 C 0.54823 0.9957 0.66067 0.0
C1236 C 0.52758 0.99146 0.6628 0.0
C1237 C 0.51574 0.98775 0.64581 0.0
C1238 C 0.57861 1.00063 0.63855 0.0
C1239 C 0.51802 0.99088 0.68301 0.0
C1240 C 0.58436 0.99019 0.70376 0.0
C1241 C 0.58709 0.01004 0.71041 0.0
C1242 C 0.57131 0.98521 0.68796 0.0
C1243 C 0.56092 1.00046 0.67841 0.0
C1244 C 0.56334 0.02045 0.68526 0.0
C1245 C 0.57626 0.02498 0.70123 0.0
C1246 C 0.56894 0.96368 0.68123 0.0
C1247 C 0.55269 0.03718 0.67536 0.0
H1248 H 0.55107 0.9923 0.61011 0.0
H1249 H 0.49995 0.98447 0.64741 0.0
H1250 H 0.5824 0.01576 0.64463 0.0
H1251 H 0.58767 0.98991 0.64677 0.0
H1252 H 0.58292 1.00005 0.62266 0.0
H1253 H 0.50191 0.98678 0.68217 0.0
H1254 H 0.52556 0.97994 0.69243 0.0
H1255 H 0.5198 0.00568 0.69052 0.0
H1256 H 0.59254 0.97852 0.7108 0.0
H1257 H 0.57826 0.04038 0.70616 0.0
H1258 H 0.57459 0.96194 0.66588 0.0
H1259 H 0.55295 0.95905 0.68097 0.0
H1260 H 0.57708 0.95346 0.69098 0.0
H1261 H 0.55748 0.03824 0.65967 0.0
H1262 H 0.5557 0.05185 0.68287 0.0
H1263 H 0.5364 0.03407 0.67526 0.0
C1264 C 0.91493 0.20694 0.75668 0.0
C1265 C 0.89582 0.19854 0.75946 0.0
C1266 C 0.92776 0.21091 0.77287 0.0
C1267 C 0.92128 0.20653 0.79234 0.0
C1268 C 0.90226 0.19746 0.79514 0.0
C1269 C 0.88975 0.19366 0.77871 0.0
C1270 C 0.94814 0.22014 0.76918 0.0
C1271 C 0.89466 0.19261 0.81554 0.0
C1272 C 0.96085 0.20525 0.83285 0.0
C1273 C 0.96043 0.22476 0.84057 0.0
C1274 C 0.94782 0.19889 0.81749 0.0
C1275 C 0.93405 0.21239 0.80975 0.0
C1276 C 0.93326 0.23196 0.81791 0.0
C1277 C 0.94677 0.23803 0.83291 0.0
C1278 C 0.94929 0.17799 0.80906 0.0
C1279 C 0.91855 0.24669 0.81037 0.0
H1280 H 0.91982 0.21048 0.74181 0.0
H1281 H 0.87489 0.18745 0.78104 0.0
H1282 H 0.9492 0.23527 0.77608 0.0
H1283 H 0.95975 0.2111 0.77618 0.0
H1284 H 0.95143 0.22139 0.7531 0.0
H1285 H 0.88137 0.18238 0.81497 0.0
H1286 H 0.90634 0.18577 0.82464 0.0
H1287 H 0.89043 0.20666 0.82304 0.0
H1288 H 0.97175 0.19514 0.83849 0.0
H1289 H 0.9471 0.25338 0.83821 0.0
H1290 H 0.95392 0.17864 0.79329 0.0
H1291 H 0.93454 0.17016 0.80941 0.0
H1292 H 0.96017 0.16906 0.81731 0.0
H1293 H 0.92151 0.24984 0.79454 0.0
H1294 H 0.91925 0.26101 0.81891 0.0
H1295 H 0.9032 0.24022 0.81129 0.0
C1296 C 0.47472 0.88292 0.45871 0.0
C1297 C 0.48875 0.88925 0.47318 0.0
C1298 C 0.47748 0.86562 0.44714 0.0
C1299 C 0.49447 0.85406 0.45033 0.0
C1300 C 0.50892 0.86053 0.46454 0.0
C1301 C 0.50599 0.87814 0.47563 0.0
C1302 C 0.46183 0.85937 0.43193 0.0
C1303 C 0.52712 0.8485 0.46853 0.0
C1304 C 0.48621 0.79944 0.43641 0.0
C1305 C 0.49528 0.79828 0.41777 0.0
C1306 C 0.48679 0.81726 0.44762 0.0
C1307 C 0.49626 0.8345 0.43977 0.0
C1308 C 0.5061 0.83324 0.42125 0.0
C1309 C 0.50568 0.81504 0.41054 0.0
C1310 C 0.47652 0.81782 0.4675 0.0
C1311 C 0.51607 0.85136 0.41223 0.0
H1312 H 0.4612 0.89112 0.45681 0.0
H1313 H 0.51717 0.88306 0.48641 0.0
H1314 H 0.46887 0.85632 0.41737 0.0
H1315 H 0.45417 0.84536 0.43659 0.0
H1316 H 0.45048 0.87091 0.42996 0.0
H1317 H 0.5375 0.85612 0.47927 0.0
H1318 H 0.5225 0.83381 0.4746 0.0
H1319 H 0.53521 0.84557 0.45453 0.0
H1320 H 0.47827 0.78645 0.44208 0.0
H1321 H 0.51253 0.81423 0.39603 0.0
H1322 H 0.46329 0.8273 0.46664 0.0
H1323 H 0.48664 0.82455 0.479 0.0
H1324 H 0.47158 0.80273 0.47234 0.0
H1325 H 0.5046 0.86218 0.40818 0.0
H1326 H 0.52464 0.84751 0.39871 0.0
H1327 H 0.52626 0.85895 0.42313 0.0
C1328 C 0.09522 0.2877 0.7585 0.0
C1329 C 0.11089 0.30158 0.76226 0.0
C1330 C 0.08108 0.28312 0.7731 0.0
C1331 C 0.08234 0.29293 0.79186 0.0
C1332 C 0.09758 0.30755 0.79552 0.0
C1333 C 0.11176 0.31157 0.78076 0.0
C1334 C 0.06514 0.26732 0.76865 0.0
C1335 C 0.09924 0.31854 0.81523 0.0
C1336 C 0.03603 0.28903 0.82399 0.0
C1337 C 0.04086 0.27348 0.83664 0.0
C1338 C 0.04965 0.29603 0.80977 0.0
C1339 C 0.06837 0.287 0.80795 0.0
C1340 C 0.07345 0.27157 0.82096 0.0
C1341 C 0.0597 0.26512 0.83526 0.0
C1342 C 0.04387 0.3128 0.79643 0.0
C1343 C 0.09314 0.26136 0.81934 0.0
H1344 H 0.0941 0.28021 0.74414 0.0
H1345 H 0.12389 0.32213 0.78399 0.0
H1346 H 0.06672 0.2547 0.77892 0.0
H1347 H 0.05018 0.27346 0.7711 0.0
H1348 H 0.0659 0.26145 0.75316 0.0
H1349 H 0.11075 0.33075 0.81508 0.0
H1350 H 0.08474 0.32496 0.81925 0.0
H1351 H 0.10313 0.30797 0.82703 0.0
H1352 H 0.02152 0.29562 0.82506 0.0
H1353 H 0.0635 0.25304 0.84493 0.0
H1354 H 0.04267 0.30724 0.78086 0.0
H1355 H 0.05554 0.32485 0.79685 0.0
H1356 H 0.02943 0.31924 0.80074 0.0
H1357 H 0.09428 0.25394 0.80456 0.0
H1358 H 0.09503 0.24998 0.83094 0.0
H1359 H 0.10561 0.2725 0.82063 0.0
C1360 C 0.51131 0.62659 0.46899 0.0
C1361 C 0.52659 0.62916 0.4831 0.0
C1362 C 0.50652 0.64204 0.45616 0.0
C1363 C 0.51699 0.66064 0.45779 0.0
C1364 C 0.53245 0.66329 0.47203 0.0
C1365 C 0.53721 0.64742 0.48439 0.0
C1366 C 0.49022 0.63847 0.4409 0.0
C1367 C 0.54368 0.683 0.47449 0.0
C1368 C 0.51536 0.69604 0.41431 0.0
C1369 C 0.49984 0.70851 0.41984 0.0
C1370 C 0.52111 0.68039 0.4265 0.0
C1371 C 0.51141 0.67743 0.44487 0.0
C1372 C 0.49604 0.69026 0.45073 0.0
C1373 C 0.49029 0.70549 0.43805 0.0
C1374 C 0.53727 0.66677 0.41953 0.0
C1375 C 0.48561 0.68786 0.47038 0.0
H1376 H 0.50322 0.61239 0.4679 0.0
H1377 H 0.54893 0.64944 0.49542 0.0
H1378 H 0.47786 0.64872 0.44382 0.0
H1379 H 0.49596 0.64173 0.42585 0.0
H1380 H 0.48416 0.62288 0.44095 0.0
H1381 H 0.55536 0.68259 0.4862 0.0
H1382 H 0.55083 0.68719 0.4603 0.0
H1383 H 0.53318 0.6949 0.47841 0.0
H1384 H 0.52269 0.69819 0.40018 0.0
H1385 H 0.47838 0.71516 0.44248 0.0
H1386 H 0.53128 0.6512 0.41831 0.0
H1387 H 0.54961 0.6669 0.43053 0.0
H1388 H 0.54341 0.67114 0.40491 0.0
H1389 H 0.47772 0.67312 0.47077 0.0
H1390 H 0.47464 0.69966 0.47316 0.0
H1391 H 0.49668 0.68831 0.48267 0.0
C1392 C 0.91968 0.80779 0.75136 0.0
C1393 C 0.90029 0.81248 0.74561 0.0
C1394 C 0.93356 0.8012 0.73737 0.0
C1395 C 0.92793 0.79928 0.71714 0.0
C1396 C 0.90887 0.80537 0.71106 0.0
C1397 C 0.89526 0.81185 0.72537 0.0
C1398 C 0.95376 0.79496 0.74447 0.0
C1399 C 0.90228 0.80361 0.68963 0.0
C1400 C 0.96713 0.78677 0.6784 0.0
C1401 C 0.96458 0.76595 0.6767 0.0
C1402 C 0.95529 0.79796 0.69145 0.0
C1403 C 0.94064 0.78807 0.70303 0.0
C1404 C 0.93798 0.76711 0.7013 0.0
C1405 C 0.94991 0.75637 0.68821 0.0
C1406 C 0.95847 0.8203 0.69289 0.0
C1407 C 0.92252 0.75593 0.71336 0.0
H1408 H 0.92381 0.80862 0.76693 0.0
H1409 H 0.88029 0.81532 0.72078 0.0
H1410 H 0.95449 0.77846 0.74366 0.0
H1411 H 0.96567 0.80111 0.73481 0.0
H1412 H 0.95684 0.79992 0.76003 0.0
H1413 H 0.88836 0.8117 0.68687 0.0
H1414 H 0.91406 0.80953 0.67968 0.0
H1415 H 0.8996 0.78765 0.68559 0.0
H1416 H 0.97836 0.79435 0.66958 0.0
H1417 H 0.94768 0.74032 0.68706 0.0
H1418 H 0.96257 0.8248 0.70832 0.0
H1419 H 0.94444 0.8278 0.68923 0.0
H1420 H 0.97034 0.82577 0.68276 0.0
H1421 H 0.92546 0.75848 0.72943 0.0
H1422 H 0.92233 0.7396 0.71023 0.0
H1423 H 0.90751 0.76157 0.71013 0.0
C1424 C 0.00839 0.8789 0.54876 0.0
C1425 C 0.02445 0.87879 0.53556 0.0
C1426 C 0.00477 0.86292 0.5616 0.0
C1427 C 0.01734 0.84631 0.56099 0.0
C1428 C 0.03335 0.84599 0.54741 0.0
C1429 C 0.03679 0.86229 0.53497 0.0
C1430 C 0.98773 0.86395 0.57606 0.0
C1431 C 0.04692 0.82844 0.54607 0.0
C1432 C 0.02211 0.81273 0.60555 0.0
C1433 C 0.00981 0.79632 0.6 0.0
C1434 C 0.02423 0.82935 0.59325 0.0
C1435 C 0.01406 0.82941 0.57479 0.0
C1436 C 0.0014 0.81299 0.56923 0.0
C1437 C 0.99931 0.7967 0.58198 0.0
C1438 C 0.03763 0.84669 0.59986 0.0
C1439 C 0.99051 0.81238 0.54958 0.0
H1440 H 0.99892 0.89172 0.54936 0.0
H1441 H 0.04908 0.86207 0.52461 0.0
H1442 H 0.97741 0.8509 0.5738 0.0
H1443 H 0.99351 0.86335 0.59149 0.0
H1444 H 0.97919 0.87779 0.57451 0.0
H1445 H 0.05825 0.8302 0.53423 0.0
H1446 H 0.05471 0.82663 0.56044 0.0
H1447 H 0.03804 0.81451 0.54305 0.0
H1448 H 0.03018 0.81258 0.61951 0.0
H1449 H 0.98984 0.78402 0.57757 0.0
H1450 H 0.02939 0.86079 0.59941 0.0
H1451 H 0.05037 0.84825 0.58955 0.0
H1452 H 0.04354 0.84484 0.61512 0.0
H1453 H 0.98125 0.82573 0.54818 0.0
H1454 H 0.98076 0.79881 0.54772 0.0
H1455 H 0.00141 0.81273 0.53727 0.0
C1456 C 0.1019 0.71322 0.75418 0.0
C1457 C 0.11936 0.70394 0.74803 0.0
C1458 C 0.08638 0.71659 0.74076 0.0
C1459 C 0.08821 0.71032 0.7207 0.0
C1460 C 0.10563 0.70067 0.71443 0.0
C1461 C 0.12102 0.69766 0.72815 0.0
C1462 C 0.06806 0.72695 0.74802 0.0
C1463 C 0.10805 0.69366 0.69319 0.0
C1464 C 0.04047 0.70346 0.69062 0.0
C1465 C 0.04033 0.7211 0.67967 0.0
C1466 C 0.05609 0.69965 0.70381 0.0
C1467 C 0.07186 0.71391 0.70632 0.0
C1468 C 0.07183 0.73175 0.6954 0.0
C1469 C 0.05613 0.7351 0.68214 0.0
C1470 C 0.05568 0.68036 0.71506 0.0
C1471 C 0.0883 0.7474 0.69784 0.0
H1472 H 0.1003 0.7178 0.76958 0.0
H1473 H 0.13453 0.69071 0.72319 0.0
H1474 H 0.06586 0.7407 0.73944 0.0
H1475 H 0.05468 0.71713 0.74558 0.0
H1476 H 0.06904 0.73107 0.76404 0.0
H1477 H 0.12228 0.68595 0.6908 0.0
H1478 H 0.09556 0.68329 0.68887 0.0
H1479 H 0.10758 0.70657 0.68314 0.0
H1480 H 0.02843 0.69249 0.6888 0.0
H1481 H 0.05616 0.74879 0.67383 0.0
H1482 H 0.05532 0.68358 0.73126 0.0
H1483 H 0.06942 0.67207 0.71203 0.0
H1484 H 0.0426 0.6706 0.71105 0.0
H1485 H 0.08907 0.75276 0.7135 0.0
H1486 H 0.08615 0.76042 0.68815 0.0
H1487 H 0.10286 0.74084 0.69429 0.0
C1488 C 0.97831 0.62669 0.54321 0.0
C1489 C 0.99338 0.62231 0.52965 0.0
C1490 C 0.97999 0.64313 0.55625 0.0
C1491 C 0.99702 0.65607 0.5555 0.0
C1492 C 0.01155 0.65268 0.54066 0.0
C1493 C 0.00976 0.63564 0.52823 0.0
C1494 C 0.96318 0.64609 0.57061 0.0
C1495 C 0.0291 0.66682 0.53754 0.0
C1496 C 0.99012 0.70411 0.58546 0.0
C1497 C 0.00433 0.70235 0.60052 0.0
C1498 C 0.98832 0.68976 0.57007 0.0
C1499 C 0.99997 0.67245 0.57065 0.0
C1500 C 0.01411 0.67054 0.58619 0.0
C1501 C 0.01682 0.68607 0.6003 0.0
C1502 C 0.97378 0.69326 0.55344 0.0
C1503 C 0.02626 0.65208 0.58813 0.0
H1504 H 0.96505 0.61713 0.54383 0.0
H1505 H 0.02143 0.63268 0.51763 0.0
H1506 H 0.9665 0.65767 0.58208 0.0
H1507 H 0.94973 0.65038 0.56225 0.0
H1508 H 0.95939 0.63178 0.57794 0.0
H1509 H 0.03103 0.66954 0.52144 0.0
H1510 H 0.0276 0.68143 0.54528 0.0
H1511 H 0.04289 0.6598 0.54276 0.0
H1512 H 0.98093 0.71715 0.58528 0.0
H1513 H 0.02841 0.68524 0.61147 0.0
H1514 H 0.95895 0.68695 0.55749 0.0
H1515 H 0.97846 0.68614 0.53928 0.0
H1516 H 0.97208 0.70947 0.551 0.0
H1517 H 0.01682 0.63841 0.58556 0.0
H1518 H 0.03336 0.65124 0.603 0.0
H1519 H 0.03824 0.65223 0.57691 0.0
C1520 C 0.7857 0.8909 0.20262 0.0
C1521 C 0.7662 0.896 0.20746 0.0
C1522 C 0.80185 0.90405 0.20666 0.0
C1523 C 0.79853 0.92272 0.21597 0.0
C1524 C 0.77881 0.92821 0.22041 0.0
C1525 C 0.76288 0.91475 0.21618 0.0
C1526 C 0.82251 0.89746 0.20174 0.0
C1527 C 0.77456 0.94821 0.22987 0.0
C1528 C 0.8389 0.94878 0.24733 0.0
C1529 C 0.84672 0.96286 0.23418 0.0
C1530 C 0.82379 0.93509 0.24131 0.0
C1531 C 0.81567 0.93612 0.22193 0.0
C1532 C 0.82345 0.95044 0.20861 0.0
C1533 C 0.83893 0.96363 0.2149 0.0
C1534 C 0.8162 0.91982 0.25585 0.0
C1535 C 0.81503 0.9522 0.18793 0.0
H1536 H 0.78845 0.87632 0.19618 0.0
H1537 H 0.74781 0.91889 0.21969 0.0
H1538 H 0.83146 0.90974 0.19509 0.0
H1539 H 0.82994 0.89319 0.21566 0.0
H1540 H 0.82235 0.88438 0.19138 0.0
H1541 H 0.75835 0.95072 0.23121 0.0
H1542 H 0.78134 0.94922 0.24491 0.0
H1543 H 0.78139 0.96038 0.22102 0.0
H1544 H 0.84423 0.94883 0.26252 0.0
H1545 H 0.84468 0.97486 0.20489 0.0
H1546 H 0.81734 0.9046 0.2493 0.0
H1547 H 0.80026 0.9222 0.25903 0.0
H1548 H 0.82461 0.92053 0.2701 0.0
H1549 H 0.81588 0.93772 0.17982 0.0
H1550 H 0.82303 0.96383 0.17925 0.0
H1551 H 0.79908 0.95595 0.18877 0.0
C1552 C 0.76664 0.09747 0.29236 0.0
C1553 C 0.76994 0.11313 0.3062 0.0
C1554 C 0.78127 0.08341 0.2885 0.0
C1555 C 0.79957 0.08474 0.299 0.0
C1556 C 0.80275 0.10001 0.31353 0.0
C1557 C 0.788 0.11411 0.31682 0.0
C1558 C 0.77735 0.06745 0.27276 0.0
C1559 C 0.82195 0.10175 0.32523 0.0
C1560 C 0.83088 0.03833 0.29684 0.0
C1561 C 0.84445 0.04319 0.28181 0.0
C1562 C 0.81663 0.052 0.30315 0.0
C1563 C 0.81572 0.07078 0.29393 0.0
C1564 C 0.82969 0.07591 0.27907 0.0
C1565 C 0.84398 0.06212 0.27332 0.0
C1566 C 0.80226 0.04616 0.31932 0.0
C1567 C 0.82907 0.09567 0.26869 0.0
H1568 H 0.75261 0.09624 0.28439 0.0
H1569 H 0.79089 0.12624 0.32737 0.0
H1570 H 0.78841 0.06905 0.26068 0.0
H1571 H 0.77908 0.05245 0.27912 0.0
H1572 H 0.76219 0.06821 0.26622 0.0
H1573 H 0.82141 0.11332 0.3372 0.0
H1574 H 0.82531 0.08724 0.33198 0.0
H1575 H 0.83444 0.10563 0.31517 0.0
H1576 H 0.83123 0.02375 0.30351 0.0
H1577 H 0.85436 0.06595 0.26164 0.0
H1578 H 0.78693 0.04484 0.31315 0.0
H1579 H 0.80223 0.05788 0.33115 0.0
H1580 H 0.80596 0.03173 0.32609 0.0
H1581 H 0.81471 0.09677 0.26064 0.0
H1582 H 0.84139 0.09763 0.25791 0.0
H1583 H 0.82997 0.10815 0.2797 0.0
C1584 C 0.38676 0.95803 0.98387 0.0
C1585 C 0.39453 0.97143 0.99837 0.0
C1586 C 0.36896 0.94714 0.98699 0.0
C1587 C 0.35833 0.95002 0.00485 0.0
C1588 C 0.36626 0.96308 0.01977 0.0
C1589 C 0.38436 0.97343 0.01646 0.0
C1590 C 0.36116 0.93308 0.97081 0.0
C1591 C 0.35523 0.96671 0.03891 0.0
C1592 C 0.30316 0.93908 0.99799 0.0
C1593 C 0.30117 0.91975 0.00538 0.0
C1594 C 0.32144 0.94965 0.999 0.0
C1595 C 0.33826 0.94041 0.0071 0.0
C1596 C 0.33609 0.92125 0.01551 0.0
C1597 C 0.31745 0.91121 0.01474 0.0
C1598 C 0.32298 0.97027 0.99036 0.0
C1599 C 0.35371 0.91074 0.02395 0.0
H1600 H 0.39421 0.95651 0.96973 0.0
H1601 H 0.39039 0.98336 0.02798 0.0
H1602 H 0.35731 0.91826 0.97704 0.0
H1603 H 0.34735 0.93899 0.96434 0.0
H1604 H 0.37211 0.93106 0.95869 0.0
H1605 H 0.364 0.97631 0.04955 0.0
H1606 H 0.34102 0.97407 0.03568 0.0
H1607 H 0.35143 0.95236 0.0461 0.0
H1608 H 0.29053 0.9457 0.9908 0.0
H1609 H 0.31597 0.89613 0.02024 0.0
H1610 H 0.33174 0.96977 0.97646 0.0
H1611 H 0.33089 0.98075 1.00082 0.0
H1612 H 0.30813 0.97626 0.98692 0.0
H1613 H 0.36371 0.90632 0.01167 0.0
H1614 H 0.34914 0.89713 0.03212 0.0
H1615 H 0.36246 0.92084 0.0341 0.0
C1616 C 0.2474 0.40914 0.28131 0.0
C1617 C 0.2433 0.39307 0.29388 0.0
C1618 C 0.23284 0.42302 0.27688 0.0
C1619 C 0.21376 0.42109 0.28556 0.0
C1620 C 0.20964 0.40528 0.29871 0.0
C1621 C 0.22437 0.39136 0.30255 0.0
C1622 C 0.23779 0.43956 0.26264 0.0
C1623 C 0.18956 0.40289 0.30848 0.0
C1624 C 0.18242 0.46747 0.2849 0.0
C1625 C 0.1698 0.46336 0.26862 0.0
C1626 C 0.19636 0.45357 0.29102 0.0
C1627 C 0.19798 0.43531 0.28034 0.0
C1628 C 0.18506 0.43097 0.26408 0.0
C1629 C 0.171 0.44497 0.25854 0.0
C1630 C 0.20959 0.45856 0.30869 0.0
C1631 C 0.1865 0.41182 0.25211 0.0
H1632 H 0.26207 0.41093 0.27485 0.0
H1633 H 0.22086 0.3789 0.31207 0.0
H1634 H 0.22749 0.43857 0.24971 0.0
H1635 H 0.23572 0.45428 0.26998 0.0
H1636 H 0.25331 0.43897 0.25713 0.0
H1637 H 0.18914 0.39059 0.31932 0.0
H1638 H 0.18568 0.41695 0.31628 0.0
H1639 H 0.17792 0.39975 0.29703 0.0
H1640 H 0.18148 0.48162 0.29282 0.0
H1641 H 0.16136 0.44174 0.24588 0.0
H1642 H 0.22532 0.45993 0.30386 0.0
H1643 H 0.20867 0.44636 0.31959 0.0
H1644 H 0.20554 0.47273 0.31622 0.0
H1645 H 0.20142 0.41111 0.24519 0.0
H1646 H 0.17502 0.41047 0.24022 0.0
H1647 H 0.18483 0.39878 0.26193 0.0
C1648 C 0.12557 0.04649 0.49082 0.0
C1649 C 0.1299 0.02621 0.48958 0.0
C1650 C 0.14063 0.06106 0.49397 0.0
C1651 C 0.16067 0.05535 0.49565 0.0
C1652 C 0.16508 0.03479 0.49516 0.0
C1653 C 0.14961 0.02042 0.49219 0.0
C1654 C 0.13497 0.08259 0.49447 0.0
C1655 C 0.18618 0.02799 0.49733 0.0
C1656 C 0.20221 0.09195 0.48107 0.0
C1657 C 0.20839 0.09987 0.49951 0.0
C1658 C 0.18638 0.07785 0.47957 0.0
C1659 C 0.17703 0.07088 0.49704 0.0
C1660 C 0.18341 0.07867 0.51575 0.0
C1661 C 0.19902 0.09308 0.51676 0.0
C1662 C 0.17981 0.07026 0.4593 0.0
C1663 C 0.17387 0.07165 0.53472 0.0
H1664 H 0.11029 0.05102 0.48915 0.0
H1665 H 0.153 0.00472 0.49129 0.0
H1666 H 0.14406 0.09139 0.50543 0.0
H1667 H 0.13759 0.08873 0.47954 0.0
H1668 H 0.11899 0.08433 0.49808 0.0
H1669 H 0.18699 0.01149 0.49792 0.0
H1670 H 0.19521 0.0333 0.48463 0.0
H1671 H 0.19304 0.03458 0.51104 0.0
H1672 H 0.21006 0.09648 0.46781 0.0
H1673 H 0.20409 0.0989 0.53108 0.0
H1674 H 0.16375 0.07299 0.45711 0.0
H1675 H 0.18175 0.05391 0.45813 0.0
H1676 H 0.18831 0.07753 0.44717 0.0
H1677 H 0.15774 0.07472 0.53449 0.0
H1678 H 0.18068 0.07902 0.54809 0.0
H1679 H 0.17529 0.05527 0.53596 0.0
C1680 C 0.72442 0.11592 0.69136 0.0
C1681 C 0.74415 0.1132 0.69756 0.0
C1682 C 0.70914 0.10208 0.69586 0.0
C1683 C 0.71367 0.08462 0.70626 0.0
C1684 C 0.73372 0.08094 0.71119 0.0
C1685 C 0.7486 0.09544 0.70725 0.0
C1686 C 0.68808 0.10701 0.6904 0.0
C1687 C 0.73945 0.06185 0.72106 0.0
C1688 C 0.67608 0.05888 0.73984 0.0
C1689 C 0.66762 0.04419 0.72716 0.0
C1690 C 0.69044 0.07265 0.73295 0.0
C1691 C 0.69744 0.07088 0.71323 0.0
C1692 C 0.68943 0.0556 0.70053 0.0
C1693 C 0.67443 0.04257 0.7076 0.0
C1694 C 0.69828 0.08897 0.74686 0.0
C1695 C 0.6971 0.05267 0.6797 0.0
H1696 H 0.7207 0.1291 0.68322 0.0
H1697 H 0.76363 0.09298 0.71232 0.0
H1698 H 0.67866 0.09349 0.68727 0.0
H1699 H 0.6815 0.11522 0.70305 0.0
H1700 H 0.68765 0.11678 0.67727 0.0
H1701 H 0.75579 0.0598 0.72087 0.0
H1702 H 0.7345 0.06204 0.73673 0.0
H1703 H 0.73202 0.04878 0.71354 0.0
H1704 H 0.67179 0.05931 0.7553 0.0
H1705 H 0.66834 0.03078 0.69797 0.0
H1706 H 0.69599 0.10374 0.74014 0.0
H1707 H 0.71451 0.08758 0.74921 0.0
H1708 H 0.69092 0.08859 0.76156 0.0
H1709 H 0.69452 0.06617 0.67088 0.0
H1710 H 0.68982 0.03961 0.67197 0.0
H1711 H 0.71341 0.0505 0.68011 0.0
C1712 C 0.38498 0.04632 0.49939 0.0
C1713 C 0.38448 0.03368 0.51576 0.0
C1714 C 0.36914 0.05893 0.4954 0.0
C1715 C 0.35227 0.05868 0.50793 0.0
C1716 C 0.35151 0.0456 0.52422 0.0
C1717 C 0.36767 0.03337 0.52801 0.0
C1718 C 0.37064 0.07284 0.47807 0.0
C1719 C 0.33369 0.04468 0.53778 0.0
C1720 C 0.31963 0.10389 0.51238 0.0
C1721 C 0.30321 0.09815 0.50047 0.0
C1722 C 0.33594 0.09145 0.51442 0.0
C1723 C 0.33573 0.07263 0.50456 0.0
C1724 C 0.31936 0.06689 0.49219 0.0
C1725 C 0.30335 0.07979 0.49018 0.0
C1726 C 0.35322 0.09828 0.52751 0.0
C1727 C 0.31848 0.04687 0.48159 0.0
H1728 H 0.39802 0.04671 0.48998 0.0
H1729 H 0.36712 0.02344 0.54053 0.0
H1730 H 0.35765 0.07041 0.46802 0.0
H1731 H 0.37039 0.08854 0.48351 0.0
H1732 H 0.38447 0.07078 0.46939 0.0
H1733 H 0.33501 0.03303 0.5492 0.0
H1734 H 0.33199 0.05932 0.54541 0.0
H1735 H 0.31992 0.04154 0.52899 0.0
H1736 H 0.31968 0.11811 0.52029 0.0
H1737 H 0.29066 0.07523 0.48102 0.0
H1738 H 0.36738 0.0974 0.51918 0.0
H1739 H 0.35435 0.08828 0.54039 0.0
H1740 H 0.35166 0.11381 0.53315 0.0
H1741 H 0.33197 0.04499 0.4724 0.0
H1742 H 0.30512 0.04497 0.47189 0.0
H1743 H 0.31822 0.03478 0.49264 0.0
C1744 C 0.62598 0.46603 0.52849 0.0
C1745 C 0.62995 0.4866 0.53072 0.0
C1746 C 0.6412 0.45287 0.52371 0.0
C1747 C 0.66089 0.46044 0.52125 0.0
C1748 C 0.66506 0.48115 0.52381 0.0
C1749 C 0.64952 0.49399 0.52841 0.0
C1750 C 0.63611 0.43092 0.52089 0.0
C1751 C 0.6859 0.48977 0.52148 0.0
C1752 C 0.70336 0.42414 0.52379 0.0
C1753 C 0.70753 0.42091 0.50361 0.0
C1754 C 0.6883 0.43704 0.52977 0.0
C1755 C 0.67699 0.44679 0.51524 0.0
C1756 C 0.68101 0.44347 0.49488 0.0
C1757 C 0.69625 0.43068 0.48932 0.0
C1758 C 0.68454 0.44033 0.55164 0.0
C1759 C 0.66915 0.45341 0.47891 0.0
H1760 H 0.61085 0.46026 0.53004 0.0
H1761 H 0.65269 0.50985 0.53035 0.0
H1762 H 0.63948 0.42617 0.50545 0.0
H1763 H 0.64537 0.422 0.53089 0.0
H1764 H 0.62017 0.42734 0.52389 0.0
H1765 H 0.6868 0.50606 0.52475 0.0
H1766 H 0.69627 0.4822 0.53156 0.0
H1767 H 0.69111 0.4871 0.50609 0.0
H1768 H 0.71201 0.41674 0.53495 0.0
H1769 H 0.69923 0.42822 0.47368 0.0
H1770 H 0.66897 0.43584 0.55522 0.0
H1771 H 0.68645 0.45642 0.55553 0.0
H1772 H 0.69474 0.43176 0.56108 0.0
H1773 H 0.65311 0.4494 0.48045 0.0
H1774 H 0.67398 0.44906 0.46374 0.0
H1775 H 0.67073 0.46986 0.48061 0.0
C1776 C 0.70036 0.28212 0.39501 0.0
C1777 C 0.70869 0.26335 0.39764 0.0
C1778 C 0.70315 0.29759 0.40908 0.0
C1779 C 0.71396 0.29414 0.42668 0.0
C1780 C 0.72104 0.27482 0.43025 0.0
C1781 C 0.71872 0.2598 0.41553 0.0
C1782 C 0.69553 0.31789 0.40426 0.0
C1783 C 0.73154 0.27011 0.4494 0.0
C1784 C 0.74316 0.33615 0.45303 0.0
C1785 C 0.72963 0.34251 0.46736 0.0
C1786 C 0.73795 0.32095 0.43926 0.0
C1787 C 0.71916 0.31098 0.44065 0.0
C1788 C 0.70566 0.31688 0.45558 0.0
C1789 C 0.71098 0.33275 0.46862 0.0
C1790 C 0.75262 0.31544 0.42331 0.0
C1791 C 0.68582 0.30612 0.45804 0.0
H1792 H 0.69189 0.28499 0.3817 0.0
H1793 H 0.72531 0.24549 0.41793 0.0
H1794 H 0.69094 0.32629 0.41769 0.0
H1795 H 0.70766 0.32656 0.39703 0.0
H1796 H 0.68272 0.31681 0.39376 0.0
H1797 H 0.73323 0.25381 0.45121 0.0
H1798 H 0.74657 0.27737 0.4497 0.0
H1799 H 0.72321 0.27606 0.4623 0.0
H1800 H 0.75804 0.34277 0.45286 0.0
H1801 H 0.70073 0.33724 0.48013 0.0
H1802 H 0.74559 0.31687 0.40847 0.0
H1803 H 0.75686 0.29969 0.42475 0.0
H1804 H 0.76639 0.32497 0.42397 0.0
H1805 H 0.67665 0.30757 0.44445 0.0
H1806 H 0.67737 0.31199 0.4709 0.0
H1807 H 0.68811 0.28996 0.46014 0.0
C1808 C 0.52878 0.02974 0.86633 0.0
C1809 C 0.53093 0.01758 0.88286 0.0
C1810 C 0.54073 0.02731 0.8495 0.0
C1811 C 0.55543 0.01258 0.84934 0.0
C1812 C 0.55728 0.99986 0.86577 0.0
C1813 C 0.54488 0.00242 0.8823 0.0
C1814 C 0.53808 0.04098 0.83217 0.0
C1815 C 0.57296 0.9842 0.86629 0.0
C1816 C 0.57924 1.00058 0.79951 0.0
C1817 C 0.59558 0.01401 0.79981 0.0
C1818 C 0.5662 0.99951 0.81576 0.0
C1819 C 0.56997 0.01183 0.83275 0.0
C1820 C 0.58709 0.02463 0.83341 0.0
C1821 C 0.59952 0.02574 0.81681 0.0
C1822 C 0.54792 0.98596 0.81437 0.0
C1823 C 0.59194 0.03768 0.85138 0.0
H1824 H 0.51782 0.04131 0.86666 0.0
H1825 H 0.54663 0.99308 0.89513 0.0
H1826 H 0.55141 0.05099 0.8308 0.0
H1827 H 0.5366 0.03215 0.81814 0.0
H1828 H 0.52479 0.05034 0.83385 0.0
H1829 H 0.57134 0.97441 0.87935 0.0
H1830 H 0.57223 0.97477 0.8526 0.0
H1831 H 0.58794 0.99157 0.86685 0.0
H1832 H 0.57615 0.99165 0.78622 0.0
H1833 H 0.61225 0.03599 0.81707 0.0
H1834 H 0.53443 0.99511 0.81398 0.0
H1835 H 0.54677 0.97645 0.82764 0.0
H1836 H 0.54797 0.97619 0.80088 0.0
H1837 H 0.58046 0.04912 0.85317 0.0
H1838 H 0.60672 0.0454 0.8502 0.0
H1839 H 0.59179 0.02862 0.86501 0.0
C1840 C 0.31467 0.24605 0.4033 0.0
C1841 C 0.30245 0.24668 0.38641 0.0
C1842 C 0.31082 0.23212 0.41827 0.0
C1843 C 0.29456 0.21834 0.41609 0.0
C1844 C 0.28272 0.2184 0.39863 0.0
C1845 C 0.28671 0.23267 0.3841 0.0
C1846 C 0.32358 0.23273 0.43677 0.0
C1847 C 0.26543 0.20377 0.39556 0.0
C1848 C 0.2877 0.17219 0.44778 0.0
C1849 C 0.27218 0.17806 0.46017 0.0
C1850 C 0.2959 0.18545 0.43384 0.0
C1851 C 0.28861 0.20505 0.43267 0.0
C1852 C 0.27393 0.21137 0.4462 0.0
C1853 C 0.26572 0.19771 0.4596 0.0
C1854 C 0.31135 0.17808 0.41952 0.0
C1855 C 0.26602 0.23222 0.4458 0.0
H1856 H 0.32681 0.25693 0.40512 0.0
H1857 H 0.27743 0.23297 0.37091 0.0
H1858 H 0.31458 0.23769 0.44961 0.0
H1859 H 0.32886 0.21762 0.4401 0.0
H1860 H 0.3367 0.24306 0.43541 0.0
H1861 H 0.25886 0.20461 0.38045 0.0
H1862 H 0.27027 0.18831 0.39794 0.0
H1863 H 0.25365 0.20688 0.40657 0.0
H1864 H 0.29253 0.1569 0.44812 0.0
H1865 H 0.25375 0.20224 0.46928 0.0
H1866 H 0.32392 0.18907 0.41841 0.0
H1867 H 0.30459 0.1763 0.40451 0.0
H1868 H 0.31726 0.16349 0.42395 0.0
H1869 H 0.27848 0.24343 0.44559 0.0
H1870 H 0.25643 0.23547 0.45877 0.0
H1871 H 0.25712 0.23406 0.43207 0.0
C1872 C 0.45872 0.48013 0.889 0.0
C1873 C 0.47915 0.48504 0.88881 0.0
C1874 C 0.44678 0.48262 0.87211 0.0
C1875 C 0.45544 0.49029 0.85461 0.0
C1876 C 0.47588 0.49598 0.85454 0.0
C1877 C 0.4875 0.49323 0.8716 0.0
C1878 C 0.42504 0.47635 0.87278 0.0
C1879 C 0.48568 0.50422 0.83618 0.0
C1880 C 0.43133 0.47328 0.80601 0.0
C1881 C 0.41988 0.48972 0.80103 0.0
C1882 C 0.44308 0.47345 0.82323 0.0
C1883 C 0.44358 0.4905 0.83589 0.0
C1884 C 0.43246 0.50734 0.83083 0.0
C1885 C 0.4207 0.50675 0.81348 0.0
C1886 C 0.45469 0.45516 0.82806 0.0
C1887 C 0.43275 0.52583 0.84393 0.0
H1888 H 0.45206 0.47415 0.90233 0.0
H1889 H 0.5033 0.49689 0.87122 0.0
H1890 H 0.41565 0.48864 0.86773 0.0
H1891 H 0.42221 0.46345 0.86251 0.0
H1892 H 0.42026 0.47202 0.88791 0.0
H1893 H 0.50116 0.50979 0.83913 0.0
H1894 H 0.48608 0.49238 0.82449 0.0
H1895 H 0.47695 0.51658 0.8302 0.0
H1896 H 0.43089 0.46001 0.79659 0.0
H1897 H 0.41196 0.51952 0.80982 0.0
H1898 H 0.44957 0.44901 0.8424 0.0
H1899 H 0.47074 0.4592 0.82975 0.0
H1900 H 0.45302 0.44326 0.81645 0.0
H1901 H 0.42657 0.52218 0.85871 0.0
H1902 H 0.42397 0.53797 0.83751 0.0
H1903 H 0.44829 0.5314 0.84632 0.0
C1904 C 0.72903 0.74743 0.10653 0.0
C1905 C 0.71059 0.74651 0.11626 0.0
C1906 C 0.73341 0.73401 0.09106 0.0
C1907 C 0.71918 0.71901 0.08539 0.0
C1908 C 0.70079 0.71758 0.09548 0.0
C1909 C 0.69664 0.73144 0.11066 0.0
C1910 C 0.75312 0.73614 0.08051 0.0
C1911 C 0.68532 0.70163 0.09001 0.0
C1912 C 0.72042 0.69734 0.03302 0.0
C1913 C 0.73016 0.67936 0.03582 0.0
C1914 C 0.71703 0.71047 0.04898 0.0
C1915 C 0.72319 0.70536 0.06831 0.0
C1916 C 0.73304 0.68724 0.07126 0.0
C1917 C 0.73659 0.67453 0.05493 0.0
C1918 C 0.70683 0.72984 0.04516 0.0
C1919 C 0.73952 0.68113 0.09171 0.0
H1920 H 0.74012 0.75868 0.111 0.0
H1921 H 0.68227 0.73069 0.11786 0.0
H1922 H 0.7613 0.72204 0.08133 0.0
H1923 H 0.75053 0.7391 0.06457 0.0
H1924 H 0.76268 0.74845 0.0869 0.0
H1925 H 0.67236 0.70169 0.10017 0.0
H1926 H 0.67991 0.7039 0.07466 0.0
H1927 H 0.692 0.68669 0.09032 0.0
H1928 H 0.71554 0.70123 0.01827 0.0
H1929 H 0.74397 0.66058 0.05722 0.0
H1930 H 0.71636 0.74262 0.05052 0.0
H1931 H 0.69267 0.73029 0.05351 0.0
H1932 H 0.70352 0.73186 0.02916 0.0
H1933 H 0.74986 0.69264 0.09829 0.0
H1934 H 0.74702 0.66658 0.0915 0.0
H1935 H 0.72639 0.68 0.1016 0.0
C1936 C 0.96495 0.02335 0.12822 0.0
C1937 C 0.98543 0.02719 0.13084 0.0
C1938 C 0.95271 0.01847 0.14436 0.0
C1939 C 0.96112 0.01753 0.16362 0.0
C1940 C 0.98172 0.02176 0.16642 0.0
C1941 C 0.99363 0.02647 0.14999 0.0
C1942 C 0.93085 0.01392 0.14074 0.0
C1943 C 0.99122 0.02108 0.18674 0.0
C1944 C 0.9263 0.01985 0.20795 0.0
C1945 C 0.92417 0.99964 0.21287 0.0
C1946 C 0.93839 0.02592 0.19207 0.0
C1947 C 0.9485 0.01144 0.18073 0.0
C1948 C 0.94647 0.99105 0.18563 0.0
C1949 C 0.93442 0.98541 0.20165 0.0
C1950 C 0.94029 0.04783 0.18737 0.0
C1951 C 0.95691 0.97513 0.17383 0.0
H1952 H 0.95857 0.02367 0.11343 0.0
H1953 H 0.0094 0.02969 0.15215 0.0
H1954 H 0.92718 0.99831 0.14491 0.0
H1955 H 0.92172 0.02377 0.15019 0.0
H1956 H 0.92651 0.01589 0.12498 0.0
H1957 H 0.00728 0.02547 0.18652 0.0
H1958 H 0.98349 0.03118 0.19718 0.0
H1959 H 0.98967 0.00577 0.19265 0.0
H1960 H 0.91852 0.03099 0.21651 0.0
H1961 H 0.93286 0.96974 0.20521 0.0
H1962 H 0.93487 0.05035 0.17207 0.0
H1963 H 0.95617 0.05282 0.18797 0.0
H1964 H 0.93175 0.05725 0.19782 0.0
H1965 H 0.95213 0.97545 0.15806 0.0
H1966 H 0.95379 0.95993 0.17956 0.0
H1967 H 0.97323 0.9781 0.17422 0.0
C1968 C 0.31339 0.78409 0.11771 0.0
C1969 C 0.3046 0.7649 0.1157 0.0
C1970 C 0.30927 0.79909 0.10409 0.0
C1971 C 0.29578 0.79492 0.08826 0.0
C1972 C 0.28715 0.77552 0.08592 0.0
C1973 C 0.29182 0.76073 0.09952 0.0
C1974 C 0.31899 0.81952 0.1069 0.0
C1975 C 0.27257 0.77049 0.06932 0.0
C1976 C 0.26714 0.83709 0.06578 0.0
C1977 C 0.27663 0.83942 0.04745 0.0
C1978 C 0.27346 0.82291 0.07934 0.0
C1979 C 0.28991 0.81099 0.07461 0.0
C1980 C 0.3 0.81377 0.05642 0.0
C1981 C 0.29312 0.82783 0.04296 0.0
C1982 C 0.26211 0.82021 0.09844 0.0
C1983 C 0.31782 0.80162 0.05102 0.0
H1984 H 0.32313 0.78758 0.13024 0.0
H1985 H 0.28531 0.74586 0.0975 0.0
H1986 H 0.32622 0.82431 0.09294 0.0
H1987 H 0.30752 0.83056 0.11056 0.0
H1988 H 0.33033 0.8199 0.11896 0.0
H1989 H 0.26739 0.75461 0.0694 0.0
H1990 H 0.25941 0.78004 0.07067 0.0
H1991 H 0.27952 0.77359 0.05476 0.0
H1992 H 0.25434 0.84595 0.0693 0.0
H1993 H 0.30059 0.82966 0.02886 0.0
H1994 H 0.27236 0.82191 0.11135 0.0
H1995 H 0.25541 0.80491 0.09883 0.0
H1996 H 0.25005 0.83109 0.10018 0.0
H1997 H 0.32906 0.80261 0.06313 0.0
H1998 H 0.32492 0.80664 0.03704 0.0
H1999 H 0.31321 0.78568 0.04919 0.0
C2000 C 0.01653 0.48777 0.14019 0.0
C2001 C 0.02466 0.4872 0.12107 0.0
C2002 C 0.02867 0.49159 0.15695 0.0
C2003 C 0.04938 0.49515 0.15448 0.0
C2004 C 0.05765 0.49457 0.1352 0.0
C2005 C 0.04521 0.49051 0.11875 0.0
C2006 C 0.01933 0.49189 0.17728 0.0
C2007 C 0.07961 0.49854 0.13192 0.0
C2008 C 0.0778 0.5249 0.19443 0.0
C2009 C 0.08789 0.50995 0.20439 0.0
C2010 C 0.06517 0.52026 0.17827 0.0
C2011 C 0.06233 0.50014 0.17197 0.0
C2012 C 0.0722 0.48491 0.1821 0.0
C2013 C 0.08495 0.49 0.19811 0.0
C2014 C 0.05509 0.53696 0.16773 0.0
C2015 C 0.06939 0.46326 0.17593 0.0
H2016 H 1.00069 0.485 0.14206 0.0
H2017 H 0.05152 0.49031 0.10398 0.0
H2018 H 0.02669 0.48108 0.18698 0.0
H2019 H 0.02153 0.50688 0.18429 0.0
H2020 H 0.00312 0.48816 0.17672 0.0
H2021 H 0.08375 0.49721 0.11602 0.0
H2022 H 0.08387 0.51378 0.13739 0.0
H2023 H 0.08845 0.4879 0.14049 0.0
H2024 H 0.07998 0.54037 0.19906 0.0
H2025 H 0.09258 0.47832 0.20574 0.0
H2026 H 0.0387 0.53449 0.16798 0.0
H2027 H 0.05967 0.53713 0.15194 0.0
H2028 H 0.05875 0.55182 0.17456 0.0
H2029 H 0.05335 0.4589 0.17616 0.0
H2030 H 0.07759 0.45315 0.18575 0.0
H2031 H 0.07464 0.46104 0.16049 0.0
C2032 C 0.39042 0.69649 0.28225 0.0
C2033 C 0.39605 0.70135 0.26287 0.0
C2034 C 0.40331 0.70027 0.29839 0.0
C2035 C 0.42225 0.70935 0.29518 0.0
C2036 C 0.42828 0.71376 0.27558 0.0
C2037 C 0.41509 0.70976 0.25967 0.0
C2038 C 0.39617 0.69537 0.31894 0.0
C2039 C 0.44855 0.723 0.27145 0.0
C2040 C 0.44834 0.74086 0.33538 0.0
C2041 C 0.46213 0.72761 0.34286 0.0
C2042 C 0.43466 0.7348 0.32054 0.0
C2043 C 0.43538 0.71525 0.31232 0.0
C2044 C 0.44931 0.70178 0.31983 0.0
C2045 C 0.46252 0.70814 0.33505 0.0
C2046 C 0.41979 0.7495 0.31325 0.0
C2047 C 0.45071 0.6809 0.31133 0.0
H2048 H 0.37564 0.69026 0.28492 0.0
H2049 H 0.41967 0.71326 0.2447 0.0
H2050 H 0.39188 0.70937 0.32648 0.0
H2051 H 0.38302 0.68495 0.31863 0.0
H2052 H 0.40812 0.68871 0.32785 0.0
H2053 H 0.45147 0.72427 0.2553 0.0
H2054 H 0.44976 0.73813 0.27835 0.0
H2055 H 0.46033 0.71396 0.27816 0.0
H2056 H 0.44868 0.7562 0.34072 0.0
H2057 H 0.47352 0.69803 0.34053 0.0
H2058 H 0.40447 0.74303 0.31448 0.0
H2059 H 0.42243 0.75261 0.29735 0.0
H2060 H 0.42065 0.76385 0.32174 0.0
H2061 H 0.43602 0.67299 0.31206 0.0
H2062 H 0.46185 0.67203 0.3193 0.0
H2063 H 0.45492 0.68158 0.29545 0.0
C2064 C 0.00358 0.37569 0.9726 0.0
C2065 C 0.98626 0.38665 0.96999 0.0
C2066 C 0.00661 0.35794 0.96178 0.0
C2067 C 0.9922 0.35116 0.94767 0.0
C2068 C 0.97513 0.36257 0.9443 0.0
C2069 C 0.97226 0.38002 0.95562 0.0
C2070 C 0.02489 0.34608 0.96597 0.0
C2071 C 0.95953 0.35601 0.92916 0.0
C2072 C 0.00384 0.31173 0.90842 0.0
C2073 C 0.99354 0.29499 0.91581 0.0
C2074 C 0.00407 0.33006 0.91889 0.0
C2075 C 0.99415 0.33149 0.93735 0.0
C2076 C 0.98479 0.31428 0.94539 0.0
C2077 C 0.98438 0.29632 0.93441 0.0
C2078 C 0.01391 0.34814 0.90966 0.0
C2079 C 0.97447 0.31501 0.96524 0.0
H2080 H 0.01475 0.38084 0.98329 0.0
H2081 H 0.95869 0.3881 0.9536 0.0
H2082 H 0.02036 0.33143 0.97218 0.0
H2083 H 0.03304 0.34305 0.95202 0.0
H2084 H 0.0352 0.35389 0.97665 0.0
H2085 H 0.9481 0.36744 0.92702 0.0
H2086 H 0.9666 0.3528 0.91464 0.0
H2087 H 0.95196 0.34202 0.934 0.0
H2088 H 0.01073 0.3108 0.89393 0.0
H2089 H 0.97649 0.28335 0.94019 0.0
H2090 H 0.02401 0.35596 0.92048 0.0
H2091 H 0.00235 0.35879 0.90542 0.0
H2092 H 0.02255 0.34419 0.89621 0.0
H2093 H 0.9845 0.32198 0.97668 0.0
H2094 H 0.96966 0.29994 0.97027 0.0
H2095 H 0.96116 0.32435 0.96421 0.0
C2096 C 0.60916 0.81606 0.27832 0.0
C2097 C 0.61576 0.80071 0.26574 0.0
C2098 C 0.59465 0.81233 0.29284 0.0
C2099 C 0.58631 0.79284 0.29468 0.0
C2100 C 0.59267 0.77734 0.28188 0.0
C2101 C 0.6074 0.78141 0.26772 0.0
C2102 C 0.58837 0.8292 0.30633 0.0
C2103 C 0.58404 0.75637 0.28327 0.0
C2104 C 0.56283 0.77538 0.34272 0.0
C2105 C 0.54247 0.77645 0.33838 0.0
C2106 C 0.57727 0.78144 0.32892 0.0
C2107 C 0.57119 0.78843 0.3102 0.0
C2108 C 0.55064 0.79007 0.30595 0.0
C2109 C 0.53652 0.7842 0.32016 0.0
C2110 C 0.59903 0.77978 0.33416 0.0
C2111 C 0.54356 0.79724 0.28607 0.0
H2112 H 0.61525 0.83108 0.27675 0.0
H2113 H 0.6126 0.76934 0.25838 0.0
H2114 H 0.57213 0.83135 0.30485 0.0
H2115 H 0.59132 0.82545 0.32203 0.0
H2116 H 0.59631 0.84351 0.30302 0.0
H2117 H 0.59 0.7462 0.27169 0.0
H2118 H 0.58743 0.75024 0.29805 0.0
H2119 H 0.5676 0.75648 0.28174 0.0
H2120 H 0.56752 0.76952 0.35683 0.0
H2121 H 0.5208 0.78497 0.31669 0.0
H2122 H 0.60709 0.79416 0.33157 0.0
H2123 H 0.60584 0.76836 0.32444 0.0
H2124 H 0.60129 0.77557 0.34986 0.0
H2125 H 0.55077 0.81186 0.28267 0.0
H2126 H 0.52716 0.79878 0.28552 0.0
H2127 H 0.5479 0.78653 0.27424 0.0
C2128 C 0.0344 0.14291 0.98142 0.0
C2129 C 0.02357 0.12476 0.98021 0.0
C2130 C 0.02966 0.15888 0.9692 0.0
C2131 C 0.014 0.15647 0.95514 0.0
C2132 C 0.00326 0.13801 0.95363 0.0
C2133 C 0.00803 0.12245 0.96634 0.0
C2134 C 0.04118 0.17844 0.97156 0.0
C2135 C 0.98674 0.13469 0.93856 0.0
C2136 C 0.98804 0.20189 0.93566 0.0
C2137 C 0.99755 0.2048 0.91741 0.0
C2138 C 0.99353 0.18649 0.94825 0.0
C2139 C 0.00859 0.17334 0.94224 0.0
C2140 C 0.01823 0.17617 0.92382 0.0
C2141 C 0.01275 0.192 0.91172 0.0
C2142 C 0.98319 0.18425 0.96796 0.0
C2143 C 0.03406 0.16224 0.91671 0.0
H2144 H 0.04631 0.14474 0.99226 0.0
H2145 H 0.99977 0.10834 0.96531 0.0
H2146 H 0.04835 0.18247 0.95733 0.0
H2147 H 0.03087 0.19052 0.97546 0.0
H2148 H 0.05287 0.17791 0.98324 0.0
H2149 H 0.98039 0.11922 0.93874 0.0
H2150 H 0.97461 0.14519 0.94156 0.0
H2151 H 0.99239 0.13777 0.92344 0.0
H2152 H 0.97638 0.21181 0.94021 0.0
H2153 H 0.02004 0.19406 0.89756 0.0
H2154 H 0.99435 0.18454 0.98017 0.0
H2155 H 0.97509 0.16962 0.96841 0.0
H2156 H 0.97243 0.19623 0.97081 0.0
H2157 H 0.04652 0.16219 0.92755 0.0
H2158 H 0.04009 0.16644 0.90199 0.0
H2159 H 0.02779 0.14676 0.91561 0.0
C2160 C 0.4121 0.3207 0.2402 0.0
C2161 C 0.39559 0.3075 0.24121 0.0
C2162 C 0.42792 0.31684 0.22722 0.0
C2163 C 0.42699 0.29954 0.21484 0.0
C2164 C 0.40986 0.28674 0.21516 0.0
C2165 C 0.39446 0.2908 0.22845 0.0
C2166 C 0.446 0.33071 0.22744 0.0
C2167 C 0.4081 0.26829 0.202 0.0
C2168 C 0.4603 0.28961 0.17058 0.0
C2169 C 0.47232 0.27482 0.1782 0.0
C2170 C 0.44622 0.29898 0.18271 0.0
C2171 C 0.44449 0.29354 0.20289 0.0
C2172 C 0.45792 0.2799 0.21095 0.0
C2173 C 0.47149 0.27052 0.19844 0.0
C2174 C 0.43211 0.31332 0.17351 0.0
C2175 C 0.45689 0.27396 0.23245 0.0
H2176 H 0.41298 0.3336 0.25011 0.0
H2177 H 0.38156 0.28075 0.22905 0.0
H2178 H 0.45877 0.32304 0.23409 0.0
H2179 H 0.45025 0.33472 0.2121 0.0
H2180 H 0.44348 0.34463 0.23615 0.0
H2181 H 0.39312 0.26092 0.20278 0.0
H2182 H 0.41115 0.27215 0.18634 0.0
H2183 H 0.41933 0.25742 0.20654 0.0
H2184 H 0.46081 0.29272 0.15485 0.0
H2185 H 0.48083 0.25904 0.20427 0.0
H2186 H 0.42998 0.32645 0.18343 0.0
H2187 H 0.41734 0.30575 0.17134 0.0
H2188 H 0.43747 0.31857 0.15888 0.0
H2189 H 0.45576 0.28733 0.24226 0.0
H2190 H 0.4701 0.26553 0.23702 0.0
H2191 H 0.44338 0.26442 0.23479 0.0
C2192 C 0.52549 0.36104 0.02531 0.0
C2193 C 0.52323 0.38044 0.03288 0.0
C2194 C 0.52286 0.34439 0.03749 0.0
C2195 C 0.51753 0.34722 0.05763 0.0
C2196 C 0.51469 0.36677 0.06519 0.0
C2197 C 0.51774 0.38315 0.05276 0.0
C2198 C 0.52633 0.32382 0.02894 0.0
C2199 C 0.5087 0.37039 0.08649 0.0
C2200 C 0.4963 0.30265 0.08563 0.0
C2201 C 0.51289 0.29696 0.09667 0.0
C2202 C 0.49752 0.31907 0.07295 0.0
C2203 C 0.51584 0.32982 0.07104 0.0
C2204 C 0.53267 0.32401 0.08202 0.0
C2205 C 0.53093 0.30777 0.09481 0.0
C2206 C 0.47919 0.32502 0.06172 0.0
C2207 C 0.55254 0.33489 0.08019 0.0
H2208 H 0.5299 0.35893 0.00997 0.0
H2209 H 0.51577 0.39814 0.05858 0.0
H2210 H 0.53888 0.31702 0.03687 0.0
H2211 H 0.51298 0.31401 0.03113 0.0
H2212 H 0.5298 0.32411 0.01285 0.0
H2213 H 0.50594 0.38637 0.08973 0.0
H2214 H 0.49502 0.36148 0.08991 0.0
H2215 H 0.52061 0.36546 0.0966 0.0
H2216 H 0.48229 0.2944 0.08707 0.0
H2217 H 0.54384 0.30338 0.10322 0.0
H2218 H 0.482 0.32431 0.04552 0.0
H2219 H 0.47564 0.34068 0.06555 0.0
H2220 H 0.46602 0.31528 0.06503 0.0
H2221 H 0.55742 0.33466 0.06448 0.0
H2222 H 0.56428 0.32821 0.08942 0.0
H2223 H 0.55116 0.35075 0.08479 0.0
C2224 C 0.61943 0.19365 0.23088 0.0
C2225 C 0.62566 0.2087 0.24446 0.0
C2226 C 0.60403 0.19677 0.21721 0.0
C2227 C 0.59437 0.21527 0.21732 0.0
C2228 C 0.60072 0.2306 0.23078 0.0
C2229 C 0.6164 0.22722 0.24401 0.0
C2230 C 0.59785 0.18016 0.20286 0.0
C2231 C 0.59069 0.25048 0.23149 0.0
C2232 C 0.56371 0.23057 0.17281 0.0
C2233 C 0.54434 0.2252 0.17875 0.0
C2234 C 0.58019 0.22709 0.18504 0.0
C2235 C 0.57718 0.2184 0.20383 0.0
C2236 C 0.55765 0.21304 0.20995 0.0
C2237 C 0.5415 0.21631 0.19726 0.0
C2238 C 0.60082 0.23266 0.17786 0.0
C2239 C 0.55379 0.20408 0.23002 0.0
H2240 H 0.62626 0.17921 0.2312 0.0
H2241 H 0.62137 0.23913 0.25407 0.0
H2242 H 0.58238 0.17502 0.20603 0.0
H2243 H 0.59806 0.18567 0.18743 0.0
H2244 H 0.60771 0.16718 0.20377 0.0
H2245 H 0.59748 0.26088 0.24278 0.0
H2246 H 0.59157 0.25761 0.21678 0.0
H2247 H 0.57467 0.24821 0.23499 0.0
H2248 H 0.56604 0.23726 0.15844 0.0
H2249 H 0.52657 0.21222 0.202 0.0
H2250 H 0.61032 0.2194 0.17799 0.0
H2251 H 0.60784 0.24403 0.188 0.0
H2252 H 0.60068 0.23869 0.16261 0.0
H2253 H 0.56195 0.19002 0.23143 0.0
H2254 H 0.53771 0.20082 0.23257 0.0
H2255 H 0.5594 0.21447 0.2419 0.0
C2256 C 0.50097 0.13888 0.03105 0.0
C2257 C 0.49412 0.11985 0.03682 0.0
C2258 C 0.50229 0.15494 0.04477 0.0
C2259 C 0.49717 0.15184 0.06488 0.0
C2260 C 0.49047 0.13267 0.07076 0.0
C2261 C 0.48862 0.11713 0.05669 0.0
C2262 C 0.50924 0.17522 0.03777 0.0
C2263 C 0.48544 0.12847 0.09202 0.0
C2264 C 0.51962 0.18933 0.1023 0.0
C2265 C 0.50358 0.2017 0.10603 0.0
C2266 C 0.51752 0.1726 0.08954 0.0
C2267 C 0.49909 0.16855 0.07978 0.0
C2268 C 0.48272 0.18087 0.08381 0.0
C2269 C 0.4852 0.19734 0.09688 0.0
C2270 C 0.53517 0.15956 0.08615 0.0
C2271 C 0.46283 0.17713 0.07375 0.0
H2272 H 0.50551 0.14124 0.01586 0.0
H2273 H 0.48269 0.10279 0.06136 0.0
H2274 H 0.49804 0.18649 0.04159 0.0
H2275 H 0.52331 0.17982 0.04545 0.0
H2276 H 0.51179 0.17541 0.0215 0.0
H2277 H 0.49873 0.13168 0.10147 0.0
H2278 H 0.47352 0.13843 0.0969 0.0
H2279 H 0.48036 0.11277 0.09428 0.0
H2280 H 0.5339 0.1929 0.10924 0.0
H2281 H 0.47296 0.20726 0.09937 0.0
H2282 H 0.54012 0.16069 0.07052 0.0
H2283 H 0.53093 0.14371 0.0887 0.0
H2284 H 0.54792 0.16383 0.09604 0.0
H2285 H 0.46448 0.1788 0.05748 0.0
H2286 H 0.45141 0.18757 0.07914 0.0
H2287 H 0.45736 0.16164 0.07634 0.0
C2288 C 0.25834 0.41427 0.71722 0.0
C2289 C 0.26212 0.39703 0.70586 0.0
C2290 C 0.27314 0.42926 0.72028 0.0
C2291 C 0.29248 0.42657 0.71258 0.0
C2292 C 0.29605 0.4098 0.7002 0.0
C2293 C 0.28078 0.39549 0.69675 0.0
C2294 C 0.26823 0.44768 0.73229 0.0
C2295 C 0.31623 0.40593 0.69149 0.0
C2296 C 0.33179 0.46866 0.71332 0.0
C2297 C 0.34116 0.46575 0.73162 0.0
C2298 C 0.31573 0.45621 0.70696 0.0
C2299 C 0.30926 0.44021 0.71901 0.0
C2300 C 0.31874 0.43724 0.7375 0.0
C2301 C 0.33413 0.45045 0.74382 0.0
C2302 C 0.3055 0.46033 0.68754 0.0
C2303 C 0.31261 0.42014 0.75064 0.0
H2304 H 0.24404 0.41587 0.72434 0.0
H2305 H 0.28378 0.38278 0.6872 0.0
H2306 H 0.27484 0.44683 0.74734 0.0
H2307 H 0.27459 0.46126 0.72525 0.0
H2308 H 0.2519 0.44932 0.73388 0.0
H2309 H 0.31478 0.39824 0.6768 0.0
H2310 H 0.32545 0.41972 0.68972 0.0
H2311 H 0.32416 0.39587 0.70151 0.0
H2312 H 0.33679 0.48092 0.70414 0.0
H2313 H 0.34043 0.44902 0.75853 0.0
H2314 H 0.28927 0.4618 0.68994 0.0
H2315 H 0.30742 0.44763 0.67702 0.0
H2316 H 0.31144 0.47414 0.68057 0.0
H2317 H 0.32184 0.41963 0.76432 0.0
H2318 H 0.31384 0.40581 0.7423 0.0
H2319 H 0.29685 0.42141 0.7551 0.0
C2320 C 0.2817 0.60893 0.82086 0.0
C2321 C 0.26969 0.61516 0.80513 0.0
C2322 C 0.29628 0.59458 0.81784 0.0
C2323 C 0.29877 0.58603 0.79869 0.0
C2324 C 0.28655 0.59203 0.78282 0.0
C2325 C 0.27229 0.60658 0.7862 0.0
C2326 C 0.30912 0.58867 0.83509 0.0
C2327 C 0.28865 0.5832 0.76219 0.0
C2328 C 0.3472 0.56294 0.78263 0.0
C2329 C 0.34244 0.54248 0.78367 0.0
C2330 C 0.33344 0.57729 0.78835 0.0
C2331 C 0.31435 0.57104 0.79503 0.0
C2332 C 0.30974 0.55041 0.79685 0.0
C2333 C 0.3239 0.53637 0.79127 0.0
C2334 C 0.33905 0.59914 0.78649 0.0
C2335 C 0.28951 0.54314 0.80375 0.0
H2336 H 0.27965 0.61521 0.8356 0.0
H2337 H 0.26339 0.61149 0.77385 0.0
H2338 H 0.30742 0.57239 0.83753 0.0
H2339 H 0.32502 0.59184 0.83171 0.0
H2340 H 0.30532 0.59672 0.84906 0.0
H2341 H 0.27752 0.58893 0.75164 0.0
H2342 H 0.30376 0.58671 0.75643 0.0
H2343 H 0.2869 0.56671 0.76261 0.0
H2344 H 0.36154 0.56776 0.77686 0.0
H2345 H 0.32009 0.52059 0.79204 0.0
H2346 H 0.33588 0.60731 0.80053 0.0
H2347 H 0.32994 0.60576 0.77465 0.0
H2348 H 0.35502 0.60155 0.78281 0.0
H2349 H 0.28561 0.5506 0.81796 0.0
H2350 H 0.28879 0.52673 0.80581 0.0
H2351 H 0.27806 0.54703 0.79266 0.0
C2352 C 0.87862 0.47809 0.5073 0.0
C2353 C 0.88961 0.47506 0.48985 0.0
C2354 C 0.86052 0.46767 0.5105 0.0
C2355 C 0.85344 0.45352 0.49615 0.0
C2356 C 0.86473 0.44988 0.47885 0.0
C2357 C 0.88251 0.46084 0.4758 0.0
C2358 C 0.84875 0.47216 0.52899 0.0
C2359 C 0.85782 0.43468 0.46331 0.0
C2360 C 0.81419 0.41384 0.50864 0.0
C2361 C 0.79749 0.42096 0.49876 0.0
C2362 C 0.83244 0.42459 0.50849 0.0
C2363 C 0.8338 0.44308 0.49865 0.0
C2364 C 0.81661 0.4509 0.48978 0.0
C2365 C 0.79873 0.4396 0.48969 0.0
C2366 C 0.85051 0.41557 0.51777 0.0
C2367 C 0.81729 0.47079 0.47961 0.0
H2368 H 0.8841 0.48869 0.51848 0.0
H2369 H 0.89059 0.45855 0.46212 0.0
H2370 H 0.83406 0.47803 0.52482 0.0
H2371 H 0.84587 0.4583 0.53738 0.0
H2372 H 0.85653 0.48327 0.53893 0.0
H2373 H 0.86904 0.43254 0.45147 0.0
H2374 H 0.85457 0.42008 0.47029 0.0
H2375 H 0.84382 0.43953 0.45633 0.0
H2376 H 0.81331 0.39932 0.51545 0.0
H2377 H 0.78578 0.44515 0.48213 0.0
H2378 H 0.85832 0.42658 0.52774 0.0
H2379 H 0.86112 0.4114 0.50593 0.0
H2380 H 0.84661 0.40204 0.52637 0.0
H2381 H 0.82446 0.48239 0.48941 0.0
H2382 H 0.80222 0.47573 0.47542 0.0
H2383 H 0.82639 0.46972 0.46596 0.0
C2384 C 0.72971 0.89752 0.81064 0.0
C2385 C 0.7432 0.89218 0.79573 0.0
C2386 C 0.71479 0.91132 0.80709 0.0
C2387 C 0.71344 0.92021 0.78825 0.0
C2388 C 0.72698 0.91492 0.77314 0.0
C2389 C 0.74157 0.9009 0.77701 0.0
C2390 C 0.70054 0.91646 0.82353 0.0
C2391 C 0.72611 0.92413 0.75287 0.0
C2392 C 0.66574 0.94359 0.77053 0.0
C2393 C 0.67012 0.96399 0.77362 0.0
C2394 C 0.67942 0.92912 0.77588 0.0
C2395 C 0.69802 0.93521 0.78427 0.0
C2396 C 0.70229 0.95576 0.7879 0.0
C2397 C 0.68824 0.96988 0.78264 0.0
C2398 C 0.67418 0.90734 0.77204 0.0
C2399 C 0.72202 0.96288 0.79666 0.0
H2400 H 0.73097 0.89112 0.82523 0.0
H2401 H 0.75161 0.89664 0.76525 0.0
H2402 H 0.70204 0.93259 0.82736 0.0
H2403 H 0.68497 0.91354 0.81848 0.0
H2404 H 0.70317 0.90778 0.83714 0.0
H2405 H 0.73789 0.91861 0.74283 0.0
H2406 H 0.71139 0.92075 0.74588 0.0
H2407 H 0.7278 0.9406 0.75428 0.0
H2408 H 0.65172 0.93892 0.76364 0.0
H2409 H 0.69177 0.98562 0.78502 0.0
H2410 H 0.67627 0.89872 0.78576 0.0
H2411 H 0.68429 0.90119 0.76065 0.0
H2412 H 0.65858 0.90498 0.76679 0.0
H2413 H 0.72486 0.95527 0.81083 0.0
H2414 H 0.72266 0.97926 0.79945 0.0
H2415 H 0.73422 0.95901 0.78636 0.0
C2416 C 0.62183 0.55216 0.99299 0.0
C2417 C 0.6255 0.53172 0.99196 0.0
C2418 C 0.63737 0.5663 0.99577 0.0
C2419 C 0.65722 0.55996 0.99735 0.0
C2420 C 0.66096 0.53925 0.99714 0.0
C2421 C 0.64504 0.52535 0.99446 0.0
C2422 C 0.63243 0.58802 0.99598 0.0
C2423 C 0.68183 0.53179 0.99931 0.0
C2424 C 0.70008 0.59451 0.9818 0.0
C2425 C 0.70665 0.60258 1.00005 0.0
C2426 C 0.68365 0.5811 0.98067 0.0
C2427 C 0.67409 0.57493 0.99832 0.0
C2428 C 0.68087 0.58287 0.01685 0.0
C2429 C 0.69706 0.59661 0.01748 0.0
C2430 C 0.67668 0.57334 0.96059 0.0
C2431 C 0.67121 0.5766 0.03601 0.0
H2432 H 0.60671 0.55716 0.99143 0.0
H2433 H 0.64796 0.50954 0.99369 0.0
H2434 H 0.64189 0.5967 0.00672 0.0
H2435 H 0.63513 0.59385 0.98093 0.0
H2436 H 0.61656 0.59035 0.99969 0.0
H2437 H 0.68208 0.51527 1.00029 0.0
H2438 H 0.6909 0.53646 0.9864 0.0
H2439 H 0.68902 0.53847 0.01281 0.0
H2440 H 0.70809 0.59836 0.96843 0.0
H2441 H 0.70244 0.60252 0.03166 0.0
H2442 H 0.66072 0.57661 0.95845 0.0
H2443 H 0.67802 0.5569 0.95973 0.0
H2444 H 0.68534 0.58004 0.94826 0.0
H2445 H 0.6552 0.58021 0.0358 0.0
H2446 H 0.67833 0.58404 0.0492 0.0
H2447 H 0.67209 0.5602 0.03761 0.0
C2448 C 0.22425 0.61999 0.19797 0.0
C2449 C 0.24398 0.61432 0.20071 0.0
C2450 C 0.20823 0.60685 0.20198 0.0
C2451 C 0.21195 0.58759 0.20916 0.0
C2452 C 0.23186 0.58158 0.21154 0.0
C2453 C 0.24763 0.59502 0.20731 0.0
C2454 C 0.18736 0.61393 0.19925 0.0
C2455 C 0.2365 0.56103 0.21877 0.0
C2456 C 0.17392 0.55953 0.24046 0.0
C2457 C 0.1653 0.54613 0.22656 0.0
C2458 C 0.18847 0.57372 0.2348 0.0
C2459 C 0.19512 0.57395 0.21489 0.0
C2460 C 0.18641 0.56042 0.20076 0.0
C2461 C 0.1716 0.54665 0.20679 0.0
C2462 C 0.19711 0.58809 0.25026 0.0
C2463 C 0.1932 0.56005 0.17945 0.0
H2464 H 0.22126 0.63497 0.19318 0.0
H2465 H 0.26284 0.59042 0.20917 0.0
H2466 H 0.17793 0.60237 0.19154 0.0
H2467 H 0.18088 0.61678 0.21406 0.0
H2468 H 0.18693 0.62794 0.1907 0.0
H2469 H 0.25273 0.55833 0.2189 0.0
H2470 H 0.23072 0.55913 0.23404 0.0
H2471 H 0.22896 0.54948 0.20918 0.0
H2472 H 0.1697 0.55853 0.25592 0.0
H2473 H 0.1652 0.53596 0.19613 0.0
H2474 H 0.1957 0.60366 0.24523 0.0
H2475 H 0.21321 0.58545 0.25227 0.0
H2476 H 0.18964 0.58659 0.26485 0.0
H2477 H 0.19206 0.57508 0.17298 0.0
H2478 H 0.18434 0.5492 0.17013 0.0
H2479 H 0.20908 0.55601 0.17879 0.0
C2480 C 0.86603 0.53207 0.02592 0.0
C2481 C 0.88261 0.53243 0.01337 0.0
C2482 C 0.84992 0.54452 0.02264 0.0
C2483 C 0.8505 0.55788 0.00658 0.0
C2484 C 0.86714 0.55817 0.99374 0.0
C2485 C 0.88293 0.54533 0.9972 0.0
C2486 C 0.83235 0.54352 0.03651 0.0
C2487 C 0.86848 0.57239 0.97664 0.0
C2488 C 0.80157 0.57981 0.98995 0.0
C2489 C 0.80178 0.59802 1.0005 0.0
C2490 C 0.81744 0.56667 0.99155 0.0
C2491 C 0.83404 0.57204 0.00375 0.0
C2492 C 0.83457 0.5907 0.01393 0.0
C2493 C 0.81839 0.60338 0.01231 0.0
C2494 C 0.81619 0.54682 0.98065 0.0
C2495 C 0.8521 0.59714 0.02686 0.0
H2496 H 0.86563 0.52195 0.03829 0.0
H2497 H 0.8958 0.54576 0.98756 0.0
H2498 H 0.83094 0.55803 0.04445 0.0
H2499 H 0.81839 0.54069 0.02792 0.0
H2500 H 0.83374 0.53163 0.04767 0.0
H2501 H 0.88213 0.57035 0.96768 0.0
H2502 H 0.85529 0.57026 0.96678 0.0
H2503 H 0.86846 0.588 0.98237 0.0
H2504 H 0.78874 0.57554 0.98086 0.0
H2505 H 0.81871 0.61749 0.02042 0.0
H2506 H 0.8161 0.53455 0.99149 0.0
H2507 H 0.82946 0.54501 0.97113 0.0
H2508 H 0.80262 0.54517 0.97121 0.0
H2509 H 0.85338 0.58688 0.03951 0.0
H2510 H 0.85075 0.61259 0.03284 0.0
H2511 H 0.86611 0.59632 0.01827 0.0
C2512 C 0.12856 0.96994 0.01231 0.0
C2513 C 0.12998 0.98414 0.0278 0.0
C2514 C 0.14428 0.95718 0.00822 0.0
C2515 C 0.16201 0.95893 0.01965 0.0
C2516 C 0.16352 0.97327 0.03532 0.0
C2517 C 0.14739 0.98558 0.03933 0.0
C2518 C 0.14195 0.94186 0.99163 0.0
C2519 C 0.18229 0.97585 0.0476 0.0
C2520 C 0.19733 0.91551 0.01917 0.0
C2521 C 0.21098 0.92132 0.00453 0.0
C2522 C 0.18132 0.92761 0.02429 0.0
C2523 C 0.17916 0.94613 0.01482 0.0
C2524 C 0.19315 0.95226 1.00036 0.0
C2525 C 0.20876 0.93971 0.99526 0.0
C2526 C 0.1665 0.92039 0.03951 0.0
C2527 C 0.19159 0.97205 0.99019 0.0
H2528 H 0.115 0.96869 0.00353 0.0
H2529 H 0.14855 0.99666 0.05122 0.0
H2530 H 0.15317 0.94487 0.97996 0.0
H2531 H 0.14465 0.92674 0.99732 0.0
H2532 H 0.1269 0.94183 0.98473 0.0
H2533 H 0.18101 0.98756 0.05935 0.0
H2534 H 0.18586 0.96158 0.05472 0.0
H2535 H 0.19499 0.97993 0.03787 0.0
H2536 H 0.19886 0.90126 0.0263 0.0
H2537 H 0.21934 0.94438 0.98404 0.0
H2538 H 0.15145 0.919 0.0327 0.0
H2539 H 0.16567 0.93139 0.05194 0.0
H2540 H 0.17039 0.90571 0.04564 0.0
H2541 H 0.1775 0.97235 0.98157 0.0
H2542 H 0.20419 0.97503 0.97995 0.0
H2543 H 0.19121 0.98434 0.00141 0.0
loop_
_geom_bond_atom_site_label_1
_geom_bond_atom_site_label_2
_geom_bond_distance
_geom_bond_site_symmetry_2
_ccdc_geom_bond_type
C0 C1 1.384 . S
C0 H13 0.947 . S
C0 C35 1.382 . S
C1 C0 1.384 . S
C1 C2 1.378 1_655 S
C2 C1 1.378 1_455 S
C2 C3 1.378 . S
C2 H14 0.952 . S
C3 C2 1.378 . S
C3 H15 0.950 . S
C3 C34 1.383 . S
H4 C23 0.947 . S
H5 C24 0.946 . S
H6 C26 0.961 . S
H7 C27 0.945 . S
H8 C29 0.952 . S
H9 C30 0.949 . S
H10 C32 0.961 . S
H11 C33 0.948 . S
H12 C35 0.951 . S
H13 C0 0.947 . S
H14 C2 0.952 . S
H15 C3 0.950 . S
N16 C19 1.382 . S
N16 C21 1.363 . S
N17 C19 1.371 . S
N17 C20 1.372 . S
N18 C20 1.361 . S
N18 C21 1.377 . S
C19 N16 1.382 . S
C19 N17 1.371 . S
C19 C22 1.480 . S
C20 N17 1.372 . S
C20 N18 1.361 . S
C20 C28 1.457 . S
C21 N16 1.363 . S
C21 N18 1.377 . S
C21 C34 1.479 . S
C22 C19 1.480 . S
C22 C23 1.383 1_545 S
C22 C27 1.385 . S
C23 H4 0.947 . S
C23 C22 1.383 1_565 S
C23 C24 1.388 . S
C24 H5 0.946 . S
C24 C23 1.388 . S
C24 C25 1.384 . S
C25 C24 1.384 . S
C25 C26 1.338 1_565 S
C26 H6 0.961 . S
C26 C25 1.338 1_545 S
C26 C27 1.402 . S
C27 H7 0.945 . S
C27 C22 1.385 . S
C27 C26 1.402 . S
C28 C20 1.457 . S
C28 C29 1.372 1_554 S
C28 C33 1.364 . S
C29 H8 0.952 . S
C29 C28 1.372 1_556 S
C29 C30 1.389 . S
C30 H9 0.949 . S
C30 C29 1.389 . S
C30 C31 1.387 . S
C31 C30 1.387 . S
C31 C32 1.324 1_556 S
C32 H10 0.961 . S
C32 C31 1.324 1_554 S
C32 C33 1.418 . S
C33 H11 0.948 . S
C33 C28 1.364 . S
C33 C32 1.418 . S
C34 C3 1.383 . S
C34 C21 1.479 . S
C34 C35 1.398 1_455 S
C35 C0 1.382 . S
C35 H12 0.951 . S
C35 C34 1.398 1_655 S
C36 C37 1.384 . S
C36 H49 0.947 . S
C36 C71 1.382 . S
C37 C36 1.384 . S
C37 C38 1.378 . S
C38 C37 1.378 . S
C38 C39 1.378 . S
C38 H50 0.952 . S
C39 C38 1.378 . S
C39 H51 0.950 . S
C39 C70 1.383 . S
H40 C59 0.947 . S
H41 C60 0.946 . S
H42 C62 0.953 . S
H43 C63 0.945 . S
H44 C65 0.952 . S
H45 C66 0.949 . S
H46 C68 0.950 . S
H47 C69 0.948 . S
H48 C71 0.951 . S
H49 C36 0.947 . S
H50 C38 0.952 . S
H51 C39 0.950 . S
N52 C55 1.382 . S
N52 C57 1.363 . S
N53 C55 1.371 . S
N53 C56 1.372 . S
N54 C56 1.361 . S
N54 C57 1.377 . S
C55 N52 1.382 . S
C55 N53 1.371 . S
C55 C58 1.480 . S
C56 N53 1.372 . S
C56 N54 1.361 . S
C56 C64 1.457 . S
C57 N52 1.363 . S
C57 N54 1.377 . S
C57 C70 1.479 . S
C58 C55 1.480 . S
C58 C59 1.383 . S
C58 C63 1.385 . S
C59 H40 0.947 . S
C59 C58 1.383 . S
C59 C60 1.388 . S
C60 H41 0.946 . S
C60 C59 1.388 . S
C60 C61 1.384 . S
C61 C60 1.384 . S
C61 C62 1.377 . S
C62 H42 0.953 . S
C62 C61 1.377 . S
C62 C63 1.369 . S
C63 H43 0.945 . S
C63 C58 1.385 . S
C63 C62 1.369 . S
C64 C56 1.457 . S
C64 C65 1.372 . S
C64 C69 1.364 . S
C65 H44 0.952 . S
C65 C64 1.372 . S
C65 C66 1.389 . S
C66 H45 0.949 . S
C66 C65 1.389 . S
C66 C67 1.387 . S
C67 C66 1.387 . S
C67 C68 1.372 . S
C68 H46 0.950 . S
C68 C67 1.372 . S
C68 C69 1.379 . S
C69 H47 0.948 . S
C69 C64 1.364 . S
C69 C68 1.379 . S
C70 C39 1.383 . S
C70 C57 1.479 . S
C70 C71 1.398 . S
C71 C36 1.382 . S
C71 H48 0.951 . S
C71 C70 1.398 . S
C72 C73 1.384 . S
C72 H85 0.947 1_656 S
C72 C107 1.382 1_556 S
C73 C72 1.384 . S
C73 C74 1.378 . S
C74 C73 1.378 . S
C74 C75 1.378 . S
C74 H86 0.952 . S
C75 C74 1.378 . S
C75 H87 0.950 . S
C75 C106 1.383 1_556 S
H76 C95 0.947 . S
H77 C96 0.946 . S
H78 C98 0.953 . S
H79 C99 0.945 . S
H80 C101 0.952 . S
H81 C102 0.949 . S
H82 C104 0.950 . S
H83 C105 0.948 . S
H84 C107 0.951 . S
H85 C72 0.947 1_454 S
H86 C74 0.952 . S
H87 C75 0.950 . S
N88 C91 1.382 . S
N88 C93 1.363 . S
N89 C91 1.371 . S
N89 C92 1.372 . S
N90 C92 1.361 . S
N90 C93 1.377 . S
C91 N88 1.382 . S
C91 N89 1.371 . S
C91 C94 1.480 . S
C92 N89 1.372 . S
C92 N90 1.361 . S
C92 C100 1.457 . S
C93 N88 1.363 . S
C93 N90 1.377 . S
C93 C106 1.479 . S
C94 C91 1.480 . S
C94 C95 1.383 . S
C94 C99 1.385 . S
C95 H76 0.947 . S
C95 C94 1.383 . S
C95 C96 1.388 . S
C96 H77 0.946 . S
C96 C95 1.388 . S
C96 C97 1.384 . S
C97 C96 1.384 . S
C97 C98 1.377 . S
C98 H78 0.953 . S
C98 C97 1.377 . S
C98 C99 1.369 . S
C99 H79 0.945 . S
C99 C94 1.385 . S
C99 C98 1.369 . S
C100 C92 1.457 . S
C100 C101 1.372 . S
C100 C105 1.364 1_655 S
C101 H80 0.952 . S
C101 C100 1.372 . S
C101 C102 1.389 1_655 S
C102 H81 0.949 . S
C102 C101 1.389 1_455 S
C102 C103 1.387 . S
C103 C102 1.387 . S
C103 C104 1.372 . S
C104 H82 0.950 . S
C104 C103 1.372 . S
C104 C105 1.379 . S
C105 H83 0.948 . S
C105 C100 1.364 1_455 S
C105 C104 1.379 . S
C106 C75 1.383 1_554 S
C106 C93 1.479 . S
C106 C107 1.398 . S
C107 C72 1.382 1_554 S
C107 H84 0.951 . S
C107 C106 1.398 . S
C108 C109 1.384 . S
C108 H121 0.947 . S
C108 C143 1.382 . S
C109 C108 1.384 . S
C109 C110 1.378 . S
C110 C109 1.378 . S
C110 C111 1.378 . S
C110 H122 0.952 . S
C111 C110 1.378 . S
C111 H123 0.950 . S
C111 C142 1.383 . S
H112 C131 0.947 . S
H113 C132 0.946 . S
H114 C134 0.953 . S
H115 C135 0.945 . S
H116 C137 0.952 . S
H117 C138 0.949 . S
H118 C140 0.950 . S
H119 C141 0.948 . S
H120 C143 0.951 . S
H121 C108 0.947 . S
H122 C110 0.952 . S
H123 C111 0.950 . S
N124 C127 1.382 . S
N124 C129 1.363 . S
N125 C127 1.371 . S
N125 C128 1.372 . S
N126 C128 1.361 . S
N126 C129 1.377 . S
C127 N124 1.382 . S
C127 N125 1.371 . S
C127 C130 1.480 . S
C128 N125 1.372 . S
C128 N126 1.361 . S
C128 C136 1.457 . S
C129 N124 1.363 . S
C129 N126 1.377 . S
C129 C142 1.479 . S
C130 C127 1.480 . S
C130 C131 1.383 . S
C130 C135 1.385 . S
C131 H112 0.947 . S
C131 C130 1.383 . S
C131 C132 1.388 . S
C132 H113 0.946 . S
C132 C131 1.388 . S
C132 C133 1.384 . S
C133 C132 1.384 . S
C133 C134 1.377 . S
C134 H114 0.953 . S
C134 C133 1.377 . S
C134 C135 1.369 . S
C135 H115 0.945 . S
C135 C130 1.385 . S
C135 C134 1.369 . S
C136 C128 1.457 . S
C136 C137 1.372 . S
C136 C141 1.364 . S
C137 H116 0.952 . S
C137 C136 1.372 . S
C137 C138 1.389 . S
C138 H117 0.949 . S
C138 C137 1.389 . S
C138 C139 1.387 . S
C139 C138 1.387 . S
C139 C140 1.372 . S
C140 H118 0.950 . S
C140 C139 1.372 . S
C140 C141 1.379 . S
C141 H119 0.948 . S
C141 C136 1.364 . S
C141 C140 1.379 . S
C142 C111 1.383 . S
C142 C129 1.479 . S
C142 C143 1.398 . S
C143 C108 1.382 . S
C143 H120 0.951 . S
C143 C142 1.398 . S
C144 C145 1.384 . S
C144 H157 0.947 . S
C144 C179 1.382 . S
C145 C144 1.384 . S
C145 C146 1.378 . S
C146 C145 1.378 . S
C146 C147 1.378 . S
C146 H158 0.952 . S
C147 C146 1.378 . S
C147 H159 0.950 . S
C147 C178 1.383 . S
H148 C167 0.947 . S
H149 C168 0.946 . S
H150 C170 0.953 1_545 S
H151 C171 0.945 . S
H152 C173 0.952 . S
H153 C174 0.949 . S
H154 C176 0.950 . S
H155 C177 0.948 . S
H156 C179 0.951 . S
H157 C144 0.947 . S
H158 C146 0.952 . S
H159 C147 0.950 . S
N160 C163 1.382 . S
N160 C165 1.363 . S
N161 C163 1.371 . S
N161 C164 1.372 . S
N162 C164 1.361 . S
N162 C165 1.377 . S
C163 N160 1.382 . S
C163 N161 1.371 . S
C163 C166 1.480 . S
C164 N161 1.372 . S
C164 N162 1.361 . S
C164 C172 1.457 . S
C165 N160 1.363 . S
C165 N162 1.377 . S
C165 C178 1.479 . S
C166 C163 1.480 . S
C166 C167 1.383 1_455 S
C166 C171 1.385 . S
C167 H148 0.947 . S
C167 C166 1.383 1_655 S
C167 C168 1.388 . S
C168 H149 0.946 . S
C168 C167 1.388 . S
C168 C169 1.384 . S
C169 C168 1.384 . S
C169 C170 1.377 1_655 S
C170 H150 0.953 1_565 S
C170 C169 1.377 1_455 S
C170 C171 1.369 . S
C171 H151 0.945 . S
C171 C166 1.385 . S
C171 C170 1.369 . S
C172 C164 1.457 . S
C172 C173 1.372 1_565 S
C172 C177 1.364 . S
C173 H152 0.952 . S
C173 C172 1.372 1_545 S
C173 C174 1.389 . S
C174 H153 0.949 . S
C174 C173 1.389 . S
C174 C175 1.387 . S
C175 C174 1.387 . S
C175 C176 1.372 . S
C176 H154 0.950 . S
C176 C175 1.372 . S
C176 C177 1.379 1_545 S
C177 H155 0.948 . S
C177 C172 1.364 . S
C177 C176 1.379 1_565 S
C178 C147 1.383 . S
C178 C165 1.479 . S
C178 C179 1.398 . S
C179 C144 1.382 . S
C179 H156 0.951 . S
C179 C178 1.398 . S
C180 C181 1.384 . S
C180 H193 0.947 . S
C180 C215 1.382 . S
C181 C180 1.384 . S
C181 C182 1.378 . S
C182 C181 1.378 . S
C182 C183 1.378 . S
C182 H194 0.952 . S
C183 C182 1.378 . S
C183 H195 0.950 . S
C183 C214 1.383 . S
H184 C203 0.947 . S
H185 C204 0.946 . S
H186 C206 0.953 . S
H187 C207 0.945 . S
H188 C209 0.952 . S
H189 C210 0.949 . S
H190 C212 0.950 . S
H191 C213 0.948 . S
H192 C215 0.951 . S
H193 C180 0.947 . S
H194 C182 0.952 . S
H195 C183 0.950 . S
N196 C199 1.382 . S
N196 C201 1.363 . S
N197 C199 1.371 . S
N197 C200 1.372 . S
N198 C200 1.361 . S
N198 C201 1.377 . S
C199 N196 1.382 . S
C199 N197 1.371 . S
C199 C202 1.480 . S
C200 N197 1.372 . S
C200 N198 1.361 . S
C200 C208 1.457 . S
C201 N196 1.363 . S
C201 N198 1.377 . S
C201 C214 1.479 . S
C202 C199 1.480 . S
C202 C203 1.383 . S
C202 C207 1.385 . S
C203 H184 0.947 . S
C203 C202 1.383 . S
C203 C204 1.388 . S
C204 H185 0.946 . S
C204 C203 1.388 . S
C204 C205 1.384 . S
C205 C204 1.384 . S
C205 C206 1.377 . S
C206 H186 0.953 . S
C206 C205 1.377 . S
C206 C207 1.369 . S
C207 H187 0.945 . S
C207 C202 1.385 . S
C207 C206 1.369 . S
C208 C200 1.457 . S
C208 C209 1.372 . S
C208 C213 1.364 . S
C209 H188 0.952 . S
C209 C208 1.372 . S
C209 C210 1.389 . S
C210 H189 0.949 . S
C210 C209 1.389 . S
C210 C211 1.387 . S
C211 C210 1.387 . S
C211 C212 1.372 . S
C212 H190 0.950 . S
C212 C211 1.372 . S
C212 C213 1.379 . S
C213 H191 0.948 . S
C213 C208 1.364 . S
C213 C212 1.379 . S
C214 C183 1.383 . S
C214 C201 1.479 . S
C214 C215 1.398 . S
C215 C180 1.382 . S
C215 H192 0.951 . S
C215 C214 1.398 . S
C216 C217 1.384 . S
C216 H229 0.947 1_655 S
C216 C251 1.382 . S
C217 C216 1.384 . S
C217 C218 1.378 . S
C218 C217 1.378 . S
C218 C219 1.378 . S
C218 H230 0.952 . S
C219 C218 1.378 . S
C219 H231 0.950 . S
C219 C250 1.383 . S
H220 C239 0.947 . S
H221 C240 0.946 . S
H222 C242 0.953 . S
H223 C243 0.945 . S
H224 C245 0.952 . S
H225 C246 0.949 . S
H226 C248 0.950 . S
H227 C249 0.948 . S
H228 C251 0.951 1_455 S
H229 C216 0.947 1_455 S
H230 C218 0.952 . S
H231 C219 0.950 . S
N232 C235 1.382 . S
N232 C237 1.363 . S
N233 C235 1.371 . S
N233 C236 1.372 . S
N234 C236 1.361 . S
N234 C237 1.377 . S
C235 N232 1.382 . S
C235 N233 1.371 . S
C235 C238 1.480 . S
C236 N233 1.372 . S
C236 N234 1.361 . S
C236 C244 1.457 1_655 S
C237 N232 1.363 . S
C237 N234 1.377 . S
C237 C250 1.479 . S
C238 C235 1.480 . S
C238 C239 1.383 . S
C238 C243 1.385 . S
C239 H220 0.947 . S
C239 C238 1.383 . S
C239 C240 1.388 . S
C240 H221 0.946 . S
C240 C239 1.388 . S
C240 C241 1.384 . S
C241 C240 1.384 . S
C241 C242 1.377 . S
C242 H222 0.953 . S
C242 C241 1.377 . S
C242 C243 1.369 . S
C243 H223 0.945 . S
C243 C238 1.385 . S
C243 C242 1.369 . S
C244 C236 1.457 1_455 S
C244 C245 1.372 1_455 S
C244 C249 1.364 . S
C245 H224 0.952 . S
C245 C244 1.372 1_655 S
C245 C246 1.389 1_655 S
C246 H225 0.949 . S
C246 C245 1.389 1_455 S
C246 C247 1.387 . S
C247 C246 1.387 . S
C247 C248 1.372 . S
C248 H226 0.950 . S
C248 C247 1.372 . S
C248 C249 1.379 . S
C249 H227 0.948 . S
C249 C244 1.364 . S
C249 C248 1.379 . S
C250 C219 1.383 . S
C250 C237 1.479 . S
C250 C251 1.398 . S
C251 C216 1.382 . S
C251 H228 0.951 1_655 S
C251 C250 1.398 . S
C252 C253 1.384 . S
C252 H265 0.947 . S
C252 C287 1.382 . S
C253 C252 1.384 . S
C253 C254 1.378 . S
C254 C253 1.378 . S
C254 C255 1.378 . S
C254 H266 0.952 . S
C255 C254 1.378 . S
C255 H267 0.950 . S
C255 C286 1.383 . S
H256 C275 0.947 . S
H257 C276 0.946 . S
H258 C278 0.953 . S
H259 C279 0.945 . S
H260 C281 0.952 . S
H261 C282 0.949 . S
H262 C284 0.950 . S
H263 C285 0.948 . S
H264 C287 0.951 . S
H265 C252 0.947 . S
H266 C254 0.952 . S
H267 C255 0.950 . S
N268 C271 1.382 . S
N268 C273 1.363 . S
N269 C271 1.371 . S
N269 C272 1.372 . S
N270 C272 1.361 . S
N270 C273 1.377 . S
C271 N268 1.382 . S
C271 N269 1.371 . S
C271 C274 1.480 . S
C272 N269 1.372 . S
C272 N270 1.361 . S
C272 C280 1.457 . S
C273 N268 1.363 . S
C273 N270 1.377 . S
C273 C286 1.479 . S
C274 C271 1.480 . S
C274 C275 1.383 . S
C274 C279 1.385 . S
C275 H256 0.947 . S
C275 C274 1.383 . S
C275 C276 1.388 . S
C276 H257 0.946 . S
C276 C275 1.388 . S
C276 C277 1.384 . S
C277 C276 1.384 . S
C277 C278 1.377 . S
C278 H258 0.953 . S
C278 C277 1.377 . S
C278 C279 1.369 . S
C279 H259 0.945 . S
C279 C274 1.385 . S
C279 C278 1.369 . S
C280 C272 1.457 . S
C280 C281 1.372 . S
C280 C285 1.364 . S
C281 H260 0.952 . S
C281 C280 1.372 . S
C281 C282 1.389 . S
C282 H261 0.949 . S
C282 C281 1.389 . S
C282 C283 1.387 . S
C283 C282 1.387 . S
C283 C284 1.372 . S
C284 H262 0.950 . S
C284 C283 1.372 . S
C284 C285 1.379 . S
C285 H263 0.948 . S
C285 C280 1.364 . S
C285 C284 1.379 . S
C286 C255 1.383 . S
C286 C273 1.479 . S
C286 C287 1.398 . S
C287 C252 1.382 . S
C287 H264 0.951 . S
C287 C286 1.398 . S
C288 C289 1.384 . S
C288 H301 0.947 . S
C288 C323 1.382 . S
C289 C288 1.384 . S
C289 C290 1.378 . S
C290 C289 1.378 . S
C290 C291 1.378 . S
C290 H302 0.952 . S
C291 C290 1.378 . S
C291 H303 0.950 . S
C291 C322 1.383 . S
H292 C311 0.947 . S
H293 C312 0.946 . S
H294 C314 0.953 . S
H295 C315 0.945 . S
H296 C317 0.952 . S
H297 C318 0.949 . S
H298 C320 0.950 . S
H299 C321 0.948 . S
H300 C323 0.951 . S
H301 C288 0.947 . S
H302 C290 0.952 . S
H303 C291 0.950 . S
N304 C307 1.382 . S
N304 C309 1.363 . S
N305 C307 1.371 . S
N305 C308 1.372 . S
N306 C308 1.361 . S
N306 C309 1.377 . S
C307 N304 1.382 . S
C307 N305 1.371 . S
C307 C310 1.480 . S
C308 N305 1.372 . S
C308 N306 1.361 . S
C308 C316 1.457 . S
C309 N304 1.363 . S
C309 N306 1.377 . S
C309 C322 1.479 . S
C310 C307 1.480 . S
C310 C311 1.383 . S
C310 C315 1.385 . S
C311 H292 0.947 . S
C311 C310 1.383 . S
C311 C312 1.388 . S
C312 H293 0.946 . S
C312 C311 1.388 . S
C312 C313 1.384 . S
C313 C312 1.384 . S
C313 C314 1.377 . S
C314 H294 0.953 . S
C314 C313 1.377 . S
C314 C315 1.369 . S
C315 H295 0.945 . S
C315 C310 1.385 . S
C315 C314 1.369 . S
C316 C308 1.457 . S
C316 C317 1.372 . S
C316 C321 1.364 . S
C317 H296 0.952 . S
C317 C316 1.372 . S
C317 C318 1.389 . S
C318 H297 0.949 . S
C318 C317 1.389 . S
C318 C319 1.387 . S
C319 C318 1.387 . S
C319 C320 1.372 . S
C320 H298 0.950 . S
C320 C319 1.372 . S
C320 C321 1.379 . S
C321 H299 0.948 . S
C321 C316 1.364 . S
C321 C320 1.379 . S
C322 C291 1.383 . S
C322 C309 1.479 . S
C322 C323 1.398 . S
C323 C288 1.382 . S
C323 H300 0.951 . S
C323 C322 1.398 . S
C324 C325 1.384 . S
C324 H337 0.947 . S
C324 C359 1.382 . S
C325 C324 1.384 . S
C325 C326 1.378 . S
C326 C325 1.378 . S
C326 C327 1.378 . S
C326 H338 0.952 . S
C327 C326 1.378 . S
C327 H339 0.950 . S
C327 C358 1.383 . S
H328 C347 0.947 . S
H329 C348 0.946 . S
H330 C350 0.953 . S
H331 C351 0.945 . S
H332 C353 0.952 . S
H333 C354 0.949 1_545 S
H334 C356 0.950 . S
H335 C357 0.948 . S
H336 C359 0.951 . S
H337 C324 0.947 . S
H338 C326 0.952 . S
H339 C327 0.950 . S
N340 C343 1.382 . S
N340 C345 1.363 . S
N341 C343 1.371 . S
N341 C344 1.372 . S
N342 C344 1.361 . S
N342 C345 1.377 . S
C343 N340 1.382 . S
C343 N341 1.371 . S
C343 C346 1.480 . S
C344 N341 1.372 . S
C344 N342 1.361 . S
C344 C352 1.457 . S
C345 N340 1.363 . S
C345 N342 1.377 . S
C345 C358 1.479 . S
C346 C343 1.480 . S
C346 C347 1.383 . S
C346 C351 1.385 1_565 S
C347 H328 0.947 . S
C347 C346 1.383 . S
C347 C348 1.388 1_565 S
C348 H329 0.946 . S
C348 C347 1.388 1_545 S
C348 C349 1.384 . S
C349 C348 1.384 . S
C349 C350 1.377 . S
C350 H330 0.953 . S
C350 C349 1.377 . S
C350 C351 1.369 . S
C351 H331 0.945 . S
C351 C346 1.385 1_545 S
C351 C350 1.369 . S
C352 C344 1.457 . S
C352 C353 1.372 . S
C352 C357 1.364 . S
C353 H332 0.952 . S
C353 C352 1.372 . S
C353 C354 1.389 . S
C354 H333 0.949 1_565 S
C354 C353 1.389 . S
C354 C355 1.387 . S
C355 C354 1.387 . S
C355 C356 1.372 . S
C356 H334 0.950 . S
C356 C355 1.372 . S
C356 C357 1.379 . S
C357 H335 0.948 . S
C357 C352 1.364 . S
C357 C356 1.379 . S
C358 C327 1.383 . S
C358 C345 1.479 . S
C358 C359 1.398 . S
C359 C324 1.382 . S
C359 H336 0.951 . S
C359 C358 1.398 . S
C360 C361 1.384 . S
C360 H373 0.947 . S
C360 C395 1.382 . S
C361 C360 1.384 . S
C361 C362 1.378 . S
C362 C361 1.378 . S
C362 C363 1.378 . S
C362 H374 0.952 . S
C363 C362 1.378 . S
C363 H375 0.950 . S
C363 C394 1.383 . S
H364 C383 0.947 . S
H365 C384 0.946 . S
H366 C386 0.953 . S
H367 C387 0.945 . S
H368 C389 0.952 . S
H369 C390 0.949 . S
H370 C392 0.950 . S
H371 C393 0.948 . S
H372 C395 0.951 . S
H373 C360 0.947 . S
H374 C362 0.952 . S
H375 C363 0.950 . S
N376 C379 1.382 . S
N376 C381 1.363 . S
N377 C379 1.371 . S
N377 C380 1.372 . S
N378 C380 1.361 . S
N378 C381 1.377 . S
C379 N376 1.382 . S
C379 N377 1.371 . S
C379 C382 1.480 . S
C380 N377 1.372 . S
C380 N378 1.361 . S
C380 C388 1.457 . S
C381 N376 1.363 . S
C381 N378 1.377 . S
C381 C394 1.479 . S
C382 C379 1.480 . S
C382 C383 1.383 . S
C382 C387 1.385 . S
C383 H364 0.947 . S
C383 C382 1.383 . S
C383 C384 1.388 . S
C384 H365 0.946 . S
C384 C383 1.388 . S
C384 C385 1.384 . S
C385 C384 1.384 . S
C385 C386 1.377 . S
C386 H366 0.953 . S
C386 C385 1.377 . S
C386 C387 1.369 . S
C387 H367 0.945 . S
C387 C382 1.385 . S
C387 C386 1.369 . S
C388 C380 1.457 . S
C388 C389 1.372 . S
C388 C393 1.364 . S
C389 H368 0.952 . S
C389 C388 1.372 . S
C389 C390 1.389 . S
C390 H369 0.949 . S
C390 C389 1.389 . S
C390 C391 1.387 . S
C391 C390 1.387 . S
C391 C392 1.372 . S
C392 H370 0.950 . S
C392 C391 1.372 . S
C392 C393 1.379 . S
C393 H371 0.948 . S
C393 C388 1.364 . S
C393 C392 1.379 . S
C394 C363 1.383 . S
C394 C381 1.479 . S
C394 C395 1.398 . S
C395 C360 1.382 . S
C395 H372 0.951 . S
C395 C394 1.398 . S
C396 C397 1.384 . S
C396 H409 0.947 . S
C396 C431 1.382 . S
C397 C396 1.384 . S
C397 C398 1.378 . S
C398 C397 1.378 . S
C398 C399 1.378 . S
C398 H410 0.952 . S
C399 C398 1.378 . S
C399 H411 0.950 . S
C399 C430 1.383 . S
H400 C419 0.947 . S
H401 C420 0.946 . S
H402 C422 0.953 . S
H403 C423 0.945 . S
H404 C425 0.952 . S
H405 C426 0.949 . S
H406 C428 0.950 . S
H407 C429 0.948 . S
H408 C431 0.951 . S
H409 C396 0.947 . S
H410 C398 0.952 . S
H411 C399 0.950 . S
N412 C415 1.382 . S
N412 C417 1.363 . S
N413 C415 1.371 . S
N413 C416 1.372 . S
N414 C416 1.361 . S
N414 C417 1.377 . S
C415 N412 1.382 . S
C415 N413 1.371 . S
C415 C418 1.480 . S
C416 N413 1.372 . S
C416 N414 1.361 . S
C416 C424 1.457 . S
C417 N412 1.363 . S
C417 N414 1.377 . S
C417 C430 1.479 . S
C418 C415 1.480 . S
C418 C419 1.383 . S
C418 C423 1.385 . S
C419 H400 0.947 . S
C419 C418 1.383 . S
C419 C420 1.388 . S
C420 H401 0.946 . S
C420 C419 1.388 . S
C420 C421 1.384 . S
C421 C420 1.384 . S
C421 C422 1.377 . S
C422 H402 0.953 . S
C422 C421 1.377 . S
C422 C423 1.369 . S
C423 H403 0.945 . S
C423 C418 1.385 . S
C423 C422 1.369 . S
C424 C416 1.457 . S
C424 C425 1.372 . S
C424 C429 1.364 . S
C425 H404 0.952 . S
C425 C424 1.372 . S
C425 C426 1.389 . S
C426 H405 0.949 . S
C426 C425 1.389 . S
C426 C427 1.387 . S
C427 C426 1.387 . S
C427 C428 1.372 . S
C428 H406 0.950 . S
C428 C427 1.372 . S
C428 C429 1.379 . S
C429 H407 0.948 . S
C429 C424 1.364 . S
C429 C428 1.379 . S
C430 C399 1.383 . S
C430 C417 1.479 . S
C430 C431 1.398 . S
C431 C396 1.382 . S
C431 H408 0.951 . S
C431 C430 1.398 . S
C432 C433 1.384 . S
C432 H445 0.947 . S
C432 C467 1.382 . S
C433 C432 1.384 . S
C433 C434 1.378 . S
C434 C433 1.378 . S
C434 C435 1.378 . S
C434 H446 0.952 . S
C435 C434 1.378 . S
C435 H447 0.950 . S
C435 C466 1.383 . S
H436 C455 0.947 . S
H437 C456 0.946 . S
H438 C458 0.953 . S
H439 C459 0.945 . S
H440 C461 0.952 . S
H441 C462 0.949 . S
H442 C464 0.950 . S
H443 C465 0.948 . S
H444 C467 0.951 . S
H445 C432 0.947 . S
H446 C434 0.952 . S
H447 C435 0.950 . S
N448 C451 1.382 . S
N448 C453 1.363 . S
N449 C451 1.371 . S
N449 C452 1.372 . S
N450 C452 1.361 . S
N450 C453 1.377 . S
C451 N448 1.382 . S
C451 N449 1.371 . S
C451 C454 1.480 . S
C452 N449 1.372 . S
C452 N450 1.361 . S
C452 C460 1.457 . S
C453 N448 1.363 . S
C453 N450 1.377 . S
C453 C466 1.479 . S
C454 C451 1.480 . S
C454 C455 1.383 . S
C454 C459 1.385 . S
C455 H436 0.947 . S
C455 C454 1.383 . S
C455 C456 1.388 . S
C456 H437 0.946 . S
C456 C455 1.388 . S
C456 C457 1.384 . S
C457 C456 1.384 . S
C457 C458 1.377 . S
C458 H438 0.953 . S
C458 C457 1.377 . S
C458 C459 1.369 . S
C459 H439 0.945 . S
C459 C454 1.385 . S
C459 C458 1.369 . S
C460 C452 1.457 . S
C460 C461 1.372 . S
C460 C465 1.364 . S
C461 H440 0.952 . S
C461 C460 1.372 . S
C461 C462 1.389 . S
C462 H441 0.949 . S
C462 C461 1.389 . S
C462 C463 1.387 . S
C463 C462 1.387 . S
C463 C464 1.372 . S
C464 H442 0.950 . S
C464 C463 1.372 . S
C464 C465 1.379 . S
C465 H443 0.948 . S
C465 C460 1.364 . S
C465 C464 1.379 . S
C466 C435 1.383 . S
C466 C453 1.479 . S
C466 C467 1.398 . S
C467 C432 1.382 . S
C467 H444 0.951 . S
C467 C466 1.398 . S
C468 C469 1.384 . S
C468 H481 0.947 . S
C468 C503 1.382 . S
C469 C468 1.384 . S
C469 C470 1.375 . S
C470 C469 1.375 . S
C470 C471 1.381 1_554 S
C470 H482 0.953 1_554 S
C471 C470 1.381 1_556 S
C471 H483 0.950 . S
C471 C502 1.383 . S
H472 C491 0.947 . S
H473 C492 0.946 . S
H474 C494 0.953 . S
H475 C495 0.945 . S
H476 C497 0.952 . S
H477 C498 0.949 . S
H478 C500 0.950 . S
H479 C501 0.948 . S
H480 C503 0.951 . S
H481 C468 0.947 . S
H482 C470 0.953 1_556 S
H483 C471 0.950 . S
N484 C487 1.382 . S
N484 C489 1.363 . S
N485 C487 1.371 . S
N485 C488 1.372 . S
N486 C488 1.361 . S
N486 C489 1.377 . S
C487 N484 1.382 . S
C487 N485 1.371 . S
C487 C490 1.480 . S
C488 N485 1.372 . S
C488 N486 1.361 . S
C488 C496 1.457 . S
C489 N484 1.363 . S
C489 N486 1.377 . S
C489 C502 1.479 . S
C490 C487 1.480 . S
C490 C491 1.383 . S
C490 C495 1.385 . S
C491 H472 0.947 . S
C491 C490 1.383 . S
C491 C492 1.388 . S
C492 H473 0.946 . S
C492 C491 1.388 . S
C492 C493 1.384 . S
C493 C492 1.384 . S
C493 C494 1.377 . S
C494 H474 0.953 . S
C494 C493 1.377 . S
C494 C495 1.369 . S
C495 H475 0.945 . S
C495 C490 1.385 . S
C495 C494 1.369 . S
C496 C488 1.457 . S
C496 C497 1.372 . S
C496 C501 1.364 . S
C497 H476 0.952 . S
C497 C496 1.372 . S
C497 C498 1.389 . S
C498 H477 0.949 . S
C498 C497 1.389 . S
C498 C499 1.387 . S
C499 C498 1.387 . S
C499 C500 1.372 . S
C500 H478 0.950 . S
C500 C499 1.372 . S
C500 C501 1.379 . S
C501 H479 0.948 . S
C501 C496 1.364 . S
C501 C500 1.379 . S
C502 C471 1.383 . S
C502 C489 1.479 . S
C502 C503 1.398 1_556 S
C503 C468 1.382 . S
C503 H480 0.951 . S
C503 C502 1.398 1_554 S
C504 C505 1.384 . S
C504 H517 0.947 . S
C504 C539 1.382 . S
C505 C504 1.384 . S
C505 C506 1.378 . S
C506 C505 1.378 . S
C506 C507 1.378 . S
C506 H518 0.952 . S
C507 C506 1.378 . S
C507 H519 0.950 . S
C507 C538 1.383 . S
H508 C527 0.947 . S
H509 C528 0.946 . S
H510 C530 0.953 . S
H511 C531 0.945 . S
H512 C533 0.952 . S
H513 C534 0.949 . S
H514 C536 0.950 . S
H515 C537 0.948 . S
H516 C539 0.951 . S
H517 C504 0.947 . S
H518 C506 0.952 . S
H519 C507 0.950 . S
N520 C523 1.382 . S
N520 C525 1.363 . S
N521 C523 1.371 . S
N521 C524 1.372 . S
N522 C524 1.361 . S
N522 C525 1.377 . S
C523 N520 1.382 . S
C523 N521 1.371 . S
C523 C526 1.480 . S
C524 N521 1.372 . S
C524 N522 1.361 . S
C524 C532 1.457 . S
C525 N520 1.363 . S
C525 N522 1.377 . S
C525 C538 1.479 . S
C526 C523 1.480 . S
C526 C527 1.383 . S
C526 C531 1.385 . S
C527 H508 0.947 . S
C527 C526 1.383 . S
C527 C528 1.388 . S
C528 H509 0.946 . S
C528 C527 1.388 . S
C528 C529 1.384 . S
C529 C528 1.384 . S
C529 C530 1.377 . S
C530 H510 0.953 . S
C530 C529 1.377 . S
C530 C531 1.369 . S
C531 H511 0.945 . S
C531 C526 1.385 . S
C531 C530 1.369 . S
C532 C524 1.457 . S
C532 C533 1.372 . S
C532 C537 1.364 . S
C533 H512 0.952 . S
C533 C532 1.372 . S
C533 C534 1.389 . S
C534 H513 0.949 . S
C534 C533 1.389 . S
C534 C535 1.387 . S
C535 C534 1.387 . S
C535 C536 1.372 . S
C536 H514 0.950 . S
C536 C535 1.372 . S
C536 C537 1.379 . S
C537 H515 0.948 . S
C537 C532 1.364 . S
C537 C536 1.379 . S
C538 C507 1.383 . S
C538 C525 1.479 . S
C538 C539 1.398 . S
C539 C504 1.382 . S
C539 H516 0.951 . S
C539 C538 1.398 . S
C540 C541 1.384 . S
C540 H553 0.947 . S
C540 C575 1.382 1_554 S
C541 C540 1.384 . S
C541 C542 1.378 . S
C542 C541 1.378 . S
C542 C543 1.378 . S
C542 H554 0.952 . S
C543 C542 1.378 . S
C543 H555 0.950 . S
C543 C574 1.379 . S
H544 C563 0.947 1_554 S
H545 C564 0.946 1_554 S
H546 C566 0.953 . S
H547 C567 0.945 . S
H548 C569 0.952 . S
H549 C570 0.949 . S
H550 C572 0.950 . S
H551 C573 0.948 . S
H552 C575 0.951 . S
H553 C540 0.947 . S
H554 C542 0.952 . S
H555 C543 0.950 . S
N556 C559 1.382 . S
N556 C561 1.363 . S
N557 C559 1.371 . S
N557 C560 1.372 . S
N558 C560 1.361 . S
N558 C561 1.377 . S
C559 N556 1.382 . S
C559 N557 1.371 . S
C559 C562 1.480 . S
C560 N557 1.372 . S
C560 N558 1.361 . S
C560 C568 1.457 . S
C561 N556 1.363 . S
C561 N558 1.377 . S
C561 C574 1.482 1_556 S
C562 C559 1.480 . S
C562 C563 1.383 . S
C562 C567 1.385 1_545 S
C563 H544 0.947 1_556 S
C563 C562 1.383 . S
C563 C564 1.388 . S
C564 H545 0.946 1_556 S
C564 C563 1.388 . S
C564 C565 1.384 1_545 S
C565 C564 1.384 1_565 S
C565 C566 1.377 . S
C566 H546 0.953 . S
C566 C565 1.377 . S
C566 C567 1.369 . S
C567 H547 0.945 . S
C567 C562 1.385 1_565 S
C567 C566 1.369 . S
C568 C560 1.457 . S
C568 C569 1.372 . S
C568 C573 1.364 . S
C569 H548 0.952 . S
C569 C568 1.372 . S
C569 C570 1.389 . S
C570 H549 0.949 . S
C570 C569 1.389 . S
C570 C571 1.387 . S
C571 C570 1.387 . S
C571 C572 1.372 . S
C572 H550 0.950 . S
C572 C571 1.372 . S
C572 C573 1.379 . S
C573 H551 0.948 . S
C573 C568 1.364 . S
C573 C572 1.379 . S
C574 C543 1.379 . S
C574 C561 1.482 1_554 S
C574 C575 1.399 1_554 S
C575 C540 1.382 1_556 S
C575 H552 0.951 . S
C575 C574 1.399 1_556 S
Mn576 O581 2.095 . S
Mn576 O591 2.162 . S
Mn576 O592 2.297 . S
Mn576 O600 2.393 . S
Mn576 O601 2.209 1_554 S
Mn576 O602 2.094 . S
Mn577 O582 2.121 . S
Mn577 N584 2.257 . S
Mn577 N593 2.282 . S
Mn577 O601 2.215 . S
Mn577 O603 2.117 . S
C578 O600 1.218 1_556 S
C578 O601 1.283 . S
C579 O591 1.281 . S
C579 O592 1.236 . S
C580 O602 1.240 . S
C580 O603 1.264 1_554 S
O581 Mn576 2.095 . S
O581 C590 1.250 . S
O582 Mn577 2.121 . S
O582 C590 1.258 1_556 S
C583 N584 1.326 . S
C583 C587 1.460 . S
C583 H589 0.929 . S
N584 Mn577 2.257 . S
N584 C583 1.326 . S
N584 C588 1.362 . S
C585 C586 1.258 . S
C585 C588 1.431 . S
C585 C605 1.449 . S
C586 C585 1.258 . S
C586 C587 1.477 . S
C586 H606 0.931 . S
C587 C583 1.460 . S
C587 C586 1.477 . S
C587 H607 0.930 . S
C588 N584 1.362 . S
C588 C585 1.431 . S
C588 C598 1.476 . S
H589 C583 0.929 . S
C590 O581 1.250 . S
C590 O582 1.258 1_554 S
O591 Mn576 2.162 . S
O591 C579 1.281 . S
O592 Mn576 2.297 . S
O592 C579 1.236 . S
N593 Mn577 2.282 . S
N593 C594 1.328 . S
N593 C598 1.318 . S
C594 N593 1.328 . S
C594 C595 1.457 . S
C594 H599 0.929 . S
C595 C594 1.457 . S
C595 C596 1.291 . S
C595 H608 0.931 . S
C596 C595 1.291 . S
C596 C597 1.373 . S
C596 H609 0.929 . S
C597 C596 1.373 . S
C597 C598 1.396 . S
C597 C604 1.403 . S
C598 C588 1.476 . S
C598 N593 1.318 . S
C598 C597 1.396 . S
H599 C594 0.929 . S
O600 Mn576 2.393 . S
O600 C578 1.218 1_554 S
O601 Mn576 2.209 1_556 S
O601 Mn577 2.215 . S
O601 C578 1.283 . S
O602 Mn576 2.094 . S
O602 C580 1.240 . S
O603 Mn577 2.117 . S
O603 C580 1.264 1_556 S
C604 C597 1.403 . S
C604 C605 1.399 . S
C604 H610 0.929 . S
C605 C585 1.449 . S
C605 C604 1.399 . S
C605 H611 0.930 . S
H606 C586 0.931 . S
H607 C587 0.930 . S
H608 C595 0.931 . S
H609 C596 0.929 . S
H610 C604 0.929 . S
H611 C605 0.930 . S
Mn612 O617 2.095 . S
Mn612 O627 2.162 . S
Mn612 O628 2.297 . S
Mn612 O636 2.385 . S
Mn612 O637 2.209 . S
Mn612 O638 2.094 . S
Mn613 O618 2.121 . S
Mn613 N620 2.257 . S
Mn613 N629 2.282 . S
Mn613 O637 2.215 . S
Mn613 O639 2.117 . S
C614 O636 1.234 . S
C614 O637 1.283 . S
C615 O627 1.281 . S
C615 O628 1.236 . S
C616 O638 1.240 . S
C616 O639 1.264 . S
O617 Mn612 2.095 . S
O617 C626 1.250 . S
O618 Mn613 2.121 . S
O618 C626 1.258 . S
C619 N620 1.326 . S
C619 C623 1.460 . S
C619 H625 0.929 . S
N620 Mn613 2.257 . S
N620 C619 1.326 . S
N620 C624 1.362 . S
C621 C622 1.258 . S
C621 C624 1.431 . S
C621 C641 1.449 . S
C622 C621 1.258 . S
C622 C623 1.477 . S
C622 H642 0.931 . S
C623 C619 1.460 . S
C623 C622 1.477 . S
C623 H643 0.930 . S
C624 N620 1.362 . S
C624 C621 1.431 . S
C624 C634 1.476 . S
H625 C619 0.929 . S
C626 O617 1.250 . S
C626 O618 1.258 . S
O627 Mn612 2.162 . S
O627 C615 1.281 . S
O628 Mn612 2.297 . S
O628 C615 1.236 . S
N629 Mn613 2.282 . S
N629 C630 1.328 . S
N629 C634 1.318 . S
C630 N629 1.328 . S
C630 C631 1.457 . S
C630 H635 0.929 . S
C631 C630 1.457 . S
C631 C632 1.291 . S
C631 H644 0.931 . S
C632 C631 1.291 . S
C632 C633 1.373 . S
C632 H645 0.929 . S
C633 C632 1.373 . S
C633 C634 1.396 . S
C633 C640 1.403 . S
C634 C624 1.476 . S
C634 N629 1.318 . S
C634 C633 1.396 . S
H635 C630 0.929 . S
O636 Mn612 2.385 . S
O636 C614 1.234 . S
O637 Mn612 2.209 . S
O637 Mn613 2.215 . S
O637 C614 1.283 . S
O638 Mn612 2.094 . S
O638 C616 1.240 . S
O639 Mn613 2.117 . S
O639 C616 1.264 . S
C640 C633 1.403 . S
C640 C641 1.399 . S
C640 H646 0.929 . S
C641 C621 1.449 . S
C641 C640 1.399 . S
C641 H647 0.930 . S
H642 C622 0.931 . S
H643 C623 0.930 . S
H644 C631 0.931 . S
H645 C632 0.929 . S
H646 C640 0.929 . S
H647 C641 0.930 . S
Mn648 O653 2.095 1_554 S
Mn648 O663 2.162 . S
Mn648 O664 2.297 1_554 S
Mn648 O672 2.385 . S
Mn648 O673 2.209 1_554 S
Mn648 O674 2.094 . S
Mn649 O654 2.121 . S
Mn649 N656 2.257 . S
Mn649 N665 2.282 . S
Mn649 O673 2.215 . S
Mn649 O675 2.117 1_556 S
C650 O672 1.233 . S
C650 O673 1.283 1_554 S
C651 O663 1.281 . S
C651 O664 1.236 1_554 S
C652 O674 1.240 . S
C652 O675 1.264 . S
O653 Mn648 2.095 1_556 S
O653 C662 1.250 . S
O654 Mn649 2.121 . S
O654 C662 1.258 . S
C655 N656 1.326 . S
C655 C659 1.460 . S
C655 H661 0.929 . S
N656 Mn649 2.257 . S
N656 C655 1.326 . S
N656 C660 1.362 . S
C657 C658 1.258 . S
C657 C660 1.431 . S
C657 C677 1.449 . S
C658 C657 1.258 . S
C658 C659 1.477 . S
C658 H678 0.931 . S
C659 C655 1.460 . S
C659 C658 1.477 . S
C659 H679 0.930 . S
C660 N656 1.362 . S
C660 C657 1.431 . S
C660 C670 1.476 . S
H661 C655 0.929 . S
C662 O653 1.250 . S
C662 O654 1.258 . S
O663 Mn648 2.162 . S
O663 C651 1.281 . S
O664 Mn648 2.297 1_556 S
O664 C651 1.236 1_556 S
N665 Mn649 2.282 . S
N665 C666 1.328 1_556 S
N665 C670 1.318 . S
C666 N665 1.328 1_554 S
C666 C667 1.457 . S
C666 H671 0.929 . S
C667 C666 1.457 . S
C667 C668 1.291 . S
C667 H680 0.931 . S
C668 C667 1.291 . S
C668 C669 1.373 1_554 S
C668 H681 0.929 . S
C669 C668 1.373 1_556 S
C669 C670 1.396 . S
C669 C676 1.403 . S
C670 C660 1.476 . S
C670 N665 1.318 . S
C670 C669 1.396 . S
H671 C666 0.929 . S
O672 Mn648 2.385 . S
O672 C650 1.233 . S
O673 Mn648 2.209 1_556 S
O673 Mn649 2.215 . S
O673 C650 1.283 1_556 S
O674 Mn648 2.094 . S
O674 C652 1.240 . S
O675 Mn649 2.117 1_554 S
O675 C652 1.264 . S
C676 C669 1.403 . S
C676 C677 1.399 . S
C676 H682 0.929 . S
C677 C657 1.449 . S
C677 C676 1.399 . S
C677 H683 0.930 . S
H678 C658 0.931 . S
H679 C659 0.930 . S
H680 C667 0.931 . S
H681 C668 0.929 . S
H682 C676 0.929 . S
H683 C677 0.930 . S
Mn684 O689 2.095 . S
Mn684 O699 2.162 . S
Mn684 O700 2.297 . S
Mn684 O708 2.366 1_545 S
Mn684 O709 2.209 1_545 S
Mn684 O710 2.094 . S
Mn685 O690 2.121 . S
Mn685 N692 2.257 . S
Mn685 N701 2.282 . S
Mn685 O709 2.215 . S
Mn685 O711 2.117 . S
C686 O708 1.272 . S
C686 O709 1.283 . S
C687 O699 1.281 . S
C687 O700 1.236 . S
C688 O710 1.240 . S
C688 O711 1.264 1_545 S
O689 Mn684 2.095 . S
O689 C698 1.286 . S
O690 Mn685 2.121 . S
O690 C698 1.212 1_565 S
C691 N692 1.326 . S
C691 C695 1.460 . S
C691 H697 0.929 . S
N692 Mn685 2.257 . S
N692 C691 1.326 . S
N692 C696 1.362 . S
C693 C694 1.258 . S
C693 C696 1.431 . S
C693 C713 1.449 . S
C694 C693 1.258 . S
C694 C695 1.477 . S
C694 H714 0.931 . S
C695 C691 1.460 . S
C695 C694 1.477 . S
C695 H715 0.930 . S
C696 N692 1.362 . S
C696 C693 1.431 . S
C696 C706 1.476 . S
H697 C691 0.929 . S
C698 O689 1.286 . S
C698 O690 1.212 1_545 S
O699 Mn684 2.162 . S
O699 C687 1.281 . S
O700 Mn684 2.297 . S
O700 C687 1.236 . S
N701 Mn685 2.282 . S
N701 C702 1.328 . S
N701 C706 1.318 . S
C702 N701 1.328 . S
C702 C703 1.457 . S
C702 H707 0.929 . S
C703 C702 1.457 . S
C703 C704 1.291 . S
C703 H716 0.931 . S
C704 C703 1.291 . S
C704 C705 1.373 . S
C704 H717 0.929 . S
C705 C704 1.373 . S
C705 C706 1.396 . S
C705 C712 1.403 . S
C706 C696 1.476 . S
C706 N701 1.318 . S
C706 C705 1.396 . S
H707 C702 0.929 . S
O708 Mn684 2.366 1_565 S
O708 C686 1.272 . S
O709 Mn684 2.209 1_565 S
O709 Mn685 2.215 . S
O709 C686 1.283 . S
O710 Mn684 2.094 . S
O710 C688 1.240 . S
O711 Mn685 2.117 . S
O711 C688 1.264 1_565 S
C712 C705 1.403 . S
C712 C713 1.399 . S
C712 H718 0.929 . S
C713 C693 1.449 . S
C713 C712 1.399 . S
C713 H719 0.930 . S
H714 C694 0.931 . S
H715 C695 0.930 . S
H716 C703 0.931 . S
H717 C704 0.929 . S
H718 C712 0.929 . S
H719 C713 0.930 . S
Mn720 O725 2.095 . S
Mn720 O735 2.162 . S
Mn720 O736 2.297 . S
Mn720 O744 2.385 . S
Mn720 O745 2.209 . S
Mn720 O746 2.094 . S
Mn721 O726 2.121 . S
Mn721 N728 2.257 . S
Mn721 N737 2.282 . S
Mn721 O745 2.215 . S
Mn721 O747 2.117 . S
C722 O744 1.234 . S
C722 O745 1.283 . S
C723 O735 1.281 . S
C723 O736 1.236 . S
C724 O746 1.240 . S
C724 O747 1.264 . S
O725 Mn720 2.095 . S
O725 C734 1.250 . S
O726 Mn721 2.121 . S
O726 C734 1.258 . S
C727 N728 1.326 . S
C727 C731 1.460 . S
C727 H733 0.929 . S
N728 Mn721 2.257 . S
N728 C727 1.326 . S
N728 C732 1.362 . S
C729 C730 1.258 . S
C729 C732 1.431 . S
C729 C749 1.449 . S
C730 C729 1.258 . S
C730 C731 1.477 . S
C730 H750 0.931 . S
C731 C727 1.460 . S
C731 C730 1.477 . S
C731 H751 0.930 . S
C732 N728 1.362 . S
C732 C729 1.431 . S
C732 C742 1.476 . S
H733 C727 0.929 . S
C734 O725 1.250 . S
C734 O726 1.258 . S
O735 Mn720 2.162 . S
O735 C723 1.281 . S
O736 Mn720 2.297 . S
O736 C723 1.236 . S
N737 Mn721 2.282 . S
N737 C738 1.328 . S
N737 C742 1.318 . S
C738 N737 1.328 . S
C738 C739 1.457 . S
C738 H743 0.929 . S
C739 C738 1.457 . S
C739 C740 1.291 . S
C739 H752 0.931 . S
C740 C739 1.291 . S
C740 C741 1.373 . S
C740 H753 0.929 . S
C741 C740 1.373 . S
C741 C742 1.396 . S
C741 C748 1.403 . S
C742 C732 1.476 . S
C742 N737 1.318 . S
C742 C741 1.396 . S
H743 C738 0.929 . S
O744 Mn720 2.385 . S
O744 C722 1.234 . S
O745 Mn720 2.209 . S
O745 Mn721 2.215 . S
O745 C722 1.283 . S
O746 Mn720 2.094 . S
O746 C724 1.240 . S
O747 Mn721 2.117 . S
O747 C724 1.264 . S
C748 C741 1.403 . S
C748 C749 1.399 . S
C748 H754 0.929 . S
C749 C729 1.449 . S
C749 C748 1.399 . S
C749 H755 0.930 . S
H750 C730 0.931 . S
H751 C731 0.930 . S
H752 C739 0.931 . S
H753 C740 0.929 . S
H754 C748 0.929 . S
H755 C749 0.930 . S
Mn756 O761 2.095 . S
Mn756 O771 2.162 . S
Mn756 O772 2.297 . S
Mn756 O780 2.385 . S
Mn756 O781 2.209 . S
Mn756 O782 2.094 . S
Mn757 O762 2.121 . S
Mn757 N764 2.257 . S
Mn757 N773 2.282 . S
Mn757 O781 2.215 . S
Mn757 O783 2.117 . S
C758 O780 1.234 . S
C758 O781 1.283 . S
C759 O771 1.281 . S
C759 O772 1.236 . S
C760 O782 1.240 . S
C760 O783 1.264 . S
O761 Mn756 2.095 . S
O761 C770 1.250 . S
O762 Mn757 2.121 . S
O762 C770 1.258 . S
C763 N764 1.326 . S
C763 C767 1.460 . S
C763 H769 0.929 . S
N764 Mn757 2.257 . S
N764 C763 1.326 . S
N764 C768 1.362 . S
C765 C766 1.258 . S
C765 C768 1.431 . S
C765 C785 1.449 . S
C766 C765 1.258 . S
C766 C767 1.477 . S
C766 H786 0.931 . S
C767 C763 1.460 . S
C767 C766 1.477 . S
C767 H787 0.930 . S
C768 N764 1.362 . S
C768 C765 1.431 . S
C768 C778 1.476 . S
H769 C763 0.929 . S
C770 O761 1.250 . S
C770 O762 1.258 . S
O771 Mn756 2.162 . S
O771 C759 1.281 . S
O772 Mn756 2.297 . S
O772 C759 1.236 . S
N773 Mn757 2.282 . S
N773 C774 1.328 . S
N773 C778 1.318 . S
C774 N773 1.328 . S
C774 C775 1.457 . S
C774 H779 0.929 . S
C775 C774 1.457 . S
C775 C776 1.291 . S
C775 H788 0.931 . S
C776 C775 1.291 . S
C776 C777 1.373 . S
C776 H789 0.929 . S
C777 C776 1.373 . S
C777 C778 1.396 . S
C777 C784 1.403 . S
C778 C768 1.476 . S
C778 N773 1.318 . S
C778 C777 1.396 . S
H779 C774 0.929 . S
O780 Mn756 2.385 . S
O780 C758 1.234 . S
O781 Mn756 2.209 . S
O781 Mn757 2.215 . S
O781 C758 1.283 . S
O782 Mn756 2.094 . S
O782 C760 1.240 . S
O783 Mn757 2.117 . S
O783 C760 1.264 . S
C784 C777 1.403 . S
C784 C785 1.399 . S
C784 H790 0.929 . S
C785 C765 1.449 . S
C785 C784 1.399 . S
C785 H791 0.930 . S
H786 C766 0.931 . S
H787 C767 0.930 . S
H788 C775 0.931 . S
H789 C776 0.929 . S
H790 C784 0.929 . S
H791 C785 0.930 . S
Mn792 O797 2.095 . S
Mn792 O807 2.162 . S
Mn792 O808 2.297 . S
Mn792 O816 2.385 . S
Mn792 O817 2.209 . S
Mn792 O818 2.094 . S
Mn793 O798 2.121 . S
Mn793 N800 2.257 . S
Mn793 N809 2.282 . S
Mn793 O817 2.215 . S
Mn793 O819 2.117 . S
C794 O816 1.234 . S
C794 O817 1.283 . S
C795 O807 1.281 . S
C795 O808 1.236 . S
C796 O818 1.240 . S
C796 O819 1.264 . S
O797 Mn792 2.095 . S
O797 C806 1.250 . S
O798 Mn793 2.121 . S
O798 C806 1.258 . S
C799 N800 1.326 . S
C799 C803 1.460 . S
C799 H805 0.929 . S
N800 Mn793 2.257 . S
N800 C799 1.326 . S
N800 C804 1.362 . S
C801 C802 1.258 . S
C801 C804 1.431 . S
C801 C821 1.449 . S
C802 C801 1.258 . S
C802 C803 1.477 . S
C802 H822 0.931 . S
C803 C799 1.460 . S
C803 C802 1.477 . S
C803 H823 0.930 . S
C804 N800 1.362 . S
C804 C801 1.431 . S
C804 C814 1.476 . S
H805 C799 0.929 . S
C806 O797 1.250 . S
C806 O798 1.258 . S
O807 Mn792 2.162 . S
O807 C795 1.281 . S
O808 Mn792 2.297 . S
O808 C795 1.236 . S
N809 Mn793 2.282 . S
N809 C810 1.328 . S
N809 C814 1.318 . S
C810 N809 1.328 . S
C810 C811 1.457 . S
C810 H815 0.929 . S
C811 C810 1.457 . S
C811 C812 1.291 . S
C811 H824 0.931 . S
C812 C811 1.291 . S
C812 C813 1.373 . S
C812 H825 0.929 . S
C813 C812 1.373 . S
C813 C814 1.396 . S
C813 C820 1.403 . S
C814 C804 1.476 . S
C814 N809 1.318 . S
C814 C813 1.396 . S
H815 C810 0.929 . S
O816 Mn792 2.385 . S
O816 C794 1.234 . S
O817 Mn792 2.209 . S
O817 Mn793 2.215 . S
O817 C794 1.283 . S
O818 Mn792 2.094 . S
O818 C796 1.240 . S
O819 Mn793 2.117 . S
O819 C796 1.264 . S
C820 C813 1.403 . S
C820 C821 1.399 . S
C820 H826 0.929 . S
C821 C801 1.449 . S
C821 C820 1.399 . S
C821 H827 0.930 . S
H822 C802 0.931 . S
H823 C803 0.930 . S
H824 C811 0.931 . S
H825 C812 0.929 . S
H826 C820 0.929 . S
H827 C821 0.930 . S
Mn828 O833 2.095 . S
Mn828 O843 2.162 . S
Mn828 O844 2.297 . S
Mn828 O852 2.385 1_565 S
Mn828 O853 2.209 1_565 S
Mn828 O854 2.094 . S
Mn829 O834 2.121 . S
Mn829 N836 2.257 . S
Mn829 N845 2.282 . S
Mn829 O853 2.215 . S
Mn829 O855 2.117 . S
C830 O852 1.234 . S
C830 O853 1.283 . S
C831 O843 1.281 . S
C831 O844 1.236 . S
C832 O854 1.219 1_545 S
C832 O855 1.292 . S
O833 Mn828 2.095 . S
O833 C842 1.250 1_565 S
O834 Mn829 2.121 . S
O834 C842 1.258 . S
C835 N836 1.326 . S
C835 C839 1.460 . S
C835 H841 0.929 . S
N836 Mn829 2.257 . S
N836 C835 1.326 . S
N836 C840 1.362 . S
C837 C838 1.258 . S
C837 C840 1.431 . S
C837 C857 1.449 . S
C838 C837 1.258 . S
C838 C839 1.477 . S
C838 H858 0.931 . S
C839 C835 1.460 . S
C839 C838 1.477 . S
C839 H859 0.930 . S
C840 N836 1.362 . S
C840 C837 1.431 . S
C840 C850 1.476 . S
H841 C835 0.929 . S
C842 O833 1.250 1_545 S
C842 O834 1.258 . S
O843 Mn828 2.162 . S
O843 C831 1.281 . S
O844 Mn828 2.297 . S
O844 C831 1.236 . S
N845 Mn829 2.282 . S
N845 C846 1.328 . S
N845 C850 1.318 . S
C846 N845 1.328 . S
C846 C847 1.457 . S
C846 H851 0.929 . S
C847 C846 1.457 . S
C847 C848 1.291 . S
C847 H860 0.931 . S
C848 C847 1.291 . S
C848 C849 1.373 . S
C848 H861 0.929 . S
C849 C848 1.373 . S
C849 C850 1.396 . S
C849 C856 1.403 . S
C850 C840 1.476 . S
C850 N845 1.318 . S
C850 C849 1.396 . S
H851 C846 0.929 . S
O852 Mn828 2.385 1_545 S
O852 C830 1.234 . S
O853 Mn828 2.209 1_545 S
O853 Mn829 2.215 . S
O853 C830 1.283 . S
O854 Mn828 2.094 . S
O854 C832 1.219 1_565 S
O855 Mn829 2.117 . S
O855 C832 1.292 . S
C856 C849 1.403 . S
C856 C857 1.399 . S
C856 H862 0.929 . S
C857 C837 1.449 . S
C857 C856 1.399 . S
C857 H863 0.930 . S
H858 C838 0.931 . S
H859 C839 0.930 . S
H860 C847 0.931 . S
H861 C848 0.929 . S
H862 C856 0.929 . S
H863 C857 0.930 . S
Mn864 O869 2.095 . S
Mn864 O879 2.162 . S
Mn864 O880 2.297 . S
Mn864 O888 2.385 1_455 S
Mn864 O889 2.209 1_455 S
Mn864 O890 2.094 . S
Mn865 O870 2.121 . S
Mn865 N872 2.257 . S
Mn865 N881 2.282 . S
Mn865 O889 2.215 . S
Mn865 O891 2.117 . S
C866 O888 1.234 . S
C866 O889 1.283 . S
C867 O879 1.281 . S
C867 O880 1.236 . S
C868 O890 1.240 . S
C868 O891 1.264 1_455 S
O869 Mn864 2.095 . S
O869 C878 1.250 1_455 S
O870 Mn865 2.121 . S
O870 C878 1.258 . S
C871 N872 1.326 . S
C871 C875 1.460 . S
C871 H877 0.929 . S
N872 Mn865 2.257 . S
N872 C871 1.326 . S
N872 C876 1.362 . S
C873 C874 1.258 . S
C873 C876 1.431 . S
C873 C893 1.449 . S
C874 C873 1.258 . S
C874 C875 1.477 . S
C874 H894 0.931 . S
C875 C871 1.460 . S
C875 C874 1.477 . S
C875 H895 0.930 . S
C876 N872 1.362 . S
C876 C873 1.431 . S
C876 C886 1.476 . S
H877 C871 0.929 . S
C878 O869 1.250 1_655 S
C878 O870 1.258 . S
O879 Mn864 2.162 . S
O879 C867 1.281 . S
O880 Mn864 2.297 . S
O880 C867 1.236 . S
N881 Mn865 2.282 . S
N881 C882 1.328 . S
N881 C886 1.318 . S
C882 N881 1.328 . S
C882 C883 1.457 . S
C882 H887 0.929 . S
C883 C882 1.457 . S
C883 C884 1.291 . S
C883 H896 0.931 . S
C884 C883 1.291 . S
C884 C885 1.373 . S
C884 H897 0.929 . S
C885 C884 1.373 . S
C885 C886 1.396 . S
C885 C892 1.403 . S
C886 C876 1.476 . S
C886 N881 1.318 . S
C886 C885 1.396 . S
H887 C882 0.929 . S
O888 Mn864 2.385 1_655 S
O888 C866 1.234 . S
O889 Mn864 2.209 1_655 S
O889 Mn865 2.215 . S
O889 C866 1.283 . S
O890 Mn864 2.094 . S
O890 C868 1.240 . S
O891 Mn865 2.117 . S
O891 C868 1.264 1_655 S
C892 C885 1.403 . S
C892 C893 1.399 . S
C892 H898 0.929 . S
C893 C873 1.449 . S
C893 C892 1.399 . S
C893 H899 0.930 . S
H894 C874 0.931 . S
H895 C875 0.930 . S
H896 C883 0.931 . S
H897 C884 0.929 . S
H898 C892 0.929 . S
H899 C893 0.930 . S
Mn900 O905 2.095 . S
Mn900 O915 2.162 . S
Mn900 O916 2.297 . S
Mn900 O924 2.385 . S
Mn900 O925 2.209 . S
Mn900 O926 2.094 . S
Mn901 O906 2.121 . S
Mn901 N908 2.257 . S
Mn901 N917 2.282 . S
Mn901 O925 2.215 . S
Mn901 O927 2.117 . S
C902 O924 1.234 . S
C902 O925 1.283 . S
C903 O915 1.281 . S
C903 O916 1.236 . S
C904 O926 1.240 . S
C904 O927 1.264 . S
O905 Mn900 2.095 . S
O905 C914 1.250 . S
O906 Mn901 2.121 . S
O906 C914 1.258 . S
C907 N908 1.326 . S
C907 C911 1.460 . S
C907 H913 0.929 . S
N908 Mn901 2.257 . S
N908 C907 1.326 . S
N908 C912 1.362 . S
C909 C910 1.258 . S
C909 C912 1.431 . S
C909 C929 1.449 . S
C910 C909 1.258 . S
C910 C911 1.477 . S
C910 H930 0.931 . S
C911 C907 1.460 . S
C911 C910 1.477 . S
C911 H931 0.930 . S
C912 N908 1.362 . S
C912 C909 1.431 . S
C912 C922 1.476 . S
H913 C907 0.929 . S
C914 O905 1.250 . S
C914 O906 1.258 . S
O915 Mn900 2.162 . S
O915 C903 1.281 . S
O916 Mn900 2.297 . S
O916 C903 1.236 . S
N917 Mn901 2.282 . S
N917 C918 1.328 . S
N917 C922 1.318 . S
C918 N917 1.328 . S
C918 C919 1.457 . S
C918 H923 0.929 . S
C919 C918 1.457 . S
C919 C920 1.291 . S
C919 H932 0.931 . S
C920 C919 1.291 . S
C920 C921 1.373 . S
C920 H933 0.929 . S
C921 C920 1.373 . S
C921 C922 1.396 . S
C921 C928 1.403 . S
C922 C912 1.476 . S
C922 N917 1.318 . S
C922 C921 1.396 . S
H923 C918 0.929 . S
O924 Mn900 2.385 . S
O924 C902 1.234 . S
O925 Mn900 2.209 . S
O925 Mn901 2.215 . S
O925 C902 1.283 . S
O926 Mn900 2.094 . S
O926 C904 1.240 . S
O927 Mn901 2.117 . S
O927 C904 1.264 . S
C928 C921 1.403 . S
C928 C929 1.399 . S
C928 H934 0.929 . S
C929 C909 1.449 . S
C929 C928 1.399 . S
C929 H935 0.930 . S
H930 C910 0.931 . S
H931 C911 0.930 . S
H932 C919 0.931 . S
H933 C920 0.929 . S
H934 C928 0.929 . S
H935 C929 0.930 . S
Mn936 O941 2.095 1_455 S
Mn936 O951 2.162 . S
Mn936 O952 2.297 1_455 S
Mn936 O960 2.385 . S
Mn936 O961 2.209 1_455 S
Mn936 O962 2.094 . S
Mn937 O942 2.121 . S
Mn937 N944 2.257 . S
Mn937 N953 2.282 1_655 S
Mn937 O961 2.215 . S
Mn937 O963 2.117 1_655 S
C938 O960 1.234 . S
C938 O961 1.283 1_455 S
C939 O951 1.281 . S
C939 O952 1.236 1_455 S
C940 O962 1.240 . S
C940 O963 1.264 . S
O941 Mn936 2.095 1_655 S
O941 C950 1.250 . S
O942 Mn937 2.121 . S
O942 C950 1.258 . S
C943 N944 1.326 . S
C943 C947 1.460 . S
C943 H949 0.929 . S
N944 Mn937 2.257 . S
N944 C943 1.326 . S
N944 C948 1.362 . S
C945 C946 1.258 . S
C945 C948 1.431 . S
C945 C965 1.449 . S
C946 C945 1.258 . S
C946 C947 1.477 . S
C946 H966 0.931 . S
C947 C943 1.460 . S
C947 C946 1.477 . S
C947 H967 0.930 . S
C948 N944 1.362 . S
C948 C945 1.431 . S
C948 C958 1.476 . S
H949 C943 0.929 . S
C950 O941 1.250 . S
C950 O942 1.258 . S
O951 Mn936 2.162 . S
O951 C939 1.281 . S
O952 Mn936 2.297 1_655 S
O952 C939 1.236 1_655 S
N953 Mn937 2.282 1_455 S
N953 C954 1.328 . S
N953 C958 1.318 1_455 S
C954 N953 1.328 . S
C954 C955 1.457 . S
C954 H959 0.929 . S
C955 C954 1.457 . S
C955 C956 1.291 . S
C955 H968 0.931 . S
C956 C955 1.291 . S
C956 C957 1.373 1_455 S
C956 H969 0.929 . S
C957 C956 1.373 1_655 S
C957 C958 1.396 . S
C957 C964 1.403 . S
C958 C948 1.476 . S
C958 N953 1.318 1_655 S
C958 C957 1.396 . S
H959 C954 0.929 . S
O960 Mn936 2.385 . S
O960 C938 1.234 . S
O961 Mn936 2.209 1_655 S
O961 Mn937 2.215 . S
O961 C938 1.283 1_655 S
O962 Mn936 2.094 . S
O962 C940 1.240 . S
O963 Mn937 2.117 1_455 S
O963 C940 1.264 . S
C964 C957 1.403 . S
C964 C965 1.399 . S
C964 H970 0.929 . S
C965 C945 1.449 . S
C965 C964 1.399 . S
C965 H971 0.930 . S
H966 C946 0.931 . S
H967 C947 0.930 . S
H968 C955 0.931 . S
H969 C956 0.929 . S
H970 C964 0.929 . S
H971 C965 0.930 . S
Mn972 O977 2.095 . S
Mn972 O987 2.162 . S
Mn972 O988 2.297 . S
Mn972 O996 2.385 . S
Mn972 O997 2.209 . S
Mn972 O998 2.094 . S
Mn973 O978 2.121 . S
Mn973 N980 2.257 . S
Mn973 N989 2.282 . S
Mn973 O997 2.215 . S
Mn973 O999 2.117 . S
C974 O996 1.234 . S
C974 O997 1.283 . S
C975 O987 1.281 . S
C975 O988 1.236 . S
C976 O998 1.240 . S
C976 O999 1.264 . S
O977 Mn972 2.095 . S
O977 C986 1.250 . S
O978 Mn973 2.121 . S
O978 C986 1.258 . S
C979 N980 1.326 . S
C979 C983 1.460 . S
C979 H985 0.929 . S
N980 Mn973 2.257 . S
N980 C979 1.326 . S
N980 C984 1.362 . S
C981 C982 1.258 . S
C981 C984 1.431 . S
C981 C1001 1.449 . S
C982 C981 1.258 . S
C982 C983 1.477 . S
C982 H1002 0.931 . S
C983 C979 1.460 . S
C983 C982 1.477 . S
C983 H1003 0.930 . S
C984 N980 1.362 . S
C984 C981 1.431 . S
C984 C994 1.476 . S
H985 C979 0.929 . S
C986 O977 1.250 . S
C986 O978 1.258 . S
O987 Mn972 2.162 . S
O987 C975 1.281 . S
O988 Mn972 2.297 . S
O988 C975 1.236 . S
N989 Mn973 2.282 . S
N989 C990 1.328 . S
N989 C994 1.318 . S
C990 N989 1.328 . S
C990 C991 1.457 . S
C990 H995 0.929 . S
C991 C990 1.457 . S
C991 C992 1.291 . S
C991 H1004 0.931 . S
C992 C991 1.291 . S
C992 C993 1.373 . S
C992 H1005 0.929 . S
C993 C992 1.373 . S
C993 C994 1.396 . S
C993 C1000 1.403 . S
C994 C984 1.476 . S
C994 N989 1.318 . S
C994 C993 1.396 . S
H995 C990 0.929 . S
O996 Mn972 2.385 . S
O996 C974 1.234 . S
O997 Mn972 2.209 . S
O997 Mn973 2.215 . S
O997 C974 1.283 . S
O998 Mn972 2.094 . S
O998 C976 1.240 . S
O999 Mn973 2.117 . S
O999 C976 1.264 . S
C1000 C993 1.403 . S
C1000 C1001 1.399 . S
C1000 H1006 0.929 . S
C1001 C981 1.449 . S
C1001 C1000 1.399 . S
C1001 H1007 0.930 . S
H1002 C982 0.931 . S
H1003 C983 0.930 . S
H1004 C991 0.931 . S
H1005 C992 0.929 . S
H1006 C1000 0.929 . S
H1007 C1001 0.930 . S
C1008 C1009 1.391 . S
C1008 C1010 1.394 . S
C1008 H1024 0.931 . S
C1009 C1008 1.391 . S
C1009 C1013 1.376 . S
C1010 C1008 1.394 . S
C1010 C1011 1.369 . S
C1010 C1014 1.531 . S
C1011 C1010 1.369 . S
C1011 C1012 1.410 . S
C1011 C1019 1.503 . S
C1012 C1011 1.410 . S
C1012 C1013 1.392 . S
C1012 C1015 1.511 . S
C1013 C1009 1.376 . S
C1013 C1012 1.392 . S
C1013 H1025 0.929 . S
C1014 C1010 1.531 . S
C1014 H1026 0.960 . S
C1014 H1027 0.962 . S
C1014 H1028 0.960 . S
C1015 C1012 1.511 . S
C1015 H1029 0.961 . S
C1015 H1030 0.961 . S
C1015 H1031 0.961 . S
C1016 C1017 1.370 . S
C1016 C1018 1.363 . S
C1016 H1032 0.931 . S
C1017 C1016 1.370 . S
C1017 C1021 1.408 . S
C1018 C1016 1.363 . S
C1018 C1019 1.370 . S
C1018 C1022 1.524 . S
C1019 C1011 1.503 . S
C1019 C1018 1.370 . S
C1019 C1020 1.403 . S
C1020 C1019 1.403 . S
C1020 C1021 1.404 . S
C1020 C1023 1.539 . S
C1021 C1017 1.408 . S
C1021 C1020 1.404 . S
C1021 H1033 0.930 . S
C1022 C1018 1.524 . S
C1022 H1034 0.956 . S
C1022 H1035 0.961 . S
C1022 H1036 0.961 . S
C1023 C1020 1.539 . S
C1023 H1037 0.958 . S
C1023 H1038 0.961 . S
C1023 H1039 0.960 . S
H1024 C1008 0.931 . S
H1025 C1013 0.929 . S
H1026 C1014 0.960 . S
H1027 C1014 0.962 . S
H1028 C1014 0.960 . S
H1029 C1015 0.961 . S
H1030 C1015 0.961 . S
H1031 C1015 0.961 . S
H1032 C1016 0.931 . S
H1033 C1021 0.930 . S
H1034 C1022 0.956 . S
H1035 C1022 0.961 . S
H1036 C1022 0.961 . S
H1037 C1023 0.958 . S
H1038 C1023 0.961 . S
H1039 C1023 0.960 . S
C1040 C1041 1.391 . S
C1040 C1042 1.394 . S
C1040 H1056 0.931 . S
C1041 C1040 1.391 . S
C1041 C1045 1.376 . S
C1042 C1040 1.394 . S
C1042 C1043 1.369 . S
C1042 C1046 1.531 . S
C1043 C1042 1.369 . S
C1043 C1044 1.410 . S
C1043 C1051 1.503 . S
C1044 C1043 1.410 . S
C1044 C1045 1.392 . S
C1044 C1047 1.511 . S
C1045 C1041 1.376 . S
C1045 C1044 1.392 . S
C1045 H1057 0.929 . S
C1046 C1042 1.531 . S
C1046 H1058 0.960 . S
C1046 H1059 0.962 . S
C1046 H1060 0.960 . S
C1047 C1044 1.511 . S
C1047 H1061 0.961 . S
C1047 H1062 0.961 . S
C1047 H1063 0.961 . S
C1048 C1049 1.370 . S
C1048 C1050 1.363 . S
C1048 H1064 0.931 . S
C1049 C1048 1.370 . S
C1049 C1053 1.408 . S
C1050 C1048 1.363 . S
C1050 C1051 1.370 . S
C1050 C1054 1.524 . S
C1051 C1043 1.503 . S
C1051 C1050 1.370 . S
C1051 C1052 1.403 . S
C1052 C1051 1.403 . S
C1052 C1053 1.404 . S
C1052 C1055 1.539 . S
C1053 C1049 1.408 . S
C1053 C1052 1.404 . S
C1053 H1065 0.930 . S
C1054 C1050 1.524 . S
C1054 H1066 0.956 . S
C1054 H1067 0.961 . S
C1054 H1068 0.961 . S
C1055 C1052 1.539 . S
C1055 H1069 0.958 . S
C1055 H1070 0.961 . S
C1055 H1071 0.960 . S
H1056 C1040 0.931 . S
H1057 C1045 0.929 . S
H1058 C1046 0.960 . S
H1059 C1046 0.962 . S
H1060 C1046 0.960 . S
H1061 C1047 0.961 . S
H1062 C1047 0.961 . S
H1063 C1047 0.961 . S
H1064 C1048 0.931 . S
H1065 C1053 0.930 . S
H1066 C1054 0.956 . S
H1067 C1054 0.961 . S
H1068 C1054 0.961 . S
H1069 C1055 0.958 . S
H1070 C1055 0.961 . S
H1071 C1055 0.960 . S
C1072 C1073 1.391 . S
C1072 C1074 1.394 . S
C1072 H1088 0.931 . S
C1073 C1072 1.391 . S
C1073 C1077 1.376 . S
C1074 C1072 1.394 . S
C1074 C1075 1.369 . S
C1074 C1078 1.531 . S
C1075 C1074 1.369 . S
C1075 C1076 1.410 . S
C1075 C1083 1.503 . S
C1076 C1075 1.410 . S
C1076 C1077 1.392 . S
C1076 C1079 1.511 . S
C1077 C1073 1.376 . S
C1077 C1076 1.392 . S
C1077 H1089 0.929 . S
C1078 C1074 1.531 . S
C1078 H1090 0.960 . S
C1078 H1091 0.962 . S
C1078 H1092 0.960 . S
C1079 C1076 1.511 . S
C1079 H1093 0.961 . S
C1079 H1094 0.961 . S
C1079 H1095 0.961 . S
C1080 C1081 1.370 . S
C1080 C1082 1.363 . S
C1080 H1096 0.931 . S
C1081 C1080 1.370 . S
C1081 C1085 1.408 . S
C1082 C1080 1.363 . S
C1082 C1083 1.370 . S
C1082 C1086 1.524 . S
C1083 C1075 1.503 . S
C1083 C1082 1.370 . S
C1083 C1084 1.403 . S
C1084 C1083 1.403 . S
C1084 C1085 1.404 . S
C1084 C1087 1.539 . S
C1085 C1081 1.408 . S
C1085 C1084 1.404 . S
C1085 H1097 0.930 . S
C1086 C1082 1.524 . S
C1086 H1098 0.956 . S
C1086 H1099 0.961 . S
C1086 H1100 0.961 . S
C1087 C1084 1.539 . S
C1087 H1101 0.958 . S
C1087 H1102 0.961 . S
C1087 H1103 0.960 . S
H1088 C1072 0.931 . S
H1089 C1077 0.929 . S
H1090 C1078 0.960 . S
H1091 C1078 0.962 . S
H1092 C1078 0.960 . S
H1093 C1079 0.961 . S
H1094 C1079 0.961 . S
H1095 C1079 0.961 . S
H1096 C1080 0.931 . S
H1097 C1085 0.930 . S
H1098 C1086 0.956 . S
H1099 C1086 0.961 . S
H1100 C1086 0.961 . S
H1101 C1087 0.958 . S
H1102 C1087 0.961 . S
H1103 C1087 0.960 . S
C1104 C1105 1.391 1_545 S
C1104 C1106 1.394 . S
C1104 H1120 0.931 . S
C1105 C1104 1.391 1_565 S
C1105 C1109 1.376 . S
C1106 C1104 1.394 . S
C1106 C1107 1.369 1_545 S
C1106 C1110 1.531 . S
C1107 C1106 1.369 1_565 S
C1107 C1108 1.410 . S
C1107 C1115 1.503 . S
C1108 C1107 1.410 . S
C1108 C1109 1.392 . S
C1108 C1111 1.511 . S
C1109 C1105 1.376 . S
C1109 C1108 1.392 . S
C1109 H1121 0.929 . S
C1110 C1106 1.531 . S
C1110 H1122 0.960 . S
C1110 H1123 0.962 . S
C1110 H1124 0.960 . S
C1111 C1108 1.511 . S
C1111 H1125 0.961 . S
C1111 H1126 0.961 . S
C1111 H1127 0.961 . S
C1112 C1113 1.370 1_565 S
C1112 C1114 1.363 . S
C1112 H1128 0.931 . S
C1113 C1112 1.370 1_545 S
C1113 C1117 1.408 . S
C1114 C1112 1.363 . S
C1114 C1115 1.370 . S
C1114 C1118 1.524 . S
C1115 C1107 1.503 . S
C1115 C1114 1.370 . S
C1115 C1116 1.403 1_565 S
C1116 C1115 1.403 1_545 S
C1116 C1117 1.404 . S
C1116 C1119 1.539 . S
C1117 C1113 1.408 . S
C1117 C1116 1.404 . S
C1117 H1129 0.930 . S
C1118 C1114 1.524 . S
C1118 H1130 0.956 . S
C1118 H1131 0.961 . S
C1118 H1132 0.961 . S
C1119 C1116 1.539 . S
C1119 H1133 0.958 . S
C1119 H1134 0.961 . S
C1119 H1135 0.960 . S
H1120 C1104 0.931 . S
H1121 C1109 0.929 . S
H1122 C1110 0.960 . S
H1123 C1110 0.962 . S
H1124 C1110 0.960 . S
H1125 C1111 0.961 . S
H1126 C1111 0.961 . S
H1127 C1111 0.961 . S
H1128 C1112 0.931 . S
H1129 C1117 0.930 . S
H1130 C1118 0.956 . S
H1131 C1118 0.961 . S
H1132 C1118 0.961 . S
H1133 C1119 0.958 . S
H1134 C1119 0.961 . S
H1135 C1119 0.960 . S
C1136 C1137 1.391 . S
C1136 C1138 1.394 . S
C1136 H1152 0.931 . S
C1137 C1136 1.391 . S
C1137 C1141 1.376 . S
C1138 C1136 1.394 . S
C1138 C1139 1.369 . S
C1138 C1142 1.531 . S
C1139 C1138 1.369 . S
C1139 C1140 1.410 . S
C1139 C1147 1.503 . S
C1140 C1139 1.410 . S
C1140 C1141 1.392 . S
C1140 C1143 1.511 . S
C1141 C1137 1.376 . S
C1141 C1140 1.392 . S
C1141 H1153 0.929 . S
C1142 C1138 1.531 . S
C1142 H1154 0.960 . S
C1142 H1155 0.962 . S
C1142 H1156 0.960 . S
C1143 C1140 1.511 . S
C1143 H1157 0.961 . S
C1143 H1158 0.961 . S
C1143 H1159 0.961 . S
C1144 C1145 1.370 . S
C1144 C1146 1.363 . S
C1144 H1160 0.931 . S
C1145 C1144 1.370 . S
C1145 C1149 1.408 . S
C1146 C1144 1.363 . S
C1146 C1147 1.370 . S
C1146 C1150 1.524 . S
C1147 C1139 1.503 . S
C1147 C1146 1.370 . S
C1147 C1148 1.403 . S
C1148 C1147 1.403 . S
C1148 C1149 1.404 . S
C1148 C1151 1.539 . S
C1149 C1145 1.408 . S
C1149 C1148 1.404 . S
C1149 H1161 0.930 . S
C1150 C1146 1.524 . S
C1150 H1162 0.956 . S
C1150 H1163 0.961 . S
C1150 H1164 0.961 . S
C1151 C1148 1.539 . S
C1151 H1165 0.958 . S
C1151 H1166 0.961 . S
C1151 H1167 0.960 . S
H1152 C1136 0.931 . S
H1153 C1141 0.929 . S
H1154 C1142 0.960 . S
H1155 C1142 0.962 . S
H1156 C1142 0.960 . S
H1157 C1143 0.961 . S
H1158 C1143 0.961 . S
H1159 C1143 0.961 . S
H1160 C1144 0.931 . S
H1161 C1149 0.930 . S
H1162 C1150 0.956 . S
H1163 C1150 0.961 . S
H1164 C1150 0.961 . S
H1165 C1151 0.958 . S
H1166 C1151 0.961 . S
H1167 C1151 0.960 . S
C1168 C1169 1.391 . S
C1168 C1170 1.394 . S
C1168 H1184 0.931 . S
C1169 C1168 1.391 . S
C1169 C1173 1.376 . S
C1170 C1168 1.394 . S
C1170 C1171 1.369 . S
C1170 C1174 1.531 . S
C1171 C1170 1.369 . S
C1171 C1172 1.410 . S
C1171 C1179 1.503 . S
C1172 C1171 1.410 . S
C1172 C1173 1.392 . S
C1172 C1175 1.511 . S
C1173 C1169 1.376 . S
C1173 C1172 1.392 . S
C1173 H1185 0.929 . S
C1174 C1170 1.531 . S
C1174 H1186 0.960 . S
C1174 H1187 0.962 . S
C1174 H1188 0.960 . S
C1175 C1172 1.511 . S
C1175 H1189 0.961 . S
C1175 H1190 0.961 . S
C1175 H1191 0.961 . S
C1176 C1177 1.370 . S
C1176 C1178 1.363 . S
C1176 H1192 0.931 . S
C1177 C1176 1.370 . S
C1177 C1181 1.408 . S
C1178 C1176 1.363 . S
C1178 C1179 1.370 . S
C1178 C1182 1.524 . S
C1179 C1171 1.503 . S
C1179 C1178 1.370 . S
C1179 C1180 1.403 . S
C1180 C1179 1.403 . S
C1180 C1181 1.404 . S
C1180 C1183 1.539 . S
C1181 C1177 1.408 . S
C1181 C1180 1.404 . S
C1181 H1193 0.930 . S
C1182 C1178 1.524 . S
C1182 H1194 0.956 . S
C1182 H1195 0.961 . S
C1182 H1196 0.961 . S
C1183 C1180 1.539 . S
C1183 H1197 0.958 . S
C1183 H1198 0.961 . S
C1183 H1199 0.960 . S
H1184 C1168 0.931 . S
H1185 C1173 0.929 . S
H1186 C1174 0.960 . S
H1187 C1174 0.962 . S
H1188 C1174 0.960 . S
H1189 C1175 0.961 . S
H1190 C1175 0.961 . S
H1191 C1175 0.961 . S
H1192 C1176 0.931 . S
H1193 C1181 0.930 . S
H1194 C1182 0.956 . S
H1195 C1182 0.961 . S
H1196 C1182 0.961 . S
H1197 C1183 0.958 . S
H1198 C1183 0.961 . S
H1199 C1183 0.960 . S
C1200 C1201 1.391 . S
C1200 C1202 1.394 . S
C1200 H1216 0.931 . S
C1201 C1200 1.391 . S
C1201 C1205 1.376 . S
C1202 C1200 1.394 . S
C1202 C1203 1.369 . S
C1202 C1206 1.531 . S
C1203 C1202 1.369 . S
C1203 C1204 1.410 . S
C1203 C1211 1.503 . S
C1204 C1203 1.410 . S
C1204 C1205 1.392 . S
C1204 C1207 1.511 . S
C1205 C1201 1.376 . S
C1205 C1204 1.392 . S
C1205 H1217 0.929 . S
C1206 C1202 1.531 . S
C1206 H1218 0.960 . S
C1206 H1219 0.962 . S
C1206 H1220 0.960 . S
C1207 C1204 1.511 . S
C1207 H1221 0.961 . S
C1207 H1222 0.961 . S
C1207 H1223 0.961 . S
C1208 C1209 1.370 . S
C1208 C1210 1.363 . S
C1208 H1224 0.931 . S
C1209 C1208 1.370 . S
C1209 C1213 1.408 . S
C1210 C1208 1.363 . S
C1210 C1211 1.370 . S
C1210 C1214 1.524 . S
C1211 C1203 1.503 . S
C1211 C1210 1.370 . S
C1211 C1212 1.403 . S
C1212 C1211 1.403 . S
C1212 C1213 1.404 . S
C1212 C1215 1.539 . S
C1213 C1209 1.408 . S
C1213 C1212 1.404 . S
C1213 H1225 0.930 . S
C1214 C1210 1.524 . S
C1214 H1226 0.956 . S
C1214 H1227 0.961 . S
C1214 H1228 0.961 . S
C1215 C1212 1.539 . S
C1215 H1229 0.958 . S
C1215 H1230 0.961 . S
C1215 H1231 0.960 . S
H1216 C1200 0.931 . S
H1217 C1205 0.929 . S
H1218 C1206 0.960 . S
H1219 C1206 0.962 . S
H1220 C1206 0.960 . S
H1221 C1207 0.961 . S
H1222 C1207 0.961 . S
H1223 C1207 0.961 . S
H1224 C1208 0.931 . S
H1225 C1213 0.930 . S
H1226 C1214 0.956 . S
H1227 C1214 0.961 . S
H1228 C1214 0.961 . S
H1229 C1215 0.958 . S
H1230 C1215 0.961 . S
H1231 C1215 0.960 . S
C1232 C1233 1.391 . S
C1232 C1234 1.394 . S
C1232 H1248 0.931 . S
C1233 C1232 1.391 . S
C1233 C1237 1.376 . S
C1234 C1232 1.394 . S
C1234 C1235 1.369 . S
C1234 C1238 1.531 1_565 S
C1235 C1234 1.369 . S
C1235 C1236 1.410 . S
C1235 C1243 1.503 . S
C1236 C1235 1.410 . S
C1236 C1237 1.392 . S
C1236 C1239 1.511 . S
C1237 C1233 1.376 . S
C1237 C1236 1.392 . S
C1237 H1249 0.929 . S
C1238 C1234 1.531 1_545 S
C1238 H1250 0.960 . S
C1238 H1251 0.962 1_545 S
C1238 H1252 0.960 . S
C1239 C1236 1.511 . S
C1239 H1253 0.961 . S
C1239 H1254 0.961 . S
C1239 H1255 0.961 . S
C1240 C1241 1.370 . S
C1240 C1242 1.363 . S
C1240 H1256 0.931 . S
C1241 C1240 1.370 . S
C1241 C1245 1.408 1_565 S
C1242 C1240 1.363 . S
C1242 C1243 1.370 . S
C1242 C1246 1.524 . S
C1243 C1235 1.503 . S
C1243 C1242 1.370 . S
C1243 C1244 1.403 1_565 S
C1244 C1243 1.403 1_545 S
C1244 C1245 1.404 . S
C1244 C1247 1.539 . S
C1245 C1241 1.408 1_545 S
C1245 C1244 1.404 . S
C1245 H1257 0.930 . S
C1246 C1242 1.524 . S
C1246 H1258 0.956 . S
C1246 H1259 0.961 . S
C1246 H1260 0.961 . S
C1247 C1244 1.539 . S
C1247 H1261 0.958 . S
C1247 H1262 0.961 . S
C1247 H1263 0.960 . S
H1248 C1232 0.931 . S
H1249 C1237 0.929 . S
H1250 C1238 0.960 . S
H1251 C1238 0.962 1_565 S
H1252 C1238 0.960 . S
H1253 C1239 0.961 . S
H1254 C1239 0.961 . S
H1255 C1239 0.961 . S
H1256 C1240 0.931 . S
H1257 C1245 0.930 . S
H1258 C1246 0.956 . S
H1259 C1246 0.961 . S
H1260 C1246 0.961 . S
H1261 C1247 0.958 . S
H1262 C1247 0.961 . S
H1263 C1247 0.960 . S
C1264 C1265 1.391 . S
C1264 C1266 1.394 . S
C1264 H1280 0.931 . S
C1265 C1264 1.391 . S
C1265 C1269 1.376 . S
C1266 C1264 1.394 . S
C1266 C1267 1.369 . S
C1266 C1270 1.531 . S
C1267 C1266 1.369 . S
C1267 C1268 1.410 . S
C1267 C1275 1.503 . S
C1268 C1267 1.410 . S
C1268 C1269 1.392 . S
C1268 C1271 1.511 . S
C1269 C1265 1.376 . S
C1269 C1268 1.392 . S
C1269 H1281 0.929 . S
C1270 C1266 1.531 . S
C1270 H1282 0.960 . S
C1270 H1283 0.962 . S
C1270 H1284 0.960 . S
C1271 C1268 1.511 . S
C1271 H1285 0.961 . S
C1271 H1286 0.961 . S
C1271 H1287 0.961 . S
C1272 C1273 1.370 . S
C1272 C1274 1.363 . S
C1272 H1288 0.931 . S
C1273 C1272 1.370 . S
C1273 C1277 1.408 . S
C1274 C1272 1.363 . S
C1274 C1275 1.370 . S
C1274 C1278 1.524 . S
C1275 C1267 1.503 . S
C1275 C1274 1.370 . S
C1275 C1276 1.403 . S
C1276 C1275 1.403 . S
C1276 C1277 1.404 . S
C1276 C1279 1.539 . S
C1277 C1273 1.408 . S
C1277 C1276 1.404 . S
C1277 H1289 0.930 . S
C1278 C1274 1.524 . S
C1278 H1290 0.956 . S
C1278 H1291 0.961 . S
C1278 H1292 0.961 . S
C1279 C1276 1.539 . S
C1279 H1293 0.958 . S
C1279 H1294 0.961 . S
C1279 H1295 0.960 . S
H1280 C1264 0.931 . S
H1281 C1269 0.929 . S
H1282 C1270 0.960 . S
H1283 C1270 0.962 . S
H1284 C1270 0.960 . S
H1285 C1271 0.961 . S
H1286 C1271 0.961 . S
H1287 C1271 0.961 . S
H1288 C1272 0.931 . S
H1289 C1277 0.930 . S
H1290 C1278 0.956 . S
H1291 C1278 0.961 . S
H1292 C1278 0.961 . S
H1293 C1279 0.958 . S
H1294 C1279 0.961 . S
H1295 C1279 0.960 . S
C1296 C1297 1.391 . S
C1296 C1298 1.394 . S
C1296 H1312 0.931 . S
C1297 C1296 1.391 . S
C1297 C1301 1.376 . S
C1298 C1296 1.394 . S
C1298 C1299 1.369 . S
C1298 C1302 1.531 . S
C1299 C1298 1.369 . S
C1299 C1300 1.410 . S
C1299 C1307 1.503 . S
C1300 C1299 1.410 . S
C1300 C1301 1.392 . S
C1300 C1303 1.511 . S
C1301 C1297 1.376 . S
C1301 C1300 1.392 . S
C1301 H1313 0.929 . S
C1302 C1298 1.531 . S
C1302 H1314 0.960 . S
C1302 H1315 0.962 . S
C1302 H1316 0.960 . S
C1303 C1300 1.511 . S
C1303 H1317 0.961 . S
C1303 H1318 0.961 . S
C1303 H1319 0.961 . S
C1304 C1305 1.370 . S
C1304 C1306 1.363 . S
C1304 H1320 0.931 . S
C1305 C1304 1.370 . S
C1305 C1309 1.408 . S
C1306 C1304 1.363 . S
C1306 C1307 1.370 . S
C1306 C1310 1.524 . S
C1307 C1299 1.503 . S
C1307 C1306 1.370 . S
C1307 C1308 1.403 . S
C1308 C1307 1.403 . S
C1308 C1309 1.404 . S
C1308 C1311 1.539 . S
C1309 C1305 1.408 . S
C1309 C1308 1.404 . S
C1309 H1321 0.930 . S
C1310 C1306 1.524 . S
C1310 H1322 0.956 . S
C1310 H1323 0.961 . S
C1310 H1324 0.961 . S
C1311 C1308 1.539 . S
C1311 H1325 0.958 . S
C1311 H1326 0.961 . S
C1311 H1327 0.960 . S
H1312 C1296 0.931 . S
H1313 C1301 0.929 . S
H1314 C1302 0.960 . S
H1315 C1302 0.962 . S
H1316 C1302 0.960 . S
H1317 C1303 0.961 . S
H1318 C1303 0.961 . S
H1319 C1303 0.961 . S
H1320 C1304 0.931 . S
H1321 C1309 0.930 . S
H1322 C1310 0.956 . S
H1323 C1310 0.961 . S
H1324 C1310 0.961 . S
H1325 C1311 0.958 . S
H1326 C1311 0.961 . S
H1327 C1311 0.960 . S
C1328 C1329 1.391 . S
C1328 C1330 1.394 . S
C1328 H1344 0.931 . S
C1329 C1328 1.391 . S
C1329 C1333 1.376 . S
C1330 C1328 1.394 . S
C1330 C1331 1.369 . S
C1330 C1334 1.531 . S
C1331 C1330 1.369 . S
C1331 C1332 1.410 . S
C1331 C1339 1.503 . S
C1332 C1331 1.410 . S
C1332 C1333 1.392 . S
C1332 C1335 1.511 . S
C1333 C1329 1.376 . S
C1333 C1332 1.392 . S
C1333 H1345 0.929 . S
C1334 C1330 1.531 . S
C1334 H1346 0.960 . S
C1334 H1347 0.962 . S
C1334 H1348 0.960 . S
C1335 C1332 1.511 . S
C1335 H1349 0.961 . S
C1335 H1350 0.961 . S
C1335 H1351 0.961 . S
C1336 C1337 1.370 . S
C1336 C1338 1.363 . S
C1336 H1352 0.931 . S
C1337 C1336 1.370 . S
C1337 C1341 1.408 . S
C1338 C1336 1.363 . S
C1338 C1339 1.370 . S
C1338 C1342 1.524 . S
C1339 C1331 1.503 . S
C1339 C1338 1.370 . S
C1339 C1340 1.403 . S
C1340 C1339 1.403 . S
C1340 C1341 1.404 . S
C1340 C1343 1.539 . S
C1341 C1337 1.408 . S
C1341 C1340 1.404 . S
C1341 H1353 0.930 . S
C1342 C1338 1.524 . S
C1342 H1354 0.956 . S
C1342 H1355 0.961 . S
C1342 H1356 0.961 . S
C1343 C1340 1.539 . S
C1343 H1357 0.958 . S
C1343 H1358 0.961 . S
C1343 H1359 0.960 . S
H1344 C1328 0.931 . S
H1345 C1333 0.929 . S
H1346 C1334 0.960 . S
H1347 C1334 0.962 . S
H1348 C1334 0.960 . S
H1349 C1335 0.961 . S
H1350 C1335 0.961 . S
H1351 C1335 0.961 . S
H1352 C1336 0.931 . S
H1353 C1341 0.930 . S
H1354 C1342 0.956 . S
H1355 C1342 0.961 . S
H1356 C1342 0.961 . S
H1357 C1343 0.958 . S
H1358 C1343 0.961 . S
H1359 C1343 0.960 . S
C1360 C1361 1.391 . S
C1360 C1362 1.394 . S
C1360 H1376 0.931 . S
C1361 C1360 1.391 . S
C1361 C1365 1.376 . S
C1362 C1360 1.394 . S
C1362 C1363 1.369 . S
C1362 C1366 1.531 . S
C1363 C1362 1.369 . S
C1363 C1364 1.410 . S
C1363 C1371 1.503 . S
C1364 C1363 1.410 . S
C1364 C1365 1.392 . S
C1364 C1367 1.511 . S
C1365 C1361 1.376 . S
C1365 C1364 1.392 . S
C1365 H1377 0.929 . S
C1366 C1362 1.531 . S
C1366 H1378 0.960 . S
C1366 H1379 0.962 . S
C1366 H1380 0.960 . S
C1367 C1364 1.511 . S
C1367 H1381 0.961 . S
C1367 H1382 0.961 . S
C1367 H1383 0.961 . S
C1368 C1369 1.370 . S
C1368 C1370 1.363 . S
C1368 H1384 0.931 . S
C1369 C1368 1.370 . S
C1369 C1373 1.408 . S
C1370 C1368 1.363 . S
C1370 C1371 1.370 . S
C1370 C1374 1.524 . S
C1371 C1363 1.503 . S
C1371 C1370 1.370 . S
C1371 C1372 1.403 . S
C1372 C1371 1.403 . S
C1372 C1373 1.404 . S
C1372 C1375 1.539 . S
C1373 C1369 1.408 . S
C1373 C1372 1.404 . S
C1373 H1385 0.930 . S
C1374 C1370 1.524 . S
C1374 H1386 0.956 . S
C1374 H1387 0.961 . S
C1374 H1388 0.961 . S
C1375 C1372 1.539 . S
C1375 H1389 0.958 . S
C1375 H1390 0.961 . S
C1375 H1391 0.960 . S
H1376 C1360 0.931 . S
H1377 C1365 0.929 . S
H1378 C1366 0.960 . S
H1379 C1366 0.962 . S
H1380 C1366 0.960 . S
H1381 C1367 0.961 . S
H1382 C1367 0.961 . S
H1383 C1367 0.961 . S
H1384 C1368 0.931 . S
H1385 C1373 0.930 . S
H1386 C1374 0.956 . S
H1387 C1374 0.961 . S
H1388 C1374 0.961 . S
H1389 C1375 0.958 . S
H1390 C1375 0.961 . S
H1391 C1375 0.960 . S
C1392 C1393 1.391 . S
C1392 C1394 1.394 . S
C1392 H1408 0.931 . S
C1393 C1392 1.391 . S
C1393 C1397 1.376 . S
C1394 C1392 1.394 . S
C1394 C1395 1.369 . S
C1394 C1398 1.531 . S
C1395 C1394 1.369 . S
C1395 C1396 1.410 . S
C1395 C1403 1.503 . S
C1396 C1395 1.410 . S
C1396 C1397 1.392 . S
C1396 C1399 1.511 . S
C1397 C1393 1.376 . S
C1397 C1396 1.392 . S
C1397 H1409 0.929 . S
C1398 C1394 1.531 . S
C1398 H1410 0.960 . S
C1398 H1411 0.962 . S
C1398 H1412 0.960 . S
C1399 C1396 1.511 . S
C1399 H1413 0.961 . S
C1399 H1414 0.961 . S
C1399 H1415 0.961 . S
C1400 C1401 1.370 . S
C1400 C1402 1.363 . S
C1400 H1416 0.931 . S
C1401 C1400 1.370 . S
C1401 C1405 1.408 . S
C1402 C1400 1.363 . S
C1402 C1403 1.370 . S
C1402 C1406 1.524 . S
C1403 C1395 1.503 . S
C1403 C1402 1.370 . S
C1403 C1404 1.403 . S
C1404 C1403 1.403 . S
C1404 C1405 1.404 . S
C1404 C1407 1.539 . S
C1405 C1401 1.408 . S
C1405 C1404 1.404 . S
C1405 H1417 0.930 . S
C1406 C1402 1.524 . S
C1406 H1418 0.956 . S
C1406 H1419 0.961 . S
C1406 H1420 0.961 . S
C1407 C1404 1.539 . S
C1407 H1421 0.958 . S
C1407 H1422 0.961 . S
C1407 H1423 0.960 . S
H1408 C1392 0.931 . S
H1409 C1397 0.929 . S
H1410 C1398 0.960 . S
H1411 C1398 0.962 . S
H1412 C1398 0.960 . S
H1413 C1399 0.961 . S
H1414 C1399 0.961 . S
H1415 C1399 0.961 . S
H1416 C1400 0.931 . S
H1417 C1405 0.930 . S
H1418 C1406 0.956 . S
H1419 C1406 0.961 . S
H1420 C1406 0.961 . S
H1421 C1407 0.958 . S
H1422 C1407 0.961 . S
H1423 C1407 0.960 . S
C1424 C1425 1.391 . S
C1424 C1426 1.394 . S
C1424 H1440 0.891 1_455 S
C1425 C1424 1.391 . S
C1425 C1429 1.376 . S
C1426 C1424 1.394 . S
C1426 C1427 1.369 . S
C1426 C1430 1.531 1_455 S
C1427 C1426 1.369 . S
C1427 C1428 1.410 . S
C1427 C1435 1.503 . S
C1428 C1427 1.410 . S
C1428 C1429 1.392 . S
C1428 C1431 1.511 . S
C1429 C1425 1.376 . S
C1429 C1428 1.392 . S
C1429 H1441 0.929 . S
C1430 C1426 1.531 1_655 S
C1430 H1442 0.960 . S
C1430 H1443 0.962 . S
C1430 H1444 0.960 . S
C1431 C1428 1.511 . S
C1431 H1445 0.961 . S
C1431 H1446 0.961 . S
C1431 H1447 0.961 . S
C1432 C1433 1.370 . S
C1432 C1434 1.363 . S
C1432 H1448 0.931 1_455 S
C1433 C1432 1.370 . S
C1433 C1437 1.408 . S
C1434 C1432 1.363 . S
C1434 C1435 1.370 . S
C1434 C1438 1.542 . S
C1435 C1427 1.503 . S
C1435 C1434 1.370 . S
C1435 C1436 1.403 . S
C1436 C1435 1.403 . S
C1436 C1437 1.404 . S
C1436 C1439 1.539 . S
C1437 C1433 1.408 . S
C1437 C1436 1.404 . S
C1437 H1449 0.930 . S
C1438 C1434 1.542 . S
C1438 H1450 0.921 1_455 S
C1438 H1451 0.996 . S
C1438 H1452 0.944 1_455 S
C1439 C1436 1.539 . S
C1439 H1453 0.958 . S
C1439 H1454 0.961 . S
C1439 H1455 0.960 . S
H1440 C1424 0.891 1_655 S
H1441 C1429 0.929 . S
H1442 C1430 0.960 . S
H1443 C1430 0.962 . S
H1444 C1430 0.960 . S
H1445 C1431 0.961 . S
H1446 C1431 0.961 . S
H1447 C1431 0.961 . S
H1448 C1432 0.931 1_655 S
H1449 C1437 0.930 . S
H1450 C1438 0.921 1_655 S
H1451 C1438 0.996 . S
H1452 C1438 0.944 1_655 S
H1453 C1439 0.958 . S
H1454 C1439 0.961 . S
H1455 C1439 0.960 . S
C1456 C1457 1.391 . S
C1456 C1458 1.394 . S
C1456 H1472 0.931 . S
C1457 C1456 1.391 . S
C1457 C1461 1.376 . S
C1458 C1456 1.394 . S
C1458 C1459 1.369 . S
C1458 C1462 1.531 . S
C1459 C1458 1.369 . S
C1459 C1460 1.410 . S
C1459 C1467 1.503 . S
C1460 C1459 1.410 . S
C1460 C1461 1.392 . S
C1460 C1463 1.511 . S
C1461 C1457 1.376 . S
C1461 C1460 1.392 . S
C1461 H1473 0.929 . S
C1462 C1458 1.531 . S
C1462 H1474 0.960 . S
C1462 H1475 0.962 . S
C1462 H1476 0.960 . S
C1463 C1460 1.511 . S
C1463 H1477 0.961 . S
C1463 H1478 0.961 . S
C1463 H1479 0.961 . S
C1464 C1465 1.370 . S
C1464 C1466 1.363 . S
C1464 H1480 0.931 . S
C1465 C1464 1.370 . S
C1465 C1469 1.408 . S
C1466 C1464 1.363 . S
C1466 C1467 1.370 . S
C1466 C1470 1.524 . S
C1467 C1459 1.503 . S
C1467 C1466 1.370 . S
C1467 C1468 1.403 . S
C1468 C1467 1.403 . S
C1468 C1469 1.404 . S
C1468 C1471 1.539 . S
C1469 C1465 1.408 . S
C1469 C1468 1.404 . S
C1469 H1481 0.930 . S
C1470 C1466 1.524 . S
C1470 H1482 0.956 . S
C1470 H1483 0.961 . S
C1470 H1484 0.961 . S
C1471 C1468 1.539 . S
C1471 H1485 0.958 . S
C1471 H1486 0.961 . S
C1471 H1487 0.960 . S
H1472 C1456 0.931 . S
H1473 C1461 0.929 . S
H1474 C1462 0.960 . S
H1475 C1462 0.962 . S
H1476 C1462 0.960 . S
H1477 C1463 0.961 . S
H1478 C1463 0.961 . S
H1479 C1463 0.961 . S
H1480 C1464 0.931 . S
H1481 C1469 0.930 . S
H1482 C1470 0.956 . S
H1483 C1470 0.961 . S
H1484 C1470 0.961 . S
H1485 C1471 0.958 . S
H1486 C1471 0.961 . S
H1487 C1471 0.960 . S
C1488 C1489 1.391 . S
C1488 C1490 1.394 . S
C1488 H1504 0.931 . S
C1489 C1488 1.391 . S
C1489 C1493 1.376 1_655 S
C1490 C1488 1.394 . S
C1490 C1491 1.369 . S
C1490 C1494 1.531 . S
C1491 C1490 1.369 . S
C1491 C1492 1.410 1_655 S
C1491 C1499 1.506 . S
C1492 C1491 1.410 1_455 S
C1492 C1493 1.392 . S
C1492 C1495 1.511 . S
C1493 C1489 1.376 1_455 S
C1493 C1492 1.392 . S
C1493 H1505 0.929 . S
C1494 C1490 1.531 . S
C1494 H1506 0.960 . S
C1494 H1507 0.962 . S
C1494 H1508 0.960 . S
C1495 C1492 1.511 . S
C1495 H1509 0.961 . S
C1495 H1510 0.961 . S
C1495 H1511 0.961 . S
C1496 C1497 1.370 1_655 S
C1496 C1498 1.363 . S
C1496 H1512 0.931 . S
C1497 C1496 1.370 1_455 S
C1497 C1501 1.408 . S
C1498 C1496 1.363 . S
C1498 C1499 1.394 . S
C1498 C1502 1.524 . S
C1499 C1491 1.506 . S
C1499 C1498 1.394 . S
C1499 C1500 1.378 1_655 S
C1500 C1499 1.378 1_455 S
C1500 C1501 1.404 . S
C1500 C1503 1.539 . S
C1501 C1497 1.408 . S
C1501 C1500 1.404 . S
C1501 H1513 0.930 . S
C1502 C1498 1.524 . S
C1502 H1514 0.956 . S
C1502 H1515 0.961 . S
C1502 H1516 0.961 . S
C1503 C1500 1.539 . S
C1503 H1517 0.958 . S
C1503 H1518 0.961 . S
C1503 H1519 0.960 . S
H1504 C1488 0.931 . S
H1505 C1493 0.929 . S
H1506 C1494 0.960 . S
H1507 C1494 0.962 . S
H1508 C1494 0.960 . S
H1509 C1495 0.961 . S
H1510 C1495 0.961 . S
H1511 C1495 0.961 . S
H1512 C1496 0.931 . S
H1513 C1501 0.930 . S
H1514 C1502 0.956 . S
H1515 C1502 0.961 . S
H1516 C1502 0.961 . S
H1517 C1503 0.958 . S
H1518 C1503 0.961 . S
H1519 C1503 0.960 . S
C1520 C1521 1.391 . S
C1520 C1522 1.394 . S
C1520 H1536 0.931 . S
C1521 C1520 1.391 . S
C1521 C1525 1.376 . S
C1522 C1520 1.394 . S
C1522 C1523 1.369 . S
C1522 C1526 1.531 . S
C1523 C1522 1.369 . S
C1523 C1524 1.410 . S
C1523 C1531 1.503 . S
C1524 C1523 1.410 . S
C1524 C1525 1.392 . S
C1524 C1527 1.511 . S
C1525 C1521 1.376 . S
C1525 C1524 1.392 . S
C1525 H1537 0.929 . S
C1526 C1522 1.531 . S
C1526 H1538 0.960 . S
C1526 H1539 0.962 . S
C1526 H1540 0.960 . S
C1527 C1524 1.511 . S
C1527 H1541 0.961 . S
C1527 H1542 0.961 . S
C1527 H1543 0.961 . S
C1528 C1529 1.370 . S
C1528 C1530 1.363 . S
C1528 H1544 0.931 . S
C1529 C1528 1.370 . S
C1529 C1533 1.408 . S
C1530 C1528 1.363 . S
C1530 C1531 1.370 . S
C1530 C1534 1.524 . S
C1531 C1523 1.503 . S
C1531 C1530 1.370 . S
C1531 C1532 1.403 . S
C1532 C1531 1.403 . S
C1532 C1533 1.404 . S
C1532 C1535 1.539 . S
C1533 C1529 1.408 . S
C1533 C1532 1.404 . S
C1533 H1545 0.930 . S
C1534 C1530 1.524 . S
C1534 H1546 0.956 . S
C1534 H1547 0.961 . S
C1534 H1548 0.961 . S
C1535 C1532 1.539 . S
C1535 H1549 0.958 . S
C1535 H1550 0.961 . S
C1535 H1551 0.960 . S
H1536 C1520 0.931 . S
H1537 C1525 0.929 . S
H1538 C1526 0.960 . S
H1539 C1526 0.962 . S
H1540 C1526 0.960 . S
H1541 C1527 0.961 . S
H1542 C1527 0.961 . S
H1543 C1527 0.961 . S
H1544 C1528 0.931 . S
H1545 C1533 0.930 . S
H1546 C1534 0.956 . S
H1547 C1534 0.961 . S
H1548 C1534 0.961 . S
H1549 C1535 0.958 . S
H1550 C1535 0.961 . S
H1551 C1535 0.960 . S
C1552 C1553 1.391 . S
C1552 C1554 1.394 . S
C1552 H1568 0.931 . S
C1553 C1552 1.391 . S
C1553 C1557 1.376 . S
C1554 C1552 1.394 . S
C1554 C1555 1.369 . S
C1554 C1558 1.531 . S
C1555 C1554 1.369 . S
C1555 C1556 1.410 . S
C1555 C1563 1.503 . S
C1556 C1555 1.410 . S
C1556 C1557 1.392 . S
C1556 C1559 1.511 . S
C1557 C1553 1.376 . S
C1557 C1556 1.392 . S
C1557 H1569 0.929 . S
C1558 C1554 1.531 . S
C1558 H1570 0.960 . S
C1558 H1571 0.962 . S
C1558 H1572 0.960 . S
C1559 C1556 1.511 . S
C1559 H1573 0.961 . S
C1559 H1574 0.961 . S
C1559 H1575 0.961 . S
C1560 C1561 1.370 . S
C1560 C1562 1.363 . S
C1560 H1576 0.931 . S
C1561 C1560 1.370 . S
C1561 C1565 1.408 . S
C1562 C1560 1.363 . S
C1562 C1563 1.370 . S
C1562 C1566 1.524 . S
C1563 C1555 1.503 . S
C1563 C1562 1.370 . S
C1563 C1564 1.403 . S
C1564 C1563 1.403 . S
C1564 C1565 1.404 . S
C1564 C1567 1.539 . S
C1565 C1561 1.408 . S
C1565 C1564 1.404 . S
C1565 H1577 0.930 . S
C1566 C1562 1.524 . S
C1566 H1578 0.956 . S
C1566 H1579 0.961 . S
C1566 H1580 0.961 . S
C1567 C1564 1.539 . S
C1567 H1581 0.958 . S
C1567 H1582 0.961 . S
C1567 H1583 0.960 . S
H1568 C1552 0.931 . S
H1569 C1557 0.929 . S
H1570 C1558 0.960 . S
H1571 C1558 0.962 . S
H1572 C1558 0.960 . S
H1573 C1559 0.961 . S
H1574 C1559 0.961 . S
H1575 C1559 0.961 . S
H1576 C1560 0.931 . S
H1577 C1565 0.930 . S
H1578 C1566 0.956 . S
H1579 C1566 0.961 . S
H1580 C1566 0.961 . S
H1581 C1567 0.958 . S
H1582 C1567 0.961 . S
H1583 C1567 0.960 . S
C1584 C1585 1.391 . S
C1584 C1586 1.394 . S
C1584 H1600 0.931 . S
C1585 C1584 1.391 . S
C1585 C1589 1.376 1_556 S
C1586 C1584 1.394 . S
C1586 C1587 1.369 . S
C1586 C1590 1.531 . S
C1587 C1586 1.369 . S
C1587 C1588 1.410 1_556 S
C1587 C1595 1.503 . S
C1588 C1587 1.410 1_554 S
C1588 C1589 1.392 . S
C1588 C1591 1.511 . S
C1589 C1585 1.376 1_554 S
C1589 C1588 1.392 . S
C1589 H1601 0.929 . S
C1590 C1586 1.531 . S
C1590 H1602 0.960 . S
C1590 H1603 0.962 . S
C1590 H1604 0.960 . S
C1591 C1588 1.511 . S
C1591 H1605 0.961 . S
C1591 H1606 0.961 . S
C1591 H1607 0.961 . S
C1592 C1593 1.370 1_556 S
C1592 C1594 1.363 . S
C1592 H1608 0.931 . S
C1593 C1592 1.370 1_554 S
C1593 C1597 1.408 . S
C1594 C1592 1.363 . S
C1594 C1595 1.370 . S
C1594 C1598 1.524 . S
C1595 C1587 1.503 . S
C1595 C1594 1.370 . S
C1595 C1596 1.403 1_556 S
C1596 C1595 1.403 1_554 S
C1596 C1597 1.404 . S
C1596 C1599 1.539 . S
C1597 C1593 1.408 . S
C1597 C1596 1.404 . S
C1597 H1609 0.930 . S
C1598 C1594 1.524 . S
C1598 H1610 0.956 . S
C1598 H1611 0.961 . S
C1598 H1612 0.961 . S
C1599 C1596 1.539 . S
C1599 H1613 0.958 . S
C1599 H1614 0.961 . S
C1599 H1615 0.960 . S
H1600 C1584 0.931 . S
H1601 C1589 0.929 . S
H1602 C1590 0.960 . S
H1603 C1590 0.962 . S
H1604 C1590 0.960 . S
H1605 C1591 0.961 . S
H1606 C1591 0.961 . S
H1607 C1591 0.961 . S
H1608 C1592 0.931 . S
H1609 C1597 0.930 . S
H1610 C1598 0.956 . S
H1611 C1598 0.961 . S
H1612 C1598 0.961 . S
H1613 C1599 0.958 . S
H1614 C1599 0.961 . S
H1615 C1599 0.960 . S
C1616 C1617 1.391 . S
C1616 C1618 1.394 . S
C1616 H1632 0.931 . S
C1617 C1616 1.391 . S
C1617 C1621 1.376 . S
C1618 C1616 1.394 . S
C1618 C1619 1.369 . S
C1618 C1622 1.531 . S
C1619 C1618 1.369 . S
C1619 C1620 1.410 . S
C1619 C1627 1.503 . S
C1620 C1619 1.410 . S
C1620 C1621 1.392 . S
C1620 C1623 1.511 . S
C1621 C1617 1.376 . S
C1621 C1620 1.392 . S
C1621 H1633 0.929 . S
C1622 C1618 1.531 . S
C1622 H1634 0.960 . S
C1622 H1635 0.962 . S
C1622 H1636 0.960 . S
C1623 C1620 1.511 . S
C1623 H1637 0.961 . S
C1623 H1638 0.961 . S
C1623 H1639 0.961 . S
C1624 C1625 1.370 . S
C1624 C1626 1.363 . S
C1624 H1640 0.931 . S
C1625 C1624 1.370 . S
C1625 C1629 1.408 . S
C1626 C1624 1.363 . S
C1626 C1627 1.370 . S
C1626 C1630 1.524 . S
C1627 C1619 1.503 . S
C1627 C1626 1.370 . S
C1627 C1628 1.403 . S
C1628 C1627 1.403 . S
C1628 C1629 1.404 . S
C1628 C1631 1.539 . S
C1629 C1625 1.408 . S
C1629 C1628 1.404 . S
C1629 H1641 0.930 . S
C1630 C1626 1.524 . S
C1630 H1642 0.956 . S
C1630 H1643 0.961 . S
C1630 H1644 0.961 . S
C1631 C1628 1.539 . S
C1631 H1645 0.958 . S
C1631 H1646 0.961 . S
C1631 H1647 0.960 . S
H1632 C1616 0.931 . S
H1633 C1621 0.929 . S
H1634 C1622 0.960 . S
H1635 C1622 0.962 . S
H1636 C1622 0.960 . S
H1637 C1623 0.961 . S
H1638 C1623 0.961 . S
H1639 C1623 0.961 . S
H1640 C1624 0.931 . S
H1641 C1629 0.930 . S
H1642 C1630 0.956 . S
H1643 C1630 0.961 . S
H1644 C1630 0.961 . S
H1645 C1631 0.958 . S
H1646 C1631 0.961 . S
H1647 C1631 0.960 . S
C1648 C1649 1.391 . S
C1648 C1650 1.394 . S
C1648 H1664 0.931 . S
C1649 C1648 1.391 . S
C1649 C1653 1.376 . S
C1650 C1648 1.394 . S
C1650 C1651 1.369 . S
C1650 C1654 1.531 . S
C1651 C1650 1.369 . S
C1651 C1652 1.410 . S
C1651 C1659 1.503 . S
C1652 C1651 1.410 . S
C1652 C1653 1.392 . S
C1652 C1655 1.511 . S
C1653 C1649 1.376 . S
C1653 C1652 1.392 . S
C1653 H1665 0.929 . S
C1654 C1650 1.531 . S
C1654 H1666 0.960 . S
C1654 H1667 0.962 . S
C1654 H1668 0.960 . S
C1655 C1652 1.511 . S
C1655 H1669 0.961 . S
C1655 H1670 0.961 . S
C1655 H1671 0.961 . S
C1656 C1657 1.370 . S
C1656 C1658 1.363 . S
C1656 H1672 0.931 . S
C1657 C1656 1.370 . S
C1657 C1661 1.408 . S
C1658 C1656 1.363 . S
C1658 C1659 1.370 . S
C1658 C1662 1.524 . S
C1659 C1651 1.503 . S
C1659 C1658 1.370 . S
C1659 C1660 1.403 . S
C1660 C1659 1.403 . S
C1660 C1661 1.404 . S
C1660 C1663 1.539 . S
C1661 C1657 1.408 . S
C1661 C1660 1.404 . S
C1661 H1673 0.930 . S
C1662 C1658 1.524 . S
C1662 H1674 0.956 . S
C1662 H1675 0.961 . S
C1662 H1676 0.961 . S
C1663 C1660 1.539 . S
C1663 H1677 0.958 . S
C1663 H1678 0.961 . S
C1663 H1679 0.960 . S
H1664 C1648 0.931 . S
H1665 C1653 0.929 . S
H1666 C1654 0.960 . S
H1667 C1654 0.962 . S
H1668 C1654 0.960 . S
H1669 C1655 0.961 . S
H1670 C1655 0.961 . S
H1671 C1655 0.961 . S
H1672 C1656 0.931 . S
H1673 C1661 0.930 . S
H1674 C1662 0.956 . S
H1675 C1662 0.961 . S
H1676 C1662 0.961 . S
H1677 C1663 0.958 . S
H1678 C1663 0.961 . S
H1679 C1663 0.960 . S
C1680 C1681 1.391 . S
C1680 C1682 1.394 . S
C1680 H1696 0.931 . S
C1681 C1680 1.391 . S
C1681 C1685 1.376 . S
C1682 C1680 1.394 . S
C1682 C1683 1.369 . S
C1682 C1686 1.531 . S
C1683 C1682 1.369 . S
C1683 C1684 1.410 . S
C1683 C1691 1.503 . S
C1684 C1683 1.410 . S
C1684 C1685 1.392 . S
C1684 C1687 1.511 . S
C1685 C1681 1.376 . S
C1685 C1684 1.392 . S
C1685 H1697 0.929 . S
C1686 C1682 1.531 . S
C1686 H1698 0.960 . S
C1686 H1699 0.962 . S
C1686 H1700 0.960 . S
C1687 C1684 1.511 . S
C1687 H1701 0.961 . S
C1687 H1702 0.961 . S
C1687 H1703 0.961 . S
C1688 C1689 1.370 . S
C1688 C1690 1.363 . S
C1688 H1704 0.931 . S
C1689 C1688 1.370 . S
C1689 C1693 1.408 . S
C1690 C1688 1.363 . S
C1690 C1691 1.370 . S
C1690 C1694 1.524 . S
C1691 C1683 1.503 . S
C1691 C1690 1.370 . S
C1691 C1692 1.403 . S
C1692 C1691 1.403 . S
C1692 C1693 1.404 . S
C1692 C1695 1.539 . S
C1693 C1689 1.408 . S
C1693 C1692 1.404 . S
C1693 H1705 0.930 . S
C1694 C1690 1.524 . S
C1694 H1706 0.956 . S
C1694 H1707 0.961 . S
C1694 H1708 0.961 . S
C1695 C1692 1.539 . S
C1695 H1709 0.958 . S
C1695 H1710 0.961 . S
C1695 H1711 0.960 . S
H1696 C1680 0.931 . S
H1697 C1685 0.929 . S
H1698 C1686 0.960 . S
H1699 C1686 0.962 . S
H1700 C1686 0.960 . S
H1701 C1687 0.961 . S
H1702 C1687 0.961 . S
H1703 C1687 0.961 . S
H1704 C1688 0.931 . S
H1705 C1693 0.930 . S
H1706 C1694 0.956 . S
H1707 C1694 0.961 . S
H1708 C1694 0.961 . S
H1709 C1695 0.958 . S
H1710 C1695 0.961 . S
H1711 C1695 0.960 . S
C1712 C1713 1.391 . S
C1712 C1714 1.394 . S
C1712 H1728 0.931 . S
C1713 C1712 1.391 . S
C1713 C1717 1.376 . S
C1714 C1712 1.394 . S
C1714 C1715 1.369 . S
C1714 C1718 1.531 . S
C1715 C1714 1.369 . S
C1715 C1716 1.410 . S
C1715 C1723 1.503 . S
C1716 C1715 1.410 . S
C1716 C1717 1.392 . S
C1716 C1719 1.511 . S
C1717 C1713 1.376 . S
C1717 C1716 1.392 . S
C1717 H1729 0.929 . S
C1718 C1714 1.531 . S
C1718 H1730 0.960 . S
C1718 H1731 0.962 . S
C1718 H1732 0.960 . S
C1719 C1716 1.511 . S
C1719 H1733 0.961 . S
C1719 H1734 0.961 . S
C1719 H1735 0.961 . S
C1720 C1721 1.370 . S
C1720 C1722 1.363 . S
C1720 H1736 0.931 . S
C1721 C1720 1.370 . S
C1721 C1725 1.408 . S
C1722 C1720 1.363 . S
C1722 C1723 1.370 . S
C1722 C1726 1.524 . S
C1723 C1715 1.503 . S
C1723 C1722 1.370 . S
C1723 C1724 1.403 . S
C1724 C1723 1.403 . S
C1724 C1725 1.404 . S
C1724 C1727 1.539 . S
C1725 C1721 1.408 . S
C1725 C1724 1.404 . S
C1725 H1737 0.930 . S
C1726 C1722 1.524 . S
C1726 H1738 0.956 . S
C1726 H1739 0.961 . S
C1726 H1740 0.961 . S
C1727 C1724 1.539 . S
C1727 H1741 0.958 . S
C1727 H1742 0.961 . S
C1727 H1743 0.960 . S
H1728 C1712 0.931 . S
H1729 C1717 0.929 . S
H1730 C1718 0.960 . S
H1731 C1718 0.962 . S
H1732 C1718 0.960 . S
H1733 C1719 0.961 . S
H1734 C1719 0.961 . S
H1735 C1719 0.961 . S
H1736 C1720 0.931 . S
H1737 C1725 0.930 . S
H1738 C1726 0.956 . S
H1739 C1726 0.961 . S
H1740 C1726 0.961 . S
H1741 C1727 0.958 . S
H1742 C1727 0.961 . S
H1743 C1727 0.960 . S
C1744 C1745 1.391 . S
C1744 C1746 1.394 . S
C1744 H1760 0.931 . S
C1745 C1744 1.391 . S
C1745 C1749 1.376 . S
C1746 C1744 1.394 . S
C1746 C1747 1.369 . S
C1746 C1750 1.531 . S
C1747 C1746 1.369 . S
C1747 C1748 1.410 . S
C1747 C1755 1.503 . S
C1748 C1747 1.410 . S
C1748 C1749 1.392 . S
C1748 C1751 1.511 . S
C1749 C1745 1.376 . S
C1749 C1748 1.392 . S
C1749 H1761 0.929 . S
C1750 C1746 1.531 . S
C1750 H1762 0.960 . S
C1750 H1763 0.962 . S
C1750 H1764 0.960 . S
C1751 C1748 1.511 . S
C1751 H1765 0.961 . S
C1751 H1766 0.961 . S
C1751 H1767 0.961 . S
C1752 C1753 1.370 . S
C1752 C1754 1.363 . S
C1752 H1768 0.931 . S
C1753 C1752 1.370 . S
C1753 C1757 1.408 . S
C1754 C1752 1.363 . S
C1754 C1755 1.370 . S
C1754 C1758 1.524 . S
C1755 C1747 1.503 . S
C1755 C1754 1.370 . S
C1755 C1756 1.403 . S
C1756 C1755 1.403 . S
C1756 C1757 1.404 . S
C1756 C1759 1.539 . S
C1757 C1753 1.408 . S
C1757 C1756 1.404 . S
C1757 H1769 0.930 . S
C1758 C1754 1.524 . S
C1758 H1770 0.956 . S
C1758 H1771 0.961 . S
C1758 H1772 0.961 . S
C1759 C1756 1.539 . S
C1759 H1773 0.958 . S
C1759 H1774 0.961 . S
C1759 H1775 0.960 . S
H1760 C1744 0.931 . S
H1761 C1749 0.929 . S
H1762 C1750 0.960 . S
H1763 C1750 0.962 . S
H1764 C1750 0.960 . S
H1765 C1751 0.961 . S
H1766 C1751 0.961 . S
H1767 C1751 0.961 . S
H1768 C1752 0.931 . S
H1769 C1757 0.930 . S
H1770 C1758 0.956 . S
H1771 C1758 0.961 . S
H1772 C1758 0.961 . S
H1773 C1759 0.958 . S
H1774 C1759 0.961 . S
H1775 C1759 0.960 . S
C1776 C1777 1.391 . S
C1776 C1778 1.394 . S
C1776 H1792 0.931 . S
C1777 C1776 1.391 . S
C1777 C1781 1.376 . S
C1778 C1776 1.394 . S
C1778 C1779 1.369 . S
C1778 C1782 1.531 . S
C1779 C1778 1.369 . S
C1779 C1780 1.410 . S
C1779 C1787 1.503 . S
C1780 C1779 1.410 . S
C1780 C1781 1.392 . S
C1780 C1783 1.511 . S
C1781 C1777 1.376 . S
C1781 C1780 1.392 . S
C1781 H1793 0.929 . S
C1782 C1778 1.531 . S
C1782 H1794 0.960 . S
C1782 H1795 0.962 . S
C1782 H1796 0.960 . S
C1783 C1780 1.511 . S
C1783 H1797 0.961 . S
C1783 H1798 0.961 . S
C1783 H1799 0.961 . S
C1784 C1785 1.370 . S
C1784 C1786 1.363 . S
C1784 H1800 0.931 . S
C1785 C1784 1.370 . S
C1785 C1789 1.408 . S
C1786 C1784 1.363 . S
C1786 C1787 1.370 . S
C1786 C1790 1.524 . S
C1787 C1779 1.503 . S
C1787 C1786 1.370 . S
C1787 C1788 1.403 . S
C1788 C1787 1.403 . S
C1788 C1789 1.404 . S
C1788 C1791 1.539 . S
C1789 C1785 1.408 . S
C1789 C1788 1.404 . S
C1789 H1801 0.930 . S
C1790 C1786 1.524 . S
C1790 H1802 0.956 . S
C1790 H1803 0.961 . S
C1790 H1804 0.961 . S
C1791 C1788 1.539 . S
C1791 H1805 0.958 . S
C1791 H1806 0.961 . S
C1791 H1807 0.960 . S
H1792 C1776 0.931 . S
H1793 C1781 0.929 . S
H1794 C1782 0.960 . S
H1795 C1782 0.962 . S
H1796 C1782 0.960 . S
H1797 C1783 0.961 . S
H1798 C1783 0.961 . S
H1799 C1783 0.961 . S
H1800 C1784 0.931 . S
H1801 C1789 0.930 . S
H1802 C1790 0.956 . S
H1803 C1790 0.961 . S
H1804 C1790 0.961 . S
H1805 C1791 0.958 . S
H1806 C1791 0.961 . S
H1807 C1791 0.960 . S
C1808 C1809 1.391 . S
C1808 C1810 1.394 . S
C1808 H1824 0.931 . S
C1809 C1808 1.391 . S
C1809 C1813 1.376 . S
C1810 C1808 1.394 . S
C1810 C1811 1.369 . S
C1810 C1814 1.531 . S
C1811 C1810 1.369 . S
C1811 C1812 1.410 . S
C1811 C1819 1.503 . S
C1812 C1811 1.410 . S
C1812 C1813 1.392 . S
C1812 C1815 1.511 1_545 S
C1813 C1809 1.376 . S
C1813 C1812 1.392 . S
C1813 H1825 0.929 . S
C1814 C1810 1.531 . S
C1814 H1826 0.960 . S
C1814 H1827 0.962 . S
C1814 H1828 0.960 . S
C1815 C1812 1.511 1_565 S
C1815 H1829 0.961 . S
C1815 H1830 0.961 . S
C1815 H1831 0.961 . S
C1816 C1817 1.370 1_565 S
C1816 C1818 1.363 1_565 S
C1816 H1832 0.931 . S
C1817 C1816 1.370 1_545 S
C1817 C1821 1.408 . S
C1818 C1816 1.363 1_545 S
C1818 C1819 1.370 . S
C1818 C1822 1.524 1_545 S
C1819 C1811 1.503 . S
C1819 C1818 1.370 . S
C1819 C1820 1.403 . S
C1820 C1819 1.403 . S
C1820 C1821 1.404 . S
C1820 C1823 1.539 . S
C1821 C1817 1.408 . S
C1821 C1820 1.404 . S
C1821 H1833 0.930 . S
C1822 C1818 1.524 1_565 S
C1822 H1834 0.991 . S
C1822 H1835 0.961 . S
C1822 H1836 0.961 . S
C1823 C1820 1.539 . S
C1823 H1837 0.958 . S
C1823 H1838 0.961 . S
C1823 H1839 0.960 . S
H1824 C1808 0.931 . S
H1825 C1813 0.929 . S
H1826 C1814 0.960 . S
H1827 C1814 0.962 . S
H1828 C1814 0.960 . S
H1829 C1815 0.961 . S
H1830 C1815 0.961 . S
H1831 C1815 0.961 . S
H1832 C1816 0.931 . S
H1833 C1821 0.930 . S
H1834 C1822 0.991 . S
H1835 C1822 0.961 . S
H1836 C1822 0.961 . S
H1837 C1823 0.958 . S
H1838 C1823 0.961 . S
H1839 C1823 0.960 . S
C1840 C1841 1.391 . S
C1840 C1842 1.394 . S
C1840 H1856 0.931 . S
C1841 C1840 1.391 . S
C1841 C1845 1.376 . S
C1842 C1840 1.394 . S
C1842 C1843 1.369 . S
C1842 C1846 1.531 . S
C1843 C1842 1.369 . S
C1843 C1844 1.410 . S
C1843 C1851 1.503 . S
C1844 C1843 1.410 . S
C1844 C1845 1.392 . S
C1844 C1847 1.511 . S
C1845 C1841 1.376 . S
C1845 C1844 1.392 . S
C1845 H1857 0.929 . S
C1846 C1842 1.531 . S
C1846 H1858 0.960 . S
C1846 H1859 0.962 . S
C1846 H1860 0.960 . S
C1847 C1844 1.511 . S
C1847 H1861 0.961 . S
C1847 H1862 0.961 . S
C1847 H1863 0.961 . S
C1848 C1849 1.370 . S
C1848 C1850 1.363 . S
C1848 H1864 0.931 . S
C1849 C1848 1.370 . S
C1849 C1853 1.408 . S
C1850 C1848 1.363 . S
C1850 C1851 1.370 . S
C1850 C1854 1.524 . S
C1851 C1843 1.503 . S
C1851 C1850 1.370 . S
C1851 C1852 1.403 . S
C1852 C1851 1.403 . S
C1852 C1853 1.404 . S
C1852 C1855 1.539 . S
C1853 C1849 1.408 . S
C1853 C1852 1.404 . S
C1853 H1865 0.930 . S
C1854 C1850 1.524 . S
C1854 H1866 0.956 . S
C1854 H1867 0.961 . S
C1854 H1868 0.961 . S
C1855 C1852 1.539 . S
C1855 H1869 0.958 . S
C1855 H1870 0.961 . S
C1855 H1871 0.960 . S
H1856 C1840 0.931 . S
H1857 C1845 0.929 . S
H1858 C1846 0.960 . S
H1859 C1846 0.962 . S
H1860 C1846 0.960 . S
H1861 C1847 0.961 . S
H1862 C1847 0.961 . S
H1863 C1847 0.961 . S
H1864 C1848 0.931 . S
H1865 C1853 0.930 . S
H1866 C1854 0.956 . S
H1867 C1854 0.961 . S
H1868 C1854 0.961 . S
H1869 C1855 0.958 . S
H1870 C1855 0.961 . S
H1871 C1855 0.960 . S
C1872 C1873 1.391 . S
C1872 C1874 1.394 . S
C1872 H1888 0.931 . S
C1873 C1872 1.391 . S
C1873 C1877 1.376 . S
C1874 C1872 1.394 . S
C1874 C1875 1.369 . S
C1874 C1878 1.531 . S
C1875 C1874 1.369 . S
C1875 C1876 1.410 . S
C1875 C1883 1.503 . S
C1876 C1875 1.410 . S
C1876 C1877 1.392 . S
C1876 C1879 1.511 . S
C1877 C1873 1.376 . S
C1877 C1876 1.392 . S
C1877 H1889 0.929 . S
C1878 C1874 1.531 . S
C1878 H1890 0.960 . S
C1878 H1891 0.962 . S
C1878 H1892 0.960 . S
C1879 C1876 1.511 . S
C1879 H1893 0.961 . S
C1879 H1894 0.961 . S
C1879 H1895 0.961 . S
C1880 C1881 1.370 . S
C1880 C1882 1.363 . S
C1880 H1896 0.931 . S
C1881 C1880 1.370 . S
C1881 C1885 1.408 . S
C1882 C1880 1.363 . S
C1882 C1883 1.370 . S
C1882 C1886 1.524 . S
C1883 C1875 1.503 . S
C1883 C1882 1.370 . S
C1883 C1884 1.403 . S
C1884 C1883 1.403 . S
C1884 C1885 1.404 . S
C1884 C1887 1.539 . S
C1885 C1881 1.408 . S
C1885 C1884 1.404 . S
C1885 H1897 0.930 . S
C1886 C1882 1.524 . S
C1886 H1898 0.956 . S
C1886 H1899 0.961 . S
C1886 H1900 0.961 . S
C1887 C1884 1.539 . S
C1887 H1901 0.958 . S
C1887 H1902 0.961 . S
C1887 H1903 0.960 . S
H1888 C1872 0.931 . S
H1889 C1877 0.929 . S
H1890 C1878 0.960 . S
H1891 C1878 0.962 . S
H1892 C1878 0.960 . S
H1893 C1879 0.961 . S
H1894 C1879 0.961 . S
H1895 C1879 0.961 . S
H1896 C1880 0.931 . S
H1897 C1885 0.930 . S
H1898 C1886 0.956 . S
H1899 C1886 0.961 . S
H1900 C1886 0.961 . S
H1901 C1887 0.958 . S
H1902 C1887 0.961 . S
H1903 C1887 0.960 . S
C1904 C1905 1.391 . S
C1904 C1906 1.394 . S
C1904 H1920 0.931 . S
C1905 C1904 1.391 . S
C1905 C1909 1.376 . S
C1906 C1904 1.394 . S
C1906 C1907 1.369 . S
C1906 C1910 1.531 . S
C1907 C1906 1.369 . S
C1907 C1908 1.410 . S
C1907 C1915 1.503 . S
C1908 C1907 1.410 . S
C1908 C1909 1.392 . S
C1908 C1911 1.511 . S
C1909 C1905 1.376 . S
C1909 C1908 1.392 . S
C1909 H1921 0.929 . S
C1910 C1906 1.531 . S
C1910 H1922 0.960 . S
C1910 H1923 0.962 . S
C1910 H1924 0.960 . S
C1911 C1908 1.511 . S
C1911 H1925 0.961 . S
C1911 H1926 0.961 . S
C1911 H1927 0.961 . S
C1912 C1913 1.370 . S
C1912 C1914 1.363 . S
C1912 H1928 0.931 . S
C1913 C1912 1.370 . S
C1913 C1917 1.408 . S
C1914 C1912 1.363 . S
C1914 C1915 1.370 . S
C1914 C1918 1.524 . S
C1915 C1907 1.503 . S
C1915 C1914 1.370 . S
C1915 C1916 1.403 . S
C1916 C1915 1.403 . S
C1916 C1917 1.404 . S
C1916 C1919 1.539 . S
C1917 C1913 1.408 . S
C1917 C1916 1.404 . S
C1917 H1929 0.930 . S
C1918 C1914 1.524 . S
C1918 H1930 0.956 . S
C1918 H1931 0.961 . S
C1918 H1932 0.961 . S
C1919 C1916 1.539 . S
C1919 H1933 0.958 . S
C1919 H1934 0.961 . S
C1919 H1935 0.960 . S
H1920 C1904 0.931 . S
H1921 C1909 0.929 . S
H1922 C1910 0.960 . S
H1923 C1910 0.962 . S
H1924 C1910 0.960 . S
H1925 C1911 0.961 . S
H1926 C1911 0.961 . S
H1927 C1911 0.961 . S
H1928 C1912 0.931 . S
H1929 C1917 0.930 . S
H1930 C1918 0.956 . S
H1931 C1918 0.961 . S
H1932 C1918 0.961 . S
H1933 C1919 0.958 . S
H1934 C1919 0.961 . S
H1935 C1919 0.960 . S
C1936 C1937 1.391 . S
C1936 C1938 1.394 . S
C1936 H1952 0.931 . S
C1937 C1936 1.391 . S
C1937 C1941 1.376 . S
C1938 C1936 1.394 . S
C1938 C1939 1.369 . S
C1938 C1942 1.531 . S
C1939 C1938 1.369 . S
C1939 C1940 1.410 . S
C1939 C1947 1.503 . S
C1940 C1939 1.410 . S
C1940 C1941 1.392 . S
C1940 C1943 1.511 . S
C1941 C1937 1.376 . S
C1941 C1940 1.392 . S
C1941 H1953 0.929 . S
C1942 C1938 1.531 . S
C1942 H1954 0.960 . S
C1942 H1955 0.962 . S
C1942 H1956 0.960 . S
C1943 C1940 1.511 . S
C1943 H1957 0.961 . S
C1943 H1958 0.961 . S
C1943 H1959 0.961 1_545 S
C1944 C1945 1.370 . S
C1944 C1946 1.363 . S
C1944 H1960 0.931 . S
C1945 C1944 1.370 . S
C1945 C1949 1.408 1_545 S
C1946 C1944 1.363 . S
C1946 C1947 1.370 . S
C1946 C1950 1.524 . S
C1947 C1939 1.503 . S
C1947 C1946 1.370 . S
C1947 C1948 1.403 1_545 S
C1948 C1947 1.403 1_565 S
C1948 C1949 1.404 . S
C1948 C1951 1.539 . S
C1949 C1945 1.408 1_565 S
C1949 C1948 1.404 . S
C1949 H1961 0.930 . S
C1950 C1946 1.524 . S
C1950 H1962 0.956 . S
C1950 H1963 0.961 . S
C1950 H1964 0.961 . S
C1951 C1948 1.539 . S
C1951 H1965 0.958 . S
C1951 H1966 0.961 . S
C1951 H1967 0.960 . S
H1952 C1936 0.931 . S
H1953 C1941 0.929 . S
H1954 C1942 0.960 . S
H1955 C1942 0.962 . S
H1956 C1942 0.960 . S
H1957 C1943 0.961 . S
H1958 C1943 0.961 . S
H1959 C1943 0.961 1_565 S
H1960 C1944 0.931 . S
H1961 C1949 0.930 . S
H1962 C1950 0.956 . S
H1963 C1950 0.961 . S
H1964 C1950 0.961 . S
H1965 C1951 0.958 . S
H1966 C1951 0.961 . S
H1967 C1951 0.960 . S
C1968 C1969 1.391 . S
C1968 C1970 1.394 . S
C1968 H1984 0.931 . S
C1969 C1968 1.391 . S
C1969 C1973 1.376 . S
C1970 C1968 1.394 . S
C1970 C1971 1.369 . S
C1970 C1974 1.531 . S
C1971 C1970 1.369 . S
C1971 C1972 1.410 . S
C1971 C1979 1.503 . S
C1972 C1971 1.410 . S
C1972 C1973 1.392 . S
C1972 C1975 1.511 . S
C1973 C1969 1.376 . S
C1973 C1972 1.392 . S
C1973 H1985 0.929 . S
C1974 C1970 1.531 . S
C1974 H1986 0.960 . S
C1974 H1987 0.962 . S
C1974 H1988 0.960 . S
C1975 C1972 1.511 . S
C1975 H1989 0.961 . S
C1975 H1990 0.961 . S
C1975 H1991 0.961 . S
C1976 C1977 1.370 . S
C1976 C1978 1.363 . S
C1976 H1992 0.931 . S
C1977 C1976 1.370 . S
C1977 C1981 1.408 . S
C1978 C1976 1.363 . S
C1978 C1979 1.370 . S
C1978 C1982 1.524 . S
C1979 C1971 1.503 . S
C1979 C1978 1.370 . S
C1979 C1980 1.403 . S
C1980 C1979 1.403 . S
C1980 C1981 1.404 . S
C1980 C1983 1.539 . S
C1981 C1977 1.408 . S
C1981 C1980 1.404 . S
C1981 H1993 0.930 . S
C1982 C1978 1.524 . S
C1982 H1994 0.956 . S
C1982 H1995 0.961 . S
C1982 H1996 0.961 . S
C1983 C1980 1.539 . S
C1983 H1997 0.958 . S
C1983 H1998 0.961 . S
C1983 H1999 0.960 . S
H1984 C1968 0.931 . S
H1985 C1973 0.929 . S
H1986 C1974 0.960 . S
H1987 C1974 0.962 . S
H1988 C1974 0.960 . S
H1989 C1975 0.961 . S
H1990 C1975 0.961 . S
H1991 C1975 0.961 . S
H1992 C1976 0.931 . S
H1993 C1981 0.930 . S
H1994 C1982 0.956 . S
H1995 C1982 0.961 . S
H1996 C1982 0.961 . S
H1997 C1983 0.958 . S
H1998 C1983 0.961 . S
H1999 C1983 0.960 . S
C2000 C2001 1.391 . S
C2000 C2002 1.394 . S
C2000 H2016 0.931 . S
C2001 C2000 1.391 . S
C2001 C2005 1.376 . S
C2002 C2000 1.394 . S
C2002 C2003 1.369 . S
C2002 C2006 1.531 . S
C2003 C2002 1.369 . S
C2003 C2004 1.410 . S
C2003 C2011 1.503 . S
C2004 C2003 1.410 . S
C2004 C2005 1.392 . S
C2004 C2007 1.511 . S
C2005 C2001 1.376 . S
C2005 C2004 1.392 . S
C2005 H2017 0.929 . S
C2006 C2002 1.531 . S
C2006 H2018 0.960 . S
C2006 H2019 0.962 . S
C2006 H2020 0.960 . S
C2007 C2004 1.511 . S
C2007 H2021 0.961 . S
C2007 H2022 0.961 . S
C2007 H2023 0.961 . S
C2008 C2009 1.370 . S
C2008 C2010 1.363 . S
C2008 H2024 0.931 . S
C2009 C2008 1.370 . S
C2009 C2013 1.408 . S
C2010 C2008 1.363 . S
C2010 C2011 1.370 . S
C2010 C2014 1.524 . S
C2011 C2003 1.503 . S
C2011 C2010 1.370 . S
C2011 C2012 1.403 . S
C2012 C2011 1.403 . S
C2012 C2013 1.404 . S
C2012 C2015 1.539 . S
C2013 C2009 1.408 . S
C2013 C2012 1.404 . S
C2013 H2025 0.930 . S
C2014 C2010 1.524 . S
C2014 H2026 0.956 . S
C2014 H2027 0.961 . S
C2014 H2028 0.961 . S
C2015 C2012 1.539 . S
C2015 H2029 0.958 . S
C2015 H2030 0.961 . S
C2015 H2031 0.960 . S
H2016 C2000 0.931 . S
H2017 C2005 0.929 . S
H2018 C2006 0.960 . S
H2019 C2006 0.962 . S
H2020 C2006 0.960 . S
H2021 C2007 0.961 . S
H2022 C2007 0.961 . S
H2023 C2007 0.961 . S
H2024 C2008 0.931 . S
H2025 C2013 0.930 . S
H2026 C2014 0.956 . S
H2027 C2014 0.961 . S
H2028 C2014 0.961 . S
H2029 C2015 0.958 . S
H2030 C2015 0.961 . S
H2031 C2015 0.960 . S
C2032 C2033 1.391 . S
C2032 C2034 1.394 . S
C2032 H2048 0.931 . S
C2033 C2032 1.391 . S
C2033 C2037 1.376 . S
C2034 C2032 1.394 . S
C2034 C2035 1.369 . S
C2034 C2038 1.531 . S
C2035 C2034 1.369 . S
C2035 C2036 1.410 . S
C2035 C2043 1.503 . S
C2036 C2035 1.410 . S
C2036 C2037 1.392 . S
C2036 C2039 1.511 . S
C2037 C2033 1.376 . S
C2037 C2036 1.392 . S
C2037 H2049 0.929 . S
C2038 C2034 1.531 . S
C2038 H2050 0.960 . S
C2038 H2051 0.962 . S
C2038 H2052 0.960 . S
C2039 C2036 1.511 . S
C2039 H2053 0.961 . S
C2039 H2054 0.961 . S
C2039 H2055 0.961 . S
C2040 C2041 1.370 . S
C2040 C2042 1.363 . S
C2040 H2056 0.931 . S
C2041 C2040 1.370 . S
C2041 C2045 1.408 . S
C2042 C2040 1.363 . S
C2042 C2043 1.370 . S
C2042 C2046 1.524 . S
C2043 C2035 1.503 . S
C2043 C2042 1.370 . S
C2043 C2044 1.403 . S
C2044 C2043 1.403 . S
C2044 C2045 1.404 . S
C2044 C2047 1.539 . S
C2045 C2041 1.408 . S
C2045 C2044 1.404 . S
C2045 H2057 0.930 . S
C2046 C2042 1.524 . S
C2046 H2058 0.956 . S
C2046 H2059 0.961 . S
C2046 H2060 0.961 . S
C2047 C2044 1.539 . S
C2047 H2061 0.958 . S
C2047 H2062 0.961 . S
C2047 H2063 0.960 . S
H2048 C2032 0.931 . S
H2049 C2037 0.929 . S
H2050 C2038 0.960 . S
H2051 C2038 0.962 . S
H2052 C2038 0.960 . S
H2053 C2039 0.961 . S
H2054 C2039 0.961 . S
H2055 C2039 0.961 . S
H2056 C2040 0.931 . S
H2057 C2045 0.930 . S
H2058 C2046 0.956 . S
H2059 C2046 0.961 . S
H2060 C2046 0.961 . S
H2061 C2047 0.958 . S
H2062 C2047 0.961 . S
H2063 C2047 0.960 . S
C2064 C2065 1.391 1_455 S
C2064 C2066 1.394 . S
C2064 H2080 0.931 . S
C2065 C2064 1.391 1_655 S
C2065 C2069 1.376 . S
C2066 C2064 1.394 . S
C2066 C2067 1.369 1_455 S
C2066 C2070 1.531 . S
C2067 C2066 1.369 1_655 S
C2067 C2068 1.410 . S
C2067 C2075 1.503 . S
C2068 C2067 1.410 . S
C2068 C2069 1.392 . S
C2068 C2071 1.511 . S
C2069 C2065 1.376 . S
C2069 C2068 1.392 . S
C2069 H2081 0.929 . S
C2070 C2066 1.531 . S
C2070 H2082 0.960 . S
C2070 H2083 0.962 . S
C2070 H2084 0.960 . S
C2071 C2068 1.511 . S
C2071 H2085 0.961 . S
C2071 H2086 0.961 . S
C2071 H2087 0.961 . S
C2072 C2073 1.369 1_455 S
C2072 C2074 1.358 1_455 S
C2072 H2088 0.939 . S
C2073 C2072 1.369 1_655 S
C2073 C2077 1.408 . S
C2074 C2072 1.358 1_655 S
C2074 C2075 1.370 . S
C2074 C2078 1.524 . S
C2075 C2067 1.503 . S
C2075 C2074 1.370 . S
C2075 C2076 1.403 . S
C2076 C2075 1.403 . S
C2076 C2077 1.404 . S
C2076 C2079 1.539 . S
C2077 C2073 1.408 . S
C2077 C2076 1.404 . S
C2077 H2089 0.930 . S
C2078 C2074 1.524 . S
C2078 H2090 0.956 1_655 S
C2078 H2091 0.961 . S
C2078 H2092 0.961 1_655 S
C2079 C2076 1.539 . S
C2079 H2093 0.958 . S
C2079 H2094 0.961 . S
C2079 H2095 0.960 . S
H2080 C2064 0.931 . S
H2081 C2069 0.929 . S
H2082 C2070 0.960 . S
H2083 C2070 0.962 . S
H2084 C2070 0.960 . S
H2085 C2071 0.961 . S
H2086 C2071 0.961 . S
H2087 C2071 0.961 . S
H2088 C2072 0.939 . S
H2089 C2077 0.930 . S
H2090 C2078 0.956 1_455 S
H2091 C2078 0.961 . S
H2092 C2078 0.961 1_455 S
H2093 C2079 0.958 . S
H2094 C2079 0.961 . S
H2095 C2079 0.960 . S
C2096 C2097 1.391 . S
C2096 C2098 1.394 . S
C2096 H2112 0.931 . S
C2097 C2096 1.391 . S
C2097 C2101 1.376 . S
C2098 C2096 1.394 . S
C2098 C2099 1.369 . S
C2098 C2102 1.531 . S
C2099 C2098 1.369 . S
C2099 C2100 1.410 . S
C2099 C2107 1.503 . S
C2100 C2099 1.410 . S
C2100 C2101 1.392 . S
C2100 C2103 1.511 . S
C2101 C2097 1.376 . S
C2101 C2100 1.392 . S
C2101 H2113 0.929 . S
C2102 C2098 1.531 . S
C2102 H2114 0.960 . S
C2102 H2115 0.962 . S
C2102 H2116 0.960 . S
C2103 C2100 1.511 . S
C2103 H2117 0.961 . S
C2103 H2118 0.961 . S
C2103 H2119 0.961 . S
C2104 C2105 1.370 . S
C2104 C2106 1.363 . S
C2104 H2120 0.931 . S
C2105 C2104 1.370 . S
C2105 C2109 1.408 . S
C2106 C2104 1.363 . S
C2106 C2107 1.370 . S
C2106 C2110 1.524 . S
C2107 C2099 1.503 . S
C2107 C2106 1.370 . S
C2107 C2108 1.403 . S
C2108 C2107 1.403 . S
C2108 C2109 1.404 . S
C2108 C2111 1.539 . S
C2109 C2105 1.408 . S
C2109 C2108 1.404 . S
C2109 H2121 0.930 . S
C2110 C2106 1.524 . S
C2110 H2122 0.956 . S
C2110 H2123 0.961 . S
C2110 H2124 0.961 . S
C2111 C2108 1.539 . S
C2111 H2125 0.958 . S
C2111 H2126 0.961 . S
C2111 H2127 0.960 . S
H2112 C2096 0.931 . S
H2113 C2101 0.929 . S
H2114 C2102 0.960 . S
H2115 C2102 0.962 . S
H2116 C2102 0.960 . S
H2117 C2103 0.961 . S
H2118 C2103 0.961 . S
H2119 C2103 0.961 . S
H2120 C2104 0.931 . S
H2121 C2109 0.930 . S
H2122 C2110 0.956 . S
H2123 C2110 0.961 . S
H2124 C2110 0.961 . S
H2125 C2111 0.958 . S
H2126 C2111 0.961 . S
H2127 C2111 0.960 . S
C2128 C2129 1.391 . S
C2128 C2130 1.394 . S
C2128 H2144 0.931 . S
C2129 C2128 1.391 . S
C2129 C2133 1.376 . S
C2130 C2128 1.394 . S
C2130 C2131 1.369 . S
C2130 C2134 1.531 . S
C2131 C2130 1.369 . S
C2131 C2132 1.446 . S
C2131 C2139 1.503 . S
C2132 C2131 1.446 . S
C2132 C2133 1.400 . S
C2132 C2135 1.469 1_455 S
C2133 C2129 1.376 . S
C2133 C2132 1.400 . S
C2133 H2145 0.929 1_455 S
C2134 C2130 1.531 . S
C2134 H2146 0.960 . S
C2134 H2147 0.962 . S
C2134 H2148 0.960 . S
C2135 C2132 1.469 1_655 S
C2135 H2149 0.961 . S
C2135 H2150 0.961 . S
C2135 H2151 0.961 . S
C2136 C2137 1.370 . S
C2136 C2138 1.363 . S
C2136 H2152 0.931 . S
C2137 C2136 1.370 . S
C2137 C2141 1.408 . S
C2138 C2136 1.363 . S
C2138 C2139 1.370 . S
C2138 C2142 1.524 . S
C2139 C2131 1.503 . S
C2139 C2138 1.370 . S
C2139 C2140 1.403 . S
C2140 C2139 1.403 . S
C2140 C2141 1.404 . S
C2140 C2143 1.539 . S
C2141 C2137 1.408 . S
C2141 C2140 1.404 . S
C2141 H2153 0.930 . S
C2142 C2138 1.524 . S
C2142 H2154 0.956 . S
C2142 H2155 0.961 . S
C2142 H2156 0.961 . S
C2143 C2140 1.539 . S
C2143 H2157 0.958 . S
C2143 H2158 0.961 . S
C2143 H2159 0.960 . S
H2144 C2128 0.931 . S
H2145 C2133 0.929 1_655 S
H2146 C2134 0.960 . S
H2147 C2134 0.962 . S
H2148 C2134 0.960 . S
H2149 C2135 0.961 . S
H2150 C2135 0.961 . S
H2151 C2135 0.961 . S
H2152 C2136 0.931 . S
H2153 C2141 0.930 . S
H2154 C2142 0.956 . S
H2155 C2142 0.961 . S
H2156 C2142 0.961 . S
H2157 C2143 0.958 . S
H2158 C2143 0.961 . S
H2159 C2143 0.960 . S
C2160 C2161 1.391 . S
C2160 C2162 1.394 . S
C2160 H2176 0.931 . S
C2161 C2160 1.391 . S
C2161 C2165 1.376 . S
C2162 C2160 1.394 . S
C2162 C2163 1.369 . S
C2162 C2166 1.531 . S
C2163 C2162 1.369 . S
C2163 C2164 1.410 . S
C2163 C2171 1.503 . S
C2164 C2163 1.410 . S
C2164 C2165 1.392 . S
C2164 C2167 1.511 . S
C2165 C2161 1.376 . S
C2165 C2164 1.392 . S
C2165 H2177 0.929 . S
C2166 C2162 1.531 . S
C2166 H2178 0.960 . S
C2166 H2179 0.962 . S
C2166 H2180 0.960 . S
C2167 C2164 1.511 . S
C2167 H2181 0.961 . S
C2167 H2182 0.961 . S
C2167 H2183 0.961 . S
C2168 C2169 1.370 . S
C2168 C2170 1.363 . S
C2168 H2184 0.931 . S
C2169 C2168 1.370 . S
C2169 C2173 1.408 . S
C2170 C2168 1.363 . S
C2170 C2171 1.370 . S
C2170 C2174 1.524 . S
C2171 C2163 1.503 . S
C2171 C2170 1.370 . S
C2171 C2172 1.403 . S
C2172 C2171 1.403 . S
C2172 C2173 1.404 . S
C2172 C2175 1.539 . S
C2173 C2169 1.408 . S
C2173 C2172 1.404 . S
C2173 H2185 0.930 . S
C2174 C2170 1.524 . S
C2174 H2186 0.956 . S
C2174 H2187 0.961 . S
C2174 H2188 0.961 . S
C2175 C2172 1.539 . S
C2175 H2189 0.958 . S
C2175 H2190 0.961 . S
C2175 H2191 0.960 . S
H2176 C2160 0.931 . S
H2177 C2165 0.929 . S
H2178 C2166 0.960 . S
H2179 C2166 0.962 . S
H2180 C2166 0.960 . S
H2181 C2167 0.961 . S
H2182 C2167 0.961 . S
H2183 C2167 0.961 . S
H2184 C2168 0.931 . S
H2185 C2173 0.930 . S
H2186 C2174 0.956 . S
H2187 C2174 0.961 . S
H2188 C2174 0.961 . S
H2189 C2175 0.958 . S
H2190 C2175 0.961 . S
H2191 C2175 0.960 . S
C2192 C2193 1.391 . S
C2192 C2194 1.394 . S
C2192 H2208 0.931 . S
C2193 C2192 1.391 . S
C2193 C2197 1.376 . S
C2194 C2192 1.394 . S
C2194 C2195 1.369 . S
C2194 C2198 1.531 . S
C2195 C2194 1.369 . S
C2195 C2196 1.410 . S
C2195 C2203 1.503 . S
C2196 C2195 1.410 . S
C2196 C2197 1.392 . S
C2196 C2199 1.511 . S
C2197 C2193 1.376 . S
C2197 C2196 1.392 . S
C2197 H2209 0.929 . S
C2198 C2194 1.531 . S
C2198 H2210 0.960 . S
C2198 H2211 0.962 . S
C2198 H2212 0.960 . S
C2199 C2196 1.511 . S
C2199 H2213 0.961 . S
C2199 H2214 0.961 . S
C2199 H2215 0.961 . S
C2200 C2201 1.370 . S
C2200 C2202 1.363 . S
C2200 H2216 0.931 . S
C2201 C2200 1.370 . S
C2201 C2205 1.408 . S
C2202 C2200 1.363 . S
C2202 C2203 1.370 . S
C2202 C2206 1.524 . S
C2203 C2195 1.503 . S
C2203 C2202 1.370 . S
C2203 C2204 1.403 . S
C2204 C2203 1.403 . S
C2204 C2205 1.404 . S
C2204 C2207 1.539 . S
C2205 C2201 1.408 . S
C2205 C2204 1.404 . S
C2205 H2217 0.930 . S
C2206 C2202 1.524 . S
C2206 H2218 0.956 . S
C2206 H2219 0.961 . S
C2206 H2220 0.961 . S
C2207 C2204 1.539 . S
C2207 H2221 0.958 . S
C2207 H2222 0.961 . S
C2207 H2223 0.960 . S
H2208 C2192 0.931 . S
H2209 C2197 0.929 . S
H2210 C2198 0.960 . S
H2211 C2198 0.962 . S
H2212 C2198 0.960 . S
H2213 C2199 0.961 . S
H2214 C2199 0.961 . S
H2215 C2199 0.961 . S
H2216 C2200 0.931 . S
H2217 C2205 0.930 . S
H2218 C2206 0.956 . S
H2219 C2206 0.961 . S
H2220 C2206 0.961 . S
H2221 C2207 0.958 . S
H2222 C2207 0.961 . S
H2223 C2207 0.960 . S
C2224 C2225 1.391 . S
C2224 C2226 1.394 . S
C2224 H2240 0.931 . S
C2225 C2224 1.391 . S
C2225 C2229 1.376 . S
C2226 C2224 1.394 . S
C2226 C2227 1.369 . S
C2226 C2230 1.531 . S
C2227 C2226 1.369 . S
C2227 C2228 1.410 . S
C2227 C2235 1.503 . S
C2228 C2227 1.410 . S
C2228 C2229 1.392 . S
C2228 C2231 1.511 . S
C2229 C2225 1.376 . S
C2229 C2228 1.392 . S
C2229 H2241 0.929 . S
C2230 C2226 1.531 . S
C2230 H2242 0.960 . S
C2230 H2243 0.962 . S
C2230 H2244 0.960 . S
C2231 C2228 1.511 . S
C2231 H2245 0.961 . S
C2231 H2246 0.961 . S
C2231 H2247 0.961 . S
C2232 C2233 1.370 . S
C2232 C2234 1.363 . S
C2232 H2248 0.931 . S
C2233 C2232 1.370 . S
C2233 C2237 1.408 . S
C2234 C2232 1.363 . S
C2234 C2235 1.370 . S
C2234 C2238 1.524 . S
C2235 C2227 1.503 . S
C2235 C2234 1.370 . S
C2235 C2236 1.403 . S
C2236 C2235 1.403 . S
C2236 C2237 1.404 . S
C2236 C2239 1.539 . S
C2237 C2233 1.408 . S
C2237 C2236 1.404 . S
C2237 H2249 0.930 . S
C2238 C2234 1.524 . S
C2238 H2250 0.956 . S
C2238 H2251 0.961 . S
C2238 H2252 0.961 . S
C2239 C2236 1.539 . S
C2239 H2253 0.958 . S
C2239 H2254 0.961 . S
C2239 H2255 0.960 . S
H2240 C2224 0.931 . S
H2241 C2229 0.929 . S
H2242 C2230 0.960 . S
H2243 C2230 0.962 . S
H2244 C2230 0.960 . S
H2245 C2231 0.961 . S
H2246 C2231 0.961 . S
H2247 C2231 0.961 . S
H2248 C2232 0.931 . S
H2249 C2237 0.930 . S
H2250 C2238 0.956 . S
H2251 C2238 0.961 . S
H2252 C2238 0.961 . S
H2253 C2239 0.958 . S
H2254 C2239 0.961 . S
H2255 C2239 0.960 . S
C2256 C2257 1.391 . S
C2256 C2258 1.394 . S
C2256 H2272 0.931 . S
C2257 C2256 1.391 . S
C2257 C2261 1.376 . S
C2258 C2256 1.394 . S
C2258 C2259 1.369 . S
C2258 C2262 1.531 . S
C2259 C2258 1.369 . S
C2259 C2260 1.410 . S
C2259 C2267 1.503 . S
C2260 C2259 1.410 . S
C2260 C2261 1.392 . S
C2260 C2263 1.511 . S
C2261 C2257 1.376 . S
C2261 C2260 1.392 . S
C2261 H2273 0.929 . S
C2262 C2258 1.531 . S
C2262 H2274 0.960 . S
C2262 H2275 0.962 . S
C2262 H2276 0.960 . S
C2263 C2260 1.511 . S
C2263 H2277 0.961 . S
C2263 H2278 0.961 . S
C2263 H2279 0.961 . S
C2264 C2265 1.370 . S
C2264 C2266 1.363 . S
C2264 H2280 0.931 . S
C2265 C2264 1.370 . S
C2265 C2269 1.408 . S
C2266 C2264 1.363 . S
C2266 C2267 1.370 . S
C2266 C2270 1.524 . S
C2267 C2259 1.503 . S
C2267 C2266 1.370 . S
C2267 C2268 1.403 . S
C2268 C2267 1.403 . S
C2268 C2269 1.404 . S
C2268 C2271 1.539 . S
C2269 C2265 1.408 . S
C2269 C2268 1.404 . S
C2269 H2281 0.930 . S
C2270 C2266 1.524 . S
C2270 H2282 0.956 . S
C2270 H2283 0.961 . S
C2270 H2284 0.961 . S
C2271 C2268 1.539 . S
C2271 H2285 0.958 . S
C2271 H2286 0.961 . S
C2271 H2287 0.960 . S
H2272 C2256 0.931 . S
H2273 C2261 0.929 . S
H2274 C2262 0.960 . S
H2275 C2262 0.962 . S
H2276 C2262 0.960 . S
H2277 C2263 0.961 . S
H2278 C2263 0.961 . S
H2279 C2263 0.961 . S
H2280 C2264 0.931 . S
H2281 C2269 0.930 . S
H2282 C2270 0.956 . S
H2283 C2270 0.961 . S
H2284 C2270 0.961 . S
H2285 C2271 0.958 . S
H2286 C2271 0.961 . S
H2287 C2271 0.960 . S
C2288 C2289 1.391 . S
C2288 C2290 1.394 . S
C2288 H2304 0.931 . S
C2289 C2288 1.391 . S
C2289 C2293 1.376 . S
C2290 C2288 1.394 . S
C2290 C2291 1.369 . S
C2290 C2294 1.531 . S
C2291 C2290 1.369 . S
C2291 C2292 1.410 . S
C2291 C2299 1.503 . S
C2292 C2291 1.410 . S
C2292 C2293 1.392 . S
C2292 C2295 1.511 . S
C2293 C2289 1.376 . S
C2293 C2292 1.392 . S
C2293 H2305 0.929 . S
C2294 C2290 1.531 . S
C2294 H2306 0.960 . S
C2294 H2307 0.962 . S
C2294 H2308 0.960 . S
C2295 C2292 1.511 . S
C2295 H2309 0.961 . S
C2295 H2310 0.961 . S
C2295 H2311 0.961 . S
C2296 C2297 1.370 . S
C2296 C2298 1.363 . S
C2296 H2312 0.931 . S
C2297 C2296 1.370 . S
C2297 C2301 1.408 . S
C2298 C2296 1.363 . S
C2298 C2299 1.370 . S
C2298 C2302 1.524 . S
C2299 C2291 1.503 . S
C2299 C2298 1.370 . S
C2299 C2300 1.403 . S
C2300 C2299 1.403 . S
C2300 C2301 1.404 . S
C2300 C2303 1.539 . S
C2301 C2297 1.408 . S
C2301 C2300 1.404 . S
C2301 H2313 0.930 . S
C2302 C2298 1.524 . S
C2302 H2314 0.956 . S
C2302 H2315 0.961 . S
C2302 H2316 0.961 . S
C2303 C2300 1.539 . S
C2303 H2317 0.958 . S
C2303 H2318 0.961 . S
C2303 H2319 0.960 . S
H2304 C2288 0.931 . S
H2305 C2293 0.929 . S
H2306 C2294 0.960 . S
H2307 C2294 0.962 . S
H2308 C2294 0.960 . S
H2309 C2295 0.961 . S
H2310 C2295 0.961 . S
H2311 C2295 0.961 . S
H2312 C2296 0.931 . S
H2313 C2301 0.930 . S
H2314 C2302 0.956 . S
H2315 C2302 0.961 . S
H2316 C2302 0.961 . S
H2317 C2303 0.958 . S
H2318 C2303 0.961 . S
H2319 C2303 0.960 . S
C2320 C2321 1.391 . S
C2320 C2322 1.394 . S
C2320 H2336 0.931 . S
C2321 C2320 1.391 . S
C2321 C2325 1.376 . S
C2322 C2320 1.394 . S
C2322 C2323 1.369 . S
C2322 C2326 1.531 . S
C2323 C2322 1.369 . S
C2323 C2324 1.410 . S
C2323 C2331 1.503 . S
C2324 C2323 1.410 . S
C2324 C2325 1.392 . S
C2324 C2327 1.511 . S
C2325 C2321 1.376 . S
C2325 C2324 1.392 . S
C2325 H2337 0.929 . S
C2326 C2322 1.531 . S
C2326 H2338 0.960 . S
C2326 H2339 0.962 . S
C2326 H2340 0.960 . S
C2327 C2324 1.511 . S
C2327 H2341 0.961 . S
C2327 H2342 0.961 . S
C2327 H2343 0.961 . S
C2328 C2329 1.370 . S
C2328 C2330 1.363 . S
C2328 H2344 0.931 . S
C2329 C2328 1.370 . S
C2329 C2333 1.408 . S
C2330 C2328 1.363 . S
C2330 C2331 1.370 . S
C2330 C2334 1.524 . S
C2331 C2323 1.503 . S
C2331 C2330 1.370 . S
C2331 C2332 1.403 . S
C2332 C2331 1.403 . S
C2332 C2333 1.404 . S
C2332 C2335 1.539 . S
C2333 C2329 1.408 . S
C2333 C2332 1.404 . S
C2333 H2345 0.930 . S
C2334 C2330 1.524 . S
C2334 H2346 0.956 . S
C2334 H2347 0.961 . S
C2334 H2348 0.961 . S
C2335 C2332 1.539 . S
C2335 H2349 0.958 . S
C2335 H2350 0.961 . S
C2335 H2351 0.960 . S
H2336 C2320 0.931 . S
H2337 C2325 0.929 . S
H2338 C2326 0.960 . S
H2339 C2326 0.962 . S
H2340 C2326 0.960 . S
H2341 C2327 0.961 . S
H2342 C2327 0.961 . S
H2343 C2327 0.961 . S
H2344 C2328 0.931 . S
H2345 C2333 0.930 . S
H2346 C2334 0.956 . S
H2347 C2334 0.961 . S
H2348 C2334 0.961 . S
H2349 C2335 0.958 . S
H2350 C2335 0.961 . S
H2351 C2335 0.960 . S
C2352 C2353 1.391 . S
C2352 C2354 1.394 . S
C2352 H2368 0.931 . S
C2353 C2352 1.391 . S
C2353 C2357 1.376 . S
C2354 C2352 1.394 . S
C2354 C2355 1.369 . S
C2354 C2358 1.531 . S
C2355 C2354 1.369 . S
C2355 C2356 1.410 . S
C2355 C2363 1.503 . S
C2356 C2355 1.410 . S
C2356 C2357 1.392 . S
C2356 C2359 1.511 . S
C2357 C2353 1.376 . S
C2357 C2356 1.392 . S
C2357 H2369 0.929 . S
C2358 C2354 1.531 . S
C2358 H2370 0.960 . S
C2358 H2371 0.962 . S
C2358 H2372 0.960 . S
C2359 C2356 1.511 . S
C2359 H2373 0.961 . S
C2359 H2374 0.961 . S
C2359 H2375 0.961 . S
C2360 C2361 1.370 . S
C2360 C2362 1.363 . S
C2360 H2376 0.931 . S
C2361 C2360 1.370 . S
C2361 C2365 1.408 . S
C2362 C2360 1.363 . S
C2362 C2363 1.370 . S
C2362 C2366 1.524 . S
C2363 C2355 1.503 . S
C2363 C2362 1.370 . S
C2363 C2364 1.403 . S
C2364 C2363 1.403 . S
C2364 C2365 1.404 . S
C2364 C2367 1.539 . S
C2365 C2361 1.408 . S
C2365 C2364 1.404 . S
C2365 H2377 0.930 . S
C2366 C2362 1.524 . S
C2366 H2378 0.956 . S
C2366 H2379 0.961 . S
C2366 H2380 0.961 . S
C2367 C2364 1.539 . S
C2367 H2381 0.958 . S
C2367 H2382 0.961 . S
C2367 H2383 0.960 . S
H2368 C2352 0.931 . S
H2369 C2357 0.929 . S
H2370 C2358 0.960 . S
H2371 C2358 0.962 . S
H2372 C2358 0.960 . S
H2373 C2359 0.961 . S
H2374 C2359 0.961 . S
H2375 C2359 0.961 . S
H2376 C2360 0.931 . S
H2377 C2365 0.930 . S
H2378 C2366 0.956 . S
H2379 C2366 0.961 . S
H2380 C2366 0.961 . S
H2381 C2367 0.958 . S
H2382 C2367 0.961 . S
H2383 C2367 0.960 . S
C2384 C2385 1.391 . S
C2384 C2386 1.394 . S
C2384 H2400 0.931 . S
C2385 C2384 1.391 . S
C2385 C2389 1.376 . S
C2386 C2384 1.394 . S
C2386 C2387 1.369 . S
C2386 C2390 1.531 . S
C2387 C2386 1.369 . S
C2387 C2388 1.410 . S
C2387 C2395 1.503 . S
C2388 C2387 1.410 . S
C2388 C2389 1.392 . S
C2388 C2391 1.511 . S
C2389 C2385 1.376 . S
C2389 C2388 1.392 . S
C2389 H2401 0.929 . S
C2390 C2386 1.531 . S
C2390 H2402 0.960 . S
C2390 H2403 0.962 . S
C2390 H2404 0.960 . S
C2391 C2388 1.511 . S
C2391 H2405 0.961 . S
C2391 H2406 0.961 . S
C2391 H2407 0.961 . S
C2392 C2393 1.370 . S
C2392 C2394 1.363 . S
C2392 H2408 0.931 . S
C2393 C2392 1.370 . S
C2393 C2397 1.408 . S
C2394 C2392 1.363 . S
C2394 C2395 1.370 . S
C2394 C2398 1.524 . S
C2395 C2387 1.503 . S
C2395 C2394 1.370 . S
C2395 C2396 1.403 . S
C2396 C2395 1.403 . S
C2396 C2397 1.404 . S
C2396 C2399 1.539 . S
C2397 C2393 1.408 . S
C2397 C2396 1.404 . S
C2397 H2409 0.930 . S
C2398 C2394 1.524 . S
C2398 H2410 0.956 . S
C2398 H2411 0.961 . S
C2398 H2412 0.961 . S
C2399 C2396 1.539 . S
C2399 H2413 0.958 . S
C2399 H2414 0.961 . S
C2399 H2415 0.960 . S
H2400 C2384 0.931 . S
H2401 C2389 0.929 . S
H2402 C2390 0.960 . S
H2403 C2390 0.962 . S
H2404 C2390 0.960 . S
H2405 C2391 0.961 . S
H2406 C2391 0.961 . S
H2407 C2391 0.961 . S
H2408 C2392 0.931 . S
H2409 C2397 0.930 . S
H2410 C2398 0.956 . S
H2411 C2398 0.961 . S
H2412 C2398 0.961 . S
H2413 C2399 0.958 . S
H2414 C2399 0.961 . S
H2415 C2399 0.960 . S
C2416 C2417 1.391 . S
C2416 C2418 1.394 1_556 S
C2416 H2432 0.931 1_556 S
C2417 C2416 1.391 . S
C2417 C2421 1.376 . S
C2418 C2416 1.394 1_554 S
C2418 C2419 1.369 1_554 S
C2418 C2422 1.531 . S
C2419 C2418 1.369 1_556 S
C2419 C2420 1.410 . S
C2419 C2427 1.503 . S
C2420 C2419 1.410 . S
C2420 C2421 1.392 . S
C2420 C2423 1.511 . S
C2421 C2417 1.376 . S
C2421 C2420 1.392 . S
C2421 H2433 0.929 . S
C2422 C2418 1.531 . S
C2422 H2434 0.960 . S
C2422 H2435 0.962 . S
C2422 H2436 0.960 . S
C2423 C2420 1.511 . S
C2423 H2437 0.961 . S
C2423 H2438 0.961 . S
C2423 H2439 0.961 . S
C2424 C2425 1.370 . S
C2424 C2426 1.363 . S
C2424 H2440 0.931 . S
C2425 C2424 1.370 . S
C2425 C2429 1.408 1_556 S
C2426 C2424 1.363 . S
C2426 C2427 1.370 . S
C2426 C2430 1.524 . S
C2427 C2419 1.503 . S
C2427 C2426 1.370 . S
C2427 C2428 1.403 1_556 S
C2428 C2427 1.403 1_554 S
C2428 C2429 1.404 . S
C2428 C2431 1.539 . S
C2429 C2425 1.408 1_554 S
C2429 C2428 1.404 . S
C2429 H2441 0.930 . S
C2430 C2426 1.524 . S
C2430 H2442 0.956 . S
C2430 H2443 0.961 . S
C2430 H2444 0.961 . S
C2431 C2428 1.539 . S
C2431 H2445 0.958 . S
C2431 H2446 0.961 . S
C2431 H2447 0.960 . S
H2432 C2416 0.931 1_554 S
H2433 C2421 0.929 . S
H2434 C2422 0.960 . S
H2435 C2422 0.962 . S
H2436 C2422 0.960 . S
H2437 C2423 0.961 . S
H2438 C2423 0.961 . S
H2439 C2423 0.961 . S
H2440 C2424 0.931 . S
H2441 C2429 0.930 . S
H2442 C2430 0.956 . S
H2443 C2430 0.961 . S
H2444 C2430 0.961 . S
H2445 C2431 0.958 . S
H2446 C2431 0.961 . S
H2447 C2431 0.960 . S
C2448 C2449 1.391 . S
C2448 C2450 1.394 . S
C2448 H2464 0.931 . S
C2449 C2448 1.391 . S
C2449 C2453 1.376 . S
C2450 C2448 1.394 . S
C2450 C2451 1.369 . S
C2450 C2454 1.531 . S
C2451 C2450 1.369 . S
C2451 C2452 1.410 . S
C2451 C2459 1.503 . S
C2452 C2451 1.410 . S
C2452 C2453 1.392 . S
C2452 C2455 1.511 . S
C2453 C2449 1.376 . S
C2453 C2452 1.392 . S
C2453 H2465 0.929 . S
C2454 C2450 1.531 . S
C2454 H2466 0.960 . S
C2454 H2467 0.962 . S
C2454 H2468 0.960 . S
C2455 C2452 1.511 . S
C2455 H2469 0.961 . S
C2455 H2470 0.961 . S
C2455 H2471 0.961 . S
C2456 C2457 1.370 . S
C2456 C2458 1.363 . S
C2456 H2472 0.931 . S
C2457 C2456 1.370 . S
C2457 C2461 1.408 . S
C2458 C2456 1.363 . S
C2458 C2459 1.370 . S
C2458 C2462 1.524 . S
C2459 C2451 1.503 . S
C2459 C2458 1.370 . S
C2459 C2460 1.403 . S
C2460 C2459 1.403 . S
C2460 C2461 1.404 . S
C2460 C2463 1.539 . S
C2461 C2457 1.408 . S
C2461 C2460 1.404 . S
C2461 H2473 0.930 . S
C2462 C2458 1.524 . S
C2462 H2474 0.956 . S
C2462 H2475 0.961 . S
C2462 H2476 0.961 . S
C2463 C2460 1.539 . S
C2463 H2477 0.958 . S
C2463 H2478 0.961 . S
C2463 H2479 0.960 . S
H2464 C2448 0.931 . S
H2465 C2453 0.929 . S
H2466 C2454 0.960 . S
H2467 C2454 0.962 . S
H2468 C2454 0.960 . S
H2469 C2455 0.961 . S
H2470 C2455 0.961 . S
H2471 C2455 0.961 . S
H2472 C2456 0.931 . S
H2473 C2461 0.930 . S
H2474 C2462 0.956 . S
H2475 C2462 0.961 . S
H2476 C2462 0.961 . S
H2477 C2463 0.958 . S
H2478 C2463 0.961 . S
H2479 C2463 0.960 . S
C2480 C2481 1.391 . S
C2480 C2482 1.394 . S
C2480 H2496 0.931 . S
C2481 C2480 1.391 . S
C2481 C2485 1.376 . S
C2482 C2480 1.394 . S
C2482 C2483 1.369 . S
C2482 C2486 1.531 . S
C2483 C2482 1.369 . S
C2483 C2484 1.410 . S
C2483 C2491 1.503 . S
C2484 C2483 1.410 . S
C2484 C2485 1.392 . S
C2484 C2487 1.511 1_554 S
C2485 C2481 1.376 . S
C2485 C2484 1.392 . S
C2485 H2497 0.929 1_554 S
C2486 C2482 1.531 . S
C2486 H2498 0.960 . S
C2486 H2499 0.962 . S
C2486 H2500 0.960 . S
C2487 C2484 1.511 1_556 S
C2487 H2501 0.961 . S
C2487 H2502 0.961 . S
C2487 H2503 0.961 . S
C2488 C2489 1.370 1_556 S
C2488 C2490 1.363 1_556 S
C2488 H2504 0.931 . S
C2489 C2488 1.370 1_554 S
C2489 C2493 1.408 . S
C2490 C2488 1.363 1_554 S
C2490 C2491 1.370 . S
C2490 C2494 1.524 1_554 S
C2491 C2483 1.503 . S
C2491 C2490 1.370 . S
C2491 C2492 1.403 . S
C2492 C2491 1.403 . S
C2492 C2493 1.404 . S
C2492 C2495 1.539 . S
C2493 C2489 1.408 . S
C2493 C2492 1.404 . S
C2493 H2505 0.930 . S
C2494 C2490 1.524 1_556 S
C2494 H2506 0.956 1_556 S
C2494 H2507 0.961 . S
C2494 H2508 0.961 . S
C2495 C2492 1.539 . S
C2495 H2509 0.958 . S
C2495 H2510 0.961 . S
C2495 H2511 0.960 . S
H2496 C2480 0.931 . S
H2497 C2485 0.929 1_556 S
H2498 C2486 0.960 . S
H2499 C2486 0.962 . S
H2500 C2486 0.960 . S
H2501 C2487 0.961 . S
H2502 C2487 0.961 . S
H2503 C2487 0.961 . S
H2504 C2488 0.931 . S
H2505 C2493 0.930 . S
H2506 C2494 0.956 1_554 S
H2507 C2494 0.961 . S
H2508 C2494 0.961 . S
H2509 C2495 0.958 . S
H2510 C2495 0.961 . S
H2511 C2495 0.960 . S
C2512 C2513 1.391 . S
C2512 C2514 1.397 . S
C2512 H2528 0.931 1_554 S
C2513 C2512 1.391 . S
C2513 C2517 1.376 . S
C2514 C2512 1.397 . S
C2514 C2515 1.395 . S
C2514 C2518 1.500 1_554 S
C2515 C2514 1.395 . S
C2515 C2516 1.410 . S
C2515 C2523 1.503 . S
C2516 C2515 1.410 . S
C2516 C2517 1.392 . S
C2516 C2519 1.511 . S
C2517 C2513 1.376 . S
C2517 C2516 1.392 . S
C2517 H2529 0.929 . S
C2518 C2514 1.500 1_556 S
C2518 H2530 0.960 . S
C2518 H2531 0.962 . S
C2518 H2532 0.960 . S
C2519 C2516 1.511 . S
C2519 H2533 0.961 . S
C2519 H2534 0.961 . S
C2519 H2535 0.961 . S
C2520 C2521 1.370 . S
C2520 C2522 1.363 . S
C2520 H2536 0.931 . S
C2521 C2520 1.370 . S
C2521 C2525 1.408 . S
C2522 C2520 1.363 . S
C2522 C2523 1.370 . S
C2522 C2526 1.524 . S
C2523 C2515 1.503 . S
C2523 C2522 1.370 . S
C2523 C2524 1.403 . S
C2524 C2523 1.403 . S
C2524 C2525 1.404 . S
C2524 C2527 1.539 1_554 S
C2525 C2521 1.408 . S
C2525 C2524 1.404 . S
C2525 H2537 0.930 1_554 S
C2526 C2522 1.524 . S
C2526 H2538 0.956 . S
C2526 H2539 0.961 . S
C2526 H2540 0.961 . S
C2527 C2524 1.539 1_556 S
C2527 H2541 0.958 . S
C2527 H2542 0.961 . S
C2527 H2543 0.960 1_556 S
H2528 C2512 0.931 1_556 S
H2529 C2517 0.929 . S
H2530 C2518 0.960 . S
H2531 C2518 0.962 . S
H2532 C2518 0.960 . S
H2533 C2519 0.961 . S
H2534 C2519 0.961 . S
H2535 C2519 0.961 . S
H2536 C2520 0.931 . S
H2537 C2525 0.930 1_556 S
H2538 C2526 0.956 . S
H2539 C2526 0.961 . S
H2540 C2526 0.961 . S
H2541 C2527 0.958 . S
H2542 C2527 0.961 . S
H2543 C2527 0.960 1_554 S
C1017 C578 1.434 . S
C1009 C181 1.460 . S
C1049 C626 1.623 . S
C1041 C247 1.678 . S
C1073 C283 1.443 . S
C1081 C662 1.363 . S
C1113 C698 1.574 . S
C1105 C169 1.603 . S
C1145 C724 1.468 . S
C1137 C361 1.487 . S
C1177 C760 1.586 . S
C1169 C433 1.569 . S
C1201 C421 1.493 . S
C1209 C795 1.501 . S
C1241 C832 1.614 1_565 S
C1233 C355 1.619 . S
C1265 C427 1.459 . S
C1273 C866 1.455 . S
C1305 C914 1.569 . S
C1297 C325 1.600 . S
C1329 C385 1.456 . S
C1337 C867 1.459 . S
C1369 C904 1.621 . S
C1361 C463 1.592 . S
C1393 C253 1.475 . S
C1401 C950 1.407 . S
C1425 C145 1.612 . S
C1433 C939 1.627 . S
C1457 C205 1.487 . S
C1465 C940 1.482 . S
C1489 C217 1.640 . S
C1497 C938 1.637 . S
C1521 C139 1.484 . S
C1529 C686 1.453 . S
C1553 C535 1.444 . S
C1561 C687 1.449 . S
C1593 C590 1.594 . S
C1585 C565 1.625 . S
C1625 C615 1.468 . S
C1617 C313 1.468 . S
C1649 C175 1.624 . S
C1657 C722 1.639 . S
C1689 C830 1.463 . S
C1681 C397 1.489 . S
C1721 C723 1.597 . S
C1713 C349 1.600 . S
C1753 C796 1.621 . S
C1745 C457 1.613 . S
C1785 C794 1.430 . S
C1777 C505 1.460 . S
C1809 C571 1.673 . S
C1817 C842 1.629 . S
C1841 C319 1.444 . S
C1849 C734 1.365 . S
C1881 C770 1.587 . S
C1873 C493 1.619 . S
C1905 C109 1.468 . S
C1913 C652 1.476 . S
C1945 C688 1.579 . S
C1937 C1 1.578 . S
C1977 C579 1.502 . S
C1969 C61 1.491 . S
C2009 C616 1.619 . S
C2001 C103 1.616 . S
C2033 C67 1.457 . S
C2041 C902 1.448 . S
C2065 C73 1.605 . S
C2073 C878 1.549 . S
C2097 C133 1.461 . S
C2105 C903 1.458 . S
C2129 C31 1.618 . S
C2137 C868 1.616 . S
C2169 C986 1.400 . S
C2161 C289 1.483 . S
C2201 C975 1.625 . S
C2193 C469 1.615 . S
C2233 C976 1.477 . S
C2225 C529 1.493 . S
C2257 C541 1.645 . S
C2265 C974 1.643 . S
C2289 C391 1.468 . S
C2297 C758 1.469 . S
C2329 C759 1.448 . S
C2321 C211 1.452 . S
C2361 C806 1.584 . S
C2353 C241 1.632 . S
C2393 C831 1.468 . S
C2385 C277 1.477 . S
C2417 C499 1.628 . S
C2425 C650 1.638 1_556 S
C2457 C614 1.462 . S
C2449 C37 1.488 . S
C2481 C97 1.590 . S
C2489 C651 1.590 . S
C2521 C580 1.624 . S
C2513 C25 1.602 . S
