# Generated by pormake.
# Topology tsx, (6,3)-cn, num edge types: 1
# Building blocks:
#     Node 0, Type 0, BuildingBlock: JUFBIX_clean_sbu_0, # of connection points: 6
#     Node 1, Type 0, BuildingBlock: JUFBIX_clean_sbu_0, # of connection points: 6
#     Node 2, Type 1, BuildingBlock: VETTIZ_charged_linker_0, # of connection points: 3
#     Node 3, Type 1, BuildingBlock: VETTIZ_charged_linker_0, # of connection points: 3
#     Node 4, Type 1, BuildingBlock: VETTIZ_charged_linker_0, # of connection points: 3
#     Node 5, Type 1, BuildingBlock: VETTIZ_charged_linker_0, # of connection points: 3
#     Edge 6, Type (0, 1), BuildingBlock: FUNLAD_clean_linker_0, # of connection points: 2
#     Edge 7, Type (0, 1), BuildingBlock: FUNLAD_clean_linker_0, # of connection points: 2
#     Edge 8, Type (0, 1), BuildingBlock: FUNLAD_clean_linker_0, # of connection points: 2
#     Edge 9, Type (0, 1), BuildingBlock: FUNLAD_clean_linker_0, # of connection points: 2
#     Edge 10, Type (0, 1), BuildingBlock: FUNLAD_clean_linker_0, # of connection points: 2
#     Edge 11, Type (0, 1), BuildingBlock: FUNLAD_clean_linker_0, # of connection points: 2
#     Edge 12, Type (0, 1), BuildingBlock: FUNLAD_clean_linker_0, # of connection points: 2
#     Edge 13, Type (0, 1), BuildingBlock: FUNLAD_clean_linker_0, # of connection points: 2
#     Edge 14, Type (0, 1), BuildingBlock: FUNLAD_clean_linker_0, # of connection points: 2
#     Edge 15, Type (0, 1), BuildingBlock: FUNLAD_clean_linker_0, # of connection points: 2
#     Edge 16, Type (0, 1), BuildingBlock: FUNLAD_clean_linker_0, # of connection points: 2
#     Edge 17, Type (0, 1), BuildingBlock: FUNLAD_clean_linker_0, # of connection points: 2
# Relax obj value: 0.163
# Max RMSD: 0.168
# Mean RMSD: 0.136
data_MOF--net-tsx--node1-JUFBIX_clean_sbu_0--node2-VETTIZ_charged_linker_0--edge1-FUNLAD_clean_linker_0
_symmetry_space_group_name_H-M    P1
_symmetry_Int_Tables_number       1
_symmetry_cell_setting            triclinic
loop_
_symmetry_equiv_pos_as_xyz
'x, y, z'
_cell_length_a     26.581369
_cell_length_b     31.406937
_cell_length_c     50.245886
_cell_angle_alpha  92.268203
_cell_angle_beta   89.604738
_cell_angle_gamma 97.163199
loop_
_atom_site_label
_atom_site_type_symbol
_atom_site_fract_x
_atom_site_fract_y
_atom_site_fract_z
_atom_type_partial_charge
Co0 Co 0.07623 0.98749 -0.00151 0.0
C1 C 0.02147 1.00391 0.95363 0.0
Co2 Co 0.01545 0.02837 0.00645 0.0
C3 C 0.13591 0.91594 -0.00062 0.0
C4 C 0.16815 0.96557 0.97414 0.0
N5 N 0.12869 0.9549 0.99061 0.0
N6 N 0.17845 0.90216 0.98914 0.0
C7 C 0.19885 0.93341 0.97331 0.0
H8 H 0.11056 0.89804 0.01305 0.0
H9 H 0.17395 0.99464 0.96308 0.0
C10 C 0.06996 0.01305 0.05131 0.0
N11 N 0.96313 0.06038 0.01473 0.0
C12 C 0.94707 0.09266 0.00145 0.0
C13 C 0.93195 0.05529 0.03596 0.0
N14 N 0.90694 0.10784 0.01354 0.0
C15 C 0.89744 0.08434 0.03528 0.0
C16 C 0.98513 0.94044 0.01025 0.0
O17 O 0.09327 0.98951 0.03555 0.0
O18 O 0.03529 0.03273 0.04227 0.0
O19 O 0.97162 0.97772 0.01303 0.0
O20 O 0.03033 0.93646 0.00316 0.0
O21 O 0.99624 0.024 0.9704 0.0
H22 H 0.93416 0.03185 0.05098 0.0
H23 H 0.96406 0.10425 0.98305 0.0
O24 O 0.05864 0.98589 0.96164 0.0
O25 O 0.12131 0.03939 -0.00602 0.0
O26 O 0.05948 0.07893 -2e-05 0.0
C27 C 0.10595 0.07622 -0.00488 0.0
H28 H 0.23275 0.93248 0.96134 0.0
H29 H 0.86807 0.08815 0.04989 0.0
Co30 Co 0.54299 0.49573 0.5006 0.0
C31 C 0.48937 0.51938 0.45667 0.0
Co32 Co 0.47862 0.53221 0.51021 0.0
C33 C 0.60922 0.42802 0.49794 0.0
C34 C 0.6317 0.47896 0.47162 0.0
N35 N 0.59706 0.46634 0.49035 0.0
N36 N 0.64981 0.41617 0.48444 0.0
C37 C 0.66402 0.44835 0.46796 0.0
H38 H 0.58769 0.40857 0.51241 0.0
H39 H 0.63277 0.50825 0.46088 0.0
C40 C 0.53129 0.50861 0.55416 0.0
N41 N 0.42449 0.56117 0.52045 0.0
C42 C 0.4099 0.59722 0.51079 0.0
C43 C 0.39095 0.55003 0.53998 0.0
N44 N 0.36848 0.60902 0.52353 0.0
C45 C 0.35659 0.57928 0.54192 0.0
C46 C 0.45216 0.44351 0.50687 0.0
O47 O 0.55977 0.49234 0.53717 0.0
O48 O 0.49449 0.52697 0.54627 0.0
O49 O 0.43563 0.47951 0.51065 0.0
O50 O 0.49915 0.44268 0.5022 0.0
O51 O 0.46309 0.53702 0.47409 0.0
H52 H 0.3916 0.52244 0.55214 0.0
H53 H 0.42907 0.61409 0.49451 0.0
O54 O 0.52552 0.4996 0.46408 0.0
O55 O 0.58591 0.54928 0.49923 0.0
O56 O 0.52217 0.58491 0.50962 0.0
C57 C 0.56887 0.58493 0.50397 0.0
H58 H 0.69548 0.44965 0.45409 0.0
H59 H 0.32572 0.57891 0.55609 0.0
C60 C 0.07306 0.90738 0.46865 0.0
C61 C 0.10903 0.88097 0.45928 0.0
C62 C 0.11985 0.87836 0.43189 0.0
C63 C 0.06194 0.92976 0.42354 0.0
C64 C 0.05031 0.93193 0.45037 0.0
C65 C 0.01378 0.96424 0.4565 0.0
H66 H 0.87836 0.11653 0.4103 0.0
C67 C 0.03456 0.96056 0.40993 0.0
C68 C 1.00592 0.98103 0.42898 0.0
H69 H 0.88009 0.07323 0.49076 0.0
H70 H 0.93885 0.0228 0.47729 0.0
H71 H 0.9956 0.12056 0.39985 0.0
H72 H 0.87111 0.02275 0.38153 0.0
H73 H 0.91076 0.02705 0.35337 0.0
H74 H 0.88095 0.07279 0.36503 0.0
H75 H 0.95309 0.12474 0.37276 0.0
H76 H 0.00886 0.09768 0.36856 0.0
C77 C 0.04066 0.99959 0.47545 0.0
C78 C 0.96447 0.94046 0.46803 0.0
C79 C 0.06237 0.9775 0.31082 0.0
C80 C 0.04635 1.00577 0.29266 0.0
C81 C 0.01488 0.03638 0.3016 0.0
C82 C 0.99928 0.03852 0.32829 0.0
C83 C 0.01568 0.00998 0.34629 0.0
C84 C 0.04698 0.9804 0.33742 0.0
C85 C 0.06287 0.95413 0.35943 0.0
C86 C 0.03514 0.97222 0.38297 0.0
C87 C 1.00734 1.00463 0.37517 0.0
C88 C 0.12144 0.96361 0.36235 0.0
C89 C 0.04265 0.90643 0.35284 0.0
C90 C 0.89111 0.09606 0.42507 0.0
C91 C 0.87435 0.09867 0.45158 0.0
C92 C 0.89277 0.07201 0.47025 0.0
C93 C 0.92673 0.04276 0.46239 0.0
C94 C 0.94288 0.04052 0.43567 0.0
C95 C 0.9249 0.06705 0.4176 0.0
C96 C 0.94525 0.06057 0.39001 0.0
C97 C 0.97803 0.02535 0.39422 0.0
C98 C 0.97694 0.01362 0.42101 0.0
C99 C 0.97713 0.103 0.38211 0.0
C100 C 0.89992 0.04525 0.37129 0.0
H101 H 0.10658 0.89881 0.39347 0.0
H102 H 0.06416 0.90978 0.48968 0.0
H103 H 0.95623 0.90752 0.45886 0.0
H104 H 0.93082 0.95634 0.46368 0.0
H105 H 0.96751 0.93746 0.4899 0.0
H106 H 0.07857 0.01193 0.46742 0.0
H107 H 0.04646 0.9864 0.4952 0.0
H108 H 0.0198 0.02763 0.47822 0.0
H109 H 0.08729 0.95416 0.30457 0.0
H110 H 1.0019 0.05835 0.28784 0.0
H111 H 0.97515 0.06236 0.33386 0.0
H112 H 0.13623 0.9956 0.35477 0.0
H113 H 0.14088 0.93926 0.35107 0.0
H114 H 0.13396 0.96529 0.38336 0.0
H115 H 1.00438 0.9036 0.3436 0.0
H116 H 0.03749 0.88686 0.37067 0.0
H117 H 0.0681 0.89159 0.33858 0.0
H118 H 0.1469 0.85773 0.4243 0.0
C119 C 0.09635 0.9023 0.41401 0.0
C120 C 0.07716 0.13216 0.55221 0.0
C121 C 0.11167 0.16273 0.56607 0.0
C122 C 0.10673 0.16808 0.59391 0.0
C123 C 0.0352 0.11226 0.59382 0.0
C124 C 0.03943 0.10719 0.5665 0.0
C125 C 1.00054 0.07215 0.55525 0.0
H126 H 0.79961 0.92117 0.57781 0.0
C127 C 0.99261 0.08137 0.60275 0.0
C128 C 0.97122 0.05826 0.58019 0.0
H129 H 0.87016 0.95144 0.50215 0.0
H130 H 0.92933 0.00721 0.52397 0.0
H131 H 0.89903 0.92093 0.60826 0.0
H132 H 0.80156 0.01919 0.60146 0.0
H133 H 0.81969 0.01943 0.63506 0.0
H134 H 0.78496 0.97168 0.61993 0.0
H135 H 0.84186 0.92091 0.6274 0.0
H136 H 0.9016 0.94848 0.6393 0.0
C137 C 0.02941 0.03603 0.54352 0.0
C138 C 0.96745 0.09158 0.53482 0.0
C139 C 0.95882 0.06677 0.70178 0.0
C140 C 0.92429 0.03892 0.71624 0.0
C141 C 0.88709 0.01084 0.70235 0.0
C142 C 0.88531 0.00956 0.67448 0.0
C143 C 0.92134 0.0364 0.66026 0.0
C144 C 0.95676 0.06486 0.67392 0.0
C145 C 0.99247 0.09048 0.65551 0.0
C146 C 0.97331 0.07197 0.62854 0.0
C147 C 0.9318 0.04033 0.63149 0.0
C148 C 0.04696 0.08043 0.66119 0.0
C149 C 0.98492 0.13849 0.65954 0.0
C150 C 0.82744 0.94018 0.56588 0.0
C151 C 0.83021 0.93232 0.53829 0.0
C152 C 0.86769 0.95696 0.5235 0.0
C153 C 0.90185 0.98919 0.53618 0.0
C154 C 0.89889 0.99631 0.56397 0.0
C155 C 0.86204 0.9718 0.57824 0.0
C156 C 0.86533 0.98197 0.60763 0.0
C157 C 0.90962 0.01729 0.60879 0.0
C158 C 0.92925 0.02589 0.58322 0.0
C159 C 0.87721 0.94111 0.62158 0.0
C160 C 0.81528 0.9987 0.61674 0.0
H161 H 0.06713 0.14899 0.62893 0.0
H162 H 0.08001 0.12729 0.53082 0.0
H163 H 0.96314 0.12553 0.54049 0.0
H164 H 0.92835 0.07493 0.53385 0.0
H165 H 0.98464 0.09101 0.51461 0.0
H166 H 0.0569 0.02709 0.55828 0.0
H167 H 0.05125 0.04704 0.52564 0.0
H168 H 1.00447 1.00626 0.53822 0.0
H169 H 0.98814 0.08846 0.71185 0.0
H170 H 0.85957 0.98955 0.71307 0.0
H171 H 0.85644 0.98714 0.66511 0.0
H172 H 0.04686 0.04587 0.66535 0.0
H173 H 0.06342 0.09955 0.67881 0.0
H174 H 0.073 0.086 0.64415 0.0
H175 H 0.9454 0.14216 0.66581 0.0
H176 H 0.99044 0.15626 0.64097 0.0
H177 H 0.01071 0.15477 0.67514 0.0
H178 H 0.13208 0.19198 0.605 0.0
C179 C 0.0687 0.14324 0.60779 0.0
C180 C 0.61554 0.40655 0.95357 0.0
C181 C 0.65506 0.38601 0.94208 0.0
C182 C 0.67086 0.39539 0.91592 0.0
C183 C 0.61036 0.44649 0.91347 0.0
C184 C 0.59394 0.43687 0.93892 0.0
C185 C 0.55381 0.46401 0.94836 0.0
H186 H 0.41683 0.62765 0.9238 0.0
C187 C 0.58285 0.481 0.90421 0.0
C188 C 0.55014 0.49221 0.92467 0.0
H189 H 0.41459 0.55609 -0.00454 0.0
H190 H 0.47549 0.51219 0.97586 0.0
H191 H 0.53335 0.63861 0.91529 0.0
H192 H 0.4155 0.54498 0.88296 0.0
H193 H 0.45752 0.55923 0.8568 0.0
H194 H 0.42449 0.59972 0.87313 0.0
H195 H 0.49184 0.65079 0.88941 0.0
H196 H 0.54995 0.62843 0.88198 0.0
C197 C 0.5734 0.49016 0.97369 0.0
C198 C 0.50422 0.43376 0.95253 0.0
C199 C 0.60991 0.52927 0.80955 0.0
C200 C 0.58862 0.55954 0.79473 0.0
C201 C 0.55773 0.58721 0.80788 0.0
C202 C 0.54567 0.58294 0.8349 0.0
C203 C 0.56471 0.5507 0.849 0.0
C204 C 0.59747 0.52544 0.83651 0.0
C205 C 0.61478 0.49339 0.8547 0.0
C206 C 0.58519 0.50234 0.87983 0.0
C207 C 0.55576 0.53567 0.87632 0.0
C208 C 0.67289 0.50448 0.85873 0.0
C209 C 0.59799 0.44774 0.84249 0.0
C210 C 0.42897 0.60218 0.93518 0.0
C211 C 0.41106 0.5952 0.96117 0.0
C212 C 0.42843 0.56221 0.97548 0.0
C213 C 0.4636 0.5368 0.96404 0.0
C214 C 0.48196 0.54486 0.93814 0.0
C215 C 0.4642 0.577 0.92419 0.0
C216 C 0.48738 0.58155 0.897 0.0
C217 C 0.52264 0.54725 0.89687 0.0
C218 C 0.51949 0.52561 0.92094 0.0
C219 C 0.51697 0.62722 0.89557 0.0
C220 C 0.44428 0.57119 0.87622 0.0
H221 H 0.66295 0.43116 0.8819 0.0
H222 H 0.60289 0.40016 0.97372 0.0
H223 H 0.49607 0.41164 0.93482 0.0
H224 H 0.47079 0.45102 0.95523 0.0
H225 H 0.50756 0.41379 0.97003 0.0
H226 H 0.61508 0.49973 0.97261 0.0
H227 H 0.56545 0.47091 -0.00837 0.0
H228 H 0.5571 0.52062 0.97637 0.0
H229 H 0.63359 0.50737 0.80011 0.0
H230 H 0.54172 0.61146 0.79707 0.0
H231 H 0.52098 0.60426 0.84355 0.0
H232 H 0.68586 0.53883 0.85507 0.0
H233 H 0.69435 0.48486 0.84494 0.0
H234 H 0.68466 0.50026 0.87946 0.0
H235 H 0.55932 0.44572 0.83381 0.0
H236 H 0.59531 0.42248 0.85726 0.0
H237 H 0.62419 0.43942 0.82632 0.0
H238 H 0.70053 0.3794 0.90647 0.0
C239 C 0.64886 0.42544 0.90163 0.0
C240 C 0.6244 0.61739 0.04983 0.0
C241 C 0.6536 0.65193 0.06343 0.0
C242 C 0.63974 0.66352 0.08962 0.0
C243 C 0.57271 0.604 0.0894 0.0
C244 C 0.58413 0.5939 0.06324 0.0
C245 C 0.54968 0.55549 0.05236 0.0
H246 H 0.37604 0.38432 0.07811 0.0
C247 C 0.53177 0.57165 0.09834 0.0
C248 C 0.51748 0.54318 0.07668 0.0
H249 H 0.44096 0.41823 0.00177 0.0
H250 H 0.48648 0.48348 0.02174 0.0
H251 H 0.47427 0.40963 0.11226 0.0
H252 H 0.34974 0.47875 0.09427 0.0
H253 H 0.36548 0.49172 0.12774 0.0
H254 H 0.34422 0.43664 0.11762 0.0
H255 H 0.41262 0.39774 0.12691 0.0
H256 H 0.46004 0.43747 0.14173 0.0
C257 C 0.58286 0.52034 0.04367 0.0
C258 C 0.51774 0.57052 0.02977 0.0
C259 C 0.48847 0.56757 0.19668 0.0
C260 C 0.45825 0.53763 0.21191 0.0
C261 C 0.42673 0.50402 0.19871 0.0
C262 C 0.4274 0.49906 0.17087 0.0
C263 C 0.46028 0.52773 0.15606 0.0
C264 C 0.48921 0.56183 0.16896 0.0
C265 C 0.52314 0.58831 0.15021 0.0
C266 C 0.51029 0.5641 0.1239 0.0
C267 C 0.47372 0.52861 0.12747 0.0
C268 C 0.57881 0.58632 0.15873 0.0
C269 C 0.50709 0.63415 0.15064 0.0
C270 C 0.40016 0.4058 0.0657 0.0
C271 C 0.4061 0.39586 0.03851 0.0
C272 C 0.43659 0.42515 0.02285 0.0
C273 C 0.4628 0.46293 0.0345 0.0
C274 C 0.45769 0.47174 0.06202 0.0
C275 C 0.42569 0.44376 0.07691 0.0
C276 C 0.42306 0.45844 0.10558 0.0
C277 C 0.45893 0.49985 0.10567 0.0
C278 C 0.47994 0.50734 0.08025 0.0
C279 C 0.44313 0.42415 0.12272 0.0
C280 C 0.3678 0.46661 0.11189 0.0
H281 H 0.59155 0.65014 0.1226 0.0
H282 H 0.63361 0.60808 0.02957 0.0
H283 H 0.50739 0.60324 0.03451 0.0
H284 H 0.48119 0.55007 0.02705 0.0
H285 H 0.53903 0.5718 0.01069 0.0
H286 H 0.61053 0.5161 0.05957 0.0
H287 H 0.6047 0.52931 0.02539 0.0
H288 H 0.56086 0.48858 0.04004 0.0
H289 H 0.51252 0.59416 0.20619 0.0
H290 H 0.40327 0.48033 0.20992 0.0
H291 H 0.4036 0.47215 0.16207 0.0
H292 H 0.5837 0.5538 0.16553 0.0
H293 H 0.59003 0.60973 0.17543 0.0
H294 H 0.60643 0.59193 0.1424 0.0
H295 H 0.46599 0.6336 0.15521 0.0
H296 H 0.512 0.64911 0.13106 0.0
H297 H 0.52841 0.65545 0.16598 0.0
H298 H 0.66041 0.69085 0.10024 0.0
C299 C 0.59949 0.63994 0.10257 0.0
C300 C 0.19431 0.11336 0.98914 0.0
C301 C 0.14206 0.11566 -0.00792 0.0
C302 C 0.22869 0.15085 0.98838 0.0
C303 C 0.21151 0.19149 0.99065 0.0
C304 C 0.15914 0.19366 -0.00774 0.0
C305 C 0.1248 0.15622 -0.00689 0.0
C306 C 0.24684 0.23219 -0.00757 0.0
C307 C 0.29383 0.23461 0.00274 0.0
C308 C 0.3255 0.27596 0.00959 0.0
C309 C 0.35883 0.2775 0.03122 0.0
C310 C 0.38599 0.3163 0.04004 0.0
C311 C 0.38114 0.3544 0.02711 0.0
H312 H 0.29801 0.31353 0.9786 0.0
C313 C 0.35009 0.35268 0.00449 0.0
C314 C 0.32225 0.31378 -0.00416 0.0
H315 H 0.34596 0.38163 -0.00588 0.0
H316 H 0.20881 0.0826 0.98794 0.0
H317 H 0.26861 0.14778 0.98618 0.0
H318 H 0.14478 0.22447 -0.00624 0.0
H319 H 0.08476 0.15917 -0.00489 0.0
H320 H 0.23149 0.2616 0.98803 0.0
H321 H 0.30736 0.20566 0.0095 0.0
H322 H 0.36253 0.24883 0.04199 0.0
H323 H 0.41026 0.31668 0.05731 0.0
C324 C 0.24939 0.85889 -0.00776 0.0
C325 C 0.19703 0.86157 -0.00731 0.0
C326 C 0.26768 0.81913 -0.00688 0.0
C327 C 0.23389 0.781 -0.00569 0.0
C328 C 0.18155 0.78377 -0.00467 0.0
C329 C 0.16328 0.8237 -0.00516 0.0
C330 C 0.25202 0.73808 -0.00851 0.0
C331 C 0.29851 0.73062 -0.00079 0.0
C332 C 0.32099 0.69073 -0.00837 0.0
C333 C 0.36142 0.67947 0.00665 0.0
C334 C 0.38865 0.64622 -0.00228 0.0
C335 C 0.37651 0.62417 0.9733 0.0
H336 H 0.27706 0.67507 0.95542 0.0
C337 C 0.33468 0.63407 0.95887 0.0
C338 C 0.30714 0.66689 0.96792 0.0
H339 H 0.32456 0.61753 0.93996 0.0
H340 H 0.27623 0.88759 0.9907 0.0
H341 H 0.30819 0.81835 -0.0084 0.0
H342 H 0.15467 0.7549 -0.00406 0.0
H343 H 0.12273 0.82478 -0.00506 0.0
H344 H 0.22648 0.71218 0.98214 0.0
H345 H 0.322 0.75527 0.01086 0.0
H346 H 0.37317 0.69748 0.02486 0.0
H347 H 0.42105 0.63952 0.00909 0.0
C348 C 0.95338 0.8617 0.0052 0.0
C349 C 0.94865 0.90274 0.01641 0.0
C350 C 0.91793 0.82651 0.01131 0.0
C351 C 0.87803 0.83188 0.02919 0.0
C352 C 0.87392 0.87274 0.04058 0.0
C353 C 0.90837 0.90789 0.03399 0.0
C354 C 0.84154 0.79546 0.03766 0.0
C355 C 0.82227 0.76266 0.02124 0.0
C356 C 0.78204 0.72962 0.03068 0.0
C357 C 0.74002 0.71528 0.01446 0.0
C358 C 0.69866 0.68865 0.02464 0.0
C359 C 0.69909 0.67572 0.05111 0.0
H360 H 0.81646 0.72364 0.06914 0.0
C361 C 0.74287 0.68762 0.06655 0.0
C362 C 0.78381 0.71428 0.05648 0.0
H363 H 0.74509 0.67701 0.08672 0.0
H364 H 0.98418 0.8569 -0.00839 0.0
H365 H 0.92244 0.7951 0.00263 0.0
H366 H 0.84371 0.87755 0.05456 0.0
H367 H 0.90396 0.93906 0.04311 0.0
H368 H 0.82671 0.79775 0.05783 0.0
H369 H 0.83246 0.76238 0.00025 0.0
H370 H 0.7381 0.72638 -0.0056 0.0
H371 H 0.66557 0.67982 0.01222 0.0
C372 C 0.8288 0.14308 0.01264 0.0
C373 C 0.87969 0.14188 0.00512 0.0
C374 C 0.80239 0.17623 0.00475 0.0
C375 C 0.82644 0.20919 0.98922 0.0
C376 C 0.8771 0.20766 0.98149 0.0
C377 C 0.90348 0.17451 0.98937 0.0
C378 C 0.80006 0.24489 0.97987 0.0
C379 C 0.7567 0.25643 0.99044 0.0
C380 C 0.73142 0.29192 0.97995 0.0
C381 C 0.67848 0.29046 0.98206 0.0
C382 C 0.65342 0.32189 0.97063 0.0
C383 C 0.68104 0.35537 0.957 0.0
H384 H 0.80012 0.33047 0.96682 0.0
C385 C 0.73418 0.35817 0.95627 0.0
C386 C 0.75914 0.32697 0.96772 0.0
H387 H 0.75652 0.38434 0.94654 0.0
H388 H 0.80896 0.11796 0.02427 0.0
H389 H 0.76301 0.17517 0.01048 0.0
H390 H 0.89658 0.23244 0.96941 0.0
H391 H 0.94272 0.17483 0.98343 0.0
H392 H 0.81762 0.26243 0.96332 0.0
H393 H 0.73792 0.23883 0.00661 0.0
H394 H 0.6563 0.26417 -0.00823 0.0
H395 H 0.61241 0.31907 0.97155 0.0
C396 C 0.58437 0.6653 0.50885 0.0
C397 C 0.60304 0.62599 0.50313 0.0
C398 C 0.61673 0.704 0.5088 0.0
C399 C 0.66868 0.7044 0.5028 0.0
C400 C 0.68715 0.66506 0.49695 0.0
C401 C 0.65477 0.62634 0.49701 0.0
C402 C 0.70536 0.7445 0.50427 0.0
C403 C 0.69177 0.78448 0.504 0.0
C404 C 0.72781 0.82396 0.5096 0.0
C405 C 0.70936 0.85929 0.52255 0.0
C406 C 0.74248 0.89538 0.53077 0.0
C407 C 0.79471 0.89732 0.52569 0.0
H408 H 0.79515 0.80069 0.49258 0.0
C409 C 0.81296 0.86331 0.51116 0.0
C410 C 0.77983 0.82677 0.50326 0.0
H411 H 0.85311 0.86411 0.50701 0.0
H412 H 0.54477 0.6662 0.51379 0.0
H413 H 0.60081 0.73315 0.51426 0.0
H414 H 0.72696 0.6642 0.49249 0.0
H415 H 0.67046 0.59665 0.49251 0.0
H416 H 0.7451 0.74065 0.50667 0.0
H417 H 0.65222 0.78881 0.50173 0.0
H418 H 0.66945 0.85822 0.5274 0.0
H419 H 0.72747 0.92134 0.54181 0.0
C420 C 0.69502 0.35964 0.46321 0.0
C421 C 0.67202 0.37662 0.48584 0.0
C422 C 0.71782 0.32206 0.46439 0.0
C423 C 0.71818 0.3002 0.48829 0.0
C424 C 0.69556 0.31726 0.51104 0.0
C425 C 0.67221 0.35485 0.50977 0.0
C426 C 0.74393 0.26081 0.48999 0.0
C427 C 0.74598 0.23287 0.46902 0.0
C428 C 0.77531 0.19532 0.46796 0.0
C429 C 0.7656 0.16499 0.44676 0.0
C430 C 0.79622 0.1324 0.44239 0.0
C431 C 0.83769 0.12925 0.45907 0.0
H432 H 0.82462 0.21393 0.50194 0.0
C433 C 0.84607 0.15805 0.4812 0.0
C434 C 0.81531 0.19097 0.48557 0.0
H435 H 0.87795 0.15653 0.49429 0.0
H436 H 0.69528 0.37535 0.44442 0.0
H437 H 0.73612 0.31077 0.44662 0.0
H438 H 0.69579 0.3014 0.52978 0.0
H439 H 0.65529 0.36739 0.52762 0.0
H440 H 0.76061 0.25468 0.50889 0.0
H441 H 0.72494 0.23784 0.45117 0.0
H442 H 0.73507 0.16729 0.43291 0.0
H443 H 0.78832 0.11031 0.4254 0.0
C444 C 0.36441 0.40535 0.51129 0.0
C445 C 0.4168 0.40339 0.50881 0.0
C446 C 0.33077 0.3682 0.51487 0.0
C447 C 0.34866 0.32799 0.51601 0.0
C448 C 0.40096 0.32593 0.5132 0.0
C449 C 0.43471 0.36318 0.50943 0.0
C450 C 0.31435 0.28865 0.52261 0.0
C451 C 0.26401 0.28367 0.51788 0.0
C452 C 0.22781 0.2483 0.52849 0.0
C453 C 0.17929 0.23934 0.51711 0.0
C454 C 0.14208 0.21013 0.52858 0.0
C455 C 0.15248 0.18968 0.55192 0.0
H456 H 0.27506 0.23305 0.56113 0.0
C457 C 0.2015 0.19751 0.5628 0.0
C458 C 0.23871 0.22651 0.55129 0.0
H459 H 0.21079 0.18191 0.58065 0.0
H460 H 0.34931 0.43581 0.51101 0.0
H461 H 0.29108 0.37155 0.51779 0.0
H462 H 0.41585 0.29547 0.5143 0.0
H463 H 0.47487 0.36061 0.5077 0.0
H464 H 0.33135 0.26338 0.532 0.0
H465 H 0.24805 0.30701 0.50615 0.0
H466 H 0.16966 0.25589 0.49969 0.0
H467 H 0.10455 0.20501 0.51986 0.0
C468 C 0.2909 0.64534 0.52583 0.0
C469 C 0.34217 0.64548 0.51858 0.0
C470 C 0.26512 0.68037 0.52082 0.0
C471 C 0.29011 0.71657 0.50848 0.0
C472 C 0.34129 0.71669 0.50126 0.0
C473 C 0.36708 0.68171 0.50632 0.0
C474 C 0.26368 0.7535 0.50112 0.0
C475 C 0.21963 0.76308 0.51199 0.0
C476 C 0.19212 0.79779 0.50207 0.0
C477 C 0.13896 0.79404 0.5043 0.0
C478 C 0.1115 0.82308 0.49197 0.0
C479 C 0.13695 0.85633 0.47734 0.0
H480 H 0.25847 0.83879 0.48827 0.0
C481 C 0.19015 0.8621 0.47689 0.0
C482 C 0.21752 0.83342 0.48932 0.0
H483 H 0.21053 0.88795 0.46598 0.0
H484 H 0.27014 0.61771 0.53482 0.0
H485 H 0.22534 0.67817 0.52595 0.0
H486 H 0.36148 0.74399 0.49158 0.0
H487 H 0.40663 0.68326 0.50075 0.0
H488 H 0.28124 0.77297 0.4854 0.0
H489 H 0.20133 0.74351 0.52746 0.0
H490 H 0.11847 0.76731 0.51438 0.0
H491 H 0.07044 0.81803 0.49251 0.0
C492 C 0.10769 0.98852 0.09299 0.0
C493 C 0.08187 0.01808 0.07999 0.0
C494 C 0.11446 0.99224 0.12067 0.0
C495 C 0.09572 0.0258 0.13564 0.0
C496 C 0.07231 0.05636 0.1223 0.0
C497 C 0.06511 0.05241 0.09489 0.0
C498 C 0.09785 0.02985 0.16513 0.0
C499 C 0.09887 0.9963 0.18092 0.0
C500 C 0.08989 0.99939 0.21016 0.0
C501 C 0.07179 0.96186 0.2233 0.0
C502 C 0.05833 0.96381 0.2502 0.0
C503 C 0.06259 1.00343 0.26449 0.0
H504 H 0.11249 0.06827 0.21606 0.0
C505 C 0.08248 0.04078 0.25174 0.0
C506 C 0.09658 0.03879 0.22495 0.0
H507 H 0.08737 0.07154 0.26256 0.0
H508 H 0.12136 0.96196 0.08192 0.0
H509 H 0.13403 0.96876 0.1302 0.0
H510 H 0.05795 0.08276 0.13324 0.0
H511 H 0.04568 0.07611 0.08542 0.0
H512 H 0.09202 0.06094 0.17394 0.0
H513 H 0.1005 0.96449 0.17192 0.0
H514 H 0.06662 0.93105 0.21254 0.0
H515 H 0.04325 0.93449 0.25965 0.0
C516 C 0.96867 0.02441 0.91638 0.0
C517 C 1.0081 1.00245 0.92509 0.0
C518 C 0.95667 0.02421 0.88938 0.0
C519 C 0.98407 1.00218 0.87045 0.0
C520 C 0.0226 0.97935 0.87921 0.0
C521 C 0.03475 0.97965 0.90625 0.0
C522 C 0.97285 1.00178 0.84155 0.0
C523 C 0.95307 0.03393 0.83 0.0
C524 C 0.94381 0.03436 0.80094 0.0
C525 C 0.94543 0.07397 0.78878 0.0
C526 C 0.9384 0.07558 0.76132 0.0
C527 C 0.92886 0.03751 0.74556 0.0
H528 H 0.92976 0.96512 0.79407 0.0
C529 C 0.9256 0.99785 0.75786 0.0
C530 C 0.93291 0.99625 0.78527 0.0
H531 H 0.91852 0.96796 0.74622 0.0
H532 H 0.94705 0.04196 0.93041 0.0
H533 H 0.92556 0.04095 0.88353 0.0
H534 H 0.04391 0.96174 0.86505 0.0
H535 H 0.06514 0.96221 0.91233 0.0
H536 H 0.98429 0.97542 0.82925 0.0
H537 H 0.94648 0.06238 0.84187 0.0
H538 H 0.95309 0.10379 0.80047 0.0
H539 H 0.94047 0.10661 0.75242 0.0
C540 C 0.58822 0.50594 0.59356 0.0
C541 C 0.53956 0.50649 0.58296 0.0
C542 C 0.59541 0.50821 0.62121 0.0
C543 C 0.55375 0.51032 0.63847 0.0
C544 C 0.50504 0.50873 0.62771 0.0
C545 C 0.49806 0.50733 0.60028 0.0
C546 C 0.55867 0.51502 0.66776 0.0
C547 C 0.59948 0.5358 0.68047 0.0
C548 C 0.59814 0.54565 0.70954 0.0
C549 C 0.64165 0.54476 0.72503 0.0
C550 C 0.63945 0.55098 0.75274 0.0
C551 C 0.59379 0.55877 0.7653 0.0
H552 H 0.51969 0.55859 0.71051 0.0
C553 C 0.55118 0.56208 0.74951 0.0
C554 C 0.5534 0.55588 0.72198 0.0
H555 H 0.51531 0.56776 0.75846 0.0
H556 H 0.62076 0.50516 0.58052 0.0
H557 H 0.63332 0.50836 0.62895 0.0
H558 H 0.47231 0.50995 0.64057 0.0
H559 H 0.46004 0.50731 0.59263 0.0
H560 H 0.52515 0.50391 0.67928 0.0
H561 H 0.6339 0.54643 0.66959 0.0
H562 H 0.67683 0.53782 0.7158 0.0
H563 H 0.67317 0.5489 0.76435 0.0
C564 C 0.50706 0.50225 0.40879 0.0
C565 C 0.47826 0.52202 0.42807 0.0
C566 C 0.49721 0.50527 0.38175 0.0
C567 C 0.45858 0.52854 0.37339 0.0
C568 C 0.42899 0.54738 0.39266 0.0
C569 C 0.43885 0.54437 0.41975 0.0
C570 C 0.44777 0.53299 0.34477 0.0
C571 C 0.48392 0.53257 0.32591 0.0
C572 C 0.47495 0.53635 0.29702 0.0
C573 C 0.51712 0.54673 0.28053 0.0
C574 C 0.51138 0.54816 0.25306 0.0
C575 C 0.46319 0.53914 0.24133 0.0
H576 H 0.39309 0.51857 0.29723 0.0
C577 C 0.42074 0.5292 0.2578 0.0
C578 C 0.4265 0.5277 0.28538 0.0
H579 H 0.38311 0.52217 0.24935 0.0
H580 H 0.53728 0.48434 0.41455 0.0
H581 H 0.51958 0.48889 0.36752 0.0
H582 H 0.39864 0.56503 0.38675 0.0
H583 H 0.41574 0.55974 0.43414 0.0
H584 H 0.40982 0.53894 0.33951 0.0
H585 H 0.52276 0.5307 0.33189 0.0
H586 H 0.55491 0.55315 0.28889 0.0
H587 H 0.54505 0.55502 0.24093 0.0
loop_
_geom_bond_atom_site_label_1
_geom_bond_atom_site_label_2
_geom_bond_distance
_geom_bond_site_symmetry_2
_ccdc_geom_bond_type
Co0 N5 2.057 . S
Co0 O17 2.021 . S
Co0 O20 2.062 1_455 S
Co0 O24 2.117 1_554 S
Co0 O25 2.020 1_565 S
C1 O21 1.259 1_455 S
C1 O24 1.258 1_545 S
Co2 N11 2.057 . S
Co2 O18 2.117 . S
Co2 O19 2.020 1_545 S
Co2 O21 2.021 1_554 S
Co2 O26 2.062 1_655 S
C3 N5 1.316 . S
C3 N6 1.347 . S
C3 H8 0.931 . S
C4 N5 1.375 1_556 S
C4 C7 1.350 . S
C4 H9 0.930 . S
N5 Co0 2.057 . S
N5 C3 1.316 . S
N5 C4 1.375 1_554 S
N6 C3 1.347 . S
N6 C7 1.373 1_554 S
C7 C4 1.350 . S
C7 N6 1.373 1_556 S
C7 H28 0.931 . S
H8 C3 0.931 . S
H9 C4 0.930 . S
C10 O17 1.259 1_545 S
C10 O18 1.258 1_455 S
N11 Co2 2.057 . S
N11 C12 1.316 . S
N11 C13 1.375 . S
C12 N11 1.316 . S
C12 N14 1.347 . S
C12 H23 0.931 1_554 S
C13 N11 1.375 . S
C13 C15 1.350 . S
C13 H22 0.930 . S
N14 C12 1.347 . S
N14 C15 1.373 . S
C15 C13 1.350 . S
C15 N14 1.373 . S
C15 H29 0.931 . S
C16 O19 1.256 . S
C16 O20 1.255 . S
O17 Co0 2.021 . S
O17 C10 1.259 1_565 S
O18 Co2 2.117 . S
O18 C10 1.258 1_655 S
O19 Co2 2.020 1_565 S
O19 C16 1.256 . S
O20 Co0 2.062 1_655 S
O20 C16 1.255 . S
O21 C1 1.259 1_655 S
O21 Co2 2.021 1_556 S
H22 C13 0.930 . S
H23 C12 0.931 1_556 S
O24 Co0 2.117 1_556 S
O24 C1 1.258 1_565 S
O25 Co0 2.020 1_545 S
O25 C27 1.256 . S
O26 Co2 2.062 1_455 S
O26 C27 1.255 . S
C27 O25 1.256 . S
C27 O26 1.255 . S
H28 C7 0.931 . S
H29 C15 0.931 . S
Co30 N35 2.057 . S
Co30 O47 2.021 . S
Co30 O50 2.062 . S
Co30 O54 2.117 . S
Co30 O55 2.020 . S
C31 O51 1.259 . S
C31 O54 1.258 . S
Co32 N41 2.057 . S
Co32 O48 2.117 . S
Co32 O49 2.020 . S
Co32 O51 2.021 . S
Co32 O56 2.062 . S
C33 N35 1.316 . S
C33 N36 1.347 . S
C33 H38 0.931 . S
C34 N35 1.375 . S
C34 C37 1.350 . S
C34 H39 0.930 . S
N35 Co30 2.057 . S
N35 C33 1.316 . S
N35 C34 1.375 . S
N36 C33 1.347 . S
N36 C37 1.373 . S
C37 C34 1.350 . S
C37 N36 1.373 . S
C37 H58 0.931 . S
H38 C33 0.931 . S
H39 C34 0.930 . S
C40 O47 1.259 . S
C40 O48 1.258 . S
N41 Co32 2.057 . S
N41 C42 1.316 . S
N41 C43 1.375 . S
C42 N41 1.316 . S
C42 N44 1.347 . S
C42 H53 0.931 . S
C43 N41 1.375 . S
C43 C45 1.350 . S
C43 H52 0.930 . S
N44 C42 1.347 . S
N44 C45 1.373 . S
C45 C43 1.350 . S
C45 N44 1.373 . S
C45 H59 0.931 . S
C46 O49 1.256 . S
C46 O50 1.255 . S
O47 Co30 2.021 . S
O47 C40 1.259 . S
O48 Co32 2.117 . S
O48 C40 1.258 . S
O49 Co32 2.020 . S
O49 C46 1.256 . S
O50 Co30 2.062 . S
O50 C46 1.255 . S
O51 C31 1.259 . S
O51 Co32 2.021 . S
H52 C43 0.930 . S
H53 C42 0.931 . S
O54 Co30 2.117 . S
O54 C31 1.258 . S
O55 Co30 2.020 . S
O55 C57 1.256 . S
O56 Co32 2.062 . S
O56 C57 1.255 . S
C57 O55 1.256 . S
C57 O56 1.255 . S
H58 C37 0.931 . S
H59 C45 0.931 . S
C60 C61 1.391 . S
C60 C64 1.391 . S
C60 H102 0.948 . S
C61 C60 1.391 . S
C61 C62 1.391 . S
C62 C61 1.391 . S
C62 H118 0.947 . S
C62 C119 1.392 . S
C63 C64 1.391 . S
C63 C67 1.397 . S
C63 C119 1.419 . S
C64 C60 1.391 . S
C64 C63 1.391 . S
C64 C65 1.399 . S
C65 C64 1.399 . S
C65 C68 1.396 . S
C65 C77 1.453 1_565 S
C65 C78 1.684 1_455 S
H66 C90 0.948 . S
C67 C63 1.397 . S
C67 C68 1.394 . S
C67 C86 1.723 . S
C68 C65 1.396 . S
C68 C67 1.394 . S
C68 C98 1.723 1_465 S
H69 C92 0.947 . S
H70 C93 0.948 . S
H71 C99 0.982 . S
H72 C100 0.979 . S
H73 C100 0.980 . S
H74 C100 0.983 . S
H75 C99 0.979 . S
H76 C99 0.977 . S
C77 C65 1.453 1_545 S
C77 H106 0.982 . S
C77 H107 0.979 1_545 S
C77 H108 0.977 . S
C78 C65 1.684 1_655 S
C78 H103 0.979 . S
C78 H104 0.980 . S
C78 H105 0.983 . S
C79 C80 1.391 1_465 S
C79 C84 1.391 . S
C79 H109 0.948 . S
C80 C79 1.391 1_645 S
C80 C81 1.391 . S
C81 C80 1.391 . S
C81 C82 1.392 . S
C81 H110 0.947 . S
C82 C81 1.392 . S
C82 C83 1.419 . S
C82 H111 0.948 . S
C83 C82 1.419 . S
C83 C84 1.391 1_645 S
C83 C87 1.397 . S
C84 C79 1.391 . S
C84 C83 1.391 1_465 S
C84 C85 1.399 . S
C85 C84 1.399 . S
C85 C86 1.396 . S
C85 C88 1.453 . S
C85 C89 1.684 . S
C86 C67 1.723 . S
C86 C85 1.396 . S
C86 C87 1.394 1_465 S
C87 C83 1.397 . S
C87 C86 1.394 1_645 S
C87 C97 1.723 . S
C88 C85 1.453 . S
C88 H112 0.982 . S
C88 H113 0.979 . S
C88 H114 0.977 . S
C89 C85 1.684 . S
C89 H115 0.979 . S
C89 H116 0.980 . S
C89 H117 0.983 . S
C90 H66 0.948 . S
C90 C91 1.391 . S
C90 C95 1.391 . S
C91 C90 1.391 . S
C91 C92 1.391 . S
C92 H69 0.947 . S
C92 C91 1.391 . S
C92 C93 1.392 . S
C93 H70 0.948 . S
C93 C92 1.392 . S
C93 C94 1.419 . S
C94 C93 1.419 . S
C94 C95 1.391 . S
C94 C98 1.397 . S
C95 C90 1.391 . S
C95 C94 1.391 . S
C95 C96 1.399 . S
C96 C95 1.399 . S
C96 C97 1.396 . S
C96 C99 1.453 . S
C96 C100 1.684 . S
C97 C87 1.723 . S
C97 C96 1.396 . S
C97 C98 1.394 . S
C98 C68 1.723 1_645 S
C98 C94 1.397 . S
C98 C97 1.394 . S
C99 H71 0.982 . S
C99 H75 0.979 . S
C99 H76 0.977 . S
C99 C96 1.453 . S
C100 H72 0.979 . S
C100 H73 0.980 . S
C100 H74 0.983 . S
C100 C96 1.684 . S
H101 C119 0.948 . S
H102 C60 0.948 . S
H103 C78 0.979 . S
H104 C78 0.980 . S
H105 C78 0.983 . S
H106 C77 0.982 . S
H107 C77 0.979 1_565 S
H108 C77 0.977 . S
H109 C79 0.948 . S
H110 C81 0.947 . S
H111 C82 0.948 . S
H112 C88 0.982 . S
H113 C88 0.979 . S
H114 C88 0.977 . S
H115 C89 0.979 . S
H116 C89 0.980 . S
H117 C89 0.983 . S
H118 C62 0.947 . S
C119 C62 1.392 . S
C119 C63 1.419 . S
C119 H101 0.948 . S
C120 C121 1.391 . S
C120 C124 1.391 . S
C120 H162 0.948 . S
C121 C120 1.391 . S
C121 C122 1.391 . S
C122 C121 1.391 . S
C122 H178 0.947 . S
C122 C179 1.392 . S
C123 C124 1.391 . S
C123 C127 1.397 . S
C123 C179 1.419 . S
C124 C120 1.391 . S
C124 C123 1.391 . S
C124 C125 1.399 . S
C125 C124 1.399 . S
C125 C128 1.396 . S
C125 C137 1.453 . S
C125 C138 1.684 1_455 S
H126 C150 0.948 . S
C127 C123 1.397 . S
C127 C128 1.394 . S
C127 C146 1.723 . S
C128 C125 1.396 . S
C128 C127 1.394 . S
C128 C158 1.723 1_445 S
H129 C152 0.947 . S
H130 C153 0.948 . S
H131 C159 0.982 . S
H132 C160 0.979 . S
H133 C160 0.980 . S
H134 C160 0.983 . S
H135 C159 0.979 . S
H136 C159 0.977 . S
C137 C125 1.453 . S
C137 H166 0.982 . S
C137 H167 0.979 . S
C137 H168 0.977 1_545 S
C138 C125 1.684 1_655 S
C138 H163 0.979 . S
C138 H164 0.980 . S
C138 H165 0.983 1_655 S
C139 C140 1.391 1_455 S
C139 C144 1.391 . S
C139 H169 0.948 . S
C140 C139 1.391 1_655 S
C140 C141 1.391 1_545 S
C141 C140 1.391 1_565 S
C141 C142 1.392 . S
C141 H170 0.947 . S
C142 C141 1.392 . S
C142 C143 1.419 1_565 S
C142 H171 0.948 . S
C143 C142 1.419 1_545 S
C143 C144 1.391 1_655 S
C143 C147 1.397 . S
C144 C139 1.391 . S
C144 C143 1.391 1_455 S
C144 C145 1.399 . S
C145 C144 1.399 . S
C145 C146 1.396 . S
C145 C148 1.453 . S
C145 C149 1.684 . S
C146 C127 1.723 . S
C146 C145 1.396 . S
C146 C147 1.394 1_455 S
C147 C143 1.397 . S
C147 C146 1.394 1_655 S
C147 C157 1.723 1_545 S
C148 C145 1.453 . S
C148 H172 0.982 . S
C148 H173 0.979 . S
C148 H174 0.977 . S
C149 C145 1.684 . S
C149 H175 0.979 . S
C149 H176 0.980 . S
C149 H177 0.983 . S
C150 H126 0.948 . S
C150 C151 1.391 . S
C150 C155 1.391 . S
C151 C150 1.391 . S
C151 C152 1.391 . S
C152 H129 0.947 . S
C152 C151 1.391 . S
C152 C153 1.392 . S
C153 H130 0.948 . S
C153 C152 1.392 . S
C153 C154 1.419 . S
C154 C153 1.419 . S
C154 C155 1.391 . S
C154 C158 1.397 . S
C155 C150 1.391 . S
C155 C154 1.391 . S
C155 C156 1.399 . S
C156 C155 1.399 . S
C156 C157 1.396 . S
C156 C159 1.453 . S
C156 C160 1.684 . S
C157 C147 1.723 1_565 S
C157 C156 1.396 . S
C157 C158 1.394 . S
C158 C128 1.723 1_665 S
C158 C154 1.397 . S
C158 C157 1.394 . S
C159 H131 0.982 . S
C159 H135 0.979 . S
C159 H136 0.977 . S
C159 C156 1.453 . S
C160 H132 0.979 . S
C160 H133 0.980 . S
C160 H134 0.983 . S
C160 C156 1.684 . S
H161 C179 0.948 . S
H162 C120 0.948 . S
H163 C138 0.979 . S
H164 C138 0.980 . S
H165 C138 0.983 1_455 S
H166 C137 0.982 . S
H167 C137 0.979 . S
H168 C137 0.977 1_565 S
H169 C139 0.948 . S
H170 C141 0.947 . S
H171 C142 0.948 . S
H172 C148 0.982 . S
H173 C148 0.979 . S
H174 C148 0.977 . S
H175 C149 0.979 . S
H176 C149 0.980 . S
H177 C149 0.983 . S
H178 C122 0.947 . S
C179 C122 1.392 . S
C179 C123 1.419 . S
C179 H161 0.948 . S
C180 C181 1.391 . S
C180 C184 1.391 . S
C180 H222 0.948 1_556 S
C181 C180 1.391 . S
C181 C182 1.391 . S
C182 C181 1.391 . S
C182 H238 0.947 . S
C182 C239 1.392 . S
C183 C184 1.391 . S
C183 C187 1.397 . S
C183 C239 1.419 . S
C184 C180 1.391 . S
C184 C183 1.391 . S
C184 C185 1.399 . S
C185 C184 1.399 . S
C185 C188 1.396 . S
C185 C197 1.453 . S
C185 C198 1.684 1_556 S
H186 C210 0.948 . S
C187 C183 1.397 . S
C187 C188 1.394 . S
C187 C206 1.723 . S
C188 C185 1.396 . S
C188 C187 1.394 . S
C188 C218 1.723 . S
H189 C212 0.951 . S
H190 C213 0.948 . S
H191 C219 0.982 . S
H192 C220 0.979 . S
H193 C220 0.980 . S
H194 C220 0.983 . S
H195 C219 0.979 . S
H196 C219 0.977 . S
C197 C185 1.453 . S
C197 H226 0.982 . S
C197 H227 0.979 1_556 S
C197 H228 0.983 . S
C198 C185 1.684 1_554 S
C198 H223 0.979 1_554 S
C198 H224 0.980 . S
C198 H225 0.983 . S
C199 C200 1.391 . S
C199 C204 1.391 . S
C199 H229 0.948 . S
C200 C199 1.391 . S
C200 C201 1.391 . S
C201 C200 1.391 . S
C201 C202 1.392 . S
C201 H230 0.947 . S
C202 C201 1.392 . S
C202 C203 1.419 . S
C202 H231 0.948 . S
C203 C202 1.419 . S
C203 C204 1.391 . S
C203 C207 1.397 . S
C204 C199 1.391 . S
C204 C203 1.391 . S
C204 C205 1.399 . S
C205 C204 1.399 . S
C205 C206 1.396 . S
C205 C208 1.453 . S
C205 C209 1.684 . S
C206 C187 1.723 . S
C206 C205 1.396 . S
C206 C207 1.394 . S
C207 C203 1.397 . S
C207 C206 1.394 . S
C207 C217 1.723 . S
C208 C205 1.453 . S
C208 H232 0.982 . S
C208 H233 0.979 . S
C208 H234 0.977 . S
C209 C205 1.684 . S
C209 H235 0.979 . S
C209 H236 0.980 . S
C209 H237 0.983 . S
C210 H186 0.948 . S
C210 C211 1.391 . S
C210 C215 1.391 . S
C211 C210 1.391 . S
C211 C212 1.389 1_556 S
C212 H189 0.951 . S
C212 C211 1.389 1_554 S
C212 C213 1.390 1_554 S
C213 H190 0.948 . S
C213 C212 1.390 1_556 S
C213 C214 1.419 . S
C214 C213 1.419 . S
C214 C215 1.391 . S
C214 C218 1.397 . S
C215 C210 1.391 . S
C215 C214 1.391 . S
C215 C216 1.399 . S
C216 C215 1.399 . S
C216 C217 1.396 . S
C216 C219 1.453 . S
C216 C220 1.684 . S
C217 C207 1.723 . S
C217 C216 1.396 . S
C217 C218 1.394 . S
C218 C188 1.723 . S
C218 C214 1.397 . S
C218 C217 1.394 . S
C219 H191 0.982 . S
C219 H195 0.979 . S
C219 H196 0.977 . S
C219 C216 1.453 . S
C220 H192 0.979 . S
C220 H193 0.980 . S
C220 H194 0.983 . S
C220 C216 1.684 . S
H221 C239 0.948 . S
H222 C180 0.948 1_554 S
H223 C198 0.979 1_556 S
H224 C198 0.980 . S
H225 C198 0.983 . S
H226 C197 0.982 . S
H227 C197 0.979 1_554 S
H228 C197 0.983 . S
H229 C199 0.948 . S
H230 C201 0.947 . S
H231 C202 0.948 . S
H232 C208 0.982 . S
H233 C208 0.979 . S
H234 C208 0.977 . S
H235 C209 0.979 . S
H236 C209 0.980 . S
H237 C209 0.983 . S
H238 C182 0.947 . S
C239 C182 1.392 . S
C239 C183 1.419 . S
C239 H221 0.948 . S
C240 C241 1.391 . S
C240 C244 1.391 . S
C240 H282 0.948 . S
C241 C240 1.391 . S
C241 C242 1.391 . S
C242 C241 1.391 . S
C242 H298 0.947 . S
C242 C299 1.392 . S
C243 C244 1.391 . S
C243 C247 1.397 . S
C243 C299 1.419 . S
C244 C240 1.391 . S
C244 C243 1.391 . S
C244 C245 1.399 . S
C245 C244 1.399 . S
C245 C248 1.396 . S
C245 C257 1.453 . S
C245 C258 1.684 . S
H246 C270 0.948 . S
C247 C243 1.397 . S
C247 C248 1.394 . S
C247 C266 1.723 . S
C248 C245 1.396 . S
C248 C247 1.394 . S
C248 C278 1.723 . S
H249 C272 0.989 . S
H250 C273 0.948 . S
H251 C279 0.982 . S
H252 C280 0.979 . S
H253 C280 0.980 . S
H254 C280 0.983 . S
H255 C279 0.979 . S
H256 C279 0.977 . S
C257 C245 1.453 . S
C257 H286 0.982 . S
C257 H287 0.979 . S
C257 H288 0.977 . S
C258 C245 1.684 . S
C258 H283 0.979 . S
C258 H284 0.980 . S
C258 H285 0.983 . S
C259 C260 1.391 . S
C259 C264 1.391 . S
C259 H289 0.948 . S
C260 C259 1.391 . S
C260 C261 1.391 . S
C261 C260 1.391 . S
C261 C262 1.392 . S
C261 H290 0.947 . S
C262 C261 1.392 . S
C262 C263 1.419 . S
C262 H291 0.948 . S
C263 C262 1.419 . S
C263 C264 1.391 . S
C263 C267 1.397 . S
C264 C259 1.391 . S
C264 C263 1.391 . S
C264 C265 1.399 . S
C265 C264 1.399 . S
C265 C266 1.396 . S
C265 C268 1.453 . S
C265 C269 1.684 . S
C266 C247 1.723 . S
C266 C265 1.396 . S
C266 C267 1.394 . S
C267 C263 1.397 . S
C267 C266 1.394 . S
C267 C277 1.723 . S
C268 C265 1.453 . S
C268 H292 0.982 . S
C268 H293 0.979 . S
C268 H294 0.977 . S
C269 C265 1.684 . S
C269 H295 0.979 . S
C269 H296 0.980 . S
C269 H297 0.983 . S
C270 H246 0.948 . S
C270 C271 1.391 . S
C270 C275 1.391 . S
C271 C270 1.391 . S
C271 C272 1.391 . S
C272 H249 0.989 . S
C272 C271 1.391 . S
C272 C273 1.392 . S
C273 H250 0.948 . S
C273 C272 1.392 . S
C273 C274 1.419 . S
C274 C273 1.419 . S
C274 C275 1.391 . S
C274 C278 1.397 . S
C275 C270 1.391 . S
C275 C274 1.391 . S
C275 C276 1.399 . S
C276 C275 1.399 . S
C276 C277 1.396 . S
C276 C279 1.453 . S
C276 C280 1.684 . S
C277 C267 1.723 . S
C277 C276 1.396 . S
C277 C278 1.394 . S
C278 C248 1.723 . S
C278 C274 1.397 . S
C278 C277 1.394 . S
C279 H251 0.982 . S
C279 H255 0.979 . S
C279 H256 0.977 . S
C279 C276 1.453 . S
C280 H252 0.979 . S
C280 H253 0.980 . S
C280 H254 0.983 . S
C280 C276 1.684 . S
H281 C299 0.948 . S
H282 C240 0.948 . S
H283 C258 0.979 . S
H284 C258 0.980 . S
H285 C258 0.983 . S
H286 C257 0.982 . S
H287 C257 0.979 . S
H288 C257 0.977 . S
H289 C259 0.948 . S
H290 C261 0.947 . S
H291 C262 0.948 . S
H292 C268 0.982 . S
H293 C268 0.979 . S
H294 C268 0.977 . S
H295 C269 0.979 . S
H296 C269 0.980 . S
H297 C269 0.983 . S
H298 C242 0.947 . S
C299 C242 1.392 . S
C299 C243 1.419 . S
C299 H281 0.948 . S
C300 C301 1.386 . S
C300 C302 1.383 . S
C300 H316 0.951 . S
C301 C300 1.386 . S
C301 C305 1.383 1_554 S
C302 C300 1.383 . S
C302 C303 1.402 . S
C302 H317 0.951 . S
C303 C302 1.402 . S
C303 C304 1.375 1_554 S
C303 C306 1.481 . S
C304 C303 1.375 1_556 S
C304 C305 1.367 . S
C304 H318 0.951 . S
C305 C301 1.383 1_556 S
C305 C304 1.367 . S
C305 H319 0.950 . S
C306 C303 1.481 . S
C306 C307 1.297 . S
C306 H320 0.950 1_554 S
C307 C306 1.297 . S
C307 C308 1.479 . S
C307 H321 0.950 . S
C308 C307 1.479 . S
C308 C309 1.375 . S
C308 C314 1.404 . S
C309 C308 1.375 . S
C309 C310 1.369 . S
C309 H322 0.950 . S
C310 C309 1.369 . S
C310 C311 1.392 . S
C310 H323 0.951 . S
C311 C310 1.392 . S
C311 C313 1.384 . S
H312 C314 0.949 1_556 S
C313 C311 1.384 . S
C313 C314 1.385 . S
C313 H315 0.950 1_554 S
C314 C308 1.404 . S
C314 H312 0.949 1_554 S
C314 C313 1.385 . S
H315 C313 0.950 1_556 S
H316 C300 0.951 . S
H317 C302 0.951 . S
H318 C304 0.951 . S
H319 C305 0.950 . S
H320 C306 0.950 1_556 S
H321 C307 0.950 . S
H322 C309 0.950 . S
H323 C310 0.951 . S
C324 C325 1.386 . S
C324 C326 1.383 . S
C324 H340 0.951 . S
C325 C324 1.386 . S
C325 C329 1.383 . S
C326 C324 1.383 . S
C326 C327 1.402 . S
C326 H341 0.951 . S
C327 C326 1.402 . S
C327 C328 1.372 1_554 S
C327 C330 1.481 . S
C328 C327 1.372 1_556 S
C328 C329 1.366 1_556 S
C328 H342 0.955 . S
C329 C325 1.383 . S
C329 C328 1.366 1_554 S
C329 H343 0.950 1_554 S
C330 C327 1.481 . S
C330 C331 1.297 . S
C330 H344 0.950 1_554 S
C331 C330 1.297 . S
C331 C332 1.479 . S
C331 H345 0.950 . S
C332 C331 1.479 . S
C332 C333 1.375 . S
C332 C338 1.404 1_554 S
C333 C332 1.375 . S
C333 C334 1.369 . S
C333 H346 0.950 . S
C334 C333 1.369 . S
C334 C335 1.392 1_554 S
C334 H347 0.951 . S
C335 C334 1.392 1_556 S
C335 C337 1.384 . S
H336 C338 0.949 . S
C337 C335 1.384 . S
C337 C338 1.385 . S
C337 H339 0.950 . S
C338 C332 1.404 1_556 S
C338 H336 0.949 . S
C338 C337 1.385 . S
H339 C337 0.950 . S
H340 C324 0.951 . S
H341 C326 0.951 . S
H342 C328 0.955 . S
H343 C329 0.950 1_556 S
H344 C330 0.950 1_556 S
H345 C331 0.950 . S
H346 C333 0.950 . S
H347 C334 0.951 . S
C348 C349 1.386 1_556 S
C348 C350 1.383 1_556 S
C348 H364 0.951 . S
C349 C348 1.386 1_554 S
C349 C353 1.383 . S
C350 C348 1.383 1_554 S
C350 C351 1.402 . S
C350 H365 0.951 1_554 S
C351 C350 1.402 . S
C351 C352 1.375 . S
C351 C354 1.481 . S
C352 C351 1.375 . S
C352 C353 1.367 . S
C352 H366 0.951 . S
C353 C349 1.383 . S
C353 C352 1.367 . S
C353 H367 0.950 . S
C354 C351 1.481 . S
C354 C355 1.297 . S
C354 H368 0.950 . S
C355 C354 1.297 . S
C355 C356 1.479 . S
C355 H369 0.950 . S
C356 C355 1.479 . S
C356 C357 1.375 . S
C356 C362 1.404 . S
C357 C356 1.375 . S
C357 C358 1.369 . S
C357 H370 0.950 1_554 S
C358 C357 1.369 . S
C358 C359 1.392 . S
C358 H371 0.951 1_554 S
C359 C358 1.392 . S
C359 C361 1.384 . S
H360 C362 0.949 . S
C361 C359 1.384 . S
C361 C362 1.385 . S
C361 H363 0.950 . S
C362 C356 1.404 . S
C362 H360 0.949 . S
C362 C361 1.385 . S
H363 C361 0.950 . S
H364 C348 0.951 . S
H365 C350 0.951 1_556 S
H366 C352 0.951 . S
H367 C353 0.950 . S
H368 C354 0.950 . S
H369 C355 0.950 . S
H370 C357 0.950 1_556 S
H371 C358 0.951 1_556 S
C372 C373 1.386 . S
C372 C374 1.383 . S
C372 H388 0.951 . S
C373 C372 1.386 . S
C373 C377 1.383 1_554 S
C374 C372 1.383 . S
C374 C375 1.402 . S
C374 H389 0.951 . S
C375 C374 1.402 . S
C375 C376 1.375 1_554 S
C375 C378 1.481 1_554 S
C376 C375 1.375 1_556 S
C376 C377 1.367 . S
C376 H390 0.951 . S
C377 C373 1.383 1_556 S
C377 C376 1.367 . S
C377 H391 0.950 . S
C378 C375 1.481 1_556 S
C378 C379 1.297 1_556 S
C378 H392 0.950 . S
C379 C378 1.297 1_554 S
C379 C380 1.479 . S
C379 H393 0.950 . S
C380 C379 1.479 . S
C380 C381 1.375 . S
C380 C386 1.404 1_554 S
C381 C380 1.375 . S
C381 C382 1.369 . S
C381 H394 0.950 . S
C382 C381 1.369 . S
C382 C383 1.392 1_554 S
C382 H395 0.951 . S
C383 C382 1.392 1_556 S
C383 C385 1.384 . S
H384 C386 0.949 . S
C385 C383 1.384 . S
C385 C386 1.385 . S
C385 H387 0.950 . S
C386 C380 1.404 1_556 S
C386 H384 0.949 . S
C386 C385 1.385 . S
H387 C385 0.950 . S
H388 C372 0.951 . S
H389 C374 0.951 . S
H390 C376 0.951 . S
H391 C377 0.950 . S
H392 C378 0.950 . S
H393 C379 0.950 . S
H394 C381 0.950 . S
H395 C382 0.951 . S
C396 C397 1.386 . S
C396 C398 1.383 . S
C396 H412 0.951 . S
C397 C396 1.386 . S
C397 C401 1.383 . S
C398 C396 1.383 . S
C398 C399 1.402 . S
C398 H413 0.951 . S
C399 C398 1.402 . S
C399 C400 1.375 . S
C399 C402 1.481 . S
C400 C399 1.375 . S
C400 C401 1.367 . S
C400 H414 0.951 . S
C401 C397 1.383 . S
C401 C400 1.367 . S
C401 H415 0.950 . S
C402 C399 1.481 . S
C402 C403 1.297 . S
C402 H416 0.950 . S
C403 C402 1.297 . S
C403 C404 1.479 . S
C403 H417 0.950 . S
C404 C403 1.479 . S
C404 C405 1.375 . S
C404 C410 1.404 . S
C405 C404 1.375 . S
C405 C406 1.369 . S
C405 H418 0.950 . S
C406 C405 1.369 . S
C406 C407 1.392 . S
C406 H419 0.951 . S
C407 C406 1.392 . S
C407 C409 1.384 . S
H408 C410 0.949 . S
C409 C407 1.384 . S
C409 C410 1.385 . S
C409 H411 0.950 . S
C410 C404 1.404 . S
C410 H408 0.949 . S
C410 C409 1.385 . S
H411 C409 0.950 . S
H412 C396 0.951 . S
H413 C398 0.951 . S
H414 C400 0.951 . S
H415 C401 0.950 . S
H416 C402 0.950 . S
H417 C403 0.950 . S
H418 C405 0.950 . S
H419 C406 0.951 . S
C420 C421 1.386 . S
C420 C422 1.383 . S
C420 H436 0.951 . S
C421 C420 1.386 . S
C421 C425 1.383 . S
C422 C420 1.383 . S
C422 C423 1.402 . S
C422 H437 0.951 . S
C423 C422 1.402 . S
C423 C424 1.375 . S
C423 C426 1.481 . S
C424 C423 1.375 . S
C424 C425 1.367 . S
C424 H438 0.951 . S
C425 C421 1.383 . S
C425 C424 1.367 . S
C425 H439 0.950 . S
C426 C423 1.481 . S
C426 C427 1.297 . S
C426 H440 0.950 . S
C427 C426 1.297 . S
C427 C428 1.479 . S
C427 H441 0.950 . S
C428 C427 1.479 . S
C428 C429 1.375 . S
C428 C434 1.404 . S
C429 C428 1.375 . S
C429 C430 1.369 . S
C429 H442 0.950 . S
C430 C429 1.369 . S
C430 C431 1.392 . S
C430 H443 0.951 . S
C431 C430 1.392 . S
C431 C433 1.384 . S
H432 C434 0.949 . S
C433 C431 1.384 . S
C433 C434 1.385 . S
C433 H435 0.950 . S
C434 C428 1.404 . S
C434 H432 0.949 . S
C434 C433 1.385 . S
H435 C433 0.950 . S
H436 C420 0.951 . S
H437 C422 0.951 . S
H438 C424 0.951 . S
H439 C425 0.950 . S
H440 C426 0.950 . S
H441 C427 0.950 . S
H442 C429 0.950 . S
H443 C430 0.951 . S
C444 C445 1.386 . S
C444 C446 1.383 . S
C444 H460 0.951 . S
C445 C444 1.386 . S
C445 C449 1.383 . S
C446 C444 1.383 . S
C446 C447 1.402 . S
C446 H461 0.951 . S
C447 C446 1.402 . S
C447 C448 1.375 . S
C447 C450 1.481 . S
C448 C447 1.375 . S
C448 C449 1.367 . S
C448 H462 0.951 . S
C449 C445 1.383 . S
C449 C448 1.367 . S
C449 H463 0.950 . S
C450 C447 1.481 . S
C450 C451 1.297 . S
C450 H464 0.950 . S
C451 C450 1.297 . S
C451 C452 1.479 . S
C451 H465 0.950 . S
C452 C451 1.479 . S
C452 C453 1.375 . S
C452 C458 1.404 . S
C453 C452 1.375 . S
C453 C454 1.369 . S
C453 H466 0.950 . S
C454 C453 1.369 . S
C454 C455 1.392 . S
C454 H467 0.951 . S
C455 C454 1.392 . S
C455 C457 1.384 . S
H456 C458 0.949 . S
C457 C455 1.384 . S
C457 C458 1.385 . S
C457 H459 0.950 . S
C458 C452 1.404 . S
C458 H456 0.949 . S
C458 C457 1.385 . S
H459 C457 0.950 . S
H460 C444 0.951 . S
H461 C446 0.951 . S
H462 C448 0.951 . S
H463 C449 0.950 . S
H464 C450 0.950 . S
H465 C451 0.950 . S
H466 C453 0.950 . S
H467 C454 0.951 . S
C468 C469 1.386 . S
C468 C470 1.383 . S
C468 H484 0.951 . S
C469 C468 1.386 . S
C469 C473 1.383 . S
C470 C468 1.383 . S
C470 C471 1.402 . S
C470 H485 0.951 . S
C471 C470 1.402 . S
C471 C472 1.375 . S
C471 C474 1.481 . S
C472 C471 1.375 . S
C472 C473 1.367 . S
C472 H486 0.951 . S
C473 C469 1.383 . S
C473 C472 1.367 . S
C473 H487 0.950 . S
C474 C471 1.481 . S
C474 C475 1.297 . S
C474 H488 0.950 . S
C475 C474 1.297 . S
C475 C476 1.479 . S
C475 H489 0.950 . S
C476 C475 1.479 . S
C476 C477 1.375 . S
C476 C482 1.404 . S
C477 C476 1.375 . S
C477 C478 1.369 . S
C477 H490 0.950 . S
C478 C477 1.369 . S
C478 C479 1.392 . S
C478 H491 0.951 . S
C479 C478 1.392 . S
C479 C481 1.384 . S
H480 C482 0.949 . S
C481 C479 1.384 . S
C481 C482 1.385 . S
C481 H483 0.950 . S
C482 C476 1.404 . S
C482 H480 0.949 . S
C482 C481 1.385 . S
H483 C481 0.950 . S
H484 C468 0.951 . S
H485 C470 0.951 . S
H486 C472 0.951 . S
H487 C473 0.950 . S
H488 C474 0.950 . S
H489 C475 0.950 . S
H490 C477 0.950 . S
H491 C478 0.951 . S
C492 C493 1.386 1_565 S
C492 C494 1.383 . S
C492 H508 0.951 1_455 S
C493 C492 1.386 1_545 S
C493 C497 1.383 . S
C494 C492 1.383 . S
C494 C495 1.402 1_565 S
C494 H509 0.951 1_455 S
C495 C494 1.402 1_545 S
C495 C496 1.375 . S
C495 C498 1.481 . S
C496 C495 1.375 . S
C496 C497 1.367 . S
C496 H510 0.951 . S
C497 C493 1.383 . S
C497 C496 1.367 . S
C497 H511 0.950 . S
C498 C495 1.481 . S
C498 C499 1.297 1_545 S
C498 H512 0.950 . S
C499 C498 1.297 1_565 S
C499 C500 1.479 . S
C499 H513 0.950 . S
C500 C499 1.479 . S
C500 C501 1.375 . S
C500 C506 1.404 1_565 S
C501 C500 1.375 . S
C501 C502 1.366 1_455 S
C501 H514 0.950 1_455 S
C502 C501 1.366 1_655 S
C502 C503 1.391 1_655 S
C502 H515 0.955 . S
C503 C502 1.391 1_455 S
C503 C505 1.384 1_565 S
H504 C506 0.949 . S
C505 C503 1.384 1_545 S
C505 C506 1.385 . S
C505 H507 0.950 . S
C506 C500 1.404 1_545 S
C506 H504 0.949 . S
C506 C505 1.385 . S
H507 C505 0.950 . S
H508 C492 0.951 1_655 S
H509 C494 0.951 1_655 S
H510 C496 0.951 . S
H511 C497 0.950 . S
H512 C498 0.950 . S
H513 C499 0.950 . S
H514 C501 0.950 1_655 S
H515 C502 0.955 . S
C516 C517 1.386 . S
C516 C518 1.383 . S
C516 H532 0.951 1_455 S
C517 C516 1.386 . S
C517 C521 1.383 1_545 S
C518 C516 1.383 . S
C518 C519 1.402 . S
C518 H533 0.951 . S
C519 C518 1.402 . S
C519 C520 1.375 1_545 S
C519 C522 1.481 . S
C520 C519 1.375 1_565 S
C520 C521 1.367 . S
C520 H534 0.951 . S
C521 C517 1.383 1_565 S
C521 C520 1.367 . S
C521 H535 0.950 . S
C522 C519 1.481 . S
C522 C523 1.297 . S
C522 H536 0.950 1_545 S
C523 C522 1.297 . S
C523 C524 1.479 . S
C523 H537 0.950 . S
C524 C523 1.479 . S
C524 C525 1.375 . S
C524 C530 1.404 1_545 S
C525 C524 1.375 . S
C525 C526 1.369 . S
C525 H538 0.950 . S
C526 C525 1.369 . S
C526 C527 1.392 . S
C526 H539 0.951 1_455 S
C527 C526 1.392 . S
C527 C529 1.384 1_545 S
H528 C530 0.949 . S
C529 C527 1.384 1_565 S
C529 C530 1.385 . S
C529 H531 0.950 . S
C530 C524 1.404 1_565 S
C530 H528 0.949 . S
C530 C529 1.385 . S
H531 C529 0.950 . S
H532 C516 0.951 1_655 S
H533 C518 0.951 . S
H534 C520 0.951 . S
H535 C521 0.950 . S
H536 C522 0.950 1_565 S
H537 C523 0.950 . S
H538 C525 0.950 . S
H539 C526 0.951 1_655 S
C540 C541 1.386 . S
C540 C542 1.383 . S
C540 H556 0.951 . S
C541 C540 1.386 . S
C541 C545 1.383 . S
C542 C540 1.383 . S
C542 C543 1.402 . S
C542 H557 0.951 . S
C543 C542 1.402 . S
C543 C544 1.375 . S
C543 C546 1.481 . S
C544 C543 1.375 . S
C544 C545 1.367 . S
C544 H558 0.951 . S
C545 C541 1.383 . S
C545 C544 1.367 . S
C545 H559 0.950 . S
C546 C543 1.481 . S
C546 C547 1.297 . S
C546 H560 0.950 . S
C547 C546 1.297 . S
C547 C548 1.479 . S
C547 H561 0.950 . S
C548 C547 1.479 . S
C548 C549 1.375 . S
C548 C554 1.404 . S
C549 C548 1.375 . S
C549 C550 1.369 . S
C549 H562 0.950 . S
C550 C549 1.369 . S
C550 C551 1.392 . S
C550 H563 0.951 . S
C551 C550 1.392 . S
C551 C553 1.384 . S
H552 C554 0.949 . S
C553 C551 1.384 . S
C553 C554 1.385 . S
C553 H555 0.950 . S
C554 C548 1.404 . S
C554 H552 0.949 . S
C554 C553 1.385 . S
H555 C553 0.950 . S
H556 C540 0.951 . S
H557 C542 0.951 . S
H558 C544 0.951 . S
H559 C545 0.950 . S
H560 C546 0.950 . S
H561 C547 0.950 . S
H562 C549 0.950 . S
H563 C550 0.951 . S
C564 C565 1.386 . S
C564 C566 1.383 . S
C564 H580 0.951 . S
C565 C564 1.386 . S
C565 C569 1.383 . S
C566 C564 1.383 . S
C566 C567 1.402 . S
C566 H581 0.951 . S
C567 C566 1.402 . S
C567 C568 1.375 . S
C567 C570 1.481 . S
C568 C567 1.375 . S
C568 C569 1.367 . S
C568 H582 0.951 . S
C569 C565 1.383 . S
C569 C568 1.367 . S
C569 H583 0.950 . S
C570 C567 1.481 . S
C570 C571 1.297 . S
C570 H584 0.950 . S
C571 C570 1.297 . S
C571 C572 1.479 . S
C571 H585 0.950 . S
C572 C571 1.479 . S
C572 C573 1.375 . S
C572 C578 1.404 . S
C573 C572 1.375 . S
C573 C574 1.369 . S
C573 H586 0.950 . S
C574 C573 1.369 . S
C574 C575 1.392 . S
C574 H587 0.951 . S
C575 C574 1.392 . S
C575 C577 1.384 . S
H576 C578 0.949 . S
C577 C575 1.384 . S
C577 C578 1.385 . S
C577 H579 0.950 . S
C578 C572 1.404 . S
C578 H576 0.949 . S
C578 C577 1.385 . S
H579 C577 0.950 . S
H580 C564 0.951 . S
H581 C566 0.951 . S
H582 C568 0.951 . S
H583 C569 0.950 . S
H584 C570 0.950 . S
H585 C571 0.950 . S
H586 C573 0.950 . S
H587 C574 0.951 . S
C311 C271 1.445 . S
C301 C27 1.447 . S
C325 N6 1.366 . S
C335 C211 1.389 . S
C349 C16 1.418 . S
C359 C241 1.338 . S
C373 N14 1.379 . S
C383 C181 1.350 . S
C397 C57 1.445 . S
C407 C151 1.428 . S
C421 N36 1.362 . S
C431 C91 1.396 . S
C455 C121 1.342 . S
C445 C46 1.430 . S
C479 C61 1.350 . S
C469 N44 1.379 . S
C493 C10 1.378 . S
C503 C80 1.392 1_465 S
C517 C1 1.531 . S
C527 C140 1.527 1_455 S
C551 C200 1.346 . S
C541 C40 1.390 . S
C565 C31 1.523 . S
C575 C260 1.501 . S
