# Generated by pormake.
# Topology nom, (4,4)-cn, num edge types: 1
# Building blocks:
#     Node 0, Type 0, BuildingBlock: NAWXER_clean_linker_0, # of connection points: 4
#     Node 1, Type 0, BuildingBlock: NAWXER_clean_linker_0, # of connection points: 4
#     Node 2, Type 0, BuildingBlock: NAWXER_clean_linker_0, # of connection points: 4
#     Node 3, Type 0, BuildingBlock: NAWXER_clean_linker_0, # of connection points: 4
#     Node 4, Type 0, BuildingBlock: NAWXER_clean_linker_0, # of connection points: 4
#     Node 5, Type 0, BuildingBlock: NAWXER_clean_linker_0, # of connection points: 4
#     Node 6, Type 1, BuildingBlock: NAHDIM_clean_sbu_0, # of connection points: 4
#     Node 7, Type 1, BuildingBlock: NAHDIM_clean_sbu_0, # of connection points: 4
#     Node 8, Type 1, BuildingBlock: NAHDIM_clean_sbu_0, # of connection points: 4
#     Node 9, Type 1, BuildingBlock: NAHDIM_clean_sbu_0, # of connection points: 4
#     Node 10, Type 1, BuildingBlock: NAHDIM_clean_sbu_0, # of connection points: 4
#     Node 11, Type 1, BuildingBlock: NAHDIM_clean_sbu_0, # of connection points: 4
#     Edge 12, Type (0, 1), BuildingBlock: EZIPEK_clean_linker_0, # of connection points: 2
#     Edge 13, Type (0, 1), BuildingBlock: EZIPEK_clean_linker_0, # of connection points: 2
#     Edge 14, Type (0, 1), BuildingBlock: EZIPEK_clean_linker_0, # of connection points: 2
#     Edge 15, Type (0, 1), BuildingBlock: EZIPEK_clean_linker_0, # of connection points: 2
#     Edge 16, Type (0, 1), BuildingBlock: EZIPEK_clean_linker_0, # of connection points: 2
#     Edge 17, Type (0, 1), BuildingBlock: EZIPEK_clean_linker_0, # of connection points: 2
#     Edge 18, Type (0, 1), BuildingBlock: EZIPEK_clean_linker_0, # of connection points: 2
#     Edge 19, Type (0, 1), BuildingBlock: EZIPEK_clean_linker_0, # of connection points: 2
#     Edge 20, Type (0, 1), BuildingBlock: EZIPEK_clean_linker_0, # of connection points: 2
#     Edge 21, Type (0, 1), BuildingBlock: EZIPEK_clean_linker_0, # of connection points: 2
#     Edge 22, Type (0, 1), BuildingBlock: EZIPEK_clean_linker_0, # of connection points: 2
#     Edge 23, Type (0, 1), BuildingBlock: EZIPEK_clean_linker_0, # of connection points: 2
#     Edge 24, Type (0, 1), BuildingBlock: EZIPEK_clean_linker_0, # of connection points: 2
#     Edge 25, Type (0, 1), BuildingBlock: EZIPEK_clean_linker_0, # of connection points: 2
#     Edge 26, Type (0, 1), BuildingBlock: EZIPEK_clean_linker_0, # of connection points: 2
#     Edge 27, Type (0, 1), BuildingBlock: EZIPEK_clean_linker_0, # of connection points: 2
#     Edge 28, Type (0, 1), BuildingBlock: EZIPEK_clean_linker_0, # of connection points: 2
#     Edge 29, Type (0, 1), BuildingBlock: EZIPEK_clean_linker_0, # of connection points: 2
#     Edge 30, Type (0, 1), BuildingBlock: EZIPEK_clean_linker_0, # of connection points: 2
#     Edge 31, Type (0, 1), BuildingBlock: EZIPEK_clean_linker_0, # of connection points: 2
#     Edge 32, Type (0, 1), BuildingBlock: EZIPEK_clean_linker_0, # of connection points: 2
#     Edge 33, Type (0, 1), BuildingBlock: EZIPEK_clean_linker_0, # of connection points: 2
#     Edge 34, Type (0, 1), BuildingBlock: EZIPEK_clean_linker_0, # of connection points: 2
#     Edge 35, Type (0, 1), BuildingBlock: EZIPEK_clean_linker_0, # of connection points: 2
# Relax obj value: 0.024
# Max RMSD: 0.118
# Mean RMSD: 0.110
data_MOF--net-nom--node1-NAHDIM_clean_sbu_0--node2-NAWXER_clean_linker_0--edge1-EZIPEK_clean_linker_0
_symmetry_space_group_name_H-M    P1
_symmetry_Int_Tables_number       1
_symmetry_cell_setting            triclinic
loop_
_symmetry_equiv_pos_as_xyz
'x, y, z'
_cell_length_a     40.263115
_cell_length_b     41.552473
_cell_length_c     44.802294
_cell_angle_alpha  89.934449
_cell_angle_beta   90.721717
_cell_angle_gamma 121.14582
loop_
_atom_site_label
_atom_site_type_symbol
_atom_site_fract_x
_atom_site_fract_y
_atom_site_fract_z
_atom_type_partial_charge
C0 C 0.86423 0.47801 0.33377 0.0
C1 C 0.85149 0.4545 0.35876 0.0
C2 C 0.90093 0.49052 0.32221 0.0
C3 C 0.92518 0.47905 0.33508 0.0
C4 C 0.8754 0.44276 0.37159 0.0
C5 C 0.91201 0.45499 0.35984 0.0
C6 C 0.96593 0.49609 0.32552 0.0
C7 C 0.89578 0.43407 0.24382 0.0
C8 C 0.90276 0.4562 0.2183 0.0
C9 C 0.9197 0.44921 0.26914 0.0
C10 C 0.95038 0.48696 0.2695 0.0
C11 C 0.9335 0.49369 0.21852 0.0
C12 C 0.95708 0.50892 0.24387 0.0
C13 C 0.97748 0.50323 0.29538 0.0
C14 C 0.15227 0.58826 0.30085 0.0
C15 C 0.15899 0.61786 0.28185 0.0
C16 C 0.11478 0.56323 0.31097 0.0
C17 C 0.08381 0.56775 0.30218 0.0
C18 C 0.12814 0.62238 0.27315 0.0
C19 C 0.09078 0.59736 0.2831 0.0
C20 C 0.04361 0.54113 0.31135 0.0
C21 C 0.10858 0.59831 0.39703 0.0
C22 C 0.107 0.57296 0.4185 0.0
C23 C 0.08501 0.58502 0.37141 0.0
C24 C 0.05982 0.54619 0.36689 0.0
C25 C 0.08213 0.53421 0.41389 0.0
C26 C 0.05851 0.52095 0.38835 0.0
C27 C 0.03237 0.53164 0.34128 0.0
H28 H 0.84621 0.48758 0.32382 0.0
H29 H 0.91083 0.5103 0.30395 0.0
H30 H 0.866 0.42478 0.39102 0.0
H31 H 0.93042 0.44631 0.37048 0.0
H32 H 0.87221 0.40501 0.24393 0.0
H33 H 0.91459 0.43121 0.28816 0.0
H34 H 0.93926 0.51113 0.199 0.0
H35 H 0.98069 0.53796 0.24341 0.0
H36 H 0.17592 0.58441 0.30758 0.0
H37 H 0.10989 0.54013 0.3252 0.0
H38 H 0.13298 0.64506 0.2584 0.0
H39 H 0.06725 0.60119 0.27594 0.0
H40 H 0.12743 0.62833 0.40043 0.0
H41 H 0.08574 0.60507 0.35556 0.0
H42 H 0.08049 0.51434 0.43036 0.0
H43 H 0.03895 0.49094 0.38545 0.0
N44 N 0.99394 0.50981 0.3472 0.0
N45 N 0.01581 0.52611 0.28963 0.0
C46 C 0.39869 0.87304 0.50052 0.0
C47 C 0.40809 0.8604 0.52646 0.0
C48 C 0.42248 0.91002 0.49113 0.0
C49 C 0.45688 0.9347 0.50694 0.0
C50 C 0.44177 0.88516 0.54285 0.0
C51 C 0.46606 0.92204 0.5331 0.0
C52 C 0.48135 0.97449 0.49779 0.0
C53 C 0.48311 0.90557 0.42299 0.0
C54 C 0.46343 0.90617 0.39718 0.0
C55 C 0.49241 0.93209 0.44563 0.0
C56 C 0.48161 0.95921 0.44293 0.0
C57 C 0.454 0.93411 0.39387 0.0
C58 C 0.46322 0.96061 0.41655 0.0
C59 C 0.48911 0.98583 0.46766 0.0
C60 C 0.57844 0.15533 0.47443 0.0
C61 C 0.55485 0.16246 0.45563 0.0
C62 C 0.56599 0.11855 0.48332 0.0
C63 C 0.52988 0.08862 0.47338 0.0
C64 C 0.51908 0.13254 0.44539 0.0
C65 C 0.50685 0.09582 0.454 0.0
C66 C 0.51557 0.04961 0.48275 0.0
C67 C 0.5172 0.11069 0.56785 0.0
C68 C 0.542 0.10999 0.58979 0.0
C69 C 0.50797 0.08838 0.54215 0.0
C70 C 0.52344 0.06515 0.53827 0.0
C71 C 0.55792 0.08729 0.58566 0.0
C72 C 0.54844 0.0648 0.56019 0.0
C73 C 0.51129 0.03861 0.51294 0.0
H74 H 0.37254 0.85441 0.48783 0.0
H75 H 0.4135 0.91939 0.47178 0.0
H76 H 0.4492 0.87588 0.5631 0.0
H77 H 0.49196 0.94072 0.54602 0.0
H78 H 0.49074 0.88426 0.42576 0.0
H79 H 0.50756 0.93107 0.46543 0.0
H80 H 0.43888 0.93493 0.37398 0.0
H81 H 0.45496 0.98147 0.41388 0.0
H82 H 0.60618 0.17824 0.48243 0.0
H83 H 0.58447 0.11349 0.49788 0.0
H84 H 0.50064 0.13769 0.43084 0.0
H85 H 0.47899 0.07306 0.44601 0.0
H86 H 0.50454 0.12796 0.57089 0.0
H87 H 0.48798 0.08845 0.52579 0.0
H88 H 0.57694 0.08637 0.60251 0.0
H89 H 0.56032 0.04677 0.5577 0.0
N90 N 0.49381 0.00143 0.51929 0.0
N91 N 0.50485 0.02286 0.46121 0.0
C92 C 0.57735 0.47584 0.56904 0.0
C93 C 0.55077 0.45489 0.54609 0.0
C94 C 0.56564 0.48856 0.59333 0.0
C95 C 0.52723 0.48055 0.59488 0.0
C96 C 0.51255 0.44714 0.54753 0.0
C97 C 0.50096 0.46011 0.57161 0.0
C98 C 0.51441 0.49454 0.61992 0.0
C99 C 0.53298 0.40662 0.66039 0.0
C100 C 0.557 0.41708 0.68585 0.0
C101 C 0.5222 0.43092 0.64843 0.0
C102 C 0.53647 0.46683 0.66101 0.0
C103 C 0.57077 0.45255 0.69888 0.0
C104 C 0.56076 0.47731 0.68645 0.0
C105 C 0.52215 0.49134 0.6503 0.0
C106 C 0.43054 0.54131 0.71889 0.0
C107 C 0.45883 0.5659 0.73955 0.0
C108 C 0.44124 0.52872 0.69395 0.0
C109 C 0.48045 0.54089 0.68921 0.0
C110 C 0.49799 0.57826 0.73476 0.0
C111 C 0.50868 0.56562 0.70987 0.0
C112 C 0.49211 0.52573 0.66429 0.0
C113 C 0.43873 0.58797 0.62261 0.0
C114 C 0.40652 0.56439 0.60439 0.0
C115 C 0.46378 0.57605 0.63236 0.0
C116 C 0.45651 0.54031 0.62414 0.0
C117 C 0.39976 0.52913 0.5957 0.0
C118 C 0.42467 0.51726 0.60539 0.0
C119 C 0.48181 0.52633 0.63414 0.0
H120 H 0.60704 0.48228 0.56811 0.0
H121 H 0.58662 0.50496 0.6107 0.0
H122 H 0.49174 0.43113 0.52994 0.0
H123 H 0.47129 0.45382 0.57223 0.0
H124 H 0.52168 0.37914 0.65029 0.0
H125 H 0.50162 0.42092 0.62998 0.0
H126 H 0.58906 0.46091 0.71874 0.0
H127 H 0.57145 0.50443 0.69701 0.0
H128 H 0.40015 0.53132 0.72243 0.0
H129 H 0.41884 0.50884 0.67878 0.0
H130 H 0.52012 0.59712 0.75058 0.0
H131 H 0.539 0.57496 0.70681 0.0
H132 H 0.44427 0.61535 0.62938 0.0
H133 H 0.48868 0.59464 0.64624 0.0
H134 H 0.37499 0.51071 0.58161 0.0
H135 H 0.41867 0.4897 0.59863 0.0
N136 N 0.49382 0.51116 0.61317 0.0
N137 N 0.51155 0.50794 0.67118 0.0
C138 C 0.85174 0.37165 0.80742 0.0
C139 C 0.8394 0.37705 0.77944 0.0
C140 C 0.88927 0.39676 0.81791 0.0
C141 C 0.91452 0.42903 0.80142 0.0
C142 C 0.86504 0.40823 0.76228 0.0
C143 C 0.90204 0.43422 0.77334 0.0
C144 C 0.9551 0.45537 0.8116 0.0
C145 C 0.88347 0.45421 0.88816 0.0
C146 C 0.88868 0.43918 0.91461 0.0
C147 C 0.90872 0.46238 0.86436 0.0
C148 C 0.93915 0.45515 0.86667 0.0
C149 C 0.91946 0.4327 0.91719 0.0
C150 C 0.94461 0.44077 0.89344 0.0
C151 C 0.96658 0.46415 0.84196 0.0
C152 C 0.14119 0.56396 0.83624 0.0
C153 C 0.15158 0.54312 0.85463 0.0
C154 C 0.10233 0.54931 0.82808 0.0
C155 C 0.07371 0.5135 0.83795 0.0
C156 C 0.12286 0.50809 0.86542 0.0
C157 C 0.08413 0.49344 0.85723 0.0
C158 C 0.03296 0.49584 0.82788 0.0
C159 C 0.10658 0.51383 0.74779 0.0
C160 C 0.10494 0.5391 0.72791 0.0
C161 C 0.0789 0.49696 0.77013 0.0
C162 C 0.04958 0.50554 0.77294 0.0
C163 C 0.07501 0.54675 0.73013 0.0
C164 C 0.04736 0.52989 0.75241 0.0
C165 C 0.0216 0.49019 0.79753 0.0
H166 H 0.83255 0.34748 0.82083 0.0
H167 H 0.89854 0.39032 0.83866 0.0
H168 H 0.85619 0.41266 0.74048 0.0
H169 H 0.92104 0.45827 0.75976 0.0
H170 H 0.85994 0.45959 0.88599 0.0
H171 H 0.90458 0.47445 0.84425 0.0
H172 H 0.92384 0.42121 0.93756 0.0
H173 H 0.96811 0.43538 0.89585 0.0
H174 H 0.16316 0.5912 0.82796 0.0
H175 H 0.09474 0.56557 0.8137 0.0
H176 H 0.13056 0.49185 0.87975 0.0
H177 H 0.06241 0.46591 0.86523 0.0
H178 H 0.12948 0.50756 0.74619 0.0
H179 H 0.08069 0.47771 0.78545 0.0
H180 H 0.07335 0.56608 0.7148 0.0
H181 H 0.0248 0.53664 0.75414 0.0
N182 N 0.98317 0.4698 0.79056 0.0
N183 N 0.00506 0.48303 0.8489 0.0
C184 C 0.46867 0.87444 0.97549 0.0
C185 C 0.43705 0.85597 0.95564 0.0
C186 C 0.48044 0.91041 0.9859 0.0
C187 C 0.46092 0.9286 0.9765 0.0
C188 C 0.41742 0.87406 0.94615 0.0
C189 C 0.42964 0.91043 0.95626 0.0
C190 C 0.47506 0.96738 0.98665 0.0
C191 C 0.4138 0.89723 0.06676 0.0
C192 C 0.43813 0.90246 0.0913 0.0
C193 C 0.42842 0.92086 0.04204 0.0
C194 C 0.46754 0.95007 0.04161 0.0
C195 C 0.47731 0.93116 0.09067 0.0
C196 C 0.49183 0.95496 0.06611 0.0
C197 C 0.4824 0.97765 0.01705 0.0
C198 C 0.56191 0.14719 0.01686 0.0
C199 C 0.59203 0.15422 0.03695 0.0
C200 C 0.53697 0.1108 0.00584 0.0
C201 C 0.5425 0.08131 0.01435 0.0
C202 C 0.59693 0.12466 0.04597 0.0
C203 C 0.5724 0.08854 0.03474 0.0
C204 C 0.5168 0.04233 0.00359 0.0
C205 C 0.56909 0.11272 0.92126 0.0
C206 C 0.54076 0.11169 0.90204 0.0
C207 C 0.55829 0.08678 0.94445 0.0
C208 C 0.51897 0.05975 0.94885 0.0
C209 C 0.50159 0.08433 0.90609 0.0
C210 C 0.49079 0.05838 0.92925 0.0
C211 C 0.50687 0.0321 0.97324 0.0
H212 H 0.48424 0.86096 0.98288 0.0
H213 H 0.50526 0.9243 0.00096 0.0
H214 H 0.39296 0.86012 0.93079 0.0
H215 H 0.41455 0.92425 0.94852 0.0
H216 H 0.38342 0.87534 0.06704 0.0
H217 H 0.40886 0.91709 0.02375 0.0
H218 H 0.49641 0.93558 0.10949 0.0
H219 H 0.52199 0.97746 0.06635 0.0
H220 H 0.55768 0.16981 0.00988 0.0
H221 H 0.51337 0.10574 0.99091 0.0
H222 H 0.61995 0.12966 0.06155 0.0
H223 H 0.57701 0.06618 0.04185 0.0
H224 H 0.59949 0.13354 0.91823 0.0
H225 H 0.58058 0.08778 0.9589 0.0
H226 H 0.47945 0.08309 0.89131 0.0
H227 H 0.46037 0.03749 0.93209 0.0
N228 N 0.48672 0.99491 0.96587 0.0
N229 N 0.50363 0.01466 0.02427 0.0
C230 C 0.47143 0.6154 0.15493 0.0
C231 C 0.44708 0.60587 0.17961 0.0
C232 C 0.48246 0.5907 0.14456 0.0
C233 C 0.46815 0.55539 0.15801 0.0
C234 C 0.43344 0.57107 0.19356 0.0
C235 C 0.44375 0.54596 0.18274 0.0
C236 C 0.48158 0.52987 0.1486 0.0
C237 C 0.42688 0.54356 0.06419 0.0
C238 C 0.45394 0.56283 0.04165 0.0
C239 C 0.43768 0.53137 0.08964 0.0
C240 C 0.47558 0.53817 0.09269 0.0
C241 C 0.49175 0.56971 0.04475 0.0
C242 C 0.50238 0.55718 0.06994 0.0
C243 C 0.48719 0.52385 0.11853 0.0
C244 C 0.54086 0.41315 0.12413 0.0
C245 C 0.5737 0.4324 0.10608 0.0
C246 C 0.52142 0.43104 0.13359 0.0
C247 C 0.5347 0.46825 0.125 0.0
C248 C 0.5864 0.46924 0.0971 0.0
C249 C 0.56688 0.48693 0.10632 0.0
C250 C 0.51516 0.48814 0.13449 0.0
C251 C 0.5686 0.4707 0.21752 0.0
C252 C 0.54422 0.45677 0.24233 0.0
C253 C 0.55731 0.4825 0.19217 0.0
C254 C 0.52061 0.47895 0.19057 0.0
C255 C 0.50791 0.45381 0.24103 0.0
C256 C 0.49614 0.46459 0.21535 0.0
C257 C 0.50857 0.49308 0.16461 0.0
H258 H 0.48258 0.64236 0.14414 0.0
H259 H 0.50301 0.59979 0.12656 0.0
H260 H 0.41486 0.56343 0.21281 0.0
H261 H 0.43294 0.51927 0.1939 0.0
H262 H 0.3975 0.53787 0.06197 0.0
H263 H 0.41634 0.51612 0.10666 0.0
H264 H 0.51286 0.58439 0.02746 0.0
H265 H 0.53166 0.56246 0.07175 0.0
H266 H 0.53065 0.38456 0.13105 0.0
H267 H 0.49618 0.41598 0.14756 0.0
H268 H 0.61162 0.48436 0.08311 0.0
H269 H 0.57733 0.51554 0.09928 0.0
H270 H 0.59695 0.47363 0.21822 0.0
H271 H 0.57784 0.49532 0.17428 0.0
H272 H 0.48881 0.44345 0.26002 0.0
H273 H 0.468 0.46211 0.21499 0.0
N274 N 0.49201 0.51379 0.17035 0.0
N275 N 0.50418 0.50366 0.11277 0.0
C276 C 0.60444 0.31537 0.42359 0.0
O277 O 0.6315 0.34149 0.44087 0.0
O278 O 0.67362 0.39907 0.38408 0.0
Zn279 Zn 0.61766 0.38029 0.39235 0.0
O280 O 0.61254 0.40739 0.42797 0.0
C281 C 0.59545 0.41993 0.35202 0.0
O282 O 0.60948 0.44479 0.37382 0.0
O283 O 0.59224 0.3248 0.40088 0.0
C284 C 0.58183 0.39138 0.44332 0.0
O285 O 0.55343 0.35762 0.43576 0.0
C286 C 0.70115 0.41505 0.40309 0.0
O287 O 0.69412 0.42105 0.43043 0.0
O288 O 0.59495 0.38926 0.35506 0.0
C289 C 0.3019 0.70427 0.55358 0.0
O290 O 0.3026 0.68049 0.53469 0.0
O291 O 0.28317 0.61754 0.58464 0.0
Zn292 Zn 0.24635 0.6354 0.57679 0.0
O293 O 0.21763 0.61524 0.53771 0.0
C294 C 0.21925 0.61496 0.63641 0.0
O295 O 0.25607 0.62728 0.64183 0.0
O296 O 0.27848 0.69166 0.5752 0.0
C297 C 0.1964 0.6276 0.5284 0.0
O298 O 0.1937 0.65259 0.54443 0.0
C299 C 0.29512 0.60382 0.56523 0.0
O300 O 0.28246 0.59941 0.5375 0.0
O301 O 0.20813 0.61692 0.61016 0.0
C302 C 0.59224 0.30516 0.72298 0.0
O303 O 0.61448 0.30149 0.70379 0.0
O304 O 0.65597 0.27729 0.75364 0.0
Zn305 Zn 0.59831 0.24691 0.74659 0.0
O306 O 0.58498 0.22048 0.70664 0.0
C307 C 0.58722 0.21971 0.80641 0.0
O308 O 0.61408 0.25489 0.81188 0.0
O309 O 0.58009 0.28369 0.74554 0.0
C310 C 0.58185 0.18875 0.70288 0.0
O311 O 0.58735 0.17198 0.72563 0.0
C312 C 0.68118 0.27156 0.74219 0.0
O313 O 0.67034 0.24337 0.72358 0.0
O314 O 0.57443 0.20951 0.7799 0.0
C315 C 0.3925 0.70642 0.91568 0.0
O316 O 0.35891 0.67806 0.92417 0.0
O317 O 0.33718 0.62433 0.87729 0.0
Zn318 Zn 0.39286 0.64588 0.88922 0.0
O319 O 0.39672 0.62052 0.92632 0.0
C320 C 0.40698 0.60545 0.84561 0.0
O321 O 0.37848 0.57741 0.86002 0.0
O322 O 0.41429 0.70017 0.89946 0.0
C323 C 0.42651 0.61838 0.93178 0.0
O324 O 0.45503 0.63191 0.91268 0.0
C325 C 0.31015 0.59284 0.8866 0.0
O326 O 0.31808 0.57255 0.90445 0.0
O327 O 0.42 0.63897 0.85453 0.0
C328 C 0.67398 0.38098 0.06653 0.0
O329 O 0.66243 0.3504 0.05059 0.0
O330 O 0.71634 0.32869 0.06065 0.0
Zn331 Zn 0.74711 0.38389 0.06879 0.0
O332 O 0.77878 0.39529 0.10666 0.0
C333 C 0.79333 0.39209 0.01893 0.0
O334 O 0.78544 0.35895 0.02834 0.0
O335 O 0.70907 0.40047 0.07549 0.0
C336 C 0.81405 0.40418 0.10795 0.0
O337 O 0.83193 0.4048 0.08348 0.0
C338 C 0.69792 0.30455 0.08068 0.0
O339 O 0.70092 0.31526 0.10866 0.0
O340 O 0.78025 0.40965 0.03302 0.0
C341 C 0.40637 0.71431 0.21556 0.0
O342 O 0.38311 0.71778 0.19679 0.0
O343 O 0.33951 0.73417 0.25369 0.0
Zn344 Zn 0.39589 0.76769 0.24389 0.0
O345 O 0.40444 0.79633 0.20572 0.0
C346 C 0.41377 0.79339 0.30432 0.0
O347 O 0.3916 0.75729 0.30977 0.0
O348 O 0.4176 0.73413 0.23925 0.0
C349 C 0.38788 0.81449 0.19929 0.0
O350 O 0.3628 0.8144 0.21782 0.0
C351 C 0.31097 0.72166 0.23555 0.0
O352 O 0.31672 0.73159 0.20739 0.0
O353 O 0.42126 0.80462 0.27753 0.0
C354 C 0.21044 0.6345 0.24389 0.0
C355 C 0.19823 0.64395 0.27029 0.0
C356 C 0.25743 0.70614 0.27122 0.0
C357 C 0.27138 0.69544 0.24647 0.0
N358 N 0.26396 0.64732 0.21203 0.0
N359 N 0.2117 0.68602 0.31177 0.0
C360 C 0.24859 0.6591 0.23342 0.0
C361 C 0.22225 0.67898 0.28479 0.0
N362 N 0.18528 0.60237 0.22849 0.0
N363 N 0.27687 0.74272 0.28086 0.0
H364 H 0.18575 0.66698 0.32213 0.0
H365 H 0.22998 0.70929 0.32504 0.0
H366 H 0.30204 0.76378 0.27083 0.0
H367 H 0.26616 0.75305 0.29686 0.0
H368 H 0.19081 0.59623 0.20726 0.0
H369 H 0.15749 0.58301 0.23595 0.0
H370 H 0.25049 0.61965 0.20438 0.0
H371 H 0.29168 0.66431 0.20353 0.0
C372 C 0.58511 0.21557 0.4191 0.0
C373 C 0.5671 0.20145 0.44701 0.0
C374 C 0.56812 0.25991 0.45697 0.0
C375 C 0.58929 0.27532 0.43041 0.0
N376 N 0.6216 0.26989 0.38742 0.0
N377 N 0.54462 0.21062 0.49408 0.0
C378 C 0.59855 0.25363 0.41165 0.0
C379 C 0.55955 0.22379 0.46643 0.0
N380 N 0.58897 0.19241 0.39963 0.0
N381 N 0.55476 0.27921 0.47242 0.0
H382 H 0.53637 0.18366 0.50135 0.0
H383 H 0.54279 0.22716 0.51064 0.0
H384 H 0.55959 0.30523 0.46558 0.0
H385 H 0.53589 0.26811 0.4903 0.0
H386 H 0.59753 0.19945 0.37759 0.0
H387 H 0.58122 0.16495 0.40489 0.0
H388 H 0.63347 0.2572 0.37501 0.0
H389 H 0.6311 0.2973 0.38068 0.0
C390 C 0.38716 0.59945 0.56969 0.0
C391 C 0.37885 0.57582 0.59481 0.0
C392 C 0.31397 0.56684 0.59779 0.0
C393 C 0.32344 0.59306 0.57433 0.0
N394 N 0.37127 0.63948 0.54134 0.0
N395 N 0.33751 0.542 0.63605 0.0
C396 C 0.36062 0.61073 0.56108 0.0
C397 C 0.34316 0.561 0.60986 0.0
N398 N 0.41997 0.61038 0.55365 0.0
N399 N 0.27664 0.54634 0.60766 0.0
H400 H 0.35821 0.53696 0.64549 0.0
H401 H 0.31382 0.53409 0.64975 0.0
H402 H 0.25412 0.54907 0.59883 0.0
H403 H 0.26711 0.5241 0.62254 0.0
H404 H 0.42536 0.62395 0.53317 0.0
H405 H 0.44057 0.60341 0.55971 0.0
H406 H 0.39947 0.65628 0.53364 0.0
H407 H 0.35282 0.64879 0.53451 0.0
C408 C 0.78714 0.31131 0.76462 0.0
C409 C 0.79956 0.34994 0.76814 0.0
C410 C 0.73754 0.33728 0.74742 0.0
C411 C 0.72279 0.2981 0.74904 0.0
N412 N 0.73232 0.24754 0.76432 0.0
N413 N 0.78283 0.39812 0.76863 0.0
C414 C 0.74725 0.28489 0.75891 0.0
C415 C 0.77375 0.36258 0.76111 0.0
N416 N 0.81347 0.29995 0.76587 0.0
N417 N 0.71775 0.35049 0.7318 0.0
H418 H 0.80826 0.41714 0.78008 0.0
H419 H 0.76314 0.40718 0.76631 0.0
H420 H 0.69231 0.3328 0.71978 0.0
H421 H 0.72911 0.37902 0.72784 0.0
H422 H 0.80629 0.27261 0.76073 0.0
H423 H 0.84318 0.31866 0.7689 0.0
H424 H 0.74841 0.23725 0.77442 0.0
H425 H 0.703 0.22729 0.76155 0.0
C426 C 0.42978 0.81137 0.91463 0.0
C427 C 0.42474 0.81756 0.94495 0.0
C428 C 0.40411 0.75232 0.9565 0.0
C429 C 0.40478 0.745 0.92564 0.0
N430 N 0.41081 0.76592 0.87457 0.0
N431 N 0.39975 0.79219 0.99361 0.0
C432 C 0.41563 0.77408 0.90443 0.0
C433 C 0.4097 0.78748 0.96558 0.0
N434 N 0.44924 0.84115 0.8958 0.0
N435 N 0.39992 0.72638 0.97728 0.0
H436 H 0.40276 0.81739 0.00096 0.0
H437 H 0.38505 0.7701 0.00852 0.0
H438 H 0.39733 0.70082 0.97166 0.0
H439 H 0.40315 0.73188 1.00015 0.0
H440 H 0.45733 0.8385 0.87437 0.0
H441 H 0.46049 0.86899 0.90246 0.0
H442 H 0.41441 0.78541 0.85834 0.0
H443 H 0.39954 0.73882 0.86609 0.0
C444 C 0.61964 0.41011 0.11749 0.0
C445 C 0.59563 0.41463 0.09661 0.0
C446 C 0.62289 0.39701 0.05566 0.0
C447 C 0.64547 0.39066 0.07673 0.0
N448 N 0.6572 0.38099 0.12804 0.0
N449 N 0.56748 0.40417 0.04717 0.0
C450 C 0.64141 0.39415 0.10779 0.0
C451 C 0.59503 0.40539 0.06608 0.0
N452 N 0.62301 0.42251 0.14626 0.0
N453 N 0.62941 0.39699 0.02579 0.0
H454 H 0.54646 0.40993 0.05421 0.0
H455 H 0.56316 0.39403 0.02534 0.0
H456 H 0.65006 0.39164 0.01723 0.0
H457 H 0.61678 0.4055 0.00962 0.0
H458 H 0.64351 0.42383 0.16142 0.0
H459 H 0.60757 0.43442 0.15437 0.0
H460 H 0.65183 0.37942 0.15084 0.0
H461 H 0.67231 0.36793 0.12182 0.0
C462 C 0.39462 0.79506 0.53584 0.0
C463 C 0.38199 0.8212 0.53652 0.0
C464 C 0.31628 0.77067 0.54875 0.0
C465 C 0.3296 0.74505 0.55011 0.0
N466 N 0.38371 0.73533 0.55338 0.0
N467 N 0.3337 0.8358 0.55101 0.0
C468 C 0.36951 0.758 0.54622 0.0
C469 C 0.34369 0.8096 0.54536 0.0
N470 N 0.4298 0.80499 0.52408 0.0
N471 N 0.27743 0.75784 0.54893 0.0
H472 H 0.35328 0.86466 0.54923 0.0
H473 H 0.30731 0.82912 0.56031 0.0
H474 H 0.25615 0.72947 0.55046 0.0
H475 H 0.26616 0.77504 0.54471 0.0
H476 H 0.43847 0.7857 0.52015 0.0
H477 H 0.44889 0.83168 0.51567 0.0
H478 H 0.41321 0.74461 0.55349 0.0
H479 H 0.36652 0.70861 0.56245 0.0
C480 C 0.60537 0.39811 0.69927 0.0
C481 C 0.5666 0.39009 0.69917 0.0
C482 C 0.54394 0.32622 0.71673 0.0
C483 C 0.58299 0.335 0.71832 0.0
N484 N 0.65096 0.38272 0.72037 0.0
N485 N 0.5007 0.35048 0.71567 0.0
C486 C 0.61377 0.37207 0.71247 0.0
C487 C 0.53639 0.35537 0.71048 0.0
N488 N 0.63388 0.42958 0.68556 0.0
N489 N 0.51399 0.28989 0.71941 0.0
H490 H 0.49439 0.37157 0.7119 0.0
H491 H 0.47873 0.32706 0.72653 0.0
H492 H 0.51803 0.26741 0.72335 0.0
H493 H 0.48514 0.28158 0.71509 0.0
H494 H 0.66173 0.43451 0.68236 0.0
H495 H 0.62889 0.44904 0.67492 0.0
H496 H 0.67416 0.41033 0.71891 0.0
H497 H 0.65763 0.36485 0.73176 0.0
C498 C 0.2166 0.55347 0.84135 0.0
C499 C 0.19275 0.55741 0.86227 0.0
C500 C 0.24513 0.58218 0.89976 0.0
C501 C 0.26964 0.58013 0.87833 0.0
N502 N 0.28132 0.56877 0.82783 0.0
N503 N 0.18509 0.58055 0.90938 0.0
C504 C 0.25618 0.56736 0.84879 0.0
C505 C 0.20723 0.57315 0.89097 0.0
N506 N 0.20097 0.53515 0.81484 0.0
N507 N 0.25807 0.59258 0.92854 0.0
H508 H 0.15713 0.57419 0.90364 0.0
H509 H 0.1953 0.59563 0.92929 0.0
H510 H 0.28634 0.60136 0.93551 0.0
H511 H 0.24027 0.59041 0.94604 0.0
H512 H 0.2155 0.52753 0.80007 0.0
H513 H 0.17224 0.52508 0.80838 0.0
H514 H 0.27462 0.56418 0.80514 0.0
H515 H 0.30999 0.57684 0.83279 0.0
C516 C 0.60575 0.20913 0.06934 0.0
C517 C 0.61897 0.19265 0.04856 0.0
C518 C 0.6851 0.24661 0.05373 0.0
C519 C 0.67106 0.26506 0.07162 0.0
N520 N 0.61641 0.26673 0.09163 0.0
N521 N 0.66962 0.1983 0.01672 0.0
C522 C 0.63095 0.24709 0.07829 0.0
C523 C 0.65824 0.21212 0.03953 0.0
N524 N 0.56951 0.18829 0.08111 0.0
N525 N 0.72417 0.26145 0.05107 0.0
H526 H 0.65062 0.17332 0.00543 0.0
H527 H 0.69695 0.21332 0.00714 0.0
H528 H 0.74479 0.28614 0.06194 0.0
H529 H 0.73605 0.24736 0.04067 0.0
H530 H 0.56 0.19769 0.09873 0.0
H531 H 0.55016 0.16032 0.07514 0.0
H532 H 0.58679 0.25608 0.09391 0.0
H533 H 0.63345 0.29491 0.09788 0.0
C534 C 0.46575 0.66805 0.20292 0.0
C535 C 0.43646 0.63279 0.1911 0.0
C536 C 0.38734 0.64851 0.20261 0.0
C537 C 0.41711 0.68586 0.20962 0.0
N538 N 0.48551 0.73291 0.21231 0.0
N539 N 0.36981 0.59181 0.17509 0.0
C540 C 0.45663 0.69615 0.20888 0.0
C541 C 0.39729 0.62356 0.18973 0.0
N542 N 0.50199 0.67439 0.2091 0.0
N543 N 0.34966 0.63644 0.20932 0.0
H544 H 0.37601 0.57315 0.16461 0.0
H545 H 0.34169 0.58595 0.17089 0.0
H546 H 0.34169 0.65337 0.22049 0.0
H547 H 0.32723 0.60852 0.20704 0.0
H548 H 0.52329 0.69823 0.22042 0.0
H549 H 0.50952 0.65415 0.20562 0.0
H550 H 0.51466 0.74235 0.20872 0.0
H551 H 0.48023 0.75461 0.21605 0.0
C552 C 0.78198 0.40626 0.36948 0.0
C553 C 0.81371 0.44371 0.37227 0.0
C554 C 0.77177 0.46272 0.39573 0.0
C555 C 0.74063 0.42482 0.39453 0.0
N556 N 0.71865 0.35919 0.38739 0.0
N557 N 0.84133 0.50563 0.39401 0.0
C558 C 0.74649 0.39615 0.3835 0.0
C559 C 0.80938 0.47138 0.38727 0.0
N560 N 0.78526 0.3807 0.35257 0.0
N561 N 0.76514 0.4907 0.40351 0.0
H562 H 0.86943 0.51288 0.38838 0.0
H563 H 0.84043 0.52548 0.40759 0.0
H564 H 0.73794 0.48564 0.40961 0.0
H565 H 0.78584 0.51918 0.40149 0.0
H566 H 0.76177 0.3542 0.34708 0.0
H567 H 0.8108 0.38704 0.34188 0.0
H568 H 0.72277 0.33704 0.38234 0.0
H569 H 0.69292 0.3508 0.39863 0.0
C570 C 0.11128 0.58531 0.47359 0.0
C571 C 0.13014 0.58701 0.44658 0.0
C572 C 0.193 0.61794 0.47281 0.0
C573 C 0.1737 0.61307 0.50025 0.0
N574 N 0.11391 0.58546 0.5276 0.0
N575 N 0.18776 0.5992 0.42091 0.0
C576 C 0.13265 0.59494 0.50089 0.0
C577 C 0.17071 0.60168 0.4463 0.0
N578 N 0.07322 0.57556 0.47305 0.0
N579 N 0.23258 0.63951 0.47183 0.0
H580 H 0.17239 0.58771 0.40099 0.0
H581 H 0.21641 0.60562 0.42023 0.0
H582 H 0.2499 0.6524 0.49066 0.0
H583 H 0.24804 0.64745 0.45202 0.0
H584 H 0.05916 0.57783 0.49157 0.0
H585 H 0.05653 0.56835 0.45347 0.0
H586 H 0.08388 0.56865 0.52937 0.0
H587 H 0.12845 0.59127 0.54813 0.0
C588 C 0.5275 0.11354 0.64348 0.0
C589 C 0.55011 0.13155 0.61799 0.0
C590 C 0.59358 0.18747 0.64794 0.0
C591 C 0.57021 0.16992 0.67329 0.0
N592 N 0.51022 0.12033 0.69371 0.0
N593 N 0.60011 0.18742 0.59413 0.0
C594 C 0.53582 0.13405 0.67066 0.0
C595 C 0.58168 0.16917 0.61966 0.0
N596 N 0.49851 0.07657 0.64184 0.0
N597 N 0.62811 0.22071 0.65112 0.0
H598 H 0.59289 0.17448 0.57316 0.0
H599 H 0.62043 0.21611 0.59328 0.0
H600 H 0.63783 0.23529 0.67128 0.0
H601 H 0.6486 0.23261 0.63434 0.0
H602 H 0.48428 0.06052 0.66046 0.0
H603 H 0.49021 0.06109 0.62199 0.0
H604 H 0.48276 0.09622 0.69206 0.0
H605 H 0.51478 0.13495 0.71371 0.0
C606 C 0.44757 0.56142 0.79478 0.0
C607 C 0.44722 0.57752 0.76691 0.0
C608 C 0.4196 0.61154 0.79048 0.0
C609 C 0.42275 0.59767 0.81871 0.0
N610 N 0.44687 0.56565 0.84867 0.0
N611 N 0.43981 0.62302 0.73885 0.0
C612 C 0.43881 0.57438 0.82113 0.0
C613 C 0.43534 0.60419 0.76495 0.0
N614 N 0.45491 0.53277 0.79594 0.0
N615 N 0.39982 0.63003 0.78773 0.0
H616 H 0.45099 0.61816 0.71964 0.0
H617 H 0.4356 0.64565 0.73697 0.0
H618 H 0.38729 0.63551 0.80573 0.0
H619 H 0.39286 0.63705 0.76723 0.0
H620 H 0.45128 0.5171 0.81508 0.0
H621 H 0.46146 0.52242 0.77713 0.0
H622 H 0.46226 0.55204 0.85187 0.0
H623 H 0.4415 0.57523 0.86848 0.0
C624 C 0.87353 0.45427 0.96485 0.0
C625 C 0.8618 0.42974 0.93983 0.0
C626 C 0.80105 0.38565 0.96449 0.0
C627 C 0.81537 0.40735 0.99109 0.0
N628 N 0.86644 0.46116 0.01768 0.0
N629 N 0.81601 0.37077 0.91607 0.0
C630 C 0.85173 0.44166 0.99151 0.0
C631 C 0.82583 0.39516 0.93959 0.0
N632 N 0.9053 0.48976 0.96293 0.0
N633 N 0.76332 0.35659 0.96279 0.0
H634 H 0.83301 0.37705 0.8971 0.0
H635 H 0.79243 0.34329 0.91621 0.0
H636 H 0.74406 0.34942 0.9804 0.0
H637 H 0.75002 0.34205 0.9431 0.0
H638 H 0.91309 0.51038 0.97924 0.0
H639 H 0.92206 0.49971 0.94376 0.0
H640 H 0.89475 0.48377 0.02016 0.0
H641 H 0.8513 0.45323 0.03763 0.0
C642 C 0.41936 0.89557 0.14505 0.0
C643 C 0.4224 0.879 0.11836 0.0
C644 C 0.39571 0.81849 0.14367 0.0
C645 C 0.39785 0.83636 0.17126 0.0
N646 N 0.41862 0.89379 0.19896 0.0
N647 N 0.41858 0.82601 0.09292 0.0
C648 C 0.4113 0.87539 0.17219 0.0
C649 C 0.41188 0.84075 0.11779 0.0
N650 N 0.42345 0.93034 0.14437 0.0
N651 N 0.37703 0.78016 0.14194 0.0
H652 H 0.43039 0.8414 0.07349 0.0
H653 H 0.4155 0.79953 0.09242 0.0
H654 H 0.36381 0.76279 0.1602 0.0
H655 H 0.3712 0.76547 0.12186 0.0
H656 H 0.41756 0.9421 0.16257 0.0
H657 H 0.42904 0.94589 0.12482 0.0
H658 H 0.4324 0.92294 0.2008 0.0
H659 H 0.4146 0.88055 0.2195 0.0
C660 C 0.5367 0.40959 0.28128 0.0
C661 C 0.55745 0.44689 0.2702 0.0
C662 C 0.60604 0.46434 0.31006 0.0
C663 C 0.58248 0.42869 0.32355 0.0
N664 N 0.52083 0.37002 0.32478 0.0
N665 N 0.60716 0.512 0.27846 0.0
C666 C 0.54652 0.40192 0.30992 0.0
C667 C 0.59078 0.47497 0.28587 0.0
N668 N 0.50838 0.38125 0.26415 0.0
N669 N 0.64368 0.48744 0.31927 0.0
H670 H 0.59609 0.52128 0.26159 0.0
H671 H 0.6292 0.53374 0.29117 0.0
H672 H 0.657 0.47988 0.33561 0.0
H673 H 0.66294 0.51216 0.30821 0.0
H674 H 0.49504 0.35299 0.27 0.0
H675 H 0.50099 0.38555 0.24274 0.0
H676 H 0.49272 0.35151 0.31695 0.0
H677 H 0.52594 0.36404 0.34637 0.0
C678 C 0.47878 0.87756 0.35411 0.0
C679 C 0.45117 0.87651 0.37406 0.0
C680 C 0.39885 0.82218 0.34735 0.0
C681 C 0.42678 0.82123 0.32893 0.0
N682 N 0.4938 0.84355 0.31811 0.0
N683 N 0.38637 0.84364 0.39375 0.0
C684 C 0.46694 0.84771 0.33322 0.0
C685 C 0.41161 0.8475 0.37193 0.0
N686 N 0.516 0.90761 0.35453 0.0
N687 N 0.36015 0.80042 0.34047 0.0
H688 H 0.3946 0.8617 0.41214 0.0
H689 H 0.3582 0.82058 0.39505 0.0
H690 H 0.34942 0.78227 0.32213 0.0
H691 H 0.33887 0.80305 0.35122 0.0
H692 H 0.5363 0.91201 0.33839 0.0
H693 H 0.52579 0.92985 0.36969 0.0
H694 H 0.52351 0.85964 0.32255 0.0
H695 H 0.48621 0.82169 0.30297 0.0
C696 C 0.56501 0.45682 0.49157 0.0
C697 C 0.56269 0.44113 0.52017 0.0
C698 C 0.58101 0.39839 0.49871 0.0
C699 C 0.57784 0.41038 0.46974 0.0
N700 N 0.56217 0.44772 0.438 0.0
N701 N 0.56352 0.39365 0.55074 0.0
C702 C 0.5688 0.43889 0.46596 0.0
C703 C 0.56955 0.41111 0.52376 0.0
N704 N 0.56438 0.48929 0.48898 0.0
N705 N 0.5959 0.37561 0.50233 0.0
H706 H 0.55496 0.40198 0.56965 0.0
H707 H 0.56388 0.36898 0.55379 0.0
H708 H 0.60551 0.36667 0.48446 0.0
H709 H 0.60237 0.36877 0.5231 0.0
H710 H 0.56986 0.50411 0.4691 0.0
H711 H 0.56201 0.50337 0.50733 0.0
H712 H 0.55134 0.46532 0.43403 0.0
H713 H 0.56438 0.43494 0.41874 0.0
C714 C 0.13153 0.53925 0.67762 0.0
C715 C 0.13492 0.5581 0.70485 0.0
C716 C 0.19218 0.61516 0.68646 0.0
C717 C 0.19038 0.59547 0.66006 0.0
N718 N 0.16355 0.53672 0.63307 0.0
N719 N 0.17156 0.6114 0.73765 0.0
C720 C 0.16144 0.55692 0.65629 0.0
C721 C 0.16622 0.59533 0.71002 0.0
N722 N 0.0993 0.50481 0.67187 0.0
N723 N 0.21758 0.6531 0.68851 0.0
H724 H 0.15284 0.59784 0.75535 0.0
H725 H 0.19616 0.63682 0.74378 0.0
H726 H 0.23685 0.66865 0.6716 0.0
H727 H 0.21739 0.66974 0.70579 0.0
H728 H 0.09305 0.49164 0.65106 0.0
H729 H 0.07715 0.49058 0.68724 0.0
H730 H 0.14573 0.50765 0.63099 0.0
H731 H 0.18551 0.54835 0.6173 0.0
C732 C 0.54822 0.17094 0.88072 0.0
C733 C 0.55218 0.13914 0.87739 0.0
C734 C 0.58155 0.16157 0.82841 0.0
C735 C 0.57445 0.1916 0.83059 0.0
N736 N 0.5455 0.22173 0.85643 0.0
N737 N 0.56649 0.10051 0.84644 0.0
C738 C 0.55631 0.19549 0.85614 0.0
C739 C 0.56702 0.13335 0.85072 0.0
N740 N 0.5377 0.17819 0.90764 0.0
N741 N 0.60386 0.16101 0.80588 0.0
H742 H 0.5566 0.07939 0.86247 0.0
H743 H 0.57282 0.09284 0.82613 0.0
H744 H 0.6159 0.1816 0.78944 0.0
H745 H 0.61352 0.14213 0.80499 0.0
H746 H 0.53848 0.20307 0.9125 0.0
H747 H 0.53108 0.16058 0.92605 0.0
H748 H 0.52851 0.22331 0.87303 0.0
H749 H 0.55061 0.23996 0.83871 0.0
C750 C 0.44474 0.61037 0.01421 0.0
C751 C 0.44283 0.5753 0.01423 0.0
C752 C 0.42426 0.56613 0.96114 0.0
C753 C 0.43019 0.60283 0.96044 0.0
N754 N 0.44829 0.66135 0.98505 0.0
N755 N 0.43268 0.52011 0.98816 0.0
C756 C 0.44067 0.62526 0.98671 0.0
C757 C 0.43293 0.55315 0.98782 0.0
N758 N 0.4503 0.62928 0.04053 0.0
N759 N 0.40931 0.54339 0.9365 0.0
H760 H 0.43679 0.5087 0.00761 0.0
H761 H 0.43042 0.50486 0.96904 0.0
H762 H 0.40268 0.55212 0.91664 0.0
H763 H 0.40056 0.51504 0.93629 0.0
H764 H 0.44782 0.65288 0.04268 0.0
H765 H 0.45481 0.61989 0.06091 0.0
H766 H 0.46024 0.68072 0.00251 0.0
H767 H 0.44495 0.67298 0.96543 0.0
C768 C 0.8803 0.4138 0.17306 0.0
C769 C 0.87791 0.44054 0.19114 0.0
C770 C 0.83608 0.44544 0.15363 0.0
C771 C 0.83556 0.41622 0.1368 0.0
N772 N 0.85043 0.36701 0.13373 0.0
N773 N 0.84669 0.47541 0.20198 0.0
C774 C 0.85576 0.39876 0.14743 0.0
C775 C 0.8536 0.45434 0.18246 0.0
N776 N 0.90698 0.4038 0.17969 0.0
N777 N 0.82185 0.4662 0.14151 0.0
H778 H 0.85873 0.48217 0.22347 0.0
H779 H 0.82609 0.48297 0.19793 0.0
H780 H 0.81034 0.46193 0.11991 0.0
H781 H 0.82519 0.49026 0.15168 0.0
H782 H 0.9129 0.38763 0.16545 0.0
H783 H 0.92563 0.41428 0.19819 0.0
H784 H 0.86131 0.35094 0.14237 0.0
H785 H 0.83195 0.35458 0.11534 0.0
loop_
_geom_bond_atom_site_label_1
_geom_bond_atom_site_label_2
_geom_bond_distance
_geom_bond_site_symmetry_2
_ccdc_geom_bond_type
C0 C1 1.384 . S
C0 C2 1.384 . S
C0 H28 0.931 . S
C1 C0 1.384 . S
C1 C4 1.382 . S
C2 C0 1.384 . S
C2 C3 1.381 . S
C2 H29 0.930 . S
C3 C2 1.381 . S
C3 C5 1.381 . S
C3 C6 1.487 . S
C4 C1 1.382 . S
C4 C5 1.387 . S
C4 H30 0.930 . S
C5 C3 1.381 . S
C5 C4 1.387 . S
C5 H31 0.931 . S
C6 C3 1.487 . S
C6 C13 1.399 . S
C6 N44 1.343 . S
C7 C8 1.384 . S
C7 C9 1.384 . S
C7 H32 0.931 . S
C8 C7 1.384 . S
C8 C11 1.382 . S
C9 C7 1.384 . S
C9 C10 1.381 . S
C9 H33 0.930 . S
C10 C9 1.381 . S
C10 C12 1.381 . S
C10 C13 1.487 . S
C11 C8 1.382 . S
C11 C12 1.387 . S
C11 H34 0.930 . S
C12 C10 1.381 . S
C12 C11 1.387 . S
C12 H35 0.931 . S
C13 C6 1.399 . S
C13 C10 1.487 . S
C13 N45 1.343 1_655 S
C14 C15 1.384 . S
C14 C16 1.384 . S
C14 H36 0.931 . S
C15 C14 1.384 . S
C15 C18 1.382 . S
C16 C14 1.384 . S
C16 C17 1.381 . S
C16 H37 0.930 . S
C17 C16 1.381 . S
C17 C19 1.381 . S
C17 C20 1.487 . S
C18 C15 1.382 . S
C18 C19 1.387 . S
C18 H38 0.930 . S
C19 C17 1.381 . S
C19 C18 1.387 . S
C19 H39 0.931 . S
C20 C17 1.487 . S
C20 C27 1.399 . S
C20 N45 1.343 . S
C21 C22 1.384 . S
C21 C23 1.384 . S
C21 H40 0.931 . S
C22 C21 1.384 . S
C22 C25 1.382 . S
C23 C21 1.384 . S
C23 C24 1.381 . S
C23 H41 0.930 . S
C24 C23 1.381 . S
C24 C26 1.381 . S
C24 C27 1.487 . S
C25 C22 1.382 . S
C25 C26 1.387 . S
C25 H42 0.930 . S
C26 C24 1.381 . S
C26 C25 1.387 . S
C26 H43 0.931 . S
C27 C20 1.399 . S
C27 C24 1.487 . S
C27 N44 1.343 1_455 S
H28 C0 0.931 . S
H29 C2 0.930 . S
H30 C4 0.930 . S
H31 C5 0.931 . S
H32 C7 0.931 . S
H33 C9 0.930 . S
H34 C11 0.930 . S
H35 C12 0.931 . S
H36 C14 0.931 . S
H37 C16 0.930 . S
H38 C18 0.930 . S
H39 C19 0.931 . S
H40 C21 0.931 . S
H41 C23 0.930 . S
H42 C25 0.930 . S
H43 C26 0.931 . S
N44 C6 1.343 . S
N44 C27 1.343 1_655 S
N45 C13 1.343 1_455 S
N45 C20 1.343 . S
C46 C47 1.384 . S
C46 C48 1.384 . S
C46 H74 0.931 . S
C47 C46 1.384 . S
C47 C50 1.382 . S
C48 C46 1.384 . S
C48 C49 1.381 . S
C48 H75 0.930 . S
C49 C48 1.381 . S
C49 C51 1.381 . S
C49 C52 1.487 . S
C50 C47 1.382 . S
C50 C51 1.387 . S
C50 H76 0.930 . S
C51 C49 1.381 . S
C51 C50 1.387 . S
C51 H77 0.931 . S
C52 C49 1.487 . S
C52 C59 1.399 . S
C52 N90 1.340 1_565 S
C53 C54 1.384 . S
C53 C55 1.384 . S
C53 H78 0.931 . S
C54 C53 1.384 . S
C54 C57 1.382 . S
C55 C53 1.384 . S
C55 C56 1.381 . S
C55 H79 0.930 . S
C56 C55 1.381 . S
C56 C58 1.381 . S
C56 C59 1.487 . S
C57 C54 1.382 . S
C57 C58 1.387 . S
C57 H80 0.930 . S
C58 C56 1.381 . S
C58 C57 1.387 . S
C58 H81 0.931 . S
C59 C52 1.399 . S
C59 C56 1.487 . S
C59 N91 1.343 1_565 S
C60 C61 1.384 . S
C60 C62 1.384 . S
C60 H82 0.931 . S
C61 C60 1.384 . S
C61 C64 1.382 . S
C62 C60 1.384 . S
C62 C63 1.381 . S
C62 H83 0.930 . S
C63 C62 1.381 . S
C63 C65 1.381 . S
C63 C66 1.487 . S
C64 C61 1.382 . S
C64 C65 1.387 . S
C64 H84 0.930 . S
C65 C63 1.381 . S
C65 C64 1.387 . S
C65 H85 0.931 . S
C66 C63 1.487 . S
C66 C73 1.399 . S
C66 N91 1.343 . S
C67 C68 1.384 . S
C67 C69 1.384 . S
C67 H86 0.931 . S
C68 C67 1.384 . S
C68 C71 1.382 . S
C69 C67 1.384 . S
C69 C70 1.381 . S
C69 H87 0.930 . S
C70 C69 1.381 . S
C70 C72 1.381 . S
C70 C73 1.487 . S
C71 C68 1.382 . S
C71 C72 1.387 . S
C71 H88 0.930 . S
C72 C70 1.381 . S
C72 C71 1.387 . S
C72 H89 0.931 . S
C73 C66 1.399 . S
C73 C70 1.487 . S
C73 N90 1.348 . S
H74 C46 0.931 . S
H75 C48 0.930 . S
H76 C50 0.930 . S
H77 C51 0.931 . S
H78 C53 0.931 . S
H79 C55 0.930 . S
H80 C57 0.930 . S
H81 C58 0.931 . S
H82 C60 0.931 . S
H83 C62 0.930 . S
H84 C64 0.930 . S
H85 C65 0.931 . S
H86 C67 0.931 . S
H87 C69 0.930 . S
H88 C71 0.930 . S
H89 C72 0.931 . S
N90 C52 1.340 1_545 S
N90 C73 1.348 . S
N91 C59 1.343 1_545 S
N91 C66 1.343 . S
C92 C93 1.384 . S
C92 C94 1.384 . S
C92 H120 0.931 . S
C93 C92 1.384 . S
C93 C96 1.382 . S
C94 C92 1.384 . S
C94 C95 1.381 . S
C94 H121 0.930 . S
C95 C94 1.381 . S
C95 C97 1.381 . S
C95 C98 1.487 . S
C96 C93 1.382 . S
C96 C97 1.387 . S
C96 H122 0.930 . S
C97 C95 1.381 . S
C97 C96 1.387 . S
C97 H123 0.931 . S
C98 C95 1.487 . S
C98 C105 1.399 . S
C98 N136 1.343 . S
C99 C100 1.384 . S
C99 C101 1.384 . S
C99 H124 0.931 . S
C100 C99 1.384 . S
C100 C103 1.382 . S
C101 C99 1.384 . S
C101 C102 1.381 . S
C101 H125 0.930 . S
C102 C101 1.381 . S
C102 C104 1.381 . S
C102 C105 1.487 . S
C103 C100 1.382 . S
C103 C104 1.387 . S
C103 H126 0.930 . S
C104 C102 1.381 . S
C104 C103 1.387 . S
C104 H127 0.931 . S
C105 C98 1.399 . S
C105 C102 1.487 . S
C105 N137 1.343 . S
C106 C107 1.384 . S
C106 C108 1.384 . S
C106 H128 0.931 . S
C107 C106 1.384 . S
C107 C110 1.382 . S
C108 C106 1.384 . S
C108 C109 1.381 . S
C108 H129 0.930 . S
C109 C108 1.381 . S
C109 C111 1.381 . S
C109 C112 1.487 . S
C110 C107 1.382 . S
C110 C111 1.387 . S
C110 H130 0.930 . S
C111 C109 1.381 . S
C111 C110 1.387 . S
C111 H131 0.931 . S
C112 C109 1.487 . S
C112 C119 1.399 . S
C112 N137 1.343 . S
C113 C114 1.384 . S
C113 C115 1.384 . S
C113 H132 0.931 . S
C114 C113 1.384 . S
C114 C117 1.382 . S
C115 C113 1.384 . S
C115 C116 1.381 . S
C115 H133 0.930 . S
C116 C115 1.381 . S
C116 C118 1.381 . S
C116 C119 1.487 . S
C117 C114 1.382 . S
C117 C118 1.387 . S
C117 H134 0.930 . S
C118 C116 1.381 . S
C118 C117 1.387 . S
C118 H135 0.931 . S
C119 C112 1.399 . S
C119 C116 1.487 . S
C119 N136 1.343 . S
H120 C92 0.931 . S
H121 C94 0.930 . S
H122 C96 0.930 . S
H123 C97 0.931 . S
H124 C99 0.931 . S
H125 C101 0.930 . S
H126 C103 0.930 . S
H127 C104 0.931 . S
H128 C106 0.931 . S
H129 C108 0.930 . S
H130 C110 0.930 . S
H131 C111 0.931 . S
H132 C113 0.931 . S
H133 C115 0.930 . S
H134 C117 0.930 . S
H135 C118 0.931 . S
N136 C98 1.343 . S
N136 C119 1.343 . S
N137 C105 1.343 . S
N137 C112 1.343 . S
C138 C139 1.384 . S
C138 C140 1.384 . S
C138 H166 0.931 . S
C139 C138 1.384 . S
C139 C142 1.382 . S
C140 C138 1.384 . S
C140 C141 1.381 . S
C140 H167 0.930 . S
C141 C140 1.381 . S
C141 C143 1.381 . S
C141 C144 1.487 . S
C142 C139 1.382 . S
C142 C143 1.387 . S
C142 H168 0.930 . S
C143 C141 1.381 . S
C143 C142 1.387 . S
C143 H169 0.931 . S
C144 C141 1.487 . S
C144 C151 1.399 . S
C144 N182 1.343 . S
C145 C146 1.384 . S
C145 C147 1.384 . S
C145 H170 0.931 . S
C146 C145 1.384 . S
C146 C149 1.382 . S
C147 C145 1.384 . S
C147 C148 1.381 . S
C147 H171 0.930 . S
C148 C147 1.381 . S
C148 C150 1.381 . S
C148 C151 1.487 . S
C149 C146 1.382 . S
C149 C150 1.387 . S
C149 H172 0.930 . S
C150 C148 1.381 . S
C150 C149 1.387 . S
C150 H173 0.931 . S
C151 C144 1.399 . S
C151 C148 1.487 . S
C151 N183 1.343 1_655 S
C152 C153 1.384 . S
C152 C154 1.384 . S
C152 H174 0.931 . S
C153 C152 1.384 . S
C153 C156 1.382 . S
C154 C152 1.384 . S
C154 C155 1.381 . S
C154 H175 0.930 . S
C155 C154 1.381 . S
C155 C157 1.381 . S
C155 C158 1.487 . S
C156 C153 1.382 . S
C156 C157 1.387 . S
C156 H176 0.930 . S
C157 C155 1.381 . S
C157 C156 1.387 . S
C157 H177 0.931 . S
C158 C155 1.487 . S
C158 C165 1.399 . S
C158 N183 1.343 . S
C159 C160 1.384 . S
C159 C161 1.384 . S
C159 H178 0.931 . S
C160 C159 1.384 . S
C160 C163 1.382 . S
C161 C159 1.384 . S
C161 C162 1.381 . S
C161 H179 0.930 . S
C162 C161 1.381 . S
C162 C164 1.381 . S
C162 C165 1.487 . S
C163 C160 1.382 . S
C163 C164 1.387 . S
C163 H180 0.930 . S
C164 C162 1.381 . S
C164 C163 1.387 . S
C164 H181 0.931 . S
C165 C158 1.399 . S
C165 C162 1.487 . S
C165 N182 1.343 1_455 S
H166 C138 0.931 . S
H167 C140 0.930 . S
H168 C142 0.930 . S
H169 C143 0.931 . S
H170 C145 0.931 . S
H171 C147 0.930 . S
H172 C149 0.930 . S
H173 C150 0.931 . S
H174 C152 0.931 . S
H175 C154 0.930 . S
H176 C156 0.930 . S
H177 C157 0.931 . S
H178 C159 0.931 . S
H179 C161 0.930 . S
H180 C163 0.930 . S
H181 C164 0.931 . S
N182 C144 1.343 . S
N182 C165 1.343 1_655 S
N183 C151 1.343 1_455 S
N183 C158 1.343 . S
C184 C185 1.384 . S
C184 C186 1.384 . S
C184 H212 0.931 . S
C185 C184 1.384 . S
C185 C188 1.382 . S
C186 C184 1.384 . S
C186 C187 1.381 . S
C186 H213 0.930 1_556 S
C187 C186 1.381 . S
C187 C189 1.381 . S
C187 C190 1.487 . S
C188 C185 1.382 . S
C188 C189 1.387 . S
C188 H214 0.930 . S
C189 C187 1.381 . S
C189 C188 1.387 . S
C189 H215 0.931 . S
C190 C187 1.487 . S
C190 C197 1.399 1_556 S
C190 N228 1.343 . S
C191 C192 1.384 . S
C191 C193 1.384 . S
C191 H216 0.931 . S
C192 C191 1.384 . S
C192 C195 1.382 . S
C193 C191 1.384 . S
C193 C194 1.381 . S
C193 H217 0.930 . S
C194 C193 1.381 . S
C194 C196 1.381 . S
C194 C197 1.487 . S
C195 C192 1.382 . S
C195 C196 1.387 . S
C195 H218 0.930 . S
C196 C194 1.381 . S
C196 C195 1.387 . S
C196 H219 0.931 . S
C197 C190 1.399 1_554 S
C197 C194 1.487 . S
C197 N229 1.343 1_565 S
C198 C199 1.384 . S
C198 C200 1.384 1_554 S
C198 H220 0.935 . S
C199 C198 1.384 . S
C199 C202 1.382 . S
C200 C198 1.384 1_556 S
C200 C201 1.381 1_556 S
C200 H221 0.930 . S
C201 C200 1.381 1_554 S
C201 C203 1.381 . S
C201 C204 1.487 1_554 S
C202 C199 1.382 . S
C202 C203 1.387 . S
C202 H222 0.930 . S
C203 C201 1.381 . S
C203 C202 1.387 . S
C203 H223 0.931 . S
C204 C201 1.487 1_556 S
C204 C211 1.399 . S
C204 N229 1.343 1_556 S
C205 C206 1.384 . S
C205 C207 1.384 . S
C205 H224 0.931 . S
C206 C205 1.384 . S
C206 C209 1.382 . S
C207 C205 1.384 . S
C207 C208 1.381 . S
C207 H225 0.930 . S
C208 C207 1.381 . S
C208 C210 1.381 . S
C208 C211 1.487 . S
C209 C206 1.382 . S
C209 C210 1.387 . S
C209 H226 0.930 . S
C210 C208 1.381 . S
C210 C209 1.387 . S
C210 H227 0.931 . S
C211 C204 1.399 . S
C211 C208 1.487 . S
C211 N228 1.343 1_545 S
H212 C184 0.931 . S
H213 C186 0.930 1_554 S
H214 C188 0.930 . S
H215 C189 0.931 . S
H216 C191 0.931 . S
H217 C193 0.930 . S
H218 C195 0.930 . S
H219 C196 0.931 . S
H220 C198 0.935 . S
H221 C200 0.930 . S
H222 C202 0.930 . S
H223 C203 0.931 . S
H224 C205 0.931 . S
H225 C207 0.930 . S
H226 C209 0.930 . S
H227 C210 0.931 . S
N228 C190 1.343 . S
N228 C211 1.343 1_565 S
N229 C197 1.343 1_545 S
N229 C204 1.343 1_554 S
C230 C231 1.384 . S
C230 C232 1.384 . S
C230 H258 0.931 . S
C231 C230 1.384 . S
C231 C234 1.382 . S
C232 C230 1.384 . S
C232 C233 1.381 . S
C232 H259 0.930 . S
C233 C232 1.381 . S
C233 C235 1.381 . S
C233 C236 1.487 . S
C234 C231 1.382 . S
C234 C235 1.387 . S
C234 H260 0.930 . S
C235 C233 1.381 . S
C235 C234 1.387 . S
C235 H261 0.931 . S
C236 C233 1.487 . S
C236 C243 1.399 . S
C236 N274 1.343 . S
C237 C238 1.384 . S
C237 C239 1.384 . S
C237 H262 0.931 . S
C238 C237 1.384 . S
C238 C241 1.382 . S
C239 C237 1.384 . S
C239 C240 1.381 . S
C239 H263 0.930 . S
C240 C239 1.381 . S
C240 C242 1.381 . S
C240 C243 1.487 . S
C241 C238 1.382 . S
C241 C242 1.387 . S
C241 H264 0.930 . S
C242 C240 1.381 . S
C242 C241 1.387 . S
C242 H265 0.931 . S
C243 C236 1.399 . S
C243 C240 1.487 . S
C243 N275 1.343 . S
C244 C245 1.384 . S
C244 C246 1.384 . S
C244 H266 0.931 . S
C245 C244 1.384 . S
C245 C248 1.382 . S
C246 C244 1.384 . S
C246 C247 1.381 . S
C246 H267 0.930 . S
C247 C246 1.381 . S
C247 C249 1.381 . S
C247 C250 1.487 . S
C248 C245 1.382 . S
C248 C249 1.387 . S
C248 H268 0.930 . S
C249 C247 1.381 . S
C249 C248 1.387 . S
C249 H269 0.931 . S
C250 C247 1.487 . S
C250 C257 1.399 . S
C250 N275 1.343 . S
C251 C252 1.384 . S
C251 C253 1.384 . S
C251 H270 0.931 . S
C252 C251 1.384 . S
C252 C255 1.382 . S
C253 C251 1.384 . S
C253 C254 1.381 . S
C253 H271 0.930 . S
C254 C253 1.381 . S
C254 C256 1.381 . S
C254 C257 1.487 . S
C255 C252 1.382 . S
C255 C256 1.387 . S
C255 H272 0.930 . S
C256 C254 1.381 . S
C256 C255 1.387 . S
C256 H273 0.931 . S
C257 C250 1.399 . S
C257 C254 1.487 . S
C257 N274 1.343 . S
H258 C230 0.931 . S
H259 C232 0.930 . S
H260 C234 0.930 . S
H261 C235 0.931 . S
H262 C237 0.931 . S
H263 C239 0.930 . S
H264 C241 0.930 . S
H265 C242 0.931 . S
H266 C244 0.931 . S
H267 C246 0.930 . S
H268 C248 0.930 . S
H269 C249 0.931 . S
H270 C251 0.931 . S
H271 C253 0.930 . S
H272 C255 0.930 . S
H273 C256 0.931 . S
N274 C236 1.343 . S
N274 C257 1.343 . S
N275 C243 1.343 . S
N275 C250 1.343 . S
C276 O277 1.160 . S
C276 O283 1.185 . S
O277 C276 1.160 . S
O278 Zn279 1.899 . S
O278 C286 1.284 . S
Zn279 O278 1.899 . S
Zn279 O280 2.032 . S
Zn279 O283 2.086 . S
Zn279 O288 1.977 . S
O280 Zn279 2.032 . S
O280 C284 1.278 . S
C281 O282 1.203 . S
C281 O288 1.267 . S
O282 C281 1.203 . S
O283 C276 1.185 . S
O283 Zn279 2.086 . S
C284 O280 1.278 . S
C284 O285 1.211 . S
O285 C284 1.211 . S
C286 O278 1.284 . S
C286 O287 1.273 . S
O287 C286 1.273 . S
O288 Zn279 1.977 . S
O288 C281 1.267 . S
C289 O290 1.160 . S
C289 O296 1.185 . S
O290 C289 1.160 . S
O291 Zn292 1.899 . S
O291 C299 1.284 . S
Zn292 O291 1.899 . S
Zn292 O293 2.032 . S
Zn292 O296 2.086 . S
Zn292 O301 1.977 . S
O293 Zn292 2.032 . S
O293 C297 1.278 . S
C294 O295 1.203 . S
C294 O301 1.267 . S
O295 C294 1.203 . S
O296 C289 1.185 . S
O296 Zn292 2.086 . S
C297 O293 1.278 . S
C297 O298 1.211 . S
O298 C297 1.211 . S
C299 O291 1.284 . S
C299 O300 1.273 . S
O300 C299 1.273 . S
O301 Zn292 1.977 . S
O301 C294 1.267 . S
C302 O303 1.160 . S
C302 O309 1.185 . S
O303 C302 1.160 . S
O304 Zn305 1.899 . S
O304 C312 1.284 . S
Zn305 O304 1.899 . S
Zn305 O306 2.032 . S
Zn305 O309 2.086 . S
Zn305 O314 1.977 . S
O306 Zn305 2.032 . S
O306 C310 1.278 . S
C307 O308 1.203 . S
C307 O314 1.267 . S
O308 C307 1.203 . S
O309 C302 1.185 . S
O309 Zn305 2.086 . S
C310 O306 1.278 . S
C310 O311 1.211 . S
O311 C310 1.211 . S
C312 O304 1.284 . S
C312 O313 1.273 . S
O313 C312 1.273 . S
O314 Zn305 1.977 . S
O314 C307 1.267 . S
C315 O316 1.160 . S
C315 O322 1.185 . S
O316 C315 1.160 . S
O317 Zn318 1.899 . S
O317 C325 1.284 . S
Zn318 O317 1.899 . S
Zn318 O319 2.032 . S
Zn318 O322 2.086 . S
Zn318 O327 1.977 . S
O319 Zn318 2.032 . S
O319 C323 1.278 . S
C320 O321 1.203 . S
C320 O327 1.267 . S
O321 C320 1.203 . S
O322 C315 1.185 . S
O322 Zn318 2.086 . S
C323 O319 1.278 . S
C323 O324 1.211 . S
O324 C323 1.211 . S
C325 O317 1.284 . S
C325 O326 1.273 . S
O326 C325 1.273 . S
O327 Zn318 1.977 . S
O327 C320 1.267 . S
C328 O329 1.160 . S
C328 O335 1.185 . S
O329 C328 1.160 . S
O330 Zn331 1.899 . S
O330 C338 1.284 . S
Zn331 O330 1.899 . S
Zn331 O332 2.032 . S
Zn331 O335 2.086 . S
Zn331 O340 1.977 . S
O332 Zn331 2.032 . S
O332 C336 1.278 . S
C333 O334 1.203 . S
C333 O340 1.267 . S
O334 C333 1.203 . S
O335 C328 1.185 . S
O335 Zn331 2.086 . S
C336 O332 1.278 . S
C336 O337 1.211 . S
O337 C336 1.211 . S
C338 O330 1.284 . S
C338 O339 1.273 . S
O339 C338 1.273 . S
O340 Zn331 1.977 . S
O340 C333 1.267 . S
C341 O342 1.160 . S
C341 O348 1.185 . S
O342 C341 1.160 . S
O343 Zn344 1.899 . S
O343 C351 1.284 . S
Zn344 O343 1.899 . S
Zn344 O345 2.032 . S
Zn344 O348 2.086 . S
Zn344 O353 1.977 . S
O345 Zn344 2.032 . S
O345 C349 1.278 . S
C346 O347 1.203 . S
C346 O353 1.267 . S
O347 C346 1.203 . S
O348 C341 1.185 . S
O348 Zn344 2.086 . S
C349 O345 1.278 . S
C349 O350 1.211 . S
O350 C349 1.211 . S
C351 O343 1.284 . S
C351 O352 1.273 . S
O352 C351 1.273 . S
O353 Zn344 1.977 . S
O353 C346 1.267 . S
C354 C355 1.363 . S
C354 C360 1.379 . S
C354 N362 1.356 . S
C355 C354 1.363 . S
C355 C361 1.363 . S
C356 C357 1.363 . S
C356 C361 1.379 . S
C356 N363 1.356 . S
C357 C356 1.363 . S
C357 C360 1.363 . S
N358 C360 1.356 . S
N358 H370 0.984 . S
N358 H371 0.985 . S
N359 C361 1.356 . S
N359 H364 0.984 . S
N359 H365 0.985 . S
C360 C354 1.379 . S
C360 C357 1.363 . S
C360 N358 1.356 . S
C361 C355 1.363 . S
C361 C356 1.379 . S
C361 N359 1.356 . S
N362 C354 1.356 . S
N362 H368 0.984 . S
N362 H369 0.984 . S
N363 C356 1.356 . S
N363 H366 0.984 . S
N363 H367 0.985 . S
H364 N359 0.984 . S
H365 N359 0.985 . S
H366 N363 0.984 . S
H367 N363 0.985 . S
H368 N362 0.984 . S
H369 N362 0.984 . S
H370 N358 0.984 . S
H371 N358 0.985 . S
C372 C373 1.363 . S
C372 C378 1.379 . S
C372 N380 1.356 . S
C373 C372 1.363 . S
C373 C379 1.363 . S
C374 C375 1.363 . S
C374 C379 1.379 . S
C374 N381 1.356 . S
C375 C374 1.363 . S
C375 C378 1.363 . S
N376 C378 1.356 . S
N376 H388 0.984 . S
N376 H389 0.985 . S
N377 C379 1.356 . S
N377 H382 0.984 . S
N377 H383 0.985 . S
C378 C372 1.379 . S
C378 C375 1.363 . S
C378 N376 1.356 . S
C379 C373 1.363 . S
C379 C374 1.379 . S
C379 N377 1.356 . S
N380 C372 1.356 . S
N380 H386 0.984 . S
N380 H387 0.984 . S
N381 C374 1.356 . S
N381 H384 0.984 . S
N381 H385 0.985 . S
H382 N377 0.984 . S
H383 N377 0.985 . S
H384 N381 0.984 . S
H385 N381 0.985 . S
H386 N380 0.984 . S
H387 N380 0.984 . S
H388 N376 0.984 . S
H389 N376 0.985 . S
C390 C391 1.363 . S
C390 C396 1.379 . S
C390 N398 1.356 . S
C391 C390 1.363 . S
C391 C397 1.363 . S
C392 C393 1.363 . S
C392 C397 1.379 . S
C392 N399 1.356 . S
C393 C392 1.363 . S
C393 C396 1.363 . S
N394 C396 1.356 . S
N394 H406 0.984 . S
N394 H407 0.985 . S
N395 C397 1.356 . S
N395 H400 0.984 . S
N395 H401 0.985 . S
C396 C390 1.379 . S
C396 C393 1.363 . S
C396 N394 1.356 . S
C397 C391 1.363 . S
C397 C392 1.379 . S
C397 N395 1.356 . S
N398 C390 1.356 . S
N398 H404 0.984 . S
N398 H405 0.984 . S
N399 C392 1.356 . S
N399 H402 0.984 . S
N399 H403 0.985 . S
H400 N395 0.984 . S
H401 N395 0.985 . S
H402 N399 0.984 . S
H403 N399 0.985 . S
H404 N398 0.984 . S
H405 N398 0.984 . S
H406 N394 0.984 . S
H407 N394 0.985 . S
C408 C409 1.363 . S
C408 C414 1.379 . S
C408 N416 1.356 . S
C409 C408 1.363 . S
C409 C415 1.363 . S
C410 C411 1.363 . S
C410 C415 1.379 . S
C410 N417 1.356 . S
C411 C410 1.363 . S
C411 C414 1.363 . S
N412 C414 1.356 . S
N412 H424 0.984 . S
N412 H425 0.985 . S
N413 C415 1.356 . S
N413 H418 0.984 . S
N413 H419 0.985 . S
C414 C408 1.379 . S
C414 C411 1.363 . S
C414 N412 1.356 . S
C415 C409 1.363 . S
C415 C410 1.379 . S
C415 N413 1.356 . S
N416 C408 1.356 . S
N416 H422 0.984 . S
N416 H423 0.984 . S
N417 C410 1.356 . S
N417 H420 0.984 . S
N417 H421 0.985 . S
H418 N413 0.984 . S
H419 N413 0.985 . S
H420 N417 0.984 . S
H421 N417 0.985 . S
H422 N416 0.984 . S
H423 N416 0.984 . S
H424 N412 0.984 . S
H425 N412 0.985 . S
C426 C427 1.363 . S
C426 C432 1.379 . S
C426 N434 1.356 . S
C427 C426 1.363 . S
C427 C433 1.363 . S
C428 C429 1.363 . S
C428 C433 1.379 . S
C428 N435 1.356 . S
C429 C428 1.363 . S
C429 C432 1.363 . S
N430 C432 1.356 . S
N430 H442 0.984 . S
N430 H443 0.985 . S
N431 C433 1.356 . S
N431 H436 0.984 . S
N431 H437 0.985 1_556 S
C432 C426 1.379 . S
C432 C429 1.363 . S
C432 N430 1.356 . S
C433 C427 1.363 . S
C433 C428 1.379 . S
C433 N431 1.356 . S
N434 C426 1.356 . S
N434 H440 0.984 . S
N434 H441 0.984 . S
N435 C428 1.356 . S
N435 H438 0.984 . S
N435 H439 0.985 . S
H436 N431 0.984 . S
H437 N431 0.985 1_554 S
H438 N435 0.984 . S
H439 N435 0.985 . S
H440 N434 0.984 . S
H441 N434 0.984 . S
H442 N430 0.984 . S
H443 N430 0.985 . S
C444 C445 1.363 . S
C444 C450 1.379 . S
C444 N452 1.356 . S
C445 C444 1.363 . S
C445 C451 1.363 . S
C446 C447 1.363 . S
C446 C451 1.379 . S
C446 N453 1.356 . S
C447 C446 1.363 . S
C447 C450 1.363 . S
N448 C450 1.356 . S
N448 H460 0.984 . S
N448 H461 0.985 . S
N449 C451 1.356 . S
N449 H454 0.984 . S
N449 H455 0.985 . S
C450 C444 1.379 . S
C450 C447 1.363 . S
C450 N448 1.356 . S
C451 C445 1.363 . S
C451 C446 1.379 . S
C451 N449 1.356 . S
N452 C444 1.356 . S
N452 H458 0.984 . S
N452 H459 0.984 . S
N453 C446 1.356 . S
N453 H456 0.984 . S
N453 H457 0.985 . S
H454 N449 0.984 . S
H455 N449 0.985 . S
H456 N453 0.984 . S
H457 N453 0.985 . S
H458 N452 0.984 . S
H459 N452 0.984 . S
H460 N448 0.984 . S
H461 N448 0.985 . S
C462 C463 1.363 . S
C462 C468 1.379 . S
C462 N470 1.356 . S
C463 C462 1.363 . S
C463 C469 1.363 . S
C464 C465 1.363 . S
C464 C469 1.379 . S
C464 N471 1.356 . S
C465 C464 1.363 . S
C465 C468 1.363 . S
N466 C468 1.356 . S
N466 H478 0.984 . S
N466 H479 0.985 . S
N467 C469 1.356 . S
N467 H472 0.984 . S
N467 H473 0.985 . S
C468 C462 1.379 . S
C468 C465 1.363 . S
C468 N466 1.356 . S
C469 C463 1.363 . S
C469 C464 1.379 . S
C469 N467 1.356 . S
N470 C462 1.356 . S
N470 H476 0.984 . S
N470 H477 0.984 . S
N471 C464 1.356 . S
N471 H474 0.984 . S
N471 H475 0.985 . S
H472 N467 0.984 . S
H473 N467 0.985 . S
H474 N471 0.984 . S
H475 N471 0.985 . S
H476 N470 0.984 . S
H477 N470 0.984 . S
H478 N466 0.984 . S
H479 N466 0.985 . S
C480 C481 1.363 . S
C480 C486 1.379 . S
C480 N488 1.356 . S
C481 C480 1.363 . S
C481 C487 1.363 . S
C482 C483 1.363 . S
C482 C487 1.379 . S
C482 N489 1.356 . S
C483 C482 1.363 . S
C483 C486 1.363 . S
N484 C486 1.356 . S
N484 H496 0.984 . S
N484 H497 0.985 . S
N485 C487 1.356 . S
N485 H490 0.984 . S
N485 H491 0.985 . S
C486 C480 1.379 . S
C486 C483 1.363 . S
C486 N484 1.356 . S
C487 C481 1.363 . S
C487 C482 1.379 . S
C487 N485 1.356 . S
N488 C480 1.356 . S
N488 H494 0.984 . S
N488 H495 0.984 . S
N489 C482 1.356 . S
N489 H492 0.984 . S
N489 H493 0.985 . S
H490 N485 0.984 . S
H491 N485 0.985 . S
H492 N489 0.984 . S
H493 N489 0.985 . S
H494 N488 0.984 . S
H495 N488 0.984 . S
H496 N484 0.984 . S
H497 N484 0.985 . S
C498 C499 1.363 . S
C498 C504 1.379 . S
C498 N506 1.356 . S
C499 C498 1.363 . S
C499 C505 1.363 . S
C500 C501 1.363 . S
C500 C505 1.379 . S
C500 N507 1.356 . S
C501 C500 1.363 . S
C501 C504 1.363 . S
N502 C504 1.356 . S
N502 H514 0.984 . S
N502 H515 0.985 . S
N503 C505 1.356 . S
N503 H508 0.984 . S
N503 H509 0.985 . S
C504 C498 1.379 . S
C504 C501 1.363 . S
C504 N502 1.356 . S
C505 C499 1.363 . S
C505 C500 1.379 . S
C505 N503 1.356 . S
N506 C498 1.356 . S
N506 H512 0.984 . S
N506 H513 0.984 . S
N507 C500 1.356 . S
N507 H510 0.984 . S
N507 H511 0.985 . S
H508 N503 0.984 . S
H509 N503 0.985 . S
H510 N507 0.984 . S
H511 N507 0.985 . S
H512 N506 0.984 . S
H513 N506 0.984 . S
H514 N502 0.984 . S
H515 N502 0.985 . S
C516 C517 1.363 . S
C516 C522 1.379 . S
C516 N524 1.356 . S
C517 C516 1.363 . S
C517 C523 1.363 . S
C518 C519 1.363 . S
C518 C523 1.379 . S
C518 N525 1.356 . S
C519 C518 1.363 . S
C519 C522 1.363 . S
N520 C522 1.356 . S
N520 H532 0.984 . S
N520 H533 0.985 . S
N521 C523 1.356 1_556 S
N521 H526 0.984 . S
N521 H527 0.985 . S
C522 C516 1.379 . S
C522 C519 1.363 . S
C522 N520 1.356 . S
C523 C517 1.363 . S
C523 C518 1.379 . S
C523 N521 1.356 1_554 S
N524 C516 1.356 . S
N524 H530 0.984 . S
N524 H531 0.984 . S
N525 C518 1.356 . S
N525 H528 0.984 . S
N525 H529 0.985 1_554 S
H526 N521 0.984 . S
H527 N521 0.985 . S
H528 N525 0.984 . S
H529 N525 0.985 1_556 S
H530 N524 0.984 . S
H531 N524 0.984 . S
H532 N520 0.984 . S
H533 N520 0.985 . S
C534 C535 1.363 . S
C534 C540 1.379 . S
C534 N542 1.356 . S
C535 C534 1.363 . S
C535 C541 1.363 . S
C536 C537 1.363 . S
C536 C541 1.379 . S
C536 N543 1.356 . S
C537 C536 1.363 . S
C537 C540 1.363 . S
N538 C540 1.356 . S
N538 H550 0.984 . S
N538 H551 0.985 . S
N539 C541 1.356 . S
N539 H544 0.984 . S
N539 H545 0.985 . S
C540 C534 1.379 . S
C540 C537 1.363 . S
C540 N538 1.356 . S
C541 C535 1.363 . S
C541 C536 1.379 . S
C541 N539 1.356 . S
N542 C534 1.356 . S
N542 H548 0.984 . S
N542 H549 0.984 . S
N543 C536 1.356 . S
N543 H546 0.984 . S
N543 H547 0.985 . S
H544 N539 0.984 . S
H545 N539 0.985 . S
H546 N543 0.984 . S
H547 N543 0.985 . S
H548 N542 0.984 . S
H549 N542 0.984 . S
H550 N538 0.984 . S
H551 N538 0.985 . S
C552 C553 1.363 . S
C552 C558 1.379 . S
C552 N560 1.356 . S
C553 C552 1.363 . S
C553 C559 1.363 . S
C554 C555 1.363 . S
C554 C559 1.379 . S
C554 N561 1.356 . S
C555 C554 1.363 . S
C555 C558 1.363 . S
N556 C558 1.356 . S
N556 H568 0.984 . S
N556 H569 0.985 . S
N557 C559 1.356 . S
N557 H562 0.984 . S
N557 H563 0.985 . S
C558 C552 1.379 . S
C558 C555 1.363 . S
C558 N556 1.356 . S
C559 C553 1.363 . S
C559 C554 1.379 . S
C559 N557 1.356 . S
N560 C552 1.356 . S
N560 H566 0.984 . S
N560 H567 0.984 . S
N561 C554 1.356 . S
N561 H564 0.984 . S
N561 H565 0.985 . S
H562 N557 0.984 . S
H563 N557 0.985 . S
H564 N561 0.984 . S
H565 N561 0.985 . S
H566 N560 0.984 . S
H567 N560 0.984 . S
H568 N556 0.984 . S
H569 N556 0.985 . S
C570 C571 1.363 . S
C570 C576 1.379 . S
C570 N578 1.356 . S
C571 C570 1.363 . S
C571 C577 1.363 . S
C572 C573 1.363 . S
C572 C577 1.379 . S
C572 N579 1.356 . S
C573 C572 1.363 . S
C573 C576 1.363 . S
N574 C576 1.356 . S
N574 H586 0.984 . S
N574 H587 0.985 . S
N575 C577 1.356 . S
N575 H580 0.984 . S
N575 H581 0.985 . S
C576 C570 1.379 . S
C576 C573 1.363 . S
C576 N574 1.356 . S
C577 C571 1.363 . S
C577 C572 1.379 . S
C577 N575 1.356 . S
N578 C570 1.356 . S
N578 H584 0.984 . S
N578 H585 0.984 . S
N579 C572 1.356 . S
N579 H582 0.984 . S
N579 H583 0.985 . S
H580 N575 0.984 . S
H581 N575 0.985 . S
H582 N579 0.984 . S
H583 N579 0.985 . S
H584 N578 0.984 . S
H585 N578 0.984 . S
H586 N574 0.984 . S
H587 N574 0.985 . S
C588 C589 1.363 . S
C588 C594 1.379 . S
C588 N596 1.356 . S
C589 C588 1.363 . S
C589 C595 1.363 . S
C590 C591 1.363 . S
C590 C595 1.379 . S
C590 N597 1.356 . S
C591 C590 1.363 . S
C591 C594 1.363 . S
N592 C594 1.356 . S
N592 H604 0.984 . S
N592 H605 0.985 . S
N593 C595 1.356 . S
N593 H598 0.984 . S
N593 H599 0.985 . S
C594 C588 1.379 . S
C594 C591 1.363 . S
C594 N592 1.356 . S
C595 C589 1.363 . S
C595 C590 1.379 . S
C595 N593 1.356 . S
N596 C588 1.356 . S
N596 H602 0.984 . S
N596 H603 0.984 . S
N597 C590 1.356 . S
N597 H600 0.984 . S
N597 H601 0.985 . S
H598 N593 0.984 . S
H599 N593 0.985 . S
H600 N597 0.984 . S
H601 N597 0.985 . S
H602 N596 0.984 . S
H603 N596 0.984 . S
H604 N592 0.984 . S
H605 N592 0.985 . S
C606 C607 1.363 . S
C606 C612 1.379 . S
C606 N614 1.356 . S
C607 C606 1.363 . S
C607 C613 1.363 . S
C608 C609 1.363 . S
C608 C613 1.379 . S
C608 N615 1.356 . S
C609 C608 1.363 . S
C609 C612 1.363 . S
N610 C612 1.356 . S
N610 H622 0.984 . S
N610 H623 0.985 . S
N611 C613 1.356 . S
N611 H616 0.984 . S
N611 H617 0.985 . S
C612 C606 1.379 . S
C612 C609 1.363 . S
C612 N610 1.356 . S
C613 C607 1.363 . S
C613 C608 1.379 . S
C613 N611 1.356 . S
N614 C606 1.356 . S
N614 H620 0.984 . S
N614 H621 0.984 . S
N615 C608 1.356 . S
N615 H618 0.984 . S
N615 H619 0.985 . S
H616 N611 0.984 . S
H617 N611 0.985 . S
H618 N615 0.984 . S
H619 N615 0.985 . S
H620 N614 0.984 . S
H621 N614 0.984 . S
H622 N610 0.984 . S
H623 N610 0.985 . S
C624 C625 1.363 . S
C624 C630 1.384 . S
C624 N632 1.356 . S
C625 C624 1.363 . S
C625 C631 1.363 . S
C626 C627 1.363 . S
C626 C631 1.379 . S
C626 N633 1.356 . S
C627 C626 1.363 . S
C627 C630 1.364 . S
N628 C630 1.349 1_554 S
N628 H640 0.984 . S
N628 H641 0.985 . S
N629 C631 1.356 . S
N629 H634 0.984 . S
N629 H635 0.985 . S
C630 C624 1.384 . S
C630 C627 1.364 . S
C630 N628 1.349 1_556 S
C631 C625 1.363 . S
C631 C626 1.379 . S
C631 N629 1.356 . S
N632 C624 1.356 . S
N632 H638 0.984 . S
N632 H639 0.984 . S
N633 C626 1.356 . S
N633 H636 0.984 . S
N633 H637 0.985 . S
H634 N629 0.984 . S
H635 N629 0.985 . S
H636 N633 0.984 . S
H637 N633 0.985 . S
H638 N632 0.984 . S
H639 N632 0.984 . S
H640 N628 0.984 . S
H641 N628 0.985 . S
C642 C643 1.363 . S
C642 C648 1.379 . S
C642 N650 1.356 . S
C643 C642 1.363 . S
C643 C649 1.363 . S
C644 C645 1.363 . S
C644 C649 1.379 . S
C644 N651 1.356 . S
C645 C644 1.363 . S
C645 C648 1.363 . S
N646 C648 1.356 . S
N646 H658 0.984 . S
N646 H659 0.985 . S
N647 C649 1.356 . S
N647 H652 0.984 . S
N647 H653 0.985 . S
C648 C642 1.379 . S
C648 C645 1.363 . S
C648 N646 1.356 . S
C649 C643 1.363 . S
C649 C644 1.379 . S
C649 N647 1.356 . S
N650 C642 1.356 . S
N650 H656 0.984 . S
N650 H657 0.984 . S
N651 C644 1.356 . S
N651 H654 0.984 . S
N651 H655 0.985 . S
H652 N647 0.984 . S
H653 N647 0.985 . S
H654 N651 0.984 . S
H655 N651 0.985 . S
H656 N650 0.984 . S
H657 N650 0.984 . S
H658 N646 0.984 . S
H659 N646 0.985 . S
C660 C661 1.363 . S
C660 C666 1.379 . S
C660 N668 1.356 . S
C661 C660 1.363 . S
C661 C667 1.363 . S
C662 C663 1.363 . S
C662 C667 1.379 . S
C662 N669 1.356 . S
C663 C662 1.363 . S
C663 C666 1.363 . S
N664 C666 1.356 . S
N664 H676 0.984 . S
N664 H677 0.985 . S
N665 C667 1.356 . S
N665 H670 0.984 . S
N665 H671 0.985 . S
C666 C660 1.379 . S
C666 C663 1.363 . S
C666 N664 1.356 . S
C667 C661 1.363 . S
C667 C662 1.379 . S
C667 N665 1.356 . S
N668 C660 1.356 . S
N668 H674 0.984 . S
N668 H675 0.984 . S
N669 C662 1.356 . S
N669 H672 0.984 . S
N669 H673 0.985 . S
H670 N665 0.984 . S
H671 N665 0.985 . S
H672 N669 0.984 . S
H673 N669 0.985 . S
H674 N668 0.984 . S
H675 N668 0.984 . S
H676 N664 0.984 . S
H677 N664 0.985 . S
C678 C679 1.363 . S
C678 C684 1.379 . S
C678 N686 1.356 . S
C679 C678 1.363 . S
C679 C685 1.363 . S
C680 C681 1.363 . S
C680 C685 1.379 . S
C680 N687 1.356 . S
C681 C680 1.363 . S
C681 C684 1.363 . S
N682 C684 1.356 . S
N682 H694 0.984 . S
N682 H695 0.985 . S
N683 C685 1.356 . S
N683 H688 0.984 . S
N683 H689 0.985 . S
C684 C678 1.379 . S
C684 C681 1.363 . S
C684 N682 1.356 . S
C685 C679 1.363 . S
C685 C680 1.379 . S
C685 N683 1.356 . S
N686 C678 1.356 . S
N686 H692 0.984 . S
N686 H693 0.984 . S
N687 C680 1.356 . S
N687 H690 0.984 . S
N687 H691 0.985 . S
H688 N683 0.984 . S
H689 N683 0.985 . S
H690 N687 0.984 . S
H691 N687 0.985 . S
H692 N686 0.984 . S
H693 N686 0.984 . S
H694 N682 0.984 . S
H695 N682 0.985 . S
C696 C697 1.363 . S
C696 C702 1.379 . S
C696 N704 1.356 . S
C697 C696 1.363 . S
C697 C703 1.363 . S
C698 C699 1.363 . S
C698 C703 1.379 . S
C698 N705 1.356 . S
C699 C698 1.363 . S
C699 C702 1.363 . S
N700 C702 1.356 . S
N700 H712 0.984 . S
N700 H713 0.985 . S
N701 C703 1.356 . S
N701 H706 0.984 . S
N701 H707 0.985 . S
C702 C696 1.379 . S
C702 C699 1.363 . S
C702 N700 1.356 . S
C703 C697 1.363 . S
C703 C698 1.379 . S
C703 N701 1.356 . S
N704 C696 1.356 . S
N704 H710 0.984 . S
N704 H711 0.984 . S
N705 C698 1.356 . S
N705 H708 0.984 . S
N705 H709 0.985 . S
H706 N701 0.984 . S
H707 N701 0.985 . S
H708 N705 0.984 . S
H709 N705 0.985 . S
H710 N704 0.984 . S
H711 N704 0.984 . S
H712 N700 0.984 . S
H713 N700 0.985 . S
C714 C715 1.363 . S
C714 C720 1.379 . S
C714 N722 1.356 . S
C715 C714 1.363 . S
C715 C721 1.363 . S
C716 C717 1.363 . S
C716 C721 1.379 . S
C716 N723 1.356 . S
C717 C716 1.363 . S
C717 C720 1.363 . S
N718 C720 1.356 . S
N718 H730 0.984 . S
N718 H731 0.985 . S
N719 C721 1.356 . S
N719 H724 0.984 . S
N719 H725 0.985 . S
C720 C714 1.379 . S
C720 C717 1.363 . S
C720 N718 1.356 . S
C721 C715 1.363 . S
C721 C716 1.379 . S
C721 N719 1.356 . S
N722 C714 1.356 . S
N722 H728 0.984 . S
N722 H729 0.984 . S
N723 C716 1.356 . S
N723 H726 0.984 . S
N723 H727 0.985 . S
H724 N719 0.984 . S
H725 N719 0.985 . S
H726 N723 0.984 . S
H727 N723 0.985 . S
H728 N722 0.984 . S
H729 N722 0.984 . S
H730 N718 0.984 . S
H731 N718 0.985 . S
C732 C733 1.363 . S
C732 C738 1.379 . S
C732 N740 1.356 . S
C733 C732 1.363 . S
C733 C739 1.363 . S
C734 C735 1.363 . S
C734 C739 1.379 . S
C734 N741 1.356 . S
C735 C734 1.363 . S
C735 C738 1.363 . S
N736 C738 1.356 . S
N736 H748 0.984 . S
N736 H749 0.985 . S
N737 C739 1.356 . S
N737 H742 0.984 . S
N737 H743 0.985 . S
C738 C732 1.379 . S
C738 C735 1.363 . S
C738 N736 1.356 . S
C739 C733 1.363 . S
C739 C734 1.379 . S
C739 N737 1.356 . S
N740 C732 1.356 . S
N740 H746 0.984 . S
N740 H747 0.984 . S
N741 C734 1.356 . S
N741 H744 0.984 . S
N741 H745 0.985 . S
H742 N737 0.984 . S
H743 N737 0.985 . S
H744 N741 0.984 . S
H745 N741 0.985 . S
H746 N740 0.984 . S
H747 N740 0.984 . S
H748 N736 0.984 . S
H749 N736 0.985 . S
C750 C751 1.363 . S
C750 C756 1.379 1_554 S
C750 N758 1.356 . S
C751 C750 1.363 . S
C751 C757 1.363 1_554 S
C752 C753 1.363 . S
C752 C757 1.379 . S
C752 N759 1.356 . S
C753 C752 1.363 . S
C753 C756 1.363 . S
N754 C756 1.356 . S
N754 H766 0.984 1_556 S
N754 H767 0.985 . S
N755 C757 1.356 1_554 S
N755 H760 0.984 . S
N755 H761 0.985 1_554 S
C756 C750 1.379 1_556 S
C756 C753 1.363 . S
C756 N754 1.356 . S
C757 C751 1.363 1_556 S
C757 C752 1.379 . S
C757 N755 1.356 1_556 S
N758 C750 1.356 . S
N758 H764 0.984 . S
N758 H765 0.984 . S
N759 C752 1.356 . S
N759 H762 0.984 . S
N759 H763 0.985 . S
H760 N755 0.984 . S
H761 N755 0.985 1_556 S
H762 N759 0.984 . S
H763 N759 0.985 . S
H764 N758 0.984 . S
H765 N758 0.984 . S
H766 N754 0.984 1_554 S
H767 N754 0.985 . S
C768 C769 1.363 . S
C768 C774 1.379 . S
C768 N776 1.356 . S
C769 C768 1.363 . S
C769 C775 1.363 . S
C770 C771 1.363 . S
C770 C775 1.379 . S
C770 N777 1.356 . S
C771 C770 1.363 . S
C771 C774 1.363 . S
N772 C774 1.356 . S
N772 H784 0.984 . S
N772 H785 0.985 . S
N773 C775 1.356 . S
N773 H778 0.984 . S
N773 H779 0.985 . S
C774 C768 1.379 . S
C774 C771 1.363 . S
C774 N772 1.356 . S
C775 C769 1.363 . S
C775 C770 1.379 . S
C775 N773 1.356 . S
N776 C768 1.356 . S
N776 H782 0.984 . S
N776 H783 0.984 . S
N777 C770 1.356 . S
N777 H780 0.984 . S
N777 H781 0.985 . S
H778 N773 0.984 . S
H779 N773 0.985 . S
H780 N777 0.984 . S
H781 N777 0.985 . S
H782 N776 0.984 . S
H783 N776 0.984 . S
H784 N772 0.984 . S
H785 N772 0.985 . S
C357 C351 1.667 . S
C355 C15 1.617 . S
C373 C61 1.589 . S
C375 C276 1.518 . S
C391 C114 1.636 . S
C393 C299 1.698 . S
C409 C139 1.490 . S
C411 C312 1.504 . S
C429 C315 1.561 . S
C427 C185 1.649 . S
C445 C245 1.523 . S
C447 C328 1.466 . S
C463 C47 1.543 . S
C465 C289 1.467 . S
C481 C100 1.649 . S
C483 C302 1.561 . S
C499 C153 1.477 . S
C501 C325 1.505 . S
C519 C338 1.697 . S
C517 C199 1.636 . S
C537 C341 1.518 . S
C535 C231 1.610 . S
C555 C286 1.667 . S
C553 C1 1.638 . S
C571 C22 1.486 . S
C573 C297 1.455 . S
C589 C68 1.456 . S
C591 C310 1.426 . S
C609 C320 1.440 . S
C607 C107 1.488 . S
C625 C146 1.483 . S
C627 C333 1.422 1_556 S
C645 C349 1.461 . S
C643 C192 1.500 . S
C663 C281 1.409 . S
C661 C252 1.454 . S
C681 C346 1.409 . S
C679 C54 1.457 . S
C697 C93 1.500 . S
C699 C284 1.461 . S
C717 C294 1.422 . S
C715 C160 1.474 . S
C733 C206 1.488 . S
C735 C307 1.440 . S
C751 C238 1.458 . S
C753 C323 1.426 . S
C769 C8 1.492 . S
C771 C336 1.455 . S
