# Generated by pormake.
# Topology apo, (3,6)-cn, num edge types: 1
# Building blocks:
#     Node 0, Type 0, BuildingBlock: BELTOD_clean_linker_0, # of connection points: 3
#     Node 1, Type 0, BuildingBlock: BELTOD_clean_linker_0, # of connection points: 3
#     Node 2, Type 0, BuildingBlock: BELTOD_clean_linker_0, # of connection points: 3
#     Node 3, Type 0, BuildingBlock: BELTOD_clean_linker_0, # of connection points: 3
#     Node 4, Type 0, BuildingBlock: BELTOD_clean_linker_0, # of connection points: 3
#     Node 5, Type 0, BuildingBlock: BELTOD_clean_linker_0, # of connection points: 3
#     Node 6, Type 0, BuildingBlock: BELTOD_clean_linker_0, # of connection points: 3
#     Node 7, Type 0, BuildingBlock: BELTOD_clean_linker_0, # of connection points: 3
#     Node 8, Type 1, BuildingBlock: MIDCAF_clean_sbu_0, # of connection points: 6
#     Node 9, Type 1, BuildingBlock: MIDCAF_clean_sbu_0, # of connection points: 6
#     Node 10, Type 1, BuildingBlock: MIDCAF_clean_sbu_0, # of connection points: 6
#     Node 11, Type 1, BuildingBlock: MIDCAF_clean_sbu_0, # of connection points: 6
#     Edge 12, Type (0, 1), BuildingBlock: TEMPAE_clean_linker_10, # of connection points: 2
#     Edge 13, Type (0, 1), BuildingBlock: TEMPAE_clean_linker_10, # of connection points: 2
#     Edge 14, Type (0, 1), BuildingBlock: TEMPAE_clean_linker_10, # of connection points: 2
#     Edge 15, Type (0, 1), BuildingBlock: TEMPAE_clean_linker_10, # of connection points: 2
#     Edge 16, Type (0, 1), BuildingBlock: TEMPAE_clean_linker_10, # of connection points: 2
#     Edge 17, Type (0, 1), BuildingBlock: TEMPAE_clean_linker_10, # of connection points: 2
#     Edge 18, Type (0, 1), BuildingBlock: TEMPAE_clean_linker_10, # of connection points: 2
#     Edge 19, Type (0, 1), BuildingBlock: TEMPAE_clean_linker_10, # of connection points: 2
#     Edge 20, Type (0, 1), BuildingBlock: TEMPAE_clean_linker_10, # of connection points: 2
#     Edge 21, Type (0, 1), BuildingBlock: TEMPAE_clean_linker_10, # of connection points: 2
#     Edge 22, Type (0, 1), BuildingBlock: TEMPAE_clean_linker_10, # of connection points: 2
#     Edge 23, Type (0, 1), BuildingBlock: TEMPAE_clean_linker_10, # of connection points: 2
#     Edge 24, Type (0, 1), BuildingBlock: TEMPAE_clean_linker_10, # of connection points: 2
#     Edge 25, Type (0, 1), BuildingBlock: TEMPAE_clean_linker_10, # of connection points: 2
#     Edge 26, Type (0, 1), BuildingBlock: TEMPAE_clean_linker_10, # of connection points: 2
#     Edge 27, Type (0, 1), BuildingBlock: TEMPAE_clean_linker_10, # of connection points: 2
#     Edge 28, Type (0, 1), BuildingBlock: TEMPAE_clean_linker_10, # of connection points: 2
#     Edge 29, Type (0, 1), BuildingBlock: TEMPAE_clean_linker_10, # of connection points: 2
#     Edge 30, Type (0, 1), BuildingBlock: TEMPAE_clean_linker_10, # of connection points: 2
#     Edge 31, Type (0, 1), BuildingBlock: TEMPAE_clean_linker_10, # of connection points: 2
#     Edge 32, Type (0, 1), BuildingBlock: TEMPAE_clean_linker_10, # of connection points: 2
#     Edge 33, Type (0, 1), BuildingBlock: TEMPAE_clean_linker_10, # of connection points: 2
#     Edge 34, Type (0, 1), BuildingBlock: TEMPAE_clean_linker_10, # of connection points: 2
#     Edge 35, Type (0, 1), BuildingBlock: TEMPAE_clean_linker_10, # of connection points: 2
# Relax obj value: 0.078
# Max RMSD: 0.096
# Mean RMSD: 0.084
data_MOF--net-apo--node1-MIDCAF_clean_sbu_0--node2-BELTOD_clean_linker_0--edge1-TEMPAE_clean_linker_10
_symmetry_space_group_name_H-M    P1
_symmetry_Int_Tables_number       1
_symmetry_cell_setting            triclinic
loop_
_symmetry_equiv_pos_as_xyz
'x, y, z'
_cell_length_a     40.61249
_cell_length_b     48.232984
_cell_length_c     42.754992
_cell_angle_alpha  89.702214
_cell_angle_beta   90.429713
_cell_angle_gamma 90.352531
loop_
_atom_site_label
_atom_site_type_symbol
_atom_site_fract_x
_atom_site_fract_y
_atom_site_fract_z
_atom_type_partial_charge
P0 P 0.36227 0.2943 0.3656 0.0
H1 H 0.38393 0.25481 0.41325 0.0
H2 H 0.39188 0.25855 0.46946 0.0
H3 H 0.34666 0.33952 0.46752 0.0
H4 H 0.34013 0.33596 0.41065 0.0
H5 H 0.34571 0.27498 0.30348 0.0
H6 H 0.29515 0.25717 0.27958 0.0
H7 H 0.24299 0.27282 0.36541 0.0
H8 H 0.2941 0.29001 0.38941 0.0
H9 H 0.42416 0.3238 0.37238 0.0
H10 H 0.33049 0.33785 0.32708 0.0
O11 O 0.39043 0.2712 0.35495 0.0
H12 H 0.44452 0.36819 0.35246 0.0
H13 H 0.35095 0.38195 0.30623 0.0
C14 C 0.36197 0.29529 0.40773 0.0
C15 C 0.37541 0.27326 0.42492 0.0
C16 C 0.37968 0.27536 0.45725 0.0
C17 C 0.37015 0.29945 0.4732 0.0
C18 C 0.3549 0.32089 0.456 0.0
C19 C 0.35089 0.31882 0.42352 0.0
C20 C 0.32375 0.28342 0.34829 0.0
C21 C 0.32334 0.27463 0.31712 0.0
C22 C 0.29432 0.26464 0.3034 0.0
C23 C 0.26496 0.26339 0.32058 0.0
C24 C 0.26528 0.27304 0.35166 0.0
C25 C 0.29445 0.28302 0.3654 0.0
C26 C 0.376 0.32742 0.35095 0.0
C27 C 0.40807 0.3364 0.35792 0.0
C28 C 0.41975 0.36168 0.34628 0.0
C29 C 0.39953 0.37854 0.3274 0.0
C30 C 0.36715 0.36956 0.32079 0.0
C31 C 0.35545 0.34424 0.33257 0.0
P32 P 0.21201 0.12211 0.90169 0.0
H33 H 0.21696 0.09548 0.84127 0.0
H34 H 0.17811 0.06767 0.81054 0.0
H35 H 0.10087 0.08737 0.87555 0.0
H36 H 0.13966 0.11564 0.90576 0.0
H37 H 0.26691 0.15418 0.92522 0.0
H38 H 0.30057 0.19127 0.90283 0.0
H39 H 0.23862 0.19169 0.82021 0.0
H40 H 0.20451 0.15486 0.84317 0.0
H41 H 0.19652 0.08739 0.95517 0.0
H42 H 0.18995 0.17406 0.93082 0.0
O43 O 0.24032 0.09763 0.90735 0.0
H44 H 0.17477 0.09716 0.00699 0.0
H45 H 0.1677 0.18402 0.98271 0.0
C46 C 0.18132 0.10741 0.8759 0.0
C47 C 0.19146 0.09437 0.84845 0.0
C48 C 0.16927 0.07835 0.83102 0.0
C49 C 0.13649 0.07501 0.84082 0.0
C50 C 0.12587 0.08965 0.86725 0.0
C51 C 0.14814 0.10572 0.88468 0.0
C52 C 0.23347 0.15164 0.88576 0.0
C53 C 0.26037 0.16247 0.90242 0.0
C54 C 0.27971 0.18353 0.8895 0.0
C55 C 0.27255 0.19414 0.85955 0.0
C56 C 0.24471 0.18398 0.84336 0.0
C57 C 0.2253 0.16282 0.85639 0.0
C58 C 0.19533 0.13004 0.93943 0.0
C59 C 0.19047 0.10856 0.96106 0.0
C60 C 0.1779 0.11416 0.99061 0.0
C61 C 0.1697 0.14139 -0.001 0.0
C62 C 0.17434 0.16291 0.9771 0.0
C63 C 0.18687 0.15723 0.94741 0.0
P64 P 0.85286 0.17635 0.61369 0.0
H65 H 0.84272 0.21647 0.56369 0.0
H66 H 0.84511 0.21309 0.50668 0.0
H67 H 0.85694 0.12436 0.51472 0.0
H68 H 0.85482 0.12794 0.57167 0.0
H69 H 0.83916 0.19713 0.67564 0.0
H70 H 0.79023 0.21714 0.69939 0.0
H71 H 0.73535 0.20211 0.61408 0.0
H72 H 0.78421 0.18148 0.59082 0.0
H73 H 0.9174 0.15089 0.61498 0.0
H74 H 0.8212 0.13277 0.65206 0.0
O75 O 0.88119 0.20095 0.6199 0.0
H76 H 0.93901 0.1089 0.63954 0.0
H77 H 0.8428 0.0911 0.67761 0.0
C78 C 0.84908 0.17256 0.5719 0.0
C79 C 0.84533 0.19625 0.55311 0.0
C80 C 0.8465 0.19426 0.52053 0.0
C81 C 0.8515 0.16848 0.50616 0.0
C82 C 0.85355 0.14457 0.5251 0.0
C83 C 0.85227 0.14659 0.5577 0.0
C84 C 0.81542 0.18817 0.6314 0.0
C85 C 0.81647 0.19791 0.66219 0.0
C86 C 0.78854 0.20948 0.67566 0.0
C87 C 0.75894 0.21151 0.65855 0.0
C88 C 0.75767 0.20071 0.62801 0.0
C89 C 0.78569 0.18907 0.61456 0.0
C90 C 0.86788 0.14514 0.63209 0.0
C91 C 0.90102 0.13798 0.62874 0.0
C92 C 0.91339 0.11406 0.64302 0.0
C93 C 0.89279 0.09674 0.66095 0.0
C94 C 0.85936 0.10388 0.66392 0.0
C95 C 0.84699 0.12781 0.64946 0.0
P96 P 0.7022 0.35892 0.09491 0.0
H97 H 0.71407 0.39497 0.14791 0.0
H98 H 0.67781 0.42413 0.17886 0.0
H99 H 0.59339 0.39042 0.12964 0.0
H100 H 0.62974 0.36075 0.09949 0.0
H101 H 0.77145 0.3448 0.1016 0.0
H102 H 0.80071 0.31279 0.13584 0.0
H103 H 0.70811 0.27986 0.16885 0.0
H104 H 0.67852 0.31268 0.13447 0.0
H105 H 0.67956 0.39332 0.04437 0.0
H106 H 0.67694 0.3062 0.06717 0.0
O107 O 0.73085 0.38231 0.08509 0.0
H108 H 0.6494 0.38459 -0.0038 0.0
H109 H 0.64546 0.29715 0.01878 0.0
C110 C 0.67465 0.37625 0.12095 0.0
C111 C 0.6877 0.39354 0.14419 0.0
C112 C 0.66696 0.41027 0.16175 0.0
C113 C 0.63274 0.40995 0.15636 0.0
C114 C 0.61959 0.39112 0.13447 0.0
C115 C 0.64041 0.37431 0.11697 0.0
C116 C 0.72276 0.33125 0.11558 0.0
C117 C 0.75725 0.33063 0.11593 0.0
C118 C 0.77402 0.31247 0.13579 0.0
C119 C 0.75669 0.29428 0.15555 0.0
C120 C 0.72206 0.29386 0.15405 0.0
C121 C 0.70518 0.31242 0.13433 0.0
C122 C 0.68092 0.35039 0.05908 0.0
C123 C 0.67254 0.37219 0.03887 0.0
C124 C 0.65487 0.36718 0.01143 0.0
C125 C 0.64465 0.34018 0.00363 0.0
C126 C 0.65316 0.31817 0.02396 0.0
C127 C 0.67106 0.32328 0.05163 0.0
P128 P 0.70081 0.63012 0.58595 0.0
H129 H 0.72509 0.62375 0.52231 0.0
H130 H 0.70291 0.63747 0.47142 0.0
H131 H 0.62652 0.68378 0.51669 0.0
H132 H 0.64817 0.66918 0.56818 0.0
H133 H 0.74456 0.61976 0.63802 0.0
H134 H 0.77507 0.64987 0.67381 0.0
H135 H 0.72823 0.72148 0.63256 0.0
H136 H 0.69792 0.69112 0.59616 0.0
H137 H 0.66256 0.58438 0.56168 0.0
H138 H 0.665 0.63288 0.64616 0.0
O139 O 0.72953 0.60661 0.578 0.0
H140 H 0.62312 0.55243 0.58561 0.0
H141 H 0.62533 0.60077 0.67031 0.0
C142 C 0.68836 0.64552 0.54917 0.0
C143 C 0.70395 0.63729 0.52157 0.0
C144 C 0.69136 0.64514 0.49241 0.0
C145 C 0.66327 0.66178 0.4903 0.0
C146 C 0.64852 0.67123 0.51788 0.0
C147 C 0.66086 0.66294 0.54719 0.0
C148 C 0.71954 0.65323 0.61399 0.0
C149 C 0.74066 0.64193 0.63671 0.0
C150 C 0.75801 0.6591 0.65724 0.0
C151 C 0.75412 0.68795 0.65582 0.0
C152 C 0.73151 0.69925 0.6342 0.0
C153 C 0.71435 0.68196 0.61329 0.0
C154 C 0.66694 0.61079 0.60221 0.0
C155 C 0.65414 0.58843 0.5852 0.0
C156 C 0.63175 0.57012 0.59893 0.0
C157 C 0.62159 0.57394 0.62996 0.0
C158 C 0.63282 0.59738 0.64638 0.0
C159 C 0.65554 0.61566 0.63261 0.0
P160 P 0.83916 0.80742 0.11756 0.0
H161 H 0.87813 0.81671 0.17397 0.0
H162 H 0.89752 0.85846 0.2004 0.0
H163 H 0.84504 0.90869 0.13258 0.0
H164 H 0.82416 0.86662 0.10755 0.0
H165 H 0.82584 0.75683 0.1531 0.0
H166 H 0.7775 0.73925 0.18004 0.0
H167 H 0.72213 0.81048 0.14858 0.0
H168 H 0.77107 0.82791 0.12098 0.0
H169 H 0.87307 0.84591 0.07553 0.0
H170 H 0.80457 0.77771 0.06705 0.0
O171 O 0.8693 0.78458 0.12351 0.0
H172 H 0.87894 0.84766 0.01925 0.0
H173 H 0.81216 0.77797 0.01022 0.0
C174 C 0.85069 0.83861 0.13815 0.0
C175 C 0.87064 0.83673 0.16493 0.0
C176 C 0.8819 0.86069 0.17992 0.0
C177 C 0.8735 0.88712 0.16836 0.0
C178 C 0.85199 0.8888 0.14236 0.0
C179 C 0.8403 0.86474 0.12772 0.0
C180 C 0.80203 0.7936 0.13477 0.0
C181 C 0.80332 0.76867 0.1517 0.0
C182 C 0.77566 0.75875 0.1675 0.0
C183 C 0.74597 0.7736 0.16689 0.0
C184 C 0.74457 0.79848 0.14949 0.0
C185 C 0.77245 0.80845 0.13365 0.0
C186 C 0.83737 0.81236 0.07564 0.0
C187 C 0.85846 0.83176 0.06153 0.0
C188 C 0.86242 0.8323 0.02914 0.0
C189 C 0.84646 0.81266 0.00997 0.0
C190 C 0.8246 0.79362 0.02408 0.0
C191 C 0.82019 0.79346 0.05663 0.0
P192 P 0.19565 0.84701 0.40632 0.0
H193 H 0.22217 0.80834 0.45256 0.0
H194 H 0.20087 0.79086 0.50221 0.0
H195 H 0.10776 0.83072 0.48215 0.0
H196 H 0.12809 0.84529 0.43189 0.0
H197 H 0.26059 0.8521 0.37842 0.0
H198 H 0.29223 0.82237 0.34403 0.0
H199 H 0.21223 0.763 0.34246 0.0
H200 H 0.18046 0.79304 0.37738 0.0
H201 H 0.15364 0.8926 0.42448 0.0
H202 H 0.17561 0.84877 0.33946 0.0
O203 O 0.22241 0.86912 0.42258 0.0
H204 H 0.11719 0.92363 0.39517 0.0
H205 H 0.14024 0.88072 0.30989 0.0
C206 C 0.17698 0.82846 0.43854 0.0
C207 C 0.1968 0.81246 0.45854 0.0
C208 C 0.18468 0.80287 0.48727 0.0
C209 C 0.15261 0.80966 0.49693 0.0
C210 C 0.13239 0.82454 0.47586 0.0
C211 C 0.14428 0.83344 0.44691 0.0
C212 C 0.2185 0.82444 0.38106 0.0
C213 C 0.24984 0.83262 0.37094 0.0
C214 C 0.2679 0.81566 0.35116 0.0
C215 C 0.25479 0.79031 0.3407 0.0
C216 C 0.22288 0.7825 0.35007 0.0
C217 C 0.20487 0.79946 0.3702 0.0
C218 C 0.16683 0.86796 0.38439 0.0
C219 C 0.15022 0.88935 0.39962 0.0
C220 C 0.12943 0.90705 0.3829 0.0
C221 C 0.12572 0.90426 0.35041 0.0
C222 C 0.14252 0.88302 0.33501 0.0
C223 C 0.16271 0.86479 0.35194 0.0
P224 P 0.33939 0.66063 0.87371 0.0
H225 H 0.39251 0.64744 0.83071 0.0
H226 H 0.41379 0.60399 0.81073 0.0
H227 H 0.33556 0.55932 0.85738 0.0
H228 H 0.3138 0.60327 0.87671 0.0
H229 H 0.32825 0.71196 0.8389 0.0
H230 H 0.28042 0.73172 0.81305 0.0
H231 H 0.22253 0.66001 0.83971 0.0
H232 H 0.27088 0.64057 0.86663 0.0
H233 H 0.36169 0.61838 0.91885 0.0
H234 H 0.31082 0.69656 0.92108 0.0
O235 O 0.37013 0.68338 0.869 0.0
H236 H 0.36568 0.61818 0.97536 0.0
H237 H 0.31677 0.69747 0.97808 0.0
C238 C 0.35187 0.6286 0.85567 0.0
C239 C 0.37968 0.62838 0.83647 0.0
C240 C 0.39202 0.60341 0.82521 0.0
C241 C 0.37681 0.57803 0.8329 0.0
C242 C 0.34788 0.57845 0.8509 0.0
C243 C 0.33541 0.60356 0.86202 0.0
C244 C 0.30324 0.67471 0.85472 0.0
C245 C 0.30537 0.70034 0.83925 0.0
C246 C 0.27792 0.71156 0.82409 0.0
C247 C 0.24756 0.69737 0.82384 0.0
C248 C 0.24545 0.6716 0.83948 0.0
C249 C 0.27309 0.66038 0.85479 0.0
C250 C 0.33507 0.65712 0.91554 0.0
C251 C 0.35045 0.63519 0.93144 0.0
C252 C 0.35336 0.63539 0.96398 0.0
C253 C 0.34207 0.65804 0.98144 0.0
C254 C 0.32547 0.67953 0.96555 0.0
C255 C 0.32204 0.67904 0.93289 0.0
Zn256 Zn 0.01641 0.13831 0.29722 0.0
Zn257 Zn 0.9715 0.12713 0.19097 0.0
Zn258 Zn -0.00695 0.13179 0.24501 0.0
C259 C 0.03143 0.15071 0.18203 0.0
C260 C 0.9692 0.07394 0.21259 0.0
O261 O 0.95492 0.15263 0.27453 0.0
O262 O 0.97757 0.14718 0.32132 0.0
C263 C 0.05649 0.17027 0.26331 0.0
O264 O 0.03037 0.1498 0.21217 0.0
O265 O 0.00807 0.14083 0.166 0.0
O266 O 0.96107 0.08768 0.18864 0.0
O267 O 0.98288 0.08637 0.23611 0.0
O268 O 0.04763 0.16895 0.29141 0.0
O269 O 0.04102 0.15592 0.24232 0.0
O270 O 0.0041 0.08909 0.26212 0.0
O271 O 0.035 0.10093 0.30252 0.0
C272 C 0.02387 0.08232 0.28463 0.0
O273 O 0.94609 0.15675 0.24317 0.0
O274 O 0.93483 0.15264 0.19286 0.0
C275 C 0.95356 0.15466 0.3046 0.0
C276 C 0.92845 0.16322 0.21897 0.0
Zn277 Zn 0.5235 0.34934 0.65007 0.0
Zn278 Zn 0.457 0.35991 0.83524 0.0
Zn279 Zn 0.49773 0.34682 0.7362 0.0
C280 C 0.47565 0.39414 0.77142 0.0
C281 C 0.43993 0.32718 0.77074 0.0
O282 O 0.54504 0.32608 0.74077 0.0
O283 O 0.54581 0.33291 0.69021 0.0
C284 C 0.5094 0.40159 0.6866 0.0
O285 O 0.48797 0.38981 0.74447 0.0
O286 O 0.47313 0.37307 0.78968 0.0
O287 O 0.45574 0.34361 0.78896 0.0
O288 O 0.4516 0.32432 0.74325 0.0
O289 O 0.51549 0.38965 0.66063 0.0
O290 O 0.50379 0.38812 0.71242 0.0
O291 O 0.46118 0.3212 0.71241 0.0
O292 O 0.50361 0.32763 0.6841 0.0
C293 C 0.47419 0.31951 0.68558 0.0
O294 O 0.53242 0.33291 0.77183 0.0
O295 O 0.49186 0.34657 0.80109 0.0
C296 C 0.55952 0.32285 0.71456 0.0
C297 C 0.52088 0.3365 0.79927 0.0
Zn298 Zn 0.01141 0.84865 0.80606 0.0
Zn299 Zn 0.97297 0.85376 0.69322 0.0
Zn300 Zn -0.00895 0.84952 0.74932 0.0
C301 C 0.97412 0.90723 0.71138 0.0
C302 C 0.92417 0.82231 0.72173 0.0
O303 O 0.03793 0.82456 0.7511 0.0
O304 O 0.05087 0.82594 0.80139 0.0
C305 C 0.01268 0.90386 0.79021 0.0
O306 O 0.98439 0.8945 0.73624 0.0
O307 O 0.96679 0.89358 0.68726 0.0
O308 O 0.93308 0.83134 0.69538 0.0
O309 O 0.94224 0.82719 0.74609 0.0
O310 O 0.01884 0.88847 0.81342 0.0
O311 O 0.00145 0.8931 0.76463 0.0
O312 O 0.95083 0.83009 0.77801 0.0
O313 O 0.97272 0.83159 0.82555 0.0
C314 C 0.94891 0.82556 0.80774 0.0
O315 O 0.02973 0.82936 0.71969 0.0
O316 O 0.01066 0.83796 0.67208 0.0
C317 C 0.05718 0.81785 0.77411 0.0
C318 C 0.03275 0.82819 0.68969 0.0
Zn319 Zn 0.50652 0.63234 0.19077 0.0
Zn320 Zn 0.45913 0.62684 0.29939 0.0
Zn321 Zn 0.48446 0.63191 0.24636 0.0
C322 C 0.51571 0.65885 0.30844 0.0
C323 C 0.46948 0.57373 0.2848 0.0
O324 O 0.44658 0.65068 0.21419 0.0
O325 O 0.47187 0.6526 0.16859 0.0
C326 C 0.55276 0.66137 0.22639 0.0
O327 O 0.51894 0.65425 0.27891 0.0
O328 O 0.49058 0.64987 0.32247 0.0
O329 O 0.46022 0.58707 0.30835 0.0
O330 O 0.479 0.5869 0.26004 0.0
O331 O 0.54769 0.65216 0.19923 0.0
O332 O 0.53154 0.65676 0.24819 0.0
O333 O 0.49623 0.58877 0.23183 0.0
O334 O 0.51065 0.5924 0.18225 0.0
C335 C 0.50597 0.57756 0.20617 0.0
O336 O 0.43507 0.65296 0.24514 0.0
O337 O 0.41569 0.64269 0.29189 0.0
C338 C 0.44678 0.65719 0.18486 0.0
C339 C 0.41191 0.65423 0.26562 0.0
C340 C 0.12202 0.9421 0.3107 0.0
C341 C 0.1064 0.92507 0.33275 0.0
C342 C 0.10603 0.96545 0.29824 0.0
C343 C 0.07348 0.97149 0.30767 0.0
C344 C 0.05667 0.95285 0.32777 0.0
C345 C 0.07354 0.93008 0.34052 0.0
C346 C 0.12503 0.98493 0.27723 0.0
C347 C 0.02161 0.95803 0.33751 0.0
C348 C 0.05213 0.04713 0.31788 0.0
C349 C 0.03475 0.05334 0.29023 0.0
C350 C 0.06496 0.02072 0.32349 0.0
C351 C 0.05946 -0.00057 0.30138 0.0
C352 C 0.0413 0.00522 0.27371 0.0
C353 C 0.0299 0.03234 0.26811 0.0
C354 C 0.0849 0.01577 0.35299 0.0
C355 C 0.03441 0.98304 0.24977 0.0
H356 H 0.14752 0.93823 0.30487 0.0
H357 H 0.06145 0.91672 0.35743 0.0
H358 H 0.10998 -0.00908 0.25658 0.0
H359 H 0.13108 0.00419 0.29023 0.0
H360 H 0.14836 0.97562 0.26902 0.0
H361 H 0.01037 0.9395 0.34881 0.0
H362 H 0.02106 0.97543 0.35436 0.0
H363 H 0.00632 0.96405 0.31697 0.0
H364 H 0.05632 0.06315 0.33517 0.0
H365 H 0.01797 0.03715 0.24614 0.0
H366 H 0.10969 0.00795 0.34696 0.0
H367 H 0.07274 -0.00027 0.36764 0.0
H368 H 0.08798 0.03486 0.36716 0.0
H369 H 0.0571 0.97889 0.23636 0.0
H370 H 0.01478 0.98934 0.233 0.0
H371 H 0.02696 0.96336 0.26135 0.0
C372 C 0.42622 0.54796 0.82433 0.0
C373 C 0.39189 0.55134 0.82309 0.0
C374 C 0.44096 0.52295 0.81553 0.0
C375 C 0.42094 0.50059 0.80537 0.0
C376 C 0.3863 0.50383 0.80391 0.0
C377 C 0.3722 0.52913 0.81279 0.0
C378 C 0.47797 0.52036 0.81741 0.0
C379 C 0.36412 0.48051 0.79303 0.0
C380 C 0.45885 0.44261 0.75778 0.0
C381 C 0.46315 0.42178 0.78043 0.0
C382 C 0.4458 0.46854 0.76563 0.0
C383 C 0.43617 0.47361 0.79684 0.0
C384 C 0.44064 0.45272 0.81987 0.0
C385 C 0.45412 0.42709 0.8114 0.0
C386 C 0.4418 0.49029 0.74037 0.0
C387 C 0.43088 0.45734 0.85344 0.0
H388 H 0.44166 0.56479 0.83275 0.0
H389 H 0.34573 0.53161 0.81138 0.0
H390 H 0.4847 0.50362 0.83413 0.0
H391 H 0.4879 0.51452 0.79427 0.0
H392 H 0.49012 0.53991 0.82504 0.0
H393 H 0.33773 0.48643 0.79288 0.0
H394 H 0.37105 0.47412 0.76909 0.0
H395 H 0.36728 0.46219 0.80854 0.0
H396 H 0.46493 0.43846 0.73368 0.0
H397 H 0.45738 0.41114 0.82906 0.0
H398 H 0.45395 0.50993 0.74756 0.0
H399 H 0.41527 0.49476 0.73679 0.0
H400 H 0.45241 0.48367 0.71773 0.0
H401 H 0.44387 0.47583 0.86288 0.0
H402 H 0.4366 0.43923 0.86865 0.0
H403 H 0.40408 0.46148 0.85468 0.0
C404 C 0.57247 0.55843 0.66132 0.0
C405 C 0.6016 0.55212 0.64551 0.0
C406 C 0.55245 0.53717 0.67378 0.0
C407 C 0.56206 0.50915 0.67043 0.0
C408 C 0.59235 0.50294 0.65589 0.0
C409 C 0.61162 0.52446 0.64357 0.0
C410 C 0.52043 0.54464 0.68919 0.0
C411 C 0.60391 0.47341 0.65219 0.0
C412 C 0.53054 0.44496 0.7117 0.0
C413 C 0.51358 0.43204 0.68702 0.0
C414 C 0.54354 0.47187 0.70806 0.0
C415 C 0.53962 0.48585 0.67905 0.0
C416 C 0.51917 0.4741 0.6556 0.0
C417 C 0.50647 0.44729 0.65986 0.0
C418 C 0.56438 0.48397 0.734 0.0
C419 C 0.51376 0.48843 0.62453 0.0
H420 H 0.56476 0.57985 0.66293 0.0
H421 H 0.6345 0.51961 0.63194 0.0
H422 H 0.49975 0.54047 0.67275 0.0
H423 H 0.51626 0.53183 0.71044 0.0
H424 H 0.51976 0.5669 0.69571 0.0
H425 H 0.629 0.47228 0.64211 0.0
H426 H 0.60409 0.46263 0.67517 0.0
H427 H 0.58667 0.46197 0.6366 0.0
H428 H 0.53604 0.43327 0.73281 0.0
H429 H 0.49299 0.43745 0.6409 0.0
H430 H 0.56083 0.5067 0.73574 0.0
H431 H 0.59075 0.48029 0.72893 0.0
H432 H 0.5586 0.47424 0.75694 0.0
H433 H 0.50838 0.51072 0.6279 0.0
H434 H 0.49321 0.47885 0.61101 0.0
H435 H 0.53652 0.48702 0.61042 0.0
C436 C 0.92136 0.91277 0.19268 0.0
C437 C 0.88843 0.91268 0.18227 0.0
C438 C 0.93675 0.93723 0.20313 0.0
C439 C 0.91902 0.96239 0.20278 0.0
C440 C 0.8854 0.96224 0.1937 0.0
C441 C 0.87048 0.93741 0.18377 0.0
C442 C 0.97238 0.93637 0.2133 0.0
C443 C 0.86561 0.98864 0.19282 0.0
C444 C 0.95016 0.02993 0.23902 0.0
C445 C 0.96183 0.04386 0.21242 0.0
C446 C 0.93766 0.00265 0.23679 0.0
C447 C 0.93658 0.98936 0.20726 0.0
C448 C 0.95012 0.00289 0.18084 0.0
C449 C 0.96259 0.02986 0.18379 0.0
C450 C 0.92404 0.98873 0.26561 0.0
C451 C 0.94977 -0.01046 0.14893 0.0
H452 H 0.9357 0.89395 0.19146 0.0
H453 H 0.84485 0.93754 0.17656 0.0
H454 H 0.98753 0.94955 0.19759 0.0
H455 H 0.97489 0.94487 0.23725 0.0
H456 H 0.98244 0.91501 0.21323 0.0
H457 H 0.83911 0.9847 0.18783 0.0
H458 H 0.86786 -0.00033 0.21544 0.0
H459 H 0.87543 0.00265 0.1744 0.0
H460 H 0.94945 0.04075 0.26117 0.0
H461 H 0.97188 0.04049 0.16323 0.0
H462 H 0.93182 0.96675 0.26692 0.0
H463 H 0.89674 0.98894 0.26447 0.0
H464 H 0.93204 -0.00056 0.28735 0.0
H465 H 0.96127 0.96876 0.15013 0.0
H466 H 0.96301 0.0022 0.1312 0.0
H467 H 0.92394 0.98662 0.14087 0.0
C468 C 0.93779 0.07026 0.68857 0.0
C469 C 0.90599 0.07083 0.67537 0.0
C470 C 0.95165 0.04536 0.6995 0.0
C471 C 0.93332 0.0204 0.69716 0.0
C472 C 0.90062 0.02109 0.68538 0.0
C473 C 0.88742 0.04622 0.67457 0.0
C474 C 0.98653 0.04562 0.71197 0.0
C475 C 0.88015 -0.00505 0.68258 0.0
C476 C 0.97394 0.95156 0.68185 0.0
C477 C 0.96944 0.93758 0.71032 0.0
C478 C 0.96416 0.97914 0.67796 0.0
C479 C 0.94929 -0.00687 0.70314 0.0
C480 C 0.94681 0.97978 0.73267 0.0
C481 C 0.95682 0.952 0.7359 0.0
C482 C 0.9679 -0.00731 0.64624 0.0
C483 C 0.93187 -0.00573 0.76027 0.0
H484 H 0.95214 0.08924 0.68987 0.0
H485 H 0.86299 0.04632 0.6642 0.0
H486 H 0.98922 0.03136 0.73223 0.0
H487 H 0.0034 0.03838 0.69347 0.0
H488 H -0.00553 0.06675 0.71913 0.0
H489 H 0.85424 -0.00067 0.67577 0.0
H490 H 0.891 0.98124 0.66467 0.0
H491 H 0.88022 0.9834 0.70508 0.0
H492 H 0.98404 0.94051 0.66212 0.0
H493 H 0.95322 0.94119 0.75792 0.0
H494 H 0.98004 0.01325 0.64857 0.0
H495 H 0.94321 -0.00387 0.63565 0.0
H496 H 0.98252 0.97987 0.62997 0.0
H497 H 0.9423 0.01547 0.76273 0.0
H498 H 0.93605 0.98269 0.78247 0.0
H499 H 0.90495 -0.00362 0.75644 0.0
C500 C 0.57961 0.42442 0.18135 0.0
C501 C 0.61139 0.43114 0.17093 0.0
C502 C 0.55813 0.4451 0.19179 0.0
C503 C 0.56869 0.47315 0.19166 0.0
C504 C 0.60123 0.47983 0.18244 0.0
C505 C 0.62209 0.4588 0.17219 0.0
C506 C 0.5239 0.43651 0.20151 0.0
C507 C 0.61351 0.50948 0.18169 0.0
C508 C 0.51331 0.53414 0.17612 0.0
C509 C 0.51495 0.54797 0.20482 0.0
C510 C 0.52826 0.50831 0.17229 0.0
C511 C 0.54538 0.49613 0.19775 0.0
C512 C 0.54417 0.50862 0.22759 0.0
C513 C 0.52936 0.5347 0.23071 0.0
C514 C 0.52779 0.49502 0.1404 0.0
C515 C 0.56043 0.49535 0.25567 0.0
H516 H 0.57125 0.40304 0.1808 0.0
H517 H 0.64638 0.46428 0.16372 0.0
H518 H 0.52541 0.41924 0.21873 0.0
H519 H 0.50955 0.45359 0.21185 0.0
H520 H 0.51029 0.42852 0.18079 0.0
H521 H 0.64002 0.51099 0.17564 0.0
H522 H 0.59918 0.5215 0.16413 0.0
H523 H 0.60986 0.51937 0.20476 0.0
H524 H 0.50174 0.54419 0.15616 0.0
H525 H 0.5308 0.54534 0.25295 0.0
H526 H 0.52014 0.47295 0.14238 0.0
H527 H 0.55296 0.49554 0.13046 0.0
H528 H 0.51083 0.50573 0.12388 0.0
H529 H 0.55538 0.47271 0.25614 0.0
H530 H 0.55182 0.50457 0.27791 0.0
H531 H 0.5875 0.4983 0.25418 0.0
C532 C 0.39171 0.42913 0.31577 0.0
C533 C 0.41199 0.4057 0.3155 0.0
C534 C 0.40379 0.45529 0.30683 0.0
C535 C 0.43703 0.45821 0.29748 0.0
C536 C 0.45731 0.43451 0.29598 0.0
C537 C 0.44456 0.40856 0.30503 0.0
C538 C 0.38131 0.48005 0.30875 0.0
C539 C 0.4929 0.43663 0.28629 0.0
C540 C 0.45659 0.52794 0.2599 0.0
C541 C 0.46714 0.54317 0.28597 0.0
C542 C 0.44889 0.49956 0.2627 0.0
C543 C 0.45104 0.48647 0.29239 0.0
C544 C 0.46356 0.50145 0.31829 0.0
C545 C 0.47144 0.52958 0.31475 0.0
C546 C 0.43672 0.48404 0.23431 0.0
C547 C 0.46679 0.48821 0.35025 0.0
H548 H 0.36666 0.42724 0.32412 0.0
H549 H 0.46031 0.39051 0.30424 0.0
H550 H 0.39045 0.49437 0.32715 0.0
H551 H 0.38134 0.49164 0.28627 0.0
H552 H 0.35556 0.47403 0.31432 0.0
H553 H 0.50236 0.41639 0.27806 0.0
H554 H 0.4963 0.45232 0.26755 0.0
H555 H 0.50805 0.4432 0.30667 0.0
H556 H 0.45279 0.53846 0.23772 0.0
H557 H 0.47977 0.54131 0.33491 0.0
H558 H 0.40974 0.48067 0.23613 0.0
H559 H 0.44843 0.46336 0.233 0.0
H560 H 0.4418 0.49559 0.21229 0.0
H561 H 0.44197 0.48306 0.35935 0.0
H562 H 0.47945 0.50202 0.3673 0.0
H563 H 0.48073 0.46857 0.34873 0.0
C564 C 0.08123 0.05895 0.82028 0.0
C565 C 0.11476 0.05384 0.8259 0.0
C566 C 0.06006 0.03778 0.80954 0.0
C567 C 0.07261 0.01076 0.80503 0.0
C568 C 0.10672 0.00589 0.80927 0.0
C569 C 0.12731 0.02746 0.81954 0.0
C570 C 0.02406 0.04414 0.80462 0.0
C571 C 0.12121 0.97741 0.80489 0.0
C572 C 0.02352 0.94583 0.82222 0.0
C573 C 0.02114 0.93371 0.79255 0.0
C574 C 0.0381 0.97196 0.82631 0.0
C575 C 0.05012 0.98665 0.79998 0.0
C576 C 0.04483 0.97576 0.76963 0.0
C577 C 0.03107 0.94908 0.7663 0.0
C578 C 0.04298 0.9828 0.85911 0.0
C579 C 0.0557 -0.00864 0.74081 0.0
H580 H 0.07141 0.07937 0.82483 0.0
H581 H 0.15307 0.0232 0.82419 0.0
H582 H 0.01306 0.03125 0.78579 0.0
H583 H 0.01053 0.03964 0.82653 0.0
H584 H 0.02037 0.06636 0.7987 0.0
H585 H 0.14846 0.97745 0.80735 0.0
H586 H 0.11082 0.96289 0.82252 0.0
H587 H 0.11462 0.96928 0.78143 0.0
H588 H 0.01559 0.93418 0.84261 0.0
H589 H 0.02989 0.93974 0.74334 0.0
H590 H 0.03401 0.0044 0.86076 0.0
H591 H 0.06965 0.98303 0.86501 0.0
H592 H 0.02997 0.96992 0.87681 0.0
H593 H 0.05184 0.01399 0.74346 0.0
H594 H 0.04217 0.98416 0.71964 0.0
H595 H 0.08238 0.98792 0.73715 0.0
C596 C 0.16534 0.16978 0.048 0.0
C597 C 0.1551 0.14695 0.03006 0.0
C598 C 0.151 0.17524 0.07716 0.0
C599 C 0.12565 0.15763 0.08834 0.0
C600 C 0.11567 0.13431 0.07051 0.0
C601 C 0.13051 0.1293 0.04166 0.0
C602 C 0.16248 0.20008 0.09567 0.0
C603 C 0.08851 0.11505 0.08138 0.0
C604 C 0.09107 0.14941 0.16951 0.0
C605 C 0.0601 0.16136 0.16491 0.0
C606 C 0.11494 0.15089 0.14586 0.0
C607 C 0.10717 0.16437 0.1172 0.0
C608 C 0.07751 0.17943 0.11435 0.0
C609 C 0.05431 0.17771 0.13831 0.0
C610 C 0.14665 0.13518 0.15015 0.0
C611 C 0.06819 0.19426 0.08441 0.0
H612 H 0.18463 0.18331 0.03926 0.0
H613 H 0.12219 0.11185 0.02773 0.0
H614 H 0.14267 0.2158 0.0962 0.0
H615 H 0.16783 0.19402 0.12025 0.0
H616 H 0.18485 0.20984 0.08551 0.0
H617 H 0.0846 0.0973 0.06529 0.0
H618 H 0.09439 0.10676 0.105 0.0
H619 H 0.06508 0.12664 0.08309 0.0
H620 H 0.09538 0.13648 0.18992 0.0
H621 H 0.03026 0.18697 0.1349 0.0
H622 H 0.16746 0.14619 0.13878 0.0
H623 H 0.14413 0.11451 0.13907 0.0
H624 H 0.15261 0.13203 0.17532 0.0
H625 H 0.08946 0.20593 0.0748 0.0
H626 H 0.04751 0.20887 0.08791 0.0
H627 H 0.06043 0.17876 0.06667 0.0
C628 C 0.38978 0.32843 0.51845 0.0
C629 C 0.37842 0.30281 0.50705 0.0
C630 C 0.40147 0.33111 0.54928 0.0
C631 C 0.40233 0.30754 0.56913 0.0
C632 C 0.38958 0.28193 0.55831 0.0
C633 C 0.37754 0.27993 0.52752 0.0
C634 C 0.41456 0.35887 0.56004 0.0
C635 C 0.39028 0.25627 0.57867 0.0
C636 C 0.47127 0.30749 0.6293 0.0
C637 C 0.45479 0.31464 0.65674 0.0
C638 C 0.4543 0.3045 0.6009 0.0
C639 C 0.4199 0.30902 0.59977 0.0
C640 C 0.4029 0.31565 0.62755 0.0
C641 C 0.42055 0.3182 0.65587 0.0
C642 C 0.47335 0.29698 0.57196 0.0
C643 C 0.3663 0.32087 0.62715 0.0
H644 H 0.39101 0.34619 0.50288 0.0
H645 H 0.36819 0.26019 0.51924 0.0
H646 H 0.40428 0.3642 0.5832 0.0
H647 H 0.44172 0.35784 0.56276 0.0
H648 H 0.40861 0.37579 0.54323 0.0
H649 H 0.37659 0.23867 0.56794 0.0
H650 H 0.41619 0.24985 0.58259 0.0
H651 H 0.37959 0.26062 0.60191 0.0
H652 H 0.49768 0.30435 0.63 0.0
H653 H 0.40775 0.32378 0.67707 0.0
H654 H 0.47181 0.31408 0.55457 0.0
H655 H 0.46247 0.27823 0.56096 0.0
H656 H 0.49975 0.29295 0.57715 0.0
H657 H 0.36094 0.33947 0.61265 0.0
H658 H 0.35642 0.3242 0.65099 0.0
H659 H 0.35304 0.30314 0.61633 0.0
C660 C 0.60126 0.35489 0.96506 0.0
C661 C 0.62519 0.33556 0.97436 0.0
C662 C 0.5848 0.35263 0.93624 0.0
C663 C 0.59176 0.33009 0.91634 0.0
C664 C 0.61482 0.30981 0.92606 0.0
C665 C 0.63143 0.31287 0.95488 0.0
C666 C 0.56053 0.37483 0.92679 0.0
C667 C 0.62236 0.28517 0.90578 0.0
C668 C 0.52616 0.31881 0.85382 0.0
C669 C 0.54061 0.33155 0.82777 0.0
C670 C 0.54346 0.31646 0.88227 0.0
C671 C 0.57531 0.32837 0.88509 0.0
C672 C 0.59017 0.34088 0.85858 0.0
C673 C 0.57285 0.34179 0.83 0.0
C674 C 0.5272 0.30207 0.90958 0.0
C675 C 0.62353 0.35473 0.86085 0.0
H676 H 0.59561 0.37211 0.98025 0.0
H677 H 0.64996 0.2979 0.96173 0.0
H678 H 0.56833 0.38467 0.9045 0.0
H679 H 0.53585 0.3655 0.92272 0.0
H680 H 0.55827 0.39123 0.94478 0.0
H681 H 0.63895 0.27017 0.9177 0.0
H682 H 0.59921 0.27431 0.89909 0.0
H683 H 0.63425 0.29226 0.88386 0.0
H684 H 0.50119 0.31086 0.85196 0.0
H685 H 0.58377 0.35195 0.80987 0.0
H686 H 0.52055 0.31756 0.92751 0.0
H687 H 0.54446 0.28719 0.92074 0.0
H688 H 0.50449 0.29073 0.90243 0.0
H689 H 0.62225 0.37251 0.87717 0.0
H690 H 0.63226 0.36247 0.83782 0.0
H691 H 0.64198 0.34009 0.8705 0.0
C692 C 0.83891 0.18255 0.45051 0.0
C693 C 0.85761 0.16694 0.47194 0.0
C694 C 0.84669 0.18301 0.41849 0.0
C695 C 0.8741 0.16787 0.4078 0.0
C696 C 0.89241 0.15142 0.42923 0.0
C697 C 0.88388 0.15112 0.46093 0.0
C698 C 0.82628 0.20043 0.39636 0.0
C699 C 0.92202 0.13505 0.41897 0.0
C700 C 0.89767 0.1475 0.32583 0.0
C701 C 0.92472 0.16512 0.32121 0.0
C702 C 0.87791 0.15021 0.35253 0.0
C703 C 0.88593 0.17072 0.37501 0.0
C704 C 0.91061 0.19067 0.36821 0.0
C705 C 0.92967 0.18762 0.34127 0.0
C706 C 0.85117 0.12904 0.35846 0.0
C707 C 0.92006 0.21294 0.39134 0.0
H708 H 0.81839 0.19465 0.45885 0.0
H709 H 0.89876 0.13935 0.47736 0.0
H710 H 0.84031 0.21935 0.3898 0.0
H711 H 0.82079 0.18892 0.37451 0.0
H712 H 0.80271 0.2069 0.40707 0.0
H713 H 0.93284 0.12254 0.43833 0.0
H714 H 0.91508 0.12086 0.39965 0.0
H715 H 0.94127 0.14939 0.40999 0.0
H716 H 0.89413 0.12986 0.31052 0.0
H717 H 0.95091 0.20102 0.3378 0.0
H718 H 0.82966 0.13868 0.36988 0.0
H719 H 0.86075 0.11271 0.37442 0.0
H720 H 0.84289 0.11898 0.33643 0.0
H721 H 0.89788 0.22279 0.40122 0.0
H722 H 0.93572 0.22928 0.38052 0.0
H723 H 0.93404 0.20346 0.41103 0.0
C724 C 0.83053 0.80459 0.95327 0.0
C725 C 0.85458 0.8111 0.97594 0.0
C726 C 0.83844 0.80354 0.92123 0.0
C727 C 0.87101 0.80958 0.91156 0.0
C728 C 0.89541 0.81575 0.93439 0.0
C729 C 0.88701 0.81607 0.96611 0.0
C730 C 0.81185 0.79641 0.89775 0.0
C731 C 0.93053 0.82236 0.92533 0.0
C732 C 0.91545 0.79157 0.83729 0.0
C733 C 0.91799 0.81777 0.82325 0.0
C734 C 0.89618 0.78751 0.86416 0.0
C735 C 0.88015 0.81048 0.87776 0.0
C736 C 0.87958 0.83612 0.86145 0.0
C737 C 0.8983 0.83935 0.83415 0.0
C738 C 0.89643 0.75952 0.88003 0.0
C739 C 0.86316 0.86127 0.87505 0.0
H740 H 0.80539 0.80076 0.96048 0.0
H741 H 0.90612 0.82019 0.98333 0.0
H742 H 0.80502 0.81526 0.8843 0.0
H743 H 0.82086 0.78092 0.88077 0.0
H744 H 0.78936 0.78807 0.90918 0.0
H745 H 0.94635 0.8273 0.9459 0.0
H746 H 0.94139 0.80447 0.913 0.0
H747 H 0.93106 0.84033 0.90902 0.0
H748 H 0.93104 0.77496 0.82915 0.0
H749 H 0.90081 0.85978 0.82367 0.0
H750 H 0.87217 0.75478 0.89062 0.0
H751 H 0.91514 0.75957 0.89907 0.0
H752 H 0.90271 0.74279 0.86337 0.0
H753 H 0.83879 0.8558 0.88491 0.0
H754 H 0.85987 0.87796 0.85731 0.0
H755 H 0.87866 0.86954 0.89441 0.0
C756 C 0.64542 0.69258 0.4459 0.0
C757 C 0.64723 0.66618 0.45955 0.0
C758 C 0.62925 0.69653 0.41697 0.0
C759 C 0.61353 0.67372 0.4022 0.0
C760 C 0.61613 0.6469 0.41573 0.0
C761 C 0.63332 0.64345 0.44402 0.0
C762 C 0.62821 0.7252 0.40276 0.0
C763 C 0.5993 0.62202 0.40124 0.0
C764 C 0.53352 0.68084 0.35791 0.0
C765 C 0.54212 0.67116 0.32817 0.0
C766 C 0.55704 0.68372 0.38173 0.0
C767 C 0.59042 0.678 0.37536 0.0
C768 C 0.59994 0.67195 0.34425 0.0
C769 C 0.57552 0.66809 0.321 0.0
C770 C 0.54543 0.68979 0.41449 0.0
C771 C 0.6355 0.66732 0.33602 0.0
H772 H 0.6566 0.71007 0.45785 0.0
H773 H 0.63488 0.62305 0.4547 0.0
H774 H 0.63138 0.72429 0.37702 0.0
H775 H 0.60393 0.7347 0.40732 0.0
H776 H 0.64758 0.73893 0.41283 0.0
H777 H 0.6044 0.60254 0.41436 0.0
H778 H 0.57226 0.62527 0.40062 0.0
H779 H 0.60753 0.61937 0.37678 0.0
H780 H 0.50777 0.6838 0.36345 0.0
H781 H 0.58247 0.66065 0.29814 0.0
H782 H 0.56022 0.70673 0.42506 0.0
H783 H 0.54872 0.67107 0.4294 0.0
H784 H 0.51905 0.69573 0.41504 0.0
H785 H 0.65207 0.68102 0.34987 0.0
H786 H 0.63985 0.67111 0.31072 0.0
H787 H 0.64215 0.64552 0.34135 0.0
C788 C 0.38116 0.65131 0.02641 0.0
C789 C 0.35029 0.6602 0.01546 0.0
C790 C 0.39004 0.6534 0.05803 0.0
C791 C 0.3678 0.66523 0.07949 0.0
C792 C 0.33668 0.6745 0.06874 0.0
C793 C 0.32821 0.67177 0.03686 0.0
C794 C 0.42356 0.64319 0.06834 0.0
C795 C 0.31248 0.68744 0.09084 0.0
C796 C 0.39332 0.64459 0.16138 0.0
C797 C 0.4168 0.66521 0.16771 0.0
C798 C 0.37408 0.64568 0.13391 0.0
C799 C 0.37816 0.66822 0.11286 0.0
C800 C 0.3984 0.69095 0.12165 0.0
C801 C 0.41787 0.68898 0.14883 0.0
C802 C 0.353 0.62092 0.1255 0.0
C803 C 0.40287 0.71574 0.1004 0.0
H804 H 0.39886 0.64311 0.01009 0.0
H805 H 0.30423 0.67858 0.02875 0.0
H806 H 0.43846 0.66074 0.07753 0.0
H807 H 0.42094 0.62777 0.08751 0.0
H808 H 0.43734 0.63346 0.04896 0.0
H809 H 0.28969 0.69437 0.07868 0.0
H810 H 0.30566 0.67232 0.10935 0.0
H811 H 0.324 0.70553 0.10266 0.0
H812 H 0.39294 0.62596 0.1757 0.0
H813 H 0.43632 0.70479 0.15359 0.0
H814 H 0.36652 0.60775 0.10875 0.0
H815 H 0.32974 0.62742 0.11396 0.0
H816 H 0.34701 0.60813 0.1464 0.0
H817 H 0.4201 0.71035 0.08138 0.0
H818 H 0.41327 0.73379 0.11325 0.0
H819 H 0.37915 0.72184 0.08942 0.0
C820 C 0.10726 0.79991 0.53553 0.0
C821 C 0.14099 0.80347 0.52949 0.0
C822 C 0.09519 0.79962 0.5662 0.0
C823 C 0.11747 0.80147 0.59178 0.0
C824 C 0.15172 0.80189 0.58604 0.0
C825 C 0.16306 0.80355 0.55506 0.0
C826 C 0.05837 0.79936 0.57106 0.0
C827 C 0.17644 0.80223 0.61256 0.0
C828 C 0.07993 0.84151 0.65791 0.0
C829 C 0.06363 0.82045 0.67439 0.0
C830 C 0.09985 0.83545 0.63229 0.0
C831 C 0.10446 0.80746 0.62358 0.0
C832 C 0.09158 0.78597 0.64281 0.0
C833 C 0.07055 0.79272 0.66771 0.0
C834 C 0.11249 0.85918 0.61241 0.0
C835 C 0.09751 0.75587 0.63556 0.0
H836 H 0.08991 0.79849 0.51624 0.0
H837 H 0.1892 0.80625 0.55119 0.0
H838 H 0.05127 0.78189 0.58659 0.0
H839 H 0.05081 0.81882 0.58266 0.0
H840 H 0.0444 0.79741 0.54873 0.0
H841 H 0.20085 0.79466 0.60488 0.0
H842 H 0.17967 0.82375 0.62111 0.0
H843 H 0.16789 0.78925 0.63246 0.0
H844 H 0.07415 0.86296 0.66294 0.0
H845 H 0.05757 0.7764 0.68013 0.0
H846 H 0.09955 0.8591 0.58945 0.0
H847 H 0.13914 0.85681 0.60787 0.0
H848 H 0.10858 0.87964 0.62356 0.0
H849 H 0.07857 0.74847 0.61869 0.0
H850 H 0.09567 0.74287 0.65701 0.0
H851 H 0.12208 0.75284 0.62496 0.0
C852 C 0.22607 0.25647 0.27499 0.0
C853 C 0.23452 0.25118 0.30639 0.0
C854 C 0.19781 0.2445 0.26127 0.0
C855 C 0.1774 0.22689 0.27938 0.0
C856 C 0.18589 0.22136 0.31102 0.0
C857 C 0.21428 0.23352 0.32408 0.0
C858 C 0.18956 0.25097 0.22755 0.0
C859 C 0.16483 0.20269 0.33123 0.0
C860 C 0.08635 0.21485 0.26629 0.0
C861 C 0.08581 0.18723 0.25636 0.0
C862 C 0.1162 0.22904 0.271 0.0
C863 C 0.14627 0.21504 0.26615 0.0
C864 C 0.14574 0.18799 0.25326 0.0
C865 C 0.11538 0.17434 0.24852 0.0
C866 C 0.11547 0.25797 0.28426 0.0
C867 C 0.17716 0.17236 0.24753 0.0
H868 H 0.24135 0.2703 0.26119 0.0
H869 H 0.22088 0.22885 0.34814 0.0
H870 H 0.1865 0.23148 0.21414 0.0
H871 H 0.16581 0.26216 0.22616 0.0
H872 H 0.20884 0.26389 0.21617 0.0
H873 H 0.17528 0.19992 0.35512 0.0
H874 H 0.13978 0.21151 0.3333 0.0
H875 H 0.1622 0.182 0.32022 0.0
H876 H 0.06342 0.22465 0.27271 0.0
H877 H 0.11502 0.15275 0.24162 0.0
H878 H 0.13384 0.27153 0.27258 0.0
H879 H 0.12194 0.25716 0.30952 0.0
H880 H 0.09076 0.26753 0.28175 0.0
H881 H 0.19604 0.18605 0.23679 0.0
H882 H 0.17296 0.15418 0.23212 0.0
H883 H 0.18723 0.16482 0.27021 0.0
C884 C 0.32923 0.21134 0.8473 0.0
C885 C 0.29503 0.21482 0.84494 0.0
C886 C 0.35107 0.23068 0.83417 0.0
C887 C 0.33847 0.25415 0.81821 0.0
C888 C 0.30397 0.25772 0.81545 0.0
C889 C 0.28263 0.23795 0.8288 0.0
C890 C 0.38769 0.22598 0.83743 0.0
C891 C 0.28966 0.28253 0.79867 0.0
C892 C 0.39866 0.31441 0.81161 0.0
C893 C 0.41149 0.31048 0.78163 0.0
C894 C 0.37383 0.29694 0.82333 0.0
C895 C 0.36167 0.27492 0.80467 0.0
C896 C 0.37364 0.2715 0.77392 0.0
C897 C 0.39834 0.28938 0.76273 0.0
C898 C 0.36154 0.30139 0.85616 0.0
C899 C 0.36139 0.24823 0.75332 0.0
H900 H 0.33898 0.19324 0.85922 0.0
H901 H 0.25623 0.24083 0.82708 0.0
H902 H 0.39909 0.22498 0.81397 0.0
H903 H 0.39932 0.24362 0.84999 0.0
H904 H 0.39347 0.20654 0.85034 0.0
H905 H 0.26231 0.28206 0.79816 0.0
H906 H 0.29793 0.30187 0.81035 0.0
H907 H 0.29872 0.2834 0.77427 0.0
H908 H 0.40847 0.33079 0.82625 0.0
H909 H 0.40807 0.28624 0.73948 0.0
H910 H 0.369 0.28369 0.87125 0.0
H911 H 0.33425 0.30219 0.85626 0.0
H912 H 0.3714 0.32081 0.86661 0.0
H913 H 0.36897 0.22803 0.76353 0.0
H914 H 0.37119 0.24976 0.72918 0.0
H915 H 0.3341 0.24821 0.75212 0.0
C916 C 0.73465 0.25111 0.68815 0.0
C917 C 0.73012 0.22614 0.67189 0.0
C918 C 0.70768 0.26629 0.69898 0.0
C919 C 0.67533 0.25633 0.69339 0.0
C920 C 0.6706 0.23066 0.67796 0.0
C921 C 0.69804 0.2159 0.66736 0.0
C922 C 0.71379 0.29368 0.71501 0.0
C923 C 0.6365 0.21935 0.67149 0.0
C924 C 0.60232 0.28934 0.73456 0.0
C925 C 0.59055 0.30723 0.71113 0.0
C926 C 0.63017 0.27272 0.72936 0.0
C927 C 0.64655 0.27426 0.7002 0.0
C928 C 0.63522 0.29289 0.67692 0.0
C929 C 0.60745 0.30904 0.68266 0.0
C930 C 0.64164 0.25307 0.7547 0.0
C931 C 0.65203 0.29543 0.6456 0.0
H932 H 0.7593 0.2594 0.69139 0.0
H933 H 0.69436 0.19645 0.65521 0.0
H934 H 0.70512 0.31084 0.69971 0.0
H935 H 0.69967 0.29474 0.73708 0.0
H936 H 0.74029 0.29716 0.72041 0.0
H937 H 0.63704 0.19801 0.66187 0.0
H938 H 0.62175 0.21917 0.69322 0.0
H939 H 0.62367 0.23299 0.6544 0.0
H940 H 0.58929 0.28777 0.75654 0.0
H941 H 0.59869 0.32294 0.66445 0.0
H942 H 0.668 0.25692 0.76023 0.0
H943 H 0.63948 0.23139 0.74634 0.0
H944 H 0.62714 0.25513 0.77648 0.0
H945 H 0.67843 0.30073 0.64897 0.0
H946 H 0.64063 0.31151 0.63037 0.0
H947 H 0.65083 0.27529 0.63323 0.0
C948 C 0.76958 0.24714 0.1773 0.0
C949 C 0.77537 0.27579 0.1771 0.0
C950 C 0.79161 0.22902 0.19246 0.0
C951 C 0.81992 0.23989 0.2078 0.0
C952 C 0.82368 0.26896 0.21062 0.0
C953 C 0.80151 0.28656 0.19503 0.0
C954 C 0.78645 0.19818 0.18912 0.0
C955 C 0.85298 0.28152 0.22734 0.0
C956 C 0.88128 0.1888 0.24452 0.0
C957 C 0.90245 0.18466 0.21925 0.0
C958 C 0.85452 0.20732 0.24179 0.0
C959 C 0.84902 0.22168 0.21313 0.0
C960 C 0.87131 0.21828 0.1882 0.0
C961 C 0.89762 0.20006 0.19168 0.0
C962 C 0.83162 0.21067 0.26907 0.0
C963 C 0.86694 0.23328 0.15728 0.0
H964 H 0.74928 0.23874 0.16366 0.0
H965 H 0.80561 0.30879 0.19554 0.0
H966 H 0.80364 0.19012 0.17131 0.0
H967 H 0.79184 0.18735 0.2115 0.0
H968 H 0.76089 0.19303 0.18163 0.0
H969 H 0.84879 0.30362 0.23326 0.0
H970 H 0.85871 0.26985 0.24912 0.0
H971 H 0.87487 0.28043 0.21201 0.0
H972 H 0.88481 0.1769 0.26579 0.0
H973 H 0.91428 0.19742 0.17223 0.0
H974 H 0.80876 0.19855 0.26468 0.0
H975 H 0.8245 0.23268 0.27193 0.0
H976 H 0.8429 0.2031 0.29127 0.0
H977 H 0.84291 0.22752 0.14655 0.0
H978 H 0.88669 0.22837 0.14038 0.0
H979 H 0.86692 0.25602 0.16099 0.0
C980 C 0.76345 0.72741 0.69316 0.0
C981 C 0.77608 0.70613 0.67465 0.0
C982 C 0.78468 0.74582 0.70906 0.0
C983 C 0.8192 0.74346 0.70532 0.0
C984 C 0.83195 0.72116 0.68778 0.0
C985 C 0.81024 0.70265 0.67296 0.0
C986 C 0.77013 0.76856 0.7286 0.0
C987 C 0.86849 0.71805 0.68259 0.0
C988 C 0.87162 0.80776 0.697 0.0
C989 C 0.89341 0.80553 0.72254 0.0
C990 C 0.84628 0.78853 0.69219 0.0
C991 C 0.84159 0.76684 0.71408 0.0
C992 C 0.86127 0.76603 0.74169 0.0
C993 C 0.88737 0.78526 0.74545 0.0
C994 C 0.82639 0.79022 0.66218 0.0
C995 C 0.8561 0.74399 0.76633 0.0
H996 H 0.737 0.72985 0.69486 0.0
H997 H 0.82003 0.68622 0.65859 0.0
H998 H 0.7847 0.77154 0.75042 0.0
H999 H 0.77078 0.78838 0.71535 0.0
H1000 H 0.74414 0.764 0.73482 0.0
H1001 H 0.8745 0.69849 0.67033 0.0
H1002 H 0.87767 0.73574 0.66834 0.0
H1003 H 0.88194 0.71841 0.70524 0.0
H1004 H 0.87557 0.82377 0.6795 0.0
H1005 H 0.90392 0.78344 0.76533 0.0
H1006 H 0.79969 0.79041 0.66731 0.0
H1007 H 0.83122 0.77168 0.64767 0.0
H1008 H 0.83242 0.809 0.64815 0.0
H1009 H 0.82958 0.73886 0.76888 0.0
H1010 H 0.86614 0.75063 0.78937 0.0
H1011 H 0.86905 0.72483 0.75939 0.0
C1012 C 0.72008 0.74994 0.21331 0.0
C1013 C 0.71661 0.76241 0.18368 0.0
C1014 C 0.69362 0.73595 0.22756 0.0
C1015 C 0.66295 0.7342 0.21177 0.0
C1016 C 0.65866 0.74841 0.18291 0.0
C1017 C 0.68549 0.76235 0.16924 0.0
C1018 C 0.69914 0.72157 0.25858 0.0
C1019 C 0.62633 0.74722 0.16529 0.0
C1020 C 0.6116 0.6687 0.21533 0.0
C1021 C 0.58346 0.67747 0.23117 0.0
C1022 C 0.63843 0.6865 0.2106 0.0
C1023 C 0.63737 0.71387 0.22229 0.0
C1024 C 0.61036 0.72204 0.24097 0.0
C1025 C 0.58348 0.70369 0.24512 0.0
C1026 C 0.66667 0.67665 0.19078 0.0
C1027 C 0.60868 0.75074 0.25461 0.0
H1028 H 0.74384 0.75044 0.22503 0.0
H1029 H 0.68252 0.77186 0.14638 0.0
H1030 H 0.67794 0.72485 0.27433 0.0
H1031 H 0.70129 0.69891 0.25479 0.0
H1032 H 0.72197 0.72896 0.27041 0.0
H1033 H 0.62581 0.76177 0.14506 0.0
H1034 H 0.62214 0.72587 0.15648 0.0
H1035 H 0.60565 0.75223 0.18104 0.0
H1036 H 0.61168 0.64832 0.2047 0.0
H1037 H 0.56169 0.71057 0.25727 0.0
H1038 H 0.69052 0.68063 0.20276 0.0
H1039 H 0.6669 0.68831 0.16833 0.0
H1040 H 0.66484 0.65416 0.18546 0.0
H1041 H 0.63316 0.7576 0.26341 0.0
H1042 H 0.59068 0.75173 0.27401 0.0
H1043 H 0.60086 0.76557 0.23611 0.0
C1044 C 0.30764 0.76584 0.33108 0.0
C1045 C 0.2753 0.77156 0.32156 0.0
C1046 C 0.32722 0.74724 0.3145 0.0
C1047 C 0.31437 0.73422 0.28733 0.0
C1048 C 0.28219 0.74084 0.27677 0.0
C1049 C 0.26282 0.75915 0.29429 0.0
C1050 C 0.3612 0.74058 0.32697 0.0
C1051 C 0.26783 0.72801 0.24756 0.0
C1052 C 0.38359 0.69715 0.24609 0.0
C1053 C 0.3821 0.67134 0.26123 0.0
C1054 C 0.3593 0.71729 0.25154 0.0
C1055 C 0.33347 0.71139 0.2728 0.0
C1056 C 0.32993 0.68421 0.28494 0.0
C1057 C 0.35412 0.66449 0.27876 0.0
C1058 C 0.3631 0.74565 0.23699 0.0
C1059 C 0.30286 0.67677 0.3076 0.0
H1060 H 0.31729 0.77523 0.35226 0.0
H1061 H 0.23794 0.7638 0.28665 0.0
H1062 H 0.36235 0.71835 0.33373 0.0
H1063 H 0.37988 0.74418 0.30859 0.0
H1064 H 0.36795 0.75326 0.3477 0.0
H1065 H 0.24639 0.73992 0.23857 0.0
H1066 H 0.2866 0.72678 0.22889 0.0
H1067 H 0.2594 0.70659 0.25281 0.0
H1068 H 0.40504 0.7025 0.23233 0.0
H1069 H 0.35262 0.64434 0.29006 0.0
H1070 H 0.37492 0.75983 0.25413 0.0
H1071 H 0.33875 0.75443 0.23058 0.0
H1072 H 0.37875 0.74503 0.21581 0.0
H1073 H 0.30776 0.68711 0.33032 0.0
H1074 H 0.30116 0.65406 0.31182 0.0
H1075 H 0.2787 0.68415 0.29883 0.0
C1076 C 0.22155 0.72563 0.7806 0.0
C1077 C 0.21819 0.71031 0.80849 0.0
C1078 C 0.19534 0.74132 0.76833 0.0
C1079 C 0.16489 0.74166 0.78419 0.0
C1080 C 0.16058 0.72461 0.81098 0.0
C1081 C 0.18725 0.70924 0.82285 0.0
C1082 C 0.20099 0.75894 0.73957 0.0
C1083 C 0.12843 0.72409 0.82847 0.0
C1084 C 0.11481 0.80739 0.78849 0.0
C1085 C 0.08711 0.80092 0.77014 0.0
C1086 C 0.14104 0.78889 0.7917 0.0
C1087 C 0.13963 0.76303 0.77623 0.0
C1088 C 0.11282 0.75718 0.75575 0.0
C1089 C 0.08672 0.77628 0.75292 0.0
C1090 C 0.16925 0.79636 0.81338 0.0
C1091 C 0.11057 0.73005 0.73848 0.0
H1092 H 0.24507 0.72606 0.7688 0.0
H1093 H 0.18428 0.6976 0.8444 0.0
H1094 H 0.17976 0.75732 0.72318 0.0
H1095 H 0.20334 0.781 0.7465 0.0
H1096 H 0.22374 0.75295 0.72709 0.0
H1097 H 0.12762 0.70729 0.84633 0.0
H1098 H 0.12498 0.74423 0.84041 0.0
H1099 H 0.10746 0.72124 0.81199 0.0
H1100 H 0.11523 0.82655 0.80167 0.0
H1101 H 0.06517 0.77109 0.739 0.0
H1102 H 0.19314 0.79348 0.80146 0.0
H1103 H 0.16898 0.78242 0.83411 0.0
H1104 H 0.16789 0.81813 0.82162 0.0
H1105 H 0.1348 0.72433 0.72867 0.0
H1106 H 0.09209 0.73085 0.71921 0.0
H1107 H 0.10322 0.71338 0.75504 0.0
loop_
_geom_bond_atom_site_label_1
_geom_bond_atom_site_label_2
_geom_bond_distance
_geom_bond_site_symmetry_2
_ccdc_geom_bond_type
P0 O11 1.490 . S
P0 C14 1.812 . S
P0 C20 1.803 . S
P0 C26 1.819 . S
H1 C15 0.941 . S
H2 C16 0.939 . S
H3 C18 0.940 . S
H4 C19 0.940 . S
H5 C21 0.939 . S
H6 C22 0.942 . S
H7 C24 0.940 . S
H8 C25 0.939 . S
H9 C27 0.941 . S
H10 C31 0.939 . S
O11 P0 1.490 . S
H12 C28 0.939 . S
H13 C30 0.940 . S
C14 P0 1.812 . S
C14 C15 1.389 . S
C14 C19 1.391 . S
C15 H1 0.941 . S
C15 C14 1.389 . S
C15 C16 1.397 . S
C16 H2 0.939 . S
C16 C15 1.397 . S
C16 C17 1.378 . S
C17 C16 1.378 . S
C17 C18 1.378 . S
C18 H3 0.940 . S
C18 C17 1.378 . S
C18 C19 1.396 . S
C19 H4 0.940 . S
C19 C14 1.391 . S
C19 C18 1.396 . S
C20 P0 1.803 . S
C20 C21 1.378 . S
C20 C25 1.400 . S
C21 H5 0.939 . S
C21 C20 1.378 . S
C21 C22 1.361 . S
C22 H6 0.942 . S
C22 C21 1.361 . S
C22 C23 1.369 . S
C23 C22 1.369 . S
C23 C24 1.404 . S
C24 H7 0.940 . S
C24 C23 1.404 . S
C24 C25 1.389 . S
C25 H8 0.939 . S
C25 C20 1.400 . S
C25 C24 1.389 . S
C26 P0 1.819 . S
C26 C27 1.391 . S
C26 C31 1.391 . S
C27 H9 0.941 . S
C27 C26 1.391 . S
C27 C28 1.396 . S
C28 H12 0.939 . S
C28 C27 1.396 . S
C28 C29 1.397 . S
C29 C28 1.397 . S
C29 C30 1.385 . S
C30 H13 0.940 . S
C30 C29 1.385 . S
C30 C31 1.388 . S
C31 H10 0.939 . S
C31 C26 1.391 . S
C31 C30 1.388 . S
P32 O43 1.490 . S
P32 C46 1.812 . S
P32 C52 1.803 . S
P32 C58 1.819 . S
H33 C47 0.941 . S
H34 C48 0.939 . S
H35 C50 0.940 . S
H36 C51 0.940 . S
H37 C53 0.939 . S
H38 C54 0.942 . S
H39 C56 0.940 . S
H40 C57 0.939 . S
H41 C59 0.941 . S
H42 C63 0.939 . S
O43 P32 1.490 . S
H44 C60 0.939 . S
H45 C62 0.940 . S
C46 P32 1.812 . S
C46 C47 1.389 . S
C46 C51 1.391 . S
C47 H33 0.941 . S
C47 C46 1.389 . S
C47 C48 1.397 . S
C48 H34 0.939 . S
C48 C47 1.397 . S
C48 C49 1.378 . S
C49 C48 1.378 . S
C49 C50 1.378 . S
C50 H35 0.940 . S
C50 C49 1.378 . S
C50 C51 1.396 . S
C51 H36 0.940 . S
C51 C46 1.391 . S
C51 C50 1.396 . S
C52 P32 1.803 . S
C52 C53 1.378 . S
C52 C57 1.400 . S
C53 H37 0.939 . S
C53 C52 1.378 . S
C53 C54 1.361 . S
C54 H38 0.942 . S
C54 C53 1.361 . S
C54 C55 1.369 . S
C55 C54 1.369 . S
C55 C56 1.404 . S
C56 H39 0.940 . S
C56 C55 1.404 . S
C56 C57 1.389 . S
C57 H40 0.939 . S
C57 C52 1.400 . S
C57 C56 1.389 . S
C58 P32 1.819 . S
C58 C59 1.391 . S
C58 C63 1.391 . S
C59 H41 0.941 . S
C59 C58 1.391 . S
C59 C60 1.396 . S
C60 H44 0.939 . S
C60 C59 1.396 . S
C60 C61 1.397 . S
C61 C60 1.397 . S
C61 C62 1.385 . S
C62 H45 0.940 . S
C62 C61 1.385 . S
C62 C63 1.388 . S
C63 H42 0.939 . S
C63 C58 1.391 . S
C63 C62 1.388 . S
P64 O75 1.490 . S
P64 C78 1.812 . S
P64 C84 1.803 . S
P64 C90 1.819 . S
H65 C79 0.941 . S
H66 C80 0.939 . S
H67 C82 0.940 . S
H68 C83 0.940 . S
H69 C85 0.939 . S
H70 C86 0.942 . S
H71 C88 0.940 . S
H72 C89 0.939 . S
H73 C91 0.941 . S
H74 C95 0.939 . S
O75 P64 1.490 . S
H76 C92 0.939 . S
H77 C94 0.940 . S
C78 P64 1.812 . S
C78 C79 1.389 . S
C78 C83 1.391 . S
C79 H65 0.941 . S
C79 C78 1.389 . S
C79 C80 1.397 . S
C80 H66 0.939 . S
C80 C79 1.397 . S
C80 C81 1.378 . S
C81 C80 1.378 . S
C81 C82 1.378 . S
C82 H67 0.940 . S
C82 C81 1.378 . S
C82 C83 1.396 . S
C83 H68 0.940 . S
C83 C78 1.391 . S
C83 C82 1.396 . S
C84 P64 1.803 . S
C84 C85 1.378 . S
C84 C89 1.400 . S
C85 H69 0.939 . S
C85 C84 1.378 . S
C85 C86 1.361 . S
C86 H70 0.942 . S
C86 C85 1.361 . S
C86 C87 1.369 . S
C87 C86 1.369 . S
C87 C88 1.404 . S
C88 H71 0.940 . S
C88 C87 1.404 . S
C88 C89 1.389 . S
C89 H72 0.939 . S
C89 C84 1.400 . S
C89 C88 1.389 . S
C90 P64 1.819 . S
C90 C91 1.391 . S
C90 C95 1.391 . S
C91 H73 0.941 . S
C91 C90 1.391 . S
C91 C92 1.396 . S
C92 H76 0.939 . S
C92 C91 1.396 . S
C92 C93 1.397 . S
C93 C92 1.397 . S
C93 C94 1.385 . S
C94 H77 0.940 . S
C94 C93 1.385 . S
C94 C95 1.388 . S
C95 H74 0.939 . S
C95 C90 1.391 . S
C95 C94 1.388 . S
P96 O107 1.490 . S
P96 C110 1.812 . S
P96 C116 1.803 . S
P96 C122 1.819 . S
H97 C111 0.941 . S
H98 C112 0.939 . S
H99 C114 0.940 . S
H100 C115 0.940 . S
H101 C117 0.939 . S
H102 C118 0.942 . S
H103 C120 0.940 . S
H104 C121 0.939 . S
H105 C123 0.941 . S
H106 C127 0.939 . S
O107 P96 1.490 . S
H108 C124 0.939 . S
H109 C126 0.940 . S
C110 P96 1.812 . S
C110 C111 1.389 . S
C110 C115 1.391 . S
C111 H97 0.941 . S
C111 C110 1.389 . S
C111 C112 1.397 . S
C112 H98 0.939 . S
C112 C111 1.397 . S
C112 C113 1.378 . S
C113 C112 1.378 . S
C113 C114 1.378 . S
C114 H99 0.940 . S
C114 C113 1.378 . S
C114 C115 1.396 . S
C115 H100 0.940 . S
C115 C110 1.391 . S
C115 C114 1.396 . S
C116 P96 1.803 . S
C116 C117 1.378 . S
C116 C121 1.400 . S
C117 H101 0.939 . S
C117 C116 1.378 . S
C117 C118 1.361 . S
C118 H102 0.942 . S
C118 C117 1.361 . S
C118 C119 1.369 . S
C119 C118 1.369 . S
C119 C120 1.404 . S
C120 H103 0.940 . S
C120 C119 1.404 . S
C120 C121 1.389 . S
C121 H104 0.939 . S
C121 C116 1.400 . S
C121 C120 1.389 . S
C122 P96 1.819 . S
C122 C123 1.391 . S
C122 C127 1.391 . S
C123 H105 0.941 . S
C123 C122 1.391 . S
C123 C124 1.396 . S
C124 H108 0.939 . S
C124 C123 1.396 . S
C124 C125 1.397 . S
C125 C124 1.397 . S
C125 C126 1.385 . S
C126 H109 0.940 . S
C126 C125 1.385 . S
C126 C127 1.388 . S
C127 H106 0.939 . S
C127 C122 1.391 . S
C127 C126 1.388 . S
P128 O139 1.490 . S
P128 C142 1.812 . S
P128 C148 1.803 . S
P128 C154 1.819 . S
H129 C143 0.941 . S
H130 C144 0.939 . S
H131 C146 0.940 . S
H132 C147 0.940 . S
H133 C149 0.939 . S
H134 C150 0.942 . S
H135 C152 0.940 . S
H136 C153 0.939 . S
H137 C155 0.941 . S
H138 C159 0.939 . S
O139 P128 1.490 . S
H140 C156 0.939 . S
H141 C158 0.940 . S
C142 P128 1.812 . S
C142 C143 1.389 . S
C142 C147 1.391 . S
C143 H129 0.941 . S
C143 C142 1.389 . S
C143 C144 1.397 . S
C144 H130 0.939 . S
C144 C143 1.397 . S
C144 C145 1.378 . S
C145 C144 1.378 . S
C145 C146 1.378 . S
C146 H131 0.940 . S
C146 C145 1.378 . S
C146 C147 1.396 . S
C147 H132 0.940 . S
C147 C142 1.391 . S
C147 C146 1.396 . S
C148 P128 1.803 . S
C148 C149 1.378 . S
C148 C153 1.400 . S
C149 H133 0.939 . S
C149 C148 1.378 . S
C149 C150 1.361 . S
C150 H134 0.942 . S
C150 C149 1.361 . S
C150 C151 1.369 . S
C151 C150 1.369 . S
C151 C152 1.404 . S
C152 H135 0.940 . S
C152 C151 1.404 . S
C152 C153 1.389 . S
C153 H136 0.939 . S
C153 C148 1.400 . S
C153 C152 1.389 . S
C154 P128 1.819 . S
C154 C155 1.391 . S
C154 C159 1.391 . S
C155 H137 0.941 . S
C155 C154 1.391 . S
C155 C156 1.396 . S
C156 H140 0.939 . S
C156 C155 1.396 . S
C156 C157 1.397 . S
C157 C156 1.397 . S
C157 C158 1.385 . S
C158 H141 0.940 . S
C158 C157 1.385 . S
C158 C159 1.388 . S
C159 H138 0.939 . S
C159 C154 1.391 . S
C159 C158 1.388 . S
P160 O171 1.490 . S
P160 C174 1.812 . S
P160 C180 1.803 . S
P160 C186 1.819 . S
H161 C175 0.941 . S
H162 C176 0.939 . S
H163 C178 0.940 . S
H164 C179 0.940 . S
H165 C181 0.939 . S
H166 C182 0.942 . S
H167 C184 0.940 . S
H168 C185 0.939 . S
H169 C187 0.941 . S
H170 C191 0.939 . S
O171 P160 1.490 . S
H172 C188 0.939 . S
H173 C190 0.940 . S
C174 P160 1.812 . S
C174 C175 1.389 . S
C174 C179 1.391 . S
C175 H161 0.941 . S
C175 C174 1.389 . S
C175 C176 1.397 . S
C176 H162 0.939 . S
C176 C175 1.397 . S
C176 C177 1.378 . S
C177 C176 1.378 . S
C177 C178 1.378 . S
C178 H163 0.940 . S
C178 C177 1.378 . S
C178 C179 1.396 . S
C179 H164 0.940 . S
C179 C174 1.391 . S
C179 C178 1.396 . S
C180 P160 1.803 . S
C180 C181 1.378 . S
C180 C185 1.400 . S
C181 H165 0.939 . S
C181 C180 1.378 . S
C181 C182 1.361 . S
C182 H166 0.942 . S
C182 C181 1.361 . S
C182 C183 1.369 . S
C183 C182 1.369 . S
C183 C184 1.404 . S
C184 H167 0.940 . S
C184 C183 1.404 . S
C184 C185 1.389 . S
C185 H168 0.939 . S
C185 C180 1.400 . S
C185 C184 1.389 . S
C186 P160 1.819 . S
C186 C187 1.391 . S
C186 C191 1.391 . S
C187 H169 0.941 . S
C187 C186 1.391 . S
C187 C188 1.396 . S
C188 H172 0.939 . S
C188 C187 1.396 . S
C188 C189 1.397 . S
C189 C188 1.397 . S
C189 C190 1.385 . S
C190 H173 0.940 . S
C190 C189 1.385 . S
C190 C191 1.388 . S
C191 H170 0.939 . S
C191 C186 1.391 . S
C191 C190 1.388 . S
P192 O203 1.490 . S
P192 C206 1.812 . S
P192 C212 1.803 . S
P192 C218 1.819 . S
H193 C207 0.941 . S
H194 C208 0.939 . S
H195 C210 0.940 . S
H196 C211 0.940 . S
H197 C213 0.939 . S
H198 C214 0.942 . S
H199 C216 0.940 . S
H200 C217 0.939 . S
H201 C219 0.941 . S
H202 C223 0.939 . S
O203 P192 1.490 . S
H204 C220 0.939 . S
H205 C222 0.940 . S
C206 P192 1.812 . S
C206 C207 1.389 . S
C206 C211 1.391 . S
C207 H193 0.941 . S
C207 C206 1.389 . S
C207 C208 1.397 . S
C208 H194 0.939 . S
C208 C207 1.397 . S
C208 C209 1.378 . S
C209 C208 1.378 . S
C209 C210 1.378 . S
C210 H195 0.940 . S
C210 C209 1.378 . S
C210 C211 1.396 . S
C211 H196 0.940 . S
C211 C206 1.391 . S
C211 C210 1.396 . S
C212 P192 1.803 . S
C212 C213 1.378 . S
C212 C217 1.400 . S
C213 H197 0.939 . S
C213 C212 1.378 . S
C213 C214 1.361 . S
C214 H198 0.942 . S
C214 C213 1.361 . S
C214 C215 1.369 . S
C215 C214 1.369 . S
C215 C216 1.404 . S
C216 H199 0.940 . S
C216 C215 1.404 . S
C216 C217 1.389 . S
C217 H200 0.939 . S
C217 C212 1.400 . S
C217 C216 1.389 . S
C218 P192 1.819 . S
C218 C219 1.391 . S
C218 C223 1.391 . S
C219 H201 0.941 . S
C219 C218 1.391 . S
C219 C220 1.396 . S
C220 H204 0.939 . S
C220 C219 1.396 . S
C220 C221 1.397 . S
C221 C220 1.397 . S
C221 C222 1.385 . S
C222 H205 0.940 . S
C222 C221 1.385 . S
C222 C223 1.388 . S
C223 H202 0.939 . S
C223 C218 1.391 . S
C223 C222 1.388 . S
P224 O235 1.490 . S
P224 C238 1.812 . S
P224 C244 1.803 . S
P224 C250 1.819 . S
H225 C239 0.941 . S
H226 C240 0.939 . S
H227 C242 0.940 . S
H228 C243 0.940 . S
H229 C245 0.939 . S
H230 C246 0.942 . S
H231 C248 0.940 . S
H232 C249 0.939 . S
H233 C251 0.941 . S
H234 C255 0.939 . S
O235 P224 1.490 . S
H236 C252 0.939 . S
H237 C254 0.940 . S
C238 P224 1.812 . S
C238 C239 1.389 . S
C238 C243 1.391 . S
C239 H225 0.941 . S
C239 C238 1.389 . S
C239 C240 1.397 . S
C240 H226 0.939 . S
C240 C239 1.397 . S
C240 C241 1.378 . S
C241 C240 1.378 . S
C241 C242 1.378 . S
C242 H227 0.940 . S
C242 C241 1.378 . S
C242 C243 1.396 . S
C243 H228 0.940 . S
C243 C238 1.391 . S
C243 C242 1.396 . S
C244 P224 1.803 . S
C244 C245 1.378 . S
C244 C249 1.400 . S
C245 H229 0.939 . S
C245 C244 1.378 . S
C245 C246 1.361 . S
C246 H230 0.942 . S
C246 C245 1.361 . S
C246 C247 1.369 . S
C247 C246 1.369 . S
C247 C248 1.404 . S
C248 H231 0.940 . S
C248 C247 1.404 . S
C248 C249 1.389 . S
C249 H232 0.939 . S
C249 C244 1.400 . S
C249 C248 1.389 . S
C250 P224 1.819 . S
C250 C251 1.391 . S
C250 C255 1.391 . S
C251 H233 0.941 . S
C251 C250 1.391 . S
C251 C252 1.396 . S
C252 H236 0.939 . S
C252 C251 1.396 . S
C252 C253 1.397 . S
C253 C252 1.397 . S
C253 C254 1.385 . S
C254 H237 0.940 . S
C254 C253 1.385 . S
C254 C255 1.388 . S
C255 H234 0.939 . S
C255 C250 1.391 . S
C255 C254 1.388 . S
Zn256 O262 1.920 . S
Zn256 O268 1.898 . S
Zn256 O271 1.905 . S
Zn257 O265 1.905 1_655 S
Zn257 O266 1.898 . S
Zn257 O274 1.920 . S
Zn258 O261 2.080 1_455 S
Zn258 O264 2.114 . S
Zn258 O267 2.120 1_455 S
Zn258 O269 2.120 . S
Zn258 O270 2.114 . S
Zn258 O273 2.080 1_455 S
C259 O264 1.166 . S
C259 O265 1.182 . S
C260 O266 1.167 . S
C260 O267 1.299 . S
O261 Zn258 2.080 1_655 S
O261 C275 1.305 . S
O262 Zn256 1.920 . S
O262 C275 1.234 1_455 S
C263 O268 1.167 . S
C263 O269 1.299 . S
O264 Zn258 2.114 . S
O264 C259 1.166 . S
O265 Zn257 1.905 1_455 S
O265 C259 1.182 . S
O266 Zn257 1.898 . S
O266 C260 1.167 . S
O267 Zn258 2.120 1_655 S
O267 C260 1.299 . S
O268 Zn256 1.898 . S
O268 C263 1.167 . S
O269 Zn258 2.120 . S
O269 C263 1.299 . S
O270 Zn258 2.114 . S
O270 C272 1.166 . S
O271 Zn256 1.905 . S
O271 C272 1.182 . S
C272 O270 1.166 . S
C272 O271 1.182 . S
O273 Zn258 2.080 1_655 S
O273 C276 1.305 . S
O274 Zn257 1.920 . S
O274 C276 1.234 . S
C275 O261 1.305 . S
C275 O262 1.234 1_655 S
C276 O273 1.305 . S
C276 O274 1.234 . S
Zn277 O283 1.920 . S
Zn277 O289 1.898 . S
Zn277 O292 1.905 . S
Zn278 O286 1.905 . S
Zn278 O287 1.898 . S
Zn278 O295 1.920 . S
Zn279 O282 2.080 . S
Zn279 O285 2.114 . S
Zn279 O288 2.120 . S
Zn279 O290 2.120 . S
Zn279 O291 2.114 . S
Zn279 O294 2.080 . S
C280 O285 1.166 . S
C280 O286 1.182 . S
C281 O287 1.167 . S
C281 O288 1.299 . S
O282 Zn279 2.080 . S
O282 C296 1.305 . S
O283 Zn277 1.920 . S
O283 C296 1.234 . S
C284 O289 1.167 . S
C284 O290 1.299 . S
O285 Zn279 2.114 . S
O285 C280 1.166 . S
O286 Zn278 1.905 . S
O286 C280 1.182 . S
O287 Zn278 1.898 . S
O287 C281 1.167 . S
O288 Zn279 2.120 . S
O288 C281 1.299 . S
O289 Zn277 1.898 . S
O289 C284 1.167 . S
O290 Zn279 2.120 . S
O290 C284 1.299 . S
O291 Zn279 2.114 . S
O291 C293 1.166 . S
O292 Zn277 1.905 . S
O292 C293 1.182 . S
C293 O291 1.166 . S
C293 O292 1.182 . S
O294 Zn279 2.080 . S
O294 C297 1.305 . S
O295 Zn278 1.920 . S
O295 C297 1.234 . S
C296 O282 1.305 . S
C296 O283 1.234 . S
C297 O294 1.305 . S
C297 O295 1.234 . S
Zn298 O304 1.920 . S
Zn298 O310 1.898 . S
Zn298 O313 1.905 1_455 S
Zn299 O307 1.905 . S
Zn299 O308 1.898 . S
Zn299 O316 1.920 1_655 S
Zn300 O303 2.095 . S
Zn300 O306 2.098 1_455 S
Zn300 O309 2.105 1_455 S
Zn300 O311 2.137 . S
Zn300 O312 2.101 1_455 S
Zn300 O315 2.093 . S
C301 O306 1.166 . S
C301 O307 1.182 . S
C302 O308 1.167 . S
C302 O309 1.299 . S
O303 Zn300 2.095 . S
O303 C317 1.305 . S
O304 Zn298 1.920 . S
O304 C317 1.234 . S
C305 O310 1.167 . S
C305 O311 1.299 . S
O306 Zn300 2.098 1_655 S
O306 C301 1.166 . S
O307 Zn299 1.905 . S
O307 C301 1.182 . S
O308 Zn299 1.898 . S
O308 C302 1.167 . S
O309 Zn300 2.105 1_655 S
O309 C302 1.299 . S
O310 Zn298 1.898 . S
O310 C305 1.167 . S
O311 Zn300 2.137 . S
O311 C305 1.299 . S
O312 Zn300 2.101 1_655 S
O312 C314 1.166 . S
O313 Zn298 1.905 1_655 S
O313 C314 1.182 . S
C314 O312 1.166 . S
C314 O313 1.182 . S
O315 Zn300 2.093 . S
O315 C318 1.305 . S
O316 Zn299 1.920 1_455 S
O316 C318 1.234 . S
C317 O303 1.305 . S
C317 O304 1.234 . S
C318 O315 1.305 . S
C318 O316 1.234 . S
Zn319 O325 1.920 . S
Zn319 O331 1.898 . S
Zn319 O334 1.905 . S
Zn320 O328 1.905 . S
Zn320 O329 1.898 . S
Zn320 O337 1.920 . S
Zn321 O324 2.080 . S
Zn321 O327 2.114 . S
Zn321 O330 2.120 . S
Zn321 O332 2.120 . S
Zn321 O333 2.114 . S
Zn321 O336 2.080 . S
C322 O327 1.166 . S
C322 O328 1.182 . S
C323 O329 1.167 . S
C323 O330 1.299 . S
O324 Zn321 2.080 . S
O324 C338 1.305 . S
O325 Zn319 1.920 . S
O325 C338 1.234 . S
C326 O331 1.167 . S
C326 O332 1.299 . S
O327 Zn321 2.114 . S
O327 C322 1.166 . S
O328 Zn320 1.905 . S
O328 C322 1.182 . S
O329 Zn320 1.898 . S
O329 C323 1.167 . S
O330 Zn321 2.120 . S
O330 C323 1.299 . S
O331 Zn319 1.898 . S
O331 C326 1.167 . S
O332 Zn321 2.120 . S
O332 C326 1.299 . S
O333 Zn321 2.114 . S
O333 C335 1.166 . S
O334 Zn319 1.905 . S
O334 C335 1.182 . S
C335 O333 1.166 . S
C335 O334 1.182 . S
O336 Zn321 2.080 . S
O336 C339 1.305 . S
O337 Zn320 1.920 . S
O337 C339 1.234 . S
C338 O324 1.305 . S
C338 O325 1.234 . S
C339 O336 1.305 . S
C339 O337 1.234 . S
C340 C341 1.391 . S
C340 C342 1.394 . S
C340 H356 0.931 . S
C341 C340 1.391 . S
C341 C345 1.376 . S
C342 C340 1.394 . S
C342 C343 1.369 . S
C342 C346 1.531 . S
C343 C342 1.369 . S
C343 C344 1.410 . S
C343 C351 1.503 1_565 S
C344 C343 1.410 . S
C344 C345 1.392 . S
C344 C347 1.511 . S
C345 C341 1.376 . S
C345 C344 1.392 . S
C345 H357 0.929 . S
C346 C342 1.531 . S
C346 H358 0.960 1_565 S
C346 H359 0.962 1_565 S
C346 H360 0.960 . S
C347 C344 1.511 . S
C347 H361 0.961 . S
C347 H362 0.949 1_565 S
C347 H363 0.961 . S
C348 C349 1.370 . S
C348 C350 1.363 . S
C348 H364 0.931 . S
C349 C348 1.370 . S
C349 C353 1.408 . S
C350 C348 1.363 . S
C350 C351 1.370 . S
C350 C354 1.524 . S
C351 C343 1.503 1_545 S
C351 C350 1.370 . S
C351 C352 1.403 . S
C352 C351 1.403 . S
C352 C353 1.404 . S
C352 C355 1.539 1_545 S
C353 C349 1.408 . S
C353 C352 1.404 . S
C353 H365 0.930 . S
C354 C350 1.524 . S
C354 H366 0.956 . S
C354 H367 0.961 . S
C354 H368 0.961 . S
C355 C352 1.539 1_565 S
C355 H369 0.958 . S
C355 H370 0.961 . S
C355 H371 0.960 . S
H356 C340 0.931 . S
H357 C345 0.929 . S
H358 C346 0.960 1_545 S
H359 C346 0.962 1_545 S
H360 C346 0.960 . S
H361 C347 0.961 . S
H362 C347 0.949 1_545 S
H363 C347 0.961 . S
H364 C348 0.931 . S
H365 C353 0.930 . S
H366 C354 0.956 . S
H367 C354 0.961 . S
H368 C354 0.961 . S
H369 C355 0.958 . S
H370 C355 0.961 . S
H371 C355 0.960 . S
C372 C373 1.391 . S
C372 C374 1.394 . S
C372 H388 0.931 . S
C373 C372 1.391 . S
C373 C377 1.376 . S
C374 C372 1.394 . S
C374 C375 1.369 . S
C374 C378 1.531 . S
C375 C374 1.369 . S
C375 C376 1.410 . S
C375 C383 1.503 . S
C376 C375 1.410 . S
C376 C377 1.392 . S
C376 C379 1.511 . S
C377 C373 1.376 . S
C377 C376 1.392 . S
C377 H389 0.929 . S
C378 C374 1.531 . S
C378 H390 0.960 . S
C378 H391 0.962 . S
C378 H392 0.960 . S
C379 C376 1.511 . S
C379 H393 0.961 . S
C379 H394 0.961 . S
C379 H395 0.961 . S
C380 C381 1.370 . S
C380 C382 1.363 . S
C380 H396 0.931 . S
C381 C380 1.370 . S
C381 C385 1.408 . S
C382 C380 1.363 . S
C382 C383 1.370 . S
C382 C386 1.524 . S
C383 C375 1.503 . S
C383 C382 1.370 . S
C383 C384 1.403 . S
C384 C383 1.403 . S
C384 C385 1.404 . S
C384 C387 1.539 . S
C385 C381 1.408 . S
C385 C384 1.404 . S
C385 H397 0.930 . S
C386 C382 1.524 . S
C386 H398 0.956 . S
C386 H399 0.961 . S
C386 H400 0.961 . S
C387 C384 1.539 . S
C387 H401 0.958 . S
C387 H402 0.961 . S
C387 H403 0.960 . S
H388 C372 0.931 . S
H389 C377 0.929 . S
H390 C378 0.960 . S
H391 C378 0.962 . S
H392 C378 0.960 . S
H393 C379 0.961 . S
H394 C379 0.961 . S
H395 C379 0.961 . S
H396 C380 0.931 . S
H397 C385 0.930 . S
H398 C386 0.956 . S
H399 C386 0.961 . S
H400 C386 0.961 . S
H401 C387 0.958 . S
H402 C387 0.961 . S
H403 C387 0.960 . S
C404 C405 1.391 . S
C404 C406 1.394 . S
C404 H420 0.931 . S
C405 C404 1.391 . S
C405 C409 1.376 . S
C406 C404 1.394 . S
C406 C407 1.369 . S
C406 C410 1.531 . S
C407 C406 1.369 . S
C407 C408 1.410 . S
C407 C415 1.503 . S
C408 C407 1.410 . S
C408 C409 1.392 . S
C408 C411 1.511 . S
C409 C405 1.376 . S
C409 C408 1.392 . S
C409 H421 0.929 . S
C410 C406 1.531 . S
C410 H422 0.960 . S
C410 H423 0.962 . S
C410 H424 0.960 . S
C411 C408 1.511 . S
C411 H425 0.961 . S
C411 H426 0.961 . S
C411 H427 0.961 . S
C412 C413 1.370 . S
C412 C414 1.363 . S
C412 H428 0.931 . S
C413 C412 1.370 . S
C413 C417 1.408 . S
C414 C412 1.363 . S
C414 C415 1.370 . S
C414 C418 1.524 . S
C415 C407 1.503 . S
C415 C414 1.370 . S
C415 C416 1.403 . S
C416 C415 1.403 . S
C416 C417 1.404 . S
C416 C419 1.539 . S
C417 C413 1.408 . S
C417 C416 1.404 . S
C417 H429 0.930 . S
C418 C414 1.524 . S
C418 H430 0.956 . S
C418 H431 0.961 . S
C418 H432 0.961 . S
C419 C416 1.539 . S
C419 H433 0.958 . S
C419 H434 0.961 . S
C419 H435 0.960 . S
H420 C404 0.931 . S
H421 C409 0.929 . S
H422 C410 0.960 . S
H423 C410 0.962 . S
H424 C410 0.960 . S
H425 C411 0.961 . S
H426 C411 0.961 . S
H427 C411 0.961 . S
H428 C412 0.931 . S
H429 C417 0.930 . S
H430 C418 0.956 . S
H431 C418 0.961 . S
H432 C418 0.961 . S
H433 C419 0.958 . S
H434 C419 0.961 . S
H435 C419 0.960 . S
C436 C437 1.391 . S
C436 C438 1.394 . S
C436 H452 0.931 . S
C437 C436 1.391 . S
C437 C441 1.376 . S
C438 C436 1.394 . S
C438 C439 1.369 . S
C438 C442 1.531 . S
C439 C438 1.369 . S
C439 C440 1.410 . S
C439 C447 1.503 1_565 S
C440 C439 1.410 . S
C440 C441 1.392 . S
C440 C443 1.511 1_565 S
C441 C437 1.376 . S
C441 C440 1.392 . S
C441 H453 0.929 . S
C442 C438 1.531 . S
C442 H454 0.960 . S
C442 H455 0.962 . S
C442 H456 0.960 . S
C443 C440 1.511 1_545 S
C443 H457 0.961 . S
C443 H458 0.961 . S
C443 H459 0.961 . S
C444 C445 1.370 . S
C444 C446 1.363 . S
C444 H460 0.931 . S
C445 C444 1.370 . S
C445 C449 1.408 . S
C446 C444 1.363 . S
C446 C447 1.370 . S
C446 C450 1.524 . S
C447 C439 1.503 1_545 S
C447 C446 1.370 . S
C447 C448 1.403 . S
C448 C447 1.403 . S
C448 C449 1.404 . S
C448 C451 1.539 . S
C449 C445 1.408 . S
C449 C448 1.404 . S
C449 H461 0.930 . S
C450 C446 1.524 . S
C450 H462 0.956 1_545 S
C450 H463 0.961 . S
C450 H464 0.961 . S
C451 C448 1.539 . S
C451 H465 0.958 . S
C451 H466 0.961 . S
C451 H467 0.960 . S
H452 C436 0.931 . S
H453 C441 0.929 . S
H454 C442 0.960 . S
H455 C442 0.962 . S
H456 C442 0.960 . S
H457 C443 0.961 . S
H458 C443 0.961 . S
H459 C443 0.961 . S
H460 C444 0.931 . S
H461 C449 0.930 . S
H462 C450 0.956 1_565 S
H463 C450 0.961 . S
H464 C450 0.961 . S
H465 C451 0.958 . S
H466 C451 0.961 . S
H467 C451 0.960 . S
C468 C469 1.391 . S
C468 C470 1.394 . S
C468 H484 0.931 . S
C469 C468 1.391 . S
C469 C473 1.376 . S
C470 C468 1.394 . S
C470 C471 1.369 . S
C470 C474 1.531 . S
C471 C470 1.369 . S
C471 C472 1.410 . S
C471 C479 1.503 1_545 S
C472 C471 1.410 . S
C472 C473 1.392 . S
C472 C475 1.511 1_545 S
C473 C469 1.376 . S
C473 C472 1.392 . S
C473 H485 0.929 . S
C474 C470 1.531 . S
C474 H486 0.960 . S
C474 H487 0.962 . S
C474 H488 0.960 . S
C475 C472 1.511 1_565 S
C475 H489 0.961 . S
C475 H490 0.961 . S
C475 H491 0.961 . S
C476 C477 1.370 . S
C476 C478 1.363 . S
C476 H492 0.931 . S
C477 C476 1.370 . S
C477 C481 1.408 . S
C478 C476 1.363 . S
C478 C479 1.370 . S
C478 C482 1.524 . S
C479 C471 1.503 1_565 S
C479 C478 1.370 . S
C479 C480 1.403 . S
C480 C479 1.403 . S
C480 C481 1.404 . S
C480 C483 1.539 . S
C481 C477 1.408 . S
C481 C480 1.404 . S
C481 H493 0.930 . S
C482 C478 1.524 . S
C482 H494 0.956 1_565 S
C482 H495 0.961 . S
C482 H496 0.961 . S
C483 C480 1.539 . S
C483 H497 0.958 . S
C483 H498 0.961 . S
C483 H499 0.960 . S
H484 C468 0.931 . S
H485 C473 0.929 . S
H486 C474 0.960 . S
H487 C474 0.962 . S
H488 C474 0.960 . S
H489 C475 0.961 . S
H490 C475 0.961 . S
H491 C475 0.961 . S
H492 C476 0.931 . S
H493 C481 0.930 . S
H494 C482 0.956 1_545 S
H495 C482 0.961 . S
H496 C482 0.961 . S
H497 C483 0.958 . S
H498 C483 0.961 . S
H499 C483 0.960 . S
C500 C501 1.391 . S
C500 C502 1.394 . S
C500 H516 0.931 . S
C501 C500 1.391 . S
C501 C505 1.376 . S
C502 C500 1.394 . S
C502 C503 1.369 . S
C502 C506 1.531 . S
C503 C502 1.369 . S
C503 C504 1.410 . S
C503 C511 1.503 . S
C504 C503 1.410 . S
C504 C505 1.392 . S
C504 C507 1.511 . S
C505 C501 1.376 . S
C505 C504 1.392 . S
C505 H517 0.929 . S
C506 C502 1.531 . S
C506 H518 0.960 . S
C506 H519 0.962 . S
C506 H520 0.960 . S
C507 C504 1.511 . S
C507 H521 0.961 . S
C507 H522 0.961 . S
C507 H523 0.961 . S
C508 C509 1.370 . S
C508 C510 1.363 . S
C508 H524 0.931 . S
C509 C508 1.370 . S
C509 C513 1.408 . S
C510 C508 1.363 . S
C510 C511 1.370 . S
C510 C514 1.524 . S
C511 C503 1.503 . S
C511 C510 1.370 . S
C511 C512 1.403 . S
C512 C511 1.403 . S
C512 C513 1.404 . S
C512 C515 1.539 . S
C513 C509 1.408 . S
C513 C512 1.404 . S
C513 H525 0.930 . S
C514 C510 1.524 . S
C514 H526 0.956 . S
C514 H527 0.961 . S
C514 H528 0.961 . S
C515 C512 1.539 . S
C515 H529 0.958 . S
C515 H530 0.961 . S
C515 H531 0.960 . S
H516 C500 0.931 . S
H517 C505 0.929 . S
H518 C506 0.960 . S
H519 C506 0.962 . S
H520 C506 0.960 . S
H521 C507 0.961 . S
H522 C507 0.961 . S
H523 C507 0.961 . S
H524 C508 0.931 . S
H525 C513 0.930 . S
H526 C514 0.956 . S
H527 C514 0.961 . S
H528 C514 0.961 . S
H529 C515 0.958 . S
H530 C515 0.961 . S
H531 C515 0.960 . S
C532 C533 1.391 . S
C532 C534 1.394 . S
C532 H548 0.931 . S
C533 C532 1.391 . S
C533 C537 1.376 . S
C534 C532 1.394 . S
C534 C535 1.369 . S
C534 C538 1.531 . S
C535 C534 1.369 . S
C535 C536 1.410 . S
C535 C543 1.503 . S
C536 C535 1.410 . S
C536 C537 1.392 . S
C536 C539 1.511 . S
C537 C533 1.376 . S
C537 C536 1.392 . S
C537 H549 0.929 . S
C538 C534 1.531 . S
C538 H550 0.960 . S
C538 H551 0.962 . S
C538 H552 0.960 . S
C539 C536 1.511 . S
C539 H553 0.961 . S
C539 H554 0.961 . S
C539 H555 0.961 . S
C540 C541 1.370 . S
C540 C542 1.363 . S
C540 H556 0.931 . S
C541 C540 1.370 . S
C541 C545 1.408 . S
C542 C540 1.363 . S
C542 C543 1.370 . S
C542 C546 1.524 . S
C543 C535 1.503 . S
C543 C542 1.370 . S
C543 C544 1.403 . S
C544 C543 1.403 . S
C544 C545 1.404 . S
C544 C547 1.539 . S
C545 C541 1.408 . S
C545 C544 1.404 . S
C545 H557 0.930 . S
C546 C542 1.524 . S
C546 H558 0.956 . S
C546 H559 0.961 . S
C546 H560 0.961 . S
C547 C544 1.539 . S
C547 H561 0.958 . S
C547 H562 0.961 . S
C547 H563 0.960 . S
H548 C532 0.931 . S
H549 C537 0.929 . S
H550 C538 0.960 . S
H551 C538 0.962 . S
H552 C538 0.960 . S
H553 C539 0.961 . S
H554 C539 0.961 . S
H555 C539 0.961 . S
H556 C540 0.931 . S
H557 C545 0.930 . S
H558 C546 0.956 . S
H559 C546 0.961 . S
H560 C546 0.961 . S
H561 C547 0.958 . S
H562 C547 0.961 . S
H563 C547 0.960 . S
C564 C565 1.391 . S
C564 C566 1.394 . S
C564 H580 0.931 . S
C565 C564 1.391 . S
C565 C569 1.376 . S
C566 C564 1.394 . S
C566 C567 1.369 . S
C566 C570 1.531 . S
C567 C566 1.369 . S
C567 C568 1.410 . S
C567 C575 1.503 1_545 S
C568 C567 1.410 . S
C568 C569 1.392 . S
C568 C571 1.511 1_545 S
C569 C565 1.376 . S
C569 C568 1.392 . S
C569 H581 0.929 . S
C570 C566 1.531 . S
C570 H582 0.960 . S
C570 H583 0.962 . S
C570 H584 0.960 . S
C571 C568 1.511 1_565 S
C571 H585 0.961 . S
C571 H586 0.961 . S
C571 H587 0.961 . S
C572 C573 1.370 . S
C572 C574 1.363 . S
C572 H588 0.931 . S
C573 C572 1.370 . S
C573 C577 1.408 . S
C574 C572 1.363 . S
C574 C575 1.370 . S
C574 C578 1.524 . S
C575 C567 1.503 1_565 S
C575 C574 1.370 . S
C575 C576 1.403 . S
C576 C575 1.403 . S
C576 C577 1.404 . S
C576 C579 1.539 . S
C577 C573 1.408 . S
C577 C576 1.404 . S
C577 H589 0.930 . S
C578 C574 1.524 . S
C578 H590 0.956 . S
C578 H591 0.961 . S
C578 H592 0.961 . S
C579 C576 1.539 . S
C579 H593 0.957 1_565 S
C579 H594 0.961 . S
C579 H595 0.960 . S
H580 C564 0.931 . S
H581 C569 0.929 . S
H582 C570 0.960 . S
H583 C570 0.962 . S
H584 C570 0.960 . S
H585 C571 0.961 . S
H586 C571 0.961 . S
H587 C571 0.961 . S
H588 C572 0.931 . S
H589 C577 0.930 . S
H590 C578 0.956 . S
H591 C578 0.961 . S
H592 C578 0.961 . S
H593 C579 0.957 1_545 S
H594 C579 0.961 . S
H595 C579 0.960 . S
C596 C597 1.391 . S
C596 C598 1.394 . S
C596 H612 0.931 . S
C597 C596 1.391 . S
C597 C601 1.376 . S
C598 C596 1.394 . S
C598 C599 1.369 . S
C598 C602 1.531 . S
C599 C598 1.369 . S
C599 C600 1.410 . S
C599 C607 1.503 . S
C600 C599 1.410 . S
C600 C601 1.392 . S
C600 C603 1.511 . S
C601 C597 1.376 . S
C601 C600 1.392 . S
C601 H613 0.929 . S
C602 C598 1.531 . S
C602 H614 0.960 . S
C602 H615 0.962 . S
C602 H616 0.960 . S
C603 C600 1.511 . S
C603 H617 0.961 . S
C603 H618 0.961 . S
C603 H619 0.961 . S
C604 C605 1.370 . S
C604 C606 1.363 . S
C604 H620 0.931 . S
C605 C604 1.370 . S
C605 C609 1.408 . S
C606 C604 1.363 . S
C606 C607 1.370 . S
C606 C610 1.524 . S
C607 C599 1.503 . S
C607 C606 1.370 . S
C607 C608 1.403 . S
C608 C607 1.403 . S
C608 C609 1.404 . S
C608 C611 1.539 . S
C609 C605 1.408 . S
C609 C608 1.404 . S
C609 H621 0.930 . S
C610 C606 1.524 . S
C610 H622 0.956 . S
C610 H623 0.961 . S
C610 H624 0.961 . S
C611 C608 1.539 . S
C611 H625 0.958 . S
C611 H626 0.961 . S
C611 H627 0.960 . S
H612 C596 0.931 . S
H613 C601 0.929 . S
H614 C602 0.960 . S
H615 C602 0.962 . S
H616 C602 0.960 . S
H617 C603 0.961 . S
H618 C603 0.961 . S
H619 C603 0.961 . S
H620 C604 0.931 . S
H621 C609 0.930 . S
H622 C610 0.956 . S
H623 C610 0.961 . S
H624 C610 0.961 . S
H625 C611 0.958 . S
H626 C611 0.961 . S
H627 C611 0.960 . S
C628 C629 1.391 . S
C628 C630 1.394 . S
C628 H644 0.931 . S
C629 C628 1.391 . S
C629 C633 1.376 . S
C630 C628 1.394 . S
C630 C631 1.369 . S
C630 C634 1.531 . S
C631 C630 1.369 . S
C631 C632 1.410 . S
C631 C639 1.503 . S
C632 C631 1.410 . S
C632 C633 1.392 . S
C632 C635 1.511 . S
C633 C629 1.376 . S
C633 C632 1.392 . S
C633 H645 0.929 . S
C634 C630 1.531 . S
C634 H646 0.960 . S
C634 H647 0.962 . S
C634 H648 0.960 . S
C635 C632 1.511 . S
C635 H649 0.961 . S
C635 H650 0.961 . S
C635 H651 0.961 . S
C636 C637 1.370 . S
C636 C638 1.363 . S
C636 H652 0.931 . S
C637 C636 1.370 . S
C637 C641 1.408 . S
C638 C636 1.363 . S
C638 C639 1.370 . S
C638 C642 1.524 . S
C639 C631 1.503 . S
C639 C638 1.370 . S
C639 C640 1.403 . S
C640 C639 1.403 . S
C640 C641 1.404 . S
C640 C643 1.539 . S
C641 C637 1.408 . S
C641 C640 1.404 . S
C641 H653 0.930 . S
C642 C638 1.524 . S
C642 H654 0.956 . S
C642 H655 0.961 . S
C642 H656 0.961 . S
C643 C640 1.539 . S
C643 H657 0.958 . S
C643 H658 0.961 . S
C643 H659 0.960 . S
H644 C628 0.931 . S
H645 C633 0.929 . S
H646 C634 0.960 . S
H647 C634 0.962 . S
H648 C634 0.960 . S
H649 C635 0.961 . S
H650 C635 0.961 . S
H651 C635 0.961 . S
H652 C636 0.931 . S
H653 C641 0.930 . S
H654 C642 0.956 . S
H655 C642 0.961 . S
H656 C642 0.961 . S
H657 C643 0.958 . S
H658 C643 0.961 . S
H659 C643 0.960 . S
C660 C661 1.391 . S
C660 C662 1.394 . S
C660 H676 0.931 1_556 S
C661 C660 1.391 . S
C661 C665 1.376 . S
C662 C660 1.394 . S
C662 C663 1.369 . S
C662 C666 1.531 . S
C663 C662 1.369 . S
C663 C664 1.410 . S
C663 C671 1.503 . S
C664 C663 1.410 . S
C664 C665 1.392 . S
C664 C667 1.511 . S
C665 C661 1.376 . S
C665 C664 1.392 . S
C665 H677 0.929 . S
C666 C662 1.531 . S
C666 H678 0.960 . S
C666 H679 0.962 . S
C666 H680 0.960 . S
C667 C664 1.511 . S
C667 H681 0.961 . S
C667 H682 0.961 . S
C667 H683 0.961 . S
C668 C669 1.370 . S
C668 C670 1.363 . S
C668 H684 0.931 . S
C669 C668 1.370 . S
C669 C673 1.408 . S
C670 C668 1.363 . S
C670 C671 1.370 . S
C670 C674 1.524 . S
C671 C663 1.503 . S
C671 C670 1.370 . S
C671 C672 1.403 . S
C672 C671 1.403 . S
C672 C673 1.404 . S
C672 C675 1.539 . S
C673 C669 1.408 . S
C673 C672 1.404 . S
C673 H685 0.930 . S
C674 C670 1.524 . S
C674 H686 0.956 . S
C674 H687 0.961 . S
C674 H688 0.961 . S
C675 C672 1.539 . S
C675 H689 0.958 . S
C675 H690 0.961 . S
C675 H691 0.960 . S
H676 C660 0.931 1_554 S
H677 C665 0.929 . S
H678 C666 0.960 . S
H679 C666 0.962 . S
H680 C666 0.960 . S
H681 C667 0.961 . S
H682 C667 0.961 . S
H683 C667 0.961 . S
H684 C668 0.931 . S
H685 C673 0.930 . S
H686 C674 0.956 . S
H687 C674 0.961 . S
H688 C674 0.961 . S
H689 C675 0.958 . S
H690 C675 0.961 . S
H691 C675 0.960 . S
C692 C693 1.391 . S
C692 C694 1.394 . S
C692 H708 0.931 . S
C693 C692 1.391 . S
C693 C697 1.376 . S
C694 C692 1.394 . S
C694 C695 1.369 . S
C694 C698 1.531 . S
C695 C694 1.369 . S
C695 C696 1.410 . S
C695 C703 1.503 . S
C696 C695 1.410 . S
C696 C697 1.392 . S
C696 C699 1.511 . S
C697 C693 1.376 . S
C697 C696 1.392 . S
C697 H709 0.929 . S
C698 C694 1.531 . S
C698 H710 0.960 . S
C698 H711 0.962 . S
C698 H712 0.960 . S
C699 C696 1.511 . S
C699 H713 0.961 . S
C699 H714 0.961 . S
C699 H715 0.961 . S
C700 C701 1.370 . S
C700 C702 1.363 . S
C700 H716 0.931 . S
C701 C700 1.370 . S
C701 C705 1.408 . S
C702 C700 1.363 . S
C702 C703 1.370 . S
C702 C706 1.524 . S
C703 C695 1.503 . S
C703 C702 1.370 . S
C703 C704 1.403 . S
C704 C703 1.403 . S
C704 C705 1.404 . S
C704 C707 1.539 . S
C705 C701 1.408 . S
C705 C704 1.404 . S
C705 H717 0.930 . S
C706 C702 1.524 . S
C706 H718 0.956 . S
C706 H719 0.961 . S
C706 H720 0.961 . S
C707 C704 1.539 . S
C707 H721 0.958 . S
C707 H722 0.961 1_655 S
C707 H723 0.960 . S
H708 C692 0.931 . S
H709 C697 0.929 . S
H710 C698 0.960 . S
H711 C698 0.962 . S
H712 C698 0.960 . S
H713 C699 0.961 . S
H714 C699 0.961 . S
H715 C699 0.961 . S
H716 C700 0.931 . S
H717 C705 0.930 . S
H718 C706 0.956 . S
H719 C706 0.961 . S
H720 C706 0.961 . S
H721 C707 0.958 . S
H722 C707 0.961 1_455 S
H723 C707 0.960 . S
C724 C725 1.391 . S
C724 C726 1.394 . S
C724 H740 0.931 . S
C725 C724 1.391 . S
C725 C729 1.376 . S
C726 C724 1.394 . S
C726 C727 1.369 . S
C726 C730 1.531 . S
C727 C726 1.369 . S
C727 C728 1.410 . S
C727 C735 1.503 . S
C728 C727 1.410 . S
C728 C729 1.392 . S
C728 C731 1.511 . S
C729 C725 1.376 . S
C729 C728 1.392 . S
C729 H741 0.929 . S
C730 C726 1.531 . S
C730 H742 0.960 . S
C730 H743 0.962 . S
C730 H744 0.960 . S
C731 C728 1.511 . S
C731 H745 0.961 . S
C731 H746 0.961 . S
C731 H747 0.961 . S
C732 C733 1.370 . S
C732 C734 1.363 . S
C732 H748 0.931 . S
C733 C732 1.370 . S
C733 C737 1.408 . S
C734 C732 1.363 . S
C734 C735 1.370 . S
C734 C738 1.524 . S
C735 C727 1.503 . S
C735 C734 1.370 . S
C735 C736 1.403 . S
C736 C735 1.403 . S
C736 C737 1.404 . S
C736 C739 1.539 . S
C737 C733 1.408 . S
C737 C736 1.404 . S
C737 H749 0.930 . S
C738 C734 1.524 . S
C738 H750 0.956 . S
C738 H751 0.961 . S
C738 H752 0.961 . S
C739 C736 1.539 . S
C739 H753 0.958 . S
C739 H754 0.961 . S
C739 H755 0.960 . S
H740 C724 0.931 . S
H741 C729 0.929 . S
H742 C730 0.960 . S
H743 C730 0.962 . S
H744 C730 0.960 . S
H745 C731 0.961 . S
H746 C731 0.961 . S
H747 C731 0.961 . S
H748 C732 0.931 . S
H749 C737 0.930 . S
H750 C738 0.956 . S
H751 C738 0.961 . S
H752 C738 0.961 . S
H753 C739 0.958 . S
H754 C739 0.961 . S
H755 C739 0.960 . S
C756 C757 1.391 . S
C756 C758 1.394 . S
C756 H772 0.931 . S
C757 C756 1.391 . S
C757 C761 1.376 . S
C758 C756 1.394 . S
C758 C759 1.369 . S
C758 C762 1.531 . S
C759 C758 1.369 . S
C759 C760 1.410 . S
C759 C767 1.503 . S
C760 C759 1.410 . S
C760 C761 1.392 . S
C760 C763 1.511 . S
C761 C757 1.376 . S
C761 C760 1.392 . S
C761 H773 0.929 . S
C762 C758 1.531 . S
C762 H774 0.960 . S
C762 H775 0.962 . S
C762 H776 0.960 . S
C763 C760 1.511 . S
C763 H777 0.961 . S
C763 H778 0.961 . S
C763 H779 0.961 . S
C764 C765 1.370 . S
C764 C766 1.363 . S
C764 H780 0.931 . S
C765 C764 1.370 . S
C765 C769 1.408 . S
C766 C764 1.363 . S
C766 C767 1.370 . S
C766 C770 1.524 . S
C767 C759 1.503 . S
C767 C766 1.370 . S
C767 C768 1.403 . S
C768 C767 1.403 . S
C768 C769 1.404 . S
C768 C771 1.539 . S
C769 C765 1.408 . S
C769 C768 1.404 . S
C769 H781 0.930 . S
C770 C766 1.524 . S
C770 H782 0.956 . S
C770 H783 0.961 . S
C770 H784 0.961 . S
C771 C768 1.539 . S
C771 H785 0.958 . S
C771 H786 0.961 . S
C771 H787 0.960 . S
H772 C756 0.931 . S
H773 C761 0.929 . S
H774 C762 0.960 . S
H775 C762 0.962 . S
H776 C762 0.960 . S
H777 C763 0.961 . S
H778 C763 0.961 . S
H779 C763 0.961 . S
H780 C764 0.931 . S
H781 C769 0.930 . S
H782 C770 0.956 . S
H783 C770 0.961 . S
H784 C770 0.961 . S
H785 C771 0.958 . S
H786 C771 0.961 . S
H787 C771 0.960 . S
C788 C789 1.391 . S
C788 C790 1.394 . S
C788 H804 0.931 1_554 S
C789 C788 1.391 . S
C789 C793 1.376 . S
C790 C788 1.394 . S
C790 C791 1.369 . S
C790 C794 1.531 . S
C791 C790 1.369 . S
C791 C792 1.410 . S
C791 C799 1.503 . S
C792 C791 1.410 . S
C792 C793 1.392 . S
C792 C795 1.511 . S
C793 C789 1.376 . S
C793 C792 1.392 . S
C793 H805 0.929 . S
C794 C790 1.531 . S
C794 H806 0.960 . S
C794 H807 0.962 . S
C794 H808 0.960 . S
C795 C792 1.511 . S
C795 H809 0.961 . S
C795 H810 0.961 . S
C795 H811 0.961 . S
C796 C797 1.370 . S
C796 C798 1.363 . S
C796 H812 0.931 . S
C797 C796 1.370 . S
C797 C801 1.408 . S
C798 C796 1.363 . S
C798 C799 1.370 . S
C798 C802 1.524 . S
C799 C791 1.503 . S
C799 C798 1.370 . S
C799 C800 1.403 . S
C800 C799 1.403 . S
C800 C801 1.404 . S
C800 C803 1.539 . S
C801 C797 1.408 . S
C801 C800 1.404 . S
C801 H813 0.930 . S
C802 C798 1.524 . S
C802 H814 0.956 . S
C802 H815 0.961 . S
C802 H816 0.961 . S
C803 C800 1.539 . S
C803 H817 0.958 . S
C803 H818 0.961 . S
C803 H819 0.960 . S
H804 C788 0.931 1_556 S
H805 C793 0.929 . S
H806 C794 0.960 . S
H807 C794 0.962 . S
H808 C794 0.960 . S
H809 C795 0.961 . S
H810 C795 0.961 . S
H811 C795 0.961 . S
H812 C796 0.931 . S
H813 C801 0.930 . S
H814 C802 0.956 . S
H815 C802 0.961 . S
H816 C802 0.961 . S
H817 C803 0.958 . S
H818 C803 0.961 . S
H819 C803 0.960 . S
C820 C821 1.391 . S
C820 C822 1.394 . S
C820 H836 0.931 . S
C821 C820 1.391 . S
C821 C825 1.376 . S
C822 C820 1.394 . S
C822 C823 1.369 . S
C822 C826 1.531 . S
C823 C822 1.369 . S
C823 C824 1.410 . S
C823 C831 1.503 . S
C824 C823 1.410 . S
C824 C825 1.392 . S
C824 C827 1.511 . S
C825 C821 1.376 . S
C825 C824 1.392 . S
C825 H837 0.929 . S
C826 C822 1.531 . S
C826 H838 0.960 . S
C826 H839 0.962 . S
C826 H840 0.960 . S
C827 C824 1.511 . S
C827 H841 0.961 . S
C827 H842 0.961 . S
C827 H843 0.961 . S
C828 C829 1.370 . S
C828 C830 1.363 . S
C828 H844 0.931 . S
C829 C828 1.370 . S
C829 C833 1.408 . S
C830 C828 1.363 . S
C830 C831 1.370 . S
C830 C834 1.524 . S
C831 C823 1.503 . S
C831 C830 1.370 . S
C831 C832 1.403 . S
C832 C831 1.403 . S
C832 C833 1.404 . S
C832 C835 1.539 . S
C833 C829 1.408 . S
C833 C832 1.404 . S
C833 H845 0.930 . S
C834 C830 1.524 . S
C834 H846 0.956 . S
C834 H847 0.961 . S
C834 H848 0.961 . S
C835 C832 1.539 . S
C835 H849 0.958 . S
C835 H850 0.961 . S
C835 H851 0.960 . S
H836 C820 0.931 . S
H837 C825 0.929 . S
H838 C826 0.960 . S
H839 C826 0.962 . S
H840 C826 0.960 . S
H841 C827 0.961 . S
H842 C827 0.961 . S
H843 C827 0.961 . S
H844 C828 0.931 . S
H845 C833 0.930 . S
H846 C834 0.956 . S
H847 C834 0.961 . S
H848 C834 0.961 . S
H849 C835 0.958 . S
H850 C835 0.961 . S
H851 C835 0.960 . S
C852 C853 1.391 . S
C852 C854 1.394 . S
C852 H868 0.931 . S
C853 C852 1.391 . S
C853 C857 1.376 . S
C854 C852 1.394 . S
C854 C855 1.369 . S
C854 C858 1.531 . S
C855 C854 1.369 . S
C855 C856 1.410 . S
C855 C863 1.503 . S
C856 C855 1.410 . S
C856 C857 1.392 . S
C856 C859 1.511 . S
C857 C853 1.376 . S
C857 C856 1.392 . S
C857 H869 0.929 . S
C858 C854 1.531 . S
C858 H870 0.960 . S
C858 H871 0.962 . S
C858 H872 0.960 . S
C859 C856 1.511 . S
C859 H873 0.961 . S
C859 H874 0.961 . S
C859 H875 0.961 . S
C860 C861 1.370 . S
C860 C862 1.363 . S
C860 H876 0.931 . S
C861 C860 1.370 . S
C861 C865 1.408 . S
C862 C860 1.363 . S
C862 C863 1.370 . S
C862 C866 1.524 . S
C863 C855 1.503 . S
C863 C862 1.370 . S
C863 C864 1.403 . S
C864 C863 1.403 . S
C864 C865 1.404 . S
C864 C867 1.539 . S
C865 C861 1.408 . S
C865 C864 1.404 . S
C865 H877 0.930 . S
C866 C862 1.524 . S
C866 H878 0.956 . S
C866 H879 0.961 . S
C866 H880 0.961 . S
C867 C864 1.539 . S
C867 H881 0.958 . S
C867 H882 0.961 . S
C867 H883 0.960 . S
H868 C852 0.931 . S
H869 C857 0.929 . S
H870 C858 0.960 . S
H871 C858 0.962 . S
H872 C858 0.960 . S
H873 C859 0.961 . S
H874 C859 0.961 . S
H875 C859 0.961 . S
H876 C860 0.931 . S
H877 C865 0.930 . S
H878 C866 0.956 . S
H879 C866 0.961 . S
H880 C866 0.961 . S
H881 C867 0.958 . S
H882 C867 0.961 . S
H883 C867 0.960 . S
C884 C885 1.391 . S
C884 C886 1.394 . S
C884 H900 0.931 . S
C885 C884 1.391 . S
C885 C889 1.376 . S
C886 C884 1.394 . S
C886 C887 1.369 . S
C886 C890 1.531 . S
C887 C886 1.369 . S
C887 C888 1.410 . S
C887 C895 1.503 . S
C888 C887 1.410 . S
C888 C889 1.392 . S
C888 C891 1.511 . S
C889 C885 1.376 . S
C889 C888 1.392 . S
C889 H901 0.929 . S
C890 C886 1.531 . S
C890 H902 0.960 . S
C890 H903 0.962 . S
C890 H904 0.960 . S
C891 C888 1.511 . S
C891 H905 0.961 . S
C891 H906 0.961 . S
C891 H907 0.961 . S
C892 C893 1.370 . S
C892 C894 1.363 . S
C892 H908 0.931 . S
C893 C892 1.370 . S
C893 C897 1.408 . S
C894 C892 1.363 . S
C894 C895 1.370 . S
C894 C898 1.524 . S
C895 C887 1.503 . S
C895 C894 1.370 . S
C895 C896 1.403 . S
C896 C895 1.403 . S
C896 C897 1.404 . S
C896 C899 1.539 . S
C897 C893 1.408 . S
C897 C896 1.404 . S
C897 H909 0.930 . S
C898 C894 1.524 . S
C898 H910 0.956 . S
C898 H911 0.961 . S
C898 H912 0.961 . S
C899 C896 1.539 . S
C899 H913 0.958 . S
C899 H914 0.961 . S
C899 H915 0.960 . S
H900 C884 0.931 . S
H901 C889 0.929 . S
H902 C890 0.960 . S
H903 C890 0.962 . S
H904 C890 0.960 . S
H905 C891 0.961 . S
H906 C891 0.961 . S
H907 C891 0.961 . S
H908 C892 0.931 . S
H909 C897 0.930 . S
H910 C898 0.956 . S
H911 C898 0.961 . S
H912 C898 0.961 . S
H913 C899 0.958 . S
H914 C899 0.961 . S
H915 C899 0.960 . S
C916 C917 1.391 . S
C916 C918 1.394 . S
C916 H932 0.931 . S
C917 C916 1.391 . S
C917 C921 1.376 . S
C918 C916 1.394 . S
C918 C919 1.369 . S
C918 C922 1.531 . S
C919 C918 1.369 . S
C919 C920 1.410 . S
C919 C927 1.503 . S
C920 C919 1.410 . S
C920 C921 1.392 . S
C920 C923 1.511 . S
C921 C917 1.376 . S
C921 C920 1.392 . S
C921 H933 0.929 . S
C922 C918 1.531 . S
C922 H934 0.960 . S
C922 H935 0.962 . S
C922 H936 0.960 . S
C923 C920 1.511 . S
C923 H937 0.961 . S
C923 H938 0.961 . S
C923 H939 0.961 . S
C924 C925 1.370 . S
C924 C926 1.363 . S
C924 H940 0.931 . S
C925 C924 1.370 . S
C925 C929 1.408 . S
C926 C924 1.363 . S
C926 C927 1.370 . S
C926 C930 1.524 . S
C927 C919 1.503 . S
C927 C926 1.370 . S
C927 C928 1.403 . S
C928 C927 1.403 . S
C928 C929 1.404 . S
C928 C931 1.539 . S
C929 C925 1.408 . S
C929 C928 1.404 . S
C929 H941 0.930 . S
C930 C926 1.524 . S
C930 H942 0.956 . S
C930 H943 0.961 . S
C930 H944 0.961 . S
C931 C928 1.539 . S
C931 H945 0.958 . S
C931 H946 0.961 . S
C931 H947 0.960 . S
H932 C916 0.931 . S
H933 C921 0.929 . S
H934 C922 0.960 . S
H935 C922 0.962 . S
H936 C922 0.960 . S
H937 C923 0.961 . S
H938 C923 0.961 . S
H939 C923 0.961 . S
H940 C924 0.931 . S
H941 C929 0.930 . S
H942 C930 0.956 . S
H943 C930 0.961 . S
H944 C930 0.961 . S
H945 C931 0.958 . S
H946 C931 0.961 . S
H947 C931 0.960 . S
C948 C949 1.391 . S
C948 C950 1.394 . S
C948 H964 0.931 . S
C949 C948 1.391 . S
C949 C953 1.376 . S
C950 C948 1.394 . S
C950 C951 1.369 . S
C950 C954 1.531 . S
C951 C950 1.369 . S
C951 C952 1.410 . S
C951 C959 1.503 . S
C952 C951 1.410 . S
C952 C953 1.392 . S
C952 C955 1.511 . S
C953 C949 1.376 . S
C953 C952 1.392 . S
C953 H965 0.929 . S
C954 C950 1.531 . S
C954 H966 0.960 . S
C954 H967 0.962 . S
C954 H968 0.960 . S
C955 C952 1.511 . S
C955 H969 0.961 . S
C955 H970 0.961 . S
C955 H971 0.961 . S
C956 C957 1.370 . S
C956 C958 1.363 . S
C956 H972 0.931 . S
C957 C956 1.370 . S
C957 C961 1.408 . S
C958 C956 1.363 . S
C958 C959 1.370 . S
C958 C962 1.524 . S
C959 C951 1.503 . S
C959 C958 1.370 . S
C959 C960 1.403 . S
C960 C959 1.403 . S
C960 C961 1.404 . S
C960 C963 1.539 . S
C961 C957 1.408 . S
C961 C960 1.404 . S
C961 H973 0.930 . S
C962 C958 1.524 . S
C962 H974 0.956 . S
C962 H975 0.961 . S
C962 H976 0.961 . S
C963 C960 1.539 . S
C963 H977 0.958 . S
C963 H978 0.961 . S
C963 H979 0.960 . S
H964 C948 0.931 . S
H965 C953 0.929 . S
H966 C954 0.960 . S
H967 C954 0.962 . S
H968 C954 0.960 . S
H969 C955 0.961 . S
H970 C955 0.961 . S
H971 C955 0.961 . S
H972 C956 0.931 . S
H973 C961 0.930 . S
H974 C962 0.956 . S
H975 C962 0.961 . S
H976 C962 0.961 . S
H977 C963 0.958 . S
H978 C963 0.961 . S
H979 C963 0.960 . S
C980 C981 1.391 . S
C980 C982 1.394 . S
C980 H996 0.931 . S
C981 C980 1.391 . S
C981 C985 1.376 . S
C982 C980 1.394 . S
C982 C983 1.369 . S
C982 C986 1.531 . S
C983 C982 1.369 . S
C983 C984 1.410 . S
C983 C991 1.503 . S
C984 C983 1.410 . S
C984 C985 1.392 . S
C984 C987 1.511 . S
C985 C981 1.376 . S
C985 C984 1.392 . S
C985 H997 0.929 . S
C986 C982 1.531 . S
C986 H998 0.960 . S
C986 H999 0.962 . S
C986 H1000 0.960 . S
C987 C984 1.511 . S
C987 H1001 0.961 . S
C987 H1002 0.961 . S
C987 H1003 0.961 . S
C988 C989 1.370 . S
C988 C990 1.363 . S
C988 H1004 0.931 . S
C989 C988 1.370 . S
C989 C993 1.408 . S
C990 C988 1.363 . S
C990 C991 1.370 . S
C990 C994 1.524 . S
C991 C983 1.503 . S
C991 C990 1.370 . S
C991 C992 1.403 . S
C992 C991 1.403 . S
C992 C993 1.404 . S
C992 C995 1.539 . S
C993 C989 1.408 . S
C993 C992 1.404 . S
C993 H1005 0.930 . S
C994 C990 1.524 . S
C994 H1006 0.956 . S
C994 H1007 0.961 . S
C994 H1008 0.961 . S
C995 C992 1.539 . S
C995 H1009 0.958 . S
C995 H1010 0.961 . S
C995 H1011 0.960 . S
H996 C980 0.931 . S
H997 C985 0.929 . S
H998 C986 0.960 . S
H999 C986 0.962 . S
H1000 C986 0.960 . S
H1001 C987 0.961 . S
H1002 C987 0.961 . S
H1003 C987 0.961 . S
H1004 C988 0.931 . S
H1005 C993 0.930 . S
H1006 C994 0.956 . S
H1007 C994 0.961 . S
H1008 C994 0.961 . S
H1009 C995 0.958 . S
H1010 C995 0.961 . S
H1011 C995 0.960 . S
C1012 C1013 1.391 . S
C1012 C1014 1.394 . S
C1012 H1028 0.931 . S
C1013 C1012 1.391 . S
C1013 C1017 1.376 . S
C1014 C1012 1.394 . S
C1014 C1015 1.369 . S
C1014 C1018 1.531 . S
C1015 C1014 1.369 . S
C1015 C1016 1.410 . S
C1015 C1023 1.503 . S
C1016 C1015 1.410 . S
C1016 C1017 1.392 . S
C1016 C1019 1.511 . S
C1017 C1013 1.376 . S
C1017 C1016 1.392 . S
C1017 H1029 0.929 . S
C1018 C1014 1.531 . S
C1018 H1030 0.960 . S
C1018 H1031 0.962 . S
C1018 H1032 0.960 . S
C1019 C1016 1.511 . S
C1019 H1033 0.961 . S
C1019 H1034 0.961 . S
C1019 H1035 0.961 . S
C1020 C1021 1.370 . S
C1020 C1022 1.363 . S
C1020 H1036 0.931 . S
C1021 C1020 1.370 . S
C1021 C1025 1.408 . S
C1022 C1020 1.363 . S
C1022 C1023 1.370 . S
C1022 C1026 1.524 . S
C1023 C1015 1.503 . S
C1023 C1022 1.370 . S
C1023 C1024 1.403 . S
C1024 C1023 1.403 . S
C1024 C1025 1.404 . S
C1024 C1027 1.539 . S
C1025 C1021 1.408 . S
C1025 C1024 1.404 . S
C1025 H1037 0.930 . S
C1026 C1022 1.524 . S
C1026 H1038 0.956 . S
C1026 H1039 0.961 . S
C1026 H1040 0.961 . S
C1027 C1024 1.539 . S
C1027 H1041 0.958 . S
C1027 H1042 0.961 . S
C1027 H1043 0.960 . S
H1028 C1012 0.931 . S
H1029 C1017 0.929 . S
H1030 C1018 0.960 . S
H1031 C1018 0.962 . S
H1032 C1018 0.960 . S
H1033 C1019 0.961 . S
H1034 C1019 0.961 . S
H1035 C1019 0.961 . S
H1036 C1020 0.931 . S
H1037 C1025 0.930 . S
H1038 C1026 0.956 . S
H1039 C1026 0.961 . S
H1040 C1026 0.961 . S
H1041 C1027 0.958 . S
H1042 C1027 0.961 . S
H1043 C1027 0.960 . S
C1044 C1045 1.391 . S
C1044 C1046 1.394 . S
C1044 H1060 0.931 . S
C1045 C1044 1.391 . S
C1045 C1049 1.376 . S
C1046 C1044 1.394 . S
C1046 C1047 1.369 . S
C1046 C1050 1.531 . S
C1047 C1046 1.369 . S
C1047 C1048 1.410 . S
C1047 C1055 1.503 . S
C1048 C1047 1.410 . S
C1048 C1049 1.392 . S
C1048 C1051 1.511 . S
C1049 C1045 1.376 . S
C1049 C1048 1.392 . S
C1049 H1061 0.929 . S
C1050 C1046 1.531 . S
C1050 H1062 0.960 . S
C1050 H1063 0.962 . S
C1050 H1064 0.960 . S
C1051 C1048 1.511 . S
C1051 H1065 0.961 . S
C1051 H1066 0.961 . S
C1051 H1067 0.961 . S
C1052 C1053 1.370 . S
C1052 C1054 1.363 . S
C1052 H1068 0.931 . S
C1053 C1052 1.370 . S
C1053 C1057 1.408 . S
C1054 C1052 1.363 . S
C1054 C1055 1.370 . S
C1054 C1058 1.524 . S
C1055 C1047 1.503 . S
C1055 C1054 1.370 . S
C1055 C1056 1.403 . S
C1056 C1055 1.403 . S
C1056 C1057 1.404 . S
C1056 C1059 1.539 . S
C1057 C1053 1.408 . S
C1057 C1056 1.404 . S
C1057 H1069 0.930 . S
C1058 C1054 1.524 . S
C1058 H1070 0.956 . S
C1058 H1071 0.961 . S
C1058 H1072 0.961 . S
C1059 C1056 1.539 . S
C1059 H1073 0.958 . S
C1059 H1074 0.961 . S
C1059 H1075 0.960 . S
H1060 C1044 0.931 . S
H1061 C1049 0.929 . S
H1062 C1050 0.960 . S
H1063 C1050 0.962 . S
H1064 C1050 0.960 . S
H1065 C1051 0.961 . S
H1066 C1051 0.961 . S
H1067 C1051 0.961 . S
H1068 C1052 0.931 . S
H1069 C1057 0.930 . S
H1070 C1058 0.956 . S
H1071 C1058 0.961 . S
H1072 C1058 0.961 . S
H1073 C1059 0.958 . S
H1074 C1059 0.961 . S
H1075 C1059 0.960 . S
C1076 C1077 1.391 . S
C1076 C1078 1.394 . S
C1076 H1092 0.931 . S
C1077 C1076 1.391 . S
C1077 C1081 1.376 . S
C1078 C1076 1.394 . S
C1078 C1079 1.369 . S
C1078 C1082 1.531 . S
C1079 C1078 1.369 . S
C1079 C1080 1.410 . S
C1079 C1087 1.503 . S
C1080 C1079 1.410 . S
C1080 C1081 1.392 . S
C1080 C1083 1.511 . S
C1081 C1077 1.376 . S
C1081 C1080 1.392 . S
C1081 H1093 0.929 . S
C1082 C1078 1.531 . S
C1082 H1094 0.960 . S
C1082 H1095 0.962 . S
C1082 H1096 0.960 . S
C1083 C1080 1.511 . S
C1083 H1097 0.961 . S
C1083 H1098 0.961 . S
C1083 H1099 0.961 . S
C1084 C1085 1.370 . S
C1084 C1086 1.363 . S
C1084 H1100 0.931 . S
C1085 C1084 1.370 . S
C1085 C1089 1.408 . S
C1086 C1084 1.363 . S
C1086 C1087 1.370 . S
C1086 C1090 1.524 . S
C1087 C1079 1.503 . S
C1087 C1086 1.370 . S
C1087 C1088 1.403 . S
C1088 C1087 1.403 . S
C1088 C1089 1.404 . S
C1088 C1091 1.539 . S
C1089 C1085 1.408 . S
C1089 C1088 1.404 . S
C1089 H1101 0.930 . S
C1090 C1086 1.524 . S
C1090 H1102 0.956 . S
C1090 H1103 0.961 . S
C1090 H1104 0.961 . S
C1091 C1088 1.539 . S
C1091 H1105 0.958 . S
C1091 H1106 0.961 . S
C1091 H1107 0.960 . S
H1092 C1076 0.931 . S
H1093 C1081 0.929 . S
H1094 C1082 0.960 . S
H1095 C1082 0.962 . S
H1096 C1082 0.960 . S
H1097 C1083 0.961 . S
H1098 C1083 0.961 . S
H1099 C1083 0.961 . S
H1100 C1084 0.931 . S
H1101 C1089 0.930 . S
H1102 C1090 0.956 . S
H1103 C1090 0.961 . S
H1104 C1090 0.961 . S
H1105 C1091 0.958 . S
H1106 C1091 0.961 . S
H1107 C1091 0.960 . S
C341 C221 1.412 . S
C349 C272 1.382 . S
C381 C280 1.305 . S
C373 C241 1.373 . S
C413 C284 1.343 . S
C405 C157 1.358 . S
C437 C177 1.361 . S
C445 C260 1.290 . S
C477 C301 1.375 . S
C469 C93 1.430 . S
C509 C335 1.325 . S
C501 C113 1.361 . S
C533 C29 1.401 . S
C541 C323 1.349 . S
C565 C49 1.361 . S
C573 C305 1.317 . S
C605 C259 1.274 . S
C597 C61 1.428 1_554 S
C637 C293 1.305 . S
C629 C17 1.449 . S
C669 C297 1.299 . S
C661 C125 1.379 1_556 S
C701 C275 1.270 . S
C693 C81 1.420 . S
C733 C314 1.269 . S
C725 C189 1.413 1_556 S
C757 C145 1.394 . S
C765 C322 1.309 . S
C797 C338 1.306 . S
C789 C253 1.417 1_554 S
C821 C209 1.421 . S
C829 C318 1.303 . S
C861 C263 1.303 . S
C853 C23 1.480 . S
C893 C281 1.339 . S
C885 C55 1.445 . S
C917 C87 1.469 . S
C925 C296 1.295 . S
C957 C276 1.296 . S
C949 C119 1.444 . S
C989 C302 1.343 . S
C981 C151 1.470 . S
C1013 C183 1.478 . S
C1021 C326 1.339 . S
C1045 C215 1.449 . S
C1053 C339 1.294 . S
C1077 C247 1.469 . S
C1085 C317 1.336 . S
