# Generated by pormake.
# Topology csq, (4,8)-cn, num edge types: 1
# Building blocks:
#     Node 0, Type 0, BuildingBlock: MUDLON_clean_linker_0, # of connection points: 4
#     Node 1, Type 0, BuildingBlock: MUDLON_clean_linker_0, # of connection points: 4
#     Node 2, Type 0, BuildingBlock: MUDLON_clean_linker_0, # of connection points: 4
#     Node 3, Type 0, BuildingBlock: MUDLON_clean_linker_0, # of connection points: 4
#     Node 4, Type 0, BuildingBlock: MUDLON_clean_linker_0, # of connection points: 4
#     Node 5, Type 0, BuildingBlock: MUDLON_clean_linker_0, # of connection points: 4
#     Node 6, Type 1, BuildingBlock: TAGTUT_clean_sbu_3, # of connection points: 8
#     Node 7, Type 1, BuildingBlock: TAGTUT_clean_sbu_3, # of connection points: 8
#     Node 8, Type 1, BuildingBlock: TAGTUT_clean_sbu_3, # of connection points: 8
#     Edge 9, Type (0, 1), BuildingBlock: MIFKUJ_clean_linker_0, # of connection points: 2
#     Edge 10, Type (0, 1), BuildingBlock: MIFKUJ_clean_linker_0, # of connection points: 2
#     Edge 11, Type (0, 1), BuildingBlock: MIFKUJ_clean_linker_0, # of connection points: 2
#     Edge 12, Type (0, 1), BuildingBlock: MIFKUJ_clean_linker_0, # of connection points: 2
#     Edge 13, Type (0, 1), BuildingBlock: MIFKUJ_clean_linker_0, # of connection points: 2
#     Edge 14, Type (0, 1), BuildingBlock: MIFKUJ_clean_linker_0, # of connection points: 2
#     Edge 15, Type (0, 1), BuildingBlock: MIFKUJ_clean_linker_0, # of connection points: 2
#     Edge 16, Type (0, 1), BuildingBlock: MIFKUJ_clean_linker_0, # of connection points: 2
#     Edge 17, Type (0, 1), BuildingBlock: MIFKUJ_clean_linker_0, # of connection points: 2
#     Edge 18, Type (0, 1), BuildingBlock: MIFKUJ_clean_linker_0, # of connection points: 2
#     Edge 19, Type (0, 1), BuildingBlock: MIFKUJ_clean_linker_0, # of connection points: 2
#     Edge 20, Type (0, 1), BuildingBlock: MIFKUJ_clean_linker_0, # of connection points: 2
#     Edge 21, Type (0, 1), BuildingBlock: MIFKUJ_clean_linker_0, # of connection points: 2
#     Edge 22, Type (0, 1), BuildingBlock: MIFKUJ_clean_linker_0, # of connection points: 2
#     Edge 23, Type (0, 1), BuildingBlock: MIFKUJ_clean_linker_0, # of connection points: 2
#     Edge 24, Type (0, 1), BuildingBlock: MIFKUJ_clean_linker_0, # of connection points: 2
#     Edge 25, Type (0, 1), BuildingBlock: MIFKUJ_clean_linker_0, # of connection points: 2
#     Edge 26, Type (0, 1), BuildingBlock: MIFKUJ_clean_linker_0, # of connection points: 2
#     Edge 27, Type (0, 1), BuildingBlock: MIFKUJ_clean_linker_0, # of connection points: 2
#     Edge 28, Type (0, 1), BuildingBlock: MIFKUJ_clean_linker_0, # of connection points: 2
#     Edge 29, Type (0, 1), BuildingBlock: MIFKUJ_clean_linker_0, # of connection points: 2
#     Edge 30, Type (0, 1), BuildingBlock: MIFKUJ_clean_linker_0, # of connection points: 2
#     Edge 31, Type (0, 1), BuildingBlock: MIFKUJ_clean_linker_0, # of connection points: 2
#     Edge 32, Type (0, 1), BuildingBlock: MIFKUJ_clean_linker_0, # of connection points: 2
# Relax obj value: 0.038
# Max RMSD: 0.119
# Mean RMSD: 0.079
data_MOF--net-csq--node1-TAGTUT_clean_sbu_3--node2-MUDLON_clean_linker_0--edge1-MIFKUJ_clean_linker_0
_symmetry_space_group_name_H-M    P1
_symmetry_Int_Tables_number       1
_symmetry_cell_setting            triclinic
loop_
_symmetry_equiv_pos_as_xyz
'x, y, z'
_cell_length_a     85.637904
_cell_length_b     84.823435
_cell_length_c     27.89664
_cell_angle_alpha  92.353669
_cell_angle_beta   92.422244
_cell_angle_gamma 119.9497
loop_
_atom_site_label
_atom_site_type_symbol
_atom_site_fract_x
_atom_site_fract_y
_atom_site_fract_z
_atom_type_partial_charge
H0 H 0.32329 0.50033 0.14445 0.0
N1 N 0.30003 0.464 0.15242 0.0
H2 H 0.34983 0.51983 0.19902 0.0
H3 H 0.30617 0.45721 0.2409 0.0
H4 H 0.33275 0.4764 0.29532 0.0
H5 H 0.31234 0.44098 0.1466 0.0
H6 H 0.33252 0.4402 0.08823 0.0
H7 H 0.307 0.48095 0.06835 0.0
H8 H 0.32729 0.48031 0.00951 0.0
H9 H 0.29182 0.49131 0.14452 0.0
H10 H 0.2688 0.43305 0.14342 0.0
H11 H 0.26162 0.48755 0.14232 0.0
H12 H 0.23849 0.429 0.1383 0.0
H13 H 0.18734 0.48024 0.16748 0.0
H14 H 0.17273 0.49175 0.22083 0.0
H15 H 0.13441 0.43639 0.25109 0.0
H16 H 0.14848 0.42511 0.19548 0.0
H17 H 0.15449 0.4132 0.08548 0.0
H18 H 0.13574 0.40851 0.0112 0.0
H19 H 0.15632 0.46654 0.01345 0.0
H20 H 0.17486 0.47111 0.08693 0.0
H21 H 0.20309 0.47239 0.09823 0.0
H22 H 0.23377 0.47757 0.09774 0.0
H23 H 0.21928 0.43285 0.18861 0.0
N24 N 0.1746 0.44431 0.13907 0.0
H25 H 0.18837 0.42717 0.18641 0.0
C26 C 0.31279 0.47725 0.18874 0.0
C27 C 0.3249 0.49527 0.17818 0.0
C28 C 0.34016 0.50637 0.20924 0.0
C29 C 0.34353 0.49962 0.25126 0.0
C30 C 0.33051 0.48216 0.26361 0.0
C31 C 0.3153 0.47111 0.23256 0.0
C32 C 0.30818 0.46094 0.1117 0.0
C33 C 0.31514 0.44918 0.11593 0.0
C34 C 0.32682 0.44893 0.08297 0.0
C35 C 0.33169 0.46041 0.04482 0.0
C36 C 0.32373 0.47131 0.03859 0.0
C37 C 0.31211 0.47165 0.07199 0.0
C38 C 0.28255 0.4624 0.14503 0.0
C39 C 0.28028 0.47768 0.14316 0.0
C40 C 0.26292 0.47548 0.14157 0.0
C41 C 0.24753 0.45797 0.14105 0.0
C42 C 0.24996 0.44273 0.14024 0.0
C43 C 0.26726 0.44497 0.14253 0.0
C44 C 0.16874 0.45176 0.17697 0.0
C45 C 0.17587 0.47063 0.18589 0.0
C46 C 0.16755 0.47719 0.21673 0.0
C47 C 0.15211 0.46499 0.23959 0.0
C48 C 0.1459 0.44618 0.23304 0.0
C49 C 0.15406 0.43968 0.20181 0.0
C50 C 0.16594 0.44241 0.09205 0.0
C51 C 0.1552 0.4249 0.06925 0.0
C52 C 0.14457 0.42226 0.02689 0.0
C53 C 0.14447 0.43716 0.00699 0.0
C54 C 0.15599 0.4548 0.02844 0.0
C55 C 0.16665 0.45742 0.07048 0.0
C56 C 0.1933 0.4491 0.14175 0.0
C57 C 0.20647 0.46366 0.11791 0.0
C58 C 0.22412 0.46671 0.11797 0.0
C59 C 0.22902 0.45545 0.14245 0.0
C60 C 0.21594 0.44147 0.16808 0.0
C61 C 0.19831 0.4383 0.16742 0.0
H62 H 0.73069 0.13244 0.1244 0.0
N63 N 0.73679 0.16364 0.09084 0.0
H64 H 0.71043 0.11615 0.18648 0.0
H65 H 0.72399 0.17878 0.15547 0.0
H66 H 0.7034 0.16246 0.21736 0.0
H67 H 0.7096 0.17145 0.07587 0.0
H68 H 0.68386 0.15556 0.01692 0.0
H69 H 0.73376 0.14179 0.01568 0.0
H70 H 0.70828 0.12625 0.955 0.0
H71 H 0.76836 0.17534 0.13949 0.0
H72 H 0.73974 0.19401 0.0484 0.0
H73 H 0.79546 0.20529 0.14093 0.0
H74 H 0.76691 0.2234 0.0474 0.0
H75 H 0.88204 0.29269 0.13015 0.0
H76 H 0.89699 0.3117 0.20491 0.0
H77 H 0.85001 0.31684 0.2257 0.0
H78 H 0.83517 0.29782 0.1517 0.0
H79 H 0.8402 0.31035 0.07573 0.0
H80 H 0.85077 0.33285 0.01584 0.0
H81 H 0.87816 0.30716 0.9507 0.0
H82 H 0.86808 0.28509 0.0124 0.0
H83 H 0.84601 0.25152 0.08803 0.0
H84 H 0.81791 0.22251 0.08974 0.0
H85 H 0.78796 0.25118 0.08957 0.0
N86 N 0.85024 0.28458 0.08827 0.0
H87 H 0.81607 0.27992 0.08485 0.0
C88 C 0.72867 0.15666 0.13505 0.0
C89 C 0.72527 0.13929 0.14579 0.0
C90 C 0.71367 0.13002 0.18118 0.0
C91 C 0.70514 0.13795 0.20629 0.0
C92 C 0.70961 0.15594 0.19803 0.0
C93 C 0.72141 0.1653 0.1629 0.0
C94 C 0.72357 0.15764 0.05042 0.0
C95 C 0.70958 0.16182 0.04924 0.0
C96 C 0.69488 0.15279 0.01521 0.0
C97 C 0.69388 0.13943 0.98172 0.0
C98 C 0.70848 0.13621 0.98097 0.0
C99 C 0.72314 0.1452 0.01515 0.0
C100 C 0.75188 0.18214 0.09399 0.0
C101 C 0.76787 0.18589 0.12001 0.0
C102 C 0.78344 0.20298 0.12023 0.0
C103 C 0.78353 0.21676 0.09359 0.0
C104 C 0.76735 0.21323 0.06867 0.0
C105 C 0.75168 0.19618 0.06906 0.0
C106 C 0.85762 0.29397 0.13499 0.0
C107 C 0.87489 0.29767 0.1514 0.0
C108 C 0.88334 0.30842 0.19411 0.0
C109 C 0.87466 0.31579 0.22087 0.0
C110 C 0.85704 0.31144 0.20548 0.0
C111 C 0.84855 0.30055 0.16305 0.0
C112 C 0.85356 0.2961 0.04891 0.0
C113 C 0.84826 0.30935 0.04832 0.0
C114 C 0.85426 0.32222 0.01368 0.0
C115 C 0.86556 0.32202 0.97871 0.0
C116 C 0.86984 0.30801 0.97771 0.0
C117 C 0.86396 0.29526 0.01258 0.0
C118 C 0.83319 0.26784 0.08668 0.0
C119 C 0.83332 0.25145 0.08793 0.0
C120 C 0.81724 0.23492 0.08954 0.0
C121 C 0.80059 0.23444 0.09062 0.0
C122 C 0.80047 0.25095 0.08853 0.0
C123 C 0.8166 0.26748 0.08624 0.0
H124 H 0.59305 0.87356 0.00887 0.0
N125 N 0.57176 0.84245 0.04697 0.0
H126 H 0.58623 0.88569 0.93811 0.0
H127 H 0.54165 0.824 0.98384 0.0
H128 H 0.53487 0.83574 0.91215 0.0
H129 H 0.53868 0.83866 0.06218 0.0
H130 H 0.53063 0.84982 0.13346 0.0
H131 H 0.59283 0.86023 0.126 0.0
H132 H 0.58494 0.87177 0.1976 0.0
H133 H 0.59644 0.83294 0.03264 0.0
H134 H 0.54074 0.81084 0.06369 0.0
H135 H 0.59373 0.80314 0.04156 0.0
H136 H 0.5381 0.78131 0.07495 0.0
H137 H 0.58999 0.72468 0.0315 0.0
H138 H 0.5866 0.70641 0.95722 0.0
H139 H 0.52859 0.67855 0.96303 0.0
H140 H 0.5321 0.69657 0.03714 0.0
H141 H 0.52975 0.70542 0.11602 0.0
H142 H 0.51904 0.68483 0.18147 0.0
H143 H 0.57328 0.69525 0.21374 0.0
H144 H 0.58373 0.71537 0.14752 0.0
H145 H 0.59054 0.75529 0.11433 0.0
H146 H 0.59163 0.7843 0.10416 0.0
H147 H 0.53715 0.75512 0.0375 0.0
N148 N 0.56404 0.72215 0.08514 0.0
H149 H 0.53599 0.72626 0.04999 0.0
C150 C 0.56797 0.84793 0.00166 0.0
C151 C 0.58046 0.86515 0.98737 0.0
C152 C 0.57655 0.87199 0.94674 0.0
C153 C 0.55998 0.8617 0.91928 0.0
C154 C 0.54767 0.84413 0.93275 0.0
C155 C 0.5516 0.83731 0.9736 0.0
C156 C 0.56648 0.84877 0.08865 0.0
C157 C 0.54888 0.84586 0.09145 0.0
C158 C 0.54429 0.85229 0.13226 0.0
C159 C 0.55717 0.86174 0.17112 0.0
C160 C 0.57467 0.86438 0.16851 0.0
C161 C 0.57924 0.85794 0.1276 0.0
C162 C 0.56894 0.82423 0.04784 0.0
C163 C 0.58361 0.82162 0.04119 0.0
C164 C 0.58207 0.80463 0.04692 0.0
C165 C 0.56578 0.78985 0.0599 0.0
C166 C 0.55083 0.79232 0.0648 0.0
C167 C 0.55236 0.8093 0.0586 0.0
C168 C 0.56139 0.71189 0.04016 0.0
C169 C 0.57657 0.71472 0.01637 0.0
C170 C 0.57459 0.7044 0.97382 0.0
C171 C 0.55732 0.69102 0.95437 0.0
C172 C 0.54208 0.68863 0.97745 0.0
C173 C 0.54408 0.69897 0.01992 0.0
C174 C 0.55756 0.71178 0.12666 0.0
C175 C 0.53932 0.70331 0.13722 0.0
C176 C 0.53322 0.69156 0.17462 0.0
C177 C 0.54533 0.68843 0.20264 0.0
C178 C 0.56367 0.69753 0.19312 0.0
C179 C 0.56966 0.70899 0.15534 0.0
C180 C 0.56331 0.73868 0.08277 0.0
C181 C 0.57878 0.75523 0.0982 0.0
C182 C 0.57942 0.77177 0.09172 0.0
C183 C 0.56459 0.77211 0.06915 0.0
C184 C 0.54881 0.75541 0.05516 0.0
C185 C 0.54813 0.73884 0.06212 0.0
H186 H 0.8904 0.60088 0.04274 0.0
N187 N 0.85526 0.5783 0.02377 0.0
H188 H 0.91025 0.59854 0.10438 0.0
H189 H 0.84413 0.55557 0.09738 0.0
H190 H 0.86388 0.55321 0.15929 0.0
H191 H 0.84686 0.54255 0.01548 0.0
H192 H 0.85763 0.52941 0.95528 0.0
H193 H 0.8668 0.59144 0.93951 0.0
H194 H 0.8768 0.578 0.87733 0.0
H195 H 0.85065 0.60469 0.06119 0.0
H196 H 0.82102 0.5482 0.00755 0.0
H197 H 0.82246 0.6035 0.07856 0.0
H198 H 0.79268 0.54717 0.02179 0.0
H199 H 0.73528 0.60252 0.11606 0.0
H200 H 0.72089 0.60344 0.18928 0.0
H201 H 0.7169 0.55262 0.22576 0.0
H202 H 0.7312 0.5518 0.15272 0.0
H203 H 0.71384 0.53878 0.07753 0.0
H204 H 0.68612 0.52306 0.02479 0.0
H205 H 0.703 0.57231 0.95111 0.0
H206 H 0.73036 0.58808 0.00546 0.0
H207 H 0.76954 0.60258 0.05533 0.0
H208 H 0.79753 0.60284 0.04064 0.0
H209 H 0.77331 0.54693 0.07909 0.0
N210 N 0.73899 0.57518 0.08073 0.0
H211 H 0.74503 0.54656 0.09035 0.0
C212 C 0.86586 0.57851 0.06559 0.0
C213 C 0.88452 0.59073 0.06883 0.0
C214 C 0.89581 0.58927 0.10366 0.0
C215 C 0.88858 0.57559 0.13622 0.0
C216 C 0.86977 0.56394 0.13475 0.0
C217 C 0.85848 0.5653 0.0995 0.0
C218 C 0.85633 0.56819 0.98237 0.0
C219 C 0.85296 0.55021 0.98484 0.0
C220 C 0.85909 0.54265 0.95011 0.0
C221 C 0.86851 0.55282 0.91197 0.0
C222 C 0.87008 0.57 0.90697 0.0
C223 C 0.86415 0.57762 0.94205 0.0
C224 C 0.83806 0.57673 0.03248 0.0
C225 C 0.83801 0.59209 0.05262 0.0
C226 C 0.82183 0.59139 0.06216 0.0
C227 C 0.80515 0.5753 0.05101 0.0
C228 C 0.80521 0.55976 0.03132 0.0
C229 C 0.8215 0.56039 0.02257 0.0
C230 C 0.73422 0.5771 0.12862 0.0
C231 C 0.73179 0.59189 0.14069 0.0
C232 C 0.72361 0.5924 0.18256 0.0
C233 C 0.71759 0.578 0.21301 0.0
C234 C 0.7212 0.5638 0.20262 0.0
C235 C 0.72946 0.56336 0.16083 0.0
C236 C 0.72406 0.56471 0.04566 0.0
C237 C 0.71169 0.54613 0.04972 0.0
C238 C 0.69585 0.53712 0.0193 0.0
C239 C 0.69217 0.5465 0.9842 0.0
C240 C 0.70517 0.56479 0.97852 0.0
C241 C 0.72089 0.57378 0.00911 0.0
C242 C 0.75536 0.57475 0.07474 0.0
C243 C 0.77037 0.59044 0.06071 0.0
C244 C 0.7864 0.59055 0.05269 0.0
C245 C 0.78787 0.57496 0.0592 0.0
C246 C 0.7727 0.55916 0.0733 0.0
C247 C 0.75654 0.55899 0.08056 0.0
H248 H 0.17743 0.70856 0.14162 0.0
N249 N 0.16471 0.73154 0.11914 0.0
H250 H 0.17049 0.69029 0.21099 0.0
H251 H 0.14614 0.73204 0.19236 0.0
H252 H 0.13839 0.71315 0.26111 0.0
H253 H 0.13171 0.71797 0.07732 0.0
H254 H 0.11858 0.69746 0.00436 0.0
H255 H 0.18226 0.71949 0.06113 0.0
H256 H 0.16944 0.69936 0.98786 0.0
H257 H 0.19975 0.73889 0.1349 0.0
H258 H 0.16707 0.76271 0.09751 0.0
H259 H 0.22706 0.7679 0.12623 0.0
H260 H 0.19441 0.79181 0.08772 0.0
H261 H 0.29706 0.83473 0.10507 0.0
H262 H 0.32404 0.84792 0.16019 0.0
H263 H 0.31571 0.89288 0.19979 0.0
H264 H 0.28928 0.88001 0.14226 0.0
H265 H 0.27213 0.87452 0.03418 0.0
H266 H 0.28695 0.8892 0.96241 0.0
H267 H 0.30984 0.85402 0.9523 0.0
H268 H 0.29541 0.83978 0.02397 0.0
H269 H 0.27049 0.81644 0.05261 0.0
H270 H 0.2433 0.78757 0.06327 0.0
H271 H 0.2202 0.81666 0.13385 0.0
N272 N 0.27689 0.85066 0.08203 0.0
H273 H 0.24744 0.8456 0.12205 0.0
C274 C 0.16237 0.72182 0.16192 0.0
C275 C 0.16926 0.71 0.16799 0.0
C276 C 0.16508 0.69935 0.20757 0.0
C277 C 0.15375 0.70009 0.24162 0.0
C278 C 0.14736 0.71237 0.23612 0.0
C279 C 0.15168 0.72312 0.19673 0.0
C280 C 0.15788 0.72025 0.07472 0.0
C281 C 0.14 0.71402 0.05765 0.0
C282 C 0.1326 0.70242 0.01583 0.0
C283 C 0.14298 0.6968 0.99022 0.0
C284 C 0.16103 0.70329 0.00702 0.0
C285 C 0.16841 0.71488 0.04889 0.0
C286 C 0.18127 0.74865 0.1172 0.0
C287 C 0.19839 0.75034 0.12509 0.0
C288 C 0.21406 0.76696 0.11967 0.0
C289 C 0.21294 0.78219 0.10618 0.0
C290 C 0.19579 0.78045 0.09877 0.0
C291 C 0.18016 0.76385 0.10421 0.0
C292 C 0.29129 0.85658 0.11907 0.0
C293 C 0.30099 0.84739 0.12559 0.0
C294 C 0.31639 0.8549 0.15758 0.0
C295 C 0.32227 0.87163 0.18405 0.0
C296 C 0.31191 0.88024 0.17913 0.0
C297 C 0.29668 0.87283 0.14675 0.0
C298 C 0.28261 0.8561 0.03468 0.0
C299 C 0.27993 0.86966 0.01556 0.0
C300 C 0.28837 0.87799 0.97454 0.0
C301 C 0.29972 0.87288 0.95203 0.0
C302 C 0.30136 0.85839 0.96926 0.0
C303 C 0.29294 0.8501 0.01023 0.0
C304 C 0.26095 0.83327 0.0863 0.0
C305 C 0.25962 0.8167 0.07013 0.0
C306 C 0.24405 0.80012 0.07663 0.0
C307 C 0.22955 0.79978 0.09946 0.0
C308 C 0.23099 0.81641 0.11555 0.0
C309 C 0.24653 0.83295 0.10901 0.0
H310 H 0.48421 0.30971 0.07113 0.0
N311 N 0.4515 0.27922 0.08161 0.0
H312 H 0.49257 0.32778 0.00123 0.0
H313 H 0.43388 0.27001 0.99529 0.0
H314 H 0.44257 0.28733 0.92374 0.0
H315 H 0.42659 0.28766 0.10425 0.0
H316 H 0.42823 0.30806 0.17173 0.0
H317 H 0.47897 0.2964 0.15297 0.0
H318 H 0.48061 0.31652 0.22004 0.0
H319 H 0.48365 0.27962 0.09263 0.0
H320 H 0.42589 0.245 0.08833 0.0
H321 H 0.4876 0.25424 0.11498 0.0
H322 H 0.42946 0.21907 0.10617 0.0
H323 H 0.49689 0.17635 0.14836 0.0
H324 H 0.50933 0.16527 0.08698 0.0
H325 H 0.45808 0.13986 0.00318 0.0
H326 H 0.44557 0.15072 0.06539 0.0
H327 H 0.43954 0.13847 0.18433 0.0
H328 H 0.44411 0.1269 0.2593 0.0
H329 H 0.4938 0.17786 0.29417 0.0
H330 H 0.48904 0.18928 0.21861 0.0
H331 H 0.48808 0.2005 0.109 0.0
H332 H 0.48597 0.22719 0.09192 0.0
H333 H 0.43674 0.20578 0.16588 0.0
N334 N 0.46204 0.16965 0.14822 0.0
H335 H 0.43812 0.17828 0.1788 0.0
C336 C 0.45819 0.28865 0.0387 0.0
C337 C 0.47509 0.30468 0.03906 0.0
C338 C 0.47993 0.31496 0.99865 0.0
C339 C 0.46814 0.30925 0.95671 0.0
C340 C 0.45179 0.29251 0.95565 0.0
C341 C 0.44686 0.28244 0.99631 0.0
C342 C 0.45251 0.29035 0.1235 0.0
C343 C 0.43831 0.29379 0.12978 0.0
C344 C 0.4393 0.30545 0.16817 0.0
C345 C 0.45453 0.31382 0.20125 0.0
C346 C 0.46858 0.31003 0.1956 0.0
C347 C 0.46765 0.29851 0.15698 0.0
C348 C 0.45442 0.26422 0.08989 0.0
C349 C 0.4718 0.26648 0.09621 0.0
C350 C 0.47401 0.25182 0.10846 0.0
C351 C 0.45887 0.23447 0.11328 0.0
C352 C 0.44151 0.23224 0.10467 0.0
C353 C 0.43937 0.24698 0.09368 0.0
C354 C 0.47012 0.16407 0.11174 0.0
C355 C 0.48826 0.16829 0.11706 0.0
C356 C 0.49539 0.16201 0.08188 0.0
C357 C 0.48466 0.15169 0.04042 0.0
C358 C 0.4667 0.14792 0.03461 0.0
C359 C 0.45952 0.15401 0.07007 0.0
C360 C 0.46396 0.1646 0.19588 0.0
C361 C 0.45119 0.14726 0.20876 0.0
C362 C 0.45379 0.14074 0.25174 0.0
C363 C 0.46934 0.15146 0.28273 0.0
C364 C 0.48175 0.16924 0.27087 0.0
C365 C 0.47905 0.1758 0.22786 0.0
C366 C 0.46296 0.18704 0.14444 0.0
C367 C 0.47678 0.20144 0.12155 0.0
C368 C 0.47565 0.21694 0.11212 0.0
C369 C 0.46097 0.21867 0.12653 0.0
C370 C 0.4479 0.20477 0.15245 0.0
C371 C 0.44879 0.1891 0.16066 0.0
C372 C 0.03576 0.49219 0.5347 0.0
C373 C 0.02881 0.46301 0.70317 0.0
C374 C 0.97926 0.46433 0.69933 0.0
Mg375 Mg 0.02013 0.51759 0.49698 0.0
Mg376 Mg 0.01373 0.54393 0.57339 0.0
O377 O 0.00778 0.52001 0.55413 0.0
Mg378 Mg 0.01429 0.50658 0.60038 0.0
O379 O 0.02106 0.49214 0.64261 0.0
Mg380 Mg 0.00574 0.46719 0.60846 0.0
Mg381 Mg 0.01891 0.49386 0.70884 0.0
C382 C 0.99308 0.52284 0.66281 0.0
O383 O 0.03596 0.53261 0.64399 0.0
O384 O 0.0055 0.53047 0.45506 0.0
O385 O 0.03518 0.52352 0.71938 0.0
O386 O 0.04525 0.54612 0.51126 0.0
O387 O 0.00044 0.54712 0.51078 0.0
O388 O 0.0423 0.56241 0.57098 0.0
O389 O 0.99279 0.47995 0.56111 0.0
O390 O 0.99545 0.48877 0.48603 0.0
C391 C 0.98797 0.47649 0.51605 0.0
C392 C 0.99901 0.54074 0.46734 0.0
O393 O 0.99477 0.50891 0.65154 0.0
O394 O 0.02093 0.45755 0.66055 0.0
O395 O 0.00065 0.53759 0.64065 0.0
O396 O 0.98316 0.45838 0.66144 0.0
O397 O 0.02965 0.47664 0.72734 0.0
O398 O 0.99068 0.47948 0.72182 0.0
O399 O 0.03316 0.50542 0.54669 0.0
O400 O 0.02779 0.47702 0.55471 0.0
C401 C 0.05171 0.56057 0.53942 0.0
C402 C 0.04083 0.53596 0.6892 0.0
C403 C 0.50321 0.02719 0.52316 0.0
C404 C 0.55501 0.01557 0.46512 0.0
C405 C 0.52068 0.96176 0.5129 0.0
Mg406 Mg 0.47609 0.00813 0.60822 0.0
Mg407 Mg 0.48877 0.99256 0.69956 0.0
O408 O 0.48466 0.99148 0.63272 0.0
Mg409 Mg 0.50572 0.99878 0.59282 0.0
O410 O 0.5257 0.00609 0.54921 0.0
Mg411 Mg 0.51086 0.99476 0.48672 0.0
Mg412 Mg 0.54308 0.99939 0.56429 0.0
C413 C 0.50758 0.97011 0.66684 0.0
O414 O 0.52735 0.0171 0.65279 0.0
O415 O 0.4513 0.99256 0.65502 0.0
O416 O 0.54978 0.0112 0.6382 0.0
O417 O 0.49122 0.03007 0.671 0.0
O418 O 0.46122 0.9822 0.71537 0.0
O419 O 0.50382 0.02071 0.72603 0.0
O420 O 0.48557 0.98103 0.53078 0.0
O421 O 0.46317 0.98677 0.54417 0.0
C422 C 0.46993 0.97888 0.51917 0.0
C423 C 0.44871 0.98385 0.69338 0.0
O424 O 0.50934 0.97586 0.62434 0.0
O425 O 0.5384 0.00997 0.45136 0.0
O426 O 0.50108 0.97545 0.70039 0.0
O427 O 0.51338 0.96896 0.48781 0.0
O428 O 0.5598 0.013 0.50695 0.0
O429 O 0.53176 0.97059 0.54897 0.0
O430 O 0.5015 0.0214 0.56543 0.0
O431 O 0.50776 0.02009 0.48891 0.0
C432 C 0.50122 0.03308 0.70956 0.0
C433 C 0.54262 0.01833 0.66453 0.0
C434 C 0.52223 0.53449 0.67838 0.0
C435 C 0.46579 0.47469 0.728 0.0
C436 C 0.49117 0.44774 0.65696 0.0
Mg437 Mg 0.54611 0.54111 0.58647 0.0
Mg438 Mg 0.52753 0.51566 0.48609 0.0
O439 O 0.53344 0.51606 0.5517 0.0
Mg440 Mg 0.51311 0.50299 0.59384 0.0
O441 O 0.49394 0.49125 0.63988 0.0
Mg442 Mg 0.509 0.49209 0.69806 0.0
Mg443 Mg 0.47302 0.46882 0.62199 0.0
C444 C 0.50404 0.47328 0.50316 0.0
O445 O 0.49162 0.50329 0.54215 0.0
O446 O 0.56897 0.54819 0.53354 0.0
O447 O 0.466 0.47724 0.55537 0.0
O448 O 0.53328 0.55328 0.53597 0.0
O449 O 0.55507 0.52916 0.46733 0.0
O450 O 0.51692 0.5336 0.47435 0.0
O451 O 0.53283 0.50148 0.6484 0.0
O452 O 0.55736 0.52849 0.63914 0.0
C453 C 0.54941 0.51347 0.65986 0.0
C454 C 0.56934 0.54172 0.49125 0.0
O455 O 0.50542 0.47618 0.54924 0.0
O456 O 0.48287 0.4828 0.74019 0.0
O457 O 0.51012 0.48623 0.47445 0.0
O458 O 0.50156 0.46212 0.68403 0.0
O459 O 0.45934 0.4686 0.68464 0.0
O460 O 0.4794 0.44721 0.62623 0.0
O461 O 0.52177 0.53044 0.63342 0.0
O462 O 0.51701 0.52218 0.70871 0.0
C463 C 0.52255 0.54881 0.49825 0.0
C464 C 0.4748 0.49156 0.53213 0.0
H465 H 0.16521 0.49629 0.29982 0.0
H466 H 0.14778 0.50685 0.3446 0.0
H467 H 0.0983 0.45891 0.28902 0.0
H468 H 0.11544 0.44888 0.24222 0.0
H469 H 0.09361 0.48667 0.28771 0.0
H470 H 0.11888 0.46374 0.40557 0.0
H471 H 0.1433 0.46225 0.45155 0.0
H472 H 0.16621 0.51828 0.50375 0.0
H473 H 0.14203 0.52016 0.45757 0.0
H474 H 0.03248 0.46569 0.47038 0.0
H475 H 0.05444 0.46756 0.41436 0.0
H476 H 0.08928 0.52447 0.45955 0.0
H477 H 0.06695 0.52283 0.51498 0.0
H478 H 0.10475 0.49938 0.46475 0.0
H479 H 0.07411 0.51874 0.35662 0.0
H480 H 0.04771 0.51751 0.31378 0.0
H481 H 0.03298 0.4652 0.24529 0.0
H482 H 0.05903 0.4659 0.28863 0.0
C483 C 0.15062 0.4881 0.29672 0.0
C484 C 0.14179 0.47159 0.26776 0.0
C485 C 0.14066 0.49408 0.32272 0.0
C486 C 0.12169 0.48357 0.32074 0.0
C487 C 0.1129 0.46727 0.29131 0.0
C488 C 0.12279 0.4614 0.26504 0.0
C489 C 0.11081 0.48915 0.3497 0.0
C490 C 0.09605 0.48941 0.32644 0.0
C491 C 0.11422 0.49325 0.40013 0.0
C492 C 0.12881 0.49217 0.42761 0.0
C493 C 0.12923 0.47579 0.42651 0.0
C494 C 0.143 0.47486 0.45267 0.0
C495 C 0.15634 0.49018 0.4804 0.0
C496 C 0.1559 0.50645 0.48214 0.0
C497 C 0.14217 0.50745 0.45599 0.0
C498 C 0.0447 0.47868 0.46788 0.0
C499 C 0.0481 0.4941 0.49714 0.0
C500 C 0.05719 0.47973 0.43581 0.0
C501 C 0.07346 0.49613 0.433 0.0
C502 C 0.07676 0.51171 0.46129 0.0
C503 C 0.06401 0.51077 0.49267 0.0
C504 C 0.08736 0.49631 0.40283 0.0
C505 C 0.10262 0.49708 0.42588 0.0
C506 C 0.08422 0.49282 0.35237 0.0
C507 C 0.06849 0.49233 0.32621 0.0
C508 C 0.06514 0.50688 0.33283 0.0
C509 C 0.05024 0.50629 0.3084 0.0
C510 C 0.03865 0.49127 0.27691 0.0
C511 C 0.04196 0.47683 0.26971 0.0
C512 C 0.05679 0.47731 0.29424 0.0
H513 H 0.02712 0.49082 0.25803 0.0
H514 H 0.16698 0.48943 0.50066 0.0
H515 H 0.67196 0.13492 0.20559 0.0
H516 H 0.64605 0.11378 0.24791 0.0
H517 H 0.67839 0.09401 0.31681 0.0
H518 H 0.70433 0.11498 0.27366 0.0
H519 H 0.64701 0.06633 0.28344 0.0
H520 H 0.66575 0.12207 0.37838 0.0
H521 H 0.67437 0.15436 0.39329 0.0
H522 H 0.62227 0.14245 0.33354 0.0
H523 H 0.61342 0.11012 0.31768 0.0
H524 H 0.58953 0.02179 0.4698 0.0
H525 H 0.61414 0.04175 0.42182 0.0
H526 H 0.57797 0.05391 0.34047 0.0
H527 H 0.55313 0.0338 0.38822 0.0
H528 H 0.61033 0.08496 0.37783 0.0
H529 H 0.59142 0.02854 0.28651 0.0
H530 H 0.58307 0.99623 0.2743 0.0
H531 H 0.63597 0.00947 0.33073 0.0
H532 H 0.64456 0.04183 0.34393 0.0
C533 C 0.67366 0.12635 0.23055 0.0
C534 C 0.69021 0.12671 0.23663 0.0
C535 C 0.65881 0.11422 0.25463 0.0
C536 C 0.66028 0.10239 0.28592 0.0
C537 C 0.67691 0.10297 0.29277 0.0
C538 C 0.69173 0.11499 0.26828 0.0
C539 C 0.6443 0.089 0.31014 0.0
C540 C 0.63915 0.07045 0.30464 0.0
C541 C 0.63373 0.09428 0.33675 0.0
C542 C 0.63899 0.11371 0.34642 0.0
C543 C 0.65618 0.12637 0.36809 0.0
C544 C 0.6611 0.14467 0.37677 0.0
C545 C 0.64889 0.15046 0.36426 0.0
C546 C 0.63172 0.13795 0.34316 0.0
C547 C 0.62674 0.11963 0.33436 0.0
C548 C 0.58673 0.02854 0.44136 0.0
C549 C 0.56938 0.02624 0.43288 0.0
C550 C 0.6008 0.03989 0.41388 0.0
C551 C 0.59784 0.04925 0.37758 0.0
C552 C 0.58048 0.04676 0.36834 0.0
C553 C 0.56631 0.03521 0.39547 0.0
C554 C 0.61317 0.0624 0.35127 0.0
C555 C 0.61819 0.08088 0.35645 0.0
C556 C 0.62368 0.05706 0.32472 0.0
C557 C 0.61858 0.0376 0.31662 0.0
C558 C 0.60123 0.02455 0.29671 0.0
C559 C 0.59646 0.00623 0.28952 0.0
C560 C 0.60897 0.0008 0.30184 0.0
C561 C 0.62629 0.01369 0.32124 0.0
C562 C 0.63112 0.03203 0.32853 0.0
H563 H 0.60525 0.98661 0.29627 0.0
H564 H 0.65272 0.16464 0.37101 0.0
H565 H 0.55976 0.69291 0.29476 0.0
H566 H 0.5515 0.6697 0.35296 0.0
H567 H 0.50862 0.63024 0.25257 0.0
H568 H 0.51656 0.65361 0.19471 0.0
H569 H 0.49804 0.62443 0.34152 0.0
H570 H 0.55018 0.633 0.26334 0.0
H571 H 0.58086 0.65035 0.23543 0.0
H572 H 0.60298 0.6676 0.38157 0.0
H573 H 0.57238 0.65056 0.41032 0.0
H574 H 0.50099 0.545 0.41775 0.0
H575 H 0.49952 0.56939 0.37766 0.0
H576 H 0.53362 0.60812 0.49385 0.0
H577 H 0.53492 0.58385 0.53472 0.0
H578 H 0.54777 0.61454 0.40022 0.0
H579 H 0.49497 0.60725 0.47694 0.0
H580 H 0.46387 0.59118 0.5028 0.0
H581 H 0.44329 0.56962 0.35755 0.0
H582 H 0.47426 0.58602 0.33063 0.0
C583 C 0.54844 0.67933 0.28537 0.0
C584 C 0.53891 0.67502 0.24005 0.0
C585 C 0.54374 0.66606 0.31858 0.0
C586 C 0.52969 0.64808 0.30678 0.0
C587 C 0.51955 0.64398 0.26249 0.0
C588 C 0.52409 0.65734 0.22945 0.0
C589 C 0.52638 0.63337 0.33926 0.0
C590 C 0.5089 0.62218 0.35396 0.0
C591 C 0.54054 0.63048 0.3561 0.0
C592 C 0.55897 0.64067 0.33894 0.0
C593 C 0.56157 0.6406 0.2895 0.0
C594 C 0.57895 0.65036 0.27353 0.0
C595 C 0.59385 0.66011 0.3067 0.0
C596 C 0.59141 0.66007 0.35592 0.0
C597 C 0.57406 0.65036 0.37207 0.0
C598 C 0.50778 0.5586 0.43548 0.0
C599 C 0.5184 0.5625 0.47899 0.0
C600 C 0.50684 0.57252 0.41259 0.0
C601 C 0.51658 0.59058 0.43262 0.0
C602 C 0.52603 0.59427 0.47776 0.0
C603 C 0.5268 0.58035 0.50097 0.0
C604 C 0.51953 0.60582 0.4029 0.0
C605 C 0.53697 0.61696 0.38817 0.0
C606 C 0.50533 0.60846 0.38564 0.0
C607 C 0.48688 0.59776 0.40188 0.0
C608 C 0.48381 0.599 0.4506 0.0
C609 C 0.4662 0.58999 0.46535 0.0
C610 C 0.45161 0.57943 0.43182 0.0
C611 C 0.4546 0.57787 0.38344 0.0
C612 C 0.47215 0.58712 0.36836 0.0
H613 H 0.43801 0.5724 0.44337 0.0
H614 H 0.60729 0.66765 0.29427 0.0
H615 H 0.88622 0.57075 0.23254 0.0
H616 H 0.90634 0.56553 0.28645 0.0
H617 H 0.93823 0.56837 0.168 0.0
H618 H 0.91822 0.57361 0.11406 0.0
H619 H 0.92919 0.53832 0.22485 0.0
H620 H 0.95465 0.6035 0.24403 0.0
H621 H 0.9537 0.63178 0.26055 0.0
H622 H 0.9364 0.61568 0.40152 0.0
H623 H 0.93699 0.58716 0.38556 0.0
H624 H 0.00095 0.5402 0.36932 0.0
H625 H 0.98364 0.5471 0.31006 0.0
H626 H 0.95618 0.55664 0.4242 0.0
H627 H 0.97386 0.55055 0.48326 0.0
H628 H 0.9643 0.5814 0.36533 0.0
H629 H 0.93665 0.51605 0.34768 0.0
H630 H 0.93584 0.48676 0.33326 0.0
H631 H 0.95493 0.50154 0.19305 0.0
H632 H 0.95607 0.53104 0.20691 0.0
C633 C 0.89752 0.57026 0.21812 0.0
C634 C 0.90077 0.57272 0.16931 0.0
C635 C 0.90901 0.56734 0.24887 0.0
C636 C 0.92379 0.56667 0.23112 0.0
C637 C 0.92691 0.56889 0.1823 0.0
C638 C 0.91557 0.57202 0.1517 0.0
C639 C 0.93602 0.56367 0.26357 0.0
C640 C 0.93709 0.54783 0.25524 0.0
C641 C 0.94595 0.57592 0.30366 0.0
C642 C 0.94571 0.59312 0.31342 0.0
C643 C 0.9505 0.60592 0.2784 0.0
C644 C 0.95006 0.62201 0.28769 0.0
C645 C 0.94496 0.62551 0.33201 0.0
C646 C 0.94033 0.61294 0.36718 0.0
C647 C 0.94074 0.59682 0.35805 0.0
C648 C 0.99123 0.5438 0.38162 0.0
C649 C 0.98877 0.54484 0.43089 0.0
C650 C 0.98129 0.54766 0.34777 0.0
C651 C 0.96842 0.55218 0.36259 0.0
C652 C 0.96606 0.55327 0.41182 0.0
C653 C 0.97618 0.54975 0.44558 0.0
C654 C 0.95733 0.55582 0.32729 0.0
C655 C 0.9565 0.57186 0.33492 0.0
C656 C 0.94738 0.54358 0.28701 0.0
C657 C 0.94664 0.52583 0.27855 0.0
C658 C 0.9408 0.51311 0.31392 0.0
C659 C 0.94026 0.49646 0.30583 0.0
C660 C 0.94538 0.49232 0.26233 0.0
C661 C 0.951 0.50479 0.22677 0.0
C662 C 0.95159 0.52146 0.2347 0.0
H663 H 0.94496 0.47942 0.25614 0.0
H664 H 0.94462 0.63797 0.33914 0.0
H665 H 0.33656 0.85547 0.24107 0.0
H666 H 0.36505 0.87043 0.29099 0.0
H667 H 0.37503 0.92285 0.2486 0.0
H668 H 0.34731 0.908 0.19646 0.0
H669 H 0.40504 0.9226 0.25032 0.0
H670 H 0.35734 0.90509 0.35864 0.0
H671 H 0.32979 0.88382 0.39689 0.0
H672 H 0.3554 0.85424 0.44513 0.0
H673 H 0.38305 0.87523 0.40661 0.0
H674 H 0.44729 0.98355 0.45854 0.0
H675 H 0.4263 0.96207 0.39404 0.0
H676 H 0.44617 0.92526 0.4209 0.0
H677 H 0.46782 0.94714 0.48478 0.0
H678 H 0.40446 0.9131 0.42465 0.0
H679 H 0.4548 0.93639 0.32628 0.0
H680 H 0.48198 0.96063 0.29286 0.0
H681 H 0.45058 0.98222 0.23006 0.0
H682 H 0.42325 0.95828 0.26379 0.0
C683 C 0.34493 0.87016 0.24185 0.0
C684 C 0.33948 0.88052 0.21504 0.0
C685 C 0.36116 0.87872 0.2708 0.0
C686 C 0.37211 0.89781 0.2741 0.0
C687 C 0.36683 0.90811 0.24676 0.0
C688 C 0.35079 0.89959 0.21746 0.0
C689 C 0.38882 0.9073 0.30685 0.0
C690 C 0.40488 0.92047 0.28841 0.0
C691 C 0.38881 0.90428 0.35644 0.0
C692 C 0.37215 0.89156 0.37916 0.0
C693 C 0.35703 0.89395 0.37701 0.0
C694 C 0.34141 0.88196 0.39882 0.0
C695 C 0.34082 0.86764 0.42326 0.0
C696 C 0.35586 0.8653 0.42605 0.0
C697 C 0.37151 0.87724 0.40425 0.0
C698 C 0.44742 0.97103 0.45013 0.0
C699 C 0.45907 0.96692 0.47663 0.0
C700 C 0.43547 0.95882 0.4133 0.0
C701 C 0.43473 0.94215 0.40295 0.0
C702 C 0.44666 0.93814 0.42844 0.0
C703 C 0.459 0.95062 0.46464 0.0
C704 C 0.42035 0.92856 0.36816 0.0
C705 C 0.4047 0.91475 0.38626 0.0
C706 C 0.42062 0.93124 0.31854 0.0
C707 C 0.43699 0.9456 0.29788 0.0
C708 C 0.45371 0.9464 0.30571 0.0
C709 C 0.46914 0.96007 0.28663 0.0
C710 C 0.46801 0.97298 0.25942 0.0
C711 C 0.45143 0.97221 0.25115 0.0
C712 C 0.43596 0.95858 0.27019 0.0
H713 H 0.47997 0.98355 0.24468 0.0
H714 H 0.32872 0.85839 0.44017 0.0
H715 H 0.46607 0.31709 0.29625 0.0
H716 H 0.47214 0.34174 0.35663 0.0
H717 H 0.45368 0.3661 0.25235 0.0
H718 H 0.44766 0.34165 0.19202 0.0
H719 H 0.4885 0.38962 0.29654 0.0
H720 H 0.42847 0.34648 0.34054 0.0
H721 H 0.40505 0.31702 0.36689 0.0
H722 H 0.43787 0.32521 0.49649 0.0
H723 H 0.46162 0.35462 0.47056 0.0
H724 H 0.48645 0.46092 0.41496 0.0
H725 H 0.47581 0.43118 0.37327 0.0
H726 H 0.49179 0.41319 0.49896 0.0
H727 H 0.5021 0.44307 0.5418 0.0
H728 H 0.46046 0.38541 0.45115 0.0
H729 H 0.5198 0.42825 0.41148 0.0
H730 H 0.54415 0.4576 0.38721 0.0
H731 H 0.51453 0.44949 0.25167 0.0
H732 H 0.48986 0.42021 0.27542 0.0
C733 C 0.46315 0.32762 0.28645 0.0
C734 C 0.45642 0.32748 0.23942 0.0
C735 C 0.46651 0.3416 0.321 0.0
C736 C 0.46332 0.35569 0.30888 0.0
C737 C 0.45617 0.3553 0.26238 0.0
C738 C 0.45264 0.34127 0.22805 0.0
C739 C 0.46879 0.37168 0.34305 0.0
C740 C 0.48225 0.38872 0.33011 0.0
C741 C 0.46118 0.37033 0.3878 0.0
C742 C 0.44691 0.35265 0.40332 0.0
C743 C 0.43078 0.34192 0.37442 0.0
C744 C 0.41742 0.32524 0.38933 0.0
C745 C 0.42 0.31922 0.43326 0.0
C746 C 0.43591 0.32988 0.46243 0.0
C747 C 0.44932 0.34655 0.44765 0.0
C748 C 0.48753 0.45059 0.43401 0.0
C749 C 0.49545 0.45442 0.48127 0.0
C750 C 0.48144 0.43359 0.41013 0.0
C751 C 0.48348 0.42016 0.43255 0.0
C752 C 0.49026 0.42345 0.48089 0.0
C753 C 0.49616 0.4405 0.50525 0.0
C754 C 0.47974 0.40341 0.40372 0.0
C755 C 0.46679 0.38627 0.41773 0.0
C756 C 0.48802 0.40456 0.36011 0.0
C757 C 0.50292 0.42208 0.34539 0.0
C758 C 0.51843 0.43278 0.37661 0.0
C759 C 0.53229 0.4494 0.36294 0.0
C760 C 0.53087 0.45542 0.31796 0.0
C761 C 0.51561 0.44481 0.28651 0.0
C762 C 0.50169 0.42819 0.30004 0.0
H763 H 0.54162 0.4683 0.30745 0.0
H764 H 0.40964 0.30631 0.44475 0.0
H765 H 0.58187 0.8835 0.85214 0.0
H766 H 0.57481 0.90012 0.79346 0.0
H767 H 0.52019 0.87507 0.83638 0.0
H768 H 0.52717 0.8587 0.89566 0.0
H769 H 0.52182 0.87811 0.73731 0.0
H770 H 0.55112 0.91605 0.88541 0.0
H771 H 0.57594 0.93147 0.94893 0.0
H772 H 0.61285 0.96098 0.84326 0.0
H773 H 0.58827 0.94551 0.779 0.0
H774 H 0.49058 0.94054 0.7188 0.0
H775 H 0.50161 0.92032 0.74411 0.0
H776 H 0.54976 0.95082 0.66905 0.0
H777 H 0.53859 0.971 0.643 0.0
H778 H 0.55525 0.94541 0.76976 0.0
H779 H 0.52494 0.91186 0.62351 0.0
H780 H 0.49993 0.89761 0.56047 0.0
H781 H 0.4654 0.86052 0.65983 0.0
H782 H 0.49012 0.87482 0.72389 0.0
C783 C 0.56832 0.88144 0.84895 0.0
C784 C 0.55514 0.86988 0.87908 0.0
C785 C 0.56429 0.89088 0.81518 0.0
C786 C 0.54703 0.88897 0.81088 0.0
C787 C 0.53358 0.87669 0.83895 0.0
C788 C 0.5376 0.8673 0.87281 0.0
C789 C 0.54331 0.90087 0.78053 0.0
C790 C 0.52912 0.89282 0.74435 0.0
C791 C 0.5532 0.92012 0.78875 0.0
C792 C 0.56793 0.92946 0.82737 0.0
C793 C 0.56457 0.92571 0.87569 0.0
C794 C 0.57858 0.93447 0.91183 0.0
C795 C 0.59598 0.94715 0.90012 0.0
C796 C 0.59938 0.95112 0.85226 0.0
C797 C 0.58542 0.94237 0.81597 0.0
C798 C 0.50339 0.94275 0.70714 0.0
C799 C 0.51365 0.95715 0.67852 0.0
C800 C 0.50964 0.93119 0.72146 0.0
C801 C 0.52643 0.93403 0.70816 0.0
C802 C 0.5367 0.94835 0.67932 0.0
C803 C 0.53026 0.95973 0.66415 0.0
C804 C 0.53351 0.92262 0.72742 0.0
C805 C 0.54827 0.93075 0.76176 0.0
C806 C 0.52422 0.9035 0.71729 0.0
C807 C 0.50937 0.89453 0.67869 0.0
C808 C 0.51198 0.90076 0.63209 0.0
C809 C 0.49785 0.89267 0.59614 0.0
C810 C 0.48106 0.87821 0.6062 0.0
C811 C 0.47841 0.87175 0.65214 0.0
C812 C 0.49249 0.87984 0.6883 0.0
H813 H 0.47012 0.87197 0.57837 0.0
H814 H 0.60681 0.95392 0.92815 0.0
H815 H 0.67212 0.5112 0.94399 0.0
H816 H 0.64282 0.49726 0.89747 0.0
H817 H 0.64315 0.54825 0.913 0.0
H818 H 0.6718 0.56192 0.96094 0.0
H819 H 0.61055 0.52099 0.92485 0.0
H820 H 0.65625 0.53435 0.80999 0.0
H821 H 0.68072 0.53146 0.77466 0.0
H822 H 0.64551 0.47355 0.75042 0.0
H823 H 0.6209 0.4761 0.78614 0.0
H824 H 0.57634 0.5399 0.71933 0.0
H825 H 0.59471 0.53648 0.7825 0.0
H826 H 0.56427 0.47803 0.75428 0.0
H827 H 0.5453 0.48134 0.69095 0.0
H828 H 0.6059 0.49815 0.75525 0.0
H829 H 0.55779 0.48834 0.85126 0.0
H830 H 0.5342 0.494 0.88107 0.0
H831 H 0.57479 0.5477 0.93728 0.0
H832 H 0.59861 0.54251 0.90701 0.0
C833 C 0.66584 0.51936 0.93788 0.0
C834 C 0.67444 0.53776 0.95569 0.0
C835 C 0.64914 0.5114 0.91107 0.0
C836 C 0.64083 0.52175 0.90142 0.0
C837 C 0.64926 0.53997 0.91999 0.0
C838 C 0.66581 0.54787 0.94684 0.0
C839 C 0.62375 0.51415 0.87048 0.0
C840 C 0.60948 0.51587 0.88787 0.0
C841 C 0.62207 0.50689 0.82266 0.0
C842 C 0.63685 0.50537 0.80132 0.0
C843 C 0.65379 0.52098 0.79748 0.0
C844 C 0.66767 0.51941 0.77732 0.0
C845 C 0.66469 0.50232 0.76048 0.0
C846 C 0.64781 0.48677 0.76361 0.0
C847 C 0.6339 0.48827 0.7838 0.0
C848 C 0.57343 0.52628 0.72666 0.0
C849 C 0.5595 0.51088 0.70001 0.0
C850 C 0.58389 0.52436 0.7629 0.0
C851 C 0.58082 0.50703 0.77292 0.0
C852 C 0.56678 0.49151 0.74693 0.0
C853 C 0.55598 0.49341 0.71103 0.0
C854 C 0.59318 0.50579 0.80915 0.0
C855 C 0.60663 0.50252 0.7928 0.0
C856 C 0.59424 0.51188 0.85771 0.0
C857 C 0.58 0.51502 0.87673 0.0
C858 C 0.56168 0.50139 0.86974 0.0
C859 C 0.54827 0.50451 0.88674 0.0
C860 C 0.553 0.52119 0.91107 0.0
C861 C 0.57115 0.53477 0.91849 0.0
C862 C 0.58462 0.53173 0.90147 0.0
H863 H 0.54259 0.52359 0.92418 0.0
H864 H 0.67545 0.50113 0.74486 0.0
H865 H 0.11997 0.69586 0.91723 0.0
H866 H 0.10416 0.67219 0.85154 0.0
H867 H 0.13141 0.64409 0.90122 0.0
H868 H 0.14714 0.66755 0.96699 0.0
H869 H 0.12865 0.64319 0.80275 0.0
H870 H 0.08957 0.63201 0.9341 0.0
H871 H 0.07306 0.64012 0.99124 0.0
H872 H 0.04367 0.64719 0.87354 0.0
H873 H 0.06022 0.63937 0.81571 0.0
H874 H 0.06894 0.5484 0.75652 0.0
H875 H 0.08798 0.57974 0.79157 0.0
H876 H 0.05851 0.59747 0.70085 0.0
H877 H 0.03958 0.56611 0.66503 0.0
H878 H 0.0619 0.60703 0.80546 0.0
H879 H 0.09706 0.61297 0.67404 0.0
H880 H 0.11283 0.60397 0.6168 0.0
H881 H 0.14892 0.60638 0.73228 0.0
H882 H 0.13316 0.61512 0.79043 0.0
C883 C 0.12264 0.68467 0.91403 0.0
C884 C 0.1347 0.68351 0.94759 0.0
C885 C 0.11367 0.67122 0.87636 0.0
C886 C 0.11648 0.6563 0.8718 0.0
C887 C 0.1291 0.65553 0.90395 0.0
C888 C 0.13809 0.66897 0.94153 0.0
C889 C 0.10536 0.64073 0.83611 0.0
C890 C 0.11406 0.63528 0.80333 0.0
C891 C 0.08627 0.63072 0.83589 0.0
C892 C 0.07628 0.63534 0.87064 0.0
C893 C 0.07969 0.63544 0.92044 0.0
C894 C 0.07031 0.63996 0.95293 0.0
C895 C 0.05737 0.64423 0.93603 0.0
C896 C 0.05374 0.64393 0.88658 0.0
C897 C 0.06311 0.63945 0.85394 0.0
C898 C 0.0667 0.55904 0.74367 0.0
C899 C 0.05298 0.55497 0.70782 0.0
C900 C 0.07759 0.57689 0.76351 0.0
C901 C 0.07468 0.59086 0.74847 0.0
C902 C 0.06101 0.58686 0.71253 0.0
C903 C 0.05035 0.56903 0.69192 0.0
C904 C 0.08524 0.60929 0.7731 0.0
C905 C 0.07644 0.61522 0.80401 0.0
C906 C 0.10419 0.61972 0.77145 0.0
C907 C 0.11383 0.61457 0.7367 0.0
C908 C 0.10826 0.61143 0.68734 0.0
C909 C 0.11722 0.60641 0.65469 0.0
C910 C 0.13186 0.60458 0.67091 0.0
C911 C 0.13758 0.60781 0.71979 0.0
C912 C 0.12865 0.61282 0.75261 0.0
H913 H 0.13878 0.60068 0.64559 0.0
H914 H 0.05011 0.64772 0.96124 0.0
H915 H 0.50319 0.1337 0.0559 0.0
H916 H 0.51236 0.11878 0.99559 0.0
H917 H 0.49175 0.13822 0.88255 0.0
H918 H 0.48215 0.15275 0.94287 0.0
H919 H 0.47915 0.1038 0.86632 0.0
H920 H 0.53836 0.15433 0.90831 0.0
H921 H 0.56494 0.17596 0.96162 0.0
H922 H 0.57132 0.13183 0.00889 0.0
H923 H 0.54465 0.10989 0.95632 0.0
H924 H 0.5022 0.06406 0.68156 0.0
H925 H 0.50662 0.08992 0.73402 0.0
H926 H 0.51942 0.06748 0.85536 0.0
H927 H 0.51547 0.04173 0.80305 0.0
H928 H 0.53794 0.10567 0.86305 0.0
H929 H 0.47695 0.05536 0.82878 0.0
H930 H 0.4507 0.03349 0.7748 0.0
H931 H 0.4479 0.07777 0.71387 0.0
H932 H 0.47436 0.09992 0.76691 0.0
C933 C 0.50093 0.13506 0.01817 0.0
C934 C 0.49189 0.14429 0.004 0.0
C935 C 0.50625 0.1266 0.98369 0.0
C936 C 0.50292 0.1275 0.93441 0.0
C937 C 0.49446 0.1373 0.92032 0.0
C938 C 0.48894 0.14556 0.95475 0.0
C939 C 0.50654 0.11674 0.89772 0.0
C940 C 0.49216 0.10458 0.86505 0.0
C941 C 0.52335 0.11728 0.89681 0.0
C942 C 0.53937 0.13044 0.92866 0.0
C943 C 0.54533 0.14921 0.93038 0.0
C944 C 0.56044 0.16153 0.96039 0.0
C945 C 0.56979 0.15527 0.98869 0.0
C946 C 0.56406 0.13666 0.98698 0.0
C947 C 0.54896 0.12428 0.95702 0.0
C948 C 0.50641 0.06483 0.71917 0.0
C949 C 0.50801 0.05058 0.73841 0.0
C950 C 0.50894 0.07964 0.74905 0.0
C951 C 0.51284 0.08032 0.7987 0.0
C952 C 0.51627 0.06712 0.81717 0.0
C953 C 0.51392 0.05236 0.7872 0.0
C954 C 0.51062 0.09302 0.83193 0.0
C955 C 0.52511 0.10529 0.86407 0.0
C956 C 0.49391 0.09262 0.8326 0.0
C957 C 0.47777 0.0793 0.80139 0.0
C958 C 0.47081 0.06043 0.80363 0.0
C959 C 0.4559 0.04799 0.77321 0.0
C960 C 0.44768 0.05424 0.74079 0.0
C961 C 0.45431 0.07295 0.7389 0.0
C962 C 0.46926 0.08545 0.76915 0.0
H963 H 0.43614 0.04459 0.71724 0.0
H964 H 0.5815 0.16483 0.01188 0.0
H965 H 0.33142 0.4599 0.9465 0.0
H966 H 0.35521 0.46208 0.89631 0.0
H967 H 0.38799 0.46666 0.02362 0.0
H968 H 0.36435 0.46452 0.07385 0.0
H969 H 0.40727 0.49202 0.95631 0.0
H970 H 0.36695 0.4275 0.96156 0.0
H971 H 0.33739 0.39911 0.95298 0.0
H972 H 0.33178 0.40657 0.80321 0.0
H973 H 0.3612 0.43517 0.81107 0.0
H974 H 0.47163 0.48008 0.82686 0.0
H975 H 0.44977 0.47718 0.885 0.0
H976 H 0.40921 0.46294 0.76849 0.0
H977 H 0.43055 0.46521 0.71088 0.0
H978 H 0.39462 0.4416 0.83607 0.0
H979 H 0.43312 0.50654 0.82971 0.0
H980 H 0.46208 0.53561 0.83626 0.0
H981 H 0.47056 0.52836 0.98464 0.0
H982 H 0.44173 0.49911 0.97879 0.0
C983 C 0.34373 0.46143 0.96367 0.0
C984 C 0.34597 0.46186 0.01397 0.0
C985 C 0.35726 0.46261 0.93506 0.0
C986 C 0.37329 0.4644 0.95632 0.0
C987 C 0.37571 0.46523 0.00655 0.0
C988 C 0.36214 0.46386 0.03511 0.0
C989 C 0.38745 0.46518 0.9261 0.0
C990 C 0.40462 0.48091 0.93042 0.0
C991 C 0.38386 0.45081 0.89189 0.0
C992 C 0.36621 0.43356 0.88702 0.0
C993 C 0.35935 0.42317 0.92689 0.0
C994 C 0.34263 0.40702 0.92214 0.0
C995 C 0.33269 0.40106 0.8776 0.0
C996 C 0.33948 0.41121 0.8377 0.0
C997 C 0.35618 0.42738 0.84227 0.0
C998 C 0.45804 0.47629 0.81375 0.0
C999 C 0.45287 0.47286 0.76419 0.0
C1000 C 0.44557 0.47471 0.84698 0.0
C1001 C 0.42785 0.47 0.83113 0.0
C1002 C 0.42274 0.4665 0.78172 0.0
C1003 C 0.43504 0.46785 0.74873 0.0
C1004 C 0.41445 0.46863 0.86537 0.0
C1005 C 0.39738 0.45272 0.86202 0.0
C1006 C 0.41809 0.48295 0.90004 0.0
C1007 C 0.43538 0.50054 0.90365 0.0
C1008 C 0.44123 0.51108 0.86363 0.0
C1009 C 0.45761 0.5276 0.86723 0.0
C1010 C 0.46818 0.5338 0.9108 0.0
C1011 C 0.46237 0.52352 0.95089 0.0
C1012 C 0.44601 0.50698 0.94746 0.0
H1013 H 0.48085 0.54659 0.91351 0.0
H1014 H 0.31975 0.38856 0.874 0.0
H1015 H 0.90005 0.33856 0.95024 0.0
H1016 H 0.91458 0.36433 0.90066 0.0
H1017 H 0.86536 0.36649 0.88554 0.0
H1018 H 0.85035 0.33999 0.93361 0.0
H1019 H 0.88114 0.37253 0.80212 0.0
H1020 H 0.89974 0.39679 0.96389 0.0
H1021 H 0.9115 0.39886 0.04751 0.0
H1022 H 0.96202 0.4082 0.99787 0.0
H1023 H 0.95047 0.40591 0.91387 0.0
H1024 H 0.9647 0.47223 0.77633 0.0
H1025 H 0.93986 0.45039 0.82099 0.0
H1026 H 0.93107 0.40686 0.71801 0.0
H1027 H 0.95527 0.42854 0.67258 0.0
H1028 H 0.93996 0.42504 0.8665 0.0
H1029 H 0.89033 0.37055 0.71672 0.0
H1030 H 0.87745 0.36978 0.63532 0.0
H1031 H 0.88651 0.42389 0.66499 0.0
H1032 H 0.89921 0.42492 0.74678 0.0
C1033 C 0.89213 0.34421 0.93567 0.0
C1034 C 0.87398 0.33713 0.94603 0.0
C1035 C 0.90056 0.35915 0.9078 0.0
C1036 C 0.89118 0.36759 0.89014 0.0
C1037 C 0.87291 0.36029 0.89911 0.0
C1038 C 0.8644 0.34523 0.9269 0.0
C1039 C 0.90069 0.38416 0.86299 0.0
C1040 C 0.89394 0.38409 0.81619 0.0
C1041 C 0.91709 0.39953 0.88199 0.0
C1042 C 0.92419 0.40108 0.93253 0.0
C1043 C 0.91332 0.39918 0.97077 0.0
C1044 C 0.91995 0.4004 0.01825 0.0
C1045 C 0.93749 0.40363 0.02799 0.0
C1046 C 0.94844 0.40569 0.99027 0.0
C1047 C 0.94186 0.40446 0.94271 0.0
C1048 C 0.95715 0.45808 0.76253 0.0
C1049 C 0.96214 0.45213 0.72113 0.0
C1050 C 0.94297 0.44559 0.78818 0.0
C1051 C 0.93352 0.42692 0.77301 0.0
C1052 C 0.93784 0.42118 0.73016 0.0
C1053 C 0.95184 0.43365 0.70425 0.0
C1054 C 0.92084 0.41315 0.80461 0.0
C1055 C 0.92701 0.4137 0.85244 0.0
C1056 C 0.90373 0.39847 0.78683 0.0
C1057 C 0.89582 0.39784 0.73788 0.0
C1058 C 0.88946 0.38224 0.70603 0.0
C1059 C 0.88222 0.38177 0.65976 0.0
C1060 C 0.88119 0.39678 0.64497 0.0
C1061 C 0.88736 0.41229 0.67645 0.0
C1062 C 0.89461 0.41283 0.72275 0.0
H1063 H 0.8756 0.3964 0.60912 0.0
H1064 H 0.9426 0.40457 0.06478 0.0
H1065 H 0.85823 0.51788 0.87612 0.0
H1066 H 0.87669 0.50794 0.83367 0.0
H1067 H 0.92008 0.56376 0.83745 0.0
H1068 H 0.90209 0.57372 0.88044 0.0
H1069 H 0.9148 0.54601 0.74995 0.0
H1070 H 0.92011 0.53496 0.91789 0.0
H1071 H 0.90812 0.52083 0.99333 0.0
H1072 H 0.88628 0.46755 0.92144 0.0
H1073 H 0.89794 0.48139 0.84536 0.0
H1074 H 0.99544 0.55071 0.71965 0.0
H1075 H 0.97153 0.55059 0.7642 0.0
H1076 H 0.93819 0.49252 0.73182 0.0
H1077 H 0.96238 0.49249 0.6874 0.0
H1078 H 0.93379 0.50565 0.82543 0.0
H1079 H 0.9318 0.5171 0.65939 0.0
H1080 H 0.94489 0.53167 0.58527 0.0
H1081 H 0.96047 0.58423 0.65362 0.0
H1082 H 0.94775 0.57001 0.72844 0.0
C1083 C 0.87169 0.52804 0.86779 0.0
C1084 C 0.8786 0.54663 0.88157 0.0
C1085 C 0.8822 0.52232 0.84352 0.0
C1086 C 0.8998 0.53511 0.8327 0.0
C1087 C 0.9065 0.55367 0.8452 0.0
C1088 C 0.89609 0.55936 0.8695 0.0
C1089 C 0.91163 0.52945 0.80929 0.0
C1090 C 0.91893 0.53719 0.76648 0.0
C1091 C 0.91663 0.51749 0.83011 0.0
C1092 C 0.90969 0.5092 0.87583 0.0
C1093 C 0.91261 0.52023 0.91808 0.0
C1094 C 0.9059 0.51228 0.96097 0.0
C1095 C 0.89639 0.4933 0.96214 0.0
C1096 C 0.89361 0.48225 0.92045 0.0
C1097 C 0.90027 0.49014 0.87745 0.0
C1098 C 0.98321 0.53782 0.72299 0.0
C1099 C 0.98061 0.52167 0.69928 0.0
C1100 C 0.96956 0.53778 0.74844 0.0
C1101 C 0.95294 0.52164 0.75012 0.0
C1102 C 0.95089 0.50514 0.73051 0.0
C1103 C 0.96471 0.50514 0.70524 0.0
C1104 C 0.93735 0.52275 0.76717 0.0
C1105 C 0.92934 0.51415 0.80846 0.0
C1106 C 0.93161 0.5339 0.74496 0.0
C1107 C 0.9389 0.54248 0.69963 0.0
C1108 C 0.9381 0.53178 0.6587 0.0
C1109 C 0.94545 0.53997 0.61656 0.0
C1110 C 0.95352 0.55887 0.61475 0.0
C1111 C 0.95421 0.56959 0.65506 0.0
C1112 C 0.94691 0.56147 0.69734 0.0
H1113 H 0.95922 0.56519 0.58211 0.0
H1114 H 0.8912 0.48717 0.99538 0.0
H1115 H 0.33553 0.88506 0.94763 0.0
H1116 H 0.35605 0.9059 0.89248 0.0
H1117 H 0.31181 0.90768 0.81844 0.0
H1118 H 0.29092 0.88657 0.87396 0.0
H1119 H 0.33962 0.9043 0.758 0.0
H1120 H 0.33408 0.94174 0.88167 0.0
H1121 H 0.33231 0.95088 0.96541 0.0
H1122 H 0.38561 0.96021 0.00208 0.0
H1123 H 0.38757 0.95083 0.91873 0.0
H1124 H 0.41608 0.97764 0.65167 0.0
H1125 H 0.38636 0.96134 0.68516 0.0
H1126 H 0.41126 0.95381 0.81319 0.0
H1127 H 0.4406 0.97003 0.78084 0.0
H1128 H 0.38732 0.96381 0.83574 0.0
H1129 H 0.39015 0.92029 0.72082 0.0
H1130 H 0.39241 0.90927 0.63961 0.0
H1131 H 0.34504 0.91042 0.58812 0.0
H1132 H 0.34264 0.92166 0.66898 0.0
C1133 C 0.33002 0.88952 0.91903 0.0
C1134 C 0.31157 0.88409 0.91502 0.0
C1135 C 0.3418 0.90152 0.88774 0.0
C1136 C 0.33543 0.90835 0.85165 0.0
C1137 C 0.31693 0.90251 0.84613 0.0
C1138 C 0.30508 0.89056 0.87793 0.0
C1139 C 0.34861 0.92241 0.82218 0.0
C1140 C 0.3498 0.91755 0.77437 0.0
C1141 C 0.36192 0.93956 0.84389 0.0
C1142 C 0.36093 0.94551 0.89395 0.0
C1143 C 0.34537 0.94563 0.90765 0.0
C1144 C 0.34434 0.95087 0.95505 0.0
C1145 C 0.35883 0.95611 0.98906 0.0
C1146 C 0.3744 0.95616 0.9757 0.0
C1147 C 0.37549 0.95091 0.92835 0.0
C1148 C 0.41519 0.97264 0.68713 0.0
C1149 C 0.43073 0.97506 0.71339 0.0
C1150 C 0.39821 0.96328 0.7061 0.0
C1151 C 0.39659 0.95629 0.7516 0.0
C1152 C 0.41216 0.95913 0.77812 0.0
C1153 C 0.42897 0.96835 0.75932 0.0
C1154 C 0.37885 0.94544 0.7721 0.0
C1155 C 0.37682 0.95088 0.8185 0.0
C1156 C 0.3649 0.92879 0.74916 0.0
C1157 C 0.36637 0.92205 0.70069 0.0
C1158 C 0.38031 0.91834 0.69206 0.0
C1159 C 0.3816 0.91202 0.64614 0.0
C1160 C 0.36892 0.90921 0.60868 0.0
C1161 C 0.35489 0.91265 0.61713 0.0
C1162 C 0.35355 0.91899 0.66298 0.0
H1163 H 0.36993 0.90431 0.57316 0.0
H1164 H 0.35801 0.96015 0.02574 0.0
H1165 H 0.44436 0.31386 0.89803 0.0
H1166 H 0.4511 0.33471 0.83451 0.0
H1167 H 0.50792 0.35369 0.86002 0.0
H1168 H 0.50131 0.3322 0.92246 0.0
H1169 H 0.49905 0.38167 0.86074 0.0
H1170 H 0.48773 0.32954 0.7597 0.0
H1171 H 0.47059 0.29741 0.72756 0.0
H1172 H 0.42628 0.30447 0.67979 0.0
H1173 H 0.44305 0.33657 0.7123 0.0
H1174 H 0.51999 0.44445 0.68725 0.0
H1175 H 0.51894 0.41835 0.72432 0.0
H1176 H 0.46119 0.38733 0.69196 0.0
H1177 H 0.46238 0.4131 0.65253 0.0
H1178 H 0.47359 0.36485 0.69118 0.0
H1179 H 0.48113 0.41375 0.80156 0.0
H1180 H 0.49601 0.44551 0.83652 0.0
H1181 H 0.54467 0.44411 0.87026 0.0
H1182 H 0.53012 0.41237 0.835 0.0
C1183 C 0.45828 0.32203 0.88946 0.0
C1184 C 0.47226 0.32121 0.91565 0.0
C1185 C 0.4621 0.33406 0.85315 0.0
C1186 C 0.47999 0.34567 0.84235 0.0
C1187 C 0.49401 0.34482 0.86781 0.0
C1188 C 0.49018 0.3326 0.90378 0.0
C1189 C 0.48402 0.35956 0.80685 0.0
C1190 C 0.49385 0.37802 0.82337 0.0
C1191 C 0.47671 0.35474 0.75853 0.0
C1192 C 0.46661 0.33544 0.7388 0.0
C1193 C 0.47427 0.32421 0.74271 0.0
C1194 C 0.46463 0.306 0.72435 0.0
C1195 C 0.44734 0.29889 0.70173 0.0
C1196 C 0.43967 0.30999 0.69734 0.0
C1197 C 0.44925 0.3282 0.71568 0.0
C1198 C 0.50717 0.43184 0.68666 0.0
C1199 C 0.49124 0.43084 0.66746 0.0
C1200 C 0.50655 0.41697 0.70823 0.0
C1201 C 0.48989 0.40107 0.71254 0.0
C1202 C 0.47419 0.39949 0.68953 0.0
C1203 C 0.47488 0.41422 0.66686 0.0
C1204 C 0.48852 0.38701 0.74516 0.0
C1205 C 0.4791 0.36853 0.72829 0.0
C1206 C 0.49588 0.39176 0.79358 0.0
C1207 C 0.5046 0.41076 0.81525 0.0
C1208 C 0.49503 0.42025 0.81623 0.0
C1209 C 0.5034 0.43824 0.8361 0.0
C1210 C 0.52127 0.44682 0.85552 0.0
C1211 C 0.53082 0.43744 0.85516 0.0
C1212 C 0.52252 0.41944 0.83528 0.0
H1213 H 0.5277 0.46072 0.87104 0.0
H1214 H 0.43991 0.2848 0.68754 0.0
H1215 H 0.12215 0.4511 0.00337 0.0
H1216 H 0.09968 0.44636 0.93927 0.0
H1217 H 0.11382 0.41182 0.8565 0.0
H1218 H 0.13653 0.4165 0.92135 0.0
H1219 H 0.11114 0.44014 0.80467 0.0
H1220 H 0.07592 0.39032 0.89726 0.0
H1221 H 0.06481 0.37458 0.97128 0.0
H1222 H 0.04313 0.40923 0.00687 0.0
H1223 H 0.05436 0.42538 0.93347 0.0
H1224 H 0.03867 0.43977 0.65994 0.0
H1225 H 0.05514 0.42628 0.69867 0.0
H1226 H 0.05495 0.45163 0.83576 0.0
H1227 H 0.0386 0.46491 0.79795 0.0
H1228 H 0.0476 0.41679 0.84355 0.0
H1229 H 0.09098 0.4715 0.76658 0.0
H1230 H 0.10332 0.48911 0.6958 0.0
H1231 H 0.11001 0.44598 0.63284 0.0
H1232 H 0.0975 0.42804 0.7031 0.0
C1233 C 0.12059 0.44259 0.97141 0.0
C1234 C 0.13115 0.43427 0.9671 0.0
C1235 C 0.10765 0.43977 0.93502 0.0
C1236 C 0.10502 0.42862 0.89344 0.0
C1237 C 0.11565 0.4204 0.88851 0.0
C1238 C 0.12852 0.42304 0.92546 0.0
C1239 C 0.09126 0.42616 0.85544 0.0
C1240 C 0.09709 0.43449 0.8123 0.0
C1241 C 0.07299 0.41887 0.8657 0.0
C1242 C 0.06602 0.40909 0.90979 0.0
C1243 C 0.06887 0.39466 0.92099 0.0
C1244 C 0.06254 0.38565 0.96285 0.0
C1245 C 0.05327 0.3909 0.99376 0.0
C1246 C 0.05029 0.40516 0.98285 0.0
C1247 C 0.05661 0.41422 0.94106 0.0
C1248 C 0.04197 0.44226 0.69842 0.0
C1249 C 0.03748 0.45355 0.72579 0.0
C1250 C 0.0514 0.43458 0.72041 0.0
C1251 C 0.05631 0.43802 0.77004 0.0
C1252 C 0.05123 0.44873 0.79746 0.0
C1253 C 0.04199 0.45644 0.77564 0.0
C1254 C 0.06771 0.43168 0.79413 0.0
C1255 C 0.06143 0.42169 0.83478 0.0
C1256 C 0.08556 0.43755 0.7817 0.0
C1257 C 0.09309 0.44834 0.73967 0.0
C1258 C 0.09496 0.46573 0.73744 0.0
C1259 C 0.102 0.47577 0.69748 0.0
C1260 C 0.10738 0.46864 0.65975 0.0
C1261 C 0.10579 0.45146 0.66201 0.0
C1262 C 0.09872 0.44135 0.70188 0.0
H1263 H 0.11284 0.47643 0.62884 0.0
H1264 H 0.04839 0.38391 0.02616 0.0
H1265 H 0.67213 0.14973 0.93322 0.0
H1266 H 0.64379 0.12992 0.88453 0.0
H1267 H 0.64931 0.08321 0.91216 0.0
H1268 H 0.67732 0.10272 0.96112 0.0
H1269 H 0.64221 0.08496 0.81726 0.0
H1270 H 0.61965 0.0916 0.96927 0.0
H1271 H 0.61573 0.10883 0.03646 0.0
H1272 H 0.59217 0.12999 0.93765 0.0
H1273 H 0.59618 0.11308 0.86981 0.0
H1274 H 0.56257 0.01091 0.72748 0.0
H1275 H 0.58538 0.0321 0.78914 0.0
H1276 H 0.57045 0.07256 0.75919 0.0
H1277 H 0.54683 0.05089 0.69911 0.0
H1278 H 0.58223 0.07661 0.85156 0.0
H1279 H 0.60419 0.07129 0.70069 0.0
H1280 H 0.60781 0.05504 0.63053 0.0
H1281 H 0.63318 0.03371 0.72271 0.0
H1282 H 0.62947 0.04962 0.79353 0.0
C1283 C 0.66723 0.13522 0.92909 0.0
C1284 C 0.67707 0.12782 0.95064 0.0
C1285 C 0.65104 0.12394 0.9014 0.0
C1286 C 0.64443 0.1051 0.89505 0.0
C1287 C 0.65422 0.09773 0.91652 0.0
C1288 C 0.67032 0.10894 0.94414 0.0
C1289 C 0.62773 0.09297 0.86441 0.0
C1290 C 0.62908 0.083 0.82509 0.0
C1291 C 0.61073 0.09102 0.87351 0.0
C1292 C 0.60843 0.10125 0.91438 0.0
C1293 C 0.61381 0.10007 0.96181 0.0
C1294 C 0.61153 0.10975 4e-05 0.0
C1295 C 0.60375 0.12054 0.99134 0.0
C1296 C 0.59821 0.12165 0.94438 0.0
C1297 C 0.60048 0.11202 0.90603 0.0
C1298 C 0.56385 0.02415 0.73505 0.0
C1299 C 0.55327 0.02947 0.70815 0.0
C1300 C 0.5769 0.03627 0.77006 0.0
C1301 C 0.58006 0.05413 0.77739 0.0
C1302 C 0.56839 0.05892 0.75364 0.0
C1303 C 0.55494 0.04656 0.71936 0.0
C1304 C 0.59669 0.06817 0.8055 0.0
C1305 C 0.59539 0.07861 0.8438 0.0
C1306 C 0.61387 0.07087 0.79508 0.0
C1307 C 0.61643 0.06155 0.75244 0.0
C1308 C 0.61047 0.06307 0.70602 0.0
C1309 C 0.61253 0.05392 0.66613 0.0
C1310 C 0.62069 0.04333 0.67217 0.0
C1311 C 0.62685 0.04191 0.71809 0.0
C1312 C 0.62479 0.05101 0.75811 0.0
H1313 H 0.62227 0.03624 0.64125 0.0
H1314 H 0.60198 0.12801 0.02098 0.0
H1315 H 0.53546 0.65421 0.94474 0.0
H1316 H 0.53429 0.63297 0.88121 0.0
H1317 H 0.57366 0.67786 0.80693 0.0
H1318 H 0.57489 0.69944 0.87078 0.0
H1319 H 0.53858 0.64289 0.74921 0.0
H1320 H 0.59328 0.66322 0.8507 0.0
H1321 H 0.61095 0.67217 0.92906 0.0
H1322 H 0.57572 0.61912 0.97721 0.0
H1323 H 0.55765 0.60997 0.8994 0.0
H1324 H 0.53907 0.56564 0.62919 0.0
H1325 H 0.55066 0.59715 0.6613 0.0
H1326 H 0.53261 0.57789 0.80043 0.0
H1327 H 0.52151 0.54673 0.76927 0.0
H1328 H 0.56548 0.60683 0.80981 0.0
H1329 H 0.508 0.58911 0.71841 0.0
H1330 H 0.48891 0.57854 0.64239 0.0
H1331 H 0.52844 0.62543 0.57562 0.0
H1332 H 0.54792 0.63616 0.65142 0.0
C1333 C 0.54354 0.65965 0.91436 0.0
C1334 C 0.55529 0.6785 0.91279 0.0
C1335 C 0.54288 0.6475 0.87816 0.0
C1336 C 0.55388 0.65391 0.83957 0.0
C1337 C 0.56502 0.67273 0.83642 0.0
C1338 C 0.56581 0.68497 0.87304 0.0
C1339 C 0.5549 0.64054 0.80626 0.0
C1340 C 0.5449 0.6353 0.76159 0.0
C1341 C 0.56305 0.63064 0.82277 0.0
C1342 C 0.57406 0.63596 0.86932 0.0
C1343 C 0.58923 0.65351 0.87813 0.0
C1344 C 0.59932 0.65862 0.92243 0.0
C1345 C 0.59445 0.64623 0.95812 0.0
C1346 C 0.57948 0.6287 0.94953 0.0
C1347 C 0.56932 0.62354 0.90531 0.0
C1348 C 0.53765 0.56815 0.66662 0.0
C1349 C 0.52936 0.55365 0.69663 0.0
C1350 C 0.54426 0.58617 0.68489 0.0
C1351 C 0.54247 0.58987 0.73325 0.0
C1352 C 0.53429 0.57539 0.76311 0.0
C1353 C 0.52786 0.55752 0.7451 0.0
C1354 C 0.54846 0.60859 0.75362 0.0
C1355 C 0.55978 0.61482 0.79617 0.0
C1356 C 0.54148 0.6193 0.73509 0.0
C1357 C 0.52944 0.61335 0.69036 0.0
C1358 C 0.51261 0.59716 0.6875 0.0
C1359 C 0.50173 0.59113 0.64442 0.0
C1360 C 0.50745 0.60129 0.60407 0.0
C1361 C 0.52403 0.61757 0.60688 0.0
C1362 C 0.53499 0.62364 0.64991 0.0
H1363 H 0.49903 0.59656 0.57067 0.0
H1364 H 0.60228 0.65021 0.9924 0.0
H1365 H 0.50155 0.15396 0.30933 0.0
H1366 H 0.50686 0.13551 0.3654 0.0
H1367 H 0.45174 0.11108 0.40391 0.0
H1368 H 0.44631 0.12972 0.34804 0.0
H1369 H 0.47972 0.11717 0.48358 0.0
H1370 H 0.45636 0.08898 0.32282 0.0
H1371 H 0.45582 0.08875 0.23434 0.0
H1372 H 0.51015 0.09853 0.23941 0.0
H1373 H 0.51113 0.09916 0.32805 0.0
H1374 H 0.47719 0.03435 0.55436 0.0
H1375 H 0.4707 0.05771 0.52606 0.0
H1376 H 0.51717 0.0782 0.44145 0.0
H1377 H 0.52299 0.05447 0.46752 0.0
H1378 H 0.49012 0.07308 0.38784 0.0
H1379 H 0.51379 0.10086 0.54889 0.0
H1380 H 0.51477 0.10183 0.63753 0.0
H1381 H 0.4609 0.09327 0.63353 0.0
H1382 H 0.45945 0.09188 0.54484 0.0
C1383 C 0.49071 0.14517 0.33093 0.0
C1384 C 0.47345 0.14318 0.32386 0.0
C1385 C 0.49377 0.13459 0.36289 0.0
C1386 C 0.47965 0.12185 0.38845 0.0
C1387 C 0.46281 0.12088 0.38457 0.0
C1388 C 0.4597 0.1314 0.35232 0.0
C1389 C 0.48177 0.10773 0.4126 0.0
C1390 C 0.48184 0.10737 0.46287 0.0
C1391 C 0.48456 0.09504 0.38541 0.0
C1392 C 0.48387 0.09429 0.33206 0.0
C1393 C 0.46824 0.09122 0.30508 0.0
C1394 C 0.46785 0.091 0.25491 0.0
C1395 C 0.48295 0.09367 0.23127 0.0
C1396 C 0.49847 0.09649 0.25777 0.0
C1397 C 0.49894 0.09677 0.30797 0.0
C1398 C 0.4861 0.04405 0.53029 0.0
C1399 C 0.50047 0.04256 0.51269 0.0
C1400 C 0.48244 0.05743 0.51424 0.0
C1401 C 0.49343 0.06976 0.48146 0.0
C1402 C 0.50835 0.06877 0.46623 0.0
C1403 C 0.51171 0.05522 0.48123 0.0
C1404 C 0.48887 0.0828 0.4595 0.0
C1405 C 0.48809 0.08282 0.4091 0.0
C1406 C 0.48552 0.09514 0.48683 0.0
C1407 C 0.48645 0.09609 0.54017 0.0
C1408 C 0.5021 0.09903 0.56689 0.0
C1409 C 0.50274 0.09967 0.61714 0.0
C1410 C 0.48789 0.09758 0.64111 0.0
C1411 C 0.47237 0.09485 0.6149 0.0
C1412 C 0.47163 0.09414 0.56465 0.0
H1413 H 0.48844 0.09817 0.67997 0.0
H1414 H 0.48263 0.0935 0.19242 0.0
H1415 H 0.37654 0.51704 0.21385 0.0
H1416 H 0.40556 0.52517 0.25491 0.0
H1417 H 0.38039 0.51079 0.38921 0.0
H1418 H 0.35143 0.50333 0.34877 0.0
H1419 H 0.41601 0.53795 0.40318 0.0
H1420 H 0.38007 0.47839 0.31347 0.0
H1421 H 0.36456 0.45911 0.23886 0.0
H1422 H 0.41452 0.48427 0.17014 0.0
H1423 H 0.43026 0.5039 0.24423 0.0
H1424 H 0.44084 0.4857 0.53564 0.0
H1425 H 0.42476 0.49482 0.47902 0.0
H1426 H 0.46958 0.51534 0.38884 0.0
H1427 H 0.48586 0.50619 0.44586 0.0
H1428 H 0.43167 0.4922 0.3413 0.0
H1429 H 0.46861 0.54564 0.4427 0.0
H1430 H 0.48296 0.56309 0.52023 0.0
H1431 H 0.43086 0.54891 0.56842 0.0
H1432 H 0.41617 0.53091 0.49173 0.0
C1433 C 0.3773 0.51638 0.2525 0.0
C1434 C 0.36159 0.50919 0.27795 0.0
C1435 C 0.39391 0.52092 0.27584 0.0
C1436 C 0.39501 0.51813 0.32479 0.0
C1437 C 0.37981 0.51291 0.35128 0.0
C1438 C 0.36322 0.50848 0.32805 0.0
C1439 C 0.41072 0.51748 0.34665 0.0
C1440 C 0.41958 0.5281 0.38947 0.0
C1441 C 0.41562 0.50486 0.32812 0.0
C1442 C 0.40628 0.49273 0.28411 0.0
C1443 C 0.38772 0.47984 0.28237 0.0
C1444 C 0.37889 0.46887 0.24019 0.0
C1445 C 0.38854 0.4705 0.19973 0.0
C1446 C 0.40706 0.48306 0.20147 0.0
C1447 C 0.41594 0.49411 0.24352 0.0
C1448 C 0.4472 0.49198 0.50351 0.0
C1449 C 0.46468 0.49553 0.49532 0.0
C1450 C 0.43806 0.49725 0.47141 0.0
C1451 C 0.44614 0.50595 0.43029 0.0
C1452 C 0.46327 0.50879 0.42073 0.0
C1453 C 0.47257 0.50375 0.45338 0.0
C1454 C 0.43651 0.51227 0.39845 0.0
C1455 C 0.42867 0.5026 0.35399 0.0
C1456 C 0.43253 0.5257 0.41556 0.0
C1457 C 0.44128 0.53678 0.46154 0.0
C1458 C 0.4602 0.54603 0.47008 0.0
C1459 C 0.4684 0.556 0.51392 0.0
C1460 C 0.4578 0.55702 0.5493 0.0
C1461 C 0.43903 0.54807 0.54097 0.0
C1462 C 0.43076 0.53796 0.49733 0.0
H1463 H 0.46412 0.56486 0.58304 0.0
H1464 H 0.38168 0.46202 0.16707 0.0
H1465 H 0.89487 0.31377 0.2969 0.0
H1466 H 0.91361 0.33805 0.35989 0.0
H1467 H 0.89617 0.37294 0.29806 0.0
H1468 H 0.87735 0.34885 0.23584 0.0
H1469 H 0.93759 0.38463 0.31294 0.0
H1470 H 0.87951 0.36128 0.38696 0.0
H1471 H 0.85287 0.33701 0.42227 0.0
H1472 H 0.88745 0.33121 0.52731 0.0
H1473 H 0.91432 0.35526 0.49205 0.0
H1474 H 0.96668 0.46717 0.43349 0.0
H1475 H 0.94684 0.43673 0.39557 0.0
H1476 H 0.95883 0.41316 0.51581 0.0
H1477 H 0.97841 0.44383 0.55508 0.0
H1478 H 0.92341 0.3922 0.48016 0.0
H1479 H 0.98099 0.41789 0.41781 0.0
H1480 H 0.0086 0.44204 0.38572 0.0
H1481 H 0.97734 0.44207 0.26132 0.0
H1482 H 0.94948 0.41816 0.29304 0.0
C1483 C 0.89489 0.32655 0.29731 0.0
C1484 C 0.88463 0.32945 0.26171 0.0
C1485 C 0.9055 0.34032 0.33325 0.0
C1486 C 0.90612 0.35715 0.33348 0.0
C1487 C 0.89569 0.35994 0.29851 0.0
C1488 C 0.8849 0.34616 0.26319 0.0
C1489 C 0.91877 0.37258 0.36728 0.0
C1490 C 0.93454 0.38633 0.34951 0.0
C1491 C 0.91506 0.37431 0.41547 0.0
C1492 C 0.89891 0.35985 0.43639 0.0
C1493 C 0.88144 0.35466 0.41715 0.0
C1494 C 0.8663 0.34099 0.43727 0.0
C1495 C 0.86847 0.33252 0.47688 0.0
C1496 C 0.88579 0.33774 0.49654 0.0
C1497 C 0.90097 0.35139 0.47651 0.0
C1498 C 0.96498 0.45553 0.45219 0.0
C1499 C 0.97438 0.45789 0.49682 0.0
C1500 C 0.95365 0.43814 0.43045 0.0
C1501 C 0.95178 0.42274 0.45226 0.0
C1502 C 0.96025 0.42491 0.49821 0.0
C1503 C 0.97145 0.44242 0.52051 0.0
C1504 C 0.94185 0.40469 0.42504 0.0
C1505 C 0.92671 0.39041 0.44396 0.0
C1506 C 0.94631 0.40226 0.37803 0.0
C1507 C 0.96311 0.41626 0.35795 0.0
C1508 C 0.97998 0.42308 0.38368 0.0
C1509 C 0.99568 0.43674 0.36558 0.0
C1510 C 0.9947 0.44358 0.32155 0.0
C1511 C 0.97806 0.43674 0.29542 0.0
C1512 C 0.96231 0.42311 0.31341 0.0
H1513 H 0.00684 0.45419 0.3077 0.0
H1514 H 0.85673 0.32195 0.49243 0.0
H1515 H 0.53779 0.87929 0.17113 0.0
H1516 H 0.53058 0.89244 0.24012 0.0
H1517 H 0.55912 0.87516 0.33588 0.0
H1518 H 0.56603 0.86146 0.26671 0.0
H1519 H 0.52749 0.86927 0.37144 0.0
H1520 H 0.57889 0.91841 0.31208 0.0
H1521 H 0.59872 0.93932 0.25443 0.0
H1522 H 0.55987 0.95597 0.22188 0.0
H1523 H 0.53961 0.93488 0.27863 0.0
H1524 H 0.53866 0.94456 0.54559 0.0
H1525 H 0.54233 0.92169 0.49876 0.0
H1526 H 0.50243 0.91681 0.39059 0.0
H1527 H 0.49847 0.93936 0.43692 0.0
H1528 H 0.5431 0.93398 0.37048 0.0
H1529 H 0.49056 0.88091 0.42689 0.0
H1530 H 0.47299 0.86139 0.49001 0.0
H1531 H 0.51791 0.85502 0.53586 0.0
H1532 H 0.53574 0.8745 0.47285 0.0
C1533 C 0.54235 0.87806 0.20686 0.0
C1534 C 0.5525 0.86935 0.21345 0.0
C1535 C 0.53835 0.88573 0.24625 0.0
C1536 C 0.5445 0.88497 0.29307 0.0
C1537 C 0.55431 0.87594 0.30001 0.0
C1538 C 0.55836 0.86827 0.26048 0.0
C1539 C 0.54086 0.89396 0.33425 0.0
C1540 C 0.53113 0.88349 0.37159 0.0
C1541 C 0.54572 0.91255 0.33466 0.0
C1542 C 0.55763 0.92489 0.29932 0.0
C1543 C 0.57445 0.92634 0.29218 0.0
C1544 C 0.58579 0.93826 0.25973 0.0
C1545 C 0.58053 0.94892 0.2344 0.0
C1546 C 0.56391 0.94767 0.24143 0.0
C1547 C 0.55248 0.93573 0.27374 0.0
C1548 C 0.53016 0.93812 0.51274 0.0
C1549 C 0.51869 0.94421 0.49419 0.0
C1550 C 0.53225 0.92502 0.48615 0.0
C1551 C 0.52281 0.91783 0.44109 0.0
C1552 C 0.50985 0.9223 0.42531 0.0
C1553 C 0.50768 0.93526 0.45184 0.0
C1554 C 0.52908 0.90909 0.40606 0.0
C1555 C 0.53954 0.91977 0.37023 0.0
C1556 C 0.52517 0.8909 0.40764 0.0
C1557 C 0.51452 0.87928 0.44552 0.0
C1558 C 0.49673 0.87545 0.45066 0.0
C1559 C 0.4867 0.86432 0.48625 0.0
C1560 C 0.49434 0.85699 0.51698 0.0
C1561 C 0.51201 0.8607 0.51203 0.0
C1562 C 0.52205 0.87173 0.47628 0.0
H1563 H 0.48657 0.84844 0.54465 0.0
H1564 H 0.58937 0.9582 0.20944 0.0
H1565 H 0.72143 0.6048 0.27959 0.0
H1566 H 0.6991 0.60286 0.33527 0.0
H1567 H 0.66406 0.54632 0.2869 0.0
H1568 H 0.6861 0.5481 0.23162 0.0
H1569 H 0.64849 0.56969 0.28064 0.0
H1570 H 0.68409 0.55495 0.39198 0.0
H1571 H 0.71225 0.56173 0.43788 0.0
H1572 H 0.71559 0.60959 0.50709 0.0
H1573 H 0.68756 0.60322 0.46105 0.0
H1574 H 0.57658 0.52465 0.4185 0.0
H1575 H 0.60452 0.53538 0.37925 0.0
H1576 H 0.62977 0.58469 0.4731 0.0
H1577 H 0.60162 0.57367 0.51405 0.0
H1578 H 0.65293 0.57228 0.45904 0.0
H1579 H 0.61619 0.58592 0.35767 0.0
H1580 H 0.5885 0.58065 0.3121 0.0
H1581 H 0.58822 0.53798 0.2231 0.0
H1582 H 0.61577 0.54281 0.26856 0.0
C1583 C 0.70906 0.59191 0.28143 0.0
C1584 C 0.70554 0.57658 0.25136 0.0
C1585 C 0.69638 0.59082 0.31326 0.0
C1586 C 0.67996 0.57446 0.31499 0.0
C1587 C 0.67668 0.55905 0.28606 0.0
C1588 C 0.68936 0.56006 0.25479 0.0
C1589 C 0.66548 0.57344 0.34411 0.0
C1590 C 0.64941 0.57019 0.31965 0.0
C1591 C 0.66707 0.57498 0.39496 0.0
C1592 C 0.68387 0.57874 0.42262 0.0
C1593 C 0.69093 0.56702 0.41661 0.0
C1594 C 0.70685 0.57076 0.44274 0.0
C1595 C 0.71574 0.58612 0.47525 0.0
C1596 C 0.70871 0.59772 0.48182 0.0
C1597 C 0.69281 0.59405 0.45574 0.0
C1598 C 0.588 0.53781 0.43093 0.0
C1599 C 0.58677 0.54842 0.46902 0.0
C1600 C 0.60401 0.54396 0.4083 0.0
C1601 C 0.61911 0.56105 0.42237 0.0
C1602 C 0.61821 0.57152 0.46138 0.0
C1603 C 0.60214 0.56523 0.48465 0.0
C1604 C 0.63559 0.56769 0.39542 0.0
C1605 C 0.65207 0.57211 0.4201 0.0
C1606 C 0.63453 0.56756 0.34458 0.0
C1607 C 0.61802 0.56469 0.31672 0.0
C1608 C 0.61017 0.57534 0.32855 0.0
C1609 C 0.5945 0.57244 0.30272 0.0
C1610 C 0.5866 0.55897 0.26476 0.0
C1611 C 0.59437 0.54841 0.2525 0.0
C1612 C 0.61003 0.55125 0.27824 0.0
H1613 H 0.57446 0.55674 0.24482 0.0
H1614 H 0.72806 0.58899 0.49546 0.0
H1615 H 0.14821 0.70664 0.33515 0.0
H1616 H 0.13529 0.68457 0.39617 0.0
H1617 H 0.13293 0.6426 0.29827 0.0
H1618 H 0.14492 0.66425 0.23645 0.0
H1619 H 0.10203 0.63074 0.33584 0.0
H1620 H 0.16402 0.66194 0.3987 0.0
H1621 H 0.19331 0.68853 0.42814 0.0
H1622 H 0.16799 0.70063 0.54232 0.0
H1623 H 0.13848 0.67423 0.51315 0.0
H1624 H 0.07688 0.5606 0.48267 0.0
H1625 H 0.09993 0.58682 0.44493 0.0
H1626 H 0.08913 0.62275 0.53298 0.0
H1627 H 0.06594 0.59653 0.57131 0.0
H1628 H 0.1271 0.63839 0.50444 0.0
H1629 H 0.06496 0.60816 0.43784 0.0
H1630 H 0.03595 0.58081 0.41004 0.0
H1631 H 0.0623 0.56684 0.30258 0.0
H1632 H 0.09154 0.59395 0.33033 0.0
C1633 C 0.14494 0.69271 0.32657 0.0
C1634 C 0.1476 0.68727 0.28071 0.0
C1635 C 0.13775 0.68015 0.36176 0.0
C1636 C 0.13326 0.66193 0.35201 0.0
C1637 C 0.13632 0.65659 0.30672 0.0
C1638 C 0.14338 0.66907 0.27149 0.0
C1639 C 0.12421 0.64807 0.38751 0.0
C1640 C 0.10771 0.63238 0.37244 0.0
C1641 C 0.13128 0.65035 0.43581 0.0
C1642 C 0.14901 0.66621 0.45343 0.0
C1643 C 0.16467 0.67036 0.42984 0.0
C1644 C 0.18132 0.68538 0.44653 0.0
C1645 C 0.1825 0.69629 0.487 0.0
C1646 C 0.16705 0.69218 0.51094 0.0
C1647 C 0.15036 0.67718 0.49437 0.0
C1648 C 0.07978 0.57411 0.49528 0.0
C1649 C 0.06919 0.57643 0.52895 0.0
C1650 C 0.09302 0.58909 0.47372 0.0
C1651 C 0.09589 0.60662 0.48541 0.0
C1652 C 0.087 0.60929 0.52332 0.0
C1653 C 0.07371 0.59426 0.54508 0.0
C1654 C 0.10527 0.62114 0.45215 0.0
C1655 C 0.12161 0.63689 0.46769 0.0
C1656 C 0.09811 0.61899 0.40414 0.0
C1657 C 0.08045 0.60299 0.38643 0.0
C1658 C 0.06458 0.59919 0.40846 0.0
C1659 C 0.0481 0.58374 0.39272 0.0
C1660 C 0.04729 0.57208 0.35462 0.0
C1661 C 0.06296 0.57588 0.3321 0.0
C1662 C 0.07948 0.59129 0.3478 0.0
H1663 H 0.03453 0.56012 0.34249 0.0
H1664 H 0.1954 0.70792 0.49987 0.0
loop_
_geom_bond_atom_site_label_1
_geom_bond_atom_site_label_2
_geom_bond_distance
_geom_bond_site_symmetry_2
_ccdc_geom_bond_type
H0 C27 0.929 . S
N1 C26 1.433 . S
N1 C32 1.435 . S
N1 C38 1.423 . S
H2 C28 0.930 . S
H3 C31 0.931 . S
H4 C30 0.929 . S
H5 C33 0.930 . S
H6 C34 0.932 . S
H7 C37 0.929 . S
H8 C36 0.931 . S
H9 C39 0.929 . S
H10 C43 0.932 . S
H11 C40 0.931 . S
H12 C42 0.929 . S
H13 C45 0.929 . S
H14 C46 0.930 . S
H15 C48 0.929 . S
H16 C49 0.931 . S
H17 C51 0.930 . S
H18 C52 0.932 . S
H19 C54 0.931 . S
H20 C55 0.929 . S
H21 C57 0.929 . S
H22 C58 0.931 . S
H23 C60 0.929 . S
N24 C44 1.433 . S
N24 C50 1.435 . S
N24 C56 1.423 . S
H25 C61 0.932 . S
C26 N1 1.433 . S
C26 C27 1.363 . S
C26 C31 1.370 . S
C27 H0 0.929 . S
C27 C26 1.363 . S
C27 C28 1.385 . S
C28 H2 0.930 . S
C28 C27 1.385 . S
C28 C29 1.357 . S
C29 C28 1.357 . S
C29 C30 1.406 . S
C30 H4 0.929 . S
C30 C29 1.406 . S
C30 C31 1.391 . S
C31 H3 0.931 . S
C31 C26 1.370 . S
C31 C30 1.391 . S
C32 N1 1.435 . S
C32 C33 1.358 . S
C32 C37 1.371 . S
C33 H5 0.930 . S
C33 C32 1.358 . S
C33 C34 1.405 . S
C34 H6 0.932 . S
C34 C33 1.405 . S
C34 C35 1.383 . S
C35 C34 1.383 . S
C35 C36 1.393 . S
C36 H8 0.931 . S
C36 C35 1.393 . S
C36 C37 1.382 . S
C37 H7 0.929 . S
C37 C32 1.371 . S
C37 C36 1.382 . S
C38 N1 1.423 . S
C38 C39 1.362 . S
C38 C43 1.388 . S
C39 H9 0.929 . S
C39 C38 1.362 . S
C39 C40 1.376 . S
C40 H11 0.931 . S
C40 C39 1.376 . S
C40 C41 1.396 . S
C41 C40 1.396 . S
C41 C42 1.348 . S
C41 C59 1.472 . S
C42 H12 0.929 . S
C42 C41 1.348 . S
C42 C43 1.443 . S
C43 H10 0.932 . S
C43 C38 1.388 . S
C43 C42 1.443 . S
C44 N24 1.433 . S
C44 C45 1.363 . S
C44 C49 1.370 . S
C45 H13 0.929 . S
C45 C44 1.363 . S
C45 C46 1.385 . S
C46 H14 0.930 . S
C46 C45 1.385 . S
C46 C47 1.357 . S
C47 C46 1.357 . S
C47 C48 1.406 . S
C48 H15 0.929 . S
C48 C47 1.406 . S
C48 C49 1.391 . S
C49 H16 0.931 . S
C49 C44 1.370 . S
C49 C48 1.391 . S
C50 N24 1.435 . S
C50 C51 1.358 . S
C50 C55 1.371 . S
C51 H17 0.930 . S
C51 C50 1.358 . S
C51 C52 1.405 . S
C52 H18 0.932 . S
C52 C51 1.405 . S
C52 C53 1.383 . S
C53 C52 1.383 . S
C53 C54 1.393 . S
C54 H19 0.931 . S
C54 C53 1.393 . S
C54 C55 1.382 . S
C55 H20 0.929 . S
C55 C50 1.371 . S
C55 C54 1.382 . S
C56 N24 1.423 . S
C56 C57 1.362 . S
C56 C61 1.388 . S
C57 H21 0.929 . S
C57 C56 1.362 . S
C57 C58 1.376 . S
C58 H22 0.931 . S
C58 C57 1.376 . S
C58 C59 1.396 . S
C59 C41 1.472 . S
C59 C58 1.396 . S
C59 C60 1.348 . S
C60 H23 0.929 . S
C60 C59 1.348 . S
C60 C61 1.443 . S
C61 H25 0.932 . S
C61 C56 1.388 . S
C61 C60 1.443 . S
H62 C89 0.929 . S
N63 C88 1.433 . S
N63 C94 1.435 . S
N63 C100 1.423 . S
H64 C90 0.930 . S
H65 C93 0.931 . S
H66 C92 0.929 . S
H67 C95 0.930 . S
H68 C96 0.932 . S
H69 C99 0.929 . S
H70 C98 0.931 . S
H71 C101 0.929 . S
H72 C105 0.932 . S
H73 C102 0.931 . S
H74 C104 0.929 . S
H75 C107 0.929 . S
H76 C108 0.930 . S
H77 C110 0.929 . S
H78 C111 0.931 . S
H79 C113 0.930 . S
H80 C114 0.932 . S
H81 C116 0.931 . S
H82 C117 0.929 . S
H83 C119 0.929 . S
H84 C120 0.931 . S
H85 C122 0.929 . S
N86 C106 1.433 . S
N86 C112 1.435 . S
N86 C118 1.423 . S
H87 C123 0.932 . S
C88 N63 1.433 . S
C88 C89 1.363 . S
C88 C93 1.370 . S
C89 H62 0.929 . S
C89 C88 1.363 . S
C89 C90 1.385 . S
C90 H64 0.930 . S
C90 C89 1.385 . S
C90 C91 1.357 . S
C91 C90 1.357 . S
C91 C92 1.406 . S
C92 H66 0.929 . S
C92 C91 1.406 . S
C92 C93 1.391 . S
C93 H65 0.931 . S
C93 C88 1.370 . S
C93 C92 1.391 . S
C94 N63 1.435 . S
C94 C95 1.358 . S
C94 C99 1.371 1_554 S
C95 H67 0.930 . S
C95 C94 1.358 . S
C95 C96 1.405 . S
C96 H68 0.932 . S
C96 C95 1.405 . S
C96 C97 1.383 1_554 S
C97 C96 1.383 1_556 S
C97 C98 1.393 . S
C98 H70 0.931 . S
C98 C97 1.393 . S
C98 C99 1.382 . S
C99 H69 0.929 . S
C99 C94 1.371 1_556 S
C99 C98 1.382 . S
C100 N63 1.423 . S
C100 C101 1.362 . S
C100 C105 1.388 . S
C101 H71 0.929 . S
C101 C100 1.362 . S
C101 C102 1.376 . S
C102 H73 0.931 . S
C102 C101 1.376 . S
C102 C103 1.396 . S
C103 C102 1.396 . S
C103 C104 1.348 . S
C103 C121 1.472 . S
C104 H74 0.929 . S
C104 C103 1.348 . S
C104 C105 1.443 . S
C105 H72 0.932 . S
C105 C100 1.388 . S
C105 C104 1.443 . S
C106 N86 1.433 . S
C106 C107 1.363 . S
C106 C111 1.370 . S
C107 H75 0.929 . S
C107 C106 1.363 . S
C107 C108 1.385 . S
C108 H76 0.930 . S
C108 C107 1.385 . S
C108 C109 1.357 . S
C109 C108 1.357 . S
C109 C110 1.406 . S
C110 H77 0.929 . S
C110 C109 1.406 . S
C110 C111 1.391 . S
C111 H78 0.931 . S
C111 C106 1.370 . S
C111 C110 1.391 . S
C112 N86 1.435 . S
C112 C113 1.358 . S
C112 C117 1.371 . S
C113 H79 0.930 . S
C113 C112 1.358 . S
C113 C114 1.405 . S
C114 H80 0.932 . S
C114 C113 1.405 . S
C114 C115 1.383 1_554 S
C115 C114 1.383 1_556 S
C115 C116 1.393 . S
C116 H81 0.931 . S
C116 C115 1.393 . S
C116 C117 1.382 1_556 S
C117 H82 0.929 . S
C117 C112 1.371 . S
C117 C116 1.382 1_554 S
C118 N86 1.423 . S
C118 C119 1.362 . S
C118 C123 1.388 . S
C119 H83 0.929 . S
C119 C118 1.362 . S
C119 C120 1.376 . S
C120 H84 0.931 . S
C120 C119 1.376 . S
C120 C121 1.396 . S
C121 C103 1.472 . S
C121 C120 1.396 . S
C121 C122 1.348 . S
C122 H85 0.929 . S
C122 C121 1.348 . S
C122 C123 1.443 . S
C123 H87 0.932 . S
C123 C118 1.388 . S
C123 C122 1.443 . S
H124 C151 0.916 1_554 S
N125 C150 1.433 1_554 S
N125 C156 1.435 . S
N125 C162 1.423 . S
H126 C152 0.930 . S
H127 C155 0.931 . S
H128 C154 0.929 . S
H129 C157 0.930 . S
H130 C158 0.932 . S
H131 C161 0.929 . S
H132 C160 0.931 . S
H133 C163 0.929 1_556 S
H134 C167 0.932 . S
H135 C164 0.918 1_556 S
H136 C166 0.929 . S
H137 C169 0.929 . S
H138 C170 0.930 . S
H139 C172 0.929 . S
H140 C173 0.931 . S
H141 C175 0.930 . S
H142 C176 0.932 . S
H143 C178 0.931 . S
H144 C179 0.929 . S
H145 C181 0.929 1_556 S
H146 C182 0.931 1_556 S
H147 C184 0.929 . S
N148 C168 1.433 1_554 S
N148 C174 1.435 . S
N148 C180 1.423 . S
H149 C185 0.932 . S
C150 N125 1.433 1_556 S
C150 C151 1.363 . S
C150 C155 1.370 . S
C151 H124 0.916 1_556 S
C151 C150 1.363 . S
C151 C152 1.385 . S
C152 H126 0.930 . S
C152 C151 1.385 . S
C152 C153 1.357 . S
C153 C152 1.357 . S
C153 C154 1.406 . S
C154 H128 0.929 . S
C154 C153 1.406 . S
C154 C155 1.391 . S
C155 H127 0.931 . S
C155 C150 1.370 . S
C155 C154 1.391 . S
C156 N125 1.435 . S
C156 C157 1.358 . S
C156 C161 1.371 . S
C157 H129 0.930 . S
C157 C156 1.358 . S
C157 C158 1.405 . S
C158 H130 0.932 . S
C158 C157 1.405 . S
C158 C159 1.383 . S
C159 C158 1.383 . S
C159 C160 1.393 . S
C160 H132 0.931 . S
C160 C159 1.393 . S
C160 C161 1.382 . S
C161 H131 0.929 . S
C161 C156 1.371 . S
C161 C160 1.382 . S
C162 N125 1.423 . S
C162 C163 1.362 . S
C162 C167 1.388 . S
C163 H133 0.929 1_554 S
C163 C162 1.362 . S
C163 C164 1.376 . S
C164 H135 0.918 1_554 S
C164 C163 1.376 . S
C164 C165 1.396 . S
C165 C164 1.396 . S
C165 C166 1.348 . S
C165 C183 1.472 . S
C166 H136 0.929 . S
C166 C165 1.348 . S
C166 C167 1.443 . S
C167 H134 0.932 . S
C167 C162 1.388 . S
C167 C166 1.443 . S
C168 N148 1.433 1_556 S
C168 C169 1.363 . S
C168 C173 1.370 . S
C169 H137 0.929 . S
C169 C168 1.363 . S
C169 C170 1.385 . S
C170 H138 0.930 . S
C170 C169 1.385 . S
C170 C171 1.357 . S
C171 C170 1.357 . S
C171 C172 1.406 . S
C172 H139 0.929 . S
C172 C171 1.406 . S
C172 C173 1.391 . S
C173 H140 0.931 . S
C173 C168 1.370 . S
C173 C172 1.391 . S
C174 N148 1.435 . S
C174 C175 1.358 . S
C174 C179 1.371 . S
C175 H141 0.930 . S
C175 C174 1.358 . S
C175 C176 1.405 . S
C176 H142 0.932 . S
C176 C175 1.405 . S
C176 C177 1.383 . S
C177 C176 1.383 . S
C177 C178 1.393 . S
C178 H143 0.931 . S
C178 C177 1.393 . S
C178 C179 1.382 . S
C179 H144 0.929 . S
C179 C174 1.371 . S
C179 C178 1.382 . S
C180 N148 1.423 . S
C180 C181 1.362 . S
C180 C185 1.388 . S
C181 H145 0.929 1_554 S
C181 C180 1.362 . S
C181 C182 1.376 . S
C182 H146 0.931 1_554 S
C182 C181 1.376 . S
C182 C183 1.396 . S
C183 C165 1.472 . S
C183 C182 1.396 . S
C183 C184 1.348 . S
C184 H147 0.929 . S
C184 C183 1.348 . S
C184 C185 1.443 . S
C185 H149 0.932 . S
C185 C180 1.388 . S
C185 C184 1.443 . S
H186 C213 0.929 . S
N187 C212 1.433 . S
N187 C218 1.435 1_554 S
N187 C224 1.423 . S
H188 C214 0.930 . S
H189 C217 0.931 . S
H190 C216 0.929 . S
H191 C219 0.930 1_554 S
H192 C220 0.932 . S
H193 C223 0.929 . S
H194 C222 0.931 . S
H195 C225 0.929 . S
H196 C229 0.932 . S
H197 C226 0.931 . S
H198 C228 0.929 . S
H199 C231 0.929 . S
H200 C232 0.930 . S
H201 C234 0.929 . S
H202 C235 0.931 . S
H203 C237 0.930 . S
H204 C238 0.932 . S
H205 C240 0.931 . S
H206 C241 0.929 . S
H207 C243 0.929 . S
H208 C244 0.931 . S
H209 C246 0.929 . S
N210 C230 1.433 . S
N210 C236 1.435 1_554 S
N210 C242 1.423 . S
H211 C247 0.932 . S
C212 N187 1.433 . S
C212 C213 1.363 . S
C212 C217 1.370 . S
C213 H186 0.929 . S
C213 C212 1.363 . S
C213 C214 1.385 . S
C214 H188 0.930 . S
C214 C213 1.385 . S
C214 C215 1.357 . S
C215 C214 1.357 . S
C215 C216 1.406 . S
C216 H190 0.929 . S
C216 C215 1.406 . S
C216 C217 1.391 . S
C217 H189 0.931 . S
C217 C212 1.370 . S
C217 C216 1.391 . S
C218 N187 1.435 1_556 S
C218 C219 1.358 . S
C218 C223 1.371 . S
C219 H191 0.930 1_556 S
C219 C218 1.358 . S
C219 C220 1.405 . S
C220 H192 0.932 . S
C220 C219 1.405 . S
C220 C221 1.383 . S
C221 C220 1.383 . S
C221 C222 1.393 . S
C222 H194 0.931 . S
C222 C221 1.393 . S
C222 C223 1.382 . S
C223 H193 0.929 . S
C223 C218 1.371 . S
C223 C222 1.382 . S
C224 N187 1.423 . S
C224 C225 1.362 . S
C224 C229 1.388 1_554 S
C225 H195 0.929 . S
C225 C224 1.362 . S
C225 C226 1.376 . S
C226 H197 0.931 . S
C226 C225 1.376 . S
C226 C227 1.396 . S
C227 C226 1.396 . S
C227 C228 1.348 1_554 S
C227 C245 1.472 . S
C228 H198 0.929 . S
C228 C227 1.348 1_556 S
C228 C229 1.443 . S
C229 H196 0.932 . S
C229 C224 1.388 1_556 S
C229 C228 1.443 . S
C230 N210 1.433 . S
C230 C231 1.363 . S
C230 C235 1.370 . S
C231 H199 0.929 . S
C231 C230 1.363 . S
C231 C232 1.385 . S
C232 H200 0.930 . S
C232 C231 1.385 . S
C232 C233 1.357 . S
C233 C232 1.357 . S
C233 C234 1.406 . S
C234 H201 0.929 . S
C234 C233 1.406 . S
C234 C235 1.391 . S
C235 H202 0.931 . S
C235 C230 1.370 . S
C235 C234 1.391 . S
C236 N210 1.435 1_556 S
C236 C237 1.358 . S
C236 C241 1.371 . S
C237 H203 0.930 . S
C237 C236 1.358 . S
C237 C238 1.405 . S
C238 H204 0.932 . S
C238 C237 1.405 . S
C238 C239 1.383 . S
C239 C238 1.383 . S
C239 C240 1.393 . S
C240 H205 0.931 . S
C240 C239 1.393 . S
C240 C241 1.382 . S
C241 H206 0.929 . S
C241 C236 1.371 . S
C241 C240 1.382 . S
C242 N210 1.423 . S
C242 C243 1.362 . S
C242 C247 1.388 1_554 S
C243 H207 0.929 . S
C243 C242 1.362 . S
C243 C244 1.376 . S
C244 H208 0.931 . S
C244 C243 1.376 . S
C244 C245 1.396 . S
C245 C227 1.472 . S
C245 C244 1.396 . S
C245 C246 1.348 1_554 S
C246 H209 0.929 . S
C246 C245 1.348 1_556 S
C246 C247 1.443 . S
C247 H211 0.932 . S
C247 C242 1.388 1_556 S
C247 C246 1.443 . S
H248 C275 0.929 . S
N249 C274 1.433 . S
N249 C280 1.435 . S
N249 C286 1.423 . S
H250 C276 0.930 . S
H251 C279 0.931 . S
H252 C278 0.929 . S
H253 C281 0.930 . S
H254 C282 0.932 . S
H255 C285 0.929 . S
H256 C284 0.931 . S
H257 C287 0.929 . S
H258 C291 0.932 . S
H259 C288 0.931 . S
H260 C290 0.929 . S
H261 C293 0.929 . S
H262 C294 0.930 . S
H263 C296 0.929 . S
H264 C297 0.931 . S
H265 C299 0.930 . S
H266 C300 0.932 . S
H267 C302 0.931 . S
H268 C303 0.929 . S
H269 C305 0.929 . S
H270 C306 0.931 . S
H271 C308 0.929 . S
N272 C292 1.433 . S
N272 C298 1.435 . S
N272 C304 1.423 . S
H273 C309 0.932 . S
C274 N249 1.433 . S
C274 C275 1.363 . S
C274 C279 1.370 . S
C275 H248 0.929 . S
C275 C274 1.363 . S
C275 C276 1.385 . S
C276 H250 0.930 . S
C276 C275 1.385 . S
C276 C277 1.357 . S
C277 C276 1.357 . S
C277 C278 1.406 . S
C278 H252 0.929 . S
C278 C277 1.406 . S
C278 C279 1.391 . S
C279 H251 0.931 . S
C279 C274 1.370 . S
C279 C278 1.391 . S
C280 N249 1.435 . S
C280 C281 1.358 . S
C280 C285 1.371 . S
C281 H253 0.930 . S
C281 C280 1.358 . S
C281 C282 1.405 . S
C282 H254 0.932 . S
C282 C281 1.405 . S
C282 C283 1.383 1_554 S
C283 C282 1.383 1_556 S
C283 C284 1.393 . S
C284 H256 0.931 . S
C284 C283 1.393 . S
C284 C285 1.382 1_556 S
C285 H255 0.929 . S
C285 C280 1.371 . S
C285 C284 1.382 1_554 S
C286 N249 1.423 . S
C286 C287 1.362 . S
C286 C291 1.388 . S
C287 H257 0.929 . S
C287 C286 1.362 . S
C287 C288 1.376 . S
C288 H259 0.931 . S
C288 C287 1.376 . S
C288 C289 1.396 . S
C289 C288 1.396 . S
C289 C290 1.348 . S
C289 C307 1.472 . S
C290 H260 0.929 . S
C290 C289 1.348 . S
C290 C291 1.443 . S
C291 H258 0.932 . S
C291 C286 1.388 . S
C291 C290 1.443 . S
C292 N272 1.433 . S
C292 C293 1.363 . S
C292 C297 1.370 . S
C293 H261 0.929 . S
C293 C292 1.363 . S
C293 C294 1.385 . S
C294 H262 0.930 . S
C294 C293 1.385 . S
C294 C295 1.357 . S
C295 C294 1.357 . S
C295 C296 1.406 . S
C296 H263 0.929 . S
C296 C295 1.406 . S
C296 C297 1.391 . S
C297 H264 0.931 . S
C297 C292 1.370 . S
C297 C296 1.391 . S
C298 N272 1.435 . S
C298 C299 1.358 . S
C298 C303 1.371 . S
C299 H265 0.930 . S
C299 C298 1.358 . S
C299 C300 1.405 . S
C300 H266 0.932 . S
C300 C299 1.405 . S
C300 C301 1.383 1_554 S
C301 C300 1.383 1_556 S
C301 C302 1.393 . S
C302 H267 0.931 . S
C302 C301 1.393 . S
C302 C303 1.382 1_556 S
C303 H268 0.929 . S
C303 C298 1.371 . S
C303 C302 1.382 1_554 S
C304 N272 1.423 . S
C304 C305 1.362 . S
C304 C309 1.388 . S
C305 H269 0.929 . S
C305 C304 1.362 . S
C305 C306 1.376 . S
C306 H270 0.931 . S
C306 C305 1.376 . S
C306 C307 1.396 . S
C307 C289 1.472 . S
C307 C306 1.396 . S
C307 C308 1.348 . S
C308 H271 0.929 . S
C308 C307 1.348 . S
C308 C309 1.443 . S
C309 H273 0.932 . S
C309 C304 1.388 . S
C309 C308 1.443 . S
H310 C337 0.929 . S
N311 C336 1.433 . S
N311 C342 1.435 . S
N311 C348 1.423 . S
H312 C338 0.930 . S
H313 C341 0.931 . S
H314 C340 0.929 . S
H315 C343 0.930 . S
H316 C344 0.932 . S
H317 C347 0.929 . S
H318 C346 0.931 . S
H319 C349 0.929 . S
H320 C353 0.932 . S
H321 C350 0.931 . S
H322 C352 0.929 . S
H323 C355 0.929 . S
H324 C356 0.930 . S
H325 C358 0.929 . S
H326 C359 0.931 . S
H327 C361 0.930 . S
H328 C362 0.932 . S
H329 C364 0.931 . S
H330 C365 0.929 . S
H331 C367 0.929 . S
H332 C368 0.931 . S
H333 C370 0.929 . S
N334 C354 1.433 . S
N334 C360 1.435 . S
N334 C366 1.423 . S
H335 C371 0.932 . S
C336 N311 1.433 . S
C336 C337 1.363 . S
C336 C341 1.370 . S
C337 H310 0.929 . S
C337 C336 1.363 . S
C337 C338 1.385 . S
C338 H312 0.930 . S
C338 C337 1.385 . S
C338 C339 1.357 . S
C339 C338 1.357 . S
C339 C340 1.406 . S
C340 H314 0.929 . S
C340 C339 1.406 . S
C340 C341 1.391 . S
C341 H313 0.931 . S
C341 C336 1.370 . S
C341 C340 1.391 . S
C342 N311 1.435 . S
C342 C343 1.358 . S
C342 C347 1.371 . S
C343 H315 0.930 . S
C343 C342 1.358 . S
C343 C344 1.405 . S
C344 H316 0.932 . S
C344 C343 1.405 . S
C344 C345 1.383 . S
C345 C344 1.383 . S
C345 C346 1.393 . S
C346 H318 0.931 . S
C346 C345 1.393 . S
C346 C347 1.382 . S
C347 H317 0.929 . S
C347 C342 1.371 . S
C347 C346 1.382 . S
C348 N311 1.423 . S
C348 C349 1.362 . S
C348 C353 1.388 . S
C349 H319 0.929 . S
C349 C348 1.362 . S
C349 C350 1.376 . S
C350 H321 0.931 . S
C350 C349 1.376 . S
C350 C351 1.396 . S
C351 C350 1.396 . S
C351 C352 1.348 . S
C351 C369 1.472 . S
C352 H322 0.929 . S
C352 C351 1.348 . S
C352 C353 1.443 . S
C353 H320 0.932 . S
C353 C348 1.388 . S
C353 C352 1.443 . S
C354 N334 1.433 . S
C354 C355 1.363 . S
C354 C359 1.370 . S
C355 H323 0.929 . S
C355 C354 1.363 . S
C355 C356 1.385 . S
C356 H324 0.930 . S
C356 C355 1.385 . S
C356 C357 1.357 . S
C357 C356 1.357 . S
C357 C358 1.406 . S
C358 H325 0.929 . S
C358 C357 1.406 . S
C358 C359 1.391 . S
C359 H326 0.931 . S
C359 C354 1.370 . S
C359 C358 1.391 . S
C360 N334 1.435 . S
C360 C361 1.358 . S
C360 C365 1.371 . S
C361 H327 0.930 . S
C361 C360 1.358 . S
C361 C362 1.405 . S
C362 H328 0.932 . S
C362 C361 1.405 . S
C362 C363 1.383 . S
C363 C362 1.383 . S
C363 C364 1.393 . S
C364 H329 0.931 . S
C364 C363 1.393 . S
C364 C365 1.382 . S
C365 H330 0.929 . S
C365 C360 1.371 . S
C365 C364 1.382 . S
C366 N334 1.423 . S
C366 C367 1.362 . S
C366 C371 1.388 . S
C367 H331 0.929 . S
C367 C366 1.362 . S
C367 C368 1.376 . S
C368 H332 0.931 . S
C368 C367 1.376 . S
C368 C369 1.396 . S
C369 C351 1.472 . S
C369 C368 1.396 . S
C369 C370 1.348 . S
C370 H333 0.929 . S
C370 C369 1.348 . S
C370 C371 1.443 . S
C371 H335 0.932 . S
C371 C366 1.388 . S
C371 C370 1.443 . S
C372 O399 1.312 . S
C372 O400 1.208 . S
C373 O394 1.331 . S
C373 O397 1.244 . S
C374 O396 1.264 . S
C374 O398 1.273 . S
Mg375 O377 1.936 . S
Mg375 O384 2.081 1_455 S
Mg375 O386 2.023 . S
Mg375 O390 2.031 1_455 S
Mg375 O399 2.291 . S
Mg376 O377 1.963 . S
Mg376 O387 1.942 1_455 S
Mg376 O388 1.955 . S
Mg376 O395 1.986 1_455 S
O377 Mg375 1.936 . S
O377 Mg376 1.963 . S
O377 Mg378 1.915 . S
Mg378 O377 1.915 . S
Mg378 O379 1.915 . S
Mg378 O383 2.013 . S
Mg378 O389 2.114 1_455 S
Mg378 O393 2.013 1_455 S
Mg378 O399 2.114 . S
O379 Mg378 1.915 . S
O379 Mg380 1.936 . S
O379 Mg381 1.963 . S
Mg380 O379 1.936 . S
Mg380 O389 2.291 1_455 S
Mg380 O394 2.081 . S
Mg380 O396 2.023 1_455 S
Mg380 O400 2.031 . S
Mg381 O379 1.963 . S
Mg381 O385 1.986 . S
Mg381 O397 1.942 . S
Mg381 O398 1.955 1_455 S
C382 O393 1.191 . S
C382 O395 1.307 . S
O383 Mg378 2.013 . S
O383 C402 1.191 . S
O384 Mg375 2.081 1_655 S
O384 C392 1.331 . S
O385 Mg381 1.986 . S
O385 C402 1.307 . S
O386 Mg375 2.023 . S
O386 C401 1.264 . S
O387 Mg376 1.942 1_655 S
O387 C392 1.244 . S
O388 Mg376 1.955 . S
O388 C401 1.273 . S
O389 Mg378 2.114 1_655 S
O389 Mg380 2.291 1_655 S
O389 C391 1.312 . S
O390 Mg375 2.031 1_655 S
O390 C391 1.208 . S
C391 O389 1.312 . S
C391 O390 1.208 . S
C392 O384 1.331 . S
C392 O387 1.244 . S
O393 Mg378 2.013 1_655 S
O393 C382 1.191 . S
O394 C373 1.331 . S
O394 Mg380 2.081 . S
O395 Mg376 1.986 1_655 S
O395 C382 1.307 . S
O396 C374 1.264 . S
O396 Mg380 2.023 1_655 S
O397 C373 1.244 . S
O397 Mg381 1.942 . S
O398 C374 1.273 . S
O398 Mg381 1.955 1_655 S
O399 C372 1.312 . S
O399 Mg375 2.291 . S
O399 Mg378 2.114 . S
O400 C372 1.208 . S
O400 Mg380 2.031 . S
C401 O386 1.264 . S
C401 O388 1.273 . S
C402 O383 1.191 . S
C402 O385 1.307 . S
C403 O430 1.312 . S
C403 O431 1.208 . S
C404 O425 1.331 . S
C404 O428 1.244 . S
C405 O427 1.264 . S
C405 O429 1.273 . S
Mg406 O408 1.936 1_545 S
Mg406 O415 2.081 1_545 S
Mg406 O417 2.023 . S
Mg406 O421 2.031 1_545 S
Mg406 O430 2.291 . S
Mg407 O408 1.963 . S
Mg407 O418 1.942 . S
Mg407 O419 1.955 1_565 S
Mg407 O426 1.986 . S
O408 Mg406 1.936 1_565 S
O408 Mg407 1.963 . S
O408 Mg409 1.915 1_565 S
Mg409 O408 1.915 1_545 S
Mg409 O410 1.915 . S
Mg409 O414 2.013 . S
Mg409 O420 2.114 1_545 S
Mg409 O424 2.013 1_545 S
Mg409 O430 2.114 . S
O410 Mg409 1.915 . S
O410 Mg411 1.936 . S
O410 Mg412 1.963 . S
Mg411 O410 1.936 . S
Mg411 O420 2.291 1_545 S
Mg411 O425 2.081 . S
Mg411 O427 2.023 1_545 S
Mg411 O431 2.031 . S
Mg412 O410 1.963 . S
Mg412 O416 1.986 . S
Mg412 O428 1.942 . S
Mg412 O429 1.955 1_545 S
C413 O424 1.191 . S
C413 O426 1.307 . S
O414 Mg409 2.013 . S
O414 C433 1.191 . S
O415 Mg406 2.081 1_565 S
O415 C423 1.331 . S
O416 Mg412 1.986 . S
O416 C433 1.307 . S
O417 Mg406 2.023 . S
O417 C432 1.264 . S
O418 Mg407 1.942 . S
O418 C423 1.244 . S
O419 Mg407 1.955 1_545 S
O419 C432 1.273 . S
O420 Mg409 2.114 1_565 S
O420 Mg411 2.291 1_565 S
O420 C422 1.312 . S
O421 Mg406 2.031 1_565 S
O421 C422 1.208 . S
C422 O420 1.312 . S
C422 O421 1.208 . S
C423 O415 1.331 . S
C423 O418 1.244 . S
O424 Mg409 2.013 1_565 S
O424 C413 1.191 . S
O425 C404 1.331 . S
O425 Mg411 2.081 . S
O426 Mg407 1.986 . S
O426 C413 1.307 . S
O427 C405 1.264 . S
O427 Mg411 2.023 1_565 S
O428 C404 1.244 . S
O428 Mg412 1.942 . S
O429 C405 1.273 . S
O429 Mg412 1.955 1_565 S
O430 C403 1.312 . S
O430 Mg406 2.291 . S
O430 Mg409 2.114 . S
O431 C403 1.208 . S
O431 Mg411 2.031 . S
C432 O417 1.264 . S
C432 O419 1.273 . S
C433 O414 1.191 . S
C433 O416 1.307 . S
C434 O461 1.312 . S
C434 O462 1.208 . S
C435 O456 1.331 . S
C435 O459 1.244 . S
C436 O458 1.264 . S
C436 O460 1.273 . S
Mg437 O439 1.936 . S
Mg437 O446 2.081 . S
Mg437 O448 2.023 . S
Mg437 O452 2.031 . S
Mg437 O461 2.291 . S
Mg438 O439 1.963 . S
Mg438 O449 1.942 . S
Mg438 O450 1.955 . S
Mg438 O457 1.986 . S
O439 Mg437 1.936 . S
O439 Mg438 1.963 . S
O439 Mg440 1.915 . S
Mg440 O439 1.915 . S
Mg440 O441 1.915 . S
Mg440 O445 2.013 . S
Mg440 O451 2.114 . S
Mg440 O455 2.013 . S
Mg440 O461 2.114 . S
O441 Mg440 1.915 . S
O441 Mg442 1.936 . S
O441 Mg443 1.963 . S
Mg442 O441 1.936 . S
Mg442 O451 2.291 . S
Mg442 O456 2.081 . S
Mg442 O458 2.023 . S
Mg442 O462 2.031 . S
Mg443 O441 1.963 . S
Mg443 O447 1.986 . S
Mg443 O459 1.942 . S
Mg443 O460 1.955 . S
C444 O455 1.191 . S
C444 O457 1.307 . S
O445 Mg440 2.013 . S
O445 C464 1.191 . S
O446 Mg437 2.081 . S
O446 C454 1.331 . S
O447 Mg443 1.986 . S
O447 C464 1.307 . S
O448 Mg437 2.023 . S
O448 C463 1.264 . S
O449 Mg438 1.942 . S
O449 C454 1.244 . S
O450 Mg438 1.955 . S
O450 C463 1.273 . S
O451 Mg440 2.114 . S
O451 Mg442 2.291 . S
O451 C453 1.312 . S
O452 Mg437 2.031 . S
O452 C453 1.208 . S
C453 O451 1.312 . S
C453 O452 1.208 . S
C454 O446 1.331 . S
C454 O449 1.244 . S
O455 Mg440 2.013 . S
O455 C444 1.191 . S
O456 C435 1.331 . S
O456 Mg442 2.081 . S
O457 Mg438 1.986 . S
O457 C444 1.307 . S
O458 C436 1.264 . S
O458 Mg442 2.023 . S
O459 C435 1.244 . S
O459 Mg443 1.942 . S
O460 C436 1.273 . S
O460 Mg443 1.955 . S
O461 C434 1.312 . S
O461 Mg437 2.291 . S
O461 Mg440 2.114 . S
O462 C434 1.208 . S
O462 Mg442 2.031 . S
C463 O448 1.264 . S
C463 O450 1.273 . S
C464 O445 1.191 . S
C464 O447 1.307 . S
H465 C483 0.951 . S
H466 C485 0.951 . S
H467 C487 0.950 . S
H468 C488 0.950 . S
H469 C490 0.950 . S
H470 C493 0.950 . S
H471 C494 0.950 . S
H472 C496 0.950 . S
H473 C497 0.950 . S
H474 C498 0.951 . S
H475 C500 0.951 . S
H476 C502 0.950 . S
H477 C503 0.950 . S
H478 C505 0.950 . S
H479 C508 0.950 . S
H480 C509 0.950 . S
H481 C511 0.950 . S
H482 C512 0.950 . S
C483 H465 0.951 . S
C483 C484 1.366 . S
C483 C485 1.388 . S
C484 C483 1.366 . S
C484 C488 1.385 . S
C485 H466 0.951 . S
C485 C483 1.388 . S
C485 C486 1.366 . S
C486 C485 1.366 . S
C486 C487 1.414 . S
C486 C489 1.499 . S
C487 H467 0.950 . S
C487 C486 1.414 . S
C487 C488 1.374 . S
C488 H468 0.950 . S
C488 C484 1.385 . S
C488 C487 1.374 . S
C489 C486 1.499 . S
C489 C490 1.373 . S
C489 C491 1.389 . S
C490 H469 0.950 . S
C490 C489 1.373 . S
C490 C506 1.377 . S
C491 C489 1.389 . S
C491 C492 1.524 . S
C491 C505 1.377 . S
C492 C491 1.524 . S
C492 C493 1.397 . S
C492 C497 1.363 . S
C493 H470 0.950 . S
C493 C492 1.397 . S
C493 C494 1.334 . S
C494 H471 0.950 . S
C494 C493 1.334 . S
C494 C495 1.287 . S
C495 C494 1.287 . S
C495 C496 1.524 . S
C495 H514 0.913 . S
C496 H472 0.950 . S
C496 C495 1.524 . S
C496 C497 1.415 . S
C497 H473 0.950 . S
C497 C492 1.363 . S
C497 C496 1.415 . S
C498 H474 0.951 . S
C498 C499 1.366 . S
C498 C500 1.388 . S
C499 C498 1.366 . S
C499 C503 1.385 . S
C500 H475 0.951 . S
C500 C498 1.388 . S
C500 C501 1.366 . S
C501 C500 1.366 . S
C501 C502 1.414 . S
C501 C504 1.499 . S
C502 H476 0.950 . S
C502 C501 1.414 . S
C502 C503 1.374 . S
C503 H477 0.950 . S
C503 C499 1.385 . S
C503 C502 1.374 . S
C504 C501 1.499 . S
C504 C505 1.373 . S
C504 C506 1.389 . S
C505 H478 0.950 . S
C505 C491 1.377 . S
C505 C504 1.373 . S
C506 C490 1.377 . S
C506 C504 1.389 . S
C506 C507 1.524 . S
C507 C506 1.524 . S
C507 C508 1.397 . S
C507 C512 1.363 . S
C508 H479 0.950 . S
C508 C507 1.397 . S
C508 C509 1.334 . S
C509 H480 0.950 . S
C509 C508 1.334 . S
C509 C510 1.287 . S
C510 C509 1.287 . S
C510 C511 1.524 . S
C510 H513 0.999 . S
C511 H481 0.950 . S
C511 C510 1.524 . S
C511 C512 1.415 . S
C512 H482 0.950 . S
C512 C507 1.363 . S
C512 C511 1.415 . S
H513 C510 0.999 . S
H514 C495 0.913 . S
H515 C533 0.951 . S
H516 C535 0.951 . S
H517 C537 0.950 . S
H518 C538 0.950 . S
H519 C540 0.950 . S
H520 C543 0.950 . S
H521 C544 0.950 . S
H522 C546 0.950 . S
H523 C547 0.950 . S
H524 C548 0.951 . S
H525 C550 0.951 . S
H526 C552 0.950 . S
H527 C553 0.950 . S
H528 C555 0.950 . S
H529 C558 0.950 . S
H530 C559 0.950 . S
H531 C561 0.950 . S
H532 C562 0.950 . S
C533 H515 0.951 . S
C533 C534 1.366 . S
C533 C535 1.388 . S
C534 C533 1.366 . S
C534 C538 1.385 . S
C535 H516 0.951 . S
C535 C533 1.388 . S
C535 C536 1.366 . S
C536 C535 1.366 . S
C536 C537 1.414 . S
C536 C539 1.499 . S
C537 H517 0.950 . S
C537 C536 1.414 . S
C537 C538 1.374 . S
C538 H518 0.950 . S
C538 C534 1.385 . S
C538 C537 1.374 . S
C539 C536 1.499 . S
C539 C540 1.373 . S
C539 C541 1.389 . S
C540 H519 0.950 . S
C540 C539 1.373 . S
C540 C556 1.377 . S
C541 C539 1.389 . S
C541 C542 1.524 . S
C541 C555 1.377 . S
C542 C541 1.524 . S
C542 C543 1.397 . S
C542 C547 1.363 . S
C543 H520 0.950 . S
C543 C542 1.397 . S
C543 C544 1.334 . S
C544 H521 0.950 . S
C544 C543 1.334 . S
C544 C545 1.287 . S
C545 C544 1.287 . S
C545 C546 1.524 . S
C545 H564 0.913 . S
C546 H522 0.950 . S
C546 C545 1.524 . S
C546 C547 1.415 . S
C547 H523 0.950 . S
C547 C542 1.363 . S
C547 C546 1.415 . S
C548 H524 0.951 . S
C548 C549 1.366 . S
C548 C550 1.388 . S
C549 C548 1.366 . S
C549 C553 1.385 . S
C550 H525 0.951 . S
C550 C548 1.388 . S
C550 C551 1.366 . S
C551 C550 1.366 . S
C551 C552 1.414 . S
C551 C554 1.499 . S
C552 H526 0.950 . S
C552 C551 1.414 . S
C552 C553 1.374 . S
C553 H527 0.950 . S
C553 C549 1.385 . S
C553 C552 1.374 . S
C554 C551 1.499 . S
C554 C555 1.373 . S
C554 C556 1.389 . S
C555 H528 0.950 . S
C555 C541 1.377 . S
C555 C554 1.373 . S
C556 C540 1.377 . S
C556 C554 1.389 . S
C556 C557 1.524 . S
C557 C556 1.524 . S
C557 C558 1.397 . S
C557 C562 1.363 . S
C558 H529 0.950 . S
C558 C557 1.397 . S
C558 C559 1.334 . S
C559 H530 0.950 . S
C559 C558 1.334 . S
C559 C560 1.287 . S
C560 C559 1.287 . S
C560 C561 1.524 . S
C560 H563 0.999 . S
C561 H531 0.950 . S
C561 C560 1.524 . S
C561 C562 1.415 . S
C562 H532 0.950 . S
C562 C557 1.363 . S
C562 C561 1.415 . S
H563 C560 0.999 . S
H564 C545 0.913 . S
H565 C583 0.951 . S
H566 C585 0.951 . S
H567 C587 0.950 . S
H568 C588 0.950 . S
H569 C590 0.950 . S
H570 C593 0.950 . S
H571 C594 0.950 . S
H572 C596 0.950 . S
H573 C597 0.950 . S
H574 C598 0.951 . S
H575 C600 0.951 . S
H576 C602 0.950 . S
H577 C603 0.950 . S
H578 C605 0.950 . S
H579 C608 0.950 . S
H580 C609 0.950 . S
H581 C611 0.950 . S
H582 C612 0.950 . S
C583 H565 0.951 . S
C583 C584 1.366 . S
C583 C585 1.388 . S
C584 C583 1.366 . S
C584 C588 1.385 . S
C585 H566 0.951 . S
C585 C583 1.388 . S
C585 C586 1.366 . S
C586 C585 1.366 . S
C586 C587 1.414 . S
C586 C589 1.499 . S
C587 H567 0.950 . S
C587 C586 1.414 . S
C587 C588 1.374 . S
C588 H568 0.950 . S
C588 C584 1.385 . S
C588 C587 1.374 . S
C589 C586 1.499 . S
C589 C590 1.373 . S
C589 C591 1.389 . S
C590 H569 0.950 . S
C590 C589 1.373 . S
C590 C606 1.377 . S
C591 C589 1.389 . S
C591 C592 1.524 . S
C591 C605 1.377 . S
C592 C591 1.524 . S
C592 C593 1.397 . S
C592 C597 1.363 . S
C593 H570 0.950 . S
C593 C592 1.397 . S
C593 C594 1.334 . S
C594 H571 0.950 . S
C594 C593 1.334 . S
C594 C595 1.287 . S
C595 C594 1.287 . S
C595 C596 1.524 . S
C595 H614 0.913 . S
C596 H572 0.950 . S
C596 C595 1.524 . S
C596 C597 1.415 . S
C597 H573 0.950 . S
C597 C592 1.363 . S
C597 C596 1.415 . S
C598 H574 0.951 . S
C598 C599 1.366 . S
C598 C600 1.388 . S
C599 C598 1.366 . S
C599 C603 1.385 . S
C600 H575 0.951 . S
C600 C598 1.388 . S
C600 C601 1.366 . S
C601 C600 1.366 . S
C601 C602 1.414 . S
C601 C604 1.499 . S
C602 H576 0.950 . S
C602 C601 1.414 . S
C602 C603 1.374 . S
C603 H577 0.950 . S
C603 C599 1.385 . S
C603 C602 1.374 . S
C604 C601 1.499 . S
C604 C605 1.373 . S
C604 C606 1.389 . S
C605 H578 0.950 . S
C605 C591 1.377 . S
C605 C604 1.373 . S
C606 C590 1.377 . S
C606 C604 1.389 . S
C606 C607 1.524 . S
C607 C606 1.524 . S
C607 C608 1.397 . S
C607 C612 1.363 . S
C608 H579 0.950 . S
C608 C607 1.397 . S
C608 C609 1.334 . S
C609 H580 0.950 . S
C609 C608 1.334 . S
C609 C610 1.287 . S
C610 C609 1.287 . S
C610 C611 1.524 . S
C610 H613 0.999 . S
C611 H581 0.950 . S
C611 C610 1.524 . S
C611 C612 1.415 . S
C612 H582 0.950 . S
C612 C607 1.363 . S
C612 C611 1.415 . S
H613 C610 0.999 . S
H614 C595 0.913 . S
H615 C633 0.951 . S
H616 C635 0.951 . S
H617 C637 0.950 . S
H618 C638 0.950 . S
H619 C640 0.950 . S
H620 C643 0.950 . S
H621 C644 0.950 . S
H622 C646 0.950 . S
H623 C647 0.950 . S
H624 C648 0.951 . S
H625 C650 0.951 . S
H626 C652 0.950 . S
H627 C653 0.950 . S
H628 C655 0.950 . S
H629 C658 0.950 . S
H630 C659 0.950 . S
H631 C661 0.950 . S
H632 C662 0.950 . S
C633 H615 0.951 . S
C633 C634 1.366 . S
C633 C635 1.388 . S
C634 C633 1.366 . S
C634 C638 1.385 . S
C635 H616 0.951 . S
C635 C633 1.388 . S
C635 C636 1.366 . S
C636 C635 1.366 . S
C636 C637 1.414 . S
C636 C639 1.499 . S
C637 H617 0.950 . S
C637 C636 1.414 . S
C637 C638 1.374 . S
C638 H618 0.950 . S
C638 C634 1.385 . S
C638 C637 1.374 . S
C639 C636 1.499 . S
C639 C640 1.373 . S
C639 C641 1.389 . S
C640 H619 0.950 . S
C640 C639 1.373 . S
C640 C656 1.377 . S
C641 C639 1.389 . S
C641 C642 1.524 . S
C641 C655 1.377 . S
C642 C641 1.524 . S
C642 C643 1.397 . S
C642 C647 1.363 . S
C643 H620 0.950 . S
C643 C642 1.397 . S
C643 C644 1.334 . S
C644 H621 0.950 . S
C644 C643 1.334 . S
C644 C645 1.287 . S
C645 C644 1.287 . S
C645 C646 1.524 . S
C645 H664 0.913 . S
C646 H622 0.950 . S
C646 C645 1.524 . S
C646 C647 1.415 . S
C647 H623 0.950 . S
C647 C642 1.363 . S
C647 C646 1.415 . S
C648 H624 0.951 . S
C648 C649 1.366 . S
C648 C650 1.388 . S
C649 C648 1.366 . S
C649 C653 1.385 . S
C650 H625 0.951 . S
C650 C648 1.388 . S
C650 C651 1.366 . S
C651 C650 1.366 . S
C651 C652 1.414 . S
C651 C654 1.499 . S
C652 H626 0.950 . S
C652 C651 1.414 . S
C652 C653 1.374 . S
C653 H627 0.950 . S
C653 C649 1.385 . S
C653 C652 1.374 . S
C654 C651 1.499 . S
C654 C655 1.373 . S
C654 C656 1.389 . S
C655 H628 0.950 . S
C655 C641 1.377 . S
C655 C654 1.373 . S
C656 C640 1.377 . S
C656 C654 1.389 . S
C656 C657 1.524 . S
C657 C656 1.524 . S
C657 C658 1.397 . S
C657 C662 1.363 . S
C658 H629 0.950 . S
C658 C657 1.397 . S
C658 C659 1.334 . S
C659 H630 0.950 . S
C659 C658 1.334 . S
C659 C660 1.287 . S
C660 C659 1.287 . S
C660 C661 1.524 . S
C660 H663 0.999 . S
C661 H631 0.950 . S
C661 C660 1.524 . S
C661 C662 1.415 . S
C662 H632 0.950 . S
C662 C657 1.363 . S
C662 C661 1.415 . S
H663 C660 0.999 . S
H664 C645 0.913 . S
H665 C683 0.951 . S
H666 C685 0.951 . S
H667 C687 0.950 . S
H668 C688 0.950 . S
H669 C690 0.950 . S
H670 C693 0.950 . S
H671 C694 0.950 . S
H672 C696 0.950 . S
H673 C697 0.950 . S
H674 C698 0.951 . S
H675 C700 0.951 . S
H676 C702 0.950 . S
H677 C703 0.950 . S
H678 C705 0.950 . S
H679 C708 0.950 . S
H680 C709 0.950 . S
H681 C711 0.950 . S
H682 C712 0.950 . S
C683 H665 0.951 . S
C683 C684 1.366 . S
C683 C685 1.388 . S
C684 C683 1.366 . S
C684 C688 1.385 . S
C685 H666 0.951 . S
C685 C683 1.388 . S
C685 C686 1.366 . S
C686 C685 1.366 . S
C686 C687 1.414 . S
C686 C689 1.499 . S
C687 H667 0.950 . S
C687 C686 1.414 . S
C687 C688 1.374 . S
C688 H668 0.950 . S
C688 C684 1.385 . S
C688 C687 1.374 . S
C689 C686 1.499 . S
C689 C690 1.373 . S
C689 C691 1.389 . S
C690 H669 0.950 . S
C690 C689 1.373 . S
C690 C706 1.377 . S
C691 C689 1.389 . S
C691 C692 1.524 . S
C691 C705 1.377 . S
C692 C691 1.524 . S
C692 C693 1.397 . S
C692 C697 1.363 . S
C693 H670 0.950 . S
C693 C692 1.397 . S
C693 C694 1.334 . S
C694 H671 0.950 . S
C694 C693 1.334 . S
C694 C695 1.287 . S
C695 C694 1.287 . S
C695 C696 1.524 . S
C695 H714 0.913 . S
C696 H672 0.950 . S
C696 C695 1.524 . S
C696 C697 1.415 . S
C697 H673 0.950 . S
C697 C692 1.363 . S
C697 C696 1.415 . S
C698 H674 0.951 . S
C698 C699 1.366 . S
C698 C700 1.388 . S
C699 C698 1.366 . S
C699 C703 1.385 . S
C700 H675 0.951 . S
C700 C698 1.388 . S
C700 C701 1.366 . S
C701 C700 1.366 . S
C701 C702 1.414 . S
C701 C704 1.499 . S
C702 H676 0.950 . S
C702 C701 1.414 . S
C702 C703 1.374 . S
C703 H677 0.950 . S
C703 C699 1.385 . S
C703 C702 1.374 . S
C704 C701 1.499 . S
C704 C705 1.373 . S
C704 C706 1.389 . S
C705 H678 0.950 . S
C705 C691 1.377 . S
C705 C704 1.373 . S
C706 C690 1.377 . S
C706 C704 1.389 . S
C706 C707 1.524 . S
C707 C706 1.524 . S
C707 C708 1.397 . S
C707 C712 1.363 . S
C708 H679 0.950 . S
C708 C707 1.397 . S
C708 C709 1.334 . S
C709 H680 0.950 . S
C709 C708 1.334 . S
C709 C710 1.287 . S
C710 C709 1.287 . S
C710 C711 1.524 . S
C710 H713 0.999 . S
C711 H681 0.950 . S
C711 C710 1.524 . S
C711 C712 1.415 . S
C712 H682 0.950 . S
C712 C707 1.363 . S
C712 C711 1.415 . S
H713 C710 0.999 . S
H714 C695 0.913 . S
H715 C733 0.951 . S
H716 C735 0.951 . S
H717 C737 0.950 . S
H718 C738 0.950 . S
H719 C740 0.950 . S
H720 C743 0.950 . S
H721 C744 0.950 . S
H722 C746 0.950 . S
H723 C747 0.950 . S
H724 C748 0.951 . S
H725 C750 0.951 . S
H726 C752 0.950 . S
H727 C753 0.950 . S
H728 C755 0.950 . S
H729 C758 0.950 . S
H730 C759 0.950 . S
H731 C761 0.950 . S
H732 C762 0.950 . S
C733 H715 0.951 . S
C733 C734 1.366 . S
C733 C735 1.388 . S
C734 C733 1.366 . S
C734 C738 1.385 . S
C735 H716 0.951 . S
C735 C733 1.388 . S
C735 C736 1.366 . S
C736 C735 1.366 . S
C736 C737 1.414 . S
C736 C739 1.499 . S
C737 H717 0.950 . S
C737 C736 1.414 . S
C737 C738 1.374 . S
C738 H718 0.950 . S
C738 C734 1.385 . S
C738 C737 1.374 . S
C739 C736 1.499 . S
C739 C740 1.373 . S
C739 C741 1.389 . S
C740 H719 0.950 . S
C740 C739 1.373 . S
C740 C756 1.377 . S
C741 C739 1.389 . S
C741 C742 1.524 . S
C741 C755 1.377 . S
C742 C741 1.524 . S
C742 C743 1.397 . S
C742 C747 1.363 . S
C743 H720 0.950 . S
C743 C742 1.397 . S
C743 C744 1.334 . S
C744 H721 0.950 . S
C744 C743 1.334 . S
C744 C745 1.287 . S
C745 C744 1.287 . S
C745 C746 1.524 . S
C745 H764 0.913 . S
C746 H722 0.950 . S
C746 C745 1.524 . S
C746 C747 1.415 . S
C747 H723 0.950 . S
C747 C742 1.363 . S
C747 C746 1.415 . S
C748 H724 0.951 . S
C748 C749 1.366 . S
C748 C750 1.388 . S
C749 C748 1.366 . S
C749 C753 1.385 . S
C750 H725 0.951 . S
C750 C748 1.388 . S
C750 C751 1.366 . S
C751 C750 1.366 . S
C751 C752 1.414 . S
C751 C754 1.499 . S
C752 H726 0.950 . S
C752 C751 1.414 . S
C752 C753 1.374 . S
C753 H727 0.950 . S
C753 C749 1.385 . S
C753 C752 1.374 . S
C754 C751 1.499 . S
C754 C755 1.373 . S
C754 C756 1.389 . S
C755 H728 0.950 . S
C755 C741 1.377 . S
C755 C754 1.373 . S
C756 C740 1.377 . S
C756 C754 1.389 . S
C756 C757 1.524 . S
C757 C756 1.524 . S
C757 C758 1.397 . S
C757 C762 1.363 . S
C758 H729 0.950 . S
C758 C757 1.397 . S
C758 C759 1.334 . S
C759 H730 0.950 . S
C759 C758 1.334 . S
C759 C760 1.287 . S
C760 C759 1.287 . S
C760 C761 1.524 . S
C760 H763 0.999 . S
C761 H731 0.950 . S
C761 C760 1.524 . S
C761 C762 1.415 . S
C762 H732 0.950 . S
C762 C757 1.363 . S
C762 C761 1.415 . S
H763 C760 0.999 . S
H764 C745 0.913 . S
H765 C783 0.951 . S
H766 C785 0.951 . S
H767 C787 0.950 . S
H768 C788 0.950 . S
H769 C790 0.950 . S
H770 C793 0.950 . S
H771 C794 0.950 . S
H772 C796 0.950 . S
H773 C797 0.950 . S
H774 C798 0.951 . S
H775 C800 0.951 . S
H776 C802 0.950 . S
H777 C803 0.950 . S
H778 C805 0.950 . S
H779 C808 0.950 . S
H780 C809 0.950 . S
H781 C811 0.950 . S
H782 C812 0.950 . S
C783 H765 0.951 . S
C783 C784 1.366 . S
C783 C785 1.388 . S
C784 C783 1.366 . S
C784 C788 1.385 . S
C785 H766 0.951 . S
C785 C783 1.388 . S
C785 C786 1.366 . S
C786 C785 1.366 . S
C786 C787 1.414 . S
C786 C789 1.499 . S
C787 H767 0.950 . S
C787 C786 1.414 . S
C787 C788 1.374 . S
C788 H768 0.950 . S
C788 C784 1.385 . S
C788 C787 1.374 . S
C789 C786 1.499 . S
C789 C790 1.373 . S
C789 C791 1.389 . S
C790 H769 0.950 . S
C790 C789 1.373 . S
C790 C806 1.377 . S
C791 C789 1.389 . S
C791 C792 1.524 . S
C791 C805 1.377 . S
C792 C791 1.524 . S
C792 C793 1.397 . S
C792 C797 1.363 . S
C793 H770 0.950 . S
C793 C792 1.397 . S
C793 C794 1.334 . S
C794 H771 0.950 . S
C794 C793 1.334 . S
C794 C795 1.287 . S
C795 C794 1.287 . S
C795 C796 1.524 . S
C795 H814 0.913 . S
C796 H772 0.950 . S
C796 C795 1.524 . S
C796 C797 1.415 . S
C797 H773 0.950 . S
C797 C792 1.363 . S
C797 C796 1.415 . S
C798 H774 0.951 . S
C798 C799 1.366 . S
C798 C800 1.388 . S
C799 C798 1.366 . S
C799 C803 1.385 . S
C800 H775 0.951 . S
C800 C798 1.388 . S
C800 C801 1.366 . S
C801 C800 1.366 . S
C801 C802 1.414 . S
C801 C804 1.499 . S
C802 H776 0.950 . S
C802 C801 1.414 . S
C802 C803 1.374 . S
C803 H777 0.950 . S
C803 C799 1.385 . S
C803 C802 1.374 . S
C804 C801 1.499 . S
C804 C805 1.373 . S
C804 C806 1.389 . S
C805 H778 0.950 . S
C805 C791 1.377 . S
C805 C804 1.373 . S
C806 C790 1.377 . S
C806 C804 1.389 . S
C806 C807 1.524 . S
C807 C806 1.524 . S
C807 C808 1.397 . S
C807 C812 1.363 . S
C808 H779 0.950 . S
C808 C807 1.397 . S
C808 C809 1.334 . S
C809 H780 0.950 . S
C809 C808 1.334 . S
C809 C810 1.287 . S
C810 C809 1.287 . S
C810 C811 1.524 . S
C810 H813 0.999 . S
C811 H781 0.950 . S
C811 C810 1.524 . S
C811 C812 1.415 . S
C812 H782 0.950 . S
C812 C807 1.363 . S
C812 C811 1.415 . S
H813 C810 0.999 . S
H814 C795 0.913 . S
H815 C833 0.951 . S
H816 C835 0.951 . S
H817 C837 0.950 . S
H818 C838 0.950 . S
H819 C840 0.950 . S
H820 C843 0.950 . S
H821 C844 0.950 . S
H822 C846 0.950 . S
H823 C847 0.950 . S
H824 C848 0.951 . S
H825 C850 0.951 . S
H826 C852 0.950 . S
H827 C853 0.950 . S
H828 C855 0.950 . S
H829 C858 0.950 . S
H830 C859 0.950 . S
H831 C861 0.950 . S
H832 C862 0.950 . S
C833 H815 0.951 . S
C833 C834 1.366 . S
C833 C835 1.388 . S
C834 C833 1.366 . S
C834 C838 1.385 . S
C835 H816 0.951 . S
C835 C833 1.388 . S
C835 C836 1.366 . S
C836 C835 1.366 . S
C836 C837 1.414 . S
C836 C839 1.499 . S
C837 H817 0.950 . S
C837 C836 1.414 . S
C837 C838 1.374 . S
C838 H818 0.950 . S
C838 C834 1.385 . S
C838 C837 1.374 . S
C839 C836 1.499 . S
C839 C840 1.373 . S
C839 C841 1.389 . S
C840 H819 0.950 . S
C840 C839 1.373 . S
C840 C856 1.377 . S
C841 C839 1.389 . S
C841 C842 1.524 . S
C841 C855 1.377 . S
C842 C841 1.524 . S
C842 C843 1.397 . S
C842 C847 1.363 . S
C843 H820 0.950 . S
C843 C842 1.397 . S
C843 C844 1.334 . S
C844 H821 0.950 . S
C844 C843 1.334 . S
C844 C845 1.287 . S
C845 C844 1.287 . S
C845 C846 1.524 . S
C845 H864 0.913 . S
C846 H822 0.950 . S
C846 C845 1.524 . S
C846 C847 1.415 . S
C847 H823 0.950 . S
C847 C842 1.363 . S
C847 C846 1.415 . S
C848 H824 0.951 . S
C848 C849 1.366 . S
C848 C850 1.388 . S
C849 C848 1.366 . S
C849 C853 1.385 . S
C850 H825 0.951 . S
C850 C848 1.388 . S
C850 C851 1.366 . S
C851 C850 1.366 . S
C851 C852 1.414 . S
C851 C854 1.499 . S
C852 H826 0.950 . S
C852 C851 1.414 . S
C852 C853 1.374 . S
C853 H827 0.950 . S
C853 C849 1.385 . S
C853 C852 1.374 . S
C854 C851 1.499 . S
C854 C855 1.373 . S
C854 C856 1.389 . S
C855 H828 0.950 . S
C855 C841 1.377 . S
C855 C854 1.373 . S
C856 C840 1.377 . S
C856 C854 1.389 . S
C856 C857 1.524 . S
C857 C856 1.524 . S
C857 C858 1.397 . S
C857 C862 1.363 . S
C858 H829 0.950 . S
C858 C857 1.397 . S
C858 C859 1.334 . S
C859 H830 0.950 . S
C859 C858 1.334 . S
C859 C860 1.287 . S
C860 C859 1.287 . S
C860 C861 1.524 . S
C860 H863 0.999 . S
C861 H831 0.950 . S
C861 C860 1.524 . S
C861 C862 1.415 . S
C862 H832 0.950 . S
C862 C857 1.363 . S
C862 C861 1.415 . S
H863 C860 0.999 . S
H864 C845 0.913 . S
H865 C883 0.951 . S
H866 C885 0.951 . S
H867 C887 0.950 . S
H868 C888 0.950 . S
H869 C890 0.950 . S
H870 C893 0.950 . S
H871 C894 0.950 . S
H872 C896 0.950 . S
H873 C897 0.950 . S
H874 C898 0.951 . S
H875 C900 0.951 . S
H876 C902 0.950 . S
H877 C903 0.950 . S
H878 C905 0.950 . S
H879 C908 0.950 . S
H880 C909 0.950 . S
H881 C911 0.950 . S
H882 C912 0.950 . S
C883 H865 0.951 . S
C883 C884 1.366 . S
C883 C885 1.388 . S
C884 C883 1.366 . S
C884 C888 1.385 . S
C885 H866 0.951 . S
C885 C883 1.388 . S
C885 C886 1.366 . S
C886 C885 1.366 . S
C886 C887 1.414 . S
C886 C889 1.499 . S
C887 H867 0.950 . S
C887 C886 1.414 . S
C887 C888 1.374 . S
C888 H868 0.950 . S
C888 C884 1.385 . S
C888 C887 1.374 . S
C889 C886 1.499 . S
C889 C890 1.373 . S
C889 C891 1.389 . S
C890 H869 0.950 . S
C890 C889 1.373 . S
C890 C906 1.377 . S
C891 C889 1.389 . S
C891 C892 1.524 . S
C891 C905 1.377 . S
C892 C891 1.524 . S
C892 C893 1.397 . S
C892 C897 1.363 . S
C893 H870 0.950 . S
C893 C892 1.397 . S
C893 C894 1.334 . S
C894 H871 0.950 . S
C894 C893 1.334 . S
C894 C895 1.287 . S
C895 C894 1.287 . S
C895 C896 1.524 . S
C895 H914 0.913 . S
C896 H872 0.950 . S
C896 C895 1.524 . S
C896 C897 1.415 . S
C897 H873 0.950 . S
C897 C892 1.363 . S
C897 C896 1.415 . S
C898 H874 0.951 . S
C898 C899 1.366 . S
C898 C900 1.388 . S
C899 C898 1.366 . S
C899 C903 1.385 . S
C900 H875 0.951 . S
C900 C898 1.388 . S
C900 C901 1.366 . S
C901 C900 1.366 . S
C901 C902 1.414 . S
C901 C904 1.499 . S
C902 H876 0.950 . S
C902 C901 1.414 . S
C902 C903 1.374 . S
C903 H877 0.950 . S
C903 C899 1.385 . S
C903 C902 1.374 . S
C904 C901 1.499 . S
C904 C905 1.373 . S
C904 C906 1.389 . S
C905 H878 0.950 . S
C905 C891 1.377 . S
C905 C904 1.373 . S
C906 C890 1.377 . S
C906 C904 1.389 . S
C906 C907 1.524 . S
C907 C906 1.524 . S
C907 C908 1.397 . S
C907 C912 1.363 . S
C908 H879 0.950 . S
C908 C907 1.397 . S
C908 C909 1.334 . S
C909 H880 0.950 . S
C909 C908 1.334 . S
C909 C910 1.287 . S
C910 C909 1.287 . S
C910 C911 1.524 . S
C910 H913 0.999 . S
C911 H881 0.950 . S
C911 C910 1.524 . S
C911 C912 1.415 . S
C912 H882 0.950 . S
C912 C907 1.363 . S
C912 C911 1.415 . S
H913 C910 0.999 . S
H914 C895 0.913 . S
H915 C933 0.951 1_554 S
H916 C935 0.951 . S
H917 C937 0.950 . S
H918 C938 0.950 . S
H919 C940 0.950 . S
H920 C943 0.950 . S
H921 C944 0.950 . S
H922 C946 0.950 1_554 S
H923 C947 0.950 . S
H924 C948 0.951 . S
H925 C950 0.951 . S
H926 C952 0.950 . S
H927 C953 0.950 . S
H928 C955 0.950 . S
H929 C958 0.950 . S
H930 C959 0.950 . S
H931 C961 0.950 . S
H932 C962 0.950 . S
C933 H915 0.951 1_556 S
C933 C934 1.366 . S
C933 C935 1.388 . S
C934 C933 1.366 . S
C934 C938 1.385 . S
C935 H916 0.951 . S
C935 C933 1.388 . S
C935 C936 1.366 . S
C936 C935 1.366 . S
C936 C937 1.414 . S
C936 C939 1.499 . S
C937 H917 0.950 . S
C937 C936 1.414 . S
C937 C938 1.374 . S
C938 H918 0.950 . S
C938 C934 1.385 . S
C938 C937 1.374 . S
C939 C936 1.499 . S
C939 C940 1.373 . S
C939 C941 1.389 . S
C940 H919 0.950 . S
C940 C939 1.373 . S
C940 C956 1.377 . S
C941 C939 1.389 . S
C941 C942 1.524 . S
C941 C955 1.377 . S
C942 C941 1.524 . S
C942 C943 1.397 . S
C942 C947 1.363 . S
C943 H920 0.950 . S
C943 C942 1.397 . S
C943 C944 1.334 . S
C944 H921 0.950 . S
C944 C943 1.334 . S
C944 C945 1.287 . S
C945 C944 1.287 . S
C945 C946 1.524 . S
C945 H964 0.913 . S
C946 H922 0.950 1_556 S
C946 C945 1.524 . S
C946 C947 1.415 . S
C947 H923 0.950 . S
C947 C942 1.363 . S
C947 C946 1.415 . S
C948 H924 0.951 . S
C948 C949 1.366 . S
C948 C950 1.388 . S
C949 C948 1.366 . S
C949 C953 1.385 . S
C950 H925 0.951 . S
C950 C948 1.388 . S
C950 C951 1.366 . S
C951 C950 1.366 . S
C951 C952 1.414 . S
C951 C954 1.499 . S
C952 H926 0.950 . S
C952 C951 1.414 . S
C952 C953 1.374 . S
C953 H927 0.950 . S
C953 C949 1.385 . S
C953 C952 1.374 . S
C954 C951 1.499 . S
C954 C955 1.373 . S
C954 C956 1.389 . S
C955 H928 0.950 . S
C955 C941 1.377 . S
C955 C954 1.373 . S
C956 C940 1.377 . S
C956 C954 1.389 . S
C956 C957 1.524 . S
C957 C956 1.524 . S
C957 C958 1.397 . S
C957 C962 1.363 . S
C958 H929 0.950 . S
C958 C957 1.397 . S
C958 C959 1.334 . S
C959 H930 0.950 . S
C959 C958 1.334 . S
C959 C960 1.287 . S
C960 C959 1.287 . S
C960 C961 1.524 . S
C960 H963 0.999 . S
C961 H931 0.950 . S
C961 C960 1.524 . S
C961 C962 1.415 . S
C962 H932 0.950 . S
C962 C957 1.363 . S
C962 C961 1.415 . S
H963 C960 0.999 . S
H964 C945 0.913 . S
H965 C983 0.951 . S
H966 C985 0.951 . S
H967 C987 0.950 1_554 S
H968 C988 0.950 . S
H969 C990 0.950 . S
H970 C993 0.950 . S
H971 C994 0.950 . S
H972 C996 0.950 . S
H973 C997 0.950 . S
H974 C998 0.951 . S
H975 C1000 0.951 . S
H976 C1002 0.950 . S
H977 C1003 0.950 . S
H978 C1005 0.950 . S
H979 C1008 0.950 . S
H980 C1009 0.950 . S
H981 C1011 0.950 . S
H982 C1012 0.950 . S
C983 H965 0.951 . S
C983 C984 1.366 1_556 S
C983 C985 1.388 . S
C984 C983 1.366 1_554 S
C984 C988 1.385 . S
C985 H966 0.951 . S
C985 C983 1.388 . S
C985 C986 1.366 . S
C986 C985 1.366 . S
C986 C987 1.414 . S
C986 C989 1.499 . S
C987 H967 0.950 1_556 S
C987 C986 1.414 . S
C987 C988 1.374 1_556 S
C988 H968 0.950 . S
C988 C984 1.385 . S
C988 C987 1.374 1_554 S
C989 C986 1.499 . S
C989 C990 1.373 . S
C989 C991 1.389 . S
C990 H969 0.950 . S
C990 C989 1.373 . S
C990 C1006 1.377 . S
C991 C989 1.389 . S
C991 C992 1.524 . S
C991 C1005 1.377 . S
C992 C991 1.524 . S
C992 C993 1.397 . S
C992 C997 1.363 . S
C993 H970 0.950 . S
C993 C992 1.397 . S
C993 C994 1.334 . S
C994 H971 0.950 . S
C994 C993 1.334 . S
C994 C995 1.287 . S
C995 C994 1.287 . S
C995 C996 1.524 . S
C995 H1014 0.913 . S
C996 H972 0.950 . S
C996 C995 1.524 . S
C996 C997 1.415 . S
C997 H973 0.950 . S
C997 C992 1.363 . S
C997 C996 1.415 . S
C998 H974 0.951 . S
C998 C999 1.366 . S
C998 C1000 1.388 . S
C999 C998 1.366 . S
C999 C1003 1.385 . S
C1000 H975 0.951 . S
C1000 C998 1.388 . S
C1000 C1001 1.366 . S
C1001 C1000 1.366 . S
C1001 C1002 1.414 . S
C1001 C1004 1.499 . S
C1002 H976 0.950 . S
C1002 C1001 1.414 . S
C1002 C1003 1.374 . S
C1003 H977 0.950 . S
C1003 C999 1.385 . S
C1003 C1002 1.374 . S
C1004 C1001 1.499 . S
C1004 C1005 1.373 . S
C1004 C1006 1.389 . S
C1005 H978 0.950 . S
C1005 C991 1.377 . S
C1005 C1004 1.373 . S
C1006 C990 1.377 . S
C1006 C1004 1.389 . S
C1006 C1007 1.524 . S
C1007 C1006 1.524 . S
C1007 C1008 1.397 . S
C1007 C1012 1.363 . S
C1008 H979 0.950 . S
C1008 C1007 1.397 . S
C1008 C1009 1.334 . S
C1009 H980 0.950 . S
C1009 C1008 1.334 . S
C1009 C1010 1.287 . S
C1010 C1009 1.287 . S
C1010 C1011 1.524 . S
C1010 H1013 0.999 . S
C1011 H981 0.950 . S
C1011 C1010 1.524 . S
C1011 C1012 1.415 . S
C1012 H982 0.950 . S
C1012 C1007 1.363 . S
C1012 C1011 1.415 . S
H1013 C1010 0.999 . S
H1014 C995 0.913 . S
H1015 C1033 0.951 . S
H1016 C1035 0.951 . S
H1017 C1037 0.950 . S
H1018 C1038 0.950 . S
H1019 C1040 0.950 . S
H1020 C1043 0.950 . S
H1021 C1044 0.950 . S
H1022 C1046 0.950 . S
H1023 C1047 0.950 . S
H1024 C1048 0.951 . S
H1025 C1050 0.951 . S
H1026 C1052 0.950 . S
H1027 C1053 0.950 . S
H1028 C1055 0.950 . S
H1029 C1058 0.950 . S
H1030 C1059 0.950 . S
H1031 C1061 0.950 . S
H1032 C1062 0.950 . S
C1033 H1015 0.951 . S
C1033 C1034 1.366 . S
C1033 C1035 1.388 . S
C1034 C1033 1.366 . S
C1034 C1038 1.385 . S
C1035 H1016 0.951 . S
C1035 C1033 1.388 . S
C1035 C1036 1.366 . S
C1036 C1035 1.366 . S
C1036 C1037 1.414 . S
C1036 C1039 1.499 . S
C1037 H1017 0.950 . S
C1037 C1036 1.414 . S
C1037 C1038 1.374 . S
C1038 H1018 0.950 . S
C1038 C1034 1.385 . S
C1038 C1037 1.374 . S
C1039 C1036 1.499 . S
C1039 C1040 1.373 . S
C1039 C1041 1.389 . S
C1040 H1019 0.950 . S
C1040 C1039 1.373 . S
C1040 C1056 1.377 . S
C1041 C1039 1.389 . S
C1041 C1042 1.524 . S
C1041 C1055 1.377 . S
C1042 C1041 1.524 . S
C1042 C1043 1.397 . S
C1042 C1047 1.363 . S
C1043 H1020 0.950 . S
C1043 C1042 1.397 . S
C1043 C1044 1.334 . S
C1044 H1021 0.950 . S
C1044 C1043 1.334 . S
C1044 C1045 1.287 . S
C1045 C1044 1.287 . S
C1045 C1046 1.524 . S
C1045 H1064 0.913 . S
C1046 H1022 0.950 . S
C1046 C1045 1.524 . S
C1046 C1047 1.415 . S
C1047 H1023 0.950 . S
C1047 C1042 1.363 . S
C1047 C1046 1.415 . S
C1048 H1024 0.951 . S
C1048 C1049 1.366 . S
C1048 C1050 1.388 . S
C1049 C1048 1.366 . S
C1049 C1053 1.385 . S
C1050 H1025 0.951 . S
C1050 C1048 1.388 . S
C1050 C1051 1.366 . S
C1051 C1050 1.366 . S
C1051 C1052 1.414 . S
C1051 C1054 1.499 . S
C1052 H1026 0.950 . S
C1052 C1051 1.414 . S
C1052 C1053 1.374 . S
C1053 H1027 0.950 . S
C1053 C1049 1.385 . S
C1053 C1052 1.374 . S
C1054 C1051 1.499 . S
C1054 C1055 1.373 . S
C1054 C1056 1.389 . S
C1055 H1028 0.950 . S
C1055 C1041 1.377 . S
C1055 C1054 1.373 . S
C1056 C1040 1.377 . S
C1056 C1054 1.389 . S
C1056 C1057 1.524 . S
C1057 C1056 1.524 . S
C1057 C1058 1.397 . S
C1057 C1062 1.363 . S
C1058 H1029 0.950 . S
C1058 C1057 1.397 . S
C1058 C1059 1.334 . S
C1059 H1030 0.950 . S
C1059 C1058 1.334 . S
C1059 C1060 1.287 . S
C1060 C1059 1.287 . S
C1060 C1061 1.524 . S
C1060 H1063 0.999 . S
C1061 H1031 0.950 . S
C1061 C1060 1.524 . S
C1061 C1062 1.415 . S
C1062 H1032 0.950 . S
C1062 C1057 1.363 . S
C1062 C1061 1.415 . S
H1063 C1060 0.999 . S
H1064 C1045 0.913 . S
H1065 C1083 0.951 . S
H1066 C1085 0.951 . S
H1067 C1087 0.950 . S
H1068 C1088 0.950 . S
H1069 C1090 0.950 . S
H1070 C1093 0.950 . S
H1071 C1094 0.950 . S
H1072 C1096 0.950 . S
H1073 C1097 0.950 . S
H1074 C1098 0.951 . S
H1075 C1100 0.951 . S
H1076 C1102 0.950 . S
H1077 C1103 0.950 . S
H1078 C1105 0.950 . S
H1079 C1108 0.950 . S
H1080 C1109 0.950 . S
H1081 C1111 0.950 1_455 S
H1082 C1112 0.950 . S
C1083 H1065 0.951 . S
C1083 C1084 1.366 . S
C1083 C1085 1.388 . S
C1084 C1083 1.366 . S
C1084 C1088 1.385 . S
C1085 H1066 0.951 . S
C1085 C1083 1.388 . S
C1085 C1086 1.366 . S
C1086 C1085 1.366 . S
C1086 C1087 1.414 . S
C1086 C1089 1.499 . S
C1087 H1067 0.950 . S
C1087 C1086 1.414 . S
C1087 C1088 1.374 . S
C1088 H1068 0.950 . S
C1088 C1084 1.385 . S
C1088 C1087 1.374 . S
C1089 C1086 1.499 . S
C1089 C1090 1.373 . S
C1089 C1091 1.389 . S
C1090 H1069 0.950 . S
C1090 C1089 1.373 . S
C1090 C1106 1.377 . S
C1091 C1089 1.389 . S
C1091 C1092 1.524 . S
C1091 C1105 1.377 . S
C1092 C1091 1.524 . S
C1092 C1093 1.397 . S
C1092 C1097 1.363 . S
C1093 H1070 0.950 . S
C1093 C1092 1.397 . S
C1093 C1094 1.334 . S
C1094 H1071 0.950 . S
C1094 C1093 1.334 . S
C1094 C1095 1.287 . S
C1095 C1094 1.287 . S
C1095 C1096 1.524 . S
C1095 H1114 0.913 . S
C1096 H1072 0.950 . S
C1096 C1095 1.524 . S
C1096 C1097 1.415 . S
C1097 H1073 0.950 . S
C1097 C1092 1.363 . S
C1097 C1096 1.415 . S
C1098 H1074 0.951 . S
C1098 C1099 1.366 . S
C1098 C1100 1.388 . S
C1099 C1098 1.366 . S
C1099 C1103 1.385 . S
C1100 H1075 0.951 . S
C1100 C1098 1.388 . S
C1100 C1101 1.366 . S
C1101 C1100 1.366 . S
C1101 C1102 1.414 . S
C1101 C1104 1.499 . S
C1102 H1076 0.950 . S
C1102 C1101 1.414 . S
C1102 C1103 1.374 . S
C1103 H1077 0.950 . S
C1103 C1099 1.385 . S
C1103 C1102 1.374 . S
C1104 C1101 1.499 . S
C1104 C1105 1.373 . S
C1104 C1106 1.389 . S
C1105 H1078 0.950 . S
C1105 C1091 1.377 . S
C1105 C1104 1.373 . S
C1106 C1090 1.377 . S
C1106 C1104 1.389 . S
C1106 C1107 1.524 . S
C1107 C1106 1.524 . S
C1107 C1108 1.397 . S
C1107 C1112 1.363 . S
C1108 H1079 0.950 . S
C1108 C1107 1.397 . S
C1108 C1109 1.334 . S
C1109 H1080 0.950 . S
C1109 C1108 1.334 . S
C1109 C1110 1.302 . S
C1110 C1109 1.302 . S
C1110 C1111 1.532 . S
C1110 H1113 0.971 1_655 S
C1111 H1081 0.950 1_655 S
C1111 C1110 1.532 . S
C1111 C1112 1.415 . S
C1112 H1082 0.950 . S
C1112 C1107 1.363 . S
C1112 C1111 1.415 . S
H1113 C1110 0.971 1_455 S
H1114 C1095 0.913 . S
H1115 C1133 0.951 . S
H1116 C1135 0.951 . S
H1117 C1137 0.950 . S
H1118 C1138 0.950 . S
H1119 C1140 0.950 . S
H1120 C1143 0.950 . S
H1121 C1144 0.950 . S
H1122 C1146 0.950 . S
H1123 C1147 0.950 . S
H1124 C1148 0.951 . S
H1125 C1150 0.951 . S
H1126 C1152 0.950 . S
H1127 C1153 0.950 . S
H1128 C1155 0.950 . S
H1129 C1158 0.950 . S
H1130 C1159 0.950 . S
H1131 C1161 0.950 . S
H1132 C1162 0.950 . S
C1133 H1115 0.951 . S
C1133 C1134 1.366 . S
C1133 C1135 1.388 . S
C1134 C1133 1.366 . S
C1134 C1138 1.385 . S
C1135 H1116 0.951 . S
C1135 C1133 1.388 . S
C1135 C1136 1.366 . S
C1136 C1135 1.366 . S
C1136 C1137 1.414 . S
C1136 C1139 1.499 . S
C1137 H1117 0.950 . S
C1137 C1136 1.414 . S
C1137 C1138 1.374 . S
C1138 H1118 0.950 . S
C1138 C1134 1.385 . S
C1138 C1137 1.374 . S
C1139 C1136 1.499 . S
C1139 C1140 1.373 . S
C1139 C1141 1.389 . S
C1140 H1119 0.950 . S
C1140 C1139 1.373 . S
C1140 C1156 1.377 . S
C1141 C1139 1.389 . S
C1141 C1142 1.524 . S
C1141 C1155 1.377 . S
C1142 C1141 1.524 . S
C1142 C1143 1.397 . S
C1142 C1147 1.363 . S
C1143 H1120 0.950 . S
C1143 C1142 1.397 . S
C1143 C1144 1.334 1_556 S
C1144 H1121 0.950 . S
C1144 C1143 1.334 1_554 S
C1144 C1145 1.287 . S
C1145 C1144 1.287 . S
C1145 C1146 1.524 . S
C1145 H1164 0.913 . S
C1146 H1122 0.950 . S
C1146 C1145 1.524 . S
C1146 C1147 1.415 1_554 S
C1147 H1123 0.950 . S
C1147 C1142 1.363 . S
C1147 C1146 1.415 1_556 S
C1148 H1124 0.951 . S
C1148 C1149 1.366 . S
C1148 C1150 1.388 . S
C1149 C1148 1.366 . S
C1149 C1153 1.385 . S
C1150 H1125 0.951 . S
C1150 C1148 1.388 . S
C1150 C1151 1.366 . S
C1151 C1150 1.366 . S
C1151 C1152 1.414 . S
C1151 C1154 1.499 . S
C1152 H1126 0.950 . S
C1152 C1151 1.414 . S
C1152 C1153 1.374 . S
C1153 H1127 0.950 . S
C1153 C1149 1.385 . S
C1153 C1152 1.374 . S
C1154 C1151 1.499 . S
C1154 C1155 1.373 . S
C1154 C1156 1.389 . S
C1155 H1128 0.950 . S
C1155 C1141 1.377 . S
C1155 C1154 1.373 . S
C1156 C1140 1.377 . S
C1156 C1154 1.389 . S
C1156 C1157 1.524 . S
C1157 C1156 1.524 . S
C1157 C1158 1.397 . S
C1157 C1162 1.363 . S
C1158 H1129 0.950 . S
C1158 C1157 1.397 . S
C1158 C1159 1.334 . S
C1159 H1130 0.950 . S
C1159 C1158 1.334 . S
C1159 C1160 1.287 . S
C1160 C1159 1.287 . S
C1160 C1161 1.524 . S
C1160 H1163 0.999 . S
C1161 H1131 0.950 . S
C1161 C1160 1.524 . S
C1161 C1162 1.415 . S
C1162 H1132 0.950 . S
C1162 C1157 1.363 . S
C1162 C1161 1.415 . S
H1163 C1160 0.999 . S
H1164 C1145 0.913 . S
H1165 C1183 0.951 . S
H1166 C1185 0.951 . S
H1167 C1187 0.950 . S
H1168 C1188 0.950 1_554 S
H1169 C1190 0.950 . S
H1170 C1193 0.950 . S
H1171 C1194 0.950 . S
H1172 C1196 0.950 . S
H1173 C1197 0.950 . S
H1174 C1198 0.951 . S
H1175 C1200 0.951 . S
H1176 C1202 0.950 . S
H1177 C1203 0.950 . S
H1178 C1205 0.950 . S
H1179 C1208 0.950 . S
H1180 C1209 0.950 . S
H1181 C1211 0.950 . S
H1182 C1212 0.950 . S
C1183 H1165 0.951 . S
C1183 C1184 1.366 . S
C1183 C1185 1.388 . S
C1184 C1183 1.366 . S
C1184 C1188 1.385 . S
C1185 H1166 0.951 . S
C1185 C1183 1.388 . S
C1185 C1186 1.366 . S
C1186 C1185 1.366 . S
C1186 C1187 1.414 . S
C1186 C1189 1.499 . S
C1187 H1167 0.950 . S
C1187 C1186 1.414 . S
C1187 C1188 1.374 . S
C1188 H1168 0.950 1_556 S
C1188 C1184 1.385 . S
C1188 C1187 1.374 . S
C1189 C1186 1.499 . S
C1189 C1190 1.373 . S
C1189 C1191 1.389 . S
C1190 H1169 0.950 . S
C1190 C1189 1.373 . S
C1190 C1206 1.377 . S
C1191 C1189 1.389 . S
C1191 C1192 1.524 . S
C1191 C1205 1.377 . S
C1192 C1191 1.524 . S
C1192 C1193 1.397 . S
C1192 C1197 1.363 . S
C1193 H1170 0.950 . S
C1193 C1192 1.397 . S
C1193 C1194 1.334 . S
C1194 H1171 0.950 . S
C1194 C1193 1.334 . S
C1194 C1195 1.287 . S
C1195 C1194 1.287 . S
C1195 C1196 1.524 . S
C1195 H1214 0.913 . S
C1196 H1172 0.950 . S
C1196 C1195 1.524 . S
C1196 C1197 1.415 . S
C1197 H1173 0.950 . S
C1197 C1192 1.363 . S
C1197 C1196 1.415 . S
C1198 H1174 0.951 . S
C1198 C1199 1.366 . S
C1198 C1200 1.388 . S
C1199 C1198 1.366 . S
C1199 C1203 1.385 . S
C1200 H1175 0.951 . S
C1200 C1198 1.388 . S
C1200 C1201 1.366 . S
C1201 C1200 1.366 . S
C1201 C1202 1.414 . S
C1201 C1204 1.499 . S
C1202 H1176 0.950 . S
C1202 C1201 1.414 . S
C1202 C1203 1.374 . S
C1203 H1177 0.950 . S
C1203 C1199 1.385 . S
C1203 C1202 1.374 . S
C1204 C1201 1.499 . S
C1204 C1205 1.373 . S
C1204 C1206 1.389 . S
C1205 H1178 0.950 . S
C1205 C1191 1.377 . S
C1205 C1204 1.373 . S
C1206 C1190 1.377 . S
C1206 C1204 1.389 . S
C1206 C1207 1.524 . S
C1207 C1206 1.524 . S
C1207 C1208 1.397 . S
C1207 C1212 1.363 . S
C1208 H1179 0.950 . S
C1208 C1207 1.397 . S
C1208 C1209 1.334 . S
C1209 H1180 0.950 . S
C1209 C1208 1.334 . S
C1209 C1210 1.287 . S
C1210 C1209 1.287 . S
C1210 C1211 1.524 . S
C1210 H1213 0.999 . S
C1211 H1181 0.950 . S
C1211 C1210 1.524 . S
C1211 C1212 1.415 . S
C1212 H1182 0.950 . S
C1212 C1207 1.363 . S
C1212 C1211 1.415 . S
H1213 C1210 0.999 . S
H1214 C1195 0.913 . S
H1215 C1233 0.951 . S
H1216 C1235 0.951 . S
H1217 C1237 0.950 . S
H1218 C1238 0.950 . S
H1219 C1240 0.950 . S
H1220 C1243 0.950 . S
H1221 C1244 0.950 . S
H1222 C1246 0.950 . S
H1223 C1247 0.950 . S
H1224 C1248 0.951 . S
H1225 C1250 0.951 . S
H1226 C1252 0.950 . S
H1227 C1253 0.950 . S
H1228 C1255 0.950 . S
H1229 C1258 0.950 . S
H1230 C1259 0.950 . S
H1231 C1261 0.950 . S
H1232 C1262 0.950 . S
C1233 H1215 0.951 . S
C1233 C1234 1.366 . S
C1233 C1235 1.388 1_554 S
C1234 C1233 1.366 . S
C1234 C1238 1.385 1_554 S
C1235 H1216 0.951 . S
C1235 C1233 1.388 1_556 S
C1235 C1236 1.366 . S
C1236 C1235 1.366 . S
C1236 C1237 1.414 . S
C1236 C1239 1.499 . S
C1237 H1217 0.950 . S
C1237 C1236 1.414 . S
C1237 C1238 1.374 . S
C1238 H1218 0.950 . S
C1238 C1234 1.385 1_556 S
C1238 C1237 1.374 . S
C1239 C1236 1.499 . S
C1239 C1240 1.373 . S
C1239 C1241 1.389 . S
C1240 H1219 0.950 . S
C1240 C1239 1.373 . S
C1240 C1256 1.377 . S
C1241 C1239 1.389 . S
C1241 C1242 1.524 . S
C1241 C1255 1.377 . S
C1242 C1241 1.524 . S
C1242 C1243 1.397 . S
C1242 C1247 1.363 . S
C1243 H1220 0.950 . S
C1243 C1242 1.397 . S
C1243 C1244 1.334 . S
C1244 H1221 0.950 . S
C1244 C1243 1.334 . S
C1244 C1245 1.287 1_556 S
C1245 C1244 1.287 1_554 S
C1245 C1246 1.524 . S
C1245 H1264 0.913 . S
C1246 H1222 0.950 . S
C1246 C1245 1.524 . S
C1246 C1247 1.415 1_554 S
C1247 H1223 0.950 . S
C1247 C1242 1.363 . S
C1247 C1246 1.415 1_556 S
C1248 H1224 0.951 . S
C1248 C1249 1.366 . S
C1248 C1250 1.388 . S
C1249 C1248 1.366 . S
C1249 C1253 1.385 . S
C1250 H1225 0.951 . S
C1250 C1248 1.388 . S
C1250 C1251 1.366 . S
C1251 C1250 1.366 . S
C1251 C1252 1.414 . S
C1251 C1254 1.499 . S
C1252 H1226 0.950 . S
C1252 C1251 1.414 . S
C1252 C1253 1.374 . S
C1253 H1227 0.950 . S
C1253 C1249 1.385 . S
C1253 C1252 1.374 . S
C1254 C1251 1.499 . S
C1254 C1255 1.373 . S
C1254 C1256 1.389 . S
C1255 H1228 0.950 . S
C1255 C1241 1.377 . S
C1255 C1254 1.373 . S
C1256 C1240 1.377 . S
C1256 C1254 1.389 . S
C1256 C1257 1.524 . S
C1257 C1256 1.524 . S
C1257 C1258 1.397 . S
C1257 C1262 1.363 . S
C1258 H1229 0.950 . S
C1258 C1257 1.397 . S
C1258 C1259 1.334 . S
C1259 H1230 0.950 . S
C1259 C1258 1.334 . S
C1259 C1260 1.287 . S
C1260 C1259 1.287 . S
C1260 C1261 1.524 . S
C1260 H1263 0.999 . S
C1261 H1231 0.950 . S
C1261 C1260 1.524 . S
C1261 C1262 1.415 . S
C1262 H1232 0.950 . S
C1262 C1257 1.363 . S
C1262 C1261 1.415 . S
H1263 C1260 0.999 . S
H1264 C1245 0.913 . S
H1265 C1283 0.951 . S
H1266 C1285 0.951 . S
H1267 C1287 0.950 . S
H1268 C1288 0.950 . S
H1269 C1290 0.950 . S
H1270 C1293 0.950 . S
H1271 C1294 0.950 . S
H1272 C1296 0.950 . S
H1273 C1297 0.950 . S
H1274 C1298 0.951 . S
H1275 C1300 0.951 . S
H1276 C1302 0.950 . S
H1277 C1303 0.950 . S
H1278 C1305 0.950 . S
H1279 C1308 0.950 . S
H1280 C1309 0.950 . S
H1281 C1311 0.950 . S
H1282 C1312 0.950 . S
C1283 H1265 0.951 . S
C1283 C1284 1.366 . S
C1283 C1285 1.388 . S
C1284 C1283 1.366 . S
C1284 C1288 1.385 . S
C1285 H1266 0.951 . S
C1285 C1283 1.388 . S
C1285 C1286 1.366 . S
C1286 C1285 1.366 . S
C1286 C1287 1.414 . S
C1286 C1289 1.499 . S
C1287 H1267 0.950 . S
C1287 C1286 1.414 . S
C1287 C1288 1.374 . S
C1288 H1268 0.950 . S
C1288 C1284 1.385 . S
C1288 C1287 1.374 . S
C1289 C1286 1.499 . S
C1289 C1290 1.373 . S
C1289 C1291 1.389 . S
C1290 H1269 0.950 . S
C1290 C1289 1.373 . S
C1290 C1306 1.377 . S
C1291 C1289 1.389 . S
C1291 C1292 1.524 . S
C1291 C1305 1.377 . S
C1292 C1291 1.524 . S
C1292 C1293 1.397 . S
C1292 C1297 1.363 . S
C1293 H1270 0.950 . S
C1293 C1292 1.397 . S
C1293 C1294 1.334 . S
C1294 H1271 0.950 . S
C1294 C1293 1.334 . S
C1294 C1295 1.287 . S
C1295 C1294 1.287 . S
C1295 C1296 1.524 . S
C1295 H1314 0.913 . S
C1296 H1272 0.950 . S
C1296 C1295 1.524 . S
C1296 C1297 1.415 . S
C1297 H1273 0.950 . S
C1297 C1292 1.363 . S
C1297 C1296 1.415 . S
C1298 H1274 0.951 . S
C1298 C1299 1.366 . S
C1298 C1300 1.388 . S
C1299 C1298 1.366 . S
C1299 C1303 1.385 . S
C1300 H1275 0.951 . S
C1300 C1298 1.388 . S
C1300 C1301 1.366 . S
C1301 C1300 1.366 . S
C1301 C1302 1.414 . S
C1301 C1304 1.499 . S
C1302 H1276 0.950 . S
C1302 C1301 1.414 . S
C1302 C1303 1.374 . S
C1303 H1277 0.950 . S
C1303 C1299 1.385 . S
C1303 C1302 1.374 . S
C1304 C1301 1.499 . S
C1304 C1305 1.373 . S
C1304 C1306 1.389 . S
C1305 H1278 0.950 . S
C1305 C1291 1.377 . S
C1305 C1304 1.373 . S
C1306 C1290 1.377 . S
C1306 C1304 1.389 . S
C1306 C1307 1.524 . S
C1307 C1306 1.524 . S
C1307 C1308 1.397 . S
C1307 C1312 1.363 . S
C1308 H1279 0.950 . S
C1308 C1307 1.397 . S
C1308 C1309 1.334 . S
C1309 H1280 0.950 . S
C1309 C1308 1.334 . S
C1309 C1310 1.287 . S
C1310 C1309 1.287 . S
C1310 C1311 1.524 . S
C1310 H1313 0.999 . S
C1311 H1281 0.950 . S
C1311 C1310 1.524 . S
C1311 C1312 1.415 . S
C1312 H1282 0.950 . S
C1312 C1307 1.363 . S
C1312 C1311 1.415 . S
H1313 C1310 0.999 . S
H1314 C1295 0.913 . S
H1315 C1333 0.951 . S
H1316 C1335 0.951 . S
H1317 C1337 0.950 . S
H1318 C1338 0.950 . S
H1319 C1340 0.950 . S
H1320 C1343 0.950 . S
H1321 C1344 0.950 . S
H1322 C1346 0.950 . S
H1323 C1347 0.950 . S
H1324 C1348 0.951 . S
H1325 C1350 0.951 . S
H1326 C1352 0.950 . S
H1327 C1353 0.950 . S
H1328 C1355 0.950 . S
H1329 C1358 0.950 . S
H1330 C1359 0.950 . S
H1331 C1361 0.950 . S
H1332 C1362 0.950 . S
C1333 H1315 0.951 . S
C1333 C1334 1.366 . S
C1333 C1335 1.388 . S
C1334 C1333 1.366 . S
C1334 C1338 1.385 . S
C1335 H1316 0.951 . S
C1335 C1333 1.388 . S
C1335 C1336 1.366 . S
C1336 C1335 1.366 . S
C1336 C1337 1.414 . S
C1336 C1339 1.499 . S
C1337 H1317 0.950 . S
C1337 C1336 1.414 . S
C1337 C1338 1.374 . S
C1338 H1318 0.950 . S
C1338 C1334 1.385 . S
C1338 C1337 1.374 . S
C1339 C1336 1.499 . S
C1339 C1340 1.373 . S
C1339 C1341 1.389 . S
C1340 H1319 0.950 . S
C1340 C1339 1.373 . S
C1340 C1356 1.377 . S
C1341 C1339 1.389 . S
C1341 C1342 1.524 . S
C1341 C1355 1.377 . S
C1342 C1341 1.524 . S
C1342 C1343 1.397 . S
C1342 C1347 1.363 . S
C1343 H1320 0.950 . S
C1343 C1342 1.397 . S
C1343 C1344 1.334 . S
C1344 H1321 0.950 . S
C1344 C1343 1.334 . S
C1344 C1345 1.287 . S
C1345 C1344 1.287 . S
C1345 C1346 1.524 . S
C1345 H1364 0.913 . S
C1346 H1322 0.950 . S
C1346 C1345 1.524 . S
C1346 C1347 1.415 . S
C1347 H1323 0.950 . S
C1347 C1342 1.363 . S
C1347 C1346 1.415 . S
C1348 H1324 0.951 . S
C1348 C1349 1.366 . S
C1348 C1350 1.388 . S
C1349 C1348 1.366 . S
C1349 C1353 1.385 . S
C1350 H1325 0.951 . S
C1350 C1348 1.388 . S
C1350 C1351 1.366 . S
C1351 C1350 1.366 . S
C1351 C1352 1.414 . S
C1351 C1354 1.499 . S
C1352 H1326 0.950 . S
C1352 C1351 1.414 . S
C1352 C1353 1.374 . S
C1353 H1327 0.950 . S
C1353 C1349 1.385 . S
C1353 C1352 1.374 . S
C1354 C1351 1.499 . S
C1354 C1355 1.373 . S
C1354 C1356 1.389 . S
C1355 H1328 0.950 . S
C1355 C1341 1.377 . S
C1355 C1354 1.373 . S
C1356 C1340 1.377 . S
C1356 C1354 1.389 . S
C1356 C1357 1.524 . S
C1357 C1356 1.524 . S
C1357 C1358 1.397 . S
C1357 C1362 1.363 . S
C1358 H1329 0.950 . S
C1358 C1357 1.397 . S
C1358 C1359 1.334 . S
C1359 H1330 0.950 . S
C1359 C1358 1.334 . S
C1359 C1360 1.287 . S
C1360 C1359 1.287 . S
C1360 C1361 1.524 . S
C1360 H1363 0.999 . S
C1361 H1331 0.950 . S
C1361 C1360 1.524 . S
C1361 C1362 1.415 . S
C1362 H1332 0.950 . S
C1362 C1357 1.363 . S
C1362 C1361 1.415 . S
H1363 C1360 0.999 . S
H1364 C1345 0.913 . S
H1365 C1383 0.951 . S
H1366 C1385 0.951 . S
H1367 C1387 0.950 . S
H1368 C1388 0.950 . S
H1369 C1390 0.950 . S
H1370 C1393 0.950 . S
H1371 C1394 0.950 . S
H1372 C1396 0.950 . S
H1373 C1397 0.950 . S
H1374 C1398 0.951 . S
H1375 C1400 0.951 . S
H1376 C1402 0.950 . S
H1377 C1403 0.950 . S
H1378 C1405 0.950 . S
H1379 C1408 0.950 . S
H1380 C1409 0.950 . S
H1381 C1411 0.950 . S
H1382 C1412 0.950 . S
C1383 H1365 0.951 . S
C1383 C1384 1.366 . S
C1383 C1385 1.388 . S
C1384 C1383 1.366 . S
C1384 C1388 1.385 . S
C1385 H1366 0.951 . S
C1385 C1383 1.388 . S
C1385 C1386 1.366 . S
C1386 C1385 1.366 . S
C1386 C1387 1.414 . S
C1386 C1389 1.499 . S
C1387 H1367 0.950 . S
C1387 C1386 1.414 . S
C1387 C1388 1.374 . S
C1388 H1368 0.950 . S
C1388 C1384 1.385 . S
C1388 C1387 1.374 . S
C1389 C1386 1.499 . S
C1389 C1390 1.373 . S
C1389 C1391 1.389 . S
C1390 H1369 0.950 . S
C1390 C1389 1.373 . S
C1390 C1406 1.377 . S
C1391 C1389 1.389 . S
C1391 C1392 1.524 . S
C1391 C1405 1.377 . S
C1392 C1391 1.524 . S
C1392 C1393 1.397 . S
C1392 C1397 1.363 . S
C1393 H1370 0.950 . S
C1393 C1392 1.397 . S
C1393 C1394 1.334 . S
C1394 H1371 0.950 . S
C1394 C1393 1.334 . S
C1394 C1395 1.287 . S
C1395 C1394 1.287 . S
C1395 C1396 1.524 . S
C1395 H1414 0.913 . S
C1396 H1372 0.950 . S
C1396 C1395 1.524 . S
C1396 C1397 1.415 . S
C1397 H1373 0.950 . S
C1397 C1392 1.363 . S
C1397 C1396 1.415 . S
C1398 H1374 0.951 . S
C1398 C1399 1.366 . S
C1398 C1400 1.388 . S
C1399 C1398 1.366 . S
C1399 C1403 1.385 . S
C1400 H1375 0.951 . S
C1400 C1398 1.388 . S
C1400 C1401 1.366 . S
C1401 C1400 1.366 . S
C1401 C1402 1.414 . S
C1401 C1404 1.499 . S
C1402 H1376 0.950 . S
C1402 C1401 1.414 . S
C1402 C1403 1.374 . S
C1403 H1377 0.950 . S
C1403 C1399 1.385 . S
C1403 C1402 1.374 . S
C1404 C1401 1.499 . S
C1404 C1405 1.373 . S
C1404 C1406 1.389 . S
C1405 H1378 0.950 . S
C1405 C1391 1.377 . S
C1405 C1404 1.373 . S
C1406 C1390 1.377 . S
C1406 C1404 1.389 . S
C1406 C1407 1.524 . S
C1407 C1406 1.524 . S
C1407 C1408 1.397 . S
C1407 C1412 1.363 . S
C1408 H1379 0.950 . S
C1408 C1407 1.397 . S
C1408 C1409 1.334 . S
C1409 H1380 0.950 . S
C1409 C1408 1.334 . S
C1409 C1410 1.287 . S
C1410 C1409 1.287 . S
C1410 C1411 1.524 . S
C1410 H1413 0.999 . S
C1411 H1381 0.950 . S
C1411 C1410 1.524 . S
C1411 C1412 1.415 . S
C1412 H1382 0.950 . S
C1412 C1407 1.363 . S
C1412 C1411 1.415 . S
H1413 C1410 0.999 . S
H1414 C1395 0.913 . S
H1415 C1433 0.951 . S
H1416 C1435 0.951 . S
H1417 C1437 0.950 . S
H1418 C1438 0.950 . S
H1419 C1440 0.950 . S
H1420 C1443 0.950 . S
H1421 C1444 0.950 . S
H1422 C1446 0.950 . S
H1423 C1447 0.950 . S
H1424 C1448 0.951 . S
H1425 C1450 0.951 . S
H1426 C1452 0.950 . S
H1427 C1453 0.950 . S
H1428 C1455 0.950 . S
H1429 C1458 0.950 . S
H1430 C1459 0.950 . S
H1431 C1461 0.950 . S
H1432 C1462 0.950 . S
C1433 H1415 0.951 . S
C1433 C1434 1.366 . S
C1433 C1435 1.388 . S
C1434 C1433 1.366 . S
C1434 C1438 1.385 . S
C1435 H1416 0.951 . S
C1435 C1433 1.388 . S
C1435 C1436 1.366 . S
C1436 C1435 1.366 . S
C1436 C1437 1.414 . S
C1436 C1439 1.499 . S
C1437 H1417 0.950 . S
C1437 C1436 1.414 . S
C1437 C1438 1.374 . S
C1438 H1418 0.950 . S
C1438 C1434 1.385 . S
C1438 C1437 1.374 . S
C1439 C1436 1.499 . S
C1439 C1440 1.373 . S
C1439 C1441 1.389 . S
C1440 H1419 0.950 . S
C1440 C1439 1.373 . S
C1440 C1456 1.377 . S
C1441 C1439 1.389 . S
C1441 C1442 1.524 . S
C1441 C1455 1.377 . S
C1442 C1441 1.524 . S
C1442 C1443 1.397 . S
C1442 C1447 1.363 . S
C1443 H1420 0.950 . S
C1443 C1442 1.397 . S
C1443 C1444 1.334 . S
C1444 H1421 0.950 . S
C1444 C1443 1.334 . S
C1444 C1445 1.287 . S
C1445 C1444 1.287 . S
C1445 C1446 1.524 . S
C1445 H1464 0.913 . S
C1446 H1422 0.950 . S
C1446 C1445 1.524 . S
C1446 C1447 1.415 . S
C1447 H1423 0.950 . S
C1447 C1442 1.363 . S
C1447 C1446 1.415 . S
C1448 H1424 0.951 . S
C1448 C1449 1.366 . S
C1448 C1450 1.388 . S
C1449 C1448 1.366 . S
C1449 C1453 1.385 . S
C1450 H1425 0.951 . S
C1450 C1448 1.388 . S
C1450 C1451 1.366 . S
C1451 C1450 1.366 . S
C1451 C1452 1.414 . S
C1451 C1454 1.499 . S
C1452 H1426 0.950 . S
C1452 C1451 1.414 . S
C1452 C1453 1.374 . S
C1453 H1427 0.950 . S
C1453 C1449 1.385 . S
C1453 C1452 1.374 . S
C1454 C1451 1.499 . S
C1454 C1455 1.373 . S
C1454 C1456 1.389 . S
C1455 H1428 0.950 . S
C1455 C1441 1.377 . S
C1455 C1454 1.373 . S
C1456 C1440 1.377 . S
C1456 C1454 1.389 . S
C1456 C1457 1.524 . S
C1457 C1456 1.524 . S
C1457 C1458 1.397 . S
C1457 C1462 1.363 . S
C1458 H1429 0.950 . S
C1458 C1457 1.397 . S
C1458 C1459 1.334 . S
C1459 H1430 0.950 . S
C1459 C1458 1.334 . S
C1459 C1460 1.287 . S
C1460 C1459 1.287 . S
C1460 C1461 1.524 . S
C1460 H1463 0.999 . S
C1461 H1431 0.950 . S
C1461 C1460 1.524 . S
C1461 C1462 1.415 . S
C1462 H1432 0.950 . S
C1462 C1457 1.363 . S
C1462 C1461 1.415 . S
H1463 C1460 0.999 . S
H1464 C1445 0.913 . S
H1465 C1483 0.951 . S
H1466 C1485 0.951 . S
H1467 C1487 0.950 . S
H1468 C1488 0.950 . S
H1469 C1490 0.950 . S
H1470 C1493 0.950 . S
H1471 C1494 0.950 . S
H1472 C1496 0.950 . S
H1473 C1497 0.950 . S
H1474 C1498 0.951 . S
H1475 C1500 0.951 . S
H1476 C1502 0.950 . S
H1477 C1503 0.950 . S
H1478 C1505 0.950 . S
H1479 C1508 0.950 . S
H1480 C1509 0.950 . S
H1481 C1511 0.950 . S
H1482 C1512 0.950 . S
C1483 H1465 0.951 . S
C1483 C1484 1.366 . S
C1483 C1485 1.388 . S
C1484 C1483 1.366 . S
C1484 C1488 1.385 . S
C1485 H1466 0.951 . S
C1485 C1483 1.388 . S
C1485 C1486 1.366 . S
C1486 C1485 1.366 . S
C1486 C1487 1.414 . S
C1486 C1489 1.499 . S
C1487 H1467 0.950 . S
C1487 C1486 1.414 . S
C1487 C1488 1.374 . S
C1488 H1468 0.950 . S
C1488 C1484 1.385 . S
C1488 C1487 1.374 . S
C1489 C1486 1.499 . S
C1489 C1490 1.373 . S
C1489 C1491 1.389 . S
C1490 H1469 0.950 . S
C1490 C1489 1.373 . S
C1490 C1506 1.377 . S
C1491 C1489 1.389 . S
C1491 C1492 1.524 . S
C1491 C1505 1.377 . S
C1492 C1491 1.524 . S
C1492 C1493 1.397 . S
C1492 C1497 1.363 . S
C1493 H1470 0.950 . S
C1493 C1492 1.397 . S
C1493 C1494 1.334 . S
C1494 H1471 0.950 . S
C1494 C1493 1.334 . S
C1494 C1495 1.287 . S
C1495 C1494 1.287 . S
C1495 C1496 1.524 . S
C1495 H1514 0.913 . S
C1496 H1472 0.950 . S
C1496 C1495 1.524 . S
C1496 C1497 1.415 . S
C1497 H1473 0.950 . S
C1497 C1492 1.363 . S
C1497 C1496 1.415 . S
C1498 H1474 0.951 . S
C1498 C1499 1.366 . S
C1498 C1500 1.388 . S
C1499 C1498 1.366 . S
C1499 C1503 1.385 . S
C1500 H1475 0.951 . S
C1500 C1498 1.388 . S
C1500 C1501 1.366 . S
C1501 C1500 1.366 . S
C1501 C1502 1.414 . S
C1501 C1504 1.499 . S
C1502 H1476 0.950 . S
C1502 C1501 1.414 . S
C1502 C1503 1.374 . S
C1503 H1477 0.950 . S
C1503 C1499 1.385 . S
C1503 C1502 1.374 . S
C1504 C1501 1.499 . S
C1504 C1505 1.373 . S
C1504 C1506 1.389 . S
C1505 H1478 0.950 . S
C1505 C1491 1.377 . S
C1505 C1504 1.373 . S
C1506 C1490 1.377 . S
C1506 C1504 1.389 . S
C1506 C1507 1.524 . S
C1507 C1506 1.524 . S
C1507 C1508 1.397 . S
C1507 C1512 1.363 . S
C1508 H1479 0.950 . S
C1508 C1507 1.397 . S
C1508 C1509 1.334 . S
C1509 H1480 0.950 . S
C1509 C1508 1.334 . S
C1509 C1510 1.287 . S
C1510 C1509 1.287 . S
C1510 C1511 1.524 . S
C1510 H1513 0.999 . S
C1511 H1481 0.950 . S
C1511 C1510 1.524 . S
C1511 C1512 1.415 . S
C1512 H1482 0.950 . S
C1512 C1507 1.363 . S
C1512 C1511 1.415 . S
H1513 C1510 0.999 . S
H1514 C1495 0.913 . S
H1515 C1533 0.951 . S
H1516 C1535 0.951 . S
H1517 C1537 0.950 . S
H1518 C1538 0.950 . S
H1519 C1540 0.950 . S
H1520 C1543 0.950 . S
H1521 C1544 0.950 . S
H1522 C1546 0.950 . S
H1523 C1547 0.950 . S
H1524 C1548 0.951 . S
H1525 C1550 0.951 . S
H1526 C1552 0.950 . S
H1527 C1553 0.950 . S
H1528 C1555 0.950 . S
H1529 C1558 0.950 . S
H1530 C1559 0.950 . S
H1531 C1561 0.950 . S
H1532 C1562 0.950 . S
C1533 H1515 0.951 . S
C1533 C1534 1.366 . S
C1533 C1535 1.388 . S
C1534 C1533 1.366 . S
C1534 C1538 1.385 . S
C1535 H1516 0.951 . S
C1535 C1533 1.388 . S
C1535 C1536 1.366 . S
C1536 C1535 1.366 . S
C1536 C1537 1.414 . S
C1536 C1539 1.499 . S
C1537 H1517 0.950 . S
C1537 C1536 1.414 . S
C1537 C1538 1.374 . S
C1538 H1518 0.950 . S
C1538 C1534 1.385 . S
C1538 C1537 1.374 . S
C1539 C1536 1.499 . S
C1539 C1540 1.373 . S
C1539 C1541 1.389 . S
C1540 H1519 0.950 . S
C1540 C1539 1.373 . S
C1540 C1556 1.377 . S
C1541 C1539 1.389 . S
C1541 C1542 1.524 . S
C1541 C1555 1.377 . S
C1542 C1541 1.524 . S
C1542 C1543 1.397 . S
C1542 C1547 1.363 . S
C1543 H1520 0.950 . S
C1543 C1542 1.397 . S
C1543 C1544 1.334 . S
C1544 H1521 0.950 . S
C1544 C1543 1.334 . S
C1544 C1545 1.287 . S
C1545 C1544 1.287 . S
C1545 C1546 1.524 . S
C1545 H1564 0.913 . S
C1546 H1522 0.950 . S
C1546 C1545 1.524 . S
C1546 C1547 1.415 . S
C1547 H1523 0.950 . S
C1547 C1542 1.363 . S
C1547 C1546 1.415 . S
C1548 H1524 0.951 . S
C1548 C1549 1.366 . S
C1548 C1550 1.388 . S
C1549 C1548 1.366 . S
C1549 C1553 1.385 . S
C1550 H1525 0.951 . S
C1550 C1548 1.388 . S
C1550 C1551 1.366 . S
C1551 C1550 1.366 . S
C1551 C1552 1.414 . S
C1551 C1554 1.499 . S
C1552 H1526 0.950 . S
C1552 C1551 1.414 . S
C1552 C1553 1.374 . S
C1553 H1527 0.950 . S
C1553 C1549 1.385 . S
C1553 C1552 1.374 . S
C1554 C1551 1.499 . S
C1554 C1555 1.373 . S
C1554 C1556 1.389 . S
C1555 H1528 0.950 . S
C1555 C1541 1.377 . S
C1555 C1554 1.373 . S
C1556 C1540 1.377 . S
C1556 C1554 1.389 . S
C1556 C1557 1.524 . S
C1557 C1556 1.524 . S
C1557 C1558 1.397 . S
C1557 C1562 1.363 . S
C1558 H1529 0.950 . S
C1558 C1557 1.397 . S
C1558 C1559 1.334 . S
C1559 H1530 0.950 . S
C1559 C1558 1.334 . S
C1559 C1560 1.287 . S
C1560 C1559 1.287 . S
C1560 C1561 1.524 . S
C1560 H1563 0.999 . S
C1561 H1531 0.950 . S
C1561 C1560 1.524 . S
C1561 C1562 1.415 . S
C1562 H1532 0.950 . S
C1562 C1557 1.363 . S
C1562 C1561 1.415 . S
H1563 C1560 0.999 . S
H1564 C1545 0.913 . S
H1565 C1583 0.951 . S
H1566 C1585 0.951 . S
H1567 C1587 0.950 . S
H1568 C1588 0.950 . S
H1569 C1590 0.950 . S
H1570 C1593 0.950 . S
H1571 C1594 0.950 . S
H1572 C1596 0.950 . S
H1573 C1597 0.950 . S
H1574 C1598 0.951 . S
H1575 C1600 0.951 . S
H1576 C1602 0.950 . S
H1577 C1603 0.950 . S
H1578 C1605 0.950 . S
H1579 C1608 0.950 . S
H1580 C1609 0.950 . S
H1581 C1611 0.950 . S
H1582 C1612 0.950 . S
C1583 H1565 0.951 . S
C1583 C1584 1.366 . S
C1583 C1585 1.388 . S
C1584 C1583 1.366 . S
C1584 C1588 1.385 . S
C1585 H1566 0.951 . S
C1585 C1583 1.388 . S
C1585 C1586 1.366 . S
C1586 C1585 1.366 . S
C1586 C1587 1.414 . S
C1586 C1589 1.499 . S
C1587 H1567 0.950 . S
C1587 C1586 1.414 . S
C1587 C1588 1.374 . S
C1588 H1568 0.950 . S
C1588 C1584 1.385 . S
C1588 C1587 1.374 . S
C1589 C1586 1.499 . S
C1589 C1590 1.373 . S
C1589 C1591 1.389 . S
C1590 H1569 0.950 . S
C1590 C1589 1.373 . S
C1590 C1606 1.377 . S
C1591 C1589 1.389 . S
C1591 C1592 1.524 . S
C1591 C1605 1.377 . S
C1592 C1591 1.524 . S
C1592 C1593 1.397 . S
C1592 C1597 1.363 . S
C1593 H1570 0.950 . S
C1593 C1592 1.397 . S
C1593 C1594 1.334 . S
C1594 H1571 0.950 . S
C1594 C1593 1.334 . S
C1594 C1595 1.287 . S
C1595 C1594 1.287 . S
C1595 C1596 1.524 . S
C1595 H1614 0.913 . S
C1596 H1572 0.950 . S
C1596 C1595 1.524 . S
C1596 C1597 1.415 . S
C1597 H1573 0.950 . S
C1597 C1592 1.363 . S
C1597 C1596 1.415 . S
C1598 H1574 0.951 . S
C1598 C1599 1.366 . S
C1598 C1600 1.388 . S
C1599 C1598 1.366 . S
C1599 C1603 1.385 . S
C1600 H1575 0.951 . S
C1600 C1598 1.388 . S
C1600 C1601 1.366 . S
C1601 C1600 1.366 . S
C1601 C1602 1.414 . S
C1601 C1604 1.499 . S
C1602 H1576 0.950 . S
C1602 C1601 1.414 . S
C1602 C1603 1.374 . S
C1603 H1577 0.950 . S
C1603 C1599 1.385 . S
C1603 C1602 1.374 . S
C1604 C1601 1.499 . S
C1604 C1605 1.373 . S
C1604 C1606 1.389 . S
C1605 H1578 0.950 . S
C1605 C1591 1.377 . S
C1605 C1604 1.373 . S
C1606 C1590 1.377 . S
C1606 C1604 1.389 . S
C1606 C1607 1.524 . S
C1607 C1606 1.524 . S
C1607 C1608 1.397 . S
C1607 C1612 1.363 . S
C1608 H1579 0.950 . S
C1608 C1607 1.397 . S
C1608 C1609 1.334 . S
C1609 H1580 0.950 . S
C1609 C1608 1.334 . S
C1609 C1610 1.287 . S
C1610 C1609 1.287 . S
C1610 C1611 1.524 . S
C1610 H1613 0.999 . S
C1611 H1581 0.950 . S
C1611 C1610 1.524 . S
C1611 C1612 1.415 . S
C1612 H1582 0.950 . S
C1612 C1607 1.363 . S
C1612 C1611 1.415 . S
H1613 C1610 0.999 . S
H1614 C1595 0.913 . S
H1615 C1633 0.951 . S
H1616 C1635 0.951 . S
H1617 C1637 0.950 . S
H1618 C1638 0.950 . S
H1619 C1640 0.950 . S
H1620 C1643 0.950 . S
H1621 C1644 0.950 . S
H1622 C1646 0.950 . S
H1623 C1647 0.950 . S
H1624 C1648 0.951 . S
H1625 C1650 0.951 . S
H1626 C1652 0.950 . S
H1627 C1653 0.950 . S
H1628 C1655 0.950 . S
H1629 C1658 0.950 . S
H1630 C1659 0.950 . S
H1631 C1661 0.950 . S
H1632 C1662 0.950 . S
C1633 H1615 0.951 . S
C1633 C1634 1.366 . S
C1633 C1635 1.388 . S
C1634 C1633 1.366 . S
C1634 C1638 1.385 . S
C1635 H1616 0.951 . S
C1635 C1633 1.388 . S
C1635 C1636 1.366 . S
C1636 C1635 1.366 . S
C1636 C1637 1.414 . S
C1636 C1639 1.499 . S
C1637 H1617 0.950 . S
C1637 C1636 1.414 . S
C1637 C1638 1.374 . S
C1638 H1618 0.950 . S
C1638 C1634 1.385 . S
C1638 C1637 1.374 . S
C1639 C1636 1.499 . S
C1639 C1640 1.373 . S
C1639 C1641 1.389 . S
C1640 H1619 0.950 . S
C1640 C1639 1.373 . S
C1640 C1656 1.377 . S
C1641 C1639 1.389 . S
C1641 C1642 1.524 . S
C1641 C1655 1.377 . S
C1642 C1641 1.524 . S
C1642 C1643 1.397 . S
C1642 C1647 1.363 . S
C1643 H1620 0.950 . S
C1643 C1642 1.397 . S
C1643 C1644 1.334 . S
C1644 H1621 0.950 . S
C1644 C1643 1.334 . S
C1644 C1645 1.287 . S
C1645 C1644 1.287 . S
C1645 C1646 1.524 . S
C1645 H1664 0.913 . S
C1646 H1622 0.950 . S
C1646 C1645 1.524 . S
C1646 C1647 1.415 . S
C1647 H1623 0.950 . S
C1647 C1642 1.363 . S
C1647 C1646 1.415 . S
C1648 H1624 0.951 . S
C1648 C1649 1.366 . S
C1648 C1650 1.388 . S
C1649 C1648 1.366 . S
C1649 C1653 1.385 . S
C1650 H1625 0.951 . S
C1650 C1648 1.388 . S
C1650 C1651 1.366 . S
C1651 C1650 1.366 . S
C1651 C1652 1.414 . S
C1651 C1654 1.499 . S
C1652 H1626 0.950 . S
C1652 C1651 1.414 . S
C1652 C1653 1.374 . S
C1653 H1627 0.950 . S
C1653 C1649 1.385 . S
C1653 C1652 1.374 . S
C1654 C1651 1.499 . S
C1654 C1655 1.373 . S
C1654 C1656 1.389 . S
C1655 H1628 0.950 . S
C1655 C1641 1.377 . S
C1655 C1654 1.373 . S
C1656 C1640 1.377 . S
C1656 C1654 1.389 . S
C1656 C1657 1.524 . S
C1657 C1656 1.524 . S
C1657 C1658 1.397 . S
C1657 C1662 1.363 . S
C1658 H1629 0.950 . S
C1658 C1657 1.397 . S
C1658 C1659 1.334 . S
C1659 H1630 0.950 . S
C1659 C1658 1.334 . S
C1659 C1660 1.287 . S
C1660 C1659 1.287 . S
C1660 C1661 1.524 . S
C1660 H1663 0.999 . S
C1661 H1631 0.950 . S
C1661 C1660 1.524 . S
C1661 C1662 1.415 . S
C1662 H1632 0.950 . S
C1662 C1657 1.363 . S
C1662 C1661 1.415 . S
H1663 C1660 0.999 . S
H1664 C1645 0.913 . S
C484 C47 1.877 . S
C499 C372 1.969 . S
C534 C91 1.835 . S
C549 C404 1.916 . S
C599 C463 1.971 . S
C584 C177 2.023 . S
C649 C392 1.757 . S
C634 C215 1.721 . S
C684 C295 1.756 . S
C699 C422 1.800 . S
C749 C444 1.006 . S
C734 C345 0.995 . S
C799 C413 1.952 . S
C784 C153 1.850 . S
C834 C239 1.075 . S
C849 C453 1.042 . S
C899 C402 1.443 . S
C884 C283 1.452 . S
C934 C357 1.758 1_556 S
C949 C432 1.836 . S
C984 C35 1.927 . S
C999 C435 1.901 . S
C1049 C374 1.590 . S
C1034 C115 1.609 . S
C1099 C382 1.458 . S
C1084 C221 1.483 . S
C1149 C423 1.523 . S
C1134 C301 1.528 . S
C1199 C436 2.324 . S
C1184 C339 2.248 1_556 S
C1249 C373 1.486 . S
C1234 C53 1.510 . S
C1299 C433 1.405 . S
C1284 C97 1.445 . S
C1334 C171 1.359 . S
C1349 C434 1.418 . S
C1399 C403 1.465 . S
C1384 C363 1.491 . S
C1449 C464 1.421 . S
C1434 C29 1.317 . S
C1499 C391 1.759 . S
C1484 C109 1.741 . S
C1549 C405 1.565 . S
C1534 C159 1.607 . S
C1584 C233 2.190 . S
C1599 C454 2.225 . S
C1634 C277 1.878 . S
C1649 C401 1.999 . S
