# Generated by pormake.
# Topology anh, (6,3)-cn, num edge types: 1
# Building blocks:
#     Node 0, Type 0, BuildingBlock: BETFEN_clean_sbu_0, # of connection points: 6
#     Node 1, Type 0, BuildingBlock: BETFEN_clean_sbu_0, # of connection points: 6
#     Node 2, Type 0, BuildingBlock: BETFEN_clean_sbu_0, # of connection points: 6
#     Node 3, Type 1, BuildingBlock: PAMTOO_clean_linker_0, # of connection points: 3
#     Node 4, Type 1, BuildingBlock: PAMTOO_clean_linker_0, # of connection points: 3
#     Node 5, Type 1, BuildingBlock: PAMTOO_clean_linker_0, # of connection points: 3
#     Node 6, Type 1, BuildingBlock: PAMTOO_clean_linker_0, # of connection points: 3
#     Node 7, Type 1, BuildingBlock: PAMTOO_clean_linker_0, # of connection points: 3
#     Node 8, Type 1, BuildingBlock: PAMTOO_clean_linker_0, # of connection points: 3
#     Edge 9, Type (0, 1), BuildingBlock: ZUJKAS_clean_linker_0, # of connection points: 2
#     Edge 10, Type (0, 1), BuildingBlock: ZUJKAS_clean_linker_0, # of connection points: 2
#     Edge 11, Type (0, 1), BuildingBlock: ZUJKAS_clean_linker_0, # of connection points: 2
#     Edge 12, Type (0, 1), BuildingBlock: ZUJKAS_clean_linker_0, # of connection points: 2
#     Edge 13, Type (0, 1), BuildingBlock: ZUJKAS_clean_linker_0, # of connection points: 2
#     Edge 14, Type (0, 1), BuildingBlock: ZUJKAS_clean_linker_0, # of connection points: 2
#     Edge 15, Type (0, 1), BuildingBlock: ZUJKAS_clean_linker_0, # of connection points: 2
#     Edge 16, Type (0, 1), BuildingBlock: ZUJKAS_clean_linker_0, # of connection points: 2
#     Edge 17, Type (0, 1), BuildingBlock: ZUJKAS_clean_linker_0, # of connection points: 2
#     Edge 18, Type (0, 1), BuildingBlock: ZUJKAS_clean_linker_0, # of connection points: 2
#     Edge 19, Type (0, 1), BuildingBlock: ZUJKAS_clean_linker_0, # of connection points: 2
#     Edge 20, Type (0, 1), BuildingBlock: ZUJKAS_clean_linker_0, # of connection points: 2
#     Edge 21, Type (0, 1), BuildingBlock: ZUJKAS_clean_linker_0, # of connection points: 2
#     Edge 22, Type (0, 1), BuildingBlock: ZUJKAS_clean_linker_0, # of connection points: 2
#     Edge 23, Type (0, 1), BuildingBlock: ZUJKAS_clean_linker_0, # of connection points: 2
#     Edge 24, Type (0, 1), BuildingBlock: ZUJKAS_clean_linker_0, # of connection points: 2
#     Edge 25, Type (0, 1), BuildingBlock: ZUJKAS_clean_linker_0, # of connection points: 2
#     Edge 26, Type (0, 1), BuildingBlock: ZUJKAS_clean_linker_0, # of connection points: 2
# Relax obj value: 0.128
# Max RMSD: 0.164
# Mean RMSD: 0.113
data_MOF--net-anh--node1-BETFEN_clean_sbu_0--node2-PAMTOO_clean_linker_0--edge1-ZUJKAS_clean_linker_0
_symmetry_space_group_name_H-M    P1
_symmetry_Int_Tables_number       1
_symmetry_cell_setting            triclinic
loop_
_symmetry_equiv_pos_as_xyz
'x, y, z'
_cell_length_a     38.655169
_cell_length_b     40.328934
_cell_length_c     64.223415
_cell_angle_alpha  86.528748
_cell_angle_beta   93.700215
_cell_angle_gamma 106.57905
loop_
_atom_site_label
_atom_site_type_symbol
_atom_site_fract_x
_atom_site_fract_y
_atom_site_fract_z
_atom_type_partial_charge
Pr0 Pr 0.10907 0.53198 0.15649 0.0
Pr1 Pr 0.13543 0.61457 0.14528 0.0
C2 C 0.07834 0.46643 0.17057 0.0
C3 C 0.04257 0.443 0.17509 0.0
C4 C 1.01078 0.45014 0.1669 0.0
C5 C 0.97711 0.42607 0.16988 0.0
C6 C 0.97473 0.39443 0.18106 0.0
C7 C 1.00671 0.38796 0.18971 0.0
C8 C 0.04028 0.41202 0.18672 0.0
C9 C 0.1245 0.55217 0.11514 0.0
C10 C 0.04727 0.57646 0.14754 0.0
C11 C 0.16265 0.67714 0.12642 0.0
C12 C 0.19354 0.70704 0.13147 0.0
C13 C 0.21734 0.70475 0.14857 0.0
C14 C 0.2466 0.73317 0.15356 0.0
C15 C 0.25262 0.76447 0.14154 0.0
C16 C 0.22868 0.76654 0.12434 0.0
C17 C 0.19935 0.73804 0.11937 0.0
C18 C 0.13639 0.60212 0.18886 0.0
C19 C 0.19634 0.56937 0.15517 0.0
O20 O 0.09197 0.49191 0.18306 0.0
O21 O 0.08389 0.47536 0.15089 0.0
O22 O 0.10814 0.5665 0.12661 0.0
O23 O 0.13196 0.52552 0.12469 0.0
O24 O 0.07254 0.60396 0.14066 0.0
O25 O 0.05485 0.54804 0.15543 0.0
O26 O 0.17087 0.64933 0.12144 0.0
O27 O 0.1359 0.67048 0.13903 0.0
O28 O 0.12779 0.58027 0.17496 0.0
O29 O 0.14554 0.63302 0.18012 0.0
O30 O 0.17146 0.54315 0.16365 0.0
O31 O 0.18824 0.59639 0.1455 0.0
H32 H 1.01207 0.47394 0.1578 0.0
H33 H 0.95309 0.4318 0.1629 0.0
H34 H 1.00582 0.36419 0.19873 0.0
H35 H 0.06455 0.40612 0.19319 0.0
H36 H 0.21328 0.68092 0.15805 0.0
H37 H 0.26475 0.73049 0.16671 0.0
H38 H 0.23228 0.79034 0.1149 0.0
H39 H 0.18115 0.74025 0.10614 0.0
Pr40 Pr 0.62135 0.07936 0.51304 0.0
Pr41 Pr 0.53468 0.05484 0.51535 0.0
C42 C 0.69073 0.10946 0.50389 0.0
C43 C 0.71627 0.14372 0.49906 0.0
C44 C 0.72365 0.17072 0.51301 0.0
C45 C 0.74972 0.20211 0.50869 0.0
C46 C 0.7689 0.20726 0.49031 0.0
C47 C 0.76074 0.18043 0.47617 0.0
C48 C 0.73485 0.14902 0.48054 0.0
C49 C 0.59353 0.06324 0.55242 0.0
C50 C 0.57596 0.14133 0.51444 0.0
C51 C 0.46808 1.02644 0.52911 0.0
C52 C 0.43796 0.99594 0.52361 0.0
C53 C 0.43194 0.98486 0.50304 0.0
C54 C 0.40479 0.95464 0.49822 0.0
C55 C 0.38331 0.93462 0.5139 0.0
C56 C 0.38937 0.946 0.53449 0.0
C57 C 0.41643 0.97635 0.53927 0.0
C58 C 0.55291 0.05732 0.47363 0.0
C59 C 0.5813 0.99366 0.51393 0.0
O60 O 0.6653 0.09677 0.48967 0.0
O61 O 0.67993 0.10286 0.52299 0.0
O62 O 0.58167 0.07965 0.53771 0.0
O63 O 0.62231 0.05546 0.54743 0.0
O64 O 0.54563 0.11616 0.51801 0.0
O65 O 0.60644 0.13371 0.51082 0.0
O66 O 0.4969 1.01961 0.53804 0.0
O67 O 0.47551 0.05237 0.51517 0.0
O68 O 0.57419 0.06418 0.48943 0.0
O69 O 0.51976 0.04922 0.47924 0.0
O70 O 0.61089 1.01873 0.50906 0.0
O71 O 0.55138 1.00136 0.51861 0.0
H72 H 0.70975 0.16745 0.52743 0.0
H73 H 0.75547 0.222 0.52005 0.0
H74 H 0.77441 0.18364 0.46167 0.0
H75 H 0.72962 0.12864 0.46953 0.0
H76 H 0.44848 0.99936 0.49071 0.0
H77 H 0.40062 0.94703 0.48216 0.0
H78 H 0.37379 0.93103 0.54703 0.0
H79 H 0.42098 0.98423 0.55529 0.0
Pr80 Pr 0.63105 0.53924 0.81972 0.0
Pr81 Pr 0.65491 0.6134 0.83401 0.0
C82 C 0.61424 0.47789 0.80172 0.0
C83 C 0.58333 0.44684 0.80176 0.0
C84 C 0.55354 0.44489 0.81363 0.0
C85 C 0.52433 0.41498 0.81387 0.0
C86 C 0.52449 0.38666 0.80217 0.0
C87 C 0.55441 0.38896 0.79019 0.0
C88 C 0.5836 0.41884 0.79 0.0
C89 C 0.62351 0.54527 0.86213 0.0
C90 C 0.71941 0.5761 0.82772 0.0
C91 C 0.67596 0.67432 0.85251 0.0
C92 C 0.65983 0.70321 0.85272 0.0
C93 C 0.64478 0.71492 0.83424 0.0
C94 C 0.62482 0.73862 0.83491 0.0
C95 C 0.61901 0.75075 0.85409 0.0
C96 C 0.63529 0.74004 0.8725 0.0
C97 C 0.65553 0.71641 0.8718 0.0
C98 C 0.63751 0.60703 0.79115 0.0
C99 C 0.56809 0.57677 0.82664 0.0
O100 O 0.63318 0.48391 0.81944 0.0
O101 O 0.60828 0.50568 0.79238 0.0
O102 O 0.65037 0.56173 0.85196 0.0
O103 O 0.59966 0.52385 0.85058 0.0
O104 O 0.71152 0.60316 0.83455 0.0
O105 O 0.69404 0.5492 0.82054 0.0
O106 O 0.65775 0.64558 0.862 0.0
O107 O 0.68844 0.66935 0.8348 0.0
O108 O 0.65579 0.59054 0.80208 0.0
O109 O 0.62821 0.62875 0.80218 0.0
O110 O 0.57716 0.5554 0.81462 0.0
O111 O 0.59268 0.59789 0.8386 0.0
H112 H 0.55296 0.46647 0.82274 0.0
H113 H 0.50157 0.41409 0.82309 0.0
H114 H 0.55558 0.36739 0.78127 0.0
H115 H 0.60648 0.42 0.78081 0.0
H116 H 0.6474 0.70494 0.81931 0.0
H117 H 0.6133 0.74693 0.8204 0.0
H118 H 0.63116 0.74877 0.88752 0.0
H119 H 0.66662 0.70739 0.88625 0.0
H120 H 0.66902 0.12979 0.2588 0.0
H121 H 0.57367 0.04585 0.24593 0.0
H122 H 0.63396 0.1035 0.19534 0.0
H123 H 0.55434 0.08056 0.18366 0.0
C124 C 0.54679 0.0622 0.19735 0.0
O125 O 0.57698 0.05317 0.20545 0.0
H126 H 0.53623 0.0756 0.20909 0.0
C127 C 0.65056 0.11332 0.24776 0.0
C128 C 0.65567 0.11969 0.22623 0.0
C129 C 0.62113 0.08682 0.25515 0.0
C130 C 0.59645 0.0666 0.24065 0.0
C131 C 0.60101 0.07285 0.21918 0.0
C132 C 0.63056 0.09924 0.21199 0.0
H133 H 0.58471 0.64463 0.56571 0.0
H134 H 0.57865 0.53656 0.56452 0.0
H135 H 0.57794 0.59683 0.5067 0.0
H136 H 0.62082 0.52085 0.53803 0.0
C137 C 0.60358 0.51664 0.52334 0.0
O138 O 0.57543 0.53215 0.52439 0.0
H139 H 0.62094 0.53057 0.5106 0.0
C140 C 0.58269 0.622 0.55689 0.0
C141 C 0.58089 0.62531 0.53501 0.0
C142 C 0.58228 0.59048 0.56765 0.0
C143 C 0.57994 0.56111 0.55629 0.0
C144 C 0.57905 0.56262 0.53438 0.0
C145 C 0.57955 0.59522 0.5236 0.0
H146 H 0.07353 0.57165 0.89396 0.0
H147 H 0.18666 0.58486 0.88695 0.0
H148 H 0.11448 0.57873 0.83257 0.0
H149 H 0.17909 0.55186 0.82294 0.0
C150 C 0.19024 0.55633 0.83924 0.0
O151 O 0.18188 0.58484 0.84617 0.0
H152 H 0.17732 0.53258 0.84886 0.0
C153 C 0.09581 0.57404 0.884 0.0
C154 C 0.08947 0.57426 0.86223 0.0
C155 C 0.13066 0.5781 0.8931 0.0
C156 C 0.15963 0.5821 0.88017 0.0
C157 C 0.15377 0.58193 0.8584 0.0
C158 C 0.1188 0.57863 0.84941 0.0
H159 H 0.04511 0.49882 0.40746 0.0
H160 H 0.12288 0.59781 0.41715 0.0
H161 H 0.06543 0.54029 0.46875 0.0
H162 H 0.08134 0.61773 0.47223 0.0
C163 C 0.10203 0.62528 0.46024 0.0
O164 O 0.11434 0.5971 0.45708 0.0
H165 H 0.08911 0.63343 0.44557 0.0
C166 C 0.05945 0.51916 0.41774 0.0
C167 C 0.05208 0.51577 0.43905 0.0
C168 C 0.08483 0.54863 0.40953 0.0
C169 C 0.10342 0.57468 0.42308 0.0
C170 C 0.09627 0.57169 0.44431 0.0
C171 C 0.07059 0.54238 0.45227 0.0
H172 H 0.43991 0.95016 0.75908 0.0
H173 H 0.40223 1.03983 0.7435 0.0
H174 H 0.39194 0.99345 0.80536 0.0
H175 H 0.33079 1.02326 0.79137 0.0
C176 C 0.34566 0.0431 0.77986 0.0
O177 O 0.38158 0.04387 0.7808 0.0
H178 H 0.33327 1.03644 0.76397 0.0
C179 C 0.42655 0.96888 0.76328 0.0
C180 C 0.41607 0.96833 0.78388 0.0
C181 C 0.42199 0.99463 0.74847 0.0
C182 C 0.40503 1.01897 0.75432 0.0
C183 C 0.39377 1.01805 0.77469 0.0
C184 C 0.39943 0.99295 0.78943 0.0
H185 H 0.68869 0.5745 0.08249 0.0
H186 H 0.57717 0.56772 0.09092 0.0
H187 H 0.65252 0.57856 0.144 0.0
H188 H 0.57163 0.54117 0.15615 0.0
C189 C 0.56127 0.54588 0.14002 0.0
O190 O 0.58504 0.5749 0.1311 0.0
H191 H 0.55958 0.52247 0.13118 0.0
C192 C 0.66708 0.57382 0.09261 0.0
C193 C 0.67494 0.57673 0.11418 0.0
C194 C 0.63192 0.57009 0.08394 0.0
C195 C 0.60445 0.57032 0.09721 0.0
C196 C 0.61174 0.57333 0.1188 0.0
C197 C 0.64692 0.57608 0.12733 0.0
H198 H 0.22377 0.51475 0.16717 0.0
H199 H 0.286 0.51217 0.16518 0.0
H200 H 0.31784 0.61844 0.14179 0.0
H201 H 0.25576 0.62106 0.14331 0.0
H202 H 0.34427 0.57875 0.1189 0.0
H203 H 0.3743 0.55169 0.20267 0.0
H204 H 0.33488 0.52082 0.19209 0.0
H205 H 0.33512 0.56529 0.19359 0.0
C206 C 0.24406 0.53771 0.16181 0.0
C207 C 0.23457 0.56812 0.15544 0.0
C208 C 0.27977 0.53624 0.16077 0.0
C209 C 0.30692 0.56526 0.15359 0.0
C210 C 0.29753 0.5957 0.14742 0.0
H211 H 0.53955 0.58802 0.1652 0.0
H212 H 0.47856 0.59422 0.1679 0.0
C213 C 0.26189 0.59715 0.14835 0.0
C214 C 0.34475 0.56366 0.15163 0.0
H215 H 0.41697 0.54616 0.17893 0.0
C216 C 0.36017 0.57174 0.13206 0.0
C217 C 0.36587 0.55501 0.16883 0.0
C218 C 0.35189 0.54804 0.19053 0.0
C219 C 0.3957 0.5709 0.12915 0.0
C220 C 0.41634 0.56098 0.14616 0.0
C221 C 0.40115 0.55346 0.16581 0.0
C222 C 0.45368 0.55821 0.14393 0.0
C223 C 0.41096 0.58136 0.10792 0.0
C224 C 0.46021 0.53598 0.12956 0.0
C225 C 0.49505 0.53266 0.12792 0.0
C226 C 0.52408 0.5511 0.14083 0.0
C227 C 0.51765 0.57353 0.15508 0.0
C228 C 0.4828 0.57696 0.15667 0.0
H229 H 0.39645 0.59792 0.0987 0.0
H230 H 0.44013 0.59562 0.10927 0.0
H231 H 0.40786 0.55778 0.0991 0.0
H232 H 0.43821 0.52065 0.11985 0.0
H233 H 0.49917 0.51512 0.11683 0.0
H234 H 0.7699 0.27387 0.49827 0.0
H235 H 0.81786 0.32741 0.4913 0.0
H236 H 0.88108 0.26875 0.46566 0.0
H237 H 0.83393 0.2151 0.47302 0.0
H238 H 0.89535 0.34414 0.50548 0.0
H239 H 0.87201 0.34398 0.41919 0.0
H240 H 0.83848 0.31931 0.43678 0.0
H241 H 0.87621 0.30399 0.43153 0.0
C242 C 0.79413 0.27226 0.49133 0.0
C243 C 0.79784 0.24007 0.48608 0.0
C244 C 0.82143 0.30292 0.48728 0.0
C245 C 0.85277 0.30203 0.47775 0.0
C246 C 0.85681 0.27003 0.47272 0.0
H247 H 0.04419 0.44815 0.43119 0.0
H248 H 0.99619 0.39717 0.44208 0.0
C249 C 0.82969 0.23939 0.47685 0.0
C250 C 0.8814 0.33446 0.47299 0.0
H251 H 0.92438 0.38494 0.43252 0.0
C252 C 0.90163 0.35328 0.48955 0.0
C253 C 0.88946 0.3462 0.4522 0.0
C254 C 0.86778 0.32756 0.43385 0.0
C255 C 0.93053 0.38304 0.48584 0.0
C256 C 0.93883 0.39462 0.46501 0.0
C257 C 0.91813 0.376 0.44849 0.0
C258 C 0.96924 0.42554 0.45983 0.0
C259 C 0.95262 0.40109 0.50425 0.0
C260 C 0.97027 0.45849 0.46629 0.0
C261 C 0.99785 0.48772 0.46014 0.0
C262 C 1.02459 0.48457 0.44716 0.0
C263 C 1.02377 0.45147 0.441 0.0
C264 C 0.9964 0.42231 0.44726 0.0
H265 H 0.94906 0.38399 0.51865 0.0
H266 H 0.98181 0.40994 0.50107 0.0
H267 H 0.94377 0.42414 0.50728 0.0
H268 H 0.9492 0.46178 0.4756 0.0
H269 H 0.9975 0.51293 0.4649 0.0
H270 H 0.55478 0.74419 0.83231 0.0
H271 H 0.51683 0.78324 0.83097 0.0
H272 H 0.58833 0.84576 0.87701 0.0
H273 H 0.62765 0.80748 0.87772 0.0
H274 H 0.47986 0.80451 0.86051 0.0
H275 H 0.58848 0.91496 0.82825 0.0
H276 H 0.59223 0.87133 0.83024 0.0
H277 H 0.59861 0.89623 0.85316 0.0
C278 C 0.5627 0.76641 0.84203 0.0
C279 C 0.5947 0.7732 0.85475 0.0
C280 C 0.5407 0.78845 0.84145 0.0
C281 C 0.55005 0.81766 0.85365 0.0
C282 C 0.58099 0.82367 0.86719 0.0
H283 H 0.45096 0.98508 0.82167 0.0
H284 H 0.47934 0.94891 0.84492 0.0
C285 C 0.60326 0.80165 0.86769 0.0
C286 C 0.52832 0.84258 0.85085 0.0
H287 H 0.53082 0.92226 0.82878 0.0
C288 C 0.49108 0.83052 0.85394 0.0
C289 C 0.54308 0.87655 0.84236 0.0
C290 C 0.58271 0.89063 0.83814 0.0
C291 C 0.4679 0.85081 0.84765 0.0
C292 C 0.48238 0.88382 0.83796 0.0
C293 C 0.51988 0.89687 0.83626 0.0
C294 C 0.45921 0.90327 0.82677 0.0
C295 C 0.42798 0.83632 0.85074 0.0
C296 C 0.4379 0.88928 0.80915 0.0
C297 C 0.42183 0.90986 0.79582 0.0
C298 C 0.42682 0.94476 0.79993 0.0
C299 C 0.44632 0.95813 0.81827 0.0
C300 C 0.46263 0.93758 0.83153 0.0
H301 H 0.42275 0.81672 0.86395 0.0
H302 H 0.41558 0.85715 0.85373 0.0
H303 H 0.41454 0.82341 0.8364 0.0
H304 H 0.43553 0.86307 0.80497 0.0
H305 H 0.40688 0.89897 0.7818 0.0
H306 H 1.01868 0.62609 0.12819 0.0
H307 H 0.95539 0.62666 0.12548 0.0
H308 H 0.92511 0.52924 0.16073 0.0
H309 H 0.98828 0.52838 0.16358 0.0
H310 H 0.89559 0.57441 0.10742 0.0
H311 H 0.87672 0.59175 0.19073 0.0
H312 H 0.92087 0.60148 0.18014 0.0
H313 H 0.89573 0.55734 0.18573 0.0
C314 C 0.99867 0.60484 0.1355 0.0
C315 C 1.00879 0.5772 0.14613 0.0
C316 C 0.96243 0.60522 0.13392 0.0
C317 C 0.9355 0.57823 0.14313 0.0
C318 C 0.94544 0.55066 0.1538 0.0
H319 H 0.69963 0.53576 0.14379 0.0
H320 H 0.76289 0.53615 0.15188 0.0
C321 C 0.98165 0.55012 0.15528 0.0
C322 C 0.89686 0.57826 0.14072 0.0
H323 H 0.82482 0.58242 0.16774 0.0
C324 C 0.88016 0.57628 0.1206 0.0
C325 C 0.87657 0.58027 0.15795 0.0
C326 C 0.89332 0.58309 0.17988 0.0
C327 C 0.84377 0.57601 0.11722 0.0
C328 C 0.82362 0.5789 0.13438 0.0
C329 C 0.8402 0.58043 0.15457 0.0
C330 C 0.78554 0.58079 0.13146 0.0
C331 C 0.82708 0.57182 0.09528 0.0
C332 C 0.77722 0.60662 0.11809 0.0
C333 C 0.74129 0.60626 0.1134 0.0
C334 C 0.71277 0.58048 0.12229 0.0
C335 C 0.72109 0.55603 0.13681 0.0
C336 C 0.7572 0.55616 0.14134 0.0
H337 H 0.84203 0.55946 0.0854 0.0
H338 H 0.79841 0.55594 0.09524 0.0
H339 H 0.8281 0.59772 0.08799 0.0
H340 H 0.79854 0.62655 0.11077 0.0
H341 H 0.73567 0.62559 0.10229 0.0
H342 H 0.31584 0.9091 0.52954 0.0
H343 H 0.26996 0.85509 0.52143 0.0
H344 H 0.33986 0.83269 0.47794 0.0
H345 H 0.38655 0.88573 0.48668 0.0
H346 H 0.23444 0.83511 0.48452 0.0
H347 H 0.31126 0.74245 0.51193 0.0
H348 H 0.32603 0.78753 0.51814 0.0
H349 H 0.33419 0.77446 0.49305 0.0
C350 C 0.32177 0.89243 0.51852 0.0
C351 C 0.35507 0.90182 0.50885 0.0
C352 C 0.29536 0.86165 0.51378 0.0
C353 C 0.30164 0.83949 0.49933 0.0
C354 C 0.33465 0.84892 0.48949 0.0
H355 H 0.16705 0.65256 0.44213 0.0
H356 H 0.21578 0.70425 0.45179 0.0
C357 C 0.36115 0.8796 0.49429 0.0
C358 C 0.27313 0.80719 0.49403 0.0
H359 H 0.25589 0.71933 0.49243 0.0
C360 C 0.23909 0.80979 0.48638 0.0
C361 C 0.2792 0.77411 0.49642 0.0
C362 C 0.31453 0.76933 0.50552 0.0
C363 C 0.21118 0.78036 0.48078 0.0
C364 C 0.21733 0.74738 0.48307 0.0
C365 C 0.25133 0.74469 0.49065 0.0
C366 C 0.1886 0.71537 0.47779 0.0
C367 C 0.17547 0.78478 0.4721 0.0
C368 C 0.15751 0.70427 0.48941 0.0
C369 C 0.12988 0.67471 0.48403 0.0
C370 C 0.13299 0.65557 0.46702 0.0
C371 C 0.16428 0.66658 0.4555 0.0
C372 C 0.19201 0.69607 0.46096 0.0
H373 H 0.17757 0.81213 0.46714 0.0
H374 H 0.16521 0.76828 0.45854 0.0
H375 H 0.15533 0.77665 0.48432 0.0
H376 H 0.15452 0.71864 0.50257 0.0
H377 H 0.10589 0.66702 0.49302 0.0
H378 H 0.48845 0.35339 0.83625 0.0
H379 H 0.44218 0.29734 0.83754 0.0
H380 H 0.44651 0.29071 0.77104 0.0
H381 H 0.49192 0.34705 0.7695 0.0
H382 H 0.3746 0.26736 0.78689 0.0
H383 H 0.47384 0.209 0.83061 0.0
H384 H 0.46511 0.24556 0.84166 0.0
H385 H 0.48745 0.25119 0.8175 0.0
C386 C 0.479 0.34031 0.82184 0.0
C387 C 0.49413 0.35441 0.80279 0.0
C388 C 0.45275 0.30824 0.82264 0.0
C389 C 0.44135 0.2898 0.80443 0.0
C390 C 0.45508 0.30457 0.78527 0.0
H391 H 0.35026 0.09877 0.75291 0.0
H392 H 0.36388 0.15933 0.76183 0.0
C393 C 0.48126 0.33656 0.78445 0.0
C394 C 0.41756 0.25388 0.80532 0.0
H395 H 0.41886 0.17137 0.81932 0.0
C396 C 0.38391 0.24633 0.79427 0.0
C397 C 0.42976 0.22662 0.81509 0.0
C398 C 0.46607 0.23324 0.8268 0.0
C399 C 0.36276 0.21199 0.79198 0.0
C400 C 0.37604 0.18466 0.80063 0.0
C401 C 0.40868 0.19236 0.81273 0.0
C402 C 0.35952 0.14818 0.79514 0.0
C403 C 0.32683 0.20531 0.77993 0.0
C404 C 0.35213 0.12171 0.81085 0.0
C405 C 0.34457 0.08709 0.80574 0.0
C406 C 0.34408 0.07846 0.78484 0.0
C407 C 0.34954 0.10479 0.76906 0.0
C408 C 0.35718 0.13937 0.77416 0.0
H409 H 0.31473 0.22696 0.78124 0.0
H410 H 0.3309 0.20334 0.76316 0.0
H411 H 0.30748 0.18083 0.78552 0.0
H412 H 0.3543 0.12797 0.82714 0.0
H413 H 0.34129 0.06723 0.81818 0.0
H414 H 0.52559 0.9337 0.52209 0.0
H415 H 0.52624 0.87292 0.52333 0.0
H416 H 0.63793 0.90498 0.50777 0.0
H417 H 0.63755 0.96576 0.50679 0.0
H418 H 0.53592 0.82932 0.49589 0.0
H419 H 0.64693 0.84061 0.55609 0.0
H420 H 0.62615 0.87502 0.55005 0.0
H421 H 0.66006 0.86935 0.53376 0.0
C422 C 0.5505 0.92806 0.51901 0.0
C423 C 0.5816 0.95558 0.51447 0.0
C424 C 0.55081 0.89282 0.51969 0.0
C425 C 0.58233 0.88324 0.51609 0.0
C426 C 0.61328 0.91071 0.51126 0.0
H427 H 0.63616 0.68054 0.52004 0.0
H428 H 0.63634 0.74156 0.51422 0.0
C429 C 0.61296 0.94595 0.51051 0.0
C430 C 0.58248 0.84493 0.51704 0.0
H431 H 0.62702 0.78738 0.53913 0.0
C432 C 0.55589 0.82038 0.50547 0.0
C433 C 0.60833 0.83208 0.52935 0.0
C434 C 0.63677 0.85551 0.54318 0.0
C435 C 0.55479 0.78467 0.50552 0.0
C436 C 0.58047 0.77174 0.51796 0.0
C437 C 0.60717 0.79634 0.52946 0.0
C438 C 0.5797 0.73316 0.51966 0.0
C439 C 0.52648 0.76137 0.49156 0.0
C440 C 0.54799 0.70666 0.5245 0.0
C441 C 0.54783 0.67144 0.52748 0.0
C442 C 0.57927 0.66072 0.5257 0.0
C443 C 0.61095 0.68704 0.52066 0.0
C444 C 0.61114 0.7224 0.51767 0.0
H445 H 0.5177 0.7763 0.47815 0.0
H446 H 0.53656 0.74093 0.48537 0.0
H447 H 0.50236 0.74875 0.50063 0.0
H448 H 0.5234 0.71329 0.52697 0.0
H449 H 0.52325 0.65261 0.5323 0.0
H450 H 0.74711 0.52442 0.81653 0.0
H451 H 0.8103 0.52341 0.81928 0.0
H452 H 0.84217 0.62615 0.84283 0.0
H453 H 0.77922 0.62732 0.84041 0.0
H454 H 0.8735 0.56769 0.8016 0.0
H455 H 0.88224 0.56908 0.88817 0.0
H456 H 0.83973 0.56015 0.87319 0.0
H457 H 0.86761 0.604 0.87546 0.0
C458 C 0.76753 0.54686 0.82226 0.0
C459 C 0.75789 0.57582 0.82845 0.0
C460 C 0.80369 0.54626 0.82376 0.0
C461 C 0.83092 0.57449 0.83154 0.0
C462 C 0.82155 0.6038 0.83714 0.0
H463 H 0.06601 0.61509 0.83199 0.0
H464 H 1.00312 0.61399 0.82241 0.0
C465 C 0.78546 0.60444 0.83568 0.0
C466 C 0.86896 0.57297 0.83439 0.0
H467 H 0.9368 0.57545 0.87158 0.0
C468 C 0.88738 0.56931 0.81689 0.0
C469 C 0.8869 0.57468 0.85438 0.0
C470 C 0.86808 0.57687 0.87392 0.0
C471 C 0.92342 0.56778 0.81884 0.0
C472 C 0.94159 0.57034 0.83878 0.0
C473 C 0.92298 0.57368 0.85626 0.0
C474 C 0.97959 0.56879 0.84222 0.0
C475 C 0.94147 0.56277 0.79961 0.0
C476 C 0.98738 0.54363 0.85634 0.0
C477 C 1.02312 0.54439 0.86189 0.0
C478 C 0.052 0.57036 0.85347 0.0
C479 C 0.0443 0.59457 0.83854 0.0
C480 C 1.00836 0.59392 0.83306 0.0
H481 H 0.92142 0.55252 0.7867 0.0
H482 H 0.95938 0.58808 0.79411 0.0
H483 H 0.95829 0.54474 0.80311 0.0
H484 H 0.96571 0.52394 0.86358 0.0
H485 H 1.02823 0.52524 0.87333 0.0
H486 H 0.29809 0.81003 0.11502 0.0
H487 H 0.34932 0.85958 0.1242 0.0
H488 H 0.32861 0.83717 0.18947 0.0
H489 H 0.27732 0.78776 0.18045 0.0
H490 H 0.35021 0.91777 0.14568 0.0
H491 H 0.43595 0.84399 0.18824 0.0
H492 H 0.3972 0.82362 0.1716 0.0
H493 H 0.39125 0.8345 0.19762 0.0
C494 C 0.30432 0.81573 0.13133 0.0
C495 C 0.28369 0.79477 0.14701 0.0
C496 C 0.33372 0.84396 0.13655 0.0
C497 C 0.3432 0.8517 0.15754 0.0
C498 C 0.32238 0.83115 0.1732 0.0
H499 H 0.50194 1.01443 0.22278 0.0
H500 H 0.45291 0.96323 0.21274 0.0
C501 C 0.29303 0.80292 0.16801 0.0
C502 C 0.37419 0.88187 0.16302 0.0
H503 H 0.45511 0.90517 0.19092 0.0
C504 C 0.37327 0.91501 0.15545 0.0
C505 C 0.40423 0.87821 0.17581 0.0
C506 C 0.40751 0.84315 0.18365 0.0
C507 C 0.40118 0.94468 0.1607 0.0
C508 C 0.4311 0.94104 0.17358 0.0
C509 C 0.43212 0.90789 0.18107 0.0
C510 C 0.46144 0.9714 0.17962 0.0
C511 C 0.39793 0.97976 0.15285 0.0
C512 C 0.48297 0.99246 0.16439 0.0
C513 C 0.51086 1.02163 0.1701 0.0
C514 C 0.51761 1.03022 0.19114 0.0
C515 C 0.49684 1.00851 0.20644 0.0
C516 C 0.46898 0.97933 0.20072 0.0
H517 H 0.36973 0.97877 0.14756 0.0
H518 H 0.40709 0.99895 0.16518 0.0
H519 H 0.41529 0.98899 0.13938 0.0
H520 H 0.47817 0.98637 0.14807 0.0
H521 H 0.52693 1.03767 0.15807 0.0
H522 H 0.62842 0.20102 0.50161 0.0
H523 H 0.62899 0.262 0.50267 0.0
H524 H 0.52509 0.23062 0.52982 0.0
H525 H 0.52412 0.16957 0.52853 0.0
H526 H 0.57979 0.29879 0.48397 0.0
H527 H 0.584 0.30489 0.5701 0.0
H528 H 0.59484 0.27056 0.55747 0.0
H529 H 0.54855 0.27026 0.55908 0.0
C530 C 0.60555 0.20684 0.50785 0.0
C531 C 0.57621 0.17947 0.51499 0.0
C532 C 0.60591 0.24215 0.50843 0.0
C533 C 0.57733 0.25195 0.51659 0.0
C534 C 0.54798 0.22465 0.52372 0.0
H535 H 0.55044 0.46065 0.54196 0.0
H536 H 0.54198 0.39783 0.53971 0.0
C537 C 0.54734 0.1893 0.52285 0.0
C538 C 0.57803 0.29026 0.51726 0.0
H539 H 0.57847 0.35464 0.55045 0.0
C540 C 0.57958 0.31084 0.49859 0.0
C541 C 0.57726 0.30687 0.53612 0.0
C542 C 0.57635 0.28724 0.5569 0.0
C543 C 0.5799 0.34637 0.49817 0.0
C544 C 0.58026 0.36345 0.51709 0.0
C545 C 0.57834 0.34264 0.53578 0.0
C546 C 0.58373 0.40257 0.51782 0.0
C547 C 0.57841 0.3647 0.47709 0.0
C548 C 0.60999 0.42762 0.50655 0.0
C549 C 0.61415 0.46357 0.50747 0.0
C550 C 0.59259 0.47681 0.51985 0.0
C551 C 0.5667 0.45199 0.53154 0.0
C552 C 0.56221 0.4157 0.53044 0.0
H553 H 0.56458 0.34616 0.46501 0.0
H554 H 0.56402 0.38484 0.47743 0.0
H555 H 0.60635 0.37709 0.4722 0.0
H556 H 0.62846 0.41957 0.49741 0.0
H557 H 0.63556 0.48133 0.49891 0.0
H558 H 0.50786 0.53043 0.80959 0.0
H559 H 0.44462 0.5296 0.81175 0.0
H560 H 0.47802 0.62224 0.84684 0.0
H561 H 0.54113 0.62279 0.8452 0.0
H562 H 0.42299 0.5754 0.86447 0.0
H563 H 0.38923 0.58873 0.77983 0.0
H564 H 0.40649 0.55239 0.78644 0.0
H565 H 0.4351 0.59564 0.79023 0.0
C566 C 0.50178 0.55079 0.81763 0.0
C567 C 0.52967 0.57673 0.82716 0.0
C568 C 0.46555 0.5504 0.81875 0.0
C569 C 0.45644 0.5762 0.82916 0.0
C570 C 0.48427 0.60211 0.83866 0.0
H571 H 0.24116 0.60896 0.81987 0.0
H572 H 0.30624 0.61587 0.8183 0.0
C573 C 0.52042 0.60239 0.83768 0.0
C574 C 0.41793 0.57558 0.83087 0.0
H575 H 0.3397 0.57352 0.80221 0.0
C576 C 0.40485 0.57517 0.85083 0.0
C577 C 0.39428 0.57587 0.8131 0.0
C578 C 0.40703 0.57854 0.79119 0.0
C579 C 0.36877 0.57429 0.85353 0.0
C580 C 0.34471 0.57298 0.83581 0.0
C581 C 0.35796 0.57418 0.81583 0.0
C582 C 0.30561 0.56984 0.83764 0.0
C583 C 0.357 0.57532 0.87538 0.0
C584 C 0.2835 0.54172 0.84899 0.0
C585 C 0.24651 0.53798 0.85004 0.0
C586 C 0.23072 0.56215 0.83964 0.0
C587 C 0.25278 0.59027 0.82826 0.0
C588 C 0.28986 0.59409 0.82728 0.0
H589 H 0.38033 0.58702 0.88619 0.0
H590 H 0.33698 0.59029 0.87562 0.0
H591 H 0.3443 0.5485 0.88139 0.0
H592 H 0.29469 0.52215 0.85666 0.0
H593 H 0.2301 0.51574 0.85865 0.0
H594 H 0.95975 0.32431 0.17808 0.0
H595 H 0.90226 0.28031 0.18291 0.0
H596 H 0.85155 0.35988 0.19322 0.0
H597 H 0.90943 0.40418 0.18907 0.0
H598 H 0.83585 0.30654 0.22281 0.0
H599 H 0.8126 0.25423 0.14378 0.0
H600 H 0.85624 0.25474 0.15537 0.0
H601 H 0.84543 0.29494 0.14945 0.0
C602 C 0.93643 0.33252 0.18146 0.0
C603 C 0.93928 0.36781 0.18328 0.0
C604 C 0.90343 0.30732 0.18391 0.0
C605 C 0.87244 0.31682 0.18806 0.0
C606 C 0.87506 0.352 0.18982 0.0
H607 H 0.65692 0.16751 0.19373 0.0
H608 H 0.70801 0.21654 0.18352 0.0
C609 C 0.90812 0.37729 0.18736 0.0
C610 C 0.83795 0.28978 0.19183 0.0
H611 H 0.77759 0.21898 0.17078 0.0
C612 C 0.8229 0.28764 0.21135 0.0
C613 C 0.82075 0.26539 0.17676 0.0
C614 C 0.83436 0.26759 0.15509 0.0
C615 C 0.792 0.26094 0.21652 0.0
C616 C 0.77608 0.23537 0.20191 0.0
C617 C 0.79015 0.23833 0.18206 0.0
C618 C 0.74557 0.20482 0.2073 0.0
C619 C 0.77673 0.26028 0.23763 0.0
C620 C 0.75008 0.18147 0.22362 0.0
C621 C 0.72111 0.15345 0.2294 0.0
C622 C 0.687 0.14808 0.21892 0.0
C623 C 0.68288 0.17082 0.20205 0.0
C624 C 0.71196 0.19893 0.19627 0.0
H625 H 0.7854 0.28624 0.24442 0.0
H626 H 0.74673 0.25129 0.23659 0.0
H627 H 0.78661 0.24213 0.24848 0.0
H628 H 0.77603 0.18504 0.23199 0.0
H629 H 0.72541 0.13601 0.24216 0.0
H630 H 0.15147 0.51833 0.0879 0.0
H631 H 0.15889 0.53145 0.05064 0.0
H632 H 0.12072 0.62138 0.05484 0.0
H633 H 0.11208 0.60758 0.09225 0.0
H634 H 0.08761 0.58438 0.02309 0.0
H635 H 0.23383 0.6018 0.01889 0.0
H636 H 0.21261 0.56102 0.03172 0.0
H637 H 0.21293 0.6007 0.04335 0.0
C638 C 0.14501 0.54112 0.08095 0.0
C639 C 0.13117 0.56193 0.09294 0.0
C640 C 0.14963 0.54881 0.05966 0.0
C641 C 0.14113 0.57784 0.04997 0.0
C642 C 0.12776 0.59901 0.06201 0.0
H643 H 0.18101 0.6253 0.91637 0.0
H644 H 0.18517 0.6291 0.95454 0.0
C645 C 0.12282 0.59113 0.08335 0.0
C646 C 0.14331 0.58405 0.027 0.0
H647 H 0.19775 0.58677 0.98671 0.0
C648 C 0.1119 0.58548 0.01517 0.0
C649 C 0.17513 0.58618 0.01659 0.0
C650 C 0.2106 0.58774 0.02834 0.0
C651 C 0.11087 0.58703 0.99327 0.0
C652 C 0.14179 0.5861 0.9829 0.0
C653 C 0.17382 0.58672 -0.00533 0.0
C654 C 0.14082 0.58307 0.95994 0.0
C655 C 0.07654 0.58947 0.9815 0.0
C656 C 0.11545 0.55529 0.95041 0.0
C657 C 0.11295 0.5532 0.92874 0.0
C658 C 0.13618 0.57853 0.91615 0.0
C659 C 0.16285 0.60539 0.92574 0.0
C660 C 0.16512 0.60766 0.94749 0.0
H661 H 0.06059 0.60142 0.99096 0.0
H662 H 0.08236 0.60491 0.96657 0.0
H663 H 0.05953 0.56304 0.97793 0.0
H664 H 0.09723 0.53539 0.95974 0.0
H665 H 0.09254 0.53192 0.92176 0.0
H666 H 0.62065 0.07052 0.45858 0.0
H667 H 0.63627 0.07601 0.42175 0.0
H668 H 0.52334 0.05477 0.40265 0.0
H669 H 0.50774 0.04962 0.43917 0.0
H670 H 0.61047 1.02561 0.3896 0.0
H671 H 0.57231 0.14704 0.37083 0.0
H672 H 0.58054 0.13223 0.3973 0.0
H673 H 0.53814 0.11343 0.3835 0.0
C674 C 0.5993 0.06727 0.44649 0.0
C675 C 0.56309 0.06008 0.4517 0.0
C676 C 0.60819 0.07026 0.42551 0.0
C677 C 0.58097 0.06634 0.40952 0.0
C678 C 0.54479 0.05852 0.41475 0.0
H679 H 0.55795 0.07347 0.2753 0.0
H680 H 0.54997 0.06693 0.31295 0.0
C681 C 0.53593 0.05545 0.43563 0.0
C682 C 0.58991 0.07005 0.38726 0.0
H683 H 0.58153 0.11668 0.34202 0.0
C684 C 0.60455 0.04571 0.37919 0.0
C685 C 0.58206 0.09628 0.37378 0.0
C686 C 0.5677 0.12396 0.38178 0.0
C687 C 0.61031 0.04615 0.35778 0.0
C688 C 0.60174 0.07199 0.34422 0.0
C689 C 0.58783 0.09675 0.35241 0.0
C690 C 0.60659 0.07376 0.32143 0.0
C691 C 0.62434 1.0183 0.34973 0.0
C692 C 0.64105 0.07968 0.31371 0.0
C693 C 0.64566 0.08317 0.2922 0.0
C694 C 0.61591 0.08107 0.27798 0.0
C695 C 0.58135 0.07477 0.28579 0.0
C696 C 0.57678 0.07126 0.3073 0.0
H697 H 0.62106 0.99581 0.36106 0.0
H698 H 0.6102 1.00905 0.33467 0.0
H699 H 0.65357 1.02908 0.34705 0.0
H700 H 0.66451 0.08229 0.32433 0.0
H701 H 0.6726 0.0877 0.2867 0.0
H702 H 0.59765 0.63982 0.76523 0.0
H703 H 0.58517 0.63395 0.72749 0.0
H704 H 0.64759 0.56065 0.72811 0.0
H705 H 0.6595 0.56589 0.76583 0.0
H706 H 0.63305 0.64857 0.69651 0.0
H707 H 0.55582 0.50971 0.69636 0.0
H708 H 0.56525 0.53388 0.71982 0.0
H709 H 0.59928 0.51741 0.70988 0.0
C710 C 0.60848 0.62229 0.75731 0.0
C711 C 0.62949 0.60328 0.76845 0.0
C712 C 0.60134 0.61895 0.73577 0.0
C713 C 0.61495 0.59644 0.725 0.0
C714 C 0.63606 0.57753 0.73613 0.0
H715 H 0.62207 0.55732 0.5938 0.0
H716 H 0.62885 0.55783 0.63201 0.0
C717 C 0.64309 0.58076 0.75766 0.0
C718 C 0.60843 0.59394 0.70199 0.0
H719 H 0.57436 0.53705 0.66336 0.0
C720 C 0.61997 0.62423 0.68929 0.0
C721 C 0.59147 0.56213 0.69254 0.0
C722 C 0.57692 0.52898 0.70535 0.0
C723 C 0.6156 0.62349 0.66742 0.0
C724 C 0.59884 0.59169 0.65799 0.0
C725 C 0.58728 0.56138 0.67064 0.0
C726 C 0.59296 0.58957 0.63499 0.0
C727 C 0.62962 0.65666 0.65454 0.0
C728 C 0.56979 0.60646 0.62407 0.0
C729 C 0.56564 0.60601 0.60229 0.0
C730 C 0.5846 0.58864 0.59095 0.0
C731 C 0.60689 0.57075 0.60203 0.0
C732 C 0.61094 0.57115 0.62385 0.0
H733 H 0.64888 0.67703 0.66378 0.0
H734 H 0.64329 0.65208 0.64075 0.0
H735 H 0.60658 0.66657 0.64879 0.0
H736 H 0.5551 0.62025 0.6324 0.0
H737 H 0.54765 0.61942 0.59432 0.0
H738 H 0.5328 0.07706 0.56379 0.0
H739 H 0.50349 0.06179 0.59704 0.0
H740 H 0.58529 1.01305 0.61975 0.0
H741 H 0.61474 1.02802 0.5863 0.0
H742 H 0.47837 0.99128 0.61763 0.0
H743 H 0.58369 0.08678 0.66364 0.0
H744 H 0.5785 0.09073 0.63552 0.0
H745 H 0.59888 0.05915 0.64758 0.0
C746 C 0.54451 0.06299 0.57583 0.0
C747 C 0.57606 0.05372 0.57251 0.0
C748 C 0.52771 0.05427 0.59478 0.0
C749 C 0.54239 1.03653 0.61082 0.0
C750 C 0.57378 1.02702 0.60756 0.0
H751 H 0.4869 0.98551 0.7396 0.0
H752 H 0.51424 0.9926 0.70591 0.0
C753 C 0.59051 1.03553 0.58849 0.0
C754 C 0.52487 1.02838 0.63101 0.0
H755 H 0.53505 0.05076 0.68187 0.0
C756 C 0.4907 1.00415 0.63173 0.0
C757 C 0.54116 0.04529 0.64928 0.0
C758 C 0.57748 0.07213 0.6491 0.0
C759 C 0.47244 0.99607 0.6504 0.0
C760 C 0.48846 1.01341 0.66864 0.0
C761 C 0.52278 1.03751 0.66788 0.0
C762 C 0.47031 1.00701 0.68875 0.0
C763 C 0.43654 0.96858 0.65047 0.0
C764 C 0.43642 1.01274 0.69036 0.0
C765 C 0.42031 1.00809 0.70962 0.0
C766 C 0.43798 0.99799 0.72769 0.0
C767 C 0.47201 0.99243 0.72597 0.0
C768 C 0.48792 0.99682 0.70673 0.0
H769 H 0.43326 0.95105 0.63733 0.0
H770 H 0.43351 0.95276 0.66536 0.0
H771 H 0.41444 0.9812 0.64868 0.0
H772 H 0.4227 1.02141 0.67679 0.0
H773 H 0.39409 1.01254 0.71036 0.0
H774 H 0.56402 0.51832 0.88484 0.0
H775 H 0.5582 0.52442 0.92206 0.0
H776 H 0.66943 0.58638 0.92715 0.0
H777 H 0.67493 0.58134 0.88982 0.0
H778 H 0.59171 0.50277 0.95466 0.0
H779 H 0.6222 0.64501 0.95677 0.0
H780 H 0.61333 0.62276 0.93261 0.0
H781 H 0.65771 0.63285 0.94543 0.0
C782 C 0.58711 0.53348 0.8939 0.0
C783 C 0.61992 0.54937 0.88449 0.0
C784 C 0.58376 0.53698 0.91514 0.0
C785 C 0.61317 0.55636 0.92738 0.0
C786 C 0.64603 0.57213 0.91796 0.0
H787 H 0.65834 0.53198 0.05856 0.0
H788 H 0.64998 0.52856 0.02078 0.0
C789 C 0.64927 0.56896 0.89667 0.0
C790 C 0.61018 0.55832 0.95021 0.0
H791 H 0.62716 0.61458 0.98976 0.0
C792 C 0.59904 0.52727 0.96228 0.0
C793 C 0.61898 0.59024 0.96018 0.0
C794 C 0.62832 0.62458 0.94803 0.0
C795 C 0.59795 0.52721 0.98408 0.0
C796 C 0.60934 0.55903 0.99419 0.0
C797 C 0.61893 0.59015 0.98206 0.0
C798 C 0.61332 0.56052 0.0173 0.0
C799 C 0.58453 0.49298 -0.00397 0.0
C800 C 0.59627 0.58041 0.02797 0.0
C801 C 0.60166 0.58307 0.04966 0.0
C802 C 0.62439 0.56602 0.06106 0.0
C803 C 0.64104 0.54583 0.05029 0.0
C804 C 0.63584 0.5434 0.02867 0.0
H805 H 0.56558 0.4734 0.98613 0.0
H806 H 0.60783 0.48296 0.001 0.0
H807 H 0.5706 0.4957 0.01015 0.0
H808 H 0.57899 0.59409 0.01949 0.0
H809 H 0.58876 0.59916 0.0574 0.0
H810 H 0.11134 0.53927 0.20962 0.0
H811 H 0.10321 0.52825 0.24725 0.0
H812 H 0.14768 0.63744 0.2569 0.0
H813 H 0.15527 0.64852 0.21938 0.0
H814 H 0.15273 0.5427 0.28176 0.0
H815 H 0.04964 0.61394 0.28344 0.0
H816 H 0.06342 0.60163 0.25943 0.0
H817 H 0.09102 0.63911 0.2724 0.0
C818 C 0.11945 0.5608 0.2198 0.0
C819 C 0.13361 0.59471 0.21158 0.0
C820 C 0.11485 0.55453 0.24126 0.0
C821 C 0.12424 0.58212 0.25481 0.0
C822 C 0.13952 0.61586 0.24668 0.0
H823 H 0.14932 0.574 0.39048 0.0
H824 H 0.15907 0.58116 0.35299 0.0
C825 C 0.14402 0.62212 0.22526 0.0
C826 C 0.11769 0.57582 0.27739 0.0
H827 H 0.07288 0.5972 0.31629 0.0
C828 C 0.13517 0.55448 0.28933 0.0
C829 C 0.09436 0.59082 0.28715 0.0
C830 C 0.07323 0.61238 0.27493 0.0
C831 C 0.13052 0.54832 0.31088 0.0
C832 C 0.10826 0.5644 0.32077 0.0
C833 C 0.09025 0.58518 0.30873 0.0
C834 C 0.10269 0.55965 0.34353 0.0
C835 C 0.14901 0.52421 0.32279 0.0
C836 C 0.06768 0.54606 0.35066 0.0
C837 C 0.06196 0.54245 0.37203 0.0
C838 C 0.09116 0.55242 0.38677 0.0
C839 C 0.12622 0.56623 0.37957 0.0
C840 C 0.1319 0.56993 0.35815 0.0
H841 H 0.15675 0.50698 0.31223 0.0
H842 H 0.17403 0.53975 0.33095 0.0
H843 H 0.13133 0.50792 0.33469 0.0
H844 H 0.0447 0.53828 0.33965 0.0
H845 H 0.03453 0.53234 0.37699 0.0
loop_
_geom_bond_atom_site_label_1
_geom_bond_atom_site_label_2
_geom_bond_distance
_geom_bond_site_symmetry_2
_ccdc_geom_bond_type
Pr0 C2 2.880 . S
Pr0 O20 2.562 . S
Pr0 O21 2.490 . S
Pr0 O22 2.695 1_655 S
Pr0 O23 2.512 . S
Pr0 O25 2.437 . S
Pr0 O28 2.436 1_655 S
Pr0 O30 2.438 1_655 S
Pr1 C11 2.880 . S
Pr1 O22 2.436 . S
Pr1 O24 2.438 1_455 S
Pr1 O26 2.562 . S
Pr1 O27 2.490 . S
Pr1 O28 2.695 . S
Pr1 O29 2.512 . S
Pr1 O31 2.437 . S
C2 Pr0 2.880 . S
C2 C3 1.491 . S
C2 O20 1.254 . S
C2 O21 1.225 . S
C3 C2 1.491 . S
C3 C4 1.392 . S
C3 C8 1.356 . S
C4 C3 1.392 . S
C4 C5 1.368 . S
C4 H32 0.929 . S
C5 C4 1.368 . S
C5 C6 1.386 . S
C5 H33 0.929 . S
C6 C5 1.386 . S
C6 C7 1.373 . S
C7 C6 1.373 . S
C7 C8 1.409 . S
C7 H34 0.931 . S
C8 C3 1.356 . S
C8 C7 1.409 . S
C8 H35 0.930 . S
C9 O22 1.270 . S
C9 O23 1.248 1_455 S
C10 O24 1.267 . S
C10 O25 1.278 . S
C11 Pr1 2.880 . S
C11 C12 1.491 . S
C11 O26 1.254 . S
C11 O27 1.225 . S
C12 C11 1.491 . S
C12 C13 1.392 . S
C12 C17 1.356 . S
C13 C12 1.392 . S
C13 C14 1.368 . S
C13 H36 0.929 . S
C14 C13 1.368 . S
C14 C15 1.386 . S
C14 H37 0.929 . S
C15 C14 1.386 . S
C15 C16 1.373 . S
C16 C15 1.373 . S
C16 C17 1.409 . S
C16 H38 0.931 . S
C17 C12 1.356 . S
C17 C16 1.409 . S
C17 H39 0.930 . S
C18 O28 1.270 . S
C18 O29 1.248 . S
C19 O30 1.267 . S
C19 O31 1.278 . S
O20 Pr0 2.562 . S
O20 C2 1.254 . S
O21 Pr0 2.490 . S
O21 C2 1.225 . S
O22 Pr0 2.695 1_455 S
O22 Pr1 2.436 . S
O22 C9 1.270 . S
O23 Pr0 2.512 . S
O23 C9 1.248 1_655 S
O24 Pr1 2.438 1_655 S
O24 C10 1.267 . S
O25 Pr0 2.437 . S
O25 C10 1.278 . S
O26 Pr1 2.562 . S
O26 C11 1.254 . S
O27 Pr1 2.490 . S
O27 C11 1.225 . S
O28 Pr0 2.436 1_455 S
O28 Pr1 2.695 . S
O28 C18 1.270 . S
O29 Pr1 2.512 . S
O29 C18 1.248 . S
O30 Pr0 2.438 1_455 S
O30 C19 1.267 . S
O31 Pr1 2.437 . S
O31 C19 1.278 . S
H32 C4 0.929 . S
H33 C5 0.929 . S
H34 C7 0.931 . S
H35 C8 0.930 . S
H36 C13 0.929 . S
H37 C14 0.929 . S
H38 C16 0.931 . S
H39 C17 0.930 . S
Pr40 C42 2.880 . S
Pr40 O60 2.562 . S
Pr40 O61 2.490 . S
Pr40 O62 2.695 . S
Pr40 O63 2.512 . S
Pr40 O65 2.437 . S
Pr40 O68 2.436 . S
Pr40 O70 2.438 1_545 S
Pr41 C51 2.909 . S
Pr41 O62 2.438 1_565 S
Pr41 O64 2.400 1_565 S
Pr41 O66 2.590 . S
Pr41 O67 2.514 . S
Pr41 O68 2.690 1_565 S
Pr41 O69 2.515 1_565 S
Pr41 O71 2.472 . S
C42 Pr40 2.880 . S
C42 C43 1.491 . S
C42 O60 1.254 . S
C42 O61 1.225 . S
C43 C42 1.491 . S
C43 C44 1.392 . S
C43 C48 1.356 . S
C44 C43 1.392 . S
C44 C45 1.368 . S
C44 H72 0.929 . S
C45 C44 1.368 . S
C45 C46 1.386 . S
C45 H73 0.929 . S
C46 C45 1.386 . S
C46 C47 1.373 . S
C47 C46 1.373 . S
C47 C48 1.409 . S
C47 H74 0.931 . S
C48 C43 1.356 . S
C48 C47 1.409 . S
C48 H75 0.930 . S
C49 O62 1.270 . S
C49 O63 1.248 . S
C50 O64 1.267 . S
C50 O65 1.278 . S
C51 Pr41 2.909 . S
C51 C52 1.491 . S
C51 O66 1.254 . S
C51 O67 1.225 . S
C52 C51 1.491 . S
C52 C53 1.392 . S
C52 C57 1.356 . S
C53 C52 1.392 . S
C53 C54 1.368 . S
C53 H76 0.929 . S
C54 C53 1.368 . S
C54 C55 1.386 . S
C54 H77 0.929 . S
C55 C54 1.386 . S
C55 C56 1.373 . S
C56 C55 1.373 . S
C56 C57 1.409 . S
C56 H78 0.931 . S
C57 C52 1.356 . S
C57 C56 1.409 . S
C57 H79 0.930 . S
C58 O68 1.270 . S
C58 O69 1.248 . S
C59 O70 1.267 . S
C59 O71 1.278 . S
O60 Pr40 2.562 . S
O60 C42 1.254 . S
O61 Pr40 2.490 . S
O61 C42 1.225 . S
O62 Pr40 2.695 . S
O62 Pr41 2.438 1_545 S
O62 C49 1.270 . S
O63 Pr40 2.512 . S
O63 C49 1.248 . S
O64 Pr41 2.400 1_545 S
O64 C50 1.267 . S
O65 Pr40 2.437 . S
O65 C50 1.278 . S
O66 Pr41 2.590 . S
O66 C51 1.254 . S
O67 Pr41 2.514 . S
O67 C51 1.225 . S
O68 Pr40 2.436 . S
O68 Pr41 2.690 1_545 S
O68 C58 1.270 . S
O69 Pr41 2.515 1_545 S
O69 C58 1.248 . S
O70 Pr40 2.438 1_565 S
O70 C59 1.267 . S
O71 Pr41 2.472 . S
O71 C59 1.278 . S
H72 C44 0.929 . S
H73 C45 0.929 . S
H74 C47 0.931 . S
H75 C48 0.930 . S
H76 C53 0.929 . S
H77 C54 0.929 . S
H78 C56 0.931 . S
H79 C57 0.930 . S
Pr80 C82 2.880 . S
Pr80 O100 2.562 . S
Pr80 O101 2.490 . S
Pr80 O102 2.695 . S
Pr80 O103 2.512 . S
Pr80 O105 2.437 . S
Pr80 O108 2.436 . S
Pr80 O110 2.438 . S
Pr81 C91 2.880 . S
Pr81 O102 2.436 . S
Pr81 O104 2.438 . S
Pr81 O106 2.562 . S
Pr81 O107 2.490 . S
Pr81 O108 2.695 . S
Pr81 O109 2.512 . S
Pr81 O111 2.437 . S
C82 Pr80 2.880 . S
C82 C83 1.491 . S
C82 O100 1.254 . S
C82 O101 1.225 . S
C83 C82 1.491 . S
C83 C84 1.392 . S
C83 C88 1.356 . S
C84 C83 1.392 . S
C84 C85 1.368 . S
C84 H112 0.929 . S
C85 C84 1.368 . S
C85 C86 1.386 . S
C85 H113 0.929 . S
C86 C85 1.386 . S
C86 C87 1.373 . S
C87 C86 1.373 . S
C87 C88 1.409 . S
C87 H114 0.931 . S
C88 C83 1.356 . S
C88 C87 1.409 . S
C88 H115 0.930 . S
C89 O102 1.270 . S
C89 O103 1.248 . S
C90 O104 1.267 . S
C90 O105 1.278 . S
C91 Pr81 2.880 . S
C91 C92 1.491 . S
C91 O106 1.254 . S
C91 O107 1.225 . S
C92 C91 1.491 . S
C92 C93 1.392 . S
C92 C97 1.356 . S
C93 C92 1.392 . S
C93 C94 1.368 . S
C93 H116 0.929 . S
C94 C93 1.368 . S
C94 C95 1.386 . S
C94 H117 0.929 . S
C95 C94 1.386 . S
C95 C96 1.373 . S
C96 C95 1.373 . S
C96 C97 1.409 . S
C96 H118 0.931 . S
C97 C92 1.356 . S
C97 C96 1.409 . S
C97 H119 0.930 . S
C98 O108 1.270 . S
C98 O109 1.248 . S
C99 O110 1.267 . S
C99 O111 1.278 . S
O100 Pr80 2.562 . S
O100 C82 1.254 . S
O101 Pr80 2.490 . S
O101 C82 1.225 . S
O102 Pr80 2.695 . S
O102 Pr81 2.436 . S
O102 C89 1.270 . S
O103 Pr80 2.512 . S
O103 C89 1.248 . S
O104 Pr81 2.438 . S
O104 C90 1.267 . S
O105 Pr80 2.437 . S
O105 C90 1.278 . S
O106 Pr81 2.562 . S
O106 C91 1.254 . S
O107 Pr81 2.490 . S
O107 C91 1.225 . S
O108 Pr80 2.436 . S
O108 Pr81 2.695 . S
O108 C98 1.270 . S
O109 Pr81 2.512 . S
O109 C98 1.248 . S
O110 Pr80 2.438 . S
O110 C99 1.267 . S
O111 Pr81 2.437 . S
O111 C99 1.278 . S
H112 C84 0.929 . S
H113 C85 0.929 . S
H114 C87 0.931 . S
H115 C88 0.930 . S
H116 C93 0.929 . S
H117 C94 0.929 . S
H118 C96 0.931 . S
H119 C97 0.930 . S
H120 C127 0.929 . S
H121 C130 0.930 1_565 S
H122 C132 0.929 . S
H123 C124 0.969 . S
C124 H123 0.969 . S
C124 O125 1.550 . S
C124 H126 0.973 . S
O125 C124 1.550 . S
O125 C131 1.412 1_565 S
H126 C124 0.973 . S
C127 H120 0.929 . S
C127 C128 1.400 . S
C127 C129 1.364 . S
C128 C127 1.400 . S
C128 C132 1.377 . S
C129 C127 1.364 . S
C129 C130 1.374 . S
C130 H121 0.930 1_545 S
C130 C129 1.374 . S
C130 C131 1.383 . S
C131 O125 1.412 1_545 S
C131 C130 1.383 . S
C131 C132 1.394 . S
C132 H122 0.929 . S
C132 C128 1.377 . S
C132 C131 1.394 . S
H133 C140 0.929 . S
H134 C143 0.930 . S
H135 C145 0.929 . S
H136 C137 0.969 . S
C137 H136 0.969 . S
C137 O138 1.550 . S
C137 H139 0.973 . S
O138 C137 1.550 . S
O138 C144 1.412 . S
H139 C137 0.973 . S
C140 H133 0.929 . S
C140 C141 1.400 . S
C140 C142 1.364 . S
C141 C140 1.400 . S
C141 C145 1.377 . S
C142 C140 1.364 . S
C142 C143 1.374 . S
C143 H134 0.930 . S
C143 C142 1.374 . S
C143 C144 1.383 . S
C144 O138 1.412 . S
C144 C143 1.383 . S
C144 C145 1.394 . S
C145 H135 0.929 . S
C145 C141 1.377 . S
C145 C144 1.394 . S
H146 C153 0.929 . S
H147 C156 0.930 . S
H148 C158 0.929 . S
H149 C150 0.969 . S
C150 H149 0.969 . S
C150 O151 1.550 . S
C150 H152 0.973 . S
O151 C150 1.550 . S
O151 C157 1.412 . S
H152 C150 0.973 . S
C153 H146 0.929 . S
C153 C154 1.400 . S
C153 C155 1.364 . S
C154 C153 1.400 . S
C154 C158 1.377 . S
C155 C153 1.364 . S
C155 C156 1.374 . S
C156 H147 0.930 . S
C156 C155 1.374 . S
C156 C157 1.383 . S
C157 O151 1.412 . S
C157 C156 1.383 . S
C157 C158 1.394 . S
C158 H148 0.929 . S
C158 C154 1.377 . S
C158 C157 1.394 . S
H159 C166 0.929 . S
H160 C169 0.930 . S
H161 C171 0.929 . S
H162 C163 0.969 . S
C163 H162 0.969 . S
C163 O164 1.550 . S
C163 H165 0.973 . S
O164 C163 1.550 . S
O164 C170 1.412 . S
H165 C163 0.973 . S
C166 H159 0.929 . S
C166 C167 1.400 . S
C166 C168 1.364 . S
C167 C166 1.400 . S
C167 C171 1.377 . S
C168 C166 1.364 . S
C168 C169 1.374 . S
C169 H160 0.930 . S
C169 C168 1.374 . S
C169 C170 1.383 . S
C170 O164 1.412 . S
C170 C169 1.383 . S
C170 C171 1.394 . S
C171 H161 0.929 . S
C171 C167 1.377 . S
C171 C170 1.394 . S
H172 C179 0.929 . S
H173 C182 0.930 . S
H174 C184 0.929 1_565 S
H175 C176 0.969 . S
C176 H175 0.969 . S
C176 O177 1.550 . S
C176 H178 0.973 . S
O177 C176 1.550 . S
O177 C183 1.412 . S
H178 C176 0.973 . S
C179 H172 0.929 . S
C179 C180 1.400 . S
C179 C181 1.364 1_565 S
C180 C179 1.400 . S
C180 C184 1.377 1_565 S
C181 C179 1.364 1_545 S
C181 C182 1.374 . S
C182 H173 0.930 . S
C182 C181 1.374 . S
C182 C183 1.383 . S
C183 O177 1.412 . S
C183 C182 1.383 . S
C183 C184 1.394 . S
C184 H174 0.929 1_545 S
C184 C180 1.377 1_545 S
C184 C183 1.394 . S
H185 C192 0.929 . S
H186 C195 0.930 . S
H187 C197 0.929 . S
H188 C189 0.969 . S
C189 H188 0.969 . S
C189 O190 1.550 . S
C189 H191 0.973 . S
O190 C189 1.550 . S
O190 C196 1.412 . S
H191 C189 0.973 . S
C192 H185 0.929 . S
C192 C193 1.400 . S
C192 C194 1.364 . S
C193 C192 1.400 . S
C193 C197 1.377 . S
C194 C192 1.364 . S
C194 C195 1.374 . S
C195 H186 0.930 . S
C195 C194 1.374 . S
C195 C196 1.383 . S
C196 O190 1.412 . S
C196 C195 1.383 . S
C196 C197 1.394 . S
C197 H187 0.929 . S
C197 C193 1.377 . S
C197 C196 1.394 . S
H198 C206 0.929 . S
H199 C208 0.930 . S
H200 C210 0.930 . S
H201 C213 0.929 . S
H202 C216 0.930 . S
H203 C218 0.960 . S
H204 C218 0.960 . S
H205 C218 0.960 . S
C206 H198 0.929 . S
C206 C207 1.377 . S
C206 C208 1.384 . S
C207 C206 1.377 . S
C207 C213 1.390 . S
C208 H199 0.930 . S
C208 C206 1.384 . S
C208 C209 1.372 . S
C209 C208 1.372 . S
C209 C210 1.400 . S
C209 C214 1.490 . S
C210 H200 0.930 . S
C210 C209 1.400 . S
C210 C213 1.386 . S
H211 C227 0.930 . S
H212 C228 0.931 . S
C213 H201 0.929 . S
C213 C207 1.390 . S
C213 C210 1.386 . S
C214 C209 1.490 . S
C214 C216 1.395 . S
C214 C217 1.403 . S
H215 C221 0.930 . S
C216 H202 0.930 . S
C216 C214 1.395 . S
C216 C219 1.403 . S
C217 C214 1.403 . S
C217 C218 1.524 . S
C217 C221 1.400 . S
C218 H203 0.960 . S
C218 H204 0.960 . S
C218 H205 0.960 . S
C218 C217 1.524 . S
C219 C216 1.403 . S
C219 C220 1.392 . S
C219 C223 1.495 . S
C220 C219 1.392 . S
C220 C221 1.385 . S
C220 C222 1.478 . S
C221 H215 0.930 . S
C221 C217 1.400 . S
C221 C220 1.385 . S
C222 C220 1.478 . S
C222 C224 1.381 . S
C222 C228 1.383 . S
C223 C219 1.495 . S
C223 H229 0.959 . S
C223 H230 0.961 . S
C223 H231 0.960 . S
C224 C222 1.381 . S
C224 C225 1.394 . S
C224 H232 0.930 . S
C225 C224 1.394 . S
C225 C226 1.383 . S
C225 H233 0.929 . S
C226 C225 1.383 . S
C226 C227 1.377 . S
C227 H211 0.930 . S
C227 C226 1.377 . S
C227 C228 1.379 . S
C228 H212 0.931 . S
C228 C222 1.383 . S
C228 C227 1.379 . S
H229 C223 0.959 . S
H230 C223 0.961 . S
H231 C223 0.960 . S
H232 C224 0.930 . S
H233 C225 0.929 . S
H234 C242 0.929 . S
H235 C244 0.930 . S
H236 C246 0.930 . S
H237 C249 0.929 . S
H238 C252 0.930 . S
H239 C254 0.960 . S
H240 C254 0.960 . S
H241 C254 0.960 . S
C242 H234 0.929 . S
C242 C243 1.377 . S
C242 C244 1.384 . S
C243 C242 1.377 . S
C243 C249 1.390 . S
C244 H235 0.930 . S
C244 C242 1.384 . S
C244 C245 1.372 . S
C245 C244 1.372 . S
C245 C246 1.400 . S
C245 C250 1.490 . S
C246 H236 0.930 . S
C246 C245 1.400 . S
C246 C249 1.386 . S
H247 C263 0.930 . S
H248 C264 0.931 . S
C249 H237 0.929 . S
C249 C243 1.390 . S
C249 C246 1.386 . S
C250 C245 1.490 . S
C250 C252 1.395 . S
C250 C253 1.403 . S
H251 C257 0.930 . S
C252 H238 0.930 . S
C252 C250 1.395 . S
C252 C255 1.403 . S
C253 C250 1.403 . S
C253 C254 1.524 . S
C253 C257 1.400 . S
C254 H239 0.960 . S
C254 H240 0.960 . S
C254 H241 0.960 . S
C254 C253 1.524 . S
C255 C252 1.403 . S
C255 C256 1.392 . S
C255 C259 1.495 . S
C256 C255 1.392 . S
C256 C257 1.385 . S
C256 C258 1.478 . S
C257 H251 0.930 . S
C257 C253 1.400 . S
C257 C256 1.385 . S
C258 C256 1.478 . S
C258 C260 1.381 . S
C258 C264 1.383 . S
C259 C255 1.495 . S
C259 H265 0.959 . S
C259 H266 0.961 . S
C259 H267 0.960 . S
C260 C258 1.381 . S
C260 C261 1.394 . S
C260 H268 0.930 . S
C261 C260 1.394 . S
C261 C262 1.383 1_655 S
C261 H269 0.929 . S
C262 C261 1.383 1_455 S
C262 C263 1.377 . S
C263 H247 0.930 . S
C263 C262 1.377 . S
C263 C264 1.379 1_455 S
C264 H248 0.931 . S
C264 C258 1.383 . S
C264 C263 1.379 1_655 S
H265 C259 0.959 . S
H266 C259 0.961 . S
H267 C259 0.960 . S
H268 C260 0.930 . S
H269 C261 0.929 . S
H270 C278 0.929 . S
H271 C280 0.930 . S
H272 C282 0.930 . S
H273 C285 0.929 . S
H274 C288 0.930 . S
H275 C290 0.960 . S
H276 C290 0.960 . S
H277 C290 0.960 . S
C278 H270 0.929 . S
C278 C279 1.377 . S
C278 C280 1.384 . S
C279 C278 1.377 . S
C279 C285 1.390 . S
C280 H271 0.930 . S
C280 C278 1.384 . S
C280 C281 1.372 . S
C281 C280 1.372 . S
C281 C282 1.400 . S
C281 C286 1.490 . S
C282 H272 0.930 . S
C282 C281 1.400 . S
C282 C285 1.386 . S
H283 C299 0.930 . S
H284 C300 0.931 . S
C285 H273 0.929 . S
C285 C279 1.390 . S
C285 C282 1.386 . S
C286 C281 1.490 . S
C286 C288 1.395 . S
C286 C289 1.403 . S
H287 C293 0.930 . S
C288 H274 0.930 . S
C288 C286 1.395 . S
C288 C291 1.403 . S
C289 C286 1.403 . S
C289 C290 1.524 . S
C289 C293 1.400 . S
C290 H275 0.960 . S
C290 H276 0.960 . S
C290 H277 0.960 . S
C290 C289 1.524 . S
C291 C288 1.403 . S
C291 C292 1.392 . S
C291 C295 1.495 . S
C292 C291 1.392 . S
C292 C293 1.385 . S
C292 C294 1.478 . S
C293 H287 0.930 . S
C293 C289 1.400 . S
C293 C292 1.385 . S
C294 C292 1.478 . S
C294 C296 1.381 . S
C294 C300 1.383 . S
C295 C291 1.495 . S
C295 H301 0.959 . S
C295 H302 0.961 . S
C295 H303 0.960 . S
C296 C294 1.381 . S
C296 C297 1.394 . S
C296 H304 0.930 . S
C297 C296 1.394 . S
C297 C298 1.383 . S
C297 H305 0.929 . S
C298 C297 1.383 . S
C298 C299 1.377 . S
C299 H283 0.930 . S
C299 C298 1.377 . S
C299 C300 1.379 . S
C300 H284 0.931 . S
C300 C294 1.383 . S
C300 C299 1.379 . S
H301 C295 0.959 . S
H302 C295 0.961 . S
H303 C295 0.960 . S
H304 C296 0.930 . S
H305 C297 0.929 . S
H306 C314 0.929 . S
H307 C316 0.930 . S
H308 C318 0.930 . S
H309 C321 0.929 . S
H310 C324 0.930 . S
H311 C326 0.960 . S
H312 C326 0.960 . S
H313 C326 0.960 . S
C314 H306 0.929 . S
C314 C315 1.377 . S
C314 C316 1.384 . S
C315 C314 1.377 . S
C315 C321 1.390 . S
C316 H307 0.930 . S
C316 C314 1.384 . S
C316 C317 1.372 . S
C317 C316 1.372 . S
C317 C318 1.400 . S
C317 C322 1.490 . S
C318 H308 0.930 . S
C318 C317 1.400 . S
C318 C321 1.386 . S
H319 C335 0.930 . S
H320 C336 0.931 . S
C321 H309 0.929 . S
C321 C315 1.390 . S
C321 C318 1.386 . S
C322 C317 1.490 . S
C322 C324 1.395 . S
C322 C325 1.403 . S
H323 C329 0.930 . S
C324 H310 0.930 . S
C324 C322 1.395 . S
C324 C327 1.403 . S
C325 C322 1.403 . S
C325 C326 1.524 . S
C325 C329 1.400 . S
C326 H311 0.960 . S
C326 H312 0.960 . S
C326 H313 0.960 . S
C326 C325 1.524 . S
C327 C324 1.403 . S
C327 C328 1.392 . S
C327 C331 1.495 . S
C328 C327 1.392 . S
C328 C329 1.385 . S
C328 C330 1.478 . S
C329 H323 0.930 . S
C329 C325 1.400 . S
C329 C328 1.385 . S
C330 C328 1.478 . S
C330 C332 1.381 . S
C330 C336 1.383 . S
C331 C327 1.495 . S
C331 H337 0.959 . S
C331 H338 0.961 . S
C331 H339 0.960 . S
C332 C330 1.381 . S
C332 C333 1.394 . S
C332 H340 0.930 . S
C333 C332 1.394 . S
C333 C334 1.383 . S
C333 H341 0.929 . S
C334 C333 1.383 . S
C334 C335 1.377 . S
C335 H319 0.930 . S
C335 C334 1.377 . S
C335 C336 1.379 . S
C336 H320 0.931 . S
C336 C330 1.383 . S
C336 C335 1.379 . S
H337 C331 0.959 . S
H338 C331 0.961 . S
H339 C331 0.960 . S
H340 C332 0.930 . S
H341 C333 0.929 . S
H342 C350 0.929 . S
H343 C352 0.930 . S
H344 C354 0.930 . S
H345 C357 0.929 . S
H346 C360 0.930 . S
H347 C362 0.960 . S
H348 C362 0.960 . S
H349 C362 0.960 . S
C350 H342 0.929 . S
C350 C351 1.377 . S
C350 C352 1.384 . S
C351 C350 1.377 . S
C351 C357 1.390 . S
C352 H343 0.930 . S
C352 C350 1.384 . S
C352 C353 1.372 . S
C353 C352 1.372 . S
C353 C354 1.400 . S
C353 C358 1.490 . S
C354 H344 0.930 . S
C354 C353 1.400 . S
C354 C357 1.386 . S
H355 C371 0.930 . S
H356 C372 0.931 . S
C357 H345 0.929 . S
C357 C351 1.390 . S
C357 C354 1.386 . S
C358 C353 1.490 . S
C358 C360 1.395 . S
C358 C361 1.403 . S
H359 C365 0.930 . S
C360 H346 0.930 . S
C360 C358 1.395 . S
C360 C363 1.403 . S
C361 C358 1.403 . S
C361 C362 1.524 . S
C361 C365 1.400 . S
C362 H347 0.960 . S
C362 H348 0.960 . S
C362 H349 0.960 . S
C362 C361 1.524 . S
C363 C360 1.403 . S
C363 C364 1.392 . S
C363 C367 1.495 . S
C364 C363 1.392 . S
C364 C365 1.385 . S
C364 C366 1.478 . S
C365 H359 0.930 . S
C365 C361 1.400 . S
C365 C364 1.385 . S
C366 C364 1.478 . S
C366 C368 1.381 . S
C366 C372 1.383 . S
C367 C363 1.495 . S
C367 H373 0.959 . S
C367 H374 0.961 . S
C367 H375 0.960 . S
C368 C366 1.381 . S
C368 C369 1.394 . S
C368 H376 0.930 . S
C369 C368 1.394 . S
C369 C370 1.383 . S
C369 H377 0.929 . S
C370 C369 1.383 . S
C370 C371 1.377 . S
C371 H355 0.930 . S
C371 C370 1.377 . S
C371 C372 1.379 . S
C372 H356 0.931 . S
C372 C366 1.383 . S
C372 C371 1.379 . S
H373 C367 0.959 . S
H374 C367 0.961 . S
H375 C367 0.960 . S
H376 C368 0.930 . S
H377 C369 0.929 . S
H378 C386 0.929 . S
H379 C388 0.930 . S
H380 C390 0.930 . S
H381 C393 0.929 . S
H382 C396 0.930 . S
H383 C398 0.960 . S
H384 C398 0.960 . S
H385 C398 0.960 . S
C386 H378 0.929 . S
C386 C387 1.377 . S
C386 C388 1.384 . S
C387 C386 1.377 . S
C387 C393 1.390 . S
C388 H379 0.930 . S
C388 C386 1.384 . S
C388 C389 1.372 . S
C389 C388 1.372 . S
C389 C390 1.400 . S
C389 C394 1.490 . S
C390 H380 0.930 . S
C390 C389 1.400 . S
C390 C393 1.386 . S
H391 C407 0.930 . S
H392 C408 0.931 . S
C393 H381 0.929 . S
C393 C387 1.390 . S
C393 C390 1.386 . S
C394 C389 1.490 . S
C394 C396 1.395 . S
C394 C397 1.403 . S
H395 C401 0.930 . S
C396 H382 0.930 . S
C396 C394 1.395 . S
C396 C399 1.403 . S
C397 C394 1.403 . S
C397 C398 1.524 . S
C397 C401 1.400 . S
C398 H383 0.960 . S
C398 H384 0.960 . S
C398 H385 0.960 . S
C398 C397 1.524 . S
C399 C396 1.403 . S
C399 C400 1.392 . S
C399 C403 1.495 . S
C400 C399 1.392 . S
C400 C401 1.385 . S
C400 C402 1.478 . S
C401 H395 0.930 . S
C401 C397 1.400 . S
C401 C400 1.385 . S
C402 C400 1.478 . S
C402 C404 1.381 . S
C402 C408 1.383 . S
C403 C399 1.495 . S
C403 H409 0.959 . S
C403 H410 0.961 . S
C403 H411 0.960 . S
C404 C402 1.381 . S
C404 C405 1.394 . S
C404 H412 0.930 . S
C405 C404 1.394 . S
C405 C406 1.383 . S
C405 H413 0.929 . S
C406 C405 1.383 . S
C406 C407 1.377 . S
C407 H391 0.930 . S
C407 C406 1.377 . S
C407 C408 1.379 . S
C408 H392 0.931 . S
C408 C402 1.383 . S
C408 C407 1.379 . S
H409 C403 0.959 . S
H410 C403 0.961 . S
H411 C403 0.960 . S
H412 C404 0.930 . S
H413 C405 0.929 . S
H414 C422 0.929 . S
H415 C424 0.930 . S
H416 C426 0.930 . S
H417 C429 0.929 . S
H418 C432 0.930 . S
H419 C434 0.960 . S
H420 C434 0.960 . S
H421 C434 0.960 . S
C422 H414 0.929 . S
C422 C423 1.377 . S
C422 C424 1.384 . S
C423 C422 1.377 . S
C423 C429 1.390 . S
C424 H415 0.930 . S
C424 C422 1.384 . S
C424 C425 1.372 . S
C425 C424 1.372 . S
C425 C426 1.400 . S
C425 C430 1.490 . S
C426 H416 0.930 . S
C426 C425 1.400 . S
C426 C429 1.386 . S
H427 C443 0.930 . S
H428 C444 0.931 . S
C429 H417 0.929 . S
C429 C423 1.390 . S
C429 C426 1.386 . S
C430 C425 1.490 . S
C430 C432 1.395 . S
C430 C433 1.403 . S
H431 C437 0.930 . S
C432 H418 0.930 . S
C432 C430 1.395 . S
C432 C435 1.403 . S
C433 C430 1.403 . S
C433 C434 1.524 . S
C433 C437 1.400 . S
C434 H419 0.960 . S
C434 H420 0.960 . S
C434 H421 0.960 . S
C434 C433 1.524 . S
C435 C432 1.403 . S
C435 C436 1.392 . S
C435 C439 1.495 . S
C436 C435 1.392 . S
C436 C437 1.385 . S
C436 C438 1.478 . S
C437 H431 0.930 . S
C437 C433 1.400 . S
C437 C436 1.385 . S
C438 C436 1.478 . S
C438 C440 1.381 . S
C438 C444 1.383 . S
C439 C435 1.495 . S
C439 H445 0.959 . S
C439 H446 0.961 . S
C439 H447 0.960 . S
C440 C438 1.381 . S
C440 C441 1.394 . S
C440 H448 0.930 . S
C441 C440 1.394 . S
C441 C442 1.383 . S
C441 H449 0.929 . S
C442 C441 1.383 . S
C442 C443 1.377 . S
C443 H427 0.930 . S
C443 C442 1.377 . S
C443 C444 1.379 . S
C444 H428 0.931 . S
C444 C438 1.383 . S
C444 C443 1.379 . S
H445 C439 0.959 . S
H446 C439 0.961 . S
H447 C439 0.960 . S
H448 C440 0.930 . S
H449 C441 0.929 . S
H450 C458 0.929 . S
H451 C460 0.930 . S
H452 C462 0.930 . S
H453 C465 0.929 . S
H454 C468 0.930 . S
H455 C470 0.960 . S
H456 C470 0.960 . S
H457 C470 0.960 . S
C458 H450 0.929 . S
C458 C459 1.377 . S
C458 C460 1.384 . S
C459 C458 1.377 . S
C459 C465 1.390 . S
C460 H451 0.930 . S
C460 C458 1.384 . S
C460 C461 1.372 . S
C461 C460 1.372 . S
C461 C462 1.400 . S
C461 C466 1.490 . S
C462 H452 0.930 . S
C462 C461 1.400 . S
C462 C465 1.386 . S
H463 C479 0.930 . S
H464 C480 0.931 . S
C465 H453 0.929 . S
C465 C459 1.390 . S
C465 C462 1.386 . S
C466 C461 1.490 . S
C466 C468 1.395 . S
C466 C469 1.403 . S
H467 C473 0.930 . S
C468 H454 0.930 . S
C468 C466 1.395 . S
C468 C471 1.403 . S
C469 C466 1.403 . S
C469 C470 1.524 . S
C469 C473 1.400 . S
C470 H455 0.960 . S
C470 H456 0.960 . S
C470 H457 0.960 . S
C470 C469 1.524 . S
C471 C468 1.403 . S
C471 C472 1.392 . S
C471 C475 1.495 . S
C472 C471 1.392 . S
C472 C473 1.385 . S
C472 C474 1.478 . S
C473 H467 0.930 . S
C473 C469 1.400 . S
C473 C472 1.385 . S
C474 C472 1.478 . S
C474 C476 1.381 . S
C474 C480 1.383 . S
C475 C471 1.495 . S
C475 H481 0.959 . S
C475 H482 0.961 . S
C475 H483 0.960 . S
C476 C474 1.381 . S
C476 C477 1.394 . S
C476 H484 0.930 . S
C477 C476 1.394 . S
C477 C478 1.383 . S
C477 H485 0.929 . S
C478 C477 1.383 . S
C478 C479 1.377 . S
C479 H463 0.930 . S
C479 C478 1.377 . S
C479 C480 1.379 . S
C480 H464 0.931 . S
C480 C474 1.383 . S
C480 C479 1.379 . S
H481 C475 0.959 . S
H482 C475 0.961 . S
H483 C475 0.960 . S
H484 C476 0.930 . S
H485 C477 0.929 . S
H486 C494 0.929 . S
H487 C496 0.930 . S
H488 C498 0.930 . S
H489 C501 0.929 . S
H490 C504 0.930 . S
H491 C506 0.960 . S
H492 C506 0.960 . S
H493 C506 0.960 . S
C494 H486 0.929 . S
C494 C495 1.377 . S
C494 C496 1.384 . S
C495 C494 1.377 . S
C495 C501 1.390 . S
C496 H487 0.930 . S
C496 C494 1.384 . S
C496 C497 1.372 . S
C497 C496 1.372 . S
C497 C498 1.400 . S
C497 C502 1.490 . S
C498 H488 0.930 . S
C498 C497 1.400 . S
C498 C501 1.386 . S
H499 C515 0.930 . S
H500 C516 0.931 . S
C501 H489 0.929 . S
C501 C495 1.390 . S
C501 C498 1.386 . S
C502 C497 1.490 . S
C502 C504 1.395 . S
C502 C505 1.403 . S
H503 C509 0.930 . S
C504 H490 0.930 . S
C504 C502 1.395 . S
C504 C507 1.403 . S
C505 C502 1.403 . S
C505 C506 1.524 . S
C505 C509 1.400 . S
C506 H491 0.960 . S
C506 H492 0.960 . S
C506 H493 0.960 . S
C506 C505 1.524 . S
C507 C504 1.403 . S
C507 C508 1.392 . S
C507 C511 1.495 . S
C508 C507 1.392 . S
C508 C509 1.385 . S
C508 C510 1.478 . S
C509 H503 0.930 . S
C509 C505 1.400 . S
C509 C508 1.385 . S
C510 C508 1.478 . S
C510 C512 1.381 . S
C510 C516 1.383 . S
C511 C507 1.495 . S
C511 H517 0.959 . S
C511 H518 0.961 . S
C511 H519 0.960 . S
C512 C510 1.381 . S
C512 C513 1.394 . S
C512 H520 0.930 . S
C513 C512 1.394 . S
C513 C514 1.383 . S
C513 H521 0.929 . S
C514 C513 1.383 . S
C514 C515 1.377 . S
C515 H499 0.930 . S
C515 C514 1.377 . S
C515 C516 1.379 . S
C516 H500 0.931 . S
C516 C510 1.383 . S
C516 C515 1.379 . S
H517 C511 0.959 . S
H518 C511 0.961 . S
H519 C511 0.960 . S
H520 C512 0.930 . S
H521 C513 0.929 . S
H522 C530 0.929 . S
H523 C532 0.930 . S
H524 C534 0.930 . S
H525 C537 0.929 . S
H526 C540 0.930 . S
H527 C542 0.960 . S
H528 C542 0.960 . S
H529 C542 0.960 . S
C530 H522 0.929 . S
C530 C531 1.377 . S
C530 C532 1.384 . S
C531 C530 1.377 . S
C531 C537 1.390 . S
C532 H523 0.930 . S
C532 C530 1.384 . S
C532 C533 1.372 . S
C533 C532 1.372 . S
C533 C534 1.400 . S
C533 C538 1.490 . S
C534 H524 0.930 . S
C534 C533 1.400 . S
C534 C537 1.386 . S
H535 C551 0.930 . S
H536 C552 0.931 . S
C537 H525 0.929 . S
C537 C531 1.390 . S
C537 C534 1.386 . S
C538 C533 1.490 . S
C538 C540 1.395 . S
C538 C541 1.403 . S
H539 C545 0.930 . S
C540 H526 0.930 . S
C540 C538 1.395 . S
C540 C543 1.403 . S
C541 C538 1.403 . S
C541 C542 1.524 . S
C541 C545 1.400 . S
C542 H527 0.960 . S
C542 H528 0.960 . S
C542 H529 0.960 . S
C542 C541 1.524 . S
C543 C540 1.403 . S
C543 C544 1.392 . S
C543 C547 1.495 . S
C544 C543 1.392 . S
C544 C545 1.385 . S
C544 C546 1.478 . S
C545 H539 0.930 . S
C545 C541 1.400 . S
C545 C544 1.385 . S
C546 C544 1.478 . S
C546 C548 1.381 . S
C546 C552 1.383 . S
C547 C543 1.495 . S
C547 H553 0.959 . S
C547 H554 0.961 . S
C547 H555 0.960 . S
C548 C546 1.381 . S
C548 C549 1.394 . S
C548 H556 0.930 . S
C549 C548 1.394 . S
C549 C550 1.383 . S
C549 H557 0.929 . S
C550 C549 1.383 . S
C550 C551 1.377 . S
C551 H535 0.930 . S
C551 C550 1.377 . S
C551 C552 1.379 . S
C552 H536 0.931 . S
C552 C546 1.383 . S
C552 C551 1.379 . S
H553 C547 0.959 . S
H554 C547 0.961 . S
H555 C547 0.960 . S
H556 C548 0.930 . S
H557 C549 0.929 . S
H558 C566 0.929 . S
H559 C568 0.930 . S
H560 C570 0.930 . S
H561 C573 0.929 . S
H562 C576 0.930 . S
H563 C578 0.960 . S
H564 C578 0.960 . S
H565 C578 0.960 . S
C566 H558 0.929 . S
C566 C567 1.377 . S
C566 C568 1.384 . S
C567 C566 1.377 . S
C567 C573 1.390 . S
C568 H559 0.930 . S
C568 C566 1.384 . S
C568 C569 1.372 . S
C569 C568 1.372 . S
C569 C570 1.400 . S
C569 C574 1.490 . S
C570 H560 0.930 . S
C570 C569 1.400 . S
C570 C573 1.386 . S
H571 C587 0.930 . S
H572 C588 0.931 . S
C573 H561 0.929 . S
C573 C567 1.390 . S
C573 C570 1.386 . S
C574 C569 1.490 . S
C574 C576 1.395 . S
C574 C577 1.403 . S
H575 C581 0.930 . S
C576 H562 0.930 . S
C576 C574 1.395 . S
C576 C579 1.403 . S
C577 C574 1.403 . S
C577 C578 1.524 . S
C577 C581 1.400 . S
C578 H563 0.960 . S
C578 H564 0.960 . S
C578 H565 0.960 . S
C578 C577 1.524 . S
C579 C576 1.403 . S
C579 C580 1.392 . S
C579 C583 1.495 . S
C580 C579 1.392 . S
C580 C581 1.385 . S
C580 C582 1.478 . S
C581 H575 0.930 . S
C581 C577 1.400 . S
C581 C580 1.385 . S
C582 C580 1.478 . S
C582 C584 1.381 . S
C582 C588 1.383 . S
C583 C579 1.495 . S
C583 H589 0.959 . S
C583 H590 0.961 . S
C583 H591 0.960 . S
C584 C582 1.381 . S
C584 C585 1.394 . S
C584 H592 0.930 . S
C585 C584 1.394 . S
C585 C586 1.383 . S
C585 H593 0.929 . S
C586 C585 1.383 . S
C586 C587 1.377 . S
C587 H571 0.930 . S
C587 C586 1.377 . S
C587 C588 1.379 . S
C588 H572 0.931 . S
C588 C582 1.383 . S
C588 C587 1.379 . S
H589 C583 0.959 . S
H590 C583 0.961 . S
H591 C583 0.960 . S
H592 C584 0.930 . S
H593 C585 0.929 . S
H594 C602 0.929 . S
H595 C604 0.930 . S
H596 C606 0.930 . S
H597 C609 0.929 . S
H598 C612 0.930 . S
H599 C614 0.960 . S
H600 C614 0.960 . S
H601 C614 0.960 . S
C602 H594 0.929 . S
C602 C603 1.377 . S
C602 C604 1.384 . S
C603 C602 1.377 . S
C603 C609 1.390 . S
C604 H595 0.930 . S
C604 C602 1.384 . S
C604 C605 1.372 . S
C605 C604 1.372 . S
C605 C606 1.400 . S
C605 C610 1.490 . S
C606 H596 0.930 . S
C606 C605 1.400 . S
C606 C609 1.386 . S
H607 C623 0.930 . S
H608 C624 0.931 . S
C609 H597 0.929 . S
C609 C603 1.390 . S
C609 C606 1.386 . S
C610 C605 1.490 . S
C610 C612 1.395 . S
C610 C613 1.403 . S
H611 C617 0.930 . S
C612 H598 0.930 . S
C612 C610 1.395 . S
C612 C615 1.403 . S
C613 C610 1.403 . S
C613 C614 1.524 . S
C613 C617 1.400 . S
C614 H599 0.960 . S
C614 H600 0.960 . S
C614 H601 0.960 . S
C614 C613 1.524 . S
C615 C612 1.403 . S
C615 C616 1.392 . S
C615 C619 1.495 . S
C616 C615 1.392 . S
C616 C617 1.385 . S
C616 C618 1.478 . S
C617 H611 0.930 . S
C617 C613 1.400 . S
C617 C616 1.385 . S
C618 C616 1.478 . S
C618 C620 1.381 . S
C618 C624 1.383 . S
C619 C615 1.495 . S
C619 H625 0.959 . S
C619 H626 0.961 . S
C619 H627 0.960 . S
C620 C618 1.381 . S
C620 C621 1.394 . S
C620 H628 0.930 . S
C621 C620 1.394 . S
C621 C622 1.383 . S
C621 H629 0.929 . S
C622 C621 1.383 . S
C622 C623 1.377 . S
C623 H607 0.930 . S
C623 C622 1.377 . S
C623 C624 1.379 . S
C624 H608 0.931 . S
C624 C618 1.383 . S
C624 C623 1.379 . S
H625 C619 0.959 . S
H626 C619 0.961 . S
H627 C619 0.960 . S
H628 C620 0.930 . S
H629 C621 0.929 . S
H630 C638 0.929 . S
H631 C640 0.930 . S
H632 C642 0.930 . S
H633 C645 0.929 . S
H634 C648 0.930 1_655 S
H635 C650 0.960 . S
H636 C650 0.960 . S
H637 C650 0.960 . S
C638 H630 0.929 . S
C638 C639 1.377 1_655 S
C638 C640 1.384 . S
C639 C638 1.377 1_455 S
C639 C645 1.390 . S
C640 H631 0.930 . S
C640 C638 1.384 . S
C640 C641 1.372 1_655 S
C641 C640 1.372 1_455 S
C641 C642 1.400 . S
C641 C646 1.490 . S
C642 H632 0.930 . S
C642 C641 1.400 . S
C642 C645 1.386 . S
H643 C659 0.930 . S
H644 C660 0.931 . S
C645 H633 0.929 . S
C645 C639 1.390 . S
C645 C642 1.386 . S
C646 C641 1.490 . S
C646 C648 1.395 . S
C646 C649 1.403 . S
H647 C653 0.928 1_556 S
C648 H634 0.930 1_455 S
C648 C646 1.395 . S
C648 C651 1.403 1_554 S
C649 C646 1.403 . S
C649 C650 1.524 . S
C649 C653 1.404 . S
C650 H635 0.960 . S
C650 H636 0.960 . S
C650 H637 0.960 . S
C650 C649 1.524 . S
C651 C648 1.403 1_556 S
C651 C652 1.392 . S
C651 C655 1.495 1_455 S
C652 C651 1.392 . S
C652 C653 1.383 1_556 S
C652 C654 1.478 . S
C653 H647 0.928 1_554 S
C653 C649 1.404 . S
C653 C652 1.383 1_554 S
C654 C652 1.478 . S
C654 C656 1.381 . S
C654 C660 1.383 . S
C655 C651 1.495 1_655 S
C655 H661 0.959 . S
C655 H662 0.961 . S
C655 H663 0.960 . S
C656 C654 1.381 . S
C656 C657 1.394 . S
C656 H664 0.930 1_455 S
C657 C656 1.394 . S
C657 C658 1.383 . S
C657 H665 0.929 . S
C658 C657 1.383 . S
C658 C659 1.377 . S
C659 H643 0.930 . S
C659 C658 1.377 . S
C659 C660 1.379 . S
C660 H644 0.931 . S
C660 C654 1.383 . S
C660 C659 1.379 . S
H661 C655 0.959 . S
H662 C655 0.961 . S
H663 C655 0.960 . S
H664 C656 0.930 1_655 S
H665 C657 0.929 . S
H666 C674 0.929 . S
H667 C676 0.930 . S
H668 C678 0.930 . S
H669 C681 0.929 . S
H670 C684 0.930 . S
H671 C686 0.960 . S
H672 C686 0.960 . S
H673 C686 0.960 . S
C674 H666 0.929 . S
C674 C675 1.377 . S
C674 C676 1.384 . S
C675 C674 1.377 . S
C675 C681 1.390 . S
C676 H667 0.930 . S
C676 C674 1.384 . S
C676 C677 1.372 . S
C677 C676 1.372 . S
C677 C678 1.400 . S
C677 C682 1.490 . S
C678 H668 0.930 . S
C678 C677 1.400 . S
C678 C681 1.386 . S
H679 C695 0.930 . S
H680 C696 0.931 . S
C681 H669 0.929 . S
C681 C675 1.390 . S
C681 C678 1.386 . S
C682 C677 1.490 . S
C682 C684 1.395 1_545 S
C682 C685 1.403 . S
H683 C689 0.930 . S
C684 H670 0.930 . S
C684 C682 1.395 1_565 S
C684 C687 1.403 . S
C685 C682 1.403 . S
C685 C686 1.524 . S
C685 C689 1.400 . S
C686 H671 0.960 . S
C686 H672 0.960 . S
C686 H673 0.960 . S
C686 C685 1.524 . S
C687 C684 1.403 . S
C687 C688 1.392 1_565 S
C687 C691 1.495 . S
C688 C687 1.392 1_545 S
C688 C689 1.385 . S
C688 C690 1.478 . S
C689 H683 0.930 . S
C689 C685 1.400 . S
C689 C688 1.385 . S
C690 C688 1.478 . S
C690 C692 1.381 . S
C690 C696 1.383 . S
C691 C687 1.495 . S
C691 H697 0.959 . S
C691 H698 0.961 . S
C691 H699 0.960 . S
C692 C690 1.381 . S
C692 C693 1.394 . S
C692 H700 0.930 . S
C693 C692 1.394 . S
C693 C694 1.383 . S
C693 H701 0.929 . S
C694 C693 1.383 . S
C694 C695 1.377 . S
C695 H679 0.930 . S
C695 C694 1.377 . S
C695 C696 1.379 . S
C696 H680 0.931 . S
C696 C690 1.383 . S
C696 C695 1.379 . S
H697 C691 0.959 . S
H698 C691 0.961 . S
H699 C691 0.960 . S
H700 C692 0.930 . S
H701 C693 0.929 . S
H702 C710 0.929 . S
H703 C712 0.930 . S
H704 C714 0.930 . S
H705 C717 0.929 . S
H706 C720 0.930 . S
H707 C722 0.960 . S
H708 C722 0.960 . S
H709 C722 0.960 . S
C710 H702 0.929 . S
C710 C711 1.377 . S
C710 C712 1.384 . S
C711 C710 1.377 . S
C711 C717 1.390 . S
C712 H703 0.930 . S
C712 C710 1.384 . S
C712 C713 1.372 . S
C713 C712 1.372 . S
C713 C714 1.400 . S
C713 C718 1.490 . S
C714 H704 0.930 . S
C714 C713 1.400 . S
C714 C717 1.386 . S
H715 C731 0.930 . S
H716 C732 0.931 . S
C717 H705 0.929 . S
C717 C711 1.390 . S
C717 C714 1.386 . S
C718 C713 1.490 . S
C718 C720 1.395 . S
C718 C721 1.403 . S
H719 C725 0.930 . S
C720 H706 0.930 . S
C720 C718 1.395 . S
C720 C723 1.403 . S
C721 C718 1.403 . S
C721 C722 1.524 . S
C721 C725 1.400 . S
C722 H707 0.960 . S
C722 H708 0.960 . S
C722 H709 0.960 . S
C722 C721 1.524 . S
C723 C720 1.403 . S
C723 C724 1.392 . S
C723 C727 1.495 . S
C724 C723 1.392 . S
C724 C725 1.385 . S
C724 C726 1.478 . S
C725 H719 0.930 . S
C725 C721 1.400 . S
C725 C724 1.385 . S
C726 C724 1.478 . S
C726 C728 1.381 . S
C726 C732 1.383 . S
C727 C723 1.495 . S
C727 H733 0.959 . S
C727 H734 0.961 . S
C727 H735 0.960 . S
C728 C726 1.381 . S
C728 C729 1.394 . S
C728 H736 0.930 . S
C729 C728 1.394 . S
C729 C730 1.383 . S
C729 H737 0.929 . S
C730 C729 1.383 . S
C730 C731 1.377 . S
C731 H715 0.930 . S
C731 C730 1.377 . S
C731 C732 1.379 . S
C732 H716 0.931 . S
C732 C726 1.383 . S
C732 C731 1.379 . S
H733 C727 0.959 . S
H734 C727 0.961 . S
H735 C727 0.960 . S
H736 C728 0.930 . S
H737 C729 0.929 . S
H738 C746 0.929 . S
H739 C748 0.930 . S
H740 C750 0.930 . S
H741 C753 0.929 . S
H742 C756 0.930 . S
H743 C758 0.960 . S
H744 C758 0.960 . S
H745 C758 0.960 . S
C746 H738 0.929 . S
C746 C747 1.377 . S
C746 C748 1.384 . S
C747 C746 1.377 . S
C747 C753 1.390 1_545 S
C748 H739 0.930 . S
C748 C746 1.384 . S
C748 C749 1.372 . S
C749 C748 1.372 . S
C749 C750 1.400 1_545 S
C749 C754 1.490 . S
C750 H740 0.930 . S
C750 C749 1.400 1_565 S
C750 C753 1.386 . S
H751 C767 0.930 . S
H752 C768 0.931 . S
C753 H741 0.929 . S
C753 C747 1.390 1_565 S
C753 C750 1.386 . S
C754 C749 1.490 . S
C754 C756 1.395 . S
C754 C757 1.403 . S
H755 C761 0.930 . S
C756 H742 0.930 . S
C756 C754 1.395 . S
C756 C759 1.403 . S
C757 C754 1.403 . S
C757 C758 1.524 . S
C757 C761 1.400 . S
C758 H743 0.960 . S
C758 H744 0.960 . S
C758 H745 0.960 . S
C758 C757 1.524 . S
C759 C756 1.403 . S
C759 C760 1.392 . S
C759 C763 1.495 . S
C760 C759 1.392 . S
C760 C761 1.385 . S
C760 C762 1.478 . S
C761 H755 0.930 . S
C761 C757 1.400 . S
C761 C760 1.385 . S
C762 C760 1.478 . S
C762 C764 1.381 . S
C762 C768 1.383 1_545 S
C763 C759 1.495 . S
C763 H769 0.960 1_545 S
C763 H770 0.961 1_545 S
C763 H771 0.960 . S
C764 C762 1.381 . S
C764 C765 1.394 . S
C764 H772 0.930 . S
C765 C764 1.394 . S
C765 C766 1.383 . S
C765 H773 0.929 . S
C766 C765 1.383 . S
C766 C767 1.377 1_545 S
C767 H751 0.930 . S
C767 C766 1.377 1_565 S
C767 C768 1.379 . S
C768 H752 0.931 . S
C768 C762 1.383 1_565 S
C768 C767 1.379 . S
H769 C763 0.960 1_565 S
H770 C763 0.961 1_565 S
H771 C763 0.960 . S
H772 C764 0.930 . S
H773 C765 0.929 . S
H774 C782 0.929 . S
H775 C784 0.930 . S
H776 C786 0.930 . S
H777 C789 0.929 . S
H778 C792 0.930 . S
H779 C794 0.960 . S
H780 C794 0.960 . S
H781 C794 0.960 . S
C782 H774 0.929 . S
C782 C783 1.377 . S
C782 C784 1.384 . S
C783 C782 1.377 . S
C783 C789 1.390 . S
C784 H775 0.930 . S
C784 C782 1.384 . S
C784 C785 1.372 . S
C785 C784 1.372 . S
C785 C786 1.400 . S
C785 C790 1.490 . S
C786 H776 0.930 . S
C786 C785 1.400 . S
C786 C789 1.386 . S
H787 C803 0.930 . S
H788 C804 0.931 . S
C789 H777 0.929 . S
C789 C783 1.390 . S
C789 C786 1.386 . S
C790 C785 1.490 . S
C790 C792 1.395 . S
C790 C793 1.403 . S
H791 C797 0.930 . S
C792 H778 0.930 . S
C792 C790 1.395 . S
C792 C795 1.458 . S
C793 C790 1.403 . S
C793 C794 1.524 . S
C793 C797 1.400 1_556 S
C794 H779 0.960 . S
C794 H780 0.960 . S
C794 H781 0.960 . S
C794 C793 1.524 . S
C795 C792 1.458 . S
C795 C796 1.358 1_556 S
C795 C799 1.478 1_556 S
C796 C795 1.358 1_554 S
C796 C797 1.385 . S
C796 C798 1.478 . S
C797 H791 0.930 . S
C797 C793 1.400 1_554 S
C797 C796 1.385 . S
C798 C796 1.478 . S
C798 C800 1.381 . S
C798 C804 1.383 . S
C799 C795 1.478 1_554 S
C799 H805 0.959 1_554 S
C799 H806 0.961 . S
C799 H807 0.960 . S
C800 C798 1.381 . S
C800 C801 1.394 . S
C800 H808 0.930 . S
C801 C800 1.394 . S
C801 C802 1.383 . S
C801 H809 0.929 . S
C802 C801 1.383 . S
C802 C803 1.377 . S
C803 H787 0.930 . S
C803 C802 1.377 . S
C803 C804 1.379 . S
C804 H788 0.931 . S
C804 C798 1.383 . S
C804 C803 1.379 . S
H805 C799 0.959 1_556 S
H806 C799 0.961 . S
H807 C799 0.960 . S
H808 C800 0.930 . S
H809 C801 0.929 . S
H810 C818 0.929 . S
H811 C820 0.930 . S
H812 C822 0.930 . S
H813 C825 0.929 . S
H814 C828 0.930 1_655 S
H815 C830 0.960 . S
H816 C830 0.960 . S
H817 C830 0.960 . S
C818 H810 0.929 . S
C818 C819 1.377 1_655 S
C818 C820 1.384 . S
C819 C818 1.377 1_455 S
C819 C825 1.390 . S
C820 H811 0.930 . S
C820 C818 1.384 . S
C820 C821 1.372 1_655 S
C821 C820 1.372 1_455 S
C821 C822 1.400 . S
C821 C826 1.490 . S
C822 H812 0.930 . S
C822 C821 1.400 . S
C822 C825 1.386 . S
H823 C839 0.930 . S
H824 C840 0.931 . S
C825 H813 0.929 . S
C825 C819 1.390 . S
C825 C822 1.386 . S
C826 C821 1.490 . S
C826 C828 1.395 . S
C826 C829 1.403 . S
H827 C833 0.930 . S
C828 H814 0.930 1_455 S
C828 C826 1.395 . S
C828 C831 1.403 . S
C829 C826 1.403 . S
C829 C830 1.524 . S
C829 C833 1.400 . S
C830 H815 0.960 . S
C830 H816 0.960 . S
C830 H817 0.960 . S
C830 C829 1.524 . S
C831 C828 1.403 . S
C831 C832 1.392 . S
C831 C835 1.495 1_455 S
C832 C831 1.392 . S
C832 C833 1.385 . S
C832 C834 1.478 . S
C833 H827 0.930 . S
C833 C829 1.400 . S
C833 C832 1.385 . S
C834 C832 1.478 . S
C834 C836 1.381 . S
C834 C840 1.383 . S
C835 C831 1.495 1_655 S
C835 H841 0.959 . S
C835 H842 0.961 1_655 S
C835 H843 0.960 . S
C836 C834 1.381 . S
C836 C837 1.394 . S
C836 H844 0.930 1_455 S
C837 C836 1.394 . S
C837 C838 1.383 . S
C837 H845 0.929 1_455 S
C838 C837 1.383 . S
C838 C839 1.377 . S
C839 H823 0.930 . S
C839 C838 1.377 . S
C839 C840 1.379 . S
C840 H824 0.931 . S
C840 C834 1.383 . S
C840 C839 1.379 . S
H841 C835 0.959 . S
H842 C835 0.961 1_455 S
H843 C835 0.960 . S
H844 C836 0.930 1_655 S
H845 C837 0.929 1_655 S
C207 C19 1.914 . S
C226 C189 1.734 . S
C243 C46 1.102 . S
C262 C167 1.114 . S
C279 C95 0.227 . S
C298 C180 0.211 . S
C315 C10 1.846 . S
C334 C193 1.810 . S
C370 C163 1.245 . S
C351 C55 1.324 . S
C406 C176 0.660 . S
C387 C86 0.559 . S
C423 C59 2.989 . S
C442 C141 2.949 . S
C459 C90 1.843 . S
C478 C154 1.841 1_655 S
C495 C15 1.286 . S
C514 C124 1.246 . S
C550 C137 2.872 . S
C531 C50 3.025 . S
C586 C150 1.757 . S
C567 C99 1.930 . S
C603 C6 1.061 . S
C622 C128 1.035 . S
C658 C155 1.466 . S
C639 C9 1.430 . S
C675 C58 1.514 . S
C694 C129 1.603 . S
C711 C98 1.680 . S
C730 C142 1.708 . S
C766 C181 1.341 . S
C747 C49 1.316 . S
C802 C194 1.452 . S
C783 C89 1.404 . S
C819 C18 1.482 . S
C838 C168 1.541 . S
