# Generated by pormake.
# Topology pth, (4,4)-cn, num edge types: 1
# Building blocks:
#     Node 0, Type 0, BuildingBlock: NAHDIM_clean_sbu_0, # of connection points: 4
#     Node 1, Type 0, BuildingBlock: NAHDIM_clean_sbu_0, # of connection points: 4
#     Node 2, Type 0, BuildingBlock: NAHDIM_clean_sbu_0, # of connection points: 4
#     Node 3, Type 1, BuildingBlock: MUDLON_clean_linker_0, # of connection points: 4
#     Node 4, Type 1, BuildingBlock: MUDLON_clean_linker_0, # of connection points: 4
#     Node 5, Type 1, BuildingBlock: MUDLON_clean_linker_0, # of connection points: 4
#     Edge 6, Type (0, 1), BuildingBlock: TEMPAE_clean_linker_10, # of connection points: 2
#     Edge 7, Type (0, 1), BuildingBlock: TEMPAE_clean_linker_10, # of connection points: 2
#     Edge 8, Type (0, 1), BuildingBlock: TEMPAE_clean_linker_10, # of connection points: 2
#     Edge 9, Type (0, 1), BuildingBlock: TEMPAE_clean_linker_10, # of connection points: 2
#     Edge 10, Type (0, 1), BuildingBlock: TEMPAE_clean_linker_10, # of connection points: 2
#     Edge 11, Type (0, 1), BuildingBlock: TEMPAE_clean_linker_10, # of connection points: 2
#     Edge 12, Type (0, 1), BuildingBlock: TEMPAE_clean_linker_10, # of connection points: 2
#     Edge 13, Type (0, 1), BuildingBlock: TEMPAE_clean_linker_10, # of connection points: 2
#     Edge 14, Type (0, 1), BuildingBlock: TEMPAE_clean_linker_10, # of connection points: 2
#     Edge 15, Type (0, 1), BuildingBlock: TEMPAE_clean_linker_10, # of connection points: 2
#     Edge 16, Type (0, 1), BuildingBlock: TEMPAE_clean_linker_10, # of connection points: 2
#     Edge 17, Type (0, 1), BuildingBlock: TEMPAE_clean_linker_10, # of connection points: 2
# Relax obj value: 0.057
# Max RMSD: 0.170
# Mean RMSD: 0.116
data_MOF--net-pth--node1-NAHDIM_clean_sbu_0--node2-MUDLON_clean_linker_0--edge1-TEMPAE_clean_linker_10
_symmetry_space_group_name_H-M    P1
_symmetry_Int_Tables_number       1
_symmetry_cell_setting            triclinic
loop_
_symmetry_equiv_pos_as_xyz
'x, y, z'
_cell_length_a     33.908791
_cell_length_b     34.05435
_cell_length_c     67.332289
_cell_angle_alpha  91.726798
_cell_angle_beta   90.015703
_cell_angle_gamma 120.53061
loop_
_atom_site_label
_atom_site_type_symbol
_atom_site_fract_x
_atom_site_fract_y
_atom_site_fract_z
_atom_type_partial_charge
C0 C 0.07441 0.99633 0.07486 0.0
O1 O 0.07571 0.03079 0.08474 0.0
O2 O 0.02716 0.06398 0.05781 0.0
Zn3 Zn 0.05044 0.03132 0.04039 0.0
O4 O 0.00107 0.98888 0.02088 0.0
C5 C 0.09119 0.09857 0.01279 0.0
O6 O 0.04758 0.0855 0.01103 0.0
O7 O 0.06665 0.99193 0.05622 0.0
C8 C 0.95904 0.97645 0.02269 0.0
O9 O 0.94638 0.99244 0.03784 0.0
C10 C 0.05543 0.10076 0.06713 0.0
O11 O 0.09954 0.11613 0.06577 0.0
O12 O 0.10317 0.07887 0.02513 0.0
C13 C 0.02232 0.08418 0.33829 0.0
O14 O 0.99202 0.04158 0.33339 0.0
O15 O 0.01963 0.98452 0.3532 0.0
Zn16 Zn 0.03418 0.03966 0.37069 0.0
O17 O 0.98065 0.02636 0.38785 0.0
C18 C 0.12797 0.06858 0.38139 0.0
O19 O 0.13444 0.0741 0.3622 0.0
O20 O 0.04663 0.09265 0.35395 0.0
C21 C 0.9714 0.00254 0.40318 0.0
O22 O 0.99757 0.98603 0.408 0.0
C23 C 0.97941 0.95005 0.35137 0.0
O24 O 0.94586 0.94996 0.36114 0.0
O25 O 0.08832 0.05506 0.38819 0.0
C26 C 0.09261 0.0315 0.67565 0.0
O27 O 0.07996 0.0618 0.67355 0.0
O28 O 0.98273 0.01103 0.68747 0.0
Zn29 Zn 0.02862 0.00897 0.70577 0.0
O30 O 0.06303 0.0667 0.72249 0.0
C31 C 0.95589 0.9225 0.71829 0.0
O32 O 0.93993 0.92151 0.70039 0.0
O33 O 0.07442 0.00259 0.68917 0.0
C34 C 0.04408 0.07946 0.73536 0.0
O35 O -0.00034 0.05449 0.73781 0.0
C36 C 0.97655 0.04441 0.68515 0.0
O37 O 0.00232 0.08304 0.69513 0.0
O38 O 0.99464 0.9561 0.72374 0.0
H39 H 0.85938 0.64846 0.20803 0.0
N40 N 0.9207 0.62477 0.19896 0.0
H41 H 0.86097 0.69558 0.2366 0.0
H42 H 0.98037 0.65297 0.23102 0.0
H43 H 0.98257 0.7003 0.25925 0.0
H44 H 0.00949 0.69606 0.19977 0.0
H45 H 0.04462 0.75409 0.17494 0.0
H46 H 0.8879 0.62218 0.16289 0.0
H47 H 0.92364 0.6792 0.13742 0.0
H48 H 0.85198 0.53949 0.19684 0.0
H49 H -0.00132 0.62031 0.20388 0.0
H50 H 0.85541 0.46984 0.1988 0.0
H51 H 0.00246 0.55126 0.20723 0.0
H52 H 0.88108 0.2668 0.22962 0.0
H53 H 0.90784 0.24132 0.25738 0.0
H54 H 0.04311 0.35956 0.25254 0.0
H55 H 0.01561 0.38508 0.2248 0.0
H56 H 0.01425 0.36107 0.19122 0.0
H57 H 0.02823 0.32292 0.16327 0.0
H58 H 0.88287 0.23013 0.15584 0.0
H59 H 0.86869 0.26994 0.18351 0.0
H60 H 0.86815 0.35393 0.22143 0.0
H61 H 0.86722 0.42507 0.22073 0.0
H62 H 0.99586 0.48773 0.18986 0.0
N63 N 0.93068 0.33692 0.20706 0.0
H64 H 0.99786 0.41783 0.19187 0.0
C65 C 0.91948 0.64701 0.21732 0.0
C66 C 0.88576 0.65894 0.21941 0.0
C67 C 0.88696 0.6861 0.23562 0.0
C68 C 0.9221 0.7019 0.25009 0.0
C69 C 0.95479 0.68828 0.24846 0.0
C70 C 0.9536 0.66118 0.23221 0.0
C71 C 0.94557 0.65512 0.18329 0.0
C72 C 0.9907 0.69171 0.18612 0.0
C73 C 0.01096 0.72481 0.17179 0.0
C74 C 0.98668 0.7217 0.1543 0.0
C75 C 0.94287 0.68319 0.15093 0.0
C76 C 0.92252 0.6504 0.16534 0.0
C77 C 0.92477 0.58491 0.20041 0.0
C78 C 0.88486 0.54207 0.19907 0.0
C79 C 0.88696 0.50237 0.20039 0.0
C80 C 0.92921 0.50472 0.2034 0.0
C81 C 0.96936 0.54795 0.2047 0.0
C82 C 0.96723 0.58766 0.20303 0.0
C83 C 0.94632 0.32737 0.22512 0.0
C84 C 0.91618 0.28769 0.23489 0.0
C85 C 0.93154 0.27335 0.25076 0.0
C86 C 0.97764 0.29844 0.2571 0.0
C87 C 0.00751 0.33943 0.24785 0.0
C88 C 0.99188 0.35401 0.23203 0.0
C89 C 0.94011 0.31899 0.18921 0.0
C90 C 0.98515 0.33376 0.18321 0.0
C91 C 0.99322 0.31176 0.16728 0.0
C92 C 0.95658 0.27387 0.15744 0.0
C93 C 0.9116 0.25947 0.16319 0.0
C94 C 0.90349 0.28218 0.17886 0.0
C95 C 0.93243 0.38 0.20645 0.0
C96 C 0.89619 0.38321 0.21462 0.0
C97 C 0.8956 0.42383 0.21403 0.0
C98 C 0.93115 0.46219 0.20496 0.0
C99 C 0.96804 0.45916 0.19712 0.0
C100 C 0.96896 0.41868 0.19804 0.0
H101 H 0.70041 0.03998 0.55084 0.0
N102 N 0.63057 0.95376 0.54058 0.0
H103 H 0.75697 0.06081 0.57756 0.0
H104 H 0.63083 0.90011 0.56847 0.0
H105 H 0.68734 0.92088 0.59548 0.0
H106 H 0.63978 0.88637 0.52472 0.0
H107 H 0.69193 0.89158 0.49839 0.0
H108 H 0.67926 0.02682 0.51685 0.0
H109 H 0.73089 0.03212 0.49048 0.0
H110 H 0.61246 0.00123 0.56991 0.0
H111 H 0.5777 0.94811 0.5092 0.0
H112 H 0.56375 0.03339 0.56708 0.0
H113 H 0.52897 0.98109 0.50651 0.0
H114 H 0.41759 0.14724 0.55637 0.0
H115 H 0.36493 0.13254 0.58381 0.0
H116 H 0.31775 0.98862 0.5778 0.0
H117 H 0.37006 0.00346 0.55043 0.0
H118 H 0.34455 0.01655 0.51861 0.0
H119 H 0.30482 0.01796 0.48892 0.0
H120 H 0.41638 0.15348 0.47748 0.0
H121 H 0.45586 0.15215 0.5078 0.0
H122 H 0.51053 0.12622 0.54877 0.0
H123 H 0.56144 0.0949 0.54992 0.0
H124 H 0.45743 0.97132 0.51977 0.0
N125 N 0.42603 0.08656 0.53399 0.0
H126 H 0.4073 0.00294 0.51844 0.0
C127 C 0.66148 0.96819 0.55757 0.0
C128 C 0.69721 0.01376 0.5605 0.0
C129 C 0.72948 0.02567 0.57579 0.0
C130 C 0.72665 0.99241 0.5885 0.0
C131 C 0.69008 0.94727 0.58601 0.0
C132 C 0.65791 0.93532 0.57061 0.0
C133 C 0.65563 0.95601 0.52284 0.0
C134 C 0.65889 0.91794 0.51698 0.0
C135 C 0.68863 0.921 0.50195 0.0
C136 C 0.71583 0.96242 0.49252 0.0
C137 C 0.71094 -1e-05 0.49772 0.0
C138 C 0.68124 0.99691 0.51274 0.0
C139 C 0.6022 0.97456 0.53923 0.0
C140 C 0.59589 0.99747 0.55568 0.0
C141 C 0.56752 0.01588 0.55416 0.0
C142 C 0.5434 0.0108 0.53643 0.0
C143 C 0.54751 0.98602 0.52034 0.0
C144 C 0.57598 0.96763 0.52182 0.0
C145 C 0.39785 0.07673 0.5513 0.0
C146 C 0.39633 0.11267 0.5612 0.0
C147 C 0.36641 0.1042 0.57689 0.0
C148 C 0.33717 0.05938 0.5829 0.0
C149 C 0.3396 0.02343 0.57336 0.0
C150 C 0.36973 0.03198 0.55773 0.0
C151 C 0.40334 0.08455 0.51554 0.0
C152 C 0.36089 0.04647 0.50972 0.0
C153 C 0.33822 0.04718 0.49257 0.0
C154 C 0.35743 0.08584 0.48081 0.0
C155 C 0.40047 0.12337 0.48634 0.0
C156 C 0.42316 0.1226 0.50354 0.0
C157 C 0.45531 0.0673 0.53349 0.0
C158 C 0.49899 0.09253 0.5423 0.0
C159 C 0.52781 0.07447 0.54304 0.0
C160 C 0.51338 0.03058 0.53497 0.0
C161 C 0.46975 0.00545 0.5259 0.0
C162 C 0.44092 0.02354 0.52519 0.0
H163 H 0.66605 0.71944 0.88383 0.0
N164 N 0.67404 0.64519 0.87392 0.0
H165 H 0.70582 0.77482 0.91118 0.0
H166 H 0.72832 0.64249 0.90159 0.0
H167 H 0.76911 0.69819 0.92878 0.0
H168 H 0.74528 0.64324 0.85864 0.0
H169 H 0.79169 0.68562 0.8306 0.0
H170 H 0.65642 0.69731 0.84928 0.0
H171 H 0.70147 0.73849 0.82083 0.0
H172 H 0.61176 0.63301 0.90319 0.0
H173 H 0.62141 0.59347 0.84245 0.0
H174 H 0.52953 0.58579 0.90098 0.0
H175 H 0.53849 0.5466 0.84035 0.0
H176 H 0.26725 0.42364 0.89884 0.0
H177 H 0.24012 0.3747 0.92755 0.0
H178 H 0.35153 0.34853 0.92111 0.0
H179 H 0.37828 0.3971 0.89251 0.0
H180 H 0.33115 0.35683 0.86274 0.0
H181 H 0.2813 0.30222 0.83735 0.0
H182 H 0.22577 0.38851 0.82473 0.0
H183 H 0.27788 0.44469 0.84992 0.0
H184 H 0.37852 0.5232 0.88683 0.0
H185 H 0.46076 0.57825 0.88517 0.0
H186 H 0.48022 0.47627 0.85447 0.0
N187 N 0.33424 0.43629 0.87466 0.0
H188 H 0.39894 0.42232 0.85582 0.0
C189 C 0.69433 0.67677 0.89073 0.0
C190 C 0.68832 0.71451 0.89363 0.0
C191 C 0.71115 0.74617 0.90925 0.0
C192 C 0.7407 0.74098 0.92215 0.0
C193 C 0.74604 0.70283 0.91934 0.0
C194 C 0.72301 0.6711 0.90379 0.0
C195 C 0.69746 0.66693 0.85602 0.0
C196 C 0.73538 0.66362 0.85027 0.0
C197 C 0.76168 0.68772 0.8342 0.0
C198 C 0.7504 0.71559 0.82347 0.0
C199 C 0.7116 0.71798 0.82896 0.0
C200 C 0.68559 0.6942 0.84516 0.0
C201 C 0.62411 0.61994 0.87251 0.0
C202 C 0.59677 0.6159 0.88905 0.0
C203 C 0.54917 0.58845 0.88787 0.0
C204 C 0.52736 0.56311 0.87038 0.0
C205 C 0.55424 0.56598 0.85402 0.0
C206 C 0.60187 0.59343 0.85517 0.0
C207 C 0.3245 0.414 0.89343 0.0
C208 C 0.28641 0.40824 0.90397 0.0
C209 C 0.2711 0.38041 0.92036 0.0
C210 C 0.2936 0.35759 0.92645 0.0
C211 C 0.3333 0.36537 0.9166 0.0
C212 C 0.34874 0.39339 0.90027 0.0
C213 C 0.30868 0.40544 0.8582 0.0
C214 C 0.30917 0.36483 0.85432 0.0
C215 C 0.28002 0.3331 0.8399 0.0
C216 C 0.24899 0.34061 0.82921 0.0
C217 C 0.24944 0.3818 0.83262 0.0
C218 C 0.2791 0.41389 0.84699 0.0
C219 C 0.38207 0.4686 0.87148 0.0
C220 C 0.40054 0.51309 0.87947 0.0
C221 C 0.44749 0.5443 0.87863 0.0
C222 C 0.47702 0.53155 0.86975 0.0
C223 C 0.45835 0.4874 0.86118 0.0
C224 C 0.41146 0.45623 0.86204 0.0
C225 C 0.06567 0.15362 0.09565 0.0
C226 C 0.03894 0.12568 0.07956 0.0
C227 C 0.05029 0.17713 0.10778 0.0
C228 C 0.00772 0.17354 0.10335 0.0
C229 C 0.98092 0.14596 0.0869 0.0
C230 C 0.99659 0.12181 0.07535 0.0
C231 C 0.07932 0.20535 0.12547 0.0
C232 C 0.93592 0.14223 0.08145 0.0
C233 C 0.95056 0.2012 0.14545 0.0
C234 C 0.96586 0.24722 0.14244 0.0
C235 C 0.96329 0.17651 0.13262 0.0
C236 C 0.99112 0.19823 0.11617 0.0
C237 C 0.00507 0.24425 0.11262 0.0
C238 C 0.99276 0.26845 0.12599 0.0
C239 C 0.94859 0.12783 0.13714 0.0
C240 C 0.03386 0.26821 0.09498 0.0
H241 H 0.09829 0.15639 0.099 0.0
H242 H 0.97607 0.10051 0.06278 0.0
H243 H 0.08906 0.24152 0.12402 0.0
H244 H 0.05938 0.19325 0.13928 0.0
H245 H 0.11106 0.20372 0.12711 0.0
H246 H 0.91998 0.12056 0.06781 0.0
H247 H 0.91162 0.12756 0.09383 0.0
H248 H 0.9412 0.17667 0.07904 0.0
H249 H 0.9302 0.1851 0.15835 0.0
H250 H 0.00445 0.30409 0.12372 0.0
H251 H 0.97925 0.12512 0.14027 0.0
H252 H 0.93047 0.1049 0.1241 0.0
H253 H 0.92574 0.11551 0.15014 0.0
H254 H 0.06816 0.27193 0.09661 0.0
H255 H 0.03838 0.30263 0.09337 0.0
H256 H 0.01788 0.24761 0.08111 0.0
C257 C 0.90266 0.00972 0.40962 0.0
C258 C 0.93178 0.99394 0.41546 0.0
C259 C 0.86579 0.0031 0.42138 0.0
C260 C 0.85791 0.98028 0.43945 0.0
C261 C 0.88664 0.96356 0.44527 0.0
C262 C 0.92322 0.97053 0.43319 0.0
C263 C 0.83579 0.02131 0.41466 0.0
C264 C 0.87931 0.93913 0.46448 0.0
C265 C 0.79559 0.0059 0.47987 0.0
C266 C 0.75147 0.96739 0.47835 0.0
C267 C 0.83043 0.01055 0.46724 0.0
C268 C 0.82095 0.97582 0.45271 0.0
C269 C 0.77641 0.93699 0.45097 0.0
C270 C 0.74217 0.93318 0.46386 0.0
C271 C 0.87756 0.05238 0.46961 0.0
C272 C 0.76503 0.89943 0.43557 0.0
H273 H 0.90887 0.02764 0.39589 0.0
H274 H 0.94548 0.95815 0.43779 0.0
H275 H 0.79936 0.99362 0.41414 0.0
H276 H 0.83874 0.04793 0.42549 0.0
H277 H 0.84515 0.03633 0.39976 0.0
H278 H 0.90356 0.92662 0.46648 0.0
H279 H 0.88372 0.96249 0.47724 0.0
H280 H 0.84383 0.90966 0.46491 0.0
H281 H 0.8032 0.03206 0.49128 0.0
H282 H 0.70803 0.90351 0.46255 0.0
H283 H 0.88797 0.07054 0.45545 0.0
H284 H 0.90295 0.04215 0.47322 0.0
H285 H 0.87914 0.07649 0.48151 0.0
H286 H 0.7722 0.91355 0.42049 0.0
H287 H 0.7286 0.87173 0.436 0.0
H288 H 0.78704 0.88452 0.43797 0.0
C289 C 0.94496 0.88617 0.75117 0.0
C290 C 0.92698 0.88757 0.73262 0.0
C291 C 0.91684 0.85581 0.76551 0.0
C292 C 0.86955 0.82657 0.76126 0.0
C293 C 0.85148 0.8269 0.74236 0.0
C294 C 0.88047 0.85722 0.72822 0.0
C295 C 0.93745 0.85598 0.78542 0.0
C296 C 0.80115 0.7965 0.73735 0.0
C297 C 0.7997 0.72576 0.79396 0.0
C298 C 0.78003 0.74343 0.80714 0.0
C299 C 0.82903 0.75242 0.77896 0.0
C300 C 0.83851 0.79764 0.77698 0.0
C301 C 0.81839 0.81552 0.79007 0.0
C302 C 0.78965 0.78832 0.80505 0.0
C303 C 0.85007 0.73232 0.76532 0.0
C304 C 0.82749 0.86355 0.78835 0.0
H305 H 0.98093 0.90933 0.75463 0.0
H306 H 0.86627 0.85812 0.71394 0.0
H307 H 0.92304 0.86818 0.79723 0.0
H308 H 0.92857 0.82085 0.78899 0.0
H309 H 0.97532 0.87826 0.78584 0.0
H310 H 0.793 0.79898 0.72162 0.0
H311 H 0.79004 0.76042 0.74013 0.0
H312 H 0.7808 0.80613 0.74709 0.0
H313 H 0.792 0.69094 0.79529 0.0
H314 H 0.77535 0.8026 0.81538 0.0
H315 H 0.88797 0.75342 0.76635 0.0
H316 H 0.83996 0.7326 0.74968 0.0
H317 H 0.83953 0.69673 0.76894 0.0
H318 H 0.86458 0.88834 0.79057 0.0
H319 H 0.80824 0.87188 0.79939 0.0
H320 H 0.81781 0.86817 0.77323 0.0
C321 C 0.06599 0.91894 0.07537 0.0
C322 C 0.07405 0.95889 0.08566 0.0
C323 C 0.05772 0.88027 0.08562 0.0
C324 C 0.05759 0.88166 0.10664 0.0
C325 C 0.06903 0.92289 0.1171 0.0
C326 C 0.07714 0.96104 0.10648 0.0
C327 C 0.04594 0.83703 0.07393 0.0
C328 C 0.0696 0.92584 0.13953 0.0
C329 C 0.97556 0.77436 0.13308 0.0
C330 C 0.00491 0.76048 0.14068 0.0
C331 C 0.99225 0.81301 0.12156 0.0
C332 C 0.03962 0.83882 0.11762 0.0
C333 C 0.06942 0.82457 0.12483 0.0
C334 C 0.05169 0.78549 0.13628 0.0
C335 C 0.95927 0.82699 0.11411 0.0
C336 C 0.12009 0.8512 0.12085 0.0
H337 H 0.06395 0.91706 0.05927 0.0
H338 H 0.0838 0.99188 0.11457 0.0
H339 H 0.06472 0.82114 0.08002 0.0
H340 H 0.00881 0.81212 0.07517 0.0
H341 H 0.054 0.84329 0.05793 0.0
H342 H 0.0845 0.96152 0.14538 0.0
H343 H 0.03407 0.90552 0.14495 0.0
H344 H 0.08949 0.91125 0.14576 0.0
H345 H 0.93957 0.75589 0.13672 0.0
H346 H 0.07451 0.77474 0.14194 0.0
H347 H 0.96176 0.83047 0.09777 0.0
H348 H 0.96833 0.86076 0.12084 0.0
H349 H 0.92319 0.80208 0.11774 0.0
H350 H 0.12596 0.85611 0.10468 0.0
H351 H 0.13814 0.83401 0.1264 0.0
H352 H 0.13555 0.88558 0.12818 0.0
C353 C 0.20985 0.09121 0.38776 0.0
C354 C 0.16561 0.07555 0.39491 0.0
C355 C 0.24516 0.09603 0.40039 0.0
C356 C 0.23584 0.08468 0.42057 0.0
C357 C 0.19145 0.0695 0.42791 0.0
C358 C 0.15695 0.06525 0.41502 0.0
C359 C 0.2922 0.11265 0.3921 0.0
C360 C 0.18012 0.05693 0.44935 0.0
C361 C 0.30571 0.0491 0.45103 0.0
C362 C 0.33106 0.08769 0.46361 0.0
C363 C 0.27606 0.04838 0.43631 0.0
C364 C 0.27188 0.0873 0.43405 0.0
C365 C 0.2992 0.12721 0.44595 0.0
C366 C 0.3284 0.12689 0.46064 0.0
C367 C 0.24758 0.0052 0.42386 0.0
C368 C 0.29587 0.16946 0.44389 0.0
H369 H 0.21686 0.09937 0.37225 0.0
H370 H 0.1229 0.05313 0.4207 0.0
H371 H 0.31817 0.1429 0.40092 0.0
H372 H 0.3013 0.08576 0.39325 0.0
H373 H 0.29435 0.12187 0.37629 0.0
H374 H 0.14412 0.04651 0.45279 0.0
H375 H 0.18567 0.02839 0.45272 0.0
H376 H 0.2032 0.08627 0.45936 0.0
H377 H 0.30824 0.01898 0.45302 0.0
H378 H 0.34755 0.15671 0.47041 0.0
H379 H 0.25088 0.01284 0.40785 0.0
H380 H 0.21092 0.99022 0.42757 0.0
H381 H 0.25761 0.97931 0.42633 0.0
H382 H 0.29843 0.17857 0.42808 0.0
H383 H 0.32301 0.19915 0.45264 0.0
H384 H 0.26203 0.16272 0.44914 0.0
C385 C 0.12018 0.14287 0.74761 0.0
C386 C 0.07226 0.12123 0.74784 0.0
C387 C 0.14752 0.18082 0.76019 0.0
C388 C 0.12648 0.1979 0.77317 0.0
C389 C 0.07821 0.17731 0.77296 0.0
C390 C 0.05161 0.13898 0.76037 0.0
C391 C 0.19889 0.20155 0.76012 0.0
C392 C 0.05463 0.195 0.78641 0.0
C393 C 0.19406 0.25862 0.82016 0.0
C394 C 0.21537 0.30459 0.81515 0.0
C395 C 0.16429 0.22371 0.80678 0.0
C396 C 0.15498 0.23497 0.78799 0.0
C397 C 0.1749 0.28132 0.78308 0.0
C398 C 0.20506 0.31565 0.79671 0.0
C399 C 0.14382 0.17468 0.81257 0.0
C400 C 0.16531 0.29456 0.76324 0.0
H401 H 0.13644 0.12943 0.73796 0.0
H402 H 0.01461 0.12267 0.76049 0.0
H403 H 0.21599 0.23872 0.75776 0.0
H404 H 0.21088 0.19716 0.77477 0.0
H405 H 0.21 0.18575 0.74841 0.0
H406 H 0.01726 0.17783 0.78318 0.0
H407 H 0.05973 0.18946 0.80213 0.0
H408 H 0.06986 0.23227 0.78484 0.0
H409 H 0.20088 0.24982 0.83459 0.0
H410 H 0.22149 0.35106 0.7927 0.0
H411 H 0.15554 0.15677 0.80228 0.0
H412 H 0.10594 0.1567 0.81129 0.0
H413 H 0.15347 0.17177 0.828 0.0
H414 H 0.17975 0.28296 0.7512 0.0
H415 H 0.18032 0.33202 0.76237 0.0
H416 H 0.12784 0.27751 0.76041 0.0
C417 C 0.92759 0.07259 0.67084 0.0
C418 C 0.94009 0.03919 0.67136 0.0
C419 C 0.89246 0.06733 0.658 0.0
C420 C 0.86973 0.02799 0.64528 0.0
C421 C 0.88236 0.99429 0.64568 0.0
C422 C 0.91722 0.0002 0.65877 0.0
C423 C 0.8796 0.10377 0.65805 0.0
C424 C 0.85919 0.95205 0.6322 0.0
C425 C 0.75219 0.98867 0.62294 0.0
C426 C 0.76319 0.00421 0.60356 0.0
C427 C 0.78666 0.99754 0.63693 0.0
C428 C 0.8331 0.02206 0.63129 0.0
C429 C 0.84442 0.0386 0.61185 0.0
C430 C 0.8093 0.0296 0.59823 0.0
C431 C 0.77337 0.97977 0.6576 0.0
C432 C 0.89352 0.06443 0.60521 0.0
H433 H 0.94497 0.10269 0.6806 0.0
H434 H 0.92674 0.97427 0.65904 0.0
H435 H 0.88476 0.11829 0.6431 0.0
H436 H 0.84278 0.08865 0.66146 0.0
H437 H 0.90007 0.13194 0.66908 0.0
H438 H 0.87318 0.92917 0.63432 0.0
H439 H 0.8219 0.93266 0.63503 0.0
H440 H 0.86345 0.96187 0.61644 0.0
H441 H 0.71656 0.96941 0.62712 0.0
H442 H 0.81787 0.04116 0.58318 0.0
H443 H 0.79205 0.00785 0.66885 0.0
H444 H 0.78321 0.95382 0.66016 0.0
H445 H 0.73601 0.96403 0.66001 0.0
H446 H 0.91437 0.09399 0.61553 0.0
H447 H 0.89665 0.077 0.58993 0.0
H448 H 0.90832 0.04193 0.60558 0.0
C449 C 0.87857 0.93095 0.00928 0.0
C450 C 0.92471 0.94314 0.00816 0.0
C451 C 0.84571 0.89867 0.99577 0.0
C452 C 0.85936 0.87798 0.98089 0.0
C453 C 0.90589 0.8903 0.97964 0.0
C454 C 0.938 0.9228 0.99323 0.0
C455 C 0.79641 0.88656 -0.00255 0.0
C456 C 0.92174 0.86882 0.96401 0.0
C457 C 0.77446 0.76343 0.95664 0.0
C458 C 0.76761 0.77618 0.93791 0.0
C459 C 0.80309 0.79633 0.97104 0.0
C460 C 0.82516 0.84311 0.96665 0.0
C461 C 0.81697 0.85632 0.94809 0.0
C462 C 0.78843 0.82269 0.93391 0.0
C463 C 0.81098 0.78094 0.99069 0.0
C464 C 0.83976 0.90591 0.9429 0.0
H465 H 0.86804 0.94659 0.02074 0.0
H466 H 0.97356 0.93194 0.99226 0.0
H467 H 0.78442 0.89314 0.98328 0.0
H468 H 0.77439 0.84966 0.00015 0.0
H469 H 0.79152 0.90629 0.00965 0.0
H470 H 0.95919 0.88227 0.96502 0.0
H471 H 0.90355 0.83132 0.96562 0.0
H472 H 0.91328 0.87515 0.94897 0.0
H473 H 0.75784 0.72759 0.95996 0.0
H474 H 0.78375 0.83285 0.91941 0.0
H475 H 0.80403 0.79847 0.00316 0.0
H476 H 0.84738 0.79033 0.99212 0.0
H477 H 0.78908 0.7435 0.99225 0.0
H478 H 0.83423 0.92582 0.95478 0.0
H479 H 0.82672 0.91066 0.92858 0.0
H480 H 0.87725 0.92032 0.94181 0.0
C481 C 0.92576 0.87322 0.33573 0.0
C482 C 0.97013 0.91125 0.33774 0.0
C483 C 0.9161 0.83696 0.32232 0.0
C484 C 0.95164 0.83886 0.31062 0.0
C485 C 0.99666 0.87675 0.31282 0.0
C486 C 0.00537 0.91248 0.32637 0.0
C487 C 0.86771 0.79704 0.32039 0.0
C488 C 0.03545 0.87998 0.30057 0.0
C489 C 0.93823 0.73119 0.28555 0.0
C490 C 0.92669 0.73514 0.26601 0.0
C491 C 0.9456 0.76425 0.30037 0.0
C492 C 0.9415 0.80217 0.29546 0.0
C493 C 0.92904 0.80589 0.27584 0.0
C494 C 0.92178 0.77232 0.26136 0.0
C495 C 0.95853 0.75904 0.32117 0.0
C496 C 0.92452 0.84594 0.27001 0.0
H497 H 0.89835 0.87191 0.3445 0.0
H498 H 0.03977 0.94168 0.32784 0.0
H499 H 0.85409 0.79495 0.30517 0.0
H500 H 0.86724 0.76468 0.32267 0.0
H501 H 0.84443 0.79976 0.33123 0.0
H502 H 0.06878 0.91097 0.30456 0.0
H503 H 0.03865 0.84951 0.30261 0.0
H504 H 0.02809 0.88065 0.28456 0.0
H505 H 0.94166 0.70229 0.28924 0.0
H506 H 0.9136 0.77595 0.24621 0.0
H507 H 0.93437 0.76006 0.33198 0.0
H508 H 0.99319 0.78792 0.32519 0.0
H509 H 0.9585 0.72664 0.32274 0.0
H510 H 0.89974 0.84897 0.27974 0.0
H511 H 0.91298 0.84288 0.25431 0.0
H512 H 0.958 0.87799 0.27207 0.0
C513 C 0.1474 0.00508 0.66666 0.0
C514 C 0.12805 0.03199 0.66267 0.0
C515 C 0.18199 0.00657 0.65465 0.0
C516 C 0.19717 0.03534 0.63821 0.0
C517 C 0.17736 0.06214 0.63399 0.0
C518 C 0.1432 0.06026 0.64631 0.0
C519 C 0.20255 0.97773 0.65963 0.0
C520 C 0.19236 0.09296 0.61648 0.0
C521 C 0.31378 0.07774 0.61556 0.0
C522 C 0.3023 0.05008 0.5982 0.0
C523 C 0.28013 0.07192 0.62922 0.0
C524 C 0.23391 0.03787 0.62532 0.0
C525 C 0.22239 0.00876 0.60819 0.0
C526 C 0.25677 0.01516 0.59485 0.0
C527 C 0.29379 0.10333 0.64743 0.0
C528 C 0.17345 0.97226 0.60345 0.0
H529 H 0.13593 0.98324 0.67932 0.0
H530 H 0.12829 0.08101 0.64306 0.0
H531 H 0.19818 0.9545 0.64683 0.0
H532 H 0.23989 -8e-05 0.66253 0.0
H533 H 0.18675 0.95696 0.67286 0.0
H534 H 0.17295 0.11101 0.61507 0.0
H535 H 0.22934 0.11878 0.61802 0.0
H536 H 0.18763 0.07276 0.60252 0.0
H537 H 0.34905 0.10439 0.61831 0.0
H538 H 0.24765 0.99401 0.58135 0.0
H539 H 0.28004 0.08325 0.66098 0.0
H540 H 0.27889 0.12564 0.64638 0.0
H541 H 0.33155 0.12527 0.6492 0.0
H542 H 0.15789 0.95063 0.61644 0.0
H543 H 0.17075 0.95004 0.59047 0.0
H544 H 0.153 0.98847 0.60014 0.0
C545 C 0.11068 0.15114 0.98482 0.0
C546 C 0.12532 0.13652 0.001 0.0
C547 C 0.14195 0.18793 0.97372 0.0
C548 C 0.18903 0.21107 0.97905 0.0
C549 C 0.20416 0.19647 0.99534 0.0
C550 C 0.17208 0.15908 0.00607 0.0
C551 C 0.12451 0.20208 0.95627 0.0
C552 C 0.25406 0.22066 0.00153 0.0
C553 C 0.26716 0.27894 0.9376 0.0
C554 C 0.27278 0.32217 0.94156 0.0
C555 C 0.2419 0.2429 0.95028 0.0
C556 C 0.22202 0.25041 0.96737 0.0
C557 C 0.22975 0.29463 0.97204 0.0
C558 C 0.25485 0.32998 0.95899 0.0
C559 C 0.23408 0.19615 0.94469 0.0
C560 C 0.20955 0.30406 0.99027 0.0
H561 H 0.07462 0.1337 0.98075 0.0
H562 H 0.18352 0.14806 0.01865 0.0
H563 H 0.13258 0.23779 0.9587 0.0
H564 H 0.14189 0.20081 0.94252 0.0
H565 H 0.08694 0.17992 0.95387 0.0
H566 H 0.26028 0.20496 0.01449 0.0
H567 H 0.27498 0.22008 0.98899 0.0
H568 H 0.26621 0.25699 0.00542 0.0
H569 H 0.28048 0.27259 0.92401 0.0
H570 H 0.25954 0.36351 0.96216 0.0
H571 H 0.19763 0.17316 0.94028 0.0
H572 H 0.24129 0.18111 0.95758 0.0
H573 H 0.25577 0.19704 0.93214 0.0
H574 H 0.1718 0.28675 0.9884 0.0
H575 H 0.22314 0.34112 0.99302 0.0
H576 H 0.21677 0.29014 0.00358 0.0
C577 C -0.00029 0.11135 0.30882 0.0
C578 C 0.02495 0.12158 0.32664 0.0
C579 C -0.0018 0.14555 0.29839 0.0
C580 C 0.02245 0.19117 0.30598 0.0
C581 C 0.0494 0.20209 0.32356 0.0
C582 C 0.05039 0.16711 0.3337 0.0
C583 C 0.96932 0.13252 0.27958 0.0
C584 C 0.07583 0.25038 0.33203 0.0
C585 C 0.03381 0.27616 0.2681 0.0
C586 C 0.9947 0.27905 0.27196 0.0
C587 C 0.04529 0.25008 0.27995 0.0
C588 C 0.01694 0.22644 0.29597 0.0
C589 C 0.97946 0.23211 0.30082 0.0
C590 C 0.96878 0.25835 0.28874 0.0
C591 C 0.0857 0.24511 0.27438 0.0
C592 C 0.94864 0.20784 0.31791 0.0
H593 H 0.98026 0.07634 0.30317 0.0
H594 H 0.07005 0.17529 0.34745 0.0
H595 H 0.94085 0.1393 0.28175 0.0
H596 H 0.99017 0.15356 0.26719 0.0
H597 H 0.95451 0.09596 0.27514 0.0
H598 H 0.09854 0.25394 0.3447 0.0
H599 H 0.09695 0.27413 0.3204 0.0
H600 H 0.05156 0.26108 0.33726 0.0
H601 H 0.0538 0.29187 0.25507 0.0
H602 H 0.93892 0.26111 0.29192 0.0
H603 H 0.07318 0.21074 0.26743 0.0
H604 H 0.10628 0.24818 0.28777 0.0
H605 H 0.10827 0.27102 0.26369 0.0
H606 H 0.92849 0.17067 0.31428 0.0
H607 H 0.92441 0.22001 0.32114 0.0
H608 H 0.96923 0.21271 0.33154 0.0
loop_
_geom_bond_atom_site_label_1
_geom_bond_atom_site_label_2
_geom_bond_distance
_geom_bond_site_symmetry_2
_ccdc_geom_bond_type
C0 O1 1.160 . S
C0 O7 1.185 . S
O1 C0 1.160 . S
O2 Zn3 1.899 . S
O2 C10 1.284 1_455 S
Zn3 O2 1.899 . S
Zn3 O4 2.032 1_445 S
Zn3 O7 2.086 1_545 S
Zn3 O12 1.977 . S
O4 Zn3 2.032 1_665 S
O4 C8 1.278 . S
C5 O6 1.203 . S
C5 O12 1.267 . S
O6 C5 1.203 . S
O7 C0 1.185 . S
O7 Zn3 2.086 1_565 S
C8 O4 1.278 . S
C8 O9 1.211 1_565 S
O9 C8 1.211 1_545 S
C10 O2 1.284 1_655 S
C10 O11 1.273 . S
O11 C10 1.273 . S
O12 Zn3 1.977 . S
O12 C5 1.267 . S
C13 O14 1.160 . S
C13 O20 1.185 . S
O14 C13 1.160 . S
O15 Zn16 1.899 . S
O15 C23 1.284 1_545 S
Zn16 O15 1.899 . S
Zn16 O17 2.032 1_455 S
Zn16 O20 2.086 . S
Zn16 O25 1.977 . S
O17 Zn16 2.032 1_655 S
O17 C21 1.278 . S
C18 O19 1.203 1_545 S
C18 O25 1.267 . S
O19 C18 1.203 1_565 S
O20 C13 1.185 . S
O20 Zn16 2.086 . S
C21 O17 1.278 . S
C21 O22 1.211 . S
O22 C21 1.211 . S
C23 O15 1.284 1_565 S
C23 O24 1.273 1_455 S
O24 C23 1.273 1_655 S
O25 Zn16 1.977 . S
O25 C18 1.267 . S
C26 O27 1.160 1_565 S
C26 O33 1.185 . S
O27 C26 1.160 1_545 S
O28 Zn29 1.899 1_655 S
O28 C36 1.284 1_565 S
Zn29 O28 1.899 1_455 S
Zn29 O30 2.032 1_565 S
Zn29 O33 2.086 . S
Zn29 O38 1.977 1_455 S
O30 Zn29 2.032 1_545 S
O30 C34 1.278 . S
C31 O32 1.203 . S
C31 O38 1.267 . S
O32 C31 1.203 . S
O33 C26 1.185 . S
O33 Zn29 2.086 . S
C34 O30 1.278 . S
C34 O35 1.211 . S
O35 C34 1.211 . S
C36 O28 1.284 1_545 S
C36 O37 1.273 . S
O37 C36 1.273 . S
O38 Zn29 1.977 1_655 S
O38 C31 1.267 . S
H39 C66 0.929 . S
N40 C65 1.433 . S
N40 C71 1.435 . S
N40 C77 1.423 . S
H41 C67 0.930 . S
H42 C70 0.931 . S
H43 C69 0.929 . S
H44 C72 0.930 . S
H45 C73 0.932 . S
H46 C76 0.929 . S
H47 C75 0.931 . S
H48 C78 0.929 . S
H49 C82 0.932 . S
H50 C79 0.931 . S
H51 C81 0.929 1_455 S
H52 C84 0.929 . S
H53 C85 0.930 . S
H54 C87 0.929 . S
H55 C88 0.931 . S
H56 C90 0.930 . S
H57 C91 0.932 . S
H58 C93 0.931 . S
H59 C94 0.929 . S
H60 C96 0.929 . S
H61 C97 0.931 . S
H62 C99 0.929 1_455 S
N63 C83 1.433 . S
N63 C89 1.435 . S
N63 C95 1.423 . S
H64 C100 0.932 . S
C65 N40 1.433 . S
C65 C66 1.363 . S
C65 C70 1.370 1_655 S
C66 H39 0.929 . S
C66 C65 1.363 . S
C66 C67 1.385 . S
C67 H41 0.930 . S
C67 C66 1.385 . S
C67 C68 1.357 1_655 S
C68 C67 1.357 1_455 S
C68 C69 1.406 . S
C69 H43 0.929 . S
C69 C68 1.406 . S
C69 C70 1.391 . S
C70 H42 0.931 . S
C70 C65 1.370 1_455 S
C70 C69 1.391 . S
C71 N40 1.435 . S
C71 C72 1.358 1_655 S
C71 C76 1.371 . S
C72 H44 0.930 . S
C72 C71 1.358 1_455 S
C72 C73 1.405 . S
C73 H45 0.932 . S
C73 C72 1.405 . S
C73 C74 1.392 . S
C74 C73 1.392 . S
C74 C75 1.389 1_455 S
C75 H47 0.931 . S
C75 C74 1.389 1_655 S
C75 C76 1.382 . S
C76 H46 0.929 . S
C76 C71 1.371 . S
C76 C75 1.382 . S
C77 N40 1.423 . S
C77 C78 1.362 . S
C77 C82 1.388 1_655 S
C78 H48 0.929 . S
C78 C77 1.362 . S
C78 C79 1.376 . S
C79 H50 0.931 . S
C79 C78 1.376 . S
C79 C80 1.396 . S
C80 C79 1.396 . S
C80 C81 1.348 . S
C80 C98 1.472 . S
C81 H51 0.929 1_655 S
C81 C80 1.348 . S
C81 C82 1.443 1_655 S
C82 H49 0.932 . S
C82 C77 1.388 1_455 S
C82 C81 1.443 1_455 S
C83 N63 1.433 . S
C83 C84 1.363 . S
C83 C88 1.370 1_655 S
C84 H52 0.929 . S
C84 C83 1.363 . S
C84 C85 1.385 . S
C85 H53 0.930 . S
C85 C84 1.385 . S
C85 C86 1.357 1_655 S
C86 C85 1.357 1_455 S
C86 C87 1.406 . S
C87 H54 0.929 . S
C87 C86 1.406 . S
C87 C88 1.391 . S
C88 H55 0.931 . S
C88 C83 1.370 1_455 S
C88 C87 1.391 . S
C89 N63 1.435 . S
C89 C90 1.358 1_655 S
C89 C94 1.371 . S
C90 H56 0.930 . S
C90 C89 1.358 1_455 S
C90 C91 1.405 . S
C91 H57 0.932 . S
C91 C90 1.405 . S
C91 C92 1.393 . S
C92 C91 1.393 . S
C92 C93 1.376 1_455 S
C93 H58 0.931 . S
C93 C92 1.376 1_655 S
C93 C94 1.382 . S
C94 H59 0.929 . S
C94 C89 1.371 . S
C94 C93 1.382 . S
C95 N63 1.423 . S
C95 C96 1.362 . S
C95 C100 1.388 1_655 S
C96 H60 0.929 . S
C96 C95 1.362 . S
C96 C97 1.376 . S
C97 H61 0.931 . S
C97 C96 1.376 . S
C97 C98 1.396 . S
C98 C80 1.472 . S
C98 C97 1.396 . S
C98 C99 1.348 . S
C99 H62 0.929 1_655 S
C99 C98 1.348 . S
C99 C100 1.443 1_655 S
C100 H64 0.932 . S
C100 C95 1.388 1_455 S
C100 C99 1.443 1_455 S
H101 C128 0.929 . S
N102 C127 1.433 . S
N102 C133 1.435 . S
N102 C139 1.423 . S
H103 C129 0.930 . S
H104 C132 0.931 . S
H105 C131 0.929 . S
H106 C134 0.930 . S
H107 C135 0.932 . S
H108 C138 0.929 . S
H109 C137 0.931 . S
H110 C140 0.929 . S
H111 C144 0.932 1_565 S
H112 C141 0.931 . S
H113 C143 0.929 . S
H114 C146 0.929 . S
H115 C147 0.930 . S
H116 C149 0.929 . S
H117 C150 0.931 . S
H118 C152 0.930 . S
H119 C153 0.932 . S
H120 C155 0.931 . S
H121 C156 0.929 . S
H122 C158 0.929 . S
H123 C159 0.931 . S
H124 C161 0.929 . S
N125 C145 1.433 . S
N125 C151 1.435 . S
N125 C157 1.423 . S
H126 C162 0.932 1_565 S
C127 N102 1.433 . S
C127 C128 1.363 . S
C127 C132 1.370 1_545 S
C128 H101 0.929 . S
C128 C127 1.363 . S
C128 C129 1.385 . S
C129 H103 0.930 . S
C129 C128 1.385 . S
C129 C130 1.357 . S
C130 C129 1.357 . S
C130 C131 1.406 1_545 S
C131 H105 0.929 . S
C131 C130 1.406 1_565 S
C131 C132 1.391 . S
C132 H104 0.931 . S
C132 C127 1.370 1_565 S
C132 C131 1.391 . S
C133 N102 1.435 . S
C133 C134 1.358 1_545 S
C133 C138 1.371 . S
C134 H106 0.930 . S
C134 C133 1.358 1_565 S
C134 C135 1.405 . S
C135 H107 0.932 . S
C135 C134 1.405 . S
C135 C136 1.383 1_565 S
C136 C135 1.383 1_545 S
C136 C137 1.393 . S
C137 H109 0.931 . S
C137 C136 1.393 . S
C137 C138 1.382 . S
C138 H108 0.929 . S
C138 C133 1.371 . S
C138 C137 1.382 . S
C139 N102 1.423 . S
C139 C140 1.362 . S
C139 C144 1.388 . S
C140 H110 0.929 . S
C140 C139 1.362 . S
C140 C141 1.376 . S
C141 H112 0.931 . S
C141 C140 1.376 . S
C141 C142 1.396 . S
C142 C141 1.396 . S
C142 C143 1.348 . S
C142 C160 1.472 . S
C143 H113 0.929 . S
C143 C142 1.348 . S
C143 C144 1.443 . S
C144 H111 0.932 1_545 S
C144 C139 1.388 . S
C144 C143 1.443 . S
C145 N125 1.433 . S
C145 C146 1.363 . S
C145 C150 1.370 1_545 S
C146 H114 0.929 . S
C146 C145 1.363 . S
C146 C147 1.385 . S
C147 H115 0.930 . S
C147 C146 1.385 . S
C147 C148 1.357 . S
C148 C147 1.357 . S
C148 C149 1.406 1_545 S
C149 H116 0.929 . S
C149 C148 1.406 1_565 S
C149 C150 1.391 . S
C150 H117 0.931 . S
C150 C145 1.370 1_565 S
C150 C149 1.391 . S
C151 N125 1.435 . S
C151 C152 1.358 1_545 S
C151 C156 1.371 . S
C152 H118 0.930 . S
C152 C151 1.358 1_565 S
C152 C153 1.405 . S
C153 H119 0.932 . S
C153 C152 1.405 . S
C153 C154 1.383 1_565 S
C154 C153 1.383 1_545 S
C154 C155 1.393 . S
C155 H120 0.931 . S
C155 C154 1.393 . S
C155 C156 1.382 . S
C156 H121 0.929 . S
C156 C151 1.371 . S
C156 C155 1.382 . S
C157 N125 1.423 . S
C157 C158 1.362 . S
C157 C162 1.388 . S
C158 H122 0.929 . S
C158 C157 1.362 . S
C158 C159 1.376 . S
C159 H123 0.931 . S
C159 C158 1.376 . S
C159 C160 1.396 . S
C160 C142 1.472 . S
C160 C159 1.396 . S
C160 C161 1.348 . S
C161 H124 0.929 . S
C161 C160 1.348 . S
C161 C162 1.443 . S
C162 H126 0.932 1_545 S
C162 C157 1.388 . S
C162 C161 1.443 . S
H163 C190 0.929 . S
N164 C189 1.433 . S
N164 C195 1.435 . S
N164 C201 1.423 . S
H165 C191 0.930 . S
H166 C194 0.931 . S
H167 C193 0.929 . S
H168 C196 0.930 . S
H169 C197 0.932 . S
H170 C200 0.929 . S
H171 C199 0.931 . S
H172 C202 0.929 . S
H173 C206 0.932 . S
H174 C203 0.931 . S
H175 C205 0.929 . S
H176 C208 0.929 . S
H177 C209 0.930 . S
H178 C211 0.929 . S
H179 C212 0.931 . S
H180 C214 0.930 . S
H181 C215 0.932 . S
H182 C217 0.931 . S
H183 C218 0.929 . S
H184 C220 0.929 . S
H185 C221 0.931 . S
H186 C223 0.929 . S
N187 C207 1.433 . S
N187 C213 1.435 . S
N187 C219 1.423 . S
H188 C224 0.932 . S
C189 N164 1.433 . S
C189 C190 1.363 . S
C189 C194 1.370 . S
C190 H163 0.929 . S
C190 C189 1.363 . S
C190 C191 1.385 . S
C191 H165 0.930 . S
C191 C190 1.385 . S
C191 C192 1.357 . S
C192 C191 1.357 . S
C192 C193 1.406 . S
C193 H167 0.929 . S
C193 C192 1.406 . S
C193 C194 1.391 . S
C194 H166 0.931 . S
C194 C189 1.370 . S
C194 C193 1.391 . S
C195 N164 1.435 . S
C195 C196 1.358 . S
C195 C200 1.371 . S
C196 H168 0.930 . S
C196 C195 1.358 . S
C196 C197 1.405 . S
C197 H169 0.932 . S
C197 C196 1.405 . S
C197 C198 1.383 . S
C198 C197 1.383 . S
C198 C199 1.393 . S
C199 H171 0.931 . S
C199 C198 1.393 . S
C199 C200 1.382 . S
C200 H170 0.929 . S
C200 C195 1.371 . S
C200 C199 1.382 . S
C201 N164 1.423 . S
C201 C202 1.362 . S
C201 C206 1.388 . S
C202 H172 0.929 . S
C202 C201 1.362 . S
C202 C203 1.376 . S
C203 H174 0.931 . S
C203 C202 1.376 . S
C203 C204 1.396 . S
C204 C203 1.396 . S
C204 C205 1.348 . S
C204 C222 1.472 . S
C205 H175 0.929 . S
C205 C204 1.348 . S
C205 C206 1.443 . S
C206 H173 0.932 . S
C206 C201 1.388 . S
C206 C205 1.443 . S
C207 N187 1.433 . S
C207 C208 1.363 . S
C207 C212 1.370 . S
C208 H176 0.929 . S
C208 C207 1.363 . S
C208 C209 1.385 . S
C209 H177 0.930 . S
C209 C208 1.385 . S
C209 C210 1.357 . S
C210 C209 1.357 . S
C210 C211 1.406 . S
C211 H178 0.929 . S
C211 C210 1.406 . S
C211 C212 1.391 . S
C212 H179 0.931 . S
C212 C207 1.370 . S
C212 C211 1.391 . S
C213 N187 1.435 . S
C213 C214 1.358 . S
C213 C218 1.371 . S
C214 H180 0.930 . S
C214 C213 1.358 . S
C214 C215 1.405 . S
C215 H181 0.932 . S
C215 C214 1.405 . S
C215 C216 1.383 . S
C216 C215 1.383 . S
C216 C217 1.393 . S
C217 H182 0.931 . S
C217 C216 1.393 . S
C217 C218 1.382 . S
C218 H183 0.929 . S
C218 C213 1.371 . S
C218 C217 1.382 . S
C219 N187 1.423 . S
C219 C220 1.362 . S
C219 C224 1.388 . S
C220 H184 0.929 . S
C220 C219 1.362 . S
C220 C221 1.376 . S
C221 H185 0.931 . S
C221 C220 1.376 . S
C221 C222 1.396 . S
C222 C204 1.472 . S
C222 C221 1.396 . S
C222 C223 1.348 . S
C223 H186 0.929 . S
C223 C222 1.348 . S
C223 C224 1.443 . S
C224 H188 0.932 . S
C224 C219 1.388 . S
C224 C223 1.443 . S
C225 C226 1.391 1_655 S
C225 C227 1.394 . S
C225 H241 0.931 . S
C226 C225 1.391 1_455 S
C226 C230 1.376 . S
C227 C225 1.394 . S
C227 C228 1.369 1_655 S
C227 C231 1.531 . S
C228 C227 1.369 1_455 S
C228 C229 1.410 . S
C228 C236 1.503 . S
C229 C228 1.410 . S
C229 C230 1.392 . S
C229 C232 1.511 . S
C230 C226 1.376 . S
C230 C229 1.392 . S
C230 H242 0.929 . S
C231 C227 1.531 . S
C231 H243 0.960 . S
C231 H244 0.962 . S
C231 H245 0.960 . S
C232 C229 1.511 . S
C232 H246 0.961 . S
C232 H247 0.961 . S
C232 H248 0.961 . S
C233 C234 1.370 1_655 S
C233 C235 1.363 . S
C233 H249 0.931 . S
C234 C233 1.370 1_455 S
C234 C238 1.408 . S
C235 C233 1.363 . S
C235 C236 1.370 1_655 S
C235 C239 1.524 . S
C236 C228 1.503 . S
C236 C235 1.370 1_455 S
C236 C237 1.403 . S
C237 C236 1.403 . S
C237 C238 1.404 . S
C237 C240 1.539 . S
C238 C234 1.408 . S
C238 C237 1.404 . S
C238 H250 0.930 . S
C239 C235 1.524 . S
C239 H251 0.956 . S
C239 H252 0.961 . S
C239 H253 0.961 . S
C240 C237 1.539 . S
C240 H254 0.958 . S
C240 H255 0.961 . S
C240 H256 0.960 . S
H241 C225 0.931 . S
H242 C230 0.929 . S
H243 C231 0.960 . S
H244 C231 0.962 . S
H245 C231 0.960 . S
H246 C232 0.961 . S
H247 C232 0.961 . S
H248 C232 0.961 . S
H249 C233 0.931 . S
H250 C238 0.930 . S
H251 C239 0.956 . S
H252 C239 0.961 . S
H253 C239 0.961 . S
H254 C240 0.958 . S
H255 C240 0.961 . S
H256 C240 0.960 . S
C257 C258 1.391 1_565 S
C257 C259 1.394 . S
C257 H273 0.931 . S
C258 C257 1.391 1_545 S
C258 C262 1.376 . S
C259 C257 1.394 . S
C259 C260 1.369 1_565 S
C259 C263 1.531 . S
C260 C259 1.369 1_545 S
C260 C261 1.410 . S
C260 C268 1.503 . S
C261 C260 1.410 . S
C261 C262 1.392 . S
C261 C264 1.511 . S
C262 C258 1.376 . S
C262 C261 1.392 . S
C262 H274 0.929 . S
C263 C259 1.531 . S
C263 H275 0.960 . S
C263 H276 0.962 . S
C263 H277 0.960 . S
C264 C261 1.511 . S
C264 H278 0.961 . S
C264 H279 0.961 . S
C264 H280 0.961 . S
C265 C266 1.370 . S
C265 C267 1.363 . S
C265 H281 0.931 . S
C266 C265 1.370 . S
C266 C270 1.408 1_545 S
C267 C265 1.363 . S
C267 C268 1.370 . S
C267 C271 1.524 . S
C268 C260 1.503 . S
C268 C267 1.370 . S
C268 C269 1.403 1_545 S
C269 C268 1.403 1_565 S
C269 C270 1.404 . S
C269 C272 1.539 . S
C270 C266 1.408 1_565 S
C270 C269 1.404 . S
C270 H282 0.930 . S
C271 C267 1.524 . S
C271 H283 0.956 . S
C271 H284 0.961 . S
C271 H285 0.961 . S
C272 C269 1.539 . S
C272 H286 0.958 . S
C272 H287 0.961 . S
C272 H288 0.960 . S
H273 C257 0.931 . S
H274 C262 0.929 . S
H275 C263 0.960 . S
H276 C263 0.962 . S
H277 C263 0.960 . S
H278 C264 0.961 . S
H279 C264 0.961 . S
H280 C264 0.961 . S
H281 C265 0.931 . S
H282 C270 0.930 . S
H283 C271 0.956 . S
H284 C271 0.961 . S
H285 C271 0.961 . S
H286 C272 0.958 . S
H287 C272 0.961 . S
H288 C272 0.960 . S
C289 C290 1.391 . S
C289 C291 1.394 . S
C289 H305 0.931 . S
C290 C289 1.391 . S
C290 C294 1.376 . S
C291 C289 1.394 . S
C291 C292 1.369 . S
C291 C295 1.531 . S
C292 C291 1.369 . S
C292 C293 1.410 . S
C292 C300 1.503 . S
C293 C292 1.410 . S
C293 C294 1.392 . S
C293 C296 1.511 . S
C294 C290 1.376 . S
C294 C293 1.392 . S
C294 H306 0.929 . S
C295 C291 1.531 . S
C295 H307 0.960 . S
C295 H308 0.962 . S
C295 H309 0.960 . S
C296 C293 1.511 . S
C296 H310 0.961 . S
C296 H311 0.961 . S
C296 H312 0.961 . S
C297 C298 1.370 . S
C297 C299 1.363 . S
C297 H313 0.931 . S
C298 C297 1.370 . S
C298 C302 1.408 . S
C299 C297 1.363 . S
C299 C300 1.370 . S
C299 C303 1.524 . S
C300 C292 1.503 . S
C300 C299 1.370 . S
C300 C301 1.403 . S
C301 C300 1.403 . S
C301 C302 1.404 . S
C301 C304 1.539 . S
C302 C298 1.408 . S
C302 C301 1.404 . S
C302 H314 0.930 . S
C303 C299 1.524 . S
C303 H315 0.956 . S
C303 H316 0.961 . S
C303 H317 0.961 . S
C304 C301 1.539 . S
C304 H318 0.958 . S
C304 H319 0.961 . S
C304 H320 0.960 . S
H305 C289 0.931 . S
H306 C294 0.929 . S
H307 C295 0.960 . S
H308 C295 0.962 . S
H309 C295 0.960 . S
H310 C296 0.961 . S
H311 C296 0.961 . S
H312 C296 0.961 . S
H313 C297 0.931 . S
H314 C302 0.930 . S
H315 C303 0.956 . S
H316 C303 0.961 . S
H317 C303 0.961 . S
H318 C304 0.958 . S
H319 C304 0.961 . S
H320 C304 0.960 . S
C321 C322 1.391 . S
C321 C323 1.394 . S
C321 H337 0.931 . S
C322 C321 1.391 . S
C322 C326 1.376 . S
C323 C321 1.394 . S
C323 C324 1.369 . S
C323 C327 1.531 . S
C324 C323 1.369 . S
C324 C325 1.410 . S
C324 C332 1.503 . S
C325 C324 1.410 . S
C325 C326 1.392 . S
C325 C328 1.511 1_455 S
C326 C322 1.376 . S
C326 C325 1.392 . S
C326 H338 0.929 . S
C327 C323 1.531 . S
C327 H339 0.960 . S
C327 H340 0.962 . S
C327 H341 0.960 . S
C328 C325 1.511 1_655 S
C328 H342 0.961 . S
C328 H343 0.961 . S
C328 H344 0.961 1_655 S
C329 C330 1.370 1_655 S
C329 C331 1.363 . S
C329 H345 0.931 . S
C330 C329 1.370 1_455 S
C330 C334 1.408 . S
C331 C329 1.363 . S
C331 C332 1.370 1_655 S
C331 C335 1.524 . S
C332 C324 1.503 . S
C332 C331 1.370 1_455 S
C332 C333 1.403 . S
C333 C332 1.403 . S
C333 C334 1.404 . S
C333 C336 1.539 . S
C334 C330 1.408 . S
C334 C333 1.404 . S
C334 H346 0.930 . S
C335 C331 1.524 . S
C335 H347 0.956 . S
C335 H348 0.961 . S
C335 H349 0.961 . S
C336 C333 1.539 . S
C336 H350 0.958 . S
C336 H351 0.961 . S
C336 H352 0.960 . S
H337 C321 0.931 . S
H338 C326 0.929 . S
H339 C327 0.960 . S
H340 C327 0.962 . S
H341 C327 0.960 . S
H342 C328 0.961 . S
H343 C328 0.961 . S
H344 C328 0.961 1_455 S
H345 C329 0.931 . S
H346 C334 0.930 . S
H347 C335 0.956 . S
H348 C335 0.961 . S
H349 C335 0.961 . S
H350 C336 0.958 . S
H351 C336 0.961 . S
H352 C336 0.960 . S
C353 C354 1.391 . S
C353 C355 1.394 . S
C353 H369 0.931 . S
C354 C353 1.391 . S
C354 C358 1.376 . S
C355 C353 1.394 . S
C355 C356 1.369 . S
C355 C359 1.531 . S
C356 C355 1.369 . S
C356 C357 1.410 . S
C356 C364 1.503 . S
C357 C356 1.410 . S
C357 C358 1.392 . S
C357 C360 1.511 . S
C358 C354 1.376 . S
C358 C357 1.392 . S
C358 H370 0.929 . S
C359 C355 1.531 . S
C359 H371 0.960 . S
C359 H372 0.962 . S
C359 H373 0.960 . S
C360 C357 1.511 . S
C360 H374 0.961 . S
C360 H375 0.961 . S
C360 H376 0.961 . S
C361 C362 1.370 1_565 S
C361 C363 1.363 . S
C361 H377 0.931 . S
C362 C361 1.370 1_545 S
C362 C366 1.408 . S
C363 C361 1.363 . S
C363 C364 1.370 1_565 S
C363 C367 1.524 . S
C364 C356 1.503 . S
C364 C363 1.370 1_545 S
C364 C365 1.403 . S
C365 C364 1.403 . S
C365 C366 1.404 . S
C365 C368 1.539 . S
C366 C362 1.408 . S
C366 C365 1.404 . S
C366 H378 0.930 . S
C367 C363 1.524 . S
C367 H379 0.956 . S
C367 H380 0.961 . S
C367 H381 0.961 . S
C368 C365 1.539 . S
C368 H382 0.958 . S
C368 H383 0.961 . S
C368 H384 0.960 . S
H369 C353 0.931 . S
H370 C358 0.929 . S
H371 C359 0.960 . S
H372 C359 0.962 . S
H373 C359 0.960 . S
H374 C360 0.961 . S
H375 C360 0.961 . S
H376 C360 0.961 . S
H377 C361 0.931 . S
H378 C366 0.930 . S
H379 C367 0.956 . S
H380 C367 0.961 . S
H381 C367 0.961 . S
H382 C368 0.958 . S
H383 C368 0.961 . S
H384 C368 0.960 . S
C385 C386 1.391 . S
C385 C387 1.394 . S
C385 H401 0.931 . S
C386 C385 1.391 . S
C386 C390 1.376 . S
C387 C385 1.394 . S
C387 C388 1.369 . S
C387 C391 1.531 . S
C388 C387 1.369 . S
C388 C389 1.410 . S
C388 C396 1.503 . S
C389 C388 1.410 . S
C389 C390 1.392 . S
C389 C392 1.511 . S
C390 C386 1.376 . S
C390 C389 1.392 . S
C390 H402 0.929 . S
C391 C387 1.531 . S
C391 H403 0.960 . S
C391 H404 0.962 . S
C391 H405 0.960 . S
C392 C389 1.511 . S
C392 H406 0.961 . S
C392 H407 0.961 . S
C392 H408 0.961 . S
C393 C394 1.370 . S
C393 C395 1.363 . S
C393 H409 0.931 . S
C394 C393 1.370 . S
C394 C398 1.408 . S
C395 C393 1.363 . S
C395 C396 1.370 . S
C395 C399 1.524 . S
C396 C388 1.503 . S
C396 C395 1.370 . S
C396 C397 1.403 . S
C397 C396 1.403 . S
C397 C398 1.404 . S
C397 C400 1.539 . S
C398 C394 1.408 . S
C398 C397 1.404 . S
C398 H410 0.930 . S
C399 C395 1.524 . S
C399 H411 0.956 . S
C399 H412 0.961 . S
C399 H413 0.961 . S
C400 C397 1.539 . S
C400 H414 0.958 . S
C400 H415 0.961 . S
C400 H416 0.960 . S
H401 C385 0.931 . S
H402 C390 0.929 . S
H403 C391 0.960 . S
H404 C391 0.962 . S
H405 C391 0.960 . S
H406 C392 0.961 . S
H407 C392 0.961 . S
H408 C392 0.961 . S
H409 C393 0.931 . S
H410 C398 0.930 . S
H411 C399 0.956 . S
H412 C399 0.961 . S
H413 C399 0.961 . S
H414 C400 0.958 . S
H415 C400 0.961 . S
H416 C400 0.960 . S
C417 C418 1.391 . S
C417 C419 1.394 . S
C417 H433 0.931 . S
C418 C417 1.391 . S
C418 C422 1.376 1_545 S
C419 C417 1.394 . S
C419 C420 1.369 . S
C419 C423 1.531 . S
C420 C419 1.369 . S
C420 C421 1.410 1_545 S
C420 C428 1.503 . S
C421 C420 1.410 1_565 S
C421 C422 1.392 . S
C421 C424 1.511 . S
C422 C418 1.376 1_565 S
C422 C421 1.392 . S
C422 H434 0.929 . S
C423 C419 1.531 . S
C423 H435 0.960 . S
C423 H436 0.962 . S
C423 H437 0.960 . S
C424 C421 1.511 . S
C424 H438 0.961 . S
C424 H439 0.961 . S
C424 H440 0.961 . S
C425 C426 1.370 1_565 S
C425 C427 1.363 . S
C425 H441 0.931 . S
C426 C425 1.370 1_545 S
C426 C430 1.408 . S
C427 C425 1.363 . S
C427 C428 1.370 1_565 S
C427 C431 1.524 . S
C428 C420 1.503 . S
C428 C427 1.370 1_545 S
C428 C429 1.403 . S
C429 C428 1.403 . S
C429 C430 1.404 . S
C429 C432 1.539 . S
C430 C426 1.408 . S
C430 C429 1.404 . S
C430 H442 0.930 . S
C431 C427 1.524 . S
C431 H443 0.956 . S
C431 H444 0.961 . S
C431 H445 0.961 . S
C432 C429 1.539 . S
C432 H446 0.958 . S
C432 H447 0.961 . S
C432 H448 0.960 . S
H433 C417 0.931 . S
H434 C422 0.929 . S
H435 C423 0.960 . S
H436 C423 0.962 . S
H437 C423 0.960 . S
H438 C424 0.961 . S
H439 C424 0.961 . S
H440 C424 0.961 . S
H441 C425 0.931 . S
H442 C430 0.930 . S
H443 C431 0.956 . S
H444 C431 0.961 . S
H445 C431 0.961 . S
H446 C432 0.958 . S
H447 C432 0.961 . S
H448 C432 0.960 . S
C449 C450 1.400 . S
C449 C451 1.367 1_554 S
C449 H465 0.950 . S
C450 C449 1.400 . S
C450 C454 1.376 1_554 S
C451 C449 1.367 1_556 S
C451 C452 1.369 . S
C451 C455 1.531 . S
C452 C451 1.369 . S
C452 C453 1.410 . S
C452 C460 1.503 . S
C453 C452 1.410 . S
C453 C454 1.392 . S
C453 C456 1.511 . S
C454 C450 1.376 1_556 S
C454 C453 1.392 . S
C454 H466 0.929 . S
C455 C451 1.531 . S
C455 H467 0.960 . S
C455 H468 0.962 . S
C455 H469 0.960 . S
C456 C453 1.511 . S
C456 H470 0.961 . S
C456 H471 0.961 . S
C456 H472 0.961 . S
C457 C458 1.370 . S
C457 C459 1.363 . S
C457 H473 0.931 . S
C458 C457 1.370 . S
C458 C462 1.408 . S
C459 C457 1.363 . S
C459 C460 1.370 . S
C459 C463 1.524 1_556 S
C460 C452 1.503 . S
C460 C459 1.370 . S
C460 C461 1.403 . S
C461 C460 1.403 . S
C461 C462 1.404 . S
C461 C464 1.539 . S
C462 C458 1.408 . S
C462 C461 1.404 . S
C462 H474 0.930 . S
C463 C459 1.524 1_554 S
C463 H475 0.956 . S
C463 H476 0.961 . S
C463 H477 0.961 . S
C464 C461 1.539 . S
C464 H478 0.958 . S
C464 H479 0.961 . S
C464 H480 0.960 . S
H465 C449 0.950 . S
H466 C454 0.929 . S
H467 C455 0.960 . S
H468 C455 0.962 . S
H469 C455 0.960 . S
H470 C456 0.961 . S
H471 C456 0.961 . S
H472 C456 0.961 . S
H473 C457 0.931 . S
H474 C462 0.930 . S
H475 C463 0.956 . S
H476 C463 0.961 . S
H477 C463 0.961 . S
H478 C464 0.958 . S
H479 C464 0.961 . S
H480 C464 0.960 . S
C481 C482 1.391 1_655 S
C481 C483 1.394 . S
C481 H497 0.931 . S
C482 C481 1.391 1_455 S
C482 C486 1.376 . S
C483 C481 1.394 . S
C483 C484 1.369 1_655 S
C483 C487 1.531 . S
C484 C483 1.369 1_455 S
C484 C485 1.410 . S
C484 C492 1.503 . S
C485 C484 1.410 . S
C485 C486 1.392 . S
C485 C488 1.511 . S
C486 C482 1.376 . S
C486 C485 1.392 . S
C486 H498 0.929 . S
C487 C483 1.531 . S
C487 H499 0.960 . S
C487 H500 0.962 . S
C487 H501 0.960 . S
C488 C485 1.511 . S
C488 H502 0.961 . S
C488 H503 0.961 . S
C488 H504 0.961 . S
C489 C490 1.370 . S
C489 C491 1.363 . S
C489 H505 0.931 . S
C490 C489 1.370 . S
C490 C494 1.408 . S
C491 C489 1.363 . S
C491 C492 1.370 . S
C491 C495 1.524 . S
C492 C484 1.503 . S
C492 C491 1.370 . S
C492 C493 1.403 . S
C493 C492 1.403 . S
C493 C494 1.404 . S
C493 C496 1.539 . S
C494 C490 1.408 . S
C494 C493 1.404 . S
C494 H506 0.930 . S
C495 C491 1.524 . S
C495 H507 0.956 1_455 S
C495 H508 0.961 . S
C495 H509 0.961 . S
C496 C493 1.539 . S
C496 H510 0.958 1_455 S
C496 H511 0.961 . S
C496 H512 0.960 . S
H497 C481 0.931 . S
H498 C486 0.929 . S
H499 C487 0.960 . S
H500 C487 0.962 . S
H501 C487 0.960 . S
H502 C488 0.961 . S
H503 C488 0.961 . S
H504 C488 0.961 . S
H505 C489 0.931 . S
H506 C494 0.930 . S
H507 C495 0.956 1_655 S
H508 C495 0.961 . S
H509 C495 0.961 . S
H510 C496 0.958 1_655 S
H511 C496 0.961 . S
H512 C496 0.960 . S
C513 C514 1.391 . S
C513 C515 1.394 . S
C513 H529 0.931 1_565 S
C514 C513 1.391 . S
C514 C518 1.376 . S
C515 C513 1.394 . S
C515 C516 1.369 . S
C515 C519 1.531 1_565 S
C516 C515 1.369 . S
C516 C517 1.410 . S
C516 C524 1.503 . S
C517 C516 1.410 . S
C517 C518 1.392 . S
C517 C520 1.511 . S
C518 C514 1.376 . S
C518 C517 1.392 . S
C518 H530 0.929 . S
C519 C515 1.531 1_545 S
C519 H531 0.960 1_545 S
C519 H532 0.962 . S
C519 H533 0.960 . S
C520 C517 1.511 . S
C520 H534 0.961 . S
C520 H535 0.961 . S
C520 H536 0.961 . S
C521 C522 1.370 . S
C521 C523 1.363 . S
C521 H537 0.931 . S
C522 C521 1.370 . S
C522 C526 1.408 1_545 S
C523 C521 1.363 . S
C523 C524 1.370 1_545 S
C523 C527 1.524 . S
C524 C516 1.503 . S
C524 C523 1.370 1_565 S
C524 C525 1.403 . S
C525 C524 1.403 . S
C525 C526 1.404 . S
C525 C528 1.539 . S
C526 C522 1.408 1_565 S
C526 C525 1.404 . S
C526 H538 0.930 . S
C527 C523 1.524 . S
C527 H539 0.956 . S
C527 H540 0.961 . S
C527 H541 0.961 . S
C528 C525 1.539 . S
C528 H542 0.958 . S
C528 H543 0.961 . S
C528 H544 0.960 . S
H529 C513 0.931 1_545 S
H530 C518 0.929 . S
H531 C519 0.960 1_565 S
H532 C519 0.962 . S
H533 C519 0.960 . S
H534 C520 0.961 . S
H535 C520 0.961 . S
H536 C520 0.961 . S
H537 C521 0.931 . S
H538 C526 0.930 . S
H539 C527 0.956 . S
H540 C527 0.961 . S
H541 C527 0.961 . S
H542 C528 0.958 . S
H543 C528 0.961 . S
H544 C528 0.960 . S
C545 C546 1.391 1_556 S
C545 C547 1.394 . S
C545 H561 0.931 . S
C546 C545 1.391 1_554 S
C546 C550 1.376 . S
C547 C545 1.394 . S
C547 C548 1.369 . S
C547 C551 1.531 . S
C548 C547 1.369 . S
C548 C549 1.410 1_556 S
C548 C556 1.503 . S
C549 C548 1.410 1_554 S
C549 C550 1.392 . S
C549 C552 1.511 . S
C550 C546 1.376 . S
C550 C549 1.392 . S
C550 H562 0.929 . S
C551 C547 1.531 . S
C551 H563 0.960 . S
C551 H564 0.962 . S
C551 H565 0.960 . S
C552 C549 1.511 . S
C552 H566 0.961 . S
C552 H567 0.961 . S
C552 H568 0.961 . S
C553 C554 1.370 . S
C553 C555 1.363 . S
C553 H569 0.931 . S
C554 C553 1.370 . S
C554 C558 1.408 . S
C555 C553 1.363 . S
C555 C556 1.370 . S
C555 C559 1.524 . S
C556 C548 1.503 . S
C556 C555 1.370 . S
C556 C557 1.403 . S
C557 C556 1.403 . S
C557 C558 1.404 . S
C557 C560 1.539 . S
C558 C554 1.408 . S
C558 C557 1.404 . S
C558 H570 0.930 . S
C559 C555 1.524 . S
C559 H571 0.956 . S
C559 H572 0.961 . S
C559 H573 0.961 . S
C560 C557 1.539 . S
C560 H574 0.958 . S
C560 H575 0.961 . S
C560 H576 0.960 . S
H561 C545 0.931 . S
H562 C550 0.929 . S
H563 C551 0.960 . S
H564 C551 0.962 . S
H565 C551 0.960 . S
H566 C552 0.961 . S
H567 C552 0.961 . S
H568 C552 0.961 . S
H569 C553 0.931 . S
H570 C558 0.930 . S
H571 C559 0.956 . S
H572 C559 0.961 . S
H573 C559 0.961 . S
H574 C560 0.958 . S
H575 C560 0.961 . S
H576 C560 0.960 . S
C577 C578 1.391 . S
C577 C579 1.394 . S
C577 H593 0.931 . S
C578 C577 1.391 . S
C578 C582 1.376 . S
C579 C577 1.394 . S
C579 C580 1.369 . S
C579 C583 1.531 . S
C580 C579 1.369 . S
C580 C581 1.410 . S
C580 C588 1.503 . S
C581 C580 1.410 . S
C581 C582 1.392 . S
C581 C584 1.511 1_455 S
C582 C578 1.376 . S
C582 C581 1.392 . S
C582 H594 0.929 . S
C583 C579 1.531 . S
C583 H595 0.960 . S
C583 H596 0.962 . S
C583 H597 0.960 . S
C584 C581 1.511 1_655 S
C584 H598 0.961 . S
C584 H599 0.961 . S
C584 H600 0.961 . S
C585 C586 1.370 . S
C585 C587 1.363 . S
C585 H601 0.931 . S
C586 C585 1.370 . S
C586 C590 1.408 1_455 S
C587 C585 1.363 . S
C587 C588 1.370 . S
C587 C591 1.524 . S
C588 C580 1.503 . S
C588 C587 1.370 . S
C588 C589 1.403 1_455 S
C589 C588 1.403 1_655 S
C589 C590 1.404 . S
C589 C592 1.539 . S
C590 C586 1.408 1_655 S
C590 C589 1.404 . S
C590 H602 0.930 . S
C591 C587 1.524 . S
C591 H603 0.956 . S
C591 H604 0.961 . S
C591 H605 0.961 . S
C592 C589 1.539 . S
C592 H606 0.958 . S
C592 H607 0.961 . S
C592 H608 0.960 . S
H593 C577 0.931 . S
H594 C582 0.929 . S
H595 C583 0.960 . S
H596 C583 0.962 . S
H597 C583 0.960 . S
H598 C584 0.961 . S
H599 C584 0.961 . S
H600 C584 0.961 . S
H601 C585 0.931 . S
H602 C590 0.930 . S
H603 C591 0.956 . S
H604 C591 0.961 . S
H605 C591 0.961 . S
H606 C592 0.958 . S
H607 C592 0.961 . S
H608 C592 0.960 . S
C234 C92 1.272 . S
C226 C10 1.275 1_455 S
C258 C21 1.294 . S
C266 C136 1.327 . S
C290 C31 1.261 . S
C298 C198 1.336 . S
C322 C0 1.257 . S
C330 C74 1.293 . S
C362 C154 1.316 . S
C354 C18 1.312 . S
C386 C34 1.306 . S
C394 C216 1.311 . S
C426 C130 1.459 . S
C418 C36 1.585 . S
C450 C8 1.602 . S
C458 C192 1.522 . S
C490 C68 1.493 . S
C482 C23 1.615 . S
C522 C148 1.490 . S
C514 C26 1.568 . S
C554 C210 1.580 . S
C546 C5 1.544 . S
C578 C13 1.578 . S
C586 C86 1.534 . S
