# Generated by pormake.
# Topology ptr, (4,4)-cn, num edge types: 1
# Building blocks:
#     Node 0, Type 0, BuildingBlock: QUQFOY_clean_sbu_1, # of connection points: 4
#     Node 1, Type 0, BuildingBlock: QUQFOY_clean_sbu_1, # of connection points: 4
#     Node 2, Type 0, BuildingBlock: QUQFOY_clean_sbu_1, # of connection points: 4
#     Node 3, Type 0, BuildingBlock: QUQFOY_clean_sbu_1, # of connection points: 4
#     Node 4, Type 0, BuildingBlock: QUQFOY_clean_sbu_1, # of connection points: 4
#     Node 5, Type 0, BuildingBlock: QUQFOY_clean_sbu_1, # of connection points: 4
#     Node 6, Type 0, BuildingBlock: QUQFOY_clean_sbu_1, # of connection points: 4
#     Node 7, Type 0, BuildingBlock: QUQFOY_clean_sbu_1, # of connection points: 4
#     Node 8, Type 0, BuildingBlock: QUQFOY_clean_sbu_1, # of connection points: 4
#     Node 9, Type 0, BuildingBlock: QUQFOY_clean_sbu_1, # of connection points: 4
#     Node 10, Type 0, BuildingBlock: QUQFOY_clean_sbu_1, # of connection points: 4
#     Node 11, Type 0, BuildingBlock: QUQFOY_clean_sbu_1, # of connection points: 4
#     Node 12, Type 0, BuildingBlock: QUQFOY_clean_sbu_1, # of connection points: 4
#     Node 13, Type 0, BuildingBlock: QUQFOY_clean_sbu_1, # of connection points: 4
#     Node 14, Type 0, BuildingBlock: QUQFOY_clean_sbu_1, # of connection points: 4
#     Node 15, Type 0, BuildingBlock: QUQFOY_clean_sbu_1, # of connection points: 4
#     Node 16, Type 0, BuildingBlock: QUQFOY_clean_sbu_1, # of connection points: 4
#     Node 17, Type 0, BuildingBlock: QUQFOY_clean_sbu_1, # of connection points: 4
#     Node 18, Type 1, BuildingBlock: MIFKUJ_clean_linker_1, # of connection points: 4
#     Node 19, Type 1, BuildingBlock: MIFKUJ_clean_linker_1, # of connection points: 4
#     Node 20, Type 1, BuildingBlock: MIFKUJ_clean_linker_1, # of connection points: 4
#     Node 21, Type 1, BuildingBlock: MIFKUJ_clean_linker_1, # of connection points: 4
#     Node 22, Type 1, BuildingBlock: MIFKUJ_clean_linker_1, # of connection points: 4
#     Node 23, Type 1, BuildingBlock: MIFKUJ_clean_linker_1, # of connection points: 4
#     Node 24, Type 1, BuildingBlock: MIFKUJ_clean_linker_1, # of connection points: 4
#     Node 25, Type 1, BuildingBlock: MIFKUJ_clean_linker_1, # of connection points: 4
#     Node 26, Type 1, BuildingBlock: MIFKUJ_clean_linker_1, # of connection points: 4
#     Node 27, Type 1, BuildingBlock: MIFKUJ_clean_linker_1, # of connection points: 4
#     Node 28, Type 1, BuildingBlock: MIFKUJ_clean_linker_1, # of connection points: 4
#     Node 29, Type 1, BuildingBlock: MIFKUJ_clean_linker_1, # of connection points: 4
#     Node 30, Type 1, BuildingBlock: MIFKUJ_clean_linker_1, # of connection points: 4
#     Node 31, Type 1, BuildingBlock: MIFKUJ_clean_linker_1, # of connection points: 4
#     Node 32, Type 1, BuildingBlock: MIFKUJ_clean_linker_1, # of connection points: 4
#     Node 33, Type 1, BuildingBlock: MIFKUJ_clean_linker_1, # of connection points: 4
#     Node 34, Type 1, BuildingBlock: MIFKUJ_clean_linker_1, # of connection points: 4
#     Node 35, Type 1, BuildingBlock: MIFKUJ_clean_linker_1, # of connection points: 4
#     Edge 36, Type (0, 1), BuildingBlock: EZIPEK_clean_linker_0, # of connection points: 2
#     Edge 37, Type (0, 1), BuildingBlock: EZIPEK_clean_linker_0, # of connection points: 2
#     Edge 38, Type (0, 1), BuildingBlock: EZIPEK_clean_linker_0, # of connection points: 2
#     Edge 39, Type (0, 1), BuildingBlock: EZIPEK_clean_linker_0, # of connection points: 2
#     Edge 40, Type (0, 1), BuildingBlock: EZIPEK_clean_linker_0, # of connection points: 2
#     Edge 41, Type (0, 1), BuildingBlock: EZIPEK_clean_linker_0, # of connection points: 2
#     Edge 42, Type (0, 1), BuildingBlock: EZIPEK_clean_linker_0, # of connection points: 2
#     Edge 43, Type (0, 1), BuildingBlock: EZIPEK_clean_linker_0, # of connection points: 2
#     Edge 44, Type (0, 1), BuildingBlock: EZIPEK_clean_linker_0, # of connection points: 2
#     Edge 45, Type (0, 1), BuildingBlock: EZIPEK_clean_linker_0, # of connection points: 2
#     Edge 46, Type (0, 1), BuildingBlock: EZIPEK_clean_linker_0, # of connection points: 2
#     Edge 47, Type (0, 1), BuildingBlock: EZIPEK_clean_linker_0, # of connection points: 2
#     Edge 48, Type (0, 1), BuildingBlock: EZIPEK_clean_linker_0, # of connection points: 2
#     Edge 49, Type (0, 1), BuildingBlock: EZIPEK_clean_linker_0, # of connection points: 2
#     Edge 50, Type (0, 1), BuildingBlock: EZIPEK_clean_linker_0, # of connection points: 2
#     Edge 51, Type (0, 1), BuildingBlock: EZIPEK_clean_linker_0, # of connection points: 2
#     Edge 52, Type (0, 1), BuildingBlock: EZIPEK_clean_linker_0, # of connection points: 2
#     Edge 53, Type (0, 1), BuildingBlock: EZIPEK_clean_linker_0, # of connection points: 2
#     Edge 54, Type (0, 1), BuildingBlock: EZIPEK_clean_linker_0, # of connection points: 2
#     Edge 55, Type (0, 1), BuildingBlock: EZIPEK_clean_linker_0, # of connection points: 2
#     Edge 56, Type (0, 1), BuildingBlock: EZIPEK_clean_linker_0, # of connection points: 2
#     Edge 57, Type (0, 1), BuildingBlock: EZIPEK_clean_linker_0, # of connection points: 2
#     Edge 58, Type (0, 1), BuildingBlock: EZIPEK_clean_linker_0, # of connection points: 2
#     Edge 59, Type (0, 1), BuildingBlock: EZIPEK_clean_linker_0, # of connection points: 2
#     Edge 60, Type (0, 1), BuildingBlock: EZIPEK_clean_linker_0, # of connection points: 2
#     Edge 61, Type (0, 1), BuildingBlock: EZIPEK_clean_linker_0, # of connection points: 2
#     Edge 62, Type (0, 1), BuildingBlock: EZIPEK_clean_linker_0, # of connection points: 2
#     Edge 63, Type (0, 1), BuildingBlock: EZIPEK_clean_linker_0, # of connection points: 2
#     Edge 64, Type (0, 1), BuildingBlock: EZIPEK_clean_linker_0, # of connection points: 2
#     Edge 65, Type (0, 1), BuildingBlock: EZIPEK_clean_linker_0, # of connection points: 2
#     Edge 66, Type (0, 1), BuildingBlock: EZIPEK_clean_linker_0, # of connection points: 2
#     Edge 67, Type (0, 1), BuildingBlock: EZIPEK_clean_linker_0, # of connection points: 2
#     Edge 68, Type (0, 1), BuildingBlock: EZIPEK_clean_linker_0, # of connection points: 2
#     Edge 69, Type (0, 1), BuildingBlock: EZIPEK_clean_linker_0, # of connection points: 2
#     Edge 70, Type (0, 1), BuildingBlock: EZIPEK_clean_linker_0, # of connection points: 2
#     Edge 71, Type (0, 1), BuildingBlock: EZIPEK_clean_linker_0, # of connection points: 2
#     Edge 72, Type (0, 1), BuildingBlock: EZIPEK_clean_linker_0, # of connection points: 2
#     Edge 73, Type (0, 1), BuildingBlock: EZIPEK_clean_linker_0, # of connection points: 2
#     Edge 74, Type (0, 1), BuildingBlock: EZIPEK_clean_linker_0, # of connection points: 2
#     Edge 75, Type (0, 1), BuildingBlock: EZIPEK_clean_linker_0, # of connection points: 2
#     Edge 76, Type (0, 1), BuildingBlock: EZIPEK_clean_linker_0, # of connection points: 2
#     Edge 77, Type (0, 1), BuildingBlock: EZIPEK_clean_linker_0, # of connection points: 2
#     Edge 78, Type (0, 1), BuildingBlock: EZIPEK_clean_linker_0, # of connection points: 2
#     Edge 79, Type (0, 1), BuildingBlock: EZIPEK_clean_linker_0, # of connection points: 2
#     Edge 80, Type (0, 1), BuildingBlock: EZIPEK_clean_linker_0, # of connection points: 2
#     Edge 81, Type (0, 1), BuildingBlock: EZIPEK_clean_linker_0, # of connection points: 2
#     Edge 82, Type (0, 1), BuildingBlock: EZIPEK_clean_linker_0, # of connection points: 2
#     Edge 83, Type (0, 1), BuildingBlock: EZIPEK_clean_linker_0, # of connection points: 2
#     Edge 84, Type (0, 1), BuildingBlock: EZIPEK_clean_linker_0, # of connection points: 2
#     Edge 85, Type (0, 1), BuildingBlock: EZIPEK_clean_linker_0, # of connection points: 2
#     Edge 86, Type (0, 1), BuildingBlock: EZIPEK_clean_linker_0, # of connection points: 2
#     Edge 87, Type (0, 1), BuildingBlock: EZIPEK_clean_linker_0, # of connection points: 2
#     Edge 88, Type (0, 1), BuildingBlock: EZIPEK_clean_linker_0, # of connection points: 2
#     Edge 89, Type (0, 1), BuildingBlock: EZIPEK_clean_linker_0, # of connection points: 2
#     Edge 90, Type (0, 1), BuildingBlock: EZIPEK_clean_linker_0, # of connection points: 2
#     Edge 91, Type (0, 1), BuildingBlock: EZIPEK_clean_linker_0, # of connection points: 2
#     Edge 92, Type (0, 1), BuildingBlock: EZIPEK_clean_linker_0, # of connection points: 2
#     Edge 93, Type (0, 1), BuildingBlock: EZIPEK_clean_linker_0, # of connection points: 2
#     Edge 94, Type (0, 1), BuildingBlock: EZIPEK_clean_linker_0, # of connection points: 2
#     Edge 95, Type (0, 1), BuildingBlock: EZIPEK_clean_linker_0, # of connection points: 2
#     Edge 96, Type (0, 1), BuildingBlock: EZIPEK_clean_linker_0, # of connection points: 2
#     Edge 97, Type (0, 1), BuildingBlock: EZIPEK_clean_linker_0, # of connection points: 2
#     Edge 98, Type (0, 1), BuildingBlock: EZIPEK_clean_linker_0, # of connection points: 2
#     Edge 99, Type (0, 1), BuildingBlock: EZIPEK_clean_linker_0, # of connection points: 2
#     Edge 100, Type (0, 1), BuildingBlock: EZIPEK_clean_linker_0, # of connection points: 2
#     Edge 101, Type (0, 1), BuildingBlock: EZIPEK_clean_linker_0, # of connection points: 2
#     Edge 102, Type (0, 1), BuildingBlock: EZIPEK_clean_linker_0, # of connection points: 2
#     Edge 103, Type (0, 1), BuildingBlock: EZIPEK_clean_linker_0, # of connection points: 2
#     Edge 104, Type (0, 1), BuildingBlock: EZIPEK_clean_linker_0, # of connection points: 2
#     Edge 105, Type (0, 1), BuildingBlock: EZIPEK_clean_linker_0, # of connection points: 2
#     Edge 106, Type (0, 1), BuildingBlock: EZIPEK_clean_linker_0, # of connection points: 2
#     Edge 107, Type (0, 1), BuildingBlock: EZIPEK_clean_linker_0, # of connection points: 2
# Relax obj value: 0.011
# Max RMSD: 0.046
# Mean RMSD: 0.040
data_MOF--net-ptr--node1-QUQFOY_clean_sbu_1--node2-MIFKUJ_clean_linker_1--edge1-EZIPEK_clean_linker_0
_symmetry_space_group_name_H-M    P1
_symmetry_Int_Tables_number       1
_symmetry_cell_setting            triclinic
loop_
_symmetry_equiv_pos_as_xyz
'x, y, z'
_cell_length_a     71.695274
_cell_length_b     71.714931
_cell_length_c     49.228356
_cell_angle_alpha  90.179206
_cell_angle_beta   89.8733
_cell_angle_gamma 119.93232
loop_
_atom_site_label
_atom_site_type_symbol
_atom_site_fract_x
_atom_site_fract_y
_atom_site_fract_z
_atom_type_partial_charge
O0 O 0.01755 0.39158 0.05482 0.0
Cd1 Cd 0.0276 0.37938 0.02343 0.0
Cd2 Cd 0.98442 0.35825 0.01337 0.0
O3 O 0.9824 0.36974 0.05157 0.0
O4 O 0.05692 0.38546 0.03466 0.0
O5 O 0.0291 0.35247 0.03063 0.0
C6 C 0.04899 0.365 0.03732 0.0
C7 C 0.96236 0.32274 0.99894 0.0
C8 C 0.9986 0.38476 0.06382 0.0
C9 C 0.0139 0.39182 0.97285 0.0
O10 O 0.99492 0.38028 0.98198 0.0
O11 O 0.0299 0.39261 0.98511 0.0
O12 O 0.955 0.3358 1.00135 0.0
O13 O 0.982 0.32937 0.00619 0.0
O14 O 0.62152 0.62708 0.05392 0.0
Cd15 Cd 0.63149 0.64847 0.02187 0.0
Cd16 Cd 0.65267 0.62627 0.00934 0.0
O17 O 0.64188 0.61235 0.04732 0.0
O18 O 0.62344 0.67004 0.03446 0.0
O19 O 0.65719 0.67814 0.02752 0.0
C20 C 0.64368 0.68394 0.03558 0.0
C21 C 0.68816 0.64037 0.99435 0.0
C22 C 0.628 0.61431 0.06132 0.0
C23 C 0.6174 0.62153 0.97137 0.0
O24 O 0.62997 0.61479 0.97875 0.0
O25 O 0.61643 0.6363 0.98465 0.0
O26 O 0.67545 0.61991 0.99666 0.0
O27 O 0.68115 0.65304 1.00199 0.0
O28 O 0.38676 0.01013 0.97791 0.0
Cd29 Cd 0.37733 0.02282 0.00921 0.0
Cd30 Cd 0.35592 0.98027 0.02403 0.0
O31 O 0.36512 0.97551 0.98583 0.0
O32 O 0.38464 0.0518 0.99522 0.0
O33 O 0.35121 0.02614 1.00378 0.0
C34 C 0.36432 0.04522 0.9948 0.0
C35 C 0.32086 0.95908 0.0401 0.0
C36 C 0.37934 0.99055 0.9713 0.0
C37 C 0.39213 0.0118 0.06013 0.0
O38 O 0.37936 0.99229 0.05378 0.0
O39 O 0.39294 0.02708 0.04614 0.0
O40 O 0.33379 0.95155 0.0381 0.0
O41 O 0.32748 0.97852 0.032 0.0
O42 O 0.99295 0.61568 0.9798 0.0
Cd43 Cd 0.98208 0.62759 0.0105 0.0
Cd44 Cd 0.02494 0.649 0.02228 0.0
O45 O 0.02792 0.63804 0.98429 0.0
O46 O 0.9529 0.62131 0.9983 0.0
O47 O 0.98048 0.65439 1.00291 0.0
C48 C 0.96073 0.64176 0.9957 0.0
C49 C 0.04623 0.68444 0.03712 0.0
C50 C 0.01215 0.62294 0.97156 0.0
C51 C 0.99497 0.61491 0.06152 0.0
O52 O 0.01414 0.62663 0.05315 0.0
O53 O 0.97919 0.61414 0.04873 0.0
O54 O 0.05404 0.67175 0.03479 0.0
O55 O 0.02657 0.67746 0.02966 0.0
O56 O 0.39147 0.38112 0.98418 0.0
Cd57 Cd 0.38171 0.35922 0.01556 0.0
Cd58 Cd 0.36018 0.38097 0.02994 0.0
O59 O 0.37035 0.39488 0.99187 0.0
O60 O 0.38883 0.33719 1.00196 0.0
O61 O 0.35548 0.32991 0.01008 0.0
C62 C 0.36846 0.32368 1.00115 0.0
C63 C 0.32482 0.36782 0.04503 0.0
C64 C 0.38433 0.39346 0.9774 0.0
C65 C 0.39601 0.38529 0.0667 0.0
O66 O 0.38323 0.392 0.06022 0.0
O67 O 0.39705 0.37089 0.05266 0.0
O68 O 0.33808 0.38818 0.04306 0.0
O69 O 0.33128 0.35472 0.03736 0.0
O70 O 0.62399 0.9994 0.05715 0.0
Cd71 Cd 0.63155 0.98536 0.02604 0.0
Cd72 Cd 0.65956 0.02732 0.01193 0.0
O73 O 0.64708 0.03339 0.04729 0.0
O74 O 0.62283 0.95583 0.03926 0.0
O75 O 0.6567 0.98049 0.03046 0.0
C76 C 0.64298 0.96155 0.0393 0.0
C77 C 0.6965 0.04653 1.00233 0.0
C78 C 0.6322 0.01931 0.06224 0.0
C79 C 0.62302 0.9995 0.97289 0.0
O80 O 0.64014 0.01717 0.97777 0.0
O81 O 0.61655 0.98394 0.98955 0.0
O82 O 0.68474 0.05538 1.00014 0.0
O83 O 0.68752 0.02699 0.01116 0.0
O84 O 0.69122 0.73134 0.37743 0.0
Cd85 Cd 0.69859 0.71513 0.34846 0.0
Cd86 Cd 0.65721 0.69181 0.34742 0.0
O87 O 0.66067 0.70248 0.38761 0.0
O88 O 0.72887 0.72182 0.35464 0.0
O89 O 0.70056 0.69003 0.36319 0.0
C90 C 0.72116 0.7027 0.36446 0.0
C91 C 0.63613 0.65613 0.33352 0.0
C92 C 0.67535 0.72153 0.39351 0.0
C93 C 0.67879 0.72274 0.30196 0.0
O94 O 0.66214 0.71377 0.31695 0.0
O95 O 0.69561 0.72217 0.30859 0.0
O96 O 0.62744 0.6673 0.34105 0.0
O97 O 0.65678 0.66471 0.33551 0.0
O98 O 0.28676 0.95958 0.38629 0.0
Cd99 Cd 0.29679 0.98157 0.35503 0.0
Cd100 Cd 0.31915 0.96089 0.34174 0.0
O101 O 0.30887 0.94683 0.37992 0.0
O102 O 0.28957 1.0035 0.36854 0.0
O103 O 0.32302 0.0108 0.36098 0.0
C104 C 0.30993 0.01699 0.36959 0.0
C105 C 0.35456 0.97491 0.32659 0.0
C106 C 0.29432 0.94773 0.39378 0.0
C107 C 0.28329 0.95567 0.30403 0.0
O108 O 0.29647 0.94955 0.31093 0.0
O109 O 0.28168 0.96984 0.31786 0.0
O110 O 0.34175 0.95445 0.32852 0.0
O111 O 0.34769 0.98762 0.33447 0.0
O112 O 0.0549 0.34507 0.31227 0.0
Cd113 Cd 0.04576 0.35826 0.34335 0.0
Cd114 Cd 0.02431 0.31543 0.35902 0.0
O115 O 0.03373 0.31049 0.32105 0.0
O116 O 0.05327 0.38717 0.3289 0.0
O117 O 0.01978 0.36176 0.33783 0.0
C118 C 0.03298 0.38074 0.32864 0.0
C119 C 0.98936 0.29347 0.37506 0.0
C120 C 0.04765 0.32543 0.3061 0.0
C121 C 0.06036 0.34786 0.39496 0.0
O122 O 0.04754 0.32827 0.38901 0.0
O123 O 0.0612 0.36293 0.38047 0.0
O124 O 1.00292 0.28668 0.37386 0.0
O125 O 0.99527 0.31257 0.36619 0.0
O126 O 0.66086 0.95013 0.31216 0.0
Cd127 Cd 0.65032 0.96275 0.34231 0.0
Cd128 Cd 0.69313 0.98413 0.35324 0.0
O129 O 0.69581 0.97293 0.31526 0.0
O130 O 0.62125 0.95624 0.3295 0.0
O131 O 0.64873 0.98944 0.33392 0.0
C132 C 0.62905 0.97666 0.32663 0.0
C133 C 0.7144 0.01971 0.36764 0.0
C134 C 0.67989 0.95744 0.30326 0.0
C135 C 0.66334 0.95058 0.39336 0.0
O136 O 0.68243 0.96202 0.38452 0.0
O137 O 0.64754 0.95014 0.381 0.0
O138 O 0.72228 0.00709 0.36533 0.0
O139 O 0.69469 0.0126 0.36025 0.0
O140 O 0.05755 0.71495 0.31611 0.0
Cd141 Cd 0.04746 0.69262 0.34703 0.0
Cd142 Cd 0.02642 0.71474 0.36193 0.0
O143 O 0.03645 0.72872 0.32389 0.0
O144 O 0.05457 0.67075 0.3328 0.0
O145 O 0.02118 0.66347 0.34078 0.0
C146 C 0.0342 0.6573 0.33184 0.0
C147 C 0.99132 0.702 0.37773 0.0
C148 C 0.05048 0.72738 0.30945 0.0
C149 C 0.06212 0.71835 0.3983 0.0
O150 O 0.04971 0.7255 0.39183 0.0
O151 O 0.06275 0.70373 0.38427 0.0
O152 O 1.00473 0.72232 0.37566 0.0
O153 O 0.99745 0.68872 0.36969 0.0
O154 O 0.28977 0.33084 0.39234 0.0
Cd155 Cd 0.29675 0.31642 0.3611 0.0
Cd156 Cd 0.32447 0.35886 0.3462 0.0
O157 O 0.31272 0.36484 0.38225 0.0
O158 O 0.28803 0.28705 0.37487 0.0
O159 O 0.32183 0.31135 0.36508 0.0
C160 C 0.30813 0.2926 0.37449 0.0
C161 C 0.3603 0.38095 0.33271 0.0
C162 C 0.29815 0.35075 0.39753 0.0
C163 C 0.28684 0.33 0.30862 0.0
O164 O 0.30381 0.34783 0.31331 0.0
O165 O 0.28091 0.31439 0.32508 0.0
O166 O 0.34677 0.38777 0.33256 0.0
O167 O 0.35395 0.36185 0.34187 0.0
O168 O 0.35367 0.05996 0.71491 0.0
Cd169 Cd 0.36062 0.043 0.68616 0.0
Cd170 Cd 0.31999 0.02283 0.68501 0.0
O171 O 0.32287 0.03178 0.7256 0.0
O172 O 0.39045 0.04912 0.69431 0.0
O173 O 0.36144 0.01698 0.69954 0.0
C174 C 0.38199 0.02941 0.70227 0.0
C175 C 0.29943 0.98782 0.6688 0.0
C176 C 0.3379 0.05066 0.73126 0.0
C177 C 0.34256 0.05252 0.63974 0.0
O178 O 0.32696 0.04657 0.65625 0.0
O179 O 0.35743 0.04844 0.64546 0.0
O180 O 0.29046 0.99872 0.67647 0.0
O181 O 0.32 0.9963 0.67179 0.0
O182 O 0.95375 0.29336 0.72086 0.0
Cd183 Cd 0.96489 0.31555 0.68977 0.0
Cd184 Cd 0.98557 0.29326 0.67682 0.0
O185 O 0.97511 0.27966 0.71503 0.0
O186 O 0.95822 0.33796 0.70291 0.0
O187 O 0.99149 0.3444 0.69613 0.0
C188 C 0.97866 0.35105 0.70425 0.0
C189 C 0.02082 0.30668 0.66128 0.0
C190 C 0.9607 0.28106 0.72854 0.0
C191 C 0.95064 0.28946 0.63907 0.0
O192 O 0.96258 0.28201 0.64655 0.0
O193 O 0.95022 0.30453 0.65229 0.0
O194 O 0.00785 0.28629 0.66377 0.0
O195 O 0.01421 0.31966 0.66899 0.0
O196 O 0.71714 0.67281 0.64138 0.0
Cd197 Cd 0.7104 0.68789 0.67265 0.0
Cd198 Cd 0.68828 0.64557 0.69026 0.0
O199 O 0.69696 0.63869 0.65295 0.0
O200 O 0.71865 0.71613 0.6553 0.0
O201 O 0.68615 0.69469 0.67116 0.0
C202 C 0.69924 0.71232 0.65881 0.0
C203 C 0.65333 0.6249 0.70684 0.0
C204 C 0.71012 0.65298 0.63669 0.0
C205 C 0.72606 0.67838 0.72407 0.0
O206 O 0.71188 0.65887 0.71976 0.0
O207 O 0.72785 0.69325 0.70833 0.0
O208 O 0.66651 0.61762 0.70651 0.0
O209 O 0.65966 0.64379 0.6969 0.0
O210 O 0.3244 0.28127 0.64976 0.0
Cd211 Cd 0.31495 0.2948 0.67999 0.0
Cd212 Cd 0.35761 0.31577 0.68945 0.0
O213 O 0.35938 0.30422 0.65129 0.0
O214 O 0.28595 0.28914 0.66813 0.0
O215 O 0.31442 0.32191 0.67082 0.0
C216 C 0.29446 0.30956 0.66433 0.0
C217 C 0.37878 0.35149 0.70337 0.0
C218 C 0.34317 0.28849 0.64003 0.0
C219 C 0.32862 0.28288 0.73059 0.0
O220 O 0.34751 0.29388 0.72096 0.0
O221 O 0.31271 0.28274 0.71891 0.0
O222 O 0.38687 0.33906 0.70071 0.0
O223 O 0.35891 0.3441 0.69655 0.0
O224 O 0.72367 0.04734 0.64821 0.0
Cd225 Cd 0.713 0.02529 0.67956 0.0
Cd226 Cd 0.69217 0.04743 0.69275 0.0
O227 O 0.70231 0.06097 0.65458 0.0
O228 O 0.71938 1.00264 0.66641 0.0
O229 O 0.68627 0.99643 0.67376 0.0
C230 C 0.69891 0.98963 0.66526 0.0
C231 C 0.65691 0.03412 0.70801 0.0
C232 C 0.71658 0.05959 0.64076 0.0
C233 C 0.72732 0.0515 0.73034 0.0
O234 O 0.71524 0.05882 0.72292 0.0
O235 O 0.72783 0.03651 0.71705 0.0
O236 O 0.66997 0.05451 0.70567 0.0
O237 O 0.66349 0.02109 0.70048 0.0
O238 O 0.95703 0.66353 0.72524 0.0
Cd239 Cd 0.96366 0.64902 0.69382 0.0
Cd240 Cd 0.99161 0.69135 0.67904 0.0
O241 O 0.98104 0.69737 0.71601 0.0
O242 O 0.95534 0.61979 0.70764 0.0
O243 O 0.98898 0.64437 0.6975 0.0
C244 C 0.97551 0.6256 0.70709 0.0
C245 C 0.02724 0.71309 0.66474 0.0
C246 C 0.96603 0.68341 0.73094 0.0
C247 C 0.95358 0.66266 0.64169 0.0
O248 O 0.97043 0.68054 0.6466 0.0
O249 O 0.94778 0.64693 0.65791 0.0
O250 O 0.01391 0.72017 0.66528 0.0
O251 O 0.0208 0.6939 0.67363 0.0
H252 H 0.15106 0.35062 0.20902 0.0
H253 H 0.12242 0.34702 0.23939 0.0
H254 H 0.07524 0.29558 0.18961 0.0
H255 H 0.10413 0.29902 0.15901 0.0
H256 H 0.16073 0.31954 0.20135 0.0
H257 H 0.1382 0.36012 0.14717 0.0
H258 H 0.11261 0.36625 0.12118 0.0
H259 H 0.10311 0.31587 0.0653 0.0
H260 H 0.12855 0.30942 0.09156 0.0
H261 H 0.18922 0.3107 0.09473 0.0
H262 H 0.22238 0.31837 0.0706 0.0
H263 H 0.25969 0.37009 0.12658 0.0
H264 H 0.22658 0.36272 0.15051 0.0
H265 H 0.17118 0.33582 0.10304 0.0
H266 H 0.2079 0.3078 0.15941 0.0
H267 H 0.23511 0.30854 0.19034 0.0
H268 H 0.21939 0.34321 0.24933 0.0
H269 H 0.19495 0.34534 0.21741 0.0
C270 C 0.12977 0.32504 0.18177 0.0
C271 C 0.13455 0.33869 0.20439 0.0
C272 C 0.11825 0.33668 0.22169 0.0
C273 C 0.0968 0.32102 0.21675 0.0
C274 C 0.09174 0.30779 0.19365 0.0
C275 C 0.10817 0.3098 0.17622 0.0
C276 C 0.14782 0.32596 0.16573 0.0
C277 C 0.1634 0.32355 0.17993 0.0
C278 C 0.15047 0.3302 0.13753 0.0
C279 C 0.13507 0.33406 0.1216 0.0
C280 C 0.13048 0.3502 0.12952 0.0
C281 C 0.11598 0.3538 0.11463 0.0
C282 C 0.10598 0.34149 0.09138 0.0
C283 C 0.11069 0.32551 0.0832 0.0
C284 C 0.12519 0.32188 0.09814 0.0
C285 C 0.2054 0.33593 0.12468 0.0
C286 C 0.20451 0.32373 0.10179 0.0
C287 C 0.22338 0.32805 0.08806 0.0
C288 C 0.24343 0.34472 0.09692 0.0
C289 C 0.24435 0.3571 0.11956 0.0
C290 C 0.22549 0.35284 0.13322 0.0
C291 C 0.1853 0.33116 0.13928 0.0
C292 C 0.16891 0.33215 0.12456 0.0
C293 C 0.18253 0.32684 0.16761 0.0
C294 C 0.19928 0.32672 0.18568 0.0
C295 C 0.21076 0.31618 0.17862 0.0
C296 C 0.22604 0.31622 0.19652 0.0
C297 C 0.22922 0.32571 0.22242 0.0
C298 C 0.2174 0.33578 0.22955 0.0
C299 C 0.20314 0.33676 0.21128 0.0
H300 H 0.71559 0.88647 0.19032 0.0
H301 H 0.71713 0.91299 0.22324 0.0
H302 H 0.65276 0.89725 0.20108 0.0
H303 H 0.65105 0.87053 0.16828 0.0
H304 H 0.68775 0.84423 0.19458 0.0
H305 H 0.70299 0.89907 0.12777 0.0
H306 H 0.69661 0.92563 0.10445 0.0
H307 H 0.63438 0.87498 0.07837 0.0
H308 H 0.64045 0.8484 0.10211 0.0
H309 H 0.64082 0.79426 0.09978 0.0
H310 H 0.63516 0.76201 0.07514 0.0
H311 H 0.69648 0.77243 0.10344 0.0
H312 H 0.7025 0.80499 0.1276 0.0
H313 H 0.66823 0.83509 0.09701 0.0
H314 H 0.64924 0.78163 0.16589 0.0
H315 H 0.64911 0.75542 0.19805 0.0
H316 H 0.71339 0.80191 0.22337 0.0
H317 H 0.71371 0.82807 0.19108 0.0
C318 C 0.68324 0.87653 0.17671 0.0
C319 C 0.70193 0.88897 0.19215 0.0
C320 C 0.70286 0.90413 0.21085 0.0
C321 C 0.68507 0.90704 0.21453 0.0
C322 C 0.66669 0.8953 0.19836 0.0
C323 C 0.66576 0.88012 0.17962 0.0
C324 C 0.68125 0.85831 0.15995 0.0
C325 C 0.68397 0.84247 0.17306 0.0
C326 C 0.67531 0.85557 0.13216 0.0
C327 C 0.67208 0.87171 0.11704 0.0
C328 C 0.68793 0.89363 0.11715 0.0
C329 C 0.68438 0.90877 0.10371 0.0
C330 C 0.66504 0.9022 0.08972 0.0
C331 C 0.64942 0.8803 0.08901 0.0
C332 C 0.65292 0.86518 0.10252 0.0
C333 C 0.67198 0.80198 0.11589 0.0
C334 C 0.6532 0.78981 0.10047 0.0
C335 C 0.64994 0.77142 0.08642 0.0
C336 C 0.66541 0.76491 0.08751 0.0
C337 C 0.68438 0.77724 0.10238 0.0
C338 C 0.6877 0.7957 0.11632 0.0
C339 C 0.67499 0.82108 0.13165 0.0
C340 C 0.67235 0.83701 0.11841 0.0
C341 C 0.68062 0.82377 0.15954 0.0
C342 C 0.68153 0.80684 0.17596 0.0
C343 C 0.66354 0.78602 0.17778 0.0
C344 C 0.66342 0.77108 0.19615 0.0
C345 C 0.68125 0.77677 0.213 0.0
C346 C 0.69954 0.79723 0.21043 0.0
C347 C 0.69967 0.81213 0.19209 0.0
H348 H 0.11495 0.83098 0.19066 0.0
H349 H 0.0891 0.80642 0.22436 0.0
H350 H 0.10936 0.76017 0.20751 0.0
H351 H 0.13514 0.78463 0.1737 0.0
H352 H 0.15825 0.84742 0.1967 0.0
H353 H 0.10472 0.80606 0.12911 0.0
H354 H 0.0788 0.77329 0.10478 0.0
H355 H 0.12991 0.76091 0.08312 0.0
H356 H 0.15584 0.79351 0.10758 0.0
H357 H 0.21132 0.8487 0.10795 0.0
H358 H 0.24429 0.87494 0.08433 0.0
H359 H 0.22979 0.92517 0.10263 0.0
H360 H 0.19681 0.89899 0.12635 0.0
H361 H 0.16911 0.83455 0.10047 0.0
H362 H 0.22056 0.86933 0.17047 0.0
H363 H 0.24662 0.89555 0.20262 0.0
H364 H 0.20166 0.91671 0.22315 0.0
H365 H 0.17549 0.89048 0.19092 0.0
C366 C 0.12693 0.80963 0.17956 0.0
C367 C 0.11351 0.81536 0.19377 0.0
C368 C 0.09877 0.80139 0.21294 0.0
C369 C 0.09742 0.78156 0.21847 0.0
C370 C 0.11014 0.77538 0.20345 0.0
C371 C 0.12477 0.7893 0.18411 0.0
C372 C 0.1449 0.82583 0.16264 0.0
C373 C 0.16032 0.84488 0.17542 0.0
C374 C 0.14809 0.82195 0.13525 0.0
C375 C 0.13225 0.80219 0.12043 0.0
C376 C 0.11037 0.79625 0.1193 0.0
C377 C 0.0956 0.77765 0.10531 0.0
C378 C 0.10247 0.76472 0.0922 0.0
C379 C 0.12432 0.77072 0.09308 0.0
C380 C 0.13909 0.78931 0.10701 0.0
C381 C 0.20166 0.87189 0.11909 0.0
C382 C 0.2151 0.8653 0.10669 0.0
C383 C 0.2339 0.88024 0.09329 0.0
C384 C 0.2394 0.90193 0.09182 0.0
C385 C 0.22575 0.90848 0.1036 0.0
C386 C 0.20704 0.89358 0.11718 0.0
C387 C 0.18231 0.85621 0.13454 0.0
C388 C 0.16676 0.83728 0.12156 0.0
C389 C 0.17915 0.85991 0.16198 0.0
C390 C 0.19607 0.87798 0.17816 0.0
C391 C 0.2165 0.88001 0.18124 0.0
C392 C 0.23136 0.89493 0.19959 0.0
C393 C 0.22605 0.90807 0.21511 0.0
C394 C 0.20608 0.90682 0.21114 0.0
C395 C 0.19115 0.89181 0.19289 0.0
H396 H 0.30787 0.20028 0.87431 0.0
H397 H 0.30279 0.22398 0.8428 0.0
H398 H 0.36102 0.23763 0.8007 0.0
H399 H 0.36604 0.21386 0.83191 0.0
H400 H 0.33785 0.17131 0.83576 0.0
H401 H 0.31364 0.19009 0.94027 0.0
H402 H 0.31822 0.22154 0.96623 0.0
H403 H 0.3766 0.26222 0.92202 0.0
H404 H 0.37194 0.23097 0.89586 0.0
H405 H 0.3689 0.15916 0.93719 0.0
H406 H 0.37189 0.1309 0.96132 0.0
H407 H 0.31295 0.08264 0.92421 0.0
H408 H 0.30965 0.11097 0.90029 0.0
H409 H 0.34052 0.17262 0.93633 0.0
H410 H 0.36203 0.13336 0.8761 0.0
H411 H 0.36044 0.10489 0.84699 0.0
H412 H 0.31353 0.10875 0.79621 0.0
H413 H 0.3125 0.13454 0.82746 0.0
C414 C 0.33738 0.20536 0.8555 0.0
C415 C 0.3198 0.20875 0.85868 0.0
C416 C 0.31684 0.22216 0.8407 0.0
C417 C 0.33155 0.23251 0.8195 0.0
C418 C 0.34957 0.22983 0.81702 0.0
C419 C 0.35241 0.21629 0.83478 0.0
C420 C 0.33882 0.18868 0.87172 0.0
C421 C 0.33821 0.1713 0.85779 0.0
C422 C 0.33982 0.18927 0.90037 0.0
C423 C 0.34237 0.20819 0.916 0.0
C424 C 0.32741 0.20578 0.93616 0.0
C425 C 0.32999 0.22366 0.95092 0.0
C426 C 0.3478 0.24414 0.94608 0.0
C427 C 0.3628 0.24654 0.92607 0.0
C428 C 0.36008 0.22874 0.9111 0.0
C429 C 0.33918 0.1372 0.91665 0.0
C430 C 0.35638 0.14255 0.93456 0.0
C431 C 0.35813 0.12647 0.9483 0.0
C432 C 0.34268 0.10475 0.94446 0.0
C433 C 0.32501 0.09934 0.9274 0.0
C434 C 0.32319 0.11547 0.91371 0.0
C435 C 0.33868 0.1544 0.90038 0.0
C436 C 0.33964 0.17209 0.91432 0.0
C437 C 0.33798 0.15397 0.87149 0.0
C438 C 0.33709 0.1361 0.85456 0.0
C439 C 0.35066 0.12749 0.85947 0.0
C440 C 0.35008 0.11146 0.84248 0.0
C441 C 0.3371 0.10481 0.81907 0.0
C442 C 0.32374 0.11354 0.81405 0.0
C443 C 0.32335 0.12852 0.83185 0.0
H444 H 0.83607 0.1197 0.84031 0.0
H445 H 0.81047 0.09408 0.80725 0.0
H446 H 0.7617 0.10766 0.83619 0.0
H447 H 0.78733 0.13351 0.86915 0.0
H448 H 0.85016 0.16094 0.83857 0.0
H449 H 0.81491 0.10651 0.90398 0.0
H450 H 0.78737 0.07916 0.93096 0.0
H451 H 0.77198 0.12585 0.96446 0.0
H452 H 0.79969 0.15321 0.93608 0.0
H453 H 0.85244 0.2107 0.93262 0.0
H454 H 0.87802 0.24335 0.95729 0.0
H455 H 0.93057 0.23545 0.92896 0.0
H456 H 0.90503 0.20243 0.90482 0.0
H457 H 0.84126 0.17023 0.93661 0.0
H458 H 0.87426 0.22327 0.86398 0.0
H459 H 0.90038 0.24826 0.83073 0.0
H460 H 0.91928 0.2014 0.81105 0.0
H461 H 0.89323 0.17642 0.84419 0.0
C462 C 0.81366 0.12856 0.85731 0.0
C463 C 0.81975 0.11688 0.83996 0.0
C464 C 0.80517 0.10223 0.82116 0.0
C465 C 0.78425 0.09902 0.81932 0.0
C466 C 0.77776 0.10984 0.83747 0.0
C467 C 0.79236 0.12452 0.85632 0.0
C468 C 0.83022 0.14674 0.87379 0.0
C469 C 0.84841 0.16273 0.86017 0.0
C470 C 0.82765 0.14933 0.90186 0.0
C471 C 0.80984 0.13217 0.91824 0.0
C472 C 0.8057 0.1109 0.91736 0.0
C473 C 0.7899 0.09504 0.93396 0.0
C474 C 0.77826 0.10004 0.95313 0.0
C475 C 0.78159 0.12125 0.95222 0.0
C476 C 0.79734 0.13708 0.93553 0.0
C477 C 0.87675 0.20416 0.91649 0.0
C478 C 0.86943 0.21582 0.93186 0.0
C479 C 0.88399 0.23444 0.94593 0.0
C480 C 0.90613 0.24175 0.94492 0.0
C481 C 0.91352 0.23003 0.92995 0.0
C482 C 0.89895 0.21131 0.916 0.0
C483 C 0.86109 0.18452 0.90123 0.0
C484 C 0.84304 0.1683 0.91506 0.0
C485 C 0.86385 0.18152 0.87336 0.0
C486 C 0.88181 0.19797 0.85662 0.0
C487 C 0.88439 0.21857 0.85303 0.0
C488 C 0.89923 0.23279 0.83404 0.0
C489 C 0.91168 0.22661 0.81844 0.0
C490 C 0.90984 0.20646 0.82295 0.0
C491 C 0.89497 0.19223 0.84179 0.0
H492 H 0.80603 0.65323 0.82136 0.0
H493 H 0.78139 0.65642 0.78986 0.0
H494 H 0.78475 0.7084 0.83782 0.0
H495 H 0.80972 0.70537 0.8695 0.0
H496 H 0.84645 0.68326 0.82996 0.0
H497 H 0.78255 0.6453 0.88342 0.0
H498 H 0.75055 0.63904 0.90904 0.0
H499 H 0.79058 0.69027 0.96425 0.0
H500 H 0.8227 0.69692 0.93834 0.0
H501 H 0.8815 0.69721 0.94009 0.0
H502 H 0.907 0.6909 0.96636 0.0
H503 H 0.89772 0.64057 0.91053 0.0
H504 H 0.87205 0.64655 0.88452 0.0
H505 H 0.8396 0.67175 0.9295 0.0
H506 H 0.90436 0.70755 0.87407 0.0
H507 H 0.93456 0.71269 0.84491 0.0
H508 H 0.89012 0.66186 0.79214 0.0
H509 H 0.86008 0.65645 0.82123 0.0
C510 C 0.80973 0.67903 0.84786 0.0
C511 C 0.80135 0.66521 0.82533 0.0
C512 C 0.7873 0.66699 0.80737 0.0
C513 C 0.78131 0.68264 0.81152 0.0
C514 C 0.78917 0.69618 0.83437 0.0
C515 C 0.8033 0.69438 0.85245 0.0
C516 C 0.82648 0.67831 0.86493 0.0
C517 C 0.84484 0.6805 0.85172 0.0
C518 C 0.82464 0.67542 0.89347 0.0
C519 C 0.80509 0.67183 0.90865 0.0
C520 C 0.7845 0.65545 0.90076 0.0
C521 C 0.76624 0.65176 0.91546 0.0
C522 C 0.76824 0.6642 0.93849 0.0
C523 C 0.78875 0.68051 0.94652 0.0
C524 C 0.80703 0.68426 0.93176 0.0
C525 C 0.87503 0.67257 0.91007 0.0
C526 C 0.88493 0.68481 0.93349 0.0
C527 C 0.89948 0.68125 0.94844 0.0
C528 C 0.90424 0.6653 0.94032 0.0
C529 C 0.89431 0.653 0.91704 0.0
C530 C 0.87977 0.65652 0.90214 0.0
C531 C 0.85933 0.67609 0.8943 0.0
C532 C 0.84127 0.67464 0.90779 0.0
C533 C 0.86122 0.67934 0.86583 0.0
C534 C 0.87991 0.68157 0.84989 0.0
C535 C 0.90115 0.69727 0.85649 0.0
C536 C 0.91835 0.70028 0.83985 0.0
C537 C 0.91447 0.68768 0.81639 0.0
C538 C 0.89337 0.67175 0.81014 0.0
C539 C 0.87627 0.66871 0.82671 0.0
H540 H 0.81494 0.67817 0.54469 0.0
H541 H 0.78533 0.67315 0.57418 0.0
H542 H 0.73994 0.62341 0.52092 0.0
H543 H 0.76985 0.62836 0.49108 0.0
H544 H 0.82579 0.64821 0.53443 0.0
H545 H 0.79786 0.68619 0.48669 0.0
H546 H 0.77344 0.69334 0.46029 0.0
H547 H 0.77986 0.65899 0.39219 0.0
H548 H 0.80224 0.64944 0.41975 0.0
H549 H 0.85626 0.64477 0.42797 0.0
H550 H 0.88959 0.65321 0.40378 0.0
H551 H 0.9264 0.70328 0.46198 0.0
H552 H 0.89306 0.6951 0.48602 0.0
H553 H 0.83878 0.6705 0.43807 0.0
H554 H 0.87496 0.6403 0.49184 0.0
H555 H 0.90275 0.64155 0.52214 0.0
H556 H 0.88488 0.67285 0.58347 0.0
H557 H 0.85954 0.67437 0.55235 0.0
C558 C 0.79465 0.65362 0.51567 0.0
C559 C 0.79864 0.66624 0.53917 0.0
C560 C 0.78177 0.66344 0.55597 0.0
C561 C 0.76052 0.64795 0.54971 0.0
C562 C 0.75628 0.63551 0.52597 0.0
C563 C 0.77329 0.63835 0.509 0.0
C564 C 0.81328 0.65604 0.49949 0.0
C565 C 0.82885 0.65338 0.5134 0.0
C566 C 0.81668 0.66218 0.47175 0.0
C567 C 0.8015 0.66655 0.45579 0.0
C568 C 0.79332 0.67923 0.4666 0.0
C569 C 0.77961 0.68369 0.45129 0.0
C570 C 0.77468 0.67665 0.42421 0.0
C571 C 0.78321 0.66442 0.41309 0.0
C572 C 0.79616 0.65913 0.42883 0.0
C573 C 0.87216 0.66911 0.45902 0.0
C574 C 0.87148 0.65761 0.43551 0.0
C575 C 0.89045 0.66237 0.42174 0.0
C576 C 0.9104 0.67879 0.43119 0.0
C577 C 0.91113 0.69049 0.45448 0.0
C578 C 0.89215 0.68579 0.4682 0.0
C579 C 0.85186 0.66377 0.47355 0.0
C580 C 0.83577 0.6654 0.45911 0.0
C581 C 0.84848 0.6579 0.50139 0.0
C582 C 0.86515 0.65755 0.51938 0.0
C583 C 0.8774 0.64801 0.51147 0.0
C584 C 0.89302 0.64834 0.52897 0.0
C585 C 0.89581 0.65711 0.55526 0.0
C586 C 0.88307 0.66594 0.56337 0.0
C587 C 0.86839 0.66662 0.54554 0.0
H588 H 0.37712 0.21627 0.52754 0.0
H589 H 0.37875 0.24304 0.56009 0.0
H590 H 0.31434 0.22718 0.53788 0.0
H591 H 0.31267 0.20036 0.50515 0.0
H592 H 0.34689 0.17317 0.53267 0.0
H593 H 0.36632 0.2297 0.46615 0.0
H594 H 0.36058 0.2565 0.44233 0.0
H595 H 0.29949 0.20602 0.4128 0.0
H596 H 0.30493 0.1792 0.43696 0.0
H597 H 0.30646 0.12566 0.43475 0.0
H598 H 0.30221 0.09425 0.40946 0.0
H599 H 0.36311 0.10528 0.4403 0.0
H600 H 0.3677 0.13708 0.4653 0.0
H601 H 0.33395 0.16674 0.43348 0.0
H602 H 0.31711 0.10912 0.49498 0.0
H603 H 0.31867 0.0826 0.52444 0.0
H604 H 0.36973 0.13383 0.57051 0.0
H605 H 0.3708 0.16006 0.53848 0.0
C606 C 0.34479 0.20633 0.51388 0.0
C607 C 0.36348 0.21882 0.52927 0.0
C608 C 0.36445 0.2341 0.54777 0.0
C609 C 0.34666 0.23702 0.55139 0.0
C610 C 0.32826 0.2252 0.53525 0.0
C611 C 0.32733 0.20995 0.51659 0.0
C612 C 0.34292 0.1881 0.4973 0.0
C613 C 0.34471 0.17187 0.51082 0.0
C614 C 0.33866 0.1861 0.4691 0.0
C615 C 0.33591 0.20241 0.4537 0.0
C616 C 0.35164 0.22436 0.45466 0.0
C617 C 0.34847 0.23963 0.44094 0.0
C618 C 0.32963 0.23318 0.42584 0.0
C619 C 0.31416 0.21125 0.42428 0.0
C620 C 0.31729 0.196 0.43805 0.0
C621 C 0.33729 0.13365 0.45223 0.0
C622 C 0.31909 0.12157 0.43582 0.0
C623 C 0.31662 0.10365 0.4214 0.0
C624 C 0.33233 0.0975 0.42306 0.0
C625 C 0.35084 0.10984 0.43878 0.0
C626 C 0.35338 0.12787 0.45312 0.0
C627 C 0.33907 0.15195 0.46866 0.0
C628 C 0.33681 0.16806 0.45521 0.0
C629 C 0.34282 0.15371 0.49717 0.0
C630 C 0.34407 0.13689 0.51391 0.0
C631 C 0.32942 0.11475 0.51048 0.0
C632 C 0.32997 0.09952 0.52775 0.0
C633 C 0.34404 0.10613 0.55013 0.0
C634 C 0.35865 0.12819 0.55353 0.0
C635 C 0.35905 0.14325 0.5353 0.0
H636 H 0.78267 0.16371 0.52343 0.0
H637 H 0.75627 0.13881 0.55639 0.0
H638 H 0.77616 0.09235 0.53903 0.0
H639 H 0.80249 0.11715 0.50594 0.0
H640 H 0.82581 0.17944 0.5309 0.0
H641 H 0.77396 0.14138 0.45956 0.0
H642 H 0.74813 0.10939 0.43385 0.0
H643 H 0.79805 0.09414 0.41691 0.0
H644 H 0.82395 0.12619 0.44237 0.0
H645 H 0.87883 0.18191 0.43978 0.0
H646 H 0.91161 0.20826 0.41603 0.0
H647 H 0.90029 0.2593 0.44161 0.0
H648 H 0.8672 0.23298 0.46486 0.0
H649 H 0.83814 0.16853 0.43449 0.0
H650 H 0.88881 0.2022 0.5063 0.0
H651 H 0.91435 0.22834 0.53903 0.0
H652 H 0.86844 0.24839 0.5592 0.0
H653 H 0.84285 0.22228 0.52645 0.0
C654 C 0.79451 0.14228 0.51213 0.0
C655 C 0.781 0.14796 0.52622 0.0
C656 C 0.76595 0.1338 0.54497 0.0
C657 C 0.76437 0.11382 0.55018 0.0
C658 C 0.77711 0.10767 0.53519 0.0
C659 C 0.79206 0.12179 0.51627 0.0
C660 C 0.81295 0.1587 0.49604 0.0
C661 C 0.82827 0.17735 0.5096 0.0
C662 C 0.81659 0.15539 0.46864 0.0
C663 C 0.80087 0.13611 0.45307 0.0
C664 C 0.77935 0.13114 0.45038 0.0
C665 C 0.76465 0.11299 0.43563 0.0
C666 C 0.7712 0.09941 0.42353 0.0
C667 C 0.79271 0.10443 0.42607 0.0
C668 C 0.80745 0.12269 0.44057 0.0
C669 C 0.8706 0.20544 0.45441 0.0
C670 C 0.88323 0.19872 0.4401 0.0
C671 C 0.90193 0.21371 0.42659 0.0
C672 C 0.9083 0.23565 0.42714 0.0
C673 C 0.89559 0.24241 0.44102 0.0
C674 C 0.87683 0.22741 0.45442 0.0
C675 C 0.85101 0.18948 0.46934 0.0
C676 C 0.83554 0.17087 0.45564 0.0
C677 C 0.84739 0.19257 0.49687 0.0
C678 C 0.86392 0.21032 0.51382 0.0
C679 C 0.8844 0.21256 0.51725 0.0
C680 C 0.89895 0.22741 0.53595 0.0
C681 C 0.89322 0.24023 0.55151 0.0
C682 C 0.87313 0.23866 0.54731 0.0
C683 C 0.85855 0.22375 0.52872 0.0
H684 H 0.95823 0.51047 0.17767 0.0
H685 H 0.9568 0.53517 0.14441 0.0
H686 H 0.02241 0.58247 0.16335 0.0
H687 H 0.02392 0.55779 0.19667 0.0
H688 H 0.98571 0.49501 0.17216 0.0
H689 H 0.97224 0.53619 0.23896 0.0
H690 H 0.97903 0.56908 0.26304 0.0
H691 H 0.04112 0.57969 0.28825 0.0
H692 H 0.03463 0.5471 0.2638 0.0
H693 H 0.03386 0.4927 0.26549 0.0
H694 H 0.04005 0.46634 0.28956 0.0
H695 H 0.97798 0.41536 0.26354 0.0
H696 H 0.97144 0.44171 0.23996 0.0
H697 H 0.00662 0.50639 0.26926 0.0
H698 H 0.02342 0.46945 0.20164 0.0
H699 H 0.02294 0.44279 0.16986 0.0
H700 H 0.95989 0.42768 0.14235 0.0
H701 H 0.95997 0.45383 0.17469 0.0
C702 C 0.99116 0.53228 0.18975 0.0
C703 C 0.97218 0.52631 0.17509 0.0
C704 C 0.97133 0.54038 0.15618 0.0
C705 C 0.98951 0.56058 0.15143 0.0
C706 C 0.0082 0.56697 0.16685 0.0
C707 C 0.00903 0.55292 0.18589 0.0
C708 C 0.99298 0.51607 0.20658 0.0
C709 C 0.98976 0.49721 0.1936 0.0
C710 C 0.99932 0.51957 0.23421 0.0
C711 C 1.00302 0.53923 0.24923 0.0
C712 C 0.98739 0.54564 0.24947 0.0
C713 C 0.99117 0.56429 0.26335 0.0
C714 C 0.01056 0.57675 0.2774 0.0
C715 C 0.02604 0.57024 0.27757 0.0
C716 C 0.0223 0.55164 0.26365 0.0
C717 C 1.00228 0.46921 0.2506 0.0
C718 C 0.02142 0.47591 0.26524 0.0
C719 C 0.02499 0.46091 0.27893 0.0
C720 C 0.00947 0.43897 0.27825 0.0
C721 C 0.99012 0.43225 0.26425 0.0
C722 C 0.98648 0.44727 0.25068 0.0
C723 C 0.99909 0.48512 0.23486 0.0
C724 C 1.00218 0.50397 0.24796 0.0
C725 C 0.99303 0.48184 0.2071 0.0
C726 C 0.99166 0.46364 0.19076 0.0
C727 C 0.00916 0.45992 0.18951 0.0
C728 C 0.00893 0.44474 0.17134 0.0
C729 C 0.99134 0.43324 0.15389 0.0
C730 C 0.97352 0.43628 0.15583 0.0
C731 C 0.97365 0.45129 0.17415 0.0
H732 H 0.50484 0.45212 0.17788 0.0
H733 H 0.47885 0.42632 0.14522 0.0
H734 H 0.43311 0.44599 0.16788 0.0
H735 H 0.45905 0.47182 0.20056 0.0
H736 H 0.52165 0.4949 0.17397 0.0
H737 H 0.48175 0.44119 0.24093 0.0
H738 H 0.44921 0.41487 0.26518 0.0
H739 H 0.4378 0.46576 0.2912 0.0
H740 H 0.47014 0.49212 0.26668 0.0
H741 H 0.52462 0.54641 0.26656 0.0
H742 H 0.55093 0.57885 0.291 0.0
H743 H 0.6019 0.5674 0.2655 0.0
H744 H 0.57561 0.5347 0.24142 0.0
H745 H 0.51118 0.5054 0.27119 0.0
H746 H 0.54525 0.55706 0.19955 0.0
H747 H 0.57089 0.58204 0.166 0.0
H748 H 0.59066 0.53584 0.14639 0.0
H749 H 0.56496 0.51076 0.17985 0.0
C750 C 0.4839 0.46387 0.19181 0.0
C751 C 0.48908 0.45062 0.17621 0.0
C752 C 0.47428 0.43589 0.15763 0.0
C753 C 0.45411 0.43431 0.15412 0.0
C754 C 0.44857 0.44693 0.17039 0.0
C755 C 0.46334 0.46159 0.18909 0.0
C756 C 0.50072 0.48161 0.20856 0.0
C757 C 0.5196 0.49691 0.19543 0.0
C758 C 0.49764 0.48463 0.23632 0.0
C759 C 0.47831 0.46866 0.25167 0.0
C760 C 0.47224 0.44672 0.25173 0.0
C761 C 0.45378 0.43173 0.2657 0.0
C762 C 0.44117 0.43842 0.27995 0.0
C763 C 0.4474 0.46033 0.28037 0.0
C764 C 0.46583 0.47533 0.2664 0.0
C765 C 0.5481 0.53816 0.25184 0.0
C766 C 0.54141 0.55071 0.26638 0.0
C767 C 0.55639 0.56923 0.28029 0.0
C768 C 0.57831 0.57549 0.27999 0.0
C769 C 0.58504 0.56282 0.26591 0.0
C770 C 0.57005 0.54426 0.25204 0.0
C771 C 0.5321 0.51877 0.23649 0.0
C772 C 0.51339 0.50318 0.24986 0.0
C773 C 0.53517 0.51554 0.20881 0.0
C774 C 0.55322 0.53205 0.19227 0.0
C775 C 0.55553 0.55253 0.18865 0.0
C776 C 0.57013 0.56677 0.16952 0.0
C777 C 0.58266 0.56076 0.15385 0.0
C778 C 0.58124 0.5408 0.15849 0.0
C779 C 0.56654 0.5265 0.17746 0.0
H780 H 0.5615 0.05636 0.17641 0.0
H781 H 0.5895 0.05972 0.1446 0.0
H782 H 0.5697 0.99287 0.15698 0.0
H783 H 0.54191 0.98955 0.18906 0.0
H784 H 0.51797 0.02837 0.16738 0.0
H785 H 0.5708 0.04 0.23529 0.0
H786 H 0.5967 0.03298 0.25923 0.0
H787 H 0.54548 0.96984 0.2811 0.0
H788 H 0.51959 0.97649 0.25659 0.0
H789 H 0.46447 0.97512 0.2558 0.0
H790 H 0.43168 0.96797 0.28036 0.0
H791 H 0.44363 0.03149 0.26045 0.0
H792 H 0.4765 0.03878 0.23598 0.0
H793 H 0.50566 1.0032 0.26285 0.0
H794 H 0.45539 0.98651 0.19077 0.0
H795 H 0.42968 0.98694 0.15827 0.0
H796 H 0.47386 0.05384 0.14147 0.0
H797 H 0.49971 0.05343 0.17385 0.0
C798 C 0.54965 0.02272 0.18518 0.0
C799 C 0.56344 0.04253 0.17266 0.0
C800 C 0.5794 0.04446 0.15458 0.0
C801 C 0.58155 0.0265 0.14832 0.0
C802 C 0.56829 0.0069 0.16155 0.0
C803 C 0.55249 0.00503 0.17988 0.0
C804 C 0.531 0.02001 0.20154 0.0
C805 C 0.51551 0.02335 0.18849 0.0
C806 C 0.52739 0.01249 0.2287 0.0
C807 C 0.54321 0.00867 0.24376 0.0
C808 C 0.56511 0.02455 0.24499 0.0
C809 C 0.57987 0.02065 0.25882 0.0
C810 C 0.57294 1.00092 0.27194 0.0
C811 C 0.55107 0.98519 0.27117 0.0
C812 C 0.53634 0.98902 0.25722 0.0
C813 C 0.4729 0.00742 0.24379 0.0
C814 C 0.46013 0.98757 0.2568 0.0
C815 C 0.44144 0.98347 0.27077 0.0
C816 C 0.43525 0.99919 0.27216 0.0
C817 C 0.44813 0.01915 0.25954 0.0
C818 C 0.46679 0.02323 0.24548 0.0
C819 C 0.49264 0.01162 0.22865 0.0
C820 C 0.50828 0.00852 0.24189 0.0
C821 C 0.49623 0.01888 0.2014 0.0
C822 C 0.47947 0.01997 0.18484 0.0
C823 C 0.45937 1.00142 0.18061 0.0
C824 C 0.44473 1.00163 0.16202 0.0
C825 C 0.44993 0.0204 0.14743 0.0
C826 C 0.46958 0.03922 0.15255 0.0
C827 C 0.4843 0.03896 0.17096 0.0
H828 H 0.48452 0.01637 0.87689 0.0
H829 H 0.45553 0.01256 0.90679 0.0
H830 H 0.40886 0.96175 0.85583 0.0
H831 H 0.43806 0.96533 0.82577 0.0
H832 H 0.49532 0.98661 0.86842 0.0
H833 H 0.47271 0.027 0.81351 0.0
H834 H 0.44714 0.03324 0.78757 0.0
H835 H 0.43475 0.98043 0.73434 0.0
H836 H 0.46039 0.97413 0.76033 0.0
H837 H 0.52212 0.97667 0.76121 0.0
H838 H 0.5549 0.98431 0.73615 0.0
H839 H 0.59293 0.0368 0.79084 0.0
H840 H 0.56019 0.02945 0.81569 0.0
H841 H 0.50409 1.00171 0.76974 0.0
H842 H 0.54172 0.97448 0.82492 0.0
H843 H 0.57007 0.97606 0.85438 0.0
H844 H 0.55579 0.01124 0.91422 0.0
H845 H 0.52993 0.01239 0.88367 0.0
C846 C 0.46351 0.99111 0.84909 0.0
C847 C 0.46806 0.00449 0.87193 0.0
C848 C 0.45155 1.00239 0.88895 0.0
C849 C 0.43014 0.98688 0.88349 0.0
C850 C 0.42534 0.97385 0.86025 0.0
C851 C 0.44195 0.97595 0.84313 0.0
C852 C 0.48165 0.99233 0.83295 0.0
C853 C 0.4976 0.99034 0.84691 0.0
C854 C 0.48389 0.99627 0.80469 0.0
C855 C 0.46829 0.99993 0.78906 0.0
C856 C 0.4644 0.01664 0.7964 0.0
C857 C 0.44991 0.02027 0.78156 0.0
C858 C 0.43909 0.0073 0.75906 0.0
C859 C 0.44298 0.99061 0.75162 0.0
C860 C 0.45758 0.98705 0.76641 0.0
C861 C 0.53871 1.0023 0.79057 0.0
C862 C 0.53749 0.98987 0.76778 0.0
C863 C 0.55614 0.99417 0.75353 0.0
C864 C 0.57627 0.01105 0.76176 0.0
C865 C 0.57752 0.02366 0.7843 0.0
C866 C 0.55887 0.01941 0.79849 0.0
C867 C 0.51883 0.99755 0.80569 0.0
C868 C 0.50218 0.99826 0.79133 0.0
C869 C 0.51655 0.99355 0.8341 0.0
C870 C 0.53364 0.99358 0.85163 0.0
C871 C 0.54508 0.98311 0.84399 0.0
C872 C 0.56103 0.98364 0.86104 0.0
C873 C 0.56495 0.99355 0.88673 0.0
C874 C 0.55309 1.00342 0.8946 0.0
C875 C 0.5381 0.00388 0.87711 0.0
H876 H 0.05173 0.55503 0.85859 0.0
H877 H 0.05206 0.58104 0.89143 0.0
H878 H 0.98647 0.56155 0.87053 0.0
H879 H 0.98605 0.53547 0.83768 0.0
H880 H 0.02543 0.51215 0.86294 0.0
H881 H 0.03813 0.56643 0.79681 0.0
H882 H 0.03068 0.59222 0.77338 0.0
H883 H 0.96936 0.54017 0.74695 0.0
H884 H 0.97646 0.51436 0.77084 0.0
H885 H 0.97797 0.46152 0.76943 0.0
H886 H 0.97204 0.42914 0.74499 0.0
H887 H 0.03425 0.44049 0.77084 0.0
H888 H 0.04053 0.47324 0.79482 0.0
H889 H 1.00496 0.50234 0.76569 0.0
H890 H 0.98873 0.44905 0.83361 0.0
H891 H 0.98963 0.42347 0.86584 0.0
H892 H 0.05271 0.47201 0.89244 0.0
H893 H 0.05218 0.49749 0.85973 0.0
C894 C 0.0189 0.54333 0.84556 0.0
C895 C 0.03753 0.5566 0.86069 0.0
C896 C 0.03776 0.57145 0.87936 0.0
C897 C 0.01928 0.57317 0.88339 0.0
C898 C 1.0009 0.56052 0.86758 0.0
C899 C 1.0007 0.5457 0.84881 0.0
C900 C 0.01783 0.52559 0.8286 0.0
C901 C 0.02148 0.51025 0.84147 0.0
C902 C 0.01172 0.5227 0.80088 0.0
C903 C 0.00774 0.53842 0.78593 0.0
C904 C 0.02302 0.56053 0.78614 0.0
C905 C 0.01888 0.57523 0.77262 0.0
C906 C 0.99951 0.56803 0.75844 0.0
C907 C 0.98443 0.54597 0.75771 0.0
C908 C 0.98852 0.53128 0.77131 0.0
C909 C 0.00961 0.46977 0.78427 0.0
C910 C 0.99049 0.45727 0.7696 0.0
C911 C 0.98708 0.43879 0.75568 0.0
C912 C 1.00271 0.43249 0.75617 0.0
C913 C 0.02202 0.44514 0.77027 0.0
C914 C 0.02551 0.46371 0.78408 0.0
C915 C 0.01266 0.48886 0.80006 0.0
C916 C 0.00931 0.50441 0.78702 0.0
C917 C 0.0187 0.49179 0.82782 0.0
C918 C 0.02045 0.47524 0.84408 0.0
C919 C 1.0031 0.45402 0.84563 0.0
C920 C 1.00357 0.43941 0.86403 0.0
C921 C 0.02128 0.44588 0.88137 0.0
C922 C 0.039 0.46671 0.87904 0.0
C923 C 0.03862 0.48125 0.8605 0.0
H924 H 0.4482 0.49682 0.85844 0.0
H925 H 0.42246 0.4722 0.89218 0.0
H926 H 0.4422 0.42571 0.87423 0.0
H927 H 0.46787 0.45024 0.84036 0.0
H928 H 0.49158 0.51257 0.86467 0.0
H929 H 0.43809 0.47343 0.79481 0.0
H930 H 0.4122 0.44115 0.7696 0.0
H931 H 0.46256 0.42685 0.75112 0.0
H932 H 0.4885 0.45919 0.77605 0.0
H933 H 0.54242 0.51484 0.77137 0.0
H934 H 0.57498 0.54113 0.74724 0.0
H935 H 0.56408 0.59226 0.77364 0.0
H936 H 0.53117 0.56598 0.7973 0.0
H937 H 0.50169 0.50129 0.7676 0.0
H938 H 0.55485 0.53738 0.83506 0.0
H939 H 0.58124 0.5637 0.86679 0.0
H940 H 0.53398 0.57962 0.89519 0.0
H941 H 0.50768 0.55383 0.86284 0.0
C942 C 0.45991 0.47535 0.84678 0.0
C943 C 0.44663 0.48112 0.86128 0.0
C944 C 0.43196 0.46711 0.88049 0.0
C945 C 0.43053 0.44721 0.88574 0.0
C946 C 0.44304 0.44097 0.87037 0.0
C947 C 0.45761 0.45493 0.851 0.0
C948 C 0.47799 0.49167 0.83011 0.0
C949 C 0.49356 0.51044 0.84323 0.0
C950 C 0.48104 0.48821 0.80255 0.0
C951 C 0.46522 0.46866 0.78749 0.0
C952 C 0.44356 0.46333 0.78541 0.0
C953 C 0.42883 0.44501 0.77094 0.0
C954 C 0.43548 0.43163 0.75852 0.0
C955 C 0.45713 0.43699 0.76051 0.0
C956 C 0.47189 0.45541 0.77472 0.0
C957 C 0.53441 0.5384 0.78643 0.0
C958 C 0.54681 0.53164 0.77171 0.0
C959 C 0.56539 0.54661 0.75799 0.0
C960 C 0.57185 0.56856 0.75874 0.0
C961 C 0.55929 0.57536 0.77289 0.0
C962 C 0.54063 0.56038 0.78649 0.0
C963 C 0.51524 0.52251 0.80208 0.0
C964 C 0.49957 0.50374 0.78889 0.0
C965 C 0.51233 0.52573 0.82985 0.0
C966 C 0.52924 0.54366 0.84633 0.0
C967 C 0.55031 0.54702 0.84738 0.0
C968 C 0.56538 0.56199 0.86552 0.0
C969 C 0.55953 0.57362 0.88318 0.0
C970 C 0.5388 0.5709 0.88154 0.0
C971 C 0.52379 0.5561 0.86321 0.0
H972 H 0.63987 0.86683 0.53651 0.0
H973 H 0.63532 0.89065 0.50465 0.0
H974 H 0.69529 0.90608 0.46588 0.0
H975 H 0.6998 0.88222 0.49748 0.0
H976 H 0.67269 0.83981 0.49973 0.0
H977 H 0.64325 0.85611 0.60265 0.0
H978 H 0.64724 0.88724 0.62887 0.0
H979 H 0.70733 0.9282 0.58812 0.0
H980 H 0.70329 0.89731 0.56177 0.0
H981 H 0.694 0.82656 0.61061 0.0
H982 H 0.69734 0.7996 0.63656 0.0
H983 H 0.65523 0.75057 0.58001 0.0
H984 H 0.6486 0.77686 0.55696 0.0
H985 H 0.6695 0.83822 0.6002 0.0
H986 H 0.69788 0.80358 0.53906 0.0
H987 H 0.69767 0.77591 0.50934 0.0
H988 H 0.64904 0.77742 0.45945 0.0
H989 H 0.64684 0.80231 0.49116 0.0
C990 C 0.67021 0.87278 0.51941 0.0
C991 C 0.65228 0.87572 0.52158 0.0
C992 C 0.64963 0.88921 0.50339 0.0
C993 C 0.66498 0.90007 0.48299 0.0
C994 C 0.68334 0.89787 0.48157 0.0
C995 C 0.68588 0.88427 0.49955 0.0
C996 C 0.67138 0.85597 0.53569 0.0
C997 C 0.67201 0.83924 0.52175 0.0
C998 C 0.67085 0.85574 0.56432 0.0
C999 C 0.67289 0.8744 0.58009 0.0
C1000 C 0.65726 0.87179 0.59935 0.0
C1001 C 0.65951 0.88949 0.61426 0.0
C1002 C 0.67763 0.90996 0.61046 0.0
C1003 C 0.69328 0.91253 0.59135 0.0
C1004 C 0.69091 0.89494 0.57626 0.0
C1005 C 0.67159 0.80415 0.58091 0.0
C1006 C 0.68478 0.80993 0.60415 0.0
C1007 C 0.68696 0.79451 0.61889 0.0
C1008 C 0.67713 0.77305 0.60989 0.0
C1009 C 0.66328 0.76702 0.58731 0.0
C1010 C 0.65984 0.78221 0.57374 0.0
C1011 C 0.6708 0.82128 0.56432 0.0
C1012 C 0.67014 0.83828 0.57819 0.0
C1013 C 0.6717 0.82184 0.53533 0.0
C1014 C 0.67207 0.80489 0.51787 0.0
C1015 C 0.68663 0.79742 0.52229 0.0
C1016 C 0.68673 0.78183 0.50507 0.0
C1017 C 0.67349 0.77464 0.48187 0.0
C1018 C 0.65938 0.78255 0.47715 0.0
C1019 C 0.65831 0.79699 0.49522 0.0
H1020 H 0.17156 0.78538 0.50853 0.0
H1021 H 0.1456 0.7596 0.47583 0.0
H1022 H 0.09927 0.77813 0.49989 0.0
H1023 H 0.1252 0.804 0.53253 0.0
H1024 H 0.18799 0.82786 0.50546 0.0
H1025 H 0.14815 0.7736 0.57169 0.0
H1026 H 0.11571 0.74705 0.59591 0.0
H1027 H 0.10439 0.79769 0.62336 0.0
H1028 H 0.13655 0.82426 0.59878 0.0
H1029 H 0.19015 0.87895 0.59711 0.0
H1030 H 0.21585 0.91128 0.6222 0.0
H1031 H 0.26735 0.89971 0.5997 0.0
H1032 H 0.24164 0.8672 0.5747 0.0
H1033 H 0.17734 0.8377 0.60281 0.0
H1034 H 0.21386 0.89091 0.53398 0.0
H1035 H 0.23994 0.91616 0.50109 0.0
H1036 H 0.25522 0.86776 0.47568 0.0
H1037 H 0.22958 0.84261 0.50901 0.0
C1038 C 0.15034 0.79659 0.52312 0.0
C1039 C 0.1557 0.78365 0.50714 0.0
C1040 C 0.14091 0.76892 0.48855 0.0
C1041 C 0.12057 0.76701 0.48546 0.0
C1042 C 0.11486 0.77931 0.5021 0.0
C1043 C 0.12963 0.794 0.52077 0.0
C1044 C 0.16709 0.81429 0.53999 0.0
C1045 C 0.18595 0.82974 0.52696 0.0
C1046 C 0.16397 0.81709 0.5678 0.0
C1047 C 0.14471 0.80095 0.5831 0.0
C1048 C 0.13867 0.77903 0.58278 0.0
C1049 C 0.12028 0.7639 0.59673 0.0
C1050 C 0.10775 0.77048 0.61141 0.0
C1051 C 0.11395 0.79237 0.61221 0.0
C1052 C 0.13228 0.80748 0.59821 0.0
C1053 C 0.21396 0.8707 0.58379 0.0
C1054 C 0.20693 0.88324 0.59768 0.0
C1055 C 0.22156 0.90168 0.61195 0.0
C1056 C 0.24346 0.90786 0.61274 0.0
C1057 C 0.25051 0.8952 0.59926 0.0
C1058 C 0.23587 0.87675 0.58491 0.0
C1059 C 0.19828 0.85134 0.5682 0.0
C1060 C 0.17961 0.83561 0.58146 0.0
C1061 C 0.2015 0.84832 0.54049 0.0
C1062 C 0.21978 0.86483 0.52414 0.0
C1063 C 0.22336 0.88593 0.52211 0.0
C1064 C 0.2382 0.90034 0.50331 0.0
C1065 C 0.24951 0.8938 0.48609 0.0
C1066 C 0.24676 0.87313 0.48898 0.0
C1067 C 0.23205 0.85878 0.50788 0.0
H1068 H 0.14449 0.32668 0.48892 0.0
H1069 H 0.11923 0.32925 0.45792 0.0
H1070 H 0.11757 0.37684 0.50999 0.0
H1071 H 0.14318 0.37445 0.54119 0.0
H1072 H 0.18416 0.35777 0.50096 0.0
H1073 H 0.11734 0.31435 0.54998 0.0
H1074 H 0.0845 0.30686 0.57464 0.0
H1075 H 0.12272 0.35563 0.63361 0.0
H1076 H 0.15562 0.36343 0.60878 0.0
H1077 H 0.23684 0.37413 0.57342 0.0
H1078 H 0.26271 0.36751 0.59829 0.0
H1079 H 0.21241 0.30277 0.61545 0.0
H1080 H 0.18652 0.30929 0.59064 0.0
H1081 H 0.1725 0.33787 0.59838 0.0
H1082 H 0.23081 0.38864 0.51663 0.0
H1083 H 0.25903 0.39208 0.48504 0.0
H1084 H 0.23365 0.32353 0.48877 0.0
H1085 H 0.20587 0.32018 0.52098 0.0
C1086 C 0.14574 0.35035 0.51742 0.0
C1087 C 0.13865 0.33761 0.49383 0.0
C1088 C 0.12422 0.33902 0.47617 0.0
C1089 C 0.11656 0.3532 0.48171 0.0
C1090 C 0.12327 0.36574 0.50549 0.0
C1091 C 0.13779 0.36432 0.52327 0.0
C1092 C 0.1623 0.34958 0.53478 0.0
C1093 C 0.18163 0.3536 0.52235 0.0
C1094 C 0.15906 0.3442 0.56274 0.0
C1095 C 0.139 0.33968 0.5773 0.0
C1096 C 0.1187 0.32365 0.568 0.0
C1097 C 0.09997 0.31928 0.58212 0.0
C1098 C 0.10123 0.33071 0.60591 0.0
C1099 C 0.12145 0.34666 0.6153 0.0
C1100 C 0.14018 0.35106 0.60116 0.0
C1101 C 0.20975 0.34215 0.57999 0.0
C1102 C 0.23136 0.3585 0.58249 0.0
C1103 C 0.24608 0.3548 0.59677 0.0
C1104 C 0.23941 0.33466 0.60865 0.0
C1105 C 0.21781 0.31841 0.60644 0.0
C1106 C 0.20308 0.32215 0.59234 0.0
C1107 C 0.19408 0.34569 0.56432 0.0
C1108 C 0.17507 0.34238 0.57711 0.0
C1109 C 0.19745 0.35163 0.53664 0.0
C1110 C 0.21634 0.35417 0.52116 0.0
C1111 C 0.23168 0.37444 0.51116 0.0
C1112 C 0.24773 0.37641 0.49319 0.0
C1113 C 0.24826 0.35803 0.48441 0.0
C1114 C 0.23345 0.33787 0.49527 0.0
C1115 C 0.21767 0.33597 0.51364 0.0
C1116 C 1.00159 0.41842 0.08336 0.0
C1117 C 0.9955 0.39645 0.08686 0.0
C1118 C 0.98482 0.39795 0.13399 0.0
C1119 C 0.9928 0.42037 0.13105 0.0
N1120 N 0.01128 0.45271 0.10421 0.0
N1121 N 0.98344 0.36564 0.11602 0.0
C1122 C 1.00192 0.43081 0.10609 0.0
C1123 C 0.98755 0.38623 0.1123 0.0
N1124 N 0.00613 0.42722 0.05794 0.0
N1125 N 0.97443 0.38787 0.15738 0.0
H1126 H 0.98512 0.35661 0.10054 0.0
H1127 H 0.97981 0.35797 0.13479 0.0
H1128 H 0.97281 0.39613 0.17388 0.0
H1129 H 0.9662 0.37124 0.15984 0.0
H1130 H 0.0083 0.44236 0.05345 0.0
H1131 H 1.00569 0.41855 0.04075 0.0
H1132 H 0.02061 0.46153 0.08773 0.0
H1133 H 0.01114 0.46238 0.11998 0.0
C1134 C 0.62829 0.60254 0.10954 0.0
C1135 C 0.61712 0.59979 0.08471 0.0
C1136 C 0.58428 0.57004 0.10463 0.0
C1137 C 0.5949 0.57398 0.13005 0.0
N1138 N 0.62618 0.59464 0.15789 0.0
N1139 N 0.58412 0.58218 0.05886 0.0
C1140 C 0.61674 0.59037 0.13281 0.0
C1141 C 0.59501 0.58386 0.08235 0.0
N1142 N 0.6499 0.61679 0.11079 0.0
N1143 N 0.56402 0.5527 0.10163 0.0
H1144 H 0.59158 0.59088 0.0414 0.0
H1145 H 0.56746 0.5731 0.05698 0.0
H1146 H 0.5552 0.54263 0.11762 0.0
H1147 H 0.5564 0.54725 0.08296 0.0
H1148 H 0.65954 0.61811 0.12728 0.0
H1149 H 0.65861 0.62658 0.09452 0.0
H1150 H 0.64125 0.60775 0.16214 0.0
H1151 H 0.6183 0.58566 0.17509 0.0
C1152 C 0.40064 0.01462 0.11003 0.0
C1153 C 0.40756 0.01645 0.08265 0.0
C1154 C 0.44192 0.02034 0.0977 0.0
C1155 C 0.43557 0.0198 0.12518 0.0
N1156 N 0.41056 0.02005 0.15777 0.0
N1157 N 0.4359 0.02465 0.05025 0.0
C1158 C 0.41538 0.01799 0.13144 0.0
C1159 C 0.42862 0.02058 0.07647 0.0
N1160 N 0.37984 0.00922 0.11553 0.0
N1161 N 0.46009 0.01938 0.0918 0.0
H1162 H 0.42639 0.02418 0.03396 0.0
H1163 H 0.45186 0.03018 0.04487 0.0
H1164 H 0.47014 0.01883 0.10665 0.0
H1165 H 0.46425 0.01721 0.07225 0.0
H1166 H 0.37301 0.00514 0.13482 0.0
H1167 H 0.36894 0.00759 0.10041 0.0
H1168 H 0.39709 0.02102 0.16347 0.0
H1169 H 0.421 0.02254 0.17388 0.0
C1170 C 0.38774 0.99409 0.92148 0.0
C1171 C 0.3886 0.98559 0.94717 0.0
C1172 C 0.41118 0.97217 0.92759 0.0
C1173 C 0.41323 0.98376 0.90346 0.0
N1174 N 0.40407 0.00625 0.87703 0.0
N1175 N 0.40284 0.9682 0.97561 0.0
C1176 C 0.40146 0.99466 0.90013 0.0
C1177 C 0.40046 0.97472 0.95041 0.0
N1178 N 0.37353 1.00129 0.91749 0.0
N1179 N 0.41962 0.95879 0.92868 0.0
H1180 H 0.39558 0.96994 0.99305 0.0
H1181 H 0.41344 0.96261 0.97972 0.0
H1182 H 0.42775 0.95676 0.91236 0.0
H1183 H 0.41681 0.94823 0.94467 0.0
H1184 H 0.37072 0.00597 0.89866 0.0
H1185 H 0.36304 1.00067 0.93264 0.0
H1186 H 0.398 0.01664 0.87463 0.0
H1187 H 0.41339 0.00636 0.86065 0.0
C1188 C 0.0118 0.42268 0.95268 0.0
C1189 C 0.0173 0.40632 0.94953 0.0
C1190 C 0.02745 0.4172 0.90201 0.0
C1191 C 0.01995 0.43207 0.90462 0.0
N1192 N 1.00241 0.44722 0.93124 0.0
N1193 N 0.02829 0.38629 0.92077 0.0
C1194 C 0.01138 0.4343 0.92963 0.0
C1195 C 0.02472 0.40318 0.92409 0.0
N1196 N 0.00785 0.42776 0.97802 0.0
N1197 N 0.03742 0.4167 0.87854 0.0
H1198 H 0.02661 0.37589 0.93656 0.0
H1199 H 0.03148 0.38165 0.90208 0.0
H1200 H 0.03907 0.4263 0.8618 0.0
H1201 H 0.0453 0.40792 0.87624 0.0
H1202 H 0.00611 0.44106 0.98218 0.0
H1203 H 0.00842 0.41987 0.99542 0.0
H1204 H 0.99348 0.44739 0.94786 0.0
H1205 H 1.00243 0.45667 0.91517 0.0
C1206 C 0.58602 0.5881 0.95284 0.0
C1207 C 0.60193 0.61001 0.94902 0.0
C1208 C 0.58862 0.60878 0.90268 0.0
C1209 C 0.57409 0.5864 0.9058 0.0
N1210 N 0.56032 0.55402 0.93252 0.0
N1211 N 0.62006 0.64091 0.91985 0.0
C1212 C 0.57318 0.57587 0.93053 0.0
C1213 C 0.60361 0.62035 0.92385 0.0
N1214 N 0.58263 0.57919 0.97817 0.0
N1215 N 0.58788 0.61894 0.87961 0.0
H1216 H 0.63114 0.64985 0.93498 0.0
H1217 H 0.62368 0.64865 0.90113 0.0
H1218 H 0.57758 0.61078 0.86345 0.0
H1219 H 0.59637 0.63556 0.87712 0.0
H1220 H 0.56968 0.56417 0.98308 0.0
H1221 H 0.59171 0.5876 0.99502 0.0
H1222 H 0.56102 0.54504 0.94865 0.0
H1223 H 0.5499 0.5445 0.91714 0.0
C1224 C 0.01742 0.59302 0.95479 0.0
C1225 C 0.01606 0.61165 0.94891 0.0
C1226 C 0.01933 0.60651 0.90013 0.0
C1227 C 0.01855 0.58674 0.9059 0.0
N1228 N 0.01356 0.55941 0.93828 0.0
N1229 N 0.01363 0.63534 0.91639 0.0
C1230 C 0.01681 0.57956 0.93314 0.0
C1231 C 0.0165 0.61824 0.92166 0.0
N1232 N 0.01952 0.58832 0.98113 0.0
N1233 N 0.02329 0.61428 0.87417 0.0
H1234 H 0.01225 0.64466 0.93174 0.0
H1235 H 0.01132 0.63954 0.89698 0.0
H1236 H 0.02527 0.60602 0.85797 0.0
H1237 H 0.02621 0.62957 0.86898 0.0
H1238 H 0.02296 0.57634 0.98659 0.0
H1239 H 0.01964 0.59758 0.99758 0.0
H1240 H 0.0097 0.55228 0.95739 0.0
H1241 H 0.01286 0.54894 0.92305 0.0
C1242 C 0.38741 0.40043 0.92709 0.0
C1243 C 0.39435 0.40798 0.95391 0.0
C1244 C 0.42515 0.44082 0.93605 0.0
C1245 C 0.4176 0.43389 0.90918 0.0
N1246 N 0.3899 0.40895 0.87899 0.0
N1247 N 0.41742 0.43668 0.98434 0.0
C1248 C 0.39821 0.4142 0.90465 0.0
C1249 C 0.41242 0.42866 0.95848 0.0
N1250 N 0.37083 0.37993 0.9231 0.0
N1251 N 0.44507 0.45842 0.94013 0.0
H1252 H 0.40886 0.428 1.00139 0.0
H1253 H 0.42891 0.45254 0.98877 0.0
H1254 H 0.45509 0.46766 0.92432 0.0
H1255 H 0.45253 0.46282 0.95903 0.0
H1256 H 0.36655 0.37251 0.90414 0.0
H1257 H 0.36205 0.36979 0.93909 0.0
H1258 H 0.37479 0.39592 0.87461 0.0
H1259 H 0.39746 0.41864 0.86216 0.0
C1260 C 0.59755 0.97819 0.93438 0.0
C1261 C 0.60956 0.99791 0.94881 0.0
C1262 C 0.59737 0.01509 0.91593 0.0
C1263 C 0.58191 0.99473 0.90551 0.0
N1264 N 0.56506 0.95598 0.90877 0.0
N1265 N 0.61499 0.03379 0.95684 0.0
C1266 C 0.58141 0.97595 0.91566 0.0
C1267 C 0.60805 0.01612 0.94048 0.0
N1268 N 0.60187 0.96183 0.93779 0.0
N1269 N 0.60174 0.0335 0.90258 0.0
H1270 H 0.62019 0.03446 0.97674 0.0
H1271 H 0.61259 0.04659 0.95201 0.0
H1272 H 0.59473 0.03329 0.88394 0.0
H1273 H 0.61407 0.04863 0.90856 0.0
H1274 H 0.59462 0.94785 0.92605 0.0
H1275 H 0.61448 0.96331 0.94983 0.0
H1276 H 0.56303 0.94196 0.91782 0.0
H1277 H 0.55239 0.9535 0.89613 0.0
C1278 C 0.62701 0.02338 0.11195 0.0
C1279 C 0.62254 0.02568 0.0845 0.0
C1280 C 0.59175 0.02934 0.09886 0.0
C1281 C 0.59655 0.02769 0.12645 0.0
N1282 N 0.62113 0.02759 0.15967 0.0
N1283 N 0.60382 0.03542 0.05198 0.0
C1284 C 0.61497 0.0261 0.13313 0.0
C1285 C 0.60603 0.03033 0.07807 0.0
N1286 N 0.64238 0.018 0.11769 0.0
N1287 N 0.57282 0.02854 0.09232 0.0
H1288 H 0.61364 0.03576 0.0361 0.0
H1289 H 0.59359 0.04117 0.04651 0.0
H1290 H 0.56163 0.02735 0.10677 0.0
H1291 H 0.56725 0.02713 0.07249 0.0
H1292 H 0.64467 0.01349 0.13693 0.0
H1293 H 0.6522 0.01699 0.10276 0.0
H1294 H 0.6355 0.02859 0.16576 0.0
H1295 H 0.6127 0.02967 0.17559 0.0
C1296 C 0.99094 0.607 0.11164 0.0
C1297 C 0.99115 0.60022 0.0846 0.0
C1298 C 0.99109 0.56804 0.1014 0.0
C1299 C 0.98964 0.57414 0.12847 0.0
N1300 N 0.98485 0.59748 0.15947 0.0
N1301 N 0.98761 0.57275 0.05326 0.0
C1302 C 0.98858 0.59309 0.13363 0.0
C1303 C 0.98998 0.58021 0.07937 0.0
N1304 N 0.99359 0.62699 0.11626 0.0
N1305 N 0.9946 0.55121 0.09677 0.0
H1306 H 0.98707 0.58138 0.03655 0.0
H1307 H 0.98432 0.55728 0.0483 0.0
H1308 H 0.99569 0.54194 0.1123 0.0
H1309 H 0.99827 0.54751 0.07775 0.0
H1310 H 0.99609 0.63398 0.13544 0.0
H1311 H 0.99459 0.63721 0.10058 0.0
H1312 H 0.98175 0.60983 0.16427 0.0
H1313 H 0.98322 0.58771 0.176 0.0
C1314 C 0.4317 0.41463 0.08294 0.0
C1315 C 0.41152 0.39634 0.08908 0.0
C1316 C 0.42034 0.40138 0.13774 0.0
C1317 C 0.43957 0.42086 0.13174 0.0
N1318 N 0.46204 0.44789 0.09909 0.0
N1319 N 0.38539 0.37316 0.122 0.0
C1320 C 0.44492 0.42793 0.10443 0.0
C1321 C 0.40549 0.38991 0.11642 0.0
N1322 N 0.43829 0.41923 0.05649 0.0
N1323 N 0.41657 0.3936 0.16369 0.0
H1324 H 0.37448 0.36396 0.10682 0.0
H1325 H 0.379 0.36916 0.14152 0.0
H1326 H 0.42706 0.40165 0.17974 0.0
H1327 H 0.40399 0.37847 0.16901 0.0
H1328 H 0.45378 0.43087 0.0508 0.0
H1329 H 0.42882 0.41023 0.04012 0.0
H1330 H 0.46532 0.45499 0.07997 0.0
H1331 H 0.47204 0.45827 0.1142 0.0
C1332 C 0.65459 0.73 0.42913 0.0
C1333 C 0.67436 0.73269 0.41882 0.0
C1334 C 0.69392 0.76318 0.44988 0.0
C1335 C 0.67425 0.75912 0.46202 0.0
N1336 N 0.63655 0.73344 0.46879 0.0
N1337 N 0.71223 0.74673 0.42793 0.0
C1338 C 0.6548 0.74077 0.45352 0.0
C1339 C 0.69386 0.74765 0.43191 0.0
N1340 N 0.63579 0.7186 0.41507 0.0
N1341 N 0.71247 0.78225 0.45396 0.0
H1342 H 0.7124 0.73436 0.41693 0.0
H1343 H 0.72641 0.75647 0.43857 0.0
H1344 H 0.71313 0.79491 0.46515 0.0
H1345 H 0.72667 0.78631 0.44353 0.0
H1346 H 0.62154 0.71799 0.42108 0.0
H1347 H 0.63479 0.71203 0.39589 0.0
H1348 H 0.62244 0.71912 0.46441 0.0
H1349 H 0.63636 0.74032 0.48742 0.0
C1350 C 0.26217 0.91627 0.41431 0.0
C1351 C 0.28389 0.93295 0.41705 0.0
C1352 C 0.28394 0.92247 0.46455 0.0
C1353 C 0.26164 0.90727 0.46241 0.0
N1354 N 0.22874 0.89113 0.43637 0.0
N1355 N 0.31519 0.95345 0.445 0.0
C1356 C 0.25055 0.90455 0.43757 0.0
C1357 C 0.2948 0.93639 0.44221 0.0
N1358 N 0.25288 0.91113 0.38916 0.0
N1359 N 0.29471 0.92338 0.48784 0.0
H1360 H 0.32365 0.96367 0.42893 0.0
H1361 H 0.32325 0.95834 0.46348 0.0
H1362 H 0.28706 0.91384 0.50475 0.0
H1363 H 0.31136 0.93247 0.48985 0.0
H1364 H 0.23798 0.89763 0.38519 0.0
H1365 H 0.26096 0.91929 0.37165 0.0
H1366 H 0.21934 0.89053 0.41994 0.0
H1367 H 0.21964 0.8816 0.4526 0.0
C1368 C 0.06616 0.34461 0.44457 0.0
C1369 C 0.07503 0.35279 0.41855 0.0
C1370 C 0.11135 0.36652 0.43701 0.0
C1371 C 0.10228 0.35532 0.46157 0.0
N1372 N 0.07106 0.33268 0.48871 0.0
N1373 N 0.10612 0.36963 0.38905 0.0
C1374 C 0.07967 0.34426 0.46549 0.0
C1375 C 0.09768 0.36355 0.41456 0.0
N1376 N 0.04488 0.33758 0.44935 0.0
N1377 N 0.13309 0.38006 0.43523 0.0
H1378 H 0.09679 0.36752 0.37187 0.0
H1379 H 0.12223 0.37517 0.38447 0.0
H1380 H 0.14354 0.38251 0.45131 0.0
H1381 H 0.14048 0.39035 0.41889 0.0
H1382 H 0.0378 0.33323 0.46848 0.0
H1383 H 0.03471 0.33807 0.43458 0.0
H1384 H 0.05465 0.32221 0.49144 0.0
H1385 H 0.08047 0.33249 0.50472 0.0
C1386 C 0.05513 0.32855 0.25605 0.0
C1387 C 0.05649 0.32028 0.2817 0.0
C1388 C 0.07857 0.30657 0.26132 0.0
C1389 C 0.08018 0.31797 0.23715 0.0
N1390 N 0.07061 0.34032 0.21112 0.0
N1391 N 0.07116 0.303 0.30959 0.0
C1392 C 0.06841 0.32891 0.23426 0.0
C1393 C 0.06834 0.30935 0.2845 0.0
N1394 N 0.04085 0.33571 0.2525 0.0
N1395 N 0.08698 0.29315 0.26208 0.0
H1396 H 0.06428 0.30494 0.32726 0.0
H1397 H 0.08177 0.29735 0.31333 0.0
H1398 H 0.09476 0.29096 0.24549 0.0
H1399 H 0.08447 0.28272 0.27813 0.0
H1400 H 0.03767 0.34021 0.23376 0.0
H1401 H 0.03064 0.33524 0.26796 0.0
H1402 H 0.06456 0.35075 0.20898 0.0
H1403 H 0.07957 0.34024 0.19443 0.0
C1404 C 0.68133 0.73063 0.25176 0.0
C1405 C 0.67945 0.73632 0.27886 0.0
C1406 C 0.6762 0.76679 0.26227 0.0
C1407 C 0.68003 0.7623 0.2354 0.0
N1408 N 0.68865 0.74161 0.20446 0.0
N1409 N 0.67918 0.76203 0.31042 0.0
C1410 C 0.68324 0.74464 0.23008 0.0
C1411 C 0.67795 0.75499 0.28426 0.0
N1412 N 0.68057 0.7115 0.2467 0.0
N1413 N 0.67033 0.782 0.26674 0.0
H1414 H 0.68082 0.75409 0.32716 0.0
H1415 H 0.68064 0.77682 0.3154 0.0
H1416 H 0.66895 0.7911 0.25122 0.0
H1417 H 0.66496 0.78427 0.28547 0.0
H1418 H 0.67952 0.70527 0.22728 0.0
H1419 H 0.67933 0.70099 0.26211 0.0
H1420 H 0.69348 0.73048 0.19977 0.0
H1421 H 0.68977 0.75132 0.18808 0.0
C1422 C 0.26985 0.95466 0.25637 0.0
C1423 C 0.26796 0.94417 0.2815 0.0
C1424 C 0.23714 0.91103 0.2638 0.0
C1425 C 0.24017 0.92093 0.23802 0.0
N1426 N 0.26007 0.95126 0.20853 0.0
N1427 N 0.25113 0.91193 0.30877 0.0
C1428 C 0.25667 0.94256 0.23398 0.0
C1429 C 0.25195 0.92223 0.28508 0.0
N1430 N 0.28424 0.97617 0.25398 0.0
N1431 N 0.21973 0.89102 0.26811 0.0
H1432 H 0.26069 0.91979 0.32553 0.0
H1433 H 0.24193 0.89535 0.31141 0.0
H1434 H 0.20889 0.88191 0.25286 0.0
H1435 H 0.21501 0.88397 0.28719 0.0
H1436 H 0.28499 0.98538 0.23729 0.0
H1437 H 0.29474 0.98524 0.26954 0.0
H1438 H 0.27317 0.96609 0.20332 0.0
H1439 H 0.25036 0.943 0.19197 0.0
C1440 C 0.68596 0.95366 0.25362 0.0
C1441 C 0.68343 0.94588 0.28062 0.0
C1442 C 0.6812 0.91252 0.26414 0.0
C1443 C 0.68488 0.92071 0.23724 0.0
N1444 N 0.6939 0.95007 0.20647 0.0
N1445 N 0.68261 0.92 0.31241 0.0
C1446 C 0.6882 0.94162 0.232 0.0
C1447 C 0.68227 0.92593 0.2861 0.0
N1448 N 0.6855 0.97216 0.2486 0.0
N1449 N 0.67579 0.89159 0.2686 0.0
H1450 H 0.68323 0.92935 0.32905 0.0
H1451 H 0.68418 0.90682 0.31778 0.0
H1452 H 0.67489 0.88121 0.25313 0.0
H1453 H 0.67047 0.88392 0.28726 0.0
H1454 H 0.6848 0.97748 0.22919 0.0
H1455 H 0.68446 0.9816 0.26405 0.0
H1456 H 0.69869 0.96598 0.2018 0.0
H1457 H 0.69537 0.94154 0.19018 0.0
C1458 C 0.05414 0.73446 0.25917 0.0
C1459 C 0.06062 0.74202 0.28609 0.0
C1460 C 0.09136 0.77514 0.26871 0.0
C1461 C 0.08424 0.76817 0.24172 0.0
N1462 N 0.05712 0.74304 0.21107 0.0
N1463 N 0.08298 0.77082 0.31683 0.0
C1464 C 0.06508 0.74833 0.23689 0.0
C1465 C 0.07842 0.76283 0.29093 0.0
N1466 N 0.03785 0.71384 0.25495 0.0
N1467 N 0.11109 0.79291 0.27314 0.0
H1468 H 0.07429 0.76203 0.33376 0.0
H1469 H 0.09422 0.78673 0.32139 0.0
H1470 H 0.12127 0.80226 0.2575 0.0
H1471 H 0.11827 0.79738 0.2922 0.0
H1472 H 0.03398 0.70644 0.23596 0.0
H1473 H 0.02893 0.70361 0.2708 0.0
H1474 H 0.04215 0.72987 0.20645 0.0
H1475 H 0.06477 0.75282 0.19434 0.0
C1476 C 0.27078 0.34668 0.27832 0.0
C1477 C 0.27287 0.32852 0.28521 0.0
C1478 C 0.24509 0.30728 0.25124 0.0
C1479 C 0.24532 0.32622 0.24225 0.0
N1480 N 0.26327 0.36452 0.24165 0.0
N1481 N 0.26567 0.29291 0.27248 0.0
C1482 C 0.26004 0.34618 0.25401 0.0
C1483 C 0.26114 0.30918 0.26994 0.0
N1484 N 0.277 0.3635 0.29599 0.0
N1485 N 0.22907 0.28747 0.24326 0.0
H1486 H 0.27814 0.29414 0.28462 0.0
H1487 H 0.25872 0.27928 0.26009 0.0
H1488 H 0.21639 0.28529 0.23082 0.0
H1489 H 0.2272 0.27322 0.25135 0.0
H1490 H 0.27386 0.37601 0.29254 0.0
H1491 H 0.28224 0.36351 0.31571 0.0
H1492 H 0.27482 0.37996 0.24788 0.0
H1493 H 0.27482 0.37996 0.24788 0.0
C1494 C 0.26983 0.35884 0.41329 0.0
C1495 C 0.28827 0.35718 0.41945 0.0
C1496 C 0.28181 0.35825 0.46831 0.0
C1497 C 0.26308 0.35947 0.46218 0.0
N1498 N 0.24075 0.36411 0.42936 0.0
N1499 N 0.31419 0.35891 0.45167 0.0
C1500 C 0.25767 0.36092 0.43479 0.0
C1501 C 0.29503 0.35808 0.44669 0.0
N1502 N 0.26337 0.35733 0.38683 0.0
N1503 N 0.28658 0.35673 0.49481 0.0
H1504 H 0.32404 0.35879 0.43611 0.0
H1505 H 0.32114 0.36125 0.4708 0.0
H1506 H 0.27784 0.35785 0.51109 0.0
H1507 H 0.29857 0.3535 0.50087 0.0
H1508 H 0.24865 0.35554 0.38089 0.0
H1509 H 0.27243 0.35689 0.37048 0.0
H1510 H 0.23748 0.3679 0.41023 0.0
H1511 H 0.23047 0.3642 0.44429 0.0
C1512 C 0.66802 0.94702 0.44326 0.0
C1513 C 0.65982 0.93701 0.4177 0.0
C1514 C 0.65229 0.90216 0.43622 0.0
C1515 C 0.66117 0.91233 0.46149 0.0
N1516 N 0.67396 0.94307 0.49106 0.0
N1517 N 0.64088 0.90479 0.39063 0.0
C1518 C 0.66787 0.93437 0.46564 0.0
C1519 C 0.65075 0.91443 0.41452 0.0
N1520 N 0.67635 0.96874 0.44581 0.0
N1521 N 0.64613 0.88091 0.43274 0.0
H1522 H 0.64037 0.9133 0.37381 0.0
H1523 H 0.63195 0.88822 0.38779 0.0
H1524 H 0.64598 0.87116 0.44851 0.0
H1525 H 0.64205 0.873 0.41411 0.0
H1526 H 0.68494 0.97772 0.46262 0.0
H1527 H 0.67512 0.97806 0.43047 0.0
H1528 H 0.67726 0.95848 0.49632 0.0
H1529 H 0.67443 0.93431 0.50766 0.0
C1530 C 0.09759 0.74807 0.41439 0.0
C1531 C 0.07783 0.72926 0.42051 0.0
C1532 C 0.08729 0.73367 0.46896 0.0
C1533 C 0.10601 0.75363 0.46309 0.0
N1534 N 0.12752 0.78152 0.43085 0.0
N1535 N 0.0526 0.70487 0.45335 0.0
C1536 C 0.11085 0.76124 0.43593 0.0
C1537 C 0.07234 0.7222 0.44775 0.0
N1538 N 0.10377 0.75326 0.38789 0.0
N1539 N 0.08409 0.7255 0.49469 0.0
H1540 H 0.04164 0.69572 0.43819 0.0
H1541 H 0.04653 0.7003 0.47292 0.0
H1542 H 0.09464 0.73357 0.51066 0.0
H1543 H 0.07195 0.71009 0.49982 0.0
H1544 H 0.11901 0.7654 0.38208 0.0
H1545 H 0.09429 0.74427 0.37153 0.0
H1546 H 0.13033 0.78895 0.41197 0.0
H1547 H 0.13758 0.79176 0.44601 0.0
C1548 C 0.35679 0.07698 0.7694 0.0
C1549 C 0.33721 0.06227 0.75627 0.0
C1550 C 0.31791 0.07107 0.79057 0.0
C1551 C 0.33753 0.08909 0.79925 0.0
N1552 N 0.37591 0.1115 0.79162 0.0
N1553 N 0.29884 0.04916 0.75198 0.0
C1554 C 0.35713 0.09268 0.78734 0.0
C1555 C 0.31758 0.06015 0.76629 0.0
N1556 N 0.37498 0.0757 0.76546 0.0
N1557 N 0.29959 0.06423 0.80555 0.0
H1558 H 0.29783 0.04261 0.7328 0.0
H1559 H 0.28473 0.04895 0.75776 0.0
H1560 H 0.29944 0.07127 0.82407 0.0
H1561 H 0.2853 0.05011 0.80107 0.0
H1562 H 0.38916 0.08521 0.77623 0.0
H1563 H 0.37506 0.06336 0.75428 0.0
H1564 H 0.39009 0.11531 0.78133 0.0
H1565 H 0.37681 0.12426 0.80285 0.0
C1566 C 0.93085 0.24642 0.74639 0.0
C1567 C 0.94974 0.26635 0.75161 0.0
C1568 C 0.94507 0.25918 0.80065 0.0
C1569 C 0.92507 0.24029 0.7955 0.0
N1570 N 0.89719 0.21752 0.76386 0.0
N1571 N 0.97405 0.29304 0.78328 0.0
C1572 C 0.91753 0.23427 0.76844 0.0
C1573 C 0.95669 0.2731 0.77865 0.0
N1574 N 0.92572 0.23905 0.72027 0.0
N1575 N 0.95317 0.26351 0.82646 0.0
H1576 H 0.98332 0.30325 0.7676 0.0
H1577 H 0.97852 0.3 0.80248 0.0
H1578 H 0.94498 0.25375 0.843 0.0
H1579 H 0.96861 0.27578 0.83123 0.0
H1580 H 0.91349 0.22362 0.7153 0.0
H1581 H 0.93484 0.2477 0.70352 0.0
H1582 H 0.88983 0.21389 0.74487 0.0
H1583 H 0.88681 0.20827 0.77941 0.0
C1584 C 0.76334 0.69233 0.74322 0.0
C1585 C 0.74086 0.68331 0.74753 0.0
C1586 C 0.74515 0.67591 0.79515 0.0
C1587 C 0.76762 0.68522 0.79087 0.0
N1588 N 0.79881 0.70711 0.76335 0.0
N1589 N 0.71121 0.67144 0.77886 0.0
C1590 C 0.77692 0.69507 0.7657 0.0
C1591 C 0.73204 0.67666 0.77396 0.0
N1592 N 0.77157 0.69693 0.71746 0.0
N1593 N 0.73622 0.66558 0.81902 0.0
H1594 H 0.70135 0.67223 0.76388 0.0
H1595 H 0.70436 0.66835 0.79816 0.0
H1596 H 0.74538 0.66517 0.83521 0.0
H1597 H 0.7197 0.65625 0.82219 0.0
H1598 H 0.78734 0.70107 0.71278 0.0
H1599 H 0.76227 0.69494 0.7003 0.0
H1600 H 0.80655 0.7165 0.74642 0.0
H1601 H 0.8092 0.70934 0.77941 0.0
C1602 C 0.71739 0.65459 0.58666 0.0
C1603 C 0.71879 0.64702 0.61278 0.0
C1604 C 0.74143 0.63343 0.59377 0.0
C1605 C 0.7432 0.64447 0.56924 0.0
N1606 N 0.73339 0.66605 0.54194 0.0
N1607 N 0.7339 0.63081 0.64195 0.0
C1608 C 0.73107 0.65494 0.5654 0.0
C1609 C 0.73093 0.63646 0.61649 0.0
N1610 N 0.70278 0.6612 0.58221 0.0
N1611 N 0.75001 0.6202 0.59536 0.0
H1612 H 0.72696 0.63303 0.65937 0.0
H1613 H 0.74471 0.62552 0.64619 0.0
H1614 H 0.75791 0.61781 0.57904 0.0
H1615 H 0.74746 0.61005 0.61175 0.0
H1616 H 0.69957 0.66512 0.5631 0.0
H1617 H 0.69233 0.66077 0.59733 0.0
H1618 H 0.72705 0.67618 0.53918 0.0
H1619 H 0.74275 0.66607 0.52567 0.0
C1620 C 0.36303 0.08102 0.60343 0.0
C1621 C 0.34327 0.06447 0.61446 0.0
C1622 C 0.32376 0.07558 0.58372 0.0
C1623 C 0.34332 0.09036 0.57066 0.0
N1624 N 0.38063 0.10112 0.56289 0.0
N1625 N 0.30502 0.04142 0.6067 0.0
C1626 C 0.36265 0.09106 0.57876 0.0
C1627 C 0.32366 0.06025 0.60195 0.0
N1628 N 0.38202 0.08847 0.61707 0.0
N1629 N 0.3055 0.07679 0.58025 0.0
H1630 H 0.30451 0.02888 0.61795 0.0
H1631 H 0.29075 0.03725 0.59641 0.0
H1632 H 0.30506 0.08884 0.56899 0.0
H1633 H 0.29146 0.0673 0.5913 0.0
H1634 H 0.3963 0.1017 0.61042 0.0
H1635 H 0.38319 0.08354 0.63653 0.0
H1636 H 0.3946 0.10055 0.56706 0.0
H1637 H 0.38067 0.10777 0.54406 0.0
C1638 C 0.94145 0.28485 0.58932 0.0
C1639 C 0.93523 0.2785 0.61663 0.0
C1640 C 0.9019 0.24692 0.60123 0.0
C1641 C 0.90749 0.25385 0.57392 0.0
N1642 N 0.93068 0.28094 0.54191 0.0
N1643 N 0.90819 0.25592 0.64913 0.0
C1644 C 0.92674 0.2733 0.56793 0.0
C1645 C 0.91498 0.26031 0.62272 0.0
N1646 N 0.96161 0.30155 0.58386 0.0
N1647 N 0.88468 0.22703 0.6066 0.0
H1648 H 0.91752 0.26509 0.66548 0.0
H1649 H 0.89265 0.24433 0.65473 0.0
H1650 H 0.87475 0.21659 0.59149 0.0
H1651 H 0.88125 0.22003 0.62579 0.0
H1652 H 0.96811 0.30549 0.56439 0.0
H1653 H 0.97242 0.31078 0.59909 0.0
H1654 H 0.94331 0.29603 0.53656 0.0
H1655 H 0.9203 0.27281 0.52581 0.0
C1656 C 0.34694 0.28354 0.59005 0.0
C1657 C 0.34613 0.27667 0.61724 0.0
C1658 C 0.34439 0.24345 0.60114 0.0
C1659 C 0.34659 0.25088 0.57396 0.0
N1660 N 0.35312 0.27917 0.54247 0.0
N1661 N 0.34797 0.25223 0.64915 0.0
C1662 C 0.34878 0.2713 0.56837 0.0
C1663 C 0.34607 0.25727 0.6229 0.0
N1664 N 0.34528 0.30139 0.58496 0.0
N1665 N 0.33972 0.2228 0.60611 0.0
H1666 H 0.349 0.26185 0.66567 0.0
H1667 H 0.35041 0.23955 0.65441 0.0
H1668 H 0.33815 0.21205 0.59078 0.0
H1669 H 0.33553 0.21566 0.6252 0.0
H1670 H 0.34328 0.30592 0.5656 0.0
H1671 H 0.34455 0.31101 0.60039 0.0
H1672 H 0.35706 0.2948 0.53744 0.0
H1673 H 0.35435 0.27053 0.52615 0.0
C1674 C 0.72061 0.06675 0.59048 0.0
C1675 C 0.72707 0.07417 0.61745 0.0
C1676 C 0.75815 0.10712 0.60033 0.0
C1677 C 0.75105 0.10034 0.57329 0.0
N1678 N 0.7239 0.07554 0.54242 0.0
N1679 N 0.74951 0.10278 0.64837 0.0
C1680 C 0.73177 0.08065 0.56829 0.0
C1681 C 0.74502 0.09485 0.62244 0.0
N1682 N 0.70413 0.04625 0.58613 0.0
N1683 N 0.778 0.12467 0.60492 0.0
H1684 H 0.74059 0.09407 0.6652 0.0
H1685 H 0.7609 0.11863 0.65301 0.0
H1686 H 0.78831 0.13399 0.58937 0.0
H1687 H 0.78511 0.12896 0.62404 0.0
H1688 H 0.70018 0.03894 0.56709 0.0
H1689 H 0.69512 0.03601 0.60193 0.0
H1690 H 0.70887 0.06251 0.53767 0.0
H1691 H 0.73172 0.08534 0.52576 0.0
C1692 C 0.9285 0.64167 0.60264 0.0
C1693 C 0.93978 0.66102 0.61799 0.0
C1694 C 0.92722 0.67845 0.58602 0.0
C1695 C 0.91255 0.65827 0.57441 0.0
N1696 N 0.89682 0.61956 0.57557 0.0
N1697 N 0.9438 0.69609 0.62791 0.0
C1698 C 0.91254 0.6395 0.58366 0.0
C1699 C 0.93762 0.67904 0.61063 0.0
N1700 N 0.9334 0.62566 0.60533 0.0
N1701 N 0.93118 0.6971 0.57367 0.0
H1702 H 0.94884 0.69628 0.64779 0.0
H1703 H 0.94092 0.70869 0.6238 0.0
H1704 H 0.92442 0.69729 0.55498 0.0
H1705 H 0.94301 0.7122 0.58053 0.0
H1706 H 0.92676 0.61205 0.59291 0.0
H1707 H 0.94591 0.62713 0.61758 0.0
H1708 H 0.89506 0.60543 0.58392 0.0
H1709 H 0.88432 0.61711 0.56261 0.0
C1710 C 0.9464 0.70112 0.75105 0.0
C1711 C 0.95783 0.68986 0.75481 0.0
C1712 C 0.94399 0.68062 0.80143 0.0
C1713 C 0.93213 0.69135 0.79736 0.0
N1714 N 0.92641 0.71659 0.77176 0.0
N1715 N 0.97216 0.67392 0.78517 0.0
C1716 C 0.93492 0.70329 0.7733 0.0
C1717 C 0.95816 0.68129 0.78064 0.0
N1718 N 0.94519 0.70836 0.72581 0.0
N1719 N 0.94095 0.669 0.82462 0.0
H1720 H 0.98288 0.67454 0.77033 0.0
H1721 H 0.97458 0.66907 0.80411 0.0
H1722 H 0.93127 0.66881 0.8406 0.0
H1723 H 0.94708 0.65871 0.82752 0.0
H1724 H 0.9349 0.71419 0.72106 0.0
H1725 H 0.95343 0.70728 0.70897 0.0
H1726 H 0.92959 0.72733 0.75589 0.0
H1727 H 0.91773 0.7183 0.78767 0.0
C1728 C 0.31597 0.24678 0.75191 0.0
C1729 C 0.32541 0.26941 0.75494 0.0
C1730 C 0.33448 0.26691 0.80248 0.0
C1731 C 0.32739 0.24478 0.79836 0.0
N1732 N 0.31119 0.21316 0.76998 0.0
N1733 N 0.3429 0.30128 0.7827 0.0
C1734 C 0.31779 0.23451 0.77339 0.0
C1735 C 0.33428 0.27951 0.78025 0.0
N1736 N 0.30545 0.23708 0.72835 0.0
N1737 N 0.3413 0.27575 0.82771 0.0
H1738 H 0.34143 0.31057 0.76752 0.0
H1739 H 0.35192 0.3103 0.79923 0.0
H1740 H 0.34205 0.26702 0.84417 0.0
H1741 H 0.34495 0.29125 0.83301 0.0
H1742 H 0.29628 0.22051 0.72568 0.0
H1743 H 0.30466 0.24558 0.71168 0.0
H1744 H 0.30653 0.20511 0.75146 0.0
H1745 H 0.31121 0.20342 0.78567 0.0
C1746 C 0.76079 0.08314 0.74804 0.0
C1747 C 0.7427 0.06251 0.75285 0.0
C1748 C 0.75317 0.06472 0.80076 0.0
C1749 C 0.76998 0.08618 0.79646 0.0
N1750 N 0.78816 0.11704 0.76704 0.0
N1751 N 0.7202 0.03415 0.78381 0.0
C1752 C 0.77339 0.09571 0.77034 0.0
C1753 C 0.73853 0.05335 0.77922 0.0
N1754 N 0.76621 0.09048 0.72197 0.0
N1755 N 0.75151 0.05511 0.82529 0.0
H1756 H 0.70947 0.02523 0.76834 0.0
H1757 H 0.71489 0.02769 0.80306 0.0
H1758 H 0.76176 0.06312 0.84155 0.0
H1759 H 0.74106 0.03885 0.82898 0.0
H1760 H 0.78048 0.10432 0.7168 0.0
H1761 H 0.75735 0.08172 0.7051 0.0
H1762 H 0.78963 0.12554 0.74931 0.0
H1763 H 0.79787 0.12682 0.78277 0.0
C1764 C 0.05618 0.34534 0.07455 0.0
C1765 C 0.06227 0.35648 0.04936 0.0
C1766 C 0.09697 0.35741 0.05131 0.0
C1767 C 0.09046 0.34542 0.07581 0.0
N1768 N 0.06233 0.32404 0.10774 0.0
N1769 N 0.08629 0.36909 0.01095 0.0
C1770 C 0.06953 0.33811 0.08644 0.0
C1771 C 0.08204 0.3613 0.03689 0.0
N1772 N 0.03834 0.34279 0.088 0.0
N1773 N 0.11769 0.36581 0.04237 0.0
H1774 H 0.07555 0.37181 0.99971 0.0
H1775 H 0.0994 0.37092 0.99967 0.0
H1776 H 0.12901 0.3631 0.05215 0.0
H1777 H 0.12415 0.37675 0.02644 0.0
H1778 H 0.03455 0.3371 0.10784 0.0
H1779 H 0.02822 0.34805 0.08036 0.0
H1780 H 0.04647 0.31632 0.11457 0.0
H1781 H 0.07175 0.31855 0.11709 0.0
C1782 C 0.64819 0.70574 0.07731 0.0
C1783 C 0.65101 0.7051 0.04882 0.0
C1784 C 0.66608 0.74424 0.04635 0.0
C1785 C 0.66114 0.74445 0.07427 0.0
N1786 N 0.64562 0.72538 0.11599 0.0
N1787 N 0.66101 0.72302 0.00555 0.0
C1788 C 0.65173 0.72519 0.08969 0.0
C1789 C 0.65968 0.7242 0.03315 0.0
N1790 N 0.64278 0.68787 0.09266 0.0
N1791 N 0.6772 0.76326 0.03265 0.0
H1792 H 0.65686 0.70868 0.99539 0.0
H1793 H 0.66491 0.73586 0.99253 0.0
H1794 H 0.68174 0.77813 0.04159 0.0
H1795 H 0.6833 0.76452 0.01312 0.0
H1796 H 0.64274 0.68788 0.1138 0.0
H1797 H 0.64014 0.67335 0.08435 0.0
H1798 H 0.63636 0.71151 0.12731 0.0
H1799 H 0.64848 0.73939 0.12607 0.0
C1800 C 0.28052 0.93649 0.03781 0.0
C1801 C 0.29965 0.94616 0.05353 0.0
C1802 C 0.27874 0.9292 0.09486 0.0
C1803 C 0.25994 0.91791 0.07872 0.0
N1804 N 0.24254 0.90955 0.03503 0.0
N1805 N 0.31765 0.9517 0.09662 0.0
C1806 C 0.2607 0.92132 0.05024 0.0
C1807 C 0.29892 0.94256 0.08199 0.0
N1808 N 0.28135 0.94189 0.01104 0.0
N1809 N 0.27718 0.92737 0.12255 0.0
H1810 H 0.33253 0.96277 0.08839 0.0
H1811 H 0.31875 0.94769 0.11662 0.0
H1812 H 0.26284 0.91719 0.13264 0.0
H1813 H 0.28966 0.93688 0.1358 0.0
H1814 H 0.26783 0.93723 0.99899 0.0
H1815 H 0.29569 0.95235 1.00113 0.0
H1816 H 0.24234 0.90933 0.0139 0.0
H1817 H 0.22762 0.89892 0.04357 0.0
C1818 C 0.34708 0.06843 0.99749 0.0
C1819 C 0.35641 0.05859 0.98172 0.0
C1820 C 0.35588 0.07831 0.94132 0.0
C1821 C 0.34602 0.08774 0.95687 0.0
N1822 N 0.32873 0.08922 0.99815 0.0
N1823 N 0.36529 0.05027 0.93774 0.0
C1824 C 0.3405 0.08196 0.9845 0.0
C1825 C 0.35949 0.06238 0.95334 0.0
N1826 N 0.34539 0.06557 0.02501 0.0
N1827 N 0.36253 0.08516 0.91533 0.0
H1828 H 0.36794 0.03835 0.9458 0.0
H1829 H 0.36557 0.05059 0.9166 0.0
H1830 H 0.35975 0.09642 0.90552 0.0
H1831 H 0.37212 0.08087 0.90409 0.0
H1832 H 0.34101 0.07415 0.03813 0.0
H1833 H 0.34973 0.05551 0.03506 0.0
H1834 H 0.3223 0.08397 0.01744 0.0
H1835 H 0.32391 0.09933 0.98927 0.0
C1836 C 0.94565 0.30142 0.95671 0.0
C1837 C 0.94927 0.30168 0.9851 0.0
C1838 C 0.92698 0.26227 0.98638 0.0
C1839 C 0.92163 0.26229 0.9586 0.0
N1840 N 0.92405 0.28178 0.9177 0.0
N1841 N 0.94242 0.28298 0.02769 0.0
C1842 C 0.93053 0.28185 0.94384 0.0
C1843 C 0.93979 0.28224 1.00013 0.0
N1844 N 0.95726 0.31981 0.94188 0.0
N1845 N 0.92004 0.24311 0.99941 0.0
H1846 H 0.95204 0.29728 0.03823 0.0
H1847 H 0.93409 0.26975 0.04036 0.0
H1848 H 0.91029 0.22826 0.99009 0.0
H1849 H 0.92512 0.24178 0.01873 0.0
H1850 H 0.95717 0.32024 0.92075 0.0
H1851 H 0.96853 0.33445 0.95053 0.0
H1852 H 0.92786 0.2957 0.90691 0.0
H1853 H 0.91356 0.26773 0.90725 0.0
C1854 C 0.71456 0.66004 0.95663 0.0
C1855 C 0.70976 0.64878 0.98172 0.0
C1856 C 0.74346 0.64776 0.97863 0.0
C1857 C 0.74871 0.6599 0.95427 0.0
N1858 N 0.74159 0.6813 0.92289 0.0
N1859 N 0.72144 0.63579 0.01937 0.0
C1860 C 0.73498 0.66723 0.94419 0.0
C1861 C 0.72478 0.64379 0.99354 0.0
N1862 N 0.69918 0.66276 0.94383 0.0
N1863 N 0.75589 0.63933 0.987 0.0
H1864 H 0.70808 0.63298 0.03095 0.0
H1865 H 0.73279 0.63383 0.03023 0.0
H1866 H 0.76984 0.64213 0.97687 0.0
H1867 H 0.75157 0.62829 1.00278 0.0
H1868 H 0.70083 0.66854 0.92408 0.0
H1869 H 0.68394 0.65759 0.95196 0.0
H1870 H 0.73339 0.68906 0.91645 0.0
H1871 H 0.75632 0.68669 0.91308 0.0
C1872 C 0.92767 0.64543 0.99538 0.0
C1873 C 0.94753 0.65019 0.98323 0.0
C1874 C 0.94057 0.66845 0.94572 0.0
C1875 C 0.9196 0.66127 0.95611 0.0
N1876 N 0.8921 0.64097 0.98931 0.0
N1877 N 0.97174 0.6637 0.94485 0.0
C1878 C 0.91288 0.64933 0.98065 0.0
C1879 C 0.95381 0.66123 0.95798 0.0
N1880 N 0.92321 0.63769 0.02134 0.0
N1881 N 0.94793 0.6824 0.92429 0.0
H1882 H 0.9818 0.65847 0.95283 0.0
H1883 H 0.97571 0.6693 0.925 0.0
H1884 H 0.9386 0.68787 0.91468 0.0
H1885 H 0.96382 0.69002 0.91758 0.0
H1886 H 0.91004 0.63592 0.03241 0.0
H1887 H 0.93382 0.63493 0.0328 0.0
H1888 H 0.88551 0.63006 0.00525 0.0
H1889 H 0.88086 0.64366 0.97928 0.0
C1890 C 0.36595 0.28743 1.00115 0.0
C1891 C 0.36046 0.30197 0.98894 0.0
C1892 C 0.34509 0.27773 0.94958 0.0
C1893 C 0.35079 0.26332 0.9617 0.0
N1894 N 0.36391 0.25253 1.00011 0.0
N1895 N 0.34271 0.31029 0.95328 0.0
C1896 C 0.36035 0.26758 0.9879 0.0
C1897 C 0.34923 0.29681 0.96376 0.0
N1898 N 0.37691 0.29286 0.02525 0.0
N1899 N 0.33636 0.27344 0.92406 0.0
H1900 H 0.34667 0.32509 0.9619 0.0
H1901 H 0.33243 0.3065 0.93674 0.0
H1902 H 0.33204 0.25913 0.91372 0.0
H1903 H 0.33416 0.28426 0.91241 0.0
H1904 H 0.3838 0.28451 0.03387 0.0
H1905 H 0.37981 0.3064 0.03649 0.0
H1906 H 0.36876 0.25339 0.02018 0.0
H1907 H 0.36087 0.23828 0.99058 0.0
C1908 C 0.73395 0.07861 0.00642 0.0
C1909 C 0.71956 0.05846 0.99417 0.0
C1910 C 0.74936 0.06144 0.96661 0.0
C1911 C 0.76151 0.0837 0.97268 0.0
N1912 N 0.77085 0.10815 0.01023 0.0
N1913 N 0.7138 0.031 0.96103 0.0
C1914 C 0.75543 0.09082 0.9963 0.0
C1915 C 0.72733 0.04987 0.97394 0.0
N1916 N 0.72699 0.08622 0.02728 0.0
N1917 N 0.75944 0.0504 0.95912 0.0
H1918 H 0.69736 0.02202 0.96507 0.0
H1919 H 0.71882 0.02539 0.94457 0.0
H1920 H 0.77593 0.05695 0.96221 0.0
H1921 H 0.7512 0.03381 0.95588 0.0
H1922 H 0.73568 0.10185 0.0348 0.0
H1923 H 0.71204 0.07701 0.03659 0.0
H1924 H 0.76825 0.11346 0.0288 0.0
H1925 H 0.787 0.11581 0.00434 0.0
C1926 C 0.65717 0.93579 0.03568 0.0
C1927 C 0.65017 0.94747 0.05201 0.0
C1928 C 0.65279 0.9294 0.09291 0.0
C1929 C 0.66065 0.91836 0.07678 0.0
N1930 N 0.67356 0.91321 0.03377 0.0
N1931 N 0.64525 0.95875 0.09635 0.0
C1932 C 0.66381 0.92222 0.0484 0.0
C1933 C 0.64913 0.94524 0.0807 0.0
N1934 N 0.65672 0.93712 0.00802 0.0
N1935 N 0.64819 0.92424 0.11976 0.0
H1936 H 0.64247 0.97055 0.08816 0.0
H1937 H 0.6466 0.95959 0.11742 0.0
H1938 H 0.65108 0.91308 0.12963 0.0
H1939 H 0.64006 0.92982 0.13186 0.0
H1940 H 0.65928 0.92727 0.9948 0.0
H1941 H 0.65237 0.94724 0.99814 0.0
H1942 H 0.67838 0.91706 0.01364 0.0
H1943 H 0.67832 0.90297 0.0424 0.0
C1944 C 0.05776 0.70688 0.07934 0.0
C1945 C 0.059 0.70562 0.05067 0.0
C1946 C 0.08629 0.74396 0.04901 0.0
C1947 C 0.08677 0.7446 0.07786 0.0
N1948 N 0.07484 0.72623 0.1208 0.0
N1949 N 0.0753 0.72207 0.00803 0.0
C1950 C 0.07289 0.72597 0.09314 0.0
C1951 C 0.07346 0.72395 0.03541 0.0
N1952 N 0.04199 0.68983 0.09335 0.0
N1953 N 0.0977 0.76262 0.03466 0.0
H1954 H 0.06555 0.70788 0.99735 0.0
H1955 H 0.08725 0.73408 0.99613 0.0
H1956 H 0.10724 0.77752 0.04397 0.0
H1957 H 0.09641 0.7637 0.01374 0.0
H1958 H 0.0387 0.6905 0.11383 0.0
H1959 H 0.03093 0.67542 0.08402 0.0
H1960 H 0.06698 0.71255 0.13287 0.0
H1961 H 0.08565 0.73988 0.13169 0.0
C1962 C 0.28863 0.36534 0.04426 0.0
C1963 C 0.30308 0.35996 0.05692 0.0
C1964 C 0.27686 0.34173 0.09357 0.0
C1965 C 0.26357 0.34927 0.08251 0.0
N1966 N 0.2576 0.37017 0.049 0.0
N1967 N 0.31239 0.34557 0.09555 0.0
C1968 C 0.26963 0.36154 0.05823 0.0
C1969 C 0.29752 0.34865 0.082 0.0
N1970 N 0.29278 0.3735 0.01849 0.0
N1971 N 0.26958 0.3277 0.11492 0.0
H1972 H 0.32774 0.35047 0.08798 0.0
H1973 H 0.31021 0.33973 0.11533 0.0
H1974 H 0.25469 0.32255 0.12417 0.0
H1975 H 0.27743 0.31977 0.12201 0.0
H1976 H 0.28187 0.37572 0.007 0.0
H1977 H 0.3064 0.37623 0.00756 0.0
H1978 H 0.26246 0.3813 0.03326 0.0
H1979 H 0.24342 0.36746 0.05842 0.0
C1980 C 0.75317 0.71111 0.39444 0.0
C1981 C 0.73545 0.69603 0.37843 0.0
C1982 C 0.74224 0.66752 0.39445 0.0
C1983 C 0.76151 0.68314 0.40732 0.0
N1984 N 0.78833 0.72075 0.41171 0.0
N1985 N 0.71729 0.66067 0.35771 0.0
C1986 C 0.76796 0.70524 0.40478 0.0
C1987 C 0.73118 0.67442 0.37678 0.0
N1988 N 0.7553 0.73051 0.40155 0.0
N1989 N 0.73394 0.64615 0.39982 0.0
H1990 H 0.71006 0.66543 0.34304 0.0
H1991 H 0.71508 0.64533 0.35438 0.0
H1992 H 0.74097 0.64042 0.41351 0.0
H1993 H 0.71888 0.63437 0.39284 0.0
H1994 H 0.76704 0.74102 0.4151 0.0
H1995 H 0.74389 0.73496 0.39707 0.0
H1996 H 0.79421 0.73705 0.40798 0.0
H1997 H 0.80004 0.71717 0.41816 0.0
C1998 C 0.31529 0.03846 0.41187 0.0
C1999 C 0.31787 0.03808 0.38331 0.0
C2000 C 0.33347 0.07732 0.38166 0.0
C2001 C 0.32857 0.07727 0.40964 0.0
N2002 N 0.31309 0.05778 0.45114 0.0
N2003 N 0.32806 0.0565 0.34037 0.0
C2004 C 0.31911 0.05784 0.42473 0.0
C2005 C 0.32678 0.05738 0.36802 0.0
N2006 N 0.30978 0.02038 0.42681 0.0
N2007 N 0.34479 0.09648 0.36831 0.0
H2008 H 0.32371 0.04224 0.32989 0.0
H2009 H 0.33212 0.06954 0.32764 0.0
H2010 H 0.34962 0.11128 0.37765 0.0
H2011 H 0.3508 0.0979 0.3487 0.0
H2012 H 0.30987 0.02016 0.44796 0.0
H2013 H 0.30695 0.0059 0.41814 0.0
H2014 H 0.30376 0.0438 0.46223 0.0
H2015 H 0.31613 0.07171 0.46156 0.0
C2016 C 0.96748 0.27744 0.417 0.0
C2017 C 0.9682 0.28016 0.38839 0.0
C2018 C 0.92909 0.25606 0.38579 0.0
C2019 C 0.92878 0.25164 0.41394 0.0
N2020 N 0.94761 0.2564 0.4562 0.0
N2021 N 0.95046 0.2711 0.34493 0.0
C2022 C 0.94796 0.26193 0.42955 0.0
C2023 C 0.94917 0.26933 0.3726 0.0
N2024 N 0.98537 0.29016 0.43224 0.0
N2025 N 0.91013 0.24781 0.37183 0.0
H2026 H 0.96482 0.28102 0.3347 0.0
H2027 H 0.93769 0.26177 0.33194 0.0
H2028 H 0.89521 0.23771 0.38076 0.0
H2029 H 0.90894 0.25215 0.35203 0.0
H2030 H 0.98537 0.29068 0.45337 0.0
H2031 H 0.99995 0.30167 0.42374 0.0
H2032 H 0.9614 0.26136 0.46785 0.0
H2033 H 0.93353 0.24558 0.46634 0.0
C2034 C 0.01637 0.40445 0.3318 0.0
C2035 C 0.02516 0.39424 0.31574 0.0
C2036 C 0.02358 0.41328 0.2752 0.0
C2037 C 0.01408 0.42292 0.29103 0.0
N2038 N 0.99824 0.42544 0.33308 0.0
N2039 N 0.0332 0.38538 0.27158 0.0
C2040 C 0.00947 0.41779 0.31897 0.0
C2041 C 0.02763 0.39764 0.28725 0.0
N2042 N 0.01546 0.4021 0.3594 0.0
N2043 N 0.02927 0.41951 0.24882 0.0
H2044 H 0.0362 0.37369 0.27966 0.0
H2045 H 0.03303 0.38537 0.25044 0.0
H2046 H 0.02596 0.43039 0.23897 0.0
H2047 H 0.03857 0.41508 0.23717 0.0
H2048 H 0.01152 0.41096 0.37263 0.0
H2049 H 0.02005 0.39221 0.36936 0.0
H2050 H 0.99235 0.42056 0.35267 0.0
H2051 H 0.99338 0.4356 0.32444 0.0
C2052 C 0.61018 0.61626 0.33573 0.0
C2053 C 0.62286 0.63498 0.32002 0.0
C2054 C 0.60635 0.61475 0.2781 0.0
C2055 C 0.59431 0.5958 0.29372 0.0
N2056 N 0.58709 0.57739 0.33662 0.0
N2057 N 0.63572 0.65169 0.27632 0.0
C2058 C 0.59692 0.59623 0.32235 0.0
C2059 C 0.62183 0.63406 0.29119 0.0
N2060 N 0.61052 0.61777 0.36343 0.0
N2061 N 0.60231 0.61449 0.25091 0.0
H2062 H 0.64673 0.66637 0.28511 0.0
H2063 H 0.6375 0.65142 0.25536 0.0
H2064 H 0.59132 0.60063 0.24051 0.0
H2065 H 0.60861 0.62825 0.23893 0.0
H2066 H 0.59991 0.6054 0.37611 0.0
H2067 H 0.62074 0.63197 0.37382 0.0
H2068 H 0.59 0.57618 0.35706 0.0
H2069 H 0.57717 0.5625 0.32747 0.0
C2070 C 0.37745 0.98647 0.28475 0.0
C2071 C 0.37585 0.98329 0.3133 0.0
C2072 C 0.41404 0.99364 0.31525 0.0
C2073 C 0.41499 0.9945 0.28641 0.0
N2074 N 0.39705 0.98924 0.24331 0.0
N2075 N 0.3917 0.98198 0.35579 0.0
C2076 C 0.39657 0.99039 0.27103 0.0
C2077 C 0.39392 0.98641 0.3286 0.0
N2078 N 0.36069 0.98588 0.27079 0.0
N2079 N 0.43251 1.0003 0.32985 0.0
H2080 H 0.37744 0.97751 0.36634 0.0
H2081 H 0.40347 0.98147 0.36757 0.0
H2082 H 0.44749 0.00571 0.32074 0.0
H2083 H 0.43337 1.00216 0.35087 0.0
H2084 H 0.36167 0.99038 0.25052 0.0
H2085 H 0.34624 0.98256 0.28003 0.0
H2086 H 0.3835 0.98391 0.23108 0.0
H2087 H 0.4107 0.99198 0.23247 0.0
C2088 C 0.61394 0.98266 0.28399 0.0
C2089 C 0.61628 0.98485 0.31264 0.0
C2090 C 0.59274 1.00062 0.31399 0.0
C2091 C 0.58865 0.99633 0.28578 0.0
N2092 N 0.59378 0.98183 0.244 0.0
N2093 N 0.60719 0.99448 0.35552 0.0
C2094 C 0.59891 0.98704 0.27076 0.0
C2095 C 0.60561 0.9936 0.32782 0.0
N2096 N 0.62655 0.9769 0.26937 0.0
N2097 N 0.58454 0.01167 0.3274 0.0
H2098 H 0.61692 0.99 0.36614 0.0
H2099 H 0.59798 0.99839 0.36814 0.0
H2100 H 0.5747 0.01661 0.31801 0.0
H2101 H 0.58863 0.0173 0.34723 0.0
H2102 H 0.62736 0.97721 0.24825 0.0
H2103 H 0.63767 0.97349 0.27837 0.0
H2104 H 0.59864 0.97269 0.23271 0.0
H2105 H 0.58344 0.98546 0.23334 0.0
C2106 C 0.01935 0.61723 0.33359 0.0
C2107 C 0.02615 0.6362 0.31813 0.0
C2108 C 0.02259 0.61622 0.27601 0.0
C2109 C 0.01504 0.59705 0.29135 0.0
N2110 N 1.0028 0.57826 0.3339 0.0
N2111 N 0.03042 0.65328 0.27467 0.0
C2112 C 0.01238 0.59725 0.31994 0.0
C2113 C 0.02661 0.63553 0.28932 0.0
N2114 N 0.02026 0.61848 0.36132 0.0
N2115 N 0.02665 0.61613 0.24886 0.0
H2116 H 0.03355 0.66773 0.28372 0.0
H2117 H 0.02871 0.65322 0.25368 0.0
H2118 H 0.02355 0.60226 0.23826 0.0
H2119 H 0.03452 0.63002 0.23714 0.0
H2120 H 0.01792 0.60582 0.37384 0.0
H2121 H 0.02472 0.63273 0.37188 0.0
H2122 H 0.99836 0.57694 0.35425 0.0
H2123 H 0.99775 0.56341 0.32456 0.0
C2124 C 0.38278 0.39457 0.2908 0.0
C2125 C 0.38163 0.3939 0.3196 0.0
C2126 C 0.42031 0.41996 0.32226 0.0
C2127 C 0.42088 0.4224 0.29358 0.0
N2128 N 0.40237 0.41388 0.25054 0.0
N2129 N 0.39848 0.40674 0.36313 0.0
C2130 C 0.40205 0.4101 0.27781 0.0
C2131 C 0.40022 0.40672 0.33547 0.0
N2132 N 0.3655 0.38002 0.27588 0.0
N2133 N 0.43907 0.42999 0.33672 0.0
H2134 H 0.38416 0.39674 0.37339 0.0
H2135 H 0.41078 0.41749 0.37583 0.0
H2136 H 0.45399 0.4399 0.32768 0.0
H2137 H 0.44016 0.42724 0.35725 0.0
H2138 H 0.36602 0.37808 0.25498 0.0
H2139 H 0.35108 0.36848 0.2847 0.0
H2140 H 0.38863 0.40729 0.23846 0.0
H2141 H 0.4162 0.42494 0.24017 0.0
C2142 C 0.31403 0.27637 0.41614 0.0
C2143 C 0.31534 0.27862 0.38744 0.0
C2144 C 0.32904 0.2534 0.38437 0.0
C2145 C 0.32551 0.24944 0.4127 0.0
N2146 N 0.31245 0.2552 0.45531 0.0
N2147 N 0.32233 0.26828 0.3437 0.0
C2148 C 0.31748 0.26047 0.42855 0.0
C2149 C 0.32251 0.26696 0.37138 0.0
N2150 N 0.31012 0.28995 0.43161 0.0
N2151 N 0.33903 0.24448 0.37006 0.0
H2152 H 0.31804 0.27837 0.33363 0.0
H2153 H 0.32504 0.25843 0.33064 0.0
H2154 H 0.34376 0.23429 0.37891 0.0
H2155 H 0.3441 0.24839 0.35001 0.0
H2156 H 0.31129 0.29076 0.4527 0.0
H2157 H 0.30757 0.30186 0.42328 0.0
H2158 H 0.30418 0.26078 0.46713 0.0
H2159 H 0.31509 0.24393 0.46532 0.0
C2160 C 0.7441 0.05837 0.36644 0.0
C2161 C 0.72723 0.04105 0.38085 0.0
C2162 C 0.73922 0.06185 0.42326 0.0
C2163 C 0.75545 0.07961 0.40864 0.0
N2164 N 0.77074 0.09643 0.36569 0.0
N2165 N 0.70598 0.0276 0.42164 0.0
C2166 C 0.75713 0.07835 0.38 0.0
C2167 C 0.72387 0.04328 0.40883 0.0
N2168 N 0.74786 0.05559 0.33992 0.0
N2169 N 0.73915 0.06226 0.45104 0.0
H2170 H 0.6946 0.0136 0.41189 0.0
H2171 H 0.70142 0.02927 0.44119 0.0
H2172 H 0.75026 0.0754 0.46245 0.0
H2173 H 0.72929 0.04892 0.46293 0.0
H2174 H 0.76143 0.06663 0.32918 0.0
H2175 H 0.73797 0.04156 0.32903 0.0
H2176 H 0.77119 0.09714 0.34457 0.0
H2177 H 0.78034 0.11134 0.37493 0.0
C2178 C 0.95536 0.70007 0.37817 0.0
C2179 C 0.96979 0.69437 0.39019 0.0
C2180 C 0.94392 0.67601 0.42713 0.0
C2181 C 0.93061 0.68374 0.41667 0.0
N2182 N 0.92463 0.70524 0.38411 0.0
N2183 N 0.97938 0.67963 0.4282 0.0
C2184 C 0.93657 0.69631 0.39263 0.0
C2185 C 0.96444 0.68291 0.41515 0.0
N2186 N 0.95929 0.70846 0.35253 0.0
N2187 N 0.93676 0.66176 0.44826 0.0
H2188 H 0.99466 0.68455 0.42034 0.0
H2189 H 0.97736 0.67365 0.44788 0.0
H2190 H 0.92198 0.65661 0.45781 0.0
H2191 H 0.94461 0.65369 0.45486 0.0
H2192 H 0.94833 0.71091 0.34148 0.0
H2193 H 0.97274 0.71115 0.34123 0.0
H2194 H 0.92943 0.71654 0.36858 0.0
H2195 H 0.91062 0.70263 0.39395 0.0
C2196 C 0.41394 0.02384 0.70234 0.0
C2197 C 0.39549 0.0218 0.7158 0.0
C2198 C 0.40378 0.00662 0.75557 0.0
C2199 C 0.42361 0.01127 0.74346 0.0
N2200 N 0.4491 0.02705 0.70674 0.0
N2201 N 0.37483 0.01472 0.7572 0.0
C2202 C 0.42909 0.02055 0.71715 0.0
C2203 C 0.39081 0.01396 0.7429 0.0
N2204 N 0.41667 0.02831 0.67518 0.0
N2205 N 0.39716 0.99487 0.77899 0.0
H2206 H 0.36526 0.0205 0.74913 0.0
H2207 H 0.37236 0.01152 0.77793 0.0
H2208 H 0.40621 0.98919 0.78884 0.0
H2209 H 0.38185 0.98906 0.78724 0.0
H2210 H 0.42862 0.02786 0.66362 0.0
H2211 H 0.4057 0.03043 0.6636 0.0
H2212 H 0.45487 0.03609 0.68904 0.0
H2213 H 0.46068 0.02499 0.71694 0.0
C2214 C 0.99562 0.39137 0.70177 0.0
C2215 C 0.98691 0.37232 0.71753 0.0
C2216 C 0.98898 0.39277 0.75862 0.0
C2217 C 0.99826 0.41195 0.74304 0.0
N2218 N 0.0137 0.43046 0.70105 0.0
N2219 N 0.97927 0.3552 0.7614 0.0
C2220 C 1.00261 0.41153 0.71495 0.0
C2221 C 0.98477 0.37313 0.74612 0.0
N2222 N 0.99643 0.39004 0.67412 0.0
N2223 N 0.98359 0.39322 0.7852 0.0
H2224 H 0.97609 0.34054 0.75295 0.0
H2225 H 0.97964 0.35524 0.78253 0.0
H2226 H 0.98701 0.40737 0.79535 0.0
H2227 H 0.97445 0.37946 0.79676 0.0
H2228 H 1.0003 0.40287 0.66109 0.0
H2229 H 0.99191 0.37561 0.66396 0.0
H2230 H 0.01935 0.43155 0.68131 0.0
H2231 H 0.01867 0.44542 0.71001 0.0
C2232 C 0.63132 0.60936 0.74878 0.0
C2233 C 0.63208 0.61233 0.72022 0.0
C2234 C 0.5928 0.5894 0.71773 0.0
C2235 C 0.59242 0.58451 0.74572 0.0
N2236 N 0.61118 0.58823 0.78776 0.0
N2237 N 0.61419 0.60427 0.67685 0.0
C2238 C 0.61165 0.59414 0.76126 0.0
C2239 C 0.61295 0.60227 0.70451 0.0
N2240 N 0.64933 0.6216 0.76405 0.0
N2241 N 0.57385 0.58193 0.70394 0.0
H2242 H 0.62862 0.61385 0.66659 0.0
H2243 H 0.60124 0.59543 0.6639 0.0
H2244 H 0.55887 0.57212 0.7129 0.0
H2245 H 0.57279 0.58667 0.68431 0.0
H2246 H 0.64937 0.6219 0.78519 0.0
H2247 H 0.664 0.63302 0.75561 0.0
H2248 H 0.62494 0.59263 0.79926 0.0
H2249 H 0.597 0.57766 0.79791 0.0
C2250 C 0.70836 0.74988 0.64535 0.0
C2251 C 0.69257 0.7278 0.64838 0.0
C2252 C 0.66566 0.73666 0.63153 0.0
C2253 C 0.68224 0.75736 0.62337 0.0
N2254 N 0.72053 0.78049 0.61588 0.0
N2255 N 0.6563 0.6996 0.6368 0.0
C2256 C 0.70397 0.76308 0.6283 0.0
C2257 C 0.67115 0.72092 0.63948 0.0
N2258 N 0.72724 0.75869 0.65951 0.0
N2259 N 0.64475 0.73204 0.63247 0.0
H2260 H 0.65982 0.6873 0.63942 0.0
H2261 H 0.64113 0.6943 0.62837 0.0
H2262 H 0.6402 0.74347 0.62839 0.0
H2263 H 0.63245 0.71765 0.6404 0.0
H2264 H 0.73846 0.7751 0.65888 0.0
H2265 H 0.73023 0.75038 0.67465 0.0
H2266 H 0.73649 0.78411 0.61767 0.0
H2267 H 0.71813 0.78958 0.60127 0.0
C2268 C 0.27221 0.94829 0.66989 0.0
C2269 C 0.28654 0.96682 0.65482 0.0
C2270 C 0.27265 0.94675 0.61213 0.0
C2271 C 0.25902 0.92794 0.62724 0.0
N2272 N 0.24832 0.90955 0.67021 0.0
N2273 N 0.303 0.98319 0.61205 0.0
C2274 C 0.25952 0.92835 0.65608 0.0
C2275 C 0.28764 0.96584 0.62607 0.0
N2276 N 0.2705 0.94985 0.69737 0.0
N2277 N 0.27052 0.94667 0.58451 0.0
H2278 H 0.31367 0.99778 0.6213 0.0
H2279 H 0.30628 0.98271 0.59153 0.0
H2280 H 0.25981 0.93304 0.57352 0.0
H2281 H 0.27812 0.96045 0.57257 0.0
H2282 H 0.2586 0.9377 0.70917 0.0
H2283 H 0.2803 0.96389 0.70828 0.0
H2284 H 0.24967 0.90832 0.69109 0.0
H2285 H 0.2389 0.8947 0.66074 0.0
C2286 C 0.04714 0.32597 0.62338 0.0
C2287 C 0.04229 0.3147 0.64845 0.0
C2288 C 0.07582 0.31338 0.64526 0.0
C2289 C 0.08128 0.32579 0.6211 0.0
N2290 N 0.0743 0.34738 0.58985 0.0
N2291 N 0.05375 0.30133 0.68593 0.0
C2292 C 0.06759 0.33318 0.61101 0.0
C2293 C 0.05716 0.30947 0.66017 0.0
N2294 N 0.0318 0.32875 0.61055 0.0
N2295 N 0.08804 0.30467 0.65343 0.0
H2296 H 0.04041 0.29854 0.69754 0.0
H2297 H 0.06504 0.29923 0.69673 0.0
H2298 H 0.1019 0.3073 0.6432 0.0
H2299 H 0.08357 0.29349 0.66906 0.0
H2300 H 0.0335 0.33457 0.59081 0.0
H2301 H 0.01653 0.32355 0.61863 0.0
H2302 H 0.06612 0.35518 0.58347 0.0
H2303 H 0.08905 0.35283 0.5801 0.0
C2304 C 0.27248 0.32806 0.66477 0.0
C2305 C 0.28215 0.31811 0.64995 0.0
C2306 C 0.26658 0.32232 0.60753 0.0
C2307 C 0.25512 0.3302 0.62276 0.0
N2308 N 0.24597 0.33977 0.66569 0.0
N2309 N 0.28822 0.30491 0.60764 0.0
C2310 C 0.25786 0.33299 0.65135 0.0
C2311 C 0.27923 0.31511 0.6214 0.0
N2312 N 0.27744 0.3329 0.69162 0.0
N2313 N 0.26559 0.32205 0.57976 0.0
H2314 H 0.29864 0.30057 0.6167 0.0
H2315 H 0.28463 0.29975 0.58758 0.0
H2316 H 0.256 0.3266 0.56895 0.0
H2317 H 0.27531 0.31879 0.56722 0.0
H2318 H 0.27272 0.34204 0.7031 0.0
H2319 H 0.28766 0.329 0.7021 0.0
H2320 H 0.24525 0.33988 0.68679 0.0
H2321 H 0.23575 0.34428 0.65641 0.0
C2322 C 0.69515 0.95285 0.66586 0.0
C2323 C 0.69043 0.96781 0.65321 0.0
C2324 C 0.67529 0.94375 0.61368 0.0
C2325 C 0.68034 0.92898 0.62616 0.0
N2326 N 0.69208 0.91749 0.66526 0.0
N2327 N 0.67368 0.97674 0.61691 0.0
C2328 C 0.68929 0.93292 0.65268 0.0
C2329 C 0.67961 0.96292 0.62776 0.0
N2330 N 0.70563 0.95799 0.69029 0.0
N2331 N 0.66706 0.93972 0.58788 0.0
H2332 H 0.67777 0.99158 0.62552 0.0
H2333 H 0.66371 0.97319 0.60009 0.0
H2334 H 0.66263 0.92536 0.57758 0.0
H2335 H 0.66541 0.95078 0.57602 0.0
H2336 H 0.71199 0.94928 0.6993 0.0
H2337 H 0.70869 0.97163 0.70142 0.0
H2338 H 0.69648 0.91818 0.6855 0.0
H2339 H 0.68874 0.90311 0.65585 0.0
C2340 C 0.04911 0.72752 0.62252 0.0
C2341 C 0.04842 0.72593 0.65128 0.0
C2342 C 0.08737 0.75094 0.65345 0.0
C2343 C 0.08754 0.75436 0.62502 0.0
N2344 N 0.06847 0.74764 0.58257 0.0
N2345 N 0.06613 0.73684 0.69464 0.0
C2346 C 0.06839 0.74301 0.60953 0.0
C2347 C 0.06739 0.73772 0.66692 0.0
N2348 N 0.03139 0.71382 0.60761 0.0
N2349 N 0.10637 0.76008 0.66742 0.0
H2350 H 0.05187 0.72687 0.70503 0.0
H2351 H 0.0788 0.74686 0.70738 0.0
H2352 H 0.12121 0.77003 0.65821 0.0
H2353 H 0.1077 0.75659 0.68758 0.0
H2354 H 0.03147 0.71253 0.58655 0.0
H2355 H 0.01697 0.70229 0.61644 0.0
H2356 H 0.05458 0.74185 0.57088 0.0
H2357 H 0.08233 0.75858 0.57216 0.0
C2358 C 0.98145 0.60937 0.74872 0.0
C2359 C 0.98307 0.61191 0.72006 0.0
C2360 C 0.99823 0.58791 0.71704 0.0
C2361 C 0.99451 0.58368 0.74529 0.0
N2362 N 0.98052 0.58838 0.78777 0.0
N2363 N 0.99112 0.60248 0.67635 0.0
C2364 C 0.9856 0.59391 0.76109 0.0
C2365 C 0.99109 0.60099 0.70403 0.0
N2366 N 0.97664 0.6223 0.76422 0.0
N2367 N 0.00892 0.57971 0.7028 0.0
H2368 H 0.98633 0.61217 0.66627 0.0
H2369 H 0.99449 0.5931 0.66328 0.0
H2370 H 0.01402 0.56981 0.71161 0.0
H2371 H 0.01416 0.58394 0.68286 0.0
H2372 H 0.97752 0.62293 0.78533 0.0
H2373 H 0.97359 0.63388 0.75594 0.0
H2374 H 0.97166 0.5933 0.79952 0.0
H2375 H 0.9838 0.57753 0.79778 0.0
C2376 C 0.38846 0.37519 0.74447 0.0
C2377 C 0.39158 0.37291 0.71643 0.0
C2378 C 0.42114 0.41036 0.71517 0.0
C2379 C 0.41975 0.4117 0.74384 0.0
N2380 N 0.40408 0.39434 0.78648 0.0
N2381 N 0.41173 0.38749 0.67518 0.0
C2382 C 0.40382 0.39388 0.75869 0.0
C2383 C 0.40817 0.39029 0.70178 0.0
N2384 N 0.37077 0.35946 0.75755 0.0
N2385 N 0.43441 0.42846 0.70067 0.0
H2386 H 0.40186 0.37337 0.66443 0.0
H2387 H 0.42512 0.3986 0.66424 0.0
H2388 H 0.44393 0.44344 0.70978 0.0
H2389 H 0.43462 0.42909 0.67954 0.0
H2390 H 0.36638 0.36115 0.77719 0.0
H2391 H 0.35935 0.34541 0.74794 0.0
H2392 H 0.39448 0.38098 0.79847 0.0
H2393 H 0.41522 0.40757 0.79774 0.0
C2394 C 0.62058 0.03132 0.70796 0.0
C2395 C 0.63531 0.02619 0.72035 0.0
C2396 C 0.60971 0.00821 0.75764 0.0
C2397 C 0.59617 0.01554 0.74685 0.0
N2398 N 0.58949 0.03597 0.71338 0.0
N2399 N 0.64537 0.01234 0.75886 0.0
C2400 C 0.60177 0.02755 0.72237 0.0
C2401 C 0.63021 0.01514 0.74559 0.0
N2402 N 0.62429 0.03922 0.68207 0.0
N2403 N 0.60282 0.99438 0.7792 0.0
H2404 H 0.66064 0.01729 0.75097 0.0
H2405 H 0.64351 0.00671 0.77872 0.0
H2406 H 0.58806 0.98923 0.7888 0.0
H2407 H 0.61087 0.98659 0.78613 0.0
H2408 H 0.61316 0.04125 0.67081 0.0
H2409 H 0.63776 0.0419 0.67083 0.0
H2410 H 0.59403 0.04692 0.69747 0.0
H2411 H 0.57542 0.03326 0.72313 0.0
loop_
_geom_bond_atom_site_label_1
_geom_bond_atom_site_label_2
_geom_bond_distance
_geom_bond_site_symmetry_2
_ccdc_geom_bond_type
O0 Cd1 2.223 . S
O0 C8 1.315 . S
Cd1 O0 2.223 . S
Cd1 O4 2.297 . S
Cd1 O5 2.439 . S
Cd1 O11 2.240 1_554 S
Cd2 O3 2.240 . S
Cd2 O10 2.223 1_554 S
Cd2 O12 2.297 1_554 S
Cd2 O13 2.439 1_554 S
O3 Cd2 2.240 . S
O3 C8 1.279 1_655 S
O4 Cd1 2.297 . S
O4 C6 1.247 . S
O5 Cd1 2.439 . S
O5 C6 1.208 . S
C6 O4 1.247 . S
C6 O5 1.208 . S
C7 O12 1.247 . S
C7 O13 1.208 . S
C8 O0 1.315 . S
C8 O3 1.279 1_455 S
C9 O10 1.315 . S
C9 O11 1.279 1_655 S
O10 Cd2 2.223 1_556 S
O10 C9 1.315 . S
O11 Cd1 2.240 1_556 S
O11 C9 1.279 1_455 S
O12 Cd2 2.297 1_556 S
O12 C7 1.247 . S
O13 Cd2 2.439 1_556 S
O13 C7 1.208 . S
O14 Cd15 2.223 . S
O14 C22 1.315 . S
Cd15 O14 2.223 . S
Cd15 O18 2.297 . S
Cd15 O19 2.439 . S
Cd15 O25 2.240 1_554 S
Cd16 O17 2.240 . S
Cd16 O24 2.223 1_554 S
Cd16 O26 2.297 1_554 S
Cd16 O27 2.439 1_554 S
O17 Cd16 2.240 . S
O17 C22 1.279 . S
O18 Cd15 2.297 . S
O18 C20 1.247 . S
O19 Cd15 2.439 . S
O19 C20 1.208 . S
C20 O18 1.247 . S
C20 O19 1.208 . S
C21 O26 1.247 . S
C21 O27 1.208 . S
C22 O14 1.315 . S
C22 O17 1.279 . S
C23 O24 1.315 . S
C23 O25 1.279 . S
O24 Cd16 2.223 1_556 S
O24 C23 1.315 . S
O25 Cd15 2.240 1_556 S
O25 C23 1.279 . S
O26 Cd16 2.297 1_556 S
O26 C21 1.247 . S
O27 Cd16 2.439 1_556 S
O27 C21 1.208 . S
O28 Cd29 2.223 1_556 S
O28 C36 1.315 . S
Cd29 O28 2.223 1_554 S
Cd29 O32 2.297 1_554 S
Cd29 O33 2.439 1_554 S
Cd29 O39 2.240 . S
Cd30 O31 2.240 1_554 S
Cd30 O38 2.223 . S
Cd30 O40 2.297 . S
Cd30 O41 2.439 . S
O31 Cd30 2.240 1_556 S
O31 C36 1.279 1_565 S
O32 Cd29 2.297 1_556 S
O32 C34 1.247 . S
O33 Cd29 2.439 1_556 S
O33 C34 1.208 . S
C34 O32 1.247 . S
C34 O33 1.208 . S
C35 O40 1.247 . S
C35 O41 1.208 . S
C36 O28 1.315 . S
C36 O31 1.279 1_545 S
C37 O38 1.315 . S
C37 O39 1.279 1_565 S
O38 Cd30 2.223 . S
O38 C37 1.315 . S
O39 Cd29 2.240 . S
O39 C37 1.279 1_545 S
O40 Cd30 2.297 . S
O40 C35 1.247 . S
O41 Cd30 2.439 . S
O41 C35 1.208 . S
O42 Cd43 2.223 1_556 S
O42 C50 1.315 . S
Cd43 O42 2.223 1_554 S
Cd43 O46 2.297 1_554 S
Cd43 O47 2.439 1_554 S
Cd43 O53 2.240 . S
Cd44 O45 2.240 1_554 S
Cd44 O52 2.223 . S
Cd44 O54 2.297 . S
Cd44 O55 2.439 . S
O45 Cd44 2.240 1_556 S
O45 C50 1.279 1_455 S
O46 Cd43 2.297 1_556 S
O46 C48 1.247 . S
O47 Cd43 2.439 1_556 S
O47 C48 1.208 . S
C48 O46 1.247 . S
C48 O47 1.208 . S
C49 O54 1.247 . S
C49 O55 1.208 . S
C50 O42 1.315 . S
C50 O45 1.279 1_655 S
C51 O52 1.315 . S
C51 O53 1.279 1_455 S
O52 Cd44 2.223 . S
O52 C51 1.315 . S
O53 Cd43 2.240 . S
O53 C51 1.279 1_655 S
O54 Cd44 2.297 . S
O54 C49 1.247 . S
O55 Cd44 2.439 . S
O55 C49 1.208 . S
O56 Cd57 2.223 1_556 S
O56 C64 1.315 . S
Cd57 O56 2.223 1_554 S
Cd57 O60 2.297 1_554 S
Cd57 O61 2.439 1_554 S
Cd57 O67 2.240 . S
Cd58 O59 2.240 1_554 S
Cd58 O66 2.223 . S
Cd58 O68 2.297 . S
Cd58 O69 2.439 . S
O59 Cd58 2.240 1_556 S
O59 C64 1.279 . S
O60 Cd57 2.297 1_556 S
O60 C62 1.247 . S
O61 Cd57 2.439 1_556 S
O61 C62 1.208 . S
C62 O60 1.247 . S
C62 O61 1.208 . S
C63 O68 1.247 . S
C63 O69 1.208 . S
C64 O56 1.315 . S
C64 O59 1.279 . S
C65 O66 1.315 . S
C65 O67 1.279 . S
O66 Cd58 2.223 . S
O66 C65 1.315 . S
O67 Cd57 2.240 . S
O67 C65 1.279 . S
O68 Cd58 2.297 . S
O68 C63 1.247 . S
O69 Cd58 2.439 . S
O69 C63 1.208 . S
O70 Cd71 2.223 . S
O70 C78 1.315 . S
Cd71 O70 2.223 . S
Cd71 O74 2.297 . S
Cd71 O75 2.439 . S
Cd71 O81 2.240 1_554 S
Cd72 O73 2.240 . S
Cd72 O80 2.223 1_554 S
Cd72 O82 2.297 1_554 S
Cd72 O83 2.439 1_554 S
O73 Cd72 2.240 . S
O73 C78 1.279 1_545 S
O74 Cd71 2.297 . S
O74 C76 1.247 . S
O75 Cd71 2.439 . S
O75 C76 1.208 . S
C76 O74 1.247 . S
C76 O75 1.208 . S
C77 O82 1.247 . S
C77 O83 1.208 . S
C78 O70 1.315 . S
C78 O73 1.279 1_565 S
C79 O80 1.315 . S
C79 O81 1.279 1_545 S
O80 Cd72 2.223 1_556 S
O80 C79 1.315 . S
O81 Cd71 2.240 1_556 S
O81 C79 1.279 1_565 S
O82 Cd72 2.297 1_556 S
O82 C77 1.247 . S
O83 Cd72 2.439 1_556 S
O83 C77 1.208 . S
O84 Cd85 2.223 . S
O84 C92 1.315 . S
Cd85 O84 2.223 . S
Cd85 O88 2.297 . S
Cd85 O89 2.439 . S
Cd85 O95 2.240 . S
Cd86 O87 2.240 . S
Cd86 O94 2.223 . S
Cd86 O96 2.297 . S
Cd86 O97 2.439 . S
O87 Cd86 2.240 . S
O87 C92 1.279 . S
O88 Cd85 2.297 . S
O88 C90 1.247 . S
O89 Cd85 2.439 . S
O89 C90 1.208 . S
C90 O88 1.247 . S
C90 O89 1.208 . S
C91 O96 1.247 . S
C91 O97 1.208 . S
C92 O84 1.315 . S
C92 O87 1.279 . S
C93 O94 1.315 . S
C93 O95 1.279 . S
O94 Cd86 2.223 . S
O94 C93 1.315 . S
O95 Cd85 2.240 . S
O95 C93 1.279 . S
O96 Cd86 2.297 . S
O96 C91 1.247 . S
O97 Cd86 2.439 . S
O97 C91 1.208 . S
O98 Cd99 2.223 . S
O98 C106 1.315 . S
Cd99 O98 2.223 . S
Cd99 O102 2.297 1_565 S
Cd99 O103 2.439 1_565 S
Cd99 O109 2.240 . S
Cd100 O101 2.240 . S
Cd100 O108 2.223 . S
Cd100 O110 2.297 . S
Cd100 O111 2.439 . S
O101 Cd100 2.240 . S
O101 C106 1.279 . S
O102 Cd99 2.297 1_545 S
O102 C104 1.247 . S
O103 Cd99 2.439 1_545 S
O103 C104 1.208 . S
C104 O102 1.247 . S
C104 O103 1.208 . S
C105 O110 1.247 . S
C105 O111 1.208 . S
C106 O98 1.315 . S
C106 O101 1.279 . S
C107 O108 1.315 . S
C107 O109 1.279 . S
O108 Cd100 2.223 . S
O108 C107 1.315 . S
O109 Cd99 2.240 . S
O109 C107 1.279 . S
O110 Cd100 2.297 . S
O110 C105 1.247 . S
O111 Cd100 2.439 . S
O111 C105 1.208 . S
O112 Cd113 2.223 . S
O112 C120 1.315 . S
Cd113 O112 2.223 . S
Cd113 O116 2.297 . S
Cd113 O117 2.439 . S
Cd113 O123 2.240 . S
Cd114 O115 2.240 . S
Cd114 O122 2.223 . S
Cd114 O124 2.297 1_455 S
Cd114 O125 2.439 1_455 S
O115 Cd114 2.240 . S
O115 C120 1.279 . S
O116 Cd113 2.297 . S
O116 C118 1.247 . S
O117 Cd113 2.439 . S
O117 C118 1.208 . S
C118 O116 1.247 . S
C118 O117 1.208 . S
C119 O124 1.247 . S
C119 O125 1.208 . S
C120 O112 1.315 . S
C120 O115 1.279 . S
C121 O122 1.315 . S
C121 O123 1.279 . S
O122 Cd114 2.223 . S
O122 C121 1.315 . S
O123 Cd113 2.240 . S
O123 C121 1.279 . S
O124 Cd114 2.297 1_655 S
O124 C119 1.247 . S
O125 Cd114 2.439 1_655 S
O125 C119 1.208 . S
O126 Cd127 2.223 . S
O126 C134 1.315 . S
Cd127 O126 2.223 . S
Cd127 O130 2.297 . S
Cd127 O131 2.439 . S
Cd127 O137 2.240 . S
Cd128 O129 2.240 . S
Cd128 O136 2.223 . S
Cd128 O138 2.297 1_565 S
Cd128 O139 2.439 1_565 S
O129 Cd128 2.240 . S
O129 C134 1.279 . S
O130 Cd127 2.297 . S
O130 C132 1.247 . S
O131 Cd127 2.439 . S
O131 C132 1.208 . S
C132 O130 1.247 . S
C132 O131 1.208 . S
C133 O138 1.247 . S
C133 O139 1.208 . S
C134 O126 1.315 . S
C134 O129 1.279 . S
C135 O136 1.315 . S
C135 O137 1.279 . S
O136 Cd128 2.223 . S
O136 C135 1.315 . S
O137 Cd127 2.240 . S
O137 C135 1.279 . S
O138 Cd128 2.297 1_545 S
O138 C133 1.247 . S
O139 Cd128 2.439 1_545 S
O139 C133 1.208 . S
O140 Cd141 2.223 . S
O140 C148 1.315 . S
Cd141 O140 2.223 . S
Cd141 O144 2.297 . S
Cd141 O145 2.439 . S
Cd141 O151 2.240 . S
Cd142 O143 2.240 . S
Cd142 O150 2.223 . S
Cd142 O152 2.297 1_455 S
Cd142 O153 2.439 1_455 S
O143 Cd142 2.240 . S
O143 C148 1.279 . S
O144 Cd141 2.297 . S
O144 C146 1.247 . S
O145 Cd141 2.439 . S
O145 C146 1.208 . S
C146 O144 1.247 . S
C146 O145 1.208 . S
C147 O152 1.247 . S
C147 O153 1.208 . S
C148 O140 1.315 . S
C148 O143 1.279 . S
C149 O150 1.315 . S
C149 O151 1.279 . S
O150 Cd142 2.223 . S
O150 C149 1.315 . S
O151 Cd141 2.240 . S
O151 C149 1.279 . S
O152 Cd142 2.297 1_655 S
O152 C147 1.247 . S
O153 Cd142 2.439 1_655 S
O153 C147 1.208 . S
O154 Cd155 2.223 . S
O154 C162 1.315 . S
Cd155 O154 2.223 . S
Cd155 O158 2.297 . S
Cd155 O159 2.439 . S
Cd155 O165 2.240 . S
Cd156 O157 2.240 . S
Cd156 O164 2.223 . S
Cd156 O166 2.297 . S
Cd156 O167 2.439 . S
O157 Cd156 2.240 . S
O157 C162 1.279 . S
O158 Cd155 2.297 . S
O158 C160 1.247 . S
O159 Cd155 2.439 . S
O159 C160 1.208 . S
C160 O158 1.247 . S
C160 O159 1.208 . S
C161 O166 1.247 . S
C161 O167 1.208 . S
C162 O154 1.315 . S
C162 O157 1.279 . S
C163 O164 1.315 . S
C163 O165 1.279 . S
O164 Cd156 2.223 . S
O164 C163 1.315 . S
O165 Cd155 2.240 . S
O165 C163 1.279 . S
O166 Cd156 2.297 . S
O166 C161 1.247 . S
O167 Cd156 2.439 . S
O167 C161 1.208 . S
O168 Cd169 2.223 . S
O168 C176 1.315 . S
Cd169 O168 2.223 . S
Cd169 O172 2.297 . S
Cd169 O173 2.439 . S
Cd169 O179 2.240 . S
Cd170 O171 2.240 . S
Cd170 O178 2.223 . S
Cd170 O180 2.297 1_545 S
Cd170 O181 2.439 1_545 S
O171 Cd170 2.240 . S
O171 C176 1.279 . S
O172 Cd169 2.297 . S
O172 C174 1.247 . S
O173 Cd169 2.439 . S
O173 C174 1.208 . S
C174 O172 1.247 . S
C174 O173 1.208 . S
C175 O180 1.247 . S
C175 O181 1.208 . S
C176 O168 1.315 . S
C176 O171 1.279 . S
C177 O178 1.315 . S
C177 O179 1.279 . S
O178 Cd170 2.223 . S
O178 C177 1.315 . S
O179 Cd169 2.240 . S
O179 C177 1.279 . S
O180 Cd170 2.297 1_565 S
O180 C175 1.247 . S
O181 Cd170 2.439 1_565 S
O181 C175 1.208 . S
O182 Cd183 2.223 . S
O182 C190 1.315 . S
Cd183 O182 2.223 . S
Cd183 O186 2.297 . S
Cd183 O187 2.439 . S
Cd183 O193 2.240 . S
Cd184 O185 2.240 . S
Cd184 O192 2.223 . S
Cd184 O194 2.297 1_655 S
Cd184 O195 2.439 1_655 S
O185 Cd184 2.240 . S
O185 C190 1.279 . S
O186 Cd183 2.297 . S
O186 C188 1.247 . S
O187 Cd183 2.439 . S
O187 C188 1.208 . S
C188 O186 1.247 . S
C188 O187 1.208 . S
C189 O194 1.247 . S
C189 O195 1.208 . S
C190 O182 1.315 . S
C190 O185 1.279 . S
C191 O192 1.315 . S
C191 O193 1.279 . S
O192 Cd184 2.223 . S
O192 C191 1.315 . S
O193 Cd183 2.240 . S
O193 C191 1.279 . S
O194 Cd184 2.297 1_455 S
O194 C189 1.247 . S
O195 Cd184 2.439 1_455 S
O195 C189 1.208 . S
O196 Cd197 2.223 . S
O196 C204 1.315 . S
Cd197 O196 2.223 . S
Cd197 O200 2.297 . S
Cd197 O201 2.439 . S
Cd197 O207 2.240 . S
Cd198 O199 2.240 . S
Cd198 O206 2.223 . S
Cd198 O208 2.297 . S
Cd198 O209 2.439 . S
O199 Cd198 2.240 . S
O199 C204 1.279 . S
O200 Cd197 2.297 . S
O200 C202 1.247 . S
O201 Cd197 2.439 . S
O201 C202 1.208 . S
C202 O200 1.247 . S
C202 O201 1.208 . S
C203 O208 1.247 . S
C203 O209 1.208 . S
C204 O196 1.315 . S
C204 O199 1.279 . S
C205 O206 1.315 . S
C205 O207 1.279 . S
O206 Cd198 2.223 . S
O206 C205 1.315 . S
O207 Cd197 2.240 . S
O207 C205 1.279 . S
O208 Cd198 2.297 . S
O208 C203 1.247 . S
O209 Cd198 2.439 . S
O209 C203 1.208 . S
O210 Cd211 2.223 . S
O210 C218 1.315 . S
Cd211 O210 2.223 . S
Cd211 O214 2.297 . S
Cd211 O215 2.439 . S
Cd211 O221 2.240 . S
Cd212 O213 2.240 . S
Cd212 O220 2.223 . S
Cd212 O222 2.297 . S
Cd212 O223 2.439 . S
O213 Cd212 2.240 . S
O213 C218 1.279 . S
O214 Cd211 2.297 . S
O214 C216 1.247 . S
O215 Cd211 2.439 . S
O215 C216 1.208 . S
C216 O214 1.247 . S
C216 O215 1.208 . S
C217 O222 1.247 . S
C217 O223 1.208 . S
C218 O210 1.315 . S
C218 O213 1.279 . S
C219 O220 1.315 . S
C219 O221 1.279 . S
O220 Cd212 2.223 . S
O220 C219 1.315 . S
O221 Cd211 2.240 . S
O221 C219 1.279 . S
O222 Cd212 2.297 . S
O222 C217 1.247 . S
O223 Cd212 2.439 . S
O223 C217 1.208 . S
O224 Cd225 2.223 . S
O224 C232 1.315 . S
Cd225 O224 2.223 . S
Cd225 O228 2.297 1_545 S
Cd225 O229 2.439 1_545 S
Cd225 O235 2.240 . S
Cd226 O227 2.240 . S
Cd226 O234 2.223 . S
Cd226 O236 2.297 . S
Cd226 O237 2.439 . S
O227 Cd226 2.240 . S
O227 C232 1.279 . S
O228 Cd225 2.297 1_565 S
O228 C230 1.247 . S
O229 Cd225 2.439 1_565 S
O229 C230 1.208 . S
C230 O228 1.247 . S
C230 O229 1.208 . S
C231 O236 1.247 . S
C231 O237 1.208 . S
C232 O224 1.315 . S
C232 O227 1.279 . S
C233 O234 1.315 . S
C233 O235 1.279 . S
O234 Cd226 2.223 . S
O234 C233 1.315 . S
O235 Cd225 2.240 . S
O235 C233 1.279 . S
O236 Cd226 2.297 . S
O236 C231 1.247 . S
O237 Cd226 2.439 . S
O237 C231 1.208 . S
O238 Cd239 2.223 . S
O238 C246 1.315 . S
Cd239 O238 2.223 . S
Cd239 O242 2.297 . S
Cd239 O243 2.439 . S
Cd239 O249 2.240 . S
Cd240 O241 2.240 . S
Cd240 O248 2.223 . S
Cd240 O250 2.297 1_655 S
Cd240 O251 2.439 1_655 S
O241 Cd240 2.240 . S
O241 C246 1.279 . S
O242 Cd239 2.297 . S
O242 C244 1.247 . S
O243 Cd239 2.439 . S
O243 C244 1.208 . S
C244 O242 1.247 . S
C244 O243 1.208 . S
C245 O250 1.247 . S
C245 O251 1.208 . S
C246 O238 1.315 . S
C246 O241 1.279 . S
C247 O248 1.315 . S
C247 O249 1.279 . S
O248 Cd240 2.223 . S
O248 C247 1.315 . S
O249 Cd239 2.240 . S
O249 C247 1.279 . S
O250 Cd240 2.297 1_455 S
O250 C245 1.247 . S
O251 Cd240 2.439 1_455 S
O251 C245 1.208 . S
H252 C271 0.949 . S
H253 C272 0.950 . S
H254 C274 0.950 . S
H255 C275 0.950 . S
H256 C277 0.950 . S
H257 C280 0.950 . S
H258 C281 0.950 . S
H259 C283 0.951 . S
H260 C284 0.949 . S
H261 C286 0.949 . S
H262 C287 0.950 . S
H263 C289 0.950 . S
H264 C290 0.950 . S
H265 C292 0.950 . S
H266 C295 0.950 . S
H267 C296 0.950 . S
H268 C298 0.951 . S
H269 C299 0.949 . S
C270 C271 1.376 . S
C270 C275 1.386 . S
C270 C276 1.483 . S
C271 H252 0.949 . S
C271 C270 1.376 . S
C271 C272 1.397 . S
C272 H253 0.950 . S
C272 C271 1.397 . S
C272 C273 1.391 . S
C273 C272 1.391 . S
C273 C274 1.405 . S
C274 H254 0.950 . S
C274 C273 1.405 . S
C274 C275 1.367 . S
C275 H255 0.950 . S
C275 C270 1.386 . S
C275 C274 1.367 . S
C276 C270 1.483 . S
C276 C277 1.382 . S
C276 C278 1.403 . S
C277 H256 0.950 . S
C277 C276 1.382 . S
C277 C293 1.411 . S
C278 C276 1.403 . S
C278 C279 1.489 . S
C278 C292 1.411 . S
C279 C278 1.489 . S
C279 C280 1.383 . S
C279 C284 1.382 . S
C280 H257 0.950 . S
C280 C279 1.383 . S
C280 C281 1.395 . S
C281 H258 0.950 . S
C281 C280 1.395 . S
C281 C282 1.288 . S
C282 C281 1.288 . S
C282 C283 1.392 . S
C283 H259 0.951 . S
C283 C282 1.392 . S
C283 C284 1.392 . S
C284 H260 0.949 . S
C284 C279 1.382 . S
C284 C283 1.392 . S
C285 C286 1.376 . S
C285 C290 1.386 . S
C285 C291 1.483 . S
C286 H261 0.949 . S
C286 C285 1.376 . S
C286 C287 1.397 . S
C287 H262 0.950 . S
C287 C286 1.397 . S
C287 C288 1.391 . S
C288 C287 1.391 . S
C288 C289 1.405 . S
C289 H263 0.950 . S
C289 C288 1.405 . S
C289 C290 1.367 . S
C290 H264 0.950 . S
C290 C285 1.386 . S
C290 C289 1.367 . S
C291 C285 1.483 . S
C291 C292 1.382 . S
C291 C293 1.403 . S
C292 H265 0.950 . S
C292 C278 1.411 . S
C292 C291 1.382 . S
C293 C277 1.411 . S
C293 C291 1.403 . S
C293 C294 1.489 . S
C294 C293 1.489 . S
C294 C295 1.383 . S
C294 C299 1.382 . S
C295 H266 0.950 . S
C295 C294 1.383 . S
C295 C296 1.395 . S
C296 H267 0.950 . S
C296 C295 1.395 . S
C296 C297 1.288 . S
C297 C296 1.288 . S
C297 C298 1.392 . S
C298 H268 0.951 . S
C298 C297 1.392 . S
C298 C299 1.392 . S
C299 H269 0.949 . S
C299 C294 1.382 . S
C299 C298 1.392 . S
H300 C319 0.949 . S
H301 C320 0.950 . S
H302 C322 0.950 . S
H303 C323 0.950 . S
H304 C325 0.950 . S
H305 C328 0.950 . S
H306 C329 0.950 . S
H307 C331 0.951 . S
H308 C332 0.949 . S
H309 C334 0.949 . S
H310 C335 0.950 . S
H311 C337 0.950 . S
H312 C338 0.950 . S
H313 C340 0.950 . S
H314 C343 0.950 . S
H315 C344 0.950 . S
H316 C346 0.951 . S
H317 C347 0.949 . S
C318 C319 1.376 . S
C318 C323 1.386 . S
C318 C324 1.483 . S
C319 H300 0.949 . S
C319 C318 1.376 . S
C319 C320 1.397 . S
C320 H301 0.950 . S
C320 C319 1.397 . S
C320 C321 1.391 . S
C321 C320 1.391 . S
C321 C322 1.405 . S
C322 H302 0.950 . S
C322 C321 1.405 . S
C322 C323 1.367 . S
C323 H303 0.950 . S
C323 C318 1.386 . S
C323 C322 1.367 . S
C324 C318 1.483 . S
C324 C325 1.382 . S
C324 C326 1.403 . S
C325 H304 0.950 . S
C325 C324 1.382 . S
C325 C341 1.411 . S
C326 C324 1.403 . S
C326 C327 1.489 . S
C326 C340 1.411 . S
C327 C326 1.489 . S
C327 C328 1.383 . S
C327 C332 1.382 . S
C328 H305 0.950 . S
C328 C327 1.383 . S
C328 C329 1.395 . S
C329 H306 0.950 . S
C329 C328 1.395 . S
C329 C330 1.288 . S
C330 C329 1.288 . S
C330 C331 1.392 . S
C331 H307 0.951 . S
C331 C330 1.392 . S
C331 C332 1.392 . S
C332 H308 0.949 . S
C332 C327 1.382 . S
C332 C331 1.392 . S
C333 C334 1.376 . S
C333 C338 1.386 . S
C333 C339 1.483 . S
C334 H309 0.949 . S
C334 C333 1.376 . S
C334 C335 1.397 . S
C335 H310 0.950 . S
C335 C334 1.397 . S
C335 C336 1.391 . S
C336 C335 1.391 . S
C336 C337 1.405 . S
C337 H311 0.950 . S
C337 C336 1.405 . S
C337 C338 1.367 . S
C338 H312 0.950 . S
C338 C333 1.386 . S
C338 C337 1.367 . S
C339 C333 1.483 . S
C339 C340 1.382 . S
C339 C341 1.403 . S
C340 H313 0.950 . S
C340 C326 1.411 . S
C340 C339 1.382 . S
C341 C325 1.411 . S
C341 C339 1.403 . S
C341 C342 1.489 . S
C342 C341 1.489 . S
C342 C343 1.383 . S
C342 C347 1.382 . S
C343 H314 0.950 . S
C343 C342 1.383 . S
C343 C344 1.395 . S
C344 H315 0.950 . S
C344 C343 1.395 . S
C344 C345 1.288 . S
C345 C344 1.288 . S
C345 C346 1.392 . S
C346 H316 0.951 . S
C346 C345 1.392 . S
C346 C347 1.392 . S
C347 H317 0.949 . S
C347 C342 1.382 . S
C347 C346 1.392 . S
H348 C367 0.949 . S
H349 C368 0.950 . S
H350 C370 0.950 . S
H351 C371 0.950 . S
H352 C373 0.950 . S
H353 C376 0.950 . S
H354 C377 0.950 . S
H355 C379 0.951 . S
H356 C380 0.949 . S
H357 C382 0.949 . S
H358 C383 0.950 . S
H359 C385 0.950 . S
H360 C386 0.950 . S
H361 C388 0.950 . S
H362 C391 0.950 . S
H363 C392 0.950 . S
H364 C394 0.951 . S
H365 C395 0.949 . S
C366 C367 1.376 . S
C366 C371 1.386 . S
C366 C372 1.483 . S
C367 H348 0.949 . S
C367 C366 1.376 . S
C367 C368 1.397 . S
C368 H349 0.950 . S
C368 C367 1.397 . S
C368 C369 1.391 . S
C369 C368 1.391 . S
C369 C370 1.405 . S
C370 H350 0.950 . S
C370 C369 1.405 . S
C370 C371 1.367 . S
C371 H351 0.950 . S
C371 C366 1.386 . S
C371 C370 1.367 . S
C372 C366 1.483 . S
C372 C373 1.382 . S
C372 C374 1.403 . S
C373 H352 0.950 . S
C373 C372 1.382 . S
C373 C389 1.411 . S
C374 C372 1.403 . S
C374 C375 1.489 . S
C374 C388 1.411 . S
C375 C374 1.489 . S
C375 C376 1.383 . S
C375 C380 1.382 . S
C376 H353 0.950 . S
C376 C375 1.383 . S
C376 C377 1.395 . S
C377 H354 0.950 . S
C377 C376 1.395 . S
C377 C378 1.288 . S
C378 C377 1.288 . S
C378 C379 1.392 . S
C379 H355 0.951 . S
C379 C378 1.392 . S
C379 C380 1.392 . S
C380 H356 0.949 . S
C380 C375 1.382 . S
C380 C379 1.392 . S
C381 C382 1.376 . S
C381 C386 1.386 . S
C381 C387 1.483 . S
C382 H357 0.949 . S
C382 C381 1.376 . S
C382 C383 1.397 . S
C383 H358 0.950 . S
C383 C382 1.397 . S
C383 C384 1.391 . S
C384 C383 1.391 . S
C384 C385 1.405 . S
C385 H359 0.950 . S
C385 C384 1.405 . S
C385 C386 1.367 . S
C386 H360 0.950 . S
C386 C381 1.386 . S
C386 C385 1.367 . S
C387 C381 1.483 . S
C387 C388 1.382 . S
C387 C389 1.403 . S
C388 H361 0.950 . S
C388 C374 1.411 . S
C388 C387 1.382 . S
C389 C373 1.411 . S
C389 C387 1.403 . S
C389 C390 1.489 . S
C390 C389 1.489 . S
C390 C391 1.383 . S
C390 C395 1.382 . S
C391 H362 0.950 . S
C391 C390 1.383 . S
C391 C392 1.395 . S
C392 H363 0.950 . S
C392 C391 1.395 . S
C392 C393 1.288 . S
C393 C392 1.288 . S
C393 C394 1.392 . S
C394 H364 0.951 . S
C394 C393 1.392 . S
C394 C395 1.392 . S
C395 H365 0.949 . S
C395 C390 1.382 . S
C395 C394 1.392 . S
H396 C415 0.949 . S
H397 C416 0.950 . S
H398 C418 0.950 . S
H399 C419 0.950 . S
H400 C421 0.950 . S
H401 C424 0.950 . S
H402 C425 0.950 . S
H403 C427 0.951 . S
H404 C428 0.949 . S
H405 C430 0.949 . S
H406 C431 0.950 . S
H407 C433 0.950 . S
H408 C434 0.950 . S
H409 C436 0.950 . S
H410 C439 0.950 . S
H411 C440 0.950 . S
H412 C442 0.951 . S
H413 C443 0.949 . S
C414 C415 1.376 . S
C414 C419 1.386 . S
C414 C420 1.483 . S
C415 H396 0.949 . S
C415 C414 1.376 . S
C415 C416 1.397 . S
C416 H397 0.950 . S
C416 C415 1.397 . S
C416 C417 1.391 . S
C417 C416 1.391 . S
C417 C418 1.405 . S
C418 H398 0.950 . S
C418 C417 1.405 . S
C418 C419 1.367 . S
C419 H399 0.950 . S
C419 C414 1.386 . S
C419 C418 1.367 . S
C420 C414 1.483 . S
C420 C421 1.382 . S
C420 C422 1.403 . S
C421 H400 0.950 . S
C421 C420 1.382 . S
C421 C437 1.411 . S
C422 C420 1.403 . S
C422 C423 1.489 . S
C422 C436 1.411 . S
C423 C422 1.489 . S
C423 C424 1.383 . S
C423 C428 1.382 . S
C424 H401 0.950 . S
C424 C423 1.383 . S
C424 C425 1.395 . S
C425 H402 0.950 . S
C425 C424 1.395 . S
C425 C426 1.288 . S
C426 C425 1.288 . S
C426 C427 1.392 . S
C427 H403 0.951 . S
C427 C426 1.392 . S
C427 C428 1.392 . S
C428 H404 0.949 . S
C428 C423 1.382 . S
C428 C427 1.392 . S
C429 C430 1.376 . S
C429 C434 1.386 . S
C429 C435 1.483 . S
C430 H405 0.949 . S
C430 C429 1.376 . S
C430 C431 1.397 . S
C431 H406 0.950 . S
C431 C430 1.397 . S
C431 C432 1.391 . S
C432 C431 1.391 . S
C432 C433 1.405 . S
C433 H407 0.950 . S
C433 C432 1.405 . S
C433 C434 1.367 . S
C434 H408 0.950 . S
C434 C429 1.386 . S
C434 C433 1.367 . S
C435 C429 1.483 . S
C435 C436 1.382 . S
C435 C437 1.403 . S
C436 H409 0.950 . S
C436 C422 1.411 . S
C436 C435 1.382 . S
C437 C421 1.411 . S
C437 C435 1.403 . S
C437 C438 1.489 . S
C438 C437 1.489 . S
C438 C439 1.383 . S
C438 C443 1.382 . S
C439 H410 0.950 . S
C439 C438 1.383 . S
C439 C440 1.395 . S
C440 H411 0.950 . S
C440 C439 1.395 . S
C440 C441 1.288 . S
C441 C440 1.288 . S
C441 C442 1.392 . S
C442 H412 0.951 . S
C442 C441 1.392 . S
C442 C443 1.392 . S
C443 H413 0.949 . S
C443 C438 1.382 . S
C443 C442 1.392 . S
H444 C463 0.949 . S
H445 C464 0.950 . S
H446 C466 0.950 . S
H447 C467 0.950 . S
H448 C469 0.950 . S
H449 C472 0.950 . S
H450 C473 0.950 . S
H451 C475 0.951 . S
H452 C476 0.949 . S
H453 C478 0.949 . S
H454 C479 0.950 . S
H455 C481 0.950 . S
H456 C482 0.950 . S
H457 C484 0.950 . S
H458 C487 0.950 . S
H459 C488 0.950 . S
H460 C490 0.951 . S
H461 C491 0.949 . S
C462 C463 1.376 . S
C462 C467 1.386 . S
C462 C468 1.483 . S
C463 H444 0.949 . S
C463 C462 1.376 . S
C463 C464 1.397 . S
C464 H445 0.950 . S
C464 C463 1.397 . S
C464 C465 1.391 . S
C465 C464 1.391 . S
C465 C466 1.405 . S
C466 H446 0.950 . S
C466 C465 1.405 . S
C466 C467 1.367 . S
C467 H447 0.950 . S
C467 C462 1.386 . S
C467 C466 1.367 . S
C468 C462 1.483 . S
C468 C469 1.382 . S
C468 C470 1.403 . S
C469 H448 0.950 . S
C469 C468 1.382 . S
C469 C485 1.411 . S
C470 C468 1.403 . S
C470 C471 1.489 . S
C470 C484 1.411 . S
C471 C470 1.489 . S
C471 C472 1.383 . S
C471 C476 1.382 . S
C472 H449 0.950 . S
C472 C471 1.383 . S
C472 C473 1.395 . S
C473 H450 0.950 . S
C473 C472 1.395 . S
C473 C474 1.288 . S
C474 C473 1.288 . S
C474 C475 1.392 . S
C475 H451 0.951 . S
C475 C474 1.392 . S
C475 C476 1.392 . S
C476 H452 0.949 . S
C476 C471 1.382 . S
C476 C475 1.392 . S
C477 C478 1.376 . S
C477 C482 1.386 . S
C477 C483 1.483 . S
C478 H453 0.949 . S
C478 C477 1.376 . S
C478 C479 1.397 . S
C479 H454 0.950 . S
C479 C478 1.397 . S
C479 C480 1.391 . S
C480 C479 1.391 . S
C480 C481 1.405 . S
C481 H455 0.950 . S
C481 C480 1.405 . S
C481 C482 1.367 . S
C482 H456 0.950 . S
C482 C477 1.386 . S
C482 C481 1.367 . S
C483 C477 1.483 . S
C483 C484 1.382 . S
C483 C485 1.403 . S
C484 H457 0.950 . S
C484 C470 1.411 . S
C484 C483 1.382 . S
C485 C469 1.411 . S
C485 C483 1.403 . S
C485 C486 1.489 . S
C486 C485 1.489 . S
C486 C487 1.383 . S
C486 C491 1.382 . S
C487 H458 0.950 . S
C487 C486 1.383 . S
C487 C488 1.395 . S
C488 H459 0.950 . S
C488 C487 1.395 . S
C488 C489 1.288 . S
C489 C488 1.288 . S
C489 C490 1.392 . S
C490 H460 0.951 . S
C490 C489 1.392 . S
C490 C491 1.392 . S
C491 H461 0.949 . S
C491 C486 1.382 . S
C491 C490 1.392 . S
H492 C511 0.949 . S
H493 C512 0.950 . S
H494 C514 0.950 . S
H495 C515 0.950 . S
H496 C517 0.950 . S
H497 C520 0.950 . S
H498 C521 0.950 . S
H499 C523 0.951 . S
H500 C524 0.949 . S
H501 C526 0.949 . S
H502 C527 0.950 . S
H503 C529 0.950 . S
H504 C530 0.950 . S
H505 C532 0.950 . S
H506 C535 0.950 . S
H507 C536 0.950 . S
H508 C538 0.951 . S
H509 C539 0.949 . S
C510 C511 1.376 . S
C510 C515 1.386 . S
C510 C516 1.483 . S
C511 H492 0.949 . S
C511 C510 1.376 . S
C511 C512 1.397 . S
C512 H493 0.950 . S
C512 C511 1.397 . S
C512 C513 1.391 . S
C513 C512 1.391 . S
C513 C514 1.405 . S
C514 H494 0.950 . S
C514 C513 1.405 . S
C514 C515 1.367 . S
C515 H495 0.950 . S
C515 C510 1.386 . S
C515 C514 1.367 . S
C516 C510 1.483 . S
C516 C517 1.382 . S
C516 C518 1.403 . S
C517 H496 0.950 . S
C517 C516 1.382 . S
C517 C533 1.411 . S
C518 C516 1.403 . S
C518 C519 1.489 . S
C518 C532 1.411 . S
C519 C518 1.489 . S
C519 C520 1.383 . S
C519 C524 1.382 . S
C520 H497 0.950 . S
C520 C519 1.383 . S
C520 C521 1.395 . S
C521 H498 0.950 . S
C521 C520 1.395 . S
C521 C522 1.288 . S
C522 C521 1.288 . S
C522 C523 1.392 . S
C523 H499 0.951 . S
C523 C522 1.392 . S
C523 C524 1.392 . S
C524 H500 0.949 . S
C524 C519 1.382 . S
C524 C523 1.392 . S
C525 C526 1.376 . S
C525 C530 1.386 . S
C525 C531 1.483 . S
C526 H501 0.949 . S
C526 C525 1.376 . S
C526 C527 1.397 . S
C527 H502 0.950 . S
C527 C526 1.397 . S
C527 C528 1.391 . S
C528 C527 1.391 . S
C528 C529 1.405 . S
C529 H503 0.950 . S
C529 C528 1.405 . S
C529 C530 1.367 . S
C530 H504 0.950 . S
C530 C525 1.386 . S
C530 C529 1.367 . S
C531 C525 1.483 . S
C531 C532 1.382 . S
C531 C533 1.403 . S
C532 H505 0.950 . S
C532 C518 1.411 . S
C532 C531 1.382 . S
C533 C517 1.411 . S
C533 C531 1.403 . S
C533 C534 1.489 . S
C534 C533 1.489 . S
C534 C535 1.383 . S
C534 C539 1.382 . S
C535 H506 0.950 . S
C535 C534 1.383 . S
C535 C536 1.395 . S
C536 H507 0.950 . S
C536 C535 1.395 . S
C536 C537 1.288 . S
C537 C536 1.288 . S
C537 C538 1.392 . S
C538 H508 0.951 . S
C538 C537 1.392 . S
C538 C539 1.392 . S
C539 H509 0.949 . S
C539 C534 1.382 . S
C539 C538 1.392 . S
H540 C559 0.949 . S
H541 C560 0.950 . S
H542 C562 0.950 . S
H543 C563 0.950 . S
H544 C565 0.950 . S
H545 C568 0.950 . S
H546 C569 0.950 . S
H547 C571 0.951 . S
H548 C572 0.949 . S
H549 C574 0.949 . S
H550 C575 0.950 . S
H551 C577 0.950 . S
H552 C578 0.950 . S
H553 C580 0.950 . S
H554 C583 0.950 . S
H555 C584 0.950 . S
H556 C586 0.951 . S
H557 C587 0.949 . S
C558 C559 1.376 . S
C558 C563 1.386 . S
C558 C564 1.483 . S
C559 H540 0.949 . S
C559 C558 1.376 . S
C559 C560 1.397 . S
C560 H541 0.950 . S
C560 C559 1.397 . S
C560 C561 1.391 . S
C561 C560 1.391 . S
C561 C562 1.405 . S
C562 H542 0.950 . S
C562 C561 1.405 . S
C562 C563 1.367 . S
C563 H543 0.950 . S
C563 C558 1.386 . S
C563 C562 1.367 . S
C564 C558 1.483 . S
C564 C565 1.382 . S
C564 C566 1.403 . S
C565 H544 0.950 . S
C565 C564 1.382 . S
C565 C581 1.411 . S
C566 C564 1.403 . S
C566 C567 1.489 . S
C566 C580 1.411 . S
C567 C566 1.489 . S
C567 C568 1.383 . S
C567 C572 1.382 . S
C568 H545 0.950 . S
C568 C567 1.383 . S
C568 C569 1.395 . S
C569 H546 0.950 . S
C569 C568 1.395 . S
C569 C570 1.288 . S
C570 C569 1.288 . S
C570 C571 1.392 . S
C571 H547 0.951 . S
C571 C570 1.392 . S
C571 C572 1.392 . S
C572 H548 0.949 . S
C572 C567 1.382 . S
C572 C571 1.392 . S
C573 C574 1.376 . S
C573 C578 1.386 . S
C573 C579 1.483 . S
C574 H549 0.949 . S
C574 C573 1.376 . S
C574 C575 1.397 . S
C575 H550 0.950 . S
C575 C574 1.397 . S
C575 C576 1.391 . S
C576 C575 1.391 . S
C576 C577 1.405 . S
C577 H551 0.950 . S
C577 C576 1.405 . S
C577 C578 1.367 . S
C578 H552 0.950 . S
C578 C573 1.386 . S
C578 C577 1.367 . S
C579 C573 1.483 . S
C579 C580 1.382 . S
C579 C581 1.403 . S
C580 H553 0.950 . S
C580 C566 1.411 . S
C580 C579 1.382 . S
C581 C565 1.411 . S
C581 C579 1.403 . S
C581 C582 1.489 . S
C582 C581 1.489 . S
C582 C583 1.383 . S
C582 C587 1.382 . S
C583 H554 0.950 . S
C583 C582 1.383 . S
C583 C584 1.395 . S
C584 H555 0.950 . S
C584 C583 1.395 . S
C584 C585 1.288 . S
C585 C584 1.288 . S
C585 C586 1.392 . S
C586 H556 0.951 . S
C586 C585 1.392 . S
C586 C587 1.392 . S
C587 H557 0.949 . S
C587 C582 1.382 . S
C587 C586 1.392 . S
H588 C607 0.949 . S
H589 C608 0.950 . S
H590 C610 0.950 . S
H591 C611 0.950 . S
H592 C613 0.950 . S
H593 C616 0.950 . S
H594 C617 0.950 . S
H595 C619 0.951 . S
H596 C620 0.949 . S
H597 C622 0.949 . S
H598 C623 0.950 . S
H599 C625 0.950 . S
H600 C626 0.950 . S
H601 C628 0.950 . S
H602 C631 0.950 . S
H603 C632 0.950 . S
H604 C634 0.951 . S
H605 C635 0.949 . S
C606 C607 1.376 . S
C606 C611 1.386 . S
C606 C612 1.483 . S
C607 H588 0.949 . S
C607 C606 1.376 . S
C607 C608 1.397 . S
C608 H589 0.950 . S
C608 C607 1.397 . S
C608 C609 1.391 . S
C609 C608 1.391 . S
C609 C610 1.405 . S
C610 H590 0.950 . S
C610 C609 1.405 . S
C610 C611 1.367 . S
C611 H591 0.950 . S
C611 C606 1.386 . S
C611 C610 1.367 . S
C612 C606 1.483 . S
C612 C613 1.382 . S
C612 C614 1.403 . S
C613 H592 0.950 . S
C613 C612 1.382 . S
C613 C629 1.411 . S
C614 C612 1.403 . S
C614 C615 1.489 . S
C614 C628 1.411 . S
C615 C614 1.489 . S
C615 C616 1.383 . S
C615 C620 1.382 . S
C616 H593 0.950 . S
C616 C615 1.383 . S
C616 C617 1.395 . S
C617 H594 0.950 . S
C617 C616 1.395 . S
C617 C618 1.288 . S
C618 C617 1.288 . S
C618 C619 1.392 . S
C619 H595 0.951 . S
C619 C618 1.392 . S
C619 C620 1.392 . S
C620 H596 0.949 . S
C620 C615 1.382 . S
C620 C619 1.392 . S
C621 C622 1.376 . S
C621 C626 1.386 . S
C621 C627 1.483 . S
C622 H597 0.949 . S
C622 C621 1.376 . S
C622 C623 1.397 . S
C623 H598 0.950 . S
C623 C622 1.397 . S
C623 C624 1.391 . S
C624 C623 1.391 . S
C624 C625 1.405 . S
C625 H599 0.950 . S
C625 C624 1.405 . S
C625 C626 1.367 . S
C626 H600 0.950 . S
C626 C621 1.386 . S
C626 C625 1.367 . S
C627 C621 1.483 . S
C627 C628 1.382 . S
C627 C629 1.403 . S
C628 H601 0.950 . S
C628 C614 1.411 . S
C628 C627 1.382 . S
C629 C613 1.411 . S
C629 C627 1.403 . S
C629 C630 1.489 . S
C630 C629 1.489 . S
C630 C631 1.383 . S
C630 C635 1.382 . S
C631 H602 0.950 . S
C631 C630 1.383 . S
C631 C632 1.395 . S
C632 H603 0.950 . S
C632 C631 1.395 . S
C632 C633 1.288 . S
C633 C632 1.288 . S
C633 C634 1.392 . S
C634 H604 0.951 . S
C634 C633 1.392 . S
C634 C635 1.392 . S
C635 H605 0.949 . S
C635 C630 1.382 . S
C635 C634 1.392 . S
H636 C655 0.949 . S
H637 C656 0.950 . S
H638 C658 0.950 . S
H639 C659 0.950 . S
H640 C661 0.950 . S
H641 C664 0.950 . S
H642 C665 0.950 . S
H643 C667 0.951 . S
H644 C668 0.949 . S
H645 C670 0.949 . S
H646 C671 0.950 . S
H647 C673 0.950 . S
H648 C674 0.950 . S
H649 C676 0.950 . S
H650 C679 0.950 . S
H651 C680 0.950 . S
H652 C682 0.951 . S
H653 C683 0.949 . S
C654 C655 1.376 . S
C654 C659 1.386 . S
C654 C660 1.483 . S
C655 H636 0.949 . S
C655 C654 1.376 . S
C655 C656 1.397 . S
C656 H637 0.950 . S
C656 C655 1.397 . S
C656 C657 1.391 . S
C657 C656 1.391 . S
C657 C658 1.405 . S
C658 H638 0.950 . S
C658 C657 1.405 . S
C658 C659 1.367 . S
C659 H639 0.950 . S
C659 C654 1.386 . S
C659 C658 1.367 . S
C660 C654 1.483 . S
C660 C661 1.382 . S
C660 C662 1.403 . S
C661 H640 0.950 . S
C661 C660 1.382 . S
C661 C677 1.411 . S
C662 C660 1.403 . S
C662 C663 1.489 . S
C662 C676 1.411 . S
C663 C662 1.489 . S
C663 C664 1.383 . S
C663 C668 1.382 . S
C664 H641 0.950 . S
C664 C663 1.383 . S
C664 C665 1.395 . S
C665 H642 0.950 . S
C665 C664 1.395 . S
C665 C666 1.288 . S
C666 C665 1.288 . S
C666 C667 1.392 . S
C667 H643 0.951 . S
C667 C666 1.392 . S
C667 C668 1.392 . S
C668 H644 0.949 . S
C668 C663 1.382 . S
C668 C667 1.392 . S
C669 C670 1.376 . S
C669 C674 1.386 . S
C669 C675 1.483 . S
C670 H645 0.949 . S
C670 C669 1.376 . S
C670 C671 1.397 . S
C671 H646 0.950 . S
C671 C670 1.397 . S
C671 C672 1.391 . S
C672 C671 1.391 . S
C672 C673 1.405 . S
C673 H647 0.950 . S
C673 C672 1.405 . S
C673 C674 1.367 . S
C674 H648 0.950 . S
C674 C669 1.386 . S
C674 C673 1.367 . S
C675 C669 1.483 . S
C675 C676 1.382 . S
C675 C677 1.403 . S
C676 H649 0.950 . S
C676 C662 1.411 . S
C676 C675 1.382 . S
C677 C661 1.411 . S
C677 C675 1.403 . S
C677 C678 1.489 . S
C678 C677 1.489 . S
C678 C679 1.383 . S
C678 C683 1.382 . S
C679 H650 0.950 . S
C679 C678 1.383 . S
C679 C680 1.395 . S
C680 H651 0.950 . S
C680 C679 1.395 . S
C680 C681 1.288 . S
C681 C680 1.288 . S
C681 C682 1.392 . S
C682 H652 0.951 . S
C682 C681 1.392 . S
C682 C683 1.392 . S
C683 H653 0.949 . S
C683 C678 1.382 . S
C683 C682 1.392 . S
H684 C703 0.949 . S
H685 C704 0.950 . S
H686 C706 0.950 . S
H687 C707 0.950 . S
H688 C709 0.950 . S
H689 C712 0.950 . S
H690 C713 0.950 . S
H691 C715 0.951 . S
H692 C716 0.949 . S
H693 C718 0.949 . S
H694 C719 0.950 . S
H695 C721 0.950 . S
H696 C722 0.950 . S
H697 C724 0.950 . S
H698 C727 0.950 . S
H699 C728 0.950 . S
H700 C730 0.951 . S
H701 C731 0.949 . S
C702 C703 1.376 . S
C702 C707 1.386 1_655 S
C702 C708 1.483 . S
C703 H684 0.949 . S
C703 C702 1.376 . S
C703 C704 1.397 . S
C704 H685 0.950 . S
C704 C703 1.397 . S
C704 C705 1.391 . S
C705 C704 1.391 . S
C705 C706 1.405 1_655 S
C706 H686 0.950 . S
C706 C705 1.405 1_455 S
C706 C707 1.367 . S
C707 H687 0.950 . S
C707 C702 1.386 1_455 S
C707 C706 1.367 . S
C708 C702 1.483 . S
C708 C709 1.382 . S
C708 C710 1.403 1_655 S
C709 H688 0.950 . S
C709 C708 1.382 . S
C709 C725 1.411 . S
C710 C708 1.403 1_455 S
C710 C711 1.489 . S
C710 C724 1.411 . S
C711 C710 1.489 . S
C711 C712 1.383 1_455 S
C711 C716 1.382 . S
C712 H689 0.950 . S
C712 C711 1.383 1_655 S
C712 C713 1.395 . S
C713 H690 0.950 . S
C713 C712 1.395 . S
C713 C714 1.288 1_655 S
C714 C713 1.288 1_455 S
C714 C715 1.392 . S
C715 H691 0.951 . S
C715 C714 1.392 . S
C715 C716 1.392 . S
C716 H692 0.949 . S
C716 C711 1.382 . S
C716 C715 1.392 . S
C717 C718 1.376 . S
C717 C722 1.386 1_455 S
C717 C723 1.483 . S
C718 H693 0.949 . S
C718 C717 1.376 . S
C718 C719 1.397 . S
C719 H694 0.950 . S
C719 C718 1.397 . S
C719 C720 1.391 . S
C720 C719 1.391 . S
C720 C721 1.405 1_455 S
C721 H695 0.950 . S
C721 C720 1.405 1_655 S
C721 C722 1.367 . S
C722 H696 0.950 . S
C722 C717 1.386 1_655 S
C722 C721 1.367 . S
C723 C717 1.483 . S
C723 C724 1.382 . S
C723 C725 1.403 1_455 S
C724 H697 0.950 . S
C724 C710 1.411 . S
C724 C723 1.382 . S
C725 C709 1.411 . S
C725 C723 1.403 1_655 S
C725 C726 1.489 . S
C726 C725 1.489 . S
C726 C727 1.383 1_655 S
C726 C731 1.382 . S
C727 H698 0.950 . S
C727 C726 1.383 1_455 S
C727 C728 1.395 . S
C728 H699 0.950 . S
C728 C727 1.395 . S
C728 C729 1.288 1_455 S
C729 C728 1.288 1_655 S
C729 C730 1.392 . S
C730 H700 0.951 . S
C730 C729 1.392 . S
C730 C731 1.392 . S
C731 H701 0.949 . S
C731 C726 1.382 . S
C731 C730 1.392 . S
H732 C751 0.949 . S
H733 C752 0.950 . S
H734 C754 0.950 . S
H735 C755 0.950 . S
H736 C757 0.950 . S
H737 C760 0.950 . S
H738 C761 0.950 . S
H739 C763 0.951 . S
H740 C764 0.949 . S
H741 C766 0.949 . S
H742 C767 0.950 . S
H743 C769 0.950 . S
H744 C770 0.950 . S
H745 C772 0.950 . S
H746 C775 0.950 . S
H747 C776 0.950 . S
H748 C778 0.951 . S
H749 C779 0.949 . S
C750 C751 1.376 . S
C750 C755 1.386 . S
C750 C756 1.483 . S
C751 H732 0.949 . S
C751 C750 1.376 . S
C751 C752 1.397 . S
C752 H733 0.950 . S
C752 C751 1.397 . S
C752 C753 1.391 . S
C753 C752 1.391 . S
C753 C754 1.405 . S
C754 H734 0.950 . S
C754 C753 1.405 . S
C754 C755 1.367 . S
C755 H735 0.950 . S
C755 C750 1.386 . S
C755 C754 1.367 . S
C756 C750 1.483 . S
C756 C757 1.382 . S
C756 C758 1.403 . S
C757 H736 0.950 . S
C757 C756 1.382 . S
C757 C773 1.411 . S
C758 C756 1.403 . S
C758 C759 1.489 . S
C758 C772 1.411 . S
C759 C758 1.489 . S
C759 C760 1.383 . S
C759 C764 1.382 . S
C760 H737 0.950 . S
C760 C759 1.383 . S
C760 C761 1.395 . S
C761 H738 0.950 . S
C761 C760 1.395 . S
C761 C762 1.288 . S
C762 C761 1.288 . S
C762 C763 1.392 . S
C763 H739 0.951 . S
C763 C762 1.392 . S
C763 C764 1.392 . S
C764 H740 0.949 . S
C764 C759 1.382 . S
C764 C763 1.392 . S
C765 C766 1.376 . S
C765 C770 1.386 . S
C765 C771 1.483 . S
C766 H741 0.949 . S
C766 C765 1.376 . S
C766 C767 1.397 . S
C767 H742 0.950 . S
C767 C766 1.397 . S
C767 C768 1.391 . S
C768 C767 1.391 . S
C768 C769 1.405 . S
C769 H743 0.950 . S
C769 C768 1.405 . S
C769 C770 1.367 . S
C770 H744 0.950 . S
C770 C765 1.386 . S
C770 C769 1.367 . S
C771 C765 1.483 . S
C771 C772 1.382 . S
C771 C773 1.403 . S
C772 H745 0.950 . S
C772 C758 1.411 . S
C772 C771 1.382 . S
C773 C757 1.411 . S
C773 C771 1.403 . S
C773 C774 1.489 . S
C774 C773 1.489 . S
C774 C775 1.383 . S
C774 C779 1.382 . S
C775 H746 0.950 . S
C775 C774 1.383 . S
C775 C776 1.395 . S
C776 H747 0.950 . S
C776 C775 1.395 . S
C776 C777 1.288 . S
C777 C776 1.288 . S
C777 C778 1.392 . S
C778 H748 0.951 . S
C778 C777 1.392 . S
C778 C779 1.392 . S
C779 H749 0.949 . S
C779 C774 1.382 . S
C779 C778 1.392 . S
H780 C799 0.949 . S
H781 C800 0.950 . S
H782 C802 0.950 . S
H783 C803 0.950 . S
H784 C805 0.950 . S
H785 C808 0.950 . S
H786 C809 0.950 . S
H787 C811 0.951 . S
H788 C812 0.949 . S
H789 C814 0.949 . S
H790 C815 0.950 . S
H791 C817 0.950 . S
H792 C818 0.950 . S
H793 C820 0.950 . S
H794 C823 0.950 . S
H795 C824 0.950 . S
H796 C826 0.951 . S
H797 C827 0.949 . S
C798 C799 1.376 . S
C798 C803 1.386 1_545 S
C798 C804 1.483 . S
C799 H780 0.949 . S
C799 C798 1.376 . S
C799 C800 1.397 . S
C800 H781 0.950 . S
C800 C799 1.397 . S
C800 C801 1.391 . S
C801 C800 1.391 . S
C801 C802 1.405 1_545 S
C802 H782 0.950 . S
C802 C801 1.405 1_565 S
C802 C803 1.367 . S
C803 H783 0.950 . S
C803 C798 1.386 1_565 S
C803 C802 1.367 . S
C804 C798 1.483 . S
C804 C805 1.382 . S
C804 C806 1.403 1_545 S
C805 H784 0.950 . S
C805 C804 1.382 . S
C805 C821 1.411 . S
C806 C804 1.403 1_565 S
C806 C807 1.489 . S
C806 C820 1.411 . S
C807 C806 1.489 . S
C807 C808 1.383 1_565 S
C807 C812 1.382 . S
C808 H785 0.950 . S
C808 C807 1.383 1_545 S
C808 C809 1.395 . S
C809 H786 0.950 . S
C809 C808 1.395 . S
C809 C810 1.288 1_545 S
C810 C809 1.288 1_565 S
C810 C811 1.392 . S
C811 H787 0.951 . S
C811 C810 1.392 . S
C811 C812 1.392 . S
C812 H788 0.949 . S
C812 C807 1.382 . S
C812 C811 1.392 . S
C813 C814 1.376 . S
C813 C818 1.386 1_565 S
C813 C819 1.483 . S
C814 H789 0.949 . S
C814 C813 1.376 . S
C814 C815 1.397 . S
C815 H790 0.950 . S
C815 C814 1.397 . S
C815 C816 1.391 . S
C816 C815 1.391 . S
C816 C817 1.405 1_565 S
C817 H791 0.950 . S
C817 C816 1.405 1_545 S
C817 C818 1.367 . S
C818 H792 0.950 . S
C818 C813 1.386 1_545 S
C818 C817 1.367 . S
C819 C813 1.483 . S
C819 C820 1.382 . S
C819 C821 1.403 1_565 S
C820 H793 0.950 . S
C820 C806 1.411 . S
C820 C819 1.382 . S
C821 C805 1.411 . S
C821 C819 1.403 1_545 S
C821 C822 1.489 . S
C822 C821 1.489 . S
C822 C823 1.383 1_545 S
C822 C827 1.382 . S
C823 H794 0.950 . S
C823 C822 1.383 1_565 S
C823 C824 1.395 . S
C824 H795 0.950 . S
C824 C823 1.395 . S
C824 C825 1.288 1_565 S
C825 C824 1.288 1_545 S
C825 C826 1.392 . S
C826 H796 0.951 . S
C826 C825 1.392 . S
C826 C827 1.392 . S
C827 H797 0.949 . S
C827 C822 1.382 . S
C827 C826 1.392 . S
H828 C847 0.949 . S
H829 C848 0.950 . S
H830 C850 0.950 . S
H831 C851 0.950 . S
H832 C853 0.950 . S
H833 C856 0.950 . S
H834 C857 0.950 . S
H835 C859 0.951 . S
H836 C860 0.949 . S
H837 C862 0.949 . S
H838 C863 0.950 . S
H839 C865 0.950 . S
H840 C866 0.950 . S
H841 C868 0.950 . S
H842 C871 0.950 . S
H843 C872 0.950 . S
H844 C874 0.951 . S
H845 C875 0.949 . S
C846 C847 1.383 . S
C846 C851 1.382 1_545 S
C846 C852 1.504 . S
C847 H828 0.949 . S
C847 C846 1.383 . S
C847 C848 1.397 . S
C848 H829 0.950 . S
C848 C847 1.397 . S
C848 C849 1.391 1_545 S
C849 C848 1.391 1_565 S
C849 C850 1.405 . S
C850 H830 0.950 . S
C850 C849 1.405 . S
C850 C851 1.367 . S
C851 H831 0.950 . S
C851 C846 1.382 1_565 S
C851 C850 1.367 . S
C852 C846 1.504 . S
C852 C853 1.359 . S
C852 C854 1.398 1_545 S
C853 H832 0.950 . S
C853 C852 1.359 . S
C853 C869 1.411 . S
C854 C852 1.398 1_565 S
C854 C855 1.485 . S
C854 C868 1.438 . S
C855 C854 1.485 . S
C855 C856 1.341 1_565 S
C855 C860 1.405 . S
C856 H833 0.950 . S
C856 C855 1.341 1_545 S
C856 C857 1.395 . S
C857 H834 0.950 . S
C857 C856 1.395 . S
C857 C858 1.288 . S
C858 C857 1.288 . S
C858 C859 1.392 1_545 S
C859 H835 0.951 . S
C859 C858 1.392 1_565 S
C859 C860 1.392 . S
C860 H836 0.949 . S
C860 C855 1.405 . S
C860 C859 1.392 . S
C861 C862 1.373 . S
C861 C866 1.388 1_565 S
C861 C867 1.504 . S
C862 H837 0.949 . S
C862 C861 1.373 . S
C862 C863 1.397 . S
C863 H838 0.950 . S
C863 C862 1.397 . S
C863 C864 1.391 1_565 S
C864 C863 1.391 1_545 S
C864 C865 1.405 . S
C865 H839 0.950 . S
C865 C864 1.405 . S
C865 C866 1.367 . S
C866 H840 0.950 . S
C866 C861 1.388 1_545 S
C866 C865 1.367 . S
C867 C861 1.504 . S
C867 C868 1.364 . S
C867 C869 1.400 1_565 S
C868 H841 0.950 . S
C868 C854 1.438 . S
C868 C867 1.364 . S
C869 C853 1.411 . S
C869 C867 1.400 1_545 S
C869 C870 1.514 . S
C870 C869 1.514 . S
C870 C871 1.328 1_545 S
C870 C875 1.412 . S
C871 H842 0.950 . S
C871 C870 1.328 1_565 S
C871 C872 1.395 . S
C872 H843 0.950 . S
C872 C871 1.395 . S
C872 C873 1.288 . S
C873 C872 1.288 . S
C873 C874 1.392 1_565 S
C874 H844 0.951 . S
C874 C873 1.392 1_545 S
C874 C875 1.392 . S
C875 H845 0.949 . S
C875 C870 1.412 . S
C875 C874 1.392 . S
H876 C895 0.949 . S
H877 C896 0.950 . S
H878 C898 0.950 . S
H879 C899 0.950 . S
H880 C901 0.950 . S
H881 C904 0.950 . S
H882 C905 0.950 . S
H883 C907 0.951 . S
H884 C908 0.949 . S
H885 C910 0.949 . S
H886 C911 0.950 . S
H887 C913 0.950 . S
H888 C914 0.950 . S
H889 C916 0.950 . S
H890 C919 0.950 . S
H891 C920 0.950 . S
H892 C922 0.951 . S
H893 C923 0.949 . S
C894 C895 1.376 . S
C894 C899 1.386 1_455 S
C894 C900 1.483 . S
C895 H876 0.949 . S
C895 C894 1.376 . S
C895 C896 1.397 . S
C896 H877 0.950 . S
C896 C895 1.397 . S
C896 C897 1.391 . S
C897 C896 1.391 . S
C897 C898 1.405 1_455 S
C898 H878 0.950 . S
C898 C897 1.405 1_655 S
C898 C899 1.367 . S
C899 H879 0.950 . S
C899 C894 1.386 1_655 S
C899 C898 1.367 . S
C900 C894 1.483 . S
C900 C901 1.382 . S
C900 C902 1.403 1_455 S
C901 H880 0.950 . S
C901 C900 1.382 . S
C901 C917 1.411 . S
C902 C900 1.403 1_655 S
C902 C903 1.489 . S
C902 C916 1.411 . S
C903 C902 1.489 . S
C903 C904 1.383 1_655 S
C903 C908 1.382 . S
C904 H881 0.950 . S
C904 C903 1.383 1_455 S
C904 C905 1.395 . S
C905 H882 0.950 . S
C905 C904 1.395 . S
C905 C906 1.288 1_455 S
C906 C905 1.288 1_655 S
C906 C907 1.392 . S
C907 H883 0.951 . S
C907 C906 1.392 . S
C907 C908 1.392 . S
C908 H884 0.949 . S
C908 C903 1.382 . S
C908 C907 1.392 . S
C909 C910 1.376 . S
C909 C914 1.386 1_655 S
C909 C915 1.483 . S
C910 H885 0.949 . S
C910 C909 1.376 . S
C910 C911 1.397 . S
C911 H886 0.950 . S
C911 C910 1.397 . S
C911 C912 1.391 . S
C912 C911 1.391 . S
C912 C913 1.405 1_655 S
C913 H887 0.950 . S
C913 C912 1.405 1_455 S
C913 C914 1.367 . S
C914 H888 0.950 . S
C914 C909 1.386 1_455 S
C914 C913 1.367 . S
C915 C909 1.483 . S
C915 C916 1.382 . S
C915 C917 1.403 1_655 S
C916 H889 0.950 . S
C916 C902 1.411 . S
C916 C915 1.382 . S
C917 C901 1.411 . S
C917 C915 1.403 1_455 S
C917 C918 1.489 . S
C918 C917 1.489 . S
C918 C919 1.383 1_455 S
C918 C923 1.382 . S
C919 H890 0.950 . S
C919 C918 1.383 1_655 S
C919 C920 1.395 . S
C920 H891 0.950 . S
C920 C919 1.395 . S
C920 C921 1.288 1_655 S
C921 C920 1.288 1_455 S
C921 C922 1.392 . S
C922 H892 0.951 . S
C922 C921 1.392 . S
C922 C923 1.392 . S
C923 H893 0.949 . S
C923 C918 1.382 . S
C923 C922 1.392 . S
H924 C943 0.949 . S
H925 C944 0.950 . S
H926 C946 0.950 . S
H927 C947 0.950 . S
H928 C949 0.950 . S
H929 C952 0.950 . S
H930 C953 0.950 . S
H931 C955 0.951 . S
H932 C956 0.949 . S
H933 C958 0.949 . S
H934 C959 0.950 . S
H935 C961 0.950 . S
H936 C962 0.950 . S
H937 C964 0.950 . S
H938 C967 0.950 . S
H939 C968 0.950 . S
H940 C970 0.951 . S
H941 C971 0.949 . S
C942 C943 1.376 . S
C942 C947 1.386 . S
C942 C948 1.483 . S
C943 H924 0.949 . S
C943 C942 1.376 . S
C943 C944 1.397 . S
C944 H925 0.950 . S
C944 C943 1.397 . S
C944 C945 1.391 . S
C945 C944 1.391 . S
C945 C946 1.405 . S
C946 H926 0.950 . S
C946 C945 1.405 . S
C946 C947 1.367 . S
C947 H927 0.950 . S
C947 C942 1.386 . S
C947 C946 1.367 . S
C948 C942 1.483 . S
C948 C949 1.382 . S
C948 C950 1.403 . S
C949 H928 0.950 . S
C949 C948 1.382 . S
C949 C965 1.411 . S
C950 C948 1.403 . S
C950 C951 1.489 . S
C950 C964 1.411 . S
C951 C950 1.489 . S
C951 C952 1.383 . S
C951 C956 1.382 . S
C952 H929 0.950 . S
C952 C951 1.383 . S
C952 C953 1.395 . S
C953 H930 0.950 . S
C953 C952 1.395 . S
C953 C954 1.288 . S
C954 C953 1.288 . S
C954 C955 1.392 . S
C955 H931 0.951 . S
C955 C954 1.392 . S
C955 C956 1.392 . S
C956 H932 0.949 . S
C956 C951 1.382 . S
C956 C955 1.392 . S
C957 C958 1.376 . S
C957 C962 1.386 . S
C957 C963 1.483 . S
C958 H933 0.949 . S
C958 C957 1.376 . S
C958 C959 1.397 . S
C959 H934 0.950 . S
C959 C958 1.397 . S
C959 C960 1.391 . S
C960 C959 1.391 . S
C960 C961 1.405 . S
C961 H935 0.950 . S
C961 C960 1.405 . S
C961 C962 1.367 . S
C962 H936 0.950 . S
C962 C957 1.386 . S
C962 C961 1.367 . S
C963 C957 1.483 . S
C963 C964 1.382 . S
C963 C965 1.403 . S
C964 H937 0.950 . S
C964 C950 1.411 . S
C964 C963 1.382 . S
C965 C949 1.411 . S
C965 C963 1.403 . S
C965 C966 1.489 . S
C966 C965 1.489 . S
C966 C967 1.383 . S
C966 C971 1.382 . S
C967 H938 0.950 . S
C967 C966 1.383 . S
C967 C968 1.395 . S
C968 H939 0.950 . S
C968 C967 1.395 . S
C968 C969 1.288 . S
C969 C968 1.288 . S
C969 C970 1.392 . S
C970 H940 0.951 . S
C970 C969 1.392 . S
C970 C971 1.392 . S
C971 H941 0.949 . S
C971 C966 1.382 . S
C971 C970 1.392 . S
H972 C991 0.949 . S
H973 C992 0.950 . S
H974 C994 0.950 . S
H975 C995 0.950 . S
H976 C997 0.950 . S
H977 C1000 0.950 . S
H978 C1001 0.950 . S
H979 C1003 0.951 . S
H980 C1004 0.949 . S
H981 C1006 0.949 . S
H982 C1007 0.950 . S
H983 C1009 0.950 . S
H984 C1010 0.950 . S
H985 C1012 0.950 . S
H986 C1015 0.950 . S
H987 C1016 0.950 . S
H988 C1018 0.951 . S
H989 C1019 0.949 . S
C990 C991 1.376 . S
C990 C995 1.386 . S
C990 C996 1.483 . S
C991 H972 0.949 . S
C991 C990 1.376 . S
C991 C992 1.397 . S
C992 H973 0.950 . S
C992 C991 1.397 . S
C992 C993 1.391 . S
C993 C992 1.391 . S
C993 C994 1.405 . S
C994 H974 0.950 . S
C994 C993 1.405 . S
C994 C995 1.367 . S
C995 H975 0.950 . S
C995 C990 1.386 . S
C995 C994 1.367 . S
C996 C990 1.483 . S
C996 C997 1.382 . S
C996 C998 1.403 . S
C997 H976 0.950 . S
C997 C996 1.382 . S
C997 C1013 1.411 . S
C998 C996 1.403 . S
C998 C999 1.489 . S
C998 C1012 1.411 . S
C999 C998 1.489 . S
C999 C1000 1.383 . S
C999 C1004 1.382 . S
C1000 H977 0.950 . S
C1000 C999 1.383 . S
C1000 C1001 1.395 . S
C1001 H978 0.950 . S
C1001 C1000 1.395 . S
C1001 C1002 1.288 . S
C1002 C1001 1.288 . S
C1002 C1003 1.392 . S
C1003 H979 0.951 . S
C1003 C1002 1.392 . S
C1003 C1004 1.392 . S
C1004 H980 0.949 . S
C1004 C999 1.382 . S
C1004 C1003 1.392 . S
C1005 C1006 1.376 . S
C1005 C1010 1.386 . S
C1005 C1011 1.483 . S
C1006 H981 0.949 . S
C1006 C1005 1.376 . S
C1006 C1007 1.397 . S
C1007 H982 0.950 . S
C1007 C1006 1.397 . S
C1007 C1008 1.391 . S
C1008 C1007 1.391 . S
C1008 C1009 1.405 . S
C1009 H983 0.950 . S
C1009 C1008 1.405 . S
C1009 C1010 1.367 . S
C1010 H984 0.950 . S
C1010 C1005 1.386 . S
C1010 C1009 1.367 . S
C1011 C1005 1.483 . S
C1011 C1012 1.382 . S
C1011 C1013 1.403 . S
C1012 H985 0.950 . S
C1012 C998 1.411 . S
C1012 C1011 1.382 . S
C1013 C997 1.411 . S
C1013 C1011 1.403 . S
C1013 C1014 1.489 . S
C1014 C1013 1.489 . S
C1014 C1015 1.383 . S
C1014 C1019 1.382 . S
C1015 H986 0.950 . S
C1015 C1014 1.383 . S
C1015 C1016 1.395 . S
C1016 H987 0.950 . S
C1016 C1015 1.395 . S
C1016 C1017 1.288 . S
C1017 C1016 1.288 . S
C1017 C1018 1.392 . S
C1018 H988 0.951 . S
C1018 C1017 1.392 . S
C1018 C1019 1.392 . S
C1019 H989 0.949 . S
C1019 C1014 1.382 . S
C1019 C1018 1.392 . S
H1020 C1039 0.949 . S
H1021 C1040 0.950 . S
H1022 C1042 0.950 . S
H1023 C1043 0.950 . S
H1024 C1045 0.950 . S
H1025 C1048 0.950 . S
H1026 C1049 0.950 . S
H1027 C1051 0.951 . S
H1028 C1052 0.949 . S
H1029 C1054 0.949 . S
H1030 C1055 0.950 . S
H1031 C1057 0.950 . S
H1032 C1058 0.950 . S
H1033 C1060 0.950 . S
H1034 C1063 0.950 . S
H1035 C1064 0.950 . S
H1036 C1066 0.951 . S
H1037 C1067 0.949 . S
C1038 C1039 1.376 . S
C1038 C1043 1.386 . S
C1038 C1044 1.483 . S
C1039 H1020 0.949 . S
C1039 C1038 1.376 . S
C1039 C1040 1.397 . S
C1040 H1021 0.950 . S
C1040 C1039 1.397 . S
C1040 C1041 1.391 . S
C1041 C1040 1.391 . S
C1041 C1042 1.405 . S
C1042 H1022 0.950 . S
C1042 C1041 1.405 . S
C1042 C1043 1.367 . S
C1043 H1023 0.950 . S
C1043 C1038 1.386 . S
C1043 C1042 1.367 . S
C1044 C1038 1.483 . S
C1044 C1045 1.382 . S
C1044 C1046 1.403 . S
C1045 H1024 0.950 . S
C1045 C1044 1.382 . S
C1045 C1061 1.411 . S
C1046 C1044 1.403 . S
C1046 C1047 1.489 . S
C1046 C1060 1.411 . S
C1047 C1046 1.489 . S
C1047 C1048 1.383 . S
C1047 C1052 1.382 . S
C1048 H1025 0.950 . S
C1048 C1047 1.383 . S
C1048 C1049 1.395 . S
C1049 H1026 0.950 . S
C1049 C1048 1.395 . S
C1049 C1050 1.288 . S
C1050 C1049 1.288 . S
C1050 C1051 1.392 . S
C1051 H1027 0.951 . S
C1051 C1050 1.392 . S
C1051 C1052 1.392 . S
C1052 H1028 0.949 . S
C1052 C1047 1.382 . S
C1052 C1051 1.392 . S
C1053 C1054 1.376 . S
C1053 C1058 1.386 . S
C1053 C1059 1.483 . S
C1054 H1029 0.949 . S
C1054 C1053 1.376 . S
C1054 C1055 1.397 . S
C1055 H1030 0.950 . S
C1055 C1054 1.397 . S
C1055 C1056 1.391 . S
C1056 C1055 1.391 . S
C1056 C1057 1.405 . S
C1057 H1031 0.950 . S
C1057 C1056 1.405 . S
C1057 C1058 1.367 . S
C1058 H1032 0.950 . S
C1058 C1053 1.386 . S
C1058 C1057 1.367 . S
C1059 C1053 1.483 . S
C1059 C1060 1.382 . S
C1059 C1061 1.403 . S
C1060 H1033 0.950 . S
C1060 C1046 1.411 . S
C1060 C1059 1.382 . S
C1061 C1045 1.411 . S
C1061 C1059 1.403 . S
C1061 C1062 1.489 . S
C1062 C1061 1.489 . S
C1062 C1063 1.383 . S
C1062 C1067 1.382 . S
C1063 H1034 0.950 . S
C1063 C1062 1.383 . S
C1063 C1064 1.395 . S
C1064 H1035 0.950 . S
C1064 C1063 1.395 . S
C1064 C1065 1.288 . S
C1065 C1064 1.288 . S
C1065 C1066 1.392 . S
C1066 H1036 0.951 . S
C1066 C1065 1.392 . S
C1066 C1067 1.392 . S
C1067 H1037 0.949 . S
C1067 C1062 1.382 . S
C1067 C1066 1.392 . S
H1068 C1087 0.949 . S
H1069 C1088 0.950 . S
H1070 C1090 0.950 . S
H1071 C1091 0.950 . S
H1072 C1093 0.950 . S
H1073 C1096 0.950 . S
H1074 C1097 0.950 . S
H1075 C1099 0.951 . S
H1076 C1100 0.949 . S
H1077 C1102 0.949 . S
H1078 C1103 0.950 . S
H1079 C1105 0.950 . S
H1080 C1106 0.950 . S
H1081 C1108 0.950 . S
H1082 C1111 0.950 . S
H1083 C1112 0.950 . S
H1084 C1114 0.951 . S
H1085 C1115 0.949 . S
C1086 C1087 1.376 . S
C1086 C1091 1.386 . S
C1086 C1092 1.483 . S
C1087 H1068 0.949 . S
C1087 C1086 1.376 . S
C1087 C1088 1.397 . S
C1088 H1069 0.950 . S
C1088 C1087 1.397 . S
C1088 C1089 1.391 . S
C1089 C1088 1.391 . S
C1089 C1090 1.405 . S
C1090 H1070 0.950 . S
C1090 C1089 1.405 . S
C1090 C1091 1.367 . S
C1091 H1071 0.950 . S
C1091 C1086 1.386 . S
C1091 C1090 1.367 . S
C1092 C1086 1.483 . S
C1092 C1093 1.382 . S
C1092 C1094 1.403 . S
C1093 H1072 0.950 . S
C1093 C1092 1.382 . S
C1093 C1109 1.411 . S
C1094 C1092 1.403 . S
C1094 C1095 1.489 . S
C1094 C1108 1.411 . S
C1095 C1094 1.489 . S
C1095 C1096 1.383 . S
C1095 C1100 1.382 . S
C1096 H1073 0.950 . S
C1096 C1095 1.383 . S
C1096 C1097 1.395 . S
C1097 H1074 0.950 . S
C1097 C1096 1.395 . S
C1097 C1098 1.288 . S
C1098 C1097 1.288 . S
C1098 C1099 1.392 . S
C1099 H1075 0.951 . S
C1099 C1098 1.392 . S
C1099 C1100 1.392 . S
C1100 H1076 0.949 . S
C1100 C1095 1.382 . S
C1100 C1099 1.392 . S
C1101 C1102 1.376 . S
C1101 C1106 1.386 . S
C1101 C1107 1.483 . S
C1102 H1077 0.949 . S
C1102 C1101 1.376 . S
C1102 C1103 1.397 . S
C1103 H1078 0.950 . S
C1103 C1102 1.397 . S
C1103 C1104 1.391 . S
C1104 C1103 1.391 . S
C1104 C1105 1.405 . S
C1105 H1079 0.950 . S
C1105 C1104 1.405 . S
C1105 C1106 1.367 . S
C1106 H1080 0.950 . S
C1106 C1101 1.386 . S
C1106 C1105 1.367 . S
C1107 C1101 1.483 . S
C1107 C1108 1.382 . S
C1107 C1109 1.403 . S
C1108 H1081 0.950 . S
C1108 C1094 1.411 . S
C1108 C1107 1.382 . S
C1109 C1093 1.411 . S
C1109 C1107 1.403 . S
C1109 C1110 1.489 . S
C1110 C1109 1.489 . S
C1110 C1111 1.383 . S
C1110 C1115 1.382 . S
C1111 H1082 0.950 . S
C1111 C1110 1.383 . S
C1111 C1112 1.395 . S
C1112 H1083 0.950 . S
C1112 C1111 1.395 . S
C1112 C1113 1.288 . S
C1113 C1112 1.288 . S
C1113 C1114 1.392 . S
C1114 H1084 0.951 . S
C1114 C1113 1.392 . S
C1114 C1115 1.392 . S
C1115 H1085 0.949 . S
C1115 C1110 1.382 . S
C1115 C1114 1.392 . S
C1116 C1117 1.357 1_455 S
C1116 C1122 1.379 . S
C1116 N1124 1.356 . S
C1117 C1116 1.357 1_655 S
C1117 C1123 1.400 . S
C1118 C1119 1.363 . S
C1118 C1123 1.379 . S
C1118 N1125 1.356 . S
C1119 C1118 1.363 . S
C1119 C1122 1.363 1_655 S
N1120 C1122 1.356 . S
N1120 H1132 0.984 . S
N1120 H1133 0.985 . S
N1121 C1123 1.356 . S
N1121 H1126 0.984 . S
N1121 H1127 0.985 . S
C1122 C1116 1.379 . S
C1122 C1119 1.363 1_455 S
C1122 N1120 1.356 . S
C1123 C1117 1.400 . S
C1123 C1118 1.379 . S
C1123 N1121 1.356 . S
N1124 C1116 1.356 . S
N1124 H1130 0.984 . S
N1124 H1131 0.984 . S
N1125 C1118 1.356 . S
N1125 H1128 0.984 . S
N1125 H1129 0.985 . S
H1126 N1121 0.984 . S
H1127 N1121 0.985 . S
H1128 N1125 0.984 . S
H1129 N1125 0.985 . S
H1130 N1124 0.984 . S
H1131 N1124 0.984 . S
H1132 N1120 0.984 . S
H1133 N1120 0.985 . S
C1134 C1135 1.363 . S
C1134 C1140 1.379 . S
C1134 N1142 1.356 . S
C1135 C1134 1.363 . S
C1135 C1141 1.363 . S
C1136 C1137 1.363 . S
C1136 C1141 1.379 . S
C1136 N1143 1.356 . S
C1137 C1136 1.363 . S
C1137 C1140 1.363 . S
N1138 C1140 1.356 . S
N1138 H1150 0.984 . S
N1138 H1151 0.985 . S
N1139 C1141 1.356 . S
N1139 H1144 0.984 . S
N1139 H1145 0.985 . S
C1140 C1134 1.379 . S
C1140 C1137 1.363 . S
C1140 N1138 1.356 . S
C1141 C1135 1.363 . S
C1141 C1136 1.379 . S
C1141 N1139 1.356 . S
N1142 C1134 1.356 . S
N1142 H1148 0.984 . S
N1142 H1149 0.984 . S
N1143 C1136 1.356 . S
N1143 H1146 0.984 . S
N1143 H1147 0.985 . S
H1144 N1139 0.984 . S
H1145 N1139 0.985 . S
H1146 N1143 0.984 . S
H1147 N1143 0.985 . S
H1148 N1142 0.984 . S
H1149 N1142 0.984 . S
H1150 N1138 0.984 . S
H1151 N1138 0.985 . S
C1152 C1153 1.363 1_565 S
C1152 C1158 1.379 . S
C1152 N1160 1.356 . S
C1153 C1152 1.363 1_545 S
C1153 C1159 1.363 . S
C1154 C1155 1.363 . S
C1154 C1159 1.379 . S
C1154 N1161 1.356 . S
C1155 C1154 1.363 . S
C1155 C1158 1.363 1_545 S
N1156 C1158 1.356 . S
N1156 H1168 0.984 . S
N1156 H1169 0.985 . S
N1157 C1159 1.356 . S
N1157 H1162 0.984 . S
N1157 H1163 0.985 . S
C1158 C1152 1.379 . S
C1158 C1155 1.363 1_565 S
C1158 N1156 1.356 . S
C1159 C1153 1.363 . S
C1159 C1154 1.379 . S
C1159 N1157 1.356 . S
N1160 C1152 1.356 . S
N1160 H1166 0.984 . S
N1160 H1167 0.984 . S
N1161 C1154 1.356 . S
N1161 H1164 0.984 . S
N1161 H1165 0.985 . S
H1162 N1157 0.984 . S
H1163 N1157 0.985 . S
H1164 N1161 0.984 . S
H1165 N1161 0.985 . S
H1166 N1160 0.984 . S
H1167 N1160 0.984 . S
H1168 N1156 0.984 . S
H1169 N1156 0.985 . S
C1170 C1171 1.332 1_545 S
C1170 C1176 1.379 . S
C1170 N1178 1.356 . S
C1171 C1170 1.332 1_565 S
C1171 C1177 1.422 . S
C1172 C1173 1.363 . S
C1172 C1177 1.379 . S
C1172 N1179 1.356 . S
C1173 C1172 1.363 . S
C1173 C1176 1.363 1_565 S
N1174 C1176 1.356 . S
N1174 H1186 0.984 . S
N1174 H1187 0.985 . S
N1175 C1177 1.356 . S
N1175 H1180 0.984 . S
N1175 H1181 0.985 . S
C1176 C1170 1.379 . S
C1176 C1173 1.363 1_545 S
C1176 N1174 1.356 . S
C1177 C1171 1.422 . S
C1177 C1172 1.379 . S
C1177 N1175 1.356 . S
N1178 C1170 1.356 . S
N1178 H1184 0.984 . S
N1178 H1185 0.984 . S
N1179 C1172 1.356 . S
N1179 H1182 0.984 . S
N1179 H1183 0.985 . S
H1180 N1175 0.984 . S
H1181 N1175 0.985 . S
H1182 N1179 0.984 . S
H1183 N1179 0.985 . S
H1184 N1178 0.984 . S
H1185 N1178 0.984 . S
H1186 N1174 0.984 . S
H1187 N1174 0.985 . S
C1188 C1189 1.363 1_655 S
C1188 C1194 1.379 . S
C1188 N1196 1.356 . S
C1189 C1188 1.363 1_455 S
C1189 C1195 1.363 . S
C1190 C1191 1.363 . S
C1190 C1195 1.379 . S
C1190 N1197 1.356 . S
C1191 C1190 1.363 . S
C1191 C1194 1.363 1_455 S
N1192 C1194 1.356 . S
N1192 H1204 0.984 . S
N1192 H1205 0.985 . S
N1193 C1195 1.356 . S
N1193 H1198 0.984 . S
N1193 H1199 0.985 . S
C1194 C1188 1.379 . S
C1194 C1191 1.363 1_655 S
C1194 N1192 1.356 . S
C1195 C1189 1.363 . S
C1195 C1190 1.379 . S
C1195 N1193 1.356 . S
N1196 C1188 1.356 . S
N1196 H1202 0.984 . S
N1196 H1203 0.984 . S
N1197 C1190 1.356 . S
N1197 H1200 0.984 . S
N1197 H1201 0.985 . S
H1198 N1193 0.984 . S
H1199 N1193 0.985 . S
H1200 N1197 0.984 . S
H1201 N1197 0.985 . S
H1202 N1196 0.984 . S
H1203 N1196 0.984 . S
H1204 N1192 0.984 . S
H1205 N1192 0.985 . S
C1206 C1207 1.363 . S
C1206 C1212 1.379 . S
C1206 N1214 1.356 . S
C1207 C1206 1.363 . S
C1207 C1213 1.363 . S
C1208 C1209 1.363 . S
C1208 C1213 1.379 . S
C1208 N1215 1.356 . S
C1209 C1208 1.363 . S
C1209 C1212 1.363 . S
N1210 C1212 1.356 . S
N1210 H1222 0.984 . S
N1210 H1223 0.985 . S
N1211 C1213 1.356 . S
N1211 H1216 0.984 . S
N1211 H1217 0.985 . S
C1212 C1206 1.379 . S
C1212 C1209 1.363 . S
C1212 N1210 1.356 . S
C1213 C1207 1.363 . S
C1213 C1208 1.379 . S
C1213 N1211 1.356 . S
N1214 C1206 1.356 . S
N1214 H1220 0.984 . S
N1214 H1221 0.984 . S
N1215 C1208 1.356 . S
N1215 H1218 0.984 . S
N1215 H1219 0.985 . S
H1216 N1211 0.984 . S
H1217 N1211 0.985 . S
H1218 N1215 0.984 . S
H1219 N1215 0.985 . S
H1220 N1214 0.984 . S
H1221 N1214 0.984 . S
H1222 N1210 0.984 . S
H1223 N1210 0.985 . S
C1224 C1225 1.363 . S
C1224 C1230 1.379 . S
C1224 N1232 1.356 . S
C1225 C1224 1.363 . S
C1225 C1231 1.363 1_455 S
C1226 C1227 1.363 1_655 S
C1226 C1231 1.379 . S
C1226 N1233 1.356 . S
C1227 C1226 1.363 1_455 S
C1227 C1230 1.363 . S
N1228 C1230 1.356 . S
N1228 H1240 0.984 . S
N1228 H1241 0.985 . S
N1229 C1231 1.356 . S
N1229 H1234 0.984 . S
N1229 H1235 0.985 . S
C1230 C1224 1.379 . S
C1230 C1227 1.363 . S
C1230 N1228 1.356 . S
C1231 C1225 1.363 1_655 S
C1231 C1226 1.379 . S
C1231 N1229 1.356 . S
N1232 C1224 1.356 . S
N1232 H1238 0.984 1_556 S
N1232 H1239 0.984 1_556 S
N1233 C1226 1.356 . S
N1233 H1236 0.984 . S
N1233 H1237 0.985 . S
H1234 N1229 0.984 . S
H1235 N1229 0.985 . S
H1236 N1233 0.984 . S
H1237 N1233 0.985 . S
H1238 N1232 0.984 1_554 S
H1239 N1232 0.984 1_554 S
H1240 N1228 0.984 . S
H1241 N1228 0.985 . S
C1242 C1243 1.363 . S
C1242 C1248 1.379 . S
C1242 N1250 1.356 . S
C1243 C1242 1.363 . S
C1243 C1249 1.363 . S
C1244 C1245 1.363 . S
C1244 C1249 1.379 . S
C1244 N1251 1.356 . S
C1245 C1244 1.363 . S
C1245 C1248 1.363 . S
N1246 C1248 1.356 . S
N1246 H1258 0.984 . S
N1246 H1259 0.985 . S
N1247 C1249 1.356 . S
N1247 H1252 0.984 . S
N1247 H1253 0.985 . S
C1248 C1242 1.379 . S
C1248 C1245 1.363 . S
C1248 N1246 1.356 . S
C1249 C1243 1.363 . S
C1249 C1244 1.379 . S
C1249 N1247 1.356 . S
N1250 C1242 1.356 . S
N1250 H1256 0.984 . S
N1250 H1257 0.984 . S
N1251 C1244 1.356 . S
N1251 H1254 0.984 . S
N1251 H1255 0.985 . S
H1252 N1247 0.984 . S
H1253 N1247 0.985 . S
H1254 N1251 0.984 . S
H1255 N1251 0.985 . S
H1256 N1250 0.984 . S
H1257 N1250 0.984 . S
H1258 N1246 0.984 . S
H1259 N1246 0.985 . S
C1260 C1261 1.363 . S
C1260 C1266 1.379 . S
C1260 N1268 1.356 . S
C1261 C1260 1.363 . S
C1261 C1267 1.363 1_565 S
C1262 C1263 1.363 1_545 S
C1262 C1267 1.379 . S
C1262 N1269 1.356 . S
C1263 C1262 1.363 1_565 S
C1263 C1266 1.363 . S
N1264 C1266 1.356 . S
N1264 H1276 0.984 . S
N1264 H1277 0.985 . S
N1265 C1267 1.356 . S
N1265 H1270 0.984 . S
N1265 H1271 0.985 . S
C1266 C1260 1.379 . S
C1266 C1263 1.363 . S
C1266 N1264 1.356 . S
C1267 C1261 1.363 1_545 S
C1267 C1262 1.379 . S
C1267 N1265 1.356 . S
N1268 C1260 1.356 . S
N1268 H1274 0.984 . S
N1268 H1275 0.984 . S
N1269 C1262 1.356 . S
N1269 H1272 0.984 . S
N1269 H1273 0.985 . S
H1270 N1265 0.984 . S
H1271 N1265 0.985 . S
H1272 N1269 0.984 . S
H1273 N1269 0.985 . S
H1274 N1268 0.984 . S
H1275 N1268 0.984 . S
H1276 N1264 0.984 . S
H1277 N1264 0.985 . S
C1278 C1279 1.363 . S
C1278 C1284 1.379 . S
C1278 N1286 1.356 . S
C1279 C1278 1.363 . S
C1279 C1285 1.363 1_545 S
C1280 C1281 1.363 1_565 S
C1280 C1285 1.379 . S
C1280 N1287 1.356 . S
C1281 C1280 1.363 1_545 S
C1281 C1284 1.363 . S
N1282 C1284 1.356 . S
N1282 H1294 0.984 . S
N1282 H1295 0.985 . S
N1283 C1285 1.356 . S
N1283 H1288 0.984 . S
N1283 H1289 0.985 . S
C1284 C1278 1.379 . S
C1284 C1281 1.363 . S
C1284 N1282 1.356 . S
C1285 C1279 1.363 1_565 S
C1285 C1280 1.379 . S
C1285 N1283 1.356 . S
N1286 C1278 1.356 . S
N1286 H1292 0.984 . S
N1286 H1293 0.984 . S
N1287 C1280 1.356 . S
N1287 H1290 0.984 . S
N1287 H1291 0.985 . S
H1288 N1283 0.984 . S
H1289 N1283 0.985 . S
H1290 N1287 0.984 . S
H1291 N1287 0.985 . S
H1292 N1286 0.984 . S
H1293 N1286 0.984 . S
H1294 N1282 0.984 . S
H1295 N1282 0.985 . S
C1296 C1297 1.363 . S
C1296 C1302 1.379 . S
C1296 N1304 1.356 . S
C1297 C1296 1.363 . S
C1297 C1303 1.363 1_655 S
C1298 C1299 1.363 1_455 S
C1298 C1303 1.379 . S
C1298 N1305 1.356 . S
C1299 C1298 1.363 1_655 S
C1299 C1302 1.363 . S
N1300 C1302 1.356 . S
N1300 H1312 0.984 . S
N1300 H1313 0.985 . S
N1301 C1303 1.356 . S
N1301 H1306 0.984 . S
N1301 H1307 0.985 . S
C1302 C1296 1.379 . S
C1302 C1299 1.363 . S
C1302 N1300 1.356 . S
C1303 C1297 1.363 1_455 S
C1303 C1298 1.379 . S
C1303 N1301 1.356 . S
N1304 C1296 1.356 . S
N1304 H1310 0.984 . S
N1304 H1311 0.984 . S
N1305 C1298 1.356 . S
N1305 H1308 0.984 . S
N1305 H1309 0.985 . S
H1306 N1301 0.984 . S
H1307 N1301 0.985 . S
H1308 N1305 0.984 . S
H1309 N1305 0.985 . S
H1310 N1304 0.984 . S
H1311 N1304 0.984 . S
H1312 N1300 0.984 . S
H1313 N1300 0.985 . S
C1314 C1315 1.363 . S
C1314 C1320 1.379 . S
C1314 N1322 1.356 . S
C1315 C1314 1.363 . S
C1315 C1321 1.363 . S
C1316 C1317 1.363 . S
C1316 C1321 1.379 . S
C1316 N1323 1.356 . S
C1317 C1316 1.363 . S
C1317 C1320 1.363 . S
N1318 C1320 1.356 . S
N1318 H1330 0.984 . S
N1318 H1331 0.985 . S
N1319 C1321 1.356 . S
N1319 H1324 0.984 . S
N1319 H1325 0.985 . S
C1320 C1314 1.379 . S
C1320 C1317 1.363 . S
C1320 N1318 1.356 . S
C1321 C1315 1.363 . S
C1321 C1316 1.379 . S
C1321 N1319 1.356 . S
N1322 C1314 1.356 . S
N1322 H1328 0.984 . S
N1322 H1329 0.984 . S
N1323 C1316 1.356 . S
N1323 H1326 0.984 . S
N1323 H1327 0.985 . S
H1324 N1319 0.984 . S
H1325 N1319 0.985 . S
H1326 N1323 0.984 . S
H1327 N1323 0.985 . S
H1328 N1322 0.984 . S
H1329 N1322 0.984 . S
H1330 N1318 0.984 . S
H1331 N1318 0.985 . S
C1332 C1333 1.363 . S
C1332 C1338 1.379 . S
C1332 N1340 1.356 . S
C1333 C1332 1.363 . S
C1333 C1339 1.363 . S
C1334 C1335 1.363 . S
C1334 C1339 1.379 . S
C1334 N1341 1.356 . S
C1335 C1334 1.363 . S
C1335 C1338 1.363 . S
N1336 C1338 1.356 . S
N1336 H1348 0.984 . S
N1336 H1349 0.985 . S
N1337 C1339 1.356 . S
N1337 H1342 0.984 . S
N1337 H1343 0.985 . S
C1338 C1332 1.379 . S
C1338 C1335 1.363 . S
C1338 N1336 1.356 . S
C1339 C1333 1.363 . S
C1339 C1334 1.379 . S
C1339 N1337 1.356 . S
N1340 C1332 1.356 . S
N1340 H1346 0.984 . S
N1340 H1347 0.984 . S
N1341 C1334 1.356 . S
N1341 H1344 0.984 . S
N1341 H1345 0.985 . S
H1342 N1337 0.984 . S
H1343 N1337 0.985 . S
H1344 N1341 0.984 . S
H1345 N1341 0.985 . S
H1346 N1340 0.984 . S
H1347 N1340 0.984 . S
H1348 N1336 0.984 . S
H1349 N1336 0.985 . S
C1350 C1351 1.363 . S
C1350 C1356 1.379 . S
C1350 N1358 1.356 . S
C1351 C1350 1.363 . S
C1351 C1357 1.363 . S
C1352 C1353 1.363 . S
C1352 C1357 1.379 . S
C1352 N1359 1.356 . S
C1353 C1352 1.363 . S
C1353 C1356 1.363 . S
N1354 C1356 1.356 . S
N1354 H1366 0.984 . S
N1354 H1367 0.985 . S
N1355 C1357 1.356 . S
N1355 H1360 0.984 . S
N1355 H1361 0.985 . S
C1356 C1350 1.379 . S
C1356 C1353 1.363 . S
C1356 N1354 1.356 . S
C1357 C1351 1.363 . S
C1357 C1352 1.379 . S
C1357 N1355 1.356 . S
N1358 C1350 1.356 . S
N1358 H1364 0.984 . S
N1358 H1365 0.984 . S
N1359 C1352 1.356 . S
N1359 H1362 0.984 . S
N1359 H1363 0.985 . S
H1360 N1355 0.984 . S
H1361 N1355 0.985 . S
H1362 N1359 0.984 . S
H1363 N1359 0.985 . S
H1364 N1358 0.984 . S
H1365 N1358 0.984 . S
H1366 N1354 0.984 . S
H1367 N1354 0.985 . S
C1368 C1369 1.363 . S
C1368 C1374 1.379 . S
C1368 N1376 1.356 . S
C1369 C1368 1.363 . S
C1369 C1375 1.363 . S
C1370 C1371 1.363 . S
C1370 C1375 1.379 . S
C1370 N1377 1.356 . S
C1371 C1370 1.363 . S
C1371 C1374 1.363 . S
N1372 C1374 1.356 . S
N1372 H1384 0.984 . S
N1372 H1385 0.985 . S
N1373 C1375 1.356 . S
N1373 H1378 0.984 . S
N1373 H1379 0.985 . S
C1374 C1368 1.379 . S
C1374 C1371 1.363 . S
C1374 N1372 1.356 . S
C1375 C1369 1.363 . S
C1375 C1370 1.379 . S
C1375 N1373 1.356 . S
N1376 C1368 1.356 . S
N1376 H1382 0.984 . S
N1376 H1383 0.984 . S
N1377 C1370 1.356 . S
N1377 H1380 0.984 . S
N1377 H1381 0.985 . S
H1378 N1373 0.984 . S
H1379 N1373 0.985 . S
H1380 N1377 0.984 . S
H1381 N1377 0.985 . S
H1382 N1376 0.984 . S
H1383 N1376 0.984 . S
H1384 N1372 0.984 . S
H1385 N1372 0.985 . S
C1386 C1387 1.363 . S
C1386 C1392 1.379 . S
C1386 N1394 1.356 . S
C1387 C1386 1.363 . S
C1387 C1393 1.363 . S
C1388 C1389 1.363 . S
C1388 C1393 1.379 . S
C1388 N1395 1.356 . S
C1389 C1388 1.363 . S
C1389 C1392 1.363 . S
N1390 C1392 1.356 . S
N1390 H1402 0.984 . S
N1390 H1403 0.985 . S
N1391 C1393 1.356 . S
N1391 H1396 0.984 . S
N1391 H1397 0.985 . S
C1392 C1386 1.379 . S
C1392 C1389 1.363 . S
C1392 N1390 1.356 . S
C1393 C1387 1.363 . S
C1393 C1388 1.379 . S
C1393 N1391 1.356 . S
N1394 C1386 1.356 . S
N1394 H1400 0.984 . S
N1394 H1401 0.984 . S
N1395 C1388 1.356 . S
N1395 H1398 0.984 . S
N1395 H1399 0.985 . S
H1396 N1391 0.984 . S
H1397 N1391 0.985 . S
H1398 N1395 0.984 . S
H1399 N1395 0.985 . S
H1400 N1394 0.984 . S
H1401 N1394 0.984 . S
H1402 N1390 0.984 . S
H1403 N1390 0.985 . S
C1404 C1405 1.363 . S
C1404 C1410 1.379 . S
C1404 N1412 1.356 . S
C1405 C1404 1.363 . S
C1405 C1411 1.363 . S
C1406 C1407 1.363 . S
C1406 C1411 1.379 . S
C1406 N1413 1.356 . S
C1407 C1406 1.363 . S
C1407 C1410 1.363 . S
N1408 C1410 1.356 . S
N1408 H1420 0.984 . S
N1408 H1421 0.985 . S
N1409 C1411 1.356 . S
N1409 H1414 0.984 . S
N1409 H1415 0.985 . S
C1410 C1404 1.379 . S
C1410 C1407 1.363 . S
C1410 N1408 1.356 . S
C1411 C1405 1.363 . S
C1411 C1406 1.379 . S
C1411 N1409 1.356 . S
N1412 C1404 1.356 . S
N1412 H1418 0.984 . S
N1412 H1419 0.984 . S
N1413 C1406 1.356 . S
N1413 H1416 0.984 . S
N1413 H1417 0.985 . S
H1414 N1409 0.984 . S
H1415 N1409 0.985 . S
H1416 N1413 0.984 . S
H1417 N1413 0.985 . S
H1418 N1412 0.984 . S
H1419 N1412 0.984 . S
H1420 N1408 0.984 . S
H1421 N1408 0.985 . S
C1422 C1423 1.363 . S
C1422 C1428 1.379 . S
C1422 N1430 1.356 . S
C1423 C1422 1.363 . S
C1423 C1429 1.363 . S
C1424 C1425 1.363 . S
C1424 C1429 1.379 . S
C1424 N1431 1.356 . S
C1425 C1424 1.363 . S
C1425 C1428 1.363 . S
N1426 C1428 1.356 . S
N1426 H1438 0.984 . S
N1426 H1439 0.985 . S
N1427 C1429 1.356 . S
N1427 H1432 0.984 . S
N1427 H1433 0.985 . S
C1428 C1422 1.379 . S
C1428 C1425 1.363 . S
C1428 N1426 1.356 . S
C1429 C1423 1.363 . S
C1429 C1424 1.379 . S
C1429 N1427 1.356 . S
N1430 C1422 1.356 . S
N1430 H1436 0.984 . S
N1430 H1437 0.984 . S
N1431 C1424 1.356 . S
N1431 H1434 0.984 . S
N1431 H1435 0.985 . S
H1432 N1427 0.984 . S
H1433 N1427 0.985 . S
H1434 N1431 0.984 . S
H1435 N1431 0.985 . S
H1436 N1430 0.984 . S
H1437 N1430 0.984 . S
H1438 N1426 0.984 . S
H1439 N1426 0.985 . S
C1440 C1441 1.363 . S
C1440 C1446 1.379 . S
C1440 N1448 1.356 . S
C1441 C1440 1.363 . S
C1441 C1447 1.363 . S
C1442 C1443 1.363 . S
C1442 C1447 1.379 . S
C1442 N1449 1.356 . S
C1443 C1442 1.363 . S
C1443 C1446 1.363 . S
N1444 C1446 1.356 . S
N1444 H1456 0.984 . S
N1444 H1457 0.985 . S
N1445 C1447 1.356 . S
N1445 H1450 0.984 . S
N1445 H1451 0.985 . S
C1446 C1440 1.379 . S
C1446 C1443 1.363 . S
C1446 N1444 1.356 . S
C1447 C1441 1.363 . S
C1447 C1442 1.379 . S
C1447 N1445 1.356 . S
N1448 C1440 1.356 . S
N1448 H1454 0.984 . S
N1448 H1455 0.984 . S
N1449 C1442 1.356 . S
N1449 H1452 0.984 . S
N1449 H1453 0.985 . S
H1450 N1445 0.984 . S
H1451 N1445 0.985 . S
H1452 N1449 0.984 . S
H1453 N1449 0.985 . S
H1454 N1448 0.984 . S
H1455 N1448 0.984 . S
H1456 N1444 0.984 . S
H1457 N1444 0.985 . S
C1458 C1459 1.363 . S
C1458 C1464 1.379 . S
C1458 N1466 1.356 . S
C1459 C1458 1.363 . S
C1459 C1465 1.363 . S
C1460 C1461 1.363 . S
C1460 C1465 1.379 . S
C1460 N1467 1.356 . S
C1461 C1460 1.363 . S
C1461 C1464 1.363 . S
N1462 C1464 1.356 . S
N1462 H1474 0.984 . S
N1462 H1475 0.985 . S
N1463 C1465 1.356 . S
N1463 H1468 0.984 . S
N1463 H1469 0.985 . S
C1464 C1458 1.379 . S
C1464 C1461 1.363 . S
C1464 N1462 1.356 . S
C1465 C1459 1.363 . S
C1465 C1460 1.379 . S
C1465 N1463 1.356 . S
N1466 C1458 1.356 . S
N1466 H1472 0.984 . S
N1466 H1473 0.984 . S
N1467 C1460 1.356 . S
N1467 H1470 0.984 . S
N1467 H1471 0.985 . S
H1468 N1463 0.984 . S
H1469 N1463 0.985 . S
H1470 N1467 0.984 . S
H1471 N1467 0.985 . S
H1472 N1466 0.984 . S
H1473 N1466 0.984 . S
H1474 N1462 0.984 . S
H1475 N1462 0.985 . S
C1476 C1477 1.363 . S
C1476 C1482 1.379 . S
C1476 N1484 1.356 . S
C1477 C1476 1.363 . S
C1477 C1483 1.363 . S
C1478 C1479 1.363 . S
C1478 C1483 1.379 . S
C1478 N1485 1.356 . S
C1479 C1478 1.363 . S
C1479 C1482 1.363 . S
N1480 C1482 1.356 . S
N1480 H1492 0.984 . S
N1480 H1493 0.985 . S
N1481 C1483 1.356 . S
N1481 H1486 0.984 . S
N1481 H1487 0.985 . S
C1482 C1476 1.379 . S
C1482 C1479 1.363 . S
C1482 N1480 1.356 . S
C1483 C1477 1.363 . S
C1483 C1478 1.379 . S
C1483 N1481 1.356 . S
N1484 C1476 1.356 . S
N1484 H1490 0.984 . S
N1484 H1491 0.984 . S
N1485 C1478 1.356 . S
N1485 H1488 0.984 . S
N1485 H1489 0.985 . S
H1486 N1481 0.984 . S
H1487 N1481 0.985 . S
H1488 N1485 0.984 . S
H1489 N1485 0.985 . S
H1490 N1484 0.984 . S
H1491 N1484 0.984 . S
H1492 N1480 0.984 . S
H1493 N1480 0.985 . S
C1494 C1495 1.363 . S
C1494 C1500 1.379 . S
C1494 N1502 1.356 . S
C1495 C1494 1.363 . S
C1495 C1501 1.363 . S
C1496 C1497 1.363 . S
C1496 C1501 1.379 . S
C1496 N1503 1.356 . S
C1497 C1496 1.363 . S
C1497 C1500 1.363 . S
N1498 C1500 1.356 . S
N1498 H1510 0.984 . S
N1498 H1511 0.985 . S
N1499 C1501 1.356 . S
N1499 H1504 0.984 . S
N1499 H1505 0.985 . S
C1500 C1494 1.379 . S
C1500 C1497 1.363 . S
C1500 N1498 1.356 . S
C1501 C1495 1.363 . S
C1501 C1496 1.379 . S
C1501 N1499 1.356 . S
N1502 C1494 1.356 . S
N1502 H1508 0.984 . S
N1502 H1509 0.984 . S
N1503 C1496 1.356 . S
N1503 H1506 0.984 . S
N1503 H1507 0.985 . S
H1504 N1499 0.984 . S
H1505 N1499 0.985 . S
H1506 N1503 0.984 . S
H1507 N1503 0.985 . S
H1508 N1502 0.984 . S
H1509 N1502 0.984 . S
H1510 N1498 0.984 . S
H1511 N1498 0.985 . S
C1512 C1513 1.363 . S
C1512 C1518 1.379 . S
C1512 N1520 1.356 . S
C1513 C1512 1.363 . S
C1513 C1519 1.363 . S
C1514 C1515 1.363 . S
C1514 C1519 1.379 . S
C1514 N1521 1.356 . S
C1515 C1514 1.363 . S
C1515 C1518 1.363 . S
N1516 C1518 1.356 . S
N1516 H1528 0.984 . S
N1516 H1529 0.985 . S
N1517 C1519 1.356 . S
N1517 H1522 0.984 . S
N1517 H1523 0.985 . S
C1518 C1512 1.379 . S
C1518 C1515 1.363 . S
C1518 N1516 1.356 . S
C1519 C1513 1.363 . S
C1519 C1514 1.379 . S
C1519 N1517 1.356 . S
N1520 C1512 1.356 . S
N1520 H1526 0.984 . S
N1520 H1527 0.984 . S
N1521 C1514 1.356 . S
N1521 H1524 0.984 . S
N1521 H1525 0.985 . S
H1522 N1517 0.984 . S
H1523 N1517 0.985 . S
H1524 N1521 0.984 . S
H1525 N1521 0.985 . S
H1526 N1520 0.984 . S
H1527 N1520 0.984 . S
H1528 N1516 0.984 . S
H1529 N1516 0.985 . S
C1530 C1531 1.363 . S
C1530 C1536 1.379 . S
C1530 N1538 1.356 . S
C1531 C1530 1.363 . S
C1531 C1537 1.363 . S
C1532 C1533 1.363 . S
C1532 C1537 1.379 . S
C1532 N1539 1.356 . S
C1533 C1532 1.363 . S
C1533 C1536 1.363 . S
N1534 C1536 1.356 . S
N1534 H1546 0.984 . S
N1534 H1547 0.985 . S
N1535 C1537 1.356 . S
N1535 H1540 0.984 . S
N1535 H1541 0.985 . S
C1536 C1530 1.379 . S
C1536 C1533 1.363 . S
C1536 N1534 1.356 . S
C1537 C1531 1.363 . S
C1537 C1532 1.379 . S
C1537 N1535 1.356 . S
N1538 C1530 1.356 . S
N1538 H1544 0.984 . S
N1538 H1545 0.984 . S
N1539 C1532 1.356 . S
N1539 H1542 0.984 . S
N1539 H1543 0.985 . S
H1540 N1535 0.984 . S
H1541 N1535 0.985 . S
H1542 N1539 0.984 . S
H1543 N1539 0.985 . S
H1544 N1538 0.984 . S
H1545 N1538 0.984 . S
H1546 N1534 0.984 . S
H1547 N1534 0.985 . S
C1548 C1549 1.363 . S
C1548 C1554 1.379 . S
C1548 N1556 1.356 . S
C1549 C1548 1.363 . S
C1549 C1555 1.363 . S
C1550 C1551 1.363 . S
C1550 C1555 1.379 . S
C1550 N1557 1.356 . S
C1551 C1550 1.363 . S
C1551 C1554 1.363 . S
N1552 C1554 1.356 . S
N1552 H1564 0.984 . S
N1552 H1565 0.985 . S
N1553 C1555 1.356 . S
N1553 H1558 0.984 . S
N1553 H1559 0.985 . S
C1554 C1548 1.379 . S
C1554 C1551 1.363 . S
C1554 N1552 1.356 . S
C1555 C1549 1.363 . S
C1555 C1550 1.379 . S
C1555 N1553 1.356 . S
N1556 C1548 1.356 . S
N1556 H1562 0.984 . S
N1556 H1563 0.984 . S
N1557 C1550 1.356 . S
N1557 H1560 0.984 . S
N1557 H1561 0.985 . S
H1558 N1553 0.984 . S
H1559 N1553 0.985 . S
H1560 N1557 0.984 . S
H1561 N1557 0.985 . S
H1562 N1556 0.984 . S
H1563 N1556 0.984 . S
H1564 N1552 0.984 . S
H1565 N1552 0.985 . S
C1566 C1567 1.363 . S
C1566 C1572 1.379 . S
C1566 N1574 1.356 . S
C1567 C1566 1.363 . S
C1567 C1573 1.363 . S
C1568 C1569 1.363 . S
C1568 C1573 1.379 . S
C1568 N1575 1.356 . S
C1569 C1568 1.363 . S
C1569 C1572 1.363 . S
N1570 C1572 1.356 . S
N1570 H1582 0.984 . S
N1570 H1583 0.985 . S
N1571 C1573 1.356 . S
N1571 H1576 0.984 . S
N1571 H1577 0.985 . S
C1572 C1566 1.379 . S
C1572 C1569 1.363 . S
C1572 N1570 1.356 . S
C1573 C1567 1.363 . S
C1573 C1568 1.379 . S
C1573 N1571 1.356 . S
N1574 C1566 1.356 . S
N1574 H1580 0.984 . S
N1574 H1581 0.984 . S
N1575 C1568 1.356 . S
N1575 H1578 0.984 . S
N1575 H1579 0.985 . S
H1576 N1571 0.984 . S
H1577 N1571 0.985 . S
H1578 N1575 0.984 . S
H1579 N1575 0.985 . S
H1580 N1574 0.984 . S
H1581 N1574 0.984 . S
H1582 N1570 0.984 . S
H1583 N1570 0.985 . S
C1584 C1585 1.363 . S
C1584 C1590 1.379 . S
C1584 N1592 1.356 . S
C1585 C1584 1.363 . S
C1585 C1591 1.363 . S
C1586 C1587 1.363 . S
C1586 C1591 1.379 . S
C1586 N1593 1.356 . S
C1587 C1586 1.363 . S
C1587 C1590 1.363 . S
N1588 C1590 1.356 . S
N1588 H1600 0.984 . S
N1588 H1601 0.985 . S
N1589 C1591 1.356 . S
N1589 H1594 0.984 . S
N1589 H1595 0.985 . S
C1590 C1584 1.379 . S
C1590 C1587 1.363 . S
C1590 N1588 1.356 . S
C1591 C1585 1.363 . S
C1591 C1586 1.379 . S
C1591 N1589 1.356 . S
N1592 C1584 1.356 . S
N1592 H1598 0.984 . S
N1592 H1599 0.984 . S
N1593 C1586 1.356 . S
N1593 H1596 0.984 . S
N1593 H1597 0.985 . S
H1594 N1589 0.984 . S
H1595 N1589 0.985 . S
H1596 N1593 0.984 . S
H1597 N1593 0.985 . S
H1598 N1592 0.984 . S
H1599 N1592 0.984 . S
H1600 N1588 0.984 . S
H1601 N1588 0.985 . S
C1602 C1603 1.363 . S
C1602 C1608 1.379 . S
C1602 N1610 1.356 . S
C1603 C1602 1.363 . S
C1603 C1609 1.363 . S
C1604 C1605 1.363 . S
C1604 C1609 1.379 . S
C1604 N1611 1.356 . S
C1605 C1604 1.363 . S
C1605 C1608 1.363 . S
N1606 C1608 1.356 . S
N1606 H1618 0.984 . S
N1606 H1619 0.985 . S
N1607 C1609 1.356 . S
N1607 H1612 0.984 . S
N1607 H1613 0.985 . S
C1608 C1602 1.379 . S
C1608 C1605 1.363 . S
C1608 N1606 1.356 . S
C1609 C1603 1.363 . S
C1609 C1604 1.379 . S
C1609 N1607 1.356 . S
N1610 C1602 1.356 . S
N1610 H1616 0.984 . S
N1610 H1617 0.984 . S
N1611 C1604 1.356 . S
N1611 H1614 0.984 . S
N1611 H1615 0.985 . S
H1612 N1607 0.984 . S
H1613 N1607 0.985 . S
H1614 N1611 0.984 . S
H1615 N1611 0.985 . S
H1616 N1610 0.984 . S
H1617 N1610 0.984 . S
H1618 N1606 0.984 . S
H1619 N1606 0.985 . S
C1620 C1621 1.363 . S
C1620 C1626 1.379 . S
C1620 N1628 1.356 . S
C1621 C1620 1.363 . S
C1621 C1627 1.363 . S
C1622 C1623 1.363 . S
C1622 C1627 1.379 . S
C1622 N1629 1.356 . S
C1623 C1622 1.363 . S
C1623 C1626 1.363 . S
N1624 C1626 1.356 . S
N1624 H1636 0.984 . S
N1624 H1637 0.985 . S
N1625 C1627 1.356 . S
N1625 H1630 0.984 . S
N1625 H1631 0.985 . S
C1626 C1620 1.379 . S
C1626 C1623 1.363 . S
C1626 N1624 1.356 . S
C1627 C1621 1.363 . S
C1627 C1622 1.379 . S
C1627 N1625 1.356 . S
N1628 C1620 1.356 . S
N1628 H1634 0.984 . S
N1628 H1635 0.984 . S
N1629 C1622 1.356 . S
N1629 H1632 0.984 . S
N1629 H1633 0.985 . S
H1630 N1625 0.984 . S
H1631 N1625 0.985 . S
H1632 N1629 0.984 . S
H1633 N1629 0.985 . S
H1634 N1628 0.984 . S
H1635 N1628 0.984 . S
H1636 N1624 0.984 . S
H1637 N1624 0.985 . S
C1638 C1639 1.363 . S
C1638 C1644 1.379 . S
C1638 N1646 1.356 . S
C1639 C1638 1.363 . S
C1639 C1645 1.363 . S
C1640 C1641 1.363 . S
C1640 C1645 1.379 . S
C1640 N1647 1.356 . S
C1641 C1640 1.363 . S
C1641 C1644 1.363 . S
N1642 C1644 1.356 . S
N1642 H1654 0.984 . S
N1642 H1655 0.985 . S
N1643 C1645 1.356 . S
N1643 H1648 0.984 . S
N1643 H1649 0.985 . S
C1644 C1638 1.379 . S
C1644 C1641 1.363 . S
C1644 N1642 1.356 . S
C1645 C1639 1.363 . S
C1645 C1640 1.379 . S
C1645 N1643 1.356 . S
N1646 C1638 1.356 . S
N1646 H1652 0.984 . S
N1646 H1653 0.984 . S
N1647 C1640 1.356 . S
N1647 H1650 0.984 . S
N1647 H1651 0.985 . S
H1648 N1643 0.984 . S
H1649 N1643 0.985 . S
H1650 N1647 0.984 . S
H1651 N1647 0.985 . S
H1652 N1646 0.984 . S
H1653 N1646 0.984 . S
H1654 N1642 0.984 . S
H1655 N1642 0.985 . S
C1656 C1657 1.363 . S
C1656 C1662 1.379 . S
C1656 N1664 1.356 . S
C1657 C1656 1.363 . S
C1657 C1663 1.363 . S
C1658 C1659 1.363 . S
C1658 C1663 1.379 . S
C1658 N1665 1.356 . S
C1659 C1658 1.363 . S
C1659 C1662 1.363 . S
N1660 C1662 1.356 . S
N1660 H1672 0.984 . S
N1660 H1673 0.985 . S
N1661 C1663 1.356 . S
N1661 H1666 0.984 . S
N1661 H1667 0.985 . S
C1662 C1656 1.379 . S
C1662 C1659 1.363 . S
C1662 N1660 1.356 . S
C1663 C1657 1.363 . S
C1663 C1658 1.379 . S
C1663 N1661 1.356 . S
N1664 C1656 1.356 . S
N1664 H1670 0.984 . S
N1664 H1671 0.984 . S
N1665 C1658 1.356 . S
N1665 H1668 0.984 . S
N1665 H1669 0.985 . S
H1666 N1661 0.984 . S
H1667 N1661 0.985 . S
H1668 N1665 0.984 . S
H1669 N1665 0.985 . S
H1670 N1664 0.984 . S
H1671 N1664 0.984 . S
H1672 N1660 0.984 . S
H1673 N1660 0.985 . S
C1674 C1675 1.363 . S
C1674 C1680 1.379 . S
C1674 N1682 1.356 . S
C1675 C1674 1.363 . S
C1675 C1681 1.363 . S
C1676 C1677 1.363 . S
C1676 C1681 1.379 . S
C1676 N1683 1.356 . S
C1677 C1676 1.363 . S
C1677 C1680 1.363 . S
N1678 C1680 1.356 . S
N1678 H1690 0.984 . S
N1678 H1691 0.985 . S
N1679 C1681 1.356 . S
N1679 H1684 0.984 . S
N1679 H1685 0.985 . S
C1680 C1674 1.379 . S
C1680 C1677 1.363 . S
C1680 N1678 1.356 . S
C1681 C1675 1.363 . S
C1681 C1676 1.379 . S
C1681 N1679 1.356 . S
N1682 C1674 1.356 . S
N1682 H1688 0.984 . S
N1682 H1689 0.984 . S
N1683 C1676 1.356 . S
N1683 H1686 0.984 . S
N1683 H1687 0.985 . S
H1684 N1679 0.984 . S
H1685 N1679 0.985 . S
H1686 N1683 0.984 . S
H1687 N1683 0.985 . S
H1688 N1682 0.984 . S
H1689 N1682 0.984 . S
H1690 N1678 0.984 . S
H1691 N1678 0.985 . S
C1692 C1693 1.363 . S
C1692 C1698 1.379 . S
C1692 N1700 1.356 . S
C1693 C1692 1.363 . S
C1693 C1699 1.363 . S
C1694 C1695 1.363 . S
C1694 C1699 1.379 . S
C1694 N1701 1.356 . S
C1695 C1694 1.363 . S
C1695 C1698 1.363 . S
N1696 C1698 1.356 . S
N1696 H1708 0.984 . S
N1696 H1709 0.985 . S
N1697 C1699 1.356 . S
N1697 H1702 0.984 . S
N1697 H1703 0.985 . S
C1698 C1692 1.379 . S
C1698 C1695 1.363 . S
C1698 N1696 1.356 . S
C1699 C1693 1.363 . S
C1699 C1694 1.379 . S
C1699 N1697 1.356 . S
N1700 C1692 1.356 . S
N1700 H1706 0.984 . S
N1700 H1707 0.984 . S
N1701 C1694 1.356 . S
N1701 H1704 0.984 . S
N1701 H1705 0.985 . S
H1702 N1697 0.984 . S
H1703 N1697 0.985 . S
H1704 N1701 0.984 . S
H1705 N1701 0.985 . S
H1706 N1700 0.984 . S
H1707 N1700 0.984 . S
H1708 N1696 0.984 . S
H1709 N1696 0.985 . S
C1710 C1711 1.363 . S
C1710 C1716 1.379 . S
C1710 N1718 1.356 . S
C1711 C1710 1.363 . S
C1711 C1717 1.363 . S
C1712 C1713 1.363 . S
C1712 C1717 1.379 . S
C1712 N1719 1.356 . S
C1713 C1712 1.363 . S
C1713 C1716 1.363 . S
N1714 C1716 1.356 . S
N1714 H1726 0.984 . S
N1714 H1727 0.985 . S
N1715 C1717 1.356 . S
N1715 H1720 0.984 . S
N1715 H1721 0.985 . S
C1716 C1710 1.379 . S
C1716 C1713 1.363 . S
C1716 N1714 1.356 . S
C1717 C1711 1.363 . S
C1717 C1712 1.379 . S
C1717 N1715 1.356 . S
N1718 C1710 1.356 . S
N1718 H1724 0.984 . S
N1718 H1725 0.984 . S
N1719 C1712 1.356 . S
N1719 H1722 0.984 . S
N1719 H1723 0.985 . S
H1720 N1715 0.984 . S
H1721 N1715 0.985 . S
H1722 N1719 0.984 . S
H1723 N1719 0.985 . S
H1724 N1718 0.984 . S
H1725 N1718 0.984 . S
H1726 N1714 0.984 . S
H1727 N1714 0.985 . S
C1728 C1729 1.363 . S
C1728 C1734 1.379 . S
C1728 N1736 1.356 . S
C1729 C1728 1.363 . S
C1729 C1735 1.363 . S
C1730 C1731 1.363 . S
C1730 C1735 1.379 . S
C1730 N1737 1.356 . S
C1731 C1730 1.363 . S
C1731 C1734 1.363 . S
N1732 C1734 1.356 . S
N1732 H1744 0.984 . S
N1732 H1745 0.985 . S
N1733 C1735 1.356 . S
N1733 H1738 0.984 . S
N1733 H1739 0.985 . S
C1734 C1728 1.379 . S
C1734 C1731 1.363 . S
C1734 N1732 1.356 . S
C1735 C1729 1.363 . S
C1735 C1730 1.379 . S
C1735 N1733 1.356 . S
N1736 C1728 1.356 . S
N1736 H1742 0.984 . S
N1736 H1743 0.984 . S
N1737 C1730 1.356 . S
N1737 H1740 0.984 . S
N1737 H1741 0.985 . S
H1738 N1733 0.984 . S
H1739 N1733 0.985 . S
H1740 N1737 0.984 . S
H1741 N1737 0.985 . S
H1742 N1736 0.984 . S
H1743 N1736 0.984 . S
H1744 N1732 0.984 . S
H1745 N1732 0.985 . S
C1746 C1747 1.363 . S
C1746 C1752 1.379 . S
C1746 N1754 1.356 . S
C1747 C1746 1.363 . S
C1747 C1753 1.363 . S
C1748 C1749 1.363 . S
C1748 C1753 1.379 . S
C1748 N1755 1.356 . S
C1749 C1748 1.363 . S
C1749 C1752 1.363 . S
N1750 C1752 1.356 . S
N1750 H1762 0.984 . S
N1750 H1763 0.985 . S
N1751 C1753 1.356 . S
N1751 H1756 0.984 . S
N1751 H1757 0.985 . S
C1752 C1746 1.379 . S
C1752 C1749 1.363 . S
C1752 N1750 1.356 . S
C1753 C1747 1.363 . S
C1753 C1748 1.379 . S
C1753 N1751 1.356 . S
N1754 C1746 1.356 . S
N1754 H1760 0.984 . S
N1754 H1761 0.984 . S
N1755 C1748 1.356 . S
N1755 H1758 0.984 . S
N1755 H1759 0.985 . S
H1756 N1751 0.984 . S
H1757 N1751 0.985 . S
H1758 N1755 0.984 . S
H1759 N1755 0.985 . S
H1760 N1754 0.984 . S
H1761 N1754 0.984 . S
H1762 N1750 0.984 . S
H1763 N1750 0.985 . S
C1764 C1765 1.363 . S
C1764 C1770 1.379 . S
C1764 N1772 1.356 . S
C1765 C1764 1.363 . S
C1765 C1771 1.363 . S
C1766 C1767 1.363 . S
C1766 C1771 1.379 . S
C1766 N1773 1.356 . S
C1767 C1766 1.363 . S
C1767 C1770 1.363 . S
N1768 C1770 1.356 . S
N1768 H1780 0.984 . S
N1768 H1781 0.985 . S
N1769 C1771 1.356 . S
N1769 H1774 0.984 . S
N1769 H1775 0.985 . S
C1770 C1764 1.379 . S
C1770 C1767 1.363 . S
C1770 N1768 1.356 . S
C1771 C1765 1.363 . S
C1771 C1766 1.379 . S
C1771 N1769 1.356 . S
N1772 C1764 1.356 . S
N1772 H1778 0.984 . S
N1772 H1779 0.984 . S
N1773 C1766 1.356 . S
N1773 H1776 0.984 . S
N1773 H1777 0.985 . S
H1774 N1769 0.984 . S
H1775 N1769 0.985 . S
H1776 N1773 0.984 . S
H1777 N1773 0.985 . S
H1778 N1772 0.984 . S
H1779 N1772 0.984 . S
H1780 N1768 0.984 . S
H1781 N1768 0.985 . S
C1782 C1783 1.363 . S
C1782 C1788 1.379 . S
C1782 N1790 1.356 . S
C1783 C1782 1.363 . S
C1783 C1789 1.363 . S
C1784 C1785 1.363 . S
C1784 C1789 1.379 . S
C1784 N1791 1.356 . S
C1785 C1784 1.363 . S
C1785 C1788 1.363 . S
N1786 C1788 1.356 . S
N1786 H1798 0.984 . S
N1786 H1799 0.985 . S
N1787 C1789 1.356 . S
N1787 H1792 0.984 . S
N1787 H1793 0.985 . S
C1788 C1782 1.379 . S
C1788 C1785 1.363 . S
C1788 N1786 1.356 . S
C1789 C1783 1.363 . S
C1789 C1784 1.379 . S
C1789 N1787 1.356 . S
N1790 C1782 1.356 . S
N1790 H1796 0.984 . S
N1790 H1797 0.984 . S
N1791 C1784 1.356 . S
N1791 H1794 0.984 . S
N1791 H1795 0.985 . S
H1792 N1787 0.984 . S
H1793 N1787 0.985 . S
H1794 N1791 0.984 . S
H1795 N1791 0.985 . S
H1796 N1790 0.984 . S
H1797 N1790 0.984 . S
H1798 N1786 0.984 . S
H1799 N1786 0.985 . S
C1800 C1801 1.363 . S
C1800 C1806 1.379 . S
C1800 N1808 1.356 . S
C1801 C1800 1.363 . S
C1801 C1807 1.363 . S
C1802 C1803 1.363 . S
C1802 C1807 1.379 . S
C1802 N1809 1.356 . S
C1803 C1802 1.363 . S
C1803 C1806 1.363 . S
N1804 C1806 1.356 . S
N1804 H1816 0.984 . S
N1804 H1817 0.985 . S
N1805 C1807 1.356 . S
N1805 H1810 0.984 . S
N1805 H1811 0.985 . S
C1806 C1800 1.379 . S
C1806 C1803 1.363 . S
C1806 N1804 1.356 . S
C1807 C1801 1.363 . S
C1807 C1802 1.379 . S
C1807 N1805 1.356 . S
N1808 C1800 1.356 . S
N1808 H1814 0.984 . S
N1808 H1815 0.984 . S
N1809 C1802 1.356 . S
N1809 H1812 0.984 . S
N1809 H1813 0.985 . S
H1810 N1805 0.984 . S
H1811 N1805 0.985 . S
H1812 N1809 0.984 . S
H1813 N1809 0.985 . S
H1814 N1808 0.984 . S
H1815 N1808 0.984 . S
H1816 N1804 0.984 . S
H1817 N1804 0.985 . S
C1818 C1819 1.363 . S
C1818 C1824 1.379 . S
C1818 N1826 1.316 1_556 S
C1819 C1818 1.363 . S
C1819 C1825 1.363 . S
C1820 C1821 1.363 . S
C1820 C1825 1.379 . S
C1820 N1827 1.356 . S
C1821 C1820 1.363 . S
C1821 C1824 1.363 . S
N1822 C1824 1.356 . S
N1822 H1834 0.984 . S
N1822 H1835 0.985 . S
N1823 C1825 1.356 . S
N1823 H1828 0.984 . S
N1823 H1829 0.985 . S
C1824 C1818 1.379 . S
C1824 C1821 1.363 . S
C1824 N1822 1.356 . S
C1825 C1819 1.363 . S
C1825 C1820 1.379 . S
C1825 N1823 1.356 . S
N1826 C1818 1.316 1_554 S
N1826 H1832 1.016 . S
N1826 H1833 0.995 . S
N1827 C1820 1.356 . S
N1827 H1830 0.984 . S
N1827 H1831 0.985 . S
H1828 N1823 0.984 . S
H1829 N1823 0.985 . S
H1830 N1827 0.984 . S
H1831 N1827 0.985 . S
H1832 N1826 1.016 . S
H1833 N1826 0.995 . S
H1834 N1822 0.984 . S
H1835 N1822 0.985 . S
C1836 C1837 1.363 . S
C1836 C1842 1.379 . S
C1836 N1844 1.356 . S
C1837 C1836 1.363 . S
C1837 C1843 1.363 . S
C1838 C1839 1.363 . S
C1838 C1843 1.379 . S
C1838 N1845 1.356 . S
C1839 C1838 1.363 . S
C1839 C1842 1.363 . S
N1840 C1842 1.356 . S
N1840 H1852 0.984 . S
N1840 H1853 0.985 . S
N1841 C1843 1.356 . S
N1841 H1846 0.991 . S
N1841 H1847 0.985 1_556 S
C1842 C1836 1.379 . S
C1842 C1839 1.363 . S
C1842 N1840 1.356 . S
C1843 C1837 1.363 . S
C1843 C1838 1.379 . S
C1843 N1841 1.356 . S
N1844 C1836 1.356 . S
N1844 H1850 0.984 . S
N1844 H1851 0.984 . S
N1845 C1838 1.356 . S
N1845 H1848 0.984 . S
N1845 H1849 0.985 . S
H1846 N1841 0.991 . S
H1847 N1841 0.985 1_554 S
H1848 N1845 0.984 . S
H1849 N1845 0.985 . S
H1850 N1844 0.984 . S
H1851 N1844 0.984 . S
H1852 N1840 0.984 . S
H1853 N1840 0.985 . S
C1854 C1855 1.363 . S
C1854 C1860 1.379 . S
C1854 N1862 1.356 . S
C1855 C1854 1.363 . S
C1855 C1861 1.363 . S
C1856 C1857 1.363 . S
C1856 C1861 1.379 . S
C1856 N1863 1.356 . S
C1857 C1856 1.363 . S
C1857 C1860 1.363 . S
N1858 C1860 1.356 . S
N1858 H1870 0.984 . S
N1858 H1871 0.985 . S
N1859 C1861 1.356 . S
N1859 H1864 0.984 . S
N1859 H1865 0.985 . S
C1860 C1854 1.379 . S
C1860 C1857 1.363 . S
C1860 N1858 1.356 . S
C1861 C1855 1.363 . S
C1861 C1856 1.379 . S
C1861 N1859 1.356 . S
N1862 C1854 1.356 . S
N1862 H1868 0.984 . S
N1862 H1869 0.984 . S
N1863 C1856 1.356 . S
N1863 H1866 0.984 . S
N1863 H1867 0.985 . S
H1864 N1859 0.984 . S
H1865 N1859 0.985 . S
H1866 N1863 0.984 . S
H1867 N1863 0.985 . S
H1868 N1862 0.984 . S
H1869 N1862 0.984 . S
H1870 N1858 0.984 . S
H1871 N1858 0.985 . S
C1872 C1873 1.363 . S
C1872 C1878 1.379 . S
C1872 N1880 1.356 1_556 S
C1873 C1872 1.363 . S
C1873 C1879 1.363 . S
C1874 C1875 1.363 . S
C1874 C1879 1.379 . S
C1874 N1881 1.356 . S
C1875 C1874 1.363 . S
C1875 C1878 1.363 . S
N1876 C1878 1.356 . S
N1876 H1888 0.984 . S
N1876 H1889 0.985 . S
N1877 C1879 1.356 . S
N1877 H1882 0.984 . S
N1877 H1883 0.985 . S
C1878 C1872 1.379 . S
C1878 C1875 1.363 . S
C1878 N1876 1.356 . S
C1879 C1873 1.363 . S
C1879 C1874 1.379 . S
C1879 N1877 1.356 . S
N1880 C1872 1.356 1_554 S
N1880 H1886 0.984 . S
N1880 H1887 0.984 . S
N1881 C1874 1.356 . S
N1881 H1884 0.984 . S
N1881 H1885 0.985 . S
H1882 N1877 0.984 . S
H1883 N1877 0.985 . S
H1884 N1881 0.984 . S
H1885 N1881 0.985 . S
H1886 N1880 0.984 . S
H1887 N1880 0.984 . S
H1888 N1876 0.984 . S
H1889 N1876 0.985 . S
C1890 C1891 1.363 . S
C1890 C1896 1.379 . S
C1890 N1898 1.356 . S
C1891 C1890 1.363 . S
C1891 C1897 1.363 . S
C1892 C1893 1.363 . S
C1892 C1897 1.379 . S
C1892 N1899 1.356 . S
C1893 C1892 1.363 . S
C1893 C1896 1.363 . S
N1894 C1896 1.356 . S
N1894 H1906 0.984 . S
N1894 H1907 0.985 . S
N1895 C1897 1.356 . S
N1895 H1900 0.984 . S
N1895 H1901 0.985 . S
C1896 C1890 1.379 . S
C1896 C1893 1.363 . S
C1896 N1894 1.356 . S
C1897 C1891 1.363 . S
C1897 C1892 1.379 . S
C1897 N1895 1.356 . S
N1898 C1890 1.356 . S
N1898 H1904 0.984 1_556 S
N1898 H1905 0.988 . S
N1899 C1892 1.356 . S
N1899 H1902 0.984 . S
N1899 H1903 0.985 . S
H1900 N1895 0.984 . S
H1901 N1895 0.985 . S
H1902 N1899 0.984 . S
H1903 N1899 0.985 . S
H1904 N1898 0.984 1_554 S
H1905 N1898 0.988 . S
H1906 N1894 0.984 . S
H1907 N1894 0.985 . S
C1908 C1909 1.363 . S
C1908 C1914 1.379 . S
C1908 N1916 1.356 . S
C1909 C1908 1.363 . S
C1909 C1915 1.363 . S
C1910 C1911 1.363 . S
C1910 C1915 1.379 . S
C1910 N1917 1.356 . S
C1911 C1910 1.363 . S
C1911 C1914 1.363 . S
N1912 C1914 1.356 . S
N1912 H1924 0.984 . S
N1912 H1925 0.985 . S
N1913 C1915 1.356 . S
N1913 H1918 0.984 . S
N1913 H1919 0.985 . S
C1914 C1908 1.379 . S
C1914 C1911 1.363 . S
C1914 N1912 1.356 . S
C1915 C1909 1.363 . S
C1915 C1910 1.379 . S
C1915 N1913 1.356 . S
N1916 C1908 1.356 . S
N1916 H1922 0.984 . S
N1916 H1923 0.984 . S
N1917 C1910 1.356 . S
N1917 H1920 0.984 . S
N1917 H1921 0.985 . S
H1918 N1913 0.984 . S
H1919 N1913 0.985 . S
H1920 N1917 0.984 . S
H1921 N1917 0.985 . S
H1922 N1916 0.984 . S
H1923 N1916 0.984 . S
H1924 N1912 0.984 . S
H1925 N1912 0.985 . S
C1926 C1927 1.363 . S
C1926 C1932 1.379 . S
C1926 N1934 1.356 . S
C1927 C1926 1.363 . S
C1927 C1933 1.363 . S
C1928 C1929 1.363 . S
C1928 C1933 1.379 . S
C1928 N1935 1.356 . S
C1929 C1928 1.363 . S
C1929 C1932 1.363 . S
N1930 C1932 1.356 . S
N1930 H1942 0.984 . S
N1930 H1943 0.985 . S
N1931 C1933 1.356 . S
N1931 H1936 0.984 . S
N1931 H1937 0.985 . S
C1932 C1926 1.379 . S
C1932 C1929 1.363 . S
C1932 N1930 1.356 . S
C1933 C1927 1.363 . S
C1933 C1928 1.379 . S
C1933 N1931 1.356 . S
N1934 C1926 1.356 . S
N1934 H1940 0.984 . S
N1934 H1941 0.984 . S
N1935 C1928 1.356 . S
N1935 H1938 0.984 . S
N1935 H1939 0.985 . S
H1936 N1931 0.984 . S
H1937 N1931 0.985 . S
H1938 N1935 0.984 . S
H1939 N1935 0.985 . S
H1940 N1934 0.984 . S
H1941 N1934 0.984 . S
H1942 N1930 0.984 . S
H1943 N1930 0.985 . S
C1944 C1945 1.363 . S
C1944 C1950 1.379 . S
C1944 N1952 1.356 . S
C1945 C1944 1.363 . S
C1945 C1951 1.363 . S
C1946 C1947 1.363 . S
C1946 C1951 1.379 . S
C1946 N1953 1.356 . S
C1947 C1946 1.363 . S
C1947 C1950 1.363 . S
N1948 C1950 1.356 . S
N1948 H1960 0.984 . S
N1948 H1961 0.985 . S
N1949 C1951 1.356 . S
N1949 H1954 0.984 . S
N1949 H1955 0.985 . S
C1950 C1944 1.379 . S
C1950 C1947 1.363 . S
C1950 N1948 1.356 . S
C1951 C1945 1.363 . S
C1951 C1946 1.379 . S
C1951 N1949 1.356 . S
N1952 C1944 1.356 . S
N1952 H1958 0.984 . S
N1952 H1959 0.984 . S
N1953 C1946 1.356 . S
N1953 H1956 0.984 . S
N1953 H1957 0.985 . S
H1954 N1949 0.984 . S
H1955 N1949 0.985 . S
H1956 N1953 0.984 . S
H1957 N1953 0.985 . S
H1958 N1952 0.984 . S
H1959 N1952 0.984 . S
H1960 N1948 0.984 . S
H1961 N1948 0.985 . S
C1962 C1963 1.363 . S
C1962 C1968 1.379 . S
C1962 N1970 1.356 . S
C1963 C1962 1.363 . S
C1963 C1969 1.363 . S
C1964 C1965 1.363 . S
C1964 C1969 1.379 . S
C1964 N1971 1.356 . S
C1965 C1964 1.363 . S
C1965 C1968 1.363 . S
N1966 C1968 1.356 . S
N1966 H1978 0.984 . S
N1966 H1979 0.985 . S
N1967 C1969 1.356 . S
N1967 H1972 0.984 . S
N1967 H1973 0.985 . S
C1968 C1962 1.379 . S
C1968 C1965 1.363 . S
C1968 N1966 1.356 . S
C1969 C1963 1.363 . S
C1969 C1964 1.379 . S
C1969 N1967 1.356 . S
N1970 C1962 1.356 . S
N1970 H1976 0.984 . S
N1970 H1977 0.984 . S
N1971 C1964 1.356 . S
N1971 H1974 0.984 . S
N1971 H1975 0.985 . S
H1972 N1967 0.984 . S
H1973 N1967 0.985 . S
H1974 N1971 0.984 . S
H1975 N1971 0.985 . S
H1976 N1970 0.984 . S
H1977 N1970 0.984 . S
H1978 N1966 0.984 . S
H1979 N1966 0.985 . S
C1980 C1981 1.363 . S
C1980 C1986 1.379 . S
C1980 N1988 1.356 . S
C1981 C1980 1.363 . S
C1981 C1987 1.363 . S
C1982 C1983 1.363 . S
C1982 C1987 1.379 . S
C1982 N1989 1.356 . S
C1983 C1982 1.363 . S
C1983 C1986 1.363 . S
N1984 C1986 1.356 . S
N1984 H1996 0.984 . S
N1984 H1997 0.985 . S
N1985 C1987 1.356 . S
N1985 H1990 0.984 . S
N1985 H1991 0.985 . S
C1986 C1980 1.379 . S
C1986 C1983 1.363 . S
C1986 N1984 1.356 . S
C1987 C1981 1.363 . S
C1987 C1982 1.379 . S
C1987 N1985 1.356 . S
N1988 C1980 1.356 . S
N1988 H1994 0.984 . S
N1988 H1995 0.984 . S
N1989 C1982 1.356 . S
N1989 H1992 0.984 . S
N1989 H1993 0.985 . S
H1990 N1985 0.984 . S
H1991 N1985 0.985 . S
H1992 N1989 0.984 . S
H1993 N1989 0.985 . S
H1994 N1988 0.984 . S
H1995 N1988 0.984 . S
H1996 N1984 0.984 . S
H1997 N1984 0.985 . S
C1998 C1999 1.363 . S
C1998 C2004 1.379 . S
C1998 N2006 1.356 . S
C1999 C1998 1.363 . S
C1999 C2005 1.363 . S
C2000 C2001 1.363 . S
C2000 C2005 1.379 . S
C2000 N2007 1.356 . S
C2001 C2000 1.363 . S
C2001 C2004 1.363 . S
N2002 C2004 1.356 . S
N2002 H2014 0.984 . S
N2002 H2015 0.985 . S
N2003 C2005 1.356 . S
N2003 H2008 0.984 . S
N2003 H2009 0.985 . S
C2004 C1998 1.379 . S
C2004 C2001 1.363 . S
C2004 N2002 1.356 . S
C2005 C1999 1.363 . S
C2005 C2000 1.379 . S
C2005 N2003 1.356 . S
N2006 C1998 1.356 . S
N2006 H2012 0.984 . S
N2006 H2013 0.984 . S
N2007 C2000 1.356 . S
N2007 H2010 0.984 . S
N2007 H2011 0.985 . S
H2008 N2003 0.984 . S
H2009 N2003 0.985 . S
H2010 N2007 0.984 . S
H2011 N2007 0.985 . S
H2012 N2006 0.984 . S
H2013 N2006 0.984 . S
H2014 N2002 0.984 . S
H2015 N2002 0.985 . S
C2016 C2017 1.363 . S
C2016 C2022 1.379 . S
C2016 N2024 1.356 . S
C2017 C2016 1.363 . S
C2017 C2023 1.363 . S
C2018 C2019 1.363 . S
C2018 C2023 1.379 . S
C2018 N2025 1.356 . S
C2019 C2018 1.363 . S
C2019 C2022 1.363 . S
N2020 C2022 1.356 . S
N2020 H2032 0.984 . S
N2020 H2033 0.985 . S
N2021 C2023 1.356 . S
N2021 H2026 0.984 . S
N2021 H2027 0.985 . S
C2022 C2016 1.379 . S
C2022 C2019 1.363 . S
C2022 N2020 1.356 . S
C2023 C2017 1.363 . S
C2023 C2018 1.379 . S
C2023 N2021 1.356 . S
N2024 C2016 1.356 . S
N2024 H2030 0.984 . S
N2024 H2031 0.984 . S
N2025 C2018 1.356 . S
N2025 H2028 0.984 . S
N2025 H2029 0.985 . S
H2026 N2021 0.984 . S
H2027 N2021 0.985 . S
H2028 N2025 0.984 . S
H2029 N2025 0.985 . S
H2030 N2024 0.984 . S
H2031 N2024 0.984 . S
H2032 N2020 0.984 . S
H2033 N2020 0.985 . S
C2034 C2035 1.363 . S
C2034 C2040 1.406 . S
C2034 N2042 1.357 1_455 S
C2035 C2034 1.363 . S
C2035 C2041 1.363 . S
C2036 C2037 1.363 . S
C2036 C2041 1.379 . S
C2036 N2043 1.356 . S
C2037 C2036 1.363 . S
C2037 C2040 1.370 . S
N2038 C2040 1.321 1_655 S
N2038 H2050 0.984 . S
N2038 H2051 0.985 . S
N2039 C2041 1.356 . S
N2039 H2044 0.984 . S
N2039 H2045 0.985 . S
C2040 C2034 1.406 . S
C2040 C2037 1.370 . S
C2040 N2038 1.321 1_455 S
C2041 C2035 1.363 . S
C2041 C2036 1.379 . S
C2041 N2039 1.356 . S
N2042 C2034 1.357 1_655 S
N2042 H2048 0.992 . S
N2042 H2049 0.976 1_655 S
N2043 C2036 1.356 . S
N2043 H2046 0.984 . S
N2043 H2047 0.985 . S
H2044 N2039 0.984 . S
H2045 N2039 0.985 . S
H2046 N2043 0.984 . S
H2047 N2043 0.985 . S
H2048 N2042 0.992 . S
H2049 N2042 0.976 1_455 S
H2050 N2038 0.984 . S
H2051 N2038 0.985 . S
C2052 C2053 1.363 . S
C2052 C2058 1.379 . S
C2052 N2060 1.356 . S
C2053 C2052 1.363 . S
C2053 C2059 1.363 . S
C2054 C2055 1.363 . S
C2054 C2059 1.379 . S
C2054 N2061 1.356 . S
C2055 C2054 1.363 . S
C2055 C2058 1.363 . S
N2056 C2058 1.356 . S
N2056 H2068 0.984 . S
N2056 H2069 0.985 . S
N2057 C2059 1.356 . S
N2057 H2062 0.984 . S
N2057 H2063 0.985 . S
C2058 C2052 1.379 . S
C2058 C2055 1.363 . S
C2058 N2056 1.356 . S
C2059 C2053 1.363 . S
C2059 C2054 1.379 . S
C2059 N2057 1.356 . S
N2060 C2052 1.356 . S
N2060 H2066 0.984 . S
N2060 H2067 0.984 . S
N2061 C2054 1.356 . S
N2061 H2064 0.984 . S
N2061 H2065 0.985 . S
H2062 N2057 0.984 . S
H2063 N2057 0.985 . S
H2064 N2061 0.984 . S
H2065 N2061 0.985 . S
H2066 N2060 0.984 . S
H2067 N2060 0.984 . S
H2068 N2056 0.984 . S
H2069 N2056 0.985 . S
C2070 C2071 1.366 . S
C2070 C2076 1.383 1_565 S
C2070 N2078 1.349 1_565 S
C2071 C2070 1.366 . S
C2071 C2077 1.363 . S
C2072 C2073 1.363 . S
C2072 C2077 1.379 . S
C2072 N2079 1.356 . S
C2073 C2072 1.363 . S
C2073 C2076 1.363 1_565 S
N2074 C2076 1.356 . S
N2074 H2086 0.984 . S
N2074 H2087 0.985 . S
N2075 C2077 1.356 . S
N2075 H2080 0.984 . S
N2075 H2081 0.985 . S
C2076 C2070 1.383 1_545 S
C2076 C2073 1.363 1_545 S
C2076 N2074 1.356 . S
C2077 C2071 1.363 . S
C2077 C2072 1.379 . S
C2077 N2075 1.356 . S
N2078 C2070 1.349 1_545 S
N2078 H2084 0.984 . S
N2078 H2085 0.984 . S
N2079 C2072 1.356 . S
N2079 H2082 0.984 . S
N2079 H2083 0.985 . S
H2080 N2075 0.984 . S
H2081 N2075 0.985 . S
H2082 N2079 0.984 . S
H2083 N2079 0.985 . S
H2084 N2078 0.984 . S
H2085 N2078 0.984 . S
H2086 N2074 0.984 . S
H2087 N2074 0.985 . S
C2088 C2089 1.363 . S
C2088 C2094 1.379 . S
C2088 N2096 1.356 . S
C2089 C2088 1.363 . S
C2089 C2095 1.363 1_565 S
C2090 C2091 1.363 1_545 S
C2090 C2095 1.379 . S
C2090 N2097 1.356 . S
C2091 C2090 1.363 1_565 S
C2091 C2094 1.363 . S
N2092 C2094 1.356 . S
N2092 H2104 0.984 . S
N2092 H2105 0.985 . S
N2093 C2095 1.356 . S
N2093 H2098 0.984 . S
N2093 H2099 0.985 . S
C2094 C2088 1.379 . S
C2094 C2091 1.363 . S
C2094 N2092 1.356 . S
C2095 C2089 1.363 1_545 S
C2095 C2090 1.379 . S
C2095 N2093 1.356 . S
N2096 C2088 1.356 . S
N2096 H2102 0.984 . S
N2096 H2103 0.984 . S
N2097 C2090 1.356 . S
N2097 H2100 0.984 . S
N2097 H2101 0.985 . S
H2098 N2093 0.984 . S
H2099 N2093 0.985 . S
H2100 N2097 0.984 . S
H2101 N2097 0.985 . S
H2102 N2096 0.984 . S
H2103 N2096 0.984 . S
H2104 N2092 0.984 . S
H2105 N2092 0.985 . S
C2106 C2107 1.363 . S
C2106 C2112 1.379 . S
C2106 N2114 1.356 . S
C2107 C2106 1.363 . S
C2107 C2113 1.357 1_455 S
C2108 C2109 1.363 1_655 S
C2108 C2113 1.371 . S
C2108 N2115 1.356 . S
C2109 C2108 1.363 1_455 S
C2109 C2112 1.363 . S
N2110 C2112 1.356 . S
N2110 H2122 0.984 . S
N2110 H2123 0.985 . S
N2111 C2113 1.370 . S
N2111 H2116 0.984 . S
N2111 H2117 0.985 . S
C2112 C2106 1.379 . S
C2112 C2109 1.363 . S
C2112 N2110 1.356 . S
C2113 C2107 1.357 1_655 S
C2113 C2108 1.371 . S
C2113 N2111 1.370 . S
N2114 C2106 1.356 . S
N2114 H2120 0.984 . S
N2114 H2121 0.984 . S
N2115 C2108 1.356 . S
N2115 H2118 0.984 . S
N2115 H2119 0.985 . S
H2116 N2111 0.984 . S
H2117 N2111 0.985 . S
H2118 N2115 0.984 . S
H2119 N2115 0.985 . S
H2120 N2114 0.984 . S
H2121 N2114 0.984 . S
H2122 N2110 0.984 . S
H2123 N2110 0.985 . S
C2124 C2125 1.363 . S
C2124 C2130 1.379 . S
C2124 N2132 1.356 . S
C2125 C2124 1.363 . S
C2125 C2131 1.363 . S
C2126 C2127 1.363 . S
C2126 C2131 1.379 . S
C2126 N2133 1.356 . S
C2127 C2126 1.363 . S
C2127 C2130 1.363 . S
N2128 C2130 1.356 . S
N2128 H2140 0.984 . S
N2128 H2141 0.985 . S
N2129 C2131 1.356 . S
N2129 H2134 0.984 . S
N2129 H2135 0.985 . S
C2130 C2124 1.379 . S
C2130 C2127 1.363 . S
C2130 N2128 1.356 . S
C2131 C2125 1.363 . S
C2131 C2126 1.379 . S
C2131 N2129 1.356 . S
N2132 C2124 1.356 . S
N2132 H2138 0.984 . S
N2132 H2139 0.984 . S
N2133 C2126 1.356 . S
N2133 H2136 0.984 . S
N2133 H2137 0.985 . S
H2134 N2129 0.984 . S
H2135 N2129 0.985 . S
H2136 N2133 0.984 . S
H2137 N2133 0.985 . S
H2138 N2132 0.984 . S
H2139 N2132 0.984 . S
H2140 N2128 0.984 . S
H2141 N2128 0.985 . S
C2142 C2143 1.363 . S
C2142 C2148 1.379 . S
C2142 N2150 1.356 . S
C2143 C2142 1.363 . S
C2143 C2149 1.363 . S
C2144 C2145 1.363 . S
C2144 C2149 1.379 . S
C2144 N2151 1.356 . S
C2145 C2144 1.363 . S
C2145 C2148 1.363 . S
N2146 C2148 1.356 . S
N2146 H2158 0.984 . S
N2146 H2159 0.985 . S
N2147 C2149 1.356 . S
N2147 H2152 0.984 . S
N2147 H2153 0.985 . S
C2148 C2142 1.379 . S
C2148 C2145 1.363 . S
C2148 N2146 1.356 . S
C2149 C2143 1.363 . S
C2149 C2144 1.379 . S
C2149 N2147 1.356 . S
N2150 C2142 1.356 . S
N2150 H2156 0.984 . S
N2150 H2157 0.984 . S
N2151 C2144 1.356 . S
N2151 H2154 0.984 . S
N2151 H2155 0.985 . S
H2152 N2147 0.984 . S
H2153 N2147 0.985 . S
H2154 N2151 0.984 . S
H2155 N2151 0.985 . S
H2156 N2150 0.984 . S
H2157 N2150 0.984 . S
H2158 N2146 0.984 . S
H2159 N2146 0.985 . S
C2160 C2161 1.363 . S
C2160 C2166 1.379 . S
C2160 N2168 1.356 . S
C2161 C2160 1.363 . S
C2161 C2167 1.363 . S
C2162 C2163 1.363 . S
C2162 C2167 1.379 . S
C2162 N2169 1.356 . S
C2163 C2162 1.363 . S
C2163 C2166 1.363 . S
N2164 C2166 1.356 . S
N2164 H2176 0.984 . S
N2164 H2177 0.985 . S
N2165 C2167 1.356 . S
N2165 H2170 0.984 . S
N2165 H2171 0.985 . S
C2166 C2160 1.379 . S
C2166 C2163 1.363 . S
C2166 N2164 1.356 . S
C2167 C2161 1.363 . S
C2167 C2162 1.379 . S
C2167 N2165 1.356 . S
N2168 C2160 1.356 . S
N2168 H2174 0.984 . S
N2168 H2175 0.984 . S
N2169 C2162 1.356 . S
N2169 H2172 0.984 . S
N2169 H2173 0.985 . S
H2170 N2165 0.984 . S
H2171 N2165 0.985 . S
H2172 N2169 0.984 . S
H2173 N2169 0.985 . S
H2174 N2168 0.984 . S
H2175 N2168 0.984 . S
H2176 N2164 0.984 . S
H2177 N2164 0.985 . S
C2178 C2179 1.363 . S
C2178 C2184 1.379 . S
C2178 N2186 1.356 . S
C2179 C2178 1.363 . S
C2179 C2185 1.363 . S
C2180 C2181 1.363 . S
C2180 C2185 1.379 . S
C2180 N2187 1.356 . S
C2181 C2180 1.363 . S
C2181 C2184 1.363 . S
N2182 C2184 1.356 . S
N2182 H2194 0.984 . S
N2182 H2195 0.985 . S
N2183 C2185 1.356 . S
N2183 H2188 0.984 . S
N2183 H2189 0.985 . S
C2184 C2178 1.379 . S
C2184 C2181 1.363 . S
C2184 N2182 1.356 . S
C2185 C2179 1.363 . S
C2185 C2180 1.379 . S
C2185 N2183 1.356 . S
N2186 C2178 1.356 . S
N2186 H2192 0.984 . S
N2186 H2193 0.984 . S
N2187 C2180 1.356 . S
N2187 H2190 0.984 . S
N2187 H2191 0.985 . S
H2188 N2183 0.984 . S
H2189 N2183 0.985 . S
H2190 N2187 0.984 . S
H2191 N2187 0.985 . S
H2192 N2186 0.984 . S
H2193 N2186 0.984 . S
H2194 N2182 0.984 . S
H2195 N2182 0.985 . S
C2196 C2197 1.363 . S
C2196 C2202 1.379 . S
C2196 N2204 1.356 . S
C2197 C2196 1.363 . S
C2197 C2203 1.363 1_545 S
C2198 C2199 1.363 1_565 S
C2198 C2203 1.379 . S
C2198 N2205 1.356 . S
C2199 C2198 1.363 1_545 S
C2199 C2202 1.363 . S
N2200 C2202 1.356 . S
N2200 H2212 0.984 . S
N2200 H2213 0.985 . S
N2201 C2203 1.356 . S
N2201 H2206 0.984 . S
N2201 H2207 0.985 . S
C2202 C2196 1.379 . S
C2202 C2199 1.363 . S
C2202 N2200 1.356 . S
C2203 C2197 1.363 1_565 S
C2203 C2198 1.379 . S
C2203 N2201 1.356 . S
N2204 C2196 1.356 . S
N2204 H2210 0.984 . S
N2204 H2211 0.984 . S
N2205 C2198 1.356 . S
N2205 H2208 0.984 . S
N2205 H2209 0.985 . S
H2206 N2201 0.984 . S
H2207 N2201 0.985 . S
H2208 N2205 0.984 . S
H2209 N2205 0.985 . S
H2210 N2204 0.984 . S
H2211 N2204 0.984 . S
H2212 N2200 0.984 . S
H2213 N2200 0.985 . S
C2214 C2215 1.363 1_455 S
C2214 C2220 1.379 . S
C2214 N2222 1.356 . S
C2215 C2214 1.363 1_655 S
C2215 C2221 1.363 . S
C2216 C2217 1.363 . S
C2216 C2221 1.379 . S
C2216 N2223 1.356 . S
C2217 C2216 1.363 . S
C2217 C2220 1.363 1_655 S
N2218 C2220 1.356 . S
N2218 H2230 0.984 . S
N2218 H2231 0.985 . S
N2219 C2221 1.356 . S
N2219 H2224 0.984 . S
N2219 H2225 0.985 . S
C2220 C2214 1.379 . S
C2220 C2217 1.363 1_455 S
C2220 N2218 1.356 . S
C2221 C2215 1.363 . S
C2221 C2216 1.379 . S
C2221 N2219 1.356 . S
N2222 C2214 1.356 . S
N2222 H2228 0.984 . S
N2222 H2229 0.984 . S
N2223 C2216 1.356 . S
N2223 H2226 0.984 . S
N2223 H2227 0.985 . S
H2224 N2219 0.984 . S
H2225 N2219 0.985 . S
H2226 N2223 0.984 . S
H2227 N2223 0.985 . S
H2228 N2222 0.984 . S
H2229 N2222 0.984 . S
H2230 N2218 0.984 . S
H2231 N2218 0.985 . S
C2232 C2233 1.363 . S
C2232 C2238 1.379 . S
C2232 N2240 1.356 . S
C2233 C2232 1.363 . S
C2233 C2239 1.363 . S
C2234 C2235 1.363 . S
C2234 C2239 1.379 . S
C2234 N2241 1.356 . S
C2235 C2234 1.363 . S
C2235 C2238 1.363 . S
N2236 C2238 1.356 . S
N2236 H2248 0.984 . S
N2236 H2249 0.985 . S
N2237 C2239 1.356 . S
N2237 H2242 0.984 . S
N2237 H2243 0.985 . S
C2238 C2232 1.379 . S
C2238 C2235 1.363 . S
C2238 N2236 1.356 . S
C2239 C2233 1.363 . S
C2239 C2234 1.379 . S
C2239 N2237 1.356 . S
N2240 C2232 1.356 . S
N2240 H2246 0.984 . S
N2240 H2247 0.984 . S
N2241 C2234 1.356 . S
N2241 H2244 0.984 . S
N2241 H2245 0.985 . S
H2242 N2237 0.984 . S
H2243 N2237 0.985 . S
H2244 N2241 0.984 . S
H2245 N2241 0.985 . S
H2246 N2240 0.984 . S
H2247 N2240 0.984 . S
H2248 N2236 0.984 . S
H2249 N2236 0.985 . S
C2250 C2251 1.363 . S
C2250 C2256 1.379 . S
C2250 N2258 1.356 . S
C2251 C2250 1.363 . S
C2251 C2257 1.363 . S
C2252 C2253 1.363 . S
C2252 C2257 1.379 . S
C2252 N2259 1.356 . S
C2253 C2252 1.363 . S
C2253 C2256 1.363 . S
N2254 C2256 1.356 . S
N2254 H2266 0.984 . S
N2254 H2267 0.985 . S
N2255 C2257 1.356 . S
N2255 H2260 0.984 . S
N2255 H2261 0.985 . S
C2256 C2250 1.379 . S
C2256 C2253 1.363 . S
C2256 N2254 1.356 . S
C2257 C2251 1.363 . S
C2257 C2252 1.379 . S
C2257 N2255 1.356 . S
N2258 C2250 1.356 . S
N2258 H2264 0.984 . S
N2258 H2265 0.984 . S
N2259 C2252 1.356 . S
N2259 H2262 0.984 . S
N2259 H2263 0.985 . S
H2260 N2255 0.984 . S
H2261 N2255 0.985 . S
H2262 N2259 0.984 . S
H2263 N2259 0.985 . S
H2264 N2258 0.984 . S
H2265 N2258 0.984 . S
H2266 N2254 0.984 . S
H2267 N2254 0.985 . S
C2268 C2269 1.363 . S
C2268 C2274 1.379 . S
C2268 N2276 1.356 . S
C2269 C2268 1.363 . S
C2269 C2275 1.363 . S
C2270 C2271 1.363 . S
C2270 C2275 1.379 . S
C2270 N2277 1.356 . S
C2271 C2270 1.363 . S
C2271 C2274 1.363 . S
N2272 C2274 1.356 . S
N2272 H2284 0.984 . S
N2272 H2285 0.985 . S
N2273 C2275 1.356 . S
N2273 H2278 0.984 . S
N2273 H2279 0.985 . S
C2274 C2268 1.379 . S
C2274 C2271 1.363 . S
C2274 N2272 1.356 . S
C2275 C2269 1.363 . S
C2275 C2270 1.379 . S
C2275 N2273 1.356 . S
N2276 C2268 1.356 . S
N2276 H2282 0.984 . S
N2276 H2283 0.984 . S
N2277 C2270 1.356 . S
N2277 H2280 0.984 . S
N2277 H2281 0.985 . S
H2278 N2273 0.984 . S
H2279 N2273 0.985 . S
H2280 N2277 0.984 . S
H2281 N2277 0.985 . S
H2282 N2276 0.984 . S
H2283 N2276 0.984 . S
H2284 N2272 0.984 . S
H2285 N2272 0.985 . S
C2286 C2287 1.363 . S
C2286 C2292 1.379 . S
C2286 N2294 1.356 . S
C2287 C2286 1.363 . S
C2287 C2293 1.363 . S
C2288 C2289 1.363 . S
C2288 C2293 1.379 . S
C2288 N2295 1.356 . S
C2289 C2288 1.363 . S
C2289 C2292 1.363 . S
N2290 C2292 1.356 . S
N2290 H2302 0.984 . S
N2290 H2303 0.985 . S
N2291 C2293 1.356 . S
N2291 H2296 0.984 . S
N2291 H2297 0.985 . S
C2292 C2286 1.379 . S
C2292 C2289 1.363 . S
C2292 N2290 1.356 . S
C2293 C2287 1.363 . S
C2293 C2288 1.379 . S
C2293 N2291 1.356 . S
N2294 C2286 1.356 . S
N2294 H2300 0.984 . S
N2294 H2301 0.984 . S
N2295 C2288 1.356 . S
N2295 H2298 0.984 . S
N2295 H2299 0.985 . S
H2296 N2291 0.984 . S
H2297 N2291 0.985 . S
H2298 N2295 0.984 . S
H2299 N2295 0.985 . S
H2300 N2294 0.984 . S
H2301 N2294 0.984 . S
H2302 N2290 0.984 . S
H2303 N2290 0.985 . S
C2304 C2305 1.363 . S
C2304 C2310 1.379 . S
C2304 N2312 1.356 . S
C2305 C2304 1.363 . S
C2305 C2311 1.363 . S
C2306 C2307 1.363 . S
C2306 C2311 1.379 . S
C2306 N2313 1.356 . S
C2307 C2306 1.363 . S
C2307 C2310 1.363 . S
N2308 C2310 1.356 . S
N2308 H2320 0.984 . S
N2308 H2321 0.985 . S
N2309 C2311 1.356 . S
N2309 H2314 0.984 . S
N2309 H2315 0.985 . S
C2310 C2304 1.379 . S
C2310 C2307 1.363 . S
C2310 N2308 1.356 . S
C2311 C2305 1.363 . S
C2311 C2306 1.379 . S
C2311 N2309 1.356 . S
N2312 C2304 1.356 . S
N2312 H2318 0.984 . S
N2312 H2319 0.984 . S
N2313 C2306 1.356 . S
N2313 H2316 0.984 . S
N2313 H2317 0.985 . S
H2314 N2309 0.984 . S
H2315 N2309 0.985 . S
H2316 N2313 0.984 . S
H2317 N2313 0.985 . S
H2318 N2312 0.984 . S
H2319 N2312 0.984 . S
H2320 N2308 0.984 . S
H2321 N2308 0.985 . S
C2322 C2323 1.363 . S
C2322 C2328 1.379 . S
C2322 N2330 1.356 . S
C2323 C2322 1.363 . S
C2323 C2329 1.363 . S
C2324 C2325 1.363 . S
C2324 C2329 1.379 . S
C2324 N2331 1.356 . S
C2325 C2324 1.363 . S
C2325 C2328 1.363 . S
N2326 C2328 1.356 . S
N2326 H2338 0.984 . S
N2326 H2339 0.985 . S
N2327 C2329 1.356 . S
N2327 H2332 0.984 . S
N2327 H2333 0.985 . S
C2328 C2322 1.379 . S
C2328 C2325 1.363 . S
C2328 N2326 1.356 . S
C2329 C2323 1.363 . S
C2329 C2324 1.379 . S
C2329 N2327 1.356 . S
N2330 C2322 1.356 . S
N2330 H2336 0.984 . S
N2330 H2337 0.984 . S
N2331 C2324 1.356 . S
N2331 H2334 0.984 . S
N2331 H2335 0.985 . S
H2332 N2327 0.984 . S
H2333 N2327 0.985 . S
H2334 N2331 0.984 . S
H2335 N2331 0.985 . S
H2336 N2330 0.984 . S
H2337 N2330 0.984 . S
H2338 N2326 0.984 . S
H2339 N2326 0.985 . S
C2340 C2341 1.363 . S
C2340 C2346 1.379 . S
C2340 N2348 1.356 . S
C2341 C2340 1.363 . S
C2341 C2347 1.363 . S
C2342 C2343 1.363 . S
C2342 C2347 1.379 . S
C2342 N2349 1.356 . S
C2343 C2342 1.363 . S
C2343 C2346 1.363 . S
N2344 C2346 1.356 . S
N2344 H2356 0.984 . S
N2344 H2357 0.985 . S
N2345 C2347 1.356 . S
N2345 H2350 0.984 . S
N2345 H2351 0.985 . S
C2346 C2340 1.379 . S
C2346 C2343 1.363 . S
C2346 N2344 1.356 . S
C2347 C2341 1.363 . S
C2347 C2342 1.379 . S
C2347 N2345 1.356 . S
N2348 C2340 1.356 . S
N2348 H2354 0.984 . S
N2348 H2355 0.984 . S
N2349 C2342 1.356 . S
N2349 H2352 0.984 . S
N2349 H2353 0.985 . S
H2350 N2345 0.984 . S
H2351 N2345 0.985 . S
H2352 N2349 0.984 . S
H2353 N2349 0.985 . S
H2354 N2348 0.984 . S
H2355 N2348 0.984 . S
H2356 N2344 0.984 . S
H2357 N2344 0.985 . S
C2358 C2359 1.363 . S
C2358 C2364 1.379 . S
C2358 N2366 1.356 . S
C2359 C2358 1.363 . S
C2359 C2365 1.363 1_655 S
C2360 C2361 1.363 1_455 S
C2360 C2365 1.379 . S
C2360 N2367 1.356 . S
C2361 C2360 1.363 1_655 S
C2361 C2364 1.363 . S
N2362 C2364 1.356 . S
N2362 H2374 0.984 . S
N2362 H2375 0.985 . S
N2363 C2365 1.356 . S
N2363 H2368 0.984 . S
N2363 H2369 0.985 . S
C2364 C2358 1.379 . S
C2364 C2361 1.363 . S
C2364 N2362 1.356 . S
C2365 C2359 1.363 1_455 S
C2365 C2360 1.379 . S
C2365 N2363 1.356 . S
N2366 C2358 1.356 . S
N2366 H2372 0.984 . S
N2366 H2373 0.984 . S
N2367 C2360 1.356 . S
N2367 H2370 0.984 . S
N2367 H2371 0.985 . S
H2368 N2363 0.984 . S
H2369 N2363 0.985 . S
H2370 N2367 0.984 . S
H2371 N2367 0.985 . S
H2372 N2366 0.984 . S
H2373 N2366 0.984 . S
H2374 N2362 0.984 . S
H2375 N2362 0.985 . S
C2376 C2377 1.363 . S
C2376 C2382 1.379 . S
C2376 N2384 1.356 . S
C2377 C2376 1.363 . S
C2377 C2383 1.363 . S
C2378 C2379 1.363 . S
C2378 C2383 1.379 . S
C2378 N2385 1.356 . S
C2379 C2378 1.363 . S
C2379 C2382 1.363 . S
N2380 C2382 1.356 . S
N2380 H2392 0.984 . S
N2380 H2393 0.985 . S
N2381 C2383 1.356 . S
N2381 H2386 0.984 . S
N2381 H2387 0.985 . S
C2382 C2376 1.379 . S
C2382 C2379 1.363 . S
C2382 N2380 1.356 . S
C2383 C2377 1.363 . S
C2383 C2378 1.379 . S
C2383 N2381 1.356 . S
N2384 C2376 1.356 . S
N2384 H2390 0.984 . S
N2384 H2391 0.984 . S
N2385 C2378 1.356 . S
N2385 H2388 0.984 . S
N2385 H2389 0.985 . S
H2386 N2381 0.984 . S
H2387 N2381 0.985 . S
H2388 N2385 0.984 . S
H2389 N2385 0.985 . S
H2390 N2384 0.984 . S
H2391 N2384 0.984 . S
H2392 N2380 0.984 . S
H2393 N2380 0.985 . S
C2394 C2395 1.363 1_565 S
C2394 C2400 1.379 . S
C2394 N2402 1.356 . S
C2395 C2394 1.363 1_545 S
C2395 C2401 1.363 . S
C2396 C2397 1.363 . S
C2396 C2401 1.379 . S
C2396 N2403 1.356 . S
C2397 C2396 1.363 . S
C2397 C2400 1.363 1_545 S
N2398 C2400 1.356 . S
N2398 H2410 0.984 . S
N2398 H2411 0.985 . S
N2399 C2401 1.356 . S
N2399 H2404 0.984 . S
N2399 H2405 0.985 . S
C2400 C2394 1.379 . S
C2400 C2397 1.363 1_565 S
C2400 N2398 1.356 . S
C2401 C2395 1.363 . S
C2401 C2396 1.379 . S
C2401 N2399 1.356 . S
N2402 C2394 1.356 . S
N2402 H2408 0.984 . S
N2402 H2409 0.984 . S
N2403 C2396 1.356 . S
N2403 H2406 0.984 . S
N2403 H2407 0.985 . S
H2404 N2399 0.984 . S
H2405 N2399 0.985 . S
H2406 N2403 0.984 . S
H2407 N2403 0.985 . S
H2408 N2402 0.984 . S
H2409 N2402 0.984 . S
H2410 N2398 0.984 . S
H2411 N2398 0.985 . S
C1117 C8 1.461 1_655 S
C1119 C729 1.510 . S
C1135 C22 1.566 . S
C1137 C777 1.568 . S
C1155 C825 1.517 . S
C1153 C37 1.500 1_545 S
C1171 C36 1.466 1_565 S
C1173 C849 1.515 . S
C1189 C9 1.496 1_455 S
C1191 C921 1.516 . S
C1207 C23 1.567 . S
C1209 C969 1.570 . S
C1225 C50 1.494 1_455 S
C1227 C897 1.511 . S
C1245 C945 1.571 . S
C1243 C64 1.569 . S
C1263 C873 1.509 . S
C1261 C79 1.502 1_565 S
C1279 C78 1.492 1_545 S
C1281 C801 1.510 . S
C1299 C705 1.529 . S
C1297 C51 1.506 1_655 S
C1315 C65 1.569 . S
C1317 C753 1.570 . S
C1333 C92 1.595 . S
C1335 C1017 1.597 . S
C1351 C106 1.608 . S
C1353 C1065 1.605 . S
C1371 C1089 1.577 . S
C1369 C121 1.590 . S
C1387 C120 1.562 . S
C1389 C273 1.552 . S
C1405 C93 1.574 . S
C1407 C345 1.576 . S
C1423 C107 1.585 . S
C1425 C393 1.584 . S
C1441 C134 1.559 . S
C1443 C321 1.560 . S
C1459 C148 1.588 . S
C1461 C369 1.586 . S
C1479 C297 1.543 . S
C1477 C163 1.573 . S
C1497 C1113 1.564 . S
C1495 C162 1.596 . S
C1515 C993 1.585 . S
C1513 C135 1.587 . S
C1533 C1041 1.607 . S
C1531 C149 1.610 . S
C1549 C176 1.558 . S
C1551 C441 1.560 . S
C1567 C190 1.584 . S
C1569 C489 1.583 . S
C1585 C205 1.579 . S
C1587 C513 1.569 . S
C1603 C204 1.598 . S
C1605 C561 1.587 . S
C1623 C633 1.585 . S
C1621 C177 1.586 . S
C1641 C681 1.605 . S
C1639 C191 1.608 . S
C1659 C609 1.599 . S
C1657 C218 1.599 . S
C1677 C657 1.608 . S
C1675 C232 1.611 . S
C1693 C247 1.584 . S
C1695 C585 1.550 . S
C1713 C537 1.526 . S
C1711 C246 1.556 . S
C1729 C219 1.577 . S
C1731 C417 1.578 . S
C1749 C465 1.585 . S
C1747 C233 1.587 . S
C1767 C282 1.542 . S
C1765 C6 1.525 . S
C1783 C20 1.500 . S
C1785 C336 1.504 . S
C1803 C384 1.531 . S
C1801 C35 1.533 . S
C1821 C432 1.530 . S
C1819 C34 1.528 . S
C1839 C480 1.529 . S
C1837 C7 1.530 . S
C1857 C522 1.520 . S
C1855 C21 1.499 . S
C1873 C48 1.531 . S
C1875 C528 1.548 . S
C1891 C62 1.501 . S
C1893 C426 1.497 . S
C1909 C77 1.528 . S
C1911 C474 1.513 . S
C1927 C76 1.526 . S
C1929 C330 1.525 . S
C1947 C378 1.517 . S
C1945 C49 1.530 . S
C1963 C63 1.502 . S
C1965 C288 1.515 . S
C1983 C570 1.537 . S
C1981 C90 1.513 . S
C1999 C104 1.535 . S
C2001 C624 1.547 . S
C2017 C119 1.542 . S
C2019 C672 1.551 . S
C2037 C720 1.500 . S
C2035 C118 1.460 . S
C2053 C91 1.518 . S
C2055 C768 1.526 . S
C2071 C105 1.461 . S
C2073 C816 1.500 . S
C2089 C132 1.459 . S
C2091 C810 1.492 . S
C2107 C146 1.464 . S
C2109 C714 1.500 . S
C2127 C762 1.516 . S
C2125 C161 1.516 . S
C2143 C160 1.515 . S
C2145 C618 1.514 . S
C2161 C133 1.538 . S
C2163 C666 1.540 . S
C2181 C576 1.555 . S
C2179 C147 1.536 . S
C2199 C858 1.498 . S
C2197 C174 1.455 . S
C2215 C188 1.460 . S
C2217 C912 1.500 . S
C2233 C203 1.520 . S
C2235 C960 1.528 . S
C2253 C1008 1.524 . S
C2251 C202 1.517 . S
C2271 C1056 1.548 . S
C2269 C175 1.539 . S
C2287 C189 1.533 . S
C2289 C1098 1.561 . S
C2305 C216 1.519 . S
C2307 C1104 1.535 . S
C2323 C230 1.535 . S
C2325 C1002 1.539 . S
C2343 C1050 1.538 . S
C2341 C245 1.536 . S
C2361 C906 1.492 . S
C2359 C244 1.453 . S
C2379 C954 1.520 . S
C2377 C217 1.519 . S
C2395 C231 1.465 . S
C2397 C864 1.504 . S
