# Generated by pormake.
# Topology tbo, (3,4)-cn, num edge types: 1
# Building blocks:
#     Node 0, Type 0, BuildingBlock: OLANEW_clean_sbu_2, # of connection points: 3
#     Node 1, Type 0, BuildingBlock: OLANEW_clean_sbu_2, # of connection points: 3
#     Node 2, Type 0, BuildingBlock: OLANEW_clean_sbu_2, # of connection points: 3
#     Node 3, Type 0, BuildingBlock: OLANEW_clean_sbu_2, # of connection points: 3
#     Node 4, Type 0, BuildingBlock: OLANEW_clean_sbu_2, # of connection points: 3
#     Node 5, Type 0, BuildingBlock: OLANEW_clean_sbu_2, # of connection points: 3
#     Node 6, Type 0, BuildingBlock: OLANEW_clean_sbu_2, # of connection points: 3
#     Node 7, Type 0, BuildingBlock: OLANEW_clean_sbu_2, # of connection points: 3
#     Node 8, Type 0, BuildingBlock: OLANEW_clean_sbu_2, # of connection points: 3
#     Node 9, Type 0, BuildingBlock: OLANEW_clean_sbu_2, # of connection points: 3
#     Node 10, Type 0, BuildingBlock: OLANEW_clean_sbu_2, # of connection points: 3
#     Node 11, Type 0, BuildingBlock: OLANEW_clean_sbu_2, # of connection points: 3
#     Node 12, Type 0, BuildingBlock: OLANEW_clean_sbu_2, # of connection points: 3
#     Node 13, Type 0, BuildingBlock: OLANEW_clean_sbu_2, # of connection points: 3
#     Node 14, Type 0, BuildingBlock: OLANEW_clean_sbu_2, # of connection points: 3
#     Node 15, Type 0, BuildingBlock: OLANEW_clean_sbu_2, # of connection points: 3
#     Node 16, Type 0, BuildingBlock: OLANEW_clean_sbu_2, # of connection points: 3
#     Node 17, Type 0, BuildingBlock: OLANEW_clean_sbu_2, # of connection points: 3
#     Node 18, Type 0, BuildingBlock: OLANEW_clean_sbu_2, # of connection points: 3
#     Node 19, Type 0, BuildingBlock: OLANEW_clean_sbu_2, # of connection points: 3
#     Node 20, Type 0, BuildingBlock: OLANEW_clean_sbu_2, # of connection points: 3
#     Node 21, Type 0, BuildingBlock: OLANEW_clean_sbu_2, # of connection points: 3
#     Node 22, Type 0, BuildingBlock: OLANEW_clean_sbu_2, # of connection points: 3
#     Node 23, Type 0, BuildingBlock: OLANEW_clean_sbu_2, # of connection points: 3
#     Node 24, Type 0, BuildingBlock: OLANEW_clean_sbu_2, # of connection points: 3
#     Node 25, Type 0, BuildingBlock: OLANEW_clean_sbu_2, # of connection points: 3
#     Node 26, Type 0, BuildingBlock: OLANEW_clean_sbu_2, # of connection points: 3
#     Node 27, Type 0, BuildingBlock: OLANEW_clean_sbu_2, # of connection points: 3
#     Node 28, Type 0, BuildingBlock: OLANEW_clean_sbu_2, # of connection points: 3
#     Node 29, Type 0, BuildingBlock: OLANEW_clean_sbu_2, # of connection points: 3
#     Node 30, Type 0, BuildingBlock: OLANEW_clean_sbu_2, # of connection points: 3
#     Node 31, Type 0, BuildingBlock: OLANEW_clean_sbu_2, # of connection points: 3
#     Node 32, Type 1, BuildingBlock: AZAVOO_clean_linker_0, # of connection points: 4
#     Node 33, Type 1, BuildingBlock: AZAVOO_clean_linker_0, # of connection points: 4
#     Node 34, Type 1, BuildingBlock: AZAVOO_clean_linker_0, # of connection points: 4
#     Node 35, Type 1, BuildingBlock: AZAVOO_clean_linker_0, # of connection points: 4
#     Node 36, Type 1, BuildingBlock: AZAVOO_clean_linker_0, # of connection points: 4
#     Node 37, Type 1, BuildingBlock: AZAVOO_clean_linker_0, # of connection points: 4
#     Node 38, Type 1, BuildingBlock: AZAVOO_clean_linker_0, # of connection points: 4
#     Node 39, Type 1, BuildingBlock: AZAVOO_clean_linker_0, # of connection points: 4
#     Node 40, Type 1, BuildingBlock: AZAVOO_clean_linker_0, # of connection points: 4
#     Node 41, Type 1, BuildingBlock: AZAVOO_clean_linker_0, # of connection points: 4
#     Node 42, Type 1, BuildingBlock: AZAVOO_clean_linker_0, # of connection points: 4
#     Node 43, Type 1, BuildingBlock: AZAVOO_clean_linker_0, # of connection points: 4
#     Node 44, Type 1, BuildingBlock: AZAVOO_clean_linker_0, # of connection points: 4
#     Node 45, Type 1, BuildingBlock: AZAVOO_clean_linker_0, # of connection points: 4
#     Node 46, Type 1, BuildingBlock: AZAVOO_clean_linker_0, # of connection points: 4
#     Node 47, Type 1, BuildingBlock: AZAVOO_clean_linker_0, # of connection points: 4
#     Node 48, Type 1, BuildingBlock: AZAVOO_clean_linker_0, # of connection points: 4
#     Node 49, Type 1, BuildingBlock: AZAVOO_clean_linker_0, # of connection points: 4
#     Node 50, Type 1, BuildingBlock: AZAVOO_clean_linker_0, # of connection points: 4
#     Node 51, Type 1, BuildingBlock: AZAVOO_clean_linker_0, # of connection points: 4
#     Node 52, Type 1, BuildingBlock: AZAVOO_clean_linker_0, # of connection points: 4
#     Node 53, Type 1, BuildingBlock: AZAVOO_clean_linker_0, # of connection points: 4
#     Node 54, Type 1, BuildingBlock: AZAVOO_clean_linker_0, # of connection points: 4
#     Node 55, Type 1, BuildingBlock: AZAVOO_clean_linker_0, # of connection points: 4
#     Edge 56, Type (0, 1), BuildingBlock: AJUNOK_clean_linker_0, # of connection points: 2
#     Edge 57, Type (0, 1), BuildingBlock: AJUNOK_clean_linker_0, # of connection points: 2
#     Edge 58, Type (0, 1), BuildingBlock: AJUNOK_clean_linker_0, # of connection points: 2
#     Edge 59, Type (0, 1), BuildingBlock: AJUNOK_clean_linker_0, # of connection points: 2
#     Edge 60, Type (0, 1), BuildingBlock: AJUNOK_clean_linker_0, # of connection points: 2
#     Edge 61, Type (0, 1), BuildingBlock: AJUNOK_clean_linker_0, # of connection points: 2
#     Edge 62, Type (0, 1), BuildingBlock: AJUNOK_clean_linker_0, # of connection points: 2
#     Edge 63, Type (0, 1), BuildingBlock: AJUNOK_clean_linker_0, # of connection points: 2
#     Edge 64, Type (0, 1), BuildingBlock: AJUNOK_clean_linker_0, # of connection points: 2
#     Edge 65, Type (0, 1), BuildingBlock: AJUNOK_clean_linker_0, # of connection points: 2
#     Edge 66, Type (0, 1), BuildingBlock: AJUNOK_clean_linker_0, # of connection points: 2
#     Edge 67, Type (0, 1), BuildingBlock: AJUNOK_clean_linker_0, # of connection points: 2
#     Edge 68, Type (0, 1), BuildingBlock: AJUNOK_clean_linker_0, # of connection points: 2
#     Edge 69, Type (0, 1), BuildingBlock: AJUNOK_clean_linker_0, # of connection points: 2
#     Edge 70, Type (0, 1), BuildingBlock: AJUNOK_clean_linker_0, # of connection points: 2
#     Edge 71, Type (0, 1), BuildingBlock: AJUNOK_clean_linker_0, # of connection points: 2
#     Edge 72, Type (0, 1), BuildingBlock: AJUNOK_clean_linker_0, # of connection points: 2
#     Edge 73, Type (0, 1), BuildingBlock: AJUNOK_clean_linker_0, # of connection points: 2
#     Edge 74, Type (0, 1), BuildingBlock: AJUNOK_clean_linker_0, # of connection points: 2
#     Edge 75, Type (0, 1), BuildingBlock: AJUNOK_clean_linker_0, # of connection points: 2
#     Edge 76, Type (0, 1), BuildingBlock: AJUNOK_clean_linker_0, # of connection points: 2
#     Edge 77, Type (0, 1), BuildingBlock: AJUNOK_clean_linker_0, # of connection points: 2
#     Edge 78, Type (0, 1), BuildingBlock: AJUNOK_clean_linker_0, # of connection points: 2
#     Edge 79, Type (0, 1), BuildingBlock: AJUNOK_clean_linker_0, # of connection points: 2
#     Edge 80, Type (0, 1), BuildingBlock: AJUNOK_clean_linker_0, # of connection points: 2
#     Edge 81, Type (0, 1), BuildingBlock: AJUNOK_clean_linker_0, # of connection points: 2
#     Edge 82, Type (0, 1), BuildingBlock: AJUNOK_clean_linker_0, # of connection points: 2
#     Edge 83, Type (0, 1), BuildingBlock: AJUNOK_clean_linker_0, # of connection points: 2
#     Edge 84, Type (0, 1), BuildingBlock: AJUNOK_clean_linker_0, # of connection points: 2
#     Edge 85, Type (0, 1), BuildingBlock: AJUNOK_clean_linker_0, # of connection points: 2
#     Edge 86, Type (0, 1), BuildingBlock: AJUNOK_clean_linker_0, # of connection points: 2
#     Edge 87, Type (0, 1), BuildingBlock: AJUNOK_clean_linker_0, # of connection points: 2
#     Edge 88, Type (0, 1), BuildingBlock: AJUNOK_clean_linker_0, # of connection points: 2
#     Edge 89, Type (0, 1), BuildingBlock: AJUNOK_clean_linker_0, # of connection points: 2
#     Edge 90, Type (0, 1), BuildingBlock: AJUNOK_clean_linker_0, # of connection points: 2
#     Edge 91, Type (0, 1), BuildingBlock: AJUNOK_clean_linker_0, # of connection points: 2
#     Edge 92, Type (0, 1), BuildingBlock: AJUNOK_clean_linker_0, # of connection points: 2
#     Edge 93, Type (0, 1), BuildingBlock: AJUNOK_clean_linker_0, # of connection points: 2
#     Edge 94, Type (0, 1), BuildingBlock: AJUNOK_clean_linker_0, # of connection points: 2
#     Edge 95, Type (0, 1), BuildingBlock: AJUNOK_clean_linker_0, # of connection points: 2
#     Edge 96, Type (0, 1), BuildingBlock: AJUNOK_clean_linker_0, # of connection points: 2
#     Edge 97, Type (0, 1), BuildingBlock: AJUNOK_clean_linker_0, # of connection points: 2
#     Edge 98, Type (0, 1), BuildingBlock: AJUNOK_clean_linker_0, # of connection points: 2
#     Edge 99, Type (0, 1), BuildingBlock: AJUNOK_clean_linker_0, # of connection points: 2
#     Edge 100, Type (0, 1), BuildingBlock: AJUNOK_clean_linker_0, # of connection points: 2
#     Edge 101, Type (0, 1), BuildingBlock: AJUNOK_clean_linker_0, # of connection points: 2
#     Edge 102, Type (0, 1), BuildingBlock: AJUNOK_clean_linker_0, # of connection points: 2
#     Edge 103, Type (0, 1), BuildingBlock: AJUNOK_clean_linker_0, # of connection points: 2
#     Edge 104, Type (0, 1), BuildingBlock: AJUNOK_clean_linker_0, # of connection points: 2
#     Edge 105, Type (0, 1), BuildingBlock: AJUNOK_clean_linker_0, # of connection points: 2
#     Edge 106, Type (0, 1), BuildingBlock: AJUNOK_clean_linker_0, # of connection points: 2
#     Edge 107, Type (0, 1), BuildingBlock: AJUNOK_clean_linker_0, # of connection points: 2
#     Edge 108, Type (0, 1), BuildingBlock: AJUNOK_clean_linker_0, # of connection points: 2
#     Edge 109, Type (0, 1), BuildingBlock: AJUNOK_clean_linker_0, # of connection points: 2
#     Edge 110, Type (0, 1), BuildingBlock: AJUNOK_clean_linker_0, # of connection points: 2
#     Edge 111, Type (0, 1), BuildingBlock: AJUNOK_clean_linker_0, # of connection points: 2
#     Edge 112, Type (0, 1), BuildingBlock: AJUNOK_clean_linker_0, # of connection points: 2
#     Edge 113, Type (0, 1), BuildingBlock: AJUNOK_clean_linker_0, # of connection points: 2
#     Edge 114, Type (0, 1), BuildingBlock: AJUNOK_clean_linker_0, # of connection points: 2
#     Edge 115, Type (0, 1), BuildingBlock: AJUNOK_clean_linker_0, # of connection points: 2
#     Edge 116, Type (0, 1), BuildingBlock: AJUNOK_clean_linker_0, # of connection points: 2
#     Edge 117, Type (0, 1), BuildingBlock: AJUNOK_clean_linker_0, # of connection points: 2
#     Edge 118, Type (0, 1), BuildingBlock: AJUNOK_clean_linker_0, # of connection points: 2
#     Edge 119, Type (0, 1), BuildingBlock: AJUNOK_clean_linker_0, # of connection points: 2
#     Edge 120, Type (0, 1), BuildingBlock: AJUNOK_clean_linker_0, # of connection points: 2
#     Edge 121, Type (0, 1), BuildingBlock: AJUNOK_clean_linker_0, # of connection points: 2
#     Edge 122, Type (0, 1), BuildingBlock: AJUNOK_clean_linker_0, # of connection points: 2
#     Edge 123, Type (0, 1), BuildingBlock: AJUNOK_clean_linker_0, # of connection points: 2
#     Edge 124, Type (0, 1), BuildingBlock: AJUNOK_clean_linker_0, # of connection points: 2
#     Edge 125, Type (0, 1), BuildingBlock: AJUNOK_clean_linker_0, # of connection points: 2
#     Edge 126, Type (0, 1), BuildingBlock: AJUNOK_clean_linker_0, # of connection points: 2
#     Edge 127, Type (0, 1), BuildingBlock: AJUNOK_clean_linker_0, # of connection points: 2
#     Edge 128, Type (0, 1), BuildingBlock: AJUNOK_clean_linker_0, # of connection points: 2
#     Edge 129, Type (0, 1), BuildingBlock: AJUNOK_clean_linker_0, # of connection points: 2
#     Edge 130, Type (0, 1), BuildingBlock: AJUNOK_clean_linker_0, # of connection points: 2
#     Edge 131, Type (0, 1), BuildingBlock: AJUNOK_clean_linker_0, # of connection points: 2
#     Edge 132, Type (0, 1), BuildingBlock: AJUNOK_clean_linker_0, # of connection points: 2
#     Edge 133, Type (0, 1), BuildingBlock: AJUNOK_clean_linker_0, # of connection points: 2
#     Edge 134, Type (0, 1), BuildingBlock: AJUNOK_clean_linker_0, # of connection points: 2
#     Edge 135, Type (0, 1), BuildingBlock: AJUNOK_clean_linker_0, # of connection points: 2
#     Edge 136, Type (0, 1), BuildingBlock: AJUNOK_clean_linker_0, # of connection points: 2
#     Edge 137, Type (0, 1), BuildingBlock: AJUNOK_clean_linker_0, # of connection points: 2
#     Edge 138, Type (0, 1), BuildingBlock: AJUNOK_clean_linker_0, # of connection points: 2
#     Edge 139, Type (0, 1), BuildingBlock: AJUNOK_clean_linker_0, # of connection points: 2
#     Edge 140, Type (0, 1), BuildingBlock: AJUNOK_clean_linker_0, # of connection points: 2
#     Edge 141, Type (0, 1), BuildingBlock: AJUNOK_clean_linker_0, # of connection points: 2
#     Edge 142, Type (0, 1), BuildingBlock: AJUNOK_clean_linker_0, # of connection points: 2
#     Edge 143, Type (0, 1), BuildingBlock: AJUNOK_clean_linker_0, # of connection points: 2
#     Edge 144, Type (0, 1), BuildingBlock: AJUNOK_clean_linker_0, # of connection points: 2
#     Edge 145, Type (0, 1), BuildingBlock: AJUNOK_clean_linker_0, # of connection points: 2
#     Edge 146, Type (0, 1), BuildingBlock: AJUNOK_clean_linker_0, # of connection points: 2
#     Edge 147, Type (0, 1), BuildingBlock: AJUNOK_clean_linker_0, # of connection points: 2
#     Edge 148, Type (0, 1), BuildingBlock: AJUNOK_clean_linker_0, # of connection points: 2
#     Edge 149, Type (0, 1), BuildingBlock: AJUNOK_clean_linker_0, # of connection points: 2
#     Edge 150, Type (0, 1), BuildingBlock: AJUNOK_clean_linker_0, # of connection points: 2
#     Edge 151, Type (0, 1), BuildingBlock: AJUNOK_clean_linker_0, # of connection points: 2
# Relax obj value: 0.083
# Max RMSD: 0.238
# Mean RMSD: 0.149
data_MOF--net-tbo--node1-OLANEW_clean_sbu_2--node2-AZAVOO_clean_linker_0--edge1-AJUNOK_clean_linker_0
_symmetry_space_group_name_H-M    P1
_symmetry_Int_Tables_number       1
_symmetry_cell_setting            triclinic
loop_
_symmetry_equiv_pos_as_xyz
'x, y, z'
_cell_length_a     67.927208
_cell_length_b     69.331145
_cell_length_c     67.02632
_cell_angle_alpha  96.710209
_cell_angle_beta   86.871522
_cell_angle_gamma 96.209897
loop_
_atom_site_label
_atom_site_type_symbol
_atom_site_fract_x
_atom_site_fract_y
_atom_site_fract_z
_atom_type_partial_charge
O0 O 0.22736 0.18486 0.22052 0.0
Cd1 Cd 0.21032 0.17721 0.25227 0.0
O2 O 0.22038 0.21527 0.22664 0.0
Cd3 Cd 0.19985 0.21158 0.25234 0.0
O4 O 0.17149 0.21988 0.26541 0.0
C5 C 0.15559 0.21158 0.25778 0.0
O6 O 0.15674 0.19715 0.24334 0.0
C7 C 0.22896 0.20219 0.21568 0.0
C8 C 0.2218 0.1441 0.26677 0.0
O9 O 0.20682 0.14297 0.25569 0.0
O10 O 0.23154 0.16088 0.27075 0.0
O11 O 0.89743 0.20391 0.18035 0.0
Cd12 Cd 0.8801 0.1801 0.15584 0.0
O13 O 0.92553 0.19058 0.17567 0.0
Cd14 Cd 0.91154 0.16518 0.15763 0.0
O15 O 0.89102 0.14044 0.16493 0.0
C16 C 0.88266 0.14372 0.18224 0.0
O17 O 0.8868 0.1609 0.19249 0.0
C18 C 0.91559 0.20404 0.18412 0.0
C19 C 0.85978 0.19888 0.13015 0.0
O20 O 0.85125 0.19295 0.14618 0.0
O21 O 0.87791 0.19574 0.12625 0.0
O22 O 0.8837 0.8452 0.16822 0.0
Cd23 Cd 0.89949 0.86299 0.19783 0.0
O24 O 0.88604 0.87052 0.15109 0.0
Cd25 Cd 0.89572 0.89006 0.1773 0.0
O26 O 0.88607 0.90911 0.20331 0.0
C27 C 0.87027 0.90306 0.21272 0.0
O28 O 0.86179 0.88547 0.20708 0.0
C29 C 0.881 0.85247 0.15213 0.0
C30 C 0.9312 0.84483 0.20908 0.0
O31 O 0.91334 0.83966 0.21496 0.0
O32 O 0.93411 0.85862 0.19774 0.0
O33 O 0.18495 0.94577 0.14997 0.0
Cd34 Cd 0.17422 0.93437 0.11617 0.0
O35 O 0.17326 0.91658 0.15699 0.0
Cd36 Cd 0.16751 0.89185 0.17465 0.0
O37 O 0.15262 0.86964 0.19232 0.0
C38 C 0.13509 0.87205 0.199 0.0
O39 O 0.12717 0.88757 0.19502 0.0
C40 C 0.18204 0.93334 0.1626 0.0
C41 C 0.19897 0.90641 0.10035 0.0
O42 O 0.2026 0.9242 0.09666 0.0
O43 O 0.18323 0.90174 0.11087 0.0
O44 O 0.24434 0.91894 0.87479 0.0
Cd45 Cd 0.22635 0.89123 0.88972 0.0
O46 O 0.21916 0.93659 0.87934 0.0
Cd47 Cd 0.1984 0.91309 0.8893 0.0
O48 O 0.17172 0.89371 0.88189 0.0
C49 C 0.15598 0.90174 0.88046 0.0
O50 O 0.15641 0.92073 0.88509 0.0
C51 C 0.23701 0.93482 0.87335 0.0
C52 C 0.24473 0.88012 0.92227 0.0
O53 O 0.24944 0.87362 0.90414 0.0
O54 O 0.23153 0.89217 0.92499 0.0
O55 O 0.19506 0.15428 0.92483 0.0
Cd56 Cd 0.17459 0.13343 0.9004 0.0
O57 O 0.16976 0.16393 0.94379 0.0
Cd58 Cd 0.14773 0.15212 0.92197 0.0
O59 O 0.12481 0.15913 0.90325 0.0
C60 C 0.1214 0.17693 0.90595 0.0
O61 O 0.13154 0.18879 0.91933 0.0
C62 C 0.18837 0.16375 0.94069 0.0
C63 C 0.19852 0.11055 0.8744 0.0
O64 O 0.19433 0.12715 0.87016 0.0
O65 O 0.19112 0.10461 0.89087 0.0
O66 O 0.801 0.22052 0.85014 0.0
Cd67 Cd 0.80779 0.2028 0.8172 0.0
O68 O 0.8152 0.19987 0.8658 0.0
Cd69 Cd 0.81413 0.17675 0.84093 0.0
O70 O 0.80623 0.1477 0.82573 0.0
C71 C 0.78874 0.14005 0.82932 0.0
O72 O 0.77662 0.15033 0.84103 0.0
C73 C 0.80761 0.21588 0.86613 0.0
C74 C 0.84856 0.20956 0.8091 0.0
O75 O 0.83668 0.22114 0.8041 0.0
O76 O 0.84104 0.19443 0.81715 0.0
O77 O 0.8704 0.89352 0.85707 0.0
Cd78 Cd 0.84413 0.9081 0.87834 0.0
O79 O 0.86616 0.8657 0.87043 0.0
Cd80 Cd 0.84399 0.87236 0.89442 0.0
O81 O 0.82976 0.86283 0.92226 0.0
C82 C 0.84106 0.85839 0.93516 0.0
O83 O 0.86032 0.86098 0.9316 0.0
C84 C 0.87487 0.87624 0.85764 0.0
C85 C 0.82117 0.92949 0.85721 0.0
O86 O 0.83685 0.93761 0.86577 0.0
O87 O 0.81644 0.91127 0.8586 0.0
O88 O 0.17214 0.6711 0.66232 0.0
Cd89 Cd 0.14755 0.65752 0.68651 0.0
O90 O 0.15233 0.69182 0.65417 0.0
Cd91 Cd 0.12857 0.68777 0.67712 0.0
O92 O 0.10573 0.70106 0.69682 0.0
C93 C 0.09391 0.71067 0.68887 0.0
O94 O 0.09526 0.71103 0.66928 0.0
C95 C 0.1686 0.68416 0.65152 0.0
C96 C 0.16183 0.63046 0.70862 0.0
O97 O 0.15483 0.62514 0.69124 0.0
O98 O 0.16231 0.64857 0.71538 0.0
O99 O 0.87729 0.74843 0.70506 0.0
Cd100 Cd 0.84785 0.72839 0.69218 0.0
O101 O 0.89869 0.73042 0.6882 0.0
Cd102 Cd 0.87612 0.70677 0.67894 0.0
O103 O 0.86258 0.67765 0.684 0.0
C104 C 0.84954 0.67608 0.69819 0.0
O105 O 0.8436 0.69204 0.70812 0.0
C106 C 0.89513 0.74549 0.7 0.0
C107 C 0.83509 0.74023 0.65704 0.0
O108 O 0.82938 0.74802 0.67438 0.0
O109 O 0.84689 0.72691 0.65637 0.0
O110 O 0.85592 0.31983 0.69272 0.0
Cd111 Cd 0.87219 0.33865 0.72162 0.0
O112 O 0.86746 0.34165 0.67257 0.0
Cd113 Cd 0.87662 0.36351 0.69734 0.0
O114 O 0.86978 0.38965 0.71686 0.0
C115 C 0.86574 0.40376 0.70781 0.0
O116 O 0.867 0.40183 0.68807 0.0
C117 C 0.85794 0.32524 0.67517 0.0
C118 C 0.90251 0.32034 0.7358 0.0
O119 O 0.88488 0.31853 0.7437 0.0
O120 O 0.90577 0.3307 0.72111 0.0
O121 O 0.1667 0.39956 0.71045 0.0
Cd122 Cd 0.15352 0.36741 0.69526 0.0
O123 O 0.18625 0.3872 0.72963 0.0
Cd124 Cd 0.17174 0.35793 0.72262 0.0
O125 O 0.14497 0.33857 0.72728 0.0
C126 C 0.12966 0.34715 0.73287 0.0
O127 O 0.13119 0.36632 0.73447 0.0
C128 C 0.18021 0.40197 0.7232 0.0
C129 C 0.17865 0.35464 0.66342 0.0
O130 O 0.16335 0.36308 0.66042 0.0
O131 O 0.18191 0.35199 0.68149 0.0
O132 O 0.16454 0.42374 0.36939 0.0
Cd133 Cd 0.14159 0.40582 0.3915 0.0
O134 O 0.15655 0.4534 0.37925 0.0
Cd135 Cd 0.13107 0.44124 0.39659 0.0
O136 O 0.10374 0.42252 0.39049 0.0
C137 C 0.10096 0.41969 0.37174 0.0
O138 O 0.11375 0.42866 0.35961 0.0
C139 C 0.16743 0.44205 0.36852 0.0
C140 C 0.1639 0.38577 0.41424 0.0
O141 O 0.15804 0.40225 0.42136 0.0
O142 O 0.15872 0.37853 0.3966 0.0
O143 O 0.27516 0.71269 0.35144 0.0
Cd144 Cd 0.27743 0.71146 0.3148 0.0
O145 O 0.24683 0.72433 0.34962 0.0
Cd146 Cd 0.2195 0.73774 0.35809 0.0
O147 O 0.19157 0.74789 0.35134 0.0
C148 C 0.1912 0.75574 0.33515 0.0
O149 O 0.20766 0.75795 0.32405 0.0
C150 C 0.25969 0.71891 0.36029 0.0
C151 C 0.27583 0.67303 0.29683 0.0
O152 O 0.29246 0.68314 0.30038 0.0
O153 O 0.25994 0.68122 0.3016 0.0
O154 O 0.87763 0.64362 0.38493 0.0
Cd155 Cd 0.8951 0.61997 0.36299 0.0
O156 O 0.88655 0.63463 0.41319 0.0
Cd157 Cd 0.89274 0.6069 0.3965 0.0
O158 O 0.87705 0.58699 0.3737 0.0
C159 C 0.86238 0.57536 0.37874 0.0
O160 O 0.85851 0.57354 0.39789 0.0
C161 C 0.87857 0.6466 0.40395 0.0
C162 C 0.92741 0.64135 0.34617 0.0
O163 O 0.91124 0.63717 0.33685 0.0
O164 O 0.92853 0.63459 0.36302 0.0
O165 O 0.88597 0.38875 0.37141 0.0
Cd166 Cd 0.86263 0.40612 0.39416 0.0
O167 O 0.8809 0.36217 0.38682 0.0
Cd168 Cd 0.86122 0.37224 0.41183 0.0
O169 O 0.84755 0.36459 0.44055 0.0
C170 C 0.85882 0.35892 0.45277 0.0
O171 O 0.87786 0.35932 0.44796 0.0
C172 C 0.88933 0.37126 0.37274 0.0
C173 C 0.83892 0.42722 0.37363 0.0
O174 O 0.85558 0.43501 0.38034 0.0
O175 O 0.83352 0.40946 0.37663 0.0
O176 O 0.6926 0.19431 0.69451 0.0
Cd177 Cd 0.67124 0.18195 0.72179 0.0
O178 O 0.66809 0.20397 0.67923 0.0
Cd179 Cd 0.64441 0.20055 0.70233 0.0
O180 O 0.6182 0.21256 0.71729 0.0
C181 C 0.60586 0.21835 0.70627 0.0
O182 O 0.6089 0.21578 0.68665 0.0
C183 C 0.68634 0.20147 0.67972 0.0
C184 C 0.68217 0.14619 0.73079 0.0
O185 O 0.6698 0.14697 0.71721 0.0
O186 O 0.68933 0.16235 0.74023 0.0
O187 O 0.38726 0.234 0.66351 0.0
Cd188 Cd 0.36468 0.21181 0.64206 0.0
O189 O 0.41117 0.21478 0.65878 0.0
Cd190 Cd 0.39228 0.19008 0.64472 0.0
O191 O 0.37734 0.16265 0.65336 0.0
C192 C 0.37593 0.16239 0.67231 0.0
O193 O 0.38273 0.17813 0.68376 0.0
C194 C 0.40493 0.2308 0.66635 0.0
C195 C 0.34421 0.23155 0.61702 0.0
O196 O 0.33718 0.22835 0.63461 0.0
O197 O 0.36099 0.22545 0.61133 0.0
O198 O 0.37741 0.8157 0.6649 0.0
Cd199 Cd 0.39814 0.83914 0.68727 0.0
O200 O 0.34951 0.82387 0.68004 0.0
Cd201 Cd 0.36299 0.8468 0.70167 0.0
O202 O 0.36312 0.87622 0.71739 0.0
C203 C 0.34732 0.88036 0.72724 0.0
O204 O 0.33266 0.86647 0.72844 0.0
C205 C 0.35855 0.81361 0.66625 0.0
C206 C 0.42744 0.82365 0.70649 0.0
O207 O 0.41044 0.82595 0.71519 0.0
O208 O 0.43043 0.82822 0.68851 0.0
O209 O 0.66253 0.90765 0.60644 0.0
Cd210 Cd 0.655 0.88999 0.57377 0.0
O211 O 0.65447 0.87914 0.61722 0.0
Cd212 Cd 0.64768 0.86028 0.64101 0.0
O213 O 0.6349 0.84358 0.66488 0.0
C214 C 0.62587 0.85238 0.67975 0.0
O215 O 0.62523 0.87131 0.68042 0.0
C216 C 0.66071 0.8971 0.62081 0.0
C217 C 0.68533 0.86666 0.56165 0.0
O218 O 0.68532 0.88355 0.55567 0.0
O219 O 0.67083 0.86067 0.57316 0.0
O220 O 0.71132 0.91815 0.38708 0.0
Cd221 Cd 0.69194 0.89733 0.40958 0.0
O222 O 0.68501 0.93038 0.37822 0.0
Cd223 Cd 0.66349 0.90977 0.39212 0.0
O224 O 0.63783 0.8884 0.38635 0.0
C225 C 0.63527 0.88364 0.36772 0.0
O226 O 0.64806 0.89143 0.35475 0.0
C227 C 0.70371 0.93004 0.37744 0.0
C228 C 0.7156 0.87399 0.42707 0.0
O229 O 0.7064 0.86752 0.41106 0.0
O230 O 0.71356 0.89148 0.43483 0.0
O231 O 0.67456 0.16802 0.4003 0.0
Cd232 Cd 0.65588 0.15108 0.37222 0.0
O233 O 0.68636 0.19307 0.38438 0.0
Cd234 Cd 0.6674 0.18623 0.35874 0.0
O235 O 0.64707 0.19743 0.33981 0.0
C236 C 0.64931 0.21579 0.3391 0.0
O237 O 0.66381 0.22614 0.34891 0.0
C238 C 0.6857 0.18394 0.39982 0.0
C239 C 0.67762 0.12215 0.35224 0.0
O240 O 0.67865 0.13919 0.34637 0.0
O241 O 0.66607 0.1187 0.36746 0.0
O242 O 0.35507 0.18919 0.43261 0.0
Cd243 Cd 0.36795 0.16295 0.40985 0.0
O244 O 0.35119 0.17398 0.45972 0.0
Cd245 Cd 0.35768 0.14675 0.44212 0.0
O246 O 0.34961 0.12039 0.42192 0.0
C247 C 0.33111 0.11627 0.41973 0.0
O248 O 0.31891 0.12774 0.42975 0.0
C249 C 0.35034 0.18932 0.45123 0.0
C250 C 0.39597 0.17988 0.38344 0.0
O251 O 0.3775 0.1776 0.37973 0.0
O252 O 0.40123 0.17373 0.39944 0.0
O253 O 0.40504 0.88493 0.39546 0.0
Cd254 Cd 0.37821 0.89709 0.41787 0.0
O255 O 0.42328 0.88004 0.42018 0.0
Cd256 Cd 0.39978 0.88413 0.44335 0.0
O257 O 0.37733 0.87157 0.46407 0.0
C258 C 0.38285 0.86346 0.47859 0.0
O259 O 0.40191 0.86421 0.48149 0.0
C260 C 0.42109 0.8801 0.40147 0.0
C261 C 0.35462 0.91987 0.39918 0.0
O262 O 0.37003 0.92761 0.40846 0.0
O263 O 0.35043 0.90135 0.3987 0.0
O264 O 0.7335 0.70563 0.21082 0.0
Cd265 Cd 0.7157 0.6948 0.24105 0.0
O266 O 0.72694 0.73623 0.2173 0.0
Cd267 Cd 0.70644 0.73263 0.24322 0.0
O268 O 0.67905 0.73966 0.26 0.0
C269 C 0.66265 0.73138 0.25351 0.0
O270 O 0.66294 0.7182 0.23776 0.0
C271 C 0.73535 0.72306 0.20623 0.0
C272 C 0.72562 0.65855 0.2499 0.0
O273 O 0.71204 0.65972 0.23767 0.0
O274 O 0.73465 0.67454 0.25788 0.0
O275 O 0.39203 0.68041 0.18102 0.0
Cd276 Cd 0.37076 0.66006 0.15696 0.0
O277 O 0.41964 0.67208 0.1654 0.0
Cd278 Cd 0.4032 0.64702 0.14894 0.0
O279 O 0.38417 0.62077 0.155 0.0
C280 C 0.38211 0.61896 0.17366 0.0
O281 O 0.39139 0.63239 0.1863 0.0
C282 C 0.41084 0.68268 0.17912 0.0
C283 C 0.3576 0.68408 0.13099 0.0
O284 O 0.34706 0.67962 0.14656 0.0
O285 O 0.37418 0.67684 0.12751 0.0
O286 O 0.41677 0.35782 0.12421 0.0
Cd287 Cd 0.43789 0.37987 0.14731 0.0
O288 O 0.40824 0.38135 0.10826 0.0
Cd289 Cd 0.41914 0.40405 0.1314 0.0
O290 O 0.40518 0.42229 0.15562 0.0
C291 C 0.39538 0.43546 0.15067 0.0
O292 O 0.39593 0.43867 0.13169 0.0
C293 C 0.4078 0.36326 0.10999 0.0
C294 C 0.45543 0.35972 0.17425 0.0
O295 O 0.46359 0.3621 0.1569 0.0
O296 O 0.43899 0.36696 0.17889 0.0
O297 O 0.65591 0.43731 0.13211 0.0
Cd298 Cd 0.6492 0.42663 0.09697 0.0
O299 O 0.64527 0.40851 0.14124 0.0
Cd300 Cd 0.63772 0.38743 0.16308 0.0
O301 O 0.62521 0.36593 0.18293 0.0
C302 C 0.61462 0.37138 0.19834 0.0
O303 O 0.61196 0.38997 0.20214 0.0
C304 C 0.65288 0.42595 0.14577 0.0
C305 C 0.67493 0.39933 0.08167 0.0
O306 O 0.68038 0.41767 0.08257 0.0
O307 O 0.65723 0.39386 0.08782 0.0
O308 O 0.71444 0.41791 0.87912 0.0
Cd309 Cd 0.69102 0.39381 0.89423 0.0
O310 O 0.69158 0.43774 0.87744 0.0
Cd311 Cd 0.66713 0.41816 0.88831 0.0
O312 O 0.63856 0.4014 0.88273 0.0
C313 C 0.62461 0.41086 0.8785 0.0
O314 O 0.62792 0.42994 0.87915 0.0
C315 C 0.70946 0.4339 0.87443 0.0
C316 C 0.70858 0.37352 0.9209 0.0
O317 O 0.70897 0.36798 0.90197 0.0
O318 O 0.7 0.38879 0.92722 0.0
O319 O 0.66834 0.63149 0.94498 0.0
Cd320 Cd 0.65102 0.6082 0.92006 0.0
O321 O 0.67046 0.65547 0.92597 0.0
Cd322 Cd 0.65094 0.6417 0.90252 0.0
O323 O 0.6314 0.65158 0.88189 0.0
C324 C 0.63227 0.67007 0.88291 0.0
O325 O 0.64441 0.68054 0.89555 0.0
C326 C 0.67458 0.64891 0.942 0.0
C327 C 0.67889 0.5905 0.89395 0.0
O328 O 0.6711 0.60541 0.88956 0.0
O329 O 0.6732 0.58372 0.91054 0.0
O330 O 0.33216 0.78325 0.85462 0.0
Cd331 Cd 0.33292 0.76786 0.8197 0.0
O332 O 0.34188 0.75749 0.86608 0.0
Cd333 Cd 0.33352 0.73666 0.84066 0.0
O334 O 0.32143 0.70671 0.83283 0.0
C335 C 0.31767 0.69705 0.84781 0.0
O336 O 0.32143 0.70581 0.86587 0.0
C337 C 0.33821 0.77519 0.86892 0.0
C338 C 0.37187 0.76067 0.80805 0.0
O339 O 0.36567 0.77715 0.80619 0.0
O340 O 0.35947 0.74746 0.81466 0.0
O341 O 0.33921 0.36528 0.84241 0.0
Cd342 Cd 0.30918 0.37402 0.86188 0.0
O343 O 0.34989 0.35124 0.86704 0.0
Cd344 Cd 0.32522 0.35236 0.88931 0.0
O345 O 0.31442 0.34019 0.91711 0.0
C346 C 0.31134 0.3217 0.91632 0.0
O347 O 0.31364 0.31121 0.89887 0.0
C348 C 0.35245 0.35671 0.84954 0.0
C349 C 0.29263 0.4051 0.84809 0.0
O350 O 0.30692 0.40812 0.86016 0.0
O351 O 0.28622 0.38736 0.84235 0.0
H352 H 0.20189 0.13844 0.05975 0.0
H353 H 0.32896 0.30326 0.18 0.0
H354 H 0.28329 0.20485 0.02157 0.0
H355 H 0.2626 0.18735 0.99502 0.0
H356 H 0.22805 0.23642 0.99794 0.0
H357 H 0.24877 0.25384 0.02457 0.0
H358 H 0.274 0.19283 0.0663 0.0
H359 H 0.24737 0.16596 0.06481 0.0
H360 H 0.20528 0.20633 0.05563 0.0
H361 H 0.23197 0.23306 0.0575 0.0
H362 H 0.29863 0.2154 0.1019 0.0
H363 H 0.28768 0.20566 0.13526 0.0
H364 H 0.23547 0.23581 0.134 0.0
H365 H 0.2464 0.24543 0.1008 0.0
H366 H 0.3325 0.24885 0.09109 0.0
H367 H 0.34842 0.26265 0.12222 0.0
H368 H 0.29594 0.29099 0.14193 0.0
H369 H 0.28034 0.27734 0.11061 0.0
H370 H 0.33991 0.25957 0.04986 0.0
H371 H 0.36794 0.28456 0.05686 0.0
H372 H 0.3271 0.32552 0.08181 0.0
H373 H 0.29925 0.3005 0.0749 0.0
H374 H 0.31139 0.24271 0.00878 0.0
H375 H 0.31603 0.25892 0.97797 0.0
H376 H 0.2849 0.30645 0.00697 0.0
H377 H 0.28073 0.29035 0.03779 0.0
O378 O 0.21214 0.14931 0.06063 0.0
O379 O 0.19119 0.17063 0.05561 0.0
O380 O 0.34978 0.283 0.1566 0.0
O381 O 0.32304 0.29765 0.16754 0.0
C382 C 0.27708 0.23905 0.04372 0.0
C383 C 0.27123 0.23093 0.06179 0.0
C384 C 0.28048 0.23848 0.07977 0.0
C385 C 0.29577 0.25395 0.07964 0.0
C386 C 0.3014 0.26226 0.06163 0.0
C387 C 0.29171 0.25515 0.04375 0.0
C388 C 0.26746 0.23055 0.02495 0.0
C389 C 0.2716 0.21201 0.01607 0.0
C390 C 0.25979 0.20205 0.001 0.0
C391 C 0.24362 0.21048 0.99475 0.0
C392 C 0.2403 0.22957 0.00276 0.0
C393 C 0.25219 0.23957 0.01776 0.0
C394 C 0.25491 0.21484 0.06193 0.0
C395 C 0.25899 0.19584 0.06415 0.0
C396 C 0.24376 0.18052 0.06321 0.0
C397 C 0.22421 0.18398 0.06001 0.0
C398 C 0.22017 0.20314 0.05806 0.0
C399 C 0.23539 0.21843 0.0591 0.0
C400 C 0.27329 0.23112 0.09903 0.0
C401 C 0.28474 0.21969 0.10879 0.0
C402 C 0.2785 0.21415 0.12773 0.0
C403 C 0.26088 0.2202 0.13716 0.0
C404 C 0.24922 0.23118 0.12707 0.0
C405 C 0.25537 0.23657 0.10814 0.0
C406 C 0.3053 0.26211 0.09864 0.0
C407 C 0.32451 0.25809 0.10214 0.0
C408 C 0.33355 0.26596 0.11994 0.0
C409 C 0.32344 0.27792 0.13458 0.0
C410 C 0.30414 0.28184 0.13099 0.0
C411 C 0.29517 0.27404 0.11315 0.0
C412 C 0.31762 0.27833 0.06179 0.0
C413 C 0.33703 0.27413 0.05625 0.0
C414 C 0.35297 0.28832 0.06035 0.0
C415 C 0.34962 0.30693 0.06976 0.0
C416 C 0.33005 0.31139 0.07422 0.0
C417 C 0.31416 0.29715 0.07032 0.0
C418 C 0.29576 0.26538 0.02549 0.0
C419 C 0.30571 0.25668 0.00848 0.0
C420 C 0.30816 0.26587 0.99088 0.0
C421 C 0.30053 0.28382 0.98996 0.0
C422 C 0.29096 0.29267 0.00722 0.0
C423 C 0.28859 0.28351 0.02482 0.0
C424 C 0.20814 0.16764 0.05863 0.0
C425 C 0.33295 0.2863 0.15353 0.0
H426 H 0.87272 0.20572 0.97565 0.0
H427 H 0.76086 0.29549 0.15897 0.0
H428 H 0.82028 0.28882 0.98169 0.0
H429 H 0.8262 0.27574 0.94652 0.0
H430 H 0.76489 0.25186 0.94372 0.0
H431 H 0.75907 0.26486 0.97894 0.0
H432 H 0.8359 0.27203 0.01838 0.0
H433 H 0.8565 0.24706 0.00276 0.0
H434 H 0.80387 0.21135 0.9818 0.0
H435 H 0.78344 0.23633 0.99772 0.0
H436 H 0.82438 0.28794 0.06244 0.0
H437 H 0.84014 0.26893 0.08464 0.0
H438 H 0.79896 0.21865 0.06711 0.0
H439 H 0.78318 0.23776 0.04508 0.0
H440 H 0.79483 0.32336 0.07031 0.0
H441 H 0.79112 0.33038 0.1069 0.0
H442 H 0.75812 0.27376 0.1099 0.0
H443 H 0.76174 0.26703 0.07332 0.0
H444 H 0.77637 0.34008 0.03107 0.0
H445 H 0.75259 0.36374 0.04186 0.0
H446 H 0.71404 0.31875 0.06804 0.0
H447 H 0.73721 0.29492 0.05596 0.0
H448 H 0.79206 0.32182 0.98729 0.0
H449 H 0.77582 0.34037 0.96508 0.0
H450 H 0.71862 0.31525 0.98613 0.0
H451 H 0.73492 0.29633 0.00794 0.0
O452 O 0.86429 0.21525 0.982 0.0
O453 O 0.83672 0.19719 0.97213 0.0
O454 O 0.77928 0.3222 0.1421 0.0
O455 O 0.76242 0.29316 0.14446 0.0
C456 C 0.78666 0.28231 0.00491 0.0
C457 C 0.79583 0.27159 0.01781 0.0
C458 C 0.79313 0.27564 0.03883 0.0
C459 C 0.7812 0.29035 0.04703 0.0
C460 C 0.7718 0.30091 0.03411 0.0
C461 C 0.77455 0.29686 0.013 0.0
C462 C 0.7893 0.27759 0.98285 0.0
C463 C 0.80805 0.28109 0.97335 0.0
C464 C 0.81142 0.27361 0.95337 0.0
C465 C 0.79603 0.26263 0.94264 0.0
C466 C 0.77694 0.26033 0.95174 0.0
C467 C 0.77361 0.26772 0.97177 0.0
C468 C 0.8082 0.25597 0.00919 0.0
C469 C 0.82885 0.25872 0.01058 0.0
C470 C 0.84058 0.24447 0.00156 0.0
C471 C 0.83183 0.22723 0.99098 0.0
C472 C 0.81108 0.22446 0.98982 0.0
C473 C 0.79938 0.23869 0.99889 0.0
C474 C 0.80264 0.26421 0.05226 0.0
C475 C 0.81875 0.27284 0.06348 0.0
C476 C 0.82775 0.26199 0.07603 0.0
C477 C 0.82062 0.24242 0.07764 0.0
C478 C 0.80452 0.2338 0.06632 0.0
C479 C 0.7956 0.24462 0.0537 0.0
C480 C 0.7786 0.29468 0.06919 0.0
C481 C 0.78674 0.31254 0.07891 0.0
C482 C 0.78463 0.31649 0.0998 0.0
C483 C 0.77435 0.30261 0.11133 0.0
C484 C 0.76615 0.28475 0.10149 0.0
C485 C 0.76823 0.28085 0.0806 0.0
C486 C 0.75847 0.31574 0.0426 0.0
C487 C 0.76276 0.33535 0.03909 0.0
C488 C 0.74921 0.34885 0.04534 0.0
C489 C 0.73125 0.34303 0.05546 0.0
C490 C 0.72743 0.32355 0.05972 0.0
C491 C 0.74081 0.31 0.05315 0.0
C492 C 0.76467 0.30778 0.99928 0.0
C493 C 0.77604 0.3202 0.98699 0.0
C494 C 0.76679 0.33078 0.97438 0.0
C495 C 0.74603 0.32931 0.97411 0.0
C496 C 0.73465 0.3168 0.98632 0.0
C497 C 0.74392 0.306 0.99871 0.0
C498 C 0.84435 0.21227 0.98113 0.0
C499 C 0.7722 0.30665 0.13354 0.0
H500 H 0.68678 0.67749 0.11182 0.0
H501 H 0.77314 0.75958 0.91443 0.0
H502 H 0.75278 0.77372 0.09636 0.0
H503 H 0.74686 0.76669 0.13124 0.0
H504 H 0.7915 0.72626 0.12278 0.0
H505 H 0.79717 0.73325 0.0877 0.0
H506 H 0.72335 0.74192 0.06886 0.0
H507 H 0.70296 0.71768 0.08693 0.0
H508 H 0.7523 0.68273 0.08382 0.0
H509 H 0.77243 0.70702 0.0656 0.0
H510 H 0.72474 0.74883 0.02088 0.0
H511 H 0.70326 0.72526 0.99949 0.0
H512 H 0.74399 0.68188 0.00161 0.0
H513 H 0.76531 0.70548 0.02307 0.0
H514 H 0.75069 0.78506 0.01146 0.0
H515 H 0.74841 0.79002 0.97613 0.0
H516 H 0.78361 0.74197 0.95851 0.0
H517 H 0.78601 0.73738 0.99395 0.0
H518 H 0.77532 0.80916 0.03786 0.0
H519 H 0.78972 0.83277 0.01516 0.0
H520 H 0.83282 0.79338 0.99232 0.0
H521 H 0.8184 0.76989 0.01511 0.0
H522 H 0.78532 0.80745 0.07497 0.0
H523 H 0.81023 0.82772 0.0955 0.0
H524 H 0.84741 0.78042 0.08856 0.0
H525 H 0.82241 0.76024 0.06806 0.0
O526 O 0.69498 0.68672 0.10436 0.0
O527 O 0.72074 0.66922 0.10219 0.0
O528 O 0.75588 0.78262 0.9384 0.0
O529 O 0.77365 0.75782 0.9285 0.0
C530 C 0.77523 0.75486 0.06759 0.0
C531 C 0.76192 0.74149 0.05613 0.0
C532 C 0.75997 0.74325 0.03563 0.0
C533 C 0.77089 0.75874 0.0267 0.0
C534 C 0.78438 0.772 0.03809 0.0
C535 C 0.78686 0.7698 0.05844 0.0
C536 C 0.77539 0.754 0.08957 0.0
C537 C 0.76169 0.76379 0.10222 0.0
C538 C 0.7583 0.75971 0.1221 0.0
C539 C 0.7685 0.7457 0.1296 0.0
C540 C 0.78319 0.73687 0.11726 0.0
C541 C 0.78661 0.74099 0.09735 0.0
C542 C 0.74931 0.72618 0.06598 0.0
C543 C 0.72963 0.72892 0.07196 0.0
C544 C 0.71807 0.7151 0.08233 0.0
C545 C 0.72602 0.69829 0.08688 0.0
C546 C 0.74572 0.69551 0.08058 0.0
C547 C 0.75724 0.70933 0.07017 0.0
C548 C 0.74654 0.72881 0.02347 0.0
C549 C 0.72892 0.73419 0.01681 0.0
C550 C 0.71672 0.72076 0.00463 0.0
C551 C 0.72192 0.70173 0.99906 0.0
C552 C 0.73945 0.69633 0.00601 0.0
C553 C 0.75167 0.70978 0.01814 0.0
C554 C 0.76856 0.76092 0.0052 0.0
C555 C 0.75787 0.77562 -8e-05 0.0
C556 C 0.75659 0.77841 0.97975 0.0
C557 C 0.76587 0.76642 0.96449 0.0
C558 C 0.77632 0.75148 0.96988 0.0
C559 C 0.77766 0.74877 0.99008 0.0
C560 C 0.79593 0.78791 0.02821 0.0
C561 C 0.78828 0.80594 0.02844 0.0
C562 C 0.79633 0.81926 0.01532 0.0
C563 C 0.81217 0.81473 0.00183 0.0
C564 C 0.82064 0.79722 0.0026 0.0
C565 C 0.81251 0.78386 0.01565 0.0
C566 C 0.80217 0.78247 0.06998 0.0
C567 C 0.79898 0.80161 0.07765 0.0
C568 C 0.81322 0.81316 0.08926 0.0
C569 C 0.83082 0.80567 0.09339 0.0
C570 C 0.83399 0.78652 0.08555 0.0
C571 C 0.81979 0.77503 0.07388 0.0
C572 C 0.71382 0.68382 0.09825 0.0
C573 C 0.76478 0.76949 0.94305 0.0
H574 H 0.40361 0.72307 0.9863 0.0
H575 H 0.26719 0.78017 0.16216 0.0
H576 H 0.35246 0.80955 0.9984 0.0
H577 H 0.36035 0.8089 0.96207 0.0
H578 H 0.29932 0.78855 0.95016 0.0
H579 H 0.29165 0.78879 0.98624 0.0
H580 H 0.36295 0.78451 0.03345 0.0
H581 H 0.38483 0.76118 0.0168 0.0
H582 H 0.33593 0.73194 0.98253 0.0
H583 H 0.31417 0.75525 0.99946 0.0
H584 H 0.34618 0.78945 0.07637 0.0
H585 H 0.35579 0.76415 0.09568 0.0
H586 H 0.31366 0.72169 0.06444 0.0
H587 H 0.30426 0.74696 0.04504 0.0
H588 H 0.31686 0.82531 0.08919 0.0
H589 H 0.30756 0.82438 0.1249 0.0
H590 H 0.27139 0.76975 0.11044 0.0
H591 H 0.28061 0.771 0.07479 0.0
H592 H 0.30466 0.85173 0.05628 0.0
H593 H 0.28052 0.87412 0.07018 0.0
H594 H 0.23537 0.82528 0.07175 0.0
H595 H 0.25975 0.803 0.05853 0.0
H596 H 0.32269 0.84301 0.00767 0.0
H597 H 0.30889 0.86182 0.98387 0.0
H598 H 0.25112 0.83104 0.99378 0.0
H599 H 0.26503 0.81192 0.01701 0.0
O600 O 0.3947 0.73208 0.99275 0.0
O601 O 0.36908 0.71762 0.97546 0.0
O602 O 0.28961 0.80921 0.15475 0.0
O603 O 0.271 0.78099 0.14813 0.0
C604 C 0.31654 0.79954 0.01674 0.0
C605 C 0.32382 0.78583 0.02773 0.0
C606 C 0.3181 0.7853 0.04823 0.0
C607 C 0.30539 0.7987 0.05787 0.0
C608 C 0.29812 0.8124 0.04687 0.0
C609 C 0.3036 0.81279 0.02627 0.0
C610 C 0.32148 0.79929 0.9949 0.0
C611 C 0.34083 0.805 0.9879 0.0
C612 C 0.34527 0.80477 0.96727 0.0
C613 C 0.33032 0.79911 0.95346 0.0
C614 C 0.31096 0.79351 0.96055 0.0
C615 C 0.30661 0.79348 0.98109 0.0
C616 C 0.33701 0.77159 0.01761 0.0
C617 C 0.35699 0.77301 0.02238 0.0
C618 C 0.36946 0.75969 0.01282 0.0
C619 C 0.36214 0.7447 0.9983 0.0
C620 C 0.34205 0.74331 0.99361 0.0
C621 C 0.3296 0.75662 0.00322 0.0
C622 C 0.32453 0.76998 0.05937 0.0
C623 C 0.33914 0.77466 0.07364 0.0
C624 C 0.34461 0.76026 0.08458 0.0
C625 C 0.33533 0.74109 0.08157 0.0
C626 C 0.32086 0.73642 0.06712 0.0
C627 C 0.31557 0.75076 0.05602 0.0
C628 C 0.29948 0.79819 0.07946 0.0
C629 C 0.30688 0.8132 0.09378 0.0
C630 C 0.30157 0.81261 0.11416 0.0
C631 C 0.28876 0.79695 0.12054 0.0
C632 C 0.2813 0.78199 0.10607 0.0
C633 C 0.28658 0.78264 0.0857 0.0
C634 C 0.28395 0.82578 0.05659 0.0
C635 C 0.28962 0.84589 0.05993 0.0
C636 C 0.27581 0.85863 0.06772 0.0
C637 C 0.25609 0.85143 0.0722 0.0
C638 C 0.25055 0.83122 0.06893 0.0
C639 C 0.26441 0.81849 0.06132 0.0
C640 C 0.29484 0.82618 0.0142 0.0
C641 C 0.307 0.84056 0.00494 0.0
C642 C 0.29915 0.85123 0.99136 0.0
C643 C 0.27895 0.84794 0.98718 0.0
C644 C 0.26667 0.83408 0.99704 0.0
C645 C 0.27457 0.82321 0.01035 0.0
C646 C 0.37544 0.73062 0.98811 0.0
C647 C 0.28319 0.79616 0.14217 0.0
H648 H 0.00236 0.20271 0.18575 0.0
H649 H 0.13261 0.32244 0.34955 0.0
H650 H 0.9854 0.29857 0.25075 0.0
H651 H 0.96143 0.28073 0.22751 0.0
H652 H 0.94449 0.23968 0.27059 0.0
H653 H 0.96822 0.25783 0.29399 0.0
H654 H 0.02155 0.27514 0.23819 0.0
H655 H 0.01604 0.2479 0.21169 0.0
H656 H 0.99523 0.20972 0.25672 0.0
H657 H 0.00078 0.23712 0.28303 0.0
H658 H 0.06534 0.29076 0.264 0.0
H659 H 0.09469 0.27286 0.25735 0.0
H660 H 0.06637 0.22696 0.29053 0.0
H661 H 0.0372 0.2451 0.29747 0.0
H662 H 0.05808 0.32992 0.29094 0.0
H663 H 0.0905 0.34262 0.30386 0.0
H664 H 0.08814 0.29438 0.33971 0.0
H665 H 0.05562 0.28194 0.32681 0.0
H666 H 0.01477 0.34492 0.29827 0.0
H667 H 0.02991 0.37505 0.31644 0.0
H668 H 0.04479 0.34245 0.36363 0.0
H669 H 0.02862 0.31255 0.34593 0.0
H670 H 0.97712 0.32534 0.28104 0.0
H671 H 0.94894 0.34207 0.29634 0.0
H672 H 0.95469 0.31693 0.35149 0.0
H673 H 0.9823 0.29992 0.33598 0.0
O674 O 0.00488 0.21315 0.19648 0.0
O675 O 0.99466 0.19406 0.22024 0.0
O676 O 0.12007 0.34243 0.32578 0.0
O677 O 0.11987 0.31764 0.34409 0.0
C678 C 0.99728 0.28556 0.28414 0.0
C679 C 0.01368 0.27491 0.27827 0.0
C680 C 0.03217 0.28076 0.28677 0.0
C681 C 0.03453 0.29777 0.30053 0.0
C682 C 0.018 0.30816 0.30682 0.0
C683 C 0.99925 0.30182 0.2989 0.0
C684 C 0.97842 0.27952 0.27406 0.0
C685 C 0.97572 0.28638 0.25562 0.0
C686 C 0.96214 0.27613 0.24233 0.0
C687 C 0.9513 0.25884 0.24731 0.0
C688 C 0.95271 0.25302 0.26652 0.0
C689 C 0.96609 0.26344 0.27992 0.0
C690 C 0.01161 0.25803 0.26246 0.0
C691 C 0.01598 0.26082 0.24227 0.0
C692 C 0.01276 0.24526 0.22718 0.0
C693 C 0.00516 0.22663 0.23208 0.0
C694 C 0.00111 0.22386 0.25243 0.0
C695 C 0.0043 0.23945 0.26748 0.0
C696 C 0.04916 0.26918 0.28116 0.0
C697 C 0.06543 0.27678 0.26969 0.0
C698 C 0.08214 0.2666 0.26596 0.0
C699 C 0.08268 0.24855 0.27341 0.0
C700 C 0.06617 0.24074 0.28445 0.0
C701 C 0.04956 0.25104 0.28838 0.0
C702 C 0.0545 0.30504 0.30799 0.0
C703 C 0.0646 0.32213 0.30159 0.0
C704 C 0.0831 0.32935 0.309 0.0
C705 C 0.09188 0.31955 0.32288 0.0
C706 C 0.08179 0.3023 0.32907 0.0
C707 C 0.06325 0.29512 0.32169 0.0
C708 C 0.02101 0.32651 0.32059 0.0
C709 C 0.02044 0.34442 0.31298 0.0
C710 C 0.0293 0.36156 0.32325 0.0
C711 C 0.03911 0.36089 0.34104 0.0
C712 C 0.03747 0.34334 0.34986 0.0
C713 C 0.0283 0.32626 0.33975 0.0
C714 C 0.98162 0.3113 0.30737 0.0
C715 C 0.97207 0.32325 0.29631 0.0
C716 C 0.95617 0.33297 0.30513 0.0
C717 C 0.94971 0.33088 0.32515 0.0
C718 C 0.95923 0.31869 0.336 0.0
C719 C 0.97502 0.30902 0.3272 0.0
C720 C 0.00126 0.21025 0.21598 0.0
C721 C 0.11145 0.32728 0.33094 0.0
H722 H 0.87783 0.9852 0.177 0.0
H723 H 0.76377 0.15418 0.28993 0.0
H724 H 0.78439 0.97978 0.24641 0.0
H725 H 0.80192 0.95083 0.23719 0.0
H726 H 0.84249 0.97029 0.2846 0.0
H727 H 0.82503 0.99951 0.29345 0.0
H728 H 0.80515 0.00825 0.21973 0.0
H729 H 0.8321 0.99716 0.19696 0.0
H730 H 0.8736 0.01529 0.24391 0.0
H731 H 0.84645 0.02629 0.26652 0.0
H732 H 0.79544 0.04984 0.22036 0.0
H733 H 0.81426 0.07372 0.20038 0.0
H734 H 0.85318 0.09155 0.24955 0.0
H735 H 0.83406 0.06799 0.2695 0.0
H736 H 0.76379 0.06315 0.24457 0.0
H737 H 0.75369 0.09612 0.2455 0.0
H738 H 0.78521 0.11353 0.30012 0.0
H739 H 0.79528 0.08054 0.29891 0.0
H740 H 0.73858 0.03722 0.27133 0.0
H741 H 0.71256 0.05575 0.28842 0.0
H742 H 0.74813 0.06975 0.34059 0.0
H743 H 0.77419 0.05124 0.32336 0.0
H744 H 0.75047 0.99031 0.27576 0.0
H745 H 0.73256 0.96869 0.29869 0.0
H746 H 0.77114 0.99395 0.34614 0.0
H747 H 0.78918 0.01524 0.32299 0.0
O748 O 0.86741 0.98967 0.18625 0.0
O749 O 0.88848 0.00137 0.21003 0.0
O750 O 0.75274 0.13174 0.26034 0.0
O751 O 0.76768 0.14107 0.2891 0.0
C752 C 0.79734 0.01156 0.27131 0.0
C753 C 0.80746 0.02446 0.25847 0.0
C754 C 0.8019 0.04343 0.25866 0.0
C755 C 0.78597 0.04946 0.27131 0.0
C756 C 0.77559 0.03647 0.28391 0.0
C757 C 0.7815 0.0176 0.28417 0.0
C758 C 0.80348 0.99167 0.27056 0.0
C759 C 0.79654 0.97737 0.25533 0.0
C760 C 0.80663 0.96091 0.25005 0.0
C761 C 0.8238 0.95856 0.25994 0.0
C762 C 0.82952 0.97197 0.27651 0.0
C763 C 0.81943 0.98848 0.28175 0.0
C764 C 0.82392 0.01805 0.2447 0.0
C765 C 0.82009 0.00983 0.22502 0.0
C766 C 0.8355 0.00348 0.21208 0.0
C767 C 0.85501 0.00536 0.21861 0.0
C768 C 0.85876 0.01369 0.23839 0.0
C769 C 0.84331 0.01998 0.25132 0.0
C770 C 0.81343 0.05734 0.24632 0.0
C771 C 0.80808 0.0589 0.22672 0.0
C772 C 0.81889 0.07239 0.21532 0.0
C773 C 0.83522 0.08436 0.22342 0.0
C774 C 0.84059 0.08255 0.24302 0.0
C775 C 0.82976 0.06914 0.25438 0.0
C776 C 0.7803 0.06956 0.27162 0.0
C777 C 0.76858 0.07417 0.25663 0.0
C778 C 0.76281 0.09298 0.25724 0.0
C779 C 0.76867 0.10748 0.27289 0.0
C780 C 0.78045 0.10274 0.28786 0.0
C781 C 0.78624 0.08393 0.28721 0.0
C782 C 0.75818 0.04286 0.29616 0.0
C783 C 0.74044 0.04372 0.2867 0.0
C784 C 0.72573 0.05442 0.29637 0.0
C785 C 0.72855 0.06434 0.31565 0.0
C786 C 0.74564 0.06217 0.32573 0.0
C787 C 0.76045 0.05155 0.31598 0.0
C788 C 0.77107 0.00424 0.29779 0.0
C789 C 0.7551 0.99103 0.29107 0.0
C790 C 0.7449 0.97879 0.30416 0.0
C791 C 0.75058 0.97957 0.32413 0.0
C792 C 0.76669 0.99279 0.33074 0.0
C793 C 0.77689 0.00502 0.31763 0.0
C794 C 0.87135 0.9987 0.20478 0.0
C795 C 0.76252 0.12746 0.27365 0.0
H796 H 0.07817 0.69684 0.37775 0.0
H797 H 0.90865 0.73169 0.25091 0.0
H798 H 0.06951 0.78128 0.32292 0.0
H799 H 0.10335 0.78256 0.33431 0.0
H800 H 0.12187 0.75527 0.27605 0.0
H801 H 0.08802 0.75426 0.26471 0.0
H802 H 0.03712 0.74962 0.33651 0.0
H803 H 0.0514 0.72984 0.35885 0.0
H804 H 0.08259 0.70117 0.30772 0.0
H805 H 0.068 0.7209 0.28554 0.0
H806 H 0.99691 0.74837 0.32394 0.0
H807 H 0.97544 0.72169 0.33748 0.0
H808 H 0.99885 0.68042 0.2914 0.0
H809 H 0.02054 0.70714 0.27811 0.0
H810 H 0.98751 0.78207 0.29411 0.0
H811 H 0.95205 0.77879 0.28801 0.0
H812 H 0.95813 0.72402 0.25123 0.0
H813 H 0.99363 0.72766 0.25719 0.0
H814 H 0.02307 0.81097 0.27776 0.0
H815 H 0.00229 0.82965 0.26005 0.0
H816 H 0.98951 0.77939 0.21662 0.0
H817 H 0.01076 0.76092 0.23401 0.0
H818 H 0.06399 0.81096 0.28979 0.0
H819 H 0.08629 0.83446 0.27222 0.0
H820 H 0.08308 0.79455 0.21773 0.0
H821 H 0.06074 0.77122 0.23529 0.0
O822 O 0.07256 0.7044 0.36862 0.0
O823 O 0.08835 0.69018 0.34186 0.0
O824 O 0.92034 0.76166 0.27248 0.0
O825 O 0.92261 0.73331 0.25365 0.0
C826 C 0.05538 0.76392 0.28753 0.0
C827 C 0.04311 0.74894 0.29601 0.0
C828 C 0.02288 0.74566 0.29171 0.0
C829 C 0.01475 0.75757 0.27931 0.0
C830 C 0.02715 0.77216 0.27026 0.0
C831 C 0.04754 0.77515 0.2742 0.0
C832 C 0.0764 0.76774 0.29299 0.0
C833 C 0.08101 0.77604 0.31248 0.0
C834 C 0.10026 0.77666 0.31898 0.0
C835 C 0.1152 0.76905 0.30605 0.0
C836 C 0.11072 0.76156 0.28621 0.0
C837 C 0.09143 0.76094 0.27972 0.0
C838 C 0.05151 0.73664 0.30944 0.0
C839 C 0.04693 0.73896 0.33017 0.0
C840 C 0.05516 0.72769 0.34289 0.0
C841 C 0.06816 0.71393 0.33508 0.0
C842 C 0.07265 0.71163 0.31424 0.0
C843 C 0.06436 0.72288 0.30154 0.0
C844 C 0.01021 0.72959 0.30011 0.0
C845 C 0.99747 0.73355 0.31689 0.0
C846 C 0.98535 0.71837 0.32461 0.0
C847 C 0.9857 0.6991 0.31549 0.0
C848 C 0.99843 0.69519 0.29865 0.0
C849 C 0.01076 0.71035 0.29111 0.0
C850 C 0.9931 0.75507 0.27615 0.0
C851 C 0.98113 0.76937 0.28477 0.0
C852 C 0.96089 0.76745 0.28126 0.0
C853 C 0.95225 0.75113 0.26913 0.0
C854 C 0.9643 0.73676 0.26065 0.0
C855 C 0.98456 0.73874 0.26411 0.0
C856 C 0.01836 0.78457 0.25721 0.0
C857 C 0.0164 0.80423 0.264 0.0
C858 C 0.0045 0.81484 0.25394 0.0
C859 C 0.9943 0.80587 0.23708 0.0
C860 C 0.99722 0.78656 0.22962 0.0
C861 C 0.00935 0.77606 0.23949 0.0
C862 C 0.06081 0.78946 0.26376 0.0
C863 C 0.06814 0.80734 0.27407 0.0
C864 C 0.0808 0.82068 0.26407 0.0
C865 C 0.08649 0.81615 0.24374 0.0
C866 C 0.07912 0.79821 0.23349 0.0
C867 C 0.06631 0.78499 0.24342 0.0
C868 C 0.077 0.70209 0.34865 0.0
C869 C 0.93078 0.74909 0.26524 0.0
H870 H 0.20256 0.03987 0.20305 0.0
H871 H 0.2431 0.86861 0.3113 0.0
H872 H 0.27824 0.04141 0.28163 0.0
H873 H 0.27087 0.07377 0.27459 0.0
H874 H 0.22429 0.07328 0.321 0.0
H875 H 0.23197 0.04104 0.32825 0.0
H876 H 0.25626 0.00696 0.2522 0.0
H877 H 0.23785 0.01961 0.22703 0.0
H878 H 0.19167 0.03242 0.27213 0.0
H879 H 0.21015 0.01955 0.29707 0.0
H880 H 0.26261 0.96199 0.26027 0.0
H881 H 0.24617 0.94596 0.23026 0.0
H882 H 0.19006 0.96294 0.25612 0.0
H883 H 0.20637 0.97749 0.28662 0.0
H884 H 0.28882 0.95599 0.29533 0.0
H885 H 0.28991 0.92086 0.29564 0.0
H886 H 0.22795 0.91501 0.31491 0.0
H887 H 0.22714 0.95019 0.31477 0.0
H888 H 0.30847 0.99426 0.32037 0.0
H889 H 0.32935 0.97864 0.34102 0.0
H890 H 0.27699 0.95267 0.37113 0.0
H891 H 0.25615 0.96836 0.35039 0.0
H892 H 0.3004 0.0358 0.31375 0.0
H893 H 0.31685 0.06025 0.33848 0.0
H894 H 0.27566 0.04046 0.38502 0.0
H895 H 0.259 0.01631 0.36008 0.0
O896 O 0.20959 0.03493 0.21323 0.0
O897 O 0.18613 0.04096 0.23691 0.0
O898 O 0.27491 0.88633 0.30111 0.0
O899 O 0.24307 0.88253 0.31098 0.0
C900 C 0.25648 0.01773 0.30587 0.0
C901 C 0.24577 0.00466 0.29166 0.0
C902 C 0.24615 0.98431 0.29148 0.0
C903 C 0.25742 0.97703 0.30548 0.0
C904 C 0.26826 0.99015 0.31974 0.0
C905 C 0.2677 0.01053 0.31995 0.0
C906 C 0.2557 0.03898 0.30552 0.0
C907 C 0.26699 0.04864 0.29081 0.0
C908 C 0.26271 0.06701 0.28674 0.0
C909 C 0.2469 0.07579 0.29714 0.0
C910 C 0.23648 0.06668 0.31276 0.0
C911 C 0.24096 0.04842 0.31702 0.0
C912 C 0.23456 0.01243 0.27644 0.0
C913 C 0.24216 0.01251 0.25658 0.0
C914 C 0.23162 0.01975 0.24226 0.0
C915 C 0.2133 0.02707 0.24757 0.0
C916 C 0.20574 0.02693 0.26753 0.0
C917 C 0.21628 0.01965 0.28182 0.0
C918 C 0.23569 0.97097 0.27558 0.0
C919 C 0.24665 0.9615 0.25978 0.0
C920 C 0.23726 0.95258 0.24255 0.0
C921 C 0.21681 0.95324 0.24072 0.0
C922 C 0.20572 0.96174 0.25713 0.0
C923 C 0.21505 0.97024 0.27453 0.0
C924 C 0.25793 0.95563 0.30511 0.0
C925 C 0.27552 0.94709 0.29966 0.0
C926 C 0.27608 0.92703 0.29981 0.0
C927 C 0.25901 0.91512 0.30534 0.0
C928 C 0.24136 0.92374 0.3106 0.0
C929 C 0.24083 0.94382 0.31049 0.0
C930 C 0.28079 0.98248 0.3339 0.0
C931 C 0.30152 0.98554 0.33172 0.0
C932 C 0.31342 0.97663 0.34353 0.0
C933 C 0.30478 0.96452 0.35775 0.0
C934 C 0.28401 0.96188 0.36024 0.0
C935 C 0.27212 0.97086 0.34848 0.0
C936 C 0.27847 0.02438 0.33514 0.0
C937 C 0.29501 0.03669 0.32931 0.0
C938 C 0.30449 0.05049 0.34346 0.0
C939 C 0.2976 0.05212 0.36368 0.0
C940 C 0.28123 0.03951 0.36952 0.0
C941 C 0.27177 0.02571 0.35535 0.0
C942 C 0.20214 0.03476 0.23232 0.0
C943 C 0.25956 0.89382 0.30565 0.0
H944 H 0.00333 0.90977 0.90255 0.0
H945 H 0.14692 0.80112 0.76051 0.0
H946 H 0.98086 0.82211 0.82965 0.0
H947 H 0.94836 0.83203 0.84123 0.0
H948 H 0.94685 0.86296 0.78911 0.0
H949 H 0.97974 0.85305 0.77762 0.0
H950 H 0.02012 0.84005 0.84905 0.0
H951 H 0.01409 0.86603 0.87597 0.0
H952 H 0.00317 0.9037 0.83156 0.0
H953 H 0.00946 0.87765 0.80478 0.0
H954 H 0.05658 0.8195 0.83302 0.0
H955 H 0.08441 0.83468 0.85314 0.0
H956 H 0.08464 0.88724 0.82423 0.0
H957 H 0.05661 0.87206 0.80443 0.0
H958 H 0.05397 0.78622 0.79746 0.0
H959 H 0.08664 0.7747 0.78995 0.0
H960 H 0.10705 0.82873 0.76546 0.0
H961 H 0.07417 0.8399 0.77273 0.0
H962 H 0.01578 0.7726 0.7783 0.0
H963 H 0.02905 0.74597 0.75595 0.0
H964 H 0.05897 0.78798 0.71892 0.0
H965 H 0.04563 0.81449 0.74125 0.0
H966 H 0.97458 0.79319 0.79224 0.0
H967 H 0.94754 0.77767 0.77126 0.0
H968 H 0.97498 0.80489 0.72054 0.0
H969 H 0.00192 0.82057 0.74167 0.0
O970 O 0.00571 0.89971 0.89167 0.0
O971 O 0.00013 0.91844 0.86824 0.0
O972 O 0.12252 0.77769 0.77611 0.0
O973 O 0.13389 0.80536 0.76374 0.0
C974 C 0.00305 0.83197 0.79707 0.0
C975 C 0.01891 0.84122 0.80866 0.0
C976 C 0.03813 0.83534 0.80482 0.0
C977 C 0.04157 0.82037 0.78928 0.0
C978 C 0.02585 0.81151 0.77729 0.0
C979 C 0.00658 0.81734 0.78111 0.0
C980 C 0.98259 0.8368 0.80278 0.0
C981 C 0.97342 0.83082 0.82059 0.0
C982 C 0.95483 0.8364 0.82711 0.0
C983 C 0.945 0.84805 0.81592 0.0
C984 C 0.95411 0.85391 0.79795 0.0
C985 C 0.97277 0.84821 0.79135 0.0
C986 C 0.01529 0.85701 0.82499 0.0
C987 C 0.01653 0.85396 0.84518 0.0
C988 C 0.01302 0.86881 0.86052 0.0
C989 C 0.00815 0.88695 0.85592 0.0
C990 C 0.00689 0.88991 0.83563 0.0
C991 C 0.01044 0.87506 0.82031 0.0
C992 C 0.05469 0.84468 0.81724 0.0
C993 C 0.06268 0.83429 0.83107 0.0
C994 C 0.07859 0.84293 0.84244 0.0
C995 C 0.0868 0.86206 0.84007 0.0
C996 C 0.07854 0.87251 0.82641 0.0
C997 C 0.06261 0.86388 0.81508 0.0
C998 C 0.06171 0.81385 0.78556 0.0
C999 C 0.06552 0.79552 0.79045 0.0
C1000 C 0.0842 0.789 0.78618 0.0
C1001 C 0.09946 0.80079 0.77707 0.0
C1002 C 0.09563 0.81928 0.77245 0.0
C1003 C 0.0769 0.82573 0.77665 0.0
C1004 C 0.02979 0.79544 0.76139 0.0
C1005 C 0.02469 0.77598 0.76502 0.0
C1006 C 0.03243 0.76084 0.7524 0.0
C1007 C 0.04525 0.76501 0.73594 0.0
C1008 C 0.0491 0.7844 0.73151 0.0
C1009 C 0.04148 0.79952 0.74418 0.0
C1010 C 0.99016 0.80803 0.76848 0.0
C1011 C 0.97467 0.79592 0.77665 0.0
C1012 C 0.95927 0.7871 0.76469 0.0
C1013 C 0.95928 0.79005 0.7443 0.0
C1014 C 0.97478 0.80223 0.73616 0.0
C1015 C 0.9901 0.81118 0.74818 0.0
C1016 C 0.00441 0.90269 0.87225 0.0
C1017 C 0.11928 0.79385 0.77233 0.0
H1018 H 0.38169 0.99137 0.65636 0.0
H1019 H 0.29138 0.16438 0.78671 0.0
H1020 H 0.29392 0.98791 0.74454 0.0
H1021 H 0.30244 0.95422 0.73829 0.0
H1022 H 0.35715 0.97131 0.76865 0.0
H1023 H 0.34861 0.0051 0.77457 0.0
H1024 H 0.31639 0.01696 0.71006 0.0
H1025 H 0.3395 0.00477 0.6834 0.0
H1026 H 0.3877 0.01923 0.72389 0.0
H1027 H 0.36441 0.0315 0.75034 0.0
H1028 H 0.30497 0.0606 0.71485 0.0
H1029 H 0.3189 0.0865 0.69463 0.0
H1030 H 0.36929 0.09805 0.73249 0.0
H1031 H 0.35487 0.07262 0.75302 0.0
H1032 H 0.2788 0.07276 0.74241 0.0
H1033 H 0.27044 0.10649 0.74548 0.0
H1034 H 0.31198 0.12203 0.79282 0.0
H1035 H 0.32022 0.08825 0.78952 0.0
H1036 H 0.25883 0.05142 0.77053 0.0
H1037 H 0.23425 0.06557 0.7944 0.0
H1038 H 0.27484 0.06812 0.84225 0.0
H1039 H 0.29948 0.05408 0.81821 0.0
H1040 H 0.26387 0.0099 0.78061 0.0
H1041 H 0.24922 0.98935 0.80606 0.0
H1042 H 0.30632 0.99195 0.83214 0.0
H1043 H 0.32087 0.01276 0.80676 0.0
O1044 O 0.37283 0.99635 0.66708 0.0
O1045 O 0.397 0.00363 0.68863 0.0
O1046 O 0.27322 0.14219 0.76079 0.0
O1047 O 0.29446 0.15095 0.78512 0.0
C1048 C 0.3161 0.01943 0.76209 0.0
C1049 C 0.32465 0.03207 0.74818 0.0
C1050 C 0.31926 0.05122 0.74923 0.0
C1051 C 0.3051 0.0577 0.76396 0.0
C1052 C 0.29633 0.04503 0.77771 0.0
C1053 C 0.30209 0.02597 0.77702 0.0
C1054 C 0.32071 0.99888 0.75989 0.0
C1055 C 0.30766 0.98432 0.74997 0.0
C1056 C 0.31253 0.96513 0.74646 0.0
C1057 C 0.33056 0.96022 0.7528 0.0
C1058 C 0.34335 0.97478 0.76327 0.0
C1059 C 0.33846 0.99399 0.76676 0.0
C1060 C 0.33878 0.02502 0.73206 0.0
C1061 C 0.33196 0.0175 0.71308 0.0
C1062 C 0.34519 0.01054 0.69791 0.0
C1063 C 0.36545 0.01098 0.70152 0.0
C1064 C 0.3722 0.01865 0.72061 0.0
C1065 C 0.35895 0.02566 0.73574 0.0
C1066 C 0.32891 0.06487 0.73539 0.0
C1067 C 0.31914 0.06858 0.71856 0.0
C1068 C 0.32718 0.08325 0.70697 0.0
C1069 C 0.34521 0.09425 0.71197 0.0
C1070 C 0.35531 0.08988 0.72839 0.0
C1071 C 0.34719 0.07533 0.74003 0.0
C1072 C 0.30017 0.07817 0.76567 0.0
C1073 C 0.28613 0.08352 0.75335 0.0
C1074 C 0.28136 0.10277 0.75518 0.0
C1075 C 0.29056 0.11697 0.7694 0.0
C1076 C 0.30463 0.11148 0.78172 0.0
C1077 C 0.30938 0.09222 0.77987 0.0
C1078 C 0.28095 0.05187 0.79265 0.0
C1079 C 0.26235 0.05492 0.7862 0.0
C1080 C 0.24836 0.06296 0.7998 0.0
C1081 C 0.25267 0.06787 0.82012 0.0
C1082 C 0.27108 0.06421 0.8267 0.0
C1083 C 0.28515 0.05628 0.81303 0.0
C1084 C 0.2934 0.01287 0.7919 0.0
C1085 C 0.27319 0.00611 0.79186 0.0
C1086 C 0.26485 0.99449 0.80643 0.0
C1087 C 0.27663 0.98935 0.82119 0.0
C1088 C 0.29695 0.99579 0.82095 0.0
C1089 C 0.30526 0.00757 0.80647 0.0
C1090 C 0.37943 0.00346 0.68542 0.0
C1091 C 0.28551 0.13743 0.77145 0.0
H1092 H 0.96984 0.14748 0.87937 0.0
H1093 H 0.14426 0.29124 0.83141 0.0
H1094 H 0.97774 0.20963 0.79508 0.0
H1095 H 0.94186 0.2012 0.79229 0.0
H1096 H 0.9314 0.25635 0.82611 0.0
H1097 H 0.96722 0.26459 0.82903 0.0
H1098 H 0.01131 0.19453 0.82001 0.0
H1099 H 0.99621 0.17023 0.84147 0.0
H1100 H 0.9685 0.21551 0.87924 0.0
H1101 H 0.98388 0.23969 0.85779 0.0
H1102 H 0.05541 0.21276 0.8109 0.0
H1103 H 0.07694 0.19686 0.83064 0.0
H1104 H 0.05166 0.22536 0.88537 0.0
H1105 H 0.03051 0.24161 0.86547 0.0
H1106 H 0.06605 0.24533 0.78332 0.0
H1107 H 0.10167 0.25556 0.78363 0.0
H1108 H 0.09432 0.2832 0.84446 0.0
H1109 H 0.05868 0.27312 0.84383 0.0
H1110 H 0.03375 0.25817 0.76096 0.0
H1111 H 0.05589 0.27996 0.74134 0.0
H1112 H 0.06374 0.32133 0.7944 0.0
H1113 H 0.04155 0.29957 0.81384 0.0
H1114 H 0.98925 0.24464 0.76534 0.0
H1115 H 0.96511 0.26022 0.7482 0.0
H1116 H 0.96947 0.30929 0.79427 0.0
H1117 H 0.99384 0.29383 0.81113 0.0
O1118 O 0.97557 0.15731 0.87102 0.0
O1119 O 0.96147 0.1811 0.88981 0.0
O1120 O 0.13323 0.27257 0.7996 0.0
O1121 O 0.13026 0.28693 0.83091 0.0
C1122 C 0.99667 0.24323 0.81284 0.0
C1123 C 0.00829 0.23367 0.82468 0.0
C1124 C 0.02903 0.2385 0.82469 0.0
C1125 C 0.03807 0.253 0.81305 0.0
C1126 C 0.02638 0.26258 0.80129 0.0
C1127 C 0.00572 0.25774 0.80119 0.0
C1128 C 0.97501 0.23775 0.81215 0.0
C1129 C 0.96766 0.21981 0.80197 0.0
C1130 C 0.94726 0.21506 0.80034 0.0
C1131 C 0.93398 0.22828 0.8087 0.0
C1132 C 0.94138 0.24611 0.81915 0.0
C1133 C 0.96176 0.25077 0.82093 0.0
C1134 C 0.99867 0.21884 0.83736 0.0
C1135 C 0.00198 0.19915 0.83293 0.0
C1136 C 0.99332 0.18531 0.8452 0.0
C1137 C 0.98116 0.19093 0.86208 0.0
C1138 C 0.97779 0.21069 0.86636 0.0
C1139 C 0.98649 0.22451 0.85411 0.0
C1140 C 0.04142 0.2283 0.83678 0.0
C1141 C 0.05449 0.21549 0.82716 0.0
C1142 C 0.06661 0.2063 0.83843 0.0
C1143 C 0.06577 0.20972 0.85953 0.0
C1144 C 0.05257 0.22248 0.86913 0.0
C1145 C 0.04046 0.23169 0.85783 0.0
C1146 C 0.05981 0.25853 0.81353 0.0
C1147 C 0.07217 0.25361 0.79668 0.0
C1148 C 0.09251 0.25945 0.79691 0.0
C1149 C 0.10085 0.27022 0.81408 0.0
C1150 C 0.08839 0.27493 0.83101 0.0
C1151 C 0.06805 0.26915 0.83072 0.0
C1152 C 0.0361 0.27737 0.78876 0.0
C1153 C 0.03977 0.27223 0.76814 0.0
C1154 C 0.05246 0.28457 0.75703 0.0
C1155 C 0.06143 0.30228 0.76639 0.0
C1156 C 0.05675 0.3079 0.78677 0.0
C1157 C 0.04415 0.29551 0.79788 0.0
C1158 C 0.99331 0.26819 0.78939 0.0
C1159 C 0.9853 0.25894 0.77145 0.0
C1160 C 0.97156 0.2678 0.76174 0.0
C1161 C 0.96552 0.28589 0.77 0.0
C1162 C 0.97393 0.29532 0.78768 0.0
C1163 C 0.98788 0.2866 0.79721 0.0
C1164 C 0.9721 0.17622 0.87517 0.0
C1165 C 0.12242 0.2766 0.81435 0.0
H1166 H 0.64633 0.00707 0.65378 0.0
H1167 H 0.72086 0.87035 0.78481 0.0
H1168 H 0.72567 0.0316 0.72126 0.0
H1169 H 0.71811 0.06444 0.71617 0.0
H1170 H 0.6916 0.07142 0.77625 0.0
H1171 H 0.6988 0.0384 0.78112 0.0
H1172 H 0.71114 0.99144 0.70158 0.0
H1173 H 0.68769 0.99652 0.67673 0.0
H1174 H 0.64646 0.01507 0.72481 0.0
H1175 H 0.66995 0.00962 0.74951 0.0
H1176 H 0.72976 0.95479 0.71669 0.0
H1177 H 0.7162 0.93232 0.68878 0.0
H1178 H 0.65685 0.94092 0.71194 0.0
H1179 H 0.67056 0.96318 0.74022 0.0
H1180 H 0.75587 0.9551 0.7517 0.0
H1181 H 0.76109 0.92206 0.75814 0.0
H1182 H 0.70023 0.9131 0.7805 0.0
H1183 H 0.6953 0.94629 0.77424 0.0
H1184 H 0.77282 0.99481 0.77057 0.0
H1185 H 0.79484 0.98231 0.79272 0.0
H1186 H 0.74401 0.96176 0.82886 0.0
H1187 H 0.7221 0.97419 0.8066 0.0
H1188 H 0.75924 0.03231 0.75224 0.0
H1189 H 0.77507 0.06335 0.76781 0.0
H1190 H 0.74278 0.05406 0.82379 0.0
H1191 H 0.72656 0.02311 0.80787 0.0
O1192 O 0.65544 0.00526 0.66387 0.0
O1193 O 0.63494 0.01508 0.68913 0.0
O1194 O 0.75034 0.88879 0.77037 0.0
O1195 O 0.71916 0.88342 0.78196 0.0
C1196 C 0.71625 0.01221 0.75419 0.0
C1197 C 0.70617 0.99636 0.74242 0.0
C1198 C 0.70957 0.97701 0.74481 0.0
C1199 C 0.72235 0.97351 0.75963 0.0
C1200 C 0.73242 0.98938 0.77152 0.0
C1201 C 0.72984 0.00871 0.76831 0.0
C1202 C 0.7127 0.03256 0.75153 0.0
C1203 C 0.71822 0.04022 0.73332 0.0
C1204 C 0.71394 0.05893 0.73044 0.0
C1205 C 0.70435 0.07044 0.74585 0.0
C1206 C 0.69922 0.06292 0.76424 0.0
C1207 C 0.70329 0.0441 0.76702 0.0
C1208 C 0.69219 7e-05 0.72732 0.0
C1209 C 0.69702 0.99656 0.7067 0.0
C1210 C 0.68361 0.9995 0.69255 0.0
C1211 C 0.66518 0.00617 0.69878 0.0
C1212 C 0.66051 0.0099 0.7195 0.0
C1213 C 0.6739 0.00685 0.73363 0.0
C1214 C 0.70115 0.96064 0.73046 0.0
C1215 C 0.71385 0.95131 0.71616 0.0
C1216 C 0.70609 0.93851 0.70022 0.0
C1217 C 0.6855 0.93491 0.69829 0.0
C1218 C 0.67278 0.9435 0.71316 0.0
C1219 C 0.68056 0.95613 0.72927 0.0
C1220 C 0.72525 0.95311 0.76262 0.0
C1221 C 0.7437 0.94599 0.75802 0.0
C1222 C 0.74663 0.9271 0.76168 0.0
C1223 C 0.73109 0.91495 0.7699 0.0
C1224 C 0.71252 0.92207 0.7742 0.0
C1225 C 0.70964 0.94099 0.77058 0.0
C1226 C 0.74587 0.98543 0.787 0.0
C1227 C 0.7665 0.98813 0.78361 0.0
C1228 C 0.77904 0.98097 0.79626 0.0
C1229 C 0.77112 0.97104 0.8125 0.0
C1230 C 0.7505 0.96925 0.81639 0.0
C1231 C 0.738 0.97644 0.8038 0.0
C1232 C 0.74181 0.02551 0.77896 0.0
C1233 C 0.75592 0.03678 0.76799 0.0
C1234 C 0.765 0.05444 0.77692 0.0
C1235 C 0.76021 0.06103 0.79703 0.0
C1236 C 0.74667 0.04929 0.80824 0.0
C1237 C 0.73756 0.0316 0.79927 0.0
C1238 C 0.6509 0.00914 0.68371 0.0
C1239 C 0.73418 0.89495 0.77404 0.0
H1240 H 0.16111 0.6648 0.52852 0.0
H1241 H 0.33352 0.78892 0.41907 0.0
H1242 H 0.2427 0.75748 0.57503 0.0
H1243 H 0.22092 0.74435 0.6016 0.0
H1244 H 0.24046 0.6873 0.58447 0.0
H1245 H 0.26269 0.70065 0.55813 0.0
H1246 H 0.21852 0.73408 0.53809 0.0
H1247 H 0.19042 0.70878 0.53635 0.0
H1248 H 0.22939 0.66645 0.50992 0.0
H1249 H 0.25742 0.69186 0.51206 0.0
H1250 H 0.23635 0.74963 0.48908 0.0
H1251 H 0.23234 0.74332 0.45261 0.0
H1252 H 0.27757 0.70362 0.44807 0.0
H1253 H 0.28158 0.7101 0.4844 0.0
H1254 H 0.26733 0.7843 0.49619 0.0
H1255 H 0.28063 0.79967 0.46651 0.0
H1256 H 0.32495 0.75881 0.457 0.0
H1257 H 0.31152 0.74366 0.48676 0.0
H1258 H 0.28133 0.7993 0.53715 0.0
H1259 H 0.30472 0.82695 0.52888 0.0
H1260 H 0.35087 0.78843 0.51659 0.0
H1261 H 0.3275 0.76096 0.52545 0.0
H1262 H 0.27628 0.78633 0.57261 0.0
H1263 H 0.29504 0.79849 0.60253 0.0
H1264 H 0.32299 0.74494 0.59713 0.0
H1265 H 0.30447 0.73306 0.56691 0.0
O1266 O 0.1724 0.6746 0.52895 0.0
O1267 O 0.19298 0.65347 0.5151 0.0
O1268 O 0.30435 0.80323 0.4359 0.0
O1269 O 0.32796 0.78312 0.43085 0.0
C1270 C 0.26427 0.73731 0.54627 0.0
C1271 C 0.25704 0.73004 0.52706 0.0
C1272 C 0.26555 0.73796 0.50975 0.0
C1273 C 0.28045 0.75377 0.51166 0.0
C1274 C 0.28756 0.76115 0.53071 0.0
C1275 C 0.27991 0.75258 0.54799 0.0
C1276 C 0.25421 0.73001 0.56458 0.0
C1277 C 0.24273 0.74228 0.57736 0.0
C1278 C 0.23014 0.73472 0.59235 0.0
C1279 C 0.22874 0.71475 0.59476 0.0
C1280 C 0.24123 0.70273 0.58285 0.0
C1281 C 0.25388 0.71032 0.56784 0.0
C1282 C 0.23996 0.71479 0.52514 0.0
C1283 C 0.22093 0.71934 0.53188 0.0
C1284 C 0.20492 0.70486 0.53088 0.0
C1285 C 0.20765 0.68558 0.52298 0.0
C1286 C 0.22676 0.68115 0.51606 0.0
C1287 C 0.24278 0.69564 0.51717 0.0
C1288 C 0.25911 0.73016 0.48935 0.0
C1289 C 0.2448 0.73899 0.48029 0.0
C1290 C 0.24259 0.73543 0.4595 0.0
C1291 C 0.25473 0.72306 0.44757 0.0
C1292 C 0.26811 0.71328 0.45694 0.0
C1293 C 0.27026 0.71679 0.47767 0.0
C1294 C 0.28848 0.7629 0.49354 0.0
C1295 C 0.2799 0.77871 0.48764 0.0
C1296 C 0.28751 0.78744 0.4707 0.0
C1297 C 0.30385 0.78046 0.45937 0.0
C1298 C 0.31238 0.76456 0.46538 0.0
C1299 C 0.30474 0.75586 0.48233 0.0
C1300 C 0.30278 0.77819 0.532 0.0
C1301 C 0.29671 0.79702 0.53355 0.0
C1302 C 0.30999 0.81271 0.52854 0.0
C1303 C 0.32945 0.8097 0.52166 0.0
C1304 C 0.33595 0.79115 0.52185 0.0
C1305 C 0.32267 0.77547 0.52699 0.0
C1306 C 0.28917 0.75891 0.56752 0.0
C1307 C 0.28634 0.77719 0.57798 0.0
C1308 C 0.29699 0.78405 0.59509 0.0
C1309 C 0.31067 0.77275 0.60198 0.0
C1310 C 0.31283 0.75409 0.59193 0.0
C1311 C 0.30216 0.74723 0.57482 0.0
C1312 C 0.19063 0.67021 0.52206 0.0
C1313 C 0.31201 0.78967 0.44136 0.0
H1314 H 0.85713 0.673 0.54787 0.0
H1315 H 0.82731 0.77767 0.36819 0.0
H1316 H 0.78464 0.73937 0.54069 0.0
H1317 H 0.79041 0.7337 0.5752 0.0
H1318 H 0.82527 0.78965 0.58399 0.0
H1319 H 0.81968 0.79514 0.5493 0.0
H1320 H 0.80609 0.71631 0.50597 0.0
H1321 H 0.8239 0.69336 0.5213 0.0
H1322 H 0.86478 0.74135 0.54583 0.0
H1323 H 0.84701 0.7641 0.53014 0.0
H1324 H 0.79797 0.72644 0.46157 0.0
H1325 H 0.81423 0.70082 0.44081 0.0
H1326 H 0.87101 0.72646 0.46234 0.0
H1327 H 0.85465 0.75234 0.48295 0.0
H1328 H 0.77496 0.75952 0.45236 0.0
H1329 H 0.77656 0.76033 0.41591 0.0
H1330 H 0.83879 0.78138 0.41825 0.0
H1331 H 0.83692 0.78071 0.45473 0.0
H1332 H 0.75356 0.78156 0.48802 0.0
H1333 H 0.7353 0.80453 0.47315 0.0
H1334 H 0.79064 0.83719 0.45738 0.0
H1335 H 0.80877 0.81458 0.47302 0.0
H1336 H 0.75715 0.7706 0.53036 0.0
H1337 H 0.73185 0.7917 0.54415 0.0
H1338 H 0.77257 0.84256 0.53516 0.0
H1339 H 0.79771 0.82135 0.5211 0.0
O1340 O 0.85039 0.68231 0.54182 0.0
O1341 O 0.87078 0.70754 0.55439 0.0
O1342 O 0.79421 0.76649 0.38221 0.0
O1343 O 0.82625 0.77726 0.38259 0.0
C1344 C 0.80274 0.76858 0.52045 0.0
C1345 C 0.81423 0.75581 0.50791 0.0
C1346 C 0.81493 0.75612 0.48685 0.0
C1347 C 0.80479 0.76968 0.47833 0.0
C1348 C 0.79349 0.78258 0.49085 0.0
C1349 C 0.79233 0.7819 0.51193 0.0
C1350 C 0.80182 0.76763 0.54249 0.0
C1351 C 0.79303 0.75065 0.55026 0.0
C1352 C 0.79643 0.74738 0.56987 0.0
C1353 C 0.80837 0.7612 0.58213 0.0
C1354 C 0.81588 0.77886 0.57486 0.0
C1355 C 0.81264 0.78205 0.55512 0.0
C1356 C 0.82531 0.74184 0.5169 0.0
C1357 C 0.81898 0.7218 0.51453 0.0
C1358 C 0.82915 0.70874 0.52336 0.0
C1359 C 0.84576 0.71552 0.5348 0.0
C1360 C 0.85205 0.73564 0.53711 0.0
C1361 C 0.84193 0.74866 0.52819 0.0
C1362 C 0.82515 0.74129 0.47363 0.0
C1363 C 0.81395 0.7267 0.46158 0.0
C1364 C 0.82322 0.71212 0.44977 0.0
C1365 C 0.84384 0.71184 0.44993 0.0
C1366 C 0.85508 0.72643 0.46202 0.0
C1367 C 0.8458 0.74117 0.4737 0.0
C1368 C 0.80579 0.77016 0.45618 0.0
C1369 C 0.78888 0.76441 0.44498 0.0
C1370 C 0.78986 0.76483 0.42416 0.0
C1371 C 0.80781 0.77094 0.41416 0.0
C1372 C 0.82474 0.77661 0.42546 0.0
C1373 C 0.82372 0.77622 0.44629 0.0
C1374 C 0.78247 0.79651 0.48176 0.0
C1375 C 0.76171 0.79381 0.48157 0.0
C1376 C 0.75134 0.80683 0.47296 0.0
C1377 C 0.76155 0.82272 0.46426 0.0
C1378 C 0.78237 0.82531 0.46434 0.0
C1379 C 0.79273 0.81234 0.47308 0.0
C1380 C 0.77919 0.79447 0.52466 0.0
C1381 C 0.76079 0.78629 0.53193 0.0
C1382 C 0.74635 0.79834 0.53969 0.0
C1383 C 0.75013 0.81873 0.54026 0.0
C1384 C 0.76913 0.82688 0.53441 0.0
C1385 C 0.78355 0.81483 0.52663 0.0
C1386 C 0.85644 0.70162 0.54429 0.0
C1387 C 0.80893 0.7714 0.39204 0.0
H1388 H 0.65696 0.17717 0.5604 0.0
H1389 H 0.80725 0.27392 0.41407 0.0
H1390 H 0.73459 0.26361 0.58161 0.0
H1391 H 0.71789 0.25275 0.61215 0.0
H1392 H 0.75949 0.20988 0.61262 0.0
H1393 H 0.77661 0.22141 0.58229 0.0
H1394 H 0.71437 0.24275 0.5426 0.0
H1395 H 0.68615 0.21887 0.54907 0.0
H1396 H 0.72661 0.17657 0.55704 0.0
H1397 H 0.75467 0.20059 0.55043 0.0
H1398 H 0.7324 0.25928 0.50288 0.0
H1399 H 0.71502 0.24452 0.47286 0.0
H1400 H 0.7419 0.19118 0.4751 0.0
H1401 H 0.75929 0.20608 0.5052 0.0
H1402 H 0.76583 0.29114 0.50614 0.0
H1403 H 0.77453 0.30155 0.47287 0.0
H1404 H 0.80155 0.24806 0.45553 0.0
H1405 H 0.79306 0.238 0.48903 0.0
H1406 H 0.78214 0.30601 0.54521 0.0
H1407 H 0.80238 0.33193 0.52923 0.0
H1408 H 0.84206 0.29017 0.50348 0.0
H1409 H 0.82183 0.26443 0.51946 0.0
H1410 H 0.76878 0.28626 0.58906 0.0
H1411 H 0.78832 0.29958 0.61816 0.0
H1412 H 0.83863 0.27185 0.59099 0.0
H1413 H 0.81879 0.25787 0.5622 0.0
O1414 O 0.66832 0.18632 0.55768 0.0
O1415 O 0.68974 0.16506 0.56144 0.0
O1416 O 0.79 0.29764 0.4372 0.0
O1417 O 0.80363 0.27015 0.42734 0.0
C1418 C 0.76412 0.24758 0.55945 0.0
C1419 C 0.75355 0.23811 0.54285 0.0
C1420 C 0.75865 0.24324 0.52338 0.0
C1421 C 0.77421 0.25794 0.52046 0.0
C1422 C 0.78509 0.26719 0.53698 0.0
C1423 C 0.78023 0.26185 0.5565 0.0
C1424 C 0.75689 0.24342 0.57991 0.0
C1425 C 0.74048 0.25231 0.58869 0.0
C1426 C 0.73086 0.24595 0.60598 0.0
C1427 C 0.73732 0.2304 0.6147 0.0
C1428 C 0.75436 0.22208 0.6064 0.0
C1429 C 0.76414 0.22862 0.58911 0.0
C1430 C 0.7365 0.22335 0.54605 0.0
C1431 C 0.71707 0.22827 0.54562 0.0
C1432 C 0.701 0.21463 0.54938 0.0
C1433 C 0.70412 0.19582 0.55361 0.0
C1434 C 0.72368 0.19093 0.55386 0.0
C1435 C 0.73973 0.20459 0.55009 0.0
C1436 C 0.7472 0.23378 0.50604 0.0
C1437 C 0.7345 0.2444 0.49689 0.0
C1438 C 0.72469 0.23601 0.47975 0.0
C1439 C 0.72742 0.21685 0.47155 0.0
C1440 C 0.73963 0.206 0.48114 0.0
C1441 C 0.74952 0.21445 0.49826 0.0
C1442 C 0.77897 0.2639 0.50001 0.0
C1443 C 0.77371 0.28174 0.49516 0.0
C1444 C 0.77865 0.28763 0.47613 0.0
C1445 C 0.78878 0.27565 0.46154 0.0
C1446 C 0.79379 0.25765 0.46641 0.0
C1447 C 0.78893 0.25184 0.4855 0.0
C1448 C 0.80056 0.28337 0.53349 0.0
C1449 C 0.79573 0.30268 0.53691 0.0
C1450 C 0.80714 0.3174 0.52762 0.0
C1451 C 0.8237 0.31301 0.51508 0.0
C1452 C 0.82954 0.29402 0.51328 0.0
C1453 C 0.81804 0.27931 0.52244 0.0
C1454 C 0.79225 0.27081 0.57367 0.0
C1455 C 0.78391 0.28281 0.5895 0.0
C1456 C 0.79506 0.29042 0.60605 0.0
C1457 C 0.81483 0.28647 0.60683 0.0
C1458 C 0.82336 0.27496 0.59071 0.0
C1459 C 0.81209 0.26706 0.57432 0.0
C1460 C 0.68702 0.18142 0.55781 0.0
C1461 C 0.79413 0.28187 0.44133 0.0
H1462 H 0.18903 0.41268 0.55762 0.0
H1463 H 0.2617 0.27292 0.38367 0.0
H1464 H 0.26583 0.34644 0.5637 0.0
H1465 H 0.2496 0.35479 0.59685 0.0
H1466 H 0.21084 0.30116 0.58873 0.0
H1467 H 0.22712 0.29284 0.55582 0.0
H1468 H 0.25094 0.36492 0.5228 0.0
H1469 H 0.22885 0.38954 0.53589 0.0
H1470 H 0.18446 0.34373 0.55191 0.0
H1471 H 0.20653 0.31928 0.53842 0.0
H1472 H 0.26112 0.34692 0.47422 0.0
H1473 H 0.24108 0.36185 0.45187 0.0
H1474 H 0.18815 0.33018 0.47489 0.0
H1475 H 0.20821 0.31462 0.49649 0.0
H1476 H 0.29337 0.32022 0.47041 0.0
H1477 H 0.29869 0.31177 0.43417 0.0
H1478 H 0.24234 0.27612 0.43264 0.0
H1479 H 0.23733 0.28454 0.46893 0.0
H1480 H 0.31102 0.30418 0.49656 0.0
H1481 H 0.33276 0.27853 0.48509 0.0
H1482 H 0.2836 0.23456 0.49232 0.0
H1483 H 0.26198 0.26018 0.50348 0.0
H1484 H 0.30516 0.31318 0.54108 0.0
H1485 H 0.32394 0.29582 0.56231 0.0
H1486 H 0.27292 0.25384 0.56906 0.0
H1487 H 0.25432 0.27111 0.54757 0.0
O1488 O 0.19747 0.4027 0.55239 0.0
O1489 O 0.17527 0.37862 0.56062 0.0
O1490 O 0.28903 0.29465 0.39967 0.0
O1491 O 0.26004 0.27639 0.39802 0.0
C1492 C 0.25372 0.31613 0.53593 0.0
C1493 C 0.24413 0.3256 0.52224 0.0
C1494 C 0.24785 0.32134 0.50133 0.0
C1495 C 0.26178 0.30815 0.49417 0.0
C1496 C 0.27179 0.29917 0.50795 0.0
C1497 C 0.26772 0.30311 0.52881 0.0
C1498 C 0.24776 0.31895 0.55754 0.0
C1499 C 0.25437 0.33618 0.56946 0.0
C1500 C 0.24509 0.34093 0.58827 0.0
C1501 C 0.22903 0.32857 0.59514 0.0
C1502 C 0.22325 0.31082 0.58368 0.0
C1503 C 0.23264 0.30599 0.56504 0.0
C1504 C 0.23041 0.34036 0.52986 0.0
C1505 C 0.23641 0.36026 0.5291 0.0
C1506 C 0.22378 0.37427 0.53661 0.0
C1507 C 0.20492 0.36861 0.54503 0.0
C1508 C 0.19891 0.3486 0.5456 0.0
C1509 C 0.21152 0.33461 0.538 0.0
C1510 C 0.23611 0.32977 0.48706 0.0
C1511 C 0.24525 0.34298 0.47421 0.0
C1512 C 0.23385 0.35151 0.46155 0.0
C1513 C 0.21317 0.34714 0.46186 0.0
C1514 C 0.20408 0.33379 0.47455 0.0
C1515 C 0.21549 0.32498 0.48687 0.0
C1516 C 0.26504 0.30288 0.47226 0.0
C1517 C 0.28228 0.31047 0.46223 0.0
C1518 C 0.28524 0.30567 0.44153 0.0
C1519 C 0.27094 0.29324 0.4305 0.0
C1520 C 0.25365 0.2857 0.44066 0.0
C1521 C 0.25075 0.29048 0.46138 0.0
C1522 C 0.28494 0.28396 0.50059 0.0
C1523 C 0.30499 0.289 0.49553 0.0
C1524 C 0.31735 0.27442 0.48914 0.0
C1525 C 0.30985 0.25465 0.48812 0.0
C1526 C 0.28979 0.2497 0.49336 0.0
C1527 C 0.27742 0.26426 0.49951 0.0
C1528 C 0.27832 0.29355 0.54307 0.0
C1529 C 0.29801 0.30035 0.54732 0.0
C1530 C 0.30872 0.29037 0.55927 0.0
C1531 C 0.29985 0.27347 0.56717 0.0
C1532 C 0.28001 0.2669 0.5632 0.0
C1533 C 0.26937 0.27679 0.55108 0.0
C1534 C 0.19161 0.38354 0.55316 0.0
C1535 C 0.27396 0.28819 0.40849 0.0
H1536 H 0.86695 0.5114 0.66369 0.0
H1537 H 0.77919 0.66553 0.81557 0.0
H1538 H 0.79174 0.49659 0.74322 0.0
H1539 H 0.80636 0.46713 0.7285 0.0
H1540 H 0.84747 0.47428 0.77635 0.0
H1541 H 0.83262 0.50382 0.79115 0.0
H1542 H 0.80485 0.53447 0.72283 0.0
H1543 H 0.82692 0.52565 0.69388 0.0
H1544 H 0.87364 0.52168 0.73408 0.0
H1545 H 0.85147 0.53071 0.76287 0.0
H1546 H 0.78408 0.57279 0.7428 0.0
H1547 H 0.7942 0.60054 0.72367 0.0
H1548 H 0.85395 0.60234 0.74322 0.0
H1549 H 0.84368 0.57476 0.76263 0.0
H1550 H 0.75723 0.57251 0.77852 0.0
H1551 H 0.74716 0.60538 0.78726 0.0
H1552 H 0.80559 0.62511 0.80883 0.0
H1553 H 0.81537 0.59209 0.80027 0.0
H1554 H 0.74605 0.53487 0.79269 0.0
H1555 H 0.7198 0.54417 0.81746 0.0
H1556 H 0.76412 0.57242 0.85792 0.0
H1557 H 0.79036 0.56326 0.83296 0.0
H1558 H 0.76317 0.49712 0.77904 0.0
H1559 H 0.74491 0.47402 0.80016 0.0
H1560 H 0.78224 0.49659 0.84943 0.0
H1561 H 0.80044 0.51977 0.82822 0.0
O1562 O 0.8586 0.51527 0.67532 0.0
O1563 O 0.88224 0.5138 0.69661 0.0
O1564 O 0.75287 0.64144 0.80096 0.0
O1565 O 0.78274 0.65236 0.81207 0.0
C1566 C 0.8054 0.52224 0.77412 0.0
C1567 C 0.81279 0.53741 0.76246 0.0
C1568 C 0.80647 0.55621 0.76709 0.0
C1569 C 0.7931 0.55996 0.78363 0.0
C1570 C 0.78558 0.54476 0.79511 0.0
C1571 C 0.79183 0.52592 0.79044 0.0
C1572 C 0.8112 0.50232 0.76817 0.0
C1573 C 0.80355 0.4915 0.75082 0.0
C1574 C 0.81202 0.47484 0.74234 0.0
C1575 C 0.82829 0.46876 0.75109 0.0
C1576 C 0.83498 0.47877 0.76932 0.0
C1577 C 0.82649 0.49552 0.7778 0.0
C1578 C 0.8266 0.53328 0.74491 0.0
C1579 C 0.81993 0.5319 0.72532 0.0
C1580 C 0.83254 0.52677 0.70882 0.0
C1581 C 0.85204 0.52292 0.71166 0.0
C1582 C 0.85872 0.52454 0.73136 0.0
C1583 C 0.8461 0.52971 0.74782 0.0
C1584 C 0.81313 0.57187 0.75419 0.0
C1585 C 0.79938 0.57911 0.74286 0.0
C1586 C 0.80515 0.59488 0.73195 0.0
C1587 C 0.82484 0.60344 0.73193 0.0
C1588 C 0.83875 0.59578 0.74277 0.0
C1589 C 0.83291 0.58012 0.75388 0.0
C1590 C 0.78696 0.57991 0.78894 0.0
C1591 C 0.76776 0.58391 0.7853 0.0
C1592 C 0.76208 0.60272 0.79022 0.0
C1593 C 0.77557 0.61788 0.79877 0.0
C1594 C 0.79484 0.61378 0.8023 0.0
C1595 C 0.80047 0.59495 0.79742 0.0
C1596 C 0.77005 0.54837 0.81111 0.0
C1597 C 0.75008 0.54277 0.80705 0.0
C1598 C 0.73516 0.54814 0.8211 0.0
C1599 C 0.74003 0.55893 0.83953 0.0
C1600 C 0.76006 0.56391 0.84388 0.0
C1601 C 0.775 0.55875 0.8297 0.0
C1602 C 0.78317 0.50998 0.8021 0.0
C1603 C 0.76771 0.49674 0.79423 0.0
C1604 C 0.75725 0.48369 0.8063 0.0
C1605 C 0.76224 0.48359 0.82636 0.0
C1606 C 0.7783 0.49628 0.83395 0.0
C1607 C 0.78866 0.50947 0.82189 0.0
C1608 C 0.86527 0.51709 0.69414 0.0
C1609 C 0.76964 0.6379 0.80397 0.0
H1610 H 0.32948 0.51919 0.89112 0.0
H1611 H 0.21297 0.66847 0.79965 0.0
H1612 H 0.26832 0.50528 0.7891 0.0
H1613 H 0.27931 0.47434 0.79659 0.0
H1614 H 0.23851 0.47407 0.84819 0.0
H1615 H 0.22794 0.50532 0.841 0.0
H1616 H 0.28977 0.53106 0.81891 0.0
H1617 H 0.31092 0.52451 0.84523 0.0
H1618 H 0.26668 0.54256 0.89042 0.0
H1619 H 0.24557 0.54882 0.86391 0.0
H1620 H 0.28884 0.57311 0.81129 0.0
H1621 H 0.30704 0.60519 0.82003 0.0
H1622 H 0.25759 0.62253 0.85868 0.0
H1623 H 0.23944 0.59028 0.84996 0.0
H1624 H 0.26144 0.589 0.7821 0.0
H1625 H 0.25825 0.62277 0.77646 0.0
H1626 H 0.20489 0.6221 0.81476 0.0
H1627 H 0.20832 0.58835 0.8203 0.0
H1628 H 0.23813 0.55676 0.75529 0.0
H1629 H 0.21977 0.57377 0.73347 0.0
H1630 H 0.16977 0.57185 0.77602 0.0
H1631 H 0.18817 0.55465 0.79772 0.0
H1632 H 0.23857 0.51938 0.75724 0.0
H1633 H 0.22563 0.48893 0.73767 0.0
H1634 H 0.18841 0.47362 0.78891 0.0
H1635 H 0.20109 0.50423 0.80828 0.0
O1636 O 0.32093 0.52198 0.88096 0.0
O1637 O 0.29783 0.53165 0.90361 0.0
O1638 O 0.2414 0.65431 0.78106 0.0
O1639 O 0.21451 0.65508 0.80149 0.0
C1640 C 0.24313 0.52755 0.81175 0.0
C1641 C 0.25294 0.54354 0.82359 0.0
C1642 C 0.2503 0.56271 0.82016 0.0
C1643 C 0.23742 0.566 0.80539 0.0
C1644 C 0.22743 0.55009 0.79365 0.0
C1645 C 0.2304 0.53083 0.79671 0.0
C1646 C 0.24731 0.50746 0.81448 0.0
C1647 C 0.26149 0.49834 0.80179 0.0
C1648 C 0.26779 0.4808 0.8061 0.0
C1649 C 0.25968 0.47196 0.82291 0.0
C1650 C 0.24483 0.48063 0.83508 0.0
C1651 C 0.23879 0.49837 0.83098 0.0
C1652 C 0.26611 0.54026 0.83954 0.0
C1653 C 0.28467 0.53352 0.8345 0.0
C1654 C 0.29673 0.52983 0.84957 0.0
C1655 C 0.29047 0.53295 0.86994 0.0
C1656 C 0.27193 0.53996 0.87489 0.0
C1657 C 0.25987 0.54359 0.8598 0.0
C1658 C 0.26286 0.57949 0.82998 0.0
C1659 C 0.28225 0.58356 0.82223 0.0
C1660 C 0.29251 0.60188 0.82706 0.0
C1661 C 0.28349 0.61626 0.83971 0.0
C1662 C 0.26477 0.61159 0.84887 0.0
C1663 C 0.25446 0.59325 0.84398 0.0
C1664 C 0.2351 0.5863 0.80158 0.0
C1665 C 0.24906 0.59619 0.7892 0.0
C1666 C 0.2472 0.61545 0.78602 0.0
C1667 C 0.23133 0.62515 0.79521 0.0
C1668 C 0.21731 0.61509 0.80751 0.0
C1669 C 0.21918 0.59582 0.81066 0.0
C1670 C 0.2144 0.55427 0.77797 0.0
C1671 C 0.22288 0.55918 0.75944 0.0
C1672 C 0.21246 0.56903 0.74709 0.0
C1673 C 0.19351 0.57433 0.75325 0.0
C1674 C 0.18445 0.56806 0.77106 0.0
C1675 C 0.19482 0.55804 0.78332 0.0
C1676 C 0.22064 0.51401 0.78409 0.0
C1677 C 0.2272 0.50972 0.76402 0.0
C1678 C 0.21988 0.49237 0.75291 0.0
C1679 C 0.20608 0.47907 0.76187 0.0
C1680 C 0.19909 0.4837 0.78176 0.0
C1681 C 0.20623 0.50112 0.79276 0.0
C1682 C 0.30324 0.52886 0.8859 0.0
C1683 C 0.22944 0.64571 0.7921 0.0
H1684 H 0.17846 0.56794 0.31986 0.0
H1685 H 0.28927 0.38335 0.26062 0.0
H1686 H 0.25098 0.55249 0.23874 0.0
H1687 H 0.25081 0.58796 0.24692 0.0
H1688 H 0.30234 0.58926 0.28229 0.0
H1689 H 0.30252 0.55397 0.27387 0.0
H1690 H 0.22458 0.52469 0.25695 0.0
H1691 H 0.20088 0.54195 0.27925 0.0
H1692 H 0.24367 0.55191 0.32581 0.0
H1693 H 0.26719 0.53455 0.30331 0.0
H1694 H 0.22347 0.48556 0.26108 0.0
H1695 H 0.20077 0.4716 0.28673 0.0
H1696 H 0.24971 0.47298 0.32552 0.0
H1697 H 0.27221 0.48727 0.30004 0.0
H1698 H 0.25763 0.46068 0.22628 0.0
H1699 H 0.25806 0.42523 0.2244 0.0
H1700 H 0.29738 0.4332 0.27401 0.0
H1701 H 0.29683 0.46861 0.27563 0.0
H1702 H 0.2915 0.48928 0.19948 0.0
H1703 H 0.31768 0.47393 0.17873 0.0
H1704 H 0.3509 0.4735 0.23184 0.0
H1705 H 0.3244 0.4883 0.25246 0.0
H1706 H 0.28251 0.53782 0.20806 0.0
H1707 H 0.30556 0.56022 0.19015 0.0
H1708 H 0.35263 0.55027 0.22733 0.0
H1709 H 0.32935 0.52839 0.24559 0.0
O1710 O 0.18801 0.56106 0.31134 0.0
O1711 O 0.21055 0.56586 0.33475 0.0
O1712 O 0.26875 0.39399 0.23545 0.0
O1713 O 0.28882 0.39728 0.26103 0.0
C1714 C 0.27568 0.52917 0.25295 0.0
C1715 C 0.26194 0.51827 0.26486 0.0
C1716 C 0.26266 0.49799 0.26456 0.0
C1717 C 0.27688 0.48852 0.25202 0.0
C1718 C 0.29052 0.4994 0.23993 0.0
C1719 C 0.28984 0.51972 0.2403 0.0
C1720 C 0.27673 0.55076 0.25577 0.0
C1721 C 0.26233 0.56053 0.24805 0.0
C1722 C 0.26219 0.58069 0.25284 0.0
C1723 C 0.27641 0.59127 0.26546 0.0
C1724 C 0.29125 0.58148 0.27248 0.0
C1725 C 0.29138 0.56137 0.2677 0.0
C1726 C 0.24751 0.52837 0.27859 0.0
C1727 C 0.22874 0.53056 0.272 0.0
C1728 C 0.21526 0.54044 0.28476 0.0
C1729 C 0.22038 0.54832 0.30432 0.0
C1730 C 0.23925 0.54602 0.31084 0.0
C1731 C 0.2527 0.53611 0.29807 0.0
C1732 C 0.24946 0.48717 0.27867 0.0
C1733 C 0.22929 0.48256 0.275 0.0
C1734 C 0.21639 0.47475 0.28964 0.0
C1735 C 0.2236 0.47122 0.30798 0.0
C1736 C 0.2439 0.47537 0.31138 0.0
C1737 C 0.25673 0.48341 0.29685 0.0
C1738 C 0.27713 0.46711 0.25113 0.0
C1739 C 0.26629 0.4547 0.23673 0.0
C1740 C 0.26658 0.43449 0.23569 0.0
C1741 C 0.27775 0.42637 0.24908 0.0
C1742 C 0.28861 0.43894 0.26349 0.0
C1743 C 0.28831 0.45916 0.26449 0.0
C1744 C 0.30602 0.48966 0.22744 0.0
C1745 C 0.30436 0.48568 0.20659 0.0
C1746 C 0.31935 0.47705 0.1948 0.0
C1747 C 0.33624 0.47234 0.20371 0.0
C1748 C 0.33786 0.47652 0.22462 0.0
C1749 C 0.32281 0.48502 0.23639 0.0
C1750 C 0.30432 0.53141 0.22801 0.0
C1751 C 0.29788 0.54026 0.2121 0.0
C1752 C 0.31107 0.55291 0.2018 0.0
C1753 C 0.33091 0.55683 0.20725 0.0
C1754 C 0.33742 0.54748 0.22284 0.0
C1755 C 0.32421 0.53491 0.23316 0.0
C1756 C 0.20608 0.55895 0.31777 0.0
C1757 C 0.27812 0.40491 0.24804 0.0
H1758 H 0.67312 0.53904 0.18 0.0
H1759 H 0.71168 0.37476 0.29361 0.0
H1760 H 0.75698 0.53922 0.24271 0.0
H1761 H 0.75488 0.5733 0.23732 0.0
H1762 H 0.73047 0.5847 0.29784 0.0
H1763 H 0.73232 0.55047 0.30306 0.0
H1764 H 0.73094 0.50423 0.22236 0.0
H1765 H 0.70967 0.51662 0.19954 0.0
H1766 H 0.67741 0.54403 0.25064 0.0
H1767 H 0.69856 0.53121 0.27331 0.0
H1768 H 0.73731 0.46207 0.23367 0.0
H1769 H 0.71619 0.44453 0.20761 0.0
H1770 H 0.66499 0.46797 0.23834 0.0
H1771 H 0.68619 0.48531 0.26464 0.0
H1772 H 0.76516 0.45437 0.26549 0.0
H1773 H 0.7619 0.41929 0.26831 0.0
H1774 H 0.70312 0.42328 0.29569 0.0
H1775 H 0.70667 0.45839 0.29297 0.0
H1776 H 0.79182 0.48973 0.28466 0.0
H1777 H 0.81287 0.47528 0.30619 0.0
H1778 H 0.76205 0.46159 0.34549 0.0
H1779 H 0.74108 0.4764 0.32404 0.0
H1780 H 0.7903 0.52885 0.27522 0.0
H1781 H 0.81754 0.5439 0.29609 0.0
H1782 H 0.7789 0.54026 0.34922 0.0
H1783 H 0.75202 0.52445 0.32826 0.0
O1784 O 0.68148 0.53445 0.18931 0.0
O1785 O 0.66558 0.54856 0.21607 0.0
O1786 O 0.74365 0.38735 0.27816 0.0
O1787 O 0.71335 0.3886 0.29228 0.0
C1788 C 0.74254 0.52102 0.27507 0.0
C1789 C 0.72866 0.50853 0.26333 0.0
C1790 C 0.72665 0.48817 0.2646 0.0
C1791 C 0.73835 0.48028 0.27776 0.0
C1792 C 0.7522 0.49271 0.28951 0.0
C1793 C 0.75426 0.51306 0.28818 0.0
C1794 C 0.74475 0.54234 0.27326 0.0
C1795 C 0.75153 0.54916 0.25494 0.0
C1796 C 0.75025 0.56856 0.25185 0.0
C1797 C 0.74248 0.58158 0.26715 0.0
C1798 C 0.73672 0.57501 0.28588 0.0
C1799 C 0.7378 0.55551 0.28889 0.0
C1800 C 0.71624 0.51677 0.24948 0.0
C1801 C 0.71925 0.51289 0.22859 0.0
C1802 C 0.7071 0.52001 0.21559 0.0
C1803 C 0.69182 0.53129 0.22326 0.0
C1804 C 0.68903 0.53537 0.24423 0.0
C1805 C 0.70112 0.52813 0.25722 0.0
C1806 C 0.71329 0.47505 0.25096 0.0
C1807 C 0.72146 0.46298 0.2351 0.0
C1808 C 0.70941 0.453 0.22024 0.0
C1809 C 0.68905 0.45511 0.22093 0.0
C1810 C 0.6807 0.46631 0.23742 0.0
C1811 C 0.69274 0.47614 0.25241 0.0
C1812 C 0.73619 0.45891 0.27911 0.0
C1813 C 0.75163 0.44764 0.27215 0.0
C1814 C 0.74971 0.42761 0.27374 0.0
C1815 C 0.73225 0.41848 0.28226 0.0
C1816 C 0.71676 0.42983 0.28907 0.0
C1817 C 0.71872 0.44988 0.2875 0.0
C1818 C 0.76496 0.48429 0.3029 0.0
C1819 C 0.78529 0.4839 0.29809 0.0
C1820 C 0.79728 0.47568 0.31039 0.0
C1821 C 0.78909 0.46752 0.32759 0.0
C1822 C 0.7687 0.46782 0.33233 0.0
C1823 C 0.75675 0.47625 0.32013 0.0
C1824 C 0.76921 0.52572 0.30026 0.0
C1825 C 0.78763 0.53177 0.29132 0.0
C1826 C 0.80315 0.54034 0.30326 0.0
C1827 C 0.80035 0.54329 0.32431 0.0
C1828 C 0.78155 0.53798 0.33308 0.0
C1829 C 0.76613 0.52921 0.32115 0.0
C1830 C 0.67881 0.53866 0.20941 0.0
C1831 C 0.73017 0.39721 0.28407 0.0
H1832 H 0.44528 0.39625 0.88428 0.0
H1833 H 0.63225 0.31151 0.76754 0.0
H1834 H 0.45424 0.3012 0.79826 0.0
H1835 H 0.42097 0.3078 0.81121 0.0
H1836 H 0.42972 0.3645 0.78969 0.0
H1837 H 0.46303 0.35772 0.77642 0.0
H1838 H 0.47508 0.33104 0.83239 0.0
H1839 H 0.46073 0.35426 0.85793 0.0
H1840 H 0.48392 0.40165 0.82393 0.0
H1841 H 0.49812 0.3782 0.79844 0.0
H1842 H 0.52546 0.32753 0.83385 0.0
H1843 H 0.54981 0.34627 0.85635 0.0
H1844 H 0.56122 0.38919 0.81421 0.0
H1845 H 0.53685 0.37046 0.79194 0.0
H1846 H 0.53914 0.29502 0.80365 0.0
H1847 H 0.5737 0.28771 0.80207 0.0
H1848 H 0.58885 0.33179 0.76159 0.0
H1849 H 0.5542 0.33883 0.76325 0.0
H1850 H 0.51004 0.27189 0.77842 0.0
H1851 H 0.5308 0.24747 0.76185 0.0
H1852 H 0.55092 0.28621 0.71729 0.0
H1853 H 0.52976 0.31046 0.73376 0.0
H1854 H 0.47455 0.27453 0.76872 0.0
H1855 H 0.454 0.2559 0.74268 0.0
H1856 H 0.45569 0.30726 0.71158 0.0
H1857 H 0.47629 0.3258 0.7377 0.0
O1858 O 0.45133 0.38737 0.87415 0.0
O1859 O 0.4643 0.41133 0.85659 0.0
O1860 O 0.61003 0.29198 0.78972 0.0
O1861 O 0.61854 0.31428 0.76866 0.0
C1862 C 0.48269 0.32715 0.78421 0.0
C1863 C 0.49558 0.3387 0.79783 0.0
C1864 C 0.51582 0.33583 0.79722 0.0
C1865 C 0.5231 0.32097 0.78362 0.0
C1866 C 0.51026 0.30918 0.77024 0.0
C1867 C 0.49013 0.31257 0.77016 0.0
C1868 C 0.46109 0.32902 0.78651 0.0
C1869 C 0.44871 0.31472 0.79558 0.0
C1870 C 0.42981 0.31856 0.80311 0.0
C1871 C 0.42302 0.33676 0.80167 0.0
C1872 C 0.43467 0.35037 0.79093 0.0
C1873 C 0.45363 0.34651 0.78337 0.0
C1874 C 0.48763 0.35298 0.81363 0.0
C1875 C 0.47709 0.34645 0.83055 0.0
C1876 C 0.46888 0.35974 0.84508 0.0
C1877 C 0.47111 0.37981 0.84294 0.0
C1878 C 0.48191 0.3863 0.82603 0.0
C1879 C 0.4901 0.37297 0.81149 0.0
C1880 C 0.52937 0.34779 0.81142 0.0
C1881 C 0.53305 0.34113 0.82968 0.0
C1882 C 0.54694 0.35177 0.84242 0.0
C1883 C 0.55718 0.36927 0.8371 0.0
C1884 C 0.55321 0.37599 0.81888 0.0
C1885 C 0.53941 0.3653 0.80613 0.0
C1886 C 0.54426 0.31744 0.78358 0.0
C1887 C 0.55 0.30314 0.79456 0.0
C1888 C 0.56972 0.29898 0.79359 0.0
C1889 C 0.58404 0.30914 0.78166 0.0
C1890 C 0.57821 0.32367 0.7709 0.0
C1891 C 0.55847 0.32778 0.77186 0.0
C1892 C 0.51823 0.29283 0.75714 0.0
C1893 C 0.5183 0.27477 0.76461 0.0
C1894 C 0.53038 0.26099 0.75533 0.0
C1895 C 0.54272 0.26514 0.73854 0.0
C1896 C 0.54153 0.28266 0.73021 0.0
C1897 C 0.52939 0.29645 0.7395 0.0
C1898 C 0.47706 0.30143 0.75494 0.0
C1899 C 0.47055 0.28172 0.75625 0.0
C1900 C 0.45881 0.27114 0.74142 0.0
C1901 C 0.45326 0.28018 0.72516 0.0
C1902 C 0.45956 0.30002 0.72408 0.0
C1903 C 0.47136 0.31057 0.73889 0.0
C1904 C 0.4621 0.39384 0.85826 0.0
C1905 C 0.60495 0.30457 0.78032 0.0
H1906 H 0.48378 0.66506 0.86609 0.0
H1907 H 0.67159 0.77906 0.79812 0.0
H1908 H 0.49195 0.72416 0.77974 0.0
H1909 H 0.45573 0.72432 0.78188 0.0
H1910 H 0.4623 0.78218 0.81418 0.0
H1911 H 0.49835 0.78197 0.81178 0.0
H1912 H 0.52657 0.70355 0.80107 0.0
H1913 H 0.50984 0.68237 0.82491 0.0
H1914 H 0.49388 0.73329 0.86347 0.0
H1915 H 0.51086 0.7543 0.8396 0.0
H1916 H 0.57235 0.71465 0.7878 0.0
H1917 H 0.59162 0.69577 0.80692 0.0
H1918 H 0.57488 0.73035 0.86184 0.0
H1919 H 0.55603 0.74946 0.84256 0.0
H1920 H 0.58538 0.74574 0.75699 0.0
H1921 H 0.62163 0.75027 0.75433 0.0
H1922 H 0.62259 0.77922 0.81509 0.0
H1923 H 0.58635 0.7748 0.81745 0.0
H1924 H 0.55161 0.763 0.73639 0.0
H1925 H 0.56986 0.78437 0.71351 0.0
H1926 H 0.59125 0.82348 0.76449 0.0
H1927 H 0.57245 0.80236 0.78726 0.0
H1928 H 0.50873 0.74962 0.74659 0.0
H1929 H 0.48503 0.76472 0.72861 0.0
H1930 H 0.49904 0.81944 0.76529 0.0
H1931 H 0.52279 0.8042 0.78326 0.0
O1932 O 0.49025 0.6737 0.85684 0.0
O1933 O 0.48223 0.70034 0.87601 0.0
O1934 O 0.65597 0.76208 0.76759 0.0
O1935 O 0.65726 0.77705 0.79877 0.0
C1936 C 0.5195 0.75385 0.79285 0.0
C1937 C 0.53038 0.74324 0.80431 0.0
C1938 C 0.55129 0.74488 0.80216 0.0
C1939 C 0.56125 0.75748 0.78889 0.0
C1940 C 0.55025 0.76791 0.77724 0.0
C1941 C 0.52937 0.76577 0.77894 0.0
C1942 C 0.49766 0.75303 0.79566 0.0
C1943 C 0.48549 0.73672 0.78749 0.0
C1944 C 0.46489 0.73684 0.78874 0.0
C1945 C 0.45627 0.75326 0.79823 0.0
C1946 C 0.46858 0.76942 0.80665 0.0
C1947 C 0.4891 0.76928 0.80541 0.0
C1948 C 0.51987 0.73043 0.81861 0.0
C1949 C 0.51945 0.71008 0.81468 0.0
C1950 C 0.50987 0.69803 0.82832 0.0
C1951 C 0.50051 0.70614 0.8461 0.0
C1952 C 0.50092 0.72657 0.84991 0.0
C1953 C 0.51055 0.7386 0.83629 0.0
C1954 C 0.56278 0.73338 0.81382 0.0
C1955 C 0.57286 0.71812 0.80396 0.0
C1956 C 0.58367 0.70726 0.8149 0.0
C1957 C 0.58452 0.71147 0.83587 0.0
C1958 C 0.57445 0.72681 0.84568 0.0
C1959 C 0.56365 0.73766 0.83474 0.0
C1960 C 0.58326 0.75995 0.7874 0.0
C1961 C 0.59346 0.75309 0.76968 0.0
C1962 C 0.61415 0.75567 0.76822 0.0
C1963 C 0.62501 0.76511 0.78451 0.0
C1964 C 0.6147 0.77189 0.80227 0.0
C1965 C 0.59401 0.76934 0.80368 0.0
C1966 C 0.56066 0.78121 0.76344 0.0
C1967 C 0.56003 0.77632 0.74258 0.0
C1968 C 0.57055 0.78843 0.72958 0.0
C1969 C 0.58185 0.80562 0.73725 0.0
C1970 C 0.58237 0.81052 0.75817 0.0
C1971 C 0.57178 0.79843 0.77117 0.0
C1972 C 0.51748 0.77584 0.76618 0.0
C1973 C 0.50696 0.76496 0.75047 0.0
C1974 C 0.49344 0.77358 0.74027 0.0
C1975 C 0.49007 0.79316 0.74575 0.0
C1976 C 0.50119 0.80424 0.76098 0.0
C1977 C 0.51486 0.79565 0.77108 0.0
C1978 C 0.49043 0.69329 0.86059 0.0
C1979 C 0.647 0.76795 0.78303 0.0
H1980 H 0.54625 0.67461 0.21935 0.0
H1981 H 0.38662 0.81122 0.27625 0.0
H1982 H 0.54288 0.74751 0.30432 0.0
H1983 H 0.57578 0.736 0.29814 0.0
H1984 H 0.59628 0.78805 0.27037 0.0
H1985 H 0.56324 0.79945 0.27642 0.0
H1986 H 0.50739 0.72847 0.27866 0.0
H1987 H 0.52016 0.70163 0.25645 0.0
H1988 H 0.5554 0.74347 0.22269 0.0
H1989 H 0.5423 0.77015 0.24484 0.0
H1990 H 0.46565 0.74511 0.28567 0.0
H1991 H 0.44409 0.72454 0.26176 0.0
H1992 H 0.47632 0.75053 0.21258 0.0
H1993 H 0.49782 0.77107 0.23657 0.0
H1994 H 0.46151 0.78038 0.32013 0.0
H1995 H 0.42671 0.78671 0.32093 0.0
H1996 H 0.43598 0.80741 0.26238 0.0
H1997 H 0.47081 0.80125 0.2619 0.0
H1998 H 0.49891 0.79933 0.34433 0.0
H1999 H 0.48167 0.82222 0.36777 0.0
H2000 H 0.47249 0.8555 0.31905 0.0
H2001 H 0.48957 0.83229 0.29559 0.0
H2002 H 0.54381 0.78708 0.33517 0.0
H2003 H 0.57022 0.80859 0.35247 0.0
H2004 H 0.56077 0.85424 0.31644 0.0
H2005 H 0.53481 0.83257 0.29892 0.0
O2006 O 0.54118 0.68544 0.22779 0.0
O2007 O 0.55864 0.70754 0.21065 0.0
O2008 O 0.39638 0.79804 0.30651 0.0
O2009 O 0.40031 0.80863 0.27634 0.0
C2010 C 0.52985 0.77899 0.29067 0.0
C2011 C 0.51671 0.76749 0.27732 0.0
C2012 C 0.49678 0.77146 0.27718 0.0
C2013 C 0.48983 0.78671 0.29065 0.0
C2014 C 0.50304 0.79847 0.30379 0.0
C2015 C 0.52313 0.79479 0.30358 0.0
C2016 C 0.55066 0.77425 0.29071 0.0
C2017 C 0.5546 0.75663 0.29731 0.0
C2018 C 0.5733 0.75003 0.29368 0.0
C2019 C 0.58839 0.76103 0.28353 0.0
C2020 C 0.58485 0.77934 0.27823 0.0
C2021 C 0.56606 0.78588 0.28172 0.0
C2022 C 0.52393 0.75122 0.26335 0.0
C2023 C 0.51775 0.73178 0.26636 0.0
C2024 C 0.52512 0.7165 0.2537 0.0
C2025 C 0.53884 0.7204 0.23782 0.0
C2026 C 0.54487 0.73994 0.23477 0.0
C2027 C 0.53743 0.75521 0.24741 0.0
C2028 C 0.48323 0.75958 0.26282 0.0
C2029 C 0.46789 0.7465 0.26975 0.0
C2030 C 0.45559 0.73484 0.25612 0.0
C2031 C 0.45848 0.73611 0.23537 0.0
C2032 C 0.47383 0.74928 0.2285 0.0
C2033 C 0.48606 0.76099 0.24214 0.0
C2034 C 0.46866 0.79038 0.29097 0.0
C2035 C 0.456 0.78634 0.30753 0.0
C2036 C 0.43613 0.78993 0.30793 0.0
C2037 C 0.42855 0.79757 0.29171 0.0
C2038 C 0.44131 0.80152 0.27511 0.0
C2039 C 0.4612 0.79798 0.27477 0.0
C2040 C 0.49546 0.81413 0.31828 0.0
C2041 C 0.49361 0.81183 0.33881 0.0
C2042 C 0.48382 0.82497 0.35218 0.0
C2043 C 0.47584 0.84075 0.34526 0.0
C2044 C 0.47845 0.84345 0.32479 0.0
C2045 C 0.48824 0.83028 0.31141 0.0
C2046 C 0.53746 0.80827 0.31576 0.0
C2047 C 0.54732 0.80181 0.33121 0.0
C2048 C 0.56226 0.81412 0.34115 0.0
C2049 C 0.56747 0.83307 0.33579 0.0
C2050 C 0.55709 0.83967 0.32078 0.0
C2051 C 0.54221 0.82738 0.31086 0.0
C2052 C 0.54684 0.70414 0.22455 0.0
C2053 C 0.40745 0.80139 0.29205 0.0
H2054 H 0.53544 0.20605 0.39206 0.0
H2055 H 0.38317 0.26115 0.25991 0.0
H2056 H 0.55253 0.2817 0.3243 0.0
H2057 H 0.58384 0.27107 0.33313 0.0
H2058 H 0.58717 0.23572 0.2758 0.0
H2059 H 0.55572 0.24638 0.2671 0.0
H2060 H 0.51068 0.26307 0.34327 0.0
H2061 H 0.51912 0.24281 0.36847 0.0
H2062 H 0.54136 0.20191 0.3211 0.0
H2063 H 0.53251 0.22211 0.29605 0.0
H2064 H 0.46804 0.27095 0.32697 0.0
H2065 H 0.44338 0.25139 0.34647 0.0
H2066 H 0.46407 0.19858 0.31593 0.0
H2067 H 0.48824 0.21812 0.29598 0.0
H2068 H 0.4699 0.30115 0.29557 0.0
H2069 H 0.43511 0.30389 0.28978 0.0
H2070 H 0.42924 0.24442 0.2612 0.0
H2071 H 0.46413 0.24196 0.2669 0.0
H2072 H 0.50684 0.32026 0.27773 0.0
H2073 H 0.49599 0.34021 0.25315 0.0
H2074 H 0.48146 0.288 0.21276 0.0
H2075 H 0.49217 0.26817 0.23738 0.0
H2076 H 0.54998 0.31071 0.29342 0.0
H2077 H 0.5738 0.33211 0.27507 0.0
H2078 H 0.5601 0.29607 0.21955 0.0
H2079 H 0.53676 0.27448 0.23806 0.0
O2080 O 0.53222 0.21383 0.38184 0.0
O2081 O 0.54385 0.19347 0.35696 0.0
O2082 O 0.40084 0.29103 0.27703 0.0
O2083 O 0.397 0.26049 0.26232 0.0
C2084 C 0.53092 0.2672 0.29194 0.0
C2085 C 0.51582 0.25646 0.30264 0.0
C2086 C 0.49569 0.25767 0.29914 0.0
C2087 C 0.49065 0.26985 0.28513 0.0
C2088 C 0.50576 0.2806 0.27446 0.0
C2089 C 0.52591 0.27933 0.27789 0.0
C2090 C 0.55192 0.26483 0.29506 0.0
C2091 C 0.56038 0.27221 0.31338 0.0
C2092 C 0.57823 0.26612 0.31839 0.0
C2093 C 0.58788 0.25257 0.30513 0.0
C2094 C 0.57998 0.24615 0.28627 0.0
C2095 C 0.56217 0.25234 0.28122 0.0
C2096 C 0.52108 0.2441 0.31786 0.0
C2097 C 0.51734 0.2497 0.33838 0.0
C2098 C 0.5222 0.23812 0.35274 0.0
C2099 C 0.53094 0.22075 0.34681 0.0
C2100 C 0.53467 0.2152 0.32619 0.0
C2101 C 0.52971 0.22675 0.31185 0.0
C2102 C 0.47996 0.24595 0.31011 0.0
C2103 C 0.46704 0.25517 0.32427 0.0
C2104 C 0.45305 0.24404 0.3354 0.0
C2105 C 0.45206 0.22357 0.33274 0.0
C2106 C 0.46476 0.21436 0.31834 0.0
C2107 C 0.4785 0.22548 0.30698 0.0
C2108 C 0.46951 0.27138 0.28161 0.0
C2109 C 0.46109 0.28877 0.28798 0.0
C2110 C 0.44121 0.29028 0.2847 0.0
C2111 C 0.42938 0.27436 0.27502 0.0
C2112 C 0.43792 0.25695 0.26869 0.0
C2113 C 0.45782 0.25548 0.27195 0.0
C2114 C 0.50031 0.29282 0.25927 0.0
C2115 C 0.50147 0.3132 0.2635 0.0
C2116 C 0.49523 0.32451 0.24954 0.0
C2117 C 0.48805 0.3156 0.23107 0.0
C2118 C 0.4872 0.29521 0.22679 0.0
C2119 C 0.49322 0.28391 0.24081 0.0
C2120 C 0.54167 0.29107 0.26706 0.0
C2121 C 0.55243 0.30725 0.27736 0.0
C2122 C 0.56591 0.31949 0.26687 0.0
C2123 C 0.56888 0.31568 0.24591 0.0
C2124 C 0.55842 0.29915 0.23573 0.0
C2125 C 0.54498 0.28691 0.24624 0.0
C2126 C 0.53609 0.20849 0.3621 0.0
C2127 C 0.40824 0.27587 0.27155 0.0
C2128 C 0.24381 0.19206 0.18137 0.0
C2129 C 0.23941 0.20702 0.19656 0.0
C2130 C 0.25143 0.19638 0.16231 0.0
C2131 C 0.25484 0.21579 0.1578 0.0
H2132 H 0.24068 0.17688 0.18395 0.0
H2133 H 0.25398 0.18447 0.15081 0.0
S2134 S 0.2486 0.26036 0.19283 0.0
N2135 N 0.2411 0.24217 0.20617 0.0
N2136 N 0.25527 0.25008 0.17038 0.0
C2137 C 0.25151 0.23087 0.17306 0.0
C2138 C 0.24385 0.22654 0.19243 0.0
C2139 C 0.86006 0.21923 0.10169 0.0
C2140 C 0.84925 0.20947 0.11673 0.0
C2141 C 0.85069 0.22989 0.08915 0.0
C2142 C 0.83013 0.23099 0.09102 0.0
H2143 H 0.87595 0.21886 0.09969 0.0
H2144 H 0.85958 0.23721 0.07781 0.0
S2145 S 0.79496 0.20818 0.12779 0.0
N2146 N 0.81672 0.20165 0.13265 0.0
N2147 N 0.7992 0.22166 0.10898 0.0
C2148 C 0.81909 0.22123 0.10582 0.0
C2149 C 0.82862 0.21049 0.11872 0.0
C2150 C 0.86368 0.82064 0.13763 0.0
C2151 C 0.87027 0.84031 0.13558 0.0
C2152 C 0.85144 0.80939 0.12357 0.0
C2153 C 0.84526 0.81737 0.10692 0.0
H2154 H 0.86748 0.81394 0.15054 0.0
H2155 H 0.84621 0.79453 0.12616 0.0
S2156 S 0.85998 0.8673 0.09314 0.0
N2157 N 0.87086 0.86675 0.11448 0.0
N2158 N 0.84787 0.84546 0.0881 0.0
C2159 C 0.85238 0.83668 0.10413 0.0
C2160 C 0.86491 0.84817 0.1184 0.0
C2161 C 0.22631 0.89518 0.07684 0.0
C2162 C 0.21292 0.89186 0.09314 0.0
C2163 C 0.24014 0.882 0.07014 0.0
C2164 C 0.24125 0.8651 0.07962 0.0
H2165 H 0.22605 0.90801 0.0691 0.0
H2166 H 0.24995 0.88501 0.05734 0.0
S2167 S 0.21046 0.85035 0.12383 0.0
N2168 N 0.20205 0.87072 0.11901 0.0
N2169 N 0.22839 0.84622 0.10673 0.0
C2170 C 0.22808 0.86169 0.09606 0.0
C2171 C 0.21384 0.87501 0.10275 0.0
C2172 C 0.27109 0.86352 0.9361 0.0
C2173 C 0.25393 0.87339 0.93947 0.0
C2174 C 0.2795 0.85598 0.9518 0.0
C2175 C 0.27092 0.85778 0.9714 0.0
H2176 H 0.27799 0.86138 0.92117 0.0
H2177 H 0.29246 0.84816 0.94845 0.0
S2178 S 0.22667 0.88306 0.9886 0.0
N2179 N 0.22921 0.88525 0.96429 0.0
N2180 N 0.24498 0.87079 0.99365 0.0
C2181 C 0.25408 0.86795 0.97514 0.0
C2182 C 0.24562 0.87585 0.95922 0.0
C2183 C 0.22262 0.17814 0.94967 0.0
C2184 C 0.20223 0.17527 0.95502 0.0
C2185 C 0.23595 0.18962 0.96254 0.0
C2186 C 0.22937 0.19875 0.98114 0.0
H2187 H 0.22836 0.17165 0.93534 0.0
H2188 H 0.25148 0.19153 0.95782 0.0
S2189 S 0.17806 0.19467 0.0032 0.0
N2190 N 0.17644 0.18177 0.98092 0.0
N2191 N 0.20159 0.20326 0.00498 0.0
C2192 C 0.20919 0.19575 0.9869 0.0
C2193 C 0.1956 0.18404 0.97387 0.0
C2194 C 0.79203 0.24258 0.88773 0.0
C2195 C 0.8059 0.22869 0.88531 0.0
C2196 C 0.78913 0.25384 0.90623 0.0
C2197 C 0.80025 0.25185 0.9228 0.0
H2198 H 0.78293 0.24439 0.87544 0.0
H2199 H 0.77799 0.26405 0.90766 0.0
S2200 S 0.83887 0.21821 0.92431 0.0
N2201 N 0.83128 0.21408 0.90107 0.0
N2202 N 0.82575 0.23528 0.93573 0.0
C2203 C 0.81448 0.23842 0.92049 0.0
C2204 C 0.81732 0.22683 0.90177 0.0
C2205 C 0.846 0.84414 0.96697 0.0
C2206 C 0.83292 0.8488 0.95303 0.0
C2207 C 0.83914 0.83356 0.983 0.0
C2208 C 0.81892 0.82737 0.98587 0.0
H2209 H 0.86178 0.84832 0.96529 0.0
H2210 H 0.84978 0.82998 0.99311 0.0
S2211 S 0.77841 0.8356 0.95391 0.0
N2212 N 0.79858 0.84642 0.94346 0.0
N2213 N 0.78582 0.82649 0.97357 0.0
C2214 C 0.80559 0.83222 0.97239 0.0
C2215 C 0.81255 0.84295 0.95599 0.0
C2216 C 0.13661 0.23909 0.27272 0.0
C2217 C 0.13653 0.21992 0.26305 0.0
C2218 C 0.1191 0.24816 0.2761 0.0
C2219 C 0.1008 0.23832 0.27022 0.0
H2220 H 0.15038 0.24743 0.27722 0.0
H2221 H 0.11988 0.26304 0.28331 0.0
S2222 S 0.09215 0.18772 0.24532 0.0
N2223 N 0.11631 0.19118 0.24828 0.0
N2224 N 0.08338 0.20829 0.25487 0.0
C2225 C 0.10033 0.219 0.26111 0.0
C2226 C 0.1182 0.20979 0.25745 0.0
C2227 C 0.86136 0.13278 0.21108 0.0
C2228 C 0.86957 0.12839 0.19154 0.0
C2229 C 0.85004 0.11851 0.22106 0.0
C2230 C 0.84636 0.09927 0.2119 0.0
H2231 H 0.86391 0.14731 0.21897 0.0
H2232 H 0.84417 0.12256 0.23615 0.0
S2233 S 0.8639 0.0801 0.16081 0.0
N2234 N 0.87274 0.10336 0.16318 0.0
N2235 N 0.85147 0.07647 0.18214 0.0
C2236 C 0.85403 0.09468 0.19222 0.0
C2237 C 0.86565 0.10925 0.182 0.0
C2238 C 0.94397 0.81657 0.22228 0.0
C2239 C 0.94785 0.83503 0.21529 0.0
C2240 C 0.95923 0.80706 0.22876 0.0
C2241 C 0.97889 0.81577 0.22876 0.0
H2242 H 0.92902 0.80936 0.2228 0.0
H2243 H 0.95553 0.79298 0.23429 0.0
S2244 S 0.99712 0.86372 0.21179 0.0
N2245 N 0.97303 0.8615 0.20845 0.0
N2246 N 0.00162 0.84363 0.22101 0.0
C2247 C 0.98307 0.83412 0.22174 0.0
C2248 C 0.96758 0.84373 0.21486 0.0
C2249 C 0.20897 0.94862 0.18468 0.0
C2250 C 0.19022 0.938 0.18278 0.0
C2251 C 0.21752 0.95309 0.20339 0.0
C2252 C 0.20765 0.94713 0.22102 0.0
H2253 H 0.2172 0.95344 0.17154 0.0
H2254 H 0.23185 0.96163 0.20408 0.0
S2255 S 0.15763 0.91998 0.22432 0.0
N2256 N 0.16141 0.92278 0.20023 0.0
N2257 N 0.17792 0.9302 0.23535 0.0
C2258 C 0.1888 0.93658 0.21935 0.0
C2259 C 0.17999 0.93222 0.20025 0.0
C2260 C 0.12055 0.89961 0.87137 0.0
C2261 C 0.13804 0.89046 0.8717 0.0
C2262 C 0.10393 0.89016 0.8615 0.0
C2263 C 0.10411 0.87116 0.85158 0.0
H2264 H 0.11973 0.91437 0.8785 0.0
H2265 H 0.09088 0.89787 0.86148 0.0
S2266 S 0.14598 0.84056 0.84801 0.0
N2267 N 0.15429 0.86101 0.86146 0.0
N2268 N 0.12309 0.84341 0.8427 0.0
C2269 C 0.12128 0.86162 0.85214 0.0
C2270 C 0.13823 0.87122 0.86224 0.0
C2271 C 0.21827 0.1052 0.84202 0.0
C2272 C 0.21182 0.09886 0.86072 0.0
C2273 C 0.23126 0.09492 0.82894 0.0
C2274 C 0.23844 0.07797 0.83407 0.0
H2275 H 0.21336 0.11829 0.83741 0.0
H2276 H 0.236 0.1005 0.81482 0.0
S2277 S 0.22568 0.05461 0.88071 0.0
N2278 N 0.2133 0.07405 0.88339 0.0
N2279 N 0.23777 0.05482 0.85868 0.0
C2280 C 0.23203 0.07129 0.85255 0.0
C2281 C 0.21868 0.08168 0.86588 0.0
C2282 C 0.88281 0.20106 0.81325 0.0
C2283 C 0.87039 0.21399 0.80695 0.0
C2284 C 0.9034 0.20558 0.81327 0.0
C2285 C 0.91236 0.22324 0.80709 0.0
H2286 H 0.8766 0.18749 0.81868 0.0
H2287 H 0.91232 0.19543 0.81875 0.0
S2288 S 0.887 0.26135 0.78738 0.0
N2289 N 0.86889 0.24474 0.79305 0.0
N2290 N 0.90766 0.2531 0.7931 0.0
C2291 C 0.9003 0.23601 0.80008 0.0
C2292 C 0.87931 0.23141 0.79997 0.0
C2293 C 0.7912 0.93132 0.8376 0.0
C2294 C 0.80874 0.94068 0.84607 0.0
C2295 C 0.7791 0.94133 0.827 0.0
C2296 C 0.78405 0.96112 0.82434 0.0
H2297 H 0.78671 0.91606 0.83909 0.0
H2298 H 0.7659 0.93339 0.82055 0.0
S2299 S 0.82795 0.99271 0.84387 0.0
N2300 N 0.83022 0.97119 0.85128 0.0
N2301 N 0.80736 0.98992 0.83137 0.0
C2302 C 0.80145 0.97074 0.83275 0.0
C2303 C 0.81379 0.96057 0.84363 0.0
C2304 C 0.24668 0.12704 0.28251 0.0
C2305 C 0.22773 0.12659 0.27477 0.0
C2306 C 0.2528 0.11063 0.2899 0.0
C2307 C 0.24004 0.09332 0.2902 0.0
H2308 H 0.25702 0.14009 0.2826 0.0
H2309 H 0.2676 0.11147 0.29543 0.0
S2310 S 0.18905 0.08426 0.27177 0.0
N2311 N 0.19631 0.10707 0.26785 0.0
N2312 N 0.20782 0.07643 0.282 0.0
C2313 C 0.22105 0.09264 0.2827 0.0
C2314 C 0.21489 0.10922 0.27492 0.0
C2315 C 0.26616 0.94638 0.8517 0.0
C2316 C 0.24839 0.95027 0.86255 0.0
C2317 C 0.27564 0.95945 0.83891 0.0
C2318 C 0.2677 0.97687 0.83647 0.0
H2319 H 0.27241 0.93276 0.85241 0.0
H2320 H 0.28883 0.9555 0.83023 0.0
S2321 S 0.22338 0.99553 0.86357 0.0
N2322 N 0.22451 0.97403 0.87154 0.0
N2323 N 0.24244 0.99847 0.84747 0.0
C2324 C 0.25066 0.98153 0.84804 0.0
C2325 C 0.241 0.96828 0.86111 0.0
C2326 C 0.10413 0.20461 0.89706 0.0
C2327 C 0.10668 0.18456 0.89413 0.0
C2328 C 0.09071 0.21252 0.886 0.0
C2329 C 0.07931 0.20073 0.87149 0.0
H2330 H 0.11269 0.21442 0.9079 0.0
H2331 H 0.08953 0.22808 0.88857 0.0
S2332 S 0.07936 0.14724 0.85864 0.0
N2333 N 0.09602 0.15296 0.87599 0.0
N2334 N 0.07068 0.16791 0.85529 0.0
C2335 C 0.08142 0.18064 0.86854 0.0
C2336 C 0.0951 0.17253 0.87984 0.0
C2337 C 0.76184 0.11287 0.82258 0.0
C2338 C 0.78207 0.11979 0.82096 0.0
C2339 C 0.755 0.09377 0.8151 0.0
C2340 C 0.76811 0.0808 0.80574 0.0
H2341 H 0.7511 0.12232 0.82953 0.0
H2342 H 0.73925 0.08923 0.81631 0.0
S2343 S 0.82257 0.09117 0.7985 0.0
N2344 N 0.81524 0.11184 0.8097 0.0
N2345 N 0.80229 0.07583 0.79584 0.0
C2346 C 0.78837 0.08738 0.80416 0.0
C2347 C 0.79538 0.10688 0.81173 0.0
C2348 C 0.90626 0.88162 0.83654 0.0
C2349 C 0.89124 0.86865 0.84445 0.0
C2350 C 0.92324 0.87479 0.8264 0.0
C2351 C 0.92574 0.85476 0.82376 0.0
H2352 H 0.90537 0.89723 0.839 0.0
H2353 H 0.9349 0.88533 0.82146 0.0
S2354 S 0.88938 0.81454 0.83851 0.0
N2355 N 0.87903 0.83461 0.84678 0.0
N2356 N 0.91082 0.82189 0.82762 0.0
C2357 C 0.91029 0.84157 0.83041 0.0
C2358 C 0.89308 0.84848 0.84076 0.0
C2359 C 0.84017 0.91108 0.23394 0.0
C2360 C 0.85989 0.91652 0.22754 0.0
C2361 C 0.82886 0.92445 0.24539 0.0
C2362 C 0.83689 0.94372 0.2511 0.0
H2363 H 0.83304 0.89662 0.22934 0.0
H2364 H 0.81349 0.91988 0.24924 0.0
S2365 S 0.8883 0.9649 0.23995 0.0
N2366 N 0.88741 0.94217 0.2292 0.0
N2367 N 0.86607 0.96732 0.25055 0.0
C2368 C 0.85689 0.94907 0.2458 0.0
C2369 C 0.86841 0.93548 0.23407 0.0
C2370 C 0.10594 0.86263 0.22149 0.0
C2371 C 0.12352 0.85766 0.21092 0.0
C2372 C 0.09428 0.84925 0.23243 0.0
C2373 C 0.09964 0.83033 0.23302 0.0
H2374 H 0.10105 0.87696 0.2213 0.0
H2375 H 0.08075 0.85359 0.24013 0.0
S2376 S 0.14447 0.8101 0.20877 0.0
N2377 N 0.14596 0.83252 0.20237 0.0
N2378 N 0.12386 0.80738 0.22286 0.0
C2379 C 0.11724 0.82519 0.22281 0.0
C2380 C 0.12925 0.83886 0.21181 0.0
C2381 C 0.94008 0.21381 0.2107 0.0
C2382 C 0.92466 0.2187 0.19966 0.0
C2383 C 0.94816 0.22677 0.22642 0.0
C2384 C 0.9414 0.24524 0.23145 0.0
H2385 H 0.94571 0.1997 0.20746 0.0
H2386 H 0.95998 0.2224 0.23456 0.0
S2387 S 0.90194 0.2655 0.20689 0.0
N2388 N 0.9031 0.24346 0.19476 0.0
N2389 N 0.91885 0.26807 0.22407 0.0
C2390 C 0.92628 0.25052 0.2204 0.0
C2391 C 0.91774 0.23717 0.20458 0.0
C2392 C 0.20358 0.68747 0.63692 0.0
C2393 C 0.1836 0.69107 0.63623 0.0
C2394 C 0.21814 0.69494 0.62333 0.0
C2395 C 0.21325 0.70631 0.60863 0.0
H2396 H 0.2081 0.67917 0.64829 0.0
H2397 H 0.23338 0.69215 0.62461 0.0
S2398 S 0.16293 0.71796 0.59871 0.0
N2399 N 0.1596 0.70549 0.61836 0.0
N2400 N 0.18693 0.71932 0.59293 0.0
C2401 C 0.19329 0.70941 0.60729 0.0
C2402 C 0.1785 0.70186 0.62105 0.0
C2403 C 0.83059 0.73421 0.61998 0.0
C2404 C 0.82804 0.74609 0.63827 0.0
C2405 C 0.82392 0.73913 0.60201 0.0
C2406 C 0.81464 0.75623 0.60156 0.0
H2407 H 0.83769 0.7209 0.61951 0.0
H2408 H 0.82631 0.7296 0.58827 0.0
S2409 S 0.80441 0.79244 0.64502 0.0
N2410 N 0.81549 0.77583 0.65469 0.0
N2411 N 0.80317 0.78507 0.62074 0.0
C2412 C 0.81207 0.76832 0.6196 0.0
C2413 C 0.81867 0.76323 0.638 0.0
C2414 C 0.85423 0.31678 0.63814 0.0
C2415 C 0.84798 0.31344 0.65796 0.0
C2416 C 0.84382 0.30746 0.6216 0.0
C2417 C 0.8266 0.29472 0.6243 0.0
H2418 H 0.86708 0.32695 0.63537 0.0
H2419 H 0.84888 0.31075 0.60664 0.0
S2420 S 0.80453 0.27999 0.6727 0.0
N2421 N 0.82393 0.29554 0.6791 0.0
N2422 N 0.80426 0.27833 0.64794 0.0
C2423 C 0.82048 0.29077 0.64388 0.0
C2424 C 0.83122 0.30002 0.66073 0.0
C2425 C 0.18472 0.34435 0.62691 0.0
C2426 C 0.19196 0.34799 0.6464 0.0
C2427 C 0.19684 0.33789 0.61048 0.0
C2428 C 0.21672 0.33514 0.61291 0.0
H2429 H 0.16949 0.3463 0.62432 0.0
H2430 H 0.19069 0.33521 0.59571 0.0
S2431 S 0.24318 0.34315 0.66047 0.0
N2432 N 0.22047 0.34858 0.66708 0.0
N2433 N 0.24333 0.33676 0.63594 0.0
C2434 C 0.2243 0.33895 0.63216 0.0
C2435 C 0.21187 0.34525 0.64899 0.0
C2436 C 0.17568 0.37895 0.44713 0.0
C2437 C 0.1765 0.37556 0.426 0.0
C2438 C 0.18754 0.36958 0.45864 0.0
C2439 C 0.20091 0.35685 0.44939 0.0
H2440 H 0.16566 0.38876 0.45486 0.0
H2441 H 0.18638 0.37242 0.47489 0.0
S2442 S 0.20916 0.3433 0.39473 0.0
N2443 N 0.19191 0.35855 0.39634 0.0
N2444 N 0.21451 0.34134 0.41811 0.0
C2445 C 0.20207 0.35345 0.42836 0.0
C2446 C 0.18975 0.36269 0.41661 0.0
C2447 C 0.27458 0.72496 0.39383 0.0
C2448 C 0.25753 0.7204 0.3825 0.0
C2449 C 0.27343 0.72581 0.41482 0.0
C2450 C 0.2552 0.72201 0.42533 0.0
H2451 H 0.28897 0.728 0.38641 0.0
H2452 H 0.28694 0.72962 0.42291 0.0
S2453 S 0.20641 0.70784 0.40277 0.0
N2454 N 0.222 0.71086 0.38332 0.0
N2455 N 0.21981 0.71282 0.42292 0.0
C2456 C 0.23802 0.71735 0.41426 0.0
C2457 C 0.2392 0.71642 0.3928 0.0
C2458 C 0.87322 0.66841 0.43592 0.0
C2459 C 0.8702 0.6638 0.41521 0.0
C2460 C 0.86507 0.6843 0.44698 0.0
C2461 C 0.85346 0.69602 0.43776 0.0
H2462 H 0.88184 0.65964 0.44374 0.0
H2463 H 0.86747 0.68716 0.46295 0.0
S2464 S 0.84179 0.69105 0.38394 0.0
N2465 N 0.85525 0.67295 0.38585 0.0
N2466 N 0.83999 0.70269 0.40678 0.0
C2467 C 0.85059 0.69188 0.41708 0.0
C2468 C 0.85895 0.67581 0.40576 0.0
C2469 C 0.82959 0.34614 0.4736 0.0
C2470 C 0.85031 0.34957 0.47063 0.0
C2471 C 0.82113 0.33515 0.48875 0.0
C2472 C 0.83303 0.32717 0.50154 0.0
H2473 H 0.81977 0.35131 0.46367 0.0
H2474 H 0.80514 0.33208 0.48981 0.0
S2475 S 0.88786 0.33376 0.5019 0.0
N2476 N 0.88247 0.34549 0.48316 0.0
N2477 N 0.86639 0.32479 0.51154 0.0
C2478 C 0.85367 0.33128 0.49948 0.0
C2479 C 0.86235 0.34252 0.48409 0.0
C2480 C 0.06772 0.7338 0.69204 0.0
C2481 C 0.08017 0.72289 0.70142 0.0
C2482 C 0.05599 0.74695 0.70331 0.0
C2483 C 0.05607 0.74957 0.72439 0.0
H2484 H 0.06736 0.73259 0.67581 0.0
H2485 H 0.04703 0.75538 0.69544 0.0
S2486 S 0.08565 0.72462 0.75648 0.0
N2487 N 0.09145 0.71549 0.7333 0.0
N2488 N 0.06942 0.74026 0.75434 0.0
C2489 C 0.06798 0.73845 0.73405 0.0
C2490 C 0.08 0.7251 0.7226 0.0
C2491 C 0.826 0.65509 0.71845 0.0
C2492 C 0.84255 0.65678 0.70494 0.0
C2493 C 0.82005 0.63759 0.72662 0.0
C2494 C 0.83054 0.62117 0.72176 0.0
H2495 H 0.81773 0.66749 0.72306 0.0
H2496 H 0.8075 0.6371 0.73732 0.0
S2497 S 0.87407 0.61731 0.68629 0.0
N2498 N 0.86875 0.64 0.68633 0.0
N2499 N 0.85752 0.60717 0.70191 0.0
C2500 C 0.84675 0.62239 0.7079 0.0
C2501 C 0.85273 0.64016 0.69939 0.0
C2502 C 0.9168 0.306 0.76365 0.0
C2503 C 0.91869 0.3112 0.74389 0.0
C2504 C 0.9321 0.29796 0.77201 0.0
C2505 C 0.94969 0.29449 0.76079 0.0
H2506 H 0.90352 0.30842 0.77289 0.0
H2507 H 0.93009 0.29429 0.78731 0.0
S2508 S 0.96201 0.3049 0.70835 0.0
N2509 N 0.93966 0.31203 0.71328 0.0
N2510 N 0.9682 0.29655 0.72898 0.0
C2511 C 0.95173 0.2993 0.74098 0.0
C2512 C 0.93629 0.30777 0.73254 0.0
C2513 C 0.19715 0.42428 0.75032 0.0
C2514 C 0.18777 0.42184 0.73185 0.0
C2515 C 0.20306 0.44287 0.75983 0.0
C2516 C 0.20005 0.45971 0.75112 0.0
H2517 H 0.19954 0.41176 0.75782 0.0
H2518 H 0.21002 0.4441 0.77416 0.0
S2519 S 0.1771 0.46154 0.70259 0.0
N2520 N 0.17634 0.438 0.70489 0.0
N2521 N 0.18772 0.47302 0.72285 0.0
C2522 C 0.19121 0.4576 0.73245 0.0
C2523 C 0.18497 0.43864 0.72281 0.0
C2524 C 0.06926 0.39816 0.37644 0.0
C2525 C 0.08449 0.40573 0.36353 0.0
C2526 C 0.05416 0.38413 0.36905 0.0
C2527 C 0.0537 0.37725 0.34848 0.0
H2528 H 0.06912 0.4029 0.39242 0.0
H2529 H 0.04291 0.37842 0.37952 0.0
S2530 S 0.09048 0.39162 0.30848 0.0
N2531 N 0.09824 0.40492 0.32914 0.0
N2532 N 0.07009 0.37849 0.31543 0.0
C2533 C 0.06873 0.38478 0.33541 0.0
C2534 C 0.08406 0.39903 0.34288 0.0
C2535 C 0.29252 0.64511 0.27899 0.0
C2536 C 0.27514 0.6524 0.28782 0.0
C2537 C 0.29266 0.62545 0.27128 0.0
C2538 C 0.27544 0.61231 0.27213 0.0
H2539 H 0.30622 0.65461 0.27814 0.0
H2540 H 0.30642 0.62046 0.26477 0.0
S2541 S 0.22619 0.62374 0.29414 0.0
N2542 N 0.24021 0.64478 0.297 0.0
N2543 N 0.24064 0.60777 0.28279 0.0
C2544 C 0.2579 0.61939 0.2807 0.0
C2545 C 0.25772 0.63944 0.28848 0.0
C2546 C 0.94405 0.65846 0.31803 0.0
C2547 C 0.94372 0.65465 0.33823 0.0
C2548 C 0.95815 0.67241 0.31058 0.0
C2549 C 0.97222 0.68323 0.32317 0.0
H2550 H 0.93312 0.65085 0.30794 0.0
H2551 H 0.95764 0.67522 0.29506 0.0
S2552 S 0.97856 0.67828 0.37679 0.0
N2553 N 0.95947 0.66232 0.37041 0.0
N2554 N 0.98577 0.68872 0.35634 0.0
C2555 C 0.97246 0.67927 0.34319 0.0
C2556 C 0.95829 0.66489 0.35073 0.0
C2557 C 0.8082 0.42895 0.35511 0.0
C2558 C 0.82628 0.4382 0.36252 0.0
C2559 C 0.79612 0.43866 0.34417 0.0
C2560 C 0.80166 0.45797 0.34008 0.0
H2561 H 0.80336 0.41399 0.35761 0.0
H2562 H 0.78252 0.43084 0.33849 0.0
S2563 S 0.84666 0.48938 0.35705 0.0
N2564 N 0.84858 0.46831 0.36564 0.0
N2565 N 0.82578 0.48642 0.34505 0.0
C2566 C 0.81944 0.46757 0.34765 0.0
C2567 C 0.83175 0.45774 0.35888 0.0
C2568 C 0.17381 0.59781 0.71089 0.0
C2569 C 0.16925 0.6161 0.72044 0.0
C2570 C 0.1814 0.58421 0.72159 0.0
C2571 C 0.18432 0.58823 0.74232 0.0
H2572 H 0.17185 0.59408 0.69492 0.0
H2573 H 0.18505 0.57046 0.71361 0.0
S2574 S 0.1746 0.6337 0.77458 0.0
N2575 N 0.16817 0.63733 0.75202 0.0
N2576 N 0.18222 0.6117 0.77203 0.0
C2577 C 0.1796 0.6063 0.75212 0.0
C2578 C 0.17213 0.62024 0.74122 0.0
C2579 C 0.18038 0.46728 0.34601 0.0
C2580 C 0.18263 0.44983 0.35407 0.0
C2581 C 0.19366 0.47406 0.33101 0.0
C2582 C 0.20983 0.46379 0.32382 0.0
H2583 H 0.16797 0.47551 0.35093 0.0
H2584 H 0.19131 0.48745 0.32503 0.0
S2585 S 0.22288 0.41784 0.34043 0.0
N2586 N 0.20264 0.42271 0.35402 0.0
N2587 N 0.22768 0.43567 0.326 0.0
C2588 C 0.21254 0.44661 0.33202 0.0
C2589 C 0.1989 0.43956 0.34709 0.0
C2590 C 0.1543 0.75554 0.33871 0.0
C2591 C 0.17221 0.76075 0.32813 0.0
C2592 C 0.13602 0.75873 0.33169 0.0
C2593 C 0.13488 0.76729 0.31383 0.0
H2594 H 0.15431 0.74849 0.35231 0.0
H2595 H 0.12262 0.75392 0.34003 0.0
S2596 S 0.17724 0.78528 0.2814 0.0
N2597 N 0.18758 0.77607 0.29941 0.0
N2598 N 0.15311 0.78213 0.28639 0.0
C2599 C 0.1526 0.77315 0.30341 0.0
C2600 C 0.17128 0.76991 0.31054 0.0
C2601 C 0.83536 0.54971 0.36743 0.0
C2602 C 0.84802 0.56642 0.36365 0.0
C2603 C 0.82027 0.54213 0.35441 0.0
C2604 C 0.81708 0.55113 0.33725 0.0
H2605 H 0.837 0.54252 0.38066 0.0
H2606 H 0.81093 0.52917 0.35789 0.0
S2607 S 0.84581 0.59557 0.32086 0.0
N2608 N 0.85642 0.59176 0.34142 0.0
N2609 N 0.82767 0.57782 0.31732 0.0
C2610 C 0.82978 0.56772 0.33315 0.0
C2611 C 0.84533 0.5753 0.34626 0.0
C2612 C 0.90372 0.34095 0.35762 0.0
C2613 C 0.90363 0.36135 0.35857 0.0
C2614 C 0.91819 0.3312 0.34612 0.0
C2615 C 0.93325 0.34139 0.33509 0.0
H2616 H 0.89273 0.33241 0.36617 0.0
H2617 H 0.91782 0.31554 0.3462 0.0
S2618 S 0.93947 0.39476 0.3318 0.0
N2619 N 0.91956 0.39134 0.34675 0.0
N2620 N 0.94697 0.37294 0.32533 0.0
C2621 C 0.933 0.36167 0.33526 0.0
C2622 C 0.91815 0.37166 0.34695 0.0
C2623 C 0.8515 0.42101 0.7395 0.0
C2624 C 0.85779 0.42118 0.71912 0.0
C2625 C 0.8423 0.43661 0.74996 0.0
C2626 C 0.83903 0.45287 0.74038 0.0
H2627 H 0.85319 0.40852 0.74733 0.0
H2628 H 0.83725 0.4357 0.76546 0.0
S2629 S 0.8549 0.46183 0.68816 0.0
N2630 N 0.86159 0.44001 0.69039 0.0
N2631 N 0.8444 0.4692 0.71011 0.0
C2632 C 0.84598 0.45365 0.72033 0.0
C2633 C 0.85534 0.43784 0.70969 0.0
C2634 C 0.11026 0.31545 0.73891 0.0
C2635 C 0.11109 0.33589 0.73941 0.0
C2636 C 0.09372 0.30461 0.74689 0.0
C2637 C 0.07739 0.31377 0.75568 0.0
H2638 H 0.12272 0.30777 0.73287 0.0
H2639 H 0.09407 0.28902 0.74692 0.0
S2640 S 0.07101 0.36645 0.75893 0.0
N2641 N 0.09325 0.36462 0.74808 0.0
N2642 N 0.06222 0.34406 0.76309 0.0
C2643 C 0.07757 0.334 0.75553 0.0
C2644 C 0.09438 0.34509 0.74734 0.0
C2645 C 0.90785 0.7711 0.72698 0.0
C2646 C 0.9117 0.75844 0.70952 0.0
C2647 C 0.92332 0.78161 0.73789 0.0
C2648 C 0.94322 0.78008 0.73161 0.0
H2649 H 0.89279 0.7724 0.73276 0.0
H2650 H 0.91969 0.79079 0.75152 0.0
S2651 S 0.96145 0.75007 0.68634 0.0
N2652 N 0.93707 0.74581 0.68595 0.0
N2653 N 0.96607 0.76565 0.70652 0.0
C2654 C 0.94733 0.76814 0.7138 0.0
C2655 C 0.9316 0.75729 0.70274 0.0
C2656 C 0.69229 0.21104 0.64499 0.0
C2657 C 0.70012 0.20754 0.66309 0.0
C2658 C 0.70453 0.21805 0.62941 0.0
C2659 C 0.72513 0.222 0.63126 0.0
H2660 H 0.6765 0.20847 0.64281 0.0
H2661 H 0.69774 0.22048 0.61578 0.0
S2662 S 0.75327 0.2152 0.67535 0.0
N2663 N 0.73 0.20822 0.68178 0.0
N2664 N 0.75297 0.22172 0.65245 0.0
C2665 C 0.7333 0.21821 0.64905 0.0
C2666 C 0.72081 0.21093 0.66497 0.0
C2667 C 0.31486 0.24864 0.61072 0.0
C2668 C 0.3332 0.24204 0.60382 0.0
C2669 C 0.3041 0.25865 0.59873 0.0
C2670 C 0.31134 0.2626 0.57944 0.0
H2671 H 0.30871 0.24612 0.62555 0.0
H2672 H 0.29013 0.26358 0.6047 0.0
S2673 S 0.35782 0.24763 0.55361 0.0
N2674 N 0.35767 0.23963 0.57588 0.0
N2675 N 0.33736 0.25847 0.55348 0.0
C2676 C 0.32947 0.25594 0.57219 0.0
C2677 C 0.34041 0.24565 0.58433 0.0
C2678 C 0.32596 0.79943 0.65234 0.0
C2679 C 0.34685 0.8008 0.65077 0.0
C2680 C 0.31439 0.78978 0.63681 0.0
C2681 C 0.32317 0.78095 0.61909 0.0
H2682 H 0.31839 0.8064 0.66544 0.0
H2683 H 0.29841 0.78956 0.63852 0.0
S2684 S 0.37705 0.77931 0.6076 0.0
N2685 N 0.37575 0.79155 0.63021 0.0
N2686 N 0.35391 0.77355 0.601 0.0
C2687 C 0.34395 0.78146 0.61756 0.0
C2688 C 0.3558 0.79133 0.63339 0.0
C2689 C 0.70594 0.84039 0.56801 0.0
C2690 C 0.70182 0.85456 0.55583 0.0
C2691 C 0.72172 0.829 0.56303 0.0
C2692 C 0.7339 0.83131 0.54565 0.0
H2693 H 0.69705 0.83823 0.58164 0.0
H2694 H 0.72448 0.81838 0.57291 0.0
S2695 S 0.72806 0.86493 0.50767 0.0
N2696 N 0.71051 0.86949 0.52505 0.0
N2697 N 0.73987 0.84779 0.51545 0.0
C2698 C 0.72969 0.84514 0.53312 0.0
C2699 C 0.71373 0.85683 0.53827 0.0
C2700 C 0.72484 0.84099 0.43199 0.0
C2701 C 0.72787 0.8614 0.43649 0.0
C2702 C 0.7358 0.82864 0.44104 0.0
C2703 C 0.75042 0.83622 0.45472 0.0
H2704 H 0.7137 0.83443 0.4216 0.0
H2705 H 0.73289 0.81301 0.43717 0.0
S2706 S 0.76464 0.8886 0.47118 0.0
N2707 N 0.74687 0.88866 0.45533 0.0
N2708 N 0.76759 0.86541 0.47217 0.0
C2709 C 0.75386 0.8566 0.45912 0.0
C2710 C 0.74253 0.86919 0.4501 0.0
C2711 C 0.69602 0.18235 0.43491 0.0
C2712 C 0.69734 0.19219 0.41755 0.0
C2713 C 0.70605 0.19024 0.45221 0.0
C2714 C 0.71767 0.20831 0.45286 0.0
H2715 H 0.68697 0.16853 0.43529 0.0
H2716 H 0.70435 0.18234 0.46533 0.0
S2717 S 0.72745 0.23935 0.41125 0.0
N2718 N 0.71225 0.22067 0.40195 0.0
N2719 N 0.73104 0.23531 0.43449 0.0
C2720 C 0.71957 0.2181 0.43555 0.0
C2721 C 0.70944 0.21008 0.4179 0.0
C2722 C 0.3416 0.22356 0.45236 0.0
C2723 C 0.34236 0.20683 0.46231 0.0
C2724 C 0.33188 0.2394 0.46125 0.0
C2725 C 0.32247 0.23911 0.48039 0.0
H2726 H 0.34799 0.22422 0.43726 0.0
H2727 H 0.33095 0.25159 0.4527 0.0
S2728 S 0.32229 0.20035 0.51407 0.0
N2729 N 0.33442 0.19199 0.49338 0.0
N2730 N 0.31613 0.22189 0.50997 0.0
C2731 C 0.32401 0.22309 0.49102 0.0
C2732 C 0.334 0.20694 0.48203 0.0
C2733 C 0.37485 0.84278 0.50682 0.0
C2734 C 0.36834 0.8515 0.49071 0.0
C2735 C 0.36205 0.82978 0.51723 0.0
C2736 C 0.34221 0.82507 0.51205 0.0
H2737 H 0.3901 0.84564 0.51117 0.0
H2738 H 0.36781 0.82309 0.52922 0.0
S2739 S 0.31758 0.8438 0.47122 0.0
N2740 N 0.34044 0.85461 0.47037 0.0
N2741 N 0.31657 0.83003 0.4898 0.0
C2742 C 0.33533 0.83399 0.49632 0.0
C2743 C 0.34834 0.84724 0.48571 0.0
C2744 C 0.57517 0.23448 0.70253 0.0
C2745 C 0.58912 0.22914 0.71518 0.0
C2746 C 0.56 0.24582 0.71019 0.0
C2747 C 0.55806 0.25214 0.73082 0.0
H2748 H 0.57611 0.23012 0.68649 0.0
H2749 H 0.54976 0.24976 0.69988 0.0
S2750 S 0.59079 0.24275 0.7704 0.0
N2751 N 0.59993 0.23133 0.74951 0.0
N2752 N 0.5715 0.25272 0.76377 0.0
C2753 C 0.57171 0.24681 0.7437 0.0
C2754 C 0.58719 0.23528 0.73592 0.0
C2755 C 0.36577 0.1456 0.70275 0.0
C2756 C 0.36754 0.14472 0.68164 0.0
C2757 C 0.35857 0.12922 0.7123 0.0
C2758 C 0.35282 0.11122 0.70117 0.0
H2759 H 0.37001 0.15907 0.71211 0.0
H2760 H 0.35734 0.13072 0.72858 0.0
S2761 S 0.35465 0.10084 0.64559 0.0
N2762 N 0.36289 0.12418 0.64986 0.0
N2763 N 0.34951 0.09329 0.66794 0.0
C2764 C 0.35436 0.11005 0.68007 0.0
C2765 C 0.3617 0.1268 0.67028 0.0
C2766 C 0.45897 0.8078 0.70562 0.0
C2767 C 0.44328 0.81612 0.71689 0.0
C2768 C 0.47411 0.8005 0.71504 0.0
C2769 C 0.47434 0.80162 0.73611 0.0
H2770 H 0.45946 0.80667 0.68934 0.0
H2771 H 0.48577 0.79401 0.70578 0.0
S2772 S 0.43705 0.82237 0.77259 0.0
N2773 N 0.42907 0.82515 0.75037 0.0
N2774 N 0.45769 0.81173 0.76801 0.0
C2775 C 0.45892 0.8101 0.74759 0.0
C2776 C 0.44334 0.81725 0.73801 0.0
C2777 C 0.65987 0.92399 0.64889 0.0
C2778 C 0.66577 0.90565 0.6413 0.0
C2779 C 0.66553 0.93293 0.66786 0.0
C2780 C 0.67754 0.92395 0.67969 0.0
H2781 H 0.651 0.93157 0.64002 0.0
H2782 H 0.66111 0.94731 0.67296 0.0
S2783 S 0.69712 0.87602 0.66651 0.0
N2784 N 0.68442 0.87889 0.64693 0.0
N2785 N 0.69485 0.89562 0.68269 0.0
C2786 C 0.6833 0.90549 0.67239 0.0
C2787 C 0.67745 0.89635 0.65315 0.0
C2788 C 0.61569 0.86597 0.33951 0.0
C2789 C 0.61798 0.87021 0.36038 0.0
C2790 C 0.59936 0.85393 0.33183 0.0
C2791 C 0.58464 0.84555 0.34464 0.0
H2792 H 0.62654 0.87207 0.32891 0.0
H2793 H 0.59831 0.85107 0.31566 0.0
S2794 S 0.58332 0.85188 0.40037 0.0
N2795 N 0.60397 0.8649 0.39377 0.0
N2796 N 0.57318 0.84225 0.37915 0.0
C2797 C 0.58672 0.84943 0.36551 0.0
C2798 C 0.60339 0.86178 0.37341 0.0
C2799 C 0.69331 0.09105 0.35222 0.0
C2800 C 0.68988 0.10708 0.34219 0.0
C2801 C 0.70571 0.07714 0.34353 0.0
C2802 C 0.71479 0.07856 0.32435 0.0
H2803 H 0.68673 0.08945 0.3671 0.0
H2804 H 0.70824 0.06521 0.35185 0.0
S2805 S 0.71053 0.11736 0.29163 0.0
N2806 N 0.69655 0.12332 0.31187 0.0
N2807 N 0.71967 0.09709 0.29557 0.0
C2808 C 0.7113 0.09428 0.31403 0.0
C2809 C 0.69889 0.10857 0.32294 0.0
C2810 C 0.40409 0.20255 0.35709 0.0
C2811 C 0.41058 0.19017 0.37007 0.0
C2812 C 0.4176 0.21334 0.34506 0.0
C2813 C 0.43803 0.21185 0.3453 0.0
H2814 H 0.38847 0.20425 0.35651 0.0
H2815 H 0.41204 0.22288 0.33546 0.0
S2816 S 0.46278 0.18139 0.37614 0.0
N2817 N 0.43894 0.17701 0.38221 0.0
N2818 N 0.46424 0.19712 0.35929 0.0
C2819 C 0.44475 0.19937 0.3579 0.0
C2820 C 0.43104 0.18857 0.37038 0.0
C2821 C 0.32519 0.92272 0.37913 0.0
C2822 C 0.34199 0.93183 0.38921 0.0
C2823 C 0.31311 0.93345 0.36931 0.0
C2824 C 0.31735 0.95373 0.36909 0.0
H2825 H 0.32135 0.9071 0.37865 0.0
H2826 H 0.30055 0.92573 0.36148 0.0
S2827 S 0.35881 0.98493 0.394 0.0
N2828 N 0.36176 0.96264 0.39886 0.0
N2829 N 0.33894 0.98272 0.38045 0.0
C2830 C 0.33388 0.96312 0.3793 0.0
C2831 C 0.3462 0.95221 0.38936 0.0
C2832 C 0.68258 0.11009 0.72225 0.0
C2833 C 0.6881 0.12713 0.73516 0.0
C2834 C 0.68805 0.09189 0.72574 0.0
C2835 C 0.69907 0.08995 0.74241 0.0
H2836 H 0.67404 0.11077 0.70922 0.0
H2837 H 0.68342 0.07918 0.71544 0.0
S2838 S 0.71759 0.12977 0.7807 0.0
N2839 N 0.70553 0.14074 0.76528 0.0
N2840 N 0.71565 0.10644 0.7718 0.0
C2841 C 0.7047 0.10675 0.75548 0.0
C2842 C 0.69929 0.12535 0.75185 0.0
C2843 C 0.70724 0.95476 0.35278 0.0
C2844 C 0.7163 0.94297 0.36459 0.0
C2845 C 0.71845 0.96651 0.33981 0.0
C2846 C 0.7392 0.96707 0.33816 0.0
H2847 H 0.69128 0.95484 0.35336 0.0
H2848 H 0.71079 0.97533 0.33106 0.0
S2849 S 0.77038 0.93908 0.36549 0.0
N2850 N 0.7475 0.93271 0.3737 0.0
N2851 N 0.76849 0.9548 0.34917 0.0
C2852 C 0.74855 0.95554 0.34992 0.0
C2853 C 0.73713 0.94349 0.36314 0.0
C2854 C 0.61866 0.2143 0.31954 0.0
C2855 C 0.63489 0.22551 0.32884 0.0
C2856 C 0.60393 0.22318 0.31122 0.0
C2857 C 0.60482 0.2436 0.3119 0.0
H2858 H 0.61699 0.19854 0.3191 0.0
H2859 H 0.59136 0.214 0.30485 0.0
S2860 S 0.64489 0.2796 0.33276 0.0
N2861 N 0.65152 0.25825 0.33695 0.0
N2862 N 0.62373 0.27476 0.3213 0.0
C2863 C 0.62123 0.25497 0.32047 0.0
C2864 C 0.6363 0.24597 0.32889 0.0
C2865 C 0.30257 0.0956 0.40363 0.0
C2866 C 0.32319 0.09929 0.40581 0.0
C2867 C 0.29448 0.08014 0.39024 0.0
C2868 C 0.30665 0.06774 0.37842 0.0
H2869 H 0.2925 0.10484 0.41217 0.0
H2870 H 0.27855 0.07813 0.38882 0.0
S2871 S 0.36141 0.07014 0.37912 0.0
N2872 N 0.35558 0.08861 0.39543 0.0
N2873 N 0.34022 0.05946 0.37033 0.0
C2874 C 0.32724 0.07095 0.38063 0.0
C2875 C 0.33554 0.08672 0.39432 0.0
C2876 C 0.43123 0.866 0.36679 0.0
C2877 C 0.43635 0.87263 0.38668 0.0
C2878 C 0.44441 0.85641 0.35325 0.0
C2879 C 0.46328 0.85318 0.35903 0.0
H2880 H 0.41659 0.86742 0.36183 0.0
H2881 H 0.43943 0.85073 0.33842 0.0
S2882 S 0.48512 0.87026 0.4083 0.0
N2883 N 0.46246 0.87702 0.41079 0.0
N2884 N 0.48728 0.85925 0.3852 0.0
C2885 C 0.46904 0.86072 0.37846 0.0
C2886 C 0.45559 0.8704 0.3923 0.0
C2887 C 0.32642 0.90487 0.74554 0.0
C2888 C 0.34446 0.90079 0.73538 0.0
C2889 C 0.32229 0.92409 0.75162 0.0
C2890 C 0.33606 0.94002 0.74789 0.0
H2891 H 0.31511 0.89316 0.74845 0.0
H2892 H 0.30806 0.9265 0.75906 0.0
S2893 S 0.38574 0.93753 0.72243 0.0
N2894 N 0.37655 0.91449 0.72249 0.0
N2895 N 0.36861 0.9506 0.73376 0.0
C2896 C 0.3544 0.93623 0.73831 0.0
C2897 C 0.35864 0.91663 0.7321 0.0
C2898 C 0.61634 0.82086 0.6942 0.0
C2899 C 0.61522 0.84113 0.6953 0.0
C2900 C 0.60564 0.80957 0.70793 0.0
C2901 C 0.59343 0.81808 0.72335 0.0
H2902 H 0.62542 0.81353 0.68252 0.0
H2903 H 0.60696 0.79403 0.70646 0.0
S2904 S 0.58519 0.87042 0.73302 0.0
N2905 N 0.60094 0.86925 0.71337 0.0
N2906 N 0.58069 0.84789 0.73901 0.0
C2907 C 0.59232 0.83833 0.72486 0.0
C2908 C 0.60323 0.84987 0.71088 0.0
C2909 C 0.43572 0.23909 0.68574 0.0
C2910 C 0.41772 0.24469 0.67993 0.0
C2911 C 0.44719 0.25079 0.70014 0.0
C2912 C 0.44127 0.26866 0.70921 0.0
H2913 H 0.44083 0.22528 0.67953 0.0
H2914 H 0.46077 0.24572 0.70433 0.0
S2915 S 0.39599 0.29064 0.6989 0.0
N2916 N 0.39494 0.26984 0.68402 0.0
N2917 N 0.41661 0.29178 0.71114 0.0
C2918 C 0.42368 0.2748 0.70319 0.0
C2919 C 0.41188 0.26284 0.68856 0.0
C2920 C 0.75203 0.74777 0.18477 0.0
C2921 C 0.7461 0.72806 0.1873 0.0
C2922 C 0.76007 0.75328 0.16632 0.0
C2923 C 0.76251 0.73932 0.14965 0.0
H2924 H 0.75004 0.75914 0.19702 0.0
H2925 H 0.76399 0.76865 0.16497 0.0
S2926 S 0.74935 0.68583 0.14812 0.0
N2927 N 0.74356 0.69449 0.17146 0.0
N2928 N 0.75839 0.70495 0.13674 0.0
C2929 C 0.75717 0.71952 0.15205 0.0
C2930 C 0.74905 0.71387 0.17088 0.0
C2931 C 0.36547 0.70767 0.10546 0.0
C2932 C 0.35129 0.69789 0.11789 0.0
C2933 C 0.36021 0.72164 0.09375 0.0
C2934 C 0.34052 0.72607 0.09377 0.0
H2935 H 0.38087 0.70483 0.10506 0.0
H2936 H 0.3716 0.729 0.08456 0.0
S2937 S 0.29765 0.70445 0.12318 0.0
N2938 N 0.31659 0.69357 0.12924 0.0
N2939 N 0.30675 0.71966 0.10697 0.0
C2940 C 0.32613 0.71624 0.10581 0.0
C2941 C 0.3315 0.7022 0.11795 0.0
C2942 C 0.39374 0.32882 0.09983 0.0
C2943 C 0.39507 0.34874 0.09696 0.0
C2944 C 0.37967 0.31518 0.09007 0.0
C2945 C 0.36636 0.32094 0.07712 0.0
H2946 H 0.40307 0.32378 0.11031 0.0
H2947 H 0.37854 0.30019 0.09349 0.0
S2948 S 0.36513 0.3706 0.0623 0.0
N2949 N 0.38294 0.37306 0.0785 0.0
N2950 N 0.35649 0.3473 0.06034 0.0
C2951 C 0.3682 0.3405 0.07318 0.0
C2952 C 0.38259 0.35441 0.08301 0.0
C2953 C 0.70937 0.38969 0.07683 0.0
C2954 C 0.68893 0.38492 0.07433 0.0
C2955 C 0.72293 0.37608 0.07069 0.0
C2956 C 0.71659 0.35727 0.06157 0.0
H2957 H 0.71491 0.40391 0.084 0.0
H2958 H 0.73847 0.38024 0.0734 0.0
S2959 S 0.66486 0.33839 0.0495 0.0
N2960 N 0.66309 0.36054 0.06108 0.0
N2961 N 0.68863 0.3352 0.04882 0.0
C2962 C 0.69623 0.35254 0.05841 0.0
C2963 C 0.6824 0.3663 0.06496 0.0
C2964 C 0.73184 0.34959 0.92739 0.0
C2965 C 0.71791 0.36255 0.93492 0.0
C2966 C 0.74098 0.33902 0.94019 0.0
C2967 C 0.73628 0.34076 0.96095 0.0
H2968 H 0.73588 0.34769 0.91148 0.0
H2969 H 0.75164 0.32922 0.93378 0.0
S2970 S 0.70093 0.37256 0.98841 0.0
N2971 N 0.69999 0.37655 0.96467 0.0
N2972 N 0.71708 0.35642 0.98862 0.0
C2973 C 0.72238 0.35356 0.96873 0.0
C2974 C 0.71324 0.36454 0.95575 0.0
C2975 C 0.69295 0.68119 0.95332 0.0
C2976 C 0.68655 0.66187 0.95706 0.0
C2977 C 0.70419 0.69395 0.96707 0.0
C2978 C 0.70959 0.68793 0.98511 0.0
H2979 H 0.68931 0.68661 0.9396 0.0
H2980 H 0.70895 0.70859 0.96339 0.0
S2981 S 0.69623 0.63928 0.00271 0.0
N2982 N 0.68624 0.63753 0.98057 0.0
N2983 N 0.70735 0.6617 0.00644 0.0
C2984 C 0.70328 0.66877 0.98921 0.0
C2985 C 0.69175 0.65571 0.97521 0.0
C2986 C 0.35126 0.7787 0.90322 0.0
C2987 C 0.33907 0.78521 0.88959 0.0
C2988 C 0.34938 0.78453 0.92386 0.0
C2989 C 0.3351 0.79691 0.93161 0.0
H2990 H 0.36168 0.76823 0.89801 0.0
H2991 H 0.35822 0.77824 0.93391 0.0
S2992 S 0.3015 0.82027 0.90226 0.0
N2993 N 0.31377 0.8065 0.88517 0.0
N2994 N 0.31016 0.81732 0.92413 0.0
C2995 C 0.32385 0.8047 0.9181 0.0
C2996 C 0.3259 0.79893 0.89701 0.0
C2997 C 0.31141 0.32248 0.95383 0.0
C2998 C 0.30723 0.31203 0.93498 0.0
C2999 C 0.30909 0.3133 0.97151 0.0
C3000 C 0.30245 0.29332 0.97107 0.0
H3001 H 0.31699 0.33779 0.95493 0.0
H3002 H 0.31293 0.32185 0.98561 0.0
S3003 S 0.28735 0.25984 0.92596 0.0
N3004 N 0.2948 0.28083 0.91719 0.0
N3005 N 0.29016 0.26374 0.95045 0.0
C3006 C 0.29759 0.28284 0.95244 0.0
C3007 C 0.30004 0.29215 0.93441 0.0
C3008 C 0.64338 0.75572 0.27476 0.0
C3009 C 0.64356 0.73792 0.26223 0.0
C3010 C 0.62551 0.76306 0.28182 0.0
C3011 C 0.60717 0.7527 0.2769 0.0
H3012 H 0.65715 0.76437 0.27874 0.0
H3013 H 0.62603 0.77697 0.29109 0.0
S3014 S 0.59921 0.70531 0.24504 0.0
N3015 N 0.62354 0.70999 0.24556 0.0
N3016 N 0.59009 0.72381 0.25892 0.0
C3017 C 0.60706 0.73474 0.26477 0.0
C3018 C 0.62521 0.72734 0.25742 0.0
C3019 C 0.36709 0.60173 0.20234 0.0
C3020 C 0.36932 0.60249 0.18143 0.0
C3021 C 0.35489 0.58676 0.21043 0.0
C3022 C 0.34438 0.5719 0.19798 0.0
H3023 H 0.37467 0.6129 0.21269 0.0
H3024 H 0.35337 0.58706 0.22664 0.0
S3025 S 0.34568 0.56638 0.14224 0.0
N3026 N 0.36034 0.58657 0.14835 0.0
N3027 N 0.33747 0.55831 0.1637 0.0
C3028 C 0.3466 0.57224 0.17705 0.0
C3029 C 0.35908 0.58753 0.16874 0.0
C3030 C 0.45755 0.34982 0.20878 0.0
C3031 C 0.46457 0.34885 0.18855 0.0
C3032 C 0.46556 0.3394 0.22255 0.0
C3033 C 0.48071 0.32741 0.21656 0.0
H3034 H 0.44571 0.35868 0.21406 0.0
H3035 H 0.45955 0.34038 0.23791 0.0
S3036 S 0.50489 0.32015 0.16572 0.0
N3037 N 0.48811 0.33523 0.16346 0.0
N3038 N 0.50294 0.31555 0.18941 0.0
C3039 C 0.48806 0.32643 0.19653 0.0
C3040 C 0.48007 0.33719 0.18252 0.0
C3041 C 0.66842 0.42046 0.1773 0.0
C3042 C 0.6593 0.43288 0.16632 0.0
C3043 C 0.67728 0.42753 0.19549 0.0
C3044 C 0.67718 0.44722 0.20339 0.0
H3045 H 0.66975 0.40545 0.17127 0.0
H3046 H 0.68482 0.41769 0.20311 0.0
S3047 S 0.65473 0.48556 0.18083 0.0
N3048 N 0.65018 0.46565 0.16499 0.0
N3049 N 0.66689 0.47893 0.19915 0.0
C3050 C 0.66754 0.45962 0.19293 0.0
C3051 C 0.65864 0.45247 0.17437 0.0
C3052 C 0.60453 0.37993 0.86556 0.0
C3053 C 0.60606 0.40036 0.87028 0.0
C3054 C 0.58828 0.36988 0.85551 0.0
C3055 C 0.57294 0.37988 0.8498 0.0
H3056 H 0.61631 0.37164 0.86898 0.0
H3057 H 0.58813 0.35428 0.85145 0.0
S3058 S 0.56828 0.43286 0.86093 0.0
N3059 N 0.58969 0.42994 0.87012 0.0
N3060 N 0.55917 0.41093 0.85127 0.0
C3061 C 0.5737 0.40011 0.85531 0.0
C3062 C 0.59023 0.41037 0.86557 0.0
C3063 C 0.69626 0.5857 0.86017 0.0
C3064 C 0.69419 0.58161 0.88031 0.0
C3065 C 0.7109 0.57797 0.84701 0.0
C3066 C 0.7242 0.56612 0.85357 0.0
H3067 H 0.6865 0.59495 0.85448 0.0
H3068 H 0.71207 0.58161 0.83167 0.0
S3069 S 0.72511 0.55072 0.90456 0.0
N3070 N 0.70663 0.56455 0.90602 0.0
N3071 N 0.73432 0.55031 0.88121 0.0
C3072 C 0.72232 0.56181 0.87356 0.0
C3073 C 0.70724 0.56945 0.88693 0.0
C3074 C 0.40617 0.77201 0.79598 0.0
C3075 C 0.393 0.75744 0.80389 0.0
C3076 C 0.42652 0.77025 0.79372 0.0
C3077 C 0.43452 0.75388 0.79926 0.0
H3078 H 0.40082 0.7851 0.79185 0.0
H3079 H 0.43615 0.78191 0.78782 0.0
S3080 S 0.40657 0.71136 0.82024 0.0
N3081 N 0.38948 0.7257 0.81673 0.0
N3082 N 0.42783 0.72265 0.81266 0.0
C3083 C 0.42154 0.73893 0.80665 0.0
C3084 C 0.40077 0.74066 0.80893 0.0
C3085 C 0.295 0.44015 0.84175 0.0
C3086 C 0.28391 0.42172 0.84107 0.0
C3087 C 0.28714 0.45623 0.83548 0.0
C3088 C 0.26779 0.45455 0.82863 0.0
H3089 H 0.30993 0.44219 0.84709 0.0
H3090 H 0.29614 0.47017 0.83629 0.0
S3091 S 0.23247 0.40985 0.82393 0.0
N3092 N 0.25249 0.40285 0.83274 0.0
N3093 N 0.23768 0.4333 0.82142 0.0
C3094 C 0.25649 0.43634 0.82788 0.0
C3095 C 0.26458 0.41985 0.83394 0.0
C3096 C 0.72363 0.62216 0.24239 0.0
C3097 C 0.73058 0.63922 0.25457 0.0
C3098 C 0.72782 0.60368 0.24644 0.0
C3099 C 0.73894 0.60146 0.26297 0.0
H3100 H 0.71488 0.62304 0.22955 0.0
H3101 H 0.72202 0.59097 0.23673 0.0
S3102 S 0.76082 0.64124 0.29947 0.0
N3103 N 0.74941 0.65257 0.28384 0.0
N3104 N 0.75708 0.61774 0.29145 0.0
C3105 C 0.74601 0.6183 0.27528 0.0
C3106 C 0.74193 0.63719 0.27106 0.0
C3107 C 0.71654 0.46161 0.85358 0.0
C3108 C 0.72375 0.4473 0.86373 0.0
C3109 C 0.72917 0.47331 0.8417 0.0
C3110 C 0.74956 0.47138 0.83966 0.0
H3111 H 0.70088 0.46349 0.85433 0.0
H3112 H 0.72291 0.48393 0.83394 0.0
S3113 S 0.77632 0.43712 0.86381 0.0
N3114 N 0.75294 0.43246 0.87147 0.0
N3115 N 0.77669 0.45477 0.8492 0.0
C3116 C 0.75718 0.45767 0.85016 0.0
C3117 C 0.74427 0.44553 0.86215 0.0
C3118 C 0.62163 0.70052 0.87218 0.0
C3119 C 0.61989 0.67996 0.87048 0.0
C3120 C 0.61013 0.71051 0.86097 0.0
C3121 C 0.59644 0.70038 0.84752 0.0
H3122 H 0.63198 0.70909 0.88228 0.0
H3123 H 0.61211 0.72633 0.86271 0.0
S3124 S 0.58558 0.64662 0.83773 0.0
N3125 N 0.60304 0.64982 0.85436 0.0
N3126 N 0.58133 0.66872 0.83337 0.0
C3127 C 0.59445 0.67986 0.84561 0.0
C3128 C 0.60617 0.66963 0.85708 0.0
C3129 C 0.30496 0.6662 0.86226 0.0
C3130 C 0.30913 0.67637 0.84523 0.0
C3131 C 0.29671 0.6467 0.86043 0.0
C3132 C 0.29257 0.63664 0.84151 0.0
H3133 H 0.308 0.67334 0.87719 0.0
H3134 H 0.29365 0.63941 0.87388 0.0
S3135 S 0.29956 0.65651 0.79233 0.0
N3136 N 0.30774 0.67482 0.80881 0.0
N3137 N 0.2923 0.63816 0.80552 0.0
C3138 C 0.29648 0.64654 0.82438 0.0
C3139 C 0.30475 0.66641 0.8262 0.0
C3140 C 0.37201 0.35318 0.81649 0.0
C3141 C 0.37088 0.3526 0.8375 0.0
C3142 C 0.38897 0.34823 0.80484 0.0
C3143 C 0.40527 0.34244 0.81381 0.0
H3144 H 0.35958 0.35712 0.80893 0.0
H3145 H 0.3892 0.34859 0.78872 0.0
S3146 S 0.41103 0.34087 0.86825 0.0
N3147 N 0.38854 0.3474 0.86681 0.0
N3148 N 0.42011 0.33807 0.84487 0.0
C3149 C 0.40465 0.34246 0.83477 0.0
C3150 C 0.38753 0.34754 0.84662 0.0
C3151 C 0.37371 0.46219 0.16062 0.0
C3152 C 0.38167 0.44546 0.16538 0.0
C3153 C 0.35929 0.47095 0.17325 0.0
C3154 C 0.35217 0.46327 0.19109 0.0
H3155 H 0.37847 0.4685 0.14689 0.0
H3156 H 0.35358 0.4838 0.16894 0.0
S3157 S 0.36777 0.41946 0.21031 0.0
N3158 N 0.38132 0.42155 0.18932 0.0
N3159 N 0.35393 0.43782 0.2128 0.0
C3160 C 0.36015 0.4467 0.1962 0.0
C3161 C 0.37496 0.43784 0.18341 0.0
C3162 C 0.59034 0.36303 0.22626 0.0
C3163 C 0.60424 0.35694 0.21108 0.0
C3164 C 0.57936 0.34965 0.23773 0.0
C3165 C 0.58181 0.32963 0.23453 0.0
H3166 H 0.58756 0.37822 0.22907 0.0
H3167 H 0.56844 0.35497 0.24883 0.0
S3168 S 0.61751 0.30623 0.19812 0.0
N3169 N 0.62069 0.32952 0.19441 0.0
N3170 N 0.60008 0.30448 0.21616 0.0
C3171 C 0.59605 0.32337 0.2199 0.0
C3172 C 0.60727 0.33699 0.20817 0.0
C3173 C 0.44338 0.69907 0.19125 0.0
C3174 C 0.42252 0.69708 0.19321 0.0
C3175 C 0.45486 0.71193 0.20477 0.0
C3176 C 0.44596 0.72324 0.22084 0.0
H3177 H 0.451 0.69048 0.17931 0.0
H3178 H 0.47086 0.71273 0.20287 0.0
S3179 S 0.39207 0.72463 0.23212 0.0
N3180 N 0.39347 0.70834 0.21219 0.0
N3181 N 0.4152 0.7325 0.23749 0.0
C3182 C 0.42519 0.72174 0.22282 0.0
C3183 C 0.41344 0.7087 0.20903 0.0
loop_
_geom_bond_atom_site_label_1
_geom_bond_atom_site_label_2
_geom_bond_distance
_geom_bond_site_symmetry_2
_ccdc_geom_bond_type
O0 Cd1 2.300 . S
O0 C7 1.275 . S
Cd1 O0 2.300 . S
Cd1 O9 2.381 . S
Cd1 O10 2.378 . S
O2 Cd3 2.385 . S
O2 C7 1.255 . S
Cd3 O2 2.385 . S
Cd3 O4 2.317 . S
O4 Cd3 2.317 . S
O4 C5 1.232 . S
C5 O4 1.232 . S
C5 O6 1.218 . S
O6 C5 1.218 . S
C7 O0 1.275 . S
C7 O2 1.255 . S
C8 O9 1.258 . S
C8 O10 1.256 . S
O9 Cd1 2.381 . S
O9 C8 1.258 . S
O10 Cd1 2.378 . S
O10 C8 1.256 . S
O11 Cd12 2.300 . S
O11 C18 1.275 . S
Cd12 O11 2.300 . S
Cd12 O20 2.381 . S
Cd12 O21 2.378 . S
O13 Cd14 2.385 . S
O13 C18 1.255 . S
Cd14 O13 2.385 . S
Cd14 O15 2.317 . S
O15 Cd14 2.317 . S
O15 C16 1.232 . S
C16 O15 1.232 . S
C16 O17 1.218 . S
O17 C16 1.218 . S
C18 O11 1.275 . S
C18 O13 1.255 . S
C19 O20 1.258 . S
C19 O21 1.256 . S
O20 Cd12 2.381 . S
O20 C19 1.258 . S
O21 Cd12 2.378 . S
O21 C19 1.256 . S
O22 Cd23 2.300 . S
O22 C29 1.275 . S
Cd23 O22 2.300 . S
Cd23 O31 2.381 . S
Cd23 O32 2.378 . S
O24 Cd25 2.385 . S
O24 C29 1.255 . S
Cd25 O24 2.385 . S
Cd25 O26 2.317 . S
O26 Cd25 2.317 . S
O26 C27 1.232 . S
C27 O26 1.232 . S
C27 O28 1.218 . S
O28 C27 1.218 . S
C29 O22 1.275 . S
C29 O24 1.255 . S
C30 O31 1.258 . S
C30 O32 1.256 . S
O31 Cd23 2.381 . S
O31 C30 1.258 . S
O32 Cd23 2.378 . S
O32 C30 1.256 . S
O33 Cd34 2.300 . S
O33 C40 1.275 . S
Cd34 O33 2.300 . S
Cd34 O42 2.381 . S
Cd34 O43 2.378 . S
O35 Cd36 2.385 . S
O35 C40 1.255 . S
Cd36 O35 2.385 . S
Cd36 O37 2.317 . S
O37 Cd36 2.317 . S
O37 C38 1.232 . S
C38 O37 1.232 . S
C38 O39 1.218 . S
O39 C38 1.218 . S
C40 O33 1.275 . S
C40 O35 1.255 . S
C41 O42 1.258 . S
C41 O43 1.256 . S
O42 Cd34 2.381 . S
O42 C41 1.258 . S
O43 Cd34 2.378 . S
O43 C41 1.256 . S
O44 Cd45 2.300 . S
O44 C51 1.275 . S
Cd45 O44 2.300 . S
Cd45 O53 2.381 . S
Cd45 O54 2.378 . S
O46 Cd47 2.385 . S
O46 C51 1.255 . S
Cd47 O46 2.385 . S
Cd47 O48 2.317 . S
O48 Cd47 2.317 . S
O48 C49 1.232 . S
C49 O48 1.232 . S
C49 O50 1.218 . S
O50 C49 1.218 . S
C51 O44 1.275 . S
C51 O46 1.255 . S
C52 O53 1.258 . S
C52 O54 1.256 . S
O53 Cd45 2.381 . S
O53 C52 1.258 . S
O54 Cd45 2.378 . S
O54 C52 1.256 . S
O55 Cd56 2.300 . S
O55 C62 1.275 . S
Cd56 O55 2.300 . S
Cd56 O64 2.381 . S
Cd56 O65 2.378 . S
O57 Cd58 2.385 . S
O57 C62 1.255 . S
Cd58 O57 2.385 . S
Cd58 O59 2.317 . S
O59 Cd58 2.317 . S
O59 C60 1.232 . S
C60 O59 1.232 . S
C60 O61 1.218 . S
O61 C60 1.218 . S
C62 O55 1.275 . S
C62 O57 1.255 . S
C63 O64 1.258 . S
C63 O65 1.256 . S
O64 Cd56 2.381 . S
O64 C63 1.258 . S
O65 Cd56 2.378 . S
O65 C63 1.256 . S
O66 Cd67 2.300 . S
O66 C73 1.275 . S
Cd67 O66 2.300 . S
Cd67 O75 2.381 . S
Cd67 O76 2.378 . S
O68 Cd69 2.385 . S
O68 C73 1.255 . S
Cd69 O68 2.385 . S
Cd69 O70 2.317 . S
O70 Cd69 2.317 . S
O70 C71 1.232 . S
C71 O70 1.232 . S
C71 O72 1.218 . S
O72 C71 1.218 . S
C73 O66 1.275 . S
C73 O68 1.255 . S
C74 O75 1.258 . S
C74 O76 1.256 . S
O75 Cd67 2.381 . S
O75 C74 1.258 . S
O76 Cd67 2.378 . S
O76 C74 1.256 . S
O77 Cd78 2.300 . S
O77 C84 1.275 . S
Cd78 O77 2.300 . S
Cd78 O86 2.381 . S
Cd78 O87 2.378 . S
O79 Cd80 2.385 . S
O79 C84 1.255 . S
Cd80 O79 2.385 . S
Cd80 O81 2.317 . S
O81 Cd80 2.317 . S
O81 C82 1.232 . S
C82 O81 1.232 . S
C82 O83 1.218 . S
O83 C82 1.218 . S
C84 O77 1.275 . S
C84 O79 1.255 . S
C85 O86 1.258 . S
C85 O87 1.256 . S
O86 Cd78 2.381 . S
O86 C85 1.258 . S
O87 Cd78 2.378 . S
O87 C85 1.256 . S
O88 Cd89 2.300 . S
O88 C95 1.275 . S
Cd89 O88 2.300 . S
Cd89 O97 2.381 . S
Cd89 O98 2.378 . S
O90 Cd91 2.385 . S
O90 C95 1.255 . S
Cd91 O90 2.385 . S
Cd91 O92 2.317 . S
O92 Cd91 2.317 . S
O92 C93 1.232 . S
C93 O92 1.232 . S
C93 O94 1.218 . S
O94 C93 1.218 . S
C95 O88 1.275 . S
C95 O90 1.255 . S
C96 O97 1.258 . S
C96 O98 1.256 . S
O97 Cd89 2.381 . S
O97 C96 1.258 . S
O98 Cd89 2.378 . S
O98 C96 1.256 . S
O99 Cd100 2.300 . S
O99 C106 1.275 . S
Cd100 O99 2.300 . S
Cd100 O108 2.381 . S
Cd100 O109 2.378 . S
O101 Cd102 2.385 . S
O101 C106 1.255 . S
Cd102 O101 2.385 . S
Cd102 O103 2.317 . S
O103 Cd102 2.317 . S
O103 C104 1.232 . S
C104 O103 1.232 . S
C104 O105 1.218 . S
O105 C104 1.218 . S
C106 O99 1.275 . S
C106 O101 1.255 . S
C107 O108 1.258 . S
C107 O109 1.256 . S
O108 Cd100 2.381 . S
O108 C107 1.258 . S
O109 Cd100 2.378 . S
O109 C107 1.256 . S
O110 Cd111 2.300 . S
O110 C117 1.275 . S
Cd111 O110 2.300 . S
Cd111 O119 2.381 . S
Cd111 O120 2.378 . S
O112 Cd113 2.385 . S
O112 C117 1.255 . S
Cd113 O112 2.385 . S
Cd113 O114 2.317 . S
O114 Cd113 2.317 . S
O114 C115 1.232 . S
C115 O114 1.232 . S
C115 O116 1.218 . S
O116 C115 1.218 . S
C117 O110 1.275 . S
C117 O112 1.255 . S
C118 O119 1.258 . S
C118 O120 1.256 . S
O119 Cd111 2.381 . S
O119 C118 1.258 . S
O120 Cd111 2.378 . S
O120 C118 1.256 . S
O121 Cd122 2.300 . S
O121 C128 1.275 . S
Cd122 O121 2.300 . S
Cd122 O130 2.381 . S
Cd122 O131 2.378 . S
O123 Cd124 2.385 . S
O123 C128 1.255 . S
Cd124 O123 2.385 . S
Cd124 O125 2.317 . S
O125 Cd124 2.317 . S
O125 C126 1.232 . S
C126 O125 1.232 . S
C126 O127 1.218 . S
O127 C126 1.218 . S
C128 O121 1.275 . S
C128 O123 1.255 . S
C129 O130 1.258 . S
C129 O131 1.256 . S
O130 Cd122 2.381 . S
O130 C129 1.258 . S
O131 Cd122 2.378 . S
O131 C129 1.256 . S
O132 Cd133 2.300 . S
O132 C139 1.275 . S
Cd133 O132 2.300 . S
Cd133 O141 2.381 . S
Cd133 O142 2.378 . S
O134 Cd135 2.385 . S
O134 C139 1.255 . S
Cd135 O134 2.385 . S
Cd135 O136 2.317 . S
O136 Cd135 2.317 . S
O136 C137 1.232 . S
C137 O136 1.232 . S
C137 O138 1.218 . S
O138 C137 1.218 . S
C139 O132 1.275 . S
C139 O134 1.255 . S
C140 O141 1.258 . S
C140 O142 1.256 . S
O141 Cd133 2.381 . S
O141 C140 1.258 . S
O142 Cd133 2.378 . S
O142 C140 1.256 . S
O143 Cd144 2.300 . S
O143 C150 1.275 . S
Cd144 O143 2.300 . S
Cd144 O152 2.381 . S
Cd144 O153 2.378 . S
O145 Cd146 2.385 . S
O145 C150 1.255 . S
Cd146 O145 2.385 . S
Cd146 O147 2.317 . S
O147 Cd146 2.317 . S
O147 C148 1.232 . S
C148 O147 1.232 . S
C148 O149 1.218 . S
O149 C148 1.218 . S
C150 O143 1.275 . S
C150 O145 1.255 . S
C151 O152 1.258 . S
C151 O153 1.256 . S
O152 Cd144 2.381 . S
O152 C151 1.258 . S
O153 Cd144 2.378 . S
O153 C151 1.256 . S
O154 Cd155 2.300 . S
O154 C161 1.275 . S
Cd155 O154 2.300 . S
Cd155 O163 2.381 . S
Cd155 O164 2.378 . S
O156 Cd157 2.385 . S
O156 C161 1.255 . S
Cd157 O156 2.385 . S
Cd157 O158 2.317 . S
O158 Cd157 2.317 . S
O158 C159 1.232 . S
C159 O158 1.232 . S
C159 O160 1.218 . S
O160 C159 1.218 . S
C161 O154 1.275 . S
C161 O156 1.255 . S
C162 O163 1.258 . S
C162 O164 1.256 . S
O163 Cd155 2.381 . S
O163 C162 1.258 . S
O164 Cd155 2.378 . S
O164 C162 1.256 . S
O165 Cd166 2.300 . S
O165 C172 1.275 . S
Cd166 O165 2.300 . S
Cd166 O174 2.381 . S
Cd166 O175 2.378 . S
O167 Cd168 2.385 . S
O167 C172 1.255 . S
Cd168 O167 2.385 . S
Cd168 O169 2.317 . S
O169 Cd168 2.317 . S
O169 C170 1.232 . S
C170 O169 1.232 . S
C170 O171 1.218 . S
O171 C170 1.218 . S
C172 O165 1.275 . S
C172 O167 1.255 . S
C173 O174 1.258 . S
C173 O175 1.256 . S
O174 Cd166 2.381 . S
O174 C173 1.258 . S
O175 Cd166 2.378 . S
O175 C173 1.256 . S
O176 Cd177 2.300 . S
O176 C183 1.275 . S
Cd177 O176 2.300 . S
Cd177 O185 2.381 . S
Cd177 O186 2.378 . S
O178 Cd179 2.385 . S
O178 C183 1.255 . S
Cd179 O178 2.385 . S
Cd179 O180 2.317 . S
O180 Cd179 2.317 . S
O180 C181 1.232 . S
C181 O180 1.232 . S
C181 O182 1.218 . S
O182 C181 1.218 . S
C183 O176 1.275 . S
C183 O178 1.255 . S
C184 O185 1.258 . S
C184 O186 1.256 . S
O185 Cd177 2.381 . S
O185 C184 1.258 . S
O186 Cd177 2.378 . S
O186 C184 1.256 . S
O187 Cd188 2.300 . S
O187 C194 1.275 . S
Cd188 O187 2.300 . S
Cd188 O196 2.381 . S
Cd188 O197 2.378 . S
O189 Cd190 2.385 . S
O189 C194 1.255 . S
Cd190 O189 2.385 . S
Cd190 O191 2.317 . S
O191 Cd190 2.317 . S
O191 C192 1.232 . S
C192 O191 1.232 . S
C192 O193 1.218 . S
O193 C192 1.218 . S
C194 O187 1.275 . S
C194 O189 1.255 . S
C195 O196 1.258 . S
C195 O197 1.256 . S
O196 Cd188 2.381 . S
O196 C195 1.258 . S
O197 Cd188 2.378 . S
O197 C195 1.256 . S
O198 Cd199 2.300 . S
O198 C205 1.275 . S
Cd199 O198 2.300 . S
Cd199 O207 2.381 . S
Cd199 O208 2.378 . S
O200 Cd201 2.385 . S
O200 C205 1.255 . S
Cd201 O200 2.385 . S
Cd201 O202 2.317 . S
O202 Cd201 2.317 . S
O202 C203 1.232 . S
C203 O202 1.232 . S
C203 O204 1.218 . S
O204 C203 1.218 . S
C205 O198 1.275 . S
C205 O200 1.255 . S
C206 O207 1.258 . S
C206 O208 1.256 . S
O207 Cd199 2.381 . S
O207 C206 1.258 . S
O208 Cd199 2.378 . S
O208 C206 1.256 . S
O209 Cd210 2.300 . S
O209 C216 1.275 . S
Cd210 O209 2.300 . S
Cd210 O218 2.381 . S
Cd210 O219 2.378 . S
O211 Cd212 2.385 . S
O211 C216 1.255 . S
Cd212 O211 2.385 . S
Cd212 O213 2.317 . S
O213 Cd212 2.317 . S
O213 C214 1.232 . S
C214 O213 1.232 . S
C214 O215 1.218 . S
O215 C214 1.218 . S
C216 O209 1.275 . S
C216 O211 1.255 . S
C217 O218 1.258 . S
C217 O219 1.256 . S
O218 Cd210 2.381 . S
O218 C217 1.258 . S
O219 Cd210 2.378 . S
O219 C217 1.256 . S
O220 Cd221 2.300 . S
O220 C227 1.275 . S
Cd221 O220 2.300 . S
Cd221 O229 2.381 . S
Cd221 O230 2.378 . S
O222 Cd223 2.385 . S
O222 C227 1.255 . S
Cd223 O222 2.385 . S
Cd223 O224 2.317 . S
O224 Cd223 2.317 . S
O224 C225 1.232 . S
C225 O224 1.232 . S
C225 O226 1.218 . S
O226 C225 1.218 . S
C227 O220 1.275 . S
C227 O222 1.255 . S
C228 O229 1.258 . S
C228 O230 1.256 . S
O229 Cd221 2.381 . S
O229 C228 1.258 . S
O230 Cd221 2.378 . S
O230 C228 1.256 . S
O231 Cd232 2.300 . S
O231 C238 1.275 . S
Cd232 O231 2.300 . S
Cd232 O240 2.381 . S
Cd232 O241 2.378 . S
O233 Cd234 2.385 . S
O233 C238 1.255 . S
Cd234 O233 2.385 . S
Cd234 O235 2.317 . S
O235 Cd234 2.317 . S
O235 C236 1.232 . S
C236 O235 1.232 . S
C236 O237 1.218 . S
O237 C236 1.218 . S
C238 O231 1.275 . S
C238 O233 1.255 . S
C239 O240 1.258 . S
C239 O241 1.256 . S
O240 Cd232 2.381 . S
O240 C239 1.258 . S
O241 Cd232 2.378 . S
O241 C239 1.256 . S
O242 Cd243 2.300 . S
O242 C249 1.275 . S
Cd243 O242 2.300 . S
Cd243 O251 2.381 . S
Cd243 O252 2.378 . S
O244 Cd245 2.385 . S
O244 C249 1.255 . S
Cd245 O244 2.385 . S
Cd245 O246 2.317 . S
O246 Cd245 2.317 . S
O246 C247 1.232 . S
C247 O246 1.232 . S
C247 O248 1.218 . S
O248 C247 1.218 . S
C249 O242 1.275 . S
C249 O244 1.255 . S
C250 O251 1.258 . S
C250 O252 1.256 . S
O251 Cd243 2.381 . S
O251 C250 1.258 . S
O252 Cd243 2.378 . S
O252 C250 1.256 . S
O253 Cd254 2.300 . S
O253 C260 1.275 . S
Cd254 O253 2.300 . S
Cd254 O262 2.381 . S
Cd254 O263 2.378 . S
O255 Cd256 2.385 . S
O255 C260 1.255 . S
Cd256 O255 2.385 . S
Cd256 O257 2.317 . S
O257 Cd256 2.317 . S
O257 C258 1.232 . S
C258 O257 1.232 . S
C258 O259 1.218 . S
O259 C258 1.218 . S
C260 O253 1.275 . S
C260 O255 1.255 . S
C261 O262 1.258 . S
C261 O263 1.256 . S
O262 Cd254 2.381 . S
O262 C261 1.258 . S
O263 Cd254 2.378 . S
O263 C261 1.256 . S
O264 Cd265 2.300 . S
O264 C271 1.275 . S
Cd265 O264 2.300 . S
Cd265 O273 2.381 . S
Cd265 O274 2.378 . S
O266 Cd267 2.385 . S
O266 C271 1.255 . S
Cd267 O266 2.385 . S
Cd267 O268 2.317 . S
O268 Cd267 2.317 . S
O268 C269 1.232 . S
C269 O268 1.232 . S
C269 O270 1.218 . S
O270 C269 1.218 . S
C271 O264 1.275 . S
C271 O266 1.255 . S
C272 O273 1.258 . S
C272 O274 1.256 . S
O273 Cd265 2.381 . S
O273 C272 1.258 . S
O274 Cd265 2.378 . S
O274 C272 1.256 . S
O275 Cd276 2.300 . S
O275 C282 1.275 . S
Cd276 O275 2.300 . S
Cd276 O284 2.381 . S
Cd276 O285 2.378 . S
O277 Cd278 2.385 . S
O277 C282 1.255 . S
Cd278 O277 2.385 . S
Cd278 O279 2.317 . S
O279 Cd278 2.317 . S
O279 C280 1.232 . S
C280 O279 1.232 . S
C280 O281 1.218 . S
O281 C280 1.218 . S
C282 O275 1.275 . S
C282 O277 1.255 . S
C283 O284 1.258 . S
C283 O285 1.256 . S
O284 Cd276 2.381 . S
O284 C283 1.258 . S
O285 Cd276 2.378 . S
O285 C283 1.256 . S
O286 Cd287 2.300 . S
O286 C293 1.275 . S
Cd287 O286 2.300 . S
Cd287 O295 2.381 . S
Cd287 O296 2.378 . S
O288 Cd289 2.385 . S
O288 C293 1.255 . S
Cd289 O288 2.385 . S
Cd289 O290 2.317 . S
O290 Cd289 2.317 . S
O290 C291 1.232 . S
C291 O290 1.232 . S
C291 O292 1.218 . S
O292 C291 1.218 . S
C293 O286 1.275 . S
C293 O288 1.255 . S
C294 O295 1.258 . S
C294 O296 1.256 . S
O295 Cd287 2.381 . S
O295 C294 1.258 . S
O296 Cd287 2.378 . S
O296 C294 1.256 . S
O297 Cd298 2.300 . S
O297 C304 1.275 . S
Cd298 O297 2.300 . S
Cd298 O306 2.381 . S
Cd298 O307 2.378 . S
O299 Cd300 2.385 . S
O299 C304 1.255 . S
Cd300 O299 2.385 . S
Cd300 O301 2.317 . S
O301 Cd300 2.317 . S
O301 C302 1.232 . S
C302 O301 1.232 . S
C302 O303 1.218 . S
O303 C302 1.218 . S
C304 O297 1.275 . S
C304 O299 1.255 . S
C305 O306 1.258 . S
C305 O307 1.256 . S
O306 Cd298 2.381 . S
O306 C305 1.258 . S
O307 Cd298 2.378 . S
O307 C305 1.256 . S
O308 Cd309 2.300 . S
O308 C315 1.275 . S
Cd309 O308 2.300 . S
Cd309 O317 2.381 . S
Cd309 O318 2.378 . S
O310 Cd311 2.385 . S
O310 C315 1.255 . S
Cd311 O310 2.385 . S
Cd311 O312 2.317 . S
O312 Cd311 2.317 . S
O312 C313 1.232 . S
C313 O312 1.232 . S
C313 O314 1.218 . S
O314 C313 1.218 . S
C315 O308 1.275 . S
C315 O310 1.255 . S
C316 O317 1.258 . S
C316 O318 1.256 . S
O317 Cd309 2.381 . S
O317 C316 1.258 . S
O318 Cd309 2.378 . S
O318 C316 1.256 . S
O319 Cd320 2.300 . S
O319 C326 1.275 . S
Cd320 O319 2.300 . S
Cd320 O328 2.381 . S
Cd320 O329 2.378 . S
O321 Cd322 2.385 . S
O321 C326 1.255 . S
Cd322 O321 2.385 . S
Cd322 O323 2.317 . S
O323 Cd322 2.317 . S
O323 C324 1.232 . S
C324 O323 1.232 . S
C324 O325 1.218 . S
O325 C324 1.218 . S
C326 O319 1.275 . S
C326 O321 1.255 . S
C327 O328 1.258 . S
C327 O329 1.256 . S
O328 Cd320 2.381 . S
O328 C327 1.258 . S
O329 Cd320 2.378 . S
O329 C327 1.256 . S
O330 Cd331 2.300 . S
O330 C337 1.275 . S
Cd331 O330 2.300 . S
Cd331 O339 2.381 . S
Cd331 O340 2.378 . S
O332 Cd333 2.385 . S
O332 C337 1.255 . S
Cd333 O332 2.385 . S
Cd333 O334 2.317 . S
O334 Cd333 2.317 . S
O334 C335 1.232 . S
C335 O334 1.232 . S
C335 O336 1.218 . S
O336 C335 1.218 . S
C337 O330 1.275 . S
C337 O332 1.255 . S
C338 O339 1.258 . S
C338 O340 1.256 . S
O339 Cd331 2.381 . S
O339 C338 1.258 . S
O340 Cd331 2.378 . S
O340 C338 1.256 . S
O341 Cd342 2.300 . S
O341 C348 1.275 . S
Cd342 O341 2.300 . S
Cd342 O350 2.381 . S
Cd342 O351 2.378 . S
O343 Cd344 2.385 . S
O343 C348 1.255 . S
Cd344 O343 2.385 . S
Cd344 O345 2.317 . S
O345 Cd344 2.317 . S
O345 C346 1.232 . S
C346 O345 1.232 . S
C346 O347 1.218 . S
O347 C346 1.218 . S
C348 O341 1.275 . S
C348 O343 1.255 . S
C349 O350 1.258 . S
C349 O351 1.256 . S
O350 Cd342 2.381 . S
O350 C349 1.258 . S
O351 Cd342 2.378 . S
O351 C349 1.256 . S
H352 O378 0.856 . S
H353 O381 0.854 . S
H354 C389 0.930 . S
H355 C390 0.930 . S
H356 C392 0.930 . S
H357 C393 0.930 . S
H358 C395 0.931 . S
H359 C396 0.930 . S
H360 C398 0.930 . S
H361 C399 0.929 . S
H362 C401 0.930 . S
H363 C402 0.931 . S
H364 C404 0.930 . S
H365 C405 0.929 . S
H366 C407 0.931 . S
H367 C408 0.930 . S
H368 C410 0.930 . S
H369 C411 0.932 . S
H370 C413 0.930 . S
H371 C414 0.929 . S
H372 C416 0.931 . S
H373 C417 0.930 . S
H374 C419 0.929 . S
H375 C420 0.931 . S
H376 C422 0.930 . S
H377 C423 0.929 . S
O378 H352 0.856 . S
O378 C424 1.300 . S
O379 C424 1.209 . S
O380 C425 1.199 . S
O381 H353 0.854 . S
O381 C425 1.297 . S
C382 C383 1.404 . S
C382 C387 1.397 . S
C382 C388 1.492 . S
C383 C382 1.404 . S
C383 C384 1.396 . S
C383 C394 1.492 . S
C384 C383 1.396 . S
C384 C385 1.397 . S
C384 C400 1.509 . S
C385 C384 1.397 . S
C385 C386 1.412 . S
C385 C406 1.485 . S
C386 C385 1.412 . S
C386 C387 1.388 . S
C386 C412 1.490 . S
C387 C382 1.397 . S
C387 C386 1.388 . S
C387 C418 1.519 . S
C388 C382 1.492 . S
C388 C389 1.363 . S
C388 C393 1.390 . S
C389 H354 0.930 . S
C389 C388 1.363 . S
C389 C390 1.372 1_554 S
C390 H355 0.930 . S
C390 C389 1.372 1_556 S
C390 C391 1.383 . S
C391 C390 1.383 . S
C391 C392 1.395 . S
C392 H356 0.930 . S
C392 C391 1.395 . S
C392 C393 1.362 1_556 S
C393 H357 0.930 . S
C393 C388 1.390 . S
C393 C392 1.362 1_554 S
C394 C383 1.492 . S
C394 C395 1.377 . S
C394 C399 1.397 . S
C395 H358 0.931 . S
C395 C394 1.377 . S
C395 C396 1.376 . S
C396 H359 0.930 . S
C396 C395 1.376 . S
C396 C397 1.376 . S
C397 C396 1.376 . S
C397 C398 1.378 . S
C397 C424 1.486 . S
C398 H360 0.930 . S
C398 C397 1.378 . S
C398 C399 1.376 . S
C399 H361 0.929 . S
C399 C394 1.397 . S
C399 C398 1.376 . S
C400 C384 1.509 . S
C400 C401 1.391 . S
C400 C405 1.386 . S
C401 H362 0.930 . S
C401 C400 1.391 . S
C401 C402 1.375 . S
C402 H363 0.931 . S
C402 C401 1.375 . S
C402 C403 1.375 . S
C403 C402 1.375 . S
C403 C404 1.361 . S
C404 H364 0.930 . S
C404 C403 1.361 . S
C404 C405 1.399 . S
C405 H365 0.929 . S
C405 C400 1.386 . S
C405 C404 1.399 . S
C406 C385 1.485 . S
C406 C407 1.394 . S
C406 C411 1.360 . S
C407 H366 0.931 . S
C407 C406 1.394 . S
C407 C408 1.372 . S
C408 H367 0.930 . S
C408 C407 1.372 . S
C408 C409 1.397 . S
C409 C408 1.397 . S
C409 C410 1.390 . S
C409 C425 1.476 . S
C410 H368 0.930 . S
C410 C409 1.390 . S
C410 C411 1.366 . S
C411 H369 0.932 . S
C411 C406 1.360 . S
C411 C410 1.366 . S
C412 C386 1.490 . S
C412 C413 1.380 . S
C412 C417 1.386 . S
C413 H370 0.930 . S
C413 C412 1.380 . S
C413 C414 1.381 . S
C414 H371 0.929 . S
C414 C413 1.381 . S
C414 C415 1.371 . S
C415 C414 1.371 . S
C415 C416 1.380 . S
C416 H372 0.931 . S
C416 C415 1.380 . S
C416 C417 1.387 . S
C417 H373 0.930 . S
C417 C412 1.386 . S
C417 C416 1.387 . S
C418 C387 1.519 . S
C418 C419 1.377 . S
C418 C423 1.361 . S
C419 H374 0.929 . S
C419 C418 1.377 . S
C419 C420 1.386 1_554 S
C420 H375 0.931 . S
C420 C419 1.386 1_556 S
C420 C421 1.363 . S
C421 C420 1.363 . S
C421 C422 1.385 1_556 S
C422 H376 0.930 . S
C422 C421 1.385 1_554 S
C422 C423 1.396 . S
C423 H377 0.929 . S
C423 C418 1.361 . S
C423 C422 1.396 . S
C424 O378 1.300 . S
C424 O379 1.209 . S
C424 C397 1.486 . S
C425 O380 1.199 . S
C425 O381 1.297 . S
C425 C409 1.476 . S
H426 O452 0.856 . S
H427 O455 0.854 . S
H428 C463 0.930 . S
H429 C464 0.930 . S
H430 C466 0.930 . S
H431 C467 0.930 . S
H432 C469 0.931 . S
H433 C470 0.930 . S
H434 C472 0.930 . S
H435 C473 0.929 . S
H436 C475 0.930 . S
H437 C476 0.931 . S
H438 C478 0.930 . S
H439 C479 0.929 . S
H440 C481 0.931 . S
H441 C482 0.930 . S
H442 C484 0.930 . S
H443 C485 0.932 . S
H444 C487 0.930 . S
H445 C488 0.929 . S
H446 C490 0.931 . S
H447 C491 0.930 . S
H448 C493 0.929 . S
H449 C494 0.931 . S
H450 C496 0.930 . S
H451 C497 0.929 . S
O452 H426 0.856 . S
O452 C498 1.300 . S
O453 C498 1.209 . S
O454 C499 1.199 . S
O455 H427 0.854 . S
O455 C499 1.297 . S
C456 C457 1.404 1_556 S
C456 C461 1.397 1_556 S
C456 C462 1.492 . S
C457 C456 1.404 1_554 S
C457 C458 1.396 . S
C457 C468 1.492 1_554 S
C458 C457 1.396 . S
C458 C459 1.397 . S
C458 C474 1.509 . S
C459 C458 1.397 . S
C459 C460 1.412 . S
C459 C480 1.485 . S
C460 C459 1.412 . S
C460 C461 1.388 . S
C460 C486 1.490 . S
C461 C456 1.397 1_554 S
C461 C460 1.388 . S
C461 C492 1.519 1_554 S
C462 C456 1.492 . S
C462 C463 1.363 . S
C462 C467 1.390 . S
C463 H428 0.930 . S
C463 C462 1.363 . S
C463 C464 1.372 . S
C464 H429 0.930 . S
C464 C463 1.372 . S
C464 C465 1.383 . S
C465 C464 1.383 . S
C465 C466 1.395 . S
C466 H430 0.930 . S
C466 C465 1.395 . S
C466 C467 1.362 . S
C467 H431 0.930 . S
C467 C462 1.390 . S
C467 C466 1.362 . S
C468 C457 1.492 1_556 S
C468 C469 1.377 1_556 S
C468 C473 1.397 . S
C469 H432 0.931 . S
C469 C468 1.377 1_554 S
C469 C470 1.376 1_554 S
C470 H433 0.930 . S
C470 C469 1.376 1_556 S
C470 C471 1.376 . S
C471 C470 1.376 . S
C471 C472 1.378 . S
C471 C498 1.486 . S
C472 H434 0.930 . S
C472 C471 1.378 . S
C472 C473 1.376 . S
C473 H435 0.929 . S
C473 C468 1.397 . S
C473 C472 1.376 . S
C474 C458 1.509 . S
C474 C475 1.391 . S
C474 C479 1.386 . S
C475 H436 0.930 . S
C475 C474 1.391 . S
C475 C476 1.375 . S
C476 H437 0.931 . S
C476 C475 1.375 . S
C476 C477 1.375 . S
C477 C476 1.375 . S
C477 C478 1.361 . S
C478 H438 0.930 . S
C478 C477 1.361 . S
C478 C479 1.399 . S
C479 H439 0.929 . S
C479 C474 1.386 . S
C479 C478 1.399 . S
C480 C459 1.485 . S
C480 C481 1.394 . S
C480 C485 1.360 . S
C481 H440 0.931 . S
C481 C480 1.394 . S
C481 C482 1.372 . S
C482 H441 0.930 . S
C482 C481 1.372 . S
C482 C483 1.397 . S
C483 C482 1.397 . S
C483 C484 1.390 . S
C483 C499 1.476 . S
C484 H442 0.930 . S
C484 C483 1.390 . S
C484 C485 1.366 . S
C485 H443 0.932 . S
C485 C480 1.360 . S
C485 C484 1.366 . S
C486 C460 1.490 . S
C486 C487 1.380 . S
C486 C491 1.386 . S
C487 H444 0.930 . S
C487 C486 1.380 . S
C487 C488 1.381 . S
C488 H445 0.929 . S
C488 C487 1.381 . S
C488 C489 1.371 . S
C489 C488 1.371 . S
C489 C490 1.380 . S
C490 H446 0.931 . S
C490 C489 1.380 . S
C490 C491 1.387 . S
C491 H447 0.930 . S
C491 C486 1.386 . S
C491 C490 1.387 . S
C492 C461 1.519 1_556 S
C492 C493 1.377 . S
C492 C497 1.361 . S
C493 H448 0.929 . S
C493 C492 1.377 . S
C493 C494 1.386 . S
C494 H449 0.931 . S
C494 C493 1.386 . S
C494 C495 1.363 . S
C495 C494 1.363 . S
C495 C496 1.385 . S
C496 H450 0.930 . S
C496 C495 1.385 . S
C496 C497 1.396 . S
C497 H451 0.929 . S
C497 C492 1.361 . S
C497 C496 1.396 . S
C498 O452 1.300 . S
C498 O453 1.209 . S
C498 C471 1.486 . S
C499 O454 1.199 . S
C499 O455 1.297 . S
C499 C483 1.476 . S
H500 O526 0.856 . S
H501 O529 0.854 . S
H502 C537 0.930 . S
H503 C538 0.930 . S
H504 C540 0.930 . S
H505 C541 0.930 . S
H506 C543 0.931 . S
H507 C544 0.930 . S
H508 C546 0.930 . S
H509 C547 0.929 . S
H510 C549 0.930 . S
H511 C550 0.931 . S
H512 C552 0.930 . S
H513 C553 0.929 . S
H514 C555 0.931 1_554 S
H515 C556 0.930 . S
H516 C558 0.930 . S
H517 C559 0.932 . S
H518 C561 0.930 . S
H519 C562 0.929 . S
H520 C564 0.931 1_556 S
H521 C565 0.930 . S
H522 C567 0.929 . S
H523 C568 0.931 . S
H524 C570 0.930 . S
H525 C571 0.929 . S
O526 H500 0.856 . S
O526 C572 1.300 . S
O527 C572 1.209 . S
O528 C573 1.199 . S
O529 H501 0.854 . S
O529 C573 1.297 . S
C530 C531 1.404 . S
C530 C535 1.397 . S
C530 C536 1.492 . S
C531 C530 1.404 . S
C531 C532 1.396 . S
C531 C542 1.492 . S
C532 C531 1.396 . S
C532 C533 1.397 . S
C532 C548 1.509 . S
C533 C532 1.397 . S
C533 C534 1.412 . S
C533 C554 1.480 1_554 S
C534 C533 1.412 . S
C534 C535 1.388 . S
C534 C560 1.490 . S
C535 C530 1.397 . S
C535 C534 1.388 . S
C535 C566 1.519 . S
C536 C530 1.492 . S
C536 C537 1.363 . S
C536 C541 1.390 . S
C537 H502 0.930 . S
C537 C536 1.363 . S
C537 C538 1.372 . S
C538 H503 0.930 . S
C538 C537 1.372 . S
C538 C539 1.383 . S
C539 C538 1.383 . S
C539 C540 1.395 . S
C540 H504 0.930 . S
C540 C539 1.395 . S
C540 C541 1.362 . S
C541 H505 0.930 . S
C541 C536 1.390 . S
C541 C540 1.362 . S
C542 C531 1.492 . S
C542 C543 1.377 . S
C542 C547 1.397 . S
C543 H506 0.931 . S
C543 C542 1.377 . S
C543 C544 1.376 . S
C544 H507 0.930 . S
C544 C543 1.376 . S
C544 C545 1.376 . S
C545 C544 1.376 . S
C545 C546 1.378 . S
C545 C572 1.486 . S
C546 H508 0.930 . S
C546 C545 1.378 . S
C546 C547 1.376 . S
C547 H509 0.929 . S
C547 C542 1.397 . S
C547 C546 1.376 . S
C548 C532 1.509 . S
C548 C549 1.391 . S
C548 C553 1.386 . S
C549 H510 0.930 . S
C549 C548 1.391 . S
C549 C550 1.375 1_554 S
C550 H511 0.931 . S
C550 C549 1.375 1_556 S
C550 C551 1.375 . S
C551 C550 1.375 . S
C551 C552 1.361 . S
C552 H512 0.930 . S
C552 C551 1.361 . S
C552 C553 1.399 1_556 S
C553 H513 0.929 . S
C553 C548 1.386 . S
C553 C552 1.399 1_554 S
C554 C533 1.480 1_556 S
C554 C555 1.396 . S
C554 C559 1.362 . S
C555 H514 0.931 1_556 S
C555 C554 1.396 . S
C555 C556 1.372 . S
C556 H515 0.930 . S
C556 C555 1.372 . S
C556 C557 1.397 . S
C557 C556 1.397 . S
C557 C558 1.390 . S
C557 C573 1.476 . S
C558 H516 0.930 . S
C558 C557 1.390 . S
C558 C559 1.366 . S
C559 H517 0.932 . S
C559 C554 1.362 . S
C559 C558 1.366 . S
C560 C534 1.490 . S
C560 C561 1.380 . S
C560 C565 1.386 . S
C561 H518 0.930 . S
C561 C560 1.380 . S
C561 C562 1.381 . S
C562 H519 0.929 . S
C562 C561 1.381 . S
C562 C563 1.371 . S
C563 C562 1.371 . S
C563 C564 1.380 . S
C564 H520 0.931 1_554 S
C564 C563 1.380 . S
C564 C565 1.387 . S
C565 H521 0.930 . S
C565 C560 1.386 . S
C565 C564 1.387 . S
C566 C535 1.519 . S
C566 C567 1.377 . S
C566 C571 1.361 . S
C567 H522 0.929 . S
C567 C566 1.377 . S
C567 C568 1.386 . S
C568 H523 0.931 . S
C568 C567 1.386 . S
C568 C569 1.363 . S
C569 C568 1.363 . S
C569 C570 1.385 . S
C570 H524 0.930 . S
C570 C569 1.385 . S
C570 C571 1.396 . S
C571 H525 0.929 . S
C571 C566 1.361 . S
C571 C570 1.396 . S
C572 O526 1.300 . S
C572 O527 1.209 . S
C572 C545 1.486 . S
C573 O528 1.199 . S
C573 O529 1.297 . S
C573 C557 1.476 . S
H574 O600 0.856 . S
H575 O603 0.854 . S
H576 C611 0.930 . S
H577 C612 0.930 . S
H578 C614 0.930 . S
H579 C615 0.930 . S
H580 C617 0.931 . S
H581 C618 0.930 1_554 S
H582 C620 0.930 . S
H583 C621 0.929 . S
H584 C623 0.930 . S
H585 C624 0.931 . S
H586 C626 0.930 . S
H587 C627 0.929 . S
H588 C629 0.931 . S
H589 C630 0.930 . S
H590 C632 0.930 . S
H591 C633 0.932 . S
H592 C635 0.930 . S
H593 C636 0.929 . S
H594 C638 0.931 . S
H595 C639 0.930 . S
H596 C641 0.929 . S
H597 C642 0.931 . S
H598 C644 0.930 . S
H599 C645 0.929 1_554 S
O600 H574 0.856 . S
O600 C646 1.300 . S
O601 C646 1.209 . S
O602 C647 1.199 . S
O603 H575 0.854 . S
O603 C647 1.297 . S
C604 C605 1.404 . S
C604 C609 1.397 . S
C604 C610 1.492 1_554 S
C605 C604 1.404 . S
C605 C606 1.396 . S
C605 C616 1.492 . S
C606 C605 1.396 . S
C606 C607 1.397 . S
C606 C622 1.509 . S
C607 C606 1.397 . S
C607 C608 1.412 . S
C607 C628 1.485 . S
C608 C607 1.412 . S
C608 C609 1.388 . S
C608 C634 1.490 . S
C609 C604 1.397 . S
C609 C608 1.388 . S
C609 C640 1.519 1_554 S
C610 C604 1.492 1_556 S
C610 C611 1.363 . S
C610 C615 1.390 . S
C611 H576 0.930 . S
C611 C610 1.363 . S
C611 C612 1.372 . S
C612 H577 0.930 . S
C612 C611 1.372 . S
C612 C613 1.383 . S
C613 C612 1.383 . S
C613 C614 1.395 . S
C614 H578 0.930 . S
C614 C613 1.395 . S
C614 C615 1.362 . S
C615 H579 0.930 . S
C615 C610 1.390 . S
C615 C614 1.362 . S
C616 C605 1.492 . S
C616 C617 1.377 . S
C616 C621 1.397 1_554 S
C617 H580 0.931 . S
C617 C616 1.377 . S
C617 C618 1.376 1_554 S
C618 H581 0.930 1_556 S
C618 C617 1.376 1_556 S
C618 C619 1.376 . S
C619 C618 1.376 . S
C619 C620 1.378 . S
C619 C646 1.486 . S
C620 H582 0.930 . S
C620 C619 1.378 . S
C620 C621 1.376 . S
C621 H583 0.929 . S
C621 C616 1.397 1_556 S
C621 C620 1.376 . S
C622 C606 1.509 . S
C622 C623 1.391 . S
C622 C627 1.386 . S
C623 H584 0.930 . S
C623 C622 1.391 . S
C623 C624 1.375 . S
C624 H585 0.931 . S
C624 C623 1.375 . S
C624 C625 1.375 . S
C625 C624 1.375 . S
C625 C626 1.361 . S
C626 H586 0.930 . S
C626 C625 1.361 . S
C626 C627 1.399 . S
C627 H587 0.929 . S
C627 C622 1.386 . S
C627 C626 1.399 . S
C628 C607 1.485 . S
C628 C629 1.394 . S
C628 C633 1.360 . S
C629 H588 0.931 . S
C629 C628 1.394 . S
C629 C630 1.372 . S
C630 H589 0.930 . S
C630 C629 1.372 . S
C630 C631 1.397 . S
C631 C630 1.397 . S
C631 C632 1.390 . S
C631 C647 1.476 . S
C632 H590 0.930 . S
C632 C631 1.390 . S
C632 C633 1.366 . S
C633 H591 0.932 . S
C633 C628 1.360 . S
C633 C632 1.366 . S
C634 C608 1.490 . S
C634 C635 1.380 . S
C634 C639 1.386 . S
C635 H592 0.930 . S
C635 C634 1.380 . S
C635 C636 1.381 . S
C636 H593 0.929 . S
C636 C635 1.381 . S
C636 C637 1.371 . S
C637 C636 1.371 . S
C637 C638 1.380 . S
C638 H594 0.931 . S
C638 C637 1.380 . S
C638 C639 1.387 . S
C639 H595 0.930 . S
C639 C634 1.386 . S
C639 C638 1.387 . S
C640 C609 1.519 1_556 S
C640 C641 1.377 . S
C640 C645 1.361 . S
C641 H596 0.929 . S
C641 C640 1.377 . S
C641 C642 1.386 . S
C642 H597 0.931 . S
C642 C641 1.386 . S
C642 C643 1.363 . S
C643 C642 1.363 . S
C643 C644 1.385 . S
C644 H598 0.930 . S
C644 C643 1.385 . S
C644 C645 1.396 . S
C645 H599 0.929 1_556 S
C645 C640 1.361 . S
C645 C644 1.396 . S
C646 O600 1.300 . S
C646 O601 1.209 . S
C646 C619 1.486 . S
C647 O602 1.199 . S
C647 O603 1.297 . S
C647 C631 1.476 . S
H648 O674 0.865 . S
H649 O677 0.854 . S
H650 C685 0.930 . S
H651 C686 0.930 . S
H652 C688 0.930 . S
H653 C689 0.930 . S
H654 C691 0.931 . S
H655 C692 0.930 . S
H656 C694 0.930 . S
H657 C695 0.929 . S
H658 C697 0.930 . S
H659 C698 0.931 . S
H660 C700 0.930 . S
H661 C701 0.929 . S
H662 C703 0.931 . S
H663 C704 0.930 . S
H664 C706 0.930 . S
H665 C707 0.932 . S
H666 C709 0.930 . S
H667 C710 0.929 . S
H668 C712 0.931 . S
H669 C713 0.930 . S
H670 C715 0.929 . S
H671 C716 0.931 . S
H672 C718 0.930 . S
H673 C719 0.929 . S
O674 H648 0.865 . S
O674 C720 1.300 1_455 S
O675 C720 1.209 . S
O676 C721 1.199 . S
O677 H649 0.854 . S
O677 C721 1.297 . S
C678 C679 1.380 1_655 S
C678 C683 1.392 1_655 S
C678 C684 1.520 . S
C679 C678 1.380 1_455 S
C679 C680 1.396 . S
C679 C690 1.492 . S
C680 C679 1.396 . S
C680 C681 1.397 . S
C680 C696 1.509 . S
C681 C680 1.397 . S
C681 C682 1.412 . S
C681 C702 1.485 . S
C682 C681 1.412 . S
C682 C683 1.388 . S
C682 C708 1.490 . S
C683 C678 1.392 1_455 S
C683 C682 1.388 . S
C683 C714 1.519 1_455 S
C684 C678 1.520 . S
C684 C685 1.363 . S
C684 C689 1.390 . S
C685 H650 0.930 . S
C685 C684 1.363 . S
C685 C686 1.372 . S
C686 H651 0.930 . S
C686 C685 1.372 . S
C686 C687 1.383 . S
C687 C686 1.383 . S
C687 C688 1.395 . S
C688 H652 0.930 . S
C688 C687 1.395 . S
C688 C689 1.362 . S
C689 H653 0.930 . S
C689 C684 1.390 . S
C689 C688 1.362 . S
C690 C679 1.492 . S
C690 C691 1.377 . S
C690 C695 1.397 1_455 S
C691 H654 0.931 . S
C691 C690 1.377 . S
C691 C692 1.376 . S
C692 H655 0.930 . S
C692 C691 1.376 . S
C692 C693 1.365 1_455 S
C693 C692 1.365 1_655 S
C693 C694 1.386 . S
C693 C720 1.490 . S
C694 H656 0.930 . S
C694 C693 1.386 . S
C694 C695 1.376 . S
C695 H657 0.929 . S
C695 C690 1.397 1_655 S
C695 C694 1.376 . S
C696 C680 1.509 . S
C696 C697 1.391 . S
C696 C701 1.386 . S
C697 H658 0.930 . S
C697 C696 1.391 . S
C697 C698 1.375 . S
C698 H659 0.931 . S
C698 C697 1.375 . S
C698 C699 1.375 . S
C699 C698 1.375 . S
C699 C700 1.361 . S
C700 H660 0.930 . S
C700 C699 1.361 . S
C700 C701 1.399 . S
C701 H661 0.929 . S
C701 C696 1.386 . S
C701 C700 1.399 . S
C702 C681 1.485 . S
C702 C703 1.394 . S
C702 C707 1.360 . S
C703 H662 0.931 . S
C703 C702 1.394 . S
C703 C704 1.372 . S
C704 H663 0.930 . S
C704 C703 1.372 . S
C704 C705 1.397 . S
C705 C704 1.397 . S
C705 C706 1.390 . S
C705 C721 1.476 . S
C706 H664 0.930 . S
C706 C705 1.390 . S
C706 C707 1.366 . S
C707 H665 0.932 . S
C707 C702 1.360 . S
C707 C706 1.366 . S
C708 C682 1.490 . S
C708 C709 1.380 . S
C708 C713 1.386 . S
C709 H666 0.930 . S
C709 C708 1.380 . S
C709 C710 1.381 . S
C710 H667 0.929 . S
C710 C709 1.381 . S
C710 C711 1.371 . S
C711 C710 1.371 . S
C711 C712 1.380 . S
C712 H668 0.931 . S
C712 C711 1.380 . S
C712 C713 1.387 . S
C713 H669 0.930 . S
C713 C708 1.386 . S
C713 C712 1.387 . S
C714 C683 1.519 1_655 S
C714 C715 1.377 . S
C714 C719 1.361 . S
C715 H670 0.929 . S
C715 C714 1.377 . S
C715 C716 1.386 . S
C716 H671 0.931 . S
C716 C715 1.386 . S
C716 C717 1.363 . S
C717 C716 1.363 . S
C717 C718 1.385 . S
C718 H672 0.930 . S
C718 C717 1.385 . S
C718 C719 1.396 . S
C719 H673 0.929 . S
C719 C714 1.361 . S
C719 C718 1.396 . S
C720 O674 1.300 1_655 S
C720 O675 1.209 . S
C720 C693 1.490 . S
C721 O676 1.199 . S
C721 O677 1.297 . S
C721 C705 1.476 . S
H722 O748 0.856 . S
H723 O751 0.854 . S
H724 C759 0.930 . S
H725 C760 0.930 . S
H726 C762 0.930 . S
H727 C763 0.930 . S
H728 C765 0.931 . S
H729 C766 0.930 . S
H730 C768 0.909 1_565 S
H731 C769 0.929 . S
H732 C771 0.930 . S
H733 C772 0.931 . S
H734 C774 0.930 . S
H735 C775 0.929 . S
H736 C777 0.931 . S
H737 C778 0.930 . S
H738 C780 0.930 . S
H739 C781 0.932 . S
H740 C783 0.930 . S
H741 C784 0.929 . S
H742 C786 0.931 . S
H743 C787 0.930 . S
H744 C789 0.929 . S
H745 C790 0.931 . S
H746 C792 0.930 . S
H747 C793 0.941 . S
O748 H722 0.856 . S
O748 C794 1.290 1_545 S
O749 C794 1.227 . S
O750 C795 1.199 . S
O751 H723 0.854 . S
O751 C795 1.297 . S
C752 C753 1.404 . S
C752 C757 1.397 . S
C752 C758 1.492 1_545 S
C753 C752 1.404 . S
C753 C754 1.396 . S
C753 C764 1.492 . S
C754 C753 1.396 . S
C754 C755 1.397 . S
C754 C770 1.509 . S
C755 C754 1.397 . S
C755 C756 1.412 . S
C755 C776 1.485 . S
C756 C755 1.412 . S
C756 C757 1.388 . S
C756 C782 1.490 . S
C757 C752 1.397 . S
C757 C756 1.388 . S
C757 C788 1.519 1_545 S
C758 C752 1.492 1_565 S
C758 C759 1.363 . S
C758 C763 1.390 . S
C759 H724 0.930 . S
C759 C758 1.363 . S
C759 C760 1.372 . S
C760 H725 0.930 . S
C760 C759 1.372 . S
C760 C761 1.383 . S
C761 C760 1.383 . S
C761 C762 1.395 . S
C762 H726 0.930 . S
C762 C761 1.395 . S
C762 C763 1.362 . S
C763 H727 0.930 . S
C763 C758 1.390 . S
C763 C762 1.362 . S
C764 C753 1.492 . S
C764 C765 1.377 . S
C764 C769 1.397 . S
C765 H728 0.931 . S
C765 C764 1.377 . S
C765 C766 1.376 . S
C766 H729 0.930 . S
C766 C765 1.376 . S
C766 C767 1.376 . S
C767 C766 1.376 . S
C767 C768 1.378 . S
C767 C794 1.476 1_545 S
C768 H730 0.909 1_545 S
C768 C767 1.378 . S
C768 C769 1.376 . S
C769 H731 0.929 . S
C769 C764 1.397 . S
C769 C768 1.376 . S
C770 C754 1.509 . S
C770 C771 1.391 . S
C770 C775 1.386 . S
C771 H732 0.930 . S
C771 C770 1.391 . S
C771 C772 1.375 . S
C772 H733 0.931 . S
C772 C771 1.375 . S
C772 C773 1.375 . S
C773 C772 1.375 . S
C773 C774 1.361 . S
C774 H734 0.930 . S
C774 C773 1.361 . S
C774 C775 1.399 . S
C775 H735 0.929 . S
C775 C770 1.386 . S
C775 C774 1.399 . S
C776 C755 1.485 . S
C776 C777 1.394 . S
C776 C781 1.360 . S
C777 H736 0.931 . S
C777 C776 1.394 . S
C777 C778 1.372 . S
C778 H737 0.930 . S
C778 C777 1.372 . S
C778 C779 1.397 . S
C779 C778 1.397 . S
C779 C780 1.390 . S
C779 C795 1.476 . S
C780 H738 0.930 . S
C780 C779 1.390 . S
C780 C781 1.366 . S
C781 H739 0.932 . S
C781 C776 1.360 . S
C781 C780 1.366 . S
C782 C756 1.490 . S
C782 C783 1.380 . S
C782 C787 1.386 . S
C783 H740 0.930 . S
C783 C782 1.380 . S
C783 C784 1.381 . S
C784 H741 0.929 . S
C784 C783 1.381 . S
C784 C785 1.371 . S
C785 C784 1.371 . S
C785 C786 1.380 . S
C786 H742 0.931 . S
C786 C785 1.380 . S
C786 C787 1.387 . S
C787 H743 0.930 . S
C787 C782 1.386 . S
C787 C786 1.387 . S
C788 C757 1.519 1_565 S
C788 C789 1.377 . S
C788 C793 1.361 1_565 S
C789 H744 0.929 . S
C789 C788 1.377 . S
C789 C790 1.386 . S
C790 H745 0.931 . S
C790 C789 1.386 . S
C790 C791 1.363 . S
C791 C790 1.363 . S
C791 C792 1.385 . S
C792 H746 0.930 . S
C792 C791 1.385 . S
C792 C793 1.383 1_565 S
C793 H747 0.941 . S
C793 C788 1.361 1_545 S
C793 C792 1.383 1_545 S
C794 O748 1.290 1_565 S
C794 O749 1.227 . S
C794 C767 1.476 1_565 S
C795 O750 1.199 . S
C795 O751 1.297 . S
C795 C779 1.476 . S
H796 O822 0.856 . S
H797 O825 0.854 . S
H798 C833 0.930 . S
H799 C834 0.930 . S
H800 C836 0.930 . S
H801 C837 0.930 . S
H802 C839 0.931 . S
H803 C840 0.930 . S
H804 C842 0.930 . S
H805 C843 0.929 . S
H806 C845 0.930 . S
H807 C846 0.931 . S
H808 C848 0.930 . S
H809 C849 0.929 . S
H810 C851 0.931 . S
H811 C852 0.930 . S
H812 C854 0.930 . S
H813 C855 0.932 . S
H814 C857 0.930 . S
H815 C858 0.929 . S
H816 C860 0.931 . S
H817 C861 0.930 . S
H818 C863 0.929 . S
H819 C864 0.931 . S
H820 C866 0.930 . S
H821 C867 0.929 . S
O822 H796 0.856 . S
O822 C868 1.300 . S
O823 C868 1.209 . S
O824 C869 1.199 . S
O825 H797 0.854 . S
O825 C869 1.297 . S
C826 C827 1.404 . S
C826 C831 1.397 . S
C826 C832 1.492 . S
C827 C826 1.404 . S
C827 C828 1.396 . S
C827 C838 1.492 . S
C828 C827 1.396 . S
C828 C829 1.397 . S
C828 C844 1.509 . S
C829 C828 1.397 . S
C829 C830 1.412 . S
C829 C850 1.485 1_455 S
C830 C829 1.412 . S
C830 C831 1.388 . S
C830 C856 1.490 . S
C831 C826 1.397 . S
C831 C830 1.388 . S
C831 C862 1.519 . S
C832 C826 1.492 . S
C832 C833 1.363 . S
C832 C837 1.390 . S
C833 H798 0.930 . S
C833 C832 1.363 . S
C833 C834 1.372 . S
C834 H799 0.930 . S
C834 C833 1.372 . S
C834 C835 1.383 . S
C835 C834 1.383 . S
C835 C836 1.395 . S
C836 H800 0.930 . S
C836 C835 1.395 . S
C836 C837 1.362 . S
C837 H801 0.930 . S
C837 C832 1.390 . S
C837 C836 1.362 . S
C838 C827 1.492 . S
C838 C839 1.377 . S
C838 C843 1.397 . S
C839 H802 0.931 . S
C839 C838 1.377 . S
C839 C840 1.376 . S
C840 H803 0.930 . S
C840 C839 1.376 . S
C840 C841 1.376 . S
C841 C840 1.376 . S
C841 C842 1.378 . S
C841 C868 1.486 . S
C842 H804 0.930 . S
C842 C841 1.378 . S
C842 C843 1.376 . S
C843 H805 0.929 . S
C843 C838 1.397 . S
C843 C842 1.376 . S
C844 C828 1.509 . S
C844 C845 1.391 . S
C844 C849 1.386 . S
C845 H806 0.930 . S
C845 C844 1.391 . S
C845 C846 1.375 1_455 S
C846 H807 0.931 . S
C846 C845 1.375 1_655 S
C846 C847 1.375 . S
C847 C846 1.375 . S
C847 C848 1.361 . S
C848 H808 0.930 . S
C848 C847 1.361 . S
C848 C849 1.399 1_655 S
C849 H809 0.929 . S
C849 C844 1.386 . S
C849 C848 1.399 1_455 S
C850 C829 1.485 1_655 S
C850 C851 1.394 . S
C850 C855 1.360 . S
C851 H810 0.931 . S
C851 C850 1.394 . S
C851 C852 1.372 . S
C852 H811 0.930 . S
C852 C851 1.372 . S
C852 C853 1.397 . S
C853 C852 1.397 . S
C853 C854 1.390 . S
C853 C869 1.476 . S
C854 H812 0.930 . S
C854 C853 1.390 . S
C854 C855 1.366 . S
C855 H813 0.932 . S
C855 C850 1.360 . S
C855 C854 1.366 . S
C856 C830 1.490 . S
C856 C857 1.380 . S
C856 C861 1.386 . S
C857 H814 0.930 . S
C857 C856 1.380 . S
C857 C858 1.381 . S
C858 H815 0.929 . S
C858 C857 1.381 . S
C858 C859 1.371 . S
C859 C858 1.371 . S
C859 C860 1.380 . S
C860 H816 0.931 . S
C860 C859 1.380 . S
C860 C861 1.387 . S
C861 H817 0.930 . S
C861 C856 1.386 . S
C861 C860 1.387 . S
C862 C831 1.519 . S
C862 C863 1.377 . S
C862 C867 1.361 . S
C863 H818 0.929 . S
C863 C862 1.377 . S
C863 C864 1.386 . S
C864 H819 0.931 . S
C864 C863 1.386 . S
C864 C865 1.363 . S
C865 C864 1.363 . S
C865 C866 1.385 . S
C866 H820 0.930 . S
C866 C865 1.385 . S
C866 C867 1.396 . S
C867 H821 0.929 . S
C867 C862 1.361 . S
C867 C866 1.396 . S
C868 O822 1.300 . S
C868 O823 1.209 . S
C868 C841 1.486 . S
C869 O824 1.199 . S
C869 O825 1.297 . S
C869 C853 1.476 . S
H870 O896 0.856 . S
H871 O899 0.854 . S
H872 C907 0.930 . S
H873 C908 0.930 . S
H874 C910 0.930 . S
H875 C911 0.930 . S
H876 C913 0.931 1_565 S
H877 C914 0.930 . S
H878 C916 0.930 . S
H879 C917 0.929 . S
H880 C919 0.930 . S
H881 C920 0.931 . S
H882 C922 0.930 . S
H883 C923 0.929 . S
H884 C925 0.931 . S
H885 C926 0.930 . S
H886 C928 0.930 . S
H887 C929 0.932 . S
H888 C931 0.901 1_545 S
H889 C932 0.927 1_545 S
H890 C934 0.931 . S
H891 C935 0.930 . S
H892 C937 0.929 . S
H893 C938 0.931 . S
H894 C940 0.930 . S
H895 C941 0.929 . S
O896 H870 0.856 . S
O896 C942 1.300 . S
O897 C942 1.209 . S
O898 C943 1.199 . S
O899 H871 0.854 . S
O899 C943 1.297 . S
C900 C901 1.404 . S
C900 C905 1.397 . S
C900 C906 1.492 . S
C901 C900 1.404 . S
C901 C902 1.396 1_545 S
C901 C912 1.492 . S
C902 C901 1.396 1_565 S
C902 C903 1.397 . S
C902 C918 1.509 . S
C903 C902 1.397 . S
C903 C904 1.412 . S
C903 C924 1.485 . S
C904 C903 1.412 . S
C904 C905 1.388 1_565 S
C904 C930 1.490 . S
C905 C900 1.397 . S
C905 C904 1.388 1_545 S
C905 C936 1.519 . S
C906 C900 1.492 . S
C906 C907 1.363 . S
C906 C911 1.390 . S
C907 H872 0.930 . S
C907 C906 1.363 . S
C907 C908 1.372 . S
C908 H873 0.930 . S
C908 C907 1.372 . S
C908 C909 1.383 . S
C909 C908 1.383 . S
C909 C910 1.395 . S
C910 H874 0.930 . S
C910 C909 1.395 . S
C910 C911 1.362 . S
C911 H875 0.930 . S
C911 C906 1.390 . S
C911 C910 1.362 . S
C912 C901 1.492 . S
C912 C913 1.377 . S
C912 C917 1.397 . S
C913 H876 0.931 1_545 S
C913 C912 1.377 . S
C913 C914 1.376 . S
C914 H877 0.930 . S
C914 C913 1.376 . S
C914 C915 1.376 . S
C915 C914 1.376 . S
C915 C916 1.378 . S
C915 C942 1.486 . S
C916 H878 0.930 . S
C916 C915 1.378 . S
C916 C917 1.376 . S
C917 H879 0.929 . S
C917 C912 1.397 . S
C917 C916 1.376 . S
C918 C902 1.509 . S
C918 C919 1.391 . S
C918 C923 1.386 . S
C919 H880 0.930 . S
C919 C918 1.391 . S
C919 C920 1.375 . S
C920 H881 0.931 . S
C920 C919 1.375 . S
C920 C921 1.375 . S
C921 C920 1.375 . S
C921 C922 1.361 . S
C922 H882 0.930 . S
C922 C921 1.361 . S
C922 C923 1.399 . S
C923 H883 0.929 . S
C923 C918 1.386 . S
C923 C922 1.399 . S
C924 C903 1.485 . S
C924 C925 1.394 . S
C924 C929 1.360 . S
C925 H884 0.931 . S
C925 C924 1.394 . S
C925 C926 1.372 . S
C926 H885 0.930 . S
C926 C925 1.372 . S
C926 C927 1.397 . S
C927 C926 1.397 . S
C927 C928 1.390 . S
C927 C943 1.476 . S
C928 H886 0.930 . S
C928 C927 1.390 . S
C928 C929 1.366 . S
C929 H887 0.932 . S
C929 C924 1.360 . S
C929 C928 1.366 . S
C930 C904 1.490 . S
C930 C931 1.394 . S
C930 C935 1.386 . S
C931 H888 0.901 1_565 S
C931 C930 1.394 . S
C931 C932 1.399 . S
C932 H889 0.927 1_565 S
C932 C931 1.399 . S
C932 C933 1.371 . S
C933 C932 1.371 . S
C933 C934 1.380 . S
C934 H890 0.931 . S
C934 C933 1.380 . S
C934 C935 1.387 . S
C935 H891 0.930 . S
C935 C930 1.386 . S
C935 C934 1.387 . S
C936 C905 1.519 . S
C936 C937 1.377 . S
C936 C941 1.361 . S
C937 H892 0.929 . S
C937 C936 1.377 . S
C937 C938 1.386 . S
C938 H893 0.931 . S
C938 C937 1.386 . S
C938 C939 1.363 . S
C939 C938 1.363 . S
C939 C940 1.385 . S
C940 H894 0.930 . S
C940 C939 1.385 . S
C940 C941 1.396 . S
C941 H895 0.929 . S
C941 C936 1.361 . S
C941 C940 1.396 . S
C942 O896 1.300 . S
C942 O897 1.209 . S
C942 C915 1.486 . S
C943 O898 1.199 . S
C943 O899 1.297 . S
C943 C927 1.476 . S
H944 O970 0.856 . S
H945 O973 0.854 . S
H946 C981 0.930 . S
H947 C982 0.930 . S
H948 C984 0.930 . S
H949 C985 0.930 . S
H950 C987 0.931 . S
H951 C988 0.930 . S
H952 C990 0.930 . S
H953 C991 0.929 . S
H954 C993 0.930 . S
H955 C994 0.931 . S
H956 C996 0.930 . S
H957 C997 0.929 . S
H958 C999 0.931 . S
H959 C1000 0.930 . S
H960 C1002 0.930 . S
H961 C1003 0.932 . S
H962 C1005 0.930 . S
H963 C1006 0.929 . S
H964 C1008 0.931 . S
H965 C1009 0.930 . S
H966 C1011 0.929 . S
H967 C1012 0.931 . S
H968 C1014 0.930 . S
H969 C1015 0.929 1_455 S
O970 H944 0.856 . S
O970 C1016 1.300 . S
O971 C1016 1.209 . S
O972 C1017 1.199 . S
O973 H945 0.854 . S
O973 C1017 1.297 . S
C974 C975 1.404 . S
C974 C979 1.397 . S
C974 C980 1.492 1_455 S
C975 C974 1.404 . S
C975 C976 1.396 . S
C975 C986 1.492 . S
C976 C975 1.396 . S
C976 C977 1.397 . S
C976 C992 1.509 . S
C977 C976 1.397 . S
C977 C978 1.412 . S
C977 C998 1.485 . S
C978 C977 1.412 . S
C978 C979 1.388 . S
C978 C1004 1.490 . S
C979 C974 1.397 . S
C979 C978 1.388 . S
C979 C1010 1.519 1_455 S
C980 C974 1.492 1_655 S
C980 C981 1.363 . S
C980 C985 1.390 . S
C981 H946 0.930 . S
C981 C980 1.363 . S
C981 C982 1.372 . S
C982 H947 0.930 . S
C982 C981 1.372 . S
C982 C983 1.383 . S
C983 C982 1.383 . S
C983 C984 1.395 . S
C984 H948 0.930 . S
C984 C983 1.395 . S
C984 C985 1.362 . S
C985 H949 0.930 . S
C985 C980 1.390 . S
C985 C984 1.362 . S
C986 C975 1.492 . S
C986 C987 1.377 . S
C986 C991 1.397 . S
C987 H950 0.931 . S
C987 C986 1.377 . S
C987 C988 1.376 . S
C988 H951 0.930 . S
C988 C987 1.376 . S
C988 C989 1.376 . S
C989 C988 1.376 . S
C989 C990 1.378 . S
C989 C1016 1.486 . S
C990 H952 0.930 . S
C990 C989 1.378 . S
C990 C991 1.376 . S
C991 H953 0.929 . S
C991 C986 1.397 . S
C991 C990 1.376 . S
C992 C976 1.509 . S
C992 C993 1.391 . S
C992 C997 1.386 . S
C993 H954 0.930 . S
C993 C992 1.391 . S
C993 C994 1.375 . S
C994 H955 0.931 . S
C994 C993 1.375 . S
C994 C995 1.375 . S
C995 C994 1.375 . S
C995 C996 1.361 . S
C996 H956 0.930 . S
C996 C995 1.361 . S
C996 C997 1.399 . S
C997 H957 0.929 . S
C997 C992 1.386 . S
C997 C996 1.399 . S
C998 C977 1.485 . S
C998 C999 1.394 . S
C998 C1003 1.360 . S
C999 H958 0.931 . S
C999 C998 1.394 . S
C999 C1000 1.372 . S
C1000 H959 0.930 . S
C1000 C999 1.372 . S
C1000 C1001 1.397 . S
C1001 C1000 1.397 . S
C1001 C1002 1.390 . S
C1001 C1017 1.476 . S
C1002 H960 0.930 . S
C1002 C1001 1.390 . S
C1002 C1003 1.366 . S
C1003 H961 0.932 . S
C1003 C998 1.360 . S
C1003 C1002 1.366 . S
C1004 C978 1.490 . S
C1004 C1005 1.380 . S
C1004 C1009 1.386 . S
C1005 H962 0.930 . S
C1005 C1004 1.380 . S
C1005 C1006 1.381 . S
C1006 H963 0.929 . S
C1006 C1005 1.381 . S
C1006 C1007 1.371 . S
C1007 C1006 1.371 . S
C1007 C1008 1.380 . S
C1008 H964 0.931 . S
C1008 C1007 1.380 . S
C1008 C1009 1.387 . S
C1009 H965 0.930 . S
C1009 C1004 1.386 . S
C1009 C1008 1.387 . S
C1010 C979 1.519 1_655 S
C1010 C1011 1.377 . S
C1010 C1015 1.361 . S
C1011 H966 0.929 . S
C1011 C1010 1.377 . S
C1011 C1012 1.386 . S
C1012 H967 0.931 . S
C1012 C1011 1.386 . S
C1012 C1013 1.363 . S
C1013 C1012 1.363 . S
C1013 C1014 1.385 . S
C1014 H968 0.930 . S
C1014 C1013 1.385 . S
C1014 C1015 1.396 . S
C1015 H969 0.929 1_655 S
C1015 C1010 1.361 . S
C1015 C1014 1.396 . S
C1016 O970 1.300 . S
C1016 O971 1.209 . S
C1016 C989 1.486 . S
C1017 O972 1.199 . S
C1017 O973 1.297 . S
C1017 C1001 1.476 . S
H1018 O1044 0.856 . S
H1019 O1047 0.854 . S
H1020 C1055 0.930 . S
H1021 C1056 0.930 . S
H1022 C1058 0.930 . S
H1023 C1059 0.930 . S
H1024 C1061 0.931 . S
H1025 C1062 0.930 . S
H1026 C1064 0.930 . S
H1027 C1065 0.929 . S
H1028 C1067 0.930 . S
H1029 C1068 0.931 . S
H1030 C1070 0.930 . S
H1031 C1071 0.929 . S
H1032 C1073 0.931 . S
H1033 C1074 0.930 . S
H1034 C1076 0.930 . S
H1035 C1077 0.932 . S
H1036 C1079 0.930 . S
H1037 C1080 0.929 . S
H1038 C1082 0.931 . S
H1039 C1083 0.930 . S
H1040 C1085 0.929 . S
H1041 C1086 0.931 . S
H1042 C1088 0.930 . S
H1043 C1089 0.929 . S
O1044 H1018 0.856 . S
O1044 C1090 1.300 . S
O1045 C1090 1.189 1_565 S
O1046 C1091 1.199 . S
O1047 H1019 0.854 . S
O1047 C1091 1.297 . S
C1048 C1049 1.404 . S
C1048 C1053 1.397 . S
C1048 C1054 1.492 1_545 S
C1049 C1048 1.404 . S
C1049 C1050 1.396 . S
C1049 C1060 1.492 . S
C1050 C1049 1.396 . S
C1050 C1051 1.397 . S
C1050 C1066 1.509 . S
C1051 C1050 1.397 . S
C1051 C1052 1.412 . S
C1051 C1072 1.485 . S
C1052 C1051 1.412 . S
C1052 C1053 1.388 . S
C1052 C1078 1.490 . S
C1053 C1048 1.397 . S
C1053 C1052 1.388 . S
C1053 C1084 1.519 . S
C1054 C1048 1.492 1_565 S
C1054 C1055 1.363 . S
C1054 C1059 1.390 . S
C1055 H1020 0.930 . S
C1055 C1054 1.363 . S
C1055 C1056 1.372 . S
C1056 H1021 0.930 . S
C1056 C1055 1.372 . S
C1056 C1057 1.383 . S
C1057 C1056 1.383 . S
C1057 C1058 1.395 . S
C1058 H1022 0.930 . S
C1058 C1057 1.395 . S
C1058 C1059 1.362 . S
C1059 H1023 0.930 . S
C1059 C1054 1.390 . S
C1059 C1058 1.362 . S
C1060 C1049 1.492 . S
C1060 C1061 1.377 . S
C1060 C1065 1.397 . S
C1061 H1024 0.931 . S
C1061 C1060 1.377 . S
C1061 C1062 1.376 . S
C1062 H1025 0.930 . S
C1062 C1061 1.376 . S
C1062 C1063 1.376 . S
C1063 C1062 1.376 . S
C1063 C1064 1.378 . S
C1063 C1090 1.486 . S
C1064 H1026 0.930 . S
C1064 C1063 1.378 . S
C1064 C1065 1.376 . S
C1065 H1027 0.929 . S
C1065 C1060 1.397 . S
C1065 C1064 1.376 . S
C1066 C1050 1.509 . S
C1066 C1067 1.391 . S
C1066 C1071 1.386 . S
C1067 H1028 0.930 . S
C1067 C1066 1.391 . S
C1067 C1068 1.375 . S
C1068 H1029 0.931 . S
C1068 C1067 1.375 . S
C1068 C1069 1.375 . S
C1069 C1068 1.375 . S
C1069 C1070 1.361 . S
C1070 H1030 0.930 . S
C1070 C1069 1.361 . S
C1070 C1071 1.399 . S
C1071 H1031 0.929 . S
C1071 C1066 1.386 . S
C1071 C1070 1.399 . S
C1072 C1051 1.485 . S
C1072 C1073 1.394 . S
C1072 C1077 1.360 . S
C1073 H1032 0.931 . S
C1073 C1072 1.394 . S
C1073 C1074 1.372 . S
C1074 H1033 0.930 . S
C1074 C1073 1.372 . S
C1074 C1075 1.397 . S
C1075 C1074 1.397 . S
C1075 C1076 1.390 . S
C1075 C1091 1.476 . S
C1076 H1034 0.930 . S
C1076 C1075 1.390 . S
C1076 C1077 1.366 . S
C1077 H1035 0.932 . S
C1077 C1072 1.360 . S
C1077 C1076 1.366 . S
C1078 C1052 1.490 . S
C1078 C1079 1.380 . S
C1078 C1083 1.386 . S
C1079 H1036 0.930 . S
C1079 C1078 1.380 . S
C1079 C1080 1.381 . S
C1080 H1037 0.929 . S
C1080 C1079 1.381 . S
C1080 C1081 1.371 . S
C1081 C1080 1.371 . S
C1081 C1082 1.380 . S
C1082 H1038 0.931 . S
C1082 C1081 1.380 . S
C1082 C1083 1.387 . S
C1083 H1039 0.930 . S
C1083 C1078 1.386 . S
C1083 C1082 1.387 . S
C1084 C1053 1.519 . S
C1084 C1085 1.377 1_545 S
C1084 C1089 1.361 . S
C1085 H1040 0.929 . S
C1085 C1084 1.377 1_565 S
C1085 C1086 1.386 . S
C1086 H1041 0.931 . S
C1086 C1085 1.386 . S
C1086 C1087 1.363 . S
C1087 C1086 1.363 . S
C1087 C1088 1.385 . S
C1088 H1042 0.930 . S
C1088 C1087 1.385 . S
C1088 C1089 1.396 1_565 S
C1089 H1043 0.929 . S
C1089 C1084 1.361 . S
C1089 C1088 1.396 1_545 S
C1090 O1044 1.300 . S
C1090 O1045 1.189 1_545 S
C1090 C1063 1.486 . S
C1091 O1046 1.199 . S
C1091 O1047 1.297 . S
C1091 C1075 1.476 . S
H1092 O1118 0.865 . S
H1093 O1121 0.854 . S
H1094 C1129 0.930 . S
H1095 C1130 0.930 . S
H1096 C1132 0.930 . S
H1097 C1133 0.930 . S
H1098 C1135 0.931 . S
H1099 C1136 0.930 . S
H1100 C1138 0.895 1_655 S
H1101 C1139 0.929 . S
H1102 C1141 0.930 . S
H1103 C1142 0.931 . S
H1104 C1144 0.930 . S
H1105 C1145 0.929 . S
H1106 C1147 0.931 . S
H1107 C1148 0.930 . S
H1108 C1150 0.930 . S
H1109 C1151 0.932 . S
H1110 C1153 0.930 . S
H1111 C1154 0.929 . S
H1112 C1156 0.931 . S
H1113 C1157 0.930 . S
H1114 C1159 0.929 . S
H1115 C1160 0.931 . S
H1116 C1162 0.930 . S
H1117 C1163 0.929 . S
O1118 H1092 0.865 . S
O1118 C1164 1.310 . S
O1119 C1164 1.209 . S
O1120 C1165 1.199 . S
O1121 H1093 0.854 . S
O1121 C1165 1.297 . S
C1122 C1123 1.404 . S
C1122 C1127 1.397 . S
C1122 C1128 1.492 1_455 S
C1123 C1122 1.404 . S
C1123 C1124 1.396 . S
C1123 C1134 1.492 . S
C1124 C1123 1.396 . S
C1124 C1125 1.397 . S
C1124 C1140 1.509 . S
C1125 C1124 1.397 . S
C1125 C1126 1.412 . S
C1125 C1146 1.485 . S
C1126 C1125 1.412 . S
C1126 C1127 1.388 . S
C1126 C1152 1.490 . S
C1127 C1122 1.397 . S
C1127 C1126 1.388 . S
C1127 C1158 1.519 . S
C1128 C1122 1.492 1_655 S
C1128 C1129 1.363 . S
C1128 C1133 1.390 . S
C1129 H1094 0.930 . S
C1129 C1128 1.363 . S
C1129 C1130 1.372 . S
C1130 H1095 0.930 . S
C1130 C1129 1.372 . S
C1130 C1131 1.383 . S
C1131 C1130 1.383 . S
C1131 C1132 1.395 . S
C1132 H1096 0.930 . S
C1132 C1131 1.395 . S
C1132 C1133 1.362 . S
C1133 H1097 0.930 . S
C1133 C1128 1.390 . S
C1133 C1132 1.362 . S
C1134 C1123 1.492 . S
C1134 C1135 1.377 . S
C1134 C1139 1.397 . S
C1135 H1098 0.931 . S
C1135 C1134 1.377 . S
C1135 C1136 1.376 . S
C1136 H1099 0.930 . S
C1136 C1135 1.376 . S
C1136 C1137 1.376 . S
C1137 C1136 1.376 . S
C1137 C1138 1.394 . S
C1137 C1164 1.486 1_455 S
C1138 H1100 0.895 1_455 S
C1138 C1137 1.394 . S
C1138 C1139 1.398 . S
C1139 H1101 0.929 . S
C1139 C1134 1.397 . S
C1139 C1138 1.398 . S
C1140 C1124 1.509 . S
C1140 C1141 1.391 . S
C1140 C1145 1.386 . S
C1141 H1102 0.930 . S
C1141 C1140 1.391 . S
C1141 C1142 1.375 . S
C1142 H1103 0.931 . S
C1142 C1141 1.375 . S
C1142 C1143 1.375 . S
C1143 C1142 1.375 . S
C1143 C1144 1.361 . S
C1144 H1104 0.930 . S
C1144 C1143 1.361 . S
C1144 C1145 1.399 . S
C1145 H1105 0.929 . S
C1145 C1140 1.386 . S
C1145 C1144 1.399 . S
C1146 C1125 1.485 . S
C1146 C1147 1.394 . S
C1146 C1151 1.360 . S
C1147 H1106 0.931 . S
C1147 C1146 1.394 . S
C1147 C1148 1.372 . S
C1148 H1107 0.930 . S
C1148 C1147 1.372 . S
C1148 C1149 1.397 . S
C1149 C1148 1.397 . S
C1149 C1150 1.390 . S
C1149 C1165 1.476 . S
C1150 H1108 0.930 . S
C1150 C1149 1.390 . S
C1150 C1151 1.366 . S
C1151 H1109 0.932 . S
C1151 C1146 1.360 . S
C1151 C1150 1.366 . S
C1152 C1126 1.490 . S
C1152 C1153 1.380 . S
C1152 C1157 1.386 . S
C1153 H1110 0.930 . S
C1153 C1152 1.380 . S
C1153 C1154 1.381 . S
C1154 H1111 0.929 . S
C1154 C1153 1.381 . S
C1154 C1155 1.371 . S
C1155 C1154 1.371 . S
C1155 C1156 1.380 . S
C1156 H1112 0.931 . S
C1156 C1155 1.380 . S
C1156 C1157 1.387 . S
C1157 H1113 0.930 . S
C1157 C1152 1.386 . S
C1157 C1156 1.387 . S
C1158 C1127 1.519 . S
C1158 C1159 1.377 . S
C1158 C1163 1.361 . S
C1159 H1114 0.929 . S
C1159 C1158 1.377 . S
C1159 C1160 1.386 1_455 S
C1160 H1115 0.931 . S
C1160 C1159 1.386 1_655 S
C1160 C1161 1.363 . S
C1161 C1160 1.363 . S
C1161 C1162 1.385 1_655 S
C1162 H1116 0.930 . S
C1162 C1161 1.385 1_455 S
C1162 C1163 1.396 . S
C1163 H1117 0.929 . S
C1163 C1158 1.361 . S
C1163 C1162 1.396 . S
C1164 O1118 1.310 . S
C1164 O1119 1.209 . S
C1164 C1137 1.486 1_655 S
C1165 O1120 1.199 . S
C1165 O1121 1.297 . S
C1165 C1149 1.476 . S
H1166 O1192 0.856 . S
H1167 O1195 0.854 . S
H1168 C1203 0.930 . S
H1169 C1204 0.930 . S
H1170 C1206 0.930 . S
H1171 C1207 0.930 . S
H1172 C1209 0.904 1_565 S
H1173 C1210 0.919 1_565 S
H1174 C1212 0.930 . S
H1175 C1213 0.929 . S
H1176 C1215 0.930 . S
H1177 C1216 0.931 . S
H1178 C1218 0.930 . S
H1179 C1219 0.929 . S
H1180 C1221 0.931 . S
H1181 C1222 0.930 . S
H1182 C1224 0.930 . S
H1183 C1225 0.932 . S
H1184 C1227 0.930 . S
H1185 C1228 0.929 . S
H1186 C1230 0.931 . S
H1187 C1231 0.930 . S
H1188 C1233 0.929 . S
H1189 C1234 0.931 . S
H1190 C1236 0.930 . S
H1191 C1237 0.929 . S
O1192 H1166 0.856 . S
O1192 C1238 1.300 . S
O1193 C1238 1.209 . S
O1194 C1239 1.199 . S
O1195 H1167 0.854 . S
O1195 C1239 1.297 . S
C1196 C1197 1.404 . S
C1196 C1201 1.397 . S
C1196 C1202 1.492 . S
C1197 C1196 1.404 . S
C1197 C1198 1.396 1_545 S
C1197 C1208 1.492 . S
C1198 C1197 1.396 1_565 S
C1198 C1199 1.397 . S
C1198 C1214 1.509 . S
C1199 C1198 1.397 . S
C1199 C1200 1.412 1_565 S
C1199 C1220 1.485 . S
C1200 C1199 1.412 1_545 S
C1200 C1201 1.388 . S
C1200 C1226 1.501 . S
C1201 C1196 1.397 . S
C1201 C1200 1.388 . S
C1201 C1232 1.519 . S
C1202 C1196 1.492 . S
C1202 C1203 1.363 . S
C1202 C1207 1.390 . S
C1203 H1168 0.930 . S
C1203 C1202 1.363 . S
C1203 C1204 1.372 . S
C1204 H1169 0.930 . S
C1204 C1203 1.372 . S
C1204 C1205 1.383 . S
C1205 C1204 1.383 . S
C1205 C1206 1.395 . S
C1206 H1170 0.930 . S
C1206 C1205 1.395 . S
C1206 C1207 1.362 . S
C1207 H1171 0.930 . S
C1207 C1202 1.390 . S
C1207 C1206 1.362 . S
C1208 C1197 1.492 . S
C1208 C1209 1.391 . S
C1208 C1213 1.397 . S
C1209 H1172 0.904 1_545 S
C1209 C1208 1.391 . S
C1209 C1210 1.392 . S
C1210 H1173 0.919 1_545 S
C1210 C1209 1.392 . S
C1210 C1211 1.376 . S
C1211 C1210 1.376 . S
C1211 C1212 1.378 . S
C1211 C1238 1.486 . S
C1212 H1174 0.930 . S
C1212 C1211 1.378 . S
C1212 C1213 1.376 . S
C1213 H1175 0.929 . S
C1213 C1208 1.397 . S
C1213 C1212 1.376 . S
C1214 C1198 1.509 . S
C1214 C1215 1.391 . S
C1214 C1219 1.386 . S
C1215 H1176 0.930 . S
C1215 C1214 1.391 . S
C1215 C1216 1.375 . S
C1216 H1177 0.931 . S
C1216 C1215 1.375 . S
C1216 C1217 1.375 . S
C1217 C1216 1.375 . S
C1217 C1218 1.361 . S
C1218 H1178 0.930 . S
C1218 C1217 1.361 . S
C1218 C1219 1.399 . S
C1219 H1179 0.929 . S
C1219 C1214 1.386 . S
C1219 C1218 1.399 . S
C1220 C1199 1.485 . S
C1220 C1221 1.394 . S
C1220 C1225 1.360 . S
C1221 H1180 0.931 . S
C1221 C1220 1.394 . S
C1221 C1222 1.372 . S
C1222 H1181 0.930 . S
C1222 C1221 1.372 . S
C1222 C1223 1.397 . S
C1223 C1222 1.397 . S
C1223 C1224 1.390 . S
C1223 C1239 1.476 . S
C1224 H1182 0.930 . S
C1224 C1223 1.390 . S
C1224 C1225 1.366 . S
C1225 H1183 0.932 . S
C1225 C1220 1.360 . S
C1225 C1224 1.366 . S
C1226 C1200 1.501 . S
C1226 C1227 1.391 . S
C1226 C1231 1.366 1_545 S
C1227 H1184 0.930 . S
C1227 C1226 1.391 . S
C1227 C1228 1.381 . S
C1228 H1185 0.929 . S
C1228 C1227 1.381 . S
C1228 C1229 1.371 1_545 S
C1229 C1228 1.371 1_565 S
C1229 C1230 1.380 . S
C1230 H1186 0.931 . S
C1230 C1229 1.380 . S
C1230 C1231 1.387 . S
C1231 H1187 0.930 . S
C1231 C1226 1.366 1_565 S
C1231 C1230 1.387 . S
C1232 C1201 1.519 . S
C1232 C1233 1.377 . S
C1232 C1237 1.361 . S
C1233 H1188 0.929 . S
C1233 C1232 1.377 . S
C1233 C1234 1.386 . S
C1234 H1189 0.931 . S
C1234 C1233 1.386 . S
C1234 C1235 1.363 . S
C1235 C1234 1.363 . S
C1235 C1236 1.385 . S
C1236 H1190 0.930 . S
C1236 C1235 1.385 . S
C1236 C1237 1.396 . S
C1237 H1191 0.929 . S
C1237 C1232 1.361 . S
C1237 C1236 1.396 . S
C1238 O1192 1.300 . S
C1238 O1193 1.209 . S
C1238 C1211 1.486 . S
C1239 O1194 1.199 . S
C1239 O1195 1.297 . S
C1239 C1223 1.476 . S
H1240 O1266 0.856 . S
H1241 O1269 0.854 . S
H1242 C1277 0.930 . S
H1243 C1278 0.930 . S
H1244 C1280 0.930 . S
H1245 C1281 0.930 . S
H1246 C1283 0.931 . S
H1247 C1284 0.930 . S
H1248 C1286 0.930 . S
H1249 C1287 0.929 . S
H1250 C1289 0.930 . S
H1251 C1290 0.931 . S
H1252 C1292 0.930 . S
H1253 C1293 0.929 . S
H1254 C1295 0.931 . S
H1255 C1296 0.930 . S
H1256 C1298 0.930 . S
H1257 C1299 0.932 . S
H1258 C1301 0.930 . S
H1259 C1302 0.929 . S
H1260 C1304 0.931 . S
H1261 C1305 0.930 . S
H1262 C1307 0.929 . S
H1263 C1308 0.931 . S
H1264 C1310 0.930 . S
H1265 C1311 0.929 . S
O1266 H1240 0.856 . S
O1266 C1312 1.300 . S
O1267 C1312 1.209 . S
O1268 C1313 1.199 . S
O1269 H1241 0.854 . S
O1269 C1313 1.297 . S
C1270 C1271 1.404 . S
C1270 C1275 1.397 . S
C1270 C1276 1.492 . S
C1271 C1270 1.404 . S
C1271 C1272 1.396 . S
C1271 C1282 1.492 . S
C1272 C1271 1.396 . S
C1272 C1273 1.397 . S
C1272 C1288 1.509 . S
C1273 C1272 1.397 . S
C1273 C1274 1.412 . S
C1273 C1294 1.485 . S
C1274 C1273 1.412 . S
C1274 C1275 1.388 . S
C1274 C1300 1.490 . S
C1275 C1270 1.397 . S
C1275 C1274 1.388 . S
C1275 C1306 1.519 . S
C1276 C1270 1.492 . S
C1276 C1277 1.363 . S
C1276 C1281 1.390 . S
C1277 H1242 0.930 . S
C1277 C1276 1.363 . S
C1277 C1278 1.372 . S
C1278 H1243 0.930 . S
C1278 C1277 1.372 . S
C1278 C1279 1.383 . S
C1279 C1278 1.383 . S
C1279 C1280 1.395 . S
C1280 H1244 0.930 . S
C1280 C1279 1.395 . S
C1280 C1281 1.362 . S
C1281 H1245 0.930 . S
C1281 C1276 1.390 . S
C1281 C1280 1.362 . S
C1282 C1271 1.492 . S
C1282 C1283 1.377 . S
C1282 C1287 1.397 . S
C1283 H1246 0.931 . S
C1283 C1282 1.377 . S
C1283 C1284 1.376 . S
C1284 H1247 0.930 . S
C1284 C1283 1.376 . S
C1284 C1285 1.376 . S
C1285 C1284 1.376 . S
C1285 C1286 1.378 . S
C1285 C1312 1.486 . S
C1286 H1248 0.930 . S
C1286 C1285 1.378 . S
C1286 C1287 1.376 . S
C1287 H1249 0.929 . S
C1287 C1282 1.397 . S
C1287 C1286 1.376 . S
C1288 C1272 1.509 . S
C1288 C1289 1.391 . S
C1288 C1293 1.386 . S
C1289 H1250 0.930 . S
C1289 C1288 1.391 . S
C1289 C1290 1.375 . S
C1290 H1251 0.931 . S
C1290 C1289 1.375 . S
C1290 C1291 1.375 . S
C1291 C1290 1.375 . S
C1291 C1292 1.361 . S
C1292 H1252 0.930 . S
C1292 C1291 1.361 . S
C1292 C1293 1.399 . S
C1293 H1253 0.929 . S
C1293 C1288 1.386 . S
C1293 C1292 1.399 . S
C1294 C1273 1.485 . S
C1294 C1295 1.394 . S
C1294 C1299 1.360 . S
C1295 H1254 0.931 . S
C1295 C1294 1.394 . S
C1295 C1296 1.372 . S
C1296 H1255 0.930 . S
C1296 C1295 1.372 . S
C1296 C1297 1.397 . S
C1297 C1296 1.397 . S
C1297 C1298 1.390 . S
C1297 C1313 1.476 . S
C1298 H1256 0.930 . S
C1298 C1297 1.390 . S
C1298 C1299 1.366 . S
C1299 H1257 0.932 . S
C1299 C1294 1.360 . S
C1299 C1298 1.366 . S
C1300 C1274 1.490 . S
C1300 C1301 1.380 . S
C1300 C1305 1.386 . S
C1301 H1258 0.930 . S
C1301 C1300 1.380 . S
C1301 C1302 1.381 . S
C1302 H1259 0.929 . S
C1302 C1301 1.381 . S
C1302 C1303 1.371 . S
C1303 C1302 1.371 . S
C1303 C1304 1.380 . S
C1304 H1260 0.931 . S
C1304 C1303 1.380 . S
C1304 C1305 1.387 . S
C1305 H1261 0.930 . S
C1305 C1300 1.386 . S
C1305 C1304 1.387 . S
C1306 C1275 1.519 . S
C1306 C1307 1.377 . S
C1306 C1311 1.361 . S
C1307 H1262 0.929 . S
C1307 C1306 1.377 . S
C1307 C1308 1.386 . S
C1308 H1263 0.931 . S
C1308 C1307 1.386 . S
C1308 C1309 1.363 . S
C1309 C1308 1.363 . S
C1309 C1310 1.385 . S
C1310 H1264 0.930 . S
C1310 C1309 1.385 . S
C1310 C1311 1.396 . S
C1311 H1265 0.929 . S
C1311 C1306 1.361 . S
C1311 C1310 1.396 . S
C1312 O1266 1.300 . S
C1312 O1267 1.209 . S
C1312 C1285 1.486 . S
C1313 O1268 1.199 . S
C1313 O1269 1.297 . S
C1313 C1297 1.476 . S
H1314 O1340 0.856 . S
H1315 O1343 0.854 . S
H1316 C1351 0.930 . S
H1317 C1352 0.930 . S
H1318 C1354 0.930 . S
H1319 C1355 0.930 . S
H1320 C1357 0.931 . S
H1321 C1358 0.930 . S
H1322 C1360 0.930 . S
H1323 C1361 0.929 . S
H1324 C1363 0.930 . S
H1325 C1364 0.931 . S
H1326 C1366 0.930 . S
H1327 C1367 0.929 . S
H1328 C1369 0.931 . S
H1329 C1370 0.930 . S
H1330 C1372 0.930 . S
H1331 C1373 0.932 . S
H1332 C1375 0.930 . S
H1333 C1376 0.929 . S
H1334 C1378 0.931 . S
H1335 C1379 0.930 . S
H1336 C1381 0.929 . S
H1337 C1382 0.931 . S
H1338 C1384 0.930 . S
H1339 C1385 0.929 . S
O1340 H1314 0.856 . S
O1340 C1386 1.300 . S
O1341 C1386 1.209 . S
O1342 C1387 1.199 . S
O1343 H1315 0.854 . S
O1343 C1387 1.297 . S
C1344 C1345 1.404 . S
C1344 C1349 1.397 . S
C1344 C1350 1.492 . S
C1345 C1344 1.404 . S
C1345 C1346 1.396 . S
C1345 C1356 1.492 . S
C1346 C1345 1.396 . S
C1346 C1347 1.397 . S
C1346 C1362 1.509 . S
C1347 C1346 1.397 . S
C1347 C1348 1.412 . S
C1347 C1368 1.485 . S
C1348 C1347 1.412 . S
C1348 C1349 1.388 . S
C1348 C1374 1.490 . S
C1349 C1344 1.397 . S
C1349 C1348 1.388 . S
C1349 C1380 1.519 . S
C1350 C1344 1.492 . S
C1350 C1351 1.363 . S
C1350 C1355 1.390 . S
C1351 H1316 0.930 . S
C1351 C1350 1.363 . S
C1351 C1352 1.372 . S
C1352 H1317 0.930 . S
C1352 C1351 1.372 . S
C1352 C1353 1.383 . S
C1353 C1352 1.383 . S
C1353 C1354 1.395 . S
C1354 H1318 0.930 . S
C1354 C1353 1.395 . S
C1354 C1355 1.362 . S
C1355 H1319 0.930 . S
C1355 C1350 1.390 . S
C1355 C1354 1.362 . S
C1356 C1345 1.492 . S
C1356 C1357 1.377 . S
C1356 C1361 1.397 . S
C1357 H1320 0.931 . S
C1357 C1356 1.377 . S
C1357 C1358 1.376 . S
C1358 H1321 0.930 . S
C1358 C1357 1.376 . S
C1358 C1359 1.376 . S
C1359 C1358 1.376 . S
C1359 C1360 1.378 . S
C1359 C1386 1.486 . S
C1360 H1322 0.930 . S
C1360 C1359 1.378 . S
C1360 C1361 1.376 . S
C1361 H1323 0.929 . S
C1361 C1356 1.397 . S
C1361 C1360 1.376 . S
C1362 C1346 1.509 . S
C1362 C1363 1.391 . S
C1362 C1367 1.386 . S
C1363 H1324 0.930 . S
C1363 C1362 1.391 . S
C1363 C1364 1.375 . S
C1364 H1325 0.931 . S
C1364 C1363 1.375 . S
C1364 C1365 1.375 . S
C1365 C1364 1.375 . S
C1365 C1366 1.361 . S
C1366 H1326 0.930 . S
C1366 C1365 1.361 . S
C1366 C1367 1.399 . S
C1367 H1327 0.929 . S
C1367 C1362 1.386 . S
C1367 C1366 1.399 . S
C1368 C1347 1.485 . S
C1368 C1369 1.394 . S
C1368 C1373 1.360 . S
C1369 H1328 0.931 . S
C1369 C1368 1.394 . S
C1369 C1370 1.372 . S
C1370 H1329 0.930 . S
C1370 C1369 1.372 . S
C1370 C1371 1.397 . S
C1371 C1370 1.397 . S
C1371 C1372 1.390 . S
C1371 C1387 1.476 . S
C1372 H1330 0.930 . S
C1372 C1371 1.390 . S
C1372 C1373 1.366 . S
C1373 H1331 0.932 . S
C1373 C1368 1.360 . S
C1373 C1372 1.366 . S
C1374 C1348 1.490 . S
C1374 C1375 1.380 . S
C1374 C1379 1.386 . S
C1375 H1332 0.930 . S
C1375 C1374 1.380 . S
C1375 C1376 1.381 . S
C1376 H1333 0.929 . S
C1376 C1375 1.381 . S
C1376 C1377 1.371 . S
C1377 C1376 1.371 . S
C1377 C1378 1.380 . S
C1378 H1334 0.931 . S
C1378 C1377 1.380 . S
C1378 C1379 1.387 . S
C1379 H1335 0.930 . S
C1379 C1374 1.386 . S
C1379 C1378 1.387 . S
C1380 C1349 1.519 . S
C1380 C1381 1.377 . S
C1380 C1385 1.361 . S
C1381 H1336 0.929 . S
C1381 C1380 1.377 . S
C1381 C1382 1.386 . S
C1382 H1337 0.931 . S
C1382 C1381 1.386 . S
C1382 C1383 1.363 . S
C1383 C1382 1.363 . S
C1383 C1384 1.385 . S
C1384 H1338 0.930 . S
C1384 C1383 1.385 . S
C1384 C1385 1.396 . S
C1385 H1339 0.929 . S
C1385 C1380 1.361 . S
C1385 C1384 1.396 . S
C1386 O1340 1.300 . S
C1386 O1341 1.209 . S
C1386 C1359 1.486 . S
C1387 O1342 1.199 . S
C1387 O1343 1.297 . S
C1387 C1371 1.476 . S
H1388 O1414 0.856 . S
H1389 O1417 0.854 . S
H1390 C1425 0.930 . S
H1391 C1426 0.930 . S
H1392 C1428 0.930 . S
H1393 C1429 0.930 . S
H1394 C1431 0.931 . S
H1395 C1432 0.930 . S
H1396 C1434 0.930 . S
H1397 C1435 0.929 . S
H1398 C1437 0.930 . S
H1399 C1438 0.931 . S
H1400 C1440 0.930 . S
H1401 C1441 0.929 . S
H1402 C1443 0.931 . S
H1403 C1444 0.930 . S
H1404 C1446 0.930 . S
H1405 C1447 0.932 . S
H1406 C1449 0.930 . S
H1407 C1450 0.929 . S
H1408 C1452 0.931 . S
H1409 C1453 0.930 . S
H1410 C1455 0.929 . S
H1411 C1456 0.931 . S
H1412 C1458 0.930 . S
H1413 C1459 0.929 . S
O1414 H1388 0.856 . S
O1414 C1460 1.300 . S
O1415 C1460 1.209 . S
O1416 C1461 1.199 . S
O1417 H1389 0.854 . S
O1417 C1461 1.297 . S
C1418 C1419 1.404 . S
C1418 C1423 1.397 . S
C1418 C1424 1.492 . S
C1419 C1418 1.404 . S
C1419 C1420 1.396 . S
C1419 C1430 1.492 . S
C1420 C1419 1.396 . S
C1420 C1421 1.397 . S
C1420 C1436 1.509 . S
C1421 C1420 1.397 . S
C1421 C1422 1.412 . S
C1421 C1442 1.485 . S
C1422 C1421 1.412 . S
C1422 C1423 1.388 . S
C1422 C1448 1.490 . S
C1423 C1418 1.397 . S
C1423 C1422 1.388 . S
C1423 C1454 1.519 . S
C1424 C1418 1.492 . S
C1424 C1425 1.363 . S
C1424 C1429 1.390 . S
C1425 H1390 0.930 . S
C1425 C1424 1.363 . S
C1425 C1426 1.372 . S
C1426 H1391 0.930 . S
C1426 C1425 1.372 . S
C1426 C1427 1.383 . S
C1427 C1426 1.383 . S
C1427 C1428 1.395 . S
C1428 H1392 0.930 . S
C1428 C1427 1.395 . S
C1428 C1429 1.362 . S
C1429 H1393 0.930 . S
C1429 C1424 1.390 . S
C1429 C1428 1.362 . S
C1430 C1419 1.492 . S
C1430 C1431 1.377 . S
C1430 C1435 1.397 . S
C1431 H1394 0.931 . S
C1431 C1430 1.377 . S
C1431 C1432 1.376 . S
C1432 H1395 0.930 . S
C1432 C1431 1.376 . S
C1432 C1433 1.376 . S
C1433 C1432 1.376 . S
C1433 C1434 1.378 . S
C1433 C1460 1.486 . S
C1434 H1396 0.930 . S
C1434 C1433 1.378 . S
C1434 C1435 1.376 . S
C1435 H1397 0.929 . S
C1435 C1430 1.397 . S
C1435 C1434 1.376 . S
C1436 C1420 1.509 . S
C1436 C1437 1.391 . S
C1436 C1441 1.386 . S
C1437 H1398 0.930 . S
C1437 C1436 1.391 . S
C1437 C1438 1.375 . S
C1438 H1399 0.931 . S
C1438 C1437 1.375 . S
C1438 C1439 1.375 . S
C1439 C1438 1.375 . S
C1439 C1440 1.361 . S
C1440 H1400 0.930 . S
C1440 C1439 1.361 . S
C1440 C1441 1.399 . S
C1441 H1401 0.929 . S
C1441 C1436 1.386 . S
C1441 C1440 1.399 . S
C1442 C1421 1.485 . S
C1442 C1443 1.394 . S
C1442 C1447 1.360 . S
C1443 H1402 0.931 . S
C1443 C1442 1.394 . S
C1443 C1444 1.372 . S
C1444 H1403 0.930 . S
C1444 C1443 1.372 . S
C1444 C1445 1.397 . S
C1445 C1444 1.397 . S
C1445 C1446 1.390 . S
C1445 C1461 1.476 . S
C1446 H1404 0.930 . S
C1446 C1445 1.390 . S
C1446 C1447 1.366 . S
C1447 H1405 0.932 . S
C1447 C1442 1.360 . S
C1447 C1446 1.366 . S
C1448 C1422 1.490 . S
C1448 C1449 1.380 . S
C1448 C1453 1.386 . S
C1449 H1406 0.930 . S
C1449 C1448 1.380 . S
C1449 C1450 1.381 . S
C1450 H1407 0.929 . S
C1450 C1449 1.381 . S
C1450 C1451 1.371 . S
C1451 C1450 1.371 . S
C1451 C1452 1.380 . S
C1452 H1408 0.931 . S
C1452 C1451 1.380 . S
C1452 C1453 1.387 . S
C1453 H1409 0.930 . S
C1453 C1448 1.386 . S
C1453 C1452 1.387 . S
C1454 C1423 1.519 . S
C1454 C1455 1.377 . S
C1454 C1459 1.361 . S
C1455 H1410 0.929 . S
C1455 C1454 1.377 . S
C1455 C1456 1.386 . S
C1456 H1411 0.931 . S
C1456 C1455 1.386 . S
C1456 C1457 1.363 . S
C1457 C1456 1.363 . S
C1457 C1458 1.385 . S
C1458 H1412 0.930 . S
C1458 C1457 1.385 . S
C1458 C1459 1.396 . S
C1459 H1413 0.929 . S
C1459 C1454 1.361 . S
C1459 C1458 1.396 . S
C1460 O1414 1.300 . S
C1460 O1415 1.209 . S
C1460 C1433 1.486 . S
C1461 O1416 1.199 . S
C1461 O1417 1.297 . S
C1461 C1445 1.476 . S
H1462 O1488 0.856 . S
H1463 O1491 0.854 . S
H1464 C1499 0.930 . S
H1465 C1500 0.930 . S
H1466 C1502 0.930 . S
H1467 C1503 0.930 . S
H1468 C1505 0.931 . S
H1469 C1506 0.930 . S
H1470 C1508 0.930 . S
H1471 C1509 0.929 . S
H1472 C1511 0.930 . S
H1473 C1512 0.931 . S
H1474 C1514 0.930 . S
H1475 C1515 0.929 . S
H1476 C1517 0.931 . S
H1477 C1518 0.930 . S
H1478 C1520 0.930 . S
H1479 C1521 0.932 . S
H1480 C1523 0.930 . S
H1481 C1524 0.929 . S
H1482 C1526 0.931 . S
H1483 C1527 0.930 . S
H1484 C1529 0.929 . S
H1485 C1530 0.931 . S
H1486 C1532 0.930 . S
H1487 C1533 0.929 . S
O1488 H1462 0.856 . S
O1488 C1534 1.300 . S
O1489 C1534 1.209 . S
O1490 C1535 1.199 . S
O1491 H1463 0.854 . S
O1491 C1535 1.297 . S
C1492 C1493 1.404 . S
C1492 C1497 1.397 . S
C1492 C1498 1.492 . S
C1493 C1492 1.404 . S
C1493 C1494 1.396 . S
C1493 C1504 1.492 . S
C1494 C1493 1.396 . S
C1494 C1495 1.397 . S
C1494 C1510 1.509 . S
C1495 C1494 1.397 . S
C1495 C1496 1.412 . S
C1495 C1516 1.485 . S
C1496 C1495 1.412 . S
C1496 C1497 1.388 . S
C1496 C1522 1.490 . S
C1497 C1492 1.397 . S
C1497 C1496 1.388 . S
C1497 C1528 1.519 . S
C1498 C1492 1.492 . S
C1498 C1499 1.363 . S
C1498 C1503 1.390 . S
C1499 H1464 0.930 . S
C1499 C1498 1.363 . S
C1499 C1500 1.372 . S
C1500 H1465 0.930 . S
C1500 C1499 1.372 . S
C1500 C1501 1.383 . S
C1501 C1500 1.383 . S
C1501 C1502 1.395 . S
C1502 H1466 0.930 . S
C1502 C1501 1.395 . S
C1502 C1503 1.362 . S
C1503 H1467 0.930 . S
C1503 C1498 1.390 . S
C1503 C1502 1.362 . S
C1504 C1493 1.492 . S
C1504 C1505 1.377 . S
C1504 C1509 1.397 . S
C1505 H1468 0.931 . S
C1505 C1504 1.377 . S
C1505 C1506 1.376 . S
C1506 H1469 0.930 . S
C1506 C1505 1.376 . S
C1506 C1507 1.376 . S
C1507 C1506 1.376 . S
C1507 C1508 1.378 . S
C1507 C1534 1.486 . S
C1508 H1470 0.930 . S
C1508 C1507 1.378 . S
C1508 C1509 1.376 . S
C1509 H1471 0.929 . S
C1509 C1504 1.397 . S
C1509 C1508 1.376 . S
C1510 C1494 1.509 . S
C1510 C1511 1.391 . S
C1510 C1515 1.386 . S
C1511 H1472 0.930 . S
C1511 C1510 1.391 . S
C1511 C1512 1.375 . S
C1512 H1473 0.931 . S
C1512 C1511 1.375 . S
C1512 C1513 1.375 . S
C1513 C1512 1.375 . S
C1513 C1514 1.361 . S
C1514 H1474 0.930 . S
C1514 C1513 1.361 . S
C1514 C1515 1.399 . S
C1515 H1475 0.929 . S
C1515 C1510 1.386 . S
C1515 C1514 1.399 . S
C1516 C1495 1.485 . S
C1516 C1517 1.394 . S
C1516 C1521 1.360 . S
C1517 H1476 0.931 . S
C1517 C1516 1.394 . S
C1517 C1518 1.372 . S
C1518 H1477 0.930 . S
C1518 C1517 1.372 . S
C1518 C1519 1.397 . S
C1519 C1518 1.397 . S
C1519 C1520 1.390 . S
C1519 C1535 1.476 . S
C1520 H1478 0.930 . S
C1520 C1519 1.390 . S
C1520 C1521 1.366 . S
C1521 H1479 0.932 . S
C1521 C1516 1.360 . S
C1521 C1520 1.366 . S
C1522 C1496 1.490 . S
C1522 C1523 1.380 . S
C1522 C1527 1.386 . S
C1523 H1480 0.930 . S
C1523 C1522 1.380 . S
C1523 C1524 1.381 . S
C1524 H1481 0.929 . S
C1524 C1523 1.381 . S
C1524 C1525 1.371 . S
C1525 C1524 1.371 . S
C1525 C1526 1.380 . S
C1526 H1482 0.931 . S
C1526 C1525 1.380 . S
C1526 C1527 1.387 . S
C1527 H1483 0.930 . S
C1527 C1522 1.386 . S
C1527 C1526 1.387 . S
C1528 C1497 1.519 . S
C1528 C1529 1.377 . S
C1528 C1533 1.361 . S
C1529 H1484 0.929 . S
C1529 C1528 1.377 . S
C1529 C1530 1.386 . S
C1530 H1485 0.931 . S
C1530 C1529 1.386 . S
C1530 C1531 1.363 . S
C1531 C1530 1.363 . S
C1531 C1532 1.385 . S
C1532 H1486 0.930 . S
C1532 C1531 1.385 . S
C1532 C1533 1.396 . S
C1533 H1487 0.929 . S
C1533 C1528 1.361 . S
C1533 C1532 1.396 . S
C1534 O1488 1.300 . S
C1534 O1489 1.209 . S
C1534 C1507 1.486 . S
C1535 O1490 1.199 . S
C1535 O1491 1.297 . S
C1535 C1519 1.476 . S
H1536 O1562 0.856 . S
H1537 O1565 0.854 . S
H1538 C1573 0.930 . S
H1539 C1574 0.930 . S
H1540 C1576 0.930 . S
H1541 C1577 0.930 . S
H1542 C1579 0.931 . S
H1543 C1580 0.930 . S
H1544 C1582 0.930 . S
H1545 C1583 0.929 . S
H1546 C1585 0.930 . S
H1547 C1586 0.931 . S
H1548 C1588 0.930 . S
H1549 C1589 0.929 . S
H1550 C1591 0.931 . S
H1551 C1592 0.930 . S
H1552 C1594 0.930 . S
H1553 C1595 0.932 . S
H1554 C1597 0.930 . S
H1555 C1598 0.929 . S
H1556 C1600 0.931 . S
H1557 C1601 0.930 . S
H1558 C1603 0.929 . S
H1559 C1604 0.931 . S
H1560 C1606 0.930 . S
H1561 C1607 0.929 . S
O1562 H1536 0.856 . S
O1562 C1608 1.300 . S
O1563 C1608 1.209 . S
O1564 C1609 1.199 . S
O1565 H1537 0.854 . S
O1565 C1609 1.297 . S
C1566 C1567 1.404 . S
C1566 C1571 1.397 . S
C1566 C1572 1.492 . S
C1567 C1566 1.404 . S
C1567 C1568 1.396 . S
C1567 C1578 1.492 . S
C1568 C1567 1.396 . S
C1568 C1569 1.397 . S
C1568 C1584 1.509 . S
C1569 C1568 1.397 . S
C1569 C1570 1.412 . S
C1569 C1590 1.485 . S
C1570 C1569 1.412 . S
C1570 C1571 1.388 . S
C1570 C1596 1.490 . S
C1571 C1566 1.397 . S
C1571 C1570 1.388 . S
C1571 C1602 1.519 . S
C1572 C1566 1.492 . S
C1572 C1573 1.363 . S
C1572 C1577 1.390 . S
C1573 H1538 0.930 . S
C1573 C1572 1.363 . S
C1573 C1574 1.372 . S
C1574 H1539 0.930 . S
C1574 C1573 1.372 . S
C1574 C1575 1.383 . S
C1575 C1574 1.383 . S
C1575 C1576 1.395 . S
C1576 H1540 0.930 . S
C1576 C1575 1.395 . S
C1576 C1577 1.362 . S
C1577 H1541 0.930 . S
C1577 C1572 1.390 . S
C1577 C1576 1.362 . S
C1578 C1567 1.492 . S
C1578 C1579 1.377 . S
C1578 C1583 1.397 . S
C1579 H1542 0.931 . S
C1579 C1578 1.377 . S
C1579 C1580 1.376 . S
C1580 H1543 0.930 . S
C1580 C1579 1.376 . S
C1580 C1581 1.376 . S
C1581 C1580 1.376 . S
C1581 C1582 1.378 . S
C1581 C1608 1.486 . S
C1582 H1544 0.930 . S
C1582 C1581 1.378 . S
C1582 C1583 1.376 . S
C1583 H1545 0.929 . S
C1583 C1578 1.397 . S
C1583 C1582 1.376 . S
C1584 C1568 1.509 . S
C1584 C1585 1.391 . S
C1584 C1589 1.386 . S
C1585 H1546 0.930 . S
C1585 C1584 1.391 . S
C1585 C1586 1.375 . S
C1586 H1547 0.931 . S
C1586 C1585 1.375 . S
C1586 C1587 1.375 . S
C1587 C1586 1.375 . S
C1587 C1588 1.361 . S
C1588 H1548 0.930 . S
C1588 C1587 1.361 . S
C1588 C1589 1.399 . S
C1589 H1549 0.929 . S
C1589 C1584 1.386 . S
C1589 C1588 1.399 . S
C1590 C1569 1.485 . S
C1590 C1591 1.394 . S
C1590 C1595 1.360 . S
C1591 H1550 0.931 . S
C1591 C1590 1.394 . S
C1591 C1592 1.372 . S
C1592 H1551 0.930 . S
C1592 C1591 1.372 . S
C1592 C1593 1.397 . S
C1593 C1592 1.397 . S
C1593 C1594 1.390 . S
C1593 C1609 1.476 . S
C1594 H1552 0.930 . S
C1594 C1593 1.390 . S
C1594 C1595 1.366 . S
C1595 H1553 0.932 . S
C1595 C1590 1.360 . S
C1595 C1594 1.366 . S
C1596 C1570 1.490 . S
C1596 C1597 1.380 . S
C1596 C1601 1.386 . S
C1597 H1554 0.930 . S
C1597 C1596 1.380 . S
C1597 C1598 1.381 . S
C1598 H1555 0.929 . S
C1598 C1597 1.381 . S
C1598 C1599 1.371 . S
C1599 C1598 1.371 . S
C1599 C1600 1.380 . S
C1600 H1556 0.931 . S
C1600 C1599 1.380 . S
C1600 C1601 1.387 . S
C1601 H1557 0.930 . S
C1601 C1596 1.386 . S
C1601 C1600 1.387 . S
C1602 C1571 1.519 . S
C1602 C1603 1.377 . S
C1602 C1607 1.361 . S
C1603 H1558 0.929 . S
C1603 C1602 1.377 . S
C1603 C1604 1.386 . S
C1604 H1559 0.931 . S
C1604 C1603 1.386 . S
C1604 C1605 1.363 . S
C1605 C1604 1.363 . S
C1605 C1606 1.385 . S
C1606 H1560 0.930 . S
C1606 C1605 1.385 . S
C1606 C1607 1.396 . S
C1607 H1561 0.929 . S
C1607 C1602 1.361 . S
C1607 C1606 1.396 . S
C1608 O1562 1.300 . S
C1608 O1563 1.209 . S
C1608 C1581 1.486 . S
C1609 O1564 1.199 . S
C1609 O1565 1.297 . S
C1609 C1593 1.476 . S
H1610 O1636 0.856 . S
H1611 O1639 0.854 . S
H1612 C1647 0.930 . S
H1613 C1648 0.930 . S
H1614 C1650 0.930 . S
H1615 C1651 0.930 . S
H1616 C1653 0.931 . S
H1617 C1654 0.930 . S
H1618 C1656 0.930 . S
H1619 C1657 0.929 . S
H1620 C1659 0.930 . S
H1621 C1660 0.931 . S
H1622 C1662 0.930 . S
H1623 C1663 0.929 . S
H1624 C1665 0.931 . S
H1625 C1666 0.930 . S
H1626 C1668 0.930 . S
H1627 C1669 0.932 . S
H1628 C1671 0.930 . S
H1629 C1672 0.929 . S
H1630 C1674 0.931 . S
H1631 C1675 0.930 . S
H1632 C1677 0.929 . S
H1633 C1678 0.931 . S
H1634 C1680 0.930 . S
H1635 C1681 0.929 . S
O1636 H1610 0.856 . S
O1636 C1682 1.300 . S
O1637 C1682 1.209 . S
O1638 C1683 1.199 . S
O1639 H1611 0.854 . S
O1639 C1683 1.297 . S
C1640 C1641 1.404 . S
C1640 C1645 1.397 . S
C1640 C1646 1.492 . S
C1641 C1640 1.404 . S
C1641 C1642 1.396 . S
C1641 C1652 1.492 . S
C1642 C1641 1.396 . S
C1642 C1643 1.397 . S
C1642 C1658 1.509 . S
C1643 C1642 1.397 . S
C1643 C1644 1.412 . S
C1643 C1664 1.485 . S
C1644 C1643 1.412 . S
C1644 C1645 1.388 . S
C1644 C1670 1.490 . S
C1645 C1640 1.397 . S
C1645 C1644 1.388 . S
C1645 C1676 1.519 . S
C1646 C1640 1.492 . S
C1646 C1647 1.363 . S
C1646 C1651 1.390 . S
C1647 H1612 0.930 . S
C1647 C1646 1.363 . S
C1647 C1648 1.372 . S
C1648 H1613 0.930 . S
C1648 C1647 1.372 . S
C1648 C1649 1.383 . S
C1649 C1648 1.383 . S
C1649 C1650 1.395 . S
C1650 H1614 0.930 . S
C1650 C1649 1.395 . S
C1650 C1651 1.362 . S
C1651 H1615 0.930 . S
C1651 C1646 1.390 . S
C1651 C1650 1.362 . S
C1652 C1641 1.492 . S
C1652 C1653 1.377 . S
C1652 C1657 1.397 . S
C1653 H1616 0.931 . S
C1653 C1652 1.377 . S
C1653 C1654 1.376 . S
C1654 H1617 0.930 . S
C1654 C1653 1.376 . S
C1654 C1655 1.376 . S
C1655 C1654 1.376 . S
C1655 C1656 1.378 . S
C1655 C1682 1.486 . S
C1656 H1618 0.930 . S
C1656 C1655 1.378 . S
C1656 C1657 1.376 . S
C1657 H1619 0.929 . S
C1657 C1652 1.397 . S
C1657 C1656 1.376 . S
C1658 C1642 1.509 . S
C1658 C1659 1.391 . S
C1658 C1663 1.386 . S
C1659 H1620 0.930 . S
C1659 C1658 1.391 . S
C1659 C1660 1.375 . S
C1660 H1621 0.931 . S
C1660 C1659 1.375 . S
C1660 C1661 1.375 . S
C1661 C1660 1.375 . S
C1661 C1662 1.361 . S
C1662 H1622 0.930 . S
C1662 C1661 1.361 . S
C1662 C1663 1.399 . S
C1663 H1623 0.929 . S
C1663 C1658 1.386 . S
C1663 C1662 1.399 . S
C1664 C1643 1.485 . S
C1664 C1665 1.394 . S
C1664 C1669 1.360 . S
C1665 H1624 0.931 . S
C1665 C1664 1.394 . S
C1665 C1666 1.372 . S
C1666 H1625 0.930 . S
C1666 C1665 1.372 . S
C1666 C1667 1.397 . S
C1667 C1666 1.397 . S
C1667 C1668 1.390 . S
C1667 C1683 1.476 . S
C1668 H1626 0.930 . S
C1668 C1667 1.390 . S
C1668 C1669 1.366 . S
C1669 H1627 0.932 . S
C1669 C1664 1.360 . S
C1669 C1668 1.366 . S
C1670 C1644 1.490 . S
C1670 C1671 1.380 . S
C1670 C1675 1.386 . S
C1671 H1628 0.930 . S
C1671 C1670 1.380 . S
C1671 C1672 1.381 . S
C1672 H1629 0.929 . S
C1672 C1671 1.381 . S
C1672 C1673 1.371 . S
C1673 C1672 1.371 . S
C1673 C1674 1.380 . S
C1674 H1630 0.931 . S
C1674 C1673 1.380 . S
C1674 C1675 1.387 . S
C1675 H1631 0.930 . S
C1675 C1670 1.386 . S
C1675 C1674 1.387 . S
C1676 C1645 1.519 . S
C1676 C1677 1.377 . S
C1676 C1681 1.361 . S
C1677 H1632 0.929 . S
C1677 C1676 1.377 . S
C1677 C1678 1.386 . S
C1678 H1633 0.931 . S
C1678 C1677 1.386 . S
C1678 C1679 1.363 . S
C1679 C1678 1.363 . S
C1679 C1680 1.385 . S
C1680 H1634 0.930 . S
C1680 C1679 1.385 . S
C1680 C1681 1.396 . S
C1681 H1635 0.929 . S
C1681 C1676 1.361 . S
C1681 C1680 1.396 . S
C1682 O1636 1.300 . S
C1682 O1637 1.209 . S
C1682 C1655 1.486 . S
C1683 O1638 1.199 . S
C1683 O1639 1.297 . S
C1683 C1667 1.476 . S
H1684 O1710 0.856 . S
H1685 O1713 0.854 . S
H1686 C1721 0.930 . S
H1687 C1722 0.930 . S
H1688 C1724 0.930 . S
H1689 C1725 0.930 . S
H1690 C1727 0.931 . S
H1691 C1728 0.930 . S
H1692 C1730 0.930 . S
H1693 C1731 0.929 . S
H1694 C1733 0.930 . S
H1695 C1734 0.931 . S
H1696 C1736 0.930 . S
H1697 C1737 0.929 . S
H1698 C1739 0.931 . S
H1699 C1740 0.930 . S
H1700 C1742 0.930 . S
H1701 C1743 0.932 . S
H1702 C1745 0.930 . S
H1703 C1746 0.929 . S
H1704 C1748 0.931 . S
H1705 C1749 0.930 . S
H1706 C1751 0.929 . S
H1707 C1752 0.931 . S
H1708 C1754 0.930 . S
H1709 C1755 0.929 . S
O1710 H1684 0.856 . S
O1710 C1756 1.300 . S
O1711 C1756 1.209 . S
O1712 C1757 1.199 . S
O1713 H1685 0.854 . S
O1713 C1757 1.297 . S
C1714 C1715 1.404 . S
C1714 C1719 1.397 . S
C1714 C1720 1.492 . S
C1715 C1714 1.404 . S
C1715 C1716 1.396 . S
C1715 C1726 1.492 . S
C1716 C1715 1.396 . S
C1716 C1717 1.397 . S
C1716 C1732 1.509 . S
C1717 C1716 1.397 . S
C1717 C1718 1.412 . S
C1717 C1738 1.485 . S
C1718 C1717 1.412 . S
C1718 C1719 1.388 . S
C1718 C1744 1.490 . S
C1719 C1714 1.397 . S
C1719 C1718 1.388 . S
C1719 C1750 1.519 . S
C1720 C1714 1.492 . S
C1720 C1721 1.363 . S
C1720 C1725 1.390 . S
C1721 H1686 0.930 . S
C1721 C1720 1.363 . S
C1721 C1722 1.372 . S
C1722 H1687 0.930 . S
C1722 C1721 1.372 . S
C1722 C1723 1.383 . S
C1723 C1722 1.383 . S
C1723 C1724 1.395 . S
C1724 H1688 0.930 . S
C1724 C1723 1.395 . S
C1724 C1725 1.362 . S
C1725 H1689 0.930 . S
C1725 C1720 1.390 . S
C1725 C1724 1.362 . S
C1726 C1715 1.492 . S
C1726 C1727 1.377 . S
C1726 C1731 1.397 . S
C1727 H1690 0.931 . S
C1727 C1726 1.377 . S
C1727 C1728 1.376 . S
C1728 H1691 0.930 . S
C1728 C1727 1.376 . S
C1728 C1729 1.376 . S
C1729 C1728 1.376 . S
C1729 C1730 1.378 . S
C1729 C1756 1.486 . S
C1730 H1692 0.930 . S
C1730 C1729 1.378 . S
C1730 C1731 1.376 . S
C1731 H1693 0.929 . S
C1731 C1726 1.397 . S
C1731 C1730 1.376 . S
C1732 C1716 1.509 . S
C1732 C1733 1.391 . S
C1732 C1737 1.386 . S
C1733 H1694 0.930 . S
C1733 C1732 1.391 . S
C1733 C1734 1.375 . S
C1734 H1695 0.931 . S
C1734 C1733 1.375 . S
C1734 C1735 1.375 . S
C1735 C1734 1.375 . S
C1735 C1736 1.361 . S
C1736 H1696 0.930 . S
C1736 C1735 1.361 . S
C1736 C1737 1.399 . S
C1737 H1697 0.929 . S
C1737 C1732 1.386 . S
C1737 C1736 1.399 . S
C1738 C1717 1.485 . S
C1738 C1739 1.394 . S
C1738 C1743 1.360 . S
C1739 H1698 0.931 . S
C1739 C1738 1.394 . S
C1739 C1740 1.372 . S
C1740 H1699 0.930 . S
C1740 C1739 1.372 . S
C1740 C1741 1.397 . S
C1741 C1740 1.397 . S
C1741 C1742 1.390 . S
C1741 C1757 1.476 . S
C1742 H1700 0.930 . S
C1742 C1741 1.390 . S
C1742 C1743 1.366 . S
C1743 H1701 0.932 . S
C1743 C1738 1.360 . S
C1743 C1742 1.366 . S
C1744 C1718 1.490 . S
C1744 C1745 1.380 . S
C1744 C1749 1.386 . S
C1745 H1702 0.930 . S
C1745 C1744 1.380 . S
C1745 C1746 1.381 . S
C1746 H1703 0.929 . S
C1746 C1745 1.381 . S
C1746 C1747 1.371 . S
C1747 C1746 1.371 . S
C1747 C1748 1.380 . S
C1748 H1704 0.931 . S
C1748 C1747 1.380 . S
C1748 C1749 1.387 . S
C1749 H1705 0.930 . S
C1749 C1744 1.386 . S
C1749 C1748 1.387 . S
C1750 C1719 1.519 . S
C1750 C1751 1.377 . S
C1750 C1755 1.361 . S
C1751 H1706 0.929 . S
C1751 C1750 1.377 . S
C1751 C1752 1.386 . S
C1752 H1707 0.931 . S
C1752 C1751 1.386 . S
C1752 C1753 1.363 . S
C1753 C1752 1.363 . S
C1753 C1754 1.385 . S
C1754 H1708 0.930 . S
C1754 C1753 1.385 . S
C1754 C1755 1.396 . S
C1755 H1709 0.929 . S
C1755 C1750 1.361 . S
C1755 C1754 1.396 . S
C1756 O1710 1.300 . S
C1756 O1711 1.209 . S
C1756 C1729 1.486 . S
C1757 O1712 1.199 . S
C1757 O1713 1.297 . S
C1757 C1741 1.476 . S
H1758 O1784 0.856 . S
H1759 O1787 0.854 . S
H1760 C1795 0.930 . S
H1761 C1796 0.930 . S
H1762 C1798 0.930 . S
H1763 C1799 0.930 . S
H1764 C1801 0.931 . S
H1765 C1802 0.930 . S
H1766 C1804 0.930 . S
H1767 C1805 0.929 . S
H1768 C1807 0.930 . S
H1769 C1808 0.931 . S
H1770 C1810 0.930 . S
H1771 C1811 0.929 . S
H1772 C1813 0.931 . S
H1773 C1814 0.930 . S
H1774 C1816 0.930 . S
H1775 C1817 0.932 . S
H1776 C1819 0.930 . S
H1777 C1820 0.929 . S
H1778 C1822 0.931 . S
H1779 C1823 0.930 . S
H1780 C1825 0.929 . S
H1781 C1826 0.931 . S
H1782 C1828 0.930 . S
H1783 C1829 0.929 . S
O1784 H1758 0.856 . S
O1784 C1830 1.300 . S
O1785 C1830 1.209 . S
O1786 C1831 1.199 . S
O1787 H1759 0.854 . S
O1787 C1831 1.297 . S
C1788 C1789 1.404 . S
C1788 C1793 1.397 . S
C1788 C1794 1.492 . S
C1789 C1788 1.404 . S
C1789 C1790 1.396 . S
C1789 C1800 1.492 . S
C1790 C1789 1.396 . S
C1790 C1791 1.397 . S
C1790 C1806 1.509 . S
C1791 C1790 1.397 . S
C1791 C1792 1.412 . S
C1791 C1812 1.485 . S
C1792 C1791 1.412 . S
C1792 C1793 1.388 . S
C1792 C1818 1.490 . S
C1793 C1788 1.397 . S
C1793 C1792 1.388 . S
C1793 C1824 1.519 . S
C1794 C1788 1.492 . S
C1794 C1795 1.363 . S
C1794 C1799 1.390 . S
C1795 H1760 0.930 . S
C1795 C1794 1.363 . S
C1795 C1796 1.372 . S
C1796 H1761 0.930 . S
C1796 C1795 1.372 . S
C1796 C1797 1.383 . S
C1797 C1796 1.383 . S
C1797 C1798 1.395 . S
C1798 H1762 0.930 . S
C1798 C1797 1.395 . S
C1798 C1799 1.362 . S
C1799 H1763 0.930 . S
C1799 C1794 1.390 . S
C1799 C1798 1.362 . S
C1800 C1789 1.492 . S
C1800 C1801 1.377 . S
C1800 C1805 1.397 . S
C1801 H1764 0.931 . S
C1801 C1800 1.377 . S
C1801 C1802 1.376 . S
C1802 H1765 0.930 . S
C1802 C1801 1.376 . S
C1802 C1803 1.376 . S
C1803 C1802 1.376 . S
C1803 C1804 1.378 . S
C1803 C1830 1.486 . S
C1804 H1766 0.930 . S
C1804 C1803 1.378 . S
C1804 C1805 1.376 . S
C1805 H1767 0.929 . S
C1805 C1800 1.397 . S
C1805 C1804 1.376 . S
C1806 C1790 1.509 . S
C1806 C1807 1.391 . S
C1806 C1811 1.386 . S
C1807 H1768 0.930 . S
C1807 C1806 1.391 . S
C1807 C1808 1.375 . S
C1808 H1769 0.931 . S
C1808 C1807 1.375 . S
C1808 C1809 1.375 . S
C1809 C1808 1.375 . S
C1809 C1810 1.361 . S
C1810 H1770 0.930 . S
C1810 C1809 1.361 . S
C1810 C1811 1.399 . S
C1811 H1771 0.929 . S
C1811 C1806 1.386 . S
C1811 C1810 1.399 . S
C1812 C1791 1.485 . S
C1812 C1813 1.394 . S
C1812 C1817 1.360 . S
C1813 H1772 0.931 . S
C1813 C1812 1.394 . S
C1813 C1814 1.372 . S
C1814 H1773 0.930 . S
C1814 C1813 1.372 . S
C1814 C1815 1.397 . S
C1815 C1814 1.397 . S
C1815 C1816 1.390 . S
C1815 C1831 1.476 . S
C1816 H1774 0.930 . S
C1816 C1815 1.390 . S
C1816 C1817 1.366 . S
C1817 H1775 0.932 . S
C1817 C1812 1.360 . S
C1817 C1816 1.366 . S
C1818 C1792 1.490 . S
C1818 C1819 1.380 . S
C1818 C1823 1.386 . S
C1819 H1776 0.930 . S
C1819 C1818 1.380 . S
C1819 C1820 1.381 . S
C1820 H1777 0.929 . S
C1820 C1819 1.381 . S
C1820 C1821 1.371 . S
C1821 C1820 1.371 . S
C1821 C1822 1.380 . S
C1822 H1778 0.931 . S
C1822 C1821 1.380 . S
C1822 C1823 1.387 . S
C1823 H1779 0.930 . S
C1823 C1818 1.386 . S
C1823 C1822 1.387 . S
C1824 C1793 1.519 . S
C1824 C1825 1.377 . S
C1824 C1829 1.361 . S
C1825 H1780 0.929 . S
C1825 C1824 1.377 . S
C1825 C1826 1.386 . S
C1826 H1781 0.931 . S
C1826 C1825 1.386 . S
C1826 C1827 1.363 . S
C1827 C1826 1.363 . S
C1827 C1828 1.385 . S
C1828 H1782 0.930 . S
C1828 C1827 1.385 . S
C1828 C1829 1.396 . S
C1829 H1783 0.929 . S
C1829 C1824 1.361 . S
C1829 C1828 1.396 . S
C1830 O1784 1.300 . S
C1830 O1785 1.209 . S
C1830 C1803 1.486 . S
C1831 O1786 1.199 . S
C1831 O1787 1.297 . S
C1831 C1815 1.476 . S
H1832 O1858 0.856 . S
H1833 O1861 0.854 . S
H1834 C1869 0.930 . S
H1835 C1870 0.930 . S
H1836 C1872 0.930 . S
H1837 C1873 0.930 . S
H1838 C1875 0.931 . S
H1839 C1876 0.930 . S
H1840 C1878 0.930 . S
H1841 C1879 0.929 . S
H1842 C1881 0.930 . S
H1843 C1882 0.931 . S
H1844 C1884 0.930 . S
H1845 C1885 0.929 . S
H1846 C1887 0.931 . S
H1847 C1888 0.930 . S
H1848 C1890 0.930 . S
H1849 C1891 0.932 . S
H1850 C1893 0.930 . S
H1851 C1894 0.929 . S
H1852 C1896 0.931 . S
H1853 C1897 0.930 . S
H1854 C1899 0.929 . S
H1855 C1900 0.931 . S
H1856 C1902 0.930 . S
H1857 C1903 0.929 . S
O1858 H1832 0.856 . S
O1858 C1904 1.300 . S
O1859 C1904 1.209 . S
O1860 C1905 1.199 . S
O1861 H1833 0.854 . S
O1861 C1905 1.297 . S
C1862 C1863 1.404 . S
C1862 C1867 1.397 . S
C1862 C1868 1.492 . S
C1863 C1862 1.404 . S
C1863 C1864 1.396 . S
C1863 C1874 1.492 . S
C1864 C1863 1.396 . S
C1864 C1865 1.397 . S
C1864 C1880 1.509 . S
C1865 C1864 1.397 . S
C1865 C1866 1.412 . S
C1865 C1886 1.485 . S
C1866 C1865 1.412 . S
C1866 C1867 1.388 . S
C1866 C1892 1.490 . S
C1867 C1862 1.397 . S
C1867 C1866 1.388 . S
C1867 C1898 1.519 . S
C1868 C1862 1.492 . S
C1868 C1869 1.363 . S
C1868 C1873 1.390 . S
C1869 H1834 0.930 . S
C1869 C1868 1.363 . S
C1869 C1870 1.372 . S
C1870 H1835 0.930 . S
C1870 C1869 1.372 . S
C1870 C1871 1.383 . S
C1871 C1870 1.383 . S
C1871 C1872 1.395 . S
C1872 H1836 0.930 . S
C1872 C1871 1.395 . S
C1872 C1873 1.362 . S
C1873 H1837 0.930 . S
C1873 C1868 1.390 . S
C1873 C1872 1.362 . S
C1874 C1863 1.492 . S
C1874 C1875 1.377 . S
C1874 C1879 1.397 . S
C1875 H1838 0.931 . S
C1875 C1874 1.377 . S
C1875 C1876 1.376 . S
C1876 H1839 0.930 . S
C1876 C1875 1.376 . S
C1876 C1877 1.376 . S
C1877 C1876 1.376 . S
C1877 C1878 1.378 . S
C1877 C1904 1.486 . S
C1878 H1840 0.930 . S
C1878 C1877 1.378 . S
C1878 C1879 1.376 . S
C1879 H1841 0.929 . S
C1879 C1874 1.397 . S
C1879 C1878 1.376 . S
C1880 C1864 1.509 . S
C1880 C1881 1.391 . S
C1880 C1885 1.386 . S
C1881 H1842 0.930 . S
C1881 C1880 1.391 . S
C1881 C1882 1.375 . S
C1882 H1843 0.931 . S
C1882 C1881 1.375 . S
C1882 C1883 1.375 . S
C1883 C1882 1.375 . S
C1883 C1884 1.361 . S
C1884 H1844 0.930 . S
C1884 C1883 1.361 . S
C1884 C1885 1.399 . S
C1885 H1845 0.929 . S
C1885 C1880 1.386 . S
C1885 C1884 1.399 . S
C1886 C1865 1.485 . S
C1886 C1887 1.394 . S
C1886 C1891 1.360 . S
C1887 H1846 0.931 . S
C1887 C1886 1.394 . S
C1887 C1888 1.372 . S
C1888 H1847 0.930 . S
C1888 C1887 1.372 . S
C1888 C1889 1.397 . S
C1889 C1888 1.397 . S
C1889 C1890 1.390 . S
C1889 C1905 1.476 . S
C1890 H1848 0.930 . S
C1890 C1889 1.390 . S
C1890 C1891 1.366 . S
C1891 H1849 0.932 . S
C1891 C1886 1.360 . S
C1891 C1890 1.366 . S
C1892 C1866 1.490 . S
C1892 C1893 1.380 . S
C1892 C1897 1.386 . S
C1893 H1850 0.930 . S
C1893 C1892 1.380 . S
C1893 C1894 1.381 . S
C1894 H1851 0.929 . S
C1894 C1893 1.381 . S
C1894 C1895 1.371 . S
C1895 C1894 1.371 . S
C1895 C1896 1.380 . S
C1896 H1852 0.931 . S
C1896 C1895 1.380 . S
C1896 C1897 1.387 . S
C1897 H1853 0.930 . S
C1897 C1892 1.386 . S
C1897 C1896 1.387 . S
C1898 C1867 1.519 . S
C1898 C1899 1.377 . S
C1898 C1903 1.361 . S
C1899 H1854 0.929 . S
C1899 C1898 1.377 . S
C1899 C1900 1.386 . S
C1900 H1855 0.931 . S
C1900 C1899 1.386 . S
C1900 C1901 1.363 . S
C1901 C1900 1.363 . S
C1901 C1902 1.385 . S
C1902 H1856 0.930 . S
C1902 C1901 1.385 . S
C1902 C1903 1.396 . S
C1903 H1857 0.929 . S
C1903 C1898 1.361 . S
C1903 C1902 1.396 . S
C1904 O1858 1.300 . S
C1904 O1859 1.209 . S
C1904 C1877 1.486 . S
C1905 O1860 1.199 . S
C1905 O1861 1.297 . S
C1905 C1889 1.476 . S
H1906 O1932 0.856 . S
H1907 O1935 0.854 . S
H1908 C1943 0.930 . S
H1909 C1944 0.930 . S
H1910 C1946 0.930 . S
H1911 C1947 0.930 . S
H1912 C1949 0.931 . S
H1913 C1950 0.930 . S
H1914 C1952 0.930 . S
H1915 C1953 0.929 . S
H1916 C1955 0.930 . S
H1917 C1956 0.931 . S
H1918 C1958 0.930 . S
H1919 C1959 0.929 . S
H1920 C1961 0.931 . S
H1921 C1962 0.930 . S
H1922 C1964 0.930 . S
H1923 C1965 0.932 . S
H1924 C1967 0.930 . S
H1925 C1968 0.929 . S
H1926 C1970 0.931 . S
H1927 C1971 0.930 . S
H1928 C1973 0.929 . S
H1929 C1974 0.931 . S
H1930 C1976 0.930 . S
H1931 C1977 0.929 . S
O1932 H1906 0.856 . S
O1932 C1978 1.300 . S
O1933 C1978 1.209 . S
O1934 C1979 1.199 . S
O1935 H1907 0.854 . S
O1935 C1979 1.297 . S
C1936 C1937 1.404 . S
C1936 C1941 1.397 . S
C1936 C1942 1.492 . S
C1937 C1936 1.404 . S
C1937 C1938 1.396 . S
C1937 C1948 1.492 . S
C1938 C1937 1.396 . S
C1938 C1939 1.397 . S
C1938 C1954 1.509 . S
C1939 C1938 1.397 . S
C1939 C1940 1.412 . S
C1939 C1960 1.485 . S
C1940 C1939 1.412 . S
C1940 C1941 1.388 . S
C1940 C1966 1.490 . S
C1941 C1936 1.397 . S
C1941 C1940 1.388 . S
C1941 C1972 1.519 . S
C1942 C1936 1.492 . S
C1942 C1943 1.363 . S
C1942 C1947 1.390 . S
C1943 H1908 0.930 . S
C1943 C1942 1.363 . S
C1943 C1944 1.372 . S
C1944 H1909 0.930 . S
C1944 C1943 1.372 . S
C1944 C1945 1.383 . S
C1945 C1944 1.383 . S
C1945 C1946 1.395 . S
C1946 H1910 0.930 . S
C1946 C1945 1.395 . S
C1946 C1947 1.362 . S
C1947 H1911 0.930 . S
C1947 C1942 1.390 . S
C1947 C1946 1.362 . S
C1948 C1937 1.492 . S
C1948 C1949 1.377 . S
C1948 C1953 1.397 . S
C1949 H1912 0.931 . S
C1949 C1948 1.377 . S
C1949 C1950 1.376 . S
C1950 H1913 0.930 . S
C1950 C1949 1.376 . S
C1950 C1951 1.376 . S
C1951 C1950 1.376 . S
C1951 C1952 1.378 . S
C1951 C1978 1.486 . S
C1952 H1914 0.930 . S
C1952 C1951 1.378 . S
C1952 C1953 1.376 . S
C1953 H1915 0.929 . S
C1953 C1948 1.397 . S
C1953 C1952 1.376 . S
C1954 C1938 1.509 . S
C1954 C1955 1.391 . S
C1954 C1959 1.386 . S
C1955 H1916 0.930 . S
C1955 C1954 1.391 . S
C1955 C1956 1.375 . S
C1956 H1917 0.931 . S
C1956 C1955 1.375 . S
C1956 C1957 1.375 . S
C1957 C1956 1.375 . S
C1957 C1958 1.361 . S
C1958 H1918 0.930 . S
C1958 C1957 1.361 . S
C1958 C1959 1.399 . S
C1959 H1919 0.929 . S
C1959 C1954 1.386 . S
C1959 C1958 1.399 . S
C1960 C1939 1.485 . S
C1960 C1961 1.394 . S
C1960 C1965 1.360 . S
C1961 H1920 0.931 . S
C1961 C1960 1.394 . S
C1961 C1962 1.372 . S
C1962 H1921 0.930 . S
C1962 C1961 1.372 . S
C1962 C1963 1.397 . S
C1963 C1962 1.397 . S
C1963 C1964 1.390 . S
C1963 C1979 1.476 . S
C1964 H1922 0.930 . S
C1964 C1963 1.390 . S
C1964 C1965 1.366 . S
C1965 H1923 0.932 . S
C1965 C1960 1.360 . S
C1965 C1964 1.366 . S
C1966 C1940 1.490 . S
C1966 C1967 1.380 . S
C1966 C1971 1.386 . S
C1967 H1924 0.930 . S
C1967 C1966 1.380 . S
C1967 C1968 1.381 . S
C1968 H1925 0.929 . S
C1968 C1967 1.381 . S
C1968 C1969 1.371 . S
C1969 C1968 1.371 . S
C1969 C1970 1.380 . S
C1970 H1926 0.931 . S
C1970 C1969 1.380 . S
C1970 C1971 1.387 . S
C1971 H1927 0.930 . S
C1971 C1966 1.386 . S
C1971 C1970 1.387 . S
C1972 C1941 1.519 . S
C1972 C1973 1.377 . S
C1972 C1977 1.361 . S
C1973 H1928 0.929 . S
C1973 C1972 1.377 . S
C1973 C1974 1.386 . S
C1974 H1929 0.931 . S
C1974 C1973 1.386 . S
C1974 C1975 1.363 . S
C1975 C1974 1.363 . S
C1975 C1976 1.385 . S
C1976 H1930 0.930 . S
C1976 C1975 1.385 . S
C1976 C1977 1.396 . S
C1977 H1931 0.929 . S
C1977 C1972 1.361 . S
C1977 C1976 1.396 . S
C1978 O1932 1.300 . S
C1978 O1933 1.209 . S
C1978 C1951 1.486 . S
C1979 O1934 1.199 . S
C1979 O1935 1.297 . S
C1979 C1963 1.476 . S
H1980 O2006 0.856 . S
H1981 O2009 0.854 . S
H1982 C2017 0.930 . S
H1983 C2018 0.930 . S
H1984 C2020 0.930 . S
H1985 C2021 0.930 . S
H1986 C2023 0.931 . S
H1987 C2024 0.930 . S
H1988 C2026 0.930 . S
H1989 C2027 0.929 . S
H1990 C2029 0.930 . S
H1991 C2030 0.931 . S
H1992 C2032 0.930 . S
H1993 C2033 0.929 . S
H1994 C2035 0.931 . S
H1995 C2036 0.930 . S
H1996 C2038 0.930 . S
H1997 C2039 0.932 . S
H1998 C2041 0.930 . S
H1999 C2042 0.929 . S
H2000 C2044 0.931 . S
H2001 C2045 0.930 . S
H2002 C2047 0.929 . S
H2003 C2048 0.931 . S
H2004 C2050 0.930 . S
H2005 C2051 0.929 . S
O2006 H1980 0.856 . S
O2006 C2052 1.300 . S
O2007 C2052 1.209 . S
O2008 C2053 1.199 . S
O2009 H1981 0.854 . S
O2009 C2053 1.297 . S
C2010 C2011 1.404 . S
C2010 C2015 1.397 . S
C2010 C2016 1.492 . S
C2011 C2010 1.404 . S
C2011 C2012 1.396 . S
C2011 C2022 1.492 . S
C2012 C2011 1.396 . S
C2012 C2013 1.397 . S
C2012 C2028 1.509 . S
C2013 C2012 1.397 . S
C2013 C2014 1.412 . S
C2013 C2034 1.485 . S
C2014 C2013 1.412 . S
C2014 C2015 1.388 . S
C2014 C2040 1.490 . S
C2015 C2010 1.397 . S
C2015 C2014 1.388 . S
C2015 C2046 1.519 . S
C2016 C2010 1.492 . S
C2016 C2017 1.363 . S
C2016 C2021 1.390 . S
C2017 H1982 0.930 . S
C2017 C2016 1.363 . S
C2017 C2018 1.372 . S
C2018 H1983 0.930 . S
C2018 C2017 1.372 . S
C2018 C2019 1.383 . S
C2019 C2018 1.383 . S
C2019 C2020 1.395 . S
C2020 H1984 0.930 . S
C2020 C2019 1.395 . S
C2020 C2021 1.362 . S
C2021 H1985 0.930 . S
C2021 C2016 1.390 . S
C2021 C2020 1.362 . S
C2022 C2011 1.492 . S
C2022 C2023 1.377 . S
C2022 C2027 1.397 . S
C2023 H1986 0.931 . S
C2023 C2022 1.377 . S
C2023 C2024 1.376 . S
C2024 H1987 0.930 . S
C2024 C2023 1.376 . S
C2024 C2025 1.376 . S
C2025 C2024 1.376 . S
C2025 C2026 1.378 . S
C2025 C2052 1.486 . S
C2026 H1988 0.930 . S
C2026 C2025 1.378 . S
C2026 C2027 1.376 . S
C2027 H1989 0.929 . S
C2027 C2022 1.397 . S
C2027 C2026 1.376 . S
C2028 C2012 1.509 . S
C2028 C2029 1.391 . S
C2028 C2033 1.386 . S
C2029 H1990 0.930 . S
C2029 C2028 1.391 . S
C2029 C2030 1.375 . S
C2030 H1991 0.931 . S
C2030 C2029 1.375 . S
C2030 C2031 1.375 . S
C2031 C2030 1.375 . S
C2031 C2032 1.361 . S
C2032 H1992 0.930 . S
C2032 C2031 1.361 . S
C2032 C2033 1.399 . S
C2033 H1993 0.929 . S
C2033 C2028 1.386 . S
C2033 C2032 1.399 . S
C2034 C2013 1.485 . S
C2034 C2035 1.394 . S
C2034 C2039 1.360 . S
C2035 H1994 0.931 . S
C2035 C2034 1.394 . S
C2035 C2036 1.372 . S
C2036 H1995 0.930 . S
C2036 C2035 1.372 . S
C2036 C2037 1.397 . S
C2037 C2036 1.397 . S
C2037 C2038 1.390 . S
C2037 C2053 1.476 . S
C2038 H1996 0.930 . S
C2038 C2037 1.390 . S
C2038 C2039 1.366 . S
C2039 H1997 0.932 . S
C2039 C2034 1.360 . S
C2039 C2038 1.366 . S
C2040 C2014 1.490 . S
C2040 C2041 1.380 . S
C2040 C2045 1.386 . S
C2041 H1998 0.930 . S
C2041 C2040 1.380 . S
C2041 C2042 1.381 . S
C2042 H1999 0.929 . S
C2042 C2041 1.381 . S
C2042 C2043 1.371 . S
C2043 C2042 1.371 . S
C2043 C2044 1.380 . S
C2044 H2000 0.931 . S
C2044 C2043 1.380 . S
C2044 C2045 1.387 . S
C2045 H2001 0.930 . S
C2045 C2040 1.386 . S
C2045 C2044 1.387 . S
C2046 C2015 1.519 . S
C2046 C2047 1.377 . S
C2046 C2051 1.361 . S
C2047 H2002 0.929 . S
C2047 C2046 1.377 . S
C2047 C2048 1.386 . S
C2048 H2003 0.931 . S
C2048 C2047 1.386 . S
C2048 C2049 1.363 . S
C2049 C2048 1.363 . S
C2049 C2050 1.385 . S
C2050 H2004 0.930 . S
C2050 C2049 1.385 . S
C2050 C2051 1.396 . S
C2051 H2005 0.929 . S
C2051 C2046 1.361 . S
C2051 C2050 1.396 . S
C2052 O2006 1.300 . S
C2052 O2007 1.209 . S
C2052 C2025 1.486 . S
C2053 O2008 1.199 . S
C2053 O2009 1.297 . S
C2053 C2037 1.476 . S
H2054 O2080 0.856 . S
H2055 O2083 0.854 . S
H2056 C2091 0.930 . S
H2057 C2092 0.930 . S
H2058 C2094 0.930 . S
H2059 C2095 0.930 . S
H2060 C2097 0.931 . S
H2061 C2098 0.930 . S
H2062 C2100 0.930 . S
H2063 C2101 0.929 . S
H2064 C2103 0.930 . S
H2065 C2104 0.931 . S
H2066 C2106 0.930 . S
H2067 C2107 0.929 . S
H2068 C2109 0.931 . S
H2069 C2110 0.930 . S
H2070 C2112 0.930 . S
H2071 C2113 0.932 . S
H2072 C2115 0.930 . S
H2073 C2116 0.929 . S
H2074 C2118 0.931 . S
H2075 C2119 0.930 . S
H2076 C2121 0.929 . S
H2077 C2122 0.931 . S
H2078 C2124 0.930 . S
H2079 C2125 0.929 . S
O2080 H2054 0.856 . S
O2080 C2126 1.300 . S
O2081 C2126 1.209 . S
O2082 C2127 1.199 . S
O2083 H2055 0.854 . S
O2083 C2127 1.297 . S
C2084 C2085 1.404 . S
C2084 C2089 1.397 . S
C2084 C2090 1.492 . S
C2085 C2084 1.404 . S
C2085 C2086 1.396 . S
C2085 C2096 1.492 . S
C2086 C2085 1.396 . S
C2086 C2087 1.397 . S
C2086 C2102 1.509 . S
C2087 C2086 1.397 . S
C2087 C2088 1.412 . S
C2087 C2108 1.485 . S
C2088 C2087 1.412 . S
C2088 C2089 1.388 . S
C2088 C2114 1.490 . S
C2089 C2084 1.397 . S
C2089 C2088 1.388 . S
C2089 C2120 1.519 . S
C2090 C2084 1.492 . S
C2090 C2091 1.363 . S
C2090 C2095 1.390 . S
C2091 H2056 0.930 . S
C2091 C2090 1.363 . S
C2091 C2092 1.372 . S
C2092 H2057 0.930 . S
C2092 C2091 1.372 . S
C2092 C2093 1.383 . S
C2093 C2092 1.383 . S
C2093 C2094 1.395 . S
C2094 H2058 0.930 . S
C2094 C2093 1.395 . S
C2094 C2095 1.362 . S
C2095 H2059 0.930 . S
C2095 C2090 1.390 . S
C2095 C2094 1.362 . S
C2096 C2085 1.492 . S
C2096 C2097 1.377 . S
C2096 C2101 1.397 . S
C2097 H2060 0.931 . S
C2097 C2096 1.377 . S
C2097 C2098 1.376 . S
C2098 H2061 0.930 . S
C2098 C2097 1.376 . S
C2098 C2099 1.376 . S
C2099 C2098 1.376 . S
C2099 C2100 1.378 . S
C2099 C2126 1.486 . S
C2100 H2062 0.930 . S
C2100 C2099 1.378 . S
C2100 C2101 1.376 . S
C2101 H2063 0.929 . S
C2101 C2096 1.397 . S
C2101 C2100 1.376 . S
C2102 C2086 1.509 . S
C2102 C2103 1.391 . S
C2102 C2107 1.386 . S
C2103 H2064 0.930 . S
C2103 C2102 1.391 . S
C2103 C2104 1.375 . S
C2104 H2065 0.931 . S
C2104 C2103 1.375 . S
C2104 C2105 1.375 . S
C2105 C2104 1.375 . S
C2105 C2106 1.361 . S
C2106 H2066 0.930 . S
C2106 C2105 1.361 . S
C2106 C2107 1.399 . S
C2107 H2067 0.929 . S
C2107 C2102 1.386 . S
C2107 C2106 1.399 . S
C2108 C2087 1.485 . S
C2108 C2109 1.394 . S
C2108 C2113 1.360 . S
C2109 H2068 0.931 . S
C2109 C2108 1.394 . S
C2109 C2110 1.372 . S
C2110 H2069 0.930 . S
C2110 C2109 1.372 . S
C2110 C2111 1.397 . S
C2111 C2110 1.397 . S
C2111 C2112 1.390 . S
C2111 C2127 1.476 . S
C2112 H2070 0.930 . S
C2112 C2111 1.390 . S
C2112 C2113 1.366 . S
C2113 H2071 0.932 . S
C2113 C2108 1.360 . S
C2113 C2112 1.366 . S
C2114 C2088 1.490 . S
C2114 C2115 1.380 . S
C2114 C2119 1.386 . S
C2115 H2072 0.930 . S
C2115 C2114 1.380 . S
C2115 C2116 1.381 . S
C2116 H2073 0.929 . S
C2116 C2115 1.381 . S
C2116 C2117 1.371 . S
C2117 C2116 1.371 . S
C2117 C2118 1.380 . S
C2118 H2074 0.931 . S
C2118 C2117 1.380 . S
C2118 C2119 1.387 . S
C2119 H2075 0.930 . S
C2119 C2114 1.386 . S
C2119 C2118 1.387 . S
C2120 C2089 1.519 . S
C2120 C2121 1.377 . S
C2120 C2125 1.361 . S
C2121 H2076 0.929 . S
C2121 C2120 1.377 . S
C2121 C2122 1.386 . S
C2122 H2077 0.931 . S
C2122 C2121 1.386 . S
C2122 C2123 1.363 . S
C2123 C2122 1.363 . S
C2123 C2124 1.385 . S
C2124 H2078 0.930 . S
C2124 C2123 1.385 . S
C2124 C2125 1.396 . S
C2125 H2079 0.929 . S
C2125 C2120 1.361 . S
C2125 C2124 1.396 . S
C2126 O2080 1.300 . S
C2126 O2081 1.209 . S
C2126 C2099 1.486 . S
C2127 O2082 1.199 . S
C2127 O2083 1.297 . S
C2127 C2111 1.476 . S
C2128 C2129 1.369 . S
C2128 C2130 1.419 . S
C2128 H2132 0.930 . S
C2129 C2128 1.369 . S
C2129 C2138 1.429 . S
C2130 C2128 1.419 . S
C2130 C2131 1.363 . S
C2130 H2133 0.929 . S
C2131 C2130 1.363 . S
C2131 C2137 1.428 . S
H2132 C2128 0.930 . S
H2133 C2130 0.929 . S
S2134 N2135 1.613 . S
S2134 N2136 1.610 . S
N2135 S2134 1.613 . S
N2135 C2138 1.350 . S
N2136 S2134 1.610 . S
N2136 C2137 1.351 . S
C2137 C2131 1.428 . S
C2137 N2136 1.351 . S
C2137 C2138 1.434 . S
C2138 C2129 1.429 . S
C2138 N2135 1.350 . S
C2138 C2137 1.434 . S
C2139 C2140 1.369 . S
C2139 C2141 1.419 . S
C2139 H2143 0.930 . S
C2140 C2139 1.369 . S
C2140 C2149 1.429 . S
C2141 C2139 1.419 . S
C2141 C2142 1.363 . S
C2141 H2144 0.929 . S
C2142 C2141 1.363 . S
C2142 C2148 1.428 . S
H2143 C2139 0.930 . S
H2144 C2141 0.929 . S
S2145 N2146 1.613 . S
S2145 N2147 1.610 . S
N2146 S2145 1.613 . S
N2146 C2149 1.350 . S
N2147 S2145 1.610 . S
N2147 C2148 1.351 . S
C2148 C2142 1.428 . S
C2148 N2147 1.351 . S
C2148 C2149 1.434 . S
C2149 C2140 1.429 . S
C2149 N2146 1.350 . S
C2149 C2148 1.434 . S
C2150 C2151 1.369 . S
C2150 C2152 1.419 . S
C2150 H2154 0.930 . S
C2151 C2150 1.369 . S
C2151 C2160 1.429 . S
C2152 C2150 1.419 . S
C2152 C2153 1.363 . S
C2152 H2155 0.929 . S
C2153 C2152 1.363 . S
C2153 C2159 1.428 . S
H2154 C2150 0.930 . S
H2155 C2152 0.929 . S
S2156 N2157 1.613 . S
S2156 N2158 1.610 . S
N2157 S2156 1.613 . S
N2157 C2160 1.350 . S
N2158 S2156 1.610 . S
N2158 C2159 1.351 . S
C2159 C2153 1.428 . S
C2159 N2158 1.351 . S
C2159 C2160 1.434 . S
C2160 C2151 1.429 . S
C2160 N2157 1.350 . S
C2160 C2159 1.434 . S
C2161 C2162 1.369 . S
C2161 C2163 1.419 . S
C2161 H2165 0.930 . S
C2162 C2161 1.369 . S
C2162 C2171 1.429 . S
C2163 C2161 1.419 . S
C2163 C2164 1.363 . S
C2163 H2166 0.929 . S
C2164 C2163 1.363 . S
C2164 C2170 1.428 . S
H2165 C2161 0.930 . S
H2166 C2163 0.929 . S
S2167 N2168 1.613 . S
S2167 N2169 1.610 . S
N2168 S2167 1.613 . S
N2168 C2171 1.350 . S
N2169 S2167 1.610 . S
N2169 C2170 1.351 . S
C2170 C2164 1.428 . S
C2170 N2169 1.351 . S
C2170 C2171 1.434 . S
C2171 C2162 1.429 . S
C2171 N2168 1.350 . S
C2171 C2170 1.434 . S
C2172 C2173 1.369 . S
C2172 C2174 1.419 . S
C2172 H2176 0.930 . S
C2173 C2172 1.369 . S
C2173 C2182 1.429 . S
C2174 C2172 1.419 . S
C2174 C2175 1.363 . S
C2174 H2177 0.929 . S
C2175 C2174 1.363 . S
C2175 C2181 1.428 . S
H2176 C2172 0.930 . S
H2177 C2174 0.929 . S
S2178 N2179 1.613 . S
S2178 N2180 1.610 . S
N2179 S2178 1.613 . S
N2179 C2182 1.350 . S
N2180 S2178 1.610 . S
N2180 C2181 1.351 . S
C2181 C2175 1.428 . S
C2181 N2180 1.351 . S
C2181 C2182 1.434 . S
C2182 C2173 1.429 . S
C2182 N2179 1.350 . S
C2182 C2181 1.434 . S
C2183 C2184 1.369 . S
C2183 C2185 1.419 . S
C2183 H2187 0.930 . S
C2184 C2183 1.369 . S
C2184 C2193 1.429 . S
C2185 C2183 1.419 . S
C2185 C2186 1.363 . S
C2185 H2188 0.929 . S
C2186 C2185 1.363 . S
C2186 C2192 1.428 . S
H2187 C2183 0.930 . S
H2188 C2185 0.929 . S
S2189 N2190 1.613 . S
S2189 N2191 1.610 . S
N2190 S2189 1.613 . S
N2190 C2193 1.350 . S
N2191 S2189 1.610 . S
N2191 C2192 1.351 . S
C2192 C2186 1.428 . S
C2192 N2191 1.351 . S
C2192 C2193 1.434 . S
C2193 C2184 1.429 . S
C2193 N2190 1.350 . S
C2193 C2192 1.434 . S
C2194 C2195 1.369 . S
C2194 C2196 1.419 . S
C2194 H2198 0.930 . S
C2195 C2194 1.369 . S
C2195 C2204 1.429 . S
C2196 C2194 1.419 . S
C2196 C2197 1.363 . S
C2196 H2199 0.929 . S
C2197 C2196 1.363 . S
C2197 C2203 1.428 . S
H2198 C2194 0.930 . S
H2199 C2196 0.929 . S
S2200 N2201 1.613 . S
S2200 N2202 1.610 . S
N2201 S2200 1.613 . S
N2201 C2204 1.350 . S
N2202 S2200 1.610 . S
N2202 C2203 1.351 . S
C2203 C2197 1.428 . S
C2203 N2202 1.351 . S
C2203 C2204 1.434 . S
C2204 C2195 1.429 . S
C2204 N2201 1.350 . S
C2204 C2203 1.434 . S
C2205 C2206 1.369 . S
C2205 C2207 1.419 . S
C2205 H2209 0.930 . S
C2206 C2205 1.369 . S
C2206 C2215 1.429 . S
C2207 C2205 1.419 . S
C2207 C2208 1.363 . S
C2207 H2210 0.929 . S
C2208 C2207 1.363 . S
C2208 C2214 1.428 . S
H2209 C2205 0.930 . S
H2210 C2207 0.929 . S
S2211 N2212 1.613 . S
S2211 N2213 1.610 . S
N2212 S2211 1.613 . S
N2212 C2215 1.350 . S
N2213 S2211 1.610 . S
N2213 C2214 1.351 . S
C2214 C2208 1.428 . S
C2214 N2213 1.351 . S
C2214 C2215 1.434 . S
C2215 C2206 1.429 . S
C2215 N2212 1.350 . S
C2215 C2214 1.434 . S
C2216 C2217 1.369 . S
C2216 C2218 1.419 . S
C2216 H2220 0.930 . S
C2217 C2216 1.369 . S
C2217 C2226 1.429 . S
C2218 C2216 1.419 . S
C2218 C2219 1.363 . S
C2218 H2221 0.929 . S
C2219 C2218 1.363 . S
C2219 C2225 1.428 . S
H2220 C2216 0.930 . S
H2221 C2218 0.929 . S
S2222 N2223 1.613 . S
S2222 N2224 1.610 . S
N2223 S2222 1.613 . S
N2223 C2226 1.350 . S
N2224 S2222 1.610 . S
N2224 C2225 1.351 . S
C2225 C2219 1.428 . S
C2225 N2224 1.351 . S
C2225 C2226 1.434 . S
C2226 C2217 1.429 . S
C2226 N2223 1.350 . S
C2226 C2225 1.434 . S
C2227 C2228 1.369 . S
C2227 C2229 1.419 . S
C2227 H2231 0.930 . S
C2228 C2227 1.369 . S
C2228 C2237 1.429 . S
C2229 C2227 1.419 . S
C2229 C2230 1.363 . S
C2229 H2232 0.929 . S
C2230 C2229 1.363 . S
C2230 C2236 1.428 . S
H2231 C2227 0.930 . S
H2232 C2229 0.929 . S
S2233 N2234 1.613 . S
S2233 N2235 1.610 . S
N2234 S2233 1.613 . S
N2234 C2237 1.350 . S
N2235 S2233 1.610 . S
N2235 C2236 1.351 . S
C2236 C2230 1.428 . S
C2236 N2235 1.351 . S
C2236 C2237 1.434 . S
C2237 C2228 1.429 . S
C2237 N2234 1.350 . S
C2237 C2236 1.434 . S
C2238 C2239 1.369 . S
C2238 C2240 1.419 . S
C2238 H2242 0.930 . S
C2239 C2238 1.369 . S
C2239 C2248 1.429 . S
C2240 C2238 1.419 . S
C2240 C2241 1.363 . S
C2240 H2243 0.929 . S
C2241 C2240 1.363 . S
C2241 C2247 1.428 . S
H2242 C2238 0.930 . S
H2243 C2240 0.929 . S
S2244 N2245 1.613 1_455 S
S2244 N2246 1.610 . S
N2245 S2244 1.613 1_655 S
N2245 C2248 1.350 . S
N2246 S2244 1.610 . S
N2246 C2247 1.351 1_455 S
C2247 C2241 1.428 . S
C2247 N2246 1.351 1_655 S
C2247 C2248 1.434 . S
C2248 C2239 1.429 . S
C2248 N2245 1.350 . S
C2248 C2247 1.434 . S
C2249 C2250 1.369 . S
C2249 C2251 1.419 . S
C2249 H2253 0.930 . S
C2250 C2249 1.369 . S
C2250 C2259 1.429 . S
C2251 C2249 1.419 . S
C2251 C2252 1.363 . S
C2251 H2254 0.929 . S
C2252 C2251 1.363 . S
C2252 C2258 1.428 . S
H2253 C2249 0.930 . S
H2254 C2251 0.929 . S
S2255 N2256 1.613 . S
S2255 N2257 1.610 . S
N2256 S2255 1.613 . S
N2256 C2259 1.350 . S
N2257 S2255 1.610 . S
N2257 C2258 1.351 . S
C2258 C2252 1.428 . S
C2258 N2257 1.351 . S
C2258 C2259 1.434 . S
C2259 C2250 1.429 . S
C2259 N2256 1.350 . S
C2259 C2258 1.434 . S
C2260 C2261 1.369 . S
C2260 C2262 1.419 . S
C2260 H2264 0.930 . S
C2261 C2260 1.369 . S
C2261 C2270 1.429 . S
C2262 C2260 1.419 . S
C2262 C2263 1.363 . S
C2262 H2265 0.929 . S
C2263 C2262 1.363 . S
C2263 C2269 1.428 . S
H2264 C2260 0.930 . S
H2265 C2262 0.929 . S
S2266 N2267 1.613 . S
S2266 N2268 1.610 . S
N2267 S2266 1.613 . S
N2267 C2270 1.350 . S
N2268 S2266 1.610 . S
N2268 C2269 1.351 . S
C2269 C2263 1.428 . S
C2269 N2268 1.351 . S
C2269 C2270 1.434 . S
C2270 C2261 1.429 . S
C2270 N2267 1.350 . S
C2270 C2269 1.434 . S
C2271 C2272 1.369 . S
C2271 C2273 1.419 . S
C2271 H2275 0.930 . S
C2272 C2271 1.369 . S
C2272 C2281 1.429 . S
C2273 C2271 1.419 . S
C2273 C2274 1.363 . S
C2273 H2276 0.929 . S
C2274 C2273 1.363 . S
C2274 C2280 1.428 . S
H2275 C2271 0.930 . S
H2276 C2273 0.929 . S
S2277 N2278 1.613 . S
S2277 N2279 1.610 . S
N2278 S2277 1.613 . S
N2278 C2281 1.350 . S
N2279 S2277 1.610 . S
N2279 C2280 1.351 . S
C2280 C2274 1.428 . S
C2280 N2279 1.351 . S
C2280 C2281 1.434 . S
C2281 C2272 1.429 . S
C2281 N2278 1.350 . S
C2281 C2280 1.434 . S
C2282 C2283 1.369 . S
C2282 C2284 1.419 . S
C2282 H2286 0.930 . S
C2283 C2282 1.369 . S
C2283 C2292 1.429 . S
C2284 C2282 1.419 . S
C2284 C2285 1.363 . S
C2284 H2287 0.929 . S
C2285 C2284 1.363 . S
C2285 C2291 1.428 . S
H2286 C2282 0.930 . S
H2287 C2284 0.929 . S
S2288 N2289 1.613 . S
S2288 N2290 1.610 . S
N2289 S2288 1.613 . S
N2289 C2292 1.350 . S
N2290 S2288 1.610 . S
N2290 C2291 1.351 . S
C2291 C2285 1.428 . S
C2291 N2290 1.351 . S
C2291 C2292 1.434 . S
C2292 C2283 1.429 . S
C2292 N2289 1.350 . S
C2292 C2291 1.434 . S
C2293 C2294 1.369 . S
C2293 C2295 1.419 . S
C2293 H2297 0.930 . S
C2294 C2293 1.369 . S
C2294 C2303 1.429 . S
C2295 C2293 1.419 . S
C2295 C2296 1.363 . S
C2295 H2298 0.929 . S
C2296 C2295 1.363 . S
C2296 C2302 1.428 . S
H2297 C2293 0.930 . S
H2298 C2295 0.929 . S
S2299 N2300 1.576 1_545 S
S2299 N2301 1.610 . S
N2300 S2299 1.576 1_565 S
N2300 C2303 1.368 . S
N2301 S2299 1.610 . S
N2301 C2302 1.351 1_545 S
C2302 C2296 1.428 . S
C2302 N2301 1.351 1_565 S
C2302 C2303 1.434 . S
C2303 C2294 1.429 . S
C2303 N2300 1.368 . S
C2303 C2302 1.434 . S
C2304 C2305 1.369 . S
C2304 C2306 1.419 . S
C2304 H2308 0.930 . S
C2305 C2304 1.369 . S
C2305 C2314 1.429 . S
C2306 C2304 1.419 . S
C2306 C2307 1.363 . S
C2306 H2309 0.929 . S
C2307 C2306 1.363 . S
C2307 C2313 1.428 . S
H2308 C2304 0.930 . S
H2309 C2306 0.929 . S
S2310 N2311 1.613 . S
S2310 N2312 1.610 . S
N2311 S2310 1.613 . S
N2311 C2314 1.350 . S
N2312 S2310 1.610 . S
N2312 C2313 1.351 . S
C2313 C2307 1.428 . S
C2313 N2312 1.351 . S
C2313 C2314 1.434 . S
C2314 C2305 1.429 . S
C2314 N2311 1.350 . S
C2314 C2313 1.434 . S
C2315 C2316 1.369 . S
C2315 C2317 1.419 . S
C2315 H2319 0.930 . S
C2316 C2315 1.369 . S
C2316 C2325 1.429 . S
C2317 C2315 1.419 . S
C2317 C2318 1.363 . S
C2317 H2320 0.929 . S
C2318 C2317 1.363 . S
C2318 C2324 1.428 . S
H2319 C2315 0.930 . S
H2320 C2317 0.929 . S
S2321 N2322 1.613 . S
S2321 N2323 1.610 . S
N2322 S2321 1.613 . S
N2322 C2325 1.350 . S
N2323 S2321 1.610 . S
N2323 C2324 1.351 . S
C2324 C2318 1.428 . S
C2324 N2323 1.351 . S
C2324 C2325 1.434 . S
C2325 C2316 1.429 . S
C2325 N2322 1.350 . S
C2325 C2324 1.434 . S
C2326 C2327 1.369 . S
C2326 C2328 1.419 . S
C2326 H2330 0.930 . S
C2327 C2326 1.369 . S
C2327 C2336 1.429 . S
C2328 C2326 1.419 . S
C2328 C2329 1.363 . S
C2328 H2331 0.929 . S
C2329 C2328 1.363 . S
C2329 C2335 1.428 . S
H2330 C2326 0.930 . S
H2331 C2328 0.929 . S
S2332 N2333 1.613 . S
S2332 N2334 1.610 . S
N2333 S2332 1.613 . S
N2333 C2336 1.350 . S
N2334 S2332 1.610 . S
N2334 C2335 1.351 . S
C2335 C2329 1.428 . S
C2335 N2334 1.351 . S
C2335 C2336 1.434 . S
C2336 C2327 1.429 . S
C2336 N2333 1.350 . S
C2336 C2335 1.434 . S
C2337 C2338 1.369 . S
C2337 C2339 1.419 . S
C2337 H2341 0.930 . S
C2338 C2337 1.369 . S
C2338 C2347 1.429 . S
C2339 C2337 1.419 . S
C2339 C2340 1.363 . S
C2339 H2342 0.929 . S
C2340 C2339 1.363 . S
C2340 C2346 1.428 . S
H2341 C2337 0.930 . S
H2342 C2339 0.929 . S
S2343 N2344 1.613 . S
S2343 N2345 1.610 . S
N2344 S2343 1.613 . S
N2344 C2347 1.350 . S
N2345 S2343 1.610 . S
N2345 C2346 1.351 . S
C2346 C2340 1.428 . S
C2346 N2345 1.351 . S
C2346 C2347 1.434 . S
C2347 C2338 1.429 . S
C2347 N2344 1.350 . S
C2347 C2346 1.434 . S
C2348 C2349 1.369 . S
C2348 C2350 1.419 . S
C2348 H2352 0.930 . S
C2349 C2348 1.369 . S
C2349 C2358 1.429 . S
C2350 C2348 1.419 . S
C2350 C2351 1.363 . S
C2350 H2353 0.929 . S
C2351 C2350 1.363 . S
C2351 C2357 1.428 . S
H2352 C2348 0.930 . S
H2353 C2350 0.929 . S
S2354 N2355 1.613 . S
S2354 N2356 1.610 . S
N2355 S2354 1.613 . S
N2355 C2358 1.350 . S
N2356 S2354 1.610 . S
N2356 C2357 1.351 . S
C2357 C2351 1.428 . S
C2357 N2356 1.351 . S
C2357 C2358 1.434 . S
C2358 C2349 1.429 . S
C2358 N2355 1.350 . S
C2358 C2357 1.434 . S
C2359 C2360 1.369 . S
C2359 C2361 1.419 . S
C2359 H2363 0.930 . S
C2360 C2359 1.369 . S
C2360 C2369 1.429 . S
C2361 C2359 1.419 . S
C2361 C2362 1.363 . S
C2361 H2364 0.929 . S
C2362 C2361 1.363 . S
C2362 C2368 1.428 . S
H2363 C2359 0.930 . S
H2364 C2361 0.929 . S
S2365 N2366 1.613 . S
S2365 N2367 1.610 . S
N2366 S2365 1.613 . S
N2366 C2369 1.350 . S
N2367 S2365 1.610 . S
N2367 C2368 1.351 . S
C2368 C2362 1.428 . S
C2368 N2367 1.351 . S
C2368 C2369 1.434 . S
C2369 C2360 1.429 . S
C2369 N2366 1.350 . S
C2369 C2368 1.434 . S
C2370 C2371 1.369 . S
C2370 C2372 1.419 . S
C2370 H2374 0.930 . S
C2371 C2370 1.369 . S
C2371 C2380 1.429 . S
C2372 C2370 1.419 . S
C2372 C2373 1.363 . S
C2372 H2375 0.929 . S
C2373 C2372 1.363 . S
C2373 C2379 1.428 . S
H2374 C2370 0.930 . S
H2375 C2372 0.929 . S
S2376 N2377 1.613 . S
S2376 N2378 1.610 . S
N2377 S2376 1.613 . S
N2377 C2380 1.350 . S
N2378 S2376 1.610 . S
N2378 C2379 1.351 . S
C2379 C2373 1.428 . S
C2379 N2378 1.351 . S
C2379 C2380 1.434 . S
C2380 C2371 1.429 . S
C2380 N2377 1.350 . S
C2380 C2379 1.434 . S
C2381 C2382 1.369 . S
C2381 C2383 1.419 . S
C2381 H2385 0.930 . S
C2382 C2381 1.369 . S
C2382 C2391 1.429 . S
C2383 C2381 1.419 . S
C2383 C2384 1.363 . S
C2383 H2386 0.929 . S
C2384 C2383 1.363 . S
C2384 C2390 1.428 . S
H2385 C2381 0.930 . S
H2386 C2383 0.929 . S
S2387 N2388 1.613 . S
S2387 N2389 1.610 . S
N2388 S2387 1.613 . S
N2388 C2391 1.350 . S
N2389 S2387 1.610 . S
N2389 C2390 1.351 . S
C2390 C2384 1.428 . S
C2390 N2389 1.351 . S
C2390 C2391 1.434 . S
C2391 C2382 1.429 . S
C2391 N2388 1.350 . S
C2391 C2390 1.434 . S
C2392 C2393 1.369 . S
C2392 C2394 1.419 . S
C2392 H2396 0.930 . S
C2393 C2392 1.369 . S
C2393 C2402 1.429 . S
C2394 C2392 1.419 . S
C2394 C2395 1.363 . S
C2394 H2397 0.929 . S
C2395 C2394 1.363 . S
C2395 C2401 1.428 . S
H2396 C2392 0.930 . S
H2397 C2394 0.929 . S
S2398 N2399 1.613 . S
S2398 N2400 1.610 . S
N2399 S2398 1.613 . S
N2399 C2402 1.350 . S
N2400 S2398 1.610 . S
N2400 C2401 1.351 . S
C2401 C2395 1.428 . S
C2401 N2400 1.351 . S
C2401 C2402 1.434 . S
C2402 C2393 1.429 . S
C2402 N2399 1.350 . S
C2402 C2401 1.434 . S
C2403 C2404 1.369 . S
C2403 C2405 1.419 . S
C2403 H2407 0.930 . S
C2404 C2403 1.369 . S
C2404 C2413 1.429 . S
C2405 C2403 1.419 . S
C2405 C2406 1.363 . S
C2405 H2408 0.929 . S
C2406 C2405 1.363 . S
C2406 C2412 1.428 . S
H2407 C2403 0.930 . S
H2408 C2405 0.929 . S
S2409 N2410 1.613 . S
S2409 N2411 1.610 . S
N2410 S2409 1.613 . S
N2410 C2413 1.350 . S
N2411 S2409 1.610 . S
N2411 C2412 1.351 . S
C2412 C2406 1.428 . S
C2412 N2411 1.351 . S
C2412 C2413 1.434 . S
C2413 C2404 1.429 . S
C2413 N2410 1.350 . S
C2413 C2412 1.434 . S
C2414 C2415 1.369 . S
C2414 C2416 1.419 . S
C2414 H2418 0.930 . S
C2415 C2414 1.369 . S
C2415 C2424 1.429 . S
C2416 C2414 1.419 . S
C2416 C2417 1.363 . S
C2416 H2419 0.929 . S
C2417 C2416 1.363 . S
C2417 C2423 1.428 . S
H2418 C2414 0.930 . S
H2419 C2416 0.929 . S
S2420 N2421 1.613 . S
S2420 N2422 1.610 . S
N2421 S2420 1.613 . S
N2421 C2424 1.350 . S
N2422 S2420 1.610 . S
N2422 C2423 1.351 . S
C2423 C2417 1.428 . S
C2423 N2422 1.351 . S
C2423 C2424 1.434 . S
C2424 C2415 1.429 . S
C2424 N2421 1.350 . S
C2424 C2423 1.434 . S
C2425 C2426 1.369 . S
C2425 C2427 1.419 . S
C2425 H2429 0.930 . S
C2426 C2425 1.369 . S
C2426 C2435 1.429 . S
C2427 C2425 1.419 . S
C2427 C2428 1.363 . S
C2427 H2430 0.929 . S
C2428 C2427 1.363 . S
C2428 C2434 1.428 . S
H2429 C2425 0.930 . S
H2430 C2427 0.929 . S
S2431 N2432 1.613 . S
S2431 N2433 1.610 . S
N2432 S2431 1.613 . S
N2432 C2435 1.350 . S
N2433 S2431 1.610 . S
N2433 C2434 1.351 . S
C2434 C2428 1.428 . S
C2434 N2433 1.351 . S
C2434 C2435 1.434 . S
C2435 C2426 1.429 . S
C2435 N2432 1.350 . S
C2435 C2434 1.434 . S
C2436 C2437 1.369 . S
C2436 C2438 1.419 . S
C2436 H2440 0.930 . S
C2437 C2436 1.369 . S
C2437 C2446 1.429 . S
C2438 C2436 1.419 . S
C2438 C2439 1.363 . S
C2438 H2441 0.929 . S
C2439 C2438 1.363 . S
C2439 C2445 1.428 . S
H2440 C2436 0.930 . S
H2441 C2438 0.929 . S
S2442 N2443 1.613 . S
S2442 N2444 1.610 . S
N2443 S2442 1.613 . S
N2443 C2446 1.350 . S
N2444 S2442 1.610 . S
N2444 C2445 1.351 . S
C2445 C2439 1.428 . S
C2445 N2444 1.351 . S
C2445 C2446 1.434 . S
C2446 C2437 1.429 . S
C2446 N2443 1.350 . S
C2446 C2445 1.434 . S
C2447 C2448 1.369 . S
C2447 C2449 1.419 . S
C2447 H2451 0.930 . S
C2448 C2447 1.369 . S
C2448 C2457 1.429 . S
C2449 C2447 1.419 . S
C2449 C2450 1.363 . S
C2449 H2452 0.929 . S
C2450 C2449 1.363 . S
C2450 C2456 1.428 . S
H2451 C2447 0.930 . S
H2452 C2449 0.929 . S
S2453 N2454 1.613 . S
S2453 N2455 1.610 . S
N2454 S2453 1.613 . S
N2454 C2457 1.350 . S
N2455 S2453 1.610 . S
N2455 C2456 1.351 . S
C2456 C2450 1.428 . S
C2456 N2455 1.351 . S
C2456 C2457 1.434 . S
C2457 C2448 1.429 . S
C2457 N2454 1.350 . S
C2457 C2456 1.434 . S
C2458 C2459 1.369 . S
C2458 C2460 1.419 . S
C2458 H2462 0.930 . S
C2459 C2458 1.369 . S
C2459 C2468 1.429 . S
C2460 C2458 1.419 . S
C2460 C2461 1.363 . S
C2460 H2463 0.929 . S
C2461 C2460 1.363 . S
C2461 C2467 1.428 . S
H2462 C2458 0.930 . S
H2463 C2460 0.929 . S
S2464 N2465 1.613 . S
S2464 N2466 1.610 . S
N2465 S2464 1.613 . S
N2465 C2468 1.350 . S
N2466 S2464 1.610 . S
N2466 C2467 1.351 . S
C2467 C2461 1.428 . S
C2467 N2466 1.351 . S
C2467 C2468 1.434 . S
C2468 C2459 1.429 . S
C2468 N2465 1.350 . S
C2468 C2467 1.434 . S
C2469 C2470 1.369 . S
C2469 C2471 1.419 . S
C2469 H2473 0.930 . S
C2470 C2469 1.369 . S
C2470 C2479 1.429 . S
C2471 C2469 1.419 . S
C2471 C2472 1.363 . S
C2471 H2474 0.929 . S
C2472 C2471 1.363 . S
C2472 C2478 1.428 . S
H2473 C2469 0.930 . S
H2474 C2471 0.929 . S
S2475 N2476 1.613 . S
S2475 N2477 1.610 . S
N2476 S2475 1.613 . S
N2476 C2479 1.350 . S
N2477 S2475 1.610 . S
N2477 C2478 1.351 . S
C2478 C2472 1.428 . S
C2478 N2477 1.351 . S
C2478 C2479 1.434 . S
C2479 C2470 1.429 . S
C2479 N2476 1.350 . S
C2479 C2478 1.434 . S
C2480 C2481 1.369 . S
C2480 C2482 1.419 . S
C2480 H2484 0.930 . S
C2481 C2480 1.369 . S
C2481 C2490 1.429 . S
C2482 C2480 1.419 . S
C2482 C2483 1.363 . S
C2482 H2485 0.929 . S
C2483 C2482 1.363 . S
C2483 C2489 1.428 . S
H2484 C2480 0.930 . S
H2485 C2482 0.929 . S
S2486 N2487 1.613 . S
S2486 N2488 1.610 . S
N2487 S2486 1.613 . S
N2487 C2490 1.350 . S
N2488 S2486 1.610 . S
N2488 C2489 1.351 . S
C2489 C2483 1.428 . S
C2489 N2488 1.351 . S
C2489 C2490 1.434 . S
C2490 C2481 1.429 . S
C2490 N2487 1.350 . S
C2490 C2489 1.434 . S
C2491 C2492 1.369 . S
C2491 C2493 1.419 . S
C2491 H2495 0.930 . S
C2492 C2491 1.369 . S
C2492 C2501 1.429 . S
C2493 C2491 1.419 . S
C2493 C2494 1.363 . S
C2493 H2496 0.929 . S
C2494 C2493 1.363 . S
C2494 C2500 1.428 . S
H2495 C2491 0.930 . S
H2496 C2493 0.929 . S
S2497 N2498 1.613 . S
S2497 N2499 1.610 . S
N2498 S2497 1.613 . S
N2498 C2501 1.350 . S
N2499 S2497 1.610 . S
N2499 C2500 1.351 . S
C2500 C2494 1.428 . S
C2500 N2499 1.351 . S
C2500 C2501 1.434 . S
C2501 C2492 1.429 . S
C2501 N2498 1.350 . S
C2501 C2500 1.434 . S
C2502 C2503 1.369 . S
C2502 C2504 1.419 . S
C2502 H2506 0.930 . S
C2503 C2502 1.369 . S
C2503 C2512 1.429 . S
C2504 C2502 1.419 . S
C2504 C2505 1.363 . S
C2504 H2507 0.929 . S
C2505 C2504 1.363 . S
C2505 C2511 1.428 . S
H2506 C2502 0.930 . S
H2507 C2504 0.929 . S
S2508 N2509 1.613 . S
S2508 N2510 1.610 . S
N2509 S2508 1.613 . S
N2509 C2512 1.350 . S
N2510 S2508 1.610 . S
N2510 C2511 1.351 . S
C2511 C2505 1.428 . S
C2511 N2510 1.351 . S
C2511 C2512 1.434 . S
C2512 C2503 1.429 . S
C2512 N2509 1.350 . S
C2512 C2511 1.434 . S
C2513 C2514 1.369 . S
C2513 C2515 1.419 . S
C2513 H2517 0.930 . S
C2514 C2513 1.369 . S
C2514 C2523 1.429 . S
C2515 C2513 1.419 . S
C2515 C2516 1.363 . S
C2515 H2518 0.929 . S
C2516 C2515 1.363 . S
C2516 C2522 1.428 . S
H2517 C2513 0.930 . S
H2518 C2515 0.929 . S
S2519 N2520 1.613 . S
S2519 N2521 1.610 . S
N2520 S2519 1.613 . S
N2520 C2523 1.350 . S
N2521 S2519 1.610 . S
N2521 C2522 1.351 . S
C2522 C2516 1.428 . S
C2522 N2521 1.351 . S
C2522 C2523 1.434 . S
C2523 C2514 1.429 . S
C2523 N2520 1.350 . S
C2523 C2522 1.434 . S
C2524 C2525 1.369 . S
C2524 C2526 1.419 . S
C2524 H2528 0.930 . S
C2525 C2524 1.369 . S
C2525 C2534 1.429 . S
C2526 C2524 1.419 . S
C2526 C2527 1.363 . S
C2526 H2529 0.929 . S
C2527 C2526 1.363 . S
C2527 C2533 1.428 . S
H2528 C2524 0.930 . S
H2529 C2526 0.929 . S
S2530 N2531 1.613 . S
S2530 N2532 1.610 . S
N2531 S2530 1.613 . S
N2531 C2534 1.350 . S
N2532 S2530 1.610 . S
N2532 C2533 1.351 . S
C2533 C2527 1.428 . S
C2533 N2532 1.351 . S
C2533 C2534 1.434 . S
C2534 C2525 1.429 . S
C2534 N2531 1.350 . S
C2534 C2533 1.434 . S
C2535 C2536 1.369 . S
C2535 C2537 1.419 . S
C2535 H2539 0.930 . S
C2536 C2535 1.369 . S
C2536 C2545 1.429 . S
C2537 C2535 1.419 . S
C2537 C2538 1.363 . S
C2537 H2540 0.929 . S
C2538 C2537 1.363 . S
C2538 C2544 1.428 . S
H2539 C2535 0.930 . S
H2540 C2537 0.929 . S
S2541 N2542 1.613 . S
S2541 N2543 1.610 . S
N2542 S2541 1.613 . S
N2542 C2545 1.350 . S
N2543 S2541 1.610 . S
N2543 C2544 1.351 . S
C2544 C2538 1.428 . S
C2544 N2543 1.351 . S
C2544 C2545 1.434 . S
C2545 C2536 1.429 . S
C2545 N2542 1.350 . S
C2545 C2544 1.434 . S
C2546 C2547 1.369 . S
C2546 C2548 1.419 . S
C2546 H2550 0.930 . S
C2547 C2546 1.369 . S
C2547 C2556 1.429 . S
C2548 C2546 1.419 . S
C2548 C2549 1.363 . S
C2548 H2551 0.929 . S
C2549 C2548 1.363 . S
C2549 C2555 1.428 . S
H2550 C2546 0.930 . S
H2551 C2548 0.929 . S
S2552 N2553 1.613 . S
S2552 N2554 1.610 . S
N2553 S2552 1.613 . S
N2553 C2556 1.350 . S
N2554 S2552 1.610 . S
N2554 C2555 1.351 . S
C2555 C2549 1.428 . S
C2555 N2554 1.351 . S
C2555 C2556 1.434 . S
C2556 C2547 1.429 . S
C2556 N2553 1.350 . S
C2556 C2555 1.434 . S
C2557 C2558 1.369 . S
C2557 C2559 1.419 . S
C2557 H2561 0.930 . S
C2558 C2557 1.369 . S
C2558 C2567 1.429 . S
C2559 C2557 1.419 . S
C2559 C2560 1.363 . S
C2559 H2562 0.929 . S
C2560 C2559 1.363 . S
C2560 C2566 1.428 . S
H2561 C2557 0.930 . S
H2562 C2559 0.929 . S
S2563 N2564 1.613 . S
S2563 N2565 1.610 . S
N2564 S2563 1.613 . S
N2564 C2567 1.350 . S
N2565 S2563 1.610 . S
N2565 C2566 1.351 . S
C2566 C2560 1.428 . S
C2566 N2565 1.351 . S
C2566 C2567 1.434 . S
C2567 C2558 1.429 . S
C2567 N2564 1.350 . S
C2567 C2566 1.434 . S
C2568 C2569 1.369 . S
C2568 C2570 1.419 . S
C2568 H2572 0.930 . S
C2569 C2568 1.369 . S
C2569 C2578 1.429 . S
C2570 C2568 1.419 . S
C2570 C2571 1.363 . S
C2570 H2573 0.929 . S
C2571 C2570 1.363 . S
C2571 C2577 1.428 . S
H2572 C2568 0.930 . S
H2573 C2570 0.929 . S
S2574 N2575 1.613 . S
S2574 N2576 1.610 . S
N2575 S2574 1.613 . S
N2575 C2578 1.350 . S
N2576 S2574 1.610 . S
N2576 C2577 1.351 . S
C2577 C2571 1.428 . S
C2577 N2576 1.351 . S
C2577 C2578 1.434 . S
C2578 C2569 1.429 . S
C2578 N2575 1.350 . S
C2578 C2577 1.434 . S
C2579 C2580 1.369 . S
C2579 C2581 1.419 . S
C2579 H2583 0.930 . S
C2580 C2579 1.369 . S
C2580 C2589 1.429 . S
C2581 C2579 1.419 . S
C2581 C2582 1.363 . S
C2581 H2584 0.929 . S
C2582 C2581 1.363 . S
C2582 C2588 1.428 . S
H2583 C2579 0.930 . S
H2584 C2581 0.929 . S
S2585 N2586 1.613 . S
S2585 N2587 1.610 . S
N2586 S2585 1.613 . S
N2586 C2589 1.350 . S
N2587 S2585 1.610 . S
N2587 C2588 1.351 . S
C2588 C2582 1.428 . S
C2588 N2587 1.351 . S
C2588 C2589 1.434 . S
C2589 C2580 1.429 . S
C2589 N2586 1.350 . S
C2589 C2588 1.434 . S
C2590 C2591 1.369 . S
C2590 C2592 1.419 . S
C2590 H2594 0.930 . S
C2591 C2590 1.369 . S
C2591 C2600 1.429 . S
C2592 C2590 1.419 . S
C2592 C2593 1.363 . S
C2592 H2595 0.929 . S
C2593 C2592 1.363 . S
C2593 C2599 1.428 . S
H2594 C2590 0.930 . S
H2595 C2592 0.929 . S
S2596 N2597 1.613 . S
S2596 N2598 1.610 . S
N2597 S2596 1.613 . S
N2597 C2600 1.350 . S
N2598 S2596 1.610 . S
N2598 C2599 1.351 . S
C2599 C2593 1.428 . S
C2599 N2598 1.351 . S
C2599 C2600 1.434 . S
C2600 C2591 1.429 . S
C2600 N2597 1.350 . S
C2600 C2599 1.434 . S
C2601 C2602 1.369 . S
C2601 C2603 1.419 . S
C2601 H2605 0.930 . S
C2602 C2601 1.369 . S
C2602 C2611 1.429 . S
C2603 C2601 1.419 . S
C2603 C2604 1.363 . S
C2603 H2606 0.929 . S
C2604 C2603 1.363 . S
C2604 C2610 1.428 . S
H2605 C2601 0.930 . S
H2606 C2603 0.929 . S
S2607 N2608 1.613 . S
S2607 N2609 1.610 . S
N2608 S2607 1.613 . S
N2608 C2611 1.350 . S
N2609 S2607 1.610 . S
N2609 C2610 1.351 . S
C2610 C2604 1.428 . S
C2610 N2609 1.351 . S
C2610 C2611 1.434 . S
C2611 C2602 1.429 . S
C2611 N2608 1.350 . S
C2611 C2610 1.434 . S
C2612 C2613 1.369 . S
C2612 C2614 1.419 . S
C2612 H2616 0.930 . S
C2613 C2612 1.369 . S
C2613 C2622 1.429 . S
C2614 C2612 1.419 . S
C2614 C2615 1.363 . S
C2614 H2617 0.929 . S
C2615 C2614 1.363 . S
C2615 C2621 1.428 . S
H2616 C2612 0.930 . S
H2617 C2614 0.929 . S
S2618 N2619 1.613 . S
S2618 N2620 1.610 . S
N2619 S2618 1.613 . S
N2619 C2622 1.350 . S
N2620 S2618 1.610 . S
N2620 C2621 1.351 . S
C2621 C2615 1.428 . S
C2621 N2620 1.351 . S
C2621 C2622 1.434 . S
C2622 C2613 1.429 . S
C2622 N2619 1.350 . S
C2622 C2621 1.434 . S
C2623 C2624 1.369 . S
C2623 C2625 1.419 . S
C2623 H2627 0.930 . S
C2624 C2623 1.369 . S
C2624 C2633 1.429 . S
C2625 C2623 1.419 . S
C2625 C2626 1.363 . S
C2625 H2628 0.929 . S
C2626 C2625 1.363 . S
C2626 C2632 1.428 . S
H2627 C2623 0.930 . S
H2628 C2625 0.929 . S
S2629 N2630 1.613 . S
S2629 N2631 1.610 . S
N2630 S2629 1.613 . S
N2630 C2633 1.350 . S
N2631 S2629 1.610 . S
N2631 C2632 1.351 . S
C2632 C2626 1.428 . S
C2632 N2631 1.351 . S
C2632 C2633 1.434 . S
C2633 C2624 1.429 . S
C2633 N2630 1.350 . S
C2633 C2632 1.434 . S
C2634 C2635 1.369 . S
C2634 C2636 1.419 . S
C2634 H2638 0.930 . S
C2635 C2634 1.369 . S
C2635 C2644 1.429 . S
C2636 C2634 1.419 . S
C2636 C2637 1.363 . S
C2636 H2639 0.929 . S
C2637 C2636 1.363 . S
C2637 C2643 1.428 . S
H2638 C2634 0.930 . S
H2639 C2636 0.929 . S
S2640 N2641 1.613 . S
S2640 N2642 1.610 . S
N2641 S2640 1.613 . S
N2641 C2644 1.350 . S
N2642 S2640 1.610 . S
N2642 C2643 1.351 . S
C2643 C2637 1.428 . S
C2643 N2642 1.351 . S
C2643 C2644 1.434 . S
C2644 C2635 1.429 . S
C2644 N2641 1.350 . S
C2644 C2643 1.434 . S
C2645 C2646 1.369 . S
C2645 C2647 1.419 . S
C2645 H2649 0.930 . S
C2646 C2645 1.369 . S
C2646 C2655 1.429 . S
C2647 C2645 1.419 . S
C2647 C2648 1.363 . S
C2647 H2650 0.929 . S
C2648 C2647 1.363 . S
C2648 C2654 1.428 . S
H2649 C2645 0.930 . S
H2650 C2647 0.929 . S
S2651 N2652 1.613 . S
S2651 N2653 1.610 . S
N2652 S2651 1.613 . S
N2652 C2655 1.350 . S
N2653 S2651 1.610 . S
N2653 C2654 1.351 . S
C2654 C2648 1.428 . S
C2654 N2653 1.351 . S
C2654 C2655 1.434 . S
C2655 C2646 1.429 . S
C2655 N2652 1.350 . S
C2655 C2654 1.434 . S
C2656 C2657 1.369 . S
C2656 C2658 1.419 . S
C2656 H2660 0.930 . S
C2657 C2656 1.369 . S
C2657 C2666 1.429 . S
C2658 C2656 1.419 . S
C2658 C2659 1.363 . S
C2658 H2661 0.929 . S
C2659 C2658 1.363 . S
C2659 C2665 1.428 . S
H2660 C2656 0.930 . S
H2661 C2658 0.929 . S
S2662 N2663 1.613 . S
S2662 N2664 1.610 . S
N2663 S2662 1.613 . S
N2663 C2666 1.350 . S
N2664 S2662 1.610 . S
N2664 C2665 1.351 . S
C2665 C2659 1.428 . S
C2665 N2664 1.351 . S
C2665 C2666 1.434 . S
C2666 C2657 1.429 . S
C2666 N2663 1.350 . S
C2666 C2665 1.434 . S
C2667 C2668 1.369 . S
C2667 C2669 1.419 . S
C2667 H2671 0.930 . S
C2668 C2667 1.369 . S
C2668 C2677 1.429 . S
C2669 C2667 1.419 . S
C2669 C2670 1.363 . S
C2669 H2672 0.929 . S
C2670 C2669 1.363 . S
C2670 C2676 1.428 . S
H2671 C2667 0.930 . S
H2672 C2669 0.929 . S
S2673 N2674 1.613 . S
S2673 N2675 1.610 . S
N2674 S2673 1.613 . S
N2674 C2677 1.350 . S
N2675 S2673 1.610 . S
N2675 C2676 1.351 . S
C2676 C2670 1.428 . S
C2676 N2675 1.351 . S
C2676 C2677 1.434 . S
C2677 C2668 1.429 . S
C2677 N2674 1.350 . S
C2677 C2676 1.434 . S
C2678 C2679 1.369 . S
C2678 C2680 1.419 . S
C2678 H2682 0.930 . S
C2679 C2678 1.369 . S
C2679 C2688 1.429 . S
C2680 C2678 1.419 . S
C2680 C2681 1.363 . S
C2680 H2683 0.929 . S
C2681 C2680 1.363 . S
C2681 C2687 1.428 . S
H2682 C2678 0.930 . S
H2683 C2680 0.929 . S
S2684 N2685 1.613 . S
S2684 N2686 1.610 . S
N2685 S2684 1.613 . S
N2685 C2688 1.350 . S
N2686 S2684 1.610 . S
N2686 C2687 1.351 . S
C2687 C2681 1.428 . S
C2687 N2686 1.351 . S
C2687 C2688 1.434 . S
C2688 C2679 1.429 . S
C2688 N2685 1.350 . S
C2688 C2687 1.434 . S
C2689 C2690 1.369 . S
C2689 C2691 1.419 . S
C2689 H2693 0.930 . S
C2690 C2689 1.369 . S
C2690 C2699 1.429 . S
C2691 C2689 1.419 . S
C2691 C2692 1.363 . S
C2691 H2694 0.929 . S
C2692 C2691 1.363 . S
C2692 C2698 1.428 . S
H2693 C2689 0.930 . S
H2694 C2691 0.929 . S
S2695 N2696 1.613 . S
S2695 N2697 1.610 . S
N2696 S2695 1.613 . S
N2696 C2699 1.350 . S
N2697 S2695 1.610 . S
N2697 C2698 1.351 . S
C2698 C2692 1.428 . S
C2698 N2697 1.351 . S
C2698 C2699 1.434 . S
C2699 C2690 1.429 . S
C2699 N2696 1.350 . S
C2699 C2698 1.434 . S
C2700 C2701 1.369 . S
C2700 C2702 1.419 . S
C2700 H2704 0.930 . S
C2701 C2700 1.369 . S
C2701 C2710 1.429 . S
C2702 C2700 1.419 . S
C2702 C2703 1.363 . S
C2702 H2705 0.929 . S
C2703 C2702 1.363 . S
C2703 C2709 1.428 . S
H2704 C2700 0.930 . S
H2705 C2702 0.929 . S
S2706 N2707 1.613 . S
S2706 N2708 1.610 . S
N2707 S2706 1.613 . S
N2707 C2710 1.350 . S
N2708 S2706 1.610 . S
N2708 C2709 1.351 . S
C2709 C2703 1.428 . S
C2709 N2708 1.351 . S
C2709 C2710 1.434 . S
C2710 C2701 1.429 . S
C2710 N2707 1.350 . S
C2710 C2709 1.434 . S
C2711 C2712 1.369 . S
C2711 C2713 1.419 . S
C2711 H2715 0.930 . S
C2712 C2711 1.369 . S
C2712 C2721 1.429 . S
C2713 C2711 1.419 . S
C2713 C2714 1.363 . S
C2713 H2716 0.929 . S
C2714 C2713 1.363 . S
C2714 C2720 1.428 . S
H2715 C2711 0.930 . S
H2716 C2713 0.929 . S
S2717 N2718 1.613 . S
S2717 N2719 1.610 . S
N2718 S2717 1.613 . S
N2718 C2721 1.350 . S
N2719 S2717 1.610 . S
N2719 C2720 1.351 . S
C2720 C2714 1.428 . S
C2720 N2719 1.351 . S
C2720 C2721 1.434 . S
C2721 C2712 1.429 . S
C2721 N2718 1.350 . S
C2721 C2720 1.434 . S
C2722 C2723 1.369 . S
C2722 C2724 1.419 . S
C2722 H2726 0.930 . S
C2723 C2722 1.369 . S
C2723 C2732 1.429 . S
C2724 C2722 1.419 . S
C2724 C2725 1.363 . S
C2724 H2727 0.929 . S
C2725 C2724 1.363 . S
C2725 C2731 1.428 . S
H2726 C2722 0.930 . S
H2727 C2724 0.929 . S
S2728 N2729 1.613 . S
S2728 N2730 1.610 . S
N2729 S2728 1.613 . S
N2729 C2732 1.350 . S
N2730 S2728 1.610 . S
N2730 C2731 1.351 . S
C2731 C2725 1.428 . S
C2731 N2730 1.351 . S
C2731 C2732 1.434 . S
C2732 C2723 1.429 . S
C2732 N2729 1.350 . S
C2732 C2731 1.434 . S
C2733 C2734 1.369 . S
C2733 C2735 1.419 . S
C2733 H2737 0.930 . S
C2734 C2733 1.369 . S
C2734 C2743 1.429 . S
C2735 C2733 1.419 . S
C2735 C2736 1.363 . S
C2735 H2738 0.929 . S
C2736 C2735 1.363 . S
C2736 C2742 1.428 . S
H2737 C2733 0.930 . S
H2738 C2735 0.929 . S
S2739 N2740 1.613 . S
S2739 N2741 1.610 . S
N2740 S2739 1.613 . S
N2740 C2743 1.350 . S
N2741 S2739 1.610 . S
N2741 C2742 1.351 . S
C2742 C2736 1.428 . S
C2742 N2741 1.351 . S
C2742 C2743 1.434 . S
C2743 C2734 1.429 . S
C2743 N2740 1.350 . S
C2743 C2742 1.434 . S
C2744 C2745 1.369 . S
C2744 C2746 1.419 . S
C2744 H2748 0.930 . S
C2745 C2744 1.369 . S
C2745 C2754 1.429 . S
C2746 C2744 1.419 . S
C2746 C2747 1.363 . S
C2746 H2749 0.929 . S
C2747 C2746 1.363 . S
C2747 C2753 1.428 . S
H2748 C2744 0.930 . S
H2749 C2746 0.929 . S
S2750 N2751 1.613 . S
S2750 N2752 1.610 . S
N2751 S2750 1.613 . S
N2751 C2754 1.350 . S
N2752 S2750 1.610 . S
N2752 C2753 1.351 . S
C2753 C2747 1.428 . S
C2753 N2752 1.351 . S
C2753 C2754 1.434 . S
C2754 C2745 1.429 . S
C2754 N2751 1.350 . S
C2754 C2753 1.434 . S
C2755 C2756 1.369 . S
C2755 C2757 1.419 . S
C2755 H2759 0.930 . S
C2756 C2755 1.369 . S
C2756 C2765 1.429 . S
C2757 C2755 1.419 . S
C2757 C2758 1.363 . S
C2757 H2760 0.929 . S
C2758 C2757 1.363 . S
C2758 C2764 1.428 . S
H2759 C2755 0.930 . S
H2760 C2757 0.929 . S
S2761 N2762 1.613 . S
S2761 N2763 1.610 . S
N2762 S2761 1.613 . S
N2762 C2765 1.350 . S
N2763 S2761 1.610 . S
N2763 C2764 1.351 . S
C2764 C2758 1.428 . S
C2764 N2763 1.351 . S
C2764 C2765 1.434 . S
C2765 C2756 1.429 . S
C2765 N2762 1.350 . S
C2765 C2764 1.434 . S
C2766 C2767 1.369 . S
C2766 C2768 1.419 . S
C2766 H2770 0.930 . S
C2767 C2766 1.369 . S
C2767 C2776 1.429 . S
C2768 C2766 1.419 . S
C2768 C2769 1.363 . S
C2768 H2771 0.929 . S
C2769 C2768 1.363 . S
C2769 C2775 1.428 . S
H2770 C2766 0.930 . S
H2771 C2768 0.929 . S
S2772 N2773 1.613 . S
S2772 N2774 1.610 . S
N2773 S2772 1.613 . S
N2773 C2776 1.350 . S
N2774 S2772 1.610 . S
N2774 C2775 1.351 . S
C2775 C2769 1.428 . S
C2775 N2774 1.351 . S
C2775 C2776 1.434 . S
C2776 C2767 1.429 . S
C2776 N2773 1.350 . S
C2776 C2775 1.434 . S
C2777 C2778 1.369 . S
C2777 C2779 1.419 . S
C2777 H2781 0.930 . S
C2778 C2777 1.369 . S
C2778 C2787 1.429 . S
C2779 C2777 1.419 . S
C2779 C2780 1.363 . S
C2779 H2782 0.929 . S
C2780 C2779 1.363 . S
C2780 C2786 1.428 . S
H2781 C2777 0.930 . S
H2782 C2779 0.929 . S
S2783 N2784 1.613 . S
S2783 N2785 1.610 . S
N2784 S2783 1.613 . S
N2784 C2787 1.350 . S
N2785 S2783 1.610 . S
N2785 C2786 1.351 . S
C2786 C2780 1.428 . S
C2786 N2785 1.351 . S
C2786 C2787 1.434 . S
C2787 C2778 1.429 . S
C2787 N2784 1.350 . S
C2787 C2786 1.434 . S
C2788 C2789 1.369 . S
C2788 C2790 1.419 . S
C2788 H2792 0.930 . S
C2789 C2788 1.369 . S
C2789 C2798 1.429 . S
C2790 C2788 1.419 . S
C2790 C2791 1.363 . S
C2790 H2793 0.929 . S
C2791 C2790 1.363 . S
C2791 C2797 1.428 . S
H2792 C2788 0.930 . S
H2793 C2790 0.929 . S
S2794 N2795 1.613 . S
S2794 N2796 1.610 . S
N2795 S2794 1.613 . S
N2795 C2798 1.350 . S
N2796 S2794 1.610 . S
N2796 C2797 1.351 . S
C2797 C2791 1.428 . S
C2797 N2796 1.351 . S
C2797 C2798 1.434 . S
C2798 C2789 1.429 . S
C2798 N2795 1.350 . S
C2798 C2797 1.434 . S
C2799 C2800 1.369 . S
C2799 C2801 1.419 . S
C2799 H2803 0.930 . S
C2800 C2799 1.369 . S
C2800 C2809 1.429 . S
C2801 C2799 1.419 . S
C2801 C2802 1.363 . S
C2801 H2804 0.929 . S
C2802 C2801 1.363 . S
C2802 C2808 1.428 . S
H2803 C2799 0.930 . S
H2804 C2801 0.929 . S
S2805 N2806 1.613 . S
S2805 N2807 1.610 . S
N2806 S2805 1.613 . S
N2806 C2809 1.350 . S
N2807 S2805 1.610 . S
N2807 C2808 1.351 . S
C2808 C2802 1.428 . S
C2808 N2807 1.351 . S
C2808 C2809 1.434 . S
C2809 C2800 1.429 . S
C2809 N2806 1.350 . S
C2809 C2808 1.434 . S
C2810 C2811 1.369 . S
C2810 C2812 1.419 . S
C2810 H2814 0.930 . S
C2811 C2810 1.369 . S
C2811 C2820 1.429 . S
C2812 C2810 1.419 . S
C2812 C2813 1.363 . S
C2812 H2815 0.929 . S
C2813 C2812 1.363 . S
C2813 C2819 1.428 . S
H2814 C2810 0.930 . S
H2815 C2812 0.929 . S
S2816 N2817 1.613 . S
S2816 N2818 1.610 . S
N2817 S2816 1.613 . S
N2817 C2820 1.350 . S
N2818 S2816 1.610 . S
N2818 C2819 1.351 . S
C2819 C2813 1.428 . S
C2819 N2818 1.351 . S
C2819 C2820 1.434 . S
C2820 C2811 1.429 . S
C2820 N2817 1.350 . S
C2820 C2819 1.434 . S
C2821 C2822 1.369 . S
C2821 C2823 1.419 . S
C2821 H2825 0.930 . S
C2822 C2821 1.369 . S
C2822 C2831 1.429 . S
C2823 C2821 1.419 . S
C2823 C2824 1.363 . S
C2823 H2826 0.929 . S
C2824 C2823 1.363 . S
C2824 C2830 1.428 . S
H2825 C2821 0.930 . S
H2826 C2823 0.929 . S
S2827 N2828 1.613 1_545 S
S2827 N2829 1.610 . S
N2828 S2827 1.613 1_565 S
N2828 C2831 1.350 . S
N2829 S2827 1.610 . S
N2829 C2830 1.351 1_545 S
C2830 C2824 1.428 . S
C2830 N2829 1.351 1_565 S
C2830 C2831 1.434 . S
C2831 C2822 1.429 . S
C2831 N2828 1.350 . S
C2831 C2830 1.434 . S
C2832 C2833 1.369 . S
C2832 C2834 1.419 . S
C2832 H2836 0.930 . S
C2833 C2832 1.369 . S
C2833 C2842 1.429 . S
C2834 C2832 1.419 . S
C2834 C2835 1.363 . S
C2834 H2837 0.929 . S
C2835 C2834 1.363 . S
C2835 C2841 1.428 . S
H2836 C2832 0.930 . S
H2837 C2834 0.929 . S
S2838 N2839 1.613 . S
S2838 N2840 1.610 . S
N2839 S2838 1.613 . S
N2839 C2842 1.350 . S
N2840 S2838 1.610 . S
N2840 C2841 1.351 . S
C2841 C2835 1.428 . S
C2841 N2840 1.351 . S
C2841 C2842 1.434 . S
C2842 C2833 1.429 . S
C2842 N2839 1.350 . S
C2842 C2841 1.434 . S
C2843 C2844 1.369 . S
C2843 C2845 1.419 . S
C2843 H2847 0.930 . S
C2844 C2843 1.369 . S
C2844 C2853 1.429 . S
C2845 C2843 1.419 . S
C2845 C2846 1.363 . S
C2845 H2848 0.929 . S
C2846 C2845 1.363 . S
C2846 C2852 1.428 . S
H2847 C2843 0.930 . S
H2848 C2845 0.929 . S
S2849 N2850 1.613 . S
S2849 N2851 1.610 . S
N2850 S2849 1.613 . S
N2850 C2853 1.350 . S
N2851 S2849 1.610 . S
N2851 C2852 1.351 . S
C2852 C2846 1.428 . S
C2852 N2851 1.351 . S
C2852 C2853 1.434 . S
C2853 C2844 1.429 . S
C2853 N2850 1.350 . S
C2853 C2852 1.434 . S
C2854 C2855 1.369 . S
C2854 C2856 1.419 . S
C2854 H2858 0.930 . S
C2855 C2854 1.369 . S
C2855 C2864 1.429 . S
C2856 C2854 1.419 . S
C2856 C2857 1.363 . S
C2856 H2859 0.929 . S
C2857 C2856 1.363 . S
C2857 C2863 1.428 . S
H2858 C2854 0.930 . S
H2859 C2856 0.929 . S
S2860 N2861 1.613 . S
S2860 N2862 1.610 . S
N2861 S2860 1.613 . S
N2861 C2864 1.350 . S
N2862 S2860 1.610 . S
N2862 C2863 1.351 . S
C2863 C2857 1.428 . S
C2863 N2862 1.351 . S
C2863 C2864 1.434 . S
C2864 C2855 1.429 . S
C2864 N2861 1.350 . S
C2864 C2863 1.434 . S
C2865 C2866 1.369 . S
C2865 C2867 1.419 . S
C2865 H2869 0.930 . S
C2866 C2865 1.369 . S
C2866 C2875 1.429 . S
C2867 C2865 1.419 . S
C2867 C2868 1.363 . S
C2867 H2870 0.929 . S
C2868 C2867 1.363 . S
C2868 C2874 1.428 . S
H2869 C2865 0.930 . S
H2870 C2867 0.929 . S
S2871 N2872 1.613 . S
S2871 N2873 1.610 . S
N2872 S2871 1.613 . S
N2872 C2875 1.350 . S
N2873 S2871 1.610 . S
N2873 C2874 1.351 . S
C2874 C2868 1.428 . S
C2874 N2873 1.351 . S
C2874 C2875 1.434 . S
C2875 C2866 1.429 . S
C2875 N2872 1.350 . S
C2875 C2874 1.434 . S
C2876 C2877 1.369 . S
C2876 C2878 1.419 . S
C2876 H2880 0.930 . S
C2877 C2876 1.369 . S
C2877 C2886 1.429 . S
C2878 C2876 1.419 . S
C2878 C2879 1.363 . S
C2878 H2881 0.929 . S
C2879 C2878 1.363 . S
C2879 C2885 1.428 . S
H2880 C2876 0.930 . S
H2881 C2878 0.929 . S
S2882 N2883 1.613 . S
S2882 N2884 1.610 . S
N2883 S2882 1.613 . S
N2883 C2886 1.350 . S
N2884 S2882 1.610 . S
N2884 C2885 1.351 . S
C2885 C2879 1.428 . S
C2885 N2884 1.351 . S
C2885 C2886 1.434 . S
C2886 C2877 1.429 . S
C2886 N2883 1.350 . S
C2886 C2885 1.434 . S
C2887 C2888 1.369 . S
C2887 C2889 1.419 . S
C2887 H2891 0.930 . S
C2888 C2887 1.369 . S
C2888 C2897 1.429 . S
C2889 C2887 1.419 . S
C2889 C2890 1.363 . S
C2889 H2892 0.929 . S
C2890 C2889 1.363 . S
C2890 C2896 1.428 . S
H2891 C2887 0.930 . S
H2892 C2889 0.929 . S
S2893 N2894 1.613 . S
S2893 N2895 1.610 . S
N2894 S2893 1.613 . S
N2894 C2897 1.350 . S
N2895 S2893 1.610 . S
N2895 C2896 1.351 . S
C2896 C2890 1.428 . S
C2896 N2895 1.351 . S
C2896 C2897 1.434 . S
C2897 C2888 1.429 . S
C2897 N2894 1.350 . S
C2897 C2896 1.434 . S
C2898 C2899 1.369 . S
C2898 C2900 1.419 . S
C2898 H2902 0.930 . S
C2899 C2898 1.369 . S
C2899 C2908 1.429 . S
C2900 C2898 1.419 . S
C2900 C2901 1.363 . S
C2900 H2903 0.929 . S
C2901 C2900 1.363 . S
C2901 C2907 1.428 . S
H2902 C2898 0.930 . S
H2903 C2900 0.929 . S
S2904 N2905 1.613 . S
S2904 N2906 1.610 . S
N2905 S2904 1.613 . S
N2905 C2908 1.350 . S
N2906 S2904 1.610 . S
N2906 C2907 1.351 . S
C2907 C2901 1.428 . S
C2907 N2906 1.351 . S
C2907 C2908 1.434 . S
C2908 C2899 1.429 . S
C2908 N2905 1.350 . S
C2908 C2907 1.434 . S
C2909 C2910 1.369 . S
C2909 C2911 1.419 . S
C2909 H2913 0.930 . S
C2910 C2909 1.369 . S
C2910 C2919 1.429 . S
C2911 C2909 1.419 . S
C2911 C2912 1.363 . S
C2911 H2914 0.929 . S
C2912 C2911 1.363 . S
C2912 C2918 1.428 . S
H2913 C2909 0.930 . S
H2914 C2911 0.929 . S
S2915 N2916 1.613 . S
S2915 N2917 1.610 . S
N2916 S2915 1.613 . S
N2916 C2919 1.350 . S
N2917 S2915 1.610 . S
N2917 C2918 1.351 . S
C2918 C2912 1.428 . S
C2918 N2917 1.351 . S
C2918 C2919 1.434 . S
C2919 C2910 1.429 . S
C2919 N2916 1.350 . S
C2919 C2918 1.434 . S
C2920 C2921 1.369 . S
C2920 C2922 1.419 . S
C2920 H2924 0.930 . S
C2921 C2920 1.369 . S
C2921 C2930 1.429 . S
C2922 C2920 1.419 . S
C2922 C2923 1.363 . S
C2922 H2925 0.929 . S
C2923 C2922 1.363 . S
C2923 C2929 1.428 . S
H2924 C2920 0.930 . S
H2925 C2922 0.929 . S
S2926 N2927 1.613 . S
S2926 N2928 1.610 . S
N2927 S2926 1.613 . S
N2927 C2930 1.350 . S
N2928 S2926 1.610 . S
N2928 C2929 1.351 . S
C2929 C2923 1.428 . S
C2929 N2928 1.351 . S
C2929 C2930 1.434 . S
C2930 C2921 1.429 . S
C2930 N2927 1.350 . S
C2930 C2929 1.434 . S
C2931 C2932 1.369 . S
C2931 C2933 1.419 . S
C2931 H2935 0.930 . S
C2932 C2931 1.369 . S
C2932 C2941 1.429 . S
C2933 C2931 1.419 . S
C2933 C2934 1.363 . S
C2933 H2936 0.929 . S
C2934 C2933 1.363 . S
C2934 C2940 1.428 . S
H2935 C2931 0.930 . S
H2936 C2933 0.929 . S
S2937 N2938 1.613 . S
S2937 N2939 1.610 . S
N2938 S2937 1.613 . S
N2938 C2941 1.350 . S
N2939 S2937 1.610 . S
N2939 C2940 1.351 . S
C2940 C2934 1.428 . S
C2940 N2939 1.351 . S
C2940 C2941 1.434 . S
C2941 C2932 1.429 . S
C2941 N2938 1.350 . S
C2941 C2940 1.434 . S
C2942 C2943 1.369 . S
C2942 C2944 1.419 . S
C2942 H2946 0.930 . S
C2943 C2942 1.369 . S
C2943 C2952 1.429 . S
C2944 C2942 1.419 . S
C2944 C2945 1.363 . S
C2944 H2947 0.929 . S
C2945 C2944 1.363 . S
C2945 C2951 1.428 . S
H2946 C2942 0.930 . S
H2947 C2944 0.929 . S
S2948 N2949 1.613 . S
S2948 N2950 1.610 . S
N2949 S2948 1.613 . S
N2949 C2952 1.350 . S
N2950 S2948 1.610 . S
N2950 C2951 1.351 . S
C2951 C2945 1.428 . S
C2951 N2950 1.351 . S
C2951 C2952 1.434 . S
C2952 C2943 1.429 . S
C2952 N2949 1.350 . S
C2952 C2951 1.434 . S
C2953 C2954 1.369 . S
C2953 C2955 1.419 . S
C2953 H2957 0.930 . S
C2954 C2953 1.369 . S
C2954 C2963 1.429 . S
C2955 C2953 1.419 . S
C2955 C2956 1.363 . S
C2955 H2958 0.929 . S
C2956 C2955 1.363 . S
C2956 C2962 1.428 . S
H2957 C2953 0.930 . S
H2958 C2955 0.929 . S
S2959 N2960 1.613 . S
S2959 N2961 1.610 . S
N2960 S2959 1.613 . S
N2960 C2963 1.350 . S
N2961 S2959 1.610 . S
N2961 C2962 1.351 . S
C2962 C2956 1.428 . S
C2962 N2961 1.351 . S
C2962 C2963 1.434 . S
C2963 C2954 1.429 . S
C2963 N2960 1.350 . S
C2963 C2962 1.434 . S
C2964 C2965 1.369 . S
C2964 C2966 1.419 . S
C2964 H2968 0.930 . S
C2965 C2964 1.369 . S
C2965 C2974 1.429 . S
C2966 C2964 1.419 . S
C2966 C2967 1.363 . S
C2966 H2969 0.929 . S
C2967 C2966 1.363 . S
C2967 C2973 1.428 . S
H2968 C2964 0.930 . S
H2969 C2966 0.929 . S
S2970 N2971 1.613 1_554 S
S2970 N2972 1.610 1_554 S
N2971 S2970 1.613 1_556 S
N2971 C2974 1.350 . S
N2972 S2970 1.610 1_556 S
N2972 C2973 1.351 . S
C2973 C2967 1.428 . S
C2973 N2972 1.351 . S
C2973 C2974 1.434 . S
C2974 C2965 1.429 . S
C2974 N2971 1.350 . S
C2974 C2973 1.434 . S
C2975 C2976 1.369 . S
C2975 C2977 1.419 . S
C2975 H2979 0.930 . S
C2976 C2975 1.369 . S
C2976 C2985 1.429 . S
C2977 C2975 1.419 . S
C2977 C2978 1.363 . S
C2977 H2980 0.929 . S
C2978 C2977 1.363 . S
C2978 C2984 1.428 . S
H2979 C2975 0.930 . S
H2980 C2977 0.929 . S
S2981 N2982 1.613 . S
S2981 N2983 1.610 . S
N2982 S2981 1.613 . S
N2982 C2985 1.350 . S
N2983 S2981 1.610 . S
N2983 C2984 1.351 . S
C2984 C2978 1.428 . S
C2984 N2983 1.351 . S
C2984 C2985 1.434 . S
C2985 C2976 1.429 . S
C2985 N2982 1.350 . S
C2985 C2984 1.434 . S
C2986 C2987 1.369 . S
C2986 C2988 1.419 . S
C2986 H2990 0.930 . S
C2987 C2986 1.369 . S
C2987 C2996 1.429 . S
C2988 C2986 1.419 . S
C2988 C2989 1.363 . S
C2988 H2991 0.929 . S
C2989 C2988 1.363 . S
C2989 C2995 1.428 . S
H2990 C2986 0.930 . S
H2991 C2988 0.929 . S
S2992 N2993 1.613 . S
S2992 N2994 1.610 . S
N2993 S2992 1.613 . S
N2993 C2996 1.350 . S
N2994 S2992 1.610 . S
N2994 C2995 1.351 . S
C2995 C2989 1.428 . S
C2995 N2994 1.351 . S
C2995 C2996 1.434 . S
C2996 C2987 1.429 . S
C2996 N2993 1.350 . S
C2996 C2995 1.434 . S
C2997 C2998 1.369 . S
C2997 C2999 1.419 . S
C2997 H3001 0.930 . S
C2998 C2997 1.369 . S
C2998 C3007 1.429 . S
C2999 C2997 1.419 . S
C2999 C3000 1.363 . S
C2999 H3002 0.929 . S
C3000 C2999 1.363 . S
C3000 C3006 1.428 . S
H3001 C2997 0.930 . S
H3002 C2999 0.929 . S
S3003 N3004 1.613 . S
S3003 N3005 1.610 . S
N3004 S3003 1.613 . S
N3004 C3007 1.350 . S
N3005 S3003 1.610 . S
N3005 C3006 1.351 . S
C3006 C3000 1.428 . S
C3006 N3005 1.351 . S
C3006 C3007 1.434 . S
C3007 C2998 1.429 . S
C3007 N3004 1.350 . S
C3007 C3006 1.434 . S
C3008 C3009 1.369 . S
C3008 C3010 1.419 . S
C3008 H3012 0.930 . S
C3009 C3008 1.369 . S
C3009 C3018 1.429 . S
C3010 C3008 1.419 . S
C3010 C3011 1.363 . S
C3010 H3013 0.929 . S
C3011 C3010 1.363 . S
C3011 C3017 1.428 . S
H3012 C3008 0.930 . S
H3013 C3010 0.929 . S
S3014 N3015 1.613 . S
S3014 N3016 1.610 . S
N3015 S3014 1.613 . S
N3015 C3018 1.350 . S
N3016 S3014 1.610 . S
N3016 C3017 1.351 . S
C3017 C3011 1.428 . S
C3017 N3016 1.351 . S
C3017 C3018 1.434 . S
C3018 C3009 1.429 . S
C3018 N3015 1.350 . S
C3018 C3017 1.434 . S
C3019 C3020 1.369 . S
C3019 C3021 1.419 . S
C3019 H3023 0.930 . S
C3020 C3019 1.369 . S
C3020 C3029 1.429 . S
C3021 C3019 1.419 . S
C3021 C3022 1.363 . S
C3021 H3024 0.929 . S
C3022 C3021 1.363 . S
C3022 C3028 1.428 . S
H3023 C3019 0.930 . S
H3024 C3021 0.929 . S
S3025 N3026 1.613 . S
S3025 N3027 1.610 . S
N3026 S3025 1.613 . S
N3026 C3029 1.350 . S
N3027 S3025 1.610 . S
N3027 C3028 1.351 . S
C3028 C3022 1.428 . S
C3028 N3027 1.351 . S
C3028 C3029 1.434 . S
C3029 C3020 1.429 . S
C3029 N3026 1.350 . S
C3029 C3028 1.434 . S
C3030 C3031 1.369 . S
C3030 C3032 1.419 . S
C3030 H3034 0.930 . S
C3031 C3030 1.369 . S
C3031 C3040 1.429 . S
C3032 C3030 1.419 . S
C3032 C3033 1.363 . S
C3032 H3035 0.929 . S
C3033 C3032 1.363 . S
C3033 C3039 1.428 . S
H3034 C3030 0.930 . S
H3035 C3032 0.929 . S
S3036 N3037 1.613 . S
S3036 N3038 1.610 . S
N3037 S3036 1.613 . S
N3037 C3040 1.350 . S
N3038 S3036 1.610 . S
N3038 C3039 1.351 . S
C3039 C3033 1.428 . S
C3039 N3038 1.351 . S
C3039 C3040 1.434 . S
C3040 C3031 1.429 . S
C3040 N3037 1.350 . S
C3040 C3039 1.434 . S
C3041 C3042 1.369 . S
C3041 C3043 1.419 . S
C3041 H3045 0.930 . S
C3042 C3041 1.369 . S
C3042 C3051 1.429 . S
C3043 C3041 1.419 . S
C3043 C3044 1.363 . S
C3043 H3046 0.929 . S
C3044 C3043 1.363 . S
C3044 C3050 1.428 . S
H3045 C3041 0.930 . S
H3046 C3043 0.929 . S
S3047 N3048 1.613 . S
S3047 N3049 1.610 . S
N3048 S3047 1.613 . S
N3048 C3051 1.350 . S
N3049 S3047 1.610 . S
N3049 C3050 1.351 . S
C3050 C3044 1.428 . S
C3050 N3049 1.351 . S
C3050 C3051 1.434 . S
C3051 C3042 1.429 . S
C3051 N3048 1.350 . S
C3051 C3050 1.434 . S
C3052 C3053 1.369 . S
C3052 C3054 1.419 . S
C3052 H3056 0.930 . S
C3053 C3052 1.369 . S
C3053 C3062 1.429 . S
C3054 C3052 1.419 . S
C3054 C3055 1.363 . S
C3054 H3057 0.929 . S
C3055 C3054 1.363 . S
C3055 C3061 1.428 . S
H3056 C3052 0.930 . S
H3057 C3054 0.929 . S
S3058 N3059 1.613 . S
S3058 N3060 1.610 . S
N3059 S3058 1.613 . S
N3059 C3062 1.350 . S
N3060 S3058 1.610 . S
N3060 C3061 1.351 . S
C3061 C3055 1.428 . S
C3061 N3060 1.351 . S
C3061 C3062 1.434 . S
C3062 C3053 1.429 . S
C3062 N3059 1.350 . S
C3062 C3061 1.434 . S
C3063 C3064 1.369 . S
C3063 C3065 1.419 . S
C3063 H3067 0.930 . S
C3064 C3063 1.369 . S
C3064 C3073 1.429 . S
C3065 C3063 1.419 . S
C3065 C3066 1.363 . S
C3065 H3068 0.929 . S
C3066 C3065 1.363 . S
C3066 C3072 1.428 . S
H3067 C3063 0.930 . S
H3068 C3065 0.929 . S
S3069 N3070 1.613 . S
S3069 N3071 1.610 . S
N3070 S3069 1.613 . S
N3070 C3073 1.350 . S
N3071 S3069 1.610 . S
N3071 C3072 1.351 . S
C3072 C3066 1.428 . S
C3072 N3071 1.351 . S
C3072 C3073 1.434 . S
C3073 C3064 1.429 . S
C3073 N3070 1.350 . S
C3073 C3072 1.434 . S
C3074 C3075 1.369 . S
C3074 C3076 1.419 . S
C3074 H3078 0.930 . S
C3075 C3074 1.369 . S
C3075 C3084 1.429 . S
C3076 C3074 1.419 . S
C3076 C3077 1.363 . S
C3076 H3079 0.929 . S
C3077 C3076 1.363 . S
C3077 C3083 1.428 . S
H3078 C3074 0.930 . S
H3079 C3076 0.929 . S
S3080 N3081 1.613 . S
S3080 N3082 1.610 . S
N3081 S3080 1.613 . S
N3081 C3084 1.350 . S
N3082 S3080 1.610 . S
N3082 C3083 1.351 . S
C3083 C3077 1.428 . S
C3083 N3082 1.351 . S
C3083 C3084 1.434 . S
C3084 C3075 1.429 . S
C3084 N3081 1.350 . S
C3084 C3083 1.434 . S
C3085 C3086 1.369 . S
C3085 C3087 1.419 . S
C3085 H3089 0.930 . S
C3086 C3085 1.369 . S
C3086 C3095 1.429 . S
C3087 C3085 1.419 . S
C3087 C3088 1.363 . S
C3087 H3090 0.929 . S
C3088 C3087 1.363 . S
C3088 C3094 1.428 . S
H3089 C3085 0.930 . S
H3090 C3087 0.929 . S
S3091 N3092 1.613 . S
S3091 N3093 1.610 . S
N3092 S3091 1.613 . S
N3092 C3095 1.350 . S
N3093 S3091 1.610 . S
N3093 C3094 1.351 . S
C3094 C3088 1.428 . S
C3094 N3093 1.351 . S
C3094 C3095 1.434 . S
C3095 C3086 1.429 . S
C3095 N3092 1.350 . S
C3095 C3094 1.434 . S
C3096 C3097 1.369 . S
C3096 C3098 1.419 . S
C3096 H3100 0.930 . S
C3097 C3096 1.369 . S
C3097 C3106 1.429 . S
C3098 C3096 1.419 . S
C3098 C3099 1.363 . S
C3098 H3101 0.929 . S
C3099 C3098 1.363 . S
C3099 C3105 1.428 . S
H3100 C3096 0.930 . S
H3101 C3098 0.929 . S
S3102 N3103 1.613 . S
S3102 N3104 1.610 . S
N3103 S3102 1.613 . S
N3103 C3106 1.350 . S
N3104 S3102 1.610 . S
N3104 C3105 1.351 . S
C3105 C3099 1.428 . S
C3105 N3104 1.351 . S
C3105 C3106 1.434 . S
C3106 C3097 1.429 . S
C3106 N3103 1.350 . S
C3106 C3105 1.434 . S
C3107 C3108 1.369 . S
C3107 C3109 1.419 . S
C3107 H3111 0.930 . S
C3108 C3107 1.369 . S
C3108 C3117 1.429 . S
C3109 C3107 1.419 . S
C3109 C3110 1.363 . S
C3109 H3112 0.929 . S
C3110 C3109 1.363 . S
C3110 C3116 1.428 . S
H3111 C3107 0.930 . S
H3112 C3109 0.929 . S
S3113 N3114 1.613 . S
S3113 N3115 1.610 . S
N3114 S3113 1.613 . S
N3114 C3117 1.350 . S
N3115 S3113 1.610 . S
N3115 C3116 1.351 . S
C3116 C3110 1.428 . S
C3116 N3115 1.351 . S
C3116 C3117 1.434 . S
C3117 C3108 1.429 . S
C3117 N3114 1.350 . S
C3117 C3116 1.434 . S
C3118 C3119 1.369 . S
C3118 C3120 1.419 . S
C3118 H3122 0.930 . S
C3119 C3118 1.369 . S
C3119 C3128 1.429 . S
C3120 C3118 1.419 . S
C3120 C3121 1.363 . S
C3120 H3123 0.929 . S
C3121 C3120 1.363 . S
C3121 C3127 1.428 . S
H3122 C3118 0.930 . S
H3123 C3120 0.929 . S
S3124 N3125 1.613 . S
S3124 N3126 1.610 . S
N3125 S3124 1.613 . S
N3125 C3128 1.350 . S
N3126 S3124 1.610 . S
N3126 C3127 1.351 . S
C3127 C3121 1.428 . S
C3127 N3126 1.351 . S
C3127 C3128 1.434 . S
C3128 C3119 1.429 . S
C3128 N3125 1.350 . S
C3128 C3127 1.434 . S
C3129 C3130 1.369 . S
C3129 C3131 1.419 . S
C3129 H3133 0.930 . S
C3130 C3129 1.369 . S
C3130 C3139 1.429 . S
C3131 C3129 1.419 . S
C3131 C3132 1.363 . S
C3131 H3134 0.929 . S
C3132 C3131 1.363 . S
C3132 C3138 1.428 . S
H3133 C3129 0.930 . S
H3134 C3131 0.929 . S
S3135 N3136 1.613 . S
S3135 N3137 1.610 . S
N3136 S3135 1.613 . S
N3136 C3139 1.350 . S
N3137 S3135 1.610 . S
N3137 C3138 1.351 . S
C3138 C3132 1.428 . S
C3138 N3137 1.351 . S
C3138 C3139 1.434 . S
C3139 C3130 1.429 . S
C3139 N3136 1.350 . S
C3139 C3138 1.434 . S
C3140 C3141 1.369 . S
C3140 C3142 1.419 . S
C3140 H3144 0.930 . S
C3141 C3140 1.369 . S
C3141 C3150 1.429 . S
C3142 C3140 1.419 . S
C3142 C3143 1.363 . S
C3142 H3145 0.929 . S
C3143 C3142 1.363 . S
C3143 C3149 1.428 . S
H3144 C3140 0.930 . S
H3145 C3142 0.929 . S
S3146 N3147 1.613 . S
S3146 N3148 1.610 . S
N3147 S3146 1.613 . S
N3147 C3150 1.350 . S
N3148 S3146 1.610 . S
N3148 C3149 1.351 . S
C3149 C3143 1.428 . S
C3149 N3148 1.351 . S
C3149 C3150 1.434 . S
C3150 C3141 1.429 . S
C3150 N3147 1.350 . S
C3150 C3149 1.434 . S
C3151 C3152 1.369 . S
C3151 C3153 1.419 . S
C3151 H3155 0.930 . S
C3152 C3151 1.369 . S
C3152 C3161 1.429 . S
C3153 C3151 1.419 . S
C3153 C3154 1.363 . S
C3153 H3156 0.929 . S
C3154 C3153 1.363 . S
C3154 C3160 1.428 . S
H3155 C3151 0.930 . S
H3156 C3153 0.929 . S
S3157 N3158 1.613 . S
S3157 N3159 1.610 . S
N3158 S3157 1.613 . S
N3158 C3161 1.350 . S
N3159 S3157 1.610 . S
N3159 C3160 1.351 . S
C3160 C3154 1.428 . S
C3160 N3159 1.351 . S
C3160 C3161 1.434 . S
C3161 C3152 1.429 . S
C3161 N3158 1.350 . S
C3161 C3160 1.434 . S
C3162 C3163 1.369 . S
C3162 C3164 1.419 . S
C3162 H3166 0.930 . S
C3163 C3162 1.369 . S
C3163 C3172 1.429 . S
C3164 C3162 1.419 . S
C3164 C3165 1.363 . S
C3164 H3167 0.929 . S
C3165 C3164 1.363 . S
C3165 C3171 1.428 . S
H3166 C3162 0.930 . S
H3167 C3164 0.929 . S
S3168 N3169 1.613 . S
S3168 N3170 1.610 . S
N3169 S3168 1.613 . S
N3169 C3172 1.350 . S
N3170 S3168 1.610 . S
N3170 C3171 1.351 . S
C3171 C3165 1.428 . S
C3171 N3170 1.351 . S
C3171 C3172 1.434 . S
C3172 C3163 1.429 . S
C3172 N3169 1.350 . S
C3172 C3171 1.434 . S
C3173 C3174 1.369 . S
C3173 C3175 1.419 . S
C3173 H3177 0.930 . S
C3174 C3173 1.369 . S
C3174 C3183 1.429 . S
C3175 C3173 1.419 . S
C3175 C3176 1.363 . S
C3175 H3178 0.929 . S
C3176 C3175 1.363 . S
C3176 C3182 1.428 . S
H3177 C3173 0.930 . S
H3178 C3175 0.929 . S
S3179 N3180 1.613 . S
S3179 N3181 1.610 . S
N3180 S3179 1.613 . S
N3180 C3183 1.350 . S
N3181 S3179 1.610 . S
N3181 C3182 1.351 . S
C3182 C3176 1.428 . S
C3182 N3181 1.351 . S
C3182 C3183 1.434 . S
C3183 C3174 1.429 . S
C3183 N3180 1.350 . S
C3183 C3182 1.434 . S
C2131 C403 1.585 . S
C2129 C7 1.559 . S
C2142 C477 1.171 . S
C2140 C19 1.175 . S
C2151 C29 1.859 . S
C2153 C569 1.864 . S
C2164 C637 1.428 . S
C2162 C41 1.417 . S
C2173 C52 1.663 . S
C2175 C643 1.645 . S
C2184 C62 1.937 . S
C2186 C391 1.869 . S
C2195 C73 1.492 . S
C2197 C465 1.523 . S
C2208 C563 2.143 1_556 S
C2206 C82 1.851 . S
C2219 C699 1.379 . S
C2217 C5 1.338 . S
C2228 C16 1.161 . S
C2230 C773 1.272 . S
C2239 C30 1.766 . S
C2241 C859 1.680 1_655 S
C2252 C921 1.756 . S
C2250 C40 1.721 . S
C2261 C49 1.402 . S
C2263 C995 1.520 . S
C2274 C1081 1.444 . S
C2272 C63 1.461 . S
C2283 C74 1.065 . S
C2285 C1131 1.110 . S
C2296 C1229 1.929 . S
C2294 C85 1.925 . S
C2305 C8 1.295 . S
C2307 C909 1.268 . S
C2316 C51 1.814 . S
C2318 C1087 1.810 . S
C2329 C1143 1.765 . S
C2327 C60 1.690 . S
C2338 C71 1.470 . S
C2340 C1235 1.784 . S
C2351 C983 2.344 . S
C2349 C84 2.208 . S
C2362 C761 1.675 . S
C2360 C27 1.848 . S
C2371 C38 1.031 . S
C2373 C865 1.487 . S
C2384 C687 1.699 . S
C2382 C18 1.872 . S
C2395 C1279 2.587 . S
C2393 C95 2.432 . S
C2404 C107 1.440 . S
C2406 C1353 1.371 . S
C2415 C117 2.251 . S
C2417 C1457 2.263 . S
C2428 C1501 1.355 . S
C2426 C129 1.427 . S
C2437 C140 1.417 . S
C2439 C1513 1.420 . S
C2448 C150 1.756 . S
C2450 C1291 1.910 . S
C2459 C161 1.504 . S
C2461 C1365 1.571 . S
C2470 C170 1.700 . S
C2472 C1451 1.875 . S
C2483 C1007 2.125 . S
C2481 C93 1.776 . S
C2492 C104 1.378 . S
C2494 C1587 1.690 . S
C2505 C1161 2.099 . S
C2503 C118 2.150 . S
C2514 C128 1.801 . S
C2516 C1679 1.702 . S
C2525 C137 1.235 . S
C2527 C711 1.257 . S
C2538 C1723 1.362 . S
C2536 C151 1.394 . S
C2547 C162 0.974 . S
C2549 C847 0.994 . S
C2560 C1821 1.760 . S
C2558 C173 1.678 . S
C2569 C96 1.953 . S
C2571 C1673 1.949 . S
C2582 C1735 1.718 . S
C2580 C139 1.690 . S
C2591 C148 1.340 . S
C2593 C835 1.522 . S
C2604 C1827 1.567 . S
C2602 C159 1.584 . S
C2613 C172 2.268 . S
C2615 C717 2.483 . S
C2624 C115 1.618 . S
C2626 C1575 1.649 . S
C2635 C126 1.079 . S
C2637 C1155 1.230 . S
C2646 C106 1.737 . S
C2648 C1013 1.801 . S
C2657 C183 1.915 . S
C2659 C1427 1.978 . S
C2670 C1531 1.713 . S
C2668 C195 1.747 . S
C2679 C205 2.165 . S
C2681 C1309 2.164 . S
C2690 C217 1.620 . S
C2692 C1383 1.656 . S
C2701 C228 1.687 . S
C2703 C1377 1.658 . S
C2712 C238 1.518 . S
C2714 C1439 1.570 . S
C2725 C1525 1.546 . S
C2723 C249 1.476 . S
C2734 C258 1.521 . S
C2736 C1303 1.802 . S
C2747 C1895 1.731 . S
C2745 C181 1.626 . S
C2756 C192 1.459 . S
C2758 C1069 1.627 . S
C2769 C1975 1.973 . S
C2767 C206 2.010 . S
C2778 C216 1.634 . S
C2780 C1217 1.624 . S
C2789 C225 1.682 . S
C2791 C2049 1.799 . S
C2800 C239 1.384 . S
C2802 C785 1.284 . S
C2813 C2105 1.134 . S
C2811 C250 1.137 . S
C2822 C261 1.910 . S
C2824 C933 2.035 . S
C2835 C1205 1.628 . S
C2833 C184 1.621 . S
C2846 C791 2.160 . S
C2844 C227 2.125 . S
C2855 C236 2.210 . S
C2857 C2093 2.023 . S
C2866 C247 1.636 . S
C2868 C939 1.714 . S
C2879 C2043 2.379 . S
C2877 C260 2.193 . S
C2890 C1057 1.604 . S
C2888 C203 1.490 . S
C2901 C1969 1.390 . S
C2899 C214 0.982 . S
C2912 C1901 1.941 . S
C2910 C194 1.907 . S
C2921 C271 1.974 . S
C2923 C539 1.993 . S
C2932 C283 1.230 . S
C2934 C625 1.238 . S
C2945 C415 1.866 . S
C2943 C293 1.903 . S
C2956 C489 1.384 . S
C2954 C305 1.403 . S
C2967 C495 1.729 . S
C2965 C316 1.798 . S
C2978 C551 1.665 . S
C2976 C326 1.634 . S
C2989 C613 1.128 . S
C2987 C337 1.113 . S
C2998 C346 1.932 . S
C3000 C421 2.144 . S
C3009 C269 1.732 . S
C3011 C2019 1.803 . S
C3022 C1753 1.844 . S
C3020 C280 1.766 . S
C3033 C2117 2.093 . S
C3031 C294 2.169 . S
C3044 C1809 1.603 . S
C3042 C304 1.624 . S
C3053 C313 1.317 . S
C3055 C1883 1.458 . S
C3066 C1599 1.317 . S
C3064 C327 1.310 . S
C3077 C1945 0.677 . S
C3075 C338 0.687 . S
C3086 C349 1.822 . S
C3088 C1649 1.806 . S
C3099 C1797 1.816 . S
C3097 C272 1.821 . S
C3110 C1605 1.923 . S
C3108 C315 1.931 . S
C3121 C1957 1.993 . S
C3119 C324 2.050 . S
C3130 C335 1.191 . S
C3132 C1661 1.498 . S
C3141 C348 2.045 . S
C3143 C1871 2.103 . S
C3152 C291 1.838 . S
C3154 C1747 1.886 . S
C3163 C302 1.171 . S
C3165 C2123 1.697 . S
C3176 C2031 1.800 . S
C3174 C282 1.722 . S
