# Generated by pormake.
# Topology pth, (4,4)-cn, num edge types: 1
# Building blocks:
#     Node 0, Type 0, BuildingBlock: AZAVOO_clean_sbu_0, # of connection points: 4
#     Node 1, Type 0, BuildingBlock: AZAVOO_clean_sbu_0, # of connection points: 4
#     Node 2, Type 0, BuildingBlock: AZAVOO_clean_sbu_0, # of connection points: 4
#     Node 3, Type 1, BuildingBlock: NAWXER_clean_linker_0, # of connection points: 4
#     Node 4, Type 1, BuildingBlock: NAWXER_clean_linker_0, # of connection points: 4
#     Node 5, Type 1, BuildingBlock: NAWXER_clean_linker_0, # of connection points: 4
#     Edge 6, Type (0, 1), BuildingBlock: ZUJKAS_clean_linker_0, # of connection points: 2
#     Edge 7, Type (0, 1), BuildingBlock: ZUJKAS_clean_linker_0, # of connection points: 2
#     Edge 8, Type (0, 1), BuildingBlock: ZUJKAS_clean_linker_0, # of connection points: 2
#     Edge 9, Type (0, 1), BuildingBlock: ZUJKAS_clean_linker_0, # of connection points: 2
#     Edge 10, Type (0, 1), BuildingBlock: ZUJKAS_clean_linker_0, # of connection points: 2
#     Edge 11, Type (0, 1), BuildingBlock: ZUJKAS_clean_linker_0, # of connection points: 2
#     Edge 12, Type (0, 1), BuildingBlock: ZUJKAS_clean_linker_0, # of connection points: 2
#     Edge 13, Type (0, 1), BuildingBlock: ZUJKAS_clean_linker_0, # of connection points: 2
#     Edge 14, Type (0, 1), BuildingBlock: ZUJKAS_clean_linker_0, # of connection points: 2
#     Edge 15, Type (0, 1), BuildingBlock: ZUJKAS_clean_linker_0, # of connection points: 2
#     Edge 16, Type (0, 1), BuildingBlock: ZUJKAS_clean_linker_0, # of connection points: 2
#     Edge 17, Type (0, 1), BuildingBlock: ZUJKAS_clean_linker_0, # of connection points: 2
# Relax obj value: 0.065
# Max RMSD: 0.210
# Mean RMSD: 0.105
data_MOF--net-pth--node1-AZAVOO_clean_sbu_0--node2-NAWXER_clean_linker_0--edge1-ZUJKAS_clean_linker_0
_symmetry_space_group_name_H-M    P1
_symmetry_Int_Tables_number       1
_symmetry_cell_setting            triclinic
loop_
_symmetry_equiv_pos_as_xyz
'x, y, z'
_cell_length_a     35.868623
_cell_length_b     36.532214
_cell_length_c     80.760521
_cell_angle_alpha  90.77785
_cell_angle_beta   92.572129
_cell_angle_gamma 121.73205
loop_
_atom_site_label
_atom_site_type_symbol
_atom_site_fract_x
_atom_site_fract_y
_atom_site_fract_z
_atom_type_partial_charge
Mg0 Mg 0.08614 0.05888 0.04827 0.0
O1 O 0.02457 0.01266 0.03192 0.0
O2 O 0.00751 0.05092 0.01542 0.0
Mg3 Mg 0.05913 0.12208 0.0211 0.0
C4 C 1e-05 0.01491 0.02058 0.0
C5 C 0.06507 0.96851 0.05868 0.0
O6 O 0.06529 0.96386 0.04253 0.0
O7 O 0.04677 0.07677 0.064 0.0
O8 O 0.03436 0.11786 0.04722 0.0
O9 O 0.12853 0.0583 0.0291 0.0
O10 O 0.10642 0.10445 0.03018 0.0
C11 C 0.03128 0.10068 0.06117 0.0
C12 C 0.12711 0.0898 0.02261 0.0
O13 O 0.07278 0.00415 0.06489 0.0
Mg14 Mg 0.95154 0.00335 0.36946 0.0
O15 O 0.0097 0.02456 0.3882 0.0
O16 O 0.01841 0.07897 0.40433 0.0
Mg17 Mg 0.96628 0.09343 0.39546 0.0
C18 C 0.02974 0.05254 0.40013 0.0
C19 C 0.95855 0.95233 0.33999 0.0
O20 O 0.93229 0.96343 0.33305 0.0
O21 O 0.99334 0.06213 0.35444 0.0
O22 O -0.00124 0.11501 0.37065 0.0
O23 O 0.90534 0.95896 0.38774 0.0
O24 O 0.92432 0.02673 0.38537 0.0
C25 C 0.00675 0.10177 0.35732 0.0
C26 C 0.90334 0.99147 0.39306 0.0
O27 O 0.9724 0.964 0.35503 0.0
Mg28 Mg 0.99244 0.99671 0.70114 0.0
O29 O 0.03696 0.05289 0.71954 0.0
O30 O -0.0042 0.05982 0.73774 0.0
Mg31 Mg 0.92425 0.00865 0.73044 0.0
C32 C 0.03313 0.0716 0.73222 0.0
C33 C 0.04937 0.99284 0.67421 0.0
O34 O 0.01541 0.95311 0.67287 0.0
O35 O 0.9708 0.03733 0.68777 0.0
O36 O 0.92863 0.04246 0.70611 0.0
O37 O -0.0039 0.95137 0.71838 0.0
O38 O 0.94543 0.96849 0.71848 0.0
C39 C 0.94596 0.05061 0.69209 0.0
C40 C 0.96252 0.94837 0.7251 0.0
O41 O 0.04974 0.01907 0.68479 0.0
C42 C 0.01722 0.39412 0.23667 0.0
C43 C 0.05655 0.40953 0.24637 0.0
C44 C 0.00936 0.42256 0.22813 0.0
C45 C 0.04106 0.46685 0.22887 0.0
C46 C 0.08742 0.45409 0.24768 0.0
C47 C 0.07967 0.48254 0.23901 0.0
C48 C 0.03462 0.49674 0.21879 0.0
C49 C 0.04684 0.40671 0.18455 0.0
C50 C 0.00845 0.38022 0.17444 0.0
C51 C 0.05264 0.44302 0.19309 0.0
C52 C 0.01975 0.45293 0.19192 0.0
C53 C 0.97622 0.39101 0.17289 0.0
C54 C 0.9819 0.42712 0.18153 0.0
C55 C 0.02426 0.48994 0.20151 0.0
C56 C 0.04776 0.6582 0.18184 0.0
C57 C 0.01447 0.64336 0.16907 0.0
C58 C 0.04989 0.62925 0.19235 0.0
C59 C 0.01839 0.58496 0.19047 0.0
C60 C 0.98304 0.59901 0.16718 0.0
C61 C 0.98511 0.57009 0.17774 0.0
C62 C 0.02174 0.55376 0.20092 0.0
C63 C 0.99235 0.63091 0.23528 0.0
C64 C 0.0255 0.65596 0.24767 0.0
C65 C 0.99405 0.59981 0.22571 0.0
C66 C 0.02927 0.59351 0.22814 0.0
C67 C 0.06053 0.64931 0.25021 0.0
C68 C 0.06223 0.61817 0.24058 0.0
C69 C 0.03051 0.55973 0.21832 0.0
H70 H 0.99236 0.36005 0.23577 0.0
H71 H 0.97876 0.40989 0.22075 0.0
H72 H 0.11795 0.46683 0.25511 0.0
H73 H 0.10436 0.51666 0.23984 0.0
H74 H 0.07263 0.39968 0.18569 0.0
H75 H 0.08271 0.4632 0.20066 0.0
H76 H 0.94627 0.37111 0.16521 0.0
H77 H 0.95627 0.43439 0.18038 0.0
H78 H 0.07299 0.69206 0.18339 0.0
H79 H 0.07679 0.64144 0.2017 0.0
H80 H 0.95685 0.58667 0.15752 0.0
H81 H 0.96067 0.53602 0.17596 0.0
H82 H 0.96509 0.63542 0.23293 0.0
H83 H 0.96751 0.58036 0.21651 0.0
H84 H 0.08622 0.66764 0.25982 0.0
H85 H 0.08938 0.61342 0.24283 0.0
N86 N 0.0373 0.53134 0.22656 0.0
N87 N 0.01831 0.51874 0.19324 0.0
C88 C 0.66054 0.08278 0.5125 0.0
C89 C 0.64281 0.04308 0.50365 0.0
C90 C 0.63303 0.09366 0.51993 0.0
C91 C 0.58737 0.0648 0.51883 0.0
C92 C 0.59697 0.01487 0.50216 0.0
C93 C 0.56952 0.02575 0.50963 0.0
C94 C 0.55788 0.07451 0.52743 0.0
C95 C 0.64197 0.06001 0.56638 0.0
C96 C 0.66767 0.09683 0.57695 0.0
C97 C 0.60796 0.05629 0.55595 0.0
C98 C 0.59969 0.08981 0.55551 0.0
C99 C 0.6586 0.1299 0.57673 0.0
C100 C 0.6249 0.12636 0.56614 0.0
C101 C 0.56385 0.08648 0.54451 0.0
C102 C 0.38981 0.05972 0.5589 0.0
C103 C 0.40242 0.09281 0.571 0.0
C104 C 0.42106 0.05912 0.54943 0.0
C105 C 0.46555 0.09195 0.55168 0.0
C106 C 0.44697 0.12571 0.57324 0.0
C107 C 0.47827 0.12515 0.56371 0.0
C108 C 0.49909 0.08954 0.54255 0.0
C109 C 0.41875 0.11075 0.5048 0.0
C110 C 0.39144 0.07465 0.49411 0.0
C111 C 0.45238 0.11247 0.51483 0.0
C112 C 0.45935 0.07811 0.51441 0.0
C113 C 0.39925 0.04074 0.49343 0.0
C114 C 0.43314 0.04263 0.50341 0.0
C115 C 0.49415 0.07931 0.52535 0.0
H116 H 0.69571 0.10517 0.51391 0.0
H117 H 0.64746 0.12438 0.52671 0.0
H118 H 0.58225 0.98448 0.49514 0.0
H119 H 0.53432 0.00322 0.50849 0.0
H120 H 0.64815 0.03402 0.56612 0.0
H121 H 0.58808 0.02713 0.54825 0.0
H122 H 0.67703 0.15825 0.58496 0.0
H123 H 0.6186 0.15229 0.5662 0.0
H124 H 0.35596 0.03334 0.55715 0.0
H125 H 0.41055 0.03221 0.5407 0.0
H126 H 0.45765 0.15172 0.58243 0.0
H127 H 0.51248 0.15052 0.56578 0.0
H128 H 0.41437 0.13788 0.50535 0.0
H129 H 0.47301 0.1407 0.52292 0.0
H130 H 0.37862 0.01229 0.48545 0.0
H131 H 0.43817 0.01589 0.50284 0.0
N132 N 0.5233 0.07149 0.51848 0.0
N133 N 0.53414 0.09341 0.55142 0.0
C134 C 0.43561 0.37934 0.84155 0.0
C135 C 0.413 0.392 0.83073 0.0
C136 C 0.47009 0.40957 0.85235 0.0
C137 C 0.48218 0.45292 0.8527 0.0
C138 C 0.42598 0.43564 0.83081 0.0
C139 C 0.46037 0.46581 0.84165 0.0
C140 C 0.51797 0.48526 0.86426 0.0
C141 C 0.41127 0.39358 0.89683 0.0
C142 C 0.4238 0.36925 0.90629 0.0
C143 C 0.44238 0.42913 0.88851 0.0
C144 C 0.48652 0.44101 0.88952 0.0
C145 C 0.46804 0.38096 0.90697 0.0
C146 C 0.49915 0.41679 0.89881 0.0
C147 C 0.52008 0.47955 0.88145 0.0
C148 C 0.65847 0.65862 0.90655 0.0
C149 C 0.67844 0.64924 0.91979 0.0
C150 C 0.62833 0.62604 0.89526 0.0
C151 C 0.61818 0.58352 0.89678 0.0
C152 C 0.66741 0.6065 0.92157 0.0
C153 C 0.63746 0.57392 0.91017 0.0
C154 C 0.58572 0.54872 0.88497 0.0
C155 C 0.69857 0.63419 0.85431 0.0
C156 C 0.68922 0.65552 0.84199 0.0
C157 C 0.66478 0.60148 0.86287 0.0
C158 C 0.62105 0.58972 0.85936 0.0
C159 C 0.6454 0.64389 0.83863 0.0
C160 C 0.61162 0.61106 0.84715 0.0
C161 C 0.58489 0.55343 0.86764 0.0
H162 H 0.42695 0.34612 0.84154 0.0
H163 H 0.48739 0.39909 0.86038 0.0
H164 H 0.40899 0.44635 0.82272 0.0
H165 H 0.46942 0.49917 0.84162 0.0
H166 H 0.37772 0.38604 0.89627 0.0
H167 H 0.43218 0.44791 0.88158 0.0
H168 H 0.47875 0.36259 0.91389 0.0
H169 H 0.53312 0.42552 0.89969 0.0
H170 H 0.66559 0.69108 0.90509 0.0
H171 H 0.61257 0.63407 0.88546 0.0
H172 H 0.68241 0.59839 0.93163 0.0
H173 H 0.62968 0.54126 0.91172 0.0
H174 H 0.73182 0.64181 0.85699 0.0
H175 H 0.67272 0.58467 0.87195 0.0
H176 H 0.63716 0.66007 0.82937 0.0
H177 H 0.57808 0.60234 0.84421 0.0
N178 N 0.55063 0.5219 0.85799 0.0
N179 N 0.55367 0.51157 0.89118 0.0
H180 H 0.03521 0.08608 0.09423 0.0
H181 H 0.0181 0.11798 0.11724 0.0
H182 H 0.97162 0.17579 0.08241 0.0
H183 H 0.98818 0.14393 0.05939 0.0
H184 H 0.06063 0.20677 0.12125 0.0
H185 H 0.88067 0.13435 0.11746 0.0
H186 H 0.9065 0.10919 0.10769 0.0
H187 H 0.90414 0.15183 0.09779 0.0
C188 C 0.02021 0.10459 0.09145 0.0
C189 C 0.01349 0.11283 0.07496 0.0
C190 C 0.01048 0.12278 0.10463 0.0
C191 C 0.99329 0.14893 0.10152 0.0
C192 C 0.98408 0.15503 0.08509 0.0
H193 H 0.97915 0.35463 0.14213 0.0
H194 H 0.97244 0.29329 0.12663 0.0
C195 C 0.99396 0.13707 0.07193 0.0
C196 C 0.99114 0.17509 0.11515 0.0
H197 H 0.92409 0.20441 0.13152 0.0
C198 C 0.03063 0.20568 0.1238 0.0
C199 C 0.95198 0.17363 0.11834 0.0
C200 C 0.90834 0.14018 0.10994 0.0
C201 C 0.03259 0.23673 0.1348 0.0
C202 C 0.99374 0.23649 0.13745 0.0
C203 C 0.95383 0.20457 0.1294 0.0
C204 C 0.99467 0.27129 0.1474 0.0
C205 C 0.07666 0.27107 0.14269 0.0
C206 C 0.00865 0.27872 0.16427 0.0
C207 C 0.01277 0.31392 0.17313 0.0
C208 C 0.00245 0.3419 0.16528 0.0
C209 C 0.98705 0.33347 0.14853 0.0
C210 C 0.98322 0.29847 0.13967 0.0
H211 H 0.10432 0.2718 0.13671 0.0
H212 H 0.08097 0.30341 0.14197 0.0
H213 H 0.07861 0.26455 0.15598 0.0
H214 H 0.01683 0.2576 0.17053 0.0
H215 H 0.02398 0.31925 0.18612 0.0
H216 H 0.85972 0.92394 0.41358 0.0
H217 H 0.81675 0.9205 0.43706 0.0
H218 H 0.84873 0.04995 0.4287 0.0
H219 H 0.89083 0.05358 0.40537 0.0
H220 H 0.85842 0.02944 0.46351 0.0
H221 H 0.6963 0.91536 0.43038 0.0
H222 H 0.73832 0.90236 0.43112 0.0
H223 H 0.74532 0.9464 0.41924 0.0
C224 C 0.85774 0.9517 0.41683 0.0
C225 C 0.87892 0.98914 0.40767 0.0
C226 C 0.83321 0.94965 0.43021 0.0
C227 C 0.82968 0.98499 0.43453 0.0
C228 C 0.85137 0.02248 0.42558 0.0
H229 H 0.71546 0.09492 0.48667 0.0
H230 H 0.76185 0.07511 0.47284 0.0
C231 C 0.87555 0.02449 0.41225 0.0
C232 C 0.80217 0.98334 0.4479 0.0
H233 H 0.69607 0.94977 0.45504 0.0
C234 C 0.82285 0.01132 0.46189 0.0
C235 C 0.75587 0.95946 0.44573 0.0
C236 C 0.73232 0.92921 0.43082 0.0
C237 C 0.79845 0.0179 0.47332 0.0
C238 C 0.75238 0.99658 0.47046 0.0
C239 C 0.73146 0.96627 0.45712 0.0
C240 C 0.72593 0.00875 0.47997 0.0
C241 C 0.82236 0.04861 0.48808 0.0
C242 C 0.68984 0.97778 0.48829 0.0
C243 C 0.66317 0.98903 0.49621 0.0
C244 C 0.67195 0.03136 0.49579 0.0
C245 C 0.70828 0.06228 0.48749 0.0
C246 C 0.73489 0.05102 0.47961 0.0
H247 H 0.85369 0.05054 0.49157 0.0
H248 H 0.83042 0.08134 0.48488 0.0
H249 H 0.80186 0.03876 0.49899 0.0
H250 H 0.68221 0.9449 0.48858 0.0
H251 H 0.63568 0.96459 0.50266 0.0
H252 H -0.00373 0.91015 0.74449 0.0
H253 H 0.96275 0.86493 0.76814 0.0
H254 H 0.85409 0.8841 0.76251 0.0
H255 H 0.88736 0.92948 0.73922 0.0
H256 H 0.88319 0.88958 0.79534 0.0
H257 H 0.856 0.74222 0.76199 0.0
H258 H 0.91176 0.78702 0.76437 0.0
H259 H 0.87208 0.7913 0.75156 0.0
C260 C 0.9654 0.90493 0.7484 0.0
C261 C 0.94438 0.92326 0.73997 0.0
C262 C 0.94627 0.87903 0.76186 0.0
C263 C 0.90571 0.8708 0.76693 0.0
C264 C 0.88545 0.89013 0.75882 0.0
H265 H 0.68611 0.66634 0.80871 0.0
H266 H 0.74409 0.72032 0.79244 0.0
C267 C 0.90455 0.91607 0.74548 0.0
C268 C 0.88264 0.8405 0.78009 0.0
H269 H 0.82649 0.73352 0.78797 0.0
C270 C 0.87129 0.85552 0.7939 0.0
C271 C 0.867 0.7961 0.77804 0.0
C272 C 0.87695 0.77793 0.76316 0.0
C273 C 0.843 0.82703 0.80535 0.0
C274 C 0.8264 0.7825 0.80304 0.0
C275 C 0.83942 0.76775 0.78967 0.0
C276 C 0.79193 0.75016 0.81326 0.0
C277 C 0.82912 0.84447 0.81925 0.0
C278 C 0.7997 0.74904 0.83037 0.0
C279 C 0.76629 0.71853 0.83978 0.0
C280 C 0.72472 0.68849 0.83219 0.0
C281 C 0.7174 0.68952 0.81501 0.0
C282 C 0.75066 0.72006 0.80565 0.0
H283 H 0.83843 0.87829 0.81744 0.0
H284 H 0.79304 0.82439 0.82031 0.0
H285 H 0.8453 0.84365 0.83116 0.0
H286 H 0.83155 0.77165 0.83642 0.0
H287 H 0.7729 0.71869 0.85301 0.0
H288 H 0.0672 0.96943 0.09256 0.0
H289 H 0.05434 0.91098 0.11047 0.0
H290 H 0.02925 0.82838 0.06738 0.0
H291 H 0.04274 0.88687 0.04934 0.0
H292 H 0.97974 0.82843 0.11207 0.0
H293 H 0.12428 0.82174 0.09467 0.0
H294 H 0.11776 0.86615 0.08969 0.0
H295 H 0.08787 0.81636 0.07751 0.0
C296 C 0.05903 0.93887 0.08687 0.0
C297 C 0.05636 0.93289 0.06952 0.0
C298 C 0.05161 0.9055 0.09713 0.0
C299 C 0.0415 0.86564 0.09024 0.0
C300 C 0.03791 0.85923 0.07293 0.0
H301 H -0.0001 0.63318 0.13535 0.0
H302 H 0.00227 0.68519 0.11598 0.0
C303 C 0.04545 0.89263 0.06265 0.0
C304 C 0.03472 0.83084 0.10123 0.0
H305 H 0.07583 0.76846 0.11236 0.0
C306 C 0.00071 0.81528 0.11216 0.0
C307 C 0.06217 0.81382 0.10127 0.0
C308 C 0.10033 0.83056 0.09028 0.0
C309 C 0.99325 0.78288 0.12309 0.0
C310 C 0.02094 0.76616 0.12321 0.0
C311 C 0.05461 0.78135 0.11217 0.0
C312 C 0.01648 0.73374 0.13504 0.0
C313 C 0.95558 0.7665 0.13429 0.0
C314 C 0.0237 0.74392 0.15215 0.0
C315 C 0.02222 0.71426 0.16324 0.0
C316 C 0.01366 0.67396 0.1574 0.0
C317 C 0.00595 0.66371 0.14025 0.0
C318 C 0.00755 0.69344 0.12916 0.0
H319 H 0.93095 0.77427 0.12971 0.0
H320 H 0.93893 0.73109 0.13538 0.0
H321 H 0.9684 0.78196 0.14686 0.0
H322 H 0.03139 0.77516 0.15689 0.0
H323 H 0.02801 0.72295 0.17639 0.0
H324 H 0.07245 0.01158 0.39199 0.0
H325 H 0.13452 0.01485 0.40728 0.0
H326 H 0.13365 0.09995 0.44459 0.0
H327 H 0.07227 0.09778 0.4292 0.0
H328 H 0.21598 0.12781 0.43527 0.0
H329 H 0.13139 0.9547 0.44932 0.0
H330 H 0.12998 0.9639 0.42759 0.0
H331 H 0.10216 0.97928 0.44145 0.0
C332 C 0.08531 0.03087 0.40349 0.0
C333 C 0.06723 0.05427 0.40941 0.0
C334 C 0.12065 0.03249 0.41225 0.0
C335 C 0.13814 0.05698 0.42723 0.0
C336 C 0.12046 0.08066 0.4331 0.0
H337 H 0.33599 0.10069 0.50311 0.0
H338 H 0.27595 0.09744 0.48623 0.0
C339 C 0.08537 0.07937 0.42428 0.0
C340 C 0.17558 0.05882 0.43661 0.0
H341 H 0.20833 -0.00317 0.45591 0.0
C342 C 0.21425 0.09919 0.43983 0.0
C343 C 0.1732 0.0214 0.44254 0.0
C344 C 0.13183 0.97741 0.4402 0.0
C345 C 0.25074 0.10309 0.44873 0.0
C346 C 0.24833 0.06571 0.45458 0.0
C347 C 0.20992 0.02533 0.45128 0.0
C348 C 0.28503 0.06811 0.4646 0.0
C349 C 0.29177 0.14706 0.45174 0.0
C350 C 0.30958 0.05227 0.45801 0.0
C351 C 0.34428 0.05452 0.46753 0.0
C352 C 0.35468 0.07227 0.48389 0.0
C353 C 0.3295 0.08764 0.49047 0.0
C354 C 0.29505 0.08564 0.48089 0.0
H355 H 0.29119 0.17152 0.4439 0.0
H356 H 0.29481 0.15758 0.46495 0.0
H357 H 0.32134 0.14589 0.44924 0.0
H358 H 0.30213 0.03857 0.44543 0.0
H359 H 0.36328 0.04285 0.46202 0.0
H360 H 0.03923 0.11666 0.76066 0.0
H361 H 0.10586 0.17357 0.77573 0.0
H362 H 0.18466 0.16478 0.73896 0.0
H363 H 0.11829 0.10737 0.72387 0.0
H364 H 0.21406 0.1641 0.77105 0.0
H365 H 0.18648 0.29902 0.76404 0.0
H366 H 0.14119 0.25213 0.77233 0.0
H367 H 0.15595 0.24945 0.75155 0.0
C368 C 0.07066 0.127 0.75567 0.0
C369 C 0.07334 0.10741 0.74102 0.0
C370 C 0.10871 0.15974 0.76427 0.0
C371 C 0.1501 0.17379 0.75832 0.0
C372 C 0.15296 0.15451 0.74369 0.0
H373 H 0.39465 0.39979 0.79816 0.0
H374 H 0.33222 0.34684 0.77993 0.0
C375 C 0.11495 0.12171 0.73509 0.0
C376 C 0.19051 0.20712 0.76781 0.0
H377 H 0.24303 0.3103 0.78403 0.0
C378 C 0.22059 0.19618 0.77379 0.0
C379 C 0.19918 0.24908 0.77117 0.0
C380 C 0.16923 0.26336 0.76431 0.0
C381 C 0.25858 0.22575 0.78346 0.0
C382 C 0.26621 0.26704 0.78746 0.0
C383 C 0.2368 0.27842 0.78108 0.0
C384 C 0.30423 0.29872 0.79843 0.0
C385 C 0.29035 0.21262 0.78921 0.0
C386 C 0.30882 0.28931 0.8149 0.0
C387 C 0.34432 0.31946 0.82535 0.0
C388 C 0.3757 0.35975 0.81953 0.0
C389 C 0.37081 0.36919 0.80304 0.0
C390 C 0.33532 0.33895 0.7926 0.0
H391 H 0.28622 0.18525 0.78143 0.0
H392 H 0.32486 0.23996 0.78892 0.0
H393 H 0.28423 0.20223 0.80217 0.0
H394 H 0.28461 0.25882 0.81975 0.0
H395 H 0.34673 0.31156 0.83807 0.0
H396 H 0.94007 0.04086 0.65839 0.0
H397 H 0.90386 0.06423 0.63878 0.0
H398 H 0.88626 0.13278 0.6786 0.0
H399 H 0.9205 0.10752 0.69841 0.0
H400 H 0.81232 0.08233 0.66309 0.0
H401 H 0.92983 0.16891 0.61538 0.0
H402 H 0.92311 0.11716 0.61784 0.0
H403 H 0.9464 0.15663 0.63491 0.0
C404 C 0.92956 0.06188 0.66289 0.0
C405 C 0.93276 0.07211 0.67993 0.0
C406 C 0.90912 0.07555 0.65163 0.0
C407 C 0.89266 0.10069 0.65715 0.0
C408 C 0.89865 0.11338 0.67404 0.0
H409 H 0.74855 0.16851 0.58574 0.0
H410 H 0.80461 0.17408 0.60585 0.0
C411 C 0.91821 0.09896 0.68535 0.0
C412 C 0.86369 0.10815 0.64587 0.0
H413 H 0.85255 0.13644 0.60667 0.0
C414 C 0.82157 0.09498 0.65088 0.0
C415 C 0.87568 0.12514 0.62999 0.0
C416 C 0.92143 0.14319 0.62432 0.0
C417 C 0.79053 0.09641 0.64023 0.0
C418 C 0.80129 0.1099 0.62388 0.0
C419 C 0.84406 0.12523 0.61911 0.0
C420 C 0.76795 0.10662 0.61144 0.0
C421 C 0.74642 0.08319 0.64663 0.0
C422 C 0.72918 0.06672 0.60769 0.0
C423 C 0.6968 0.06356 0.59648 0.0
C424 C 0.70285 0.10013 0.58851 0.0
C425 C 0.74242 0.13987 0.5919 0.0
C426 C 0.77467 0.14306 0.60327 0.0
H427 H 0.74866 0.08803 0.66034 0.0
H428 H 0.73293 0.10169 0.64096 0.0
H429 H 0.72302 0.04842 0.64355 0.0
H430 H 0.72378 0.03797 0.61356 0.0
H431 H 0.66668 0.03253 0.59433 0.0
H432 H 0.93802 0.00586 -0.00298 0.0
H433 H 0.87998 0.9394 0.98265 0.0
H434 H 0.91962 0.86598 0.01166 0.0
H435 H 0.97794 0.93221 0.02611 0.0
H436 H 0.91247 0.84961 0.9769 0.0
H437 H 0.76346 0.83983 -0.00079 0.0
H438 H 0.80288 0.89124 0.99152 0.0
H439 H 0.81708 0.87256 0.0098 0.0
C440 C 0.93418 0.97558 0.0005 0.0
C441 C 0.96279 0.97446 0.0127 0.0
C442 C 0.90079 0.93761 0.99234 0.0
C443 C 0.8953 0.89783 -0.00376 0.0
C444 C 0.92325 0.89641 0.00856 0.0
H445 H 0.6835 0.64812 0.95367 0.0
H446 H 0.73651 0.70649 0.9732 0.0
C447 C 0.95655 0.93434 0.01679 0.0
C448 C 0.86246 0.85819 0.98659 0.0
H449 H 0.7529 0.79427 0.97569 0.0
C450 C 0.87754 0.83722 0.97675 0.0
C451 C 0.81694 0.84198 0.98656 0.0
C452 C 0.79895 0.86227 -0.00255 0.0
C453 C 0.84835 0.80128 0.9664 0.0
C454 C 0.80307 0.78626 0.96581 0.0
C455 C 0.78775 0.8062 0.9761 0.0
C456 C 0.77138 0.75088 0.95411 0.0
C457 C 0.86613 0.7798 0.95606 0.0
C458 C 0.77343 0.75685 0.93699 0.0
C459 C 0.74333 0.72375 0.92586 0.0
C460 C 0.71064 0.68407 0.93167 0.0
C461 C 0.70866 0.67819 0.94885 0.0
C462 C 0.73867 0.71149 0.96 0.0
H463 H 0.89955 0.78864 0.96076 0.0
H464 H 0.84408 0.7442 0.95586 0.0
H465 H 0.86809 0.79014 0.9431 0.0
H466 H 0.79822 0.78725 0.93225 0.0
H467 H 0.74582 0.72908 0.91269 0.0
H468 H 0.01571 0.92782 0.35015 0.0
H469 H 0.03454 0.88209 0.33486 0.0
H470 H 0.94759 0.8699 0.29359 0.0
H471 H 0.92919 0.91624 0.30863 0.0
H472 H 0.97967 0.79881 0.32379 0.0
H473 H 0.05881 0.90134 0.27088 0.0
H474 H 0.04827 0.92157 0.28948 0.0
H475 H 0.00503 0.89167 0.27363 0.0
C476 C 0.00086 0.91572 0.33776 0.0
C477 C 0.97099 0.92573 0.33059 0.0
C478 C 0.01168 0.88961 0.32905 0.0
C479 C 0.99298 0.87315 0.313 0.0
C480 C 0.96321 0.88311 0.3058 0.0
H481 H 0.95299 0.64776 0.26108 0.0
H482 H 0.94827 0.70165 0.27748 0.0
C483 C 0.95249 0.90936 0.31447 0.0
C484 C 0.00267 0.8436 0.30415 0.0
H485 H 0.03808 0.82757 0.26779 0.0
C486 C 0.99285 0.80528 0.31161 0.0
C487 C 0.02048 0.85241 0.28838 0.0
C488 C 0.0342 0.89419 0.28019 0.0
C489 C -0.00111 0.7748 0.30348 0.0
C490 C 0.01437 0.78252 0.28732 0.0
C491 C 0.02573 0.82152 0.2801 0.0
C492 C 0.01762 0.74992 0.2775 0.0
C493 C 0.98871 0.73464 0.31226 0.0
C494 C 0.05802 0.7596 0.27172 0.0
C495 C 0.06074 0.72902 0.26213 0.0
C496 C 0.023 0.68835 0.25806 0.0
C497 C 0.98259 0.67891 0.26385 0.0
C498 C 0.97991 0.70947 0.27341 0.0
H499 H 0.99002 0.73947 0.32594 0.0
H500 H 0.95502 0.70807 0.30821 0.0
H501 H 0.01202 0.72455 0.30927 0.0
H502 H 0.08743 0.79082 0.27463 0.0
H503 H 0.09223 0.73747 0.25768 0.0
H504 H 0.05938 0.94471 0.65066 0.0
H505 H 0.12227 0.9675 0.63375 0.0
H506 H 0.18743 0.09476 0.65719 0.0
H507 H 0.12451 0.07247 0.67406 0.0
H508 H 0.19055 0.09415 0.62235 0.0
H509 H 0.24243 0.98923 0.65084 0.0
H510 H 0.18582 0.96109 0.64331 0.0
H511 H 0.20453 0.00047 0.66021 0.0
C512 C 0.08707 0.97755 0.65224 0.0
C513 C 0.08704 0.00671 0.66377 0.0
C514 C 0.12305 0.99044 0.64262 0.0
C515 C 0.15969 0.0326 0.64443 0.0
C516 C 0.1595 0.06201 0.6557 0.0
H517 H 0.4109 0.10914 0.60454 0.0
H518 H 0.35415 0.10017 0.6227 0.0
C519 C 0.12355 0.04917 0.66533 0.0
C520 C 0.19809 0.04604 0.63445 0.0
H521 H 0.27645 0.0233 0.62629 0.0
C522 C 0.20956 0.0789 0.62326 0.0
C523 C 0.22316 0.02652 0.63588 0.0
C524 C 0.21372 0.99265 0.64832 0.0
C525 C 0.24477 0.09188 0.61308 0.0
C526 C 0.26862 0.07102 0.614 0.0
C527 C 0.2579 0.03904 0.62554 0.0
C528 C 0.30403 0.08082 0.60283 0.0
C529 C 0.25627 0.12792 0.60149 0.0
C530 C 0.2947 0.07329 0.58563 0.0
C531 C 0.32711 0.07866 0.57521 0.0
C532 C 0.36936 0.09136 0.58183 0.0
C533 C 0.37888 0.0999 0.59903 0.0
C534 C 0.34643 0.09452 0.60944 0.0
H535 H 0.24363 0.14835 0.60558 0.0
H536 H 0.29237 0.14863 0.60059 0.0
H537 H 0.24114 0.11396 0.58891 0.0
H538 H 0.26197 0.06196 0.58031 0.0
H539 H 0.31888 0.07216 0.562 0.0
H540 H 0.18499 0.07595 0.00704 0.0
H541 H 0.23123 0.11704 0.98466 0.0
H542 H 0.16672 0.18863 0.98138 0.0
H543 H 0.12164 0.14901 0.00402 0.0
H544 H 0.21715 0.13388 0.95197 0.0
H545 H 0.2945 0.28148 0.99321 0.0
H546 H 0.25884 0.22843 0.00069 0.0
H547 H 0.23604 0.25592 0.99006 0.0
C548 C 0.18024 0.10005 0.0014 0.0
C549 C 0.15004 0.10963 0.00748 0.0
C550 C 0.20662 0.12341 0.9886 0.0
C551 C 0.20297 0.15645 0.98165 0.0
C552 C 0.17067 0.16389 0.98686 0.0
H553 H 0.3368 0.30972 0.89778 0.0
H554 H 0.28267 0.25542 0.91531 0.0
C555 C 0.14474 0.141 -0.00023 0.0
C556 C 0.23516 0.18545 0.96995 0.0
H557 H 0.31422 0.29066 0.96536 0.0
C558 C 0.23849 0.16817 0.95486 0.0
C559 C 0.26343 0.23 0.97394 0.0
C560 C 0.26344 0.25006 0.99042 0.0
C561 C 0.2691 0.19452 0.94351 0.0
C562 C 0.29635 0.23929 0.9473 0.0
C563 C 0.29311 0.25636 0.96244 0.0
C564 C 0.32932 0.26937 0.93603 0.0
C565 C 0.27262 0.17408 0.92777 0.0
C566 C 0.37333 0.29562 0.94193 0.0
C567 C 0.40404 0.32735 0.93214 0.0
C568 C 0.39147 0.3334 0.91616 0.0
C569 C 0.34751 0.30626 0.91009 0.0
C570 C 0.31664 0.27472 0.92 0.0
H571 H 0.25863 0.13898 0.92888 0.0
H572 H 0.25398 0.17832 0.91743 0.0
H573 H 0.30734 0.18944 0.92452 0.0
H574 H 0.38374 0.29223 0.95432 0.0
H575 H 0.43733 0.34809 0.93737 0.0
H576 H 0.04613 0.18917 0.36002 0.0
H577 H 0.06942 0.23901 0.33755 0.0
H578 H 0.04038 0.13586 0.30256 0.0
H579 H 0.01624 0.08522 0.32499 0.0
H580 H 0.13066 0.26328 0.3119 0.0
H581 H 0.95541 0.17548 0.28785 0.0
H582 H 0.97178 0.167 0.30818 0.0
H583 H 0.98093 0.1445 0.29004 0.0
C584 C 0.04528 0.17704 0.3476 0.0
C585 C 0.02845 0.13299 0.34426 0.0
C586 C 0.05887 0.2057 0.33479 0.0
C587 C 0.05587 0.1909 0.3184 0.0
C588 C 0.0423 0.14768 0.31513 0.0
H589 H 0.04353 0.33321 0.23434 0.0
H590 H 0.05099 0.2799 0.24973 0.0
C591 C 0.02866 0.11886 0.32798 0.0
C592 C 0.06212 0.21988 0.30478 0.0
H593 H 0.00402 0.23964 0.27555 0.0
C594 C 0.10322 0.25788 0.30374 0.0
C595 C 0.02618 0.21265 0.29418 0.0
C596 C 0.98095 0.1729 0.2951 0.0
C597 C 0.109 0.28956 0.29269 0.0
C598 C 0.07247 0.28331 0.28273 0.0
C599 C 0.03197 0.24436 0.28321 0.0
C600 C 0.07402 0.3179 0.27286 0.0
C601 C 0.15396 0.32963 0.29197 0.0
C602 C 0.08474 0.35705 0.28073 0.0
C603 C 0.08048 0.38749 0.27198 0.0
C604 C 0.0648 0.37903 0.25526 0.0
C605 C 0.05517 0.34031 0.24728 0.0
C606 C 0.0597 0.31001 0.25601 0.0
H607 H 0.18017 0.32318 0.29557 0.0
H608 H 0.15945 0.34261 0.27936 0.0
H609 H 0.15704 0.35466 0.30085 0.0
H610 H 0.0946 0.36332 0.29384 0.0
H611 H 0.08763 0.41681 0.27849 0.0
loop_
_geom_bond_atom_site_label_1
_geom_bond_atom_site_label_2
_geom_bond_distance
_geom_bond_site_symmetry_2
_ccdc_geom_bond_type
Mg0 O1 2.028 . S
Mg0 O7 1.986 . S
Mg0 O9 2.114 . S
Mg0 O10 2.251 . S
Mg0 O13 2.010 . S
O1 Mg0 2.028 . S
O1 C4 1.246 1_455 S
O2 Mg3 2.028 . S
O2 C4 1.250 1_455 S
Mg3 O2 2.028 . S
Mg3 O8 2.032 . S
Mg3 O10 2.079 . S
C4 O1 1.246 1_655 S
C4 O2 1.250 1_655 S
C5 O6 1.264 1_565 S
C5 O13 1.249 1_565 S
O6 C5 1.264 1_545 S
O7 Mg0 1.986 . S
O7 C11 1.246 . S
O8 Mg3 2.032 . S
O8 C11 1.259 . S
O9 Mg0 2.114 . S
O9 C12 1.252 . S
O10 Mg0 2.251 . S
O10 Mg3 2.079 . S
O10 C12 1.273 . S
C11 O7 1.246 . S
C11 O8 1.259 . S
C12 O9 1.252 . S
C12 O10 1.273 . S
O13 Mg0 2.010 . S
O13 C5 1.249 1_545 S
Mg14 O15 2.028 1_655 S
Mg14 O21 1.986 1_655 S
Mg14 O23 2.114 1_545 S
Mg14 O24 2.251 . S
Mg14 O27 2.010 1_545 S
O15 Mg14 2.028 1_455 S
O15 C18 1.250 . S
O16 Mg17 2.028 . S
O16 C18 1.248 . S
Mg17 O16 2.028 . S
Mg17 O22 2.032 . S
Mg17 O24 2.079 1_455 S
C18 O15 1.250 . S
C18 O16 1.248 . S
C19 O20 1.264 . S
C19 O27 1.249 . S
O20 C19 1.264 . S
O21 Mg14 1.986 1_455 S
O21 C25 1.246 . S
O22 Mg17 2.032 . S
O22 C25 1.259 . S
O23 Mg14 2.114 1_565 S
O23 C26 1.252 1_565 S
O24 Mg14 2.251 . S
O24 Mg17 2.079 1_655 S
O24 C26 1.273 . S
C25 O21 1.246 . S
C25 O22 1.259 . S
C26 O23 1.252 1_545 S
C26 O24 1.273 . S
O27 Mg14 2.010 1_565 S
O27 C19 1.249 . S
Mg28 O29 2.028 . S
Mg28 O35 1.986 1_455 S
Mg28 O37 2.114 1_545 S
Mg28 O38 2.251 1_445 S
Mg28 O41 2.010 1_545 S
O29 Mg28 2.028 . S
O29 C32 1.250 . S
O30 Mg31 2.028 1_455 S
O30 C32 1.248 . S
Mg31 O30 2.028 1_655 S
Mg31 O36 2.032 . S
Mg31 O38 2.079 1_545 S
C32 O29 1.250 . S
C32 O30 1.248 . S
C33 O34 1.264 . S
C33 O41 1.249 . S
O34 C33 1.264 . S
O35 Mg28 1.986 1_655 S
O35 C39 1.246 . S
O36 Mg31 2.032 . S
O36 C39 1.259 . S
O37 Mg28 2.114 1_565 S
O37 C40 1.252 1_455 S
O38 Mg28 2.251 1_665 S
O38 Mg31 2.079 1_565 S
O38 C40 1.273 . S
C39 O35 1.246 . S
C39 O36 1.259 . S
C40 O37 1.252 1_655 S
C40 O38 1.273 . S
O41 Mg28 2.010 1_565 S
O41 C33 1.249 . S
C42 C43 1.384 1_655 S
C42 C44 1.384 1_655 S
C42 H70 0.931 . S
C43 C42 1.384 1_455 S
C43 C46 1.382 . S
C44 C42 1.384 1_455 S
C44 C45 1.381 . S
C44 H71 0.930 1_455 S
C45 C44 1.381 . S
C45 C47 1.381 . S
C45 C48 1.487 . S
C46 C43 1.382 . S
C46 C47 1.387 . S
C46 H72 0.930 . S
C47 C45 1.381 . S
C47 C46 1.387 . S
C47 H73 0.931 . S
C48 C45 1.487 . S
C48 C55 1.399 . S
C48 N86 1.343 . S
C49 C50 1.384 . S
C49 C51 1.384 . S
C49 H74 0.931 . S
C50 C49 1.384 . S
C50 C53 1.382 . S
C51 C49 1.384 . S
C51 C52 1.381 . S
C51 H75 0.930 . S
C52 C51 1.381 . S
C52 C54 1.381 . S
C52 C55 1.487 . S
C53 C50 1.382 . S
C53 C54 1.387 . S
C53 H76 0.930 1_455 S
C54 C52 1.381 . S
C54 C53 1.387 . S
C54 H77 0.931 1_455 S
C55 C48 1.399 . S
C55 C52 1.487 . S
C55 N87 1.343 . S
C56 C57 1.384 . S
C56 C58 1.384 . S
C56 H78 0.931 . S
C57 C56 1.384 . S
C57 C60 1.382 . S
C58 C56 1.384 . S
C58 C59 1.381 . S
C58 H79 0.930 . S
C59 C58 1.381 . S
C59 C61 1.381 . S
C59 C62 1.487 . S
C60 C57 1.382 . S
C60 C61 1.387 . S
C60 H80 0.930 1_455 S
C61 C59 1.381 . S
C61 C60 1.387 . S
C61 H81 0.931 1_455 S
C62 C59 1.487 . S
C62 C69 1.399 . S
C62 N87 1.343 . S
C63 C64 1.384 1_655 S
C63 C65 1.384 1_655 S
C63 H82 0.931 . S
C64 C63 1.384 1_455 S
C64 C67 1.382 . S
C65 C63 1.384 1_455 S
C65 C66 1.381 . S
C65 H83 0.930 1_455 S
C66 C65 1.381 . S
C66 C68 1.381 . S
C66 C69 1.487 . S
C67 C64 1.382 . S
C67 C68 1.387 . S
C67 H84 0.930 . S
C68 C66 1.381 . S
C68 C67 1.387 . S
C68 H85 0.931 . S
C69 C62 1.399 . S
C69 C66 1.487 . S
C69 N86 1.343 . S
H70 C42 0.931 . S
H71 C44 0.930 1_655 S
H72 C46 0.930 . S
H73 C47 0.931 . S
H74 C49 0.931 . S
H75 C51 0.930 . S
H76 C53 0.930 1_655 S
H77 C54 0.931 1_655 S
H78 C56 0.931 . S
H79 C58 0.930 . S
H80 C60 0.930 1_655 S
H81 C61 0.931 1_655 S
H82 C63 0.931 . S
H83 C65 0.930 1_655 S
H84 C67 0.930 . S
H85 C68 0.931 . S
N86 C48 1.343 . S
N86 C69 1.343 . S
N87 C55 1.343 . S
N87 C62 1.343 . S
C88 C89 1.384 . S
C88 C90 1.384 . S
C88 H116 0.931 . S
C89 C88 1.384 . S
C89 C92 1.382 . S
C90 C88 1.384 . S
C90 C91 1.381 . S
C90 H117 0.930 . S
C91 C90 1.381 . S
C91 C93 1.381 . S
C91 C94 1.487 . S
C92 C89 1.382 . S
C92 C93 1.387 . S
C92 H118 0.930 . S
C93 C91 1.381 . S
C93 C92 1.387 . S
C93 H119 0.931 . S
C94 C91 1.487 . S
C94 C101 1.399 . S
C94 N132 1.343 . S
C95 C96 1.384 . S
C95 C97 1.384 . S
C95 H120 0.931 . S
C96 C95 1.384 . S
C96 C99 1.382 . S
C97 C95 1.384 . S
C97 C98 1.381 . S
C97 H121 0.930 . S
C98 C97 1.381 . S
C98 C100 1.381 . S
C98 C101 1.487 . S
C99 C96 1.382 . S
C99 C100 1.387 . S
C99 H122 0.930 . S
C100 C98 1.381 . S
C100 C99 1.387 . S
C100 H123 0.931 . S
C101 C94 1.399 . S
C101 C98 1.487 . S
C101 N133 1.343 . S
C102 C103 1.384 . S
C102 C104 1.384 . S
C102 H124 0.931 . S
C103 C102 1.384 . S
C103 C106 1.382 . S
C104 C102 1.384 . S
C104 C105 1.381 . S
C104 H125 0.930 . S
C105 C104 1.381 . S
C105 C107 1.381 . S
C105 C108 1.487 . S
C106 C103 1.382 . S
C106 C107 1.387 . S
C106 H126 0.930 . S
C107 C105 1.381 . S
C107 C106 1.387 . S
C107 H127 0.931 . S
C108 C105 1.487 . S
C108 C115 1.399 . S
C108 N133 1.343 . S
C109 C110 1.384 . S
C109 C111 1.384 . S
C109 H128 0.931 . S
C110 C109 1.384 . S
C110 C113 1.382 . S
C111 C109 1.384 . S
C111 C112 1.381 . S
C111 H129 0.930 . S
C112 C111 1.381 . S
C112 C114 1.381 . S
C112 C115 1.487 . S
C113 C110 1.382 . S
C113 C114 1.387 . S
C113 H130 0.930 . S
C114 C112 1.381 . S
C114 C113 1.387 . S
C114 H131 0.931 . S
C115 C108 1.399 . S
C115 C112 1.487 . S
C115 N132 1.343 . S
H116 C88 0.931 . S
H117 C90 0.930 . S
H118 C92 0.930 . S
H119 C93 0.931 . S
H120 C95 0.931 . S
H121 C97 0.930 . S
H122 C99 0.930 . S
H123 C100 0.931 . S
H124 C102 0.931 . S
H125 C104 0.930 . S
H126 C106 0.930 . S
H127 C107 0.931 . S
H128 C109 0.931 . S
H129 C111 0.930 . S
H130 C113 0.930 . S
H131 C114 0.931 . S
N132 C94 1.343 . S
N132 C115 1.343 . S
N133 C101 1.343 . S
N133 C108 1.343 . S
C134 C135 1.384 . S
C134 C136 1.384 . S
C134 H162 0.931 . S
C135 C134 1.384 . S
C135 C138 1.382 . S
C136 C134 1.384 . S
C136 C137 1.381 . S
C136 H163 0.930 . S
C137 C136 1.381 . S
C137 C139 1.381 . S
C137 C140 1.487 . S
C138 C135 1.382 . S
C138 C139 1.387 . S
C138 H164 0.930 . S
C139 C137 1.381 . S
C139 C138 1.387 . S
C139 H165 0.931 . S
C140 C137 1.487 . S
C140 C147 1.399 . S
C140 N178 1.343 . S
C141 C142 1.384 . S
C141 C143 1.384 . S
C141 H166 0.931 . S
C142 C141 1.384 . S
C142 C145 1.382 . S
C143 C141 1.384 . S
C143 C144 1.381 . S
C143 H167 0.930 . S
C144 C143 1.381 . S
C144 C146 1.381 . S
C144 C147 1.487 . S
C145 C142 1.382 . S
C145 C146 1.387 . S
C145 H168 0.930 . S
C146 C144 1.381 . S
C146 C145 1.387 . S
C146 H169 0.931 . S
C147 C140 1.399 . S
C147 C144 1.487 . S
C147 N179 1.343 . S
C148 C149 1.384 . S
C148 C150 1.384 . S
C148 H170 0.931 . S
C149 C148 1.384 . S
C149 C152 1.382 . S
C150 C148 1.384 . S
C150 C151 1.381 . S
C150 H171 0.930 . S
C151 C150 1.381 . S
C151 C153 1.381 . S
C151 C154 1.487 . S
C152 C149 1.382 . S
C152 C153 1.387 . S
C152 H172 0.930 . S
C153 C151 1.381 . S
C153 C152 1.387 . S
C153 H173 0.931 . S
C154 C151 1.487 . S
C154 C161 1.399 . S
C154 N179 1.343 . S
C155 C156 1.384 . S
C155 C157 1.384 . S
C155 H174 0.931 . S
C156 C155 1.384 . S
C156 C159 1.382 . S
C157 C155 1.384 . S
C157 C158 1.381 . S
C157 H175 0.930 . S
C158 C157 1.381 . S
C158 C160 1.381 . S
C158 C161 1.487 . S
C159 C156 1.382 . S
C159 C160 1.387 . S
C159 H176 0.930 . S
C160 C158 1.381 . S
C160 C159 1.387 . S
C160 H177 0.931 . S
C161 C154 1.399 . S
C161 C158 1.487 . S
C161 N178 1.343 . S
H162 C134 0.931 . S
H163 C136 0.930 . S
H164 C138 0.930 . S
H165 C139 0.931 . S
H166 C141 0.931 . S
H167 C143 0.930 . S
H168 C145 0.930 . S
H169 C146 0.931 . S
H170 C148 0.931 . S
H171 C150 0.930 . S
H172 C152 0.930 . S
H173 C153 0.931 . S
H174 C155 0.931 . S
H175 C157 0.930 . S
H176 C159 0.930 . S
H177 C160 0.931 . S
N178 C140 1.343 . S
N178 C161 1.343 . S
N179 C147 1.343 . S
N179 C154 1.343 . S
H180 C188 0.929 . S
H181 C190 0.930 . S
H182 C192 0.930 . S
H183 C195 0.929 . S
H184 C198 0.930 . S
H185 C200 0.960 . S
H186 C200 0.960 . S
H187 C200 0.960 . S
C188 H180 0.929 . S
C188 C189 1.377 . S
C188 C190 1.384 . S
C189 C188 1.377 . S
C189 C195 1.390 . S
C190 H181 0.930 . S
C190 C188 1.384 . S
C190 C191 1.372 . S
C191 C190 1.372 . S
C191 C192 1.400 . S
C191 C196 1.490 . S
C192 H182 0.930 . S
C192 C191 1.400 . S
C192 C195 1.386 . S
H193 C209 0.930 . S
H194 C210 0.931 . S
C195 H183 0.929 . S
C195 C189 1.390 . S
C195 C192 1.386 . S
C196 C191 1.490 . S
C196 C198 1.395 . S
C196 C199 1.390 1_455 S
H197 C203 0.930 1_655 S
C198 H184 0.930 . S
C198 C196 1.395 . S
C198 C201 1.403 . S
C199 C196 1.390 1_655 S
C199 C200 1.532 . S
C199 C203 1.404 1_655 S
C200 H185 0.960 . S
C200 H186 0.960 . S
C200 H187 0.960 . S
C200 C199 1.532 . S
C201 C198 1.403 . S
C201 C202 1.392 . S
C201 C205 1.495 . S
C202 C201 1.392 . S
C202 C203 1.385 . S
C202 C204 1.478 . S
C203 H197 0.930 1_455 S
C203 C199 1.404 1_455 S
C203 C202 1.385 . S
C204 C202 1.478 . S
C204 C206 1.381 . S
C204 C210 1.383 . S
C205 C201 1.495 . S
C205 H211 0.959 . S
C205 H212 0.961 . S
C205 H213 0.960 . S
C206 C204 1.381 . S
C206 C207 1.394 . S
C206 H214 0.930 . S
C207 C206 1.394 . S
C207 C208 1.383 . S
C207 H215 0.929 . S
C208 C207 1.383 . S
C208 C209 1.377 . S
C209 H193 0.930 . S
C209 C208 1.377 . S
C209 C210 1.379 . S
C210 H194 0.931 . S
C210 C204 1.383 . S
C210 C209 1.379 . S
H211 C205 0.959 . S
H212 C205 0.961 . S
H213 C205 0.960 . S
H214 C206 0.930 . S
H215 C207 0.929 . S
H216 C224 0.929 . S
H217 C226 0.930 . S
H218 C228 0.930 . S
H219 C231 0.929 . S
H220 C234 0.930 . S
H221 C236 0.960 . S
H222 C236 0.960 1_565 S
H223 C236 0.960 . S
C224 H216 0.929 . S
C224 C225 1.377 1_565 S
C224 C226 1.384 . S
C225 C224 1.377 1_545 S
C225 C231 1.390 . S
C226 H217 0.930 . S
C226 C224 1.384 . S
C226 C227 1.372 1_565 S
C227 C226 1.372 1_545 S
C227 C228 1.400 . S
C227 C232 1.490 . S
C228 H218 0.930 . S
C228 C227 1.400 . S
C228 C231 1.386 . S
H229 C245 0.930 . S
H230 C246 0.931 . S
C231 H219 0.929 . S
C231 C225 1.390 . S
C231 C228 1.386 . S
C232 C227 1.490 . S
C232 C234 1.395 . S
C232 C235 1.403 . S
H233 C239 0.930 . S
C234 H220 0.930 . S
C234 C232 1.395 . S
C234 C237 1.403 . S
C235 C232 1.403 . S
C235 C236 1.524 . S
C235 C239 1.400 . S
C236 H221 0.960 . S
C236 H222 0.960 1_545 S
C236 H223 0.960 . S
C236 C235 1.524 . S
C237 C234 1.403 . S
C237 C238 1.392 . S
C237 C241 1.495 . S
C238 C237 1.392 . S
C238 C239 1.385 . S
C238 C240 1.478 . S
C239 H233 0.930 . S
C239 C235 1.400 . S
C239 C238 1.385 . S
C240 C238 1.478 . S
C240 C242 1.381 . S
C240 C246 1.383 . S
C241 C237 1.495 . S
C241 H247 0.959 . S
C241 H248 0.961 . S
C241 H249 0.960 . S
C242 C240 1.381 . S
C242 C243 1.394 . S
C242 H250 0.930 1_545 S
C243 C242 1.394 . S
C243 C244 1.383 . S
C243 H251 0.929 1_545 S
C244 C243 1.383 . S
C244 C245 1.377 . S
C245 H229 0.930 . S
C245 C244 1.377 . S
C245 C246 1.379 . S
C246 H230 0.931 . S
C246 C240 1.383 . S
C246 C245 1.379 . S
H247 C241 0.959 . S
H248 C241 0.961 . S
H249 C241 0.960 . S
H250 C242 0.930 1_565 S
H251 C243 0.929 1_565 S
H252 C260 0.929 . S
H253 C262 0.930 . S
H254 C264 0.930 . S
H255 C267 0.929 . S
H256 C270 0.930 . S
H257 C272 0.960 . S
H258 C272 0.960 . S
H259 C272 0.960 . S
C260 H252 0.929 . S
C260 C261 1.377 . S
C260 C262 1.384 . S
C261 C260 1.377 . S
C261 C267 1.390 . S
C262 H253 0.930 . S
C262 C260 1.384 . S
C262 C263 1.372 . S
C263 C262 1.372 . S
C263 C264 1.400 . S
C263 C268 1.490 . S
C264 H254 0.930 . S
C264 C263 1.400 . S
C264 C267 1.386 . S
H265 C281 0.930 . S
H266 C282 0.931 . S
C267 H255 0.929 . S
C267 C261 1.390 . S
C267 C264 1.386 . S
C268 C263 1.490 . S
C268 C270 1.395 . S
C268 C271 1.403 . S
H269 C275 0.930 . S
C270 H256 0.930 . S
C270 C268 1.395 . S
C270 C273 1.403 . S
C271 C268 1.403 . S
C271 C272 1.524 . S
C271 C275 1.400 . S
C272 H257 0.960 . S
C272 H258 0.960 . S
C272 H259 0.960 . S
C272 C271 1.524 . S
C273 C270 1.403 . S
C273 C274 1.392 . S
C273 C277 1.495 . S
C274 C273 1.392 . S
C274 C275 1.385 . S
C274 C276 1.478 . S
C275 H269 0.930 . S
C275 C271 1.400 . S
C275 C274 1.385 . S
C276 C274 1.478 . S
C276 C278 1.381 . S
C276 C282 1.383 . S
C277 C273 1.495 . S
C277 H283 0.959 . S
C277 H284 0.961 . S
C277 H285 0.960 . S
C278 C276 1.381 . S
C278 C279 1.394 . S
C278 H286 0.930 . S
C279 C278 1.394 . S
C279 C280 1.383 . S
C279 H287 0.929 . S
C280 C279 1.383 . S
C280 C281 1.377 . S
C281 H265 0.930 . S
C281 C280 1.377 . S
C281 C282 1.379 . S
C282 H266 0.931 . S
C282 C276 1.383 . S
C282 C281 1.379 . S
H283 C277 0.959 . S
H284 C277 0.961 . S
H285 C277 0.960 . S
H286 C278 0.930 . S
H287 C279 0.929 . S
H288 C296 0.929 . S
H289 C298 0.930 . S
H290 C300 0.930 . S
H291 C303 0.929 . S
H292 C306 0.930 . S
H293 C308 0.960 . S
H294 C308 0.960 . S
H295 C308 0.960 . S
C296 H288 0.929 . S
C296 C297 1.377 . S
C296 C298 1.384 . S
C297 C296 1.377 . S
C297 C303 1.390 . S
C298 H289 0.930 . S
C298 C296 1.384 . S
C298 C299 1.372 . S
C299 C298 1.372 . S
C299 C300 1.400 . S
C299 C304 1.490 . S
C300 H290 0.930 . S
C300 C299 1.400 . S
C300 C303 1.386 . S
H301 C317 0.930 . S
H302 C318 0.931 . S
C303 H291 0.929 . S
C303 C297 1.390 . S
C303 C300 1.386 . S
C304 C299 1.490 . S
C304 C306 1.395 . S
C304 C307 1.403 . S
H305 C311 0.930 . S
C306 H292 0.930 . S
C306 C304 1.395 . S
C306 C309 1.403 . S
C307 C304 1.403 . S
C307 C308 1.524 . S
C307 C311 1.400 . S
C308 H293 0.960 . S
C308 H294 0.960 . S
C308 H295 0.960 . S
C308 C307 1.524 . S
C309 C306 1.403 . S
C309 C310 1.392 . S
C309 C313 1.495 1_455 S
C310 C309 1.392 . S
C310 C311 1.385 . S
C310 C312 1.478 . S
C311 H305 0.930 . S
C311 C307 1.400 . S
C311 C310 1.385 . S
C312 C310 1.478 . S
C312 C314 1.381 . S
C312 C318 1.383 . S
C313 C309 1.495 1_655 S
C313 H319 0.959 . S
C313 H320 0.961 . S
C313 H321 0.960 . S
C314 C312 1.381 . S
C314 C315 1.394 . S
C314 H322 0.930 . S
C315 C314 1.394 . S
C315 C316 1.383 . S
C315 H323 0.929 . S
C316 C315 1.383 . S
C316 C317 1.377 . S
C317 H301 0.930 . S
C317 C316 1.377 . S
C317 C318 1.379 . S
C318 H302 0.931 . S
C318 C312 1.383 . S
C318 C317 1.379 . S
H319 C313 0.959 . S
H320 C313 0.961 . S
H321 C313 0.960 . S
H322 C314 0.930 . S
H323 C315 0.929 . S
H324 C332 0.929 . S
H325 C334 0.930 . S
H326 C336 0.930 . S
H327 C339 0.929 . S
H328 C342 0.930 . S
H329 C344 0.960 . S
H330 C344 0.960 . S
H331 C344 0.960 . S
C332 H324 0.929 . S
C332 C333 1.377 . S
C332 C334 1.384 . S
C333 C332 1.377 . S
C333 C339 1.390 . S
C334 H325 0.930 . S
C334 C332 1.384 . S
C334 C335 1.372 . S
C335 C334 1.372 . S
C335 C336 1.400 . S
C335 C340 1.490 . S
C336 H326 0.930 . S
C336 C335 1.400 . S
C336 C339 1.386 . S
H337 C353 0.930 . S
H338 C354 0.931 . S
C339 H327 0.929 . S
C339 C333 1.390 . S
C339 C336 1.386 . S
C340 C335 1.490 . S
C340 C342 1.395 . S
C340 C343 1.403 . S
H341 C347 0.930 1_565 S
C342 H328 0.930 . S
C342 C340 1.395 . S
C342 C345 1.403 . S
C343 C340 1.403 . S
C343 C344 1.524 1_545 S
C343 C347 1.400 . S
C344 H329 0.960 . S
C344 H330 0.960 . S
C344 H331 0.960 . S
C344 C343 1.524 1_565 S
C345 C342 1.403 . S
C345 C346 1.392 . S
C345 C349 1.495 . S
C346 C345 1.392 . S
C346 C347 1.385 . S
C346 C348 1.478 . S
C347 H341 0.930 1_545 S
C347 C343 1.400 . S
C347 C346 1.385 . S
C348 C346 1.478 . S
C348 C350 1.381 . S
C348 C354 1.383 . S
C349 C345 1.495 . S
C349 H355 0.959 . S
C349 H356 0.961 . S
C349 H357 0.960 . S
C350 C348 1.381 . S
C350 C351 1.394 . S
C350 H358 0.930 . S
C351 C350 1.394 . S
C351 C352 1.383 . S
C351 H359 0.929 . S
C352 C351 1.383 . S
C352 C353 1.377 . S
C353 H337 0.930 . S
C353 C352 1.377 . S
C353 C354 1.379 . S
C354 H338 0.931 . S
C354 C348 1.383 . S
C354 C353 1.379 . S
H355 C349 0.959 . S
H356 C349 0.961 . S
H357 C349 0.960 . S
H358 C350 0.930 . S
H359 C351 0.929 . S
H360 C368 0.929 . S
H361 C370 0.930 . S
H362 C372 0.930 . S
H363 C375 0.929 . S
H364 C378 0.930 . S
H365 C380 0.960 . S
H366 C380 0.960 . S
H367 C380 0.960 . S
C368 H360 0.929 . S
C368 C369 1.377 . S
C368 C370 1.384 . S
C369 C368 1.377 . S
C369 C375 1.390 . S
C370 H361 0.930 . S
C370 C368 1.384 . S
C370 C371 1.372 . S
C371 C370 1.372 . S
C371 C372 1.400 . S
C371 C376 1.490 . S
C372 H362 0.930 . S
C372 C371 1.400 . S
C372 C375 1.386 . S
H373 C389 0.930 . S
H374 C390 0.931 . S
C375 H363 0.929 . S
C375 C369 1.390 . S
C375 C372 1.386 . S
C376 C371 1.490 . S
C376 C378 1.395 . S
C376 C379 1.403 . S
H377 C383 0.930 . S
C378 H364 0.930 . S
C378 C376 1.395 . S
C378 C381 1.403 . S
C379 C376 1.403 . S
C379 C380 1.524 . S
C379 C383 1.400 . S
C380 H365 0.960 . S
C380 H366 0.960 . S
C380 H367 0.960 . S
C380 C379 1.524 . S
C381 C378 1.403 . S
C381 C382 1.392 . S
C381 C385 1.495 . S
C382 C381 1.392 . S
C382 C383 1.385 . S
C382 C384 1.478 . S
C383 H377 0.930 . S
C383 C379 1.400 . S
C383 C382 1.385 . S
C384 C382 1.478 . S
C384 C386 1.381 . S
C384 C390 1.383 . S
C385 C381 1.495 . S
C385 H391 0.959 . S
C385 H392 0.961 . S
C385 H393 0.960 . S
C386 C384 1.381 . S
C386 C387 1.394 . S
C386 H394 0.930 . S
C387 C386 1.394 . S
C387 C388 1.383 . S
C387 H395 0.929 . S
C388 C387 1.383 . S
C388 C389 1.377 . S
C389 H373 0.930 . S
C389 C388 1.377 . S
C389 C390 1.379 . S
C390 H374 0.931 . S
C390 C384 1.383 . S
C390 C389 1.379 . S
H391 C385 0.959 . S
H392 C385 0.961 . S
H393 C385 0.960 . S
H394 C386 0.930 . S
H395 C387 0.929 . S
H396 C404 0.929 1_565 S
H397 C406 0.930 1_565 S
H398 C408 0.930 . S
H399 C411 0.929 . S
H400 C414 0.930 . S
H401 C416 0.960 . S
H402 C416 0.960 . S
H403 C416 0.960 . S
C404 H396 0.929 1_545 S
C404 C405 1.377 . S
C404 C406 1.384 . S
C405 C404 1.377 . S
C405 C411 1.390 . S
C406 H397 0.930 1_545 S
C406 C404 1.384 . S
C406 C407 1.372 . S
C407 C406 1.372 . S
C407 C408 1.400 . S
C407 C412 1.490 . S
C408 H398 0.930 . S
C408 C407 1.400 . S
C408 C411 1.386 . S
H409 C425 0.930 . S
H410 C426 0.931 . S
C411 H399 0.929 . S
C411 C405 1.390 . S
C411 C408 1.386 . S
C412 C407 1.490 . S
C412 C414 1.395 . S
C412 C415 1.403 . S
H413 C419 0.930 . S
C414 H400 0.930 . S
C414 C412 1.395 . S
C414 C417 1.403 . S
C415 C412 1.403 . S
C415 C416 1.524 . S
C415 C419 1.400 . S
C416 H401 0.960 . S
C416 H402 0.960 . S
C416 H403 0.960 . S
C416 C415 1.524 . S
C417 C414 1.403 . S
C417 C418 1.392 . S
C417 C421 1.495 . S
C418 C417 1.392 . S
C418 C419 1.385 . S
C418 C420 1.478 . S
C419 H413 0.930 . S
C419 C415 1.400 . S
C419 C418 1.385 . S
C420 C418 1.478 . S
C420 C422 1.381 . S
C420 C426 1.383 . S
C421 C417 1.495 . S
C421 H427 0.959 . S
C421 H428 0.961 . S
C421 H429 0.960 1_545 S
C422 C420 1.381 . S
C422 C423 1.394 . S
C422 H430 0.930 1_545 S
C423 C422 1.394 . S
C423 C424 1.383 . S
C423 H431 0.929 1_545 S
C424 C423 1.383 . S
C424 C425 1.377 . S
C425 H409 0.930 . S
C425 C424 1.377 . S
C425 C426 1.379 . S
C426 H410 0.931 . S
C426 C420 1.383 . S
C426 C425 1.379 . S
H427 C421 0.959 . S
H428 C421 0.961 . S
H429 C421 0.960 1_565 S
H430 C422 0.930 1_565 S
H431 C423 0.929 1_565 S
H432 C440 0.928 1_456 S
H433 C442 0.930 . S
H434 C444 0.930 . S
H435 C447 0.929 . S
H436 C450 0.930 . S
H437 C452 0.960 . S
H438 C452 0.960 . S
H439 C452 0.960 . S
C440 H432 0.928 1_654 S
C440 C441 1.377 . S
C440 C442 1.384 1_554 S
C441 C440 1.377 . S
C441 C447 1.390 . S
C442 H433 0.930 . S
C442 C440 1.384 1_556 S
C442 C443 1.372 . S
C443 C442 1.372 . S
C443 C444 1.400 1_556 S
C443 C448 1.490 . S
C444 H434 0.930 . S
C444 C443 1.400 1_554 S
C444 C447 1.386 . S
H445 C461 0.930 . S
H446 C462 0.931 . S
C447 H435 0.929 . S
C447 C441 1.390 . S
C447 C444 1.386 . S
C448 C443 1.490 . S
C448 C450 1.395 . S
C448 C451 1.403 . S
H449 C455 0.930 . S
C450 H436 0.930 . S
C450 C448 1.395 . S
C450 C453 1.403 . S
C451 C448 1.403 . S
C451 C452 1.524 . S
C451 C455 1.400 . S
C452 H437 0.960 . S
C452 H438 0.960 . S
C452 H439 0.960 . S
C452 C451 1.524 . S
C453 C450 1.403 . S
C453 C454 1.392 . S
C453 C457 1.495 . S
C454 C453 1.392 . S
C454 C455 1.385 . S
C454 C456 1.478 . S
C455 H449 0.930 . S
C455 C451 1.400 . S
C455 C454 1.385 . S
C456 C454 1.478 . S
C456 C458 1.381 . S
C456 C462 1.383 . S
C457 C453 1.495 . S
C457 H463 0.959 . S
C457 H464 0.961 . S
C457 H465 0.960 . S
C458 C456 1.381 . S
C458 C459 1.394 . S
C458 H466 0.930 . S
C459 C458 1.394 . S
C459 C460 1.383 . S
C459 H467 0.929 . S
C460 C459 1.383 . S
C460 C461 1.377 . S
C461 H445 0.930 . S
C461 C460 1.377 . S
C461 C462 1.379 . S
C462 H446 0.931 . S
C462 C456 1.383 . S
C462 C461 1.379 . S
H463 C457 0.959 . S
H464 C457 0.961 . S
H465 C457 0.960 . S
H466 C458 0.930 . S
H467 C459 0.929 . S
H468 C476 0.929 . S
H469 C478 0.930 . S
H470 C480 0.930 . S
H471 C483 0.929 . S
H472 C486 0.929 1_655 S
H473 C488 0.960 . S
H474 C488 0.960 . S
H475 C488 0.960 1_655 S
C476 H468 0.929 . S
C476 C477 1.377 1_455 S
C476 C478 1.384 . S
C477 C476 1.377 1_655 S
C477 C483 1.390 . S
C478 H469 0.930 . S
C478 C476 1.384 . S
C478 C479 1.372 1_455 S
C479 C478 1.372 1_655 S
C479 C480 1.400 . S
C479 C484 1.490 1_655 S
C480 H470 0.930 . S
C480 C479 1.400 . S
C480 C483 1.386 . S
H481 C497 0.930 . S
H482 C498 0.931 . S
C483 H471 0.929 . S
C483 C477 1.390 . S
C483 C480 1.386 . S
C484 C479 1.490 1_455 S
C484 C486 1.390 . S
C484 C487 1.403 . S
H485 C491 0.930 . S
C486 H472 0.929 1_455 S
C486 C484 1.390 . S
C486 C489 1.409 . S
C487 C484 1.403 . S
C487 C488 1.524 . S
C487 C491 1.400 . S
C488 H473 0.960 . S
C488 H474 0.960 . S
C488 H475 0.960 1_455 S
C488 C487 1.524 . S
C489 C486 1.409 . S
C489 C490 1.392 . S
C489 C493 1.495 . S
C490 C489 1.392 . S
C490 C491 1.385 . S
C490 C492 1.478 . S
C491 H485 0.930 . S
C491 C487 1.400 . S
C491 C490 1.385 . S
C492 C490 1.478 . S
C492 C494 1.381 . S
C492 C498 1.383 1_455 S
C493 C489 1.495 . S
C493 H499 0.959 1_455 S
C493 H500 0.961 1_455 S
C493 H501 0.960 . S
C494 C492 1.381 . S
C494 C495 1.394 . S
C494 H502 0.930 . S
C495 C494 1.394 . S
C495 C496 1.383 . S
C495 H503 0.929 . S
C496 C495 1.383 . S
C496 C497 1.377 1_455 S
C497 H481 0.930 . S
C497 C496 1.377 1_655 S
C497 C498 1.379 . S
C498 H482 0.931 . S
C498 C492 1.383 1_655 S
C498 C497 1.379 . S
H499 C493 0.959 1_655 S
H500 C493 0.961 1_655 S
H501 C493 0.960 . S
H502 C494 0.930 . S
H503 C495 0.929 . S
H504 C512 0.929 . S
H505 C514 0.930 . S
H506 C516 0.930 . S
H507 C519 0.929 . S
H508 C522 0.930 . S
H509 C524 0.960 . S
H510 C524 0.960 . S
H511 C524 0.960 1_545 S
C512 H504 0.929 . S
C512 C513 1.377 1_565 S
C512 C514 1.384 . S
C513 C512 1.377 1_545 S
C513 C519 1.390 . S
C514 H505 0.930 . S
C514 C512 1.384 . S
C514 C515 1.372 1_565 S
C515 C514 1.372 1_545 S
C515 C516 1.400 . S
C515 C520 1.490 . S
C516 H506 0.930 . S
C516 C515 1.400 . S
C516 C519 1.386 . S
H517 C533 0.930 . S
H518 C534 0.931 . S
C519 H507 0.929 . S
C519 C513 1.390 . S
C519 C516 1.386 . S
C520 C515 1.490 . S
C520 C522 1.395 . S
C520 C523 1.403 . S
H521 C527 0.930 . S
C522 H508 0.930 . S
C522 C520 1.395 . S
C522 C525 1.403 . S
C523 C520 1.403 . S
C523 C524 1.524 1_545 S
C523 C527 1.400 . S
C524 H509 0.960 . S
C524 H510 0.960 . S
C524 H511 0.960 1_565 S
C524 C523 1.524 1_565 S
C525 C522 1.403 . S
C525 C526 1.392 . S
C525 C529 1.495 . S
C526 C525 1.392 . S
C526 C527 1.385 . S
C526 C528 1.478 . S
C527 H521 0.930 . S
C527 C523 1.400 . S
C527 C526 1.385 . S
C528 C526 1.478 . S
C528 C530 1.381 . S
C528 C534 1.383 . S
C529 C525 1.495 . S
C529 H535 0.959 . S
C529 H536 0.961 . S
C529 H537 0.960 . S
C530 C528 1.381 . S
C530 C531 1.394 . S
C530 H538 0.930 . S
C531 C530 1.394 . S
C531 C532 1.383 . S
C531 H539 0.929 . S
C532 C531 1.383 . S
C532 C533 1.377 . S
C533 H517 0.930 . S
C533 C532 1.377 . S
C533 C534 1.379 . S
C534 H518 0.931 . S
C534 C528 1.383 . S
C534 C533 1.379 . S
H535 C529 0.959 . S
H536 C529 0.961 . S
H537 C529 0.960 . S
H538 C530 0.930 . S
H539 C531 0.929 . S
H540 C548 0.929 . S
H541 C550 0.930 . S
H542 C552 0.930 . S
H543 C555 0.929 . S
H544 C558 0.930 . S
H545 C560 0.960 . S
H546 C560 0.960 1_554 S
H547 C560 0.960 . S
C548 H540 0.929 . S
C548 C549 1.377 . S
C548 C550 1.384 . S
C549 C548 1.377 . S
C549 C555 1.390 . S
C550 H541 0.930 . S
C550 C548 1.384 . S
C550 C551 1.372 1_554 S
C551 C550 1.372 1_556 S
C551 C552 1.400 . S
C551 C556 1.490 . S
C552 H542 0.930 . S
C552 C551 1.400 . S
C552 C555 1.386 1_556 S
H553 C569 0.930 . S
H554 C570 0.931 . S
C555 H543 0.929 . S
C555 C549 1.390 . S
C555 C552 1.386 1_554 S
C556 C551 1.490 . S
C556 C558 1.395 . S
C556 C559 1.403 . S
H557 C563 0.930 . S
C558 H544 0.930 . S
C558 C556 1.395 . S
C558 C561 1.403 . S
C559 C556 1.403 . S
C559 C560 1.524 . S
C559 C563 1.400 . S
C560 H545 0.960 . S
C560 H546 0.960 1_556 S
C560 H547 0.960 . S
C560 C559 1.524 . S
C561 C558 1.403 . S
C561 C562 1.392 . S
C561 C565 1.495 . S
C562 C561 1.392 . S
C562 C563 1.385 . S
C562 C564 1.478 . S
C563 H557 0.930 . S
C563 C559 1.400 . S
C563 C562 1.385 . S
C564 C562 1.478 . S
C564 C566 1.381 . S
C564 C570 1.383 . S
C565 C561 1.495 . S
C565 H571 0.959 . S
C565 H572 0.961 . S
C565 H573 0.960 . S
C566 C564 1.381 . S
C566 C567 1.394 . S
C566 H574 0.930 . S
C567 C566 1.394 . S
C567 C568 1.383 . S
C567 H575 0.929 . S
C568 C567 1.383 . S
C568 C569 1.377 . S
C569 H553 0.930 . S
C569 C568 1.377 . S
C569 C570 1.379 . S
C570 H554 0.931 . S
C570 C564 1.383 . S
C570 C569 1.379 . S
H571 C565 0.959 . S
H572 C565 0.961 . S
H573 C565 0.960 . S
H574 C566 0.930 . S
H575 C567 0.929 . S
H576 C584 0.929 . S
H577 C586 0.930 . S
H578 C588 0.930 . S
H579 C591 0.929 . S
H580 C594 0.930 . S
H581 C596 0.960 . S
H582 C596 0.960 . S
H583 C596 0.960 . S
C584 H576 0.929 . S
C584 C585 1.377 . S
C584 C586 1.384 . S
C585 C584 1.377 . S
C585 C591 1.390 . S
C586 H577 0.930 . S
C586 C584 1.384 . S
C586 C587 1.372 . S
C587 C586 1.372 . S
C587 C588 1.400 . S
C587 C592 1.490 . S
C588 H578 0.930 . S
C588 C587 1.400 . S
C588 C591 1.386 . S
H589 C605 0.930 . S
H590 C606 0.931 . S
C591 H579 0.929 . S
C591 C585 1.390 . S
C591 C588 1.386 . S
C592 C587 1.490 . S
C592 C594 1.395 . S
C592 C595 1.403 1_455 S
H593 C599 0.930 . S
C594 H580 0.930 . S
C594 C592 1.395 . S
C594 C597 1.403 . S
C595 C592 1.403 1_655 S
C595 C596 1.524 . S
C595 C599 1.400 . S
C596 H581 0.960 . S
C596 H582 0.960 . S
C596 H583 0.960 . S
C596 C595 1.524 . S
C597 C594 1.403 . S
C597 C598 1.392 . S
C597 C601 1.495 . S
C598 C597 1.392 . S
C598 C599 1.385 1_455 S
C598 C600 1.478 . S
C599 H593 0.930 . S
C599 C595 1.400 . S
C599 C598 1.385 1_655 S
C600 C598 1.478 . S
C600 C602 1.381 . S
C600 C606 1.383 . S
C601 C597 1.495 . S
C601 H607 0.959 . S
C601 H608 0.961 . S
C601 H609 0.960 . S
C602 C600 1.381 . S
C602 C603 1.394 . S
C602 H610 0.930 . S
C603 C602 1.394 . S
C603 C604 1.383 . S
C603 H611 0.929 . S
C604 C603 1.383 . S
C604 C605 1.377 . S
C605 H589 0.930 . S
C605 C604 1.377 . S
C605 C606 1.379 . S
C606 H590 0.931 . S
C606 C600 1.383 . S
C606 C605 1.379 . S
H607 C601 0.959 . S
H608 C601 0.961 . S
H609 C601 0.960 . S
H610 C602 0.930 . S
H611 C603 0.929 . S
C208 C50 1.347 . S
C189 C11 1.330 . S
C225 C26 1.507 . S
C244 C89 1.508 . S
C261 C40 1.378 . S
C280 C156 1.383 . S
C297 C5 1.175 . S
C316 C57 1.338 . S
C352 C110 1.508 . S
C333 C18 1.497 . S
C369 C32 1.355 . S
C388 C135 1.374 . S
C424 C96 1.219 . S
C405 C39 1.205 . S
C441 C4 1.365 1_565 S
C460 C149 1.378 . S
C496 C64 1.349 . S
C477 C19 1.202 . S
C532 C103 1.250 . S
C513 C33 1.099 1_545 S
C568 C142 1.382 . S
C549 C12 1.384 . S
C585 C25 1.328 . S
C604 C43 1.343 . S
