# Generated by pormake.
# Topology pyr, (3,6)-cn, num edge types: 1
# Building blocks:
#     Node 0, Type 0, BuildingBlock: BELTOD_clean_linker_0, # of connection points: 3
#     Node 1, Type 0, BuildingBlock: BELTOD_clean_linker_0, # of connection points: 3
#     Node 2, Type 0, BuildingBlock: BELTOD_clean_linker_0, # of connection points: 3
#     Node 3, Type 0, BuildingBlock: BELTOD_clean_linker_0, # of connection points: 3
#     Node 4, Type 0, BuildingBlock: BELTOD_clean_linker_0, # of connection points: 3
#     Node 5, Type 0, BuildingBlock: BELTOD_clean_linker_0, # of connection points: 3
#     Node 6, Type 0, BuildingBlock: BELTOD_clean_linker_0, # of connection points: 3
#     Node 7, Type 0, BuildingBlock: BELTOD_clean_linker_0, # of connection points: 3
#     Node 8, Type 1, BuildingBlock: BETFEN_clean_sbu_0, # of connection points: 6
#     Node 9, Type 1, BuildingBlock: BETFEN_clean_sbu_0, # of connection points: 6
#     Node 10, Type 1, BuildingBlock: BETFEN_clean_sbu_0, # of connection points: 6
#     Node 11, Type 1, BuildingBlock: BETFEN_clean_sbu_0, # of connection points: 6
#     Edge 12, Type (0, 1), BuildingBlock: KIFKEQ_clean_linker_1, # of connection points: 2
#     Edge 13, Type (0, 1), BuildingBlock: KIFKEQ_clean_linker_1, # of connection points: 2
#     Edge 14, Type (0, 1), BuildingBlock: KIFKEQ_clean_linker_1, # of connection points: 2
#     Edge 15, Type (0, 1), BuildingBlock: KIFKEQ_clean_linker_1, # of connection points: 2
#     Edge 16, Type (0, 1), BuildingBlock: KIFKEQ_clean_linker_1, # of connection points: 2
#     Edge 17, Type (0, 1), BuildingBlock: KIFKEQ_clean_linker_1, # of connection points: 2
#     Edge 18, Type (0, 1), BuildingBlock: KIFKEQ_clean_linker_1, # of connection points: 2
#     Edge 19, Type (0, 1), BuildingBlock: KIFKEQ_clean_linker_1, # of connection points: 2
#     Edge 20, Type (0, 1), BuildingBlock: KIFKEQ_clean_linker_1, # of connection points: 2
#     Edge 21, Type (0, 1), BuildingBlock: KIFKEQ_clean_linker_1, # of connection points: 2
#     Edge 22, Type (0, 1), BuildingBlock: KIFKEQ_clean_linker_1, # of connection points: 2
#     Edge 23, Type (0, 1), BuildingBlock: KIFKEQ_clean_linker_1, # of connection points: 2
#     Edge 24, Type (0, 1), BuildingBlock: KIFKEQ_clean_linker_1, # of connection points: 2
#     Edge 25, Type (0, 1), BuildingBlock: KIFKEQ_clean_linker_1, # of connection points: 2
#     Edge 26, Type (0, 1), BuildingBlock: KIFKEQ_clean_linker_1, # of connection points: 2
#     Edge 27, Type (0, 1), BuildingBlock: KIFKEQ_clean_linker_1, # of connection points: 2
#     Edge 28, Type (0, 1), BuildingBlock: KIFKEQ_clean_linker_1, # of connection points: 2
#     Edge 29, Type (0, 1), BuildingBlock: KIFKEQ_clean_linker_1, # of connection points: 2
#     Edge 30, Type (0, 1), BuildingBlock: KIFKEQ_clean_linker_1, # of connection points: 2
#     Edge 31, Type (0, 1), BuildingBlock: KIFKEQ_clean_linker_1, # of connection points: 2
#     Edge 32, Type (0, 1), BuildingBlock: KIFKEQ_clean_linker_1, # of connection points: 2
#     Edge 33, Type (0, 1), BuildingBlock: KIFKEQ_clean_linker_1, # of connection points: 2
#     Edge 34, Type (0, 1), BuildingBlock: KIFKEQ_clean_linker_1, # of connection points: 2
#     Edge 35, Type (0, 1), BuildingBlock: KIFKEQ_clean_linker_1, # of connection points: 2
# Relax obj value: 0.140
# Max RMSD: 0.242
# Mean RMSD: 0.115
data_MOF--net-pyr--node1-BETFEN_clean_sbu_0--node2-BELTOD_clean_linker_0--edge1-KIFKEQ_clean_linker_1
_symmetry_space_group_name_H-M    P1
_symmetry_Int_Tables_number       1
_symmetry_cell_setting            triclinic
loop_
_symmetry_equiv_pos_as_xyz
'x, y, z'
_cell_length_a     42.462707
_cell_length_b     47.0412
_cell_length_c     44.608249
_cell_angle_alpha  90.461288
_cell_angle_beta   100.44803
_cell_angle_gamma 107.08418
loop_
_atom_site_label
_atom_site_type_symbol
_atom_site_fract_x
_atom_site_fract_y
_atom_site_fract_z
_atom_type_partial_charge
P0 P 0.36786 0.33179 0.27946 0.0
H1 H 0.42807 0.34126 0.25364 0.0
H2 H 0.44859 0.30705 0.22615 0.0
H3 H 0.36901 0.2327 0.2462 0.0
H4 H 0.34857 0.26639 0.27297 0.0
H5 H 0.3449 0.38443 0.27253 0.0
H6 H 0.30525 0.397 0.23173 0.0
H7 H 0.30499 0.32185 0.17513 0.0
H8 H 0.34481 0.31003 0.21522 0.0
H9 H 0.37067 0.30423 0.33774 0.0
H10 H 0.29402 0.31189 0.26274 0.0
O11 O 0.39612 0.35898 0.30277 0.0
H12 H 0.32789 0.26709 0.35878 0.0
H13 H 0.2518 0.27561 0.28377 0.0
C14 C 0.3874 0.30643 0.26607 0.0
C15 C 0.41574 0.3175 0.25285 0.0
C16 C 0.42719 0.29805 0.23696 0.0
C17 C 0.41044 0.26732 0.23431 0.0
C18 C 0.38276 0.25624 0.24845 0.0
C19 C 0.37116 0.27564 0.26396 0.0
C20 C 0.34832 0.34669 0.2468 0.0
C21 C 0.33735 0.3715 0.25083 0.0
C22 C 0.31436 0.37837 0.22765 0.0
C23 C 0.30176 0.36024 0.20028 0.0
C24 C 0.31453 0.33655 0.19568 0.0
C25 C 0.33749 0.32978 0.21876 0.0
C26 C 0.33566 0.3112 0.29893 0.0
C27 C 0.34462 0.2987 0.32637 0.0
C28 C 0.32026 0.27739 0.33821 0.0
C29 C 0.28669 0.26834 0.32262 0.0
C30 C 0.27761 0.28185 0.29591 0.0
C31 C 0.30187 0.30301 0.28411 0.0
P32 P 0.27094 0.81007 0.6979 0.0
H33 H 0.33729 0.81865 0.73334 0.0
H34 H 0.36315 0.83548 0.78615 0.0
H35 H 0.26687 0.83576 0.80488 0.0
H36 H 0.24084 0.81816 0.75161 0.0
H37 H 0.26987 0.78077 0.63961 0.0
H38 H 0.29112 0.73975 0.62821 0.0
H39 H 0.29836 0.71765 0.72245 0.0
H40 H 0.27659 0.75837 0.73362 0.0
H41 H 0.25205 0.86145 0.7148 0.0
H42 H 0.20866 0.78443 0.65133 0.0
O43 O 0.2993 0.83306 0.68078 0.0
H44 H 0.20806 0.88249 0.69261 0.0
H45 H 0.16409 0.80572 0.62845 0.0
C46 C 0.28748 0.81832 0.73827 0.0
C47 C 0.32162 0.822 0.74886 0.0
C48 C 0.33632 0.83132 0.77922 0.0
C49 C 0.31715 0.83729 0.79969 0.0
C50 C 0.28237 0.83177 0.78951 0.0
C51 C 0.26753 0.8219 0.75904 0.0
C52 C 0.27193 0.77304 0.6875 0.0
C53 C 0.27466 0.76636 0.65757 0.0
C54 C 0.28707 0.74293 0.65112 0.0
C55 C 0.29719 0.7258 0.67458 0.0
C56 C 0.29149 0.73082 0.70399 0.0
C57 C 0.27872 0.75404 0.71032 0.0
C58 C 0.23314 0.82075 0.68558 0.0
C59 C 0.23222 0.8484 0.69683 0.0
C60 C 0.20698 0.86059 0.68392 0.0
C61 C 0.18225 0.84583 0.65877 0.0
C62 C 0.18275 0.81776 0.64777 0.0
C63 C 0.20803 0.80538 0.66102 0.0
P64 P 0.66898 0.28946 0.76853 0.0
H65 H 0.73455 0.28232 0.79413 0.0
H66 H 0.78385 0.31386 0.82907 0.0
H67 H 0.73163 0.37912 0.83643 0.0
H68 H 0.68285 0.34775 0.80076 0.0
H69 H 0.63699 0.22463 0.76085 0.0
H70 H 0.61435 0.18792 0.79563 0.0
H71 H 0.6226 0.25905 0.86133 0.0
H72 H 0.6465 0.29565 0.8266 0.0
H73 H 0.69522 0.32903 0.72383 0.0
H74 H 0.60314 0.30295 0.75824 0.0
O75 O 0.68312 0.26962 0.74587 0.0
H76 H 0.67386 0.36216 0.68976 0.0
H77 H 0.58101 0.3361 0.72354 0.0
C78 C 0.70526 0.31294 0.79441 0.0
C79 C 0.73384 0.30354 0.80309 0.0
C80 C 0.76196 0.32154 0.82332 0.0
C81 C 0.76193 0.34921 0.83559 0.0
C82 C 0.73292 0.35829 0.82704 0.0
C83 C 0.70488 0.3403 0.80673 0.0
C84 C 0.64362 0.2631 0.79096 0.0
C85 C 0.6334 0.23245 0.7825 0.0
C86 C 0.62032 0.21129 0.80261 0.0
C87 C 0.61685 0.22015 0.83182 0.0
C88 C 0.62553 0.25105 0.8395 0.0
C89 C 0.63877 0.2722 0.81937 0.0
C90 C 0.65075 0.31325 0.74349 0.0
C91 C 0.67014 0.33026 0.72386 0.0
C92 C 0.65775 0.34916 0.70414 0.0
C93 C 0.62547 0.3518 0.70346 0.0
C94 C 0.60605 0.33485 0.72344 0.0
C95 C 0.61856 0.31573 0.74325 0.0
P96 P 0.82618 0.6774 0.2787 0.0
H97 H 0.86578 0.73762 0.26509 0.0
H98 H 0.89129 0.78501 0.29567 0.0
H99 H 0.87033 0.73984 0.3769 0.0
H100 H 0.84463 0.69283 0.3462 0.0
H101 H 0.80244 0.64504 0.2176 0.0
H102 H 0.82749 0.62254 0.18245 0.0
H103 H 0.919 0.64156 0.24972 0.0
H104 H 0.8935 0.66451 0.28494 0.0
H105 H 0.75762 0.67827 0.28247 0.0
H106 H 0.82468 0.63108 0.32555 0.0
O107 O 0.80387 0.69214 0.25197 0.0
H108 H 0.71774 0.65619 0.31481 0.0
H109 H 0.78438 0.60874 0.35864 0.0
C110 C 0.85328 0.71095 0.30293 0.0
C111 C 0.86735 0.73765 0.28959 0.0
C112 C 0.88192 0.76506 0.30731 0.0
C113 C 0.88289 0.76696 0.33917 0.0
C114 C 0.86972 0.73994 0.35254 0.0
C115 C 0.85527 0.71257 0.33482 0.0
C116 C 0.84558 0.65682 0.25462 0.0
C117 C 0.8279 0.64434 0.22519 0.0
C118 C 0.84263 0.63151 0.2046 0.0
C119 C 0.87592 0.62995 0.21233 0.0
C120 C 0.89338 0.64178 0.24226 0.0
C121 C 0.87865 0.65506 0.26281 0.0
C122 C 0.79443 0.65604 0.30052 0.0
C123 C 0.76371 0.66257 0.29839 0.0
C124 C 0.74056 0.64984 0.31725 0.0
C125 C 0.7472 0.63032 0.33972 0.0
C126 C 0.77803 0.6237 0.34191 0.0
C127 C 0.80114 0.63625 0.32262 0.0
P128 P 0.74298 0.77008 0.81306 0.0
H129 H 0.71556 0.78124 0.86514 0.0
H130 H 0.66042 0.78477 0.86981 0.0
H131 H 0.62577 0.76496 0.77259 0.0
H132 H 0.68079 0.76062 0.76805 0.0
H133 H 0.79401 0.74327 0.80444 0.0
H134 H 0.80326 0.69628 0.81945 0.0
H135 H 0.70747 0.66917 0.84815 0.0
H136 H 0.69822 0.71618 0.833 0.0
H137 H 0.77056 0.82809 0.7911 0.0
H138 H 0.72983 0.73683 0.75427 0.0
O139 O 0.77191 0.79316 0.83994 0.0
H140 H 0.78509 0.84353 0.74226 0.0
H141 H 0.74386 0.75216 0.70484 0.0
C142 C 0.70235 0.77165 0.81619 0.0
C143 C 0.696 0.77736 0.84491 0.0
C144 C 0.66444 0.77885 0.84759 0.0
C145 C 0.63899 0.77469 0.82152 0.0
C146 C 0.64505 0.7679 0.7929 0.0
C147 C 0.67655 0.76591 0.79033 0.0
C148 C 0.74571 0.73325 0.81795 0.0
C149 C 0.77455 0.72681 0.81306 0.0
C150 C 0.77956 0.6998 0.82126 0.0
C151 C 0.75593 0.67916 0.83487 0.0
C152 C 0.72589 0.68476 0.83758 0.0
C153 C 0.72081 0.71175 0.82918 0.0
C154 C 0.75057 0.7813 0.77639 0.0
C155 C 0.76442 0.81147 0.7723 0.0
C156 C 0.77205 0.82027 0.74417 0.0
C157 C 0.76563 0.79892 0.71977 0.0
C158 C 0.74929 0.76893 0.72339 0.0
C159 C 0.74171 0.76017 0.75162 0.0
P160 P 0.81807 0.25812 0.30909 0.0
H161 H 0.82999 0.31945 0.33343 0.0
H162 H 0.79313 0.34514 0.35012 0.0
H163 H 0.71278 0.262 0.33794 0.0
H164 H 0.75006 0.23648 0.32204 0.0
H165 H 0.88719 0.25523 0.32154 0.0
H166 H 0.91421 0.22218 0.35062 0.0
H167 H 0.82159 0.17844 0.38034 0.0
H168 H 0.79467 0.21203 0.35133 0.0
H169 H 0.7788 0.2729 0.25436 0.0
H170 H 0.79691 0.19343 0.29133 0.0
O171 O 0.84725 0.2846 0.29612 0.0
H172 H 0.7373 0.24254 0.21192 0.0
H173 H 0.75592 0.1632 0.24914 0.0
C174 C 0.79283 0.27599 0.32651 0.0
C175 C 0.8046 0.30666 0.33484 0.0
C176 C 0.7833 0.32142 0.34405 0.0
C177 C 0.74974 0.30579 0.34519 0.0
C178 C 0.73848 0.27482 0.33772 0.0
C179 C 0.75982 0.2601 0.3286 0.0
C180 C 0.83892 0.23643 0.33449 0.0
C181 C 0.87277 0.23898 0.33478 0.0
C182 C 0.88827 0.21999 0.35145 0.0
C183 C 0.8701 0.19757 0.36781 0.0
C184 C 0.83626 0.19532 0.36783 0.0
C185 C 0.82091 0.2147 0.35151 0.0
C186 C 0.79078 0.23551 0.27623 0.0
C187 C 0.77414 0.24897 0.25317 0.0
C188 C 0.75049 0.23161 0.22888 0.0
C189 C 0.74297 0.20039 0.22734 0.0
C190 C 0.76058 0.18712 0.24999 0.0
C191 C 0.78424 0.2045 0.27418 0.0
P192 P 0.40069 0.71239 0.22035 0.0
H193 H 0.36623 0.70052 0.15704 0.0
H194 H 0.30752 0.67882 0.13263 0.0
H195 H 0.27909 0.67198 0.22111 0.0
H196 H 0.33826 0.69422 0.24555 0.0
H197 H 0.46669 0.75422 0.21795 0.0
H198 H 0.48252 0.80215 0.19446 0.0
H199 H 0.38096 0.80566 0.18439 0.0
H200 H 0.36517 0.75809 0.20832 0.0
H201 H 0.3765 0.6523 0.2378 0.0
H202 H 0.44179 0.73554 0.28297 0.0
O203 O 0.42071 0.69738 0.19879 0.0
H204 H 0.38808 0.62653 0.28328 0.0
H205 H 0.45359 0.70951 0.32968 0.0
C206 C 0.35672 0.69819 0.20309 0.0
C207 C 0.3474 0.69449 0.17123 0.0
C208 C 0.31378 0.68232 0.1573 0.0
C209 C 0.2887 0.6736 0.17498 0.0
C210 C 0.29794 0.67821 0.20696 0.0
C211 C 0.3317 0.69083 0.2209 0.0
C212 C 0.41472 0.75226 0.21511 0.0
C213 C 0.44806 0.76578 0.21188 0.0
C214 C 0.45704 0.79305 0.19811 0.0
C215 C 0.43287 0.80743 0.1873 0.0
C216 C 0.40005 0.795 0.19239 0.0
C217 C 0.39112 0.76781 0.20634 0.0
C218 C 0.40744 0.69612 0.25703 0.0
C219 C 0.39275 0.66529 0.25791 0.0
C220 C 0.39943 0.65044 0.28418 0.0
C221 C 0.42148 0.66579 0.31062 0.0
C222 C 0.43644 0.69685 0.30982 0.0
C223 C 0.42952 0.71188 0.28322 0.0
P224 P 0.21622 0.35272 0.74718 0.0
H225 H 0.2319 0.29634 0.7392 0.0
H226 H 0.2041 0.24992 0.70824 0.0
H227 H 0.11975 0.28215 0.67496 0.0
H228 H 0.14827 0.32913 0.70618 0.0
H229 H 0.28519 0.39544 0.75892 0.0
H230 H 0.32532 0.41695 0.7262 0.0
H231 H 0.24871 0.37967 0.64656 0.0
H232 H 0.20867 0.35881 0.67956 0.0
H233 H 0.19727 0.33893 0.8072 0.0
H234 H 0.18513 0.4041 0.74267 0.0
O235 O 0.24431 0.34374 0.77367 0.0
H236 H 0.17245 0.3613 0.84269 0.0
H237 H 0.15934 0.42656 0.77823 0.0
C238 C 0.19216 0.31657 0.7259 0.0
C239 C 0.20712 0.29347 0.72575 0.0
C240 C 0.19099 0.26652 0.70779 0.0
C241 C 0.15924 0.26152 0.68869 0.0
C242 C 0.14421 0.28477 0.68891 0.0
C243 C 0.16041 0.3118 0.70713 0.0
C244 C 0.2432 0.37548 0.7222 0.0
C245 C 0.2766 0.39243 0.73439 0.0
C246 C 0.30001 0.40444 0.71536 0.0
C247 C 0.29114 0.40012 0.6831 0.0
C248 C 0.25718 0.38409 0.67098 0.0
C249 C 0.23382 0.37202 0.69009 0.0
C250 C 0.19363 0.36947 0.77165 0.0
C251 C 0.18914 0.35807 0.80035 0.0
C252 C 0.17491 0.37121 0.8211 0.0
C253 C 0.16365 0.39631 0.81418 0.0
C254 C 0.16729 0.40731 0.78495 0.0
C255 C 0.18217 0.39434 0.76426 0.0
Pr256 Pr 0.99621 0.01127 0.52867 0.0
Pr257 Pr 0.03974 0.01924 0.49583 0.0
C258 C 0.953 0.99286 0.56665 0.0
C259 C 0.94839 0.96907 0.58748 0.0
C260 C 0.93338 0.9713 0.61238 0.0
C261 C 0.92683 0.94775 0.63123 0.0
C262 C 0.93532 0.92175 0.62529 0.0
C263 C 0.95305 0.92078 0.60187 0.0
C264 C 0.95935 0.94428 0.58289 0.0
C265 C 0.04087 0.06905 0.54754 0.0
C266 C 0.05663 0.98036 0.55023 0.0
C267 C 0.08081 0.03556 0.45564 0.0
C268 C 0.08998 0.06007 0.43608 0.0
C269 C 0.09715 0.05426 0.40764 0.0
C270 C 0.10939 0.07776 0.38998 0.0
C271 C 0.11464 0.10711 0.40085 0.0
C272 C 0.10479 0.11272 0.42809 0.0
C273 C 0.0922 0.0892 0.4456 0.0
C274 C 0.99531 0.96114 0.4778 0.0
C275 C 0.9813 0.05155 0.47506 0.0
O276 O 0.94553 0.98455 0.53762 0.0
O277 O 0.98105 0.0142 0.57424 0.0
O278 O 0.05021 0.04618 0.54304 0.0
O279 O 1.00868 0.06278 0.53883 0.0
O280 O 0.07211 0.99939 0.53256 0.0
O281 O 0.025 0.97779 0.55029 0.0
O282 O 0.09093 0.04156 0.48507 0.0
O283 O 0.0501 0.01828 0.4481 0.0
O284 O 0.98593 0.98406 0.48183 0.0
O285 O 0.02745 0.96766 0.48667 0.0
O286 O 0.9648 0.03087 0.49066 0.0
O287 O 1.01349 0.05524 0.47704 0.0
H288 H 0.92543 0.99065 0.61643 0.0
H289 H 0.91275 0.94905 0.64889 0.0
H290 H 0.96004 0.90109 0.59703 0.0
H291 H 0.97142 0.94247 0.5639 0.0
H292 H 0.09483 0.03173 0.39984 0.0
H293 H 0.1173 0.07323 0.36914 0.0
H294 H 0.10902 0.13538 0.43678 0.0
H295 H 0.08587 0.09389 0.46719 0.0
Pr296 Pr 0.49467 0.02954 0.02168 0.0
Pr297 Pr 0.5522 1.00816 0.01183 0.0
C298 C 0.44435 0.03586 0.04686 0.0
C299 C 0.43827 0.06041 0.06297 0.0
C300 C 0.44152 0.08814 0.05027 0.0
C301 C 0.43976 0.11223 0.06761 0.0
C302 C 0.43524 0.10899 0.09791 0.0
C303 C 0.43115 0.08109 0.11027 0.0
C304 C 0.43247 0.05694 0.09285 0.0
C305 C 0.52789 0.07037 0.98352 0.0
C306 C 0.57033 0.06321 0.0623 0.0
C307 C 0.59792 0.99064 0.98865 0.0
C308 C 0.59558 0.96406 0.96998 0.0
C309 C 0.58256 0.93542 0.97983 0.0
C310 C 0.5765 0.91038 0.96033 0.0
C311 C 0.58307 0.91357 0.93064 0.0
C312 C 0.59657 0.94214 0.92093 0.0
C313 C 0.60294 0.96723 0.94056 0.0
C314 C 0.51945 0.97877 0.057 0.0
C315 C 0.47716 0.97676 0.96764 0.0
O316 O 0.4684 0.02618 0.06159 0.0
O317 O 0.44429 0.03769 0.01753 0.0
O318 O 0.53661 0.04818 0.99359 0.0
O319 O 0.50199 0.07249 0.9939 0.0
O320 O 0.58281 0.05044 0.04304 0.0
O321 O 0.53777 0.05644 0.06145 0.0
O322 O 0.58221 1.00844 0.97494 0.0
O323 O 0.59394 0.98687 0.0169 0.0
O324 O 0.5051 0.98449 0.03126 0.0
O325 O 0.55191 0.98921 0.06028 0.0
O326 O 0.46558 0.99558 0.98085 0.0
O327 O 0.50841 0.97615 0.97576 0.0
H328 H 0.4464 0.09148 0.02735 0.0
H329 H 0.4431 0.13363 0.05772 0.0
H330 H 0.42726 0.07805 0.13352 0.0
H331 H 0.43006 0.03575 0.10305 0.0
H332 H 0.57623 0.9323 1.00228 0.0
H333 H 0.56602 0.88852 0.96824 0.0
H334 H 0.60234 0.94505 0.89826 0.0
H335 H 0.61279 0.98915 0.93251 0.0
Pr336 Pr 0.52861 0.54573 0.53321 0.0
Pr337 Pr 0.51388 0.48046 0.49177 0.0
C338 C 0.51129 0.59302 0.55105 0.0
C339 C 0.48945 0.60061 0.57058 0.0
C340 C 0.50293 0.61536 0.59971 0.0
C341 C 0.48239 0.62448 0.61676 0.0
C342 C 0.44787 0.61921 0.60502 0.0
C343 C 0.43445 0.60395 0.57613 0.0
C344 C 0.45485 0.59484 0.55922 0.0
C345 C 0.55587 0.50492 0.56662 0.0
C346 C 0.46622 0.48212 0.54466 0.0
C347 C 0.53122 0.43405 0.4715 0.0
C348 C 0.55206 0.42689 0.45066 0.0
C349 C 0.53718 0.40731 0.42457 0.0
C350 C 0.5571 0.39755 0.40731 0.0
C351 C 0.59243 0.4069 0.41589 0.0
C352 C 0.60719 0.42748 0.44127 0.0
C353 C 0.58738 0.43735 0.45831 0.0
C354 C 0.48494 0.52101 0.45987 0.0
C355 C 0.57623 0.54413 0.48029 0.0
O356 O 0.49579 0.57573 0.52634 0.0
O357 O 0.53922 0.58777 0.56413 0.0
O358 O 0.54011 0.50182 0.53926 0.0
O359 O 0.56017 0.53201 0.57739 0.0
O360 O 0.47338 0.46512 0.52419 0.0
O361 O 0.48195 0.51133 0.54978 0.0
O362 O 0.54764 0.45143 0.49586 0.0
O363 O 0.50256 0.43877 0.45989 0.0
O364 O 0.50269 0.5241 0.48629 0.0
O365 O 0.47959 0.49381 0.4489 0.0
O366 O 0.56978 0.56091 0.50142 0.0
O367 O 0.55989 0.51509 0.47473 0.0
H368 H 0.52947 0.62031 0.60913 0.0
H369 H 0.49365 0.6359 0.63903 0.0
H370 H 0.40826 0.59995 0.56589 0.0
H371 H 0.44345 0.58386 0.53676 0.0
H372 H 0.5101 0.39884 0.41801 0.0
H373 H 0.54471 0.38218 0.38759 0.0
H374 H 0.63416 0.43499 0.44902 0.0
H375 H 0.59995 0.4524 0.47824 0.0
Pr376 Pr 0.02063 0.5359 0.9951 0.0
Pr377 Pr 0.01843 0.48783 0.03247 0.0
C378 C 1.01052 0.58053 0.96088 0.0
C379 C 0.98926 0.59987 0.96093 0.0
C380 C 0.9865 0.61887 0.93729 0.0
C381 C 0.95988 0.63107 0.93273 0.0
C382 C 0.93608 0.62406 0.95175 0.0
C383 C 0.94102 0.60778 0.97727 0.0
C384 C 0.96761 0.5958 0.98185 0.0
C385 C 0.08024 0.54682 0.03756 0.0
C386 C 0.98405 0.53513 0.05797 0.0
C387 C 0.03032 0.44355 0.06592 0.0
C388 C 0.05389 0.4261 0.06674 0.0
C389 C 0.04338 0.39558 0.07111 0.0
C390 C 0.0664 0.37933 0.07422 0.0
C391 C 0.1004 0.39356 0.07349 0.0
C392 C 0.11018 0.42381 0.06707 0.0
C393 C 0.08709 0.43985 0.0635 0.0
C394 C 0.9591 0.4775 0.98909 0.0
C395 C 0.05514 0.48829 0.97023 0.0
O396 O 0.99416 0.55244 0.95355 0.0
O397 O 0.03505 0.58447 0.98428 0.0
O398 O 0.05127 0.53647 0.04362 0.0
O399 O 0.07895 0.5496 1.00849 0.0
O400 O 0.99664 0.51318 0.06623 0.0
O401 O 0.98675 0.54521 0.03047 0.0
O402 O 0.0435 0.47173 0.07503 0.0
O403 O 1.00679 0.43885 0.04157 0.0
O404 O 0.98841 0.48729 0.98379 0.0
O405 O 0.95973 0.47383 0.01797 0.0
O406 O 0.04107 0.50924 0.96148 0.0
O407 O 0.0538 0.47904 0.99825 0.0
H408 H 1.00312 0.62226 0.921 0.0
H409 H 0.95598 0.6434 0.91269 0.0
H410 H 0.92253 0.60186 0.99183 0.0
H411 H 0.96936 0.58125 1.00009 0.0
H412 H 0.01761 0.38451 0.07296 0.0
H413 H 0.05783 0.35592 0.07841 0.0
H414 H 0.13611 0.43574 0.06665 0.0
H415 H 0.09557 0.46331 0.05942 0.0
H416 H 0.27597 0.26188 0.38077 0.0
H417 H 0.24001 0.22082 0.28908 0.0
H418 H 0.23272 0.22316 0.39871 0.0
H419 H 0.19705 0.18158 0.3071 0.0
H420 H 0.10376 0.13346 0.34701 0.0
H421 H 0.14548 0.17303 0.32708 0.0
H422 H 0.22014 0.17143 0.40671 0.0
H423 H 0.17827 0.13336 0.42678 0.0
C424 C 0.25897 0.24438 0.36456 0.0
C425 C 0.26116 0.24435 0.33361 0.0
C426 C 0.23424 0.2222 0.37476 0.0
C427 C 0.21148 0.19937 0.35427 0.0
C428 C 0.21384 0.1992 0.3233 0.0
C429 C 0.23847 0.22155 0.31304 0.0
C430 C 0.12906 0.14208 0.36014 0.0
C431 C 0.13806 0.13125 0.38853 0.0
C432 C 0.15293 0.16435 0.34875 0.0
C433 C 0.18597 0.17552 0.36555 0.0
C434 C 0.19473 0.16392 0.39366 0.0
C435 C 0.17091 0.14215 0.40512 0.0
H436 H 0.3065 0.8844 0.828 0.0
H437 H 0.3677 0.82498 0.83982 0.0
H438 H 0.34284 0.91597 0.8718 0.0
H439 H 0.40531 0.85741 0.8824 0.0
H440 H 0.46224 0.91654 0.96759 0.0
H441 H 0.41856 0.87958 0.93188 0.0
H442 H 0.39612 0.95078 0.87972 0.0
H443 H 0.4381 0.98731 0.91669 0.0
C444 C 0.32733 0.87773 0.84034 0.0
C445 C 0.33455 0.85246 0.83011 0.0
C446 C 0.3486 0.89615 0.86516 0.0
C447 C 0.37774 0.88986 0.88014 0.0
C448 C 0.3833 0.86319 0.87145 0.0
C449 C 0.36186 0.84465 0.84682 0.0
C450 C 0.44796 0.92404 0.94829 0.0
C451 C 0.45347 0.95456 0.94454 0.0
C452 C 0.42292 0.90296 0.92785 0.0
C453 C 0.40346 0.91207 0.90291 0.0
C454 C 0.40976 0.94281 0.89906 0.0
C455 C 0.43415 0.9638 0.91991 0.0
H456 H 0.5884 0.38879 0.71444 0.0
H457 H 0.63388 0.36228 0.64424 0.0
H458 H 0.57069 0.42446 0.68097 0.0
H459 H 0.61664 0.39826 0.61108 0.0
H460 H 0.54901 0.44621 0.54975 0.0
H461 H 0.56522 0.4088 0.5816 0.0
H462 H 0.59778 0.47239 0.65954 0.0
H463 H 0.58305 0.51002 0.62731 0.0
C464 C 0.59441 0.39031 0.69182 0.0
C465 C 0.61279 0.37256 0.6823 0.0
C466 C 0.58453 0.41106 0.67269 0.0
C467 C 0.59236 0.41448 0.64327 0.0
C468 C 0.60998 0.39622 0.63345 0.0
C469 C 0.62015 0.37571 0.65267 0.0
C470 C 0.56043 0.45247 0.57337 0.0
C471 C 0.56555 0.4815 0.58551 0.0
C472 C 0.56947 0.43089 0.59184 0.0
C473 C 0.5829 0.43745 0.62328 0.0
C474 C 0.58737 0.46635 0.63553 0.0
C475 C 0.57909 0.48805 0.61692 0.0
H476 H 0.86465 0.62869 0.14813 0.0
H477 H 0.9243 0.59944 0.22314 0.0
H478 H 0.88872 0.6063 0.11206 0.0
H479 H 0.94921 0.57785 0.18715 0.0
H480 H 0.97314 0.51936 0.1162 0.0
H481 H 0.94768 0.54112 0.15164 0.0
H482 H 0.93142 0.60492 0.08635 0.0
H483 H 0.95633 0.58259 0.05074 0.0
C484 C 0.88283 0.61746 0.15727 0.0
C485 C 0.8919 0.61626 0.18939 0.0
C486 C 0.89722 0.60467 0.13617 0.0
C487 C 0.92148 0.58967 0.14579 0.0
C488 C 0.93055 0.58853 0.17792 0.0
C489 C 0.91632 0.60149 0.19901 0.0
C490 C 0.96413 0.538 0.10915 0.0
C491 C 0.96724 0.54878 0.07994 0.0
C492 C 0.9495 0.55089 0.12992 0.0
C493 C 0.93705 0.57544 0.12283 0.0
C494 C 0.93995 0.58605 0.0934 0.0
C495 C 0.95464 0.57313 0.07262 0.0
H496 H 0.42172 0.27441 0.1763 0.0
H497 H 0.41922 0.21375 0.24862 0.0
H498 H 0.43153 0.23807 0.14246 0.0
H499 H 0.42818 0.17719 0.21471 0.0
H500 H 0.47183 0.12759 0.1548 0.0
H501 H 0.47036 0.16862 0.18783 0.0
H502 H 0.39761 0.18901 0.11703 0.0
H503 H 0.39961 0.14823 0.08384 0.0
C504 C 0.42387 0.25351 0.18506 0.0
C505 C 0.41992 0.24683 0.21503 0.0
C506 C 0.42907 0.23263 0.16565 0.0
C507 C 0.43057 0.20485 0.17599 0.0
C508 C 0.42755 0.19857 0.20625 0.0
C509 C 0.42221 0.21936 0.22558 0.0
C510 C 0.45561 0.14095 0.14638 0.0
C511 C 0.43558 0.13474 0.11702 0.0
C512 C 0.45477 0.16435 0.16521 0.0
C513 C 0.43374 0.18184 0.15503 0.0
C514 C 0.41437 0.17611 0.1253 0.0
C515 C 0.41539 0.15278 0.10638 0.0
H516 H 0.14883 0.879 0.6841 0.0
H517 H 0.16192 0.84827 0.59706 0.0
H518 H 0.11663 0.91005 0.65811 0.0
H519 H 0.12918 0.87885 0.57109 0.0
H520 H 0.11366 0.96845 0.54154 0.0
H521 H 0.14 0.93331 0.56717 0.0
H522 H 0.06365 0.90982 0.62238 0.0
H523 H 0.03701 0.94502 0.59646 0.0
C524 C 0.14452 0.87857 0.65939 0.0
C525 C 0.15831 0.86124 0.64275 0.0
C526 C 0.12583 0.89625 0.64447 0.0
C527 C 0.12062 0.89729 0.61249 0.0
C528 C 0.13314 0.87897 0.59578 0.0
C529 C 0.1516 0.86112 0.61067 0.0
C530 C 0.10251 0.95593 0.55923 0.0
C531 C 0.07328 0.95974 0.567 0.0
C532 C 0.11745 0.93551 0.57374 0.0
C533 C 0.10389 0.91853 0.59675 0.0
C534 C 0.07485 0.92258 0.60484 0.0
C535 C 0.05956 0.94273 0.58995 0.0
H536 H 0.78787 0.41026 0.83963 0.0
H537 H 0.80386 0.33169 0.88118 0.0
H538 H 0.83554 0.44157 0.87638 0.0
H539 H 0.85207 0.36309 0.91727 0.0
H540 H 0.95753 0.42974 0.95401 0.0
H541 H 0.91018 0.39855 0.91644 0.0
H542 H 0.84992 0.45418 0.93411 0.0
H543 H 0.89725 0.48493 0.97229 0.0
C544 C 0.80136 0.39962 0.85666 0.0
C545 C 0.79177 0.36836 0.85743 0.0
C546 C 0.82875 0.4176 0.87765 0.0
C547 C 0.84748 0.4048 0.89975 0.0
C548 C 0.83831 0.37359 0.9003 0.0
C549 C 0.81072 0.3556 0.87951 0.0
C550 C 0.93413 0.43527 0.94968 0.0
C551 C 0.93084 0.45968 0.96578 0.0
C552 C 0.90704 0.41737 0.92838 0.0
C553 C 0.87635 0.42393 0.92231 0.0
C554 C 0.87333 0.44871 0.93817 0.0
C555 C 0.90025 0.46622 0.96002 0.0
H556 H 0.75968 0.62071 0.40178 0.0
H557 H 0.67741 0.61116 0.32608 0.0
H558 H 0.71954 0.60165 0.43552 0.0
H559 H 0.63749 0.59202 0.35971 0.0
H560 H 0.57694 0.52621 0.4217 0.0
H561 H 0.61711 0.5471 0.38885 0.0
H562 H 0.67473 0.61431 0.46014 0.0
H563 H 0.63368 0.59374 0.49297 0.0
C564 C 0.73311 0.61442 0.39211 0.0
C565 C 0.72232 0.61766 0.36076 0.0
C566 C 0.70991 0.60368 0.41171 0.0
C567 C 0.67484 0.5951 0.40072 0.0
C568 C 0.66407 0.59809 0.36933 0.0
C569 C 0.68721 0.60934 0.34991 0.0
C570 C 0.5981 0.54549 0.43058 0.0
C571 C 0.60171 0.55801 0.46039 0.0
C572 C 0.62124 0.55767 0.41147 0.0
C573 C 0.64967 0.58256 0.42147 0.0
C574 C 0.6535 0.59506 0.45141 0.0
C575 C 0.62973 0.5833 0.47032 0.0
H576 H 0.24666 0.37223 0.2134 0.0
H577 H 0.29026 0.35451 0.13759 0.0
H578 H 0.19676 0.3739 0.17817 0.0
H579 H 0.2391 0.35449 0.10215 0.0
H580 H 0.15947 0.39941 0.05336 0.0
H581 H 0.20849 0.38816 0.08179 0.0
H582 H 0.1489 0.34123 0.14512 0.0
H583 H 0.10085 0.35445 0.11843 0.0
C584 C 0.24573 0.36893 0.18916 0.0
C585 C 0.27257 0.36348 0.1783 0.0
C586 C 0.21674 0.36919 0.16895 0.0
C587 C 0.21366 0.36369 0.13737 0.0
C588 C 0.24068 0.35871 0.12636 0.0
C589 C 0.26989 0.35862 0.14665 0.0
C590 C 0.15675 0.38645 0.0732 0.0
C591 C 0.12648 0.37879 0.08418 0.0
C592 C 0.18479 0.37971 0.08929 0.0
C593 C 0.18281 0.36473 0.11632 0.0
C594 C 0.15147 0.35376 0.12497 0.0
C595 C 0.12366 0.36091 0.10924 0.0
H596 H 0.57163 0.16326 0.8207 0.0
H597 H 0.6363 0.22467 0.8947 0.0
H598 H 0.55377 0.1266 0.85748 0.0
H599 H 0.61724 0.18838 0.93128 0.0
H600 H 0.53778 0.13009 0.98459 0.0
H601 H 0.56131 0.16544 0.94862 0.0
H602 H 0.5775 0.09428 0.89779 0.0
H603 H 0.55494 0.05896 0.93472 0.0
C604 C 0.58231 0.16904 0.84468 0.0
C605 C 0.60538 0.1974 0.8544 0.0
C606 C 0.57195 0.14789 0.86583 0.0
C607 C 0.58393 0.1545 0.89741 0.0
C608 C 0.60713 0.18263 0.90718 0.0
C609 C 0.61786 0.20361 0.88606 0.0
C610 C 0.54675 0.12205 0.96595 0.0
C611 C 0.54465 0.09177 0.96261 0.0
C612 C 0.56031 0.14233 0.94535 0.0
C613 C 0.57125 0.13278 0.92019 0.0
C614 C 0.56921 0.1024 0.91683 0.0
C615 C 0.55653 0.08221 0.93808 0.0
H616 H 0.93601 0.81629 0.3324 0.0
H617 H 0.86251 0.78627 0.38963 0.0
H618 H 0.95982 0.86316 0.3636 0.0
H619 H 0.8869 0.83308 0.42125 0.0
H620 H 0.9258 0.93382 0.45935 0.0
H621 H 0.89711 0.88835 0.42535 0.0
H622 H 0.99321 0.8813 0.41368 0.0
H623 H 0.02134 0.92573 0.44743 0.0
C624 C 0.92464 0.81953 0.35149 0.0
C625 C 0.89724 0.7967 0.35825 0.0
C626 C 0.93864 0.8466 0.36975 0.0
C627 C 0.92576 0.85233 0.3955 0.0
C628 C 0.89773 0.82993 0.40176 0.0
C629 C 0.8839 0.80268 0.38366 0.0
C630 C 0.94074 0.92256 0.44947 0.0
C631 C 0.9761 0.93376 0.4565 0.0
C632 C 0.92428 0.89629 0.42998 0.0
C633 C 0.9426 0.88073 0.4163 0.0
C634 C 0.97786 0.89241 0.42314 0.0
C635 C 0.99416 0.91807 0.44291 0.0
H636 H 0.35445 0.72013 0.71032 0.0
H637 H 0.2849 0.68549 0.62578 0.0
H638 H 0.39042 0.69122 0.69829 0.0
H639 H 0.32103 0.65686 0.61359 0.0
H640 H 0.38154 0.59297 0.60838 0.0
H641 H 0.34408 0.61529 0.62874 0.0
H642 H 0.42706 0.69431 0.66012 0.0
H643 H 0.46445 0.67238 0.63919 0.0
C644 C 0.34649 0.70591 0.68943 0.0
C645 C 0.31676 0.70521 0.66896 0.0
C646 C 0.36732 0.68958 0.68239 0.0
C647 C 0.35879 0.67184 0.65487 0.0
C648 C 0.32831 0.67011 0.63508 0.0
C649 C 0.30768 0.6867 0.64195 0.0
C650 C 0.39191 0.61513 0.6196 0.0
C651 C 0.42608 0.631 0.62156 0.0
C652 C 0.37036 0.62788 0.63136 0.0
C653 C 0.3824 0.65676 0.64573 0.0
C654 C 0.41692 0.67195 0.64934 0.0
C655 C 0.43844 0.65929 0.63735 0.0
H656 H 0.76879 0.8483 0.68738 0.0
H657 H 0.8012 0.76918 0.69422 0.0
H658 H 0.81463 0.87165 0.66111 0.0
H659 H 0.84632 0.79245 0.66723 0.0
H660 H 0.90315 0.86768 0.59525 0.0
H661 H 0.85757 0.82972 0.61131 0.0
H662 H 0.88214 0.87626 0.70013 0.0
H663 H 0.92843 0.91402 0.6846 0.0
C664 C 0.78473 0.83547 0.68207 0.0
C665 C 0.78218 0.80738 0.69356 0.0
C666 C 0.81085 0.84879 0.6672 0.0
C667 C 0.83404 0.83384 0.66323 0.0
C668 C 0.82864 0.80421 0.67052 0.0
C669 C 0.80265 0.79092 0.68567 0.0
C670 C 0.90006 0.86903 0.61874 0.0
C671 C 0.91871 0.89415 0.63855 0.0
C672 C 0.87376 0.84748 0.62767 0.0
C673 C 0.86623 0.85098 0.65639 0.0
C674 C 0.88754 0.87377 0.67759 0.0
C675 C 0.91397 0.89516 0.6688 0.0
H676 H 0.69526 0.14848 0.23337 0.0
H677 H 0.72945 0.20981 0.16618 0.0
H678 H 0.6523 0.11635 0.19352 0.0
H679 H 0.68589 0.17764 0.12624 0.0
H680 H 0.58002 0.12283 0.07054 0.0
H681 H 0.62135 0.15767 0.11042 0.0
H682 H 0.65416 0.0846 0.14831 0.0
H683 H 0.6135 0.05024 0.10821 0.0
C684 C 0.69376 0.15503 0.21006 0.0
C685 C 0.71611 0.18153 0.20292 0.0
C686 C 0.66904 0.13667 0.18727 0.0
C687 C 0.6659 0.14441 0.15677 0.0
C688 C 0.68759 0.17127 0.14962 0.0
C689 C 0.71252 0.18964 0.17247 0.0
C690 C 0.59606 0.11442 0.08759 0.0
C691 C 0.59376 0.08406 0.08667 0.0
C692 C 0.61976 0.13426 0.11019 0.0
C693 C 0.64086 0.12379 0.13251 0.0
C694 C 0.63805 0.09325 0.13159 0.0
C695 C 0.61494 0.07363 0.10868 0.0
H696 H 0.48252 0.67287 0.3493 0.0
H697 H 0.37861 0.61935 0.33401 0.0
H698 H 0.4964 0.64009 0.38853 0.0
H699 H 0.39241 0.5867 0.3729 0.0
H700 H 0.43649 0.5123 0.40889 0.0
H701 H 0.42057 0.54927 0.3767 0.0
H702 H 0.49169 0.61976 0.43843 0.0
H703 H 0.50821 0.5823 0.47039 0.0
C704 C 0.46248 0.6545 0.35463 0.0
C705 C 0.4295 0.64862 0.33787 0.0
C706 C 0.47047 0.63558 0.3772 0.0
C707 C 0.44571 0.61022 0.38366 0.0
C708 C 0.41243 0.60542 0.36811 0.0
C709 C 0.40447 0.62428 0.3457 0.0
C710 C 0.44845 0.53568 0.41588 0.0
C711 C 0.47328 0.54426 0.44253 0.0
C712 C 0.43918 0.55701 0.39743 0.0
C713 C 0.45462 0.58775 0.40484 0.0
C714 C 0.47928 0.59638 0.4318 0.0
C715 C 0.48844 0.5749 0.45043 0.0
H716 H 0.18057 0.40304 0.87813 0.0
H717 H 0.11134 0.42224 0.80381 0.0
H718 H 0.15626 0.42459 0.91464 0.0
H719 H 0.08619 0.44301 0.84017 0.0
H720 H 0.05686 0.49862 0.90921 0.0
H721 H 0.08261 0.47804 0.87339 0.0
H722 H 0.11748 0.42595 0.94378 0.0
H723 H 0.09215 0.44737 0.97983 0.0
C724 C 0.15987 0.41155 0.8693 0.0
C725 C 0.14839 0.41047 0.83727 0.0
C726 C 0.14555 0.42407 0.89065 0.0
C727 C 0.11856 0.43609 0.88136 0.0
C728 C 0.10711 0.43492 0.84924 0.0
C729 C 0.1217 0.42269 0.8279 0.0
C730 C 0.07009 0.48285 0.91732 0.0
C731 C 0.072 0.47506 0.94805 0.0
C732 C 0.08491 0.47056 0.8963 0.0
C733 C 0.10266 0.44963 0.90463 0.0
C734 C 0.10472 0.44199 0.93559 0.0
C735 C 0.08977 0.45429 0.95665 0.0
H736 H 0.59368 0.75077 0.85723 0.0
H737 H 0.61843 0.81819 0.79318 0.0
H738 H 0.56191 0.77869 0.87866 0.0
H739 H 0.58823 0.8468 0.81527 0.0
H740 H 0.55099 0.90322 0.87089 0.0
H741 H 0.54535 0.86047 0.83635 0.0
H742 H 0.59686 0.82244 0.91059 0.0
H743 H 0.60191 0.86448 0.94463 0.0
C744 C 0.59078 0.77079 0.84677 0.0
C745 C 0.60887 0.78285 0.82418 0.0
C746 C 0.57288 0.78688 0.8591 0.0
C747 C 0.57385 0.81545 0.84947 0.0
C748 C 0.5872 0.82496 0.82337 0.0
C749 C 0.60458 0.80859 0.81067 0.0
C750 C 0.56057 0.88536 0.8797 0.0
C751 C 0.57696 0.887 0.91027 0.0
C752 C 0.55711 0.86089 0.86009 0.0
C753 C 0.57016 0.83788 0.87082 0.0
C754 C 0.58546 0.83922 0.90175 0.0
C755 C 0.58873 0.86348 0.92126 0.0
H756 H 0.84422 0.13686 0.36732 0.0
H757 H 0.93259 0.20955 0.40419 0.0
H758 H 0.87099 0.10152 0.39195 0.0
H759 H 0.9592 0.17437 0.42953 0.0
H760 H 1.01053 0.10161 0.44713 0.0
H761 H 0.98388 0.13643 0.42112 0.0
H762 H 0.88824 0.08384 0.43985 0.0
H763 H 0.91481 0.04874 0.46519 0.0
C764 C 0.86922 0.14534 0.38107 0.0
C765 C 0.88616 0.17609 0.38384 0.0
C766 C 0.88464 0.12505 0.39527 0.0
C767 C 0.91739 0.1349 0.4129 0.0
C768 C 0.93424 0.16574 0.41577 0.0
C769 C 0.91891 0.186 0.40134 0.0
C770 C 0.98376 0.09736 0.44551 0.0
C771 C 0.96483 0.07226 0.45822 0.0
C772 C 0.96846 0.11753 0.43079 0.0
C773 C 0.93377 0.11317 0.42831 0.0
C774 C 0.91487 0.08787 0.44085 0.0
C775 C 0.93018 0.06775 0.4556 0.0
H776 H 0.25249 0.68979 0.12474 0.0
H777 H 0.2457 0.6225 0.19052 0.0
H778 H 0.19934 0.65981 0.09391 0.0
H779 H 0.19247 0.59228 0.1595 0.0
H780 H 0.08552 0.55394 0.09955 0.0
H781 H 0.13249 0.58715 0.13606 0.0
H782 H 0.18725 0.61293 0.06298 0.0
H783 H 0.14066 0.58013 0.0268 0.0
C784 C 0.23939 0.66873 0.13276 0.0
C785 C 0.25355 0.65821 0.1597 0.0
C786 C 0.20902 0.65152 0.1151 0.0
C787 C 0.19216 0.62335 0.1239 0.0
C788 C 0.20492 0.61386 0.15208 0.0
C789 C 0.23537 0.63117 0.16986 0.0
C790 C 0.10777 0.56654 0.09144 0.0
C791 C 0.10948 0.56442 0.06034 0.0
C792 C 0.13457 0.58559 0.1123 0.0
C793 C 0.16337 0.60298 0.10232 0.0
C794 C 0.16514 0.60034 0.0713 0.0
C795 C 0.13858 0.58126 0.0506 0.0
H796 H 0.36049 0.40878 0.69512 0.0
H797 H 0.2818 0.41789 0.62317 0.0
H798 H 0.40147 0.4271 0.66246 0.0
H799 H 0.32282 0.43542 0.59033 0.0
H800 H 0.4024 0.44103 0.52824 0.0
H801 H 0.36078 0.42134 0.56071 0.0
H802 H 0.43077 0.47171 0.63893 0.0
H803 H 0.47165 0.49186 0.60635 0.0
C804 C 0.35162 0.41485 0.67252 0.0
C805 C 0.31704 0.41162 0.66246 0.0
C806 C 0.37546 0.42537 0.6535 0.0
C807 C 0.366 0.43295 0.62328 0.0
C808 C 0.3315 0.42954 0.61309 0.0
C809 C 0.30768 0.41929 0.6322 0.0
C810 C 0.40897 0.44781 0.55238 0.0
C811 C 0.44067 0.46822 0.56441 0.0
C812 C 0.3849 0.43664 0.57114 0.0
C813 C 0.39188 0.44472 0.60288 0.0
C814 C 0.424 0.46458 0.61487 0.0
C815 C 0.44761 0.47635 0.59601 0.0
H816 H 0.78461 0.63904 0.8161 0.0
H817 H 0.75343 0.66977 0.89412 0.0
H818 H 0.82188 0.61739 0.85018 0.0
H819 H 0.79071 0.64822 0.92807 0.0
H820 H 0.91144 0.67093 0.957 0.0
H821 H 0.85597 0.67346 0.93175 0.0
H822 H 0.83065 0.5827 0.89453 0.0
H823 H 0.88581 0.58024 0.92001 0.0
C824 C 0.78453 0.63983 0.84037 0.0
C825 C 0.76667 0.65635 0.8526 0.0
C826 C 0.80577 0.62749 0.85985 0.0
C827 C 0.80938 0.6318 0.89162 0.0
C828 C 0.78836 0.64496 0.9036 0.0
C829 C 0.76686 0.657 0.88413 0.0
C830 C 0.89357 0.65149 0.94395 0.0
C831 C 0.90232 0.62551 0.94004 0.0
C832 C 0.86193 0.65273 0.92983 0.0
C833 C 0.83922 0.62809 0.9115 0.0
C834 C 0.84774 0.60177 0.90873 0.0
C835 C 0.8791 0.60045 0.92309 0.0
H836 H 0.42381 0.80798 0.12529 0.0
H837 H 0.46132 0.86626 0.2071 0.0
H838 H 0.44143 0.85045 0.09426 0.0
H839 H 0.47842 0.90906 0.17626 0.0
H840 H 0.54478 0.9687 0.11517 0.0
H841 H 0.52102 0.92883 0.14661 0.0
H842 H 0.4329 0.89659 0.0755 0.0
H843 H 0.45699 0.93673 0.04393 0.0
C844 C 0.43547 0.83004 0.13656 0.0
C845 C 0.44136 0.83383 0.1686 0.0
C846 C 0.44543 0.85447 0.11879 0.0
C847 C 0.46165 0.88342 0.13258 0.0
C848 C 0.46661 0.88716 0.16472 0.0
C849 C 0.45667 0.86269 0.18247 0.0
C850 C 0.52017 0.9533 0.10633 0.0
C851 C 0.50289 0.95596 0.07697 0.0
C852 C 0.50638 0.93043 0.12449 0.0
C853 C 0.47495 0.90918 0.11377 0.0
C854 C 0.45729 0.91223 0.08454 0.0
C855 C 0.47098 0.93542 0.06648 0.0
H856 H 0.11896 0.25335 0.63095 0.0
H857 H 0.16178 0.20356 0.69893 0.0
H858 H 0.09323 0.20815 0.59775 0.0
H859 H 0.13583 0.15807 0.66555 0.0
H860 H 0.10431 0.08322 0.58614 0.0
H861 H 0.13328 0.12851 0.62008 0.0
H862 H 0.05026 0.16317 0.5893 0.0
H863 H 0.02219 0.11878 0.55553 0.0
C864 C 0.12267 0.23277 0.6392 0.0
C865 C 0.14265 0.23279 0.66818 0.0
C866 C 0.10774 0.20647 0.61989 0.0
C867 C 0.11189 0.17872 0.62854 0.0
C868 C 0.13208 0.17868 0.65746 0.0
C869 C 0.14708 0.20509 0.67683 0.0
C870 C 0.09249 0.10071 0.58637 0.0
C871 C 0.06085 0.09712 0.56755 0.0
C872 C 0.109 0.12675 0.60617 0.0
C873 C 0.09461 0.15028 0.60769 0.0
C874 C 0.06298 0.14638 0.58875 0.0
C875 C 0.04658 0.12051 0.56926 0.0
H876 H 0.7013 0.28625 0.37982 0.0
H877 H 0.74509 0.36136 0.32996 0.0
H878 H 0.66266 0.31126 0.3931 0.0
H879 H 0.70631 0.38654 0.3434 0.0
H880 H 0.65597 0.43393 0.40448 0.0
H881 H 0.69339 0.41027 0.386 0.0
H882 H 0.61454 0.32627 0.37199 0.0
H883 H 0.5778 0.34941 0.39198 0.0
C884 C 0.70251 0.30799 0.37138 0.0
C885 C 0.72641 0.32163 0.35371 0.0
C886 C 0.68021 0.32238 0.37897 0.0
C887 C 0.68103 0.35091 0.36916 0.0
C888 C 0.70506 0.36472 0.35163 0.0
C889 C 0.72742 0.35026 0.34398 0.0
C890 C 0.64656 0.41038 0.39755 0.0
C891 C 0.61381 0.39361 0.40028 0.0
C892 C 0.66799 0.39685 0.38657 0.0
C893 C 0.65728 0.36617 0.3779 0.0
C894 C 0.624 0.34978 0.3791 0.0
C895 C 0.60265 0.36325 0.39018 0.0
loop_
_geom_bond_atom_site_label_1
_geom_bond_atom_site_label_2
_geom_bond_distance
_geom_bond_site_symmetry_2
_ccdc_geom_bond_type
P0 O11 1.490 . S
P0 C14 1.812 . S
P0 C20 1.803 . S
P0 C26 1.819 . S
H1 C15 0.941 . S
H2 C16 0.939 . S
H3 C18 0.940 . S
H4 C19 0.940 . S
H5 C21 0.939 . S
H6 C22 0.942 . S
H7 C24 0.940 . S
H8 C25 0.939 . S
H9 C27 0.941 . S
H10 C31 0.939 . S
O11 P0 1.490 . S
H12 C28 0.939 . S
H13 C30 0.940 . S
C14 P0 1.812 . S
C14 C15 1.389 . S
C14 C19 1.391 . S
C15 H1 0.941 . S
C15 C14 1.389 . S
C15 C16 1.397 . S
C16 H2 0.939 . S
C16 C15 1.397 . S
C16 C17 1.378 . S
C17 C16 1.378 . S
C17 C18 1.378 . S
C18 H3 0.940 . S
C18 C17 1.378 . S
C18 C19 1.396 . S
C19 H4 0.940 . S
C19 C14 1.391 . S
C19 C18 1.396 . S
C20 P0 1.803 . S
C20 C21 1.378 . S
C20 C25 1.400 . S
C21 H5 0.939 . S
C21 C20 1.378 . S
C21 C22 1.361 . S
C22 H6 0.942 . S
C22 C21 1.361 . S
C22 C23 1.369 . S
C23 C22 1.369 . S
C23 C24 1.404 . S
C24 H7 0.940 . S
C24 C23 1.404 . S
C24 C25 1.389 . S
C25 H8 0.939 . S
C25 C20 1.400 . S
C25 C24 1.389 . S
C26 P0 1.819 . S
C26 C27 1.391 . S
C26 C31 1.391 . S
C27 H9 0.941 . S
C27 C26 1.391 . S
C27 C28 1.396 . S
C28 H12 0.939 . S
C28 C27 1.396 . S
C28 C29 1.397 . S
C29 C28 1.397 . S
C29 C30 1.385 . S
C30 H13 0.940 . S
C30 C29 1.385 . S
C30 C31 1.388 . S
C31 H10 0.939 . S
C31 C26 1.391 . S
C31 C30 1.388 . S
P32 O43 1.490 . S
P32 C46 1.812 . S
P32 C52 1.803 . S
P32 C58 1.819 . S
H33 C47 0.941 . S
H34 C48 0.939 . S
H35 C50 0.940 . S
H36 C51 0.940 . S
H37 C53 0.939 . S
H38 C54 0.942 . S
H39 C56 0.940 . S
H40 C57 0.939 . S
H41 C59 0.941 . S
H42 C63 0.939 . S
O43 P32 1.490 . S
H44 C60 0.939 . S
H45 C62 0.940 . S
C46 P32 1.812 . S
C46 C47 1.389 . S
C46 C51 1.391 . S
C47 H33 0.941 . S
C47 C46 1.389 . S
C47 C48 1.397 . S
C48 H34 0.939 . S
C48 C47 1.397 . S
C48 C49 1.378 . S
C49 C48 1.378 . S
C49 C50 1.378 . S
C50 H35 0.940 . S
C50 C49 1.378 . S
C50 C51 1.396 . S
C51 H36 0.940 . S
C51 C46 1.391 . S
C51 C50 1.396 . S
C52 P32 1.803 . S
C52 C53 1.378 . S
C52 C57 1.400 . S
C53 H37 0.939 . S
C53 C52 1.378 . S
C53 C54 1.361 . S
C54 H38 0.942 . S
C54 C53 1.361 . S
C54 C55 1.369 . S
C55 C54 1.369 . S
C55 C56 1.404 . S
C56 H39 0.940 . S
C56 C55 1.404 . S
C56 C57 1.389 . S
C57 H40 0.939 . S
C57 C52 1.400 . S
C57 C56 1.389 . S
C58 P32 1.819 . S
C58 C59 1.391 . S
C58 C63 1.391 . S
C59 H41 0.941 . S
C59 C58 1.391 . S
C59 C60 1.396 . S
C60 H44 0.939 . S
C60 C59 1.396 . S
C60 C61 1.397 . S
C61 C60 1.397 . S
C61 C62 1.385 . S
C62 H45 0.940 . S
C62 C61 1.385 . S
C62 C63 1.388 . S
C63 H42 0.939 . S
C63 C58 1.391 . S
C63 C62 1.388 . S
P64 O75 1.490 . S
P64 C78 1.812 . S
P64 C84 1.803 . S
P64 C90 1.819 . S
H65 C79 0.941 . S
H66 C80 0.939 . S
H67 C82 0.940 . S
H68 C83 0.940 . S
H69 C85 0.939 . S
H70 C86 0.942 . S
H71 C88 0.940 . S
H72 C89 0.939 . S
H73 C91 0.941 . S
H74 C95 0.939 . S
O75 P64 1.490 . S
H76 C92 0.939 . S
H77 C94 0.940 . S
C78 P64 1.812 . S
C78 C79 1.389 . S
C78 C83 1.391 . S
C79 H65 0.941 . S
C79 C78 1.389 . S
C79 C80 1.397 . S
C80 H66 0.939 . S
C80 C79 1.397 . S
C80 C81 1.378 . S
C81 C80 1.378 . S
C81 C82 1.378 . S
C82 H67 0.940 . S
C82 C81 1.378 . S
C82 C83 1.396 . S
C83 H68 0.940 . S
C83 C78 1.391 . S
C83 C82 1.396 . S
C84 P64 1.803 . S
C84 C85 1.378 . S
C84 C89 1.400 . S
C85 H69 0.939 . S
C85 C84 1.378 . S
C85 C86 1.361 . S
C86 H70 0.942 . S
C86 C85 1.361 . S
C86 C87 1.369 . S
C87 C86 1.369 . S
C87 C88 1.404 . S
C88 H71 0.940 . S
C88 C87 1.404 . S
C88 C89 1.389 . S
C89 H72 0.939 . S
C89 C84 1.400 . S
C89 C88 1.389 . S
C90 P64 1.819 . S
C90 C91 1.391 . S
C90 C95 1.391 . S
C91 H73 0.941 . S
C91 C90 1.391 . S
C91 C92 1.396 . S
C92 H76 0.939 . S
C92 C91 1.396 . S
C92 C93 1.397 . S
C93 C92 1.397 . S
C93 C94 1.385 . S
C94 H77 0.940 . S
C94 C93 1.385 . S
C94 C95 1.388 . S
C95 H74 0.939 . S
C95 C90 1.391 . S
C95 C94 1.388 . S
P96 O107 1.490 . S
P96 C110 1.812 . S
P96 C116 1.803 . S
P96 C122 1.819 . S
H97 C111 0.941 . S
H98 C112 0.939 . S
H99 C114 0.940 . S
H100 C115 0.940 . S
H101 C117 0.939 . S
H102 C118 0.942 . S
H103 C120 0.940 . S
H104 C121 0.939 . S
H105 C123 0.941 . S
H106 C127 0.939 . S
O107 P96 1.490 . S
H108 C124 0.939 . S
H109 C126 0.940 . S
C110 P96 1.812 . S
C110 C111 1.389 . S
C110 C115 1.391 . S
C111 H97 0.941 . S
C111 C110 1.389 . S
C111 C112 1.397 . S
C112 H98 0.939 . S
C112 C111 1.397 . S
C112 C113 1.378 . S
C113 C112 1.378 . S
C113 C114 1.378 . S
C114 H99 0.940 . S
C114 C113 1.378 . S
C114 C115 1.396 . S
C115 H100 0.940 . S
C115 C110 1.391 . S
C115 C114 1.396 . S
C116 P96 1.803 . S
C116 C117 1.378 . S
C116 C121 1.400 . S
C117 H101 0.939 . S
C117 C116 1.378 . S
C117 C118 1.361 . S
C118 H102 0.942 . S
C118 C117 1.361 . S
C118 C119 1.369 . S
C119 C118 1.369 . S
C119 C120 1.404 . S
C120 H103 0.940 . S
C120 C119 1.404 . S
C120 C121 1.389 . S
C121 H104 0.939 . S
C121 C116 1.400 . S
C121 C120 1.389 . S
C122 P96 1.819 . S
C122 C123 1.391 . S
C122 C127 1.391 . S
C123 H105 0.941 . S
C123 C122 1.391 . S
C123 C124 1.396 . S
C124 H108 0.939 . S
C124 C123 1.396 . S
C124 C125 1.397 . S
C125 C124 1.397 . S
C125 C126 1.385 . S
C126 H109 0.940 . S
C126 C125 1.385 . S
C126 C127 1.388 . S
C127 H106 0.939 . S
C127 C122 1.391 . S
C127 C126 1.388 . S
P128 O139 1.490 . S
P128 C142 1.812 . S
P128 C148 1.803 . S
P128 C154 1.819 . S
H129 C143 0.941 . S
H130 C144 0.939 . S
H131 C146 0.940 . S
H132 C147 0.940 . S
H133 C149 0.939 . S
H134 C150 0.942 . S
H135 C152 0.940 . S
H136 C153 0.939 . S
H137 C155 0.941 . S
H138 C159 0.939 . S
O139 P128 1.490 . S
H140 C156 0.939 . S
H141 C158 0.940 . S
C142 P128 1.812 . S
C142 C143 1.389 . S
C142 C147 1.391 . S
C143 H129 0.941 . S
C143 C142 1.389 . S
C143 C144 1.397 . S
C144 H130 0.939 . S
C144 C143 1.397 . S
C144 C145 1.378 . S
C145 C144 1.378 . S
C145 C146 1.378 . S
C146 H131 0.940 . S
C146 C145 1.378 . S
C146 C147 1.396 . S
C147 H132 0.940 . S
C147 C142 1.391 . S
C147 C146 1.396 . S
C148 P128 1.803 . S
C148 C149 1.378 . S
C148 C153 1.400 . S
C149 H133 0.939 . S
C149 C148 1.378 . S
C149 C150 1.361 . S
C150 H134 0.942 . S
C150 C149 1.361 . S
C150 C151 1.369 . S
C151 C150 1.369 . S
C151 C152 1.404 . S
C152 H135 0.940 . S
C152 C151 1.404 . S
C152 C153 1.389 . S
C153 H136 0.939 . S
C153 C148 1.400 . S
C153 C152 1.389 . S
C154 P128 1.819 . S
C154 C155 1.391 . S
C154 C159 1.391 . S
C155 H137 0.941 . S
C155 C154 1.391 . S
C155 C156 1.396 . S
C156 H140 0.939 . S
C156 C155 1.396 . S
C156 C157 1.397 . S
C157 C156 1.397 . S
C157 C158 1.385 . S
C158 H141 0.940 . S
C158 C157 1.385 . S
C158 C159 1.388 . S
C159 H138 0.939 . S
C159 C154 1.391 . S
C159 C158 1.388 . S
P160 O171 1.490 . S
P160 C174 1.812 . S
P160 C180 1.803 . S
P160 C186 1.819 . S
H161 C175 0.941 . S
H162 C176 0.939 . S
H163 C178 0.940 . S
H164 C179 0.940 . S
H165 C181 0.939 . S
H166 C182 0.942 . S
H167 C184 0.940 . S
H168 C185 0.939 . S
H169 C187 0.941 . S
H170 C191 0.939 . S
O171 P160 1.490 . S
H172 C188 0.939 . S
H173 C190 0.940 . S
C174 P160 1.812 . S
C174 C175 1.389 . S
C174 C179 1.391 . S
C175 H161 0.941 . S
C175 C174 1.389 . S
C175 C176 1.397 . S
C176 H162 0.939 . S
C176 C175 1.397 . S
C176 C177 1.378 . S
C177 C176 1.378 . S
C177 C178 1.378 . S
C178 H163 0.940 . S
C178 C177 1.378 . S
C178 C179 1.396 . S
C179 H164 0.940 . S
C179 C174 1.391 . S
C179 C178 1.396 . S
C180 P160 1.803 . S
C180 C181 1.378 . S
C180 C185 1.400 . S
C181 H165 0.939 . S
C181 C180 1.378 . S
C181 C182 1.361 . S
C182 H166 0.942 . S
C182 C181 1.361 . S
C182 C183 1.369 . S
C183 C182 1.369 . S
C183 C184 1.404 . S
C184 H167 0.940 . S
C184 C183 1.404 . S
C184 C185 1.389 . S
C185 H168 0.939 . S
C185 C180 1.400 . S
C185 C184 1.389 . S
C186 P160 1.819 . S
C186 C187 1.391 . S
C186 C191 1.391 . S
C187 H169 0.941 . S
C187 C186 1.391 . S
C187 C188 1.396 . S
C188 H172 0.939 . S
C188 C187 1.396 . S
C188 C189 1.397 . S
C189 C188 1.397 . S
C189 C190 1.385 . S
C190 H173 0.940 . S
C190 C189 1.385 . S
C190 C191 1.388 . S
C191 H170 0.939 . S
C191 C186 1.391 . S
C191 C190 1.388 . S
P192 O203 1.490 . S
P192 C206 1.812 . S
P192 C212 1.803 . S
P192 C218 1.819 . S
H193 C207 0.941 . S
H194 C208 0.939 . S
H195 C210 0.940 . S
H196 C211 0.940 . S
H197 C213 0.939 . S
H198 C214 0.942 . S
H199 C216 0.940 . S
H200 C217 0.939 . S
H201 C219 0.941 . S
H202 C223 0.939 . S
O203 P192 1.490 . S
H204 C220 0.939 . S
H205 C222 0.940 . S
C206 P192 1.812 . S
C206 C207 1.389 . S
C206 C211 1.391 . S
C207 H193 0.941 . S
C207 C206 1.389 . S
C207 C208 1.397 . S
C208 H194 0.939 . S
C208 C207 1.397 . S
C208 C209 1.378 . S
C209 C208 1.378 . S
C209 C210 1.378 . S
C210 H195 0.940 . S
C210 C209 1.378 . S
C210 C211 1.396 . S
C211 H196 0.940 . S
C211 C206 1.391 . S
C211 C210 1.396 . S
C212 P192 1.803 . S
C212 C213 1.378 . S
C212 C217 1.400 . S
C213 H197 0.939 . S
C213 C212 1.378 . S
C213 C214 1.361 . S
C214 H198 0.942 . S
C214 C213 1.361 . S
C214 C215 1.369 . S
C215 C214 1.369 . S
C215 C216 1.404 . S
C216 H199 0.940 . S
C216 C215 1.404 . S
C216 C217 1.389 . S
C217 H200 0.939 . S
C217 C212 1.400 . S
C217 C216 1.389 . S
C218 P192 1.819 . S
C218 C219 1.391 . S
C218 C223 1.391 . S
C219 H201 0.941 . S
C219 C218 1.391 . S
C219 C220 1.396 . S
C220 H204 0.939 . S
C220 C219 1.396 . S
C220 C221 1.397 . S
C221 C220 1.397 . S
C221 C222 1.385 . S
C222 H205 0.940 . S
C222 C221 1.385 . S
C222 C223 1.388 . S
C223 H202 0.939 . S
C223 C218 1.391 . S
C223 C222 1.388 . S
P224 O235 1.490 . S
P224 C238 1.812 . S
P224 C244 1.803 . S
P224 C250 1.819 . S
H225 C239 0.941 . S
H226 C240 0.939 . S
H227 C242 0.940 . S
H228 C243 0.940 . S
H229 C245 0.939 . S
H230 C246 0.942 . S
H231 C248 0.940 . S
H232 C249 0.939 . S
H233 C251 0.941 . S
H234 C255 0.939 . S
O235 P224 1.490 . S
H236 C252 0.939 . S
H237 C254 0.940 . S
C238 P224 1.812 . S
C238 C239 1.389 . S
C238 C243 1.391 . S
C239 H225 0.941 . S
C239 C238 1.389 . S
C239 C240 1.397 . S
C240 H226 0.939 . S
C240 C239 1.397 . S
C240 C241 1.378 . S
C241 C240 1.378 . S
C241 C242 1.378 . S
C242 H227 0.940 . S
C242 C241 1.378 . S
C242 C243 1.396 . S
C243 H228 0.940 . S
C243 C238 1.391 . S
C243 C242 1.396 . S
C244 P224 1.803 . S
C244 C245 1.378 . S
C244 C249 1.400 . S
C245 H229 0.939 . S
C245 C244 1.378 . S
C245 C246 1.361 . S
C246 H230 0.942 . S
C246 C245 1.361 . S
C246 C247 1.369 . S
C247 C246 1.369 . S
C247 C248 1.404 . S
C248 H231 0.940 . S
C248 C247 1.404 . S
C248 C249 1.389 . S
C249 H232 0.939 . S
C249 C244 1.400 . S
C249 C248 1.389 . S
C250 P224 1.819 . S
C250 C251 1.391 . S
C250 C255 1.391 . S
C251 H233 0.941 . S
C251 C250 1.391 . S
C251 C252 1.396 . S
C252 H236 0.939 . S
C252 C251 1.396 . S
C252 C253 1.397 . S
C253 C252 1.397 . S
C253 C254 1.385 . S
C254 H237 0.940 . S
C254 C253 1.385 . S
C254 C255 1.388 . S
C255 H234 0.939 . S
C255 C250 1.391 . S
C255 C254 1.388 . S
Pr256 C258 2.880 . S
Pr256 O276 2.562 . S
Pr256 O277 2.490 . S
Pr256 O278 2.695 1_665 S
Pr256 O279 2.512 1_665 S
Pr256 O281 2.437 1_655 S
Pr256 O284 2.436 . S
Pr256 O286 2.438 1_565 S
Pr257 C267 2.880 . S
Pr257 O278 2.436 . S
Pr257 O280 2.438 1_545 S
Pr257 O282 2.562 . S
Pr257 O283 2.490 . S
Pr257 O284 2.695 1_445 S
Pr257 O285 2.512 1_545 S
Pr257 O287 2.437 1_455 S
C258 Pr256 2.880 . S
C258 C259 1.491 . S
C258 O276 1.254 . S
C258 O277 1.225 . S
C259 C258 1.491 . S
C259 C260 1.392 . S
C259 C264 1.356 . S
C260 C259 1.392 . S
C260 C261 1.368 . S
C260 H288 0.929 . S
C261 C260 1.368 . S
C261 C262 1.386 . S
C261 H289 0.929 . S
C262 C261 1.386 . S
C262 C263 1.373 . S
C263 C262 1.373 . S
C263 C264 1.409 . S
C263 H290 0.931 . S
C264 C259 1.356 . S
C264 C263 1.409 . S
C264 H291 0.930 . S
C265 O278 1.270 . S
C265 O279 1.248 . S
C266 O280 1.267 . S
C266 O281 1.278 . S
C267 Pr257 2.880 . S
C267 C268 1.491 . S
C267 O282 1.254 . S
C267 O283 1.225 . S
C268 C267 1.491 . S
C268 C269 1.392 . S
C268 C273 1.356 . S
C269 C268 1.392 . S
C269 C270 1.368 . S
C269 H292 0.929 . S
C270 C269 1.368 . S
C270 C271 1.386 . S
C270 H293 0.929 . S
C271 C270 1.386 . S
C271 C272 1.373 . S
C272 C271 1.373 . S
C272 C273 1.409 . S
C272 H294 0.931 . S
C273 C268 1.356 . S
C273 C272 1.409 . S
C273 H295 0.930 . S
C274 O284 1.270 . S
C274 O285 1.248 1_655 S
C275 O286 1.267 . S
C275 O287 1.278 . S
O276 Pr256 2.562 . S
O276 C258 1.254 . S
O277 Pr256 2.490 . S
O277 C258 1.225 . S
O278 Pr256 2.695 1_445 S
O278 Pr257 2.436 . S
O278 C265 1.270 . S
O279 Pr256 2.512 1_445 S
O279 C265 1.248 . S
O280 Pr257 2.438 1_565 S
O280 C266 1.267 . S
O281 Pr256 2.437 1_455 S
O281 C266 1.278 . S
O282 Pr257 2.562 . S
O282 C267 1.254 . S
O283 Pr257 2.490 . S
O283 C267 1.225 . S
O284 Pr256 2.436 . S
O284 Pr257 2.695 1_665 S
O284 C274 1.270 . S
O285 Pr257 2.512 1_565 S
O285 C274 1.248 1_455 S
O286 Pr256 2.438 1_545 S
O286 C275 1.267 . S
O287 Pr257 2.437 1_655 S
O287 C275 1.278 . S
H288 C260 0.929 . S
H289 C261 0.929 . S
H290 C263 0.931 . S
H291 C264 0.930 . S
H292 C269 0.929 . S
H293 C270 0.929 . S
H294 C272 0.931 . S
H295 C273 0.930 . S
Pr296 C298 2.880 . S
Pr296 O316 2.562 . S
Pr296 O317 2.490 . S
Pr296 O318 2.695 1_554 S
Pr296 O319 2.512 1_554 S
Pr296 O321 2.437 . S
Pr296 O324 2.436 1_545 S
Pr296 O326 2.438 1_544 S
Pr297 C307 2.880 1_554 S
Pr297 O318 2.436 1_564 S
Pr297 O320 2.438 1_565 S
Pr297 O322 2.562 1_554 S
Pr297 O323 2.490 1_554 S
Pr297 O324 2.695 . S
Pr297 O325 2.512 . S
Pr297 O327 2.437 1_554 S
C298 Pr296 2.880 . S
C298 C299 1.491 . S
C298 O316 1.254 . S
C298 O317 1.225 . S
C299 C298 1.491 . S
C299 C300 1.392 . S
C299 C304 1.356 . S
C300 C299 1.392 . S
C300 C301 1.368 . S
C300 H328 0.929 . S
C301 C300 1.368 . S
C301 C302 1.386 . S
C301 H329 0.929 . S
C302 C301 1.386 . S
C302 C303 1.373 . S
C303 C302 1.373 . S
C303 C304 1.409 . S
C303 H330 0.931 . S
C304 C299 1.356 . S
C304 C303 1.409 . S
C304 H331 0.930 . S
C305 O318 1.270 . S
C305 O319 1.248 . S
C306 O320 1.267 . S
C306 O321 1.278 . S
C307 Pr297 2.880 1_556 S
C307 C308 1.491 . S
C307 O322 1.254 . S
C307 O323 1.225 . S
C308 C307 1.491 . S
C308 C309 1.392 . S
C308 C313 1.356 . S
C309 C308 1.392 . S
C309 C310 1.368 . S
C309 H332 0.929 . S
C310 C309 1.368 . S
C310 C311 1.386 . S
C310 H333 0.929 . S
C311 C310 1.386 . S
C311 C312 1.373 . S
C312 C311 1.373 . S
C312 C313 1.409 . S
C312 H334 0.931 . S
C313 C308 1.356 . S
C313 C312 1.409 . S
C313 H335 0.930 . S
C314 O324 1.270 . S
C314 O325 1.248 . S
C315 O326 1.267 . S
C315 O327 1.278 . S
O316 Pr296 2.562 . S
O316 C298 1.254 . S
O317 Pr296 2.490 . S
O317 C298 1.225 . S
O318 Pr296 2.695 1_556 S
O318 Pr297 2.436 1_546 S
O318 C305 1.270 . S
O319 Pr296 2.512 1_556 S
O319 C305 1.248 . S
O320 Pr297 2.438 1_545 S
O320 C306 1.267 . S
O321 Pr296 2.437 . S
O321 C306 1.278 . S
O322 Pr297 2.562 1_556 S
O322 C307 1.254 . S
O323 Pr297 2.490 1_556 S
O323 C307 1.225 . S
O324 Pr296 2.436 1_565 S
O324 Pr297 2.695 . S
O324 C314 1.270 . S
O325 Pr297 2.512 . S
O325 C314 1.248 . S
O326 Pr296 2.438 1_566 S
O326 C315 1.267 . S
O327 Pr297 2.437 1_556 S
O327 C315 1.278 . S
H328 C300 0.929 . S
H329 C301 0.929 . S
H330 C303 0.931 . S
H331 C304 0.930 . S
H332 C309 0.929 . S
H333 C310 0.929 . S
H334 C312 0.931 . S
H335 C313 0.930 . S
Pr336 C338 2.880 . S
Pr336 O356 2.562 . S
Pr336 O357 2.490 . S
Pr336 O358 2.695 . S
Pr336 O359 2.512 . S
Pr336 O361 2.437 . S
Pr336 O364 2.436 . S
Pr336 O366 2.438 . S
Pr337 C347 2.880 . S
Pr337 O358 2.436 . S
Pr337 O360 2.438 . S
Pr337 O362 2.562 . S
Pr337 O363 2.490 . S
Pr337 O364 2.695 . S
Pr337 O365 2.512 . S
Pr337 O367 2.437 . S
C338 Pr336 2.880 . S
C338 C339 1.491 . S
C338 O356 1.254 . S
C338 O357 1.225 . S
C339 C338 1.491 . S
C339 C340 1.392 . S
C339 C344 1.356 . S
C340 C339 1.392 . S
C340 C341 1.368 . S
C340 H368 0.929 . S
C341 C340 1.368 . S
C341 C342 1.386 . S
C341 H369 0.929 . S
C342 C341 1.386 . S
C342 C343 1.373 . S
C343 C342 1.373 . S
C343 C344 1.409 . S
C343 H370 0.931 . S
C344 C339 1.356 . S
C344 C343 1.409 . S
C344 H371 0.930 . S
C345 O358 1.270 . S
C345 O359 1.248 . S
C346 O360 1.267 . S
C346 O361 1.278 . S
C347 Pr337 2.880 . S
C347 C348 1.491 . S
C347 O362 1.254 . S
C347 O363 1.225 . S
C348 C347 1.491 . S
C348 C349 1.392 . S
C348 C353 1.356 . S
C349 C348 1.392 . S
C349 C350 1.368 . S
C349 H372 0.929 . S
C350 C349 1.368 . S
C350 C351 1.386 . S
C350 H373 0.929 . S
C351 C350 1.386 . S
C351 C352 1.373 . S
C352 C351 1.373 . S
C352 C353 1.409 . S
C352 H374 0.931 . S
C353 C348 1.356 . S
C353 C352 1.409 . S
C353 H375 0.930 . S
C354 O364 1.270 . S
C354 O365 1.248 . S
C355 O366 1.267 . S
C355 O367 1.278 . S
O356 Pr336 2.562 . S
O356 C338 1.254 . S
O357 Pr336 2.490 . S
O357 C338 1.225 . S
O358 Pr336 2.695 . S
O358 Pr337 2.436 . S
O358 C345 1.270 . S
O359 Pr336 2.512 . S
O359 C345 1.248 . S
O360 Pr337 2.438 . S
O360 C346 1.267 . S
O361 Pr336 2.437 . S
O361 C346 1.278 . S
O362 Pr337 2.562 . S
O362 C347 1.254 . S
O363 Pr337 2.490 . S
O363 C347 1.225 . S
O364 Pr336 2.436 . S
O364 Pr337 2.695 . S
O364 C354 1.270 . S
O365 Pr337 2.512 . S
O365 C354 1.248 . S
O366 Pr336 2.438 . S
O366 C355 1.267 . S
O367 Pr337 2.437 . S
O367 C355 1.278 . S
H368 C340 0.929 . S
H369 C341 0.929 . S
H370 C343 0.931 . S
H371 C344 0.930 . S
H372 C349 0.929 . S
H373 C350 0.929 . S
H374 C352 0.931 . S
H375 C353 0.930 . S
Pr376 C378 2.880 . S
Pr376 O396 2.562 . S
Pr376 O397 2.490 . S
Pr376 O398 2.695 1_656 S
Pr376 O399 2.512 1_656 S
Pr376 O401 2.437 1_556 S
Pr376 O404 2.436 . S
Pr376 O406 2.438 1_655 S
Pr377 C387 2.880 . S
Pr377 O398 2.436 . S
Pr377 O400 2.438 1_455 S
Pr377 O402 2.562 . S
Pr377 O403 2.490 . S
Pr377 O404 2.695 1_454 S
Pr377 O405 2.512 1_454 S
Pr377 O407 2.437 1_554 S
C378 Pr376 2.880 . S
C378 C379 1.491 . S
C378 O396 1.254 . S
C378 O397 1.225 . S
C379 C378 1.491 . S
C379 C380 1.392 . S
C379 C384 1.356 . S
C380 C379 1.392 . S
C380 C381 1.368 . S
C380 H408 0.929 . S
C381 C380 1.368 . S
C381 C382 1.386 . S
C381 H409 0.929 . S
C382 C381 1.386 . S
C382 C383 1.373 . S
C383 C382 1.373 . S
C383 C384 1.409 . S
C383 H410 0.931 . S
C384 C379 1.356 . S
C384 C383 1.409 . S
C384 H411 0.930 . S
C385 O398 1.270 . S
C385 O399 1.248 . S
C386 O400 1.267 . S
C386 O401 1.278 . S
C387 Pr377 2.880 . S
C387 C388 1.491 . S
C387 O402 1.254 . S
C387 O403 1.225 . S
C388 C387 1.491 . S
C388 C389 1.392 . S
C388 C393 1.356 . S
C389 C388 1.392 . S
C389 C390 1.368 . S
C389 H412 0.929 . S
C390 C389 1.368 . S
C390 C391 1.386 . S
C390 H413 0.929 . S
C391 C390 1.386 . S
C391 C392 1.373 . S
C392 C391 1.373 . S
C392 C393 1.409 . S
C392 H414 0.931 . S
C393 C388 1.356 . S
C393 C392 1.409 . S
C393 H415 0.930 . S
C394 O404 1.270 . S
C394 O405 1.248 . S
C395 O406 1.267 . S
C395 O407 1.278 . S
O396 Pr376 2.562 . S
O396 C378 1.254 . S
O397 Pr376 2.490 . S
O397 C378 1.225 . S
O398 Pr376 2.695 1_454 S
O398 Pr377 2.436 . S
O398 C385 1.270 . S
O399 Pr376 2.512 1_454 S
O399 C385 1.248 . S
O400 Pr377 2.438 1_655 S
O400 C386 1.267 . S
O401 Pr376 2.437 1_554 S
O401 C386 1.278 . S
O402 Pr377 2.562 . S
O402 C387 1.254 . S
O403 Pr377 2.490 . S
O403 C387 1.225 . S
O404 Pr376 2.436 . S
O404 Pr377 2.695 1_656 S
O404 C394 1.270 . S
O405 Pr377 2.512 1_656 S
O405 C394 1.248 . S
O406 Pr376 2.438 1_455 S
O406 C395 1.267 . S
O407 Pr377 2.437 1_556 S
O407 C395 1.278 . S
H408 C380 0.929 . S
H409 C381 0.929 . S
H410 C383 0.931 . S
H411 C384 0.930 . S
H412 C389 0.929 . S
H413 C390 0.929 . S
H414 C392 0.931 . S
H415 C393 0.930 . S
H416 C424 0.950 . S
H417 C429 0.950 . S
H418 C426 0.950 . S
H419 C428 0.950 . S
H420 C430 0.950 . S
H421 C432 0.950 . S
H422 C434 0.950 . S
H423 C435 0.950 . S
C424 H416 0.950 . S
C424 C425 1.386 . S
C424 C426 1.391 . S
C425 C424 1.386 . S
C425 C429 1.393 . S
C426 H418 0.950 . S
C426 C424 1.391 . S
C426 C427 1.400 . S
C427 C426 1.400 . S
C427 C428 1.398 . S
C427 C433 1.491 . S
C428 H419 0.950 . S
C428 C427 1.398 . S
C428 C429 1.391 . S
C429 H417 0.950 . S
C429 C425 1.393 . S
C429 C428 1.391 . S
C430 H420 0.950 . S
C430 C431 1.386 . S
C430 C432 1.391 . S
C431 C430 1.386 . S
C431 C435 1.393 . S
C432 H421 0.950 . S
C432 C430 1.391 . S
C432 C433 1.400 . S
C433 C427 1.491 . S
C433 C432 1.400 . S
C433 C434 1.398 . S
C434 H422 0.950 . S
C434 C433 1.398 . S
C434 C435 1.391 . S
C435 H423 0.950 . S
C435 C431 1.393 . S
C435 C434 1.391 . S
H436 C444 0.950 . S
H437 C449 0.950 . S
H438 C446 0.950 . S
H439 C448 0.950 . S
H440 C450 0.950 . S
H441 C452 0.950 . S
H442 C454 0.950 . S
H443 C455 0.950 . S
C444 H436 0.950 . S
C444 C445 1.386 . S
C444 C446 1.391 . S
C445 C444 1.386 . S
C445 C449 1.393 . S
C446 H438 0.950 . S
C446 C444 1.391 . S
C446 C447 1.400 . S
C447 C446 1.400 . S
C447 C448 1.398 . S
C447 C453 1.491 . S
C448 H439 0.950 . S
C448 C447 1.398 . S
C448 C449 1.391 . S
C449 H437 0.950 . S
C449 C445 1.393 . S
C449 C448 1.391 . S
C450 H440 0.950 . S
C450 C451 1.386 . S
C450 C452 1.391 . S
C451 C450 1.386 . S
C451 C455 1.393 . S
C452 H441 0.950 . S
C452 C450 1.391 . S
C452 C453 1.400 . S
C453 C447 1.491 . S
C453 C452 1.400 . S
C453 C454 1.398 . S
C454 H442 0.950 . S
C454 C453 1.398 . S
C454 C455 1.391 . S
C455 H443 0.950 . S
C455 C451 1.393 . S
C455 C454 1.391 . S
H456 C464 0.950 . S
H457 C469 0.950 . S
H458 C466 0.950 . S
H459 C468 0.950 . S
H460 C470 0.950 . S
H461 C472 0.950 . S
H462 C474 0.950 . S
H463 C475 0.950 . S
C464 H456 0.950 . S
C464 C465 1.386 . S
C464 C466 1.391 . S
C465 C464 1.386 . S
C465 C469 1.393 . S
C466 H458 0.950 . S
C466 C464 1.391 . S
C466 C467 1.400 . S
C467 C466 1.400 . S
C467 C468 1.398 . S
C467 C473 1.491 . S
C468 H459 0.950 . S
C468 C467 1.398 . S
C468 C469 1.391 . S
C469 H457 0.950 . S
C469 C465 1.393 . S
C469 C468 1.391 . S
C470 H460 0.950 . S
C470 C471 1.386 . S
C470 C472 1.391 . S
C471 C470 1.386 . S
C471 C475 1.393 . S
C472 H461 0.950 . S
C472 C470 1.391 . S
C472 C473 1.400 . S
C473 C467 1.491 . S
C473 C472 1.400 . S
C473 C474 1.398 . S
C474 H462 0.950 . S
C474 C473 1.398 . S
C474 C475 1.391 . S
C475 H463 0.950 . S
C475 C471 1.393 . S
C475 C474 1.391 . S
H476 C484 0.950 . S
H477 C489 0.950 . S
H478 C486 0.950 . S
H479 C488 0.950 . S
H480 C490 0.950 . S
H481 C492 0.950 . S
H482 C494 0.950 . S
H483 C495 0.950 . S
C484 H476 0.950 . S
C484 C485 1.386 . S
C484 C486 1.391 . S
C485 C484 1.386 . S
C485 C489 1.393 . S
C486 H478 0.950 . S
C486 C484 1.391 . S
C486 C487 1.400 . S
C487 C486 1.400 . S
C487 C488 1.398 . S
C487 C493 1.491 . S
C488 H479 0.950 . S
C488 C487 1.398 . S
C488 C489 1.391 . S
C489 H477 0.950 . S
C489 C485 1.393 . S
C489 C488 1.391 . S
C490 H480 0.950 . S
C490 C491 1.386 . S
C490 C492 1.391 . S
C491 C490 1.386 . S
C491 C495 1.393 . S
C492 H481 0.950 . S
C492 C490 1.391 . S
C492 C493 1.400 . S
C493 C487 1.491 . S
C493 C492 1.400 . S
C493 C494 1.398 . S
C494 H482 0.950 . S
C494 C493 1.398 . S
C494 C495 1.391 . S
C495 H483 0.950 . S
C495 C491 1.393 . S
C495 C494 1.391 . S
H496 C504 0.950 . S
H497 C509 0.950 . S
H498 C506 0.950 . S
H499 C508 0.950 . S
H500 C510 0.950 . S
H501 C512 0.950 . S
H502 C514 0.950 . S
H503 C515 0.950 . S
C504 H496 0.950 . S
C504 C505 1.386 . S
C504 C506 1.391 . S
C505 C504 1.386 . S
C505 C509 1.393 . S
C506 H498 0.950 . S
C506 C504 1.391 . S
C506 C507 1.400 . S
C507 C506 1.400 . S
C507 C508 1.398 . S
C507 C513 1.491 . S
C508 H499 0.950 . S
C508 C507 1.398 . S
C508 C509 1.391 . S
C509 H497 0.950 . S
C509 C505 1.393 . S
C509 C508 1.391 . S
C510 H500 0.950 . S
C510 C511 1.386 . S
C510 C512 1.391 . S
C511 C510 1.386 . S
C511 C515 1.393 . S
C512 H501 0.950 . S
C512 C510 1.391 . S
C512 C513 1.400 . S
C513 C507 1.491 . S
C513 C512 1.400 . S
C513 C514 1.398 . S
C514 H502 0.950 . S
C514 C513 1.398 . S
C514 C515 1.391 . S
C515 H503 0.950 . S
C515 C511 1.393 . S
C515 C514 1.391 . S
H516 C524 0.950 . S
H517 C529 0.950 . S
H518 C526 0.950 . S
H519 C528 0.950 . S
H520 C530 0.950 . S
H521 C532 0.950 . S
H522 C534 0.950 . S
H523 C535 0.950 . S
C524 H516 0.950 . S
C524 C525 1.386 . S
C524 C526 1.391 . S
C525 C524 1.386 . S
C525 C529 1.393 . S
C526 H518 0.950 . S
C526 C524 1.391 . S
C526 C527 1.400 . S
C527 C526 1.400 . S
C527 C528 1.398 . S
C527 C533 1.491 . S
C528 H519 0.950 . S
C528 C527 1.398 . S
C528 C529 1.391 . S
C529 H517 0.950 . S
C529 C525 1.393 . S
C529 C528 1.391 . S
C530 H520 0.950 . S
C530 C531 1.386 . S
C530 C532 1.391 . S
C531 C530 1.386 . S
C531 C535 1.393 . S
C532 H521 0.950 . S
C532 C530 1.391 . S
C532 C533 1.400 . S
C533 C527 1.491 . S
C533 C532 1.400 . S
C533 C534 1.398 . S
C534 H522 0.950 . S
C534 C533 1.398 . S
C534 C535 1.391 . S
C535 H523 0.950 . S
C535 C531 1.393 . S
C535 C534 1.391 . S
H536 C544 0.950 . S
H537 C549 0.950 . S
H538 C546 0.950 . S
H539 C548 0.950 . S
H540 C550 0.950 . S
H541 C552 0.950 . S
H542 C554 0.950 . S
H543 C555 0.950 . S
C544 H536 0.950 . S
C544 C545 1.386 . S
C544 C546 1.391 . S
C545 C544 1.386 . S
C545 C549 1.393 . S
C546 H538 0.950 . S
C546 C544 1.391 . S
C546 C547 1.400 . S
C547 C546 1.400 . S
C547 C548 1.398 . S
C547 C553 1.491 . S
C548 H539 0.950 . S
C548 C547 1.398 . S
C548 C549 1.391 . S
C549 H537 0.950 . S
C549 C545 1.393 . S
C549 C548 1.391 . S
C550 H540 0.950 . S
C550 C551 1.386 . S
C550 C552 1.391 . S
C551 C550 1.386 . S
C551 C555 1.393 . S
C552 H541 0.950 . S
C552 C550 1.391 . S
C552 C553 1.400 . S
C553 C547 1.491 . S
C553 C552 1.400 . S
C553 C554 1.398 . S
C554 H542 0.950 . S
C554 C553 1.398 . S
C554 C555 1.391 . S
C555 H543 0.950 . S
C555 C551 1.393 . S
C555 C554 1.391 . S
H556 C564 0.950 . S
H557 C569 0.950 . S
H558 C566 0.950 . S
H559 C568 0.950 . S
H560 C570 0.950 . S
H561 C572 0.950 . S
H562 C574 0.950 . S
H563 C575 0.950 . S
C564 H556 0.950 . S
C564 C565 1.386 . S
C564 C566 1.391 . S
C565 C564 1.386 . S
C565 C569 1.393 . S
C566 H558 0.950 . S
C566 C564 1.391 . S
C566 C567 1.400 . S
C567 C566 1.400 . S
C567 C568 1.398 . S
C567 C573 1.491 . S
C568 H559 0.950 . S
C568 C567 1.398 . S
C568 C569 1.391 . S
C569 H557 0.950 . S
C569 C565 1.393 . S
C569 C568 1.391 . S
C570 H560 0.950 . S
C570 C571 1.386 . S
C570 C572 1.391 . S
C571 C570 1.386 . S
C571 C575 1.393 . S
C572 H561 0.950 . S
C572 C570 1.391 . S
C572 C573 1.400 . S
C573 C567 1.491 . S
C573 C572 1.400 . S
C573 C574 1.398 . S
C574 H562 0.950 . S
C574 C573 1.398 . S
C574 C575 1.391 . S
C575 H563 0.950 . S
C575 C571 1.393 . S
C575 C574 1.391 . S
H576 C584 0.950 . S
H577 C589 0.950 . S
H578 C586 0.950 . S
H579 C588 0.950 . S
H580 C590 0.950 . S
H581 C592 0.950 . S
H582 C594 0.950 . S
H583 C595 0.950 . S
C584 H576 0.950 . S
C584 C585 1.386 . S
C584 C586 1.391 . S
C585 C584 1.386 . S
C585 C589 1.393 . S
C586 H578 0.950 . S
C586 C584 1.391 . S
C586 C587 1.400 . S
C587 C586 1.400 . S
C587 C588 1.398 . S
C587 C593 1.491 . S
C588 H579 0.950 . S
C588 C587 1.398 . S
C588 C589 1.391 . S
C589 H577 0.950 . S
C589 C585 1.393 . S
C589 C588 1.391 . S
C590 H580 0.950 . S
C590 C591 1.386 . S
C590 C592 1.391 . S
C591 C590 1.386 . S
C591 C595 1.393 . S
C592 H581 0.950 . S
C592 C590 1.391 . S
C592 C593 1.400 . S
C593 C587 1.491 . S
C593 C592 1.400 . S
C593 C594 1.398 . S
C594 H582 0.950 . S
C594 C593 1.398 . S
C594 C595 1.391 . S
C595 H583 0.950 . S
C595 C591 1.393 . S
C595 C594 1.391 . S
H596 C604 0.950 . S
H597 C609 0.950 . S
H598 C606 0.950 . S
H599 C608 0.950 . S
H600 C610 0.950 . S
H601 C612 0.950 . S
H602 C614 0.950 . S
H603 C615 0.950 . S
C604 H596 0.950 . S
C604 C605 1.386 . S
C604 C606 1.391 . S
C605 C604 1.386 . S
C605 C609 1.393 . S
C606 H598 0.950 . S
C606 C604 1.391 . S
C606 C607 1.400 . S
C607 C606 1.400 . S
C607 C608 1.398 . S
C607 C613 1.491 . S
C608 H599 0.950 . S
C608 C607 1.398 . S
C608 C609 1.391 . S
C609 H597 0.950 . S
C609 C605 1.393 . S
C609 C608 1.391 . S
C610 H600 0.950 . S
C610 C611 1.386 . S
C610 C612 1.391 . S
C611 C610 1.386 . S
C611 C615 1.393 . S
C612 H601 0.950 . S
C612 C610 1.391 . S
C612 C613 1.400 . S
C613 C607 1.491 . S
C613 C612 1.400 . S
C613 C614 1.398 . S
C614 H602 0.950 . S
C614 C613 1.398 . S
C614 C615 1.391 . S
C615 H603 0.950 . S
C615 C611 1.393 . S
C615 C614 1.391 . S
H616 C624 0.950 . S
H617 C629 0.950 . S
H618 C626 0.950 . S
H619 C628 0.950 . S
H620 C630 0.950 . S
H621 C632 0.950 . S
H622 C634 0.950 . S
H623 C635 0.950 . S
C624 H616 0.950 . S
C624 C625 1.386 . S
C624 C626 1.391 . S
C625 C624 1.386 . S
C625 C629 1.393 . S
C626 H618 0.950 . S
C626 C624 1.391 . S
C626 C627 1.400 . S
C627 C626 1.400 . S
C627 C628 1.398 . S
C627 C633 1.491 . S
C628 H619 0.950 . S
C628 C627 1.398 . S
C628 C629 1.391 . S
C629 H617 0.950 . S
C629 C625 1.393 . S
C629 C628 1.391 . S
C630 H620 0.950 . S
C630 C631 1.386 . S
C630 C632 1.391 . S
C631 C630 1.386 . S
C631 C635 1.393 . S
C632 H621 0.950 . S
C632 C630 1.391 . S
C632 C633 1.400 . S
C633 C627 1.491 . S
C633 C632 1.400 . S
C633 C634 1.398 . S
C634 H622 0.950 . S
C634 C633 1.398 . S
C634 C635 1.391 . S
C635 H623 0.950 . S
C635 C631 1.393 . S
C635 C634 1.391 . S
H636 C644 0.950 . S
H637 C649 0.950 . S
H638 C646 0.950 . S
H639 C648 0.950 . S
H640 C650 0.950 . S
H641 C652 0.950 . S
H642 C654 0.950 . S
H643 C655 0.950 . S
C644 H636 0.950 . S
C644 C645 1.386 . S
C644 C646 1.391 . S
C645 C644 1.386 . S
C645 C649 1.393 . S
C646 H638 0.950 . S
C646 C644 1.391 . S
C646 C647 1.400 . S
C647 C646 1.400 . S
C647 C648 1.398 . S
C647 C653 1.491 . S
C648 H639 0.950 . S
C648 C647 1.398 . S
C648 C649 1.391 . S
C649 H637 0.950 . S
C649 C645 1.393 . S
C649 C648 1.391 . S
C650 H640 0.950 . S
C650 C651 1.386 . S
C650 C652 1.391 . S
C651 C650 1.386 . S
C651 C655 1.393 . S
C652 H641 0.950 . S
C652 C650 1.391 . S
C652 C653 1.400 . S
C653 C647 1.491 . S
C653 C652 1.400 . S
C653 C654 1.398 . S
C654 H642 0.950 . S
C654 C653 1.398 . S
C654 C655 1.391 . S
C655 H643 0.950 . S
C655 C651 1.393 . S
C655 C654 1.391 . S
H656 C664 0.950 . S
H657 C669 0.950 . S
H658 C666 0.950 . S
H659 C668 0.950 . S
H660 C670 0.950 . S
H661 C672 0.950 . S
H662 C674 0.950 . S
H663 C675 0.950 . S
C664 H656 0.950 . S
C664 C665 1.386 . S
C664 C666 1.391 . S
C665 C664 1.386 . S
C665 C669 1.393 . S
C666 H658 0.950 . S
C666 C664 1.391 . S
C666 C667 1.400 . S
C667 C666 1.400 . S
C667 C668 1.398 . S
C667 C673 1.491 . S
C668 H659 0.950 . S
C668 C667 1.398 . S
C668 C669 1.391 . S
C669 H657 0.950 . S
C669 C665 1.393 . S
C669 C668 1.391 . S
C670 H660 0.950 . S
C670 C671 1.386 . S
C670 C672 1.391 . S
C671 C670 1.386 . S
C671 C675 1.393 . S
C672 H661 0.950 . S
C672 C670 1.391 . S
C672 C673 1.400 . S
C673 C667 1.491 . S
C673 C672 1.400 . S
C673 C674 1.398 . S
C674 H662 0.950 . S
C674 C673 1.398 . S
C674 C675 1.391 . S
C675 H663 0.950 . S
C675 C671 1.393 . S
C675 C674 1.391 . S
H676 C684 0.950 . S
H677 C689 0.950 . S
H678 C686 0.950 . S
H679 C688 0.950 . S
H680 C690 0.950 . S
H681 C692 0.950 . S
H682 C694 0.950 . S
H683 C695 0.950 . S
C684 H676 0.950 . S
C684 C685 1.386 . S
C684 C686 1.391 . S
C685 C684 1.386 . S
C685 C689 1.393 . S
C686 H678 0.950 . S
C686 C684 1.391 . S
C686 C687 1.400 . S
C687 C686 1.400 . S
C687 C688 1.398 . S
C687 C693 1.491 . S
C688 H679 0.950 . S
C688 C687 1.398 . S
C688 C689 1.391 . S
C689 H677 0.950 . S
C689 C685 1.393 . S
C689 C688 1.391 . S
C690 H680 0.950 . S
C690 C691 1.386 . S
C690 C692 1.391 . S
C691 C690 1.386 . S
C691 C695 1.393 . S
C692 H681 0.950 . S
C692 C690 1.391 . S
C692 C693 1.400 . S
C693 C687 1.491 . S
C693 C692 1.400 . S
C693 C694 1.398 . S
C694 H682 0.950 . S
C694 C693 1.398 . S
C694 C695 1.391 . S
C695 H683 0.950 . S
C695 C691 1.393 . S
C695 C694 1.391 . S
H696 C704 0.950 . S
H697 C709 0.950 . S
H698 C706 0.950 . S
H699 C708 0.950 . S
H700 C710 0.950 . S
H701 C712 0.950 . S
H702 C714 0.950 . S
H703 C715 0.950 . S
C704 H696 0.950 . S
C704 C705 1.386 . S
C704 C706 1.391 . S
C705 C704 1.386 . S
C705 C709 1.393 . S
C706 H698 0.950 . S
C706 C704 1.391 . S
C706 C707 1.400 . S
C707 C706 1.400 . S
C707 C708 1.398 . S
C707 C713 1.491 . S
C708 H699 0.950 . S
C708 C707 1.398 . S
C708 C709 1.391 . S
C709 H697 0.950 . S
C709 C705 1.393 . S
C709 C708 1.391 . S
C710 H700 0.950 . S
C710 C711 1.386 . S
C710 C712 1.391 . S
C711 C710 1.386 . S
C711 C715 1.393 . S
C712 H701 0.950 . S
C712 C710 1.391 . S
C712 C713 1.400 . S
C713 C707 1.491 . S
C713 C712 1.400 . S
C713 C714 1.398 . S
C714 H702 0.950 . S
C714 C713 1.398 . S
C714 C715 1.391 . S
C715 H703 0.950 . S
C715 C711 1.393 . S
C715 C714 1.391 . S
H716 C724 0.950 . S
H717 C729 0.950 . S
H718 C726 0.950 . S
H719 C728 0.950 . S
H720 C730 0.950 . S
H721 C732 0.950 . S
H722 C734 0.950 . S
H723 C735 0.950 . S
C724 H716 0.950 . S
C724 C725 1.386 . S
C724 C726 1.391 . S
C725 C724 1.386 . S
C725 C729 1.393 . S
C726 H718 0.950 . S
C726 C724 1.391 . S
C726 C727 1.400 . S
C727 C726 1.400 . S
C727 C728 1.398 . S
C727 C733 1.491 . S
C728 H719 0.950 . S
C728 C727 1.398 . S
C728 C729 1.391 . S
C729 H717 0.950 . S
C729 C725 1.393 . S
C729 C728 1.391 . S
C730 H720 0.950 . S
C730 C731 1.386 . S
C730 C732 1.391 . S
C731 C730 1.386 . S
C731 C735 1.393 . S
C732 H721 0.950 . S
C732 C730 1.391 . S
C732 C733 1.400 . S
C733 C727 1.491 . S
C733 C732 1.400 . S
C733 C734 1.398 . S
C734 H722 0.950 . S
C734 C733 1.398 . S
C734 C735 1.391 . S
C735 H723 0.950 . S
C735 C731 1.393 . S
C735 C734 1.391 . S
H736 C744 0.950 . S
H737 C749 0.950 . S
H738 C746 0.950 . S
H739 C748 0.950 . S
H740 C750 0.950 . S
H741 C752 0.950 . S
H742 C754 0.950 . S
H743 C755 0.950 . S
C744 H736 0.950 . S
C744 C745 1.386 . S
C744 C746 1.391 . S
C745 C744 1.386 . S
C745 C749 1.393 . S
C746 H738 0.950 . S
C746 C744 1.391 . S
C746 C747 1.400 . S
C747 C746 1.400 . S
C747 C748 1.398 . S
C747 C753 1.491 . S
C748 H739 0.950 . S
C748 C747 1.398 . S
C748 C749 1.391 . S
C749 H737 0.950 . S
C749 C745 1.393 . S
C749 C748 1.391 . S
C750 H740 0.950 . S
C750 C751 1.386 . S
C750 C752 1.391 . S
C751 C750 1.386 . S
C751 C755 1.393 . S
C752 H741 0.950 . S
C752 C750 1.391 . S
C752 C753 1.400 . S
C753 C747 1.491 . S
C753 C752 1.400 . S
C753 C754 1.398 . S
C754 H742 0.950 . S
C754 C753 1.398 . S
C754 C755 1.391 . S
C755 H743 0.950 . S
C755 C751 1.393 . S
C755 C754 1.391 . S
H756 C764 0.950 . S
H757 C769 0.950 . S
H758 C766 0.950 . S
H759 C768 0.950 . S
H760 C770 0.950 . S
H761 C772 0.950 . S
H762 C774 0.950 . S
H763 C775 0.950 . S
C764 H756 0.950 . S
C764 C765 1.386 . S
C764 C766 1.391 . S
C765 C764 1.386 . S
C765 C769 1.393 . S
C766 H758 0.950 . S
C766 C764 1.391 . S
C766 C767 1.400 . S
C767 C766 1.400 . S
C767 C768 1.398 . S
C767 C773 1.491 . S
C768 H759 0.950 . S
C768 C767 1.398 . S
C768 C769 1.391 . S
C769 H757 0.950 . S
C769 C765 1.393 . S
C769 C768 1.391 . S
C770 H760 0.950 . S
C770 C771 1.386 . S
C770 C772 1.391 . S
C771 C770 1.386 . S
C771 C775 1.393 . S
C772 H761 0.950 . S
C772 C770 1.391 . S
C772 C773 1.400 . S
C773 C767 1.491 . S
C773 C772 1.400 . S
C773 C774 1.398 . S
C774 H762 0.950 . S
C774 C773 1.398 . S
C774 C775 1.391 . S
C775 H763 0.950 . S
C775 C771 1.393 . S
C775 C774 1.391 . S
H776 C784 0.950 . S
H777 C789 0.950 . S
H778 C786 0.950 . S
H779 C788 0.950 . S
H780 C790 0.950 . S
H781 C792 0.950 . S
H782 C794 0.950 . S
H783 C795 0.950 . S
C784 H776 0.950 . S
C784 C785 1.386 . S
C784 C786 1.391 . S
C785 C784 1.386 . S
C785 C789 1.393 . S
C786 H778 0.950 . S
C786 C784 1.391 . S
C786 C787 1.400 . S
C787 C786 1.400 . S
C787 C788 1.398 . S
C787 C793 1.491 . S
C788 H779 0.950 . S
C788 C787 1.398 . S
C788 C789 1.391 . S
C789 H777 0.950 . S
C789 C785 1.393 . S
C789 C788 1.391 . S
C790 H780 0.950 . S
C790 C791 1.386 . S
C790 C792 1.391 . S
C791 C790 1.386 . S
C791 C795 1.393 . S
C792 H781 0.950 . S
C792 C790 1.391 . S
C792 C793 1.400 . S
C793 C787 1.491 . S
C793 C792 1.400 . S
C793 C794 1.398 . S
C794 H782 0.950 . S
C794 C793 1.398 . S
C794 C795 1.391 . S
C795 H783 0.950 . S
C795 C791 1.393 . S
C795 C794 1.391 . S
H796 C804 0.950 . S
H797 C809 0.950 . S
H798 C806 0.950 . S
H799 C808 0.950 . S
H800 C810 0.950 . S
H801 C812 0.950 . S
H802 C814 0.950 . S
H803 C815 0.950 . S
C804 H796 0.950 . S
C804 C805 1.386 . S
C804 C806 1.391 . S
C805 C804 1.386 . S
C805 C809 1.393 . S
C806 H798 0.950 . S
C806 C804 1.391 . S
C806 C807 1.400 . S
C807 C806 1.400 . S
C807 C808 1.398 . S
C807 C813 1.491 . S
C808 H799 0.950 . S
C808 C807 1.398 . S
C808 C809 1.391 . S
C809 H797 0.950 . S
C809 C805 1.393 . S
C809 C808 1.391 . S
C810 H800 0.950 . S
C810 C811 1.386 . S
C810 C812 1.391 . S
C811 C810 1.386 . S
C811 C815 1.393 . S
C812 H801 0.950 . S
C812 C810 1.391 . S
C812 C813 1.400 . S
C813 C807 1.491 . S
C813 C812 1.400 . S
C813 C814 1.398 . S
C814 H802 0.950 . S
C814 C813 1.398 . S
C814 C815 1.391 . S
C815 H803 0.950 . S
C815 C811 1.393 . S
C815 C814 1.391 . S
H816 C824 0.950 . S
H817 C829 0.950 . S
H818 C826 0.950 . S
H819 C828 0.950 . S
H820 C830 0.950 . S
H821 C832 0.950 . S
H822 C834 0.950 . S
H823 C835 0.950 . S
C824 H816 0.950 . S
C824 C825 1.386 . S
C824 C826 1.391 . S
C825 C824 1.386 . S
C825 C829 1.393 . S
C826 H818 0.950 . S
C826 C824 1.391 . S
C826 C827 1.400 . S
C827 C826 1.400 . S
C827 C828 1.398 . S
C827 C833 1.491 . S
C828 H819 0.950 . S
C828 C827 1.398 . S
C828 C829 1.391 . S
C829 H817 0.950 . S
C829 C825 1.393 . S
C829 C828 1.391 . S
C830 H820 0.950 . S
C830 C831 1.386 . S
C830 C832 1.391 . S
C831 C830 1.386 . S
C831 C835 1.393 . S
C832 H821 0.950 . S
C832 C830 1.391 . S
C832 C833 1.400 . S
C833 C827 1.491 . S
C833 C832 1.400 . S
C833 C834 1.398 . S
C834 H822 0.950 . S
C834 C833 1.398 . S
C834 C835 1.391 . S
C835 H823 0.950 . S
C835 C831 1.393 . S
C835 C834 1.391 . S
H836 C844 0.950 . S
H837 C849 0.950 . S
H838 C846 0.950 . S
H839 C848 0.950 . S
H840 C850 0.950 . S
H841 C852 0.950 . S
H842 C854 0.950 . S
H843 C855 0.950 . S
C844 H836 0.950 . S
C844 C845 1.386 . S
C844 C846 1.391 . S
C845 C844 1.386 . S
C845 C849 1.393 . S
C846 H838 0.950 . S
C846 C844 1.391 . S
C846 C847 1.400 . S
C847 C846 1.400 . S
C847 C848 1.398 . S
C847 C853 1.491 . S
C848 H839 0.950 . S
C848 C847 1.398 . S
C848 C849 1.391 . S
C849 H837 0.950 . S
C849 C845 1.393 . S
C849 C848 1.391 . S
C850 H840 0.950 . S
C850 C851 1.386 . S
C850 C852 1.391 . S
C851 C850 1.386 . S
C851 C855 1.393 . S
C852 H841 0.950 . S
C852 C850 1.391 . S
C852 C853 1.400 . S
C853 C847 1.491 . S
C853 C852 1.400 . S
C853 C854 1.398 . S
C854 H842 0.950 . S
C854 C853 1.398 . S
C854 C855 1.391 . S
C855 H843 0.950 . S
C855 C851 1.393 . S
C855 C854 1.391 . S
H856 C864 0.950 . S
H857 C869 0.950 . S
H858 C866 0.950 . S
H859 C868 0.950 . S
H860 C870 0.950 . S
H861 C872 0.950 . S
H862 C874 0.950 . S
H863 C875 0.950 . S
C864 H856 0.950 . S
C864 C865 1.386 . S
C864 C866 1.391 . S
C865 C864 1.386 . S
C865 C869 1.393 . S
C866 H858 0.950 . S
C866 C864 1.391 . S
C866 C867 1.400 . S
C867 C866 1.400 . S
C867 C868 1.398 . S
C867 C873 1.491 . S
C868 H859 0.950 . S
C868 C867 1.398 . S
C868 C869 1.391 . S
C869 H857 0.950 . S
C869 C865 1.393 . S
C869 C868 1.391 . S
C870 H860 0.950 . S
C870 C871 1.386 . S
C870 C872 1.391 . S
C871 C870 1.386 . S
C871 C875 1.393 . S
C872 H861 0.950 . S
C872 C870 1.391 . S
C872 C873 1.400 . S
C873 C867 1.491 . S
C873 C872 1.400 . S
C873 C874 1.398 . S
C874 H862 0.950 . S
C874 C873 1.398 . S
C874 C875 1.391 . S
C875 H863 0.950 . S
C875 C871 1.393 . S
C875 C874 1.391 . S
H876 C884 0.950 . S
H877 C889 0.950 . S
H878 C886 0.950 . S
H879 C888 0.950 . S
H880 C890 0.950 . S
H881 C892 0.950 . S
H882 C894 0.950 . S
H883 C895 0.950 . S
C884 H876 0.950 . S
C884 C885 1.386 . S
C884 C886 1.391 . S
C885 C884 1.386 . S
C885 C889 1.393 . S
C886 H878 0.950 . S
C886 C884 1.391 . S
C886 C887 1.400 . S
C887 C886 1.400 . S
C887 C888 1.398 . S
C887 C893 1.491 . S
C888 H879 0.950 . S
C888 C887 1.398 . S
C888 C889 1.391 . S
C889 H877 0.950 . S
C889 C885 1.393 . S
C889 C888 1.391 . S
C890 H880 0.950 . S
C890 C891 1.386 . S
C890 C892 1.391 . S
C891 C890 1.386 . S
C891 C895 1.393 . S
C892 H881 0.950 . S
C892 C890 1.391 . S
C892 C893 1.400 . S
C893 C887 1.491 . S
C893 C892 1.400 . S
C893 C894 1.398 . S
C894 H882 0.950 . S
C894 C893 1.398 . S
C894 C895 1.391 . S
C895 H883 0.950 . S
C895 C891 1.393 . S
C895 C894 1.391 . S
C425 C29 1.051 . S
C431 C271 1.033 . S
C445 C49 1.418 . S
C451 C315 1.504 . S
C471 C345 2.196 . S
C465 C93 2.196 . S
C485 C119 2.717 . S
C491 C386 2.700 . S
C511 C302 0.715 . S
C505 C17 0.715 . S
C531 C266 2.508 . S
C525 C61 2.348 . S
C551 C394 1.157 . S
C545 C81 1.151 . S
C571 C355 2.258 . S
C565 C125 2.331 . S
C585 C23 1.019 . S
C591 C391 0.997 . S
C611 C305 2.009 . S
C605 C87 2.038 . S
C625 C113 2.098 . S
C631 C274 2.042 . S
C645 C55 1.810 . S
C651 C342 1.904 . S
C671 C262 1.008 . S
C665 C157 0.919 . S
C685 C189 1.615 . S
C691 C306 1.550 . S
C705 C221 2.092 . S
C711 C354 2.160 . S
C725 C253 2.778 . S
C731 C395 2.756 . S
C745 C145 0.738 . S
C751 C311 0.770 . S
C771 C275 2.444 . S
C765 C183 2.451 . S
C791 C385 1.183 . S
C785 C209 1.136 . S
C811 C346 2.234 . S
C805 C247 2.284 . S
C825 C151 0.871 . S
C831 C382 0.950 . S
C851 C314 1.990 . S
C845 C215 1.970 . S
C871 C265 2.025 . S
C865 C241 2.060 . S
C885 C177 1.948 . S
C891 C351 1.925 . S
