# Generated by pormake.
# Topology zzz, (3,6)-cn, num edge types: 1
# Building blocks:
#     Node 0, Type 0, BuildingBlock: QEWDON_clean_linker_0, # of connection points: 3
#     Node 1, Type 0, BuildingBlock: QEWDON_clean_linker_0, # of connection points: 3
#     Node 2, Type 0, BuildingBlock: QEWDON_clean_linker_0, # of connection points: 3
#     Node 3, Type 0, BuildingBlock: QEWDON_clean_linker_0, # of connection points: 3
#     Node 4, Type 0, BuildingBlock: QEWDON_clean_linker_0, # of connection points: 3
#     Node 5, Type 0, BuildingBlock: QEWDON_clean_linker_0, # of connection points: 3
#     Node 6, Type 0, BuildingBlock: QEWDON_clean_linker_0, # of connection points: 3
#     Node 7, Type 0, BuildingBlock: QEWDON_clean_linker_0, # of connection points: 3
#     Node 8, Type 1, BuildingBlock: KUMBUR_clean_sbu_0, # of connection points: 6
#     Node 9, Type 1, BuildingBlock: KUMBUR_clean_sbu_0, # of connection points: 6
#     Node 10, Type 1, BuildingBlock: KUMBUR_clean_sbu_0, # of connection points: 6
#     Node 11, Type 1, BuildingBlock: KUMBUR_clean_sbu_0, # of connection points: 6
#     Edge 12, Type (0, 1), BuildingBlock: CIFDUS_clean_linker_0, # of connection points: 2
#     Edge 13, Type (0, 1), BuildingBlock: CIFDUS_clean_linker_0, # of connection points: 2
#     Edge 14, Type (0, 1), BuildingBlock: CIFDUS_clean_linker_0, # of connection points: 2
#     Edge 15, Type (0, 1), BuildingBlock: CIFDUS_clean_linker_0, # of connection points: 2
#     Edge 16, Type (0, 1), BuildingBlock: CIFDUS_clean_linker_0, # of connection points: 2
#     Edge 17, Type (0, 1), BuildingBlock: CIFDUS_clean_linker_0, # of connection points: 2
#     Edge 18, Type (0, 1), BuildingBlock: CIFDUS_clean_linker_0, # of connection points: 2
#     Edge 19, Type (0, 1), BuildingBlock: CIFDUS_clean_linker_0, # of connection points: 2
#     Edge 20, Type (0, 1), BuildingBlock: CIFDUS_clean_linker_0, # of connection points: 2
#     Edge 21, Type (0, 1), BuildingBlock: CIFDUS_clean_linker_0, # of connection points: 2
#     Edge 22, Type (0, 1), BuildingBlock: CIFDUS_clean_linker_0, # of connection points: 2
#     Edge 23, Type (0, 1), BuildingBlock: CIFDUS_clean_linker_0, # of connection points: 2
#     Edge 24, Type (0, 1), BuildingBlock: CIFDUS_clean_linker_0, # of connection points: 2
#     Edge 25, Type (0, 1), BuildingBlock: CIFDUS_clean_linker_0, # of connection points: 2
#     Edge 26, Type (0, 1), BuildingBlock: CIFDUS_clean_linker_0, # of connection points: 2
#     Edge 27, Type (0, 1), BuildingBlock: CIFDUS_clean_linker_0, # of connection points: 2
#     Edge 28, Type (0, 1), BuildingBlock: CIFDUS_clean_linker_0, # of connection points: 2
#     Edge 29, Type (0, 1), BuildingBlock: CIFDUS_clean_linker_0, # of connection points: 2
#     Edge 30, Type (0, 1), BuildingBlock: CIFDUS_clean_linker_0, # of connection points: 2
#     Edge 31, Type (0, 1), BuildingBlock: CIFDUS_clean_linker_0, # of connection points: 2
#     Edge 32, Type (0, 1), BuildingBlock: CIFDUS_clean_linker_0, # of connection points: 2
#     Edge 33, Type (0, 1), BuildingBlock: CIFDUS_clean_linker_0, # of connection points: 2
#     Edge 34, Type (0, 1), BuildingBlock: CIFDUS_clean_linker_0, # of connection points: 2
#     Edge 35, Type (0, 1), BuildingBlock: CIFDUS_clean_linker_0, # of connection points: 2
# Relax obj value: 0.129
# Max RMSD: 0.157
# Mean RMSD: 0.077
data_MOF--net-zzz--node1-KUMBUR_clean_sbu_0--node2-QEWDON_clean_linker_0--edge1-CIFDUS_clean_linker_0
_symmetry_space_group_name_H-M    P1
_symmetry_Int_Tables_number       1
_symmetry_cell_setting            triclinic
loop_
_symmetry_equiv_pos_as_xyz
'x, y, z'
_cell_length_a     48.176954
_cell_length_b     48.076489
_cell_length_c     12.67731
_cell_angle_alpha  90.896904
_cell_angle_beta   89.893741
_cell_angle_gamma 90.141128
loop_
_atom_site_label
_atom_site_type_symbol
_atom_site_fract_x
_atom_site_fract_y
_atom_site_fract_z
_atom_type_partial_charge
H0 H 0.77046 0.55426 0.10801 0.0
C1 C 0.78262 0.55286 0.1791 0.0
C2 C 0.81057 0.56063 0.17281 0.0
C3 C 0.77104 0.54273 0.27354 0.0
H4 H 0.85014 0.56222 0.25129 0.0
C5 C 0.82824 0.55722 0.25925 0.0
C6 C 0.81889 0.54644 0.35409 0.0
C7 C 0.78993 0.53975 0.36226 0.0
C8 C 0.73999 0.53442 0.27546 0.0
H9 H 0.78266 0.53239 0.43738 0.0
C10 C 0.72019 0.54112 0.19333 0.0
C11 C 0.6918 0.53172 0.19572 0.0
C12 C 0.72982 0.51856 0.35964 0.0
H13 H 0.74309 0.51201 0.42294 0.0
C14 C 0.70214 0.51017 0.36436 0.0
H15 H 0.72649 0.55338 0.12698 0.0
C16 C 0.68351 0.51662 0.28459 0.0
H17 H 0.66221 0.50997 0.29451 0.0
H18 H 0.69499 0.49833 0.43114 0.0
H19 H 1.00377 0.77497 0.07124 0.0
C20 C 1.00622 0.78925 0.13748 0.0
C21 C 1.00486 0.81776 0.11806 0.0
C22 C 1.01078 0.77914 0.23912 0.0
H23 H 1.00682 0.85925 0.18373 0.0
C24 C 1.00691 0.83723 0.20139 0.0
C25 C 1.01212 0.82913 0.30504 0.0
C26 C 1.01427 0.79965 0.32374 0.0
C27 C 1.01023 0.74736 0.25322 0.0
H28 H 0.01905 0.79289 0.40263 0.0
C29 C 0.01709 0.72721 0.17051 0.0
C30 C 1.01284 0.69781 0.1836 0.0
C31 C 1.00005 0.73679 0.3484 0.0
H32 H 0.99409 0.75068 0.41248 0.0
C33 C 0.99615 0.70825 0.36167 0.0
H34 H 0.02582 0.73414 0.09675 0.0
C35 C 1.00225 0.68912 0.28081 0.0
H36 H 0.99903 0.66717 0.29509 0.0
H37 H 0.98805 0.70086 0.43576 0.0
H38 H 0.76676 1.00051 0.07881 0.0
C39 C 0.75322 1.00253 0.14653 0.0
C40 C 0.72465 1.0032 0.1279 0.0
C41 C 0.76404 1.00386 0.2496 0.0
H42 H 0.68394 1.0051 0.19491 0.0
C43 C 0.70597 1.00477 0.21216 0.0
C44 C 0.71483 1.00693 0.31696 0.0
C45 C 0.74423 1.00611 0.33571 0.0
C46 C 0.79565 1.00169 0.26389 0.0
H47 H 0.75139 1.00787 0.41628 0.0
C48 C 0.81556 1.00755 0.1814 0.0
C49 C 0.84472 1.0025 0.1937 0.0
C50 C 0.80628 0.99175 0.35935 0.0
H51 H 0.79265 0.98635 0.42372 0.0
C52 C 0.83472 0.98767 0.37321 0.0
H53 H 0.80865 1.01576 0.10717 0.0
C54 C 0.85359 0.99278 0.29204 0.0
H55 H 0.87542 0.98942 0.30746 0.0
H56 H 0.84226 0.98009 0.44783 0.0
H57 H 0.55456 0.77792 0.10456 0.0
C58 C 0.55361 0.76554 0.17482 0.0
C59 C 0.55519 0.73665 0.16226 0.0
C60 C 0.55079 0.77792 0.2763 0.0
H61 H 0.55568 0.69719 0.23844 0.0
C62 C 0.55502 0.7196 0.25053 0.0
C63 C 0.54997 0.73002 0.35153 0.0
C64 C 0.54753 0.75946 0.36462 0.0
C65 C 0.5521 0.80963 0.28872 0.0
H66 H 0.54313 0.76764 0.44276 0.0
C67 C 0.54755 0.82852 0.20338 0.0
C68 C 0.55152 0.85792 0.2158 0.0
C69 C 0.56003 0.8214 0.38649 0.0
H70 H 0.56466 0.80853 0.45332 0.0
C71 C 0.56308 0.85008 0.40005 0.0
H72 H 0.54118 0.82066 0.12696 0.0
C73 C 0.55898 0.86809 0.3164 0.0
H74 H 0.56136 0.89019 0.33151 0.0
H75 H 0.569 0.85841 0.47648 0.0
H76 H 0.27641 0.49986 0.24048 0.0
C77 C 0.2637 0.50616 0.17476 0.0
C78 C 0.23584 0.49787 0.17334 0.0
C79 C 0.27518 0.52169 0.09197 0.0
H80 H 0.19685 0.49937 0.09092 0.0
C81 C 0.21867 0.50505 0.08868 0.0
C82 C 0.22811 0.52107 1.00508 0.0
C83 C 0.25671 0.52966 0.00723 0.0
C84 C 0.30661 0.52719 0.09263 0.0
H85 H 0.2644 0.54224 0.94345 0.0
C86 C 0.32333 0.5287 0.18744 0.0
C87 C 0.35307 0.53025 0.18297 0.0
C88 C 0.32073 0.52826 0.9956 0.0
H89 H 0.30955 0.52664 0.92181 0.0
C90 C 0.34965 0.53016 0.99118 0.0
H91 H 0.31348 0.52857 0.26417 0.0
C92 C 0.36557 0.5309 0.08309 0.0
H93 H 0.38795 0.53233 0.07604 0.0
H94 H 0.35993 0.53071 0.91518 0.0
H95 H 0.05475 0.28039 0.24895 0.0
C96 C 0.04954 0.26575 0.18627 0.0
C97 C 0.05352 0.23741 0.20445 0.0
C98 C 0.03809 0.27523 0.09198 0.0
H99 H 0.05056 0.19573 0.14053 0.0
C100 C 0.04828 0.21767 0.12388 0.0
C101 C 0.03696 0.22517 0.02677 0.0
C102 C 0.03146 0.25437 0.01145 0.0
C103 C 0.03448 0.30688 0.08073 0.0
H104 H 0.02166 0.26059 0.93886 0.0
C105 C 0.03027 0.32617 0.16896 0.0
C106 C 0.0301 0.35585 0.15529 0.0
C107 C 0.0377 0.31845 0.9805 0.0
H108 H 0.04136 0.30527 0.91192 0.0
C109 C 0.03739 0.34723 0.96689 0.0
H110 H 0.02676 0.31831 0.24735 0.0
C111 C 0.03381 0.36557 0.05242 0.0
H112 H 0.03348 0.38771 0.03761 0.0
H113 H 0.04008 0.35548 0.88863 0.0
H114 H 0.27723 0.0589 0.24872 0.0
C115 C 0.29149 0.05481 0.18446 0.0
C116 C 0.31974 0.05487 0.2081 0.0
C117 C 0.28173 0.04933 0.08196 0.0
H118 H 0.36131 0.05059 0.14848 0.0
C119 C 0.33946 0.05094 0.12792 0.0
C120 C 0.33165 0.04618 0.02277 0.0
C121 C 0.30241 0.04538 0.99971 0.0
C122 C 0.25013 0.04866 0.06517 0.0
H123 H 0.29608 0.04096 0.9194 0.0
C124 C 0.23037 0.04395 0.14938 0.0
C125 C 0.20097 0.04637 0.13447 0.0
C126 C 0.23922 0.05453 0.96537 0.0
H127 H 0.25274 0.05872 0.89928 0.0
C128 C 0.21059 0.05597 0.94909 0.0
H129 H 0.23759 0.03865 0.22704 0.0
C130 C 0.19181 0.05211 0.03179 0.0
H131 H 0.16987 0.05327 0.01411 0.0
H132 H 0.20279 0.06047 0.87116 0.0
H133 H 0.46293 0.26203 0.18732 0.0
C134 C 0.47212 0.27872 0.14283 0.0
C135 C 0.46563 0.30611 0.17225 0.0
C136 C 0.49196 0.27274 0.06472 0.0
H137 H 0.46985 0.34928 0.12947 0.0
C138 C 0.4746 0.32795 0.10757 0.0
C139 C 0.49224 0.32325 0.02086 0.0
C140 C 0.50192 0.29549 1.00241 0.0
C141 C 0.50172 0.24271 0.05244 0.0
H142 H 0.51711 0.29184 0.94082 0.0
C143 C 0.50095 0.22333 0.138 0.0
C144 C 0.50783 0.19461 0.12357 0.0
C145 C 0.51055 0.23269 0.95349 0.0
H146 H 0.51109 0.24613 0.88587 0.0
C147 C 0.51793 0.20484 0.93887 0.0
H148 H 0.49539 0.23055 0.21634 0.0
C149 C 0.51644 0.18611 0.02183 0.0
H150 H 0.52148 0.16464 1.00429 0.0
H151 H 0.52433 0.1975 0.86143 0.0
Tb152 Tb 0.04673 1.01543 0.75824 0.0
C153 C 0.96005 0.99257 0.4746 0.0
C154 C 0.9851 0.97097 0.32967 0.0
C155 C 0.93913 0.95425 0.37418 0.0
C156 C 0.9835 0.99101 0.4126 0.0
C157 C 0.93722 0.97471 0.45392 0.0
C158 C 0.9631 0.95228 0.31247 0.0
C159 C 0.91093 1.00057 0.58336 0.0
N160 N 0.95892 1.01259 0.55106 0.0
C161 C 0.9339 0.01785 0.60005 0.0
C162 C 0.91277 0.97849 0.51159 0.0
Tb163 Tb 0.99899 0.03887 0.5788 0.0
N164 N 1.00415 1.00986 0.43017 0.0
C165 C 0.02515 1.01155 0.35699 0.0
C166 C 1.00846 0.97067 0.26463 0.0
C167 C 0.02837 0.99137 0.27743 0.0
H168 H 0.93115 0.03588 0.65076 0.0
H169 H 0.04562 0.99259 0.22284 0.0
H170 H 0.96414 0.93671 0.24984 0.0
H171 H 0.89163 1.00465 0.62457 0.0
H172 H 0.03921 0.02875 0.35411 0.0
H173 H 0.99607 0.02438 0.14293 0.0
H174 H 1.01058 0.95553 0.20092 0.0
H175 H 0.10779 0.04584 0.68511 0.0
H176 H 1.01257 0.99925 0.98649 0.0
H177 H 0.13545 0.0859 0.73603 0.0
H178 H 0.92194 0.94024 0.35809 0.0
H179 H 0.0156 0.07051 0.1886 0.0
H180 H 0.05129 0.10693 0.15167 0.0
H181 H 0.89485 0.96525 0.49795 0.0
H182 H 0.09049 0.1228 0.04386 0.0
N183 N 0.03509 0.03381 0.92377 0.0
C184 C 0.01902 0.02057 0.99735 0.0
C185 C 0.02147 0.06031 0.11508 0.0
C186 C 0.04163 0.0717 0.04932 0.0
C187 C 1.01049 0.03429 0.08977 0.0
C188 C 0.04819 0.0577 0.9534 0.0
H189 H 0.1224 0.11467 0.89107 0.0
N190 N 0.07595 0.05244 0.80183 0.0
C191 C 0.11672 0.08117 0.7796 0.0
C192 C 0.0699 0.06683 0.89214 0.0
C193 C 0.10009 0.0586 0.74893 0.0
C194 C 0.10945 0.0972 0.86751 0.0
C195 C 0.08609 0.08988 0.92617 0.0
O196 O 0.08626 1.00176 0.80479 0.0
O197 O 0.01565 1.00026 0.64376 0.0
O198 O 0.97518 0.03316 0.72597 0.0
O199 O 1.00391 1.00221 0.80842 0.0
O200 O 0.05476 0.98428 0.63366 0.0
O201 O 0.04974 0.97954 0.85045 0.0
O202 O 0.96509 0.05915 0.50901 0.0
O203 O 0.03019 0.05387 0.69274 0.0
O204 O 0.07169 0.02152 0.61459 0.0
O205 O 0.04152 0.04805 0.51651 0.0
O206 O 0.99061 0.06858 0.7085 0.0
O207 O 1.00614 0.07483 0.48927 0.0
C208 C 0.0301 0.98127 0.59692 0.0
C209 C 0.08733 0.95286 0.78511 0.0
C210 C 0.07856 0.90476 0.72923 0.0
C211 C 0.07247 0.92799 0.79395 0.0
C212 C 0.10079 0.90624 0.65787 0.0
C213 C 0.10967 0.95395 0.71347 0.0
C214 C 0.11633 0.93072 0.65062 0.0
C215 C 0.97944 1.01493 0.80066 0.0
C216 C 0.07656 0.97832 0.83838 0.0
C217 C 0.07866 0.10475 0.01806 0.0
C218 C 0.0563 0.09579 0.07913 0.0
C219 C 0.01557 0.07224 0.74245 0.0
C220 C 0.97175 0.10713 0.54079 0.0
C221 C 0.98955 0.13007 0.53546 0.0
C222 C 0.98607 0.15339 0.60291 0.0
C223 C 0.96371 0.15376 0.67424 0.0
C224 C 0.9491 0.10822 0.61121 0.0
C225 C 0.94523 0.13138 0.67746 0.0
C226 C 0.06663 0.03726 0.53247 0.0
C227 C 0.97985 0.08079 0.48703 0.0
H228 H 0.05579 0.9269 0.85128 0.0
H229 H 0.1061 0.88855 0.60795 0.0
H230 H 0.12148 0.97294 0.70356 0.0
H231 H 0.13336 0.93185 0.59504 0.0
H232 H 1.00631 0.12945 0.47839 0.0
H233 H 0.96045 0.17132 0.72731 0.0
H234 H 0.93502 0.09076 0.61839 0.0
H235 H 0.92808 0.13179 0.73273 0.0
Tb236 Tb 0.52929 0.05131 0.74534 0.0
C237 C 0.56389 0.9572 0.50669 0.0
C238 C 0.58435 0.97576 0.34883 0.0
C239 C 0.60656 0.93724 0.4366 0.0
C240 C 0.56384 0.97642 0.42832 0.0
C241 C 0.58414 0.93608 0.50757 0.0
C242 C 0.60671 0.95722 0.35709 0.0
C243 C 0.55435 0.91053 0.62461 0.0
N244 N 0.54122 0.95637 0.56965 0.0
C245 C 0.53468 0.93182 0.61813 0.0
C246 C 0.57978 0.91324 0.57253 0.0
Tb247 Tb 0.51358 0.99595 0.57119 0.0
N248 N 0.54129 0.99299 0.42182 0.0
C249 C 0.53542 1.00525 0.32749 0.0
C250 C 0.5806 0.99227 0.2602 0.0
C251 C 0.55541 1.00609 0.24726 0.0
H252 H 0.51488 0.92949 0.65733 0.0
H253 H 0.55133 0.01727 0.1755 0.0
H254 H 0.62308 0.95685 0.29838 0.0
H255 H 0.5498 0.89201 0.66897 0.0
H256 H 0.51572 1.01543 0.31515 0.0
H257 H 0.49046 1.00266 0.11096 0.0
H258 H 0.5961 0.99296 0.19831 0.0
H259 H 0.51111 0.11369 0.6516 0.0
H260 H 0.50475 1.00206 0.93021 0.0
H261 H 0.48809 0.1558 0.7118 0.0
H262 H 0.62274 0.92164 0.43768 0.0
H263 H 0.47731 0.04676 0.19868 0.0
H264 H 0.46632 0.09693 0.18096 0.0
H265 H 0.59485 0.89659 0.57612 0.0
H266 H 0.4631 0.13799 0.06902 0.0
N267 N 0.50716 0.04646 0.91201 0.0
C268 C 0.50266 0.02214 0.96601 0.0
C269 C 0.48535 0.04689 0.11876 0.0
C270 C 0.48594 0.07116 0.06048 0.0
C271 C 0.49295 0.0221 0.0699 0.0
C272 C 0.49688 0.07024 0.95643 0.0
H273 H 0.46957 0.15944 0.89297 0.0
N274 N 0.50449 0.091 0.79401 0.0
C275 C 0.48963 0.13828 0.76408 0.0
C276 C 0.49493 0.09314 0.89425 0.0
C277 C 0.50244 0.11373 0.72982 0.0
C278 C 0.47939 0.14032 0.86628 0.0
C279 C 0.48222 0.11779 0.93327 0.0
O280 O 0.54843 0.08177 0.65547 0.0
O281 O 0.54418 0.02663 0.6108 0.0
O282 O 0.5293 0.97775 0.7187 0.0
O283 O 0.54373 1.01388 0.83211 0.0
O284 O 0.57068 0.03144 0.73401 0.0
O285 O 0.55895 0.07792 0.81916 0.0
O286 O 0.49238 0.96305 0.49407 0.0
O287 O 0.49529 0.02688 0.68098 0.0
O288 O 0.50232 0.06528 0.61342 0.0
O289 O 0.51882 0.03577 0.48736 0.0
O290 O 0.48596 0.98592 0.70343 0.0
O291 O 0.47584 1.00421 0.49424 0.0
C292 C 0.56893 0.02137 0.63921 0.0
C293 C 0.59381 0.09319 0.69568 0.0
C294 C 0.6424 0.07906 0.69889 0.0
C295 C 0.61548 0.07845 0.74249 0.0
C296 C 0.64747 0.09493 0.60879 0.0
C297 C 0.59942 0.10924 0.60633 0.0
C298 C 0.62607 0.11004 0.56321 0.0
C299 C 0.54062 0.98678 0.80806 0.0
C300 C 0.56472 0.09023 0.73039 0.0
C301 C 0.47254 0.11917 0.03754 0.0
C302 C 0.47452 0.09589 0.10133 0.0
C303 C 0.47986 1.0108 0.73447 0.0
C304 C 0.44487 0.96838 0.53716 0.0
C305 C 0.42142 0.98535 0.53567 0.0
C306 C 0.39888 0.98078 0.60403 0.0
C307 C 0.39961 0.95806 0.6721 0.0
C308 C 0.44513 0.94542 0.60483 0.0
C309 C 0.42261 0.94038 0.67177 0.0
C310 C 0.5084 0.06034 0.51308 0.0
C311 C 0.47024 0.97793 0.48239 0.0
H312 H 0.61137 0.06643 0.8124 0.0
H313 H 0.66792 0.09551 0.57324 0.0
H314 H 0.58295 0.12063 0.56824 0.0
H315 H 0.63006 0.12216 0.49354 0.0
H316 H 0.42104 1.00249 0.48109 0.0
H317 H 0.38242 0.95392 0.72479 0.0
H318 H 0.46308 0.93199 0.60912 0.0
H319 H 0.42315 0.92292 0.72461 0.0
Tb320 Tb 0.54336 0.51185 0.59198 0.0
C321 C 0.44287 0.56879 0.73791 0.0
C322 C 0.44711 0.61877 0.76217 0.0
C323 C 0.40284 0.59869 0.7102 0.0
C324 C 0.45901 0.59191 0.76246 0.0
C325 C 0.41441 0.57199 0.71392 0.0
C326 C 0.41915 0.62202 0.73423 0.0
C327 C 0.41017 0.52206 0.70595 0.0
N328 N 0.45462 0.54314 0.74209 0.0
C329 C 0.43837 0.51986 0.73008 0.0
C330 C 0.3982 0.54822 0.69658 0.0
Tb331 Tb 0.50096 0.54205 0.78495 0.0
N332 N 0.4861 0.58807 0.78909 0.0
C333 C 0.50187 0.61066 0.82085 0.0
C334 C 0.46347 0.64163 0.7915 0.0
C335 C 0.49089 0.63752 0.82145 0.0
H336 H 0.44674 0.4993 0.73677 0.0
H337 H 0.50377 0.65511 0.84362 0.0
H338 H 0.40979 0.64249 0.7328 0.0
H339 H 0.3977 0.50351 0.69439 0.0
H340 H 0.5235 0.60843 0.8404 0.0
H341 H 0.63538 0.47997 0.8012 0.0
H342 H 0.45508 0.66252 0.79196 0.0
H343 H 0.53907 0.53799 0.3455 0.0
H344 H 0.586 0.47832 0.75252 0.0
H345 H 0.56915 0.56345 0.22516 0.0
H346 H 0.38114 0.60149 0.69079 0.0
H347 H 0.66748 0.51157 0.70848 0.0
H348 H 0.6754 0.5445 0.55905 0.0
H349 H 0.37633 0.54983 0.67785 0.0
H350 H 0.65735 0.56686 0.39996 0.0
N351 N 0.58931 0.51033 0.63877 0.0
C352 C 0.59951 0.49266 0.71266 0.0
C353 C 0.64568 0.5112 0.68757 0.0
C354 C 0.63566 0.52706 0.60437 0.0
C355 C 0.62765 0.4933 0.73991 0.0
C356 C 0.60709 0.52576 0.58051 0.0
H357 H 0.61803 0.57308 0.27258 0.0
N358 N 0.56972 0.53445 0.4669 0.0
C359 C 0.57718 0.55675 0.3003 0.0
C360 C 0.59707 0.53794 0.49045 0.0
C361 C 0.56001 0.5424 0.37021 0.0
C362 C 0.60475 0.56214 0.32727 0.0
C363 C 0.61517 0.55227 0.42248 0.0
O364 O 0.52314 0.48085 0.501 0.0
O365 O 0.49992 0.5196 0.63699 0.0
O366 O 0.49347 0.49656 0.77 0.0
O367 O 0.53702 0.48225 0.72391 0.0
O368 O 0.51065 0.52728 0.4865 0.0
O369 O 0.56666 0.47863 0.52768 0.0
O370 O 0.51448 0.52886 0.93455 0.0
O371 O 0.54208 0.52481 0.75585 0.0
O372 O 0.54921 0.5574 0.5802 0.0
O373 O 0.51074 0.57519 0.6692 0.0
O374 O 0.54049 0.56188 0.83297 0.0
O375 O 0.47299 0.54189 0.91334 0.0
C376 C 0.48993 0.52839 0.55041 0.0
C377 C 0.54119 0.43684 0.54074 0.0
C378 C 0.51012 0.39764 0.57759 0.0
C379 C 0.51571 0.42311 0.52771 0.0
C380 C 0.53128 0.38609 0.64005 0.0
C381 C 0.56208 0.42437 0.60075 0.0
C382 C 0.5571 0.39911 0.64961 0.0
C383 C 0.51263 0.47682 0.76756 0.0
C384 C 0.54481 0.465 0.49769 0.0
C385 C 0.64321 0.55553 0.45025 0.0
C386 C 0.65347 0.54288 0.54103 0.0
C387 C 0.55764 0.54297 0.80108 0.0
C388 C 0.49386 0.55344 0.07351 0.0
C389 C 0.50498 0.57989 0.05924 0.0
C390 C 0.50167 0.60073 0.13563 0.0
C391 C 0.49048 0.59388 0.2341 0.0
C392 C 0.48278 0.54646 0.17175 0.0
C393 C 0.482 0.56654 0.25284 0.0
C394 C 0.53269 0.57847 0.60695 0.0
C395 C 0.49147 0.5348 0.98164 0.0
H396 H 0.50064 0.43242 0.47612 0.0
H397 H 0.52826 0.36703 0.68249 0.0
H398 H 0.58205 0.43436 0.612 0.0
H399 H 0.57313 0.38985 0.69728 0.0
H400 H 0.51469 0.58466 0.98586 0.0
H401 H 0.48813 0.6096 0.2956 0.0
H402 H 0.47442 0.52587 0.18509 0.0
H403 H 0.47393 0.56127 0.32894 0.0
Tb404 Tb 0.02734 0.55198 0.57474 0.0
C405 C 0.05374 0.4445 0.78562 0.0
C406 C 0.02896 0.40954 0.68447 0.0
C407 C 0.07322 0.39813 0.76381 0.0
C408 C 0.03135 0.43702 0.72464 0.0
C409 C 0.07453 0.42493 0.80907 0.0
C410 C 0.05047 0.39046 0.70119 0.0
C411 C 0.09486 0.45888 0.9279 0.0
N412 N 0.05415 0.47053 0.82783 0.0
C413 C 0.07369 0.47749 0.90255 0.0
C414 C 0.09552 0.43262 0.87975 0.0
Tb415 Tb 0.02056 0.50101 0.77057 0.0
N416 N 1.01091 0.45604 0.71177 0.0
C417 C 0.98601 0.44745 0.66986 0.0
C418 C 1.00457 0.40172 0.63256 0.0
C419 C 0.98273 0.42056 0.62778 0.0
H420 H 0.07384 0.49808 0.93751 0.0
H421 H 0.96322 0.41436 0.59227 0.0
H422 H 0.04917 0.36941 0.66966 0.0
H423 H 0.11097 0.4649 0.98297 0.0
H424 H 0.9681 0.46065 0.66879 0.0
H425 H 0.07586 0.64117 0.76795 0.0
H426 H 1.00193 0.38089 0.60027 0.0
H427 H 0.97475 0.54953 0.40265 0.0
H428 H 0.07345 0.59321 0.7034 0.0
H429 H 0.93709 0.58038 0.34447 0.0
H430 H 0.08917 0.38291 0.77965 0.0
H431 H 0.03718 0.67356 0.73564 0.0
H432 H 0.9914 0.68256 0.64894 0.0
H433 H 0.11193 0.41825 0.89951 0.0
H434 H 0.95366 0.66608 0.53309 0.0
N435 N 0.03289 0.59699 0.63643 0.0
C436 C 0.05613 0.60655 0.68774 0.0
C437 C 0.03588 0.65228 0.70658 0.0
C438 C 1.01303 0.64307 0.64788 0.0
C439 C 0.05775 0.63407 0.72478 0.0
C440 C 1.01232 0.6151 0.6123 0.0
H441 H 0.93358 0.62824 0.41747 0.0
N442 N 0.99209 0.57935 0.51045 0.0
C443 C 0.95214 0.58785 0.40156 0.0
C444 C 0.99121 0.60598 0.54697 0.0
C445 C 0.97359 0.5705 0.43441 0.0
C446 C 0.95016 0.61479 0.44331 0.0
C447 C 0.97008 0.62433 0.51558 0.0
O448 O 0.02976 0.55886 0.4127 0.0
O449 O 0.03099 0.50775 0.60799 0.0
O450 O 0.06447 0.50214 0.72302 0.0
O451 O 0.0685 0.54678 0.65976 0.0
O452 O 1.01394 0.51697 0.46857 0.0
O453 O 0.06627 0.56225 0.51007 0.0
O454 O 0.01877 0.49715 0.93512 0.0
O455 O 0.01723 0.54534 0.73763 0.0
O456 O 0.98307 0.55098 0.62212 0.0
O457 O 0.9809 0.50584 0.67908 0.0
O458 O 0.03678 0.53568 0.8722 0.0
O459 O 0.98154 0.49522 0.84181 0.0
C460 C 0.02114 0.49633 0.52514 0.0
C461 C 0.07044 0.54266 0.33797 0.0
C462 C 0.09963 0.50272 0.29631 0.0
C463 C 0.08717 0.52057 0.37101 0.0
C464 C 0.09388 0.50653 0.18846 0.0
C465 C 0.0652 0.54623 0.23037 0.0
C466 C 0.07668 0.52805 0.15609 0.0
C467 C 0.07983 0.5243 0.70318 0.0
C468 C 0.05655 0.56106 0.41407 0.0
C469 C 0.96989 0.65175 0.55525 0.0
C470 C 0.99136 0.66112 0.62127 0.0
C471 C 0.02823 0.55648 0.81891 0.0
C472 C 0.98114 0.52326 0.9976 0.0
C473 C 0.95972 0.5398 0.95762 0.0
C474 C 0.9498 0.56306 0.01472 0.0
C475 C 0.96364 0.57095 0.10865 0.0
C476 C 0.99409 0.53123 0.0925 0.0
C477 C 0.98577 0.5553 0.14618 0.0
C478 C 0.9686 0.52807 0.63874 0.0
C479 C 0.99193 0.49937 0.93574 0.0
H480 H 0.09113 0.51768 0.45427 0.0
H481 H 0.10396 0.49393 0.12853 0.0
H482 H 0.05206 0.563 0.20391 0.0
H483 H 0.07283 0.53122 0.07317 0.0
H484 H 0.95055 0.53435 0.88224 0.0
H485 H 0.95677 0.58845 0.1564 0.0
H486 H 1.01105 0.51917 0.12397 0.0
H487 H 0.99611 0.56151 0.21848 0.0
H488 H 0.15007 0.07297 0.16319 0.0
H489 H 0.20221 1.01152 0.30801 0.0
H490 H 0.16653 1.00386 0.44233 0.0
H491 H 0.11923 1.01312 0.51695 0.0
H492 H 0.06742 0.07423 0.36854 0.0
H493 H 0.10369 0.08272 0.23814 0.0
C494 C 0.15382 0.05763 0.22317 0.0
C495 C 0.17941 0.04278 0.22278 0.0
C496 C 0.13284 0.053 0.30042 0.0
C497 C 0.18334 0.02364 0.30473 0.0
C498 C 0.16263 0.01903 0.38186 0.0
C499 C 0.11581 0.02844 0.45656 0.0
C500 C 0.09002 0.04287 0.45406 0.0
C501 C 0.13713 0.0334 0.3804 0.0
C502 C 0.08655 0.06256 0.37384 0.0
C503 C 0.10748 0.0675 0.29857 0.0
H504 H 0.5377 0.14578 0.15025 0.0
H505 H 0.47217 0.19373 0.29745 0.0
H506 H 0.46653 0.1577 0.43018 0.0
H507 H 0.47903 0.11088 0.50262 0.0
H508 H 0.54222 0.06292 0.34159 0.0
H509 H 0.5486 0.09965 0.2154 0.0
C510 C 0.52177 0.14856 0.20975 0.0
C511 C 0.50536 0.17308 0.21102 0.0
C512 C 0.51787 0.12719 0.28431 0.0
C513 C 0.48558 0.17572 0.29305 0.0
C514 C 0.48207 0.15478 0.36915 0.0
C515 C 0.49433 0.10852 0.44041 0.0
C516 C 0.51028 0.0837 0.43398 0.0
C517 C 0.49795 0.13018 0.36547 0.0
C518 C 0.52949 0.08127 0.35034 0.0
C519 C 0.53338 0.10257 0.27763 0.0
H520 H 0.38627 0.48984 0.27138 0.0
H521 H 0.3656 0.57661 0.302 0.0
H522 H 0.40442 0.58371 0.42483 0.0
H523 H 0.44799 0.56632 0.50853 0.0
H524 H 0.46727 0.47908 0.48393 0.0
H525 H 0.42582 0.47117 0.3761 0.0
C526 C 0.38964 0.51013 0.30767 0.0
C527 C 0.37224 0.53254 0.27822 0.0
C528 C 0.41231 0.5141 0.37899 0.0
C529 C 0.37785 0.5588 0.32439 0.0
C530 C 0.40041 0.56294 0.39409 0.0
C531 C 0.4426 0.54538 0.48297 0.0
C532 C 0.46099 0.52327 0.50658 0.0
C533 C 0.41827 0.5409 0.42039 0.0
C534 C 0.45375 0.49651 0.46885 0.0
C535 C 0.42995 0.492 0.40613 0.0
H536 H 0.06441 0.38186 0.30835 0.0
H537 H 0.98092 0.38191 0.18752 0.0
H538 H 0.97068 0.42416 0.29003 0.0
H539 H 0.98603 0.46388 0.40389 0.0
H540 H 0.0684 0.46357 0.53431 0.0
H541 H 0.07833 0.41957 0.44004 0.0
C542 C 0.04369 0.39055 0.30705 0.0
C543 C 0.02326 0.37774 0.24071 0.0
C544 C 0.03779 0.41546 0.36742 0.0
C545 C 0.99691 0.39042 0.23873 0.0
C546 C 0.9911 0.41498 0.29689 0.0
C547 C 1.00604 0.45398 0.41337 0.0
C548 C 0.02622 0.46728 0.47851 0.0
C549 C 1.01144 0.42811 0.36 0.0
C550 C 0.05214 0.45395 0.48734 0.0
C551 C 0.05789 0.42865 0.43246 0.0
H552 H 0.89227 0.97202 0.14579 0.0
H553 H 0.84723 0.04439 0.0454 0.0
H554 H 0.884 0.0544 0.91753 0.0
H555 H 0.93037 0.044 0.83824 0.0
H556 H 0.97426 0.97064 0.93552 0.0
H557 H 0.93735 0.96054 0.06184 0.0
C558 C 0.89032 0.99014 0.09658 0.0
C559 C 0.86647 1.00745 0.10752 0.0
C560 C 0.91183 0.99593 0.02275 0.0
C561 C 0.86475 0.03038 0.03981 0.0
C562 C 0.88607 0.03629 0.96666 0.0
C563 C 0.93184 0.02554 0.88581 0.0
C564 C 0.95576 1.00832 0.87637 0.0
C565 C 0.9099 0.01938 0.95775 0.0
C566 C 0.9568 0.98472 0.94087 0.0
C567 C 0.9354 0.97876 0.01317 0.0
H568 H 0.58073 0.90657 0.17543 0.0
H569 H 0.51301 0.85657 0.05409 0.0
H570 H 0.50429 0.89127 0.91923 0.0
H571 H 0.51408 0.93706 0.84044 0.0
H572 H 0.58123 0.98745 0.96193 0.0
H573 H 0.59167 0.95145 0.09162 0.0
C574 C 0.5639 0.90312 0.12009 0.0
C575 C 0.54752 0.87851 0.12688 0.0
C576 C 0.55868 0.92352 0.0427 0.0
C577 C 0.52629 0.87475 0.05166 0.0
C578 C 0.52108 0.89486 0.97458 0.0
C579 C 0.53133 0.94011 0.894 0.0
C580 C 0.54715 0.96501 0.88916 0.0
C581 C 0.53695 0.91946 0.9698 0.0
C582 C 0.56867 0.96874 0.96289 0.0
C583 C 0.57457 0.94814 0.03757 0.0
H584 H 0.64643 0.49935 0.13312 0.0
H585 H 0.68722 0.57669 0.05901 0.0
H586 H 0.65086 0.58641 0.92975 0.0
H587 H 0.60555 0.57397 0.84098 0.0
H588 H 0.56426 0.49808 0.92812 0.0
H589 H 0.60184 0.48761 0.05028 0.0
C590 C 0.64751 0.5187 0.09074 0.0
C591 C 0.67017 0.53729 0.10923 0.0
C592 C 0.62594 0.5246 0.01789 0.0
C593 C 0.67074 0.5616 0.04807 0.0
C594 C 0.64958 0.56735 0.97402 0.0
C595 C 0.60493 0.55499 0.88596 0.0
C596 C 0.58216 0.5364 0.87169 0.0
C597 C 0.62685 0.54914 0.9585 0.0
C598 C 0.58157 0.51243 0.93415 0.0
C599 C 0.60317 0.50646 1.00477 0.0
H600 H 0.98137 0.67077 0.02629 0.0
H601 H 0.06225 0.67069 0.17005 0.0
H602 H 0.07384 0.62756 0.07458 0.0
H603 H 0.0605 0.5878 0.95624 0.0
H604 H 0.9809 0.58882 0.80276 0.0
H605 H 0.96948 0.63272 0.89437 0.0
C606 C 1.00187 0.66184 0.03426 0.0
C607 C 0.02119 0.67497 0.10427 0.0
C608 C 1.00855 0.63658 0.97783 0.0
C609 C 0.0472 0.66199 0.1153 0.0
C610 C 0.05374 0.63693 0.06125 0.0
C611 C 0.04072 0.59774 0.94182 0.0
C612 C 0.02179 0.5847 0.87059 0.0
C613 C 0.03453 0.62371 0.99328 0.0
C614 C 0.9962 0.59817 0.85489 0.0
C615 C 0.9896 0.62345 0.908 0.0
H616 H 0.024 0.25515 0.37189 0.0
H617 H 0.08829 0.19722 0.28138 0.0
H618 H 0.07796 0.16921 0.43607 0.0
H619 H 0.0415 0.15453 0.55761 0.0
H620 H 0.97144 0.20844 0.61671 0.0
H621 H 0.99418 0.24548 0.52144 0.0
C622 C 0.03669 0.23714 0.38863 0.0
C623 C 0.05631 0.22773 0.3141 0.0
C624 C 0.02919 0.22016 0.47248 0.0
C625 C 0.07267 0.20445 0.33688 0.0
C626 C 0.06662 0.18838 0.42484 0.0
C627 C 0.03145 0.1746 0.55136 0.0
C628 C 1.00411 0.17812 0.58864 0.0
C629 C 0.04336 0.19484 0.48729 0.0
C630 C 0.99214 0.20474 0.58636 0.0
C631 C 1.005 0.22592 0.53036 0.0
H632 H 0.3013 0.01976 0.35453 0.0
H633 H 0.35876 0.08731 0.30758 0.0
H634 H 0.38374 0.0748 0.46785 0.0
H635 H 0.39675 0.03673 0.58232 0.0
H636 H 0.34463 0.96392 0.59909 0.0
H637 H 0.30895 0.9871 0.49719 0.0
C638 C 0.31858 0.03243 0.38214 0.0
C639 C 0.32868 0.054 0.31912 0.0
C640 C 0.33387 0.02387 0.46936 0.0
C641 C 0.35105 0.07033 0.35468 0.0
C642 C 0.36531 0.06311 0.44588 0.0
C643 C 0.37714 0.02635 0.56648 0.0
C644 C 0.37384 0.99824 0.59304 0.0
C645 C 0.35815 0.03864 0.49845 0.0
C646 C 0.34798 0.98535 0.57713 0.0
C647 C 0.32774 0.99845 0.51715 0.0
H648 H 0.43397 0.34982 0.25053 0.0
H649 H 0.47712 0.27591 0.34954 0.0
H650 H 0.48679 0.29724 0.51783 0.0
H651 H 0.49999 0.34117 0.59649 0.0
H652 H 0.45883 0.41667 0.50327 0.0
H653 H 0.43189 0.39034 0.37395 0.0
C654 C 0.44476 0.33806 0.31009 0.0
C655 C 0.45679 0.31223 0.28312 0.0
C656 C 0.45201 0.35114 0.4059 0.0
C657 C 0.46857 0.29639 0.36446 0.0
C658 C 0.47456 0.30874 0.46162 0.0
C659 C 0.48466 0.35226 0.55156 0.0
C660 C 0.48433 0.38154 0.54998 0.0
C661 C 0.46922 0.33704 0.47737 0.0
C662 C 0.46212 0.39445 0.49721 0.0
C663 C 0.44626 0.37934 0.42396 0.0
H664 H 0.20634 0.44988 0.18215 0.0
H665 H 0.23402 0.5193 0.37273 0.0
H666 H 0.1902 0.51948 0.46865 0.0
H667 H 0.14056 0.51404 0.43688 0.0
H668 H 0.11118 0.44983 0.22326 0.0
H669 H 0.15851 0.43298 0.19921 0.0
C670 C 0.20329 0.46383 0.24929 0.0
C671 C 0.22238 0.48558 0.26663 0.0
C672 C 0.17699 0.46557 0.29624 0.0
C673 C 0.21909 0.50295 0.35575 0.0
C674 C 0.19372 0.50343 0.40916 0.0
C675 C 0.14423 0.49542 0.38957 0.0
C676 C 0.12278 0.48421 0.32669 0.0
C677 C 0.17165 0.48707 0.37095 0.0
C678 C 0.12771 0.45957 0.26857 0.0
C679 C 0.15481 0.45002 0.25441 0.0
H680 H 0.04349 0.80335 0.9755 0.0
H681 H 0.97152 0.85531 0.01962 0.0
H682 H 0.98474 0.88261 0.86598 0.0
H683 H 0.02298 0.89881 0.7555 0.0
H684 H 0.09917 0.85198 0.74104 0.0
H685 H 0.0776 0.81455 0.83962 0.0
C686 C 0.03012 0.81991 0.94851 0.0
C687 C 1.00685 0.82771 0.00884 0.0
C688 C 0.03892 0.83657 0.86532 0.0
C689 C 0.98968 0.84926 0.97434 0.0
C690 C 0.99734 0.86489 0.88706 0.0
C691 C 0.03458 0.88004 0.77192 0.0
C692 C 0.06294 0.87864 0.74574 0.0
C693 C 0.02292 0.85993 0.83722 0.0
C694 C 0.07746 0.85381 0.76229 0.0
C695 C 0.06524 0.83256 0.82016 0.0
H696 H 0.73976 0.04153 0.98647 0.0
H697 H 0.68393 0.97253 0.03208 0.0
H698 H 0.65487 0.98832 0.88706 0.0
H699 H 0.64057 0.02706 0.77774 0.0
H700 H 0.69526 0.09723 0.73682 0.0
H701 H 0.7298 0.07561 0.84957 0.0
C702 C 0.72189 0.02934 0.96151 0.0
C703 C 0.71361 1.00625 0.02029 0.0
C704 C 0.70477 0.03917 0.88116 0.0
C705 C 0.6904 0.99057 0.98805 0.0
C706 C 0.67369 0.99974 0.90607 0.0
C707 C 0.66033 0.03726 0.79099 0.0
C708 C 0.66519 0.06381 0.75016 0.0
C709 C 0.67984 0.02491 0.85677 0.0
C710 C 0.69099 0.07677 0.76762 0.0
C711 C 0.7107 0.06448 0.83245 0.0
H712 H 0.50608 0.72888 0.07081 0.0
H713 H 0.59236 0.70986 0.02894 0.0
H714 H 0.58123 0.66055 1.00382 0.0
H715 H 0.54927 0.6228 0.05758 0.0
H716 H 0.46486 0.64297 0.1414 0.0
H717 H 0.47272 0.69152 0.09504 0.0
C718 C 0.52221 0.71403 0.05009 0.0
C719 C 0.55005 0.72229 0.06059 0.0
C720 C 0.51599 0.68557 0.05376 0.0
C721 C 0.57074 0.7036 0.02666 0.0
C722 C 0.56447 0.67523 0.01659 0.0
C723 C 0.53266 0.63791 0.06488 0.0
C724 C 0.50686 0.62982 0.10638 0.0
C725 C 0.53762 0.6659 0.04129 0.0
C726 C 0.48518 0.64919 0.11347 0.0
C727 C 0.48953 0.67676 0.08529 0.0
H728 H 0.83738 0.60855 0.12817 0.0
H729 H 0.81418 0.52901 0.99476 0.0
H730 H 0.85729 0.52726 0.89434 0.0
H731 H 0.90599 0.53884 0.90943 0.0
H732 H 0.93141 0.61695 0.05341 0.0
H733 H 0.88295 0.62884 0.08464 0.0
C734 C 0.84112 0.59173 0.07183 0.0
C735 C 0.82357 0.56833 0.07203 0.0
C736 C 0.86694 0.58991 0.02121 0.0
C737 C 0.82786 0.54693 0.99742 0.0
C738 C 0.85282 0.54569 0.94167 0.0
C739 C 0.90138 0.55913 0.94312 0.0
C740 C 0.92262 0.57593 0.987 0.0
C741 C 0.87354 0.56557 0.96272 0.0
C742 C 0.91555 0.60257 0.02615 0.0
C743 C 0.88777 0.60954 0.04332 0.0
H744 H 0.06621 0.19294 0.87569 0.0
H745 H 0.98658 0.19958 0.02864 0.0
H746 H 0.97385 0.15333 0.96107 0.0
H747 H 0.98608 0.10892 0.86834 0.0
H748 H 0.06261 0.10389 0.69424 0.0
H749 H 0.07561 0.15062 0.7591 0.0
C750 C 0.04565 0.18478 0.89121 0.0
C751 C 0.02715 0.20081 0.95608 0.0
C752 C 0.03818 0.15765 0.85056 0.0
C753 C 1.00104 0.18875 0.97704 0.0
C754 C 0.99388 0.16184 0.93953 0.0
C755 C 1.00577 0.11787 0.84486 0.0
C756 C 0.0241 0.10151 0.78117 0.0
C757 C 1.01245 0.14571 0.87817 0.0
C758 C 0.04871 0.11471 0.74786 0.0
C759 C 0.05598 0.14187 0.78411 0.0
H760 H 0.37098 1.0051 0.02241 0.0
H761 H 0.34772 0.0779 0.85115 0.0
H762 H 0.39184 0.07577 0.75255 0.0
H763 H 0.43907 0.05359 0.71854 0.0
H764 H 0.45895 0.97896 0.88667 0.0
H765 H 0.41524 0.98178 0.98196 0.0
C766 C 0.37516 0.0202 0.96172 0.0
C767 C 0.35531 0.04136 0.94388 0.0
C768 C 0.40082 0.01895 0.9058 0.0
C769 C 0.36187 0.06093 0.86577 0.0
C770 C 0.38752 0.05994 0.81025 0.0
C771 C 0.43405 0.03825 0.77735 0.0
C772 C 0.45337 0.01653 0.79726 0.0
C773 C 0.40759 0.03927 0.83051 0.0
C774 C 0.44537 0.99634 0.87094 0.0
C775 C 0.42001 0.99775 0.92528 0.0
H776 H 0.4599 0.36285 0.92884 0.0
H777 H 0.5456 0.34223 0.98128 0.0
H778 H 0.55978 0.38772 0.91255 0.0
H779 H 0.54753 0.43492 0.84233 0.0
H780 H 0.46135 0.45343 0.78576 0.0
H781 H 0.44796 0.40795 0.85071 0.0
C782 C 0.48177 0.36803 0.92356 0.0
C783 C 0.50159 0.34863 0.9598 0.0
C784 C 0.48976 0.39438 0.88408 0.0
C785 C 0.5298 0.3562 0.95271 0.0
C786 C 0.53789 0.38253 0.9146 0.0
C787 C 0.52582 0.42897 0.8438 0.0
C788 C 0.50556 0.44811 0.80828 0.0
C789 C 0.51805 0.40208 0.88108 0.0
C790 C 0.47755 0.43969 0.81233 0.0
C791 C 0.4698 0.4134 0.84931 0.0
H792 H 0.19827 0.48625 0.87344 0.0
H793 H 0.20553 0.57265 0.96194 0.0
H794 H 0.16154 0.58248 0.87148 0.0
H795 H 0.11746 0.56525 0.78226 0.0
H796 H 0.11221 0.47837 0.69412 0.0
H797 H 0.15806 0.47036 0.76736 0.0
C798 C 0.19084 0.50749 0.86985 0.0
C799 C 0.20613 0.52873 0.92332 0.0
C800 C 0.16509 0.5129 0.81859 0.0
C801 C 0.19516 0.55589 0.91962 0.0
C802 C 0.16954 0.56144 0.86882 0.0
C803 C 0.12659 0.54471 0.77656 0.0
C804 C 0.1106 0.52242 0.73217 0.0
C805 C 0.15378 0.54 0.81992 0.0
C806 C 0.12332 0.49601 0.72772 0.0
C807 C 0.14983 0.49131 0.77007 0.0
H808 H 0.97775 0.86422 0.42885 0.0
H809 H 0.06335 0.85034 0.34549 0.0
H810 H 0.07584 0.89572 0.42163 0.0
H811 H 0.06241 0.94147 0.49974 0.0
H812 H 0.97881 0.95343 0.61061 0.0
H813 H 0.96569 0.90764 0.53637 0.0
C814 C 0.99933 0.87059 0.43077 0.0
C815 C 0.01965 0.85283 0.38257 0.0
C816 C 1.00662 0.89718 0.47683 0.0
C817 C 0.04728 0.86255 0.38392 0.0
C818 C 0.05441 0.88895 0.42635 0.0
C819 C 0.04118 0.93425 0.50765 0.0
C820 C 0.0212 0.95242 0.55484 0.0
C821 C 0.03423 0.90683 0.47073 0.0
C822 C 0.99431 0.94137 0.56848 0.0
C823 C 0.98693 0.91468 0.52751 0.0
H824 H 0.66787 0.03956 0.31246 0.0
H825 H 0.70903 0.98035 0.51002 0.0
H826 H 0.66775 0.97885 0.62472 0.0
H827 H 0.61807 0.99217 0.6627 0.0
H828 H 0.57788 0.05065 0.4601 0.0
H829 H 0.6198 0.05358 0.35174 0.0
C830 C 0.66805 0.02622 0.3806 0.0
C831 C 0.69202 1.00985 0.40072 0.0
C832 C 0.6438 0.02473 0.44409 0.0
C833 C 0.69144 0.99337 0.49167 0.0
C834 C 0.6675 0.99221 0.5567 0.0
C835 C 0.61849 1.00544 0.5944 0.0
C836 C 0.59427 0.02073 0.56856 0.0
C837 C 0.64324 1.00733 0.53254 0.0
C838 C 0.59556 0.03802 0.48038 0.0
C839 C 0.61983 0.03998 0.41908 0.0
H840 H 0.58459 0.68827 0.40976 0.0
H841 H 0.50276 0.7205 0.47012 0.0
H842 H 0.48977 0.67676 0.55589 0.0
H843 H 0.50024 0.62674 0.59526 0.0
H844 H 0.58255 0.59572 0.52977 0.0
H845 H 0.59617 0.64067 0.4617 0.0
C846 C 0.56415 0.68615 0.44487 0.0
C847 C 0.54493 0.70823 0.4347 0.0
C848 C 0.55649 0.66044 0.4899 0.0
C849 C 0.51834 0.7045 0.4788 0.0
C850 C 0.51072 0.67911 0.52607 0.0
C851 C 0.52129 0.62989 0.56784 0.0
C852 C 0.54017 0.60719 0.56767 0.0
C853 C 0.52935 0.6565 0.52929 0.0
C854 C 0.56722 0.6121 0.52963 0.0
C855 C 0.57522 0.63813 0.4914 0.0
H856 H 0.85533 0.50302 0.38774 0.0
H857 H 0.83509 0.58518 0.50217 0.0
H858 H 0.87888 0.58725 0.60065 0.0
H859 H 0.92565 0.56727 0.64279 0.0
H860 H 0.94483 0.48438 0.53163 0.0
H861 H 0.89957 0.48107 0.44575 0.0
C862 C 0.85989 0.52093 0.43781 0.0
C863 C 0.84089 0.54353 0.43971 0.0
C864 C 0.88561 0.52208 0.49409 0.0
C865 C 0.84834 0.56701 0.50162 0.0
C866 C 0.87381 0.56837 0.55691 0.0
C867 C 0.91977 0.54827 0.60131 0.0
C868 C 0.93908 0.52592 0.59578 0.0
C869 C 0.89304 0.5463 0.55214 0.0
C870 C 0.93068 0.50171 0.54029 0.0
C871 C 0.90463 0.49988 0.48989 0.0
loop_
_geom_bond_atom_site_label_1
_geom_bond_atom_site_label_2
_geom_bond_distance
_geom_bond_site_symmetry_2
_ccdc_geom_bond_type
H0 C1 0.949 . S
C1 H0 0.949 . S
C1 C2 1.395 . S
C1 C3 1.391 . S
C2 C1 1.395 . S
C2 C5 1.390 . S
C3 C1 1.391 . S
C3 C7 1.387 . S
C3 C8 1.491 . S
H4 C5 0.950 . S
C5 C2 1.390 . S
C5 H4 0.950 . S
C5 C6 1.378 . S
C6 C5 1.378 . S
C6 C7 1.409 . S
C7 C3 1.387 . S
C7 C6 1.409 . S
C7 H9 0.951 . S
C8 C3 1.491 . S
C8 C10 1.382 . S
C8 C12 1.404 . S
H9 C7 0.951 . S
C10 C8 1.382 . S
C10 C11 1.390 . S
C10 H15 0.949 . S
C11 C10 1.390 . S
C11 C16 1.399 . S
C12 C8 1.404 . S
C12 H13 0.950 . S
C12 C14 1.375 . S
H13 C12 0.950 . S
C14 C12 1.375 . S
C14 C16 1.382 . S
C14 H18 0.950 . S
H15 C10 0.949 . S
C16 C11 1.399 . S
C16 C14 1.382 . S
C16 H17 0.952 . S
H17 C16 0.952 . S
H18 C14 0.950 . S
H19 C20 0.949 . S
C20 H19 0.949 . S
C20 C21 1.395 . S
C20 C22 1.391 . S
C21 C20 1.395 . S
C21 C24 1.390 . S
C22 C20 1.391 . S
C22 C26 1.387 . S
C22 C27 1.491 . S
H23 C24 0.950 . S
C24 C21 1.390 . S
C24 H23 0.950 . S
C24 C25 1.378 . S
C25 C24 1.378 . S
C25 C26 1.409 . S
C26 C22 1.387 . S
C26 C25 1.409 . S
C26 H28 0.951 . S
C27 C22 1.491 . S
C27 C29 1.382 . S
C27 C31 1.404 . S
H28 C26 0.951 . S
C29 C27 1.382 . S
C29 C30 1.390 . S
C29 H34 0.949 . S
C30 C29 1.390 . S
C30 C35 1.399 . S
C31 C27 1.404 . S
C31 H32 0.950 . S
C31 C33 1.375 . S
H32 C31 0.950 . S
C33 C31 1.375 . S
C33 C35 1.382 . S
C33 H37 0.950 . S
H34 C29 0.949 . S
C35 C30 1.399 . S
C35 C33 1.382 . S
C35 H36 0.952 . S
H36 C35 0.952 . S
H37 C33 0.950 . S
H38 C39 0.949 . S
C39 H38 0.949 . S
C39 C40 1.395 . S
C39 C41 1.391 . S
C40 C39 1.395 . S
C40 C43 1.390 . S
C41 C39 1.391 . S
C41 C45 1.387 . S
C41 C46 1.491 . S
H42 C43 0.950 . S
C43 C40 1.390 . S
C43 H42 0.950 . S
C43 C44 1.378 . S
C44 C43 1.378 . S
C44 C45 1.409 . S
C45 C41 1.387 . S
C45 C44 1.409 . S
C45 H47 0.951 . S
C46 C41 1.491 . S
C46 C48 1.382 . S
C46 C50 1.404 . S
H47 C45 0.951 . S
C48 C46 1.382 . S
C48 C49 1.390 . S
C48 H53 0.949 . S
C49 C48 1.390 . S
C49 C54 1.399 . S
C50 C46 1.404 . S
C50 H51 0.950 . S
C50 C52 1.375 . S
H51 C50 0.950 . S
C52 C50 1.375 . S
C52 C54 1.382 . S
C52 H56 0.950 . S
H53 C48 0.949 . S
C54 C49 1.399 . S
C54 C52 1.382 . S
C54 H55 0.952 . S
H55 C54 0.952 . S
H56 C52 0.950 . S
H57 C58 0.949 . S
C58 H57 0.949 . S
C58 C59 1.395 . S
C58 C60 1.391 . S
C59 C58 1.395 . S
C59 C62 1.390 . S
C60 C58 1.391 . S
C60 C64 1.387 . S
C60 C65 1.491 . S
H61 C62 0.950 . S
C62 C59 1.390 . S
C62 H61 0.950 . S
C62 C63 1.378 . S
C63 C62 1.378 . S
C63 C64 1.409 . S
C64 C60 1.387 . S
C64 C63 1.409 . S
C64 H66 0.951 . S
C65 C60 1.491 . S
C65 C67 1.382 . S
C65 C69 1.404 . S
H66 C64 0.951 . S
C67 C65 1.382 . S
C67 C68 1.390 . S
C67 H72 0.949 . S
C68 C67 1.390 . S
C68 C73 1.399 . S
C69 C65 1.404 . S
C69 H70 0.950 . S
C69 C71 1.375 . S
H70 C69 0.950 . S
C71 C69 1.375 . S
C71 C73 1.382 . S
C71 H75 0.950 . S
H72 C67 0.949 . S
C73 C68 1.399 . S
C73 C71 1.382 . S
C73 H74 0.952 . S
H74 C73 0.952 . S
H75 C71 0.950 . S
H76 C77 0.949 . S
C77 H76 0.949 . S
C77 C78 1.395 . S
C77 C79 1.391 1_554 S
C78 C77 1.395 . S
C78 C81 1.390 1_554 S
C79 C77 1.391 1_556 S
C79 C83 1.387 . S
C79 C84 1.491 . S
H80 C81 0.950 . S
C81 C78 1.390 1_556 S
C81 H80 0.950 . S
C81 C82 1.378 . S
C82 C81 1.378 . S
C82 C83 1.409 . S
C83 C79 1.387 . S
C83 C82 1.409 . S
C83 H85 0.951 . S
C84 C79 1.491 . S
C84 C86 1.382 1_556 S
C84 C88 1.404 . S
H85 C83 0.951 . S
C86 C84 1.382 1_554 S
C86 C87 1.390 . S
C86 H91 0.949 . S
C87 C86 1.390 . S
C87 C92 1.399 1_554 S
C88 C84 1.404 . S
C88 H89 0.950 . S
C88 C90 1.375 . S
H89 C88 0.950 . S
C90 C88 1.375 . S
C90 C92 1.382 . S
C90 H94 0.950 . S
H91 C86 0.949 . S
C92 C87 1.399 1_556 S
C92 C90 1.382 . S
C92 H93 0.952 . S
H93 C92 0.952 . S
H94 C90 0.950 . S
H95 C96 0.949 . S
C96 H95 0.949 . S
C96 C97 1.395 . S
C96 C98 1.391 1_554 S
C97 C96 1.395 . S
C97 C100 1.390 1_554 S
C98 C96 1.391 1_556 S
C98 C102 1.387 . S
C98 C103 1.491 . S
H99 C100 0.950 . S
C100 C97 1.390 1_556 S
C100 H99 0.950 . S
C100 C101 1.378 . S
C101 C100 1.378 . S
C101 C102 1.409 . S
C102 C98 1.387 . S
C102 C101 1.409 . S
C102 H104 0.951 . S
C103 C98 1.491 . S
C103 C105 1.382 1_556 S
C103 C107 1.404 . S
H104 C102 0.951 . S
C105 C103 1.382 1_554 S
C105 C106 1.390 . S
C105 H110 0.949 . S
C106 C105 1.390 . S
C106 C111 1.399 1_554 S
C107 C103 1.404 . S
C107 H108 0.950 . S
C107 C109 1.375 . S
H108 C107 0.950 . S
C109 C107 1.375 . S
C109 C111 1.382 . S
C109 H113 0.950 . S
H110 C105 0.949 . S
C111 C106 1.399 1_556 S
C111 C109 1.382 . S
C111 H112 0.952 . S
H112 C111 0.952 . S
H113 C109 0.950 . S
H114 C115 0.949 . S
C115 H114 0.949 . S
C115 C116 1.395 . S
C115 C117 1.391 1_554 S
C116 C115 1.395 . S
C116 C119 1.390 1_554 S
C117 C115 1.391 1_556 S
C117 C121 1.387 . S
C117 C122 1.491 . S
H118 C119 0.950 . S
C119 C116 1.390 1_556 S
C119 H118 0.950 . S
C119 C120 1.378 . S
C120 C119 1.378 . S
C120 C121 1.409 . S
C121 C117 1.387 . S
C121 C120 1.409 . S
C121 H123 0.951 . S
C122 C117 1.491 . S
C122 C124 1.382 1_556 S
C122 C126 1.404 . S
H123 C121 0.951 . S
C124 C122 1.382 1_554 S
C124 C125 1.390 . S
C124 H129 0.949 . S
C125 C124 1.390 . S
C125 C130 1.399 1_554 S
C126 C122 1.404 . S
C126 H127 0.950 . S
C126 C128 1.375 . S
H127 C126 0.950 . S
C128 C126 1.375 . S
C128 C130 1.382 . S
C128 H132 0.950 . S
H129 C124 0.949 . S
C130 C125 1.399 1_556 S
C130 C128 1.382 . S
C130 H131 0.952 . S
H131 C130 0.952 . S
H132 C128 0.950 . S
H133 C134 0.949 . S
C134 H133 0.949 . S
C134 C135 1.395 . S
C134 C136 1.391 1_554 S
C135 C134 1.395 . S
C135 C138 1.390 1_554 S
C136 C134 1.391 1_556 S
C136 C140 1.387 . S
C136 C141 1.491 . S
H137 C138 0.950 . S
C138 C135 1.390 1_556 S
C138 H137 0.950 . S
C138 C139 1.378 . S
C139 C138 1.378 . S
C139 C140 1.409 . S
C140 C136 1.387 . S
C140 C139 1.409 . S
C140 H142 0.951 . S
C141 C136 1.491 . S
C141 C143 1.382 1_556 S
C141 C145 1.404 . S
H142 C140 0.951 . S
C143 C141 1.382 1_554 S
C143 C144 1.390 . S
C143 H148 0.949 . S
C144 C143 1.390 . S
C144 C149 1.399 1_554 S
C145 C141 1.404 . S
C145 H146 0.950 . S
C145 C147 1.375 . S
H146 C145 0.950 . S
C147 C145 1.375 . S
C147 C149 1.382 . S
C147 H151 0.950 . S
H148 C143 0.949 . S
C149 C144 1.399 1_556 S
C149 C147 1.382 . S
C149 H150 0.952 . S
H150 C149 0.952 . S
H151 C147 0.950 . S
Tb152 N183 2.660 1_565 S
Tb152 N190 2.600 1_565 S
Tb152 O196 2.546 . S
Tb152 O197 2.610 1_455 S
Tb152 O199 2.323 1_455 S
Tb152 O200 2.552 . S
Tb152 O201 2.413 . S
Tb152 O203 2.362 1_565 S
Tb152 O204 2.421 . S
Tb152 C216 2.833 . S
C153 C156 1.432 1_545 S
C153 C157 1.414 1_545 S
C153 N160 1.359 . S
C154 C156 1.417 . S
C154 C158 1.432 . S
C154 C166 1.410 . S
C155 C157 1.444 . S
C155 C158 1.317 . S
C155 H178 0.929 . S
C156 C153 1.432 1_565 S
C156 C154 1.417 . S
C156 N164 1.364 . S
C157 C153 1.414 1_565 S
C157 C155 1.444 . S
C157 C162 1.385 1_565 S
C158 C154 1.432 . S
C158 C155 1.317 . S
C158 H170 0.930 . S
C159 C161 1.392 . S
C159 C162 1.370 . S
C159 H171 0.931 . S
N160 C153 1.359 . S
N160 C161 1.327 . S
N160 Tb163 2.600 . S
C161 C159 1.392 . S
C161 N160 1.327 . S
C161 H168 0.930 . S
C162 C157 1.385 1_545 S
C162 C159 1.370 . S
C162 H181 0.930 . S
Tb163 N160 2.600 . S
Tb163 N164 2.649 1_545 S
Tb163 O197 2.362 1_545 S
Tb163 O198 2.421 . S
Tb163 O202 2.546 . S
Tb163 O203 2.610 1_655 S
Tb163 O205 2.320 1_655 S
Tb163 O206 2.552 1_655 S
Tb163 O207 2.413 . S
Tb163 C227 2.833 . S
N164 C156 1.364 . S
N164 Tb163 2.649 1_565 S
N164 C165 1.312 1_655 S
C165 N164 1.312 1_455 S
C165 C167 1.407 . S
C165 H172 0.930 . S
C166 C154 1.410 . S
C166 C167 1.345 1_655 S
C166 H174 0.930 . S
C167 C165 1.407 . S
C167 C166 1.345 1_455 S
C167 H169 0.930 . S
H168 C161 0.930 . S
H169 C167 0.930 . S
H170 C158 0.930 . S
H171 C159 0.931 . S
H172 C165 0.930 . S
H173 C187 0.930 1_655 S
H174 C166 0.930 . S
H175 C193 0.930 . S
H176 C184 0.930 1_655 S
H177 C191 0.931 . S
H178 C155 0.929 . S
H179 C185 0.930 . S
H180 C218 0.930 . S
H181 C162 0.930 . S
H182 C217 0.929 . S
N183 Tb152 2.660 1_545 S
N183 C184 1.305 . S
N183 C188 1.360 . S
C184 H176 0.930 1_455 S
C184 N183 1.305 . S
C184 C187 1.407 1_556 S
C185 H179 0.930 . S
C185 C186 1.410 . S
C185 C187 1.345 . S
C186 C185 1.410 . S
C186 C188 1.417 1_554 S
C186 C218 1.432 . S
C187 H173 0.930 1_455 S
C187 C184 1.407 1_554 S
C187 C185 1.345 . S
C188 N183 1.360 . S
C188 C186 1.417 1_556 S
C188 C192 1.432 . S
H189 C194 0.930 . S
N190 Tb152 2.600 1_545 S
N190 C192 1.359 . S
N190 C193 1.327 1_545 S
C191 H177 0.931 . S
C191 C193 1.392 . S
C191 C194 1.370 1_565 S
C192 C188 1.432 . S
C192 N190 1.359 . S
C192 C195 1.414 1_556 S
C193 H175 0.930 . S
C193 N190 1.327 1_565 S
C193 C191 1.392 . S
C194 H189 0.930 . S
C194 C191 1.370 1_545 S
C194 C195 1.385 1_556 S
C195 C192 1.414 1_554 S
C195 C194 1.385 1_554 S
C195 C217 1.444 . S
O196 Tb152 2.546 . S
O196 C216 1.251 . S
O197 Tb152 2.610 1_655 S
O197 Tb163 2.362 1_565 S
O197 C208 1.283 . S
O198 Tb163 2.421 . S
O198 C215 1.262 . S
O199 Tb152 2.323 1_655 S
O199 C215 1.255 1_565 S
O200 Tb152 2.552 . S
O200 C208 1.243 1_455 S
O201 Tb152 2.413 . S
O201 C216 1.256 . S
O202 Tb163 2.546 . S
O202 C227 1.251 . S
O203 Tb152 2.362 1_545 S
O203 Tb163 2.610 1_455 S
O203 C219 1.283 . S
O204 Tb152 2.421 . S
O204 C226 1.262 1_565 S
O205 Tb163 2.320 1_455 S
O205 C226 1.260 . S
O206 Tb163 2.552 1_455 S
O206 C219 1.243 . S
O207 Tb163 2.413 . S
O207 C227 1.256 . S
C208 O197 1.283 . S
C208 O200 1.243 1_655 S
C209 C211 1.382 1_556 S
C209 C213 1.393 . S
C209 C216 1.500 . S
C210 C211 1.400 . S
C210 C212 1.384 . S
C211 C209 1.382 1_554 S
C211 C210 1.400 . S
C211 H228 0.952 1_554 S
C212 C210 1.384 . S
C212 C214 1.392 . S
C212 H229 0.931 . S
C213 C209 1.393 . S
C213 C214 1.401 1_556 S
C213 H230 0.930 . S
C214 C212 1.392 . S
C214 C213 1.401 1_554 S
C214 H231 0.930 . S
C215 O198 1.262 . S
C215 O199 1.255 1_545 S
C216 Tb152 2.833 . S
C216 O196 1.251 . S
C216 O201 1.256 . S
C216 C209 1.500 . S
C217 H182 0.929 . S
C217 C195 1.444 . S
C217 C218 1.317 . S
C218 H180 0.930 . S
C218 C186 1.432 . S
C218 C217 1.317 . S
C219 O203 1.283 . S
C219 O206 1.243 . S
C220 C221 1.382 . S
C220 C224 1.393 . S
C220 C227 1.500 . S
C221 C220 1.382 . S
C221 C222 1.400 . S
C221 H232 0.930 1_655 S
C222 C221 1.400 . S
C222 C223 1.384 . S
C223 C222 1.384 . S
C223 C225 1.392 . S
C223 H233 0.931 . S
C224 C220 1.393 . S
C224 C225 1.401 . S
C224 H234 0.930 . S
C225 C223 1.392 . S
C225 C224 1.401 . S
C225 H235 0.930 . S
C226 O204 1.262 1_545 S
C226 O205 1.260 . S
C227 Tb163 2.833 . S
C227 O202 1.251 . S
C227 O207 1.256 . S
C227 C220 1.500 . S
H228 C211 0.952 1_556 S
H229 C212 0.931 . S
H230 C213 0.930 . S
H231 C214 0.930 . S
H232 C221 0.930 1_455 S
H233 C223 0.931 . S
H234 C224 0.930 . S
H235 C225 0.930 . S
Tb236 N267 2.660 . S
Tb236 N274 2.600 . S
Tb236 O280 2.546 . S
Tb236 O281 2.611 1_545 S
Tb236 O283 2.320 1_545 S
Tb236 O284 2.552 . S
Tb236 O285 2.413 . S
Tb236 O287 2.362 . S
Tb236 O288 2.421 . S
Tb236 C300 2.833 . S
C237 C240 1.432 . S
C237 C241 1.414 . S
C237 N244 1.359 . S
C238 C240 1.417 . S
C238 C242 1.432 . S
C238 C250 1.410 . S
C239 C241 1.444 . S
C239 C242 1.317 . S
C239 H262 0.929 . S
C240 C237 1.432 . S
C240 C238 1.417 . S
C240 N248 1.360 . S
C241 C237 1.414 . S
C241 C239 1.444 . S
C241 C246 1.385 . S
C242 C238 1.432 . S
C242 C239 1.317 . S
C242 H254 0.930 . S
C243 C245 1.392 . S
C243 C246 1.370 . S
C243 H255 0.931 . S
N244 C237 1.359 . S
N244 C245 1.327 . S
N244 Tb247 2.600 . S
C245 C243 1.392 . S
C245 N244 1.327 . S
C245 H252 0.930 . S
C246 C241 1.385 . S
C246 C243 1.370 . S
C246 H265 0.930 . S
Tb247 N244 2.600 . S
Tb247 N248 2.660 . S
Tb247 O281 2.361 . S
Tb247 O282 2.421 . S
Tb247 O286 2.546 . S
Tb247 O287 2.610 1_565 S
Tb247 O289 2.320 1_565 S
Tb247 O290 2.552 1_565 S
Tb247 O291 2.406 1_565 S
Tb247 C311 2.833 . S
N248 C240 1.360 . S
N248 Tb247 2.660 . S
N248 C249 1.305 1_565 S
C249 N248 1.305 1_545 S
C249 C251 1.407 . S
C249 H256 0.930 . S
C250 C238 1.410 . S
C250 C251 1.345 1_565 S
C250 H258 0.930 . S
C251 C249 1.407 . S
C251 C250 1.345 1_545 S
C251 H253 0.930 . S
H252 C245 0.930 . S
H253 C251 0.930 . S
H254 C242 0.930 . S
H255 C243 0.931 . S
H256 C249 0.930 . S
H257 C271 0.930 1_565 S
H258 C250 0.930 . S
H259 C277 0.930 . S
H260 C268 0.930 1_565 S
H261 C275 0.931 . S
H262 C239 0.929 . S
H263 C269 0.930 . S
H264 C302 0.930 . S
H265 C246 0.930 . S
H266 C301 0.929 . S
N267 Tb236 2.660 . S
N267 C268 1.305 . S
N267 C272 1.360 . S
C268 H260 0.930 1_545 S
C268 N267 1.305 . S
C268 C271 1.407 1_556 S
C269 H263 0.930 . S
C269 C270 1.410 . S
C269 C271 1.345 . S
C270 C269 1.410 . S
C270 C272 1.417 1_554 S
C270 C302 1.432 . S
C271 H257 0.930 1_545 S
C271 C268 1.407 1_554 S
C271 C269 1.345 . S
C272 N267 1.360 . S
C272 C270 1.417 1_556 S
C272 C276 1.432 . S
H273 C278 0.929 1_554 S
N274 Tb236 2.600 . S
N274 C276 1.359 . S
N274 C277 1.327 . S
C275 H261 0.931 . S
C275 C277 1.392 . S
C275 C278 1.370 . S
C276 C272 1.432 . S
C276 N274 1.359 . S
C276 C279 1.414 1_556 S
C277 H259 0.930 . S
C277 N274 1.327 . S
C277 C275 1.392 . S
C278 H273 0.929 1_556 S
C278 C275 1.370 . S
C278 C279 1.385 1_556 S
C279 C276 1.414 1_554 S
C279 C278 1.385 1_554 S
C279 C301 1.444 . S
O280 Tb236 2.546 . S
O280 C300 1.251 . S
O281 Tb236 2.611 1_565 S
O281 Tb247 2.361 . S
O281 C292 1.283 1_565 S
O282 Tb247 2.421 . S
O282 C299 1.262 . S
O283 Tb236 2.320 1_565 S
O283 C299 1.260 . S
O284 Tb236 2.552 . S
O284 C292 1.243 . S
O285 Tb236 2.413 . S
O285 C300 1.256 . S
O286 Tb247 2.546 . S
O286 C311 1.251 . S
O287 Tb236 2.362 . S
O287 Tb247 2.610 1_545 S
O287 C303 1.283 . S
O288 Tb236 2.421 . S
O288 C310 1.262 . S
O289 Tb247 2.320 1_545 S
O289 C310 1.260 . S
O290 Tb247 2.552 1_545 S
O290 C303 1.243 . S
O291 Tb247 2.406 1_545 S
O291 C311 1.224 1_545 S
C292 O281 1.283 1_545 S
C292 O284 1.243 . S
C293 C295 1.382 1_556 S
C293 C297 1.395 . S
C293 C300 1.500 . S
C294 C295 1.400 . S
C294 C296 1.384 . S
C295 C293 1.382 1_554 S
C295 C294 1.400 . S
C295 H312 0.930 1_554 S
C296 C294 1.384 . S
C296 C298 1.392 . S
C296 H313 0.931 . S
C297 C293 1.395 . S
C297 C298 1.398 1_556 S
C297 H314 0.932 . S
C298 C296 1.392 . S
C298 C297 1.398 1_554 S
C298 H315 0.930 . S
C299 O282 1.262 . S
C299 O283 1.260 . S
C300 Tb236 2.833 . S
C300 O280 1.251 . S
C300 O285 1.256 . S
C300 C293 1.500 . S
C301 H266 0.929 . S
C301 C279 1.444 . S
C301 C302 1.317 . S
C302 H264 0.930 . S
C302 C270 1.432 . S
C302 C301 1.317 . S
C303 O287 1.283 . S
C303 O290 1.243 . S
C304 C305 1.385 . S
C304 C308 1.393 . S
C304 C311 1.500 . S
C305 C304 1.385 . S
C305 C306 1.400 . S
C305 H316 0.927 1_565 S
C306 C305 1.400 . S
C306 C307 1.384 . S
C307 C306 1.384 . S
C307 C309 1.392 . S
C307 H317 0.931 . S
C308 C304 1.393 . S
C308 C309 1.401 . S
C308 H318 0.930 . S
C309 C307 1.392 . S
C309 C308 1.401 . S
C309 H319 0.930 . S
C310 O288 1.262 . S
C310 O289 1.260 . S
C311 Tb247 2.833 . S
C311 O286 1.251 . S
C311 O291 1.224 1_565 S
C311 C304 1.500 . S
H312 C295 0.930 1_556 S
H313 C296 0.931 . S
H314 C297 0.932 . S
H315 C298 0.930 . S
H316 C305 0.927 1_545 S
H317 C307 0.931 . S
H318 C308 0.930 . S
H319 C309 0.930 . S
Tb320 N351 2.660 . S
Tb320 N358 2.600 . S
Tb320 O364 2.546 . S
Tb320 O365 2.610 . S
Tb320 O367 2.320 . S
Tb320 O368 2.552 . S
Tb320 O369 2.413 . S
Tb320 O371 2.362 . S
Tb320 O372 2.421 . S
Tb320 C384 2.833 . S
C321 C324 1.432 . S
C321 C325 1.414 . S
C321 N328 1.359 . S
C322 C324 1.417 . S
C322 C326 1.432 . S
C322 C334 1.410 . S
C323 C325 1.444 . S
C323 C326 1.317 . S
C323 H346 0.929 . S
C324 C321 1.432 . S
C324 C322 1.417 . S
C324 N332 1.360 . S
C325 C321 1.414 . S
C325 C323 1.444 . S
C325 C330 1.385 . S
C326 C322 1.432 . S
C326 C323 1.317 . S
C326 H338 0.930 . S
C327 C329 1.392 1_554 S
C327 C330 1.370 1_554 S
C327 H339 0.931 . S
N328 C321 1.359 . S
N328 C329 1.327 . S
N328 Tb331 2.600 . S
C329 C327 1.392 1_556 S
C329 N328 1.327 . S
C329 H336 0.930 . S
C330 C325 1.385 . S
C330 C327 1.370 1_556 S
C330 H349 0.930 1_556 S
Tb331 N328 2.600 . S
Tb331 N332 2.660 . S
Tb331 O365 2.362 . S
Tb331 O366 2.421 . S
Tb331 O370 2.546 . S
Tb331 O371 2.610 . S
Tb331 O373 2.320 . S
Tb331 O374 2.552 . S
Tb331 O375 2.413 . S
Tb331 C395 2.833 . S
N332 C324 1.360 . S
N332 Tb331 2.660 . S
N332 C333 1.305 . S
C333 N332 1.305 . S
C333 C335 1.407 . S
C333 H340 0.930 . S
C334 C322 1.410 . S
C334 C335 1.345 . S
C334 H342 0.930 . S
C335 C333 1.407 . S
C335 C334 1.345 . S
C335 H337 0.930 . S
H336 C329 0.930 . S
H337 C335 0.930 . S
H338 C326 0.930 . S
H339 C327 0.931 . S
H340 C333 0.930 . S
H341 C355 0.930 . S
H342 C334 0.930 . S
H343 C361 0.930 . S
H344 C352 0.930 . S
H345 C359 0.931 . S
H346 C323 0.929 . S
H347 C353 0.930 . S
H348 C386 0.930 . S
H349 C330 0.930 1_554 S
H350 C385 0.929 . S
N351 Tb320 2.660 . S
N351 C352 1.305 . S
N351 C356 1.360 . S
C352 H344 0.930 . S
C352 N351 1.305 . S
C352 C355 1.407 . S
C353 H347 0.930 . S
C353 C354 1.410 . S
C353 C355 1.345 . S
C354 C353 1.410 . S
C354 C356 1.417 . S
C354 C386 1.432 . S
C355 H341 0.930 . S
C355 C352 1.407 . S
C355 C353 1.345 . S
C356 N351 1.360 . S
C356 C354 1.417 . S
C356 C360 1.432 . S
H357 C362 0.930 . S
N358 Tb320 2.600 . S
N358 C360 1.359 . S
N358 C361 1.327 . S
C359 H345 0.931 . S
C359 C361 1.392 . S
C359 C362 1.370 . S
C360 C356 1.432 . S
C360 N358 1.359 . S
C360 C363 1.414 . S
C361 H343 0.930 . S
C361 N358 1.327 . S
C361 C359 1.392 . S
C362 H357 0.930 . S
C362 C359 1.370 . S
C362 C363 1.385 . S
C363 C360 1.414 . S
C363 C362 1.385 . S
C363 C385 1.444 . S
O364 Tb320 2.546 . S
O364 C384 1.251 . S
O365 Tb320 2.610 . S
O365 Tb331 2.362 . S
O365 C376 1.283 . S
O366 Tb331 2.421 . S
O366 C383 1.262 . S
O367 Tb320 2.320 . S
O367 C383 1.260 . S
O368 Tb320 2.552 . S
O368 C376 1.243 . S
O369 Tb320 2.413 . S
O369 C384 1.256 . S
O370 Tb331 2.546 . S
O370 C395 1.251 . S
O371 Tb320 2.362 . S
O371 Tb331 2.610 . S
O371 C387 1.283 . S
O372 Tb320 2.421 . S
O372 C394 1.262 . S
O373 Tb331 2.320 . S
O373 C394 1.260 . S
O374 Tb331 2.552 . S
O374 C387 1.243 . S
O375 Tb331 2.413 . S
O375 C395 1.256 . S
C376 O365 1.283 . S
C376 O368 1.243 . S
C377 C379 1.382 . S
C377 C381 1.393 . S
C377 C384 1.500 . S
C378 C379 1.400 . S
C378 C380 1.384 . S
C379 C377 1.382 . S
C379 C378 1.400 . S
C379 H396 0.930 . S
C380 C378 1.384 . S
C380 C382 1.392 . S
C380 H397 0.931 . S
C381 C377 1.393 . S
C381 C382 1.401 . S
C381 H398 0.930 . S
C382 C380 1.392 . S
C382 C381 1.401 . S
C382 H399 0.930 . S
C383 O366 1.262 . S
C383 O367 1.260 . S
C384 Tb320 2.833 . S
C384 O364 1.251 . S
C384 O369 1.256 . S
C384 C377 1.500 . S
C385 H350 0.929 . S
C385 C363 1.444 . S
C385 C386 1.317 . S
C386 H348 0.930 . S
C386 C354 1.432 . S
C386 C385 1.317 . S
C387 O371 1.283 . S
C387 O374 1.243 . S
C388 C389 1.382 . S
C388 C392 1.393 . S
C388 C395 1.500 1_554 S
C389 C388 1.382 . S
C389 C390 1.400 . S
C389 H400 0.930 1_554 S
C390 C389 1.400 . S
C390 C391 1.384 . S
C391 C390 1.384 . S
C391 C393 1.392 . S
C391 H401 0.931 . S
C392 C388 1.393 . S
C392 C393 1.401 . S
C392 H402 0.930 . S
C393 C391 1.392 . S
C393 C392 1.401 . S
C393 H403 0.930 . S
C394 O372 1.262 . S
C394 O373 1.260 . S
C395 Tb331 2.833 . S
C395 O370 1.251 . S
C395 O375 1.256 . S
C395 C388 1.500 1_556 S
H396 C379 0.930 . S
H397 C380 0.931 . S
H398 C381 0.930 . S
H399 C382 0.930 . S
H400 C389 0.930 1_556 S
H401 C391 0.931 . S
H402 C392 0.930 . S
H403 C393 0.930 . S
Tb404 N435 2.660 . S
Tb404 N442 2.600 . S
Tb404 O448 2.546 . S
Tb404 O449 2.610 . S
Tb404 O451 2.320 . S
Tb404 O452 2.552 . S
Tb404 O453 2.413 . S
Tb404 O455 2.362 . S
Tb404 O456 2.421 1_455 S
Tb404 C468 2.833 . S
C405 C408 1.432 . S
C405 C409 1.414 . S
C405 N412 1.373 . S
C406 C408 1.417 . S
C406 C410 1.432 . S
C406 C418 1.410 . S
C407 C409 1.444 . S
C407 C410 1.317 . S
C407 H430 0.929 . S
C408 C405 1.432 . S
C408 C406 1.417 . S
C408 N416 1.360 . S
C409 C405 1.414 . S
C409 C407 1.444 . S
C409 C414 1.385 1_655 S
C410 C406 1.432 . S
C410 C407 1.317 . S
C410 H422 0.930 . S
C411 C413 1.392 1_554 S
C411 C414 1.370 1_554 S
C411 H423 0.931 . S
N412 C405 1.373 . S
N412 C413 1.309 1_655 S
N412 Tb415 2.607 . S
C413 C411 1.392 1_556 S
C413 N412 1.309 1_455 S
C413 H420 0.930 . S
C414 C409 1.385 1_455 S
C414 C411 1.370 1_556 S
C414 H433 0.930 1_556 S
Tb415 N412 2.607 . S
Tb415 N416 2.660 . S
Tb415 O449 2.362 1_655 S
Tb415 O450 2.421 1_655 S
Tb415 O454 2.546 . S
Tb415 O455 2.610 1_655 S
Tb415 O457 2.320 . S
Tb415 O458 2.552 . S
Tb415 O459 2.413 . S
Tb415 C479 2.833 . S
N416 C408 1.360 . S
N416 Tb415 2.660 . S
N416 C417 1.305 . S
C417 N416 1.305 . S
C417 C419 1.407 . S
C417 H424 0.930 . S
C418 C406 1.410 . S
C418 C419 1.345 . S
C418 H426 0.930 . S
C419 C417 1.407 . S
C419 C418 1.345 . S
C419 H421 0.930 . S
H420 C413 0.930 . S
H421 C419 0.930 . S
H422 C410 0.930 . S
H423 C411 0.931 . S
H424 C417 0.930 . S
H425 C439 0.930 . S
H426 C418 0.930 . S
H427 C445 0.930 1_655 S
H428 C436 0.930 . S
H429 C443 0.931 . S
H430 C407 0.929 . S
H431 C437 0.930 . S
H432 C470 0.930 . S
H433 C414 0.930 1_554 S
H434 C469 0.929 . S
N435 Tb404 2.660 . S
N435 C436 1.305 . S
N435 C440 1.360 . S
C436 H428 0.930 . S
C436 N435 1.305 . S
C436 C439 1.407 . S
C437 H431 0.930 . S
C437 C438 1.410 . S
C437 C439 1.345 . S
C438 C437 1.410 . S
C438 C440 1.417 . S
C438 C470 1.432 . S
C439 H425 0.930 . S
C439 C436 1.407 . S
C439 C437 1.345 . S
C440 N435 1.360 . S
C440 C438 1.417 . S
C440 C444 1.432 . S
H441 C446 0.930 . S
N442 Tb404 2.600 . S
N442 C444 1.359 . S
N442 C445 1.326 . S
C443 H429 0.931 . S
C443 C445 1.393 1_655 S
C443 C446 1.370 1_655 S
C444 C440 1.432 . S
C444 N442 1.359 . S
C444 C447 1.414 . S
C445 H427 0.930 1_455 S
C445 N442 1.326 . S
C445 C443 1.393 1_455 S
C446 H441 0.930 . S
C446 C443 1.370 1_455 S
C446 C447 1.385 . S
C447 C444 1.414 . S
C447 C446 1.385 . S
C447 C469 1.444 . S
O448 Tb404 2.546 . S
O448 C468 1.251 . S
O449 Tb404 2.610 . S
O449 Tb415 2.362 1_455 S
O449 C460 1.283 . S
O450 Tb415 2.421 1_455 S
O450 C467 1.262 . S
O451 Tb404 2.320 . S
O451 C467 1.260 . S
O452 Tb404 2.552 . S
O452 C460 1.243 . S
O453 Tb404 2.413 . S
O453 C468 1.256 . S
O454 Tb415 2.546 . S
O454 C479 1.251 . S
O455 Tb404 2.362 . S
O455 Tb415 2.610 1_455 S
O455 C471 1.283 1_455 S
O456 Tb404 2.421 1_655 S
O456 C478 1.262 . S
O457 Tb415 2.320 . S
O457 C478 1.260 . S
O458 Tb415 2.552 . S
O458 C471 1.243 . S
O459 Tb415 2.413 . S
O459 C479 1.256 . S
C460 O449 1.283 . S
C460 O452 1.243 . S
C461 C463 1.382 . S
C461 C465 1.393 . S
C461 C468 1.500 . S
C462 C463 1.400 . S
C462 C464 1.384 . S
C463 C461 1.382 . S
C463 C462 1.400 . S
C463 H480 0.930 . S
C464 C462 1.384 . S
C464 C466 1.392 . S
C464 H481 0.931 . S
C465 C461 1.393 . S
C465 C466 1.401 . S
C465 H482 0.930 . S
C466 C464 1.392 . S
C466 C465 1.401 . S
C466 H483 0.930 . S
C467 O450 1.262 . S
C467 O451 1.260 . S
C468 Tb404 2.833 . S
C468 O448 1.251 . S
C468 O453 1.256 . S
C468 C461 1.500 . S
C469 H434 0.929 . S
C469 C447 1.444 . S
C469 C470 1.317 . S
C470 H432 0.930 . S
C470 C438 1.432 . S
C470 C469 1.317 . S
C471 O455 1.283 1_655 S
C471 O458 1.243 . S
C472 C473 1.382 . S
C472 C476 1.393 . S
C472 C479 1.500 1_554 S
C473 C472 1.382 . S
C473 C474 1.400 . S
C473 H484 0.930 1_554 S
C474 C473 1.400 . S
C474 C475 1.384 . S
C475 C474 1.384 . S
C475 C477 1.392 . S
C475 H485 0.931 . S
C476 C472 1.393 . S
C476 C477 1.401 . S
C476 H486 0.930 . S
C477 C475 1.392 . S
C477 C476 1.401 . S
C477 H487 0.930 . S
C478 O456 1.262 . S
C478 O457 1.260 . S
C479 Tb415 2.833 . S
C479 O454 1.251 . S
C479 O459 1.256 . S
C479 C472 1.500 1_556 S
H480 C463 0.930 . S
H481 C464 0.931 . S
H482 C465 0.930 . S
H483 C466 0.930 . S
H484 C473 0.930 1_556 S
H485 C475 0.931 . S
H486 C476 0.930 . S
H487 C477 0.930 . S
H488 C494 0.930 . S
H489 C497 0.930 . S
H490 C498 0.930 . S
H491 C499 0.930 . S
H492 C502 0.930 . S
H493 C503 0.930 . S
C494 H488 0.930 . S
C494 C495 1.355 . S
C494 C496 1.415 . S
C495 C494 1.355 . S
C495 C497 1.419 . S
C496 C494 1.415 . S
C496 C501 1.425 . S
C496 C503 1.409 . S
C497 H489 0.930 . S
C497 C495 1.419 . S
C497 C498 1.362 . S
C498 H490 0.930 . S
C498 C497 1.362 . S
C498 C501 1.409 . S
C499 H491 0.930 . S
C499 C500 1.355 . S
C499 C501 1.415 . S
C500 C499 1.355 . S
C500 C502 1.419 . S
C501 C496 1.425 . S
C501 C498 1.409 . S
C501 C499 1.415 . S
C502 H492 0.930 . S
C502 C500 1.419 . S
C502 C503 1.362 . S
C503 H493 0.930 . S
C503 C496 1.409 . S
C503 C502 1.362 . S
H504 C510 0.930 . S
H505 C513 0.930 . S
H506 C514 0.930 . S
H507 C515 0.930 . S
H508 C518 0.930 . S
H509 C519 0.930 . S
C510 H504 0.930 . S
C510 C511 1.355 . S
C510 C512 1.415 . S
C511 C510 1.355 . S
C511 C513 1.419 . S
C512 C510 1.415 . S
C512 C517 1.425 . S
C512 C519 1.409 . S
C513 H505 0.930 . S
C513 C511 1.419 . S
C513 C514 1.362 . S
C514 H506 0.930 . S
C514 C513 1.362 . S
C514 C517 1.409 . S
C515 H507 0.930 . S
C515 C516 1.355 . S
C515 C517 1.415 . S
C516 C515 1.355 . S
C516 C518 1.419 . S
C517 C512 1.425 . S
C517 C514 1.409 . S
C517 C515 1.415 . S
C518 H508 0.930 . S
C518 C516 1.419 . S
C518 C519 1.362 . S
C519 H509 0.930 . S
C519 C512 1.409 . S
C519 C518 1.362 . S
H520 C526 0.930 . S
H521 C529 0.930 . S
H522 C530 0.930 . S
H523 C531 0.930 . S
H524 C534 0.930 . S
H525 C535 0.930 . S
C526 H520 0.930 . S
C526 C527 1.355 . S
C526 C528 1.415 . S
C527 C526 1.355 . S
C527 C529 1.419 . S
C528 C526 1.415 . S
C528 C533 1.425 . S
C528 C535 1.409 . S
C529 H521 0.930 . S
C529 C527 1.419 . S
C529 C530 1.362 . S
C530 H522 0.930 . S
C530 C529 1.362 . S
C530 C533 1.409 . S
C531 H523 0.930 . S
C531 C532 1.355 . S
C531 C533 1.415 . S
C532 C531 1.355 . S
C532 C534 1.419 . S
C533 C528 1.425 . S
C533 C530 1.409 . S
C533 C531 1.415 . S
C534 H524 0.930 . S
C534 C532 1.419 . S
C534 C535 1.362 . S
C535 H525 0.930 . S
C535 C528 1.409 . S
C535 C534 1.362 . S
H536 C542 0.930 . S
H537 C545 0.930 . S
H538 C546 0.930 1_655 S
H539 C547 0.930 1_655 S
H540 C550 0.930 . S
H541 C551 0.930 . S
C542 H536 0.930 . S
C542 C543 1.355 . S
C542 C544 1.415 . S
C543 C542 1.355 . S
C543 C545 1.419 . S
C544 C542 1.415 . S
C544 C549 1.425 . S
C544 C551 1.409 . S
C545 H537 0.930 . S
C545 C543 1.419 . S
C545 C546 1.362 . S
C546 H538 0.930 1_455 S
C546 C545 1.362 . S
C546 C549 1.409 . S
C547 H539 0.930 1_455 S
C547 C548 1.355 . S
C547 C549 1.415 . S
C548 C547 1.355 . S
C548 C550 1.419 . S
C549 C544 1.425 . S
C549 C546 1.409 . S
C549 C547 1.415 . S
C550 H540 0.930 . S
C550 C548 1.419 . S
C550 C551 1.362 . S
C551 H541 0.930 . S
C551 C544 1.409 . S
C551 C550 1.362 . S
H552 C558 0.930 . S
H553 C561 0.930 . S
H554 C562 0.930 1_546 S
H555 C563 0.930 1_545 S
H556 C566 0.930 . S
H557 C567 0.930 . S
C558 H552 0.930 . S
C558 C559 1.355 . S
C558 C560 1.415 . S
C559 C558 1.355 . S
C559 C561 1.419 . S
C560 C558 1.415 . S
C560 C565 1.425 1_554 S
C560 C567 1.409 . S
C561 H553 0.930 . S
C561 C559 1.419 . S
C561 C562 1.362 . S
C562 H554 0.930 1_564 S
C562 C561 1.362 . S
C562 C565 1.409 1_554 S
C563 H555 0.930 1_565 S
C563 C564 1.355 . S
C563 C565 1.415 . S
C564 C563 1.355 . S
C564 C566 1.419 . S
C565 C560 1.425 1_556 S
C565 C562 1.409 1_556 S
C565 C563 1.415 . S
C566 H556 0.930 . S
C566 C564 1.419 . S
C566 C567 1.362 1_556 S
C567 H557 0.930 . S
C567 C560 1.409 . S
C567 C566 1.362 1_554 S
H568 C574 0.930 . S
H569 C577 0.930 . S
H570 C578 0.930 . S
H571 C579 0.930 . S
H572 C582 0.930 . S
H573 C583 0.930 . S
C574 H568 0.930 . S
C574 C575 1.355 . S
C574 C576 1.415 1_554 S
C575 C574 1.355 . S
C575 C577 1.419 . S
C576 C574 1.415 1_556 S
C576 C581 1.425 1_556 S
C576 C583 1.409 . S
C577 H569 0.930 . S
C577 C575 1.419 . S
C577 C578 1.362 . S
C578 H570 0.930 . S
C578 C577 1.362 . S
C578 C581 1.409 . S
C579 H571 0.930 . S
C579 C580 1.355 . S
C579 C581 1.415 1_556 S
C580 C579 1.355 . S
C580 C582 1.419 . S
C581 C576 1.425 1_554 S
C581 C578 1.409 . S
C581 C579 1.415 1_554 S
C582 H572 0.930 . S
C582 C580 1.419 . S
C582 C583 1.362 . S
C583 H573 0.930 . S
C583 C576 1.409 . S
C583 C582 1.362 . S
H584 C590 0.930 . S
H585 C593 0.930 . S
H586 C594 0.924 1_556 S
H587 C595 0.930 . S
H588 C598 0.930 . S
H589 C599 0.930 . S
C590 H584 0.930 . S
C590 C591 1.355 . S
C590 C592 1.415 . S
C591 C590 1.355 . S
C591 C593 1.419 . S
C592 C590 1.415 . S
C592 C597 1.425 1_554 S
C592 C599 1.409 . S
C593 H585 0.930 . S
C593 C591 1.419 . S
C593 C594 1.370 . S
C594 H586 0.924 1_554 S
C594 C593 1.370 . S
C594 C597 1.407 1_554 S
C595 H587 0.930 . S
C595 C596 1.355 . S
C595 C597 1.415 . S
C596 C595 1.355 . S
C596 C598 1.419 . S
C597 C592 1.425 1_556 S
C597 C594 1.407 1_556 S
C597 C595 1.415 . S
C598 H588 0.930 . S
C598 C596 1.419 . S
C598 C599 1.362 1_556 S
C599 H589 0.930 . S
C599 C592 1.409 . S
C599 C598 1.362 1_554 S
H600 C606 0.930 . S
H601 C609 0.930 1_455 S
H602 C610 0.930 . S
H603 C611 0.935 . S
H604 C614 0.930 . S
H605 C615 0.930 . S
C606 H600 0.930 . S
C606 C607 1.355 . S
C606 C608 1.415 . S
C607 C606 1.355 . S
C607 C609 1.419 . S
C608 C606 1.415 . S
C608 C613 1.425 . S
C608 C615 1.409 1_554 S
C609 H601 0.930 1_655 S
C609 C607 1.419 . S
C609 C610 1.362 1_655 S
C610 H602 0.930 . S
C610 C609 1.362 1_455 S
C610 C613 1.409 1_455 S
C611 H603 0.935 . S
C611 C612 1.351 1_455 S
C611 C613 1.413 1_456 S
C612 C611 1.351 1_655 S
C612 C614 1.419 . S
C613 C608 1.425 . S
C613 C610 1.409 1_655 S
C613 C611 1.413 1_654 S
C614 H604 0.930 . S
C614 C612 1.419 . S
C614 C615 1.362 . S
C615 H605 0.930 . S
C615 C608 1.409 1_556 S
C615 C614 1.362 . S
H616 C622 0.930 . S
H617 C625 0.930 . S
H618 C626 0.930 . S
H619 C627 0.930 . S
H620 C630 0.930 . S
H621 C631 0.930 . S
C622 H616 0.930 . S
C622 C623 1.355 . S
C622 C624 1.415 . S
C623 C622 1.355 . S
C623 C625 1.419 . S
C624 C622 1.415 . S
C624 C629 1.425 . S
C624 C631 1.409 1_455 S
C625 H617 0.930 . S
C625 C623 1.419 . S
C625 C626 1.362 . S
C626 H618 0.930 . S
C626 C625 1.362 . S
C626 C629 1.409 . S
C627 H619 0.930 . S
C627 C628 1.355 . S
C627 C629 1.415 . S
C628 C627 1.355 . S
C628 C630 1.419 1_455 S
C629 C624 1.425 . S
C629 C626 1.409 . S
C629 C627 1.415 . S
C630 H620 0.930 . S
C630 C628 1.419 1_655 S
C630 C631 1.362 . S
C631 H621 0.930 . S
C631 C624 1.409 1_655 S
C631 C630 1.362 . S
H632 C638 0.930 . S
H633 C641 0.930 . S
H634 C642 0.930 . S
H635 C643 0.930 . S
H636 C646 0.930 . S
H637 C647 0.930 1_565 S
C638 H632 0.930 . S
C638 C639 1.355 . S
C638 C640 1.415 . S
C639 C638 1.355 . S
C639 C641 1.419 . S
C640 C638 1.415 . S
C640 C645 1.425 . S
C640 C647 1.409 . S
C641 H633 0.930 . S
C641 C639 1.419 . S
C641 C642 1.362 . S
C642 H634 0.930 . S
C642 C641 1.362 . S
C642 C645 1.409 . S
C643 H635 0.930 . S
C643 C644 1.355 . S
C643 C645 1.415 . S
C644 C643 1.355 . S
C644 C646 1.419 1_545 S
C645 C640 1.425 . S
C645 C642 1.409 . S
C645 C643 1.415 . S
C646 H636 0.930 . S
C646 C644 1.419 1_565 S
C646 C647 1.362 1_565 S
C647 H637 0.930 1_545 S
C647 C640 1.409 . S
C647 C646 1.362 1_545 S
H648 C654 0.930 . S
H649 C657 0.930 . S
H650 C658 0.930 . S
H651 C659 0.930 . S
H652 C662 0.930 . S
H653 C663 0.930 . S
C654 H648 0.930 . S
C654 C655 1.355 . S
C654 C656 1.415 . S
C655 C654 1.355 . S
C655 C657 1.419 . S
C656 C654 1.415 . S
C656 C661 1.425 . S
C656 C663 1.409 . S
C657 H649 0.930 . S
C657 C655 1.419 . S
C657 C658 1.362 . S
C658 H650 0.930 . S
C658 C657 1.362 . S
C658 C661 1.409 . S
C659 H651 0.930 . S
C659 C660 1.355 . S
C659 C661 1.415 . S
C660 C659 1.355 . S
C660 C662 1.419 . S
C661 C656 1.425 . S
C661 C658 1.409 . S
C661 C659 1.415 . S
C662 H652 0.930 . S
C662 C660 1.419 . S
C662 C663 1.362 . S
C663 H653 0.930 . S
C663 C656 1.409 . S
C663 C662 1.362 . S
H664 C670 0.930 . S
H665 C673 0.930 1_556 S
H666 C674 0.930 1_556 S
H667 C675 0.930 . S
H668 C678 0.930 . S
H669 C679 0.930 . S
C670 H664 0.930 . S
C670 C671 1.355 . S
C670 C672 1.415 . S
C671 C670 1.355 . S
C671 C673 1.419 . S
C672 C670 1.415 . S
C672 C677 1.425 . S
C672 C679 1.409 . S
C673 H665 0.930 1_554 S
C673 C671 1.419 . S
C673 C674 1.362 . S
C674 H666 0.930 1_554 S
C674 C673 1.362 . S
C674 C677 1.409 . S
C675 H667 0.930 . S
C675 C676 1.355 . S
C675 C677 1.415 . S
C676 C675 1.355 . S
C676 C678 1.419 . S
C677 C672 1.425 . S
C677 C674 1.409 . S
C677 C675 1.415 . S
C678 H668 0.930 . S
C678 C676 1.419 . S
C678 C679 1.362 . S
C679 H669 0.930 . S
C679 C672 1.409 . S
C679 C678 1.362 . S
H680 C686 0.930 . S
H681 C689 0.930 . S
H682 C690 0.930 . S
H683 C691 0.930 . S
H684 C694 0.930 . S
H685 C695 0.930 . S
C686 H680 0.930 . S
C686 C687 1.355 . S
C686 C688 1.415 . S
C687 C686 1.355 . S
C687 C689 1.419 . S
C688 C686 1.415 . S
C688 C693 1.425 . S
C688 C695 1.409 1_655 S
C689 H681 0.930 . S
C689 C687 1.419 . S
C689 C690 1.362 . S
C690 H682 0.930 . S
C690 C689 1.362 . S
C690 C693 1.409 . S
C691 H683 0.930 . S
C691 C692 1.355 1_655 S
C691 C693 1.415 . S
C692 C691 1.355 1_455 S
C692 C694 1.419 . S
C693 C688 1.425 . S
C693 C690 1.409 . S
C693 C691 1.415 . S
C694 H684 0.930 . S
C694 C692 1.419 . S
C694 C695 1.362 . S
C695 H685 0.930 . S
C695 C688 1.409 1_455 S
C695 C694 1.362 . S
H696 C702 0.930 1_545 S
H697 C705 0.930 . S
H698 C706 0.930 . S
H699 C707 0.930 . S
H700 C710 0.930 . S
H701 C711 0.930 . S
C702 H696 0.930 1_565 S
C702 C703 1.355 . S
C702 C704 1.420 . S
C703 C702 1.355 . S
C703 C705 1.419 . S
C704 C702 1.420 . S
C704 C709 1.438 . S
C704 C711 1.391 1_565 S
C705 H697 0.930 . S
C705 C703 1.419 . S
C705 C706 1.362 . S
C706 H698 0.930 . S
C706 C705 1.362 . S
C706 C709 1.409 . S
C707 H699 0.930 . S
C707 C708 1.355 1_565 S
C707 C709 1.415 . S
C708 C707 1.355 1_545 S
C708 C710 1.419 . S
C709 C704 1.438 . S
C709 C706 1.409 . S
C709 C707 1.415 . S
C710 H700 0.930 . S
C710 C708 1.419 . S
C710 C711 1.362 . S
C711 H701 0.930 . S
C711 C704 1.391 1_545 S
C711 C710 1.362 . S
H712 C718 0.930 . S
H713 C721 0.930 . S
H714 C722 0.930 . S
H715 C723 0.930 . S
H716 C726 0.930 . S
H717 C727 0.930 . S
C718 H712 0.930 . S
C718 C719 1.355 . S
C718 C720 1.415 . S
C719 C718 1.355 . S
C719 C721 1.419 . S
C720 C718 1.415 . S
C720 C725 1.425 . S
C720 C727 1.409 . S
C721 H713 0.930 . S
C721 C719 1.419 . S
C721 C722 1.362 . S
C722 H714 0.930 . S
C722 C721 1.362 . S
C722 C725 1.409 . S
C723 H715 0.930 . S
C723 C724 1.355 . S
C723 C725 1.415 . S
C724 C723 1.355 . S
C724 C726 1.419 . S
C725 C720 1.425 . S
C725 C722 1.409 . S
C725 C723 1.415 . S
C726 H716 0.930 . S
C726 C724 1.419 . S
C726 C727 1.362 . S
C727 H717 0.930 . S
C727 C720 1.409 . S
C727 C726 1.362 . S
H728 C734 0.930 . S
H729 C737 0.930 . S
H730 C738 0.930 . S
H731 C739 0.930 . S
H732 C742 0.930 . S
H733 C743 0.930 . S
C734 H728 0.930 . S
C734 C735 1.355 . S
C734 C736 1.415 . S
C735 C734 1.355 . S
C735 C737 1.419 . S
C736 C734 1.415 . S
C736 C741 1.425 . S
C736 C743 1.409 . S
C737 H729 0.930 . S
C737 C735 1.419 . S
C737 C738 1.362 . S
C738 H730 0.930 . S
C738 C737 1.362 . S
C738 C741 1.409 . S
C739 H731 0.930 . S
C739 C740 1.355 . S
C739 C741 1.415 . S
C740 C739 1.355 . S
C740 C742 1.419 . S
C741 C736 1.425 . S
C741 C738 1.409 . S
C741 C739 1.415 . S
C742 H732 0.930 . S
C742 C740 1.419 . S
C742 C743 1.362 . S
C743 H733 0.930 . S
C743 C736 1.409 . S
C743 C742 1.362 . S
H744 C750 0.930 . S
H745 C753 0.930 . S
H746 C754 0.930 . S
H747 C755 0.930 . S
H748 C758 0.930 . S
H749 C759 0.930 . S
C750 H744 0.930 . S
C750 C751 1.355 . S
C750 C752 1.415 . S
C751 C750 1.355 . S
C751 C753 1.419 . S
C752 C750 1.415 . S
C752 C757 1.425 . S
C752 C759 1.409 . S
C753 H745 0.930 . S
C753 C751 1.419 . S
C753 C754 1.362 . S
C754 H746 0.930 . S
C754 C753 1.362 . S
C754 C757 1.409 . S
C755 H747 0.930 . S
C755 C756 1.355 . S
C755 C757 1.415 . S
C756 C755 1.355 . S
C756 C758 1.419 . S
C757 C752 1.425 . S
C757 C754 1.409 . S
C757 C755 1.415 . S
C758 H748 0.930 . S
C758 C756 1.419 . S
C758 C759 1.362 . S
C759 H749 0.930 . S
C759 C752 1.409 . S
C759 C758 1.362 . S
H760 C766 0.930 . S
H761 C769 0.930 . S
H762 C770 0.930 . S
H763 C771 0.930 . S
H764 C774 0.930 1_565 S
H765 C775 0.930 1_565 S
C766 H760 0.930 . S
C766 C767 1.355 . S
C766 C768 1.415 . S
C767 C766 1.355 . S
C767 C769 1.419 . S
C768 C766 1.415 . S
C768 C773 1.425 . S
C768 C775 1.409 . S
C769 H761 0.930 . S
C769 C767 1.419 . S
C769 C770 1.362 . S
C770 H762 0.930 . S
C770 C769 1.362 . S
C770 C773 1.409 . S
C771 H763 0.930 . S
C771 C772 1.355 . S
C771 C773 1.415 . S
C772 C771 1.355 . S
C772 C774 1.419 . S
C773 C768 1.425 . S
C773 C770 1.409 . S
C773 C771 1.415 . S
C774 H764 0.930 1_545 S
C774 C772 1.419 . S
C774 C775 1.362 . S
C775 H765 0.930 1_545 S
C775 C768 1.409 . S
C775 C774 1.362 . S
H776 C782 0.930 . S
H777 C785 0.930 . S
H778 C786 0.933 . S
H779 C787 0.930 . S
H780 C790 0.930 . S
H781 C791 0.930 . S
C782 H776 0.930 . S
C782 C783 1.355 . S
C782 C784 1.415 . S
C783 C782 1.355 . S
C783 C785 1.419 . S
C784 C782 1.415 . S
C784 C789 1.425 . S
C784 C791 1.409 . S
C785 H777 0.930 . S
C785 C783 1.419 . S
C785 C786 1.362 . S
C786 H778 0.933 . S
C786 C785 1.362 . S
C786 C789 1.409 . S
C787 H779 0.930 . S
C787 C788 1.355 . S
C787 C789 1.415 . S
C788 C787 1.355 . S
C788 C790 1.419 . S
C789 C784 1.425 . S
C789 C786 1.409 . S
C789 C787 1.415 . S
C790 H780 0.930 . S
C790 C788 1.419 . S
C790 C791 1.362 . S
C791 H781 0.930 . S
C791 C784 1.409 . S
C791 C790 1.362 . S
H792 C798 0.930 . S
H793 C801 0.930 . S
H794 C802 0.930 . S
H795 C803 0.930 . S
H796 C806 0.930 . S
H797 C807 0.930 . S
C798 H792 0.930 . S
C798 C799 1.355 . S
C798 C800 1.415 . S
C799 C798 1.355 . S
C799 C801 1.419 . S
C800 C798 1.415 . S
C800 C805 1.425 . S
C800 C807 1.409 . S
C801 H793 0.930 . S
C801 C799 1.419 . S
C801 C802 1.362 . S
C802 H794 0.930 . S
C802 C801 1.362 . S
C802 C805 1.409 . S
C803 H795 0.930 . S
C803 C804 1.355 . S
C803 C805 1.415 . S
C804 C803 1.355 . S
C804 C806 1.419 . S
C805 C800 1.425 . S
C805 C802 1.409 . S
C805 C803 1.415 . S
C806 H796 0.930 . S
C806 C804 1.419 . S
C806 C807 1.362 . S
C807 H797 0.930 . S
C807 C800 1.409 . S
C807 C806 1.362 . S
H808 C814 0.930 . S
H809 C817 0.930 . S
H810 C818 0.930 . S
H811 C819 0.930 . S
H812 C822 0.930 . S
H813 C823 0.930 . S
C814 H808 0.930 . S
C814 C815 1.355 . S
C814 C816 1.415 . S
C815 C814 1.355 . S
C815 C817 1.419 . S
C816 C814 1.415 . S
C816 C821 1.425 . S
C816 C823 1.409 . S
C817 H809 0.930 . S
C817 C815 1.419 . S
C817 C818 1.362 . S
C818 H810 0.930 . S
C818 C817 1.362 . S
C818 C821 1.409 . S
C819 H811 0.930 . S
C819 C820 1.355 . S
C819 C821 1.415 . S
C820 C819 1.355 . S
C820 C822 1.419 . S
C821 C816 1.425 . S
C821 C818 1.409 . S
C821 C819 1.415 . S
C822 H812 0.930 . S
C822 C820 1.419 . S
C822 C823 1.362 . S
C823 H813 0.930 . S
C823 C816 1.409 . S
C823 C822 1.362 . S
H824 C830 0.930 . S
H825 C833 0.930 . S
H826 C834 0.930 . S
H827 C835 0.930 . S
H828 C838 0.930 . S
H829 C839 0.930 . S
C830 H824 0.930 . S
C830 C831 1.355 . S
C830 C832 1.415 . S
C831 C830 1.355 . S
C831 C833 1.419 . S
C832 C830 1.415 . S
C832 C837 1.425 . S
C832 C839 1.409 1_565 S
C833 H825 0.930 . S
C833 C831 1.419 . S
C833 C834 1.362 . S
C834 H826 0.930 . S
C834 C833 1.362 . S
C834 C837 1.409 . S
C835 H827 0.930 . S
C835 C836 1.355 . S
C835 C837 1.415 . S
C836 C835 1.355 . S
C836 C838 1.419 1_565 S
C837 C832 1.425 . S
C837 C834 1.409 . S
C837 C835 1.415 . S
C838 H828 0.930 . S
C838 C836 1.419 1_545 S
C838 C839 1.362 . S
C839 H829 0.930 . S
C839 C832 1.409 1_545 S
C839 C838 1.362 . S
H840 C846 0.930 . S
H841 C849 0.930 . S
H842 C850 0.930 . S
H843 C851 0.930 . S
H844 C854 0.930 . S
H845 C855 0.930 . S
C846 H840 0.930 . S
C846 C847 1.355 . S
C846 C848 1.415 . S
C847 C846 1.355 . S
C847 C849 1.419 . S
C848 C846 1.415 . S
C848 C853 1.425 . S
C848 C855 1.409 . S
C849 H841 0.930 . S
C849 C847 1.419 . S
C849 C850 1.362 . S
C850 H842 0.930 . S
C850 C849 1.362 . S
C850 C853 1.409 . S
C851 H843 0.930 . S
C851 C852 1.355 . S
C851 C853 1.415 . S
C852 C851 1.355 . S
C852 C854 1.419 . S
C853 C848 1.425 . S
C853 C850 1.409 . S
C853 C851 1.415 . S
C854 H844 0.930 . S
C854 C852 1.419 . S
C854 C855 1.362 . S
C855 H845 0.930 . S
C855 C848 1.409 . S
C855 C854 1.362 . S
H856 C862 0.930 . S
H857 C865 0.930 . S
H858 C866 0.930 . S
H859 C867 0.930 . S
H860 C870 0.930 . S
H861 C871 0.930 . S
C862 H856 0.930 . S
C862 C863 1.355 . S
C862 C864 1.415 . S
C863 C862 1.355 . S
C863 C865 1.419 . S
C864 C862 1.415 . S
C864 C869 1.425 . S
C864 C871 1.409 . S
C865 H857 0.930 . S
C865 C863 1.419 . S
C865 C866 1.362 . S
C866 H858 0.930 . S
C866 C865 1.362 . S
C866 C869 1.409 . S
C867 H859 0.930 . S
C867 C868 1.355 . S
C867 C869 1.415 . S
C868 C867 1.355 . S
C868 C870 1.419 . S
C869 C864 1.425 . S
C869 C866 1.409 . S
C869 C867 1.415 . S
C870 H860 0.930 . S
C870 C868 1.419 . S
C870 C871 1.362 . S
C871 H861 0.930 . S
C871 C864 1.409 . S
C871 C870 1.362 . S
C495 C125 1.985 . S
C500 C226 1.949 . S
C516 C310 2.016 . S
C511 C144 1.967 . S
C532 C376 1.907 . S
C527 C87 2.031 . S
C548 C460 1.924 . S
C543 C106 2.004 . S
C564 C215 1.978 1_565 S
C559 C49 2.060 . S
C575 C68 2.069 . S
C580 C299 2.020 . S
C591 C11 2.145 . S
C596 C387 1.929 . S
C607 C30 2.151 . S
C612 C471 1.931 . S
C628 C222 0.715 1_455 S
C623 C97 0.820 . S
C644 C306 0.688 1_545 S
C639 C116 0.764 . S
C660 C378 0.757 . S
C655 C135 0.687 . S
C671 C78 0.697 . S
C676 C462 0.804 . S
C687 C21 0.783 . S
C692 C210 0.727 . S
C708 C294 0.680 . S
C703 C40 0.787 . S
C724 C390 0.708 . S
C719 C59 0.771 . S
C735 C2 0.727 . S
C740 C474 0.779 . S
C751 C101 2.024 . S
C756 C219 2.111 . S
C767 C120 2.002 . S
C772 C303 2.047 . S
C788 C383 2.163 . S
C783 C139 1.907 . S
C804 C467 2.198 . S
C799 C82 1.994 . S
C815 C25 2.095 . S
C820 C208 2.150 . S
C836 C292 2.101 1_565 S
C831 C44 2.073 . S
C852 C394 2.172 . S
C847 C63 1.966 . S
C863 C6 1.991 . S
C868 C478 2.165 . S
