# Generated by pormake.
# Topology anh, (6,3)-cn, num edge types: 1
# Building blocks:
#     Node 0, Type 0, BuildingBlock: BETFEN_clean_sbu_0, # of connection points: 6
#     Node 1, Type 0, BuildingBlock: BETFEN_clean_sbu_0, # of connection points: 6
#     Node 2, Type 0, BuildingBlock: BETFEN_clean_sbu_0, # of connection points: 6
#     Node 3, Type 1, BuildingBlock: BETDAH_clean_linker_0, # of connection points: 3
#     Node 4, Type 1, BuildingBlock: BETDAH_clean_linker_0, # of connection points: 3
#     Node 5, Type 1, BuildingBlock: BETDAH_clean_linker_0, # of connection points: 3
#     Node 6, Type 1, BuildingBlock: BETDAH_clean_linker_0, # of connection points: 3
#     Node 7, Type 1, BuildingBlock: BETDAH_clean_linker_0, # of connection points: 3
#     Node 8, Type 1, BuildingBlock: BETDAH_clean_linker_0, # of connection points: 3
#     Edge 9, Type (0, 1), BuildingBlock: CIFDUS_clean_linker_0, # of connection points: 2
#     Edge 10, Type (0, 1), BuildingBlock: CIFDUS_clean_linker_0, # of connection points: 2
#     Edge 11, Type (0, 1), BuildingBlock: CIFDUS_clean_linker_0, # of connection points: 2
#     Edge 12, Type (0, 1), BuildingBlock: CIFDUS_clean_linker_0, # of connection points: 2
#     Edge 13, Type (0, 1), BuildingBlock: CIFDUS_clean_linker_0, # of connection points: 2
#     Edge 14, Type (0, 1), BuildingBlock: CIFDUS_clean_linker_0, # of connection points: 2
#     Edge 15, Type (0, 1), BuildingBlock: CIFDUS_clean_linker_0, # of connection points: 2
#     Edge 16, Type (0, 1), BuildingBlock: CIFDUS_clean_linker_0, # of connection points: 2
#     Edge 17, Type (0, 1), BuildingBlock: CIFDUS_clean_linker_0, # of connection points: 2
#     Edge 18, Type (0, 1), BuildingBlock: CIFDUS_clean_linker_0, # of connection points: 2
#     Edge 19, Type (0, 1), BuildingBlock: CIFDUS_clean_linker_0, # of connection points: 2
#     Edge 20, Type (0, 1), BuildingBlock: CIFDUS_clean_linker_0, # of connection points: 2
#     Edge 21, Type (0, 1), BuildingBlock: CIFDUS_clean_linker_0, # of connection points: 2
#     Edge 22, Type (0, 1), BuildingBlock: CIFDUS_clean_linker_0, # of connection points: 2
#     Edge 23, Type (0, 1), BuildingBlock: CIFDUS_clean_linker_0, # of connection points: 2
#     Edge 24, Type (0, 1), BuildingBlock: CIFDUS_clean_linker_0, # of connection points: 2
#     Edge 25, Type (0, 1), BuildingBlock: CIFDUS_clean_linker_0, # of connection points: 2
#     Edge 26, Type (0, 1), BuildingBlock: CIFDUS_clean_linker_0, # of connection points: 2
# Relax obj value: 0.175
# Max RMSD: 0.192
# Mean RMSD: 0.115
data_MOF--net-anh--node1-BETFEN_clean_sbu_0--node2-BETDAH_clean_linker_0--edge1-CIFDUS_clean_linker_0
_symmetry_space_group_name_H-M    P1
_symmetry_Int_Tables_number       1
_symmetry_cell_setting            triclinic
loop_
_symmetry_equiv_pos_as_xyz
'x, y, z'
_cell_length_a     26.559744
_cell_length_b     27.435471
_cell_length_c     43.402847
_cell_angle_alpha  92.48068
_cell_angle_beta   94.506124
_cell_angle_gamma 101.06897
loop_
_atom_site_label
_atom_site_type_symbol
_atom_site_fract_x
_atom_site_fract_y
_atom_site_fract_z
_atom_type_partial_charge
Pr0 Pr 0.08155 0.58522 0.15047 0.0
Pr1 Pr 0.10048 0.69115 0.13646 0.0
C2 C 0.05007 0.49534 0.1731 0.0
C3 C 1.00257 0.46359 0.18124 0.0
C4 C 0.95578 0.4803 0.17942 0.0
C5 C 0.91049 0.44872 0.18606 0.0
C6 C 0.91135 0.39994 0.19462 0.0
C7 C 0.95867 0.38386 0.19687 0.0
C8 C 1.00384 0.41545 0.19024 0.0
C9 C 0.09348 0.60005 0.0879 0.0
C10 C 0.98134 0.63912 0.1321 0.0
C11 C 0.13663 0.78435 0.12072 0.0
C12 C 0.18135 0.82055 0.13487 0.0
C13 C 0.18976 0.87047 0.12741 0.0
C14 C 0.23097 0.90489 0.14274 0.0
C15 C 0.26406 0.8897 0.16579 0.0
C16 C 0.25575 0.83933 0.17265 0.0
C17 C 0.21469 0.80523 0.15748 0.0
C18 C 0.08699 0.67623 0.19864 0.0
C19 C 0.20206 0.63518 0.14703 0.0
O20 O 0.0672 0.53597 0.19064 0.0
O21 O 0.05358 0.50191 0.14367 0.0
O22 O 0.06682 0.62209 0.10446 0.0
O23 O 0.11394 0.5682 0.10335 0.0
O24 O 1.01409 0.67156 0.11835 0.0
O25 O 0.99842 0.60646 0.14972 0.0
O26 O 0.14722 0.745 0.10651 0.0
O27 O 0.099 0.77343 0.13843 0.0
O28 O 0.11449 0.65416 0.18264 0.0
O29 O 0.06693 0.70776 0.18285 0.0
O30 O 0.17155 0.59688 0.15747 0.0
O31 O 0.18337 0.67278 0.13609 0.0
H32 H 0.95422 0.51748 0.17256 0.0
H33 H 0.8748 0.46241 0.18438 0.0
H34 H 0.96061 0.34632 0.20288 0.0
H35 H 0.03969 0.40198 0.19166 0.0
H36 H 0.16408 0.88294 0.11018 0.0
H37 H 0.23617 0.94349 0.13709 0.0
H38 H 0.28098 0.82618 0.18983 0.0
H39 H 0.20854 0.76687 0.16372 0.0
Pr40 Pr 0.61636 0.17162 0.52673 0.0
Pr41 Pr 0.50195 0.14481 0.5178 0.0
C42 C 0.71798 0.20553 0.52355 0.0
C43 C 0.75341 0.25014 0.51544 0.0
C44 C 0.73756 0.29586 0.51303 0.0
C45 C 0.77154 0.33743 0.50419 0.0
C46 C 0.82173 0.33378 0.49745 0.0
C47 C 0.83717 0.28773 0.49987 0.0
C48 C 0.80327 0.24632 0.50877 0.0
C49 C 0.56579 0.15644 0.58062 0.0
C50 C 0.55024 0.26604 0.52671 0.0
C51 C 0.40137 0.10466 0.51878 0.0
C52 C 0.37123 1.0563 0.50645 0.0
C53 C 0.31782 1.04453 0.50799 0.0
C54 C 0.28953 0.99878 0.49511 0.0
C55 C 0.31444 0.96433 0.48055 0.0
C56 C 0.36817 0.97624 0.47964 0.0
C57 C 0.39619 1.02185 0.4923 0.0
C58 C 0.54689 0.16082 0.46234 0.0
C59 C 0.56934 1.04998 0.5244 0.0
O60 O 0.68754 0.18085 0.50062 0.0
O61 O 0.69519 0.20873 0.549 0.0
O62 O 0.55505 0.18187 0.55872 0.0
O63 O 0.60497 0.13614 0.57538 0.0
O64 O 0.51022 0.23091 0.53173 0.0
O65 O 0.59374 0.25245 0.51967 0.0
O66 O 0.43568 0.103 0.54185 0.0
O67 O 0.41908 0.13486 0.49793 0.0
O68 O 0.56321 0.13657 0.48381 0.0
O69 O 0.50572 0.17639 0.46903 0.0
O70 O 0.61144 0.08436 0.52286 0.0
O71 O 0.524 1.06381 0.52474 0.0
H72 H 0.69893 0.29931 0.5178 0.0
H73 H 0.75835 0.37226 0.5023 0.0
H74 H 0.87577 0.28383 0.49533 0.0
H75 H 0.81599 0.2112 0.51038 0.0
H76 H 0.298 1.07087 0.51877 0.0
H77 H 0.24813 0.99085 0.49597 0.0
H78 H 0.3887 0.95026 0.46914 0.0
H79 H 0.43739 1.0304 0.49076 0.0
Pr80 Pr 0.59385 0.54439 0.82607 0.0
Pr81 Pr 0.59859 0.64886 0.84656 0.0
C82 C 0.57369 0.45195 0.79891 0.0
C83 C 0.53038 0.4095 0.79786 0.0
C84 C 0.47974 0.41694 0.79922 0.0
C85 C 0.43871 0.37633 0.79779 0.0
C86 C 0.44782 0.32763 0.79532 0.0
C87 C 0.49883 0.32037 0.79497 0.0
C88 C 0.53976 0.36103 0.79621 0.0
C89 C 0.60419 0.5587 0.89039 0.0
C90 C 0.70804 0.60978 0.84192 0.0
C91 C 0.60463 0.74211 0.87023 0.0
C92 C 0.56417 0.77137 0.86577 0.0
C93 C 0.51991 0.75039 0.84644 0.0
C94 C 0.48138 0.77714 0.84013 0.0
C95 C 0.48602 0.82582 0.85302 0.0
C96 C 0.53008 0.84668 0.87301 0.0
C97 C 0.569 0.81946 0.87941 0.0
C98 C 0.58789 0.63088 0.78199 0.0
C99 C 0.48296 0.58328 0.83364 0.0
O100 O 0.6001 0.46326 0.82576 0.0
O101 O 0.5651 0.49094 0.78458 0.0
O102 O 0.57434 0.57809 0.87276 0.0
O103 O 0.62889 0.53093 0.87492 0.0
O104 O 0.68396 0.63851 0.85825 0.0
O105 O 0.68152 0.57424 0.82236 0.0
O106 O 0.59255 0.70309 0.88636 0.0
O107 O 0.62548 0.73212 0.845 0.0
O108 O 0.61869 0.61455 0.80053 0.0
O109 O 0.56062 0.65725 0.79655 0.0
O110 O 0.50567 0.5501 0.82037 0.0
O111 O 0.51048 0.62316 0.84884 0.0
H112 H 0.47185 0.45411 0.80099 0.0
H113 H 0.39985 0.38299 0.79817 0.0
H114 H 0.50697 0.28326 0.79252 0.0
H115 H 0.57866 0.35463 0.79541 0.0
H116 H 0.51572 0.71361 0.83538 0.0
H117 H 0.44902 0.76023 0.82391 0.0
H118 H 0.53477 0.88414 0.88326 0.0
H119 H 0.60299 0.83616 0.89443 0.0
H120 H 0.47777 0.10012 0.275 0.0
H121 H 0.63916 0.16488 0.27855 0.0
H122 H 0.56309 0.08082 0.19651 0.0
C123 C 0.51342 0.1069 0.26391 0.0
C124 C 0.51446 0.08736 0.23355 0.0
C125 C 0.55832 0.13435 0.2804 0.0
C126 C 0.60444 0.14371 0.26595 0.0
C127 C 0.60569 0.12499 0.23539 0.0
C128 C 0.5611 0.0963 0.21968 0.0
N129 N 0.65138 0.13309 0.21997 0.0
C130 C 0.69058 0.17462 0.22595 0.0
H131 H 0.55684 0.54598 0.59827 0.0
H132 H 0.55977 0.70168 0.58706 0.0
H133 H 0.56563 0.60326 0.50761 0.0
C134 C 0.55827 0.57661 0.58321 0.0
C135 C 0.56073 0.56725 0.5513 0.0
C136 C 0.55855 0.62463 0.59634 0.0
C137 C 0.55948 0.66481 0.57698 0.0
C138 C 0.56181 0.65808 0.54486 0.0
C139 C 0.5633 0.60898 0.53225 0.0
N140 N 0.5636 0.69946 0.52495 0.0
C141 C 0.55968 0.74975 0.53236 0.0
H142 H 0.9961 0.60791 0.90864 0.0
H143 H 0.14881 0.59074 0.89027 0.0
H144 H 1.03317 0.58905 0.81485 0.0
C145 C 1.02381 0.60281 0.89237 0.0
C146 C 1.00814 0.59859 0.86056 0.0
C147 C 0.07417 0.59945 0.90351 0.0
C148 C 0.11006 0.5938 0.88206 0.0
C149 C 0.09547 0.59046 0.85 0.0
C150 C 0.04438 0.59214 0.83952 0.0
N151 N 0.13078 0.58461 0.82768 0.0
C152 C 0.18357 0.58761 0.83441 0.0
H153 H 0.13847 0.72149 0.37922 0.0
H154 H 0.07766 0.56631 0.38896 0.0
H155 H 0.14074 0.66201 0.46927 0.0
C156 C 0.12949 0.69048 0.39382 0.0
C157 C 0.14174 0.69797 0.42594 0.0
C158 C 0.10695 0.64312 0.38018 0.0
C159 C 0.09491 0.60302 0.3992 0.0
C160 C 0.10649 0.61032 0.43147 0.0
C161 C 0.13054 0.65735 0.4445 0.0
N162 N 0.0969 0.57072 0.45141 0.0
C163 C 0.05348 0.53298 0.44769 0.0
H164 H 0.37652 0.11061 0.71101 0.0
H165 H 0.32125 0.96033 0.6733 0.0
H166 H 0.26587 1.01199 0.75707 0.0
C167 C 0.35072 0.0748 0.71116 0.0
C168 C 0.31918 1.06631 0.73543 0.0
C169 C 0.35207 1.0372 0.68848 0.0
C170 C 0.32022 0.99029 0.6902 0.0
C171 C 0.28893 0.98123 0.71484 0.0
C172 C 0.28876 1.01932 0.73757 0.0
N173 N 0.26275 0.9323 0.71883 0.0
C174 C 0.2757 0.91006 0.74559 0.0
H175 H 0.68607 0.60362 0.06771 0.0
H176 H 0.52852 0.59803 0.0864 0.0
H177 H 0.64765 0.61345 0.16174 0.0
C178 C 0.65758 0.6044 0.0842 0.0
C179 C 0.67353 0.60936 0.11592 0.0
C180 C 0.60557 0.59978 0.07328 0.0
C181 C 0.56865 0.60144 0.09469 0.0
C182 C 0.58374 0.6062 0.12677 0.0
C183 C 0.6361 0.60971 0.13711 0.0
N184 N 0.54778 0.60741 0.14939 0.0
C185 C 0.49469 0.60387 0.14348 0.0
H186 H 0.25413 0.55772 0.15064 0.0
H187 H 0.27711 0.71637 0.14164 0.0
H188 H 0.36894 0.72048 0.13851 0.0
H189 H 0.44386 0.67947 0.13862 0.0
H190 H 0.42206 0.52119 0.14687 0.0
H191 H 0.32925 0.51628 0.14968 0.0
C192 C 0.27929 0.59319 0.14818 0.0
C193 C 0.25843 0.63666 0.14653 0.0
C194 C 0.33248 0.59532 0.14594 0.0
C195 C 0.29176 0.68223 0.14297 0.0
C196 C 0.34449 0.68469 0.14112 0.0
C197 C 0.41853 0.64392 0.14068 0.0
C198 C 0.43933 0.60067 0.14223 0.0
C199 C 0.36533 0.64154 0.14247 0.0
C200 C 0.40655 0.55485 0.1453 0.0
C201 C 0.35358 0.55212 0.14708 0.0
H202 H 0.88808 0.33817 0.45235 0.0
H203 H 0.83824 0.42868 0.52325 0.0
H204 H 0.90313 0.49996 0.51192 0.0
H205 H 0.97855 0.53486 0.48468 0.0
H206 H 1.03067 0.44419 0.41516 0.0
H207 H 0.96054 0.37447 0.42306 0.0
C208 C 0.89146 0.3735 0.46532 0.0
C209 C 0.85857 0.37795 0.48878 0.0
C210 C 0.92934 0.41418 0.45895 0.0
C211 C 0.86275 0.42428 0.50494 0.0
C212 C 0.90008 0.465 0.49862 0.0
C213 C 0.97384 0.49995 0.471 0.0
C214 C 1.00902 0.49414 0.44936 0.0
C215 C 0.93408 0.46015 0.47605 0.0
C216 C 1.00345 0.44909 0.43182 0.0
C217 C 0.96363 0.40934 0.43645 0.0
H218 H 0.38203 0.79487 0.843 0.0
H219 H 0.50345 0.92322 0.8383 0.0
H220 H 0.44422 0.96437 0.80819 0.0
H221 H 0.36336 0.95732 0.77519 0.0
H222 H 0.24547 0.82532 0.77464 0.0
H223 H 0.29794 0.79146 0.81436 0.0
C224 C 0.39539 0.8321 0.83568 0.0
C225 C 0.44742 0.85546 0.84234 0.0
C226 C 0.36197 0.85433 0.81688 0.0
C227 C 0.46369 0.90432 0.83357 0.0
C228 C 0.43 0.92764 0.81596 0.0
C229 C 0.34893 0.92162 0.78439 0.0
C230 C 0.30122 0.89343 0.77234 0.0
C231 C 0.37993 0.90201 0.80627 0.0
C232 C 0.28234 0.84729 0.7839 0.0
C233 C 0.31234 0.82804 0.80643 0.0
H234 H 0.90096 0.58688 0.16133 0.0
H235 H 0.9352 0.69348 0.09178 0.0
H236 H 0.84442 0.69615 0.0826 0.0
H237 H 0.75493 0.66721 0.09283 0.0
H238 H 0.71788 0.55995 0.16133 0.0
H239 H 0.8098 0.55953 0.17289 0.0
C240 C 0.88853 0.61063 0.14416 0.0
C241 C 0.92526 0.63971 0.12718 0.0
C242 C 0.83564 0.61226 0.13894 0.0
C243 C 0.90821 0.67058 0.10521 0.0
C244 C 0.8561 0.67225 0.09991 0.0
C245 C 0.76689 0.64372 0.11035 0.0
C246 C 0.72941 0.61336 0.12599 0.0
C247 C 0.8195 0.64312 0.11646 0.0
C248 C 0.74582 0.58395 0.14906 0.0
C249 C 0.7984 0.58337 0.15546 0.0
H250 H 0.23463 0.90116 0.50256 0.0
H251 H 0.32789 0.91992 0.4252 0.0
H252 H 0.28303 0.83944 0.40178 0.0
H253 H 0.21911 0.76295 0.40375 0.0
H254 H 0.123 0.74471 0.47975 0.0
H255 H 0.16736 0.8257 0.50325 0.0
C256 C 0.24468 0.8879 0.4804 0.0
C257 C 0.28489 0.91639 0.46582 0.0
C258 C 0.21847 0.84157 0.46689 0.0
C259 C 0.29777 0.89838 0.43724 0.0
C260 C 0.27196 0.85245 0.42372 0.0
C261 C 0.20726 0.77694 0.42522 0.0
C262 C 0.16775 0.74774 0.43992 0.0
C263 C 0.23253 0.82361 0.43843 0.0
C264 C 0.15373 0.76611 0.46811 0.0
C265 C 0.17887 0.81256 0.48148 0.0
H266 H 0.43643 0.23865 0.82201 0.0
H267 H 0.3625 0.31996 0.75509 0.0
H268 H 0.30323 0.24372 0.73572 0.0
H269 H 0.28746 0.15272 0.72967 0.0
H270 H 0.36555 1.07053 0.79359 0.0
H271 H 0.40707 0.14795 0.82294 0.0
C272 C 0.4065 0.2397 0.80368 0.0
C273 C 0.40452 0.28452 0.78952 0.0
C274 C 0.37347 0.19543 0.79206 0.0
C275 C 0.36495 0.28585 0.76628 0.0
C276 C 0.33124 0.24219 0.75503 0.0
C277 C 0.31158 0.15186 0.75094 0.0
C278 C 0.32386 0.10658 0.75957 0.0
C279 C 0.3371 0.19652 0.7666 0.0
C280 C 0.35543 0.10524 0.78685 0.0
C281 C 0.3798 0.14953 0.80325 0.0
H282 H 0.49548 0.96437 0.53462 0.0
H283 H 0.65494 1.00987 0.51726 0.0
H284 H 0.66656 0.92408 0.51898 0.0
H285 H 0.63233 0.83398 0.52465 0.0
H286 H 0.47381 0.78711 0.54264 0.0
H287 H 0.46154 0.8736 0.5416 0.0
C288 C 0.53286 0.95573 0.5312 0.0
C289 C 0.57418 0.99512 0.52571 0.0
C290 C 0.53977 0.90509 0.53247 0.0
C291 C 0.62209 0.9817 0.52153 0.0
C292 C 0.62894 0.93202 0.52253 0.0
C293 C 0.59516 0.84263 0.52868 0.0
C294 C 0.55419 0.80321 0.53406 0.0
C295 C 0.58825 0.89314 0.52796 0.0
C296 C 0.50632 0.816 0.53877 0.0
C297 C 0.49921 0.86585 0.53804 0.0
H298 H 0.77113 0.55742 0.8132 0.0
H299 H 0.77393 0.67812 0.88098 0.0
H300 H 0.867 0.68771 0.89075 0.0
H301 H 0.94723 0.65976 0.882 0.0
H302 H 0.94515 0.53758 0.81562 0.0
H303 H 0.8527 0.53166 0.80282 0.0
C304 C 0.79208 0.586 0.83001 0.0
C305 C 0.76519 0.61675 0.84646 0.0
C306 C 0.84594 0.59128 0.83569 0.0
C307 C 0.79327 0.65371 0.86804 0.0
C308 C 0.84666 0.6593 0.87367 0.0
C309 C 0.92661 0.63178 0.86472 0.0
C310 C 0.95324 0.59888 0.85002 0.0
C311 C 0.8733 0.62792 0.85794 0.0
C312 C 0.92592 0.56365 0.82717 0.0
C313 C 0.87287 0.55994 0.82004 0.0
H314 H 0.33085 0.96518 0.14297 0.0
H315 H 0.29318 0.89555 0.22772 0.0
H316 H 0.36656 0.9508 0.25607 0.0
H317 H 0.44333 1.01643 0.25654 0.0
H318 H 0.47999 0.08849 0.17243 0.0
H319 H 0.40519 1.0347 0.14414 0.0
C320 C 0.3383 0.96257 0.16771 0.0
C321 C 0.30683 0.92589 0.18309 0.0
C322 C 0.38059 0.99464 0.18398 0.0
C323 C 0.31735 0.92276 0.21515 0.0
C324 C 0.35917 0.95451 0.23145 0.0
C325 C 0.43456 1.02101 0.23213 0.0
C326 C 0.46743 1.05638 0.21666 0.0
C327 C 0.39136 0.99022 0.21605 0.0
C328 C 0.45584 1.06106 0.18486 0.0
C329 C 0.41289 1.0305 0.16868 0.0
H330 H 0.61011 0.35429 0.50637 0.0
H331 H 0.48048 0.30321 0.55872 0.0
H332 H 0.47096 0.38856 0.56921 0.0
H333 H 0.49946 0.47896 0.56536 0.0
H334 H 0.62611 0.53312 0.51181 0.0
H335 H 0.63568 0.44702 0.49976 0.0
C336 C 0.57966 0.3617 0.52001 0.0
C337 C 0.54618 0.32084 0.53171 0.0
C338 C 0.57342 0.41223 0.52572 0.0
C339 C 0.50695 0.33256 0.54915 0.0
C340 C 0.50137 0.38194 0.55528 0.0
C341 C 0.52905 0.47226 0.55078 0.0
C342 C 0.56199 0.51376 0.53966 0.0
C343 C 0.53432 0.42223 0.54388 0.0
C344 C 0.59961 0.50294 0.5206 0.0
C345 C 0.60542 0.45324 0.51391 0.0
H346 H 0.42424 0.64078 0.86149 0.0
H347 H 0.41241 0.50986 0.80042 0.0
H348 H 0.31867 0.49867 0.79618 0.0
H349 H 0.23942 0.52714 0.80886 0.0
H350 H 0.25118 0.65804 0.86948 0.0
H351 H 0.34539 0.6683 0.87489 0.0
C352 C 0.40127 0.60965 0.8473 0.0
C353 C 0.42571 0.57606 0.83141 0.0
C354 C 0.3472 0.60351 0.84488 0.0
C355 C 0.39498 0.53609 0.81312 0.0
C356 C 0.3412 0.52972 0.81059 0.0
C357 C 0.26281 0.55761 0.82342 0.0
C358 C 0.23889 0.59174 0.8389 0.0
C359 C 0.31686 0.56324 0.82628 0.0
C360 C 0.26911 0.6313 0.85753 0.0
C361 C 0.32286 0.63717 0.86054 0.0
H362 H 0.89558 0.33314 0.23935 0.0
H363 H 0.81834 0.38765 0.16062 0.0
H364 H 0.74107 0.32505 0.16538 0.0
H365 H 0.69789 0.25016 0.18905 0.0
H366 H 0.77567 0.19316 0.26621 0.0
H367 H 0.85053 0.2611 0.26494 0.0
C368 C 0.86182 0.33133 0.22325 0.0
C369 C 0.86294 0.36488 0.19954 0.0
C370 C 0.81777 0.29461 0.22577 0.0
C371 C 0.81847 0.36266 0.17926 0.0
C372 C 0.77435 0.32659 0.1818 0.0
C373 C 0.73108 0.25327 0.2058 0.0
C374 C 0.73189 0.21735 0.22771 0.0
C375 C 0.77391 0.29183 0.20456 0.0
C376 C 0.77469 0.22092 0.24927 0.0
C377 C 0.81736 0.25953 0.24844 0.0
H378 H 0.16001 0.63139 0.04528 0.0
H379 H 1.00469 0.5564 0.05555 0.0
H380 H 0.98629 0.54622 -0.00076 0.0
H381 H 1.01396 0.55932 0.94761 0.0
H382 H 0.16624 0.64245 0.93645 0.0
H383 H 0.18695 0.64735 -0.00748 0.0
C384 C 0.1223 0.61282 0.03497 0.0
C385 C 0.08364 0.59448 0.05412 0.0
C386 C 0.11168 0.60827 0.00257 0.0
C387 C 1.03477 0.57074 0.04095 0.0
C388 C 1.02435 0.56489 0.00887 0.0
C389 C 0.05147 0.57937 0.95729 0.0
C390 C 0.08818 0.60096 0.9376 0.0
C391 C 0.06239 0.5838 0.9895 0.0
C392 C 0.13723 0.62504 0.95083 0.0
C393 C 0.149 0.62828 0.98298 0.0
H394 H 0.5031 0.19728 0.4125 0.0
H395 H 0.62416 0.11951 0.44038 0.0
H396 H 0.64228 0.10902 0.38621 0.0
H397 H 0.61812 0.11563 0.33049 0.0
H398 H 0.49353 0.18931 0.30335 0.0
H399 H 0.48243 0.20805 0.35769 0.0
C400 C 0.5338 0.17843 0.40679 0.0
C401 C 0.56196 0.15879 0.43033 0.0
C402 C 0.54314 0.17166 0.3757 0.0
C403 C 0.60178 0.1347 0.4226 0.0
C404 C 0.61206 0.12863 0.39165 0.0
C405 C 0.58926 0.1366 0.33661 0.0
C406 C 0.55663 0.15114 0.31311 0.0
C407 C 0.58224 0.14606 0.36794 0.0
C408 C 0.51888 0.17767 0.32115 0.0
C409 C 0.5125 0.18828 0.35216 0.0
H410 H 0.53246 0.67239 0.73816 0.0
H411 H 0.64266 0.57619 0.74919 0.0
H412 H 0.64396 0.56668 0.6931 0.0
H413 H 0.61455 0.58592 0.64095 0.0
H414 H 0.50351 0.68106 0.6291 0.0
H415 H 0.50261 0.69157 0.68534 0.0
C416 C 0.55666 0.64931 0.72823 0.0
C417 C 0.58743 0.62504 0.74784 0.0
C418 C 0.55739 0.6441 0.6958 0.0
C419 C 0.61867 0.59533 0.73465 0.0
C420 C 0.61947 0.58988 0.70255 0.0
C421 C 0.58971 0.6086 0.6506 0.0
C422 C 0.55889 0.6324 0.63067 0.0
C423 C 0.58904 0.61408 0.68291 0.0
C424 C 0.52794 0.6626 0.64377 0.0
C425 C 0.52715 0.66836 0.67597 0.0
H426 H 0.54249 1.06658 0.60717 0.0
H427 H 0.50182 0.21113 0.60209 0.0
H428 H 0.42814 0.18449 0.63143 0.0
H429 H 0.37453 0.12077 0.65764 0.0
H430 H 0.41593 0.97737 0.66719 0.0
H431 H 0.48828 1.00178 0.63556 0.0
C432 C 0.51806 0.09235 0.61319 0.0
C433 C 0.5278 0.14093 0.60292 0.0
C434 C 0.47503 0.07654 0.62994 0.0
C435 C 0.49524 0.17372 0.61008 0.0
C436 C 0.45282 0.15841 0.62656 0.0
C437 C 0.39947 0.09479 0.65296 0.0
C438 C 0.39011 1.04756 0.66505 0.0
C439 C 0.44213 0.1099 0.63632 0.0
C440 C 0.42195 1.01388 0.65796 0.0
C441 C 0.46383 1.02812 0.6403 0.0
H442 H 0.55518 0.61258 0.92909 0.0
H443 H 0.65362 0.50429 0.92816 0.0
H444 H 0.65729 0.50345 0.9842 0.0
H445 H 0.63681 0.53591 0.03358 0.0
H446 H 0.54311 0.6477 0.03677 0.0
H447 H 0.53181 0.64359 0.9799 0.0
C448 C 0.57718 0.58874 0.94126 0.0
C449 C 0.60428 0.55872 0.92446 0.0
C450 C 0.57968 0.58877 0.97386 0.0
C451 C 0.63262 0.52794 0.94046 0.0
C452 C 0.63468 0.52729 0.97256 0.0
C453 C 0.61378 0.55936 0.02185 0.0
C454 C 0.59143 0.59253 0.03932 0.0
C455 C 0.60896 0.55792 0.98947 0.0
C456 C 0.56065 0.62177 0.02382 0.0
C457 C 0.55465 0.61976 0.99132 0.0
H458 H 0.12113 0.60981 0.23653 0.0
H459 H 0.04279 0.73386 0.23599 0.0
H460 H 0.03788 0.73158 0.29168 0.0
H461 H 0.06009 0.69789 0.34103 0.0
H462 H 0.13767 0.57366 0.34273 0.0
H463 H 0.13737 0.57144 0.28616 0.0
C464 C 0.10278 0.63607 0.24866 0.0
C465 C 0.0829 0.6723 0.23223 0.0
C466 C 0.09962 0.63432 0.28086 0.0
C467 C 0.05877 0.70584 0.24813 0.0
C468 C 0.05583 0.70455 0.28 0.0
C469 C 0.07643 0.67001 0.32893 0.0
C470 C 0.09914 0.63623 0.34593 0.0
C471 C 0.07669 0.66944 0.29664 0.0
C472 C 0.11966 0.59987 0.33006 0.0
C473 C 0.11994 0.59893 0.29777 0.0
loop_
_geom_bond_atom_site_label_1
_geom_bond_atom_site_label_2
_geom_bond_distance
_geom_bond_site_symmetry_2
_ccdc_geom_bond_type
Pr0 C2 2.880 . S
Pr0 O20 2.562 . S
Pr0 O21 2.490 . S
Pr0 O22 2.695 1_655 S
Pr0 O23 2.512 . S
Pr0 O25 2.437 . S
Pr0 O28 2.436 1_655 S
Pr0 O30 2.438 1_655 S
Pr1 C11 2.880 . S
Pr1 O22 2.436 . S
Pr1 O24 2.438 1_455 S
Pr1 O26 2.562 . S
Pr1 O27 2.490 . S
Pr1 O28 2.695 . S
Pr1 O29 2.512 . S
Pr1 O31 2.437 . S
C2 Pr0 2.880 . S
C2 C3 1.491 . S
C2 O20 1.254 . S
C2 O21 1.225 . S
C3 C2 1.491 . S
C3 C4 1.392 . S
C3 C8 1.356 . S
C4 C3 1.392 . S
C4 C5 1.368 . S
C4 H32 0.929 . S
C5 C4 1.368 . S
C5 C6 1.386 . S
C5 H33 0.929 . S
C6 C5 1.386 . S
C6 C7 1.373 . S
C7 C6 1.373 . S
C7 C8 1.409 . S
C7 H34 0.931 . S
C8 C3 1.356 . S
C8 C7 1.409 . S
C8 H35 0.930 . S
C9 O22 1.270 . S
C9 O23 1.248 1_455 S
C10 O24 1.267 . S
C10 O25 1.278 . S
C11 Pr1 2.880 . S
C11 C12 1.491 . S
C11 O26 1.254 . S
C11 O27 1.225 . S
C12 C11 1.491 . S
C12 C13 1.392 . S
C12 C17 1.356 . S
C13 C12 1.392 . S
C13 C14 1.368 . S
C13 H36 0.929 . S
C14 C13 1.368 . S
C14 C15 1.386 . S
C14 H37 0.929 . S
C15 C14 1.386 . S
C15 C16 1.373 . S
C16 C15 1.373 . S
C16 C17 1.409 . S
C16 H38 0.931 . S
C17 C12 1.356 . S
C17 C16 1.409 . S
C17 H39 0.930 . S
C18 O28 1.270 . S
C18 O29 1.248 . S
C19 O30 1.267 . S
C19 O31 1.278 . S
O20 Pr0 2.562 . S
O20 C2 1.254 . S
O21 Pr0 2.490 . S
O21 C2 1.225 . S
O22 Pr0 2.695 1_455 S
O22 Pr1 2.436 . S
O22 C9 1.270 . S
O23 Pr0 2.512 . S
O23 C9 1.248 1_655 S
O24 Pr1 2.438 1_655 S
O24 C10 1.267 . S
O25 Pr0 2.437 . S
O25 C10 1.278 . S
O26 Pr1 2.562 . S
O26 C11 1.254 . S
O27 Pr1 2.490 . S
O27 C11 1.225 . S
O28 Pr0 2.436 1_455 S
O28 Pr1 2.695 . S
O28 C18 1.270 . S
O29 Pr1 2.512 . S
O29 C18 1.248 . S
O30 Pr0 2.438 1_455 S
O30 C19 1.267 . S
O31 Pr1 2.437 . S
O31 C19 1.278 . S
H32 C4 0.929 . S
H33 C5 0.929 . S
H34 C7 0.931 . S
H35 C8 0.930 . S
H36 C13 0.929 . S
H37 C14 0.929 . S
H38 C16 0.931 . S
H39 C17 0.930 . S
Pr40 C42 2.880 . S
Pr40 O60 2.562 . S
Pr40 O61 2.490 . S
Pr40 O62 2.695 . S
Pr40 O63 2.512 . S
Pr40 O65 2.437 . S
Pr40 O68 2.436 . S
Pr40 O70 2.438 1_545 S
Pr41 C51 2.880 1_545 S
Pr41 O62 2.436 . S
Pr41 O64 2.438 . S
Pr41 O66 2.562 1_545 S
Pr41 O67 2.490 1_545 S
Pr41 O68 2.695 . S
Pr41 O69 2.512 . S
Pr41 O71 2.437 1_545 S
C42 Pr40 2.880 . S
C42 C43 1.491 . S
C42 O60 1.254 . S
C42 O61 1.225 . S
C43 C42 1.491 . S
C43 C44 1.392 . S
C43 C48 1.356 . S
C44 C43 1.392 . S
C44 C45 1.368 . S
C44 H72 0.929 . S
C45 C44 1.368 . S
C45 C46 1.386 . S
C45 H73 0.929 . S
C46 C45 1.386 . S
C46 C47 1.373 . S
C47 C46 1.373 . S
C47 C48 1.409 . S
C47 H74 0.931 . S
C48 C43 1.356 . S
C48 C47 1.409 . S
C48 H75 0.930 . S
C49 O62 1.270 . S
C49 O63 1.248 . S
C50 O64 1.267 . S
C50 O65 1.278 . S
C51 Pr41 2.880 1_565 S
C51 C52 1.491 . S
C51 O66 1.254 . S
C51 O67 1.225 . S
C52 C51 1.491 . S
C52 C53 1.392 . S
C52 C57 1.356 . S
C53 C52 1.392 . S
C53 C54 1.368 . S
C53 H76 0.929 . S
C54 C53 1.368 . S
C54 C55 1.386 . S
C54 H77 0.929 . S
C55 C54 1.386 . S
C55 C56 1.373 . S
C56 C55 1.373 . S
C56 C57 1.409 . S
C56 H78 0.931 . S
C57 C52 1.356 . S
C57 C56 1.409 . S
C57 H79 0.930 . S
C58 O68 1.270 . S
C58 O69 1.248 . S
C59 O70 1.267 . S
C59 O71 1.278 . S
O60 Pr40 2.562 . S
O60 C42 1.254 . S
O61 Pr40 2.490 . S
O61 C42 1.225 . S
O62 Pr40 2.695 . S
O62 Pr41 2.436 . S
O62 C49 1.270 . S
O63 Pr40 2.512 . S
O63 C49 1.248 . S
O64 Pr41 2.438 . S
O64 C50 1.267 . S
O65 Pr40 2.437 . S
O65 C50 1.278 . S
O66 Pr41 2.562 1_565 S
O66 C51 1.254 . S
O67 Pr41 2.490 1_565 S
O67 C51 1.225 . S
O68 Pr40 2.436 . S
O68 Pr41 2.695 . S
O68 C58 1.270 . S
O69 Pr41 2.512 . S
O69 C58 1.248 . S
O70 Pr40 2.438 1_565 S
O70 C59 1.267 . S
O71 Pr41 2.437 1_565 S
O71 C59 1.278 . S
H72 C44 0.929 . S
H73 C45 0.929 . S
H74 C47 0.931 . S
H75 C48 0.930 . S
H76 C53 0.929 . S
H77 C54 0.929 . S
H78 C56 0.931 . S
H79 C57 0.930 . S
Pr80 C82 2.880 . S
Pr80 O100 2.562 . S
Pr80 O101 2.490 . S
Pr80 O102 2.695 . S
Pr80 O103 2.512 . S
Pr80 O105 2.437 . S
Pr80 O108 2.436 . S
Pr80 O110 2.438 . S
Pr81 C91 2.880 . S
Pr81 O102 2.436 . S
Pr81 O104 2.438 . S
Pr81 O106 2.562 . S
Pr81 O107 2.490 . S
Pr81 O108 2.695 . S
Pr81 O109 2.512 . S
Pr81 O111 2.437 . S
C82 Pr80 2.880 . S
C82 C83 1.491 . S
C82 O100 1.254 . S
C82 O101 1.225 . S
C83 C82 1.491 . S
C83 C84 1.392 . S
C83 C88 1.356 . S
C84 C83 1.392 . S
C84 C85 1.368 . S
C84 H112 0.929 . S
C85 C84 1.368 . S
C85 C86 1.386 . S
C85 H113 0.929 . S
C86 C85 1.386 . S
C86 C87 1.373 . S
C87 C86 1.373 . S
C87 C88 1.409 . S
C87 H114 0.931 . S
C88 C83 1.356 . S
C88 C87 1.409 . S
C88 H115 0.930 . S
C89 O102 1.270 . S
C89 O103 1.248 . S
C90 O104 1.267 . S
C90 O105 1.278 . S
C91 Pr81 2.880 . S
C91 C92 1.491 . S
C91 O106 1.254 . S
C91 O107 1.225 . S
C92 C91 1.491 . S
C92 C93 1.392 . S
C92 C97 1.356 . S
C93 C92 1.392 . S
C93 C94 1.368 . S
C93 H116 0.929 . S
C94 C93 1.368 . S
C94 C95 1.386 . S
C94 H117 0.929 . S
C95 C94 1.386 . S
C95 C96 1.373 . S
C96 C95 1.373 . S
C96 C97 1.409 . S
C96 H118 0.931 . S
C97 C92 1.356 . S
C97 C96 1.409 . S
C97 H119 0.930 . S
C98 O108 1.270 . S
C98 O109 1.248 . S
C99 O110 1.267 . S
C99 O111 1.278 . S
O100 Pr80 2.562 . S
O100 C82 1.254 . S
O101 Pr80 2.490 . S
O101 C82 1.225 . S
O102 Pr80 2.695 . S
O102 Pr81 2.436 . S
O102 C89 1.270 . S
O103 Pr80 2.512 . S
O103 C89 1.248 . S
O104 Pr81 2.438 . S
O104 C90 1.267 . S
O105 Pr80 2.437 . S
O105 C90 1.278 . S
O106 Pr81 2.562 . S
O106 C91 1.254 . S
O107 Pr81 2.490 . S
O107 C91 1.225 . S
O108 Pr80 2.436 . S
O108 Pr81 2.695 . S
O108 C98 1.270 . S
O109 Pr81 2.512 . S
O109 C98 1.248 . S
O110 Pr80 2.438 . S
O110 C99 1.267 . S
O111 Pr81 2.437 . S
O111 C99 1.278 . S
H112 C84 0.929 . S
H113 C85 0.929 . S
H114 C87 0.931 . S
H115 C88 0.930 . S
H116 C93 0.929 . S
H117 C94 0.929 . S
H118 C96 0.931 . S
H119 C97 0.930 . S
H120 C123 0.929 1_565 S
H121 C126 0.929 . S
H122 C128 0.930 . S
C123 H120 0.929 1_545 S
C123 C124 1.398 . S
C123 C125 1.396 . S
C124 C123 1.398 . S
C124 C128 1.407 . S
C125 C123 1.396 . S
C125 C126 1.394 . S
C126 H121 0.929 . S
C126 C125 1.394 . S
C126 C127 1.382 . S
C127 C126 1.382 . S
C127 C128 1.392 . S
C127 N129 1.420 . S
C128 H122 0.930 . S
C128 C124 1.407 . S
C128 C127 1.392 . S
N129 C127 1.420 . S
N129 C130 1.244 . S
C130 N129 1.244 . S
H131 C134 0.929 . S
H132 C137 0.929 . S
H133 C139 0.930 . S
C134 H131 0.929 . S
C134 C135 1.398 . S
C134 C136 1.396 . S
C135 C134 1.398 . S
C135 C139 1.407 . S
C136 C134 1.396 . S
C136 C137 1.394 . S
C137 H132 0.929 . S
C137 C136 1.394 . S
C137 C138 1.382 . S
C138 C137 1.382 . S
C138 C139 1.392 . S
C138 N140 1.420 . S
C139 H133 0.930 . S
C139 C135 1.407 . S
C139 C138 1.392 . S
N140 C138 1.420 . S
N140 C141 1.244 . S
C141 N140 1.244 . S
H142 C145 0.929 . S
H143 C148 0.929 . S
H144 C150 0.930 1_655 S
C145 H142 0.929 . S
C145 C146 1.398 . S
C145 C147 1.396 1_655 S
C146 C145 1.398 . S
C146 C150 1.407 1_655 S
C147 C145 1.396 1_455 S
C147 C148 1.394 . S
C148 H143 0.929 . S
C148 C147 1.394 . S
C148 C149 1.382 . S
C149 C148 1.382 . S
C149 C150 1.392 . S
C149 N151 1.420 . S
C150 H144 0.930 1_455 S
C150 C146 1.407 1_455 S
C150 C149 1.392 . S
N151 C149 1.420 . S
N151 C152 1.244 . S
C152 N151 1.244 . S
H153 C156 0.929 . S
H154 C159 0.929 . S
H155 C161 0.930 . S
C156 H153 0.929 . S
C156 C157 1.398 . S
C156 C158 1.396 . S
C157 C156 1.398 . S
C157 C161 1.407 . S
C158 C156 1.396 . S
C158 C159 1.394 1_455 S
C159 H154 0.929 . S
C159 C158 1.394 1_655 S
C159 C160 1.382 1_655 S
C160 C159 1.382 1_455 S
C160 C161 1.392 . S
C160 N162 1.420 1_455 S
C161 H155 0.930 . S
C161 C157 1.407 . S
C161 C160 1.392 . S
N162 C160 1.420 1_655 S
N162 C163 1.244 . S
C163 N162 1.244 . S
H164 C167 0.929 . S
H165 C170 0.929 1_565 S
H166 C172 0.930 . S
C167 H164 0.929 . S
C167 C168 1.398 . S
C167 C169 1.396 . S
C168 C167 1.398 . S
C168 C172 1.407 . S
C169 C167 1.396 . S
C169 C170 1.394 . S
C170 H165 0.929 1_545 S
C170 C169 1.394 . S
C170 C171 1.382 . S
C171 C170 1.382 . S
C171 C172 1.392 . S
C171 N173 1.420 1_545 S
C172 H166 0.930 . S
C172 C168 1.407 . S
C172 C171 1.392 . S
N173 C171 1.420 1_565 S
N173 C174 1.244 . S
C174 N173 1.244 . S
H175 C178 0.929 . S
H176 C181 0.929 . S
H177 C183 0.930 . S
C178 H175 0.929 . S
C178 C179 1.398 . S
C178 C180 1.396 . S
C179 C178 1.398 . S
C179 C183 1.407 . S
C180 C178 1.396 . S
C180 C181 1.394 . S
C181 H176 0.929 . S
C181 C180 1.394 . S
C181 C182 1.382 . S
C182 C181 1.382 . S
C182 C183 1.392 . S
C182 N184 1.420 . S
C183 H177 0.930 . S
C183 C179 1.407 . S
C183 C182 1.392 . S
N184 C182 1.420 . S
N184 C185 1.244 . S
C185 N184 1.244 . S
H186 C192 0.930 . S
H187 C195 0.930 . S
H188 C196 0.930 . S
H189 C197 0.930 . S
H190 C200 0.930 . S
H191 C201 0.930 . S
C192 H186 0.930 . S
C192 C193 1.355 . S
C192 C194 1.415 . S
C193 C192 1.355 . S
C193 C195 1.419 . S
C194 C192 1.415 . S
C194 C199 1.425 . S
C194 C201 1.409 . S
C195 H187 0.930 . S
C195 C193 1.419 . S
C195 C196 1.362 . S
C196 H188 0.930 . S
C196 C195 1.362 . S
C196 C199 1.409 . S
C197 H189 0.930 . S
C197 C198 1.355 . S
C197 C199 1.415 . S
C198 C197 1.355 . S
C198 C200 1.419 . S
C199 C194 1.425 . S
C199 C196 1.409 . S
C199 C197 1.415 . S
C200 H190 0.930 . S
C200 C198 1.419 . S
C200 C201 1.362 . S
C201 H191 0.930 . S
C201 C194 1.409 . S
C201 C200 1.362 . S
H202 C208 0.930 . S
H203 C211 0.930 . S
H204 C212 0.930 . S
H205 C213 0.930 . S
H206 C216 0.930 . S
H207 C217 0.930 . S
C208 H202 0.930 . S
C208 C209 1.355 . S
C208 C210 1.415 . S
C209 C208 1.355 . S
C209 C211 1.419 . S
C210 C208 1.415 . S
C210 C215 1.425 . S
C210 C217 1.409 . S
C211 H203 0.930 . S
C211 C209 1.419 . S
C211 C212 1.362 . S
C212 H204 0.930 . S
C212 C211 1.362 . S
C212 C215 1.409 . S
C213 H205 0.930 . S
C213 C214 1.355 . S
C213 C215 1.415 . S
C214 C213 1.355 . S
C214 C216 1.419 . S
C215 C210 1.425 . S
C215 C212 1.409 . S
C215 C213 1.415 . S
C216 H206 0.930 . S
C216 C214 1.419 . S
C216 C217 1.362 . S
C217 H207 0.930 . S
C217 C210 1.409 . S
C217 C216 1.362 . S
H218 C224 0.930 . S
H219 C227 0.930 . S
H220 C228 0.930 . S
H221 C229 0.930 . S
H222 C232 0.930 . S
H223 C233 0.930 . S
C224 H218 0.930 . S
C224 C225 1.355 . S
C224 C226 1.415 . S
C225 C224 1.355 . S
C225 C227 1.419 . S
C226 C224 1.415 . S
C226 C231 1.425 . S
C226 C233 1.409 . S
C227 H219 0.930 . S
C227 C225 1.419 . S
C227 C228 1.362 . S
C228 H220 0.930 . S
C228 C227 1.362 . S
C228 C231 1.409 . S
C229 H221 0.930 . S
C229 C230 1.355 . S
C229 C231 1.415 . S
C230 C229 1.355 . S
C230 C232 1.419 . S
C231 C226 1.425 . S
C231 C228 1.409 . S
C231 C229 1.415 . S
C232 H222 0.930 . S
C232 C230 1.419 . S
C232 C233 1.362 . S
C233 H223 0.930 . S
C233 C226 1.409 . S
C233 C232 1.362 . S
H234 C240 0.930 . S
H235 C243 0.930 . S
H236 C244 0.930 . S
H237 C245 0.930 . S
H238 C248 0.930 . S
H239 C249 0.930 . S
C240 H234 0.930 . S
C240 C241 1.355 . S
C240 C242 1.415 . S
C241 C240 1.355 . S
C241 C243 1.419 . S
C242 C240 1.415 . S
C242 C247 1.425 . S
C242 C249 1.409 . S
C243 H235 0.930 . S
C243 C241 1.419 . S
C243 C244 1.362 . S
C244 H236 0.930 . S
C244 C243 1.362 . S
C244 C247 1.409 . S
C245 H237 0.930 . S
C245 C246 1.355 . S
C245 C247 1.415 . S
C246 C245 1.355 . S
C246 C248 1.419 . S
C247 C242 1.425 . S
C247 C244 1.409 . S
C247 C245 1.415 . S
C248 H238 0.930 . S
C248 C246 1.419 . S
C248 C249 1.362 . S
C249 H239 0.930 . S
C249 C242 1.409 . S
C249 C248 1.362 . S
H250 C256 0.930 . S
H251 C259 0.930 . S
H252 C260 0.930 . S
H253 C261 0.930 . S
H254 C264 0.930 . S
H255 C265 0.930 . S
C256 H250 0.930 . S
C256 C257 1.355 . S
C256 C258 1.415 . S
C257 C256 1.355 . S
C257 C259 1.419 . S
C258 C256 1.415 . S
C258 C263 1.425 . S
C258 C265 1.409 . S
C259 H251 0.930 . S
C259 C257 1.419 . S
C259 C260 1.362 . S
C260 H252 0.930 . S
C260 C259 1.362 . S
C260 C263 1.409 . S
C261 H253 0.930 . S
C261 C262 1.355 . S
C261 C263 1.415 . S
C262 C261 1.355 . S
C262 C264 1.419 . S
C263 C258 1.425 . S
C263 C260 1.409 . S
C263 C261 1.415 . S
C264 H254 0.930 . S
C264 C262 1.419 . S
C264 C265 1.362 . S
C265 H255 0.930 . S
C265 C258 1.409 . S
C265 C264 1.362 . S
H266 C272 0.930 . S
H267 C275 0.930 . S
H268 C276 0.930 . S
H269 C277 0.930 . S
H270 C280 0.930 . S
H271 C281 0.930 . S
C272 H266 0.930 . S
C272 C273 1.355 . S
C272 C274 1.415 . S
C273 C272 1.355 . S
C273 C275 1.419 . S
C274 C272 1.415 . S
C274 C279 1.425 . S
C274 C281 1.409 . S
C275 H267 0.930 . S
C275 C273 1.419 . S
C275 C276 1.362 . S
C276 H268 0.930 . S
C276 C275 1.362 . S
C276 C279 1.409 . S
C277 H269 0.930 . S
C277 C278 1.355 . S
C277 C279 1.415 . S
C278 C277 1.355 . S
C278 C280 1.419 . S
C279 C274 1.425 . S
C279 C276 1.409 . S
C279 C277 1.415 . S
C280 H270 0.930 . S
C280 C278 1.419 . S
C280 C281 1.362 . S
C281 H271 0.930 . S
C281 C274 1.409 . S
C281 C280 1.362 . S
H282 C288 0.930 . S
H283 C291 0.930 . S
H284 C292 0.930 . S
H285 C293 0.930 . S
H286 C296 0.930 . S
H287 C297 0.930 . S
C288 H282 0.930 . S
C288 C289 1.355 . S
C288 C290 1.415 . S
C289 C288 1.355 . S
C289 C291 1.419 . S
C290 C288 1.415 . S
C290 C295 1.425 . S
C290 C297 1.409 . S
C291 H283 0.930 . S
C291 C289 1.419 . S
C291 C292 1.362 . S
C292 H284 0.930 . S
C292 C291 1.362 . S
C292 C295 1.409 . S
C293 H285 0.930 . S
C293 C294 1.355 . S
C293 C295 1.415 . S
C294 C293 1.355 . S
C294 C296 1.419 . S
C295 C290 1.425 . S
C295 C292 1.409 . S
C295 C293 1.415 . S
C296 H286 0.930 . S
C296 C294 1.419 . S
C296 C297 1.362 . S
C297 H287 0.930 . S
C297 C290 1.409 . S
C297 C296 1.362 . S
H298 C304 0.930 . S
H299 C307 0.930 . S
H300 C308 0.930 . S
H301 C309 0.930 . S
H302 C312 0.930 . S
H303 C313 0.930 . S
C304 H298 0.930 . S
C304 C305 1.355 . S
C304 C306 1.415 . S
C305 C304 1.355 . S
C305 C307 1.419 . S
C306 C304 1.415 . S
C306 C311 1.425 . S
C306 C313 1.409 . S
C307 H299 0.930 . S
C307 C305 1.419 . S
C307 C308 1.362 . S
C308 H300 0.930 . S
C308 C307 1.362 . S
C308 C311 1.409 . S
C309 H301 0.930 . S
C309 C310 1.355 . S
C309 C311 1.415 . S
C310 C309 1.355 . S
C310 C312 1.419 . S
C311 C306 1.425 . S
C311 C308 1.409 . S
C311 C309 1.415 . S
C312 H302 0.930 . S
C312 C310 1.419 . S
C312 C313 1.362 . S
C313 H303 0.930 . S
C313 C306 1.409 . S
C313 C312 1.362 . S
H314 C320 0.930 . S
H315 C323 0.930 . S
H316 C324 0.930 . S
H317 C325 0.930 . S
H318 C328 0.930 1_545 S
H319 C329 0.930 . S
C320 H314 0.930 . S
C320 C321 1.355 . S
C320 C322 1.415 . S
C321 C320 1.355 . S
C321 C323 1.419 . S
C322 C320 1.415 . S
C322 C327 1.425 . S
C322 C329 1.409 . S
C323 H315 0.930 . S
C323 C321 1.419 . S
C323 C324 1.362 . S
C324 H316 0.930 . S
C324 C323 1.362 . S
C324 C327 1.409 . S
C325 H317 0.930 . S
C325 C326 1.355 . S
C325 C327 1.415 . S
C326 C325 1.355 . S
C326 C328 1.419 . S
C327 C322 1.425 . S
C327 C324 1.409 . S
C327 C325 1.415 . S
C328 H318 0.930 1_565 S
C328 C326 1.419 . S
C328 C329 1.362 . S
C329 H319 0.930 . S
C329 C322 1.409 . S
C329 C328 1.362 . S
H330 C336 0.930 . S
H331 C339 0.930 . S
H332 C340 0.930 . S
H333 C341 0.930 . S
H334 C344 0.930 . S
H335 C345 0.930 . S
C336 H330 0.930 . S
C336 C337 1.355 . S
C336 C338 1.415 . S
C337 C336 1.355 . S
C337 C339 1.419 . S
C338 C336 1.415 . S
C338 C343 1.425 . S
C338 C345 1.409 . S
C339 H331 0.930 . S
C339 C337 1.419 . S
C339 C340 1.362 . S
C340 H332 0.930 . S
C340 C339 1.362 . S
C340 C343 1.409 . S
C341 H333 0.930 . S
C341 C342 1.355 . S
C341 C343 1.415 . S
C342 C341 1.355 . S
C342 C344 1.419 . S
C343 C338 1.425 . S
C343 C340 1.409 . S
C343 C341 1.415 . S
C344 H334 0.930 . S
C344 C342 1.419 . S
C344 C345 1.362 . S
C345 H335 0.930 . S
C345 C338 1.409 . S
C345 C344 1.362 . S
H346 C352 0.930 . S
H347 C355 0.930 . S
H348 C356 0.930 . S
H349 C357 0.930 . S
H350 C360 0.930 . S
H351 C361 0.930 . S
C352 H346 0.930 . S
C352 C353 1.355 . S
C352 C354 1.415 . S
C353 C352 1.355 . S
C353 C355 1.419 . S
C354 C352 1.415 . S
C354 C359 1.425 . S
C354 C361 1.409 . S
C355 H347 0.930 . S
C355 C353 1.419 . S
C355 C356 1.362 . S
C356 H348 0.930 . S
C356 C355 1.362 . S
C356 C359 1.409 . S
C357 H349 0.930 . S
C357 C358 1.355 . S
C357 C359 1.415 . S
C358 C357 1.355 . S
C358 C360 1.419 . S
C359 C354 1.425 . S
C359 C356 1.409 . S
C359 C357 1.415 . S
C360 H350 0.930 . S
C360 C358 1.419 . S
C360 C361 1.362 . S
C361 H351 0.930 . S
C361 C354 1.409 . S
C361 C360 1.362 . S
H362 C368 0.930 . S
H363 C371 0.930 . S
H364 C372 0.930 . S
H365 C373 0.930 . S
H366 C376 0.930 . S
H367 C377 0.930 . S
C368 H362 0.930 . S
C368 C369 1.355 . S
C368 C370 1.415 . S
C369 C368 1.355 . S
C369 C371 1.419 . S
C370 C368 1.415 . S
C370 C375 1.425 . S
C370 C377 1.409 . S
C371 H363 0.930 . S
C371 C369 1.419 . S
C371 C372 1.362 . S
C372 H364 0.930 . S
C372 C371 1.362 . S
C372 C375 1.409 . S
C373 H365 0.930 . S
C373 C374 1.355 . S
C373 C375 1.415 . S
C374 C373 1.355 . S
C374 C376 1.419 . S
C375 C370 1.425 . S
C375 C372 1.409 . S
C375 C373 1.415 . S
C376 H366 0.930 . S
C376 C374 1.419 . S
C376 C377 1.362 . S
C377 H367 0.930 . S
C377 C370 1.409 . S
C377 C376 1.362 . S
H378 C384 0.930 . S
H379 C387 0.930 . S
H380 C388 0.930 . S
H381 C389 0.930 . S
H382 C392 0.930 . S
H383 C393 0.930 1_554 S
C384 H378 0.930 . S
C384 C385 1.355 . S
C384 C386 1.415 . S
C385 C384 1.355 . S
C385 C387 1.419 1_455 S
C386 C384 1.415 . S
C386 C391 1.415 1_454 S
C386 C393 1.409 1_554 S
C387 H379 0.930 . S
C387 C385 1.419 1_655 S
C387 C388 1.362 . S
C388 H380 0.930 . S
C388 C387 1.362 . S
C388 C391 1.393 1_554 S
C389 H381 0.930 . S
C389 C390 1.355 1_655 S
C389 C391 1.441 . S
C390 C389 1.355 1_455 S
C390 C392 1.419 . S
C391 C386 1.415 1_656 S
C391 C388 1.393 1_556 S
C391 C389 1.441 . S
C392 H382 0.930 . S
C392 C390 1.419 . S
C392 C393 1.362 . S
C393 H383 0.930 1_556 S
C393 C386 1.409 1_556 S
C393 C392 1.362 . S
H394 C400 0.930 . S
H395 C403 0.930 . S
H396 C404 0.930 . S
H397 C405 0.930 . S
H398 C408 0.930 . S
H399 C409 0.930 . S
C400 H394 0.930 . S
C400 C401 1.355 . S
C400 C402 1.415 . S
C401 C400 1.355 . S
C401 C403 1.419 . S
C402 C400 1.415 . S
C402 C407 1.425 . S
C402 C409 1.409 . S
C403 H395 0.930 . S
C403 C401 1.419 . S
C403 C404 1.362 . S
C404 H396 0.930 . S
C404 C403 1.362 . S
C404 C407 1.409 . S
C405 H397 0.930 . S
C405 C406 1.355 . S
C405 C407 1.415 . S
C406 C405 1.355 . S
C406 C408 1.419 . S
C407 C402 1.425 . S
C407 C404 1.409 . S
C407 C405 1.415 . S
C408 H398 0.930 . S
C408 C406 1.419 . S
C408 C409 1.362 . S
C409 H399 0.930 . S
C409 C402 1.409 . S
C409 C408 1.362 . S
H410 C416 0.930 . S
H411 C419 0.930 . S
H412 C420 0.930 . S
H413 C421 0.930 . S
H414 C424 0.930 . S
H415 C425 0.930 . S
C416 H410 0.930 . S
C416 C417 1.355 . S
C416 C418 1.415 . S
C417 C416 1.355 . S
C417 C419 1.419 . S
C418 C416 1.415 . S
C418 C423 1.425 . S
C418 C425 1.409 . S
C419 H411 0.930 . S
C419 C417 1.419 . S
C419 C420 1.362 . S
C420 H412 0.930 . S
C420 C419 1.362 . S
C420 C423 1.409 . S
C421 H413 0.930 . S
C421 C422 1.355 . S
C421 C423 1.415 . S
C422 C421 1.355 . S
C422 C424 1.419 . S
C423 C418 1.425 . S
C423 C420 1.409 . S
C423 C421 1.415 . S
C424 H414 0.930 . S
C424 C422 1.419 . S
C424 C425 1.362 . S
C425 H415 0.930 . S
C425 C418 1.409 . S
C425 C424 1.362 . S
H426 C432 0.930 . S
H427 C435 0.930 . S
H428 C436 0.930 . S
H429 C437 0.930 . S
H430 C440 0.930 . S
H431 C441 0.930 . S
C432 H426 0.930 . S
C432 C433 1.355 . S
C432 C434 1.415 . S
C433 C432 1.355 . S
C433 C435 1.419 . S
C434 C432 1.415 . S
C434 C439 1.425 . S
C434 C441 1.409 . S
C435 H427 0.930 . S
C435 C433 1.419 . S
C435 C436 1.362 . S
C436 H428 0.930 . S
C436 C435 1.362 . S
C436 C439 1.409 . S
C437 H429 0.930 . S
C437 C438 1.355 . S
C437 C439 1.415 . S
C438 C437 1.355 . S
C438 C440 1.419 . S
C439 C434 1.425 . S
C439 C436 1.409 . S
C439 C437 1.415 . S
C440 H430 0.930 . S
C440 C438 1.419 . S
C440 C441 1.362 . S
C441 H431 0.930 . S
C441 C434 1.409 . S
C441 C440 1.362 . S
H442 C448 0.930 . S
H443 C451 0.930 . S
H444 C452 0.930 . S
H445 C453 0.930 . S
H446 C456 0.930 . S
H447 C457 0.928 1_556 S
C448 H442 0.930 . S
C448 C449 1.355 . S
C448 C450 1.415 . S
C449 C448 1.355 . S
C449 C451 1.419 . S
C450 C448 1.415 . S
C450 C455 1.425 1_556 S
C450 C457 1.409 1_556 S
C451 H443 0.930 . S
C451 C449 1.419 . S
C451 C452 1.362 . S
C452 H444 0.930 . S
C452 C451 1.362 . S
C452 C455 1.409 1_556 S
C453 H445 0.930 . S
C453 C454 1.355 . S
C453 C455 1.415 . S
C454 C453 1.355 . S
C454 C456 1.419 . S
C455 C450 1.425 1_554 S
C455 C452 1.409 1_554 S
C455 C453 1.415 . S
C456 H446 0.930 . S
C456 C454 1.419 . S
C456 C457 1.362 . S
C457 H447 0.928 1_554 S
C457 C450 1.409 1_554 S
C457 C456 1.362 . S
H458 C464 0.930 . S
H459 C467 0.930 . S
H460 C468 0.930 . S
H461 C469 0.930 . S
H462 C472 0.930 . S
H463 C473 0.930 . S
C464 H458 0.930 . S
C464 C465 1.355 . S
C464 C466 1.415 . S
C465 C464 1.355 . S
C465 C467 1.419 1_455 S
C466 C464 1.415 . S
C466 C471 1.425 1_455 S
C466 C473 1.409 . S
C467 H459 0.930 . S
C467 C465 1.419 1_655 S
C467 C468 1.362 . S
C468 H460 0.930 . S
C468 C467 1.362 . S
C468 C471 1.409 . S
C469 H461 0.930 . S
C469 C470 1.355 1_655 S
C469 C471 1.415 . S
C470 C469 1.355 1_455 S
C470 C472 1.419 . S
C471 C466 1.425 1_655 S
C471 C468 1.409 . S
C471 C469 1.415 . S
C472 H462 0.930 . S
C472 C470 1.419 . S
C472 C473 1.362 . S
C473 H463 0.930 . S
C473 C466 1.409 . S
C473 C472 1.362 . S
C193 C19 1.962 . S
C198 C185 1.921 . S
C209 C46 1.288 . S
C214 C163 1.326 . S
C225 C95 0.492 . S
C230 C174 0.535 . S
C241 C10 1.867 . S
C246 C179 1.847 . S
C262 C157 1.196 . S
C257 C55 1.216 . S
C278 C168 0.527 . S
C273 C86 0.505 . S
C289 C59 3.164 . S
C294 C141 3.101 . S
C305 C90 1.893 . S
C310 C146 1.882 . S
C321 C15 1.181 . S
C326 C124 1.194 1_565 S
C342 C135 2.941 . S
C337 C50 2.975 . S
C358 C152 1.923 . S
C353 C99 1.943 . S
C369 C6 1.285 . S
C374 C130 1.295 . S
C390 C147 1.475 . S
C385 C9 1.406 . S
C401 C58 1.523 . S
C406 C125 1.527 . S
C417 C98 1.689 . S
C422 C136 1.770 . S
C438 C169 1.189 . S
C433 C49 1.200 . S
C454 C180 1.454 . S
C449 C89 1.390 . S
C465 C18 1.496 . S
C470 C158 1.511 . S
