# Generated by pormake.
# Topology pyr, (3,6)-cn, num edge types: 1
# Building blocks:
#     Node 0, Type 0, BuildingBlock: VETTIZ_charged_linker_0, # of connection points: 3
#     Node 1, Type 0, BuildingBlock: VETTIZ_charged_linker_0, # of connection points: 3
#     Node 2, Type 0, BuildingBlock: VETTIZ_charged_linker_0, # of connection points: 3
#     Node 3, Type 0, BuildingBlock: VETTIZ_charged_linker_0, # of connection points: 3
#     Node 4, Type 0, BuildingBlock: VETTIZ_charged_linker_0, # of connection points: 3
#     Node 5, Type 0, BuildingBlock: VETTIZ_charged_linker_0, # of connection points: 3
#     Node 6, Type 0, BuildingBlock: VETTIZ_charged_linker_0, # of connection points: 3
#     Node 7, Type 0, BuildingBlock: VETTIZ_charged_linker_0, # of connection points: 3
#     Node 8, Type 1, BuildingBlock: PAMTOO_clean_sbu_0, # of connection points: 6
#     Node 9, Type 1, BuildingBlock: PAMTOO_clean_sbu_0, # of connection points: 6
#     Node 10, Type 1, BuildingBlock: PAMTOO_clean_sbu_0, # of connection points: 6
#     Node 11, Type 1, BuildingBlock: PAMTOO_clean_sbu_0, # of connection points: 6
#     Edge 12, Type (0, 1), BuildingBlock: EZIPEK_clean_linker_0, # of connection points: 2
#     Edge 13, Type (0, 1), BuildingBlock: EZIPEK_clean_linker_0, # of connection points: 2
#     Edge 14, Type (0, 1), BuildingBlock: EZIPEK_clean_linker_0, # of connection points: 2
#     Edge 15, Type (0, 1), BuildingBlock: EZIPEK_clean_linker_0, # of connection points: 2
#     Edge 16, Type (0, 1), BuildingBlock: EZIPEK_clean_linker_0, # of connection points: 2
#     Edge 17, Type (0, 1), BuildingBlock: EZIPEK_clean_linker_0, # of connection points: 2
#     Edge 18, Type (0, 1), BuildingBlock: EZIPEK_clean_linker_0, # of connection points: 2
#     Edge 19, Type (0, 1), BuildingBlock: EZIPEK_clean_linker_0, # of connection points: 2
#     Edge 20, Type (0, 1), BuildingBlock: EZIPEK_clean_linker_0, # of connection points: 2
#     Edge 21, Type (0, 1), BuildingBlock: EZIPEK_clean_linker_0, # of connection points: 2
#     Edge 22, Type (0, 1), BuildingBlock: EZIPEK_clean_linker_0, # of connection points: 2
#     Edge 23, Type (0, 1), BuildingBlock: EZIPEK_clean_linker_0, # of connection points: 2
#     Edge 24, Type (0, 1), BuildingBlock: EZIPEK_clean_linker_0, # of connection points: 2
#     Edge 25, Type (0, 1), BuildingBlock: EZIPEK_clean_linker_0, # of connection points: 2
#     Edge 26, Type (0, 1), BuildingBlock: EZIPEK_clean_linker_0, # of connection points: 2
#     Edge 27, Type (0, 1), BuildingBlock: EZIPEK_clean_linker_0, # of connection points: 2
#     Edge 28, Type (0, 1), BuildingBlock: EZIPEK_clean_linker_0, # of connection points: 2
#     Edge 29, Type (0, 1), BuildingBlock: EZIPEK_clean_linker_0, # of connection points: 2
#     Edge 30, Type (0, 1), BuildingBlock: EZIPEK_clean_linker_0, # of connection points: 2
#     Edge 31, Type (0, 1), BuildingBlock: EZIPEK_clean_linker_0, # of connection points: 2
#     Edge 32, Type (0, 1), BuildingBlock: EZIPEK_clean_linker_0, # of connection points: 2
#     Edge 33, Type (0, 1), BuildingBlock: EZIPEK_clean_linker_0, # of connection points: 2
#     Edge 34, Type (0, 1), BuildingBlock: EZIPEK_clean_linker_0, # of connection points: 2
#     Edge 35, Type (0, 1), BuildingBlock: EZIPEK_clean_linker_0, # of connection points: 2
# Relax obj value: 0.129
# Max RMSD: 0.174
# Mean RMSD: 0.073
data_MOF--net-pyr--node1-PAMTOO_clean_sbu_0--node2-VETTIZ_charged_linker_0--edge1-EZIPEK_clean_linker_0
_symmetry_space_group_name_H-M    P1
_symmetry_Int_Tables_number       1
_symmetry_cell_setting            triclinic
loop_
_symmetry_equiv_pos_as_xyz
'x, y, z'
_cell_length_a     34.825862
_cell_length_b     36.800725
_cell_length_c     36.942459
_cell_angle_alpha  90.044212
_cell_angle_beta   90.079142
_cell_angle_gamma 103.43121
loop_
_atom_site_label
_atom_site_type_symbol
_atom_site_fract_x
_atom_site_fract_y
_atom_site_fract_z
_atom_type_partial_charge
C0 C 0.33585 0.25021 0.35868 0.0
C1 C 0.3087 0.26638 0.37698 0.0
C2 C 0.30127 0.30014 0.36435 0.0
C3 C 0.33821 0.29464 0.31006 0.0
C4 C 0.35052 0.26499 0.32522 0.0
C5 C 0.37576 0.24879 0.29967 0.0
H6 H 0.43322 0.22728 0.12845 0.0
C7 C 0.35019 0.29735 0.27174 0.0
C8 C 0.37363 0.27165 0.26578 0.0
H9 H 0.46083 0.17285 0.22534 0.0
H10 H 0.43027 0.21263 0.26205 0.0
H11 H 0.44621 0.31583 0.16268 0.0
H12 H 0.34965 0.22044 0.14754 0.0
H13 H 0.32886 0.25922 0.14423 0.0
H14 H 0.36572 0.25338 0.11186 0.0
H15 H 0.42721 0.29794 0.11934 0.0
H16 H 0.40587 0.33083 0.14379 0.0
C17 C 0.41819 0.25641 0.31538 0.0
C18 C 0.35601 0.20682 0.29403 0.0
C19 C 0.27072 0.35644 0.18454 0.0
C20 C 0.26758 0.35558 0.14678 0.0
C21 C 0.29573 0.34295 0.126 0.0
C22 C 0.32537 0.32896 0.14308 0.0
C23 C 0.32621 0.32715 0.18114 0.0
C24 C 0.2999 0.34184 0.20118 0.0
C25 C 0.30375 0.33625 0.24116 0.0
C26 C 0.33619 0.31485 0.24188 0.0
C27 C 0.34884 0.30915 0.20664 0.0
C28 C 0.31666 0.37504 0.25965 0.0
C29 C 0.26367 0.31234 0.25477 0.0
C30 C 0.43336 0.22469 0.15766 0.0
C31 C 0.44937 0.19712 0.17423 0.0
C32 C 0.44867 0.19399 0.21219 0.0
C33 C 0.43074 0.21695 0.23335 0.0
C34 C 0.41227 0.24249 0.21629 0.0
C35 C 0.41439 0.2466 0.17911 0.0
C36 C 0.3905 0.27306 0.16556 0.0
C37 C 0.37484 0.2851 0.20089 0.0
C38 C 0.38742 0.26677 0.23039 0.0
C39 C 0.4187 0.3062 0.14658 0.0
C40 C 0.35706 0.25074 0.14084 0.0
H41 H 0.30783 0.33905 0.32116 0.0
H42 H 0.34242 0.22459 0.36852 0.0
H43 H 0.3235 0.2027 0.29088 0.0
H44 H 0.36591 0.19485 0.26937 0.0
H45 H 0.3615 0.18992 0.31754 0.0
H46 H 0.42441 0.28129 0.33348 0.0
H47 H 0.42279 0.23229 0.33147 0.0
H48 H 0.44105 0.26309 0.29405 0.0
H49 H 0.24936 0.36635 0.20078 0.0
H50 H 0.2937 0.34248 0.09674 0.0
H51 H 0.34543 0.31865 0.12607 0.0
H52 H 0.32958 0.3974 0.23998 0.0
H53 H 0.29127 0.38322 0.27284 0.0
H54 H 0.34022 0.37575 0.28004 0.0
H55 H 0.25362 0.28728 0.23729 0.0
H56 H 0.26458 0.30182 0.28248 0.0
H57 H 0.24054 0.32864 0.25414 0.0
H58 H 0.28083 0.31316 0.37862 0.0
C59 C 0.31633 0.31463 0.33087 0.0
C60 C 0.10924 0.84955 0.66945 0.0
C61 C 0.09261 0.8776 0.6843 0.0
C62 C 0.09505 0.88391 0.72193 0.0
C63 C 0.13296 0.83679 0.72881 0.0
C64 C 0.13041 0.83054 0.69189 0.0
C65 C 0.15685 0.80596 0.67939 0.0
H66 H 0.30302 0.71948 0.7195 0.0
C67 C 0.15973 0.81489 0.74397 0.0
C68 C 0.17426 0.79715 0.71511 0.0
H69 H 0.25769 0.73759 0.61401 0.0
H70 H 0.20645 0.76325 0.64168 0.0
H71 H 0.29919 0.7977 0.75303 0.0
H72 H 0.21886 0.6898 0.75734 0.0
H73 H 0.21317 0.71152 0.79869 0.0
H74 H 0.26037 0.70201 0.78734 0.0
H75 H 0.30932 0.75816 0.77639 0.0
H76 H 0.28361 0.78914 0.79814 0.0
C77 C 0.18861 0.82924 0.65381 0.0
C78 C 0.13091 0.77052 0.66178 0.0
C79 C 0.189 0.8196 0.87896 0.0
C80 C 0.21344 0.80316 0.90139 0.0
C81 C 0.23351 0.77826 0.8844 0.0
C82 C 0.2294 0.77018 0.84738 0.0
C83 C 0.20586 0.78771 0.82601 0.0
C84 C 0.18527 0.81113 0.84199 0.0
C85 C 0.16205 0.82781 0.8148 0.0
C86 C 0.17216 0.81025 0.77994 0.0
C87 C 0.19855 0.78748 0.78665 0.0
C88 C 0.17784 0.87089 0.81497 0.0
C89 C 0.11774 0.81453 0.8243 0.0
C90 C 0.28174 0.72877 0.70257 0.0
C91 C 0.28426 0.72718 0.6648 0.0
C92 C 0.25616 0.73906 0.64324 0.0
C93 C 0.22677 0.75407 0.65935 0.0
C94 C 0.22594 0.75752 0.69727 0.0
C95 C 0.25253 0.74407 0.71821 0.0
C96 C 0.24759 0.75021 0.75796 0.0
C97 C 0.21475 0.77102 0.75741 0.0
C98 C 0.20232 0.77542 0.72184 0.0
C99 C 0.28689 0.7749 0.77248 0.0
C100 C 0.23458 0.71154 0.77656 0.0
H101 H 0.11581 0.86967 0.77268 0.0
H102 H 0.10847 0.84469 0.64049 0.0
H103 H 0.10404 0.75962 0.67833 0.0
H104 H 0.14611 0.74739 0.65985 0.0
H105 H 0.12115 0.7767 0.63428 0.0
H106 H 0.19425 0.85963 0.65995 0.0
H107 H 0.17927 0.82542 0.62502 0.0
H108 H 0.21781 0.82266 0.65692 0.0
H109 H 0.17459 0.84063 0.88872 0.0
H110 H 0.25445 0.76607 0.89852 0.0
H111 H 0.24616 0.75168 0.83655 0.0
H112 H 0.20922 0.87895 0.82386 0.0
H113 H 0.16051 0.88457 0.83361 0.0
H114 H 0.17796 0.88332 0.78771 0.0
H115 H 0.11034 0.78428 0.83122 0.0
H116 H 0.09806 0.81744 0.80161 0.0
H117 H 0.11017 0.83005 0.84803 0.0
H118 H 0.08279 0.90564 0.73385 0.0
C119 C 0.11453 0.86323 0.74433 0.0
C120 C 0.6096 0.25403 0.92002 0.0
C121 C 0.5762 0.2287 0.90654 0.0
C122 C 0.5583 0.23847 0.87471 0.0
C123 C 0.60735 0.29811 0.87078 0.0
C124 C 0.62453 0.28799 0.90194 0.0
C125 C 0.66016 0.31699 0.91342 0.0
H126 H 0.79473 0.47925 0.88885 0.0
C127 C 0.63117 0.33583 0.85897 0.0
C128 C 0.66217 0.34638 0.88425 0.0
H129 H 0.78756 0.39834 0.97462 0.0
H130 H 0.72799 0.36089 0.94888 0.0
H131 H 0.69903 0.47686 0.88864 0.0
H132 H 0.76847 0.41936 0.82295 0.0
H133 H 0.7352 0.43539 0.79467 0.0
H134 H 0.77224 0.46872 0.81923 0.0
H135 H 0.7329 0.50054 0.85501 0.0
H136 H 0.68289 0.47714 0.84357 0.0
C137 C 0.65154 0.33173 0.95125 0.0
C138 C 0.69627 0.29894 0.91205 0.0
C139 C 0.59454 0.40534 0.7469 0.0
C140 C 0.61233 0.44002 0.73048 0.0
C141 C 0.64742 0.46132 0.74594 0.0
C142 C 0.66434 0.44902 0.77693 0.0
C143 C 0.64632 0.41468 0.79321 0.0
C144 C 0.61207 0.39317 0.77808 0.0
C145 C 0.59781 0.35695 0.79899 0.0
C146 C 0.62841 0.36069 0.82943 0.0
C147 C 0.65693 0.39486 0.82576 0.0
C148 C 0.55618 0.3558 0.81386 0.0
C149 C 0.59919 0.32403 0.77352 0.0
C150 C 0.77995 0.45348 0.90193 0.0
C151 C 0.79582 0.44154 0.93387 0.0
C152 C 0.77586 0.40801 0.95017 0.0
C153 C 0.74121 0.38626 0.93501 0.0
C154 C 0.72578 0.39793 0.90294 0.0
C155 C 0.74474 0.43126 0.88706 0.0
C156 C 0.723 0.43914 0.85344 0.0
C157 C 0.68844 0.40478 0.85157 0.0
C158 C 0.69062 0.3808 0.88064 0.0
C159 C 0.70881 0.47543 0.86012 0.0
C160 C 0.75105 0.44107 0.8207 0.0
H161 H 0.55861 0.27883 0.8329 0.0
H162 H 0.62401 0.24744 0.94436 0.0
H163 H 0.69307 0.27799 0.88984 0.0
H164 H 0.72427 0.3192 0.906 0.0
H165 H 0.69954 0.28436 0.93778 0.0
H166 H 0.61952 0.33057 0.95468 0.0
H167 H 0.6604 0.31486 0.9733 0.0
H168 H 0.66611 0.3615 0.95545 0.0
H169 H 0.56766 0.38815 0.73566 0.0
H170 H 0.66175 0.48789 0.734 0.0
H171 H 0.69099 0.46687 0.7871 0.0
H172 H 0.55543 0.38284 0.82699 0.0
H173 H 0.53395 0.35076 0.79171 0.0
H174 H 0.54695 0.33408 0.83467 0.0
H175 H 0.62748 0.32972 0.75826 0.0
H176 H 0.59772 0.29772 0.78827 0.0
H177 H 0.57465 0.31958 0.75355 0.0
H178 H 0.53238 0.21945 0.86378 0.0
C179 C 0.5736 0.27296 0.85684 0.0
C180 C 0.95497 0.80765 0.38901 0.0
C181 C 0.94298 0.82529 0.41985 0.0
C182 C 0.90848 0.80711 0.43805 0.0
C183 C 0.89829 0.75485 0.39603 0.0
C184 C 0.93197 0.77234 0.3775 0.0
C185 C 0.93922 0.74866 0.3455 0.0
H186 H 0.87769 0.58729 0.24473 0.0
C187 C 0.88088 0.71858 0.37811 0.0
C188 C 0.90442 0.71438 0.34814 0.0
H189 H 0.98082 0.67595 0.22613 0.0
H190 H 0.96473 0.70967 0.27854 0.0
H191 H 0.88797 0.58557 0.33329 0.0
H192 H 0.81812 0.6413 0.26562 0.0
H193 H 0.78924 0.62019 0.30237 0.0
H194 H 0.80725 0.59135 0.27013 0.0
H195 H 0.84655 0.56029 0.30747 0.0
H196 H 0.84016 0.57899 0.35155 0.0
C197 C 0.97918 0.73816 0.35136 0.0
C198 C 0.93746 0.77102 0.31046 0.0
C199 C 0.75625 0.63793 0.43314 0.0
C200 C 0.7311 0.60365 0.42371 0.0
C201 C 0.74033 0.58453 0.39297 0.0
C202 C 0.77418 0.59954 0.37196 0.0
C203 C 0.79906 0.63424 0.3816 0.0
C204 C 0.78961 0.65263 0.41182 0.0
C205 C 0.81816 0.68942 0.41795 0.0
C206 C 0.84678 0.69031 0.38677 0.0
C207 C 0.8358 0.65798 0.36534 0.0
C208 C 0.8383 0.68757 0.4552 0.0
C209 C 0.795 0.72063 0.41453 0.0
C210 C 0.89673 0.61398 0.25197 0.0
C211 C 0.9306 0.62893 0.23108 0.0
C212 C 0.95463 0.66378 0.24164 0.0
C213 C 0.94519 0.68334 0.27213 0.0
C214 C 0.91126 0.66808 0.29279 0.0
C215 C 0.88777 0.63377 0.28251 0.0
C216 C 0.85309 0.62134 0.30766 0.0
C217 C 0.85931 0.65354 0.33463 0.0
C218 C 0.89356 0.68133 0.32595 0.0
C219 C 0.85672 0.58447 0.32593 0.0
C220 C 0.81472 0.61804 0.28547 0.0
H221 H 0.86057 0.76046 0.44205 0.0
H222 H 0.98149 0.82091 0.37449 0.0
H223 H 0.91155 0.7839 0.31097 0.0
H224 H 0.93393 0.75339 0.28599 0.0
H225 H 0.96446 0.79383 0.30748 0.0
H226 H 0.98188 0.72916 0.3798 0.0
H227 H 1.00416 0.76242 0.3459 0.0
H228 H 0.98258 0.71452 0.33429 0.0
H229 H 0.74962 0.65339 0.45636 0.0
H230 H 0.72113 0.55813 0.3851 0.0
H231 H 0.77954 0.58372 0.34884 0.0
H232 H 0.84212 0.65889 0.46074 0.0
H233 H 0.82037 0.69521 0.47756 0.0
H234 H 0.86851 0.70544 0.45667 0.0
H235 H 0.76935 0.71222 0.39586 0.0
H236 H 0.81283 0.74666 0.40256 0.0
H237 H 0.7834 0.72711 0.44116 0.0
H238 H 0.89873 0.81991 0.4617 0.0
C239 C 0.8863 0.77237 0.42647 0.0
C240 C 0.76724 0.75022 0.95779 0.0
C241 C 0.79807 0.73448 0.9459 0.0
C242 C 0.79926 0.72342 0.90956 0.0
C243 C 0.74222 0.74814 0.89632 0.0
C244 C 0.73931 0.75635 0.93257 0.0
C245 C 0.70495 0.77362 0.93997 0.0
H246 H 0.57266 0.86462 0.87503 0.0
C247 C 0.71161 0.76174 0.87645 0.0
C248 C 0.68872 0.77559 0.90192 0.0
H249 H 0.59875 0.84506 0.98652 0.0
H250 H 0.63932 0.80316 0.96773 0.0
H251 H 0.56797 0.77365 0.84637 0.0
H252 H 0.64712 0.88098 0.84741 0.0
H253 H 0.66673 0.85797 0.81312 0.0
H254 H 0.61749 0.86519 0.8084 0.0
H255 H 0.5636 0.81329 0.81973 0.0
H256 H 0.5912 0.7806 0.80369 0.0
C257 C 0.67526 0.74684 0.96465 0.0
C258 C 0.72152 0.81292 0.95637 0.0
C259 C 0.73146 0.78942 0.74311 0.0
C260 C 0.71459 0.81208 0.72049 0.0
C261 C 0.67779 0.81911 0.72944 0.0
C262 C 0.66036 0.80757 0.76291 0.0
C263 C 0.68057 0.78974 0.78768 0.0
C264 C 0.71435 0.77905 0.77695 0.0
C265 C 0.73311 0.76242 0.80757 0.0
C266 C 0.7063 0.76706 0.83887 0.0
C267 C 0.67597 0.78356 0.82708 0.0
C268 C 0.73068 0.72073 0.79886 0.0
C269 C 0.7758 0.78631 0.8127 0.0
C270 C 0.58639 0.85042 0.89522 0.0
C271 C 0.58308 0.858 0.93212 0.0
C272 C 0.60131 0.83948 0.95793 0.0
C273 C 0.62505 0.81555 0.94694 0.0
C274 C 0.63104 0.81074 0.9098 0.0
C275 C 0.61067 0.82687 0.88465 0.0
C276 C 0.62141 0.81948 0.84641 0.0
C277 C 0.65211 0.79678 0.85277 0.0
C278 C 0.65797 0.79219 0.88996 0.0
C279 C 0.58415 0.79569 0.82774 0.0
C280 C 0.63889 0.85763 0.82764 0.0
H281 H 0.774 0.72169 0.8572 0.0
H282 H 0.76562 0.75841 0.98581 0.0
H283 H 0.74802 0.82789 0.94112 0.0
H284 H 0.70066 0.83123 0.95518 0.0
H285 H 0.7304 0.81085 0.98505 0.0
H286 H 0.67726 0.71732 0.96098 0.0
H287 H 0.68092 0.754 0.99369 0.0
H288 H 0.64421 0.74673 0.9581 0.0
H289 H 0.75987 0.78398 0.73642 0.0
H290 H 0.66447 0.8365 0.71208 0.0
H291 H 0.63353 0.81563 0.76935 0.0
H292 H 0.70702 0.70946 0.77881 0.0
H293 H 0.75889 0.7167 0.78744 0.0
H294 H 0.7229 0.70268 0.82301 0.0
H295 H 0.77609 0.8166 0.8122 0.0
H296 H 0.78943 0.78158 0.83858 0.0
H297 H 0.79546 0.78079 0.79075 0.0
H298 H 0.82272 0.71091 0.90022 0.0
C299 C 0.77119 0.72983 0.88475 0.0
C300 C 0.9254 0.22036 0.43423 0.0
C301 C 0.94194 0.19396 0.41621 0.0
C302 C 0.94071 0.19226 0.37817 0.0
C303 C 0.90266 0.23961 0.37681 0.0
C304 C 0.90537 0.24244 0.41408 0.0
C305 C 0.88093 0.2677 0.42917 0.0
H306 H 0.73484 0.35701 0.40096 0.0
C307 C 0.87648 0.26336 0.36423 0.0
C308 C 0.86394 0.2803 0.39471 0.0
H309 H 0.78597 0.33616 0.50294 0.0
H310 H 0.83701 0.31332 0.47135 0.0
H311 H 0.73997 0.27946 0.36291 0.0
H312 H 0.81363 0.39059 0.36 0.0
H313 H 0.82252 0.37004 0.31876 0.0
H314 H 0.77362 0.37627 0.32871 0.0
H315 H 0.72535 0.32014 0.34628 0.0
H316 H 0.74962 0.29369 0.31757 0.0
C317 C 0.84859 0.24374 0.45368 0.0
C318 C 0.90877 0.30071 0.44881 0.0
C319 C 0.82377 0.24973 0.23593 0.0
C320 C 0.7953 0.26502 0.2186 0.0
C321 C 0.78513 0.29677 0.23332 0.0
C322 C 0.7994 0.31012 0.26744 0.0
C323 C 0.82335 0.29103 0.28687 0.0
C324 C 0.83761 0.26334 0.27007 0.0
C325 C 0.86426 0.24751 0.29449 0.0
C326 C 0.86134 0.26856 0.32942 0.0
C327 C 0.83616 0.29296 0.32503 0.0
C328 C 0.84649 0.20494 0.29846 0.0
C329 C 0.90653 0.25772 0.2785 0.0
C330 C 0.7574 0.34781 0.41627 0.0
C331 C 0.75637 0.34745 0.45411 0.0
C332 C 0.78628 0.33609 0.47362 0.0
C333 C 0.81552 0.32269 0.45524 0.0
C334 C 0.81431 0.32036 0.41717 0.0
C335 C 0.78641 0.33412 0.39836 0.0
C336 C 0.789 0.32926 0.35816 0.0
C337 C 0.82236 0.30913 0.35585 0.0
C338 C 0.83663 0.30336 0.3905 0.0
C339 C 0.74901 0.30446 0.34525 0.0
C340 C 0.80003 0.36843 0.34028 0.0
H341 H 0.92088 0.21212 0.3295 0.0
H342 H 0.92575 0.22189 0.46352 0.0
H343 H 0.93676 0.31028 0.43347 0.0
H344 H 0.89613 0.32551 0.45101 0.0
H345 H 0.91645 0.29242 0.47631 0.0
H346 H 0.83853 0.21486 0.44283 0.0
H347 H 0.85989 0.24155 0.48154 0.0
H348 H 0.82149 0.25425 0.45519 0.0
H349 H 0.83227 0.22559 0.22462 0.0
H350 H 0.76352 0.30904 0.2199 0.0
H351 H 0.78896 0.33296 0.27852 0.0
H352 H 0.8138 0.19916 0.30111 0.0
H353 H 0.85334 0.18943 0.27443 0.0
H354 H 0.85663 0.19269 0.32284 0.0
H355 H 0.91152 0.2838 0.26217 0.0
H356 H 0.92959 0.2637 0.29975 0.0
H357 H 0.91192 0.2352 0.26055 0.0
H358 H 0.9533 0.17207 0.3639 0.0
C359 C 0.92168 0.21536 0.35835 0.0
C360 C 0.4369 0.65812 0.33757 0.0
C361 C 0.41723 0.62531 0.35633 0.0
C362 C 0.37959 0.60661 0.3434 0.0
C363 C 0.3829 0.65084 0.29362 0.0
C364 C 0.41889 0.67074 0.30687 0.0
C365 C 0.43386 0.70636 0.2852 0.0
H366 H 0.40508 0.81656 0.14111 0.0
C367 C 0.37241 0.67032 0.2608 0.0
C368 C 0.40215 0.70347 0.25584 0.0
H369 H 0.49989 0.84328 0.21869 0.0
H370 H 0.47435 0.78372 0.2496 0.0
H371 H 0.33752 0.78619 0.19637 0.0
H372 H 0.40965 0.73399 0.12969 0.0
H373 H 0.3639 0.7018 0.1308 0.0
H374 H 0.36721 0.74782 0.11217 0.0
H375 H 0.33091 0.78059 0.14836 0.0
H376 H 0.30578 0.7455 0.17969 0.0
C377 C 0.43513 0.73998 0.31052 0.0
C378 C 0.4744 0.70564 0.26889 0.0
C379 C 0.24921 0.61155 0.18453 0.0
C380 C 0.23386 0.62324 0.15217 0.0
C381 C 0.25417 0.65657 0.13577 0.0
C382 C 0.2887 0.67828 0.15108 0.0
C383 C 0.30371 0.66682 0.18343 0.0
C384 C 0.28438 0.63377 0.19958 0.0
C385 C 0.3054 0.62654 0.23392 0.0
C386 C 0.3405 0.66053 0.23535 0.0
C387 C 0.3388 0.68398 0.20574 0.0
C388 C 0.27699 0.62602 0.26621 0.0
C389 C 0.31888 0.58971 0.22876 0.0
C390 C 0.42034 0.80969 0.16481 0.0
C391 C 0.45437 0.83472 0.17745 0.0
C392 C 0.47346 0.8245 0.2084 0.0
C393 C 0.45846 0.79 0.2264 0.0
C394 C 0.42378 0.76536 0.21352 0.0
C395 C 0.40579 0.77574 0.18296 0.0
C396 C 0.36975 0.74703 0.17207 0.0
C397 C 0.36787 0.71785 0.20139 0.0
C398 C 0.39955 0.72804 0.22601 0.0
C399 C 0.33399 0.76555 0.17386 0.0
C400 C 0.37761 0.7319 0.13416 0.0
H401 H 0.33436 0.60263 0.30399 0.0
H402 H 0.4655 0.67375 0.34681 0.0
H403 H 0.47318 0.67838 0.25536 0.0
H404 H 0.48386 0.72741 0.24814 0.0
H405 H 0.49744 0.70952 0.2903 0.0
H406 H 0.40762 0.73562 0.32686 0.0
H407 H 0.4605 0.74375 0.32954 0.0
H408 H 0.43706 0.76627 0.29561 0.0
H409 H 0.234 0.58609 0.19788 0.0
H410 H 0.24284 0.66614 0.11109 0.0
H411 H 0.30205 0.70351 0.1371 0.0
H412 H 0.25757 0.6457 0.26164 0.0
H413 H 0.25768 0.59772 0.27022 0.0
H414 H 0.29272 0.63553 0.29174 0.0
H415 H 0.33276 0.58915 0.20173 0.0
H416 H 0.34132 0.58609 0.24863 0.0
H417 H 0.29336 0.56521 0.23045 0.0
H418 H 0.36325 0.5819 0.35727 0.0
C419 C 0.36275 0.61875 0.3123 0.0
C420 C 0.07547 0.25022 0.69694 0.0
C421 C 0.08805 0.23197 0.66682 0.0
C422 C 0.12275 0.24981 0.64878 0.0
C423 C 0.13226 0.30286 0.68981 0.0
C424 C 0.09827 0.28572 0.70808 0.0
C425 C 0.09035 0.31006 0.73928 0.0
H426 H 0.15662 0.46658 0.84514 0.0
C427 C 0.14962 0.33924 0.70754 0.0
C428 C 0.12567 0.34389 0.73703 0.0
H429 H 0.0458 0.38518 0.85492 0.0
H430 H 0.06226 0.35164 0.80281 0.0
H431 H 0.14665 0.47364 0.75714 0.0
H432 H 0.2136 0.4105 0.8198 0.0
H433 H 0.24321 0.43522 0.78495 0.0
H434 H 0.2248 0.4607 0.81992 0.0
H435 H 0.18978 0.49606 0.78236 0.0
H436 H 0.19342 0.47816 0.73736 0.0
C437 C 0.05095 0.32113 0.73172 0.0
C438 C 0.09042 0.28817 0.77488 0.0
C439 C 0.27494 0.41894 0.65302 0.0
C440 C 0.30044 0.45297 0.66255 0.0
C441 C 0.29192 0.47176 0.6938 0.0
C442 C 0.25829 0.45672 0.71512 0.0
C443 C 0.23286 0.42241 0.70518 0.0
C444 C 0.24178 0.40426 0.67457 0.0
C445 C 0.21291 0.36771 0.66827 0.0
C446 C 0.18428 0.36702 0.69939 0.0
C447 C 0.1958 0.39901 0.72124 0.0
C448 C 0.19293 0.36988 0.63101 0.0
C449 C 0.23568 0.33617 0.67162 0.0
C450 C 0.13587 0.44153 0.83612 0.0
C451 C 0.09995 0.42848 0.85497 0.0
C452 C 0.0738 0.39585 0.84153 0.0
C453 C 0.08337 0.37636 0.8111 0.0
C454 C 0.11926 0.38979 0.7927 0.0
C455 C 0.1444 0.42244 0.8049 0.0
C456 C 0.17954 0.43466 0.78014 0.0
C457 C 0.17222 0.40355 0.7519 0.0
C458 C 0.13695 0.37664 0.75955 0.0
C459 C 0.17768 0.47275 0.7634 0.0
C460 C 0.21749 0.43562 0.80221 0.0
H461 H 0.17057 0.29651 0.64447 0.0
H462 H 0.04872 0.23721 0.71127 0.0
H463 H 0.11687 0.27612 0.77622 0.0
H464 H 0.09157 0.3059 0.7991 0.0
H465 H 0.06378 0.26481 0.77671 0.0
H466 H 0.04847 0.32784 0.70257 0.0
H467 H 0.02539 0.29794 0.73867 0.0
H468 H 0.04837 0.34649 0.74652 0.0
H469 H 0.28109 0.40367 0.62947 0.0
H470 H 0.31147 0.49792 0.70181 0.0
H471 H 0.25353 0.47218 0.73869 0.0
H472 H 0.18845 0.39845 0.62608 0.0
H473 H 0.21136 0.36319 0.60859 0.0
H474 H 0.16306 0.35143 0.62905 0.0
H475 H 0.26209 0.34466 0.68939 0.0
H476 H 0.21794 0.31066 0.68459 0.0
H477 H 0.24608 0.32877 0.64481 0.0
H478 H 0.13288 0.23652 0.62564 0.0
C479 C 0.14468 0.28483 0.65992 0.0
Dy480 Dy 0.0614 0.04118 0.52778 0.0
Dy481 Dy 0.96948 1.01807 0.55533 0.0
C482 C 0.03313 0.09294 0.58777 0.0
O483 O 0.06256 1.00692 0.57711 0.0
O484 O 0.99731 0.97684 0.58325 0.0
O485 O 0.12428 0.05023 0.53602 0.0
O486 O 0.10045 0.05134 0.48183 0.0
O487 O 0.97286 0.96702 0.52406 0.0
O488 O 0.03129 0.99063 0.49415 0.0
O489 O 0.9718 0.04837 0.50281 0.0
O490 O 0.03308 0.08605 0.50828 0.0
O491 O 0.90729 1.00521 0.54224 0.0
O492 O 0.92675 1.01436 0.59802 0.0
C493 C 0.0348 0.98032 0.59094 0.0
O494 O 0.06206 0.08716 0.56743 0.0
O495 O 0.99741 0.07064 0.58703 0.0
C496 C 0.16186 0.09131 0.49362 0.0
C497 C 0.21274 0.15694 0.46875 0.0
C498 C 0.18351 0.15896 0.49427 0.0
C499 C 0.15794 0.12619 0.50653 0.0
C500 C 0.19246 0.08934 0.46974 0.0
C501 C 0.21776 0.122 0.45732 0.0
C502 C 0.13217 0.05718 0.50188 0.0
C503 C 0.99881 0.96427 0.4991 0.0
C504 C 0.99699 0.07986 0.49584 0.0
C505 C 0.86672 0.97152 0.58759 0.0
C506 C 0.81298 0.91206 0.62002 0.0
C507 C 0.84875 0.90659 0.60626 0.0
C508 C 0.87561 0.93629 0.59011 0.0
C509 C 0.83001 0.97628 0.59934 0.0
C510 C 0.80323 0.94667 0.61552 0.0
C511 C 0.89672 1.00423 0.57613 0.0
H512 H 0.1791 0.18581 0.50297 0.0
H513 H 0.13418 0.12808 0.52481 0.0
H514 H 0.19569 0.06262 0.45946 0.0
H515 H 0.24004 0.12013 0.43741 0.0
H516 H 0.85682 0.88014 0.61005 0.0
H517 H 0.904 0.93234 0.58121 0.0
H518 H 0.82287 1.00336 0.59761 0.0
H519 H 0.77591 0.95134 0.62644 0.0
Dy520 Dy 0.46688 1.02209 1.03023 0.0
Dy521 Dy 0.55977 0.04246 0.05538 0.0
C522 C 0.4969 0.97058 0.08882 0.0
O523 O 0.47231 0.05243 0.08302 0.0
O524 O 0.5339 0.08881 0.07507 0.0
O525 O 0.40573 1.01101 1.04611 0.0
O526 O 0.42135 1.01583 0.98931 0.0
O527 O 0.5587 0.07788 1.00568 0.0
O528 O 0.4929 0.07848 1.00505 0.0
O529 O 0.55376 0.99107 1.02243 0.0
O530 O 0.49558 0.98944 0.99191 0.0
O531 O 0.62229 0.055 1.04377 0.0
O532 O 0.60152 0.05167 0.0993 0.0
C533 C 0.49875 0.08335 0.08942 0.0
O534 O 0.4726 0.97144 0.06172 0.0
O535 O 0.52786 0.99837 0.09472 0.0
C536 C 0.3619 0.97264 1.00482 0.0
C537 C 0.30337 0.90814 0.98814 0.0
C538 C 0.31664 0.91499 1.02388 0.0
C539 C 0.34584 0.94695 1.03218 0.0
C540 C 0.3478 0.96595 0.96923 0.0
C541 C 0.31889 0.93388 0.96094 0.0
C542 C 0.39287 1.00656 1.01287 0.0
C543 C 0.52953 0.09236 0.99449 0.0
C544 C 0.52785 0.97747 0.99727 0.0
C545 C 0.6606 0.09469 0.0872 0.0
C546 C 0.70771 0.15991 0.11715 0.0
C547 C 0.67742 0.16229 0.0928 0.0
C548 C 0.65369 0.12968 0.07805 0.0
C549 C 0.69251 0.09267 0.10955 0.0
C550 C 0.71593 0.12513 0.12451 0.0
C551 C 0.63199 0.06014 0.07784 0.0
H552 H 0.30467 0.89542 1.04518 0.0
H553 H 0.35584 0.9514 0.05995 0.0
H554 H 0.35932 0.98545 0.94774 0.0
H555 H 0.30866 0.92904 0.93325 0.0
H556 H 0.67056 0.18898 0.08722 0.0
H557 H 0.62882 0.13158 0.06109 0.0
H558 H 0.69798 0.06585 0.11702 0.0
H559 H 0.73908 0.12294 0.14344 0.0
Dy560 Dy 0.50961 0.492 0.52265 0.0
Dy561 Dy 0.52068 0.57172 0.56326 0.0
C562 C 0.55203 0.50512 0.60181 0.0
O563 O 0.44898 0.49087 0.54459 0.0
O564 O 0.46792 0.53463 0.58928 0.0
O565 O 0.49123 0.43167 0.52258 0.0
O566 O 0.51695 0.4609 0.47452 0.0
O567 O 0.47667 0.57248 0.51804 0.0
O568 O 0.49638 0.53165 0.48013 0.0
O569 O 0.57077 0.57979 0.52352 0.0
O570 O 0.57411 0.51879 0.51733 0.0
O571 O 0.53264 0.63197 0.5604 0.0
O572 O 0.5194 0.60422 0.61188 0.0
C573 C 0.44188 0.50679 0.57501 0.0
O574 O 0.53069 0.48165 0.57862 0.0
O575 O 0.5581 0.54163 0.5971 0.0
C576 C 0.53975 0.40828 0.49131 0.0
C577 C 0.61002 0.38315 0.48963 0.0
C578 C 0.59312 0.38893 0.52289 0.0
C579 C 0.55832 0.40164 0.52376 0.0
C580 C 0.55568 0.40043 0.45814 0.0
C581 C 0.59067 0.38805 0.45731 0.0
C582 C 0.50828 0.42908 0.49158 0.0
C583 C 0.47915 0.55955 0.48505 0.0
C584 C 0.58895 0.55452 0.51181 0.0
C585 C 0.48989 0.65386 0.59978 0.0
C586 C 0.42267 0.68075 0.61578 0.0
C587 C 0.42437 0.66105 0.58359 0.0
C588 C 0.45768 0.64756 0.57571 0.0
C589 C 0.48865 0.6746 0.63143 0.0
C590 C 0.4552 0.68804 0.63938 0.0
C591 C 0.52237 0.63517 0.59393 0.0
H592 H 0.60771 0.38508 0.54804 0.0
H593 H 0.54704 0.40784 0.54978 0.0
H594 H 0.54215 0.40568 0.43285 0.0
H595 H 0.60337 0.38345 0.43143 0.0
H596 H 0.39946 0.65521 0.56516 0.0
H597 H 0.45773 0.63123 0.55134 0.0
H598 H 0.51299 0.67934 0.65049 0.0
H599 H 0.4542 0.70323 0.66437 0.0
Dy600 Dy 0.01971 0.56982 1.02201 0.0
Dy601 Dy 1.01201 0.49047 0.06316 0.0
C602 C 0.97939 0.55582 0.1022 0.0
O603 O 0.08119 0.57171 1.04248 0.0
O604 O 0.06426 0.52919 0.08831 0.0
O605 O 0.0386 0.63009 1.02244 0.0
O606 O 1.00965 0.60162 0.97524 0.0
O607 O 0.05489 0.49103 1.01695 0.0
O608 O 0.03328 0.53082 0.97908 0.0
O609 O 0.96082 0.48041 1.02441 0.0
O610 O 0.95564 0.54082 1.01668 0.0
O611 O 1.00072 0.4302 0.06083 0.0
O612 O 0.01811 0.45883 0.11132 0.0
C613 C 0.0895 0.55684 0.07307 0.0
O614 O 0.99909 0.57949 0.07834 0.0
O615 O 0.97444 0.51936 0.0979 0.0
C616 C 0.99036 0.65522 0.99465 0.0
C617 C 0.93105 0.69642 1.00197 0.0
C618 C 0.92479 0.65887 1.01366 0.0
C619 C 0.95414 0.63904 1.01066 0.0
C620 C 0.99678 0.69148 0.98107 0.0
C621 C 0.96732 0.71155 0.98403 0.0
C622 C 0.0206 0.63345 0.99214 0.0
C623 C 0.051 0.50327 0.98394 0.0
C624 C 0.94163 0.50474 1.01229 0.0
C625 C 0.04882 0.41084 0.09597 0.0
C626 C 0.12047 0.3894 0.10569 0.0
C627 C 0.11302 0.40616 0.07324 0.0
C628 C 0.07751 0.41691 0.06846 0.0
C629 C 0.05576 0.39284 0.12793 0.0
C630 C 0.09141 0.38208 0.13274 0.0
C631 C 1.01465 0.42786 0.09326 0.0
H632 H 0.89685 0.64338 1.02396 0.0
H633 H 0.94817 0.61053 1.02026 0.0
H634 H 0.02427 0.70405 0.96759 0.0
H635 H 0.97323 0.73832 0.97075 0.0
H636 H 0.1352 0.41199 0.05217 0.0
H637 H 0.07317 0.43117 1.04375 0.0
H638 H 0.03428 0.38838 0.14962 0.0
H639 H 0.09688 0.36913 0.15796 0.0
C640 C 0.24364 0.22411 0.39204 0.0
C641 C 0.28185 0.24354 0.40364 0.0
C642 C 0.27273 0.2096 0.46118 0.0
C643 C 0.23445 0.19074 0.44959 0.0
N644 N 0.17951 0.1865 0.40872 0.0
N645 N 0.33018 0.26052 0.45099 0.0
C646 C 0.21856 0.20039 0.41665 0.0
C647 C 0.29554 0.23817 0.43893 0.0
N648 N 0.23227 0.22617 0.35674 0.0
N649 N 0.2876 0.19923 0.49278 0.0
H650 H 0.34737 0.2815 0.43502 0.0
H651 H 0.34033 0.26034 0.47748 0.0
H652 H 0.27088 0.17945 0.51024 0.0
H653 H 0.31682 0.20881 0.50093 0.0
H654 H 0.20687 0.20898 0.34582 0.0
H655 H 0.24968 0.24265 0.33724 0.0
H656 H 0.16528 0.19583 0.38702 0.0
H657 H 0.16032 0.16814 0.42566 0.0
C658 C 0.20762 0.84598 0.95433 0.0
C659 C 0.22327 0.81694 0.93985 0.0
C660 C 0.28379 0.83943 0.97416 0.0
C661 C 0.27309 0.8741 0.97859 0.0
N662 N 0.22193 0.90856 0.9794 0.0
N663 N 0.25827 0.77328 0.9637 0.0
C664 C 0.23372 0.87662 0.97139 0.0
C665 C 0.25614 0.80933 0.95817 0.0
N666 N 0.16779 0.84234 0.95443 0.0
N667 N 0.32064 0.83564 0.98328 0.0
H668 H 0.23529 0.7511 0.95558 0.0
H669 H 0.28 0.76593 0.97965 0.0
H670 H 0.34177 0.85702 0.99531 0.0
H671 H 0.33066 0.81181 0.97693 0.0
H672 H 0.15403 0.8611 0.96726 0.0
H673 H 0.14875 0.81812 0.9445 0.0
H674 H 0.19493 0.91331 0.97103 0.0
H675 H 0.23997 0.93083 0.99331 0.0
C676 C 0.60407 0.44476 0.66194 0.0
C677 C 0.59486 0.45507 0.69748 0.0
C678 C 0.55624 0.4971 0.67043 0.0
C679 C 0.56821 0.4892 0.63495 0.0
N680 N 0.60821 0.45911 0.5975 0.0
N681 N 0.56565 0.49439 0.7356 0.0
C682 C 0.59323 0.4638 0.63092 0.0
C683 C 0.57198 0.48225 0.70163 0.0
N684 N 0.62294 0.41635 0.65776 0.0
N685 N 0.52813 0.51728 0.67441 0.0
H686 H 0.57459 0.48286 0.75904 0.0
H687 H 0.5538 0.51741 0.74054 0.0
H688 H 0.51574 0.5285 0.65263 0.0
H689 H 0.51453 0.52028 0.69894 0.0
H690 H 0.62666 0.40437 0.63286 0.0
H691 H 0.6323 0.40268 0.67962 0.0
H692 H 0.62995 0.44443 0.593 0.0
H693 H 0.60139 0.47263 0.57441 0.0
C694 C 0.96476 0.58178 0.20217 0.0
C695 C 0.9411 0.60831 0.19825 0.0
C696 C 0.9372 0.59544 0.13229 0.0
C697 C 0.96397 0.57164 0.13573 0.0
N698 N 1.00796 0.54681 0.17388 0.0
N699 N 0.90779 0.64315 0.15889 0.0
C700 C 0.97874 0.56581 0.17074 0.0
C701 C 0.92816 0.61584 0.16306 0.0
N702 N 0.97369 0.57152 0.23614 0.0
N703 N 0.9192 0.5975 0.09971 0.0
H704 H 0.89935 0.65754 0.18071 0.0
H705 H 0.90151 0.65335 0.13384 0.0
H706 H 0.92452 0.58252 0.07706 0.0
H707 H 0.89653 0.61119 0.09581 0.0
H708 H 0.98677 0.54931 0.24119 0.0
H709 H 0.96522 0.58339 0.25959 0.0
H710 H 0.02341 0.54539 0.19778 0.0
H711 H 0.01922 0.53494 0.15187 0.0
C712 C 0.43602 0.1455 0.12818 0.0
C713 C 0.46299 0.16895 0.15184 0.0
C714 C 0.51282 0.13382 0.13742 0.0
C715 C 0.48731 0.11355 0.11052 0.0
N716 N 0.42924 0.10955 0.07311 0.0
N717 N 0.53001 0.1906 0.17306 0.0
C718 C 0.45022 0.12211 0.10374 0.0
C719 C 0.50238 0.16473 0.15467 0.0
N720 N 0.39653 0.14427 0.12985 0.0
N721 N 0.54594 0.12265 0.14789 0.0
H722 H 0.52357 0.214 0.18539 0.0
H723 H 0.55998 0.19077 0.17297 0.0
H724 H 0.55364 0.099 0.13749 0.0
H725 H 0.56347 0.13454 0.16968 0.0
H726 H 0.37553 0.12491 0.11531 0.0
H727 H 0.38428 0.15949 0.14861 0.0
H728 H 0.40375 0.11801 0.06573 0.0
H729 H 0.43969 0.09465 0.05286 0.0
C730 C 0.03788 0.90857 0.6654 0.0
C731 C 0.07645 0.90287 0.66009 0.0
C732 C 0.08246 0.94067 0.60529 0.0
C733 C 0.04735 0.9521 0.6142 0.0
N734 N 0.99594 0.952 0.65842 0.0
N735 N 0.13962 0.92355 0.63014 0.0
C736 C 0.026 0.93739 0.64579 0.0
C737 C 0.10004 0.92185 0.63154 0.0
N738 N 1.01222 0.88603 0.68835 0.0
N739 N 0.09838 0.94624 0.57138 0.0
H740 H 0.15465 0.91275 0.65038 0.0
H741 H 0.15815 0.93974 0.61113 0.0
H742 H 0.08477 0.9569 0.55002 0.0
H743 H 0.12234 0.93562 0.5634 0.0
H744 H 0.98266 0.88709 0.69059 0.0
H745 H 0.01932 0.86372 0.7021 0.0
H746 H 0.98199 0.94409 0.68309 0.0
H747 H 0.98798 0.9749 0.64666 0.0
C748 C 0.83352 0.48654 0.98036 0.0
C749 C 0.83403 0.46246 0.95038 0.0
C750 C 0.90586 0.47082 0.95798 0.0
C751 C 0.90453 0.49109 0.99063 0.0
N752 N 0.86614 0.51486 1.03513 0.0
N753 N 0.86993 0.4288 0.91229 0.0
C754 C 0.86814 0.49841 1.00223 0.0
C755 C 0.87007 0.45398 0.93954 0.0
N756 N 0.79985 0.49817 0.98778 0.0
N757 N 0.94153 0.46879 0.94374 0.0
H758 H 0.8448 0.41718 0.89708 0.0
H759 H 0.89401 0.41761 0.90619 0.0
H760 H 0.96837 0.48096 0.95603 0.0
H761 H 0.94483 0.45805 0.91816 0.0
H762 H 0.79838 0.51861 1.00689 0.0
H763 H 0.7741 0.48968 0.9725 0.0
H764 H 0.83988 0.51766 1.04697 0.0
H765 H 0.89049 0.52288 0.05222 0.0
C766 C 0.69467 0.56559 0.4756 0.0
C767 C 0.69416 0.58913 0.4452 0.0
C768 C 0.62397 0.58685 0.45656 0.0
C769 C 0.62543 0.56643 0.48907 0.0
N770 N 0.66367 0.54031 0.53203 0.0
N771 N 0.65989 0.62616 0.40918 0.0
C772 C 0.66117 0.55661 0.49914 0.0
C773 C 0.65923 0.60089 0.43643 0.0
N774 N 0.72717 0.55161 0.48179 0.0
N775 N 0.58846 0.59124 0.44374 0.0
H776 H 0.68445 0.63585 0.39273 0.0
H777 H 0.63709 0.63954 0.40448 0.0
H778 H 0.5618 0.58085 0.45698 0.0
H779 H 0.58477 0.60204 0.41827 0.0
H780 H 0.72821 0.53134 0.50115 0.0
H781 H 0.75238 0.5583 0.46564 0.0
H782 H 0.68976 0.53562 0.54271 0.0
H783 H 0.64023 0.53431 0.55027 0.0
C784 C 0.19936 0.33512 0.12094 0.0
C785 C 0.23225 0.36455 0.12998 0.0
C786 C 0.19213 0.41049 0.12213 0.0
C787 C 0.15957 0.38116 0.11209 0.0
N788 N 0.13405 0.31714 0.09417 0.0
N789 N 0.26287 0.43023 0.13198 0.0
C790 C 0.16383 0.34393 0.10898 0.0
C791 C 0.22954 0.40231 0.12814 0.0
N792 N 0.2014 0.29875 0.12557 0.0
N793 N 0.18683 0.44579 0.1275 0.0
H794 H 0.29065 0.42489 0.13646 0.0
H795 H 0.2637 0.45833 0.12753 0.0
H796 H 0.15984 0.45287 0.12345 0.0
H797 H 0.2083 0.4675 0.1385 0.0
H798 H 0.17698 0.27629 0.12376 0.0
H799 H 0.22702 0.29096 0.13372 0.0
H800 H 0.13694 0.29037 0.08763 0.0
H801 H 0.10743 0.32261 0.08548 0.0
C802 C 0.57151 0.15917 0.91615 0.0
C803 C 0.56037 0.19249 0.92659 0.0
C804 C 0.52943 0.16056 0.98174 0.0
C805 C 0.53867 0.12654 0.97038 0.0
N806 N 0.5613 0.09186 0.92284 0.0
N807 N 0.52239 0.22283 0.96582 0.0
C808 C 0.55773 0.12546 0.93644 0.0
C809 C 0.53728 0.19242 0.95829 0.0
N810 N 0.59631 0.15997 0.88738 0.0
N811 N 0.51517 0.16325 1.01584 0.0
H812 H 0.52791 0.24667 0.94959 0.0
H813 H 0.50183 0.22321 0.98616 0.0
H814 H 0.50957 0.14109 1.03404 0.0
H815 H 0.51216 0.18826 1.02735 0.0
H816 H 0.60945 0.13811 0.88094 0.0
H817 H 0.60599 0.18363 0.87132 0.0
H818 H 0.57127 0.08843 0.89679 0.0
H819 H 0.55062 0.06668 0.93636 0.0
C820 C 0.98605 0.86207 0.46854 0.0
C821 C 0.96575 0.8621 0.43516 0.0
C822 C 0.97577 0.93072 0.43999 0.0
C823 C 0.99081 0.92973 0.47573 0.0
N824 N 1.00854 0.89394 0.52498 0.0
N825 N 0.93959 0.89619 0.38945 0.0
C826 C 0.99573 0.89525 0.49014 0.0
C827 C 0.96069 0.8965 0.4207 0.0
N828 N 0.99634 0.83011 0.47939 0.0
N829 N 0.97559 0.96443 0.42458 0.0
H830 H 0.92931 0.87202 0.37419 0.0
H831 H 0.93044 0.91929 0.37958 0.0
H832 H 0.98503 0.98974 0.43828 0.0
H833 H 0.9689 0.96766 0.39748 0.0
H834 H 1.01433 0.82872 0.50162 0.0
H835 H 0.98987 0.80564 0.46401 0.0
H836 H 1.00837 0.86924 0.53875 0.0
H837 H 0.01717 0.91768 0.54109 0.0
C838 C 0.35127 0.74207 0.636 0.0
C839 C 0.31789 0.71493 0.64826 0.0
C840 C 0.35327 0.66535 0.63942 0.0
C841 C 0.38599 0.69228 0.62563 0.0
N842 N 0.4137 0.75457 0.60395 0.0
N843 N 0.28378 0.65048 0.65534 0.0
C844 C 0.38422 0.73017 0.6218 0.0
C845 C 0.31787 0.67642 0.64796 0.0
N846 N 0.35216 0.77927 0.63937 0.0
N847 N 0.35659 0.62958 0.64569 0.0
H848 H 0.2574 0.65779 0.66184 0.0
H849 H 0.28065 0.62185 0.65202 0.0
H850 H 0.38196 0.62029 0.63962 0.0
H851 H 0.33542 0.60976 0.6594 0.0
H852 H 0.37737 0.80036 0.63496 0.0
H853 H 0.32843 0.78919 0.64915 0.0
H854 H 0.41214 0.78156 0.59684 0.0
H855 H 0.43845 0.74683 0.59348 0.0
C856 C 0.76852 0.8678 0.70706 0.0
C857 C 0.74004 0.83644 0.6939 0.0
C858 C 0.75892 0.85459 0.63142 0.0
C859 C 0.7891 0.88432 0.64489 0.0
N860 N 0.8281 0.91492 0.69508 0.0
N861 N 0.71071 0.79682 0.64456 0.0
C862 C 0.7956 0.88954 0.6826 0.0
C863 C 0.73596 0.82886 0.65629 0.0
N864 N 0.76863 0.87786 0.74276 0.0
N865 N 0.7517 0.85162 0.59504 0.0
H866 H 0.69315 0.7779 0.66223 0.0
H867 H 0.70903 0.7877 0.61781 0.0
H868 H 0.76876 0.86948 0.57622 0.0
H869 H 0.72757 0.83303 0.58364 0.0
H870 H 0.78558 0.9029 0.7529 0.0
H871 H 0.74921 0.86303 0.76192 0.0
H872 H 0.83687 0.91673 0.72212 0.0
H873 H 0.84848 0.93204 0.67811 0.0
C874 C 0.78529 0.24181 0.15451 0.0
C875 C 0.7704 0.24295 0.19007 0.0
C876 C 0.70975 0.19759 0.17325 0.0
C877 C 0.72703 0.19239 0.13952 0.0
N878 N 0.78095 0.20827 0.09737 0.0
N879 N 0.72072 0.21857 0.23515 0.0
C880 C 0.76463 0.21444 0.12976 0.0
C881 C 0.73298 0.22033 0.19986 0.0
N882 N 0.81894 0.26704 0.14455 0.0
N883 N 0.67117 0.18044 0.17999 0.0
H884 H 0.73674 0.23433 0.25594 0.0
H885 H 0.69615 0.19907 0.24459 0.0
H886 H 0.6534 0.1625 0.16164 0.0
H887 H 0.65568 0.18658 0.20239 0.0
H888 H 0.82968 0.26997 0.11818 0.0
H889 H 0.8346 0.28718 0.16234 0.0
H890 H 0.81 0.2203 0.09017 0.0
H891 H 0.76573 0.18951 0.07816 0.0
C892 C 0.44814 0.6315 0.42046 0.0
C893 C 0.4351 0.60956 0.38904 0.0
C894 C 0.44485 0.55427 0.42297 0.0
C895 C 0.46305 0.57696 0.45242 0.0
N896 N 0.49142 0.64007 0.4727 0.0
N897 N 0.43241 0.55101 0.35839 0.0
C898 C 0.46729 0.61643 0.44938 0.0
C899 C 0.4369 0.57124 0.38974 0.0
N900 N 0.44104 0.66631 0.42368 0.0
N901 N 0.4331 0.51643 0.42697 0.0
H902 H 0.4289 0.56271 0.33324 0.0
H903 H 0.4369 0.52401 0.3569 0.0
H904 H 0.43514 0.50294 0.45145 0.0
H905 H 0.41673 0.49909 0.40734 0.0
H906 H 0.44658 0.68191 0.44748 0.0
H907 H 0.42573 0.67783 0.40421 0.0
H908 H 0.49805 0.66902 0.46969 0.0
H909 H 0.50874 0.63088 0.49204 0.0
C910 C 0.08981 0.48732 0.88817 0.0
C911 C 0.08937 0.44845 0.88853 0.0
C912 C 0.05968 0.44496 0.94958 0.0
C913 C 0.06531 0.48458 0.95135 0.0
N914 N 0.09584 0.54376 0.92381 0.0
N915 N 0.08386 0.39332 0.92546 0.0
C916 C 0.08334 0.50586 0.92105 0.0
C917 C 0.07741 0.42825 0.92106 0.0
N918 N 0.09443 0.50648 0.85624 0.0
N919 N 0.03516 0.42269 0.97353 0.0
H920 H 0.09857 0.38078 0.90628 0.0
H921 H 0.07874 0.37885 0.9499 0.0
H922 H 0.01819 0.43314 0.99227 0.0
H923 H 0.02772 0.39364 0.97145 0.0
H924 H 0.09128 0.53388 0.85406 0.0
H925 H 0.09692 0.49384 0.83137 0.0
H926 H 0.11223 0.56015 0.90364 0.0
H927 H 0.09406 0.55824 0.94778 0.0
C928 C 0.52709 0.88135 0.95879 0.0
C929 C 0.56547 0.88908 0.94365 0.0
C930 C 0.57223 0.95601 0.95383 0.0
C931 C 0.53673 0.94777 0.97401 0.0
N932 N 0.48046 0.90267 0.99732 0.0
N933 N 0.62637 0.9332 0.92881 0.0
C934 C 0.51376 0.9105 0.97649 0.0
C935 C 0.58839 0.92633 0.9413 0.0
N936 N 0.50342 0.84619 0.95599 0.0
N937 N 0.59022 0.99237 0.9464 0.0
H938 H 0.63941 0.91237 0.91901 0.0
H939 H 0.64606 0.95918 0.9306 0.0
H940 H 0.5789 1.01472 0.9552 0.0
H941 H 0.61399 1.00023 0.92877 0.0
H942 H 0.47373 0.83948 0.96325 0.0
H943 H 0.51266 0.82425 0.94349 0.0
H944 H 0.46536 0.87568 1.00407 0.0
H945 H 0.46892 0.92328 1.00958 0.0
C946 C 0.99637 0.1623 0.43324 0.0
C947 C 0.95675 0.16546 0.43709 0.0
C948 C 0.94592 0.11664 0.48325 0.0
C949 C 0.98353 0.10955 0.47558 0.0
N950 N 0.04103 0.12099 0.43674 0.0
N951 N 0.8909 0.13829 0.45901 0.0
C952 C 1.00795 0.13116 0.4488 0.0
C953 C 0.93062 0.14047 0.4601 0.0
N954 N 0.02318 0.18937 0.41546 0.0
N955 N 0.92539 0.10229 0.51354 0.0
H956 H 0.87794 0.15394 0.44125 0.0
H957 H 0.87049 0.11788 0.47292 0.0
H958 H 0.93635 0.08688 0.533 0.0
H959 H 0.89959 0.10974 0.52164 0.0
H960 H 0.05329 0.19018 0.41494 0.0
H961 H 0.01593 0.21297 0.40436 0.0
H962 H 0.05777 0.13403 0.41501 0.0
H963 H 0.04926 0.09698 0.4455 0.0
C964 C 0.16196 0.61814 0.13856 0.0
C965 C 0.19559 0.60269 0.13543 0.0
C966 C 0.15874 0.55528 0.09299 0.0
C967 C 0.12683 0.5734 0.09317 0.0
N968 N 0.09893 0.62381 0.11389 0.0
N969 N 0.22753 0.55821 0.10791 0.0
C970 C 0.12873 0.60533 0.11536 0.0
C971 C 0.19429 0.57148 0.11233 0.0
N972 N 0.16152 0.64454 0.16454 0.0
N973 N 0.15488 0.5224 0.07454 0.0
H974 H 0.25349 0.56864 0.12239 0.0
H975 H 0.23026 0.53837 0.0886 0.0
H976 H 0.13003 0.5106 0.05905 0.0
H977 H 0.17513 0.50566 0.07611 0.0
H978 H 0.13668 0.65438 0.171 0.0
H979 H 0.18517 0.65423 0.18213 0.0
H980 H 0.10035 0.64956 0.12614 0.0
H981 H 0.07367 0.61477 0.09812 0.0
C982 C 0.33566 0.49112 0.61016 0.0
C983 C 0.33694 0.46761 0.64047 0.0
C984 C 0.40681 0.46956 0.62751 0.0
C985 C 0.40495 0.49136 0.59603 0.0
N986 N 0.36708 0.51997 0.55502 0.0
N987 N 0.3719 0.43063 0.67576 0.0
C988 C 0.36913 0.50123 0.58665 0.0
C989 C 0.37208 0.45584 0.64853 0.0
N990 N 0.30263 0.50444 0.60441 0.0
N991 N 0.44212 0.46247 0.63771 0.0
H992 H 0.34768 0.42109 0.69266 0.0
H993 H 0.39471 0.41727 0.68035 0.0
H994 H 0.46748 0.4697 0.62189 0.0
H995 H 0.44704 0.45127 0.66268 0.0
H996 H 0.30081 0.52468 0.58525 0.0
H997 H 0.27753 0.49705 0.62062 0.0
H998 H 0.34109 0.52498 0.54447 0.0
H999 H 0.39123 0.52853 0.53783 0.0
C1000 C 0.82627 0.70372 0.99713 0.0
C1001 C 0.83104 0.73206 0.97041 0.0
C1002 C 0.90106 0.75173 0.98611 0.0
C1003 C 0.89787 0.71695 1.00347 0.0
N1004 N 0.85635 0.68223 0.04954 0.0
N1005 N 0.87197 0.78773 0.94374 0.0
C1006 C 0.85997 0.69927 1.01658 0.0
C1007 C 0.86808 0.75794 0.96656 0.0
N1008 N 0.79036 0.68003 1.00279 0.0
N1009 N 0.93327 0.78007 0.99249 0.0
H1010 H 0.84797 0.7943 0.93049 0.0
H1011 H 0.89927 0.80486 0.93698 0.0
H1012 H 0.95493 0.77693 1.01105 0.0
H1013 H 0.93586 0.80724 0.98317 0.0
H1014 H 0.78669 0.65665 1.01949 0.0
H1015 H 0.76486 0.68253 0.98915 0.0
H1016 H 0.8292 0.67163 0.06196 0.0
H1017 H 0.88105 0.68294 0.06587 0.0
C1018 C 0.50068 0.87654 0.13311 0.0
C1019 C 0.46875 0.87156 0.15801 0.0
C1020 C 0.45553 0.93163 0.13783 0.0
C1021 C 0.4884 0.93734 0.11393 0.0
N1022 N 0.54575 0.91777 0.09246 0.0
N1023 N 0.42018 0.89726 0.18867 0.0
C1024 C 0.51216 0.91063 0.1129 0.0
C1025 C 0.44749 0.90003 0.16165 0.0
N1026 N 0.51887 0.84787 0.12746 0.0
N1027 N 0.43152 0.95622 0.13743 0.0
H1028 H 0.41371 0.87473 0.20655 0.0
H1029 H 0.40635 0.91853 0.19548 0.0
H1030 H 0.43763 0.98073 0.12218 0.0
H1031 H 0.40438 0.95144 0.15054 0.0
H1032 H 0.53898 0.84753 0.10673 0.0
H1033 H 0.51188 0.82298 0.1421 0.0
H1034 H 0.56677 0.9018 0.09349 0.0
H1035 H 0.55414 0.94133 0.0761 0.0
C1036 C 0.07697 0.1616 0.6641 0.0
C1037 C 0.06594 0.19454 0.65246 0.0
C1038 C 0.02653 0.1586 0.60299 0.0
C1039 C 0.04137 0.12682 0.61204 0.0
N1040 N 0.08059 0.09753 0.65115 0.0
N1041 N 0.03037 0.22509 0.61114 0.0
C1042 C 0.06632 0.12814 0.64282 0.0
C1043 C 0.04021 0.193 0.62229 0.0
N1044 N 0.09757 0.16247 0.69573 0.0
N1045 N 0.99968 0.15598 0.57553 0.0
H1046 H 0.03814 0.25004 0.62571 0.0
H1047 H 0.0159 0.22769 0.58697 0.0
H1048 H 0.99089 0.13216 0.55958 0.0
H1049 H 0.98436 0.17638 0.56963 0.0
H1050 H 0.104 0.13908 0.70786 0.0
H1051 H 0.10575 0.18652 0.71159 0.0
H1052 H 0.1024 0.09749 0.67039 0.0
H1053 H 0.07167 0.07208 0.63758 0.0
C1054 C 0.68798 0.32684 0.47857 0.0
C1055 C 0.72172 0.35625 0.47233 0.0
C1056 C 0.6838 0.40259 0.48729 0.0
C1057 C 0.64898 0.37348 0.48818 0.0
N1058 N 0.61674 0.30816 0.48547 0.0
N1059 N 0.75315 0.42175 0.471 0.0
C1060 C 0.65082 0.33557 0.48459 0.0
C1061 C 0.72017 0.39406 0.47735 0.0
N1062 N 0.69161 0.29062 0.4784 0.0
N1063 N 0.68191 0.4383 0.49586 0.0
H1064 H 0.78062 0.41622 0.46547 0.0
H1065 H 0.75321 0.45 0.46971 0.0
H1066 H 0.65557 0.44568 0.50231 0.0
H1067 H 0.70659 0.46021 0.49919 0.0
H1068 H 0.6692 0.26796 0.48601 0.0
H1069 H 0.71823 0.28325 0.47324 0.0
H1070 H 0.61508 0.28038 0.47874 0.0
H1071 H 0.5893 0.31351 0.49142 0.0
loop_
_geom_bond_atom_site_label_1
_geom_bond_atom_site_label_2
_geom_bond_distance
_geom_bond_site_symmetry_2
_ccdc_geom_bond_type
C0 C1 1.391 . S
C0 C4 1.391 . S
C0 H42 0.948 . S
C1 C0 1.391 . S
C1 C2 1.391 . S
C2 C1 1.391 . S
C2 H58 0.947 . S
C2 C59 1.392 . S
C3 C4 1.391 . S
C3 C7 1.397 . S
C3 C59 1.419 . S
C4 C0 1.391 . S
C4 C3 1.391 . S
C4 C5 1.399 . S
C5 C4 1.399 . S
C5 C8 1.396 . S
C5 C17 1.453 . S
C5 C18 1.684 . S
H6 C30 0.948 . S
C7 C3 1.397 . S
C7 C8 1.394 . S
C7 C26 1.723 . S
C8 C5 1.396 . S
C8 C7 1.394 . S
C8 C38 1.723 . S
H9 C32 0.947 . S
H10 C33 0.948 . S
H11 C39 0.982 . S
H12 C40 0.979 . S
H13 C40 0.980 . S
H14 C40 0.983 . S
H15 C39 0.979 . S
H16 C39 0.977 . S
C17 C5 1.453 . S
C17 H46 0.982 . S
C17 H47 0.979 . S
C17 H48 0.977 . S
C18 C5 1.684 . S
C18 H43 0.979 . S
C18 H44 0.980 . S
C18 H45 0.983 . S
C19 C20 1.391 . S
C19 C24 1.391 . S
C19 H49 0.948 . S
C20 C19 1.391 . S
C20 C21 1.391 . S
C21 C20 1.391 . S
C21 C22 1.392 . S
C21 H50 0.947 . S
C22 C21 1.392 . S
C22 C23 1.419 . S
C22 H51 0.948 . S
C23 C22 1.419 . S
C23 C24 1.391 . S
C23 C27 1.397 . S
C24 C19 1.391 . S
C24 C23 1.391 . S
C24 C25 1.399 . S
C25 C24 1.399 . S
C25 C26 1.396 . S
C25 C28 1.453 . S
C25 C29 1.684 . S
C26 C7 1.723 . S
C26 C25 1.396 . S
C26 C27 1.394 . S
C27 C23 1.397 . S
C27 C26 1.394 . S
C27 C37 1.723 . S
C28 C25 1.453 . S
C28 H52 0.982 . S
C28 H53 0.979 . S
C28 H54 0.977 . S
C29 C25 1.684 . S
C29 H55 0.979 . S
C29 H56 0.980 . S
C29 H57 0.983 . S
C30 H6 0.948 . S
C30 C31 1.391 . S
C30 C35 1.391 . S
C31 C30 1.391 . S
C31 C32 1.391 . S
C32 H9 0.947 . S
C32 C31 1.391 . S
C32 C33 1.392 . S
C33 H10 0.948 . S
C33 C32 1.392 . S
C33 C34 1.419 . S
C34 C33 1.419 . S
C34 C35 1.391 . S
C34 C38 1.397 . S
C35 C30 1.391 . S
C35 C34 1.391 . S
C35 C36 1.399 . S
C36 C35 1.399 . S
C36 C37 1.396 . S
C36 C39 1.453 . S
C36 C40 1.684 . S
C37 C27 1.723 . S
C37 C36 1.396 . S
C37 C38 1.394 . S
C38 C8 1.723 . S
C38 C34 1.397 . S
C38 C37 1.394 . S
C39 H11 0.982 . S
C39 H15 0.979 . S
C39 H16 0.977 . S
C39 C36 1.453 . S
C40 H12 0.979 . S
C40 H13 0.980 . S
C40 H14 0.983 . S
C40 C36 1.684 . S
H41 C59 0.948 . S
H42 C0 0.948 . S
H43 C18 0.979 . S
H44 C18 0.980 . S
H45 C18 0.983 . S
H46 C17 0.982 . S
H47 C17 0.979 . S
H48 C17 0.977 . S
H49 C19 0.948 . S
H50 C21 0.947 . S
H51 C22 0.948 . S
H52 C28 0.982 . S
H53 C28 0.979 . S
H54 C28 0.977 . S
H55 C29 0.979 . S
H56 C29 0.980 . S
H57 C29 0.983 . S
H58 C2 0.947 . S
C59 C2 1.392 . S
C59 C3 1.419 . S
C59 H41 0.948 . S
C60 C61 1.391 . S
C60 C64 1.391 . S
C60 H102 0.948 . S
C61 C60 1.391 . S
C61 C62 1.391 . S
C62 C61 1.391 . S
C62 H118 0.947 . S
C62 C119 1.392 . S
C63 C64 1.391 . S
C63 C67 1.397 . S
C63 C119 1.419 . S
C64 C60 1.391 . S
C64 C63 1.391 . S
C64 C65 1.399 . S
C65 C64 1.399 . S
C65 C68 1.396 . S
C65 C77 1.453 . S
C65 C78 1.684 . S
H66 C90 0.948 . S
C67 C63 1.397 . S
C67 C68 1.394 . S
C67 C86 1.723 . S
C68 C65 1.396 . S
C68 C67 1.394 . S
C68 C98 1.723 . S
H69 C92 0.947 . S
H70 C93 0.948 . S
H71 C99 0.982 . S
H72 C100 0.979 . S
H73 C100 0.980 . S
H74 C100 0.983 . S
H75 C99 0.979 . S
H76 C99 0.977 . S
C77 C65 1.453 . S
C77 H106 0.982 . S
C77 H107 0.979 . S
C77 H108 0.977 . S
C78 C65 1.684 . S
C78 H103 0.979 . S
C78 H104 0.980 . S
C78 H105 0.983 . S
C79 C80 1.391 . S
C79 C84 1.391 . S
C79 H109 0.948 . S
C80 C79 1.391 . S
C80 C81 1.391 . S
C81 C80 1.391 . S
C81 C82 1.392 . S
C81 H110 0.947 . S
C82 C81 1.392 . S
C82 C83 1.419 . S
C82 H111 0.948 . S
C83 C82 1.419 . S
C83 C84 1.391 . S
C83 C87 1.397 . S
C84 C79 1.391 . S
C84 C83 1.391 . S
C84 C85 1.399 . S
C85 C84 1.399 . S
C85 C86 1.396 . S
C85 C88 1.453 . S
C85 C89 1.684 . S
C86 C67 1.723 . S
C86 C85 1.396 . S
C86 C87 1.394 . S
C87 C83 1.397 . S
C87 C86 1.394 . S
C87 C97 1.723 . S
C88 C85 1.453 . S
C88 H112 0.982 . S
C88 H113 0.979 . S
C88 H114 0.977 . S
C89 C85 1.684 . S
C89 H115 0.979 . S
C89 H116 0.980 . S
C89 H117 0.983 . S
C90 H66 0.948 . S
C90 C91 1.391 . S
C90 C95 1.391 . S
C91 C90 1.391 . S
C91 C92 1.391 . S
C92 H69 0.947 . S
C92 C91 1.391 . S
C92 C93 1.392 . S
C93 H70 0.948 . S
C93 C92 1.392 . S
C93 C94 1.419 . S
C94 C93 1.419 . S
C94 C95 1.391 . S
C94 C98 1.397 . S
C95 C90 1.391 . S
C95 C94 1.391 . S
C95 C96 1.399 . S
C96 C95 1.399 . S
C96 C97 1.396 . S
C96 C99 1.453 . S
C96 C100 1.684 . S
C97 C87 1.723 . S
C97 C96 1.396 . S
C97 C98 1.394 . S
C98 C68 1.723 . S
C98 C94 1.397 . S
C98 C97 1.394 . S
C99 H71 0.982 . S
C99 H75 0.979 . S
C99 H76 0.977 . S
C99 C96 1.453 . S
C100 H72 0.979 . S
C100 H73 0.980 . S
C100 H74 0.983 . S
C100 C96 1.684 . S
H101 C119 0.948 . S
H102 C60 0.948 . S
H103 C78 0.979 . S
H104 C78 0.980 . S
H105 C78 0.983 . S
H106 C77 0.982 . S
H107 C77 0.979 . S
H108 C77 0.977 . S
H109 C79 0.948 . S
H110 C81 0.947 . S
H111 C82 0.948 . S
H112 C88 0.982 . S
H113 C88 0.979 . S
H114 C88 0.977 . S
H115 C89 0.979 . S
H116 C89 0.980 . S
H117 C89 0.983 . S
H118 C62 0.947 . S
C119 C62 1.392 . S
C119 C63 1.419 . S
C119 H101 0.948 . S
C120 C121 1.391 . S
C120 C124 1.391 . S
C120 H162 0.948 . S
C121 C120 1.391 . S
C121 C122 1.391 . S
C122 C121 1.391 . S
C122 H178 0.947 . S
C122 C179 1.392 . S
C123 C124 1.391 . S
C123 C127 1.397 . S
C123 C179 1.419 . S
C124 C120 1.391 . S
C124 C123 1.391 . S
C124 C125 1.399 . S
C125 C124 1.399 . S
C125 C128 1.396 . S
C125 C137 1.453 . S
C125 C138 1.684 . S
H126 C150 0.948 . S
C127 C123 1.397 . S
C127 C128 1.394 . S
C127 C146 1.723 . S
C128 C125 1.396 . S
C128 C127 1.394 . S
C128 C158 1.723 . S
H129 C152 0.947 . S
H130 C153 0.948 . S
H131 C159 0.982 . S
H132 C160 0.979 . S
H133 C160 0.980 . S
H134 C160 0.983 . S
H135 C159 0.979 . S
H136 C159 0.977 . S
C137 C125 1.453 . S
C137 H166 0.982 . S
C137 H167 0.979 . S
C137 H168 0.977 . S
C138 C125 1.684 . S
C138 H163 0.979 . S
C138 H164 0.980 . S
C138 H165 0.983 . S
C139 C140 1.391 . S
C139 C144 1.391 . S
C139 H169 0.948 . S
C140 C139 1.391 . S
C140 C141 1.391 . S
C141 C140 1.391 . S
C141 C142 1.392 . S
C141 H170 0.947 . S
C142 C141 1.392 . S
C142 C143 1.419 . S
C142 H171 0.948 . S
C143 C142 1.419 . S
C143 C144 1.391 . S
C143 C147 1.397 . S
C144 C139 1.391 . S
C144 C143 1.391 . S
C144 C145 1.399 . S
C145 C144 1.399 . S
C145 C146 1.396 . S
C145 C148 1.453 . S
C145 C149 1.684 . S
C146 C127 1.723 . S
C146 C145 1.396 . S
C146 C147 1.394 . S
C147 C143 1.397 . S
C147 C146 1.394 . S
C147 C157 1.723 . S
C148 C145 1.453 . S
C148 H172 0.982 . S
C148 H173 0.979 . S
C148 H174 0.977 . S
C149 C145 1.684 . S
C149 H175 0.979 . S
C149 H176 0.980 . S
C149 H177 0.983 . S
C150 H126 0.948 . S
C150 C151 1.391 . S
C150 C155 1.391 . S
C151 C150 1.391 . S
C151 C152 1.391 . S
C152 H129 0.947 . S
C152 C151 1.391 . S
C152 C153 1.392 . S
C153 H130 0.948 . S
C153 C152 1.392 . S
C153 C154 1.419 . S
C154 C153 1.419 . S
C154 C155 1.391 . S
C154 C158 1.397 . S
C155 C150 1.391 . S
C155 C154 1.391 . S
C155 C156 1.399 . S
C156 C155 1.399 . S
C156 C157 1.396 . S
C156 C159 1.453 . S
C156 C160 1.684 . S
C157 C147 1.723 . S
C157 C156 1.396 . S
C157 C158 1.394 . S
C158 C128 1.723 . S
C158 C154 1.397 . S
C158 C157 1.394 . S
C159 H131 0.982 . S
C159 H135 0.979 . S
C159 H136 0.977 . S
C159 C156 1.453 . S
C160 H132 0.979 . S
C160 H133 0.980 . S
C160 H134 0.983 . S
C160 C156 1.684 . S
H161 C179 0.948 . S
H162 C120 0.948 . S
H163 C138 0.979 . S
H164 C138 0.980 . S
H165 C138 0.983 . S
H166 C137 0.982 . S
H167 C137 0.979 . S
H168 C137 0.977 . S
H169 C139 0.948 . S
H170 C141 0.947 . S
H171 C142 0.948 . S
H172 C148 0.982 . S
H173 C148 0.979 . S
H174 C148 0.977 . S
H175 C149 0.979 . S
H176 C149 0.980 . S
H177 C149 0.983 . S
H178 C122 0.947 . S
C179 C122 1.392 . S
C179 C123 1.419 . S
C179 H161 0.948 . S
C180 C181 1.391 . S
C180 C184 1.391 . S
C180 H222 0.948 . S
C181 C180 1.391 . S
C181 C182 1.391 . S
C182 C181 1.391 . S
C182 H238 0.947 . S
C182 C239 1.392 . S
C183 C184 1.391 . S
C183 C187 1.397 . S
C183 C239 1.419 . S
C184 C180 1.391 . S
C184 C183 1.391 . S
C184 C185 1.399 . S
C185 C184 1.399 . S
C185 C188 1.396 . S
C185 C197 1.453 . S
C185 C198 1.684 . S
H186 C210 0.948 . S
C187 C183 1.397 . S
C187 C188 1.394 . S
C187 C206 1.723 . S
C188 C185 1.396 . S
C188 C187 1.394 . S
C188 C218 1.723 . S
H189 C212 0.947 . S
H190 C213 0.948 . S
H191 C219 0.982 . S
H192 C220 0.979 . S
H193 C220 0.980 . S
H194 C220 0.983 . S
H195 C219 0.979 . S
H196 C219 0.977 . S
C197 C185 1.453 . S
C197 H226 0.982 . S
C197 H227 0.979 . S
C197 H228 0.977 . S
C198 C185 1.684 . S
C198 H223 0.979 . S
C198 H224 0.980 . S
C198 H225 0.983 . S
C199 C200 1.391 . S
C199 C204 1.391 . S
C199 H229 0.948 . S
C200 C199 1.391 . S
C200 C201 1.391 . S
C201 C200 1.391 . S
C201 C202 1.392 . S
C201 H230 0.947 . S
C202 C201 1.392 . S
C202 C203 1.419 . S
C202 H231 0.948 . S
C203 C202 1.419 . S
C203 C204 1.391 . S
C203 C207 1.397 . S
C204 C199 1.391 . S
C204 C203 1.391 . S
C204 C205 1.399 . S
C205 C204 1.399 . S
C205 C206 1.396 . S
C205 C208 1.453 . S
C205 C209 1.684 . S
C206 C187 1.723 . S
C206 C205 1.396 . S
C206 C207 1.394 . S
C207 C203 1.397 . S
C207 C206 1.394 . S
C207 C217 1.723 . S
C208 C205 1.453 . S
C208 H232 0.982 . S
C208 H233 0.979 . S
C208 H234 0.977 . S
C209 C205 1.684 . S
C209 H235 0.979 . S
C209 H236 0.980 . S
C209 H237 0.983 . S
C210 H186 0.948 . S
C210 C211 1.391 . S
C210 C215 1.391 . S
C211 C210 1.391 . S
C211 C212 1.391 . S
C212 H189 0.947 . S
C212 C211 1.391 . S
C212 C213 1.392 . S
C213 H190 0.948 . S
C213 C212 1.392 . S
C213 C214 1.419 . S
C214 C213 1.419 . S
C214 C215 1.391 . S
C214 C218 1.397 . S
C215 C210 1.391 . S
C215 C214 1.391 . S
C215 C216 1.399 . S
C216 C215 1.399 . S
C216 C217 1.396 . S
C216 C219 1.453 . S
C216 C220 1.684 . S
C217 C207 1.723 . S
C217 C216 1.396 . S
C217 C218 1.394 . S
C218 C188 1.723 . S
C218 C214 1.397 . S
C218 C217 1.394 . S
C219 H191 0.982 . S
C219 H195 0.979 . S
C219 H196 0.977 . S
C219 C216 1.453 . S
C220 H192 0.979 . S
C220 H193 0.980 . S
C220 H194 0.983 . S
C220 C216 1.684 . S
H221 C239 0.948 . S
H222 C180 0.948 . S
H223 C198 0.979 . S
H224 C198 0.980 . S
H225 C198 0.983 . S
H226 C197 0.982 . S
H227 C197 0.979 . S
H228 C197 0.977 . S
H229 C199 0.948 . S
H230 C201 0.947 . S
H231 C202 0.948 . S
H232 C208 0.982 . S
H233 C208 0.979 . S
H234 C208 0.977 . S
H235 C209 0.979 . S
H236 C209 0.980 . S
H237 C209 0.983 . S
H238 C182 0.947 . S
C239 C182 1.392 . S
C239 C183 1.419 . S
C239 H221 0.948 . S
C240 C241 1.391 . S
C240 C244 1.391 . S
C240 H282 0.948 . S
C241 C240 1.391 . S
C241 C242 1.391 . S
C242 C241 1.391 . S
C242 H298 0.947 . S
C242 C299 1.392 . S
C243 C244 1.391 . S
C243 C247 1.397 . S
C243 C299 1.419 . S
C244 C240 1.391 . S
C244 C243 1.391 . S
C244 C245 1.399 . S
C245 C244 1.399 . S
C245 C248 1.396 . S
C245 C257 1.453 . S
C245 C258 1.684 . S
H246 C270 0.948 . S
C247 C243 1.397 . S
C247 C248 1.394 . S
C247 C266 1.723 . S
C248 C245 1.396 . S
C248 C247 1.394 . S
C248 C278 1.723 . S
H249 C272 0.947 . S
H250 C273 0.948 . S
H251 C279 0.982 . S
H252 C280 0.979 . S
H253 C280 0.980 . S
H254 C280 0.983 . S
H255 C279 0.979 . S
H256 C279 0.977 . S
C257 C245 1.453 . S
C257 H286 0.982 . S
C257 H287 0.979 . S
C257 H288 0.977 . S
C258 C245 1.684 . S
C258 H283 0.979 . S
C258 H284 0.980 . S
C258 H285 0.983 . S
C259 C260 1.391 . S
C259 C264 1.391 . S
C259 H289 0.948 . S
C260 C259 1.391 . S
C260 C261 1.391 . S
C261 C260 1.391 . S
C261 C262 1.392 . S
C261 H290 0.947 . S
C262 C261 1.392 . S
C262 C263 1.419 . S
C262 H291 0.948 . S
C263 C262 1.419 . S
C263 C264 1.391 . S
C263 C267 1.397 . S
C264 C259 1.391 . S
C264 C263 1.391 . S
C264 C265 1.399 . S
C265 C264 1.399 . S
C265 C266 1.396 . S
C265 C268 1.453 . S
C265 C269 1.684 . S
C266 C247 1.723 . S
C266 C265 1.396 . S
C266 C267 1.394 . S
C267 C263 1.397 . S
C267 C266 1.394 . S
C267 C277 1.723 . S
C268 C265 1.453 . S
C268 H292 0.982 . S
C268 H293 0.979 . S
C268 H294 0.977 . S
C269 C265 1.684 . S
C269 H295 0.979 . S
C269 H296 0.980 . S
C269 H297 0.983 . S
C270 H246 0.948 . S
C270 C271 1.391 . S
C270 C275 1.391 . S
C271 C270 1.391 . S
C271 C272 1.391 . S
C272 H249 0.947 . S
C272 C271 1.391 . S
C272 C273 1.392 . S
C273 H250 0.948 . S
C273 C272 1.392 . S
C273 C274 1.419 . S
C274 C273 1.419 . S
C274 C275 1.391 . S
C274 C278 1.397 . S
C275 C270 1.391 . S
C275 C274 1.391 . S
C275 C276 1.399 . S
C276 C275 1.399 . S
C276 C277 1.396 . S
C276 C279 1.453 . S
C276 C280 1.684 . S
C277 C267 1.723 . S
C277 C276 1.396 . S
C277 C278 1.394 . S
C278 C248 1.723 . S
C278 C274 1.397 . S
C278 C277 1.394 . S
C279 H251 0.982 . S
C279 H255 0.979 . S
C279 H256 0.977 . S
C279 C276 1.453 . S
C280 H252 0.979 . S
C280 H253 0.980 . S
C280 H254 0.983 . S
C280 C276 1.684 . S
H281 C299 0.948 . S
H282 C240 0.948 . S
H283 C258 0.979 . S
H284 C258 0.980 . S
H285 C258 0.983 . S
H286 C257 0.982 . S
H287 C257 0.979 . S
H288 C257 0.977 . S
H289 C259 0.948 . S
H290 C261 0.947 . S
H291 C262 0.948 . S
H292 C268 0.982 . S
H293 C268 0.979 . S
H294 C268 0.977 . S
H295 C269 0.979 . S
H296 C269 0.980 . S
H297 C269 0.983 . S
H298 C242 0.947 . S
C299 C242 1.392 . S
C299 C243 1.419 . S
C299 H281 0.948 . S
C300 C301 1.391 . S
C300 C304 1.391 . S
C300 H342 0.948 . S
C301 C300 1.391 . S
C301 C302 1.391 . S
C302 C301 1.391 . S
C302 H358 0.947 . S
C302 C359 1.392 . S
C303 C304 1.391 . S
C303 C307 1.397 . S
C303 C359 1.419 . S
C304 C300 1.391 . S
C304 C303 1.391 . S
C304 C305 1.399 . S
C305 C304 1.399 . S
C305 C308 1.396 . S
C305 C317 1.453 . S
C305 C318 1.684 . S
H306 C330 0.948 . S
C307 C303 1.397 . S
C307 C308 1.394 . S
C307 C326 1.723 . S
C308 C305 1.396 . S
C308 C307 1.394 . S
C308 C338 1.723 . S
H309 C332 0.947 . S
H310 C333 0.948 . S
H311 C339 0.982 . S
H312 C340 0.979 . S
H313 C340 0.980 . S
H314 C340 0.983 . S
H315 C339 0.979 . S
H316 C339 0.977 . S
C317 C305 1.453 . S
C317 H346 0.982 . S
C317 H347 0.979 . S
C317 H348 0.977 . S
C318 C305 1.684 . S
C318 H343 0.979 . S
C318 H344 0.980 . S
C318 H345 0.983 . S
C319 C320 1.391 . S
C319 C324 1.391 . S
C319 H349 0.948 . S
C320 C319 1.391 . S
C320 C321 1.391 . S
C321 C320 1.391 . S
C321 C322 1.392 . S
C321 H350 0.947 . S
C322 C321 1.392 . S
C322 C323 1.419 . S
C322 H351 0.948 . S
C323 C322 1.419 . S
C323 C324 1.391 . S
C323 C327 1.397 . S
C324 C319 1.391 . S
C324 C323 1.391 . S
C324 C325 1.399 . S
C325 C324 1.399 . S
C325 C326 1.396 . S
C325 C328 1.453 . S
C325 C329 1.684 . S
C326 C307 1.723 . S
C326 C325 1.396 . S
C326 C327 1.394 . S
C327 C323 1.397 . S
C327 C326 1.394 . S
C327 C337 1.723 . S
C328 C325 1.453 . S
C328 H352 0.982 . S
C328 H353 0.979 . S
C328 H354 0.977 . S
C329 C325 1.684 . S
C329 H355 0.979 . S
C329 H356 0.980 . S
C329 H357 0.983 . S
C330 H306 0.948 . S
C330 C331 1.391 . S
C330 C335 1.391 . S
C331 C330 1.391 . S
C331 C332 1.391 . S
C332 H309 0.947 . S
C332 C331 1.391 . S
C332 C333 1.392 . S
C333 H310 0.948 . S
C333 C332 1.392 . S
C333 C334 1.419 . S
C334 C333 1.419 . S
C334 C335 1.391 . S
C334 C338 1.397 . S
C335 C330 1.391 . S
C335 C334 1.391 . S
C335 C336 1.399 . S
C336 C335 1.399 . S
C336 C337 1.396 . S
C336 C339 1.453 . S
C336 C340 1.684 . S
C337 C327 1.723 . S
C337 C336 1.396 . S
C337 C338 1.394 . S
C338 C308 1.723 . S
C338 C334 1.397 . S
C338 C337 1.394 . S
C339 H311 0.982 . S
C339 H315 0.979 . S
C339 H316 0.977 . S
C339 C336 1.453 . S
C340 H312 0.979 . S
C340 H313 0.980 . S
C340 H314 0.983 . S
C340 C336 1.684 . S
H341 C359 0.948 . S
H342 C300 0.948 . S
H343 C318 0.979 . S
H344 C318 0.980 . S
H345 C318 0.983 . S
H346 C317 0.982 . S
H347 C317 0.979 . S
H348 C317 0.977 . S
H349 C319 0.948 . S
H350 C321 0.947 . S
H351 C322 0.948 . S
H352 C328 0.982 . S
H353 C328 0.979 . S
H354 C328 0.977 . S
H355 C329 0.979 . S
H356 C329 0.980 . S
H357 C329 0.983 . S
H358 C302 0.947 . S
C359 C302 1.392 . S
C359 C303 1.419 . S
C359 H341 0.948 . S
C360 C361 1.391 . S
C360 C364 1.391 . S
C360 H402 0.948 . S
C361 C360 1.391 . S
C361 C362 1.391 . S
C362 C361 1.391 . S
C362 H418 0.947 . S
C362 C419 1.392 . S
C363 C364 1.391 . S
C363 C367 1.397 . S
C363 C419 1.419 . S
C364 C360 1.391 . S
C364 C363 1.391 . S
C364 C365 1.399 . S
C365 C364 1.399 . S
C365 C368 1.396 . S
C365 C377 1.453 . S
C365 C378 1.684 . S
H366 C390 0.948 . S
C367 C363 1.397 . S
C367 C368 1.394 . S
C367 C386 1.723 . S
C368 C365 1.396 . S
C368 C367 1.394 . S
C368 C398 1.723 . S
H369 C392 0.947 . S
H370 C393 0.948 . S
H371 C399 0.982 . S
H372 C400 0.979 . S
H373 C400 0.980 . S
H374 C400 0.983 . S
H375 C399 0.979 . S
H376 C399 0.977 . S
C377 C365 1.453 . S
C377 H406 0.982 . S
C377 H407 0.979 . S
C377 H408 0.977 . S
C378 C365 1.684 . S
C378 H403 0.979 . S
C378 H404 0.980 . S
C378 H405 0.983 . S
C379 C380 1.391 . S
C379 C384 1.391 . S
C379 H409 0.948 . S
C380 C379 1.391 . S
C380 C381 1.391 . S
C381 C380 1.391 . S
C381 C382 1.392 . S
C381 H410 0.947 . S
C382 C381 1.392 . S
C382 C383 1.419 . S
C382 H411 0.948 . S
C383 C382 1.419 . S
C383 C384 1.391 . S
C383 C387 1.397 . S
C384 C379 1.391 . S
C384 C383 1.391 . S
C384 C385 1.399 . S
C385 C384 1.399 . S
C385 C386 1.396 . S
C385 C388 1.453 . S
C385 C389 1.684 . S
C386 C367 1.723 . S
C386 C385 1.396 . S
C386 C387 1.394 . S
C387 C383 1.397 . S
C387 C386 1.394 . S
C387 C397 1.723 . S
C388 C385 1.453 . S
C388 H412 0.982 . S
C388 H413 0.979 . S
C388 H414 0.977 . S
C389 C385 1.684 . S
C389 H415 0.979 . S
C389 H416 0.980 . S
C389 H417 0.983 . S
C390 H366 0.948 . S
C390 C391 1.391 . S
C390 C395 1.391 . S
C391 C390 1.391 . S
C391 C392 1.391 . S
C392 H369 0.947 . S
C392 C391 1.391 . S
C392 C393 1.392 . S
C393 H370 0.948 . S
C393 C392 1.392 . S
C393 C394 1.419 . S
C394 C393 1.419 . S
C394 C395 1.391 . S
C394 C398 1.397 . S
C395 C390 1.391 . S
C395 C394 1.391 . S
C395 C396 1.399 . S
C396 C395 1.399 . S
C396 C397 1.396 . S
C396 C399 1.453 . S
C396 C400 1.684 . S
C397 C387 1.723 . S
C397 C396 1.396 . S
C397 C398 1.394 . S
C398 C368 1.723 . S
C398 C394 1.397 . S
C398 C397 1.394 . S
C399 H371 0.982 . S
C399 H375 0.979 . S
C399 H376 0.977 . S
C399 C396 1.453 . S
C400 H372 0.979 . S
C400 H373 0.980 . S
C400 H374 0.983 . S
C400 C396 1.684 . S
H401 C419 0.948 . S
H402 C360 0.948 . S
H403 C378 0.979 . S
H404 C378 0.980 . S
H405 C378 0.983 . S
H406 C377 0.982 . S
H407 C377 0.979 . S
H408 C377 0.977 . S
H409 C379 0.948 . S
H410 C381 0.947 . S
H411 C382 0.948 . S
H412 C388 0.982 . S
H413 C388 0.979 . S
H414 C388 0.977 . S
H415 C389 0.979 . S
H416 C389 0.980 . S
H417 C389 0.983 . S
H418 C362 0.947 . S
C419 C362 1.392 . S
C419 C363 1.419 . S
C419 H401 0.948 . S
C420 C421 1.391 . S
C420 C424 1.391 . S
C420 H462 0.948 . S
C421 C420 1.391 . S
C421 C422 1.391 . S
C422 C421 1.391 . S
C422 H478 0.947 . S
C422 C479 1.392 . S
C423 C424 1.391 . S
C423 C427 1.397 . S
C423 C479 1.419 . S
C424 C420 1.391 . S
C424 C423 1.391 . S
C424 C425 1.399 . S
C425 C424 1.399 . S
C425 C428 1.396 . S
C425 C437 1.453 . S
C425 C438 1.684 . S
H426 C450 0.948 . S
C427 C423 1.397 . S
C427 C428 1.394 . S
C427 C446 1.723 . S
C428 C425 1.396 . S
C428 C427 1.394 . S
C428 C458 1.723 . S
H429 C452 0.947 . S
H430 C453 0.948 . S
H431 C459 0.982 . S
H432 C460 0.979 . S
H433 C460 0.980 . S
H434 C460 0.983 . S
H435 C459 0.979 . S
H436 C459 0.977 . S
C437 C425 1.453 . S
C437 H466 0.982 . S
C437 H467 0.979 . S
C437 H468 0.977 . S
C438 C425 1.684 . S
C438 H463 0.979 . S
C438 H464 0.980 . S
C438 H465 0.983 . S
C439 C440 1.391 . S
C439 C444 1.391 . S
C439 H469 0.948 . S
C440 C439 1.391 . S
C440 C441 1.391 . S
C441 C440 1.391 . S
C441 C442 1.392 . S
C441 H470 0.947 . S
C442 C441 1.392 . S
C442 C443 1.419 . S
C442 H471 0.948 . S
C443 C442 1.419 . S
C443 C444 1.391 . S
C443 C447 1.397 . S
C444 C439 1.391 . S
C444 C443 1.391 . S
C444 C445 1.399 . S
C445 C444 1.399 . S
C445 C446 1.396 . S
C445 C448 1.453 . S
C445 C449 1.684 . S
C446 C427 1.723 . S
C446 C445 1.396 . S
C446 C447 1.394 . S
C447 C443 1.397 . S
C447 C446 1.394 . S
C447 C457 1.723 . S
C448 C445 1.453 . S
C448 H472 0.982 . S
C448 H473 0.979 . S
C448 H474 0.977 . S
C449 C445 1.684 . S
C449 H475 0.979 . S
C449 H476 0.980 . S
C449 H477 0.983 . S
C450 H426 0.948 . S
C450 C451 1.391 . S
C450 C455 1.391 . S
C451 C450 1.391 . S
C451 C452 1.391 . S
C452 H429 0.947 . S
C452 C451 1.391 . S
C452 C453 1.392 . S
C453 H430 0.948 . S
C453 C452 1.392 . S
C453 C454 1.419 . S
C454 C453 1.419 . S
C454 C455 1.391 . S
C454 C458 1.397 . S
C455 C450 1.391 . S
C455 C454 1.391 . S
C455 C456 1.399 . S
C456 C455 1.399 . S
C456 C457 1.396 . S
C456 C459 1.453 . S
C456 C460 1.684 . S
C457 C447 1.723 . S
C457 C456 1.396 . S
C457 C458 1.394 . S
C458 C428 1.723 . S
C458 C454 1.397 . S
C458 C457 1.394 . S
C459 H431 0.982 . S
C459 H435 0.979 . S
C459 H436 0.977 . S
C459 C456 1.453 . S
C460 H432 0.979 . S
C460 H433 0.980 . S
C460 H434 0.983 . S
C460 C456 1.684 . S
H461 C479 0.948 . S
H462 C420 0.948 . S
H463 C438 0.979 . S
H464 C438 0.980 . S
H465 C438 0.983 . S
H466 C437 0.982 . S
H467 C437 0.979 . S
H468 C437 0.977 . S
H469 C439 0.948 . S
H470 C441 0.947 . S
H471 C442 0.948 . S
H472 C448 0.982 . S
H473 C448 0.979 . S
H474 C448 0.977 . S
H475 C449 0.979 . S
H476 C449 0.980 . S
H477 C449 0.983 . S
H478 C422 0.947 . S
C479 C422 1.392 . S
C479 C423 1.419 . S
C479 H461 0.948 . S
Dy480 O483 2.307 1_545 S
Dy480 O485 2.395 . S
Dy480 O486 2.379 . S
Dy480 O488 2.339 1_545 S
Dy480 O490 2.284 1_455 S
Dy480 O494 2.275 . S
Dy480 C502 2.738 . S
Dy481 O484 2.274 1_655 S
Dy481 O487 2.275 . S
Dy481 O489 2.307 1_565 S
Dy481 O491 2.395 . S
Dy481 O492 2.379 . S
Dy481 O495 2.339 1_565 S
Dy481 C511 2.738 . S
C482 O494 1.254 . S
C482 O495 1.257 1_455 S
O483 Dy480 2.307 1_565 S
O483 C493 1.266 . S
O484 Dy481 2.274 1_455 S
O484 C493 1.261 . S
O485 Dy480 2.395 . S
O485 C502 1.255 . S
O486 Dy480 2.379 . S
O486 C502 1.249 . S
O487 Dy481 2.275 . S
O487 C503 1.254 . S
O488 Dy480 2.339 1_565 S
O488 C503 1.257 1_455 S
O489 Dy481 2.307 1_545 S
O489 C504 1.266 . S
O490 Dy480 2.284 1_655 S
O490 C504 1.250 . S
O491 Dy481 2.395 . S
O491 C511 1.255 . S
O492 Dy481 2.379 . S
O492 C511 1.249 . S
C493 O483 1.266 . S
C493 O484 1.261 . S
O494 Dy480 2.275 . S
O494 C482 1.254 . S
O495 Dy481 2.339 1_545 S
O495 C482 1.257 1_655 S
C496 C499 1.344 . S
C496 C500 1.328 . S
C496 C502 1.516 . S
C497 C498 1.304 . S
C497 C501 1.323 . S
C498 C497 1.304 . S
C498 C499 1.371 . S
C498 H512 0.930 . S
C499 C496 1.344 . S
C499 C498 1.371 . S
C499 H513 0.931 . S
C500 C496 1.328 . S
C500 C501 1.433 . S
C500 H514 0.931 . S
C501 C497 1.323 . S
C501 C500 1.433 . S
C501 H515 0.933 . S
C502 Dy480 2.738 . S
C502 O485 1.255 . S
C502 O486 1.249 . S
C502 C496 1.516 . S
C503 O487 1.254 . S
C503 O488 1.257 1_655 S
C504 O489 1.266 . S
C504 O490 1.250 . S
C505 C508 1.344 . S
C505 C509 1.328 . S
C505 C511 1.516 . S
C506 C507 1.304 . S
C506 C510 1.323 . S
C507 C506 1.304 . S
C507 C508 1.371 . S
C507 H516 0.930 . S
C508 C505 1.344 . S
C508 C507 1.371 . S
C508 H517 0.931 . S
C509 C505 1.328 . S
C509 C510 1.433 . S
C509 H518 0.931 . S
C510 C506 1.323 . S
C510 C509 1.433 . S
C510 H519 0.933 . S
C511 Dy481 2.738 . S
C511 O491 1.255 . S
C511 O492 1.249 . S
C511 C505 1.516 . S
H512 C498 0.930 . S
H513 C499 0.931 . S
H514 C500 0.931 . S
H515 C501 0.933 . S
H516 C507 0.930 . S
H517 C508 0.931 . S
H518 C509 0.931 . S
H519 C510 0.933 . S
Dy520 O523 2.307 1_566 S
Dy520 O525 2.395 . S
Dy520 O526 2.379 . S
Dy520 O528 2.339 1_565 S
Dy520 O530 2.298 . S
Dy520 O534 2.275 1_556 S
Dy520 C542 2.738 . S
Dy521 O524 2.298 . S
Dy521 O527 2.275 1_554 S
Dy521 O529 2.307 1_544 S
Dy521 O531 2.395 . S
Dy521 O532 2.379 . S
Dy521 O535 2.339 1_545 S
Dy521 C551 2.738 . S
C522 O534 1.254 . S
C522 O535 1.257 . S
O523 Dy520 2.307 1_544 S
O523 C533 1.266 . S
O524 Dy521 2.298 . S
O524 C533 1.236 . S
O525 Dy520 2.395 . S
O525 C542 1.255 . S
O526 Dy520 2.379 . S
O526 C542 1.249 . S
O527 Dy521 2.275 1_556 S
O527 C543 1.254 . S
O528 Dy520 2.339 1_545 S
O528 C543 1.257 . S
O529 Dy521 2.307 1_566 S
O529 C544 1.266 . S
O530 Dy520 2.298 . S
O530 C544 1.236 . S
O531 Dy521 2.395 . S
O531 C551 1.255 . S
O532 Dy521 2.379 . S
O532 C551 1.249 . S
C533 O523 1.266 . S
C533 O524 1.236 . S
O534 Dy520 2.275 1_554 S
O534 C522 1.254 . S
O535 Dy521 2.339 1_565 S
O535 C522 1.257 . S
C536 C539 1.344 . S
C536 C540 1.328 . S
C536 C542 1.516 . S
C537 C538 1.304 . S
C537 C541 1.323 . S
C538 C537 1.304 . S
C538 C539 1.371 . S
C538 H552 0.930 . S
C539 C536 1.344 . S
C539 C538 1.371 . S
C539 H553 0.931 . S
C540 C536 1.328 . S
C540 C541 1.433 . S
C540 H554 0.931 . S
C541 C537 1.323 . S
C541 C540 1.433 . S
C541 H555 0.933 . S
C542 Dy520 2.738 . S
C542 O525 1.255 . S
C542 O526 1.249 . S
C542 C536 1.516 . S
C543 O527 1.254 . S
C543 O528 1.257 . S
C544 O529 1.266 . S
C544 O530 1.236 . S
C545 C548 1.344 . S
C545 C549 1.328 . S
C545 C551 1.516 . S
C546 C547 1.304 . S
C546 C550 1.323 . S
C547 C546 1.304 . S
C547 C548 1.371 . S
C547 H556 0.930 . S
C548 C545 1.344 . S
C548 C547 1.371 . S
C548 H557 0.931 . S
C549 C545 1.328 . S
C549 C550 1.433 . S
C549 H558 0.931 . S
C550 C546 1.323 . S
C550 C549 1.433 . S
C550 H559 0.933 . S
C551 Dy521 2.738 . S
C551 O531 1.255 . S
C551 O532 1.249 . S
C551 C545 1.516 . S
H552 C538 0.930 . S
H553 C539 0.931 . S
H554 C540 0.931 . S
H555 C541 0.933 . S
H556 C547 0.930 . S
H557 C548 0.931 . S
H558 C549 0.931 . S
H559 C550 0.933 . S
Dy560 O563 2.307 . S
Dy560 O565 2.395 . S
Dy560 O566 2.379 . S
Dy560 O568 2.339 . S
Dy560 O570 2.298 . S
Dy560 O574 2.275 . S
Dy560 C582 2.738 . S
Dy561 O564 2.298 . S
Dy561 O567 2.275 . S
Dy561 O569 2.307 . S
Dy561 O571 2.395 . S
Dy561 O572 2.379 . S
Dy561 O575 2.339 . S
Dy561 C591 2.738 . S
C562 O574 1.254 . S
C562 O575 1.257 . S
O563 Dy560 2.307 . S
O563 C573 1.266 . S
O564 Dy561 2.298 . S
O564 C573 1.236 . S
O565 Dy560 2.395 . S
O565 C582 1.255 . S
O566 Dy560 2.379 . S
O566 C582 1.249 . S
O567 Dy561 2.275 . S
O567 C583 1.254 . S
O568 Dy560 2.339 . S
O568 C583 1.257 . S
O569 Dy561 2.307 . S
O569 C584 1.266 . S
O570 Dy560 2.298 . S
O570 C584 1.236 . S
O571 Dy561 2.395 . S
O571 C591 1.255 . S
O572 Dy561 2.379 . S
O572 C591 1.249 . S
C573 O563 1.266 . S
C573 O564 1.236 . S
O574 Dy560 2.275 . S
O574 C562 1.254 . S
O575 Dy561 2.339 . S
O575 C562 1.257 . S
C576 C579 1.344 . S
C576 C580 1.328 . S
C576 C582 1.516 . S
C577 C578 1.304 . S
C577 C581 1.323 . S
C578 C577 1.304 . S
C578 C579 1.371 . S
C578 H592 0.930 . S
C579 C576 1.344 . S
C579 C578 1.371 . S
C579 H593 0.931 . S
C580 C576 1.328 . S
C580 C581 1.433 . S
C580 H594 0.931 . S
C581 C577 1.323 . S
C581 C580 1.433 . S
C581 H595 0.933 . S
C582 Dy560 2.738 . S
C582 O565 1.255 . S
C582 O566 1.249 . S
C582 C576 1.516 . S
C583 O567 1.254 . S
C583 O568 1.257 . S
C584 O569 1.266 . S
C584 O570 1.236 . S
C585 C588 1.344 . S
C585 C589 1.328 . S
C585 C591 1.516 . S
C586 C587 1.304 . S
C586 C590 1.323 . S
C587 C586 1.304 . S
C587 C588 1.371 . S
C587 H596 0.930 . S
C588 C585 1.344 . S
C588 C587 1.371 . S
C588 H597 0.931 . S
C589 C585 1.328 . S
C589 C590 1.433 . S
C589 H598 0.931 . S
C590 C586 1.323 . S
C590 C589 1.433 . S
C590 H599 0.933 . S
C591 Dy561 2.738 . S
C591 O571 1.255 . S
C591 O572 1.249 . S
C591 C585 1.516 . S
H592 C578 0.930 . S
H593 C579 0.931 . S
H594 C580 0.931 . S
H595 C581 0.933 . S
H596 C587 0.930 . S
H597 C588 0.931 . S
H598 C589 0.931 . S
H599 C590 0.933 . S
Dy600 O603 2.309 1_656 S
Dy600 O605 2.395 . S
Dy600 O606 2.379 . S
Dy600 O608 2.339 1_655 S
Dy600 O610 2.298 . S
Dy600 O614 2.275 1_556 S
Dy600 C622 2.738 . S
Dy601 O604 2.298 . S
Dy601 O607 2.275 1_554 S
Dy601 O609 2.309 1_455 S
Dy601 O611 2.395 . S
Dy601 O612 2.379 . S
Dy601 O615 2.339 1_455 S
Dy601 C631 2.738 . S
C602 O614 1.254 . S
C602 O615 1.257 . S
O603 Dy600 2.309 1_454 S
O603 C613 1.264 . S
O604 Dy601 2.298 . S
O604 C613 1.236 . S
O605 Dy600 2.395 . S
O605 C622 1.255 . S
O606 Dy600 2.379 . S
O606 C622 1.249 . S
O607 Dy601 2.275 1_556 S
O607 C623 1.254 . S
O608 Dy600 2.339 1_455 S
O608 C623 1.257 . S
O609 Dy601 2.309 1_655 S
O609 C624 1.264 1_554 S
O610 Dy600 2.298 . S
O610 C624 1.236 . S
O611 Dy601 2.395 . S
O611 C631 1.255 . S
O612 Dy601 2.379 . S
O612 C631 1.249 . S
C613 O603 1.264 . S
C613 O604 1.236 . S
O614 Dy600 2.275 1_554 S
O614 C602 1.254 . S
O615 Dy601 2.339 1_655 S
O615 C602 1.257 . S
C616 C619 1.344 . S
C616 C620 1.328 . S
C616 C622 1.516 . S
C617 C618 1.304 . S
C617 C621 1.323 . S
C618 C617 1.304 . S
C618 C619 1.371 . S
C618 H632 0.930 . S
C619 C616 1.344 . S
C619 C618 1.371 . S
C619 H633 0.931 . S
C620 C616 1.328 . S
C620 C621 1.433 . S
C620 H634 0.931 . S
C621 C617 1.323 . S
C621 C620 1.433 . S
C621 H635 0.933 . S
C622 Dy600 2.738 . S
C622 O605 1.255 . S
C622 O606 1.249 . S
C622 C616 1.516 . S
C623 O607 1.254 . S
C623 O608 1.257 . S
C624 O609 1.264 1_556 S
C624 O610 1.236 . S
C625 C628 1.344 . S
C625 C629 1.328 . S
C625 C631 1.516 . S
C626 C627 1.304 . S
C626 C630 1.323 . S
C627 C626 1.304 . S
C627 C628 1.371 . S
C627 H636 0.930 . S
C628 C625 1.344 . S
C628 C627 1.371 . S
C628 H637 0.931 . S
C629 C625 1.328 . S
C629 C630 1.433 . S
C629 H638 0.931 . S
C630 C626 1.323 . S
C630 C629 1.433 . S
C630 H639 0.933 . S
C631 Dy601 2.738 . S
C631 O611 1.255 . S
C631 O612 1.249 . S
C631 C625 1.516 . S
H632 C618 0.930 . S
H633 C619 0.931 . S
H634 C620 0.931 . S
H635 C621 0.933 . S
H636 C627 0.930 . S
H637 C628 0.931 . S
H638 C629 0.931 . S
H639 C630 0.933 . S
C640 C641 1.363 . S
C640 C646 1.379 . S
C640 N648 1.356 . S
C641 C640 1.363 . S
C641 C647 1.363 . S
C642 C643 1.363 . S
C642 C647 1.379 . S
C642 N649 1.356 . S
C643 C642 1.363 . S
C643 C646 1.363 . S
N644 C646 1.356 . S
N644 H656 0.984 . S
N644 H657 0.985 . S
N645 C647 1.356 . S
N645 H650 0.984 . S
N645 H651 0.985 . S
C646 C640 1.379 . S
C646 C643 1.363 . S
C646 N644 1.356 . S
C647 C641 1.363 . S
C647 C642 1.379 . S
C647 N645 1.356 . S
N648 C640 1.356 . S
N648 H654 0.984 . S
N648 H655 0.984 . S
N649 C642 1.356 . S
N649 H652 0.984 . S
N649 H653 0.985 . S
H650 N645 0.984 . S
H651 N645 0.985 . S
H652 N649 0.984 . S
H653 N649 0.985 . S
H654 N648 0.984 . S
H655 N648 0.984 . S
H656 N644 0.984 . S
H657 N644 0.985 . S
C658 C659 1.363 . S
C658 C664 1.379 . S
C658 N666 1.356 . S
C659 C658 1.363 . S
C659 C665 1.363 . S
C660 C661 1.363 . S
C660 C665 1.379 . S
C660 N667 1.356 . S
C661 C660 1.363 . S
C661 C664 1.363 . S
N662 C664 1.356 . S
N662 H674 0.984 . S
N662 H675 0.985 . S
N663 C665 1.356 . S
N663 H668 0.984 . S
N663 H669 0.985 . S
C664 C658 1.379 . S
C664 C661 1.363 . S
C664 N662 1.356 . S
C665 C659 1.363 . S
C665 C660 1.379 . S
C665 N663 1.356 . S
N666 C658 1.356 . S
N666 H672 0.984 . S
N666 H673 0.984 . S
N667 C660 1.356 . S
N667 H670 0.984 . S
N667 H671 0.985 . S
H668 N663 0.984 . S
H669 N663 0.985 . S
H670 N667 0.984 . S
H671 N667 0.985 . S
H672 N666 0.984 . S
H673 N666 0.984 . S
H674 N662 0.984 . S
H675 N662 0.985 . S
C676 C677 1.363 . S
C676 C682 1.379 . S
C676 N684 1.356 . S
C677 C676 1.363 . S
C677 C683 1.363 . S
C678 C679 1.363 . S
C678 C683 1.379 . S
C678 N685 1.356 . S
C679 C678 1.363 . S
C679 C682 1.363 . S
N680 C682 1.356 . S
N680 H692 0.984 . S
N680 H693 0.985 . S
N681 C683 1.356 . S
N681 H686 0.984 . S
N681 H687 0.985 . S
C682 C676 1.379 . S
C682 C679 1.363 . S
C682 N680 1.356 . S
C683 C677 1.363 . S
C683 C678 1.379 . S
C683 N681 1.356 . S
N684 C676 1.356 . S
N684 H690 0.984 . S
N684 H691 0.984 . S
N685 C678 1.356 . S
N685 H688 0.984 . S
N685 H689 0.985 . S
H686 N681 0.984 . S
H687 N681 0.985 . S
H688 N685 0.984 . S
H689 N685 0.985 . S
H690 N684 0.984 . S
H691 N684 0.984 . S
H692 N680 0.984 . S
H693 N680 0.985 . S
C694 C695 1.363 . S
C694 C700 1.379 . S
C694 N702 1.356 . S
C695 C694 1.363 . S
C695 C701 1.363 . S
C696 C697 1.363 . S
C696 C701 1.379 . S
C696 N703 1.356 . S
C697 C696 1.363 . S
C697 C700 1.363 . S
N698 C700 1.356 . S
N698 H710 0.984 1_655 S
N698 H711 0.985 . S
N699 C701 1.356 . S
N699 H704 0.984 . S
N699 H705 0.985 . S
C700 C694 1.379 . S
C700 C697 1.363 . S
C700 N698 1.356 . S
C701 C695 1.363 . S
C701 C696 1.379 . S
C701 N699 1.356 . S
N702 C694 1.356 . S
N702 H708 0.984 . S
N702 H709 0.984 . S
N703 C696 1.356 . S
N703 H706 0.984 . S
N703 H707 0.985 . S
H704 N699 0.984 . S
H705 N699 0.985 . S
H706 N703 0.984 . S
H707 N703 0.985 . S
H708 N702 0.984 . S
H709 N702 0.984 . S
H710 N698 0.984 1_455 S
H711 N698 0.985 . S
C712 C713 1.363 . S
C712 C718 1.379 . S
C712 N720 1.356 . S
C713 C712 1.363 . S
C713 C719 1.363 . S
C714 C715 1.363 . S
C714 C719 1.379 . S
C714 N721 1.356 . S
C715 C714 1.363 . S
C715 C718 1.363 . S
N716 C718 1.356 . S
N716 H728 0.984 . S
N716 H729 0.985 . S
N717 C719 1.356 . S
N717 H722 0.984 . S
N717 H723 0.985 . S
C718 C712 1.379 . S
C718 C715 1.363 . S
C718 N716 1.356 . S
C719 C713 1.363 . S
C719 C714 1.379 . S
C719 N717 1.356 . S
N720 C712 1.356 . S
N720 H726 0.984 . S
N720 H727 0.984 . S
N721 C714 1.356 . S
N721 H724 0.984 . S
N721 H725 0.985 . S
H722 N717 0.984 . S
H723 N717 0.985 . S
H724 N721 0.984 . S
H725 N721 0.985 . S
H726 N720 0.984 . S
H727 N720 0.984 . S
H728 N716 0.984 . S
H729 N716 0.985 . S
C730 C731 1.380 . S
C730 C736 1.377 . S
C730 N738 1.345 1_455 S
C731 C730 1.380 . S
C731 C737 1.363 . S
C732 C733 1.363 . S
C732 C737 1.379 . S
C732 N739 1.356 . S
C733 C732 1.363 . S
C733 C736 1.363 . S
N734 C736 1.356 1_655 S
N734 H746 0.984 . S
N734 H747 0.988 . S
N735 C737 1.356 . S
N735 H740 0.984 . S
N735 H741 0.985 . S
C736 C730 1.377 . S
C736 C733 1.363 . S
C736 N734 1.356 1_455 S
C737 C731 1.363 . S
C737 C732 1.379 . S
C737 N735 1.356 . S
N738 C730 1.345 1_655 S
N738 H744 0.984 . S
N738 H745 0.984 . S
N739 C732 1.356 . S
N739 H742 0.984 . S
N739 H743 0.985 . S
H740 N735 0.984 . S
H741 N735 0.985 . S
H742 N739 0.984 . S
H743 N739 0.985 . S
H744 N738 0.984 . S
H745 N738 0.984 . S
H746 N734 0.984 . S
H747 N734 0.988 . S
C748 C749 1.363 . S
C748 C754 1.379 . S
C748 N756 1.356 . S
C749 C748 1.363 . S
C749 C755 1.363 . S
C750 C751 1.363 . S
C750 C755 1.379 . S
C750 N757 1.356 . S
C751 C750 1.363 . S
C751 C754 1.363 . S
N752 C754 1.356 . S
N752 H764 0.984 . S
N752 H765 0.986 . S
N753 C755 1.356 . S
N753 H758 0.984 . S
N753 H759 0.985 . S
C754 C748 1.379 . S
C754 C751 1.363 . S
C754 N752 1.356 . S
C755 C749 1.363 . S
C755 C750 1.379 . S
C755 N753 1.356 . S
N756 C748 1.356 . S
N756 H762 0.984 . S
N756 H763 0.984 . S
N757 C750 1.356 . S
N757 H760 0.984 . S
N757 H761 0.985 . S
H758 N753 0.984 . S
H759 N753 0.985 . S
H760 N757 0.984 . S
H761 N757 0.985 . S
H762 N756 0.984 . S
H763 N756 0.984 . S
H764 N752 0.984 . S
H765 N752 0.986 . S
C766 C767 1.363 . S
C766 C772 1.379 . S
C766 N774 1.356 . S
C767 C766 1.363 . S
C767 C773 1.363 . S
C768 C769 1.363 . S
C768 C773 1.379 . S
C768 N775 1.356 . S
C769 C768 1.363 . S
C769 C772 1.363 . S
N770 C772 1.356 . S
N770 H782 0.984 . S
N770 H783 0.985 . S
N771 C773 1.356 . S
N771 H776 0.984 . S
N771 H777 0.985 . S
C772 C766 1.379 . S
C772 C769 1.363 . S
C772 N770 1.356 . S
C773 C767 1.363 . S
C773 C768 1.379 . S
C773 N771 1.356 . S
N774 C766 1.356 . S
N774 H780 0.984 . S
N774 H781 0.984 . S
N775 C768 1.356 . S
N775 H778 0.984 . S
N775 H779 0.985 . S
H776 N771 0.984 . S
H777 N771 0.985 . S
H778 N775 0.984 . S
H779 N775 0.985 . S
H780 N774 0.984 . S
H781 N774 0.984 . S
H782 N770 0.984 . S
H783 N770 0.985 . S
C784 C785 1.363 . S
C784 C790 1.379 . S
C784 N792 1.356 . S
C785 C784 1.363 . S
C785 C791 1.363 . S
C786 C787 1.363 . S
C786 C791 1.379 . S
C786 N793 1.356 . S
C787 C786 1.363 . S
C787 C790 1.363 . S
N788 C790 1.356 . S
N788 H800 0.984 . S
N788 H801 0.985 . S
N789 C791 1.356 . S
N789 H794 0.984 . S
N789 H795 0.985 . S
C790 C784 1.379 . S
C790 C787 1.363 . S
C790 N788 1.356 . S
C791 C785 1.363 . S
C791 C786 1.379 . S
C791 N789 1.356 . S
N792 C784 1.356 . S
N792 H798 0.984 . S
N792 H799 0.984 . S
N793 C786 1.356 . S
N793 H796 0.984 . S
N793 H797 0.985 . S
H794 N789 0.984 . S
H795 N789 0.985 . S
H796 N793 0.984 . S
H797 N793 0.985 . S
H798 N792 0.984 . S
H799 N792 0.984 . S
H800 N788 0.984 . S
H801 N788 0.985 . S
C802 C803 1.363 . S
C802 C808 1.379 . S
C802 N810 1.356 . S
C803 C802 1.363 . S
C803 C809 1.363 . S
C804 C805 1.363 . S
C804 C809 1.379 . S
C804 N811 1.356 . S
C805 C804 1.363 . S
C805 C808 1.363 . S
N806 C808 1.356 . S
N806 H818 0.984 . S
N806 H819 0.985 . S
N807 C809 1.356 . S
N807 H812 0.984 . S
N807 H813 0.985 . S
C808 C802 1.379 . S
C808 C805 1.363 . S
C808 N806 1.356 . S
C809 C803 1.363 . S
C809 C804 1.379 . S
C809 N807 1.356 . S
N810 C802 1.356 . S
N810 H816 0.984 . S
N810 H817 0.984 . S
N811 C804 1.356 . S
N811 H814 0.984 . S
N811 H815 0.985 . S
H812 N807 0.984 . S
H813 N807 0.985 . S
H814 N811 0.984 . S
H815 N811 0.985 . S
H816 N810 0.984 . S
H817 N810 0.984 . S
H818 N806 0.984 . S
H819 N806 0.985 . S
C820 C821 1.363 . S
C820 C826 1.379 . S
C820 N828 1.356 . S
C821 C820 1.363 . S
C821 C827 1.363 . S
C822 C823 1.363 . S
C822 C827 1.379 . S
C822 N829 1.356 . S
C823 C822 1.363 . S
C823 C826 1.363 . S
N824 C826 1.356 . S
N824 H836 0.984 . S
N824 H837 0.985 . S
N825 C827 1.356 . S
N825 H830 0.984 . S
N825 H831 0.985 . S
C826 C820 1.379 . S
C826 C823 1.363 . S
C826 N824 1.356 . S
C827 C821 1.363 . S
C827 C822 1.379 . S
C827 N825 1.356 . S
N828 C820 1.356 . S
N828 H834 0.984 . S
N828 H835 0.984 . S
N829 C822 1.356 . S
N829 H832 0.984 . S
N829 H833 0.985 1_655 S
H830 N825 0.984 . S
H831 N825 0.985 . S
H832 N829 0.984 . S
H833 N829 0.985 1_455 S
H834 N828 0.984 . S
H835 N828 0.984 . S
H836 N824 0.984 . S
H837 N824 0.985 . S
C838 C839 1.363 . S
C838 C844 1.379 . S
C838 N846 1.356 . S
C839 C838 1.363 . S
C839 C845 1.363 . S
C840 C841 1.363 . S
C840 C845 1.379 . S
C840 N847 1.356 . S
C841 C840 1.363 . S
C841 C844 1.363 . S
N842 C844 1.356 . S
N842 H854 0.984 . S
N842 H855 0.985 . S
N843 C845 1.356 . S
N843 H848 0.984 . S
N843 H849 0.985 . S
C844 C838 1.379 . S
C844 C841 1.363 . S
C844 N842 1.356 . S
C845 C839 1.363 . S
C845 C840 1.379 . S
C845 N843 1.356 . S
N846 C838 1.356 . S
N846 H852 0.984 . S
N846 H853 0.984 . S
N847 C840 1.356 . S
N847 H850 0.984 . S
N847 H851 0.985 . S
H848 N843 0.984 . S
H849 N843 0.985 . S
H850 N847 0.984 . S
H851 N847 0.985 . S
H852 N846 0.984 . S
H853 N846 0.984 . S
H854 N842 0.984 . S
H855 N842 0.985 . S
C856 C857 1.363 . S
C856 C862 1.379 . S
C856 N864 1.356 . S
C857 C856 1.363 . S
C857 C863 1.363 . S
C858 C859 1.363 . S
C858 C863 1.379 . S
C858 N865 1.356 . S
C859 C858 1.363 . S
C859 C862 1.363 . S
N860 C862 1.356 . S
N860 H872 0.984 . S
N860 H873 0.985 . S
N861 C863 1.356 . S
N861 H866 0.984 . S
N861 H867 0.985 . S
C862 C856 1.379 . S
C862 C859 1.363 . S
C862 N860 1.356 . S
C863 C857 1.363 . S
C863 C858 1.379 . S
C863 N861 1.356 . S
N864 C856 1.356 . S
N864 H870 0.984 . S
N864 H871 0.984 . S
N865 C858 1.356 . S
N865 H868 0.984 . S
N865 H869 0.985 . S
H866 N861 0.984 . S
H867 N861 0.985 . S
H868 N865 0.984 . S
H869 N865 0.985 . S
H870 N864 0.984 . S
H871 N864 0.984 . S
H872 N860 0.984 . S
H873 N860 0.985 . S
C874 C875 1.363 . S
C874 C880 1.379 . S
C874 N882 1.356 . S
C875 C874 1.363 . S
C875 C881 1.363 . S
C876 C877 1.363 . S
C876 C881 1.379 . S
C876 N883 1.356 . S
C877 C876 1.363 . S
C877 C880 1.363 . S
N878 C880 1.356 . S
N878 H890 0.984 . S
N878 H891 0.985 . S
N879 C881 1.356 . S
N879 H884 0.984 . S
N879 H885 0.985 . S
C880 C874 1.379 . S
C880 C877 1.363 . S
C880 N878 1.356 . S
C881 C875 1.363 . S
C881 C876 1.379 . S
C881 N879 1.356 . S
N882 C874 1.356 . S
N882 H888 0.984 . S
N882 H889 0.984 . S
N883 C876 1.356 . S
N883 H886 0.984 . S
N883 H887 0.985 . S
H884 N879 0.984 . S
H885 N879 0.985 . S
H886 N883 0.984 . S
H887 N883 0.985 . S
H888 N882 0.984 . S
H889 N882 0.984 . S
H890 N878 0.984 . S
H891 N878 0.985 . S
C892 C893 1.363 . S
C892 C898 1.379 . S
C892 N900 1.356 . S
C893 C892 1.363 . S
C893 C899 1.363 . S
C894 C895 1.363 . S
C894 C899 1.379 . S
C894 N901 1.356 . S
C895 C894 1.363 . S
C895 C898 1.363 . S
N896 C898 1.356 . S
N896 H908 0.984 . S
N896 H909 0.985 . S
N897 C899 1.356 . S
N897 H902 0.984 . S
N897 H903 0.985 . S
C898 C892 1.379 . S
C898 C895 1.363 . S
C898 N896 1.356 . S
C899 C893 1.363 . S
C899 C894 1.379 . S
C899 N897 1.356 . S
N900 C892 1.356 . S
N900 H906 0.984 . S
N900 H907 0.984 . S
N901 C894 1.356 . S
N901 H904 0.984 . S
N901 H905 0.985 . S
H902 N897 0.984 . S
H903 N897 0.985 . S
H904 N901 0.984 . S
H905 N901 0.985 . S
H906 N900 0.984 . S
H907 N900 0.984 . S
H908 N896 0.984 . S
H909 N896 0.985 . S
C910 C911 1.363 . S
C910 C916 1.379 . S
C910 N918 1.356 . S
C911 C910 1.363 . S
C911 C917 1.363 . S
C912 C913 1.363 . S
C912 C917 1.379 . S
C912 N919 1.356 . S
C913 C912 1.363 . S
C913 C916 1.363 . S
N914 C916 1.356 . S
N914 H926 0.984 . S
N914 H927 0.985 . S
N915 C917 1.356 . S
N915 H920 0.984 . S
N915 H921 0.985 . S
C916 C910 1.379 . S
C916 C913 1.363 . S
C916 N914 1.356 . S
C917 C911 1.363 . S
C917 C912 1.379 . S
C917 N915 1.356 . S
N918 C910 1.356 . S
N918 H924 0.984 . S
N918 H925 0.984 . S
N919 C912 1.356 . S
N919 H922 0.984 . S
N919 H923 0.985 . S
H920 N915 0.984 . S
H921 N915 0.985 . S
H922 N919 0.984 . S
H923 N919 0.985 . S
H924 N918 0.984 . S
H925 N918 0.984 . S
H926 N914 0.984 . S
H927 N914 0.985 . S
C928 C929 1.363 . S
C928 C934 1.379 . S
C928 N936 1.356 . S
C929 C928 1.363 . S
C929 C935 1.363 . S
C930 C931 1.363 . S
C930 C935 1.379 . S
C930 N937 1.356 . S
C931 C930 1.363 . S
C931 C934 1.363 . S
N932 C934 1.356 . S
N932 H944 0.984 . S
N932 H945 0.985 . S
N933 C935 1.356 . S
N933 H938 0.984 . S
N933 H939 0.985 . S
C934 C928 1.379 . S
C934 C931 1.363 . S
C934 N932 1.356 . S
C935 C929 1.363 . S
C935 C930 1.379 . S
C935 N933 1.356 . S
N936 C928 1.356 . S
N936 H942 0.984 . S
N936 H943 0.984 . S
N937 C930 1.356 . S
N937 H940 0.984 . S
N937 H941 0.985 . S
H938 N933 0.984 . S
H939 N933 0.985 . S
H940 N937 0.984 . S
H941 N937 0.985 . S
H942 N936 0.984 . S
H943 N936 0.984 . S
H944 N932 0.984 . S
H945 N932 0.985 . S
C946 C947 1.363 . S
C946 C952 1.379 . S
C946 N954 1.356 . S
C947 C946 1.363 . S
C947 C953 1.363 . S
C948 C949 1.363 . S
C948 C953 1.379 . S
C948 N955 1.356 . S
C949 C948 1.363 . S
C949 C952 1.363 . S
N950 C952 1.356 . S
N950 H962 0.984 . S
N950 H963 0.985 . S
N951 C953 1.356 . S
N951 H956 0.984 . S
N951 H957 0.985 . S
C952 C946 1.379 . S
C952 C949 1.363 . S
C952 N950 1.356 . S
C953 C947 1.363 . S
C953 C948 1.379 . S
C953 N951 1.356 . S
N954 C946 1.356 . S
N954 H960 0.984 1_655 S
N954 H961 0.984 . S
N955 C948 1.356 . S
N955 H958 0.984 . S
N955 H959 0.985 . S
H956 N951 0.984 . S
H957 N951 0.985 . S
H958 N955 0.984 . S
H959 N955 0.985 . S
H960 N954 0.984 1_455 S
H961 N954 0.984 . S
H962 N950 0.984 . S
H963 N950 0.985 . S
C964 C965 1.363 . S
C964 C970 1.379 . S
C964 N972 1.356 . S
C965 C964 1.363 . S
C965 C971 1.363 . S
C966 C967 1.363 . S
C966 C971 1.379 . S
C966 N973 1.356 . S
C967 C966 1.363 . S
C967 C970 1.363 . S
N968 C970 1.356 . S
N968 H980 0.984 . S
N968 H981 0.985 . S
N969 C971 1.356 . S
N969 H974 0.984 . S
N969 H975 0.985 . S
C970 C964 1.379 . S
C970 C967 1.363 . S
C970 N968 1.356 . S
C971 C965 1.363 . S
C971 C966 1.379 . S
C971 N969 1.356 . S
N972 C964 1.356 . S
N972 H978 0.984 . S
N972 H979 0.984 . S
N973 C966 1.356 . S
N973 H976 0.984 1_554 S
N973 H977 0.985 1_554 S
H974 N969 0.984 . S
H975 N969 0.985 . S
H976 N973 0.984 1_556 S
H977 N973 0.985 1_556 S
H978 N972 0.984 . S
H979 N972 0.984 . S
H980 N968 0.984 . S
H981 N968 0.985 . S
C982 C983 1.363 . S
C982 C988 1.379 . S
C982 N990 1.356 . S
C983 C982 1.363 . S
C983 C989 1.363 . S
C984 C985 1.363 . S
C984 C989 1.379 . S
C984 N991 1.356 . S
C985 C984 1.363 . S
C985 C988 1.363 . S
N986 C988 1.356 . S
N986 H998 0.984 . S
N986 H999 0.985 . S
N987 C989 1.356 . S
N987 H992 0.984 . S
N987 H993 0.985 . S
C988 C982 1.379 . S
C988 C985 1.363 . S
C988 N986 1.356 . S
C989 C983 1.363 . S
C989 C984 1.379 . S
C989 N987 1.356 . S
N990 C982 1.356 . S
N990 H996 0.984 . S
N990 H997 0.984 . S
N991 C984 1.356 . S
N991 H994 0.984 . S
N991 H995 0.985 . S
H992 N987 0.984 . S
H993 N987 0.985 . S
H994 N991 0.984 . S
H995 N991 0.985 . S
H996 N990 0.984 . S
H997 N990 0.984 . S
H998 N986 0.984 . S
H999 N986 0.985 . S
C1000 C1001 1.363 . S
C1000 C1006 1.379 . S
C1000 N1008 1.356 . S
C1001 C1000 1.363 . S
C1001 C1007 1.363 . S
C1002 C1003 1.363 . S
C1002 C1007 1.379 . S
C1002 N1009 1.356 . S
C1003 C1002 1.363 . S
C1003 C1006 1.363 . S
N1004 C1006 1.356 . S
N1004 H1016 0.984 . S
N1004 H1017 0.985 . S
N1005 C1007 1.356 . S
N1005 H1010 0.984 . S
N1005 H1011 0.985 . S
C1006 C1000 1.379 . S
C1006 C1003 1.363 . S
C1006 N1004 1.356 . S
C1007 C1001 1.363 . S
C1007 C1002 1.379 . S
C1007 N1005 1.356 . S
N1008 C1000 1.356 . S
N1008 H1014 0.984 . S
N1008 H1015 0.984 . S
N1009 C1002 1.356 . S
N1009 H1012 0.984 . S
N1009 H1013 0.985 . S
H1010 N1005 0.984 . S
H1011 N1005 0.985 . S
H1012 N1009 0.984 . S
H1013 N1009 0.985 . S
H1014 N1008 0.984 . S
H1015 N1008 0.984 . S
H1016 N1004 0.984 . S
H1017 N1004 0.985 . S
C1018 C1019 1.363 . S
C1018 C1024 1.379 . S
C1018 N1026 1.356 . S
C1019 C1018 1.363 . S
C1019 C1025 1.363 . S
C1020 C1021 1.363 . S
C1020 C1025 1.379 . S
C1020 N1027 1.356 . S
C1021 C1020 1.363 . S
C1021 C1024 1.363 . S
N1022 C1024 1.356 . S
N1022 H1034 0.984 . S
N1022 H1035 0.985 . S
N1023 C1025 1.356 . S
N1023 H1028 0.984 . S
N1023 H1029 0.985 . S
C1024 C1018 1.379 . S
C1024 C1021 1.363 . S
C1024 N1022 1.356 . S
C1025 C1019 1.363 . S
C1025 C1020 1.379 . S
C1025 N1023 1.356 . S
N1026 C1018 1.356 . S
N1026 H1032 0.984 . S
N1026 H1033 0.984 . S
N1027 C1020 1.356 . S
N1027 H1030 0.984 . S
N1027 H1031 0.985 . S
H1028 N1023 0.984 . S
H1029 N1023 0.985 . S
H1030 N1027 0.984 . S
H1031 N1027 0.985 . S
H1032 N1026 0.984 . S
H1033 N1026 0.984 . S
H1034 N1022 0.984 . S
H1035 N1022 0.985 . S
C1036 C1037 1.363 . S
C1036 C1042 1.379 . S
C1036 N1044 1.356 . S
C1037 C1036 1.363 . S
C1037 C1043 1.363 . S
C1038 C1039 1.363 . S
C1038 C1043 1.379 . S
C1038 N1045 1.356 1_455 S
C1039 C1038 1.363 . S
C1039 C1042 1.363 . S
N1040 C1042 1.356 . S
N1040 H1052 0.984 . S
N1040 H1053 0.985 . S
N1041 C1043 1.356 . S
N1041 H1046 0.984 . S
N1041 H1047 0.985 1_455 S
C1042 C1036 1.379 . S
C1042 C1039 1.363 . S
C1042 N1040 1.356 . S
C1043 C1037 1.363 . S
C1043 C1038 1.379 . S
C1043 N1041 1.356 . S
N1044 C1036 1.356 . S
N1044 H1050 0.984 . S
N1044 H1051 0.984 . S
N1045 C1038 1.356 1_655 S
N1045 H1048 0.984 . S
N1045 H1049 0.985 . S
H1046 N1041 0.984 . S
H1047 N1041 0.985 1_655 S
H1048 N1045 0.984 . S
H1049 N1045 0.985 . S
H1050 N1044 0.984 . S
H1051 N1044 0.984 . S
H1052 N1040 0.984 . S
H1053 N1040 0.985 . S
C1054 C1055 1.363 . S
C1054 C1060 1.379 . S
C1054 N1062 1.356 . S
C1055 C1054 1.363 . S
C1055 C1061 1.363 . S
C1056 C1057 1.363 . S
C1056 C1061 1.379 . S
C1056 N1063 1.356 . S
C1057 C1056 1.363 . S
C1057 C1060 1.363 . S
N1058 C1060 1.356 . S
N1058 H1070 0.984 . S
N1058 H1071 0.985 . S
N1059 C1061 1.356 . S
N1059 H1064 0.984 . S
N1059 H1065 0.985 . S
C1060 C1054 1.379 . S
C1060 C1057 1.363 . S
C1060 N1058 1.356 . S
C1061 C1055 1.363 . S
C1061 C1056 1.379 . S
C1061 N1059 1.356 . S
N1062 C1054 1.356 . S
N1062 H1068 0.984 . S
N1062 H1069 0.984 . S
N1063 C1056 1.356 . S
N1063 H1066 0.984 . S
N1063 H1067 0.985 . S
H1064 N1059 0.984 . S
H1065 N1059 0.985 . S
H1066 N1063 0.984 . S
H1067 N1063 0.985 . S
H1068 N1062 0.984 . S
H1069 N1062 0.984 . S
H1070 N1058 0.984 . S
H1071 N1058 0.985 . S
C641 C1 1.179 . S
C643 C497 1.375 . S
C659 C80 1.293 . S
C661 C537 1.376 . S
C679 C562 2.440 . S
C677 C140 2.441 . S
C695 C211 2.486 . S
C697 C602 2.438 . S
C715 C533 1.975 . S
C713 C31 1.683 . S
C733 C493 1.975 . S
C731 C61 1.836 . S
C751 C624 1.781 . S
C749 C151 1.742 . S
C769 C584 1.781 . S
C767 C200 1.840 . S
C785 C20 1.573 . S
C787 C626 1.640 . S
C805 C543 2.201 . S
C803 C121 2.257 . S
C821 C181 2.169 . S
C823 C503 2.201 . S
C839 C91 1.690 . S
C841 C586 1.641 . S
C859 C506 1.375 . S
C857 C260 1.275 . S
C875 C320 1.293 . S
C877 C546 1.374 . S
C893 C361 2.456 . S
C895 C583 2.440 . S
C911 C451 2.486 . S
C913 C623 2.441 . S
C929 C271 1.753 . S
C931 C544 1.976 . S
C949 C504 1.975 . S
C947 C301 1.836 . S
C967 C613 1.781 . S
C965 C380 1.733 . S
C985 C573 1.781 . S
C983 C440 1.840 . S
C1001 C241 1.407 . S
C1003 C617 1.641 . S
C1021 C522 2.201 . S
C1019 C391 2.271 . S
C1039 C482 2.201 . S
C1037 C421 2.169 . S
C1055 C331 1.690 . S
C1057 C577 1.640 . S
