# Generated by pormake.
# Topology tbo, (3,4)-cn, num edge types: 1
# Building blocks:
#     Node 0, Type 0, BuildingBlock: BETDIP_clean_linker_0, # of connection points: 3
#     Node 1, Type 0, BuildingBlock: BETDIP_clean_linker_0, # of connection points: 3
#     Node 2, Type 0, BuildingBlock: BETDIP_clean_linker_0, # of connection points: 3
#     Node 3, Type 0, BuildingBlock: BETDIP_clean_linker_0, # of connection points: 3
#     Node 4, Type 0, BuildingBlock: BETDIP_clean_linker_0, # of connection points: 3
#     Node 5, Type 0, BuildingBlock: BETDIP_clean_linker_0, # of connection points: 3
#     Node 6, Type 0, BuildingBlock: BETDIP_clean_linker_0, # of connection points: 3
#     Node 7, Type 0, BuildingBlock: BETDIP_clean_linker_0, # of connection points: 3
#     Node 8, Type 0, BuildingBlock: BETDIP_clean_linker_0, # of connection points: 3
#     Node 9, Type 0, BuildingBlock: BETDIP_clean_linker_0, # of connection points: 3
#     Node 10, Type 0, BuildingBlock: BETDIP_clean_linker_0, # of connection points: 3
#     Node 11, Type 0, BuildingBlock: BETDIP_clean_linker_0, # of connection points: 3
#     Node 12, Type 0, BuildingBlock: BETDIP_clean_linker_0, # of connection points: 3
#     Node 13, Type 0, BuildingBlock: BETDIP_clean_linker_0, # of connection points: 3
#     Node 14, Type 0, BuildingBlock: BETDIP_clean_linker_0, # of connection points: 3
#     Node 15, Type 0, BuildingBlock: BETDIP_clean_linker_0, # of connection points: 3
#     Node 16, Type 0, BuildingBlock: BETDIP_clean_linker_0, # of connection points: 3
#     Node 17, Type 0, BuildingBlock: BETDIP_clean_linker_0, # of connection points: 3
#     Node 18, Type 0, BuildingBlock: BETDIP_clean_linker_0, # of connection points: 3
#     Node 19, Type 0, BuildingBlock: BETDIP_clean_linker_0, # of connection points: 3
#     Node 20, Type 0, BuildingBlock: BETDIP_clean_linker_0, # of connection points: 3
#     Node 21, Type 0, BuildingBlock: BETDIP_clean_linker_0, # of connection points: 3
#     Node 22, Type 0, BuildingBlock: BETDIP_clean_linker_0, # of connection points: 3
#     Node 23, Type 0, BuildingBlock: BETDIP_clean_linker_0, # of connection points: 3
#     Node 24, Type 0, BuildingBlock: BETDIP_clean_linker_0, # of connection points: 3
#     Node 25, Type 0, BuildingBlock: BETDIP_clean_linker_0, # of connection points: 3
#     Node 26, Type 0, BuildingBlock: BETDIP_clean_linker_0, # of connection points: 3
#     Node 27, Type 0, BuildingBlock: BETDIP_clean_linker_0, # of connection points: 3
#     Node 28, Type 0, BuildingBlock: BETDIP_clean_linker_0, # of connection points: 3
#     Node 29, Type 0, BuildingBlock: BETDIP_clean_linker_0, # of connection points: 3
#     Node 30, Type 0, BuildingBlock: BETDIP_clean_linker_0, # of connection points: 3
#     Node 31, Type 0, BuildingBlock: BETDIP_clean_linker_0, # of connection points: 3
#     Node 32, Type 1, BuildingBlock: ESEHIV_clean_sbu_0, # of connection points: 4
#     Node 33, Type 1, BuildingBlock: ESEHIV_clean_sbu_0, # of connection points: 4
#     Node 34, Type 1, BuildingBlock: ESEHIV_clean_sbu_0, # of connection points: 4
#     Node 35, Type 1, BuildingBlock: ESEHIV_clean_sbu_0, # of connection points: 4
#     Node 36, Type 1, BuildingBlock: ESEHIV_clean_sbu_0, # of connection points: 4
#     Node 37, Type 1, BuildingBlock: ESEHIV_clean_sbu_0, # of connection points: 4
#     Node 38, Type 1, BuildingBlock: ESEHIV_clean_sbu_0, # of connection points: 4
#     Node 39, Type 1, BuildingBlock: ESEHIV_clean_sbu_0, # of connection points: 4
#     Node 40, Type 1, BuildingBlock: ESEHIV_clean_sbu_0, # of connection points: 4
#     Node 41, Type 1, BuildingBlock: ESEHIV_clean_sbu_0, # of connection points: 4
#     Node 42, Type 1, BuildingBlock: ESEHIV_clean_sbu_0, # of connection points: 4
#     Node 43, Type 1, BuildingBlock: ESEHIV_clean_sbu_0, # of connection points: 4
#     Node 44, Type 1, BuildingBlock: ESEHIV_clean_sbu_0, # of connection points: 4
#     Node 45, Type 1, BuildingBlock: ESEHIV_clean_sbu_0, # of connection points: 4
#     Node 46, Type 1, BuildingBlock: ESEHIV_clean_sbu_0, # of connection points: 4
#     Node 47, Type 1, BuildingBlock: ESEHIV_clean_sbu_0, # of connection points: 4
#     Node 48, Type 1, BuildingBlock: ESEHIV_clean_sbu_0, # of connection points: 4
#     Node 49, Type 1, BuildingBlock: ESEHIV_clean_sbu_0, # of connection points: 4
#     Node 50, Type 1, BuildingBlock: ESEHIV_clean_sbu_0, # of connection points: 4
#     Node 51, Type 1, BuildingBlock: ESEHIV_clean_sbu_0, # of connection points: 4
#     Node 52, Type 1, BuildingBlock: ESEHIV_clean_sbu_0, # of connection points: 4
#     Node 53, Type 1, BuildingBlock: ESEHIV_clean_sbu_0, # of connection points: 4
#     Node 54, Type 1, BuildingBlock: ESEHIV_clean_sbu_0, # of connection points: 4
#     Node 55, Type 1, BuildingBlock: ESEHIV_clean_sbu_0, # of connection points: 4
#     Edge 56, Type (0, 1), BuildingBlock: KIFKEQ_clean_linker_1, # of connection points: 2
#     Edge 57, Type (0, 1), BuildingBlock: KIFKEQ_clean_linker_1, # of connection points: 2
#     Edge 58, Type (0, 1), BuildingBlock: KIFKEQ_clean_linker_1, # of connection points: 2
#     Edge 59, Type (0, 1), BuildingBlock: KIFKEQ_clean_linker_1, # of connection points: 2
#     Edge 60, Type (0, 1), BuildingBlock: KIFKEQ_clean_linker_1, # of connection points: 2
#     Edge 61, Type (0, 1), BuildingBlock: KIFKEQ_clean_linker_1, # of connection points: 2
#     Edge 62, Type (0, 1), BuildingBlock: KIFKEQ_clean_linker_1, # of connection points: 2
#     Edge 63, Type (0, 1), BuildingBlock: KIFKEQ_clean_linker_1, # of connection points: 2
#     Edge 64, Type (0, 1), BuildingBlock: KIFKEQ_clean_linker_1, # of connection points: 2
#     Edge 65, Type (0, 1), BuildingBlock: KIFKEQ_clean_linker_1, # of connection points: 2
#     Edge 66, Type (0, 1), BuildingBlock: KIFKEQ_clean_linker_1, # of connection points: 2
#     Edge 67, Type (0, 1), BuildingBlock: KIFKEQ_clean_linker_1, # of connection points: 2
#     Edge 68, Type (0, 1), BuildingBlock: KIFKEQ_clean_linker_1, # of connection points: 2
#     Edge 69, Type (0, 1), BuildingBlock: KIFKEQ_clean_linker_1, # of connection points: 2
#     Edge 70, Type (0, 1), BuildingBlock: KIFKEQ_clean_linker_1, # of connection points: 2
#     Edge 71, Type (0, 1), BuildingBlock: KIFKEQ_clean_linker_1, # of connection points: 2
#     Edge 72, Type (0, 1), BuildingBlock: KIFKEQ_clean_linker_1, # of connection points: 2
#     Edge 73, Type (0, 1), BuildingBlock: KIFKEQ_clean_linker_1, # of connection points: 2
#     Edge 74, Type (0, 1), BuildingBlock: KIFKEQ_clean_linker_1, # of connection points: 2
#     Edge 75, Type (0, 1), BuildingBlock: KIFKEQ_clean_linker_1, # of connection points: 2
#     Edge 76, Type (0, 1), BuildingBlock: KIFKEQ_clean_linker_1, # of connection points: 2
#     Edge 77, Type (0, 1), BuildingBlock: KIFKEQ_clean_linker_1, # of connection points: 2
#     Edge 78, Type (0, 1), BuildingBlock: KIFKEQ_clean_linker_1, # of connection points: 2
#     Edge 79, Type (0, 1), BuildingBlock: KIFKEQ_clean_linker_1, # of connection points: 2
#     Edge 80, Type (0, 1), BuildingBlock: KIFKEQ_clean_linker_1, # of connection points: 2
#     Edge 81, Type (0, 1), BuildingBlock: KIFKEQ_clean_linker_1, # of connection points: 2
#     Edge 82, Type (0, 1), BuildingBlock: KIFKEQ_clean_linker_1, # of connection points: 2
#     Edge 83, Type (0, 1), BuildingBlock: KIFKEQ_clean_linker_1, # of connection points: 2
#     Edge 84, Type (0, 1), BuildingBlock: KIFKEQ_clean_linker_1, # of connection points: 2
#     Edge 85, Type (0, 1), BuildingBlock: KIFKEQ_clean_linker_1, # of connection points: 2
#     Edge 86, Type (0, 1), BuildingBlock: KIFKEQ_clean_linker_1, # of connection points: 2
#     Edge 87, Type (0, 1), BuildingBlock: KIFKEQ_clean_linker_1, # of connection points: 2
#     Edge 88, Type (0, 1), BuildingBlock: KIFKEQ_clean_linker_1, # of connection points: 2
#     Edge 89, Type (0, 1), BuildingBlock: KIFKEQ_clean_linker_1, # of connection points: 2
#     Edge 90, Type (0, 1), BuildingBlock: KIFKEQ_clean_linker_1, # of connection points: 2
#     Edge 91, Type (0, 1), BuildingBlock: KIFKEQ_clean_linker_1, # of connection points: 2
#     Edge 92, Type (0, 1), BuildingBlock: KIFKEQ_clean_linker_1, # of connection points: 2
#     Edge 93, Type (0, 1), BuildingBlock: KIFKEQ_clean_linker_1, # of connection points: 2
#     Edge 94, Type (0, 1), BuildingBlock: KIFKEQ_clean_linker_1, # of connection points: 2
#     Edge 95, Type (0, 1), BuildingBlock: KIFKEQ_clean_linker_1, # of connection points: 2
#     Edge 96, Type (0, 1), BuildingBlock: KIFKEQ_clean_linker_1, # of connection points: 2
#     Edge 97, Type (0, 1), BuildingBlock: KIFKEQ_clean_linker_1, # of connection points: 2
#     Edge 98, Type (0, 1), BuildingBlock: KIFKEQ_clean_linker_1, # of connection points: 2
#     Edge 99, Type (0, 1), BuildingBlock: KIFKEQ_clean_linker_1, # of connection points: 2
#     Edge 100, Type (0, 1), BuildingBlock: KIFKEQ_clean_linker_1, # of connection points: 2
#     Edge 101, Type (0, 1), BuildingBlock: KIFKEQ_clean_linker_1, # of connection points: 2
#     Edge 102, Type (0, 1), BuildingBlock: KIFKEQ_clean_linker_1, # of connection points: 2
#     Edge 103, Type (0, 1), BuildingBlock: KIFKEQ_clean_linker_1, # of connection points: 2
#     Edge 104, Type (0, 1), BuildingBlock: KIFKEQ_clean_linker_1, # of connection points: 2
#     Edge 105, Type (0, 1), BuildingBlock: KIFKEQ_clean_linker_1, # of connection points: 2
#     Edge 106, Type (0, 1), BuildingBlock: KIFKEQ_clean_linker_1, # of connection points: 2
#     Edge 107, Type (0, 1), BuildingBlock: KIFKEQ_clean_linker_1, # of connection points: 2
#     Edge 108, Type (0, 1), BuildingBlock: KIFKEQ_clean_linker_1, # of connection points: 2
#     Edge 109, Type (0, 1), BuildingBlock: KIFKEQ_clean_linker_1, # of connection points: 2
#     Edge 110, Type (0, 1), BuildingBlock: KIFKEQ_clean_linker_1, # of connection points: 2
#     Edge 111, Type (0, 1), BuildingBlock: KIFKEQ_clean_linker_1, # of connection points: 2
#     Edge 112, Type (0, 1), BuildingBlock: KIFKEQ_clean_linker_1, # of connection points: 2
#     Edge 113, Type (0, 1), BuildingBlock: KIFKEQ_clean_linker_1, # of connection points: 2
#     Edge 114, Type (0, 1), BuildingBlock: KIFKEQ_clean_linker_1, # of connection points: 2
#     Edge 115, Type (0, 1), BuildingBlock: KIFKEQ_clean_linker_1, # of connection points: 2
#     Edge 116, Type (0, 1), BuildingBlock: KIFKEQ_clean_linker_1, # of connection points: 2
#     Edge 117, Type (0, 1), BuildingBlock: KIFKEQ_clean_linker_1, # of connection points: 2
#     Edge 118, Type (0, 1), BuildingBlock: KIFKEQ_clean_linker_1, # of connection points: 2
#     Edge 119, Type (0, 1), BuildingBlock: KIFKEQ_clean_linker_1, # of connection points: 2
#     Edge 120, Type (0, 1), BuildingBlock: KIFKEQ_clean_linker_1, # of connection points: 2
#     Edge 121, Type (0, 1), BuildingBlock: KIFKEQ_clean_linker_1, # of connection points: 2
#     Edge 122, Type (0, 1), BuildingBlock: KIFKEQ_clean_linker_1, # of connection points: 2
#     Edge 123, Type (0, 1), BuildingBlock: KIFKEQ_clean_linker_1, # of connection points: 2
#     Edge 124, Type (0, 1), BuildingBlock: KIFKEQ_clean_linker_1, # of connection points: 2
#     Edge 125, Type (0, 1), BuildingBlock: KIFKEQ_clean_linker_1, # of connection points: 2
#     Edge 126, Type (0, 1), BuildingBlock: KIFKEQ_clean_linker_1, # of connection points: 2
#     Edge 127, Type (0, 1), BuildingBlock: KIFKEQ_clean_linker_1, # of connection points: 2
#     Edge 128, Type (0, 1), BuildingBlock: KIFKEQ_clean_linker_1, # of connection points: 2
#     Edge 129, Type (0, 1), BuildingBlock: KIFKEQ_clean_linker_1, # of connection points: 2
#     Edge 130, Type (0, 1), BuildingBlock: KIFKEQ_clean_linker_1, # of connection points: 2
#     Edge 131, Type (0, 1), BuildingBlock: KIFKEQ_clean_linker_1, # of connection points: 2
#     Edge 132, Type (0, 1), BuildingBlock: KIFKEQ_clean_linker_1, # of connection points: 2
#     Edge 133, Type (0, 1), BuildingBlock: KIFKEQ_clean_linker_1, # of connection points: 2
#     Edge 134, Type (0, 1), BuildingBlock: KIFKEQ_clean_linker_1, # of connection points: 2
#     Edge 135, Type (0, 1), BuildingBlock: KIFKEQ_clean_linker_1, # of connection points: 2
#     Edge 136, Type (0, 1), BuildingBlock: KIFKEQ_clean_linker_1, # of connection points: 2
#     Edge 137, Type (0, 1), BuildingBlock: KIFKEQ_clean_linker_1, # of connection points: 2
#     Edge 138, Type (0, 1), BuildingBlock: KIFKEQ_clean_linker_1, # of connection points: 2
#     Edge 139, Type (0, 1), BuildingBlock: KIFKEQ_clean_linker_1, # of connection points: 2
#     Edge 140, Type (0, 1), BuildingBlock: KIFKEQ_clean_linker_1, # of connection points: 2
#     Edge 141, Type (0, 1), BuildingBlock: KIFKEQ_clean_linker_1, # of connection points: 2
#     Edge 142, Type (0, 1), BuildingBlock: KIFKEQ_clean_linker_1, # of connection points: 2
#     Edge 143, Type (0, 1), BuildingBlock: KIFKEQ_clean_linker_1, # of connection points: 2
#     Edge 144, Type (0, 1), BuildingBlock: KIFKEQ_clean_linker_1, # of connection points: 2
#     Edge 145, Type (0, 1), BuildingBlock: KIFKEQ_clean_linker_1, # of connection points: 2
#     Edge 146, Type (0, 1), BuildingBlock: KIFKEQ_clean_linker_1, # of connection points: 2
#     Edge 147, Type (0, 1), BuildingBlock: KIFKEQ_clean_linker_1, # of connection points: 2
#     Edge 148, Type (0, 1), BuildingBlock: KIFKEQ_clean_linker_1, # of connection points: 2
#     Edge 149, Type (0, 1), BuildingBlock: KIFKEQ_clean_linker_1, # of connection points: 2
#     Edge 150, Type (0, 1), BuildingBlock: KIFKEQ_clean_linker_1, # of connection points: 2
#     Edge 151, Type (0, 1), BuildingBlock: KIFKEQ_clean_linker_1, # of connection points: 2
# Relax obj value: 0.045
# Max RMSD: 0.172
# Mean RMSD: 0.122
data_MOF--net-tbo--node1-ESEHIV_clean_sbu_0--node2-BETDIP_clean_linker_0--edge1-KIFKEQ_clean_linker_1
_symmetry_space_group_name_H-M    P1
_symmetry_Int_Tables_number       1
_symmetry_cell_setting            triclinic
loop_
_symmetry_equiv_pos_as_xyz
'x, y, z'
_cell_length_a     71.741504
_cell_length_b     70.784628
_cell_length_c     77.007525
_cell_angle_alpha  95.49661
_cell_angle_beta   86.167282
_cell_angle_gamma 100.83998
loop_
_atom_site_label
_atom_site_type_symbol
_atom_site_fract_x
_atom_site_fract_y
_atom_site_fract_z
_atom_type_partial_charge
H0 H 0.16939 0.18581 0.23428 0.0
H1 H 0.21035 0.18904 0.19101 0.0
H2 H 0.16536 0.22184 0.19321 0.0
H3 H 0.22846 0.17896 0.2092 0.0
C4 C 0.21907 0.17026 0.2182 0.0
C5 C 0.17462 0.19155 0.22197 0.0
C6 C 0.16503 0.20424 0.21463 0.0
C7 C 0.19121 0.1864 0.21386 0.0
C8 C 0.19817 0.19376 0.19786 0.0
C9 C 0.18907 0.20673 0.19026 0.0
C10 C 0.17252 0.2119 0.19885 0.0
N11 N 0.20017 0.17348 0.22207 0.0
H12 H 0.89088 0.25028 0.15774 0.0
H13 H 0.8445 0.2022 0.15067 0.0
H14 H 0.8825 0.20452 0.19196 0.0
H15 H 0.85273 0.20817 0.12184 0.0
C16 C 0.85362 0.22373 0.12276 0.0
C17 C 0.88282 0.23675 0.1618 0.0
C18 C 0.88863 0.22839 0.17589 0.0
C19 C 0.86721 0.22712 0.15229 0.0
C20 C 0.85678 0.20951 0.15765 0.0
C21 C 0.86221 0.20117 0.17192 0.0
C22 C 0.87821 0.21072 0.18085 0.0
N23 N 0.86239 0.23518 0.13728 0.0
H24 H 0.86789 0.84702 0.17186 0.0
H25 H 0.87978 0.89058 0.21458 0.0
H26 H 0.84119 0.89704 0.17602 0.0
H27 H 0.9093 0.87947 0.2112 0.0
C28 C 0.90479 0.86393 0.20907 0.0
C29 C 0.86583 0.86074 0.17847 0.0
C30 C 0.85334 0.87118 0.17187 0.0
C31 C 0.87576 0.86773 0.19358 0.0
C32 C 0.87264 0.88527 0.20265 0.0
C33 C 0.86009 0.89593 0.19638 0.0
C34 C 0.85071 0.88882 0.18093 0.0
N35 N 0.8883 0.85642 0.19945 0.0
H36 H 0.18765 0.82277 0.19934 0.0
H37 H 0.24234 0.86002 0.20101 0.0
H38 H 0.19928 0.86722 0.24137 0.0
H39 H 0.24994 0.82803 0.18674 0.0
C40 C 0.23989 0.82885 0.177 0.0
C41 C 0.19741 0.83432 0.20601 0.0
C42 C 0.19138 0.84407 0.22151 0.0
C43 C 0.21586 0.83975 0.19875 0.0
C44 C 0.22833 0.85526 0.20693 0.0
C45 C 0.22239 0.86527 0.2223 0.0
C46 C 0.20402 0.85939 0.22961 0.0
N47 N 0.22096 0.83072 0.18234 0.0
H48 H 0.15853 0.81714 0.86526 0.0
H49 H 0.20652 0.86415 0.86649 0.0
H50 H 0.16206 0.86321 0.83183 0.0
H51 H 0.2209 0.84307 0.87713 0.0
C52 C 0.2104 0.8337 0.88473 0.0
C53 C 0.16596 0.83062 0.86056 0.0
C54 C 0.15795 0.83922 0.84781 0.0
C55 C 0.1836 0.83921 0.86727 0.0
C56 C 0.19319 0.85689 0.86125 0.0
C57 C 0.18525 0.86569 0.84866 0.0
C58 C 0.16775 0.85674 0.84204 0.0
N59 N 0.19106 0.82983 0.88015 0.0
H60 H 0.20956 0.19403 0.90079 0.0
H61 H 0.21161 0.15724 0.8532 0.0
H62 H 0.25101 0.1568 0.89284 0.0
H63 H 0.19485 0.17757 0.84299 0.0
C64 C 0.18646 0.18292 0.85397 0.0
C65 C 0.21598 0.18329 0.89278 0.0
C66 C 0.23129 0.17637 0.89892 0.0
C67 C 0.20893 0.17684 0.87626 0.0
C68 C 0.21728 0.16293 0.86569 0.0
C69 C 0.23246 0.15551 0.87161 0.0
C70 C 0.23941 0.16245 0.88819 0.0
N71 N 0.19298 0.18417 0.87122 0.0
H72 H 0.84429 0.23975 0.83132 0.0
H73 H 0.8945 0.28297 0.83703 0.0
H74 H 0.89792 0.22313 0.83861 0.0
H75 H 0.8609 0.30832 0.83274 0.0
C76 C 0.86127 0.29625 0.84032 0.0
C77 C 0.85942 0.24345 0.8332 0.0
C78 C 0.86995 0.22893 0.83502 0.0
C79 C 0.86813 0.2629 0.83432 0.0
C80 C 0.88765 0.26794 0.83688 0.0
C81 C 0.89857 0.25371 0.83831 0.0
C82 C 0.88959 0.2342 0.83749 0.0
N83 N 0.85723 0.27721 0.83205 0.0
H84 H 0.85743 0.88429 0.88999 0.0
H85 H 0.88644 0.87544 0.83983 0.0
H86 H 0.89 0.8388 0.8803 0.0
H87 H 0.86268 0.89011 0.83087 0.0
C88 C 0.86191 0.90144 0.8413 0.0
C89 C 0.86622 0.87625 0.88131 0.0
C90 C 0.87319 0.86086 0.88735 0.0
C91 C 0.87065 0.88151 0.86412 0.0
C92 C 0.88237 0.87124 0.8529 0.0
C93 C 0.88968 0.85607 0.85888 0.0
C94 C 0.88486 0.85093 0.87596 0.0
N95 N 0.8639 0.89774 0.85891 0.0
H96 H 0.17114 0.67647 0.69643 0.0
H97 H 0.21646 0.68528 0.65711 0.0
H98 H 0.16882 0.71397 0.65606 0.0
H99 H 0.2245 0.65933 0.66597 0.0
C100 C 0.21948 0.65814 0.67949 0.0
C101 C 0.1772 0.68304 0.68469 0.0
C102 C 0.16766 0.6955 0.67701 0.0
C103 C 0.19469 0.67911 0.67762 0.0
C104 C 0.2029 0.68802 0.66265 0.0
C105 C 0.19369 0.70066 0.65471 0.0
C106 C 0.17602 0.70426 0.662 0.0
N107 N 0.20374 0.66664 0.68632 0.0
H108 H 0.88006 0.74187 0.64873 0.0
H109 H 0.8329 0.69414 0.64837 0.0
H110 H 0.87788 0.69715 0.68326 0.0
H111 H 0.82391 0.70636 0.62525 0.0
C112 C 0.83282 0.72015 0.62296 0.0
C113 C 0.87297 0.7284 0.65369 0.0
C114 C 0.88107 0.72076 0.66692 0.0
C115 C 0.85572 0.71901 0.6468 0.0
C116 C 0.84624 0.70163 0.65342 0.0
C117 C 0.8543 0.69363 0.66655 0.0
C118 C 0.87165 0.70331 0.67318 0.0
N119 N 0.84876 0.7277 0.63322 0.0
H120 H 0.88281 0.34279 0.70098 0.0
H121 H 0.88663 0.39003 0.74062 0.0
H122 H 0.85263 0.38909 0.69631 0.0
H123 H 0.91467 0.37925 0.74582 0.0
C124 C 0.91135 0.36368 0.7431 0.0
C125 C 0.87878 0.35637 0.70595 0.0
C126 C 0.86678 0.36474 0.69647 0.0
C127 C 0.88615 0.36533 0.72167 0.0
C128 C 0.88128 0.38315 0.72832 0.0
C129 C 0.86925 0.39202 0.71916 0.0
C130 C 0.86224 0.38269 0.70319 0.0
N131 N 0.89776 0.35539 0.73055 0.0
H132 H 0.20433 0.3094 0.72951 0.0
H133 H 0.25094 0.35545 0.71988 0.0
H134 H 0.19377 0.36627 0.72368 0.0
H135 H 0.27074 0.31374 0.71976 0.0
C136 C 0.25944 0.31911 0.7142 0.0
C137 C 0.20941 0.32429 0.72683 0.0
C138 C 0.19663 0.33715 0.72717 0.0
C139 C 0.22889 0.33066 0.72349 0.0
C140 C 0.23576 0.35025 0.72117 0.0
C141 C 0.2232 0.36329 0.72143 0.0
C142 C 0.20362 0.35643 0.72389 0.0
N143 N 0.24144 0.31732 0.72349 0.0
H144 H 0.15542 0.34786 0.38565 0.0
H145 H 0.20947 0.38591 0.38557 0.0
H146 H 0.17352 0.38267 0.34249 0.0
H147 H 0.20254 0.3877 0.4147 0.0
C148 C 0.19713 0.37268 0.41689 0.0
C149 C 0.16587 0.3584 0.37922 0.0
C150 C 0.16247 0.36397 0.36279 0.0
C151 C 0.18243 0.3667 0.38779 0.0
C152 C 0.19612 0.38034 0.37955 0.0
C153 C 0.19303 0.38641 0.36329 0.0
C154 C 0.17608 0.37816 0.35503 0.0
N155 N 0.18517 0.36089 0.40453 0.0
H156 H 0.19489 0.68542 0.36238 0.0
H157 H 0.19543 0.64562 0.31667 0.0
H158 H 0.23592 0.64751 0.3557 0.0
H159 H 0.18324 0.66986 0.30477 0.0
C160 C 0.17349 0.67408 0.31519 0.0
C161 C 0.20133 0.67441 0.35481 0.0
C162 C 0.2167 0.66778 0.36129 0.0
C163 C 0.19392 0.66701 0.33857 0.0
C164 C 0.20152 0.65204 0.32882 0.0
C165 C 0.21633 0.64454 0.33525 0.0
C166 C 0.22399 0.65277 0.35126 0.0
N167 N 0.17829 0.67438 0.33292 0.0
H168 H 0.81941 0.72399 0.31666 0.0
H169 H 0.86135 0.77547 0.32484 0.0
H170 H 0.87661 0.71976 0.32695 0.0
H171 H 0.8185 0.79068 0.31953 0.0
C172 C 0.82413 0.78071 0.32671 0.0
C173 C 0.83388 0.73079 0.31938 0.0
C174 C 0.84737 0.71946 0.32199 0.0
C175 C 0.83871 0.75093 0.32084 0.0
C176 C 0.85747 0.75988 0.32419 0.0
C177 C 0.87129 0.74876 0.32641 0.0
C178 C 0.86601 0.72854 0.32561 0.0
N179 N 0.82451 0.76188 0.31855 0.0
H180 H 0.82249 0.36842 0.41088 0.0
H181 H 0.86176 0.36102 0.36726 0.0
H182 H 0.85944 0.3271 0.4111 0.0
H183 H 0.85513 0.3881 0.35936 0.0
C184 C 0.84199 0.39098 0.36595 0.0
C185 C 0.83368 0.36136 0.40467 0.0
C186 C 0.84009 0.34723 0.41309 0.0
C187 C 0.84139 0.36658 0.38829 0.0
C188 C 0.85569 0.35724 0.37996 0.0
C189 C 0.86238 0.34296 0.38811 0.0
C190 C 0.85443 0.33804 0.40469 0.0
N191 N 0.83414 0.38117 0.38078 0.0
H192 H 0.67529 0.16673 0.72076 0.0
H193 H 0.72033 0.17377 0.68098 0.0
H194 H 0.67433 0.20485 0.68061 0.0
H195 H 0.72931 0.14892 0.69103 0.0
C196 C 0.72302 0.14681 0.70406 0.0
C197 C 0.68149 0.17317 0.709 0.0
C198 C 0.67247 0.1862 0.70149 0.0
C199 C 0.69866 0.16847 0.70175 0.0
C200 C 0.70708 0.17716 0.68672 0.0
C201 C 0.69842 0.19039 0.67896 0.0
C202 C 0.68109 0.19472 0.68645 0.0
N203 N 0.70708 0.15536 0.71032 0.0
H204 H 0.37634 0.23456 0.66389 0.0
H205 H 0.32978 0.18639 0.66326 0.0
H206 H 0.37436 0.19012 0.69873 0.0
H207 H 0.32832 0.19381 0.63545 0.0
C208 C 0.331 0.20949 0.63669 0.0
C209 C 0.3694 0.22103 0.66881 0.0
C210 C 0.37752 0.21345 0.6821 0.0
C211 C 0.35228 0.21133 0.66182 0.0
C212 C 0.34309 0.19388 0.66839 0.0
C213 C 0.35098 0.18602 0.68167 0.0
C214 C 0.36817 0.19598 0.68845 0.0
N215 N 0.34442 0.2198 0.64862 0.0
H216 H 0.38904 0.84766 0.6665 0.0
H217 H 0.38753 0.89173 0.70846 0.0
H218 H 0.34643 0.88359 0.66882 0.0
H219 H 0.39954 0.8696 0.72306 0.0
C220 C 0.40977 0.86497 0.71329 0.0
C221 C 0.3823 0.85909 0.67295 0.0
C222 C 0.36662 0.86419 0.66563 0.0
C223 C 0.38953 0.8685 0.68859 0.0
C224 C 0.38138 0.88383 0.69685 0.0
C225 C 0.36593 0.88965 0.68977 0.0
C226 C 0.35863 0.87964 0.67414 0.0
N227 N 0.40539 0.86258 0.69534 0.0
H228 H 0.69733 0.85054 0.66659 0.0
H229 H 0.73208 0.90233 0.689 0.0
H230 H 0.68254 0.87532 0.71769 0.0
H231 H 0.75124 0.89995 0.66591 0.0
C232 C 0.7449 0.88888 0.65624 0.0
C233 C 0.70017 0.86166 0.67727 0.0
C234 C 0.68809 0.86103 0.69236 0.0
C235 C 0.71616 0.87633 0.67588 0.0
C236 C 0.72001 0.89069 0.6898 0.0
C237 C 0.70781 0.89039 0.70487 0.0
C238 C 0.69193 0.87555 0.70605 0.0
N239 N 0.72767 0.87607 0.66014 0.0
H240 H 0.65621 0.84827 0.36949 0.0
H241 H 0.70756 0.89067 0.36437 0.0
H242 H 0.66399 0.88569 0.32774 0.0
H243 H 0.70116 0.89077 0.39597 0.0
C244 C 0.70017 0.8753 0.39636 0.0
C245 C 0.66481 0.85978 0.36262 0.0
C246 C 0.65782 0.86621 0.34804 0.0
C247 C 0.68253 0.86886 0.36891 0.0
C248 C 0.69365 0.88392 0.35997 0.0
C249 C 0.68714 0.88971 0.34488 0.0
C250 C 0.66919 0.88095 0.33919 0.0
N251 N 0.68905 0.8625 0.38403 0.0
H252 H 0.71104 0.21865 0.37964 0.0
H253 H 0.7141 0.18257 0.33165 0.0
H254 H 0.74893 0.17754 0.37346 0.0
H255 H 0.68602 0.1908 0.32727 0.0
C256 C 0.68602 0.20514 0.33368 0.0
C257 C 0.7172 0.20756 0.37191 0.0
C258 C 0.73071 0.19873 0.3791 0.0
C259 C 0.71099 0.20191 0.35488 0.0
C260 C 0.71856 0.18711 0.34478 0.0
C261 C 0.73194 0.17794 0.35166 0.0
C262 C 0.73805 0.18409 0.36861 0.0
N263 N 0.69738 0.21167 0.34841 0.0
H264 H 0.34496 0.24378 0.35762 0.0
H265 H 0.38737 0.29539 0.35651 0.0
H266 H 0.39668 0.24316 0.32645 0.0
H267 H 0.32709 0.26275 0.37348 0.0
C268 C 0.33718 0.27434 0.37975 0.0
C269 C 0.35846 0.25146 0.35269 0.0
C270 C 0.36974 0.24157 0.3408 0.0
C271 C 0.36485 0.271 0.35822 0.0
C272 C 0.38257 0.28039 0.35199 0.0
C273 C 0.39436 0.27053 0.34069 0.0
C274 C 0.38763 0.25117 0.33487 0.0
N275 N 0.35493 0.28136 0.37125 0.0
H276 H 0.32801 0.879 0.38761 0.0
H277 H 0.37129 0.87505 0.34682 0.0
H278 H 0.36127 0.83418 0.38589 0.0
H279 H 0.3698 0.90646 0.34487 0.0
C280 C 0.3553 0.90809 0.34863 0.0
C281 C 0.33924 0.87191 0.38158 0.0
C282 C 0.34356 0.85584 0.38878 0.0
C283 C 0.34923 0.8791 0.36664 0.0
C284 C 0.36361 0.86975 0.35846 0.0
C285 C 0.3681 0.85343 0.36529 0.0
C286 C 0.35795 0.84665 0.38048 0.0
N287 N 0.34402 0.8955 0.36019 0.0
H288 H 0.6584 0.67803 0.21334 0.0
H289 H 0.70756 0.67915 0.17842 0.0
H290 H 0.66823 0.71703 0.17262 0.0
H291 H 0.7035 0.6474 0.18536 0.0
C292 C 0.70024 0.64909 0.19934 0.0
C293 C 0.6668 0.6838 0.20217 0.0
C294 C 0.66101 0.69813 0.19348 0.0
C295 C 0.68334 0.67674 0.19672 0.0
C296 C 0.69461 0.68442 0.18254 0.0
C297 C 0.68941 0.69906 0.17374 0.0
C298 C 0.67246 0.70582 0.17927 0.0
N299 N 0.68856 0.66244 0.20623 0.0
H300 H 0.38 0.72638 0.15686 0.0
H301 H 0.34613 0.66935 0.1579 0.0
H302 H 0.3884 0.6898 0.19583 0.0
H303 H 0.32649 0.68137 0.14082 0.0
C304 C 0.3354 0.69285 0.1341 0.0
C305 C 0.37626 0.7128 0.16278 0.0
C306 C 0.38586 0.70981 0.17724 0.0
C307 C 0.36159 0.6986 0.15597 0.0
C308 C 0.35687 0.68073 0.16346 0.0
C309 C 0.36681 0.67728 0.17774 0.0
C310 C 0.38092 0.69212 0.18468 0.0
N311 N 0.35274 0.70281 0.14114 0.0
H312 H 0.40585 0.33157 0.16721 0.0
H313 H 0.40533 0.37607 0.20934 0.0
H314 H 0.36297 0.3668 0.17064 0.0
H315 H 0.42173 0.35558 0.22295 0.0
C316 C 0.43035 0.34977 0.21237 0.0
C317 C 0.39933 0.34303 0.17394 0.0
C318 C 0.38351 0.34813 0.16701 0.0
C319 C 0.40713 0.35267 0.18934 0.0
C320 C 0.39899 0.36808 0.19786 0.0
C321 C 0.38317 0.37374 0.19097 0.0
C322 C 0.37552 0.36332 0.17571 0.0
N323 N 0.42371 0.34697 0.19508 0.0
H324 H 0.76064 0.34143 0.20831 0.0
H325 H 0.81348 0.38189 0.2091 0.0
H326 H 0.76682 0.39179 0.24464 0.0
H327 H 0.77272 0.32708 0.18518 0.0
C328 C 0.78558 0.33625 0.18054 0.0
C329 C 0.76942 0.35442 0.21381 0.0
C330 C 0.76167 0.36559 0.22753 0.0
C331 C 0.78818 0.36027 0.20715 0.0
C332 C 0.79921 0.37718 0.21453 0.0
C333 C 0.79166 0.38861 0.22809 0.0
C334 C 0.77298 0.38257 0.23469 0.0
N335 N 0.79591 0.35084 0.19198 0.0
H336 H 0.66822 0.33307 0.86181 0.0
H337 H 0.7144 0.38157 0.86017 0.0
H338 H 0.66756 0.37731 0.82727 0.0
H339 H 0.73061 0.35773 0.8662 0.0
C340 C 0.72136 0.3513 0.87665 0.0
C341 C 0.67469 0.3466 0.85663 0.0
C342 C 0.66574 0.35394 0.8437 0.0
C343 C 0.69245 0.35617 0.86236 0.0
C344 C 0.701 0.37368 0.85548 0.0
C345 C 0.69198 0.38144 0.84293 0.0
C346 C 0.67443 0.37146 0.83711 0.0
N347 N 0.70132 0.34808 0.87516 0.0
H348 H 0.71934 0.72778 0.88453 0.0
H349 H 0.72199 0.68874 0.83882 0.0
H350 H 0.75153 0.68205 0.88412 0.0
H351 H 0.69471 0.69747 0.83295 0.0
C352 C 0.69465 0.7119 0.83912 0.0
C353 C 0.72431 0.71524 0.87806 0.0
C354 C 0.73618 0.7058 0.88663 0.0
C355 C 0.7186 0.70886 0.86115 0.0
C356 C 0.72556 0.6931 0.8522 0.0
C357 C 0.73765 0.68327 0.86026 0.0
C358 C 0.74281 0.68979 0.87755 0.0
N359 N 0.70603 0.71892 0.85367 0.0
H360 H 0.37315 0.64099 0.85611 0.0
H361 H 0.41569 0.69266 0.85947 0.0
H362 H 0.41505 0.6529 0.81387 0.0
H363 H 0.41169 0.68793 0.88846 0.0
C364 C 0.39625 0.68522 0.88953 0.0
C365 C 0.38547 0.6501 0.85046 0.0
C366 C 0.39315 0.64473 0.83381 0.0
C367 C 0.3939 0.66704 0.86006 0.0
C368 C 0.40972 0.67901 0.85263 0.0
C369 C 0.41749 0.67393 0.83604 0.0
C370 C 0.40915 0.65678 0.82675 0.0
N371 N 0.38583 0.67229 0.87681 0.0
H372 H 0.34483 0.3761 0.88872 0.0
H373 H 0.38417 0.36522 0.84608 0.0
H374 H 0.37653 0.33023 0.88946 0.0
H375 H 0.38348 0.39482 0.84 0.0
C376 C 0.37032 0.39891 0.8454 0.0
C377 C 0.35533 0.36793 0.88286 0.0
C378 C 0.35929 0.3523 0.89109 0.0
C379 C 0.3646 0.37315 0.86695 0.0
C380 C 0.37766 0.36208 0.85879 0.0
C381 C 0.38188 0.34634 0.86672 0.0
C382 C 0.3728 0.34181 0.88296 0.0
N383 N 0.35999 0.38928 0.85946 0.0
Cu384 Cu 0.28637 0.26981 0.03967 0.0
N385 N 0.28887 0.29232 0.02818 0.0
N386 N 0.29726 0.31206 1.00686 0.0
C387 C 0.29415 0.29365 1.01116 0.0
C388 C 0.2937 0.32275 0.02177 0.0
C389 C 0.28844 0.3105 0.03491 0.0
O390 O 0.28633 0.2491 0.02064 0.0
C391 C 0.32156 0.28597 0.05576 0.0
O392 O 0.32567 0.29528 0.04164 0.0
H393 H 0.2967 0.28146 1.00232 0.0
H394 H 0.28532 0.31462 0.04853 0.0
N395 N 0.26336 0.26593 0.05297 0.0
N396 N 0.24245 0.25753 0.07504 0.0
C397 C 0.26094 0.26064 0.06945 0.0
C398 C 0.24583 0.26639 0.048 0.0
C399 C 0.23288 0.2611 0.06156 0.0
C400 C 0.27329 0.23415 0.01895 0.0
O401 O 0.26103 0.23009 0.03211 0.0
H402 H 0.27246 0.25844 0.07697 0.0
H403 H 0.24268 0.26983 0.03525 0.0
O404 O 0.30647 0.27317 0.05649 0.0
H405 H 0.29517 0.33831 0.02316 0.0
H406 H 0.21762 0.25989 0.06148 0.0
Cu407 Cu 0.80962 0.31715 1.00565 0.0
N408 N 0.80729 0.33606 0.02379 0.0
N409 N 0.80442 0.34739 0.05171 0.0
C410 C 0.81149 0.33456 0.0403 0.0
C411 C 0.79562 0.35758 0.04196 0.0
C412 C 0.79739 0.35053 0.02472 0.0
O413 O 0.80823 0.29374 0.01766 0.0
C414 C 0.79215 0.33135 0.98036 0.0
O415 O 0.8066 0.34537 0.98372 0.0
H416 H 0.81802 0.32305 0.04404 0.0
H417 H 0.79059 0.35468 1.01394 0.0
N418 N 0.83287 0.32326 0.99323 0.0
N419 N 0.85272 0.32452 0.96966 0.0
C420 C 0.83707 0.31462 0.97752 0.0
C421 C 0.84638 0.33917 0.99545 0.0
C422 C 0.85862 0.34007 0.9808 0.0
C423 C 0.8223 0.28519 0.01816 0.0
O424 O 0.83723 0.2896 1.00751 0.0
H425 H 0.82788 0.30226 0.97133 0.0
H426 H 0.84645 0.35009 1.0063 0.0
O427 O 0.78994 0.3165 0.989 0.0
H428 H 0.78753 0.36854 0.04702 0.0
H429 H 0.87028 0.35171 0.97811 0.0
Cu430 Cu 0.79333 0.78128 0.03525 0.0
N431 N 0.81614 0.78601 0.02181 0.0
N432 N 0.83532 0.79839 0.9999 0.0
C433 C 0.81873 0.79838 1.00927 0.0
C434 C 0.84354 0.7854 1.00695 0.0
C435 C 0.83166 0.77775 0.02044 0.0
O436 O 0.77467 0.77237 0.01725 0.0
C437 C 0.78446 0.80625 0.0651 0.0
O438 O 0.7701 0.79244 0.06853 0.0
H439 H 0.80807 0.80653 1.00659 0.0
H440 H 0.83391 0.76654 0.02823 0.0
N441 N 0.7919 0.76204 0.05075 0.0
N442 N 0.77871 0.74443 0.07264 0.0
C443 C 0.7756 0.75321 0.05854 0.0
C444 C 0.80587 0.75842 0.06003 0.0
C445 C 0.79781 0.74744 0.07342 0.0
C446 C 0.77731 0.75642 1.00899 0.0
O447 O 0.78994 0.7476 1.01477 0.0
H448 H 0.7617 0.75461 0.05474 0.0
H449 H 0.82072 0.76478 0.05823 0.0
O450 O 0.79334 0.8054 0.05019 0.0
H451 H 0.85703 0.78143 1.00254 0.0
H452 H 0.80538 0.74352 0.08382 0.0
Cu453 Cu 0.28675 0.77581 1.0096 0.0
N454 N 0.28544 0.79788 0.02458 0.0
N455 N 0.27995 0.81513 0.04954 0.0
C456 C 0.2856 0.79899 0.04212 0.0
C457 C 0.27607 0.82459 0.03623 0.0
C458 C 0.2796 0.81396 0.02081 0.0
O459 O 0.28476 0.75415 0.02433 0.0
C460 C 0.27211 0.78455 0.97957 0.0
O461 O 0.28889 0.79579 0.97917 0.0
H462 H 0.28806 0.78741 0.04938 0.0
H463 H 0.27668 0.81701 1.00788 0.0
N464 N 0.31025 0.77773 0.99726 0.0
N465 N 0.33278 0.76901 0.97855 0.0
C466 C 0.31454 0.76468 0.98451 0.0
C467 C 0.32628 0.79093 0.99938 0.0
C468 C 0.34032 0.78546 0.98789 0.0
C469 C 0.29992 0.75349 0.0319 0.0
O470 O 0.31496 0.76689 0.02946 0.0
H471 H 0.30459 0.75193 0.98007 0.0
H472 H 0.32774 0.80334 1.00888 0.0
O473 O 0.26741 0.77385 0.9922 0.0
H474 H 0.27006 0.83761 0.03764 0.0
H475 H 0.3549 0.79292 0.98654 0.0
Cu476 Cu 1.01081 0.27671 0.29164 0.0
N477 N 0.02279 0.25521 0.28687 0.0
N478 N 0.04491 0.23814 0.27602 0.0
C479 C 0.04026 0.25585 0.27905 0.0
C480 C 0.02973 0.22588 0.28224 0.0
C481 C 1.01614 0.23643 0.28893 0.0
O482 O 0.03125 0.29809 0.29851 0.0
C483 C 0.98392 0.26424 0.26782 0.0
O484 O 0.98066 0.25093 0.27896 0.0
H485 H 0.04912 0.26903 0.27513 0.0
H486 H 1.00224 0.23069 0.29452 0.0
N487 N 0.99249 0.27397 0.31037 0.0
N488 N 0.96835 0.28003 0.32884 0.0
C489 C 0.97976 0.28563 0.31482 0.0
C490 C 0.98908 0.26051 0.32195 0.0
C491 C 0.97425 0.26418 0.33331 0.0
C492 C 0.03859 0.29559 0.31258 0.0
O493 O 0.03132 0.28016 0.32067 0.0
H494 H 0.9791 0.2981 0.30796 0.0
H495 H 0.99689 0.2489 0.32221 0.0
O496 O 0.99728 0.27867 0.27075 0.0
H497 H 0.02847 0.21037 0.28194 0.0
H498 H 0.9682 0.25563 0.34391 0.0
Cu499 Cu 0.78618 0.03915 0.25427 0.0
N500 N 0.78493 0.05269 0.23485 0.0
N501 N 0.79255 0.07668 0.21725 0.0
C502 C 0.7934 0.07117 0.23345 0.0
C503 C 0.783 0.061 0.20812 0.0
C504 C 0.77845 0.04617 0.21898 0.0
O505 O 0.78732 0.05876 0.2744 0.0
C506 C 0.81308 0.01322 0.25748 0.0
O507 O 0.80788 0.01291 0.27414 0.0
H508 H 0.80059 0.08017 0.24405 0.0
H509 H 0.77176 0.03146 0.2153 0.0
N510 N 0.76432 0.02048 0.25758 0.0
N511 N 0.7444 0.99647 0.26971 0.0
C512 C 0.76148 1.00837 0.27035 0.0
C513 C 0.74844 0.01627 0.24856 0.0
C514 C 0.73614 1.00146 0.25598 0.0
C515 C 0.77159 0.06447 0.27863 0.0
O516 O 0.7565 0.05643 0.27006 0.0
H517 H 0.77185 1.00828 0.27985 0.0
H518 H 0.74583 0.02359 0.23752 0.0
O519 O 0.80702 0.02473 0.24836 0.0
H520 H 0.7804 0.05995 0.19435 0.0
H521 H 0.72211 0.99511 0.25168 0.0
Cu522 Cu 0.03125 0.76753 0.27447 0.0
N523 N 1.01759 0.77025 0.25496 0.0
N524 N 0.998 0.7822 0.23906 0.0
C525 C 1.00217 0.7788 0.25523 0.0
C526 C 1.01119 0.77531 0.22818 0.0
C527 C 0.02317 0.76794 0.23798 0.0
O528 O 1.0142 0.76872 0.29485 0.0
C529 C 0.05707 0.8022 0.26728 0.0
O530 O 0.04331 0.80669 0.25899 0.0
H531 H 0.99493 0.78366 0.26711 0.0
H532 H 0.03576 0.76237 0.23317 0.0
N533 N 0.04034 0.74416 0.27357 0.0
N534 N 0.05961 0.72397 0.27895 0.0
C535 C 0.05806 0.7425 0.27743 0.0
C536 C 0.03035 0.72603 0.27254 0.0
C537 C 0.04216 0.71357 0.27583 0.0
C538 C 1.00854 0.78408 0.30104 0.0
O539 O 1.01627 0.80053 0.29477 0.0
H540 H 0.06928 0.75477 0.28015 0.0
H541 H 1.0153 0.72225 0.2704 0.0
O542 O 0.05382 0.78732 0.27581 0.0
H543 H 1.0125 0.77615 0.21418 0.0
H544 H 0.03809 0.6981 0.27631 0.0
Cu545 Cu 0.3012 0.05031 0.28671 0.0
N546 N 0.32207 0.0713 0.29339 0.0
N547 N 0.33796 0.10036 0.30251 0.0
C548 C 0.3209 0.08979 0.29847 0.0
C549 C 0.35035 0.08807 0.29999 0.0
C550 C 0.34049 0.07013 0.29427 0.0
O551 O 0.28873 0.06894 0.27461 0.0
C552 C 0.3071 0.02334 0.31164 0.0
O553 O 0.29214 0.02878 0.31995 0.0
H554 H 0.30783 0.09541 0.29953 0.0
H555 H 0.34634 0.05714 0.29102 0.0
N556 N 0.28049 0.02928 0.28021 0.0
N557 N 0.26548 0.99969 0.27168 0.0
C558 C 0.28232 1.01195 0.2722 0.0
C559 C 0.26194 0.02804 0.28491 0.0
C560 C 0.25261 1.0098 0.27958 0.0
C561 C 0.27625 0.07794 0.28224 0.0
O562 O 0.27137 0.07567 0.29876 0.0
H563 H 0.29586 1.00814 0.26773 0.0
H564 H 0.25572 0.03929 0.29225 0.0
O565 O 0.31385 0.03109 0.29775 0.0
H566 H 0.36545 0.09187 0.30191 0.0
H567 H 0.23757 1.00433 0.28164 0.0
Cu568 Cu 1.01569 0.76496 0.75765 0.0
N569 N 0.02477 0.74234 0.74978 0.0
N570 N 0.0456 0.7246 0.73723 0.0
C571 C 0.04296 0.74219 0.74426 0.0
C572 C 0.02827 0.71319 0.73848 0.0
C573 C 1.01545 0.72419 0.74618 0.0
O574 O 0.03663 0.78223 0.76895 0.0
C575 C 1.00512 0.76683 0.72285 0.0
O576 O 1.01749 0.7556 0.718 0.0
H577 H 0.05378 0.7551 0.74454 0.0
H578 H 1.00031 0.71945 0.74822 0.0
N579 N 0.99554 0.76164 0.77437 0.0
N580 N 0.97236 0.77109 0.79204 0.0
C581 C 0.98871 0.7767 0.7827 0.0
C582 C 0.98312 0.74582 0.77862 0.0
C583 C 0.96876 0.75162 0.78954 0.0
C584 C 0.04193 0.77544 0.78218 0.0
O585 O 0.03279 0.75856 0.78661 0.0
H586 H 0.9951 0.79158 0.78105 0.0
H587 H 0.98395 0.7312 0.77363 0.0
O588 O 1.00481 0.77455 0.73848 0.0
H589 H 0.02493 0.69809 0.73384 0.0
H590 H 0.95646 0.74228 0.79492 0.0
Cu591 Cu 0.28295 0.02158 0.76505 0.0
N592 N 0.28161 0.03548 0.74582 0.0
N593 N 0.28824 0.05987 0.7286 0.0
C594 C 0.28993 0.05404 0.74453 0.0
C595 C 0.27833 0.04434 0.71956 0.0
C596 C 0.27436 0.02929 0.73018 0.0
O597 O 0.28453 0.04065 0.78567 0.0
C598 C 0.31422 1.00666 0.7466 0.0
O599 O 0.31491 0.02079 0.73657 0.0
H600 H 0.29746 0.06292 0.75501 0.0
H601 H 0.26743 0.01466 0.72649 0.0
N602 N 0.26104 1.00298 0.76824 0.0
N603 N 0.24157 0.97827 0.77981 0.0
C604 C 0.25861 0.99027 0.7805 0.0
C605 C 0.24502 0.999 0.75943 0.0
C606 C 0.233 0.98378 0.76651 0.0
C607 C 0.26891 0.0454 0.79193 0.0
O608 O 0.25297 0.03683 0.78497 0.0
H609 H 0.26916 0.99009 0.78984 0.0
H610 H 0.24218 1.00665 0.74869 0.0
O611 O 0.30325 1.00608 0.76041 0.0
H612 H 0.27496 0.04361 0.70599 0.0
H613 H 0.21912 0.97722 0.762 0.0
Cu614 Cu 0.04574 0.27563 0.80876 0.0
N615 N 0.02126 0.27336 0.80019 0.0
N616 N 0.99584 0.28181 0.78956 0.0
C617 C 1.01291 0.28809 0.79663 0.0
C618 C 0.99339 0.26236 0.78859 0.0
C619 C 1.00904 0.25721 0.79512 0.0
O620 O 0.05105 0.2971 0.82662 0.0
C621 C 0.06729 0.2973 0.78296 0.0
O622 O 0.05708 0.31046 0.78853 0.0
H623 H 0.01944 0.30313 0.79882 0.0
H624 H 1.01148 0.2427 0.79581 0.0
N625 N 0.05149 0.2534 0.81728 0.0
N626 N 0.06983 0.23405 0.82623 0.0
C627 C 0.06938 0.25091 0.81946 0.0
C628 C 0.04015 0.23748 0.82277 0.0
C629 C 0.0514 0.22558 0.82835 0.0
C630 C 0.03946 0.3042 0.83744 0.0
O631 O 0.04583 0.31987 0.84744 0.0
H632 H 0.08184 0.26153 0.81643 0.0
H633 H 0.0248 0.23476 0.82289 0.0
O634 O 0.06414 0.28125 0.7897 0.0
H635 H 0.98118 0.25252 0.78348 0.0
H636 H 0.04635 0.21169 0.83342 0.0
Cu637 Cu 0.78672 0.03952 0.80184 0.0
N638 N 0.79077 0.06029 0.81885 0.0
N639 N 0.80208 0.09038 0.82974 0.0
C640 C 0.80311 0.07673 0.8164 0.0
C641 C 0.78858 0.08207 0.84114 0.0
C642 C 0.78152 0.06351 0.83432 0.0
O643 O 0.78332 0.05124 0.7804 0.0
C644 C 0.80993 0.01955 0.81703 0.0
O645 O 0.80163 0.02763 0.83073 0.0
H646 H 0.81236 0.07869 0.80478 0.0
H647 H 0.77006 0.05338 0.83994 0.0
N648 N 0.76433 0.02202 0.80604 0.0
N649 N 0.7424 0.99623 0.79861 0.0
C650 C 0.75462 1.01152 0.79298 0.0
C651 C 0.75792 0.01315 0.82057 0.0
C652 C 0.7444 0.99711 0.81598 0.0
C653 C 0.76835 0.05874 0.78153 0.0
O654 O 0.75761 0.05751 0.79603 0.0
H655 H 0.75799 0.01384 0.77934 0.0
H656 H 0.76381 0.01698 0.83325 0.0
O657 O 0.80681 0.02402 0.80193 0.0
H658 H 0.78356 0.08914 0.85316 0.0
H659 H 0.73759 0.98622 0.82447 0.0
Cu660 Cu 0.28112 0.76723 0.51725 0.0
N661 N 0.30307 0.77466 0.53036 0.0
N662 N 0.32132 0.7886 0.55243 0.0
C663 C 0.3038 0.78527 0.54595 0.0
C664 C 0.33198 0.77957 0.54038 0.0
C665 C 0.32073 0.77103 0.52682 0.0
O666 O 0.2604 0.75996 0.53464 0.0
C667 C 0.29067 0.80365 0.50254 0.0
O668 O 0.30279 0.80851 0.51495 0.0
H669 H 0.29159 0.79034 0.55243 0.0
H670 H 0.32514 0.76287 0.51518 0.0
N671 N 0.28181 0.74595 0.50052 0.0
N672 N 0.2744 0.726 0.47645 0.0
C673 C 0.2728 0.74311 0.48533 0.0
C674 C 0.28959 0.73015 0.50112 0.0
C675 C 0.28494 0.71779 0.48639 0.0
C676 C 0.26338 0.74684 0.54383 0.0
O677 O 0.27873 0.73938 0.53999 0.0
H678 H 0.2647 0.75315 0.48115 0.0
H679 H 0.29783 0.7276 0.51163 0.0
O680 O 0.27863 0.78794 0.50297 0.0
H681 H 0.34695 0.77938 0.54112 0.0
H682 H 0.289 0.70384 0.48322 0.0
Cu683 Cu 0.80595 0.82021 0.50073 0.0
N684 N 0.82445 0.81875 0.48255 0.0
N685 N 0.83603 0.81503 0.45506 0.0
C686 C 0.82032 0.81505 0.46564 0.0
C687 C 0.85072 0.81869 0.46565 0.0
C688 C 0.84354 0.82115 0.48264 0.0
O689 O 0.78307 0.82318 0.48954 0.0
C690 C 0.81811 0.79687 0.52249 0.0
O691 O 0.83342 0.80996 0.52015 0.0
H692 H 0.806 0.81228 0.46117 0.0
H693 H 0.85178 0.82466 0.49413 0.0
N694 N 0.8125 0.842 0.51623 0.0
N695 N 0.80918 0.86238 0.53968 0.0
C696 C 0.80062 0.84739 0.52917 0.0
C697 C 0.82922 0.85407 0.51849 0.0
C698 C 0.82724 0.86664 0.53309 0.0
C699 C 0.78496 0.83891 0.4822 0.0
O700 O 0.80108 0.85121 0.48366 0.0
H701 H 0.78621 0.83977 0.53133 0.0
H702 H 0.84208 0.8534 0.51049 0.0
O703 O 0.80328 0.79795 0.51464 0.0
H704 H 0.86555 0.8199 0.46138 0.0
H705 H 0.83826 0.87775 0.53861 0.0
Cu706 Cu 0.78357 0.27123 0.54642 0.0
N707 N 0.78532 0.25223 0.52769 0.0
N708 N 0.7794 0.23629 0.50139 0.0
C709 C 0.77741 0.25205 0.5122 0.0
C710 C 0.78897 0.22608 0.51041 0.0
C711 C 0.79272 0.236 0.52656 0.0
O712 O 0.77958 0.29304 0.53425 0.0
C713 C 0.76718 0.24727 0.57123 0.0
O714 O 0.78318 0.24121 0.56674 0.0
H715 H 0.76967 0.26291 0.50915 0.0
H716 H 0.80008 0.23149 0.53679 0.0
N717 N 0.80545 0.27843 0.55956 0.0
N718 N 0.82349 0.29189 0.58187 0.0
C719 C 0.80632 0.28956 0.57487 0.0
C720 C 0.82266 0.27345 0.55677 0.0
C721 C 0.83379 0.28169 0.5705 0.0
C722 C 0.79268 0.30772 0.53237 0.0
O723 O 0.80662 0.31138 0.5431 0.0
H724 H 0.7944 0.29556 0.58089 0.0
H725 H 0.82678 0.26436 0.54562 0.0
O726 O 0.76329 0.26095 0.56324 0.0
H727 H 0.79296 0.21243 0.50567 0.0
H728 H 0.84839 0.28037 0.57192 0.0
Cu729 Cu 0.27074 0.31941 0.54456 0.0
N730 N 0.27288 0.3391 0.56263 0.0
N731 N 0.27548 0.35151 0.59035 0.0
C732 C 0.27856 0.33698 0.5785 0.0
C733 C 0.26773 0.36343 0.58151 0.0
C734 C 0.2661 0.35572 0.56442 0.0
O735 O 0.26903 0.29584 0.5563 0.0
C736 C 0.25147 0.33527 0.52179 0.0
O737 O 0.2668 0.34859 0.52368 0.0
H738 H 0.28327 0.3241 0.58162 0.0
H739 H 0.25916 0.36121 0.55448 0.0
N740 N 0.29227 0.32256 0.52958 0.0
N741 N 0.30938 0.31982 0.50457 0.0
C742 C 0.2927 0.31407 0.51326 0.0
C743 C 0.30923 0.33432 0.53134 0.0
C744 C 0.31988 0.33268 0.5158 0.0
C745 C 0.27765 0.282 0.55111 0.0
O746 O 0.28561 0.28125 0.53527 0.0
H747 H 0.2807 0.30428 0.5077 0.0
H748 H 0.31336 0.3437 0.5429 0.0
O749 O 0.24952 0.3203 0.53021 0.0
H750 H 0.26259 0.37619 0.58718 0.0
H751 H 0.33414 0.34034 0.51296 0.0
Cu752 Cu 0.79209 0.54042 0.7658 0.0
N753 N 0.79329 0.55078 0.74414 0.0
N754 N 0.79981 0.57151 0.72339 0.0
C755 C 0.79954 0.56931 0.74067 0.0
C756 C 0.7934 0.5537 0.71576 0.0
C757 C 0.78938 0.541 0.72856 0.0
O758 O 0.79201 0.56188 0.78436 0.0
C759 C 0.80882 0.50774 0.75677 0.0
O760 O 0.79279 0.50242 0.74888 0.0
H761 H 0.80442 0.5808 0.75054 0.0
H762 H 0.78423 0.52563 0.72658 0.0
N763 N 0.76914 0.52321 0.76902 0.0
N764 N 0.7485 0.49874 0.77967 0.0
C765 C 0.76542 0.51076 0.78149 0.0
C766 C 0.75404 0.51916 0.75898 0.0
C767 C 0.74128 0.5041 0.76551 0.0
C768 C 0.77667 0.56882 0.78614 0.0
O769 O 0.763 0.56162 0.77556 0.0
H770 H 0.77525 0.51037 0.79144 0.0
H771 H 0.75264 0.52627 0.74744 0.0
O772 O 0.81219 0.52442 0.76528 0.0
H773 H 0.79182 0.55009 0.70189 0.0
H774 H 0.72806 0.49723 0.75981 0.0
Cu775 Cu 0.30813 0.53216 0.75582 0.0
N776 N 0.31828 0.52745 0.77644 0.0
N777 N 0.32962 0.51065 0.79525 0.0
C778 C 0.32284 0.51042 0.77926 0.0
C779 C 0.32934 0.52864 0.80278 0.0
C780 C 0.32235 0.53897 0.79116 0.0
O781 O 0.28998 0.50921 0.74954 0.0
C782 C 0.34446 0.54501 0.73919 0.0
O783 O 0.35743 0.54453 0.72637 0.0
H784 H 0.32085 0.49798 0.76979 0.0
H785 H 0.32055 0.55385 0.79327 0.0
N786 N 0.29565 0.55329 0.75821 0.0
N787 N 0.28071 0.57625 0.75087 0.0
C788 C 0.29072 0.5623 0.74504 0.0
C789 C 0.28843 0.56169 0.77289 0.0
C790 C 0.27931 0.57591 0.76842 0.0
C791 C 0.28704 0.50237 0.73389 0.0
O792 O 0.29584 0.51181 0.72093 0.0
H793 H 0.29435 0.55854 0.73145 0.0
H794 H 0.2892 0.55741 0.78588 0.0
O795 O 0.32796 0.53496 0.73736 0.0
H796 H 0.33405 0.53407 0.81567 0.0
H797 H 0.27166 0.58479 0.77741 0.0
Cu798 Cu 0.30806 0.51548 0.26494 0.0
N799 N 0.30673 0.50484 0.28641 0.0
N800 N 0.2924 0.48585 0.30687 0.0
C801 C 0.29219 0.49075 0.29039 0.0
C802 C 0.30804 0.49731 0.31348 0.0
C803 C 0.31686 0.50908 0.30081 0.0
O804 O 0.31029 0.49349 0.24731 0.0
C805 C 0.28829 0.54208 0.28035 0.0
O806 O 0.30408 0.54453 0.28869 0.0
H807 H 0.28154 0.4844 0.2812 0.0
H808 H 0.32936 0.52025 0.30216 0.0
N809 N 0.32897 0.53487 0.26043 0.0
N810 N 0.34451 0.56063 0.2474 0.0
C811 C 0.32745 0.55005 0.25166 0.0
C812 C 0.34774 0.53584 0.26182 0.0
C813 C 0.35739 0.55175 0.25373 0.0
C814 C 0.32282 0.48369 0.25058 0.0
O815 O 0.33254 0.48892 0.26464 0.0
H816 H 0.31406 0.55261 0.24759 0.0
H817 H 0.35399 0.52533 0.26761 0.0
O818 O 0.2861 0.52914 0.26741 0.0
H819 H 0.3125 0.49766 0.32667 0.0
H820 H 0.37265 0.55618 0.2523 0.0
Cu821 Cu 0.7879 0.54047 0.29329 0.0
N822 N 0.78448 0.52491 0.31204 0.0
N823 N 0.7876 0.50087 0.3279 0.0
C824 C 0.79345 0.51007 0.31341 0.0
C825 C 0.77433 0.5103 0.33603 0.0
C826 C 0.77234 0.52504 0.32614 0.0
O827 O 0.79937 0.52646 0.27405 0.0
C828 C 0.80015 0.57608 0.31229 0.0
O829 O 0.78631 0.56952 0.32342 0.0
H830 H 0.8041 0.50603 0.30396 0.0
H831 H 0.76251 0.53493 0.32889 0.0
N832 N 0.76473 0.54455 0.28632 0.0
N833 N 0.74418 0.5579 0.27324 0.0
C834 C 0.7619 0.56022 0.27898 0.0
C835 C 0.74824 0.53189 0.28531 0.0
C836 C 0.73551 0.54009 0.2772 0.0
C837 C 0.81625 0.5234 0.27424 0.0
O838 O 0.82712 0.5321 0.28679 0.0
H839 H 0.77296 0.57266 0.27704 0.0
H840 H 0.7459 0.51747 0.28957 0.0
O841 O 0.80371 0.56537 0.29874 0.0
H842 H 0.76633 0.50657 0.34802 0.0
H843 H 0.72115 0.53333 0.27413 0.0
Cu844 Cu 0.51708 0.26031 0.77177 0.0
N845 N 0.49855 0.25791 0.79009 0.0
N846 N 0.47527 0.26651 0.80828 0.0
C847 C 0.48811 0.27159 0.7951 0.0
C848 C 0.4779 0.24883 0.81171 0.0
C849 C 0.49225 0.24355 0.80045 0.0
O850 O 0.50355 0.26612 0.75235 0.0
C851 C 0.54529 0.27643 0.79337 0.0
O852 O 0.53804 0.26023 0.80031 0.0
H853 H 0.49008 0.28512 0.78916 0.0
H854 H 0.49759 0.23019 0.79981 0.0
N855 N 0.52748 0.23799 0.76589 0.0
N856 N 0.54911 0.22002 0.75568 0.0
C857 C 0.54561 0.23804 0.75999 0.0
C858 C 0.51912 0.21928 0.76534 0.0
C859 C 0.53242 0.20816 0.75905 0.0
C860 C 0.5025 0.2563 0.73758 0.0
O861 O 0.51412 0.24409 0.73347 0.0
H862 H 0.55585 0.25115 0.75835 0.0
H863 H 0.50433 0.21412 0.76891 0.0
O864 O 0.53791 0.28033 0.77984 0.0
H865 H 0.46984 0.24013 0.82143 0.0
H866 H 0.52993 0.19257 0.75707 0.0
Cu867 Cu 0.55608 0.78658 0.76737 0.0
N868 N 0.57395 0.78987 0.78464 0.0
N869 N 0.59727 0.7834 0.79987 0.0
C870 C 0.58633 0.77796 0.78597 0.0
C871 C 0.59147 0.79943 0.80757 0.0
C872 C 0.57714 0.80341 0.79813 0.0
O873 O 0.56987 0.78038 0.7458 0.0
C874 C 0.52666 0.7691 0.78794 0.0
O875 O 0.53183 0.78553 0.79735 0.0
H876 H 0.58697 0.7653 0.77705 0.0
H877 H 0.5695 0.81524 0.80096 0.0
N878 N 0.5459 0.80881 0.7653 0.0
N879 N 0.52587 0.82695 0.7575 0.0
C880 C 0.52799 0.80917 0.76112 0.0
C881 C 0.55541 0.82702 0.76444 0.0
C882 C 0.5431 0.83823 0.75964 0.0
C883 C 0.56729 0.78623 0.73119 0.0
O884 O 0.55225 0.79386 0.72952 0.0
H885 H 0.51708 0.79637 0.75964 0.0
H886 H 0.57044 0.83159 0.76634 0.0
O887 O 0.53558 0.76608 0.77341 0.0
H888 H 0.59725 0.80782 0.81913 0.0
H889 H 0.5467 0.85339 0.75747 0.0
Cu890 Cu 0.51307 0.78059 0.27111 0.0
N891 N 0.49545 0.7781 0.29022 0.0
N892 N 0.47163 0.78518 0.3086 0.0
C893 C 0.48061 0.78741 0.29271 0.0
C894 C 0.48118 0.77372 0.31627 0.0
C895 C 0.49587 0.76944 0.30493 0.0
O896 O 0.4988 0.78527 0.25184 0.0
C897 C 0.5345 0.813 0.29042 0.0
O898 O 0.51826 0.81504 0.2986 0.0
H899 H 0.47695 0.79618 0.28316 0.0
H900 H 0.50657 0.7613 0.30752 0.0
N901 N 0.52342 0.7583 0.26519 0.0
N902 N 0.54412 0.73998 0.25342 0.0
C903 C 0.54052 0.75807 0.25683 0.0
C904 C 0.51592 0.73973 0.26731 0.0
C905 C 0.52868 0.72839 0.26011 0.0
C906 C 0.50109 0.77837 0.23612 0.0
O907 O 0.51615 0.77066 0.23153 0.0
H908 H 0.55005 0.771 0.2532 0.0
H909 H 0.50205 0.73477 0.27339 0.0
O910 O 0.53466 0.80062 0.27731 0.0
H911 H 0.47838 0.76944 0.32945 0.0
H912 H 0.52651 0.71279 0.25943 0.0
Cu913 Cu 0.5734 0.3055 0.27634 0.0
N914 N 0.5591 0.31245 0.29615 0.0
N915 N 0.53253 0.31511 0.3121 0.0
C916 C 0.54011 0.30746 0.29725 0.0
C917 C 0.54731 0.32524 0.32092 0.0
C918 C 0.56379 0.32377 0.31088 0.0
O919 O 0.55432 0.3016 0.25809 0.0
C920 C 0.5959 0.28663 0.29436 0.0
O921 O 0.59754 0.30352 0.30336 0.0
H922 H 0.53194 0.29839 0.28728 0.0
H923 H 0.57805 0.33084 0.31394 0.0
N924 N 0.59335 0.32581 0.27207 0.0
N925 N 0.62278 0.34103 0.2654 0.0
C926 C 0.61069 0.32392 0.26517 0.0
C927 C 0.59442 0.34474 0.27687 0.0
C928 C 0.61256 0.3542 0.27272 0.0
C929 C 0.55251 0.31527 0.24891 0.0
O930 O 0.56609 0.33053 0.24868 0.0
H931 H 0.61454 0.31011 0.26081 0.0
H932 H 0.58293 0.35114 0.28327 0.0
O933 O 0.58534 0.2835 0.28122 0.0
H934 H 0.54621 0.33352 0.33339 0.0
H935 H 0.61782 0.36953 0.27507 0.0
H936 H 0.22647 0.21667 0.1787 0.0
H937 H 0.16933 0.21503 0.16325 0.0
H938 H 0.23904 0.22843 0.15094 0.0
H939 H 0.18197 0.2284 0.1361 0.0
H940 H 0.20893 0.23366 0.08112 0.0
H941 H 0.19607 0.22147 0.10881 0.0
H942 H 0.24505 0.25478 0.1344 0.0
H943 H 0.25815 0.26617 0.10646 0.0
C944 C 0.21653 0.21883 0.16943 0.0
C945 C 0.1968 0.21472 0.17335 0.0
C946 C 0.2238 0.22596 0.15353 0.0
C947 C 0.21162 0.22951 0.1411 0.0
C948 C 0.19189 0.22562 0.14512 0.0
C949 C 0.1846 0.21822 0.16092 0.0
C950 C 0.21686 0.23843 0.0927 0.0
C951 C 0.23457 0.25085 0.09159 0.0
C952 C 0.20946 0.23151 0.10866 0.0
C953 C 0.21944 0.23707 0.12404 0.0
C954 C 0.23707 0.24977 0.12289 0.0
C955 C 0.24459 0.25642 0.10686 0.0
H956 H 0.84417 0.20544 0.09132 0.0
H957 H 0.84933 0.26132 0.12027 0.0
H958 H 0.8346 0.21885 0.06593 0.0
H959 H 0.83953 0.27475 0.09485 0.0
H960 H 0.80376 0.28643 0.05044 0.0
H961 H 0.81028 0.27126 0.07611 0.0
H962 H 0.85116 0.24313 0.04506 0.0
H963 H 0.84488 0.25846 0.0195 0.0
C964 C 0.84322 0.2206 0.09224 0.0
C965 C 0.84764 0.23236 0.10771 0.0
C966 C 0.83776 0.22827 0.07771 0.0
C967 C 0.83631 0.24784 0.07839 0.0
C968 C 0.84038 0.25957 0.09399 0.0
C969 C 0.84612 0.25193 0.10849 0.0
C970 C 0.81386 0.27671 0.04901 0.0
C971 C 0.82376 0.27358 0.0329 0.0
C972 C 0.81775 0.26821 0.06376 0.0
C973 C 0.83132 0.2561 0.06262 0.0
C974 C 0.84057 0.25232 0.04634 0.0
C975 C 0.83695 0.26108 0.03169 0.0
H976 H 0.86688 0.85349 0.14153 0.0
H977 H 0.81617 0.87158 0.16532 0.0
H978 H 0.84973 0.84019 0.1155 0.0
H979 H 0.79918 0.85884 0.13905 0.0
H980 H 0.77006 0.81104 0.09874 0.0
H981 H 0.78644 0.82809 0.12395 0.0
H982 H 0.83526 0.8485 0.09035 0.0
H983 H 0.81894 0.83115 0.0651 0.0
C984 C 0.85208 0.85467 0.14122 0.0
C985 C 0.84295 0.86357 0.15564 0.0
C986 C 0.84228 0.84725 0.12616 0.0
C987 C 0.82301 0.84843 0.12506 0.0
C988 C 0.81393 0.8575 0.13942 0.0
C989 C 0.82376 0.86499 0.15446 0.0
C990 C 0.78415 0.81944 0.09663 0.0
C991 C 0.79313 0.81961 0.07981 0.0
C992 C 0.79358 0.82928 0.11115 0.0
C993 C 0.81231 0.83956 0.10931 0.0
C994 C 0.82098 0.84047 0.09236 0.0
C995 C 0.81151 0.83068 0.07781 0.0
H996 H 0.26714 0.81011 0.16163 0.0
H997 H 0.22616 0.84415 0.15048 0.0
H998 H 0.2769 0.80698 0.13072 0.0
H999 H 0.23684 0.8426 0.11987 0.0
H1000 H 0.24603 0.82124 0.06331 0.0
H1001 H 0.23616 0.82418 0.09415 0.0
H1002 H 0.29316 0.82107 0.10752 0.0
H1003 H 0.30223 0.8165 0.07648 0.0
C1004 C 0.26037 0.81707 0.15249 0.0
C1005 C 0.24577 0.82712 0.1583 0.0
C1006 C 0.2661 0.81551 0.13478 0.0
C1007 C 0.25774 0.82454 0.12255 0.0
C1008 C 0.24333 0.83496 0.12862 0.0
C1009 C 0.23723 0.83599 0.14624 0.0
C1010 C 0.25638 0.82137 0.07296 0.0
C1011 C 0.27487 0.8188 0.0677 0.0
C1012 C 0.25082 0.82315 0.09068 0.0
C1013 C 0.26381 0.82293 0.10358 0.0
C1014 C 0.28255 0.82086 0.09813 0.0
C1015 C 0.28789 0.8185 0.08037 0.0
H1016 H 0.24647 0.8381 0.8942 0.0
H1017 H 0.18994 0.80781 0.90702 0.0
H1018 H 0.25899 0.82296 0.91675 0.0
H1019 H 0.2026 0.79219 0.92967 0.0
H1020 H 0.23478 0.78935 0.98189 0.0
H1021 H 0.21783 0.79928 0.95854 0.0
H1022 H 0.26471 0.79165 0.92196 0.0
H1023 H 0.28162 0.78248 0.94523 0.0
C1024 C 0.23672 0.82808 0.90181 0.0
C1025 C 0.21727 0.82408 0.89875 0.0
C1026 C 0.24391 0.81925 0.91468 0.0
C1027 C 0.23187 0.80606 0.92489 0.0
C1028 C 0.21227 0.80225 0.92205 0.0
C1029 C 0.20503 0.81113 0.90904 0.0
C1030 C 0.24109 0.78924 0.96871 0.0
C1031 C 0.25949 0.7852 0.96532 0.0
C1032 C 0.23146 0.795 0.95535 0.0
C1033 C 0.24011 0.79673 0.93844 0.0
C1034 C 0.25783 0.79104 0.9349 0.0
C1035 C 0.26745 0.78555 0.94819 0.0
H1036 H 0.2684 0.18624 0.9086 0.0
H1037 H 0.21061 0.18286 0.92945 0.0
H1038 H 0.28002 0.19855 0.93746 0.0
H1039 H 0.22216 0.19559 0.95803 0.0
H1040 H 0.24662 0.20193 1.01102 0.0
H1041 H 0.23761 0.18696 0.98228 0.0
H1042 H 0.28221 0.22739 0.95821 0.0
H1043 H 0.29143 0.24229 0.98709 0.0
C1044 C 0.25816 0.18802 0.91934 0.0
C1045 C 0.23854 0.18356 0.91662 0.0
C1046 C 0.26484 0.19527 0.93587 0.0
C1047 C 0.25207 0.19807 0.95017 0.0
C1048 C 0.23246 0.19342 0.94745 0.0
C1049 C 0.22581 0.18631 0.93095 0.0
C1050 C 0.25472 0.20751 0.99964 0.0
C1051 C 0.26974 0.22342 1.00147 0.0
C1052 C 0.24942 0.199 0.9831 0.0
C1053 C 0.25897 0.20609 0.96782 0.0
C1054 C 0.27456 0.22145 0.96964 0.0
C1055 C 0.27986 0.23002 0.98624 0.0
H1056 H 0.84668 0.27237 0.86574 0.0
H1057 H 0.88018 0.32848 0.85784 0.0
H1058 H 0.84782 0.27953 0.8971 0.0
H1059 H 0.88238 0.33547 0.88941 0.0
H1060 H 0.85963 0.35044 0.94553 0.0
H1061 H 0.86432 0.34347 0.9141 0.0
H1062 H 0.86472 0.2838 0.92197 0.0
H1063 H 0.85874 0.29084 0.95328 0.0
C1064 C 0.85475 0.28608 0.87075 0.0
C1065 C 0.86343 0.29987 0.8594 0.0
C1066 C 0.85552 0.2902 0.88881 0.0
C1067 C 0.86525 0.30812 0.89598 0.0
C1068 C 0.87445 0.32167 0.88448 0.0
C1069 C 0.87334 0.31765 0.86639 0.0
C1070 C 0.8611 0.33596 0.94046 0.0
C1071 C 0.8588 0.32113 0.95168 0.0
C1072 C 0.86384 0.3319 0.92244 0.0
C1073 C 0.86469 0.31296 0.9153 0.0
C1074 C 0.86359 0.29843 0.92682 0.0
C1075 C 0.86039 0.30243 0.94477 0.0
H1076 H 0.89678 0.85078 0.90996 0.0
H1077 H 0.83852 0.85669 0.90548 0.0
H1078 H 0.88827 0.83688 0.93778 0.0
H1079 H 0.82999 0.84283 0.93346 0.0
H1080 H 0.82485 0.83122 0.99136 0.0
H1081 H 0.83431 0.84792 0.96509 0.0
H1082 H 0.87025 0.8066 0.94759 0.0
H1083 H 0.86066 0.78974 0.97377 0.0
C1084 C 0.88214 0.84915 0.91493 0.0
C1085 C 0.86829 0.85466 0.90535 0.0
C1086 C 0.87725 0.84113 0.93089 0.0
C1087 C 0.8584 0.83848 0.93779 0.0
C1088 C 0.84468 0.84476 0.9286 0.0
C1089 C 0.84956 0.85275 0.91256 0.0
C1090 C 0.83468 0.82556 0.98191 0.0
C1091 C 0.84185 0.80896 0.98475 0.0
C1092 C 0.84012 0.8352 0.9668 0.0
C1093 C 0.853 0.82861 0.95417 0.0
C1094 C 0.86048 0.81225 0.95715 0.0
C1095 C 0.85498 0.80255 0.97222 0.0
H1096 H 0.15352 0.23947 0.21802 0.0
H1097 H 0.13601 0.18061 0.23134 0.0
H1098 H 0.12438 0.24758 0.23234 0.0
H1099 H 0.10747 0.18896 0.24649 0.0
H1100 H 0.04888 0.20475 0.25694 0.0
H1101 H 0.07765 0.19676 0.24182 0.0
H1102 H 0.10894 0.25256 0.26028 0.0
H1103 H 0.08 0.26062 0.27511 0.0
C1104 C 0.14347 0.22823 0.22397 0.0
C1105 C 0.14721 0.20936 0.22347 0.0
C1106 C 0.12684 0.23296 0.23242 0.0
C1107 C 0.11348 0.21897 0.24067 0.0
C1108 C 0.11723 0.2001 0.24014 0.0
C1109 C 0.1338 0.19536 0.23162 0.0
C1110 C 0.06192 0.21525 0.25789 0.0
C1111 C 0.06209 0.23332 0.26727 0.0
C1112 C 0.07848 0.21067 0.24921 0.0
C1113 C 0.09575 0.22398 0.24979 0.0
C1114 C 0.0959 0.24205 0.25925 0.0
C1115 C 0.07929 0.24667 0.26782 0.0
H1116 H 0.8235 0.18889 0.17464 0.0
H1117 H 0.87657 0.17086 0.18171 0.0
H1118 H 0.80609 0.15869 0.18519 0.0
H1119 H 0.85924 0.14086 0.1923 0.0
H1120 H 0.8237 0.10094 0.22955 0.0
H1121 H 0.83975 0.13088 0.21813 0.0
H1122 H 0.79914 0.1233 0.17795 0.0
H1123 H 0.78261 0.09343 0.18978 0.0
C1124 C 0.83145 0.17841 0.17826 0.0
C1125 C 0.85145 0.1824 0.17748 0.0
C1126 C 0.82147 0.16111 0.18432 0.0
C1127 C 0.83127 0.14744 0.18976 0.0
C1128 C 0.85124 0.15125 0.18857 0.0
C1129 C 0.86119 0.16847 0.1825 0.0
C1130 C 0.81797 0.10571 0.21844 0.0
C1131 C 0.80179 0.09472 0.21063 0.0
C1132 C 0.82735 0.1228 0.21173 0.0
C1133 C 0.82083 0.12944 0.19704 0.0
C1134 C 0.80449 0.11864 0.18934 0.0
C1135 C 0.79511 0.10144 0.19602 0.0
H1136 H 0.89732 0.82452 0.21187 0.0
H1137 H 0.94184 0.87471 0.21676 0.0
H1138 H 0.91944 0.80429 0.21945 0.0
H1139 H 0.964 0.85448 0.22385 0.0
H1140 H 1.00181 0.80722 0.21397 0.0
H1141 H 0.97881 0.82649 0.20691 0.0
H1142 H 0.93943 0.80144 0.24688 0.0
H1143 H 0.96269 0.78234 0.25419 0.0
C1144 C 0.91183 0.83122 0.21449 0.0
C1145 C 0.91786 0.85123 0.21365 0.0
C1146 C 0.92446 0.81965 0.21891 0.0
C1147 C 0.94351 0.82776 0.22219 0.0
C1148 C 0.94949 0.84775 0.22127 0.0
C1149 C 0.93677 0.85935 0.21726 0.0
C1150 C 0.98821 0.8057 0.22118 0.0
C1151 C 0.98409 0.79316 0.23461 0.0
C1152 C 0.97507 0.81685 0.21721 0.0
C1153 C 0.95727 0.81551 0.22632 0.0
C1154 C 0.95297 0.80273 0.23956 0.0
C1155 C 0.96631 0.79187 0.2438 0.0
H1156 H 0.24133 0.89548 0.20492 0.0
H1157 H 0.22977 0.87571 0.25656 0.0
H1158 H 0.25502 0.92754 0.21763 0.0
H1159 H 0.24364 0.90778 0.26932 0.0
H1160 H 0.23776 0.97139 0.28289 0.0
H1161 H 0.2313 0.9378 0.27134 0.0
H1162 H 0.27971 0.94847 0.23479 0.0
H1163 H 0.2858 0.98242 0.24601 0.0
C1164 C 0.24229 0.89783 0.21897 0.0
C1165 C 0.2343 0.8832 0.22978 0.0
C1166 C 0.25011 0.91621 0.22626 0.0
C1167 C 0.25011 0.92026 0.24449 0.0
C1168 C 0.24345 0.90519 0.25524 0.0
C1169 C 0.23559 0.88684 0.24795 0.0
C1170 C 0.24697 0.96664 0.27233 0.0
C1171 C 0.26217 0.97964 0.26524 0.0
C1172 C 0.24347 0.94729 0.2659 0.0
C1173 C 0.25507 0.94045 0.25221 0.0
C1174 C 0.27048 0.95334 0.2453 0.0
C1175 C 0.27403 0.97274 0.25179 0.0
H1176 H 0.14631 0.80088 0.83751 0.0
H1177 H 0.12873 0.85621 0.83957 0.0
H1178 H 0.11806 0.78597 0.82186 0.0
H1179 H 0.1006 0.84131 0.82375 0.0
H1180 H 0.06482 0.81071 0.77749 0.0
H1181 H 0.09241 0.82623 0.7941 0.0
H1182 H 0.08347 0.77831 0.82631 0.0
H1183 H 0.05628 0.76283 0.8098 0.0
C1184 C 0.13628 0.80981 0.83488 0.0
C1185 C 0.13985 0.82975 0.83976 0.0
C1186 C 0.12013 0.80128 0.82583 0.0
C1187 C 0.10715 0.81249 0.82143 0.0
C1188 C 0.11049 0.83235 0.82664 0.0
C1189 C 0.12659 0.84085 0.83576 0.0
C1190 C 0.06875 0.80355 0.78814 0.0
C1191 C 0.05836 0.78551 0.79226 0.0
C1192 C 0.08449 0.81246 0.7977 0.0
C1193 C 0.09019 0.80344 0.81148 0.0
C1194 C 0.07966 0.78551 0.81563 0.0
C1195 C 0.06396 0.77669 0.80618 0.0
H1196 H 0.24331 0.15378 0.83664 0.0
H1197 H 0.23986 0.12191 0.88214 0.0
H1198 H 0.25535 0.12756 0.81888 0.0
H1199 H 0.25174 0.09571 0.86439 0.0
H1200 H 0.24379 0.04469 0.81968 0.0
H1201 H 0.23736 0.07178 0.83979 0.0
H1202 H 0.28406 0.10932 0.81526 0.0
H1203 H 0.29078 0.08183 0.79524 0.0
C1204 C 0.24519 0.14122 0.84286 0.0
C1205 C 0.24057 0.13995 0.86082 0.0
C1206 C 0.25227 0.12628 0.83272 0.0
C1207 C 0.25456 0.10954 0.84021 0.0
C1208 C 0.25013 0.10838 0.8582 0.0
C1209 C 0.24338 0.12344 0.86839 0.0
C1210 C 0.25304 0.05861 0.8189 0.0
C1211 C 0.26795 0.06108 0.80604 0.0
C1212 C 0.24933 0.07416 0.83041 0.0
C1213 C 0.26013 0.09276 0.82911 0.0
C1214 C 0.27543 0.09518 0.81655 0.0
C1215 C 0.27944 0.07942 0.80524 0.0
H1216 H 0.91757 0.28352 0.85915 0.0
H1217 H 0.92671 0.23699 0.82088 0.0
H1218 H 0.95178 0.29506 0.85962 0.0
H1219 H 0.96104 0.24857 0.82136 0.0
H1220 H 0.02266 0.26664 0.83972 0.0
H1221 H 0.98854 0.25314 0.84061 0.0
H1222 H 0.97638 0.31045 0.839 0.0
H1223 H 1.01039 0.32367 0.83797 0.0
C1224 C 0.92691 0.27573 0.85088 0.0
C1225 C 0.91944 0.25941 0.83991 0.0
C1226 C 0.94649 0.28236 0.85112 0.0
C1227 C 0.95908 0.27282 0.84041 0.0
C1228 C 0.95169 0.25612 0.82987 0.0
C1229 C 0.93205 0.24947 0.82963 0.0
C1230 C 1.01261 0.27617 0.8393 0.0
C1231 C 0.01903 0.29602 0.83832 0.0
C1232 C 0.99314 0.26854 0.83989 0.0
C1233 C 0.97978 0.28074 0.83985 0.0
C1234 C 0.9863 0.3007 0.83926 0.0
C1235 C 1.00574 0.30827 0.83861 0.0
H1236 H 0.86461 0.93587 0.86154 0.0
H1237 H 0.84689 0.9082 0.81148 0.0
H1238 H 0.85504 0.96539 0.85462 0.0
H1239 H 0.8362 0.93738 0.80479 0.0
H1240 H 0.82818 0.99704 0.79242 0.0
H1241 H 0.84282 0.96957 0.79762 0.0
H1242 H 0.82826 0.97822 0.85283 0.0
H1243 H 0.81481 1.00578 0.84778 0.0
C1244 C 0.85847 0.93605 0.8491 0.0
C1245 C 0.85629 0.91963 0.83714 0.0
C1246 C 0.85285 0.953 0.84511 0.0
C1247 C 0.84451 0.95391 0.82918 0.0
C1248 C 0.84272 0.93749 0.81709 0.0
C1249 C 0.84867 0.92064 0.82098 0.0
C1250 C 0.82844 0.9932 0.80567 0.0
C1251 C 0.82034 1.00374 0.81964 0.0
C1252 C 0.83667 0.9773 0.80867 0.0
C1253 C 0.83684 0.97148 0.82571 0.0
C1254 C 0.82893 0.9823 0.83959 0.0
C1255 C 0.82098 0.99818 0.83662 0.0
H1256 H 0.25506 0.1633 0.21504 0.0
H1257 H 0.20091 0.14568 0.24226 0.0
H1258 H 0.2688 0.14099 0.23039 0.0
H1259 H 0.21447 0.12304 0.25735 0.0
H1260 H 0.25038 0.10037 0.29499 0.0
H1261 H 0.23648 0.12236 0.27951 0.0
H1262 H 0.2683 0.10718 0.23227 0.0
H1263 H 0.28254 0.08552 0.24786 0.0
C1264 C 0.24607 0.15456 0.22425 0.0
C1265 C 0.22695 0.15629 0.22747 0.0
C1266 C 0.2539 0.14167 0.23298 0.0
C1267 C 0.24277 0.13016 0.24514 0.0
C1268 C 0.22356 0.13185 0.24827 0.0
C1269 C 0.21574 0.14476 0.23954 0.0
C1270 C 0.25443 0.10171 0.2813 0.0
C1271 C 0.26763 0.09118 0.2727 0.0
C1272 C 0.24634 0.11425 0.27237 0.0
C1273 C 0.25122 0.11659 0.2546 0.0
C1274 C 0.26439 0.10598 0.246 0.0
C1275 C 0.27249 0.09345 0.25493 0.0
H1276 H 0.17108 0.8984 0.84667 0.0
H1277 H 0.22155 0.87387 0.83458 0.0
H1278 H 0.18546 0.92669 0.83155 0.0
H1279 H 0.23584 0.90185 0.8188 0.0
H1280 H 0.26136 0.9609 0.80071 0.0
H1281 H 0.24874 0.93541 0.81956 0.0
H1282 H 0.19237 0.93414 0.80238 0.0
H1283 H 0.20473 0.96035 0.78439 0.0
C1284 C 0.18536 0.89919 0.84086 0.0
C1285 C 0.1952 0.88396 0.84172 0.0
C1286 C 0.19355 0.9153 0.83204 0.0
C1287 C 0.21171 0.91647 0.82363 0.0
C1288 C 0.2219 0.90157 0.82519 0.0
C1289 C 0.21375 0.88552 0.83423 0.0
C1290 C 0.24623 0.95546 0.8011 0.0
C1291 C 0.23413 0.9629 0.79093 0.0
C1292 C 0.23901 0.94059 0.81181 0.0
C1293 C 0.2195 0.93267 0.8126 0.0
C1294 C 0.20743 0.94007 0.80241 0.0
C1295 C 0.21461 0.955 0.79181 0.0
H1296 H 0.17406 0.18718 0.82228 0.0
H1297 H 0.1597 0.19577 0.87741 0.0
H1298 H 0.14594 0.19951 0.81566 0.0
H1299 H 0.13154 0.20818 0.87082 0.0
H1300 H 0.07224 0.20972 0.85097 0.0
H1301 H 0.10026 0.1974 0.85787 0.0
H1302 H 0.13349 0.22976 0.81809 0.0
H1303 H 0.10544 0.2418 0.81101 0.0
C1304 C 0.16489 0.19175 0.83299 0.0
C1305 C 0.16918 0.19053 0.85035 0.0
C1306 C 0.14881 0.19892 0.82921 0.0
C1307 C 0.13642 0.20492 0.84269 0.0
C1308 C 0.14064 0.20355 0.86009 0.0
C1309 C 0.15686 0.19653 0.86388 0.0
C1310 C 0.08548 0.21412 0.84361 0.0
C1311 C 0.08648 0.22678 0.8304 0.0
C1312 C 0.10163 0.2072 0.8477 0.0
C1313 C 0.11921 0.21255 0.83856 0.0
C1314 C 0.12019 0.22516 0.82531 0.0
C1315 C 0.1041 0.23224 0.82135 0.0
H1316 H 0.87486 0.20114 0.85589 0.0
H1317 H 0.84332 0.21015 0.81248 0.0
H1318 H 0.85881 0.16742 0.85476 0.0
H1319 H 0.82684 0.17673 0.81176 0.0
H1320 H 0.81631 0.11146 0.80267 0.0
H1321 H 0.83338 0.14456 0.80416 0.0
H1322 H 0.82724 0.14781 0.8605 0.0
H1323 H 0.81066 0.11423 0.85901 0.0
C1324 C 0.86455 0.19591 0.84608 0.0
C1325 C 0.86038 0.20833 0.83427 0.0
C1326 C 0.85519 0.17665 0.84557 0.0
C1327 C 0.84153 0.16937 0.83318 0.0
C1328 C 0.83743 0.1818 0.82135 0.0
C1329 C 0.84674 0.20103 0.82188 0.0
C1330 C 0.81879 0.11907 0.81541 0.0
C1331 C 0.81217 0.11009 0.83074 0.0
C1332 C 0.82839 0.13819 0.81625 0.0
C1333 C 0.83163 0.14888 0.83244 0.0
C1334 C 0.82512 0.13992 0.84781 0.0
C1335 C 0.81545 0.12075 0.84696 0.0
H1336 H 0.9239 0.84919 0.86707 0.0
H1337 H 0.88459 0.83872 0.82569 0.0
H1338 H 0.94391 0.82893 0.85037 0.0
H1339 H 0.90477 0.81836 0.80879 0.0
H1340 H 0.93388 0.76429 0.79661 0.0
H1341 H 0.91413 0.78606 0.81173 0.0
H1342 H 0.96454 0.82823 0.82324 0.0
H1343 H 0.98422 0.80641 0.8084 0.0
C1344 C 0.91966 0.84267 0.85429 0.0
C1345 C 0.90268 0.84548 0.84768 0.0
C1346 C 0.93116 0.83114 0.84469 0.0
C1347 C 0.92589 0.82197 0.82829 0.0
C1348 C 0.90909 0.82509 0.82148 0.0
C1349 C 0.89766 0.83687 0.83103 0.0
C1350 C 0.94073 0.77814 0.8025 0.0
C1351 C 0.96063 0.7836 0.80135 0.0
C1352 C 0.92941 0.7907 0.81095 0.0
C1353 C 0.93777 0.8089 0.81863 0.0
C1354 C 0.95767 0.81429 0.81754 0.0
C1355 C 0.96894 0.80183 0.80895 0.0
H1356 H 0.84904 0.90238 0.23089 0.0
H1357 H 0.86219 0.93096 0.18346 0.0
H1358 H 0.83947 0.93136 0.24569 0.0
H1359 H 0.85375 0.96036 0.19831 0.0
H1360 H 0.81603 1.00197 0.22253 0.0
H1361 H 0.82867 0.97461 0.20842 0.0
H1362 H 0.8463 0.96261 0.25821 0.0
H1363 H 0.83256 0.98948 0.27243 0.0
C1364 C 0.85027 0.91505 0.22374 0.0
C1365 C 0.85627 0.91432 0.20598 0.0
C1366 C 0.84485 0.9318 0.23224 0.0
C1367 C 0.84559 0.94847 0.2233 0.0
C1368 C 0.85238 0.94785 0.20566 0.0
C1369 C 0.85743 0.93099 0.19711 0.0
C1370 C 0.8228 0.99366 0.23047 0.0
C1371 C 0.82323 0.99803 0.24867 0.0
C1372 C 0.8302 0.97787 0.22232 0.0
C1373 C 0.83861 0.96606 0.23203 0.0
C1374 C 0.83964 0.97092 0.2502 0.0
C1375 C 0.83192 0.98655 0.2584 0.0
H1376 H 0.16703 0.86847 0.23289 0.0
H1377 H 0.17133 0.80813 0.22687 0.0
H1378 H 0.13491 0.86021 0.246 0.0
H1379 H 0.13905 0.79982 0.23971 0.0
H1380 H 0.08914 0.79307 0.27893 0.0
H1381 H 0.12184 0.80422 0.2687 0.0
H1382 H 0.10302 0.84311 0.23662 0.0
H1383 H 0.0702 0.83204 0.2469 0.0
C1384 C 0.1611 0.85344 0.23443 0.0
C1385 C 0.17168 0.83892 0.22894 0.0
C1386 C 0.14269 0.84872 0.24181 0.0
C1387 C 0.13454 0.8294 0.24398 0.0
C1388 C 0.14509 0.81487 0.23843 0.0
C1389 C 0.16346 0.81958 0.23091 0.0
C1390 C 0.09196 0.80425 0.26993 0.0
C1391 C 0.07701 0.81154 0.2636 0.0
C1392 C 0.11069 0.8105 0.26396 0.0
C1393 C 0.11493 0.82429 0.25165 0.0
C1394 C 0.10016 0.83246 0.24613 0.0
C1395 C 0.08137 0.82612 0.25202 0.0
H1396 H 0.89655 0.26402 0.19423 0.0
H1397 H 0.91946 0.21242 0.17915 0.0
H1398 H 0.92218 0.27514 0.21458 0.0
H1399 H 0.94513 0.22355 0.19896 0.0
H1400 H 0.96236 0.23091 0.25532 0.0
H1401 H 0.942 0.22507 0.23095 0.0
H1402 H 0.95821 0.28478 0.21992 0.0
H1403 H 0.97899 0.29082 0.24491 0.0
C1404 C 0.9074 0.25538 0.19489 0.0
C1405 C 0.90595 0.23727 0.18532 0.0
C1406 C 0.92207 0.26173 0.2065 0.0
C1407 C 0.9355 0.25006 0.20861 0.0
C1408 C 0.9348 0.23271 0.19792 0.0
C1409 C 0.92016 0.22635 0.18651 0.0
C1410 C 0.96177 0.2429 0.24775 0.0
C1411 C 0.97236 0.26137 0.25214 0.0
C1412 C 0.95015 0.23947 0.2336 0.0
C1413 C 0.9486 0.25438 0.22332 0.0
C1414 C 0.95913 0.27298 0.2276 0.0
C1415 C 0.97108 0.27641 0.24182 0.0
H1416 H 0.23112 0.71627 0.64842 0.0
H1417 H 0.17665 0.70647 0.62509 0.0
H1418 H 0.2465 0.72866 0.62162 0.0
H1419 H 0.19217 0.71928 0.59822 0.0
H1420 H 0.23067 0.75935 0.55791 0.0
H1421 H 0.21258 0.74991 0.58506 0.0
H1422 H 0.25096 0.71137 0.59205 0.0
H1423 H 0.2687 0.72048 0.56541 0.0
C1424 C 0.2224 0.71676 0.63759 0.0
C1425 C 0.20267 0.71 0.63885 0.0
C1426 C 0.23121 0.72396 0.62224 0.0
C1427 C 0.22057 0.72473 0.60772 0.0
C1428 C 0.20073 0.71893 0.60921 0.0
C1429 C 0.19186 0.71159 0.62461 0.0
C1430 C 0.23511 0.74878 0.56522 0.0
C1431 C 0.25123 0.7408 0.55949 0.0
C1432 C 0.22476 0.74338 0.58073 0.0
C1433 C 0.23054 0.73012 0.59082 0.0
C1434 C 0.24636 0.7219 0.58479 0.0
C1435 C 0.25648 0.7271 0.56938 0.0
H1436 H 0.80505 0.70924 0.59943 0.0
H1437 H 0.85202 0.75498 0.61299 0.0
H1438 H 0.7999 0.72589 0.57405 0.0
H1439 H 0.8468 0.77152 0.58807 0.0
H1440 H 0.84914 0.78541 0.53285 0.0
H1441 H 0.85133 0.7658 0.55651 0.0
H1442 H 0.79031 0.75619 0.56518 0.0
H1443 H 0.78807 0.77587 0.54098 0.0
C1444 C 0.81417 0.72287 0.59705 0.0
C1445 C 0.82904 0.73067 0.60812 0.0
C1446 C 0.81118 0.73243 0.58258 0.0
C1447 C 0.8231 0.74991 0.57888 0.0
C1448 C 0.83761 0.75788 0.59029 0.0
C1449 C 0.84055 0.7484 0.60468 0.0
C1450 C 0.83611 0.77899 0.53963 0.0
C1451 C 0.81844 0.78241 0.53515 0.0
C1452 C 0.83739 0.76781 0.5533 0.0
C1453 C 0.82105 0.75979 0.56303 0.0
C1454 C 0.80318 0.76223 0.55796 0.0
C1455 C 0.80188 0.77345 0.54411 0.0
H1456 H 0.8553 0.32568 0.68857 0.0
H1457 H 0.86048 0.38023 0.66618 0.0
H1458 H 0.84502 0.30867 0.66093 0.0
H1459 H 0.84955 0.36303 0.63855 0.0
H1460 H 0.81122 0.32381 0.59739 0.0
H1461 H 0.82098 0.34182 0.62506 0.0
H1462 H 0.85913 0.3027 0.63095 0.0
H1463 H 0.84929 0.28467 0.60342 0.0
C1464 C 0.85438 0.33412 0.67776 0.0
C1465 C 0.85907 0.35445 0.67972 0.0
C1466 C 0.8484 0.32429 0.66186 0.0
C1467 C 0.84662 0.33442 0.64741 0.0
C1468 C 0.85067 0.35475 0.64943 0.0
C1469 C 0.85689 0.36463 0.66534 0.0
C1470 C 0.82163 0.319 0.60463 0.0
C1471 C 0.82942 0.30272 0.59814 0.0
C1472 C 0.82735 0.32944 0.62043 0.0
C1473 C 0.84081 0.32371 0.6303 0.0
C1474 C 0.8486 0.30744 0.6238 0.0
C1475 C 0.84307 0.29717 0.60791 0.0
H1476 H 0.2932 0.33454 0.69876 0.0
H1477 H 0.23336 0.31862 0.68946 0.0
H1478 H 0.29923 0.34598 0.66947 0.0
H1479 H 0.23927 0.33033 0.6606 0.0
H1480 H 0.25221 0.36606 0.61521 0.0
H1481 H 0.24984 0.36092 0.64618 0.0
H1482 H 0.29716 0.33075 0.63873 0.0
H1483 H 0.29984 0.33631 0.60778 0.0
C1484 C 0.28135 0.33368 0.69052 0.0
C1485 C 0.26279 0.32619 0.69655 0.0
C1486 C 0.28479 0.34021 0.67382 0.0
C1487 C 0.26967 0.33933 0.66288 0.0
C1488 C 0.25113 0.3317 0.66892 0.0
C1489 C 0.24774 0.32503 0.6855 0.0
C1490 C 0.26245 0.35882 0.62024 0.0
C1491 C 0.2761 0.35141 0.609 0.0
C1492 C 0.26095 0.35569 0.63795 0.0
C1493 C 0.27314 0.3452 0.6448 0.0
C1494 C 0.28759 0.33892 0.63383 0.0
C1495 C 0.28903 0.34196 0.61609 0.0
H1496 H 0.2213 0.39221 0.44026 0.0
H1497 H 0.18481 0.33696 0.42985 0.0
H1498 H 0.23109 0.38151 0.46664 0.0
H1499 H 0.19416 0.32624 0.45686 0.0
H1500 H 0.23647 0.3096 0.49519 0.0
H1501 H 0.22073 0.31742 0.47016 0.0
H1502 H 0.22015 0.37467 0.49519 0.0
H1503 H 0.23666 0.36707 0.51948 0.0
C1504 C 0.2152 0.37779 0.44377 0.0
C1505 C 0.20227 0.36548 0.43304 0.0
C1506 C 0.22067 0.37167 0.45901 0.0
C1507 C 0.2132 0.35307 0.46413 0.0
C1508 C 0.20024 0.34063 0.45332 0.0
C1509 C 0.19482 0.34679 0.4379 0.0
C1510 C 0.23245 0.32363 0.49545 0.0
C1511 C 0.23778 0.33778 0.50916 0.0
C1512 C 0.22348 0.32817 0.48112 0.0
C1513 C 0.21957 0.34687 0.48042 0.0
C1514 C 0.22349 0.36035 0.49496 0.0
C1515 C 0.23273 0.35595 0.50901 0.0
H1516 H 0.2189 0.70511 0.37682 0.0
H1517 H 0.23369 0.65036 0.38522 0.0
H1518 H 0.23157 0.71872 0.40456 0.0
H1519 H 0.24821 0.66454 0.41197 0.0
H1520 H 0.25924 0.68858 0.46763 0.0
H1521 H 0.24474 0.67474 0.4405 0.0
H1522 H 0.25715 0.73112 0.42056 0.0
H1523 H 0.27048 0.74491 0.44828 0.0
C1524 C 0.22484 0.69586 0.38447 0.0
C1525 C 0.22504 0.67643 0.37844 0.0
C1526 C 0.23257 0.70389 0.40042 0.0
C1527 C 0.24117 0.69295 0.41085 0.0
C1528 C 0.24151 0.67357 0.40473 0.0
C1529 C 0.23343 0.66543 0.38898 0.0
C1530 C 0.25884 0.69797 0.45741 0.0
C1531 C 0.26602 0.71785 0.46014 0.0
C1532 C 0.25061 0.69002 0.44168 0.0
C1533 C 0.24969 0.70161 0.42793 0.0
C1534 C 0.25707 0.72157 0.43074 0.0
C1535 C 0.2649 0.72957 0.44665 0.0
H1536 H 0.82553 0.75714 0.3532 0.0
H1537 H 0.83047 0.81682 0.3427 0.0
H1538 H 0.83134 0.76709 0.38374 0.0
H1539 H 0.83545 0.82669 0.37367 0.0
H1540 H 0.81414 0.82761 0.43325 0.0
H1541 H 0.81333 0.82027 0.4016 0.0
H1542 H 0.85825 0.78758 0.40291 0.0
H1543 H 0.85914 0.79514 0.43468 0.0
C1544 C 0.82836 0.77241 0.35723 0.0
C1545 C 0.82814 0.78628 0.34536 0.0
C1546 C 0.83154 0.77808 0.37482 0.0
C1547 C 0.83402 0.79765 0.38099 0.0
C1548 C 0.83363 0.81151 0.3692 0.0
C1549 C 0.83079 0.80586 0.35153 0.0
C1550 C 0.82391 0.81897 0.42673 0.0
C1551 C 0.83663 0.81183 0.43634 0.0
C1552 C 0.82355 0.81491 0.40865 0.0
C1553 C 0.83572 0.80336 0.39988 0.0
C1554 C 0.8487 0.79648 0.40943 0.0
C1555 C 0.84929 0.80086 0.42751 0.0
H1556 H 0.82798 0.31136 0.4248 0.0
H1557 H 0.83328 0.37213 0.44114 0.0
H1558 H 0.81388 0.30356 0.45366 0.0
H1559 H 0.81897 0.36436 0.46985 0.0
H1560 H 0.81811 0.33988 0.52439 0.0
H1561 H 0.82818 0.35016 0.49541 0.0
H1562 H 0.78453 0.30587 0.47288 0.0
H1563 H 0.77429 0.29565 0.50193 0.0
C1564 C 0.82616 0.32304 0.43456 0.0
C1565 C 0.83178 0.34235 0.43069 0.0
C1566 C 0.81787 0.31859 0.45101 0.0
C1567 C 0.8152 0.33335 0.46402 0.0
C1568 C 0.82088 0.35266 0.46014 0.0
C1569 C 0.82899 0.3571 0.44367 0.0
C1570 C 0.81033 0.3326 0.51333 0.0
C1571 C 0.79553 0.31675 0.51552 0.0
C1572 C 0.81614 0.3385 0.49669 0.0
C1573 C 0.80737 0.32862 0.4818 0.0
C1574 C 0.7918 0.31354 0.48407 0.0
C1575 C 0.78583 0.30779 0.50076 0.0
H1576 H 0.13735 0.66967 0.68904 0.0
H1577 H 0.15617 0.73044 0.68312 0.0
H1578 H 0.10774 0.67639 0.70365 0.0
H1579 H 0.12637 0.73714 0.69743 0.0
H1580 H 0.08176 0.74344 0.74226 0.0
H1581 H 0.11079 0.73639 0.72704 0.0
H1582 H 0.07828 0.68753 0.69785 0.0
H1583 H 0.04911 0.69471 0.71288 0.0
C1584 C 0.13513 0.68447 0.69082 0.0
C1585 C 0.14916 0.69953 0.68497 0.0
C1586 C 0.1181 0.6883 0.69906 0.0
C1587 C 0.1147 0.70731 0.70177 0.0
C1588 C 0.12862 0.72235 0.69572 0.0
C1589 C 0.14561 0.7185 0.68736 0.0
C1590 C 0.08069 0.73129 0.7325 0.0
C1591 C 0.06294 0.71975 0.72879 0.0
C1592 C 0.0974 0.72725 0.72376 0.0
C1593 C 0.09687 0.71148 0.71113 0.0
C1594 C 0.07921 0.69971 0.7076 0.0
C1595 C 0.06246 0.70381 0.71629 0.0
H1596 H 0.87003 0.66194 0.66887 0.0
H1597 H 0.8178 0.68361 0.68001 0.0
H1598 H 0.85591 0.63225 0.6822 0.0
H1599 H 0.80361 0.65382 0.69355 0.0
H1600 H 0.79764 0.60829 0.7357 0.0
H1601 H 0.80967 0.63773 0.72097 0.0
H1602 H 0.82943 0.60341 0.67664 0.0
H1603 H 0.81747 0.57412 0.69131 0.0
C1604 C 0.85547 0.66026 0.67409 0.0
C1605 C 0.845 0.67505 0.6734 0.0
C1606 C 0.84736 0.64325 0.68167 0.0
C1607 C 0.82866 0.64072 0.68897 0.0
C1608 C 0.81809 0.65543 0.68814 0.0
C1609 C 0.82613 0.67237 0.68027 0.0
C1610 C 0.80456 0.60708 0.72282 0.0
C1611 C 0.80661 0.58888 0.71469 0.0
C1612 C 0.81129 0.62389 0.71433 0.0
C1613 C 0.82049 0.62287 0.69764 0.0
C1614 C 0.82248 0.60467 0.68951 0.0
C1615 C 0.81552 0.58788 0.69788 0.0
H1616 H 0.90513 0.32409 0.74331 0.0
H1617 H 0.94426 0.37569 0.75993 0.0
H1618 H 0.92474 0.30445 0.75536 0.0
H1619 H 0.96454 0.35611 0.77124 0.0
H1620 H 0.99043 0.31742 0.80291 0.0
H1621 H 0.96942 0.33691 0.79263 0.0
H1622 H 0.95248 0.2922 0.75143 0.0
H1623 H 0.97285 0.27257 0.76229 0.0
C1624 C 0.91804 0.33125 0.74942 0.0
C1625 C 0.92316 0.35149 0.7506 0.0
C1626 C 0.92945 0.31995 0.75626 0.0
C1627 C 0.94649 0.3285 0.76428 0.0
C1628 C 0.95147 0.34883 0.76549 0.0
C1629 C 0.9399 0.36013 0.75887 0.0
C1630 C 0.98219 0.31179 0.79167 0.0
C1631 C 0.98332 0.29339 0.78348 0.0
C1632 C 0.97015 0.32303 0.78566 0.0
C1633 C 0.95908 0.31632 0.77107 0.0
C1634 C 0.96033 0.29787 0.7629 0.0
C1635 C 0.97214 0.28655 0.76908 0.0
H1636 H 0.25322 0.38129 0.70126 0.0
H1637 H 0.20988 0.39295 0.74049 0.0
H1638 H 0.26705 0.41567 0.70295 0.0
H1639 H 0.22294 0.42715 0.74134 0.0
H1640 H 0.26776 0.47934 0.75797 0.0
H1641 H 0.25108 0.44635 0.75316 0.0
H1642 H 0.26286 0.4482 0.69751 0.0
H1643 H 0.28012 0.48137 0.70239 0.0
C1644 C 0.24651 0.39118 0.71006 0.0
C1645 C 0.23051 0.38431 0.72081 0.0
C1646 C 0.25428 0.41089 0.71086 0.0
C1647 C 0.24617 0.42411 0.7224 0.0
C1648 C 0.2297 0.41731 0.73253 0.0
C1649 C 0.22205 0.39768 0.73184 0.0
C1650 C 0.26667 0.47284 0.74467 0.0
C1651 C 0.27533 0.48298 0.73056 0.0
C1652 C 0.25698 0.45391 0.7419 0.0
C1653 C 0.25559 0.44464 0.72494 0.0
C1654 C 0.26385 0.4549 0.71075 0.0
C1655 C 0.27361 0.47393 0.71353 0.0
H1656 H 0.1395 0.38126 0.34439 0.0
H1657 H 0.14522 0.32602 0.36078 0.0
H1658 H 0.10949 0.36629 0.33127 0.0
H1659 H 0.11533 0.31128 0.34793 0.0
H1660 H 0.05204 0.29642 0.34467 0.0
H1661 H 0.08189 0.31383 0.35559 0.0
H1662 H 0.09471 0.34119 0.30737 0.0
H1663 H 0.06431 0.32356 0.29625 0.0
C1664 C 0.1345 0.36591 0.34504 0.0
C1665 C 0.1447 0.35491 0.35388 0.0
C1666 C 0.11729 0.35736 0.33752 0.0
C1667 C 0.10988 0.33766 0.33876 0.0
C1668 C 0.12041 0.32659 0.34707 0.0
C1669 C 0.13756 0.33507 0.3545 0.0
C1670 C 0.06109 0.30621 0.33634 0.0
C1671 C 0.05583 0.30841 0.31947 0.0
C1672 C 0.0783 0.31613 0.3426 0.0
C1673 C 0.09088 0.3286 0.33223 0.0
C1674 C 0.08532 0.33163 0.31565 0.0
C1675 C 0.06793 0.32157 0.3093 0.0
H1676 H 0.22105 0.61166 0.34869 0.0
H1677 H 0.22751 0.63887 0.30036 0.0
H1678 H 0.2346 0.58485 0.3344 0.0
H1679 H 0.24194 0.61221 0.28598 0.0
H1680 H 0.26029 0.55463 0.26303 0.0
H1681 H 0.24017 0.57797 0.2752 0.0
H1682 H 0.26525 0.5807 0.32506 0.0
H1683 H 0.28436 0.55754 0.31332 0.0
C1684 C 0.22547 0.61194 0.33497 0.0
C1685 C 0.22348 0.6276 0.32578 0.0
C1686 C 0.23332 0.59655 0.32672 0.0
C1687 C 0.23983 0.5964 0.30902 0.0
C1688 C 0.23707 0.61168 0.29957 0.0
C1689 C 0.22889 0.62705 0.30783 0.0
C1690 C 0.2611 0.55998 0.27667 0.0
C1691 C 0.27396 0.55415 0.28716 0.0
C1692 C 0.24975 0.57352 0.28362 0.0
C1693 C 0.25091 0.58129 0.30123 0.0
C1694 C 0.26349 0.57493 0.31161 0.0
C1695 C 0.27469 0.56164 0.30475 0.0
H1696 H 0.8916 0.77738 0.30787 0.0
H1697 H 0.8968 0.7408 0.3484 0.0
H1698 H 0.92566 0.78911 0.30719 0.0
H1699 H 0.93107 0.75272 0.34786 0.0
H1700 H 0.98907 0.75229 0.31599 0.0
H1701 H 0.95612 0.74696 0.32677 0.0
H1702 H 0.95375 0.8066 0.32106 0.0
H1703 H 0.98675 0.81183 0.30977 0.0
C1704 C 0.89995 0.77226 0.31701 0.0
C1705 C 0.89153 0.75801 0.32806 0.0
C1706 C 0.91953 0.77904 0.31667 0.0
C1707 C 0.93116 0.77177 0.3274 0.0
C1708 C 0.92256 0.75839 0.33923 0.0
C1709 C 0.90295 0.75155 0.33953 0.0
C1710 C 0.98169 0.76441 0.31741 0.0
C1711 C 0.99043 0.78238 0.31168 0.0
C1712 C 0.96277 0.76139 0.32372 0.0
C1713 C 0.95217 0.77628 0.32452 0.0
C1714 C 0.96143 0.79473 0.32027 0.0
C1715 C 0.98039 0.79776 0.31393 0.0
H1716 H 0.85503 0.41411 0.33999 0.0
H1717 H 0.80908 0.40297 0.37894 0.0
H1718 H 0.84139 0.44043 0.33074 0.0
H1719 H 0.7952 0.42894 0.36949 0.0
H1720 H 0.78814 0.49069 0.36094 0.0
H1721 H 0.8008 0.46373 0.37005 0.0
H1722 H 0.81475 0.44658 0.3161 0.0
H1723 H 0.80223 0.47351 0.30705 0.0
C1724 C 0.84195 0.41723 0.34648 0.0
C1725 C 0.83319 0.40653 0.36019 0.0
C1726 C 0.83405 0.43223 0.34114 0.0
C1727 C 0.81717 0.43685 0.34937 0.0
C1728 C 0.80835 0.42599 0.36302 0.0
C1729 C 0.81626 0.411 0.36837 0.0
C1730 C 0.79373 0.48105 0.35103 0.0
C1731 C 0.79428 0.4844 0.33328 0.0
C1732 C 0.80099 0.46557 0.35624 0.0
C1733 C 0.80892 0.45301 0.34383 0.0
C1734 C 0.80913 0.45617 0.32606 0.0
C1735 C 0.80192 0.47165 0.32086 0.0
H1736 H 0.24814 0.63887 0.66927 0.0
H1737 H 0.21128 0.65088 0.71397 0.0
H1738 H 0.26342 0.61939 0.68646 0.0
H1739 H 0.22631 0.63116 0.73111 0.0
H1740 H 0.27092 0.61101 0.76135 0.0
H1741 H 0.25621 0.63092 0.74425 0.0
H1742 H 0.2568 0.58892 0.69978 0.0
H1743 H 0.27143 0.56898 0.71686 0.0
C1744 C 0.24328 0.63728 0.68276 0.0
C1745 C 0.22851 0.64638 0.69023 0.0
C1746 C 0.25195 0.62604 0.6926 0.0
C1747 C 0.2461 0.62365 0.71018 0.0
C1748 C 0.23135 0.63286 0.71767 0.0
C1749 C 0.22264 0.64408 0.70781 0.0
C1750 C 0.26781 0.60592 0.74797 0.0
C1751 C 0.2724 0.5883 0.74056 0.0
C1752 C 0.25935 0.61736 0.73815 0.0
C1753 C 0.25527 0.61154 0.72062 0.0
C1754 C 0.25998 0.59401 0.71316 0.0
C1755 C 0.26841 0.58255 0.72299 0.0
H1756 H 0.215 0.41851 0.37933 0.0
H1757 H 0.20439 0.38806 0.32854 0.0
H1758 H 0.23957 0.44223 0.36606 0.0
H1759 H 0.22859 0.41218 0.31528 0.0
H1760 H 0.25625 0.47156 0.29725 0.0
H1761 H 0.23287 0.44742 0.31082 0.0
H1762 H 0.272 0.44439 0.3502 0.0
H1763 H 0.29592 0.46839 0.33629 0.0
C1764 C 0.21796 0.41675 0.36536 0.0
C1765 C 0.20766 0.40126 0.35504 0.0
C1766 C 0.23205 0.4304 0.35777 0.0
C1767 C 0.23604 0.42906 0.33965 0.0
C1768 C 0.2257 0.4137 0.32929 0.0
C1769 C 0.21174 0.39993 0.33688 0.0
C1770 C 0.26018 0.46565 0.30861 0.0
C1771 C 0.27826 0.47189 0.31545 0.0
C1772 C 0.24663 0.45178 0.31644 0.0
C1773 C 0.25062 0.44388 0.33149 0.0
C1774 C 0.26849 0.4503 0.33863 0.0
C1775 C 0.28219 0.46409 0.33066 0.0
H1776 H 0.16658 0.68409 0.2834 0.0
H1777 H 0.14234 0.68137 0.33609 0.0
H1778 H 0.13925 0.69658 0.27487 0.0
H1779 H 0.11479 0.6936 0.32749 0.0
H1780 H 0.05946 0.69382 0.29835 0.0
H1781 H 0.08698 0.68218 0.30757 0.0
H1782 H 0.12445 0.72669 0.28112 0.0
H1783 H 0.09688 0.7384 0.27198 0.0
C1784 C 0.1554 0.68618 0.29317 0.0
C1785 C 0.15669 0.6818 0.31043 0.0
C1786 C 0.13977 0.69342 0.2883 0.0
C1787 C 0.1248 0.69613 0.30048 0.0
C1788 C 0.12601 0.69159 0.31775 0.0
C1789 C 0.14184 0.68466 0.3227 0.0
C1790 C 0.07356 0.70107 0.29442 0.0
C1791 C 0.07593 0.71702 0.28434 0.0
C1792 C 0.08935 0.6945 0.29985 0.0
C1793 C 0.10796 0.70348 0.2951 0.0
C1794 C 0.11033 0.71936 0.28493 0.0
C1795 C 0.09454 0.72615 0.27977 0.0
H1796 H 0.82849 0.69624 0.29605 0.0
H1797 H 0.85432 0.69468 0.34482 0.0
H1798 H 0.81906 0.66111 0.29402 0.0
H1799 H 0.84488 0.65945 0.3428 0.0
H1800 H 0.79982 0.60138 0.34136 0.0
H1801 H 0.81295 0.63593 0.34382 0.0
H1802 H 0.83505 0.63153 0.29034 0.0
H1803 H 0.82204 0.59698 0.28785 0.0
C1804 C 0.83213 0.68835 0.30632 0.0
C1805 C 0.84206 0.69814 0.32062 0.0
C1806 C 0.8269 0.66827 0.30509 0.0
C1807 C 0.8313 0.65759 0.31824 0.0
C1808 C 0.84127 0.66736 0.33252 0.0
C1809 C 0.84674 0.68745 0.33363 0.0
C1810 C 0.80768 0.60774 0.3302 0.0
C1811 C 0.80982 0.59648 0.31439 0.0
C1812 C 0.81525 0.62748 0.33164 0.0
C1813 C 0.82489 0.63638 0.31723 0.0
C1814 C 0.82751 0.62504 0.30159 0.0
C1815 C 0.82016 0.60525 0.30021 0.0
H1816 H 0.89363 0.33517 0.4027 0.0
H1817 H 0.86618 0.32921 0.35377 0.0
H1818 H 0.91921 0.32019 0.38841 0.0
H1819 H 0.89158 0.31393 0.33947 0.0
H1820 H 0.94937 0.30481 0.31537 0.0
H1821 H 0.92419 0.32016 0.32974 0.0
H1822 H 0.92665 0.29041 0.37573 0.0
H1823 H 0.95247 0.27586 0.36173 0.0
C1824 C 0.89294 0.33045 0.38892 0.0
C1825 C 0.87783 0.33341 0.3794 0.0
C1826 C 0.90762 0.32182 0.38069 0.0
C1827 C 0.90756 0.31579 0.36272 0.0
C1828 C 0.89235 0.31867 0.35324 0.0
C1829 C 0.87773 0.3274 0.36145 0.0
C1830 C 0.94476 0.30167 0.32861 0.0
C1831 C 0.95315 0.28903 0.33731 0.0
C1832 C 0.93006 0.31032 0.33681 0.0
C1833 C 0.92326 0.30656 0.35394 0.0
C1834 C 0.93162 0.2939 0.36262 0.0
C1835 C 0.94635 0.28531 0.35446 0.0
H1836 H 0.85799 0.40252 0.75302 0.0
H1837 H 0.86704 0.42375 0.70187 0.0
H1838 H 0.84653 0.43193 0.7645 0.0
H1839 H 0.85542 0.45307 0.71331 0.0
H1840 H 0.84477 0.51027 0.7413 0.0
H1841 H 0.8618 0.48332 0.7334 0.0
H1842 H 0.81783 0.44555 0.761 0.0
H1843 H 0.80094 0.47232 0.76862 0.0
C1844 C 0.85778 0.41355 0.74425 0.0
C1845 C 0.86341 0.41063 0.72647 0.0
C1846 C 0.85107 0.4304 0.75082 0.0
C1847 C 0.85 0.44497 0.73987 0.0
C1848 C 0.85619 0.44232 0.72221 0.0
C1849 C 0.86268 0.42537 0.71559 0.0
C1850 C 0.83916 0.49636 0.74617 0.0
C1851 C 0.82174 0.4935 0.7559 0.0
C1852 C 0.84874 0.48082 0.74143 0.0
C1853 C 0.84119 0.46214 0.74648 0.0
C1854 C 0.82425 0.45967 0.75701 0.0
C1855 C 0.81457 0.47506 0.76146 0.0
H1856 H 0.17464 0.3571 0.74927 0.0
H1857 H 0.17268 0.30329 0.71717 0.0
H1858 H 0.14181 0.34695 0.75919 0.0
H1859 H 0.13953 0.29301 0.72726 0.0
H1860 H 0.093 0.2744 0.77127 0.0
H1861 H 0.12295 0.28373 0.75486 0.0
H1862 H 0.1092 0.33983 0.75022 0.0
H1863 H 0.07935 0.33067 0.76701 0.0
C1864 C 0.16706 0.34323 0.74404 0.0
C1865 C 0.17625 0.33103 0.73236 0.0
C1866 C 0.14819 0.33743 0.74972 0.0
C1867 C 0.13801 0.31923 0.74393 0.0
C1868 C 0.14706 0.30708 0.73204 0.0
C1869 C 0.16602 0.31293 0.7263 0.0
C1870 C 0.0962 0.28864 0.76653 0.0
C1871 C 0.08393 0.30193 0.7707 0.0
C1872 C 0.11334 0.29393 0.75701 0.0
C1873 C 0.11855 0.3126 0.75143 0.0
C1874 C 0.10572 0.32546 0.75464 0.0
C1875 C 0.08859 0.32018 0.7642 0.0
H1876 H 0.91359 0.73696 0.64902 0.0
H1877 H 0.88997 0.72737 0.70117 0.0
H1878 H 0.94407 0.75227 0.66096 0.0
H1879 H 0.92043 0.74228 0.71306 0.0
H1880 H 0.99945 0.74954 0.6898 0.0
H1881 H 0.96946 0.74129 0.67531 0.0
H1882 H 0.94269 0.77319 0.71729 0.0
H1883 H 0.97261 0.7813 0.73192 0.0
C1884 C 0.91486 0.73829 0.66304 0.0
C1885 C 0.89939 0.73086 0.67415 0.0
C1886 C 0.93235 0.74695 0.66986 0.0
C1887 C 0.9347 0.74854 0.68797 0.0
C1888 C 0.91907 0.74153 0.69908 0.0
C1889 C 0.90166 0.73276 0.69225 0.0
C1890 C 0.9873 0.7552 0.69576 0.0
C1891 C 0.98843 0.76588 0.71215 0.0
C1892 C 0.97009 0.75049 0.68741 0.0
C1893 C 0.95359 0.7563 0.69529 0.0
C1894 C 0.95505 0.76817 0.71105 0.0
C1895 C 0.97228 0.77297 0.71935 0.0
H1896 H 0.73629 0.20404 0.67202 0.0
H1897 H 0.68142 0.19848 0.65011 0.0
H1898 H 0.75152 0.21825 0.64593 0.0
H1899 H 0.69679 0.21314 0.62405 0.0
H1900 H 0.73411 0.25731 0.58713 0.0
H1901 H 0.71655 0.24436 0.61328 0.0
H1902 H 0.75608 0.20564 0.61514 0.0
H1903 H 0.77338 0.21831 0.58945 0.0
C1904 C 0.72745 0.20573 0.66162 0.0
C1905 C 0.7076 0.19983 0.66317 0.0
C1906 C 0.7362 0.21398 0.64667 0.0
C1907 C 0.72539 0.2167 0.63283 0.0
C1908 C 0.70551 0.21138 0.63452 0.0
C1909 C 0.69672 0.20297 0.64948 0.0
C1910 C 0.73891 0.24594 0.59309 0.0
C1911 C 0.75525 0.23899 0.58621 0.0
C1912 C 0.72886 0.23851 0.60804 0.0
C1913 C 0.73509 0.22416 0.61645 0.0
C1914 C 0.75111 0.21695 0.60924 0.0
C1915 C 0.76098 0.2242 0.59438 0.0
H1916 H 0.33153 0.24847 0.63664 0.0
H1917 H 0.3096 0.19332 0.60958 0.0
H1918 H 0.31643 0.26465 0.6163 0.0
H1919 H 0.29446 0.20948 0.58921 0.0
H1920 H 0.2933 0.2495 0.54445 0.0
H1921 H 0.30493 0.23143 0.56556 0.0
H1922 H 0.28413 0.26778 0.60785 0.0
H1923 H 0.27249 0.28589 0.58678 0.0
C1924 C 0.32347 0.23981 0.62636 0.0
C1925 C 0.32182 0.21963 0.62462 0.0
C1926 C 0.31469 0.24906 0.61479 0.0
C1927 C 0.30422 0.23834 0.60114 0.0
C1928 C 0.30254 0.21815 0.59948 0.0
C1929 C 0.31116 0.2089 0.61116 0.0
C1930 C 0.29092 0.25345 0.55825 0.0
C1931 C 0.28199 0.26918 0.56389 0.0
C1932 C 0.29757 0.24306 0.57036 0.0
C1933 C 0.29562 0.24828 0.58838 0.0
C1934 C 0.28608 0.26357 0.59404 0.0
C1935 C 0.27924 0.27383 0.58195 0.0
H1936 H 0.36251 0.82521 0.65628 0.0
H1937 H 0.35268 0.87794 0.63761 0.0
H1938 H 0.35145 0.80737 0.62919 0.0
H1939 H 0.34136 0.85993 0.61046 0.0
H1940 H 0.30571 0.81739 0.57046 0.0
H1941 H 0.31581 0.83559 0.59785 0.0
H1942 H 0.36125 0.80347 0.59858 0.0
H1943 H 0.35086 0.78497 0.5715 0.0
C1944 C 0.35813 0.83309 0.64636 0.0
C1945 C 0.35875 0.85317 0.64921 0.0
C1946 C 0.35174 0.82279 0.63076 0.0
C1947 C 0.34563 0.83215 0.61745 0.0
C1948 C 0.34579 0.85214 0.62042 0.0
C1949 C 0.35228 0.8625 0.63605 0.0
C1950 C 0.31775 0.81406 0.57651 0.0
C1951 C 0.32739 0.79957 0.56866 0.0
C1952 C 0.32369 0.82469 0.59217 0.0
C1953 C 0.33936 0.82106 0.60056 0.0
C1954 C 0.34899 0.80658 0.59269 0.0
C1955 C 0.34313 0.79606 0.57699 0.0
H1956 H 0.73368 0.86286 0.62859 0.0
H1957 H 0.77818 0.91024 0.64457 0.0
H1958 H 0.74998 0.85927 0.6002 0.0
H1959 H 0.7945 0.90687 0.61573 0.0
H1960 H 0.82685 0.87543 0.56971 0.0
H1961 H 0.81157 0.88404 0.59797 0.0
H1962 H 0.75761 0.87577 0.57387 0.0
H1963 H 0.77286 0.86693 0.54583 0.0
C1964 C 0.74691 0.87262 0.62601 0.0
C1965 C 0.75468 0.88686 0.63882 0.0
C1966 C 0.7562 0.87066 0.60964 0.0
C1967 C 0.77346 0.8829 0.60563 0.0
C1968 C 0.78127 0.89716 0.61845 0.0
C1969 C 0.77193 0.89914 0.63491 0.0
C1970 C 0.81181 0.87586 0.57044 0.0
C1971 C 0.80096 0.87026 0.55566 0.0
C1972 C 0.80305 0.88078 0.58661 0.0
C1973 C 0.78331 0.88026 0.58822 0.0
C1974 C 0.77275 0.87583 0.57316 0.0
C1975 C 0.78147 0.87082 0.5571 0.0
H1976 H 0.71558 0.89658 0.42446 0.0
H1977 H 0.70648 0.83848 0.39978 0.0
H1978 H 0.73355 0.88684 0.44668 0.0
H1979 H 0.72519 0.82873 0.42177 0.0
H1980 H 0.75102 0.81585 0.47227 0.0
H1981 H 0.72836 0.82353 0.45261 0.0
H1982 H 0.76423 0.87909 0.44682 0.0
H1983 H 0.78618 0.87178 0.46648 0.0
C1984 C 0.71741 0.88167 0.42384 0.0
C1985 C 0.70977 0.86835 0.41033 0.0
C1986 C 0.72781 0.87608 0.43652 0.0
C1987 C 0.73113 0.85705 0.4359 0.0
C1988 C 0.72284 0.84347 0.42273 0.0
C1989 C 0.71221 0.84907 0.41007 0.0
C1990 C 0.75387 0.82976 0.46691 0.0
C1991 C 0.77039 0.84321 0.47106 0.0
C1992 C 0.74098 0.83411 0.45555 0.0
C1993 C 0.74434 0.85202 0.44821 0.0
C1994 C 0.76086 0.86535 0.45248 0.0
C1995 C 0.7736 0.86105 0.46373 0.0
H1996 H 0.73369 0.23439 0.39834 0.0
H1997 H 0.74231 0.17616 0.40222 0.0
H1998 H 0.74399 0.24327 0.42785 0.0
H1999 H 0.75467 0.18554 0.43067 0.0
H2000 H 0.76268 0.20094 0.48801 0.0
H2001 H 0.74968 0.19218 0.45937 0.0
H2002 H 0.76785 0.25129 0.44652 0.0
H2003 H 0.77944 0.26002 0.47581 0.0
C2004 C 0.73782 0.22342 0.40535 0.0
C2005 C 0.73714 0.20448 0.39748 0.0
C2006 C 0.74415 0.22866 0.42235 0.0
C2007 C 0.75043 0.21528 0.43203 0.0
C2008 C 0.74974 0.19637 0.4241 0.0
C2009 C 0.74298 0.19103 0.40734 0.0
C2010 C 0.76385 0.212 0.47901 0.0
C2011 C 0.77212 0.23113 0.48415 0.0
C2012 C 0.75651 0.207 0.46241 0.0
C2013 C 0.75771 0.22088 0.45015 0.0
C2014 C 0.76616 0.24009 0.45542 0.0
C2015 C 0.77302 0.24516 0.47223 0.0
H2016 H 0.30389 0.26656 0.39888 0.0
H2017 H 0.3607 0.30015 0.40101 0.0
H2018 H 0.29698 0.2785 0.42902 0.0
H2019 H 0.35414 0.31145 0.43115 0.0
H2020 H 0.33073 0.3414 0.48076 0.0
H2021 H 0.33686 0.33146 0.44994 0.0
H2022 H 0.30524 0.27429 0.45765 0.0
H2023 H 0.29878 0.28448 0.48818 0.0
C2024 C 0.31485 0.27651 0.4058 0.0
C2025 C 0.33276 0.28241 0.39762 0.0
C2026 C 0.31099 0.28324 0.42308 0.0
C2027 C 0.32506 0.29585 0.43256 0.0
C2028 C 0.34289 0.30198 0.4242 0.0
C2029 C 0.34668 0.29539 0.40691 0.0
C2030 C 0.32527 0.3267 0.47582 0.0
C2031 C 0.31422 0.31373 0.48677 0.0
C2032 C 0.32874 0.32098 0.45819 0.0
C2033 C 0.32139 0.30211 0.45125 0.0
C2034 C 0.3107 0.28906 0.4624 0.0
C2035 C 0.3071 0.29485 0.47992 0.0
H2036 H 0.33362 0.87762 0.4181 0.0
H2037 H 0.33029 0.81849 0.39665 0.0
H2038 H 0.31763 0.86649 0.44518 0.0
H2039 H 0.31493 0.80734 0.424 0.0
H2040 H 0.27547 0.79202 0.4706 0.0
H2041 H 0.28605 0.80548 0.44281 0.0
H2042 H 0.32531 0.85095 0.46965 0.0
H2043 H 0.31454 0.83775 0.49737 0.0
C2044 C 0.32935 0.86223 0.4191 0.0
C2045 C 0.33331 0.84895 0.40517 0.0
C2046 C 0.32033 0.85585 0.43471 0.0
C2047 C 0.315 0.83601 0.43684 0.0
C2048 C 0.31862 0.82273 0.42278 0.0
C2049 C 0.32768 0.82912 0.40717 0.0
C2050 C 0.28603 0.80515 0.47063 0.0
C2051 C 0.29421 0.81374 0.48625 0.0
C2052 C 0.29226 0.81275 0.45465 0.0
C2053 C 0.30672 0.82917 0.45393 0.0
C2054 C 0.31408 0.83837 0.46968 0.0
C2055 C 0.30792 0.83075 0.48562 0.0
H2056 H 0.64187 0.16178 0.71528 0.0
H2057 H 0.66152 0.2216 0.70585 0.0
H2058 H 0.61233 0.16975 0.72885 0.0
H2059 H 0.63166 0.22943 0.71874 0.0
H2060 H 0.58481 0.24062 0.75939 0.0
H2061 H 0.61442 0.23235 0.74642 0.0
H2062 H 0.58329 0.17926 0.72214 0.0
H2063 H 0.55366 0.18752 0.73521 0.0
C2064 C 0.63992 0.17664 0.7161 0.0
C2065 C 0.65417 0.19103 0.70947 0.0
C2066 C 0.62284 0.18119 0.72371 0.0
C2067 C 0.61952 0.20026 0.72493 0.0
C2068 C 0.63375 0.21463 0.71825 0.0
C2069 C 0.65083 0.21009 0.71063 0.0
C2070 C 0.58422 0.22724 0.7512 0.0
C2071 C 0.56675 0.2148 0.74833 0.0
C2072 C 0.60126 0.22249 0.74372 0.0
C2073 C 0.60133 0.20515 0.73313 0.0
C2074 C 0.58387 0.19261 0.7304 0.0
C2075 C 0.56682 0.19736 0.73791 0.0
H2076 H 0.36739 0.15631 0.69001 0.0
H2077 H 0.3128 0.17338 0.68859 0.0
H2078 H 0.35188 0.12607 0.70149 0.0
H2079 H 0.29728 0.14295 0.69987 0.0
H2080 H 0.27579 0.07731 0.70288 0.0
H2081 H 0.29077 0.1078 0.6913 0.0
H2082 H 0.33471 0.11468 0.72829 0.0
H2083 H 0.32007 0.08408 0.73951 0.0
C2084 C 0.35209 0.1537 0.69227 0.0
C2085 C 0.34138 0.16737 0.68843 0.0
C2086 C 0.3432 0.13633 0.69884 0.0
C2087 C 0.32334 0.13211 0.70166 0.0
C2088 C 0.31258 0.14566 0.69766 0.0
C2089 C 0.32149 0.1631 0.69117 0.0
C2090 C 0.28869 0.0853 0.70848 0.0
C2091 C 0.2967 0.07821 0.72213 0.0
C2092 C 0.29718 0.10286 0.70195 0.0
C2093 C 0.31397 0.11367 0.70884 0.0
C2094 C 0.3219 0.10663 0.72256 0.0
C2095 C 0.31336 0.08916 0.72914 0.0
H2096 H 0.41694 0.85999 0.7465 0.0
H2097 H 0.44139 0.8567 0.69381 0.0
H2098 H 0.44492 0.85045 0.7571 0.0
H2099 H 0.46952 0.84734 0.70444 0.0
H2100 H 0.525 0.8536 0.73461 0.0
H2101 H 0.49691 0.86245 0.72358 0.0
H2102 H 0.46082 0.82114 0.7546 0.0
H2103 H 0.48897 0.81229 0.76564 0.0
C2104 C 0.4283 0.8572 0.73718 0.0
C2105 C 0.42692 0.85903 0.71933 0.0
C2106 C 0.44429 0.85165 0.74324 0.0
C2107 C 0.45945 0.84809 0.73162 0.0
C2108 C 0.45814 0.85008 0.71374 0.0
C2109 C 0.44198 0.85535 0.70764 0.0
C2110 C 0.51108 0.84649 0.73917 0.0
C2111 C 0.50924 0.83228 0.75108 0.0
C2112 C 0.49498 0.85143 0.7327 0.0
C2113 C 0.47661 0.84251 0.7382 0.0
C2114 C 0.47476 0.82838 0.75019 0.0
C2115 C 0.49087 0.82322 0.75644 0.0
H2116 H 0.74048 0.90198 0.72216 0.0
H2117 H 0.68341 0.91278 0.72047 0.0
H2118 H 0.7464 0.92674 0.74668 0.0
H2119 H 0.68941 0.93773 0.74484 0.0
H2120 H 0.72312 0.99776 0.77022 0.0
H2121 H 0.71296 0.97109 0.74818 0.0
H2122 H 0.73276 0.93185 0.77916 0.0
H2123 H 0.74263 0.95853 0.8013 0.0
C2124 C 0.72926 0.90972 0.72702 0.0
C2125 C 0.71153 0.90556 0.71947 0.0
C2126 C 0.73257 0.92371 0.74111 0.0
C2127 C 0.7183 0.934 0.74766 0.0
C2128 C 0.70061 0.92995 0.74001 0.0
C2129 C 0.69719 0.91571 0.72614 0.0
C2130 C 0.72483 0.98332 0.77244 0.0
C2131 C 0.73352 0.98011 0.78742 0.0
C2132 C 0.71906 0.96812 0.75989 0.0
C2133 C 0.72223 0.9495 0.76196 0.0
C2134 C 0.73027 0.94612 0.77726 0.0
C2135 C 0.73572 0.96128 0.78997 0.0
H2136 H 0.64229 0.82826 0.33974 0.0
H2137 H 0.63033 0.88596 0.34192 0.0
H2138 H 0.61209 0.81566 0.32588 0.0
H2139 H 0.60038 0.87353 0.32803 0.0
H2140 H 0.53972 0.84078 0.31778 0.0
H2141 H 0.56882 0.85308 0.3331 0.0
H2142 H 0.59926 0.81803 0.29676 0.0
H2143 H 0.57018 0.80564 0.28146 0.0
C2144 C 0.63305 0.83816 0.3375 0.0
C2145 C 0.63861 0.85805 0.34183 0.0
C2146 C 0.61591 0.83102 0.32941 0.0
C2147 C 0.60395 0.84364 0.32572 0.0
C2148 C 0.60922 0.86343 0.33075 0.0
C2149 C 0.62638 0.87055 0.33864 0.0
C2150 C 0.55266 0.83585 0.31293 0.0
C2151 C 0.5526 0.82226 0.29836 0.0
C2152 C 0.56932 0.84288 0.32173 0.0
C2153 C 0.58628 0.83636 0.31625 0.0
C2154 C 0.58634 0.82307 0.30147 0.0
C2155 C 0.56971 0.81616 0.29258 0.0
H2156 H 0.73514 0.14342 0.36316 0.0
H2157 H 0.74563 0.17522 0.31733 0.0
H2158 H 0.74736 0.1165 0.34714 0.0
H2159 H 0.75792 0.1481 0.3012 0.0
H2160 H 0.7937 0.10073 0.28253 0.0
H2161 H 0.78546 0.12891 0.30067 0.0
H2162 H 0.73585 0.09255 0.32222 0.0
H2163 H 0.74389 0.0648 0.30403 0.0
C2164 C 0.74017 0.14472 0.34967 0.0
C2165 C 0.73936 0.16151 0.34154 0.0
C2166 C 0.74713 0.12924 0.34047 0.0
C2167 C 0.75371 0.13013 0.3229 0.0
C2168 C 0.75317 0.14702 0.31478 0.0
C2169 C 0.74593 0.16246 0.32395 0.0
C2170 C 0.78138 0.09875 0.29154 0.0
C2171 C 0.7696 0.08052 0.29209 0.0
C2172 C 0.77649 0.1149 0.30173 0.0
C2173 C 0.75994 0.11301 0.31287 0.0
C2174 C 0.74875 0.09454 0.31394 0.0
C2175 C 0.7534 0.0786 0.30355 0.0
H2176 H 0.41906 0.2951 0.36183 0.0
H2177 H 0.41472 0.26707 0.30947 0.0
H2178 H 0.45191 0.30934 0.35503 0.0
H2179 H 0.44803 0.28013 0.3031 0.0
H2180 H 0.50446 0.31611 0.29101 0.0
H2181 H 0.47041 0.30816 0.29796 0.0
H2182 H 0.48177 0.29977 0.3509 0.0
H2183 H 0.51586 0.30859 0.34391 0.0
C2184 C 0.42503 0.29211 0.34879 0.0
C2185 C 0.41417 0.27995 0.33617 0.0
C2186 C 0.44401 0.30005 0.34499 0.0
C2187 C 0.45271 0.29583 0.32856 0.0
C2188 C 0.44176 0.28394 0.31583 0.0
C2189 C 0.4227 0.27619 0.31956 0.0
C2190 C 0.49956 0.31279 0.30417 0.0
C2191 C 0.51264 0.31278 0.31693 0.0
C2192 C 0.4801 0.30811 0.30814 0.0
C2193 C 0.4733 0.30301 0.32491 0.0
C2194 C 0.48645 0.30382 0.33789 0.0
C2195 C 0.50597 0.30881 0.33395 0.0
H2196 H 0.37534 0.93768 0.33132 0.0
H2197 H 0.31937 0.91667 0.35368 0.0
H2198 H 0.36446 0.96604 0.3229 0.0
H2199 H 0.30825 0.94458 0.34479 0.0
H2200 H 0.29827 1.00566 0.342 0.0
H2201 H 0.31021 0.97831 0.35108 0.0
H2202 H 0.34522 0.97649 0.30326 0.0
H2203 H 0.33373 1.00425 0.29449 0.0
C2204 C 0.36067 0.93909 0.33433 0.0
C2205 C 0.34827 0.92499 0.34322 0.0
C2206 C 0.35437 0.95529 0.32941 0.0
C2207 C 0.33544 0.95774 0.33317 0.0
C2208 C 0.32301 0.94346 0.34195 0.0
C2209 C 0.32935 0.92733 0.34696 0.0
C2210 C 0.30861 0.99951 0.33347 0.0
C2211 C 0.31505 1.00721 0.31752 0.0
C2212 C 0.31537 0.98368 0.33862 0.0
C2213 C 0.32865 0.97501 0.3279 0.0
C2214 C 0.33522 0.98288 0.31201 0.0
C2215 C 0.32856 0.9988 0.30693 0.0
H2216 H 0.75097 0.12596 0.69467 0.0
H2217 H 0.71209 0.13814 0.73769 0.0
H2218 H 0.76275 0.10354 0.71174 0.0
H2219 H 0.72405 0.11629 0.75482 0.0
H2220 H 0.73266 0.06195 0.77507 0.0
H2221 H 0.72243 0.0825 0.75559 0.0
H2222 H 0.78067 0.10075 0.73715 0.0
H2223 H 0.79092 0.07947 0.75663 0.0
C2224 C 0.74501 0.12391 0.70781 0.0
C2225 C 0.73048 0.13369 0.71475 0.0
C2226 C 0.75184 0.11115 0.71762 0.0
C2227 C 0.74424 0.10787 0.73463 0.0
C2228 C 0.72996 0.11804 0.74164 0.0
C2229 C 0.72314 0.13071 0.73183 0.0
C2230 C 0.74333 0.07017 0.76674 0.0
C2231 C 0.76264 0.06919 0.76751 0.0
C2232 C 0.73745 0.08213 0.75564 0.0
C2233 C 0.75072 0.09372 0.74506 0.0
C2234 C 0.77003 0.09205 0.74513 0.0
C2235 C 0.77593 0.07984 0.75624 0.0
H2236 H 0.69704 0.88693 0.31028 0.0
H2237 H 0.70283 0.92666 0.35651 0.0
H2238 H 0.71212 0.91273 0.29245 0.0
H2239 H 0.71742 0.95287 0.33862 0.0
H2240 H 0.75572 0.99258 0.3021 0.0
H2241 H 0.74409 0.96638 0.32048 0.0
H2242 H 0.70358 0.94028 0.28213 0.0
H2243 H 0.7159 0.9658 0.26332 0.0
C2244 C 0.7017 0.90123 0.31661 0.0
C2245 C 0.69873 0.90488 0.33473 0.0
C2246 C 0.71016 0.91607 0.30639 0.0
C2247 C 0.71567 0.93501 0.31401 0.0
C2248 C 0.71345 0.93846 0.3323 0.0
C2249 C 0.70512 0.92349 0.34258 0.0
C2250 C 0.74451 0.98117 0.29742 0.0
C2251 C 0.73691 0.98137 0.28104 0.0
C2252 C 0.73767 0.96621 0.30812 0.0
C2253 C 0.72298 0.95109 0.30278 0.0
C2254 C 0.71517 0.95145 0.28655 0.0
C2255 C 0.72208 0.96632 0.27582 0.0
H2256 H 0.68228 0.24273 0.34426 0.0
H2257 H 0.65936 0.19381 0.30936 0.0
H2258 H 0.66026 0.26117 0.33414 0.0
H2259 H 0.63673 0.21193 0.29961 0.0
H2260 H 0.60966 0.25687 0.27437 0.0
H2261 H 0.63143 0.23709 0.2834 0.0
H2262 H 0.62864 0.26463 0.33583 0.0
H2263 H 0.60775 0.28457 0.32666 0.0
C2264 C 0.67242 0.23583 0.33452 0.0
C2265 C 0.67256 0.21672 0.32771 0.0
C2266 C 0.65961 0.24638 0.32873 0.0
C2267 C 0.64638 0.23812 0.31607 0.0
C2268 C 0.64671 0.219 0.30919 0.0
C2269 C 0.65963 0.20851 0.31489 0.0
C2270 C 0.61357 0.25848 0.28785 0.0
C2271 C 0.607 0.27243 0.29973 0.0
C2272 C 0.6261 0.24714 0.29308 0.0
C2273 C 0.63225 0.24937 0.31037 0.0
C2274 C 0.6249 0.26278 0.32231 0.0
C2275 C 0.61265 0.27415 0.31705 0.0
H2276 H 0.36766 0.22455 0.3076 0.0
H2277 H 0.35817 0.21207 0.36159 0.0
H2278 H 0.35919 0.19003 0.29841 0.0
H2279 H 0.34997 0.17749 0.35241 0.0
H2280 H 0.36307 0.11808 0.32619 0.0
H2281 H 0.36975 0.1526 0.33585 0.0
H2282 H 0.32872 0.16286 0.301 0.0
H2283 H 0.32192 0.12835 0.2915 0.0
C2284 C 0.36367 0.21439 0.31746 0.0
C2285 C 0.36349 0.22088 0.33527 0.0
C2286 C 0.35878 0.19472 0.31223 0.0
C2287 C 0.35401 0.18118 0.32473 0.0
C2288 C 0.35371 0.18768 0.34255 0.0
C2289 C 0.35825 0.20739 0.34777 0.0
C2290 C 0.35555 0.12775 0.32061 0.0
C2291 C 0.34199 0.12061 0.30813 0.0
C2292 C 0.35924 0.14741 0.32621 0.0
C2293 C 0.3497 0.1603 0.31917 0.0
C2294 C 0.33627 0.15319 0.30658 0.0
C2295 C 0.33232 0.13349 0.30123 0.0
H2296 H 0.3762 0.84578 0.33016 0.0
H2297 H 0.39471 0.83832 0.3809 0.0
H2298 H 0.40081 0.82904 0.31627 0.0
H2299 H 0.4191 0.82139 0.367 0.0
H2300 H 0.44769 0.77475 0.33646 0.0
H2301 H 0.42267 0.79108 0.34995 0.0
H2302 H 0.43543 0.83322 0.31186 0.0
H2303 H 0.46052 0.81714 0.29849 0.0
C2304 C 0.38559 0.84074 0.33838 0.0
C2305 C 0.38336 0.84343 0.3567 0.0
C2306 C 0.3997 0.83108 0.33039 0.0
C2307 C 0.41192 0.82377 0.3405 0.0
C2308 C 0.40974 0.8265 0.3588 0.0
C2309 C 0.39571 0.83623 0.36678 0.0
C2310 C 0.4453 0.78754 0.33098 0.0
C2311 C 0.4563 0.79451 0.31631 0.0
C2312 C 0.4309 0.79694 0.33875 0.0
C2313 C 0.42701 0.81351 0.33202 0.0
C2314 C 0.43783 0.82035 0.31726 0.0
C2315 C 0.45228 0.81103 0.30954 0.0
H2316 H 0.35333 0.91844 0.67476 0.0
H2317 H 0.36009 0.899 0.72504 0.0
H2318 H 0.34137 0.94626 0.68922 0.0
H2319 H 0.34891 0.92725 0.7395 0.0
H2320 H 0.30966 0.9708 0.75928 0.0
H2321 H 0.3217 0.94242 0.74592 0.0
H2322 H 0.35193 0.97629 0.70562 0.0
H2323 H 0.33963 1.00441 0.71872 0.0
C2324 C 0.3522 0.92001 0.68889 0.0
C2325 C 0.3578 0.90637 0.69865 0.0
C2326 C 0.34557 0.93618 0.69724 0.0
C2327 C 0.3443 0.93926 0.71562 0.0
C2328 C 0.34955 0.92543 0.72536 0.0
C2329 C 0.35619 0.90927 0.71702 0.0
C2330 C 0.31909 0.97226 0.74771 0.0
C2331 C 0.3236 0.98998 0.74011 0.0
C2332 C 0.32602 0.95594 0.74 0.0
C2333 C 0.33765 0.95686 0.72448 0.0
C2334 C 0.34267 0.97479 0.71729 0.0
C2335 C 0.33575 0.99105 0.72496 0.0
H2336 H 0.67745 0.83965 0.72003 0.0
H2337 H 0.66122 0.8469 0.66843 0.0
H2338 H 0.6484 0.81632 0.72438 0.0
H2339 H 0.63209 0.82306 0.67261 0.0
H2340 H 0.57258 0.81024 0.7048 0.0
H2341 H 0.60304 0.82412 0.69126 0.0
H2342 H 0.63012 0.78462 0.71566 0.0
H2343 H 0.59969 0.77101 0.72957 0.0
C2344 C 0.66774 0.83603 0.70952 0.0
C2345 C 0.67144 0.84526 0.694 0.0
C2346 C 0.6512 0.82244 0.71189 0.0
C2347 C 0.63793 0.81778 0.6988 0.0
C2348 C 0.64201 0.82641 0.68295 0.0
C2349 C 0.65869 0.83997 0.68053 0.0
C2350 C 0.58488 0.80404 0.70681 0.0
C2351 C 0.58382 0.78989 0.71864 0.0
C2352 C 0.60239 0.81199 0.69899 0.0
C2353 C 0.61907 0.80581 0.70278 0.0
C2354 C 0.61757 0.79002 0.71287 0.0
C2355 C 0.60011 0.78215 0.72076 0.0
H2356 H 0.41039 0.2285 0.66411 0.0
H2357 H 0.38619 0.22094 0.71638 0.0
H2358 H 0.44124 0.24268 0.676 0.0
H2359 H 0.41694 0.23484 0.72823 0.0
H2360 H 0.4956 0.23726 0.70534 0.0
H2361 H 0.46548 0.23001 0.69097 0.0
H2362 H 0.44073 0.26507 0.73185 0.0
H2363 H 0.4708 0.27227 0.74632 0.0
C2364 C 0.4116 0.2301 0.67814 0.0
C2365 C 0.39589 0.2235 0.6893 0.0
C2366 C 0.42929 0.23809 0.68494 0.0
C2367 C 0.43157 0.23989 0.70306 0.0
C2368 C 0.41566 0.23388 0.71422 0.0
C2369 C 0.39807 0.22573 0.70743 0.0
C2370 C 0.48387 0.24378 0.71109 0.0
C2371 C 0.48561 0.25521 0.72708 0.0
C2372 C 0.4666 0.23965 0.7028 0.0
C2373 C 0.45062 0.24675 0.71038 0.0
C2374 C 0.45269 0.25913 0.72582 0.0
C2375 C 0.47 0.26338 0.73404 0.0
H2376 H 0.67905 0.70685 0.14176 0.0
H2377 H 0.72813 0.70927 0.17197 0.0
H2378 H 0.69995 0.71726 0.11666 0.0
H2379 H 0.74893 0.71976 0.14711 0.0
H2380 H 0.78184 0.71789 0.0949 0.0
H2381 H 0.75977 0.70725 0.119 0.0
H2382 H 0.72215 0.74391 0.10537 0.0
H2383 H 0.74415 0.75441 0.08124 0.0
C2384 C 0.69428 0.70985 0.14312 0.0
C2385 C 0.70189 0.70703 0.15884 0.0
C2386 C 0.70629 0.71579 0.12872 0.0
C2387 C 0.7262 0.71911 0.12972 0.0
C2388 C 0.73372 0.71685 0.14564 0.0
C2389 C 0.72176 0.7109 0.15996 0.0
C2390 C 0.76886 0.72365 0.09702 0.0
C2391 C 0.76487 0.73702 0.08607 0.0
C2392 C 0.75619 0.71761 0.11091 0.0
C2393 C 0.73918 0.72483 0.11431 0.0
C2394 C 0.73497 0.73786 0.10309 0.0
C2395 C 0.74763 0.74387 0.08917 0.0
H2396 H 0.30078 0.68126 0.11964 0.0
H2397 H 0.35471 0.71951 0.11275 0.0
H2398 H 0.28968 0.69248 0.09355 0.0
H2399 H 0.34373 0.73068 0.08713 0.0
H2400 H 0.32922 0.73517 0.03349 0.0
H2401 H 0.33621 0.71788 0.05734 0.0
H2402 H 0.2816 0.72282 0.0827 0.0
H2403 H 0.27442 0.73995 0.0583 0.0
C2404 C 0.31024 0.69201 0.11255 0.0
C2405 C 0.32862 0.69943 0.11825 0.0
C2406 C 0.30387 0.69848 0.09769 0.0
C2407 C 0.31587 0.71233 0.08812 0.0
C2408 C 0.33421 0.71973 0.09395 0.0
C2409 C 0.34049 0.7134 0.10877 0.0
C2410 C 0.31847 0.7321 0.04391 0.0
C2411 C 0.3013 0.73892 0.04407 0.0
C2412 C 0.32255 0.72235 0.05768 0.0
C2413 C 0.30968 0.71938 0.07216 0.0
C2414 C 0.29183 0.72489 0.07174 0.0
C2415 C 0.28765 0.7346 0.05776 0.0
H2416 H 0.37272 0.36415 0.13921 0.0
H2417 H 0.37605 0.30907 0.15728 0.0
H2418 H 0.35894 0.34784 0.11245 0.0
H2419 H 0.3624 0.29267 0.13027 0.0
H2420 H 0.31577 0.27246 0.0885 0.0
H2421 H 0.33162 0.28653 0.11517 0.0
H2422 H 0.36811 0.32909 0.08571 0.0
H2423 H 0.35236 0.31517 0.05918 0.0
C2424 C 0.37049 0.34853 0.13748 0.0
C2425 C 0.37547 0.33795 0.15046 0.0
C2426 C 0.36275 0.33917 0.12203 0.0
C2427 C 0.35959 0.31891 0.11912 0.0
C2428 C 0.36453 0.30827 0.1321 0.0
C2429 C 0.3725 0.31768 0.14752 0.0
C2430 C 0.32737 0.28463 0.08765 0.0
C2431 C 0.33268 0.29269 0.07162 0.0
C2432 C 0.33648 0.29269 0.10296 0.0
C2433 C 0.35102 0.30911 0.10265 0.0
C2434 C 0.35676 0.31668 0.08651 0.0
C2435 C 0.34779 0.30856 0.07123 0.0
H2436 H 0.81805 0.35382 0.16345 0.0
H2437 H 0.76271 0.31893 0.15484 0.0
H2438 H 0.82338 0.3566 0.13204 0.0
H2439 H 0.76801 0.32182 0.12339 0.0
H2440 H 0.7749 0.35435 0.07357 0.0
H2441 H 0.77124 0.35067 0.10487 0.0
H2442 H 0.82675 0.33516 0.10346 0.0
H2443 H 0.83045 0.33895 0.07206 0.0
C2444 C 0.80711 0.3466 0.15483 0.0
C2445 C 0.78989 0.33624 0.16153 0.0
C2446 C 0.81019 0.34816 0.13687 0.0
C2447 C 0.79602 0.3396 0.12536 0.0
C2448 C 0.77906 0.32877 0.13203 0.0
C2449 C 0.77608 0.32699 0.14996 0.0
C2450 C 0.78645 0.35048 0.07998 0.0
C2451 C 0.80301 0.34701 0.0704 0.0
C2452 C 0.78425 0.34812 0.09784 0.0
C2453 C 0.79865 0.34247 0.10651 0.0
C2454 C 0.81544 0.33954 0.09707 0.0
C2455 C 0.81754 0.34166 0.07915 0.0
H2456 H 0.70415 0.33432 0.90608 0.0
H2457 H 0.75877 0.35657 0.88166 0.0
H2458 H 0.71999 0.32801 0.93172 0.0
H2459 H 0.77447 0.35021 0.90699 0.0
H2460 H 0.7937 0.36238 0.96192 0.0
H2461 H 0.77542 0.36552 0.93742 0.0
H2462 H 0.74371 0.30782 0.94167 0.0
H2463 H 0.76224 0.30455 0.96667 0.0
C2464 C 0.71951 0.33771 0.90613 0.0
C2465 C 0.73026 0.34611 0.89194 0.0
C2466 C 0.72856 0.334 0.92075 0.0
C2467 C 0.74846 0.3388 0.92145 0.0
C2468 C 0.7591 0.34663 0.90699 0.0
C2469 C 0.75012 0.35022 0.89244 0.0
C2470 C 0.78282 0.35028 0.95778 0.0
C2471 C 0.77961 0.3331 0.96621 0.0
C2472 C 0.77237 0.3521 0.94363 0.0
C2473 C 0.75833 0.33683 0.93741 0.0
C2474 C 0.75448 0.31983 0.94618 0.0
C2475 C 0.76511 0.31795 0.96044 0.0
H2476 H 0.77017 0.7072 0.90193 0.0
H2477 H 0.714 0.72042 0.9134 0.0
H2478 H 0.77872 0.71943 0.9316 0.0
H2479 H 0.72283 0.73314 0.94285 0.0
H2480 H 0.75512 0.77277 0.98853 0.0
H2481 H 0.74458 0.76054 0.95912 0.0
H2482 H 0.7701 0.71038 0.96171 0.0
H2483 H 0.7804 0.72232 0.9907 0.0
C2484 C 0.75957 0.71255 0.91074 0.0
C2485 C 0.74138 0.71279 0.90505 0.0
C2486 C 0.76452 0.71968 0.92778 0.0
C2487 C 0.75148 0.72737 0.93964 0.0
C2488 C 0.73332 0.72763 0.93401 0.0
C2489 C 0.7283 0.72032 0.91704 0.0
C2490 C 0.75823 0.75903 0.98289 0.0
C2491 C 0.76871 0.74864 0.99203 0.0
C2492 C 0.75223 0.75202 0.96602 0.0
C2493 C 0.75675 0.73458 0.95791 0.0
C2494 C 0.7667 0.72403 0.96734 0.0
C2495 C 0.77251 0.73088 0.9841 0.0
H2496 H 0.41267 0.71722 0.90856 0.0
H2497 H 0.35854 0.67981 0.90057 0.0
H2498 H 0.39755 0.73814 0.92968 0.0
H2499 H 0.3434 0.70006 0.92245 0.0
H2500 H 0.31819 0.75006 0.94909 0.0
H2501 H 0.33357 0.7298 0.92746 0.0
H2502 H 0.38378 0.74123 0.95773 0.0
H2503 H 0.36852 0.76221 0.9788 0.0
C2504 C 0.39753 0.71336 0.91155 0.0
C2505 C 0.38676 0.69698 0.90294 0.0
C2506 C 0.38885 0.72528 0.92374 0.0
C2507 C 0.36919 0.72087 0.92786 0.0
C2508 C 0.35848 0.70419 0.91939 0.0
C2509 C 0.36715 0.69245 0.90695 0.0
C2510 C 0.33254 0.74823 0.951 0.0
C2511 C 0.34222 0.75768 0.96554 0.0
C2512 C 0.34134 0.73651 0.9387 0.0
C2513 C 0.35993 0.73369 0.94082 0.0
C2514 C 0.3696 0.74327 0.95543 0.0
C2515 C 0.36089 0.75528 0.96755 0.0
H2516 H 0.3485 0.37615 0.91887 0.0
H2517 H 0.34728 0.31594 0.90195 0.0
H2518 H 0.33202 0.36705 0.94631 0.0
H2519 H 0.33217 0.30696 0.92982 0.0
H2520 H 0.29 0.29382 0.97493 0.0
H2521 H 0.30382 0.30408 0.94683 0.0
H2522 H 0.336 0.35545 0.9731 0.0
H2523 H 0.32151 0.34539 1.00108 0.0
C2524 C 0.34474 0.36096 0.92095 0.0
C2525 C 0.34931 0.34682 0.90807 0.0
C2526 C 0.3355 0.35574 0.93686 0.0
C2527 C 0.33071 0.33622 0.94044 0.0
C2528 C 0.3353 0.32211 0.92754 0.0
C2529 C 0.34432 0.32731 0.91158 0.0
C2530 C 0.29997 0.30733 0.97464 0.0
C2531 C 0.30468 0.31877 0.99021 0.0
C2532 C 0.30802 0.3132 0.95853 0.0
C2533 C 0.32125 0.33056 0.95757 0.0
C2534 C 0.32569 0.34215 0.97319 0.0
C2535 C 0.31742 0.33639 0.98929 0.0
H2536 H 0.65515 0.73534 0.20109 0.0
H2537 H 0.62638 0.67602 0.20024 0.0
H2538 H 0.62671 0.7458 0.21509 0.0
H2539 H 0.59786 0.68632 0.21372 0.0
H2540 H 0.55897 0.70814 0.25699 0.0
H2541 H 0.58676 0.69853 0.24133 0.0
H2542 H 0.59451 0.74914 0.21252 0.0
H2543 H 0.56686 0.75886 0.22847 0.0
C2544 C 0.64261 0.72458 0.20357 0.0
C2545 C 0.64305 0.70486 0.1997 0.0
C2546 C 0.62627 0.73054 0.21161 0.0
C2547 C 0.60997 0.7169 0.21583 0.0
C2548 C 0.61024 0.69724 0.21116 0.0
C2549 C 0.62656 0.69132 0.20329 0.0
C2550 C 0.56652 0.71715 0.24725 0.0
C2551 C 0.56063 0.73428 0.24405 0.0
C2552 C 0.58248 0.71162 0.23818 0.0
C2553 C 0.59295 0.72297 0.22551 0.0
C2554 C 0.58704 0.74013 0.22232 0.0
C2555 C 0.57113 0.74573 0.23148 0.0
H2556 H 0.3929 0.65774 0.18825 0.0
H2557 H 0.33242 0.65376 0.18492 0.0
H2558 H 0.38736 0.62955 0.20466 0.0
H2559 H 0.32679 0.62449 0.20046 0.0
H2560 H 0.32276 0.58787 0.24703 0.0
H2561 H 0.32766 0.61478 0.22872 0.0
H2562 H 0.37825 0.59637 0.20473 0.0
H2563 H 0.3736 0.56994 0.22362 0.0
C2564 C 0.37835 0.65072 0.19089 0.0
C2565 C 0.36309 0.65831 0.18554 0.0
C2566 C 0.37517 0.63428 0.20014 0.0
C2567 C 0.3566 0.62466 0.20411 0.0
C2568 C 0.3413 0.6317 0.19801 0.0
C2569 C 0.34451 0.64834 0.18886 0.0
C2570 C 0.33492 0.58962 0.23783 0.0
C2571 C 0.34786 0.57686 0.23685 0.0
C2572 C 0.33767 0.60497 0.22719 0.0
C2573 C 0.35333 0.60786 0.21509 0.0
C2574 C 0.3662 0.59493 0.21406 0.0
C2575 C 0.36358 0.57974 0.2249 0.0
H2576 H 0.4587 0.33831 0.18995 0.0
H2577 H 0.44157 0.34515 0.2446 0.0
H2578 H 0.48738 0.32745 0.19752 0.0
H2579 H 0.47013 0.33409 0.25219 0.0
H2580 H 0.51604 0.29826 0.2592 0.0
H2581 H 0.48611 0.30506 0.24985 0.0
H2582 H 0.5174 0.34184 0.21216 0.0
H2583 H 0.54717 0.3353 0.22167 0.0
C2584 C 0.46098 0.3374 0.20358 0.0
C2585 C 0.44779 0.34265 0.21667 0.0
C2586 C 0.47748 0.33121 0.20794 0.0
C2587 C 0.48115 0.32979 0.2255 0.0
C2588 C 0.46775 0.33474 0.23854 0.0
C2589 C 0.45142 0.34122 0.23419 0.0
C2590 C 0.51652 0.30746 0.24867 0.0
C2591 C 0.53411 0.31615 0.24116 0.0
C2592 C 0.49934 0.31154 0.24342 0.0
C2593 C 0.49924 0.32411 0.23027 0.0
C2594 C 0.51681 0.332 0.22221 0.0
C2595 C 0.53394 0.32824 0.22769 0.0
H2596 H 0.81005 0.41631 0.2076 0.0
H2597 H 0.79657 0.40481 0.26151 0.0
H2598 H 0.82271 0.45003 0.21675 0.0
H2599 H 0.80911 0.43858 0.27066 0.0
H2600 H 0.8382 0.49895 0.28371 0.0
H2601 H 0.83807 0.46586 0.27119 0.0
H2602 H 0.80361 0.47504 0.22998 0.0
H2603 H 0.80355 0.50796 0.24259 0.0
C2604 C 0.81029 0.42087 0.22143 0.0
C2605 C 0.80224 0.408 0.23387 0.0
C2606 C 0.81744 0.44018 0.22664 0.0
C2607 C 0.81684 0.44691 0.24438 0.0
C2608 C 0.80994 0.43374 0.2569 0.0
C2609 C 0.80261 0.41447 0.25168 0.0
C2610 C 0.83121 0.49413 0.27161 0.0
C2611 C 0.8208 0.50596 0.26413 0.0
C2612 C 0.83101 0.47515 0.26455 0.0
C2613 C 0.8207 0.46787 0.24972 0.0
C2614 C 0.81179 0.4803 0.24135 0.0
C2615 C 0.81172 0.49913 0.24857 0.0
H2616 H 0.65655 0.34723 0.80952 0.0
H2617 H 0.63395 0.33642 0.86175 0.0
H2618 H 0.62693 0.32979 0.79765 0.0
H2619 H 0.60414 0.31915 0.84992 0.0
H2620 H 0.56378 0.27024 0.82136 0.0
H2621 H 0.59223 0.28949 0.83352 0.0
H2622 H 0.59369 0.3307 0.7953 0.0
H2623 H 0.56522 0.31095 0.7827 0.0
C2624 C 0.64515 0.3413 0.81849 0.0
C2625 C 0.6476 0.34321 0.83659 0.0
C2626 C 0.62812 0.33136 0.81168 0.0
C2627 C 0.61309 0.32308 0.8228 0.0
C2628 C 0.61551 0.3251 0.84094 0.0
C2629 C 0.63259 0.33499 0.84774 0.0
C2630 C 0.57006 0.28344 0.81553 0.0
C2631 C 0.5622 0.28902 0.801 0.0
C2632 C 0.58636 0.29459 0.82263 0.0
C2633 C 0.59527 0.31171 0.81547 0.0
C2634 C 0.58731 0.31747 0.80103 0.0
C2635 C 0.57094 0.30623 0.79386 0.0
H2636 H 0.71826 0.65534 0.83744 0.0
H2637 H 0.77252 0.67179 0.86106 0.0
H2638 H 0.72916 0.62836 0.82093 0.0
H2639 H 0.78312 0.64374 0.8452 0.0
H2640 H 0.80141 0.60167 0.79857 0.0
H2641 H 0.79288 0.62922 0.81735 0.0
H2642 H 0.73535 0.59787 0.82352 0.0
H2643 H 0.74369 0.57119 0.80436 0.0
C2644 C 0.73257 0.65326 0.83917 0.0
C2645 C 0.74446 0.66605 0.85063 0.0
C2646 C 0.73877 0.63743 0.82984 0.0
C2647 C 0.75704 0.63349 0.83175 0.0
C2648 C 0.769 0.64623 0.84323 0.0
C2649 C 0.7628 0.66225 0.85253 0.0
C2650 C 0.78705 0.60066 0.80421 0.0
C2651 C 0.77319 0.5843 0.79986 0.0
C2652 C 0.7821 0.61646 0.81497 0.0
C2653 C 0.76323 0.61614 0.82174 0.0
C2654 C 0.74983 0.59916 0.81816 0.0
C2655 C 0.75467 0.58366 0.80728 0.0
H2656 H 0.42327 0.68439 0.80249 0.0
H2657 H 0.44935 0.69242 0.85229 0.0
H2658 H 0.45016 0.70659 0.79034 0.0
H2659 H 0.47611 0.71466 0.84018 0.0
H2660 H 0.5067 0.77106 0.81913 0.0
H2661 H 0.48078 0.74728 0.83018 0.0
H2662 H 0.48495 0.71018 0.78271 0.0
H2663 H 0.51092 0.7342 0.77145 0.0
C2664 C 0.43485 0.6907 0.81077 0.0
C2665 C 0.43415 0.68675 0.82838 0.0
C2666 C 0.45023 0.7034 0.80381 0.0
C2667 C 0.46517 0.71243 0.81434 0.0
C2668 C 0.46464 0.70816 0.83183 0.0
C2669 C 0.44932 0.69545 0.83877 0.0
C2670 C 0.50214 0.75785 0.81101 0.0
C2671 C 0.51089 0.7545 0.79442 0.0
C2672 C 0.48735 0.74417 0.81741 0.0
C2673 C 0.48092 0.72682 0.80736 0.0
C2674 C 0.48955 0.72348 0.7907 0.0
C2675 C 0.50445 0.73718 0.78429 0.0
H2676 H 0.38719 0.41929 0.81878 0.0
H2677 H 0.33942 0.4159 0.85625 0.0
H2678 H 0.37762 0.44659 0.8069 0.0
H2679 H 0.32967 0.44308 0.84424 0.0
H2680 H 0.32967 0.50478 0.82963 0.0
H2681 H 0.33957 0.47796 0.84203 0.0
H2682 H 0.35259 0.45353 0.79009 0.0
H2683 H 0.34324 0.48055 0.77775 0.0
C2684 C 0.3746 0.42437 0.82444 0.0
C2685 C 0.36407 0.41543 0.83841 0.0
C2686 C 0.36905 0.43995 0.81758 0.0
C2687 C 0.35283 0.44704 0.82457 0.0
C2688 C 0.34234 0.43814 0.83865 0.0
C2689 C 0.34787 0.42247 0.84548 0.0
C2690 C 0.33481 0.49379 0.82086 0.0
C2691 C 0.33563 0.49488 0.80266 0.0
C2692 C 0.34029 0.47829 0.82797 0.0
C2693 C 0.34687 0.46354 0.81708 0.0
C2694 C 0.34778 0.4647 0.79889 0.0
C2695 C 0.34221 0.48013 0.79179 0.0
H2696 H 0.7146 0.61681 0.18902 0.0
H2697 H 0.69941 0.6514 0.23518 0.0
H2698 H 0.72452 0.59447 0.20739 0.0
H2699 H 0.7095 0.62918 0.25354 0.0
H2700 H 0.75215 0.5969 0.27696 0.0
H2701 H 0.74097 0.61914 0.25932 0.0
H2702 H 0.70866 0.5707 0.22944 0.0
H2703 H 0.71984 0.54851 0.24708 0.0
C2704 C 0.71338 0.6196 0.20309 0.0
C2705 C 0.70618 0.63575 0.21067 0.0
C2706 C 0.71896 0.60679 0.21359 0.0
C2707 C 0.71773 0.61007 0.23189 0.0
C2708 C 0.71068 0.62635 0.23947 0.0
C2709 C 0.70483 0.63901 0.22896 0.0
C2710 C 0.74263 0.59105 0.26665 0.0
C2711 C 0.73686 0.57098 0.2634 0.0
C2712 C 0.73614 0.60375 0.25664 0.0
C2713 C 0.72399 0.59663 0.24299 0.0
C2714 C 0.71812 0.57658 0.23981 0.0
C2715 C 0.72437 0.56389 0.25 0.0
H2716 H 0.67557 0.41246 0.83914 0.0
H2717 H 0.72845 0.39164 0.82982 0.0
H2718 H 0.68943 0.44168 0.82512 0.0
H2719 H 0.74224 0.42053 0.81521 0.0
H2720 H 0.76681 0.48116 0.80165 0.0
H2721 H 0.75341 0.45419 0.8185 0.0
H2722 H 0.69878 0.45181 0.79708 0.0
H2723 H 0.71184 0.47958 0.7811 0.0
C2724 C 0.69018 0.41416 0.83404 0.0
C2725 C 0.70092 0.39978 0.83551 0.0
C2726 C 0.69811 0.43085 0.8259 0.0
C2727 C 0.71694 0.43346 0.81884 0.0
C2728 C 0.7278 0.4192 0.82068 0.0
C2729 C 0.71991 0.4026 0.82901 0.0
C2730 C 0.75186 0.47519 0.80069 0.0
C2731 C 0.74048 0.48276 0.7899 0.0
C2732 C 0.74421 0.45945 0.81023 0.0
C2733 C 0.72499 0.45069 0.80916 0.0
C2734 C 0.71357 0.4583 0.79847 0.0
C2735 C 0.72118 0.47415 0.78905 0.0
H2736 H 0.66898 0.70047 0.81417 0.0
H2737 H 0.6893 0.74868 0.85092 0.0
H2738 H 0.64571 0.71793 0.80474 0.0
H2739 H 0.66638 0.76645 0.84122 0.0
H2740 H 0.60935 0.78421 0.83274 0.0
H2741 H 0.63317 0.76746 0.84214 0.0
H2742 H 0.64231 0.74426 0.78896 0.0
H2743 H 0.61836 0.76083 0.77964 0.0
C2744 C 0.66855 0.71488 0.82014 0.0
C2745 C 0.68096 0.72314 0.8333 0.0
C2746 C 0.65527 0.72498 0.81466 0.0
C2747 C 0.65408 0.7437 0.82216 0.0
C2748 C 0.66663 0.75199 0.83529 0.0
C2749 C 0.67989 0.74184 0.8408 0.0
C2750 C 0.61654 0.77568 0.82302 0.0
C2751 C 0.61178 0.77385 0.80542 0.0
C2752 C 0.63027 0.76606 0.82842 0.0
C2753 C 0.63972 0.75438 0.81636 0.0
C2754 C 0.63512 0.75277 0.79872 0.0
C2755 C 0.62135 0.76233 0.79334 0.0
H2756 H 0.41136 0.61849 0.81484 0.0
H2757 H 0.35533 0.63076 0.82903 0.0
H2758 H 0.39795 0.59249 0.79392 0.0
H2759 H 0.34164 0.60388 0.80867 0.0
H2760 H 0.36966 0.5403 0.76234 0.0
H2761 H 0.37946 0.5615 0.7884 0.0
H2762 H 0.34072 0.59848 0.77764 0.0
H2763 H 0.33068 0.57685 0.75202 0.0
C2764 C 0.3961 0.61541 0.81367 0.0
C2765 C 0.38445 0.62691 0.82335 0.0
C2766 C 0.38835 0.6003 0.80182 0.0
C2767 C 0.36869 0.59615 0.79946 0.0
C2768 C 0.35688 0.60691 0.80993 0.0
C2769 C 0.36469 0.62216 0.82175 0.0
C2770 C 0.36314 0.55286 0.76579 0.0
C2771 C 0.3493 0.55694 0.75545 0.0
C2772 C 0.36876 0.56504 0.78063 0.0
C2773 C 0.36094 0.58178 0.78513 0.0
C2774 C 0.34678 0.58556 0.77483 0.0
C2775 C 0.34102 0.57322 0.76013 0.0
H2776 H 0.41548 0.35868 0.84833 0.0
H2777 H 0.37949 0.30704 0.86538 0.0
H2778 H 0.43785 0.33926 0.83427 0.0
H2779 H 0.40202 0.28771 0.85155 0.0
H2780 H 0.45709 0.26275 0.84033 0.0
H2781 H 0.43451 0.2819 0.85444 0.0
H2782 H 0.43987 0.31493 0.80949 0.0
H2783 H 0.46216 0.29573 0.79529 0.0
C2784 C 0.41224 0.34319 0.84899 0.0
C2785 C 0.39563 0.33449 0.85804 0.0
C2786 C 0.42511 0.33204 0.84094 0.0
C2787 C 0.42176 0.31191 0.84179 0.0
C2788 C 0.40519 0.3032 0.85086 0.0
C2789 C 0.39227 0.31433 0.85882 0.0
C2790 C 0.45336 0.27395 0.83336 0.0
C2791 C 0.46165 0.27765 0.81664 0.0
C2792 C 0.44039 0.28497 0.84148 0.0
C2793 C 0.43543 0.30003 0.83315 0.0
C2794 C 0.44362 0.30367 0.81643 0.0
C2795 C 0.45648 0.29262 0.80827 0.0
H2796 H 0.37855 0.38585 0.22605 0.0
H2797 H 0.36789 0.40003 0.17476 0.0
H2798 H 0.36287 0.41183 0.23915 0.0
H2799 H 0.35103 0.4249 0.18779 0.0
H2800 H 0.33717 0.48137 0.21661 0.0
H2801 H 0.35218 0.45536 0.20205 0.0
H2802 H 0.33392 0.42127 0.24585 0.0
H2803 H 0.31992 0.44769 0.26051 0.0
C2804 C 0.37289 0.39444 0.21752 0.0
C2805 C 0.37442 0.39045 0.19927 0.0
C2806 C 0.36352 0.40925 0.22507 0.0
C2807 C 0.35522 0.42053 0.21465 0.0
C2808 C 0.35717 0.41679 0.1964 0.0
C2809 C 0.36669 0.40217 0.18887 0.0
C2810 C 0.33589 0.46805 0.2228 0.0
C2811 C 0.32701 0.46643 0.23954 0.0
C2812 C 0.34464 0.45309 0.21454 0.0
C2813 C 0.34466 0.43605 0.22277 0.0
C2814 C 0.33482 0.4342 0.23916 0.0
C2815 C 0.32637 0.44922 0.24747 0.0
H2816 H 0.73118 0.35285 0.20725 0.0
H2817 H 0.74602 0.36728 0.26098 0.0
H2818 H 0.69765 0.34646 0.21656 0.0
H2819 H 0.71238 0.36093 0.2703 0.0
H2820 H 0.65048 0.37002 0.27745 0.0
H2821 H 0.68412 0.37524 0.26838 0.0
H2822 H 0.67411 0.32409 0.23242 0.0
H2823 H 0.64037 0.31927 0.24104 0.0
C2824 C 0.72731 0.35434 0.22109 0.0
C2825 C 0.7413 0.36052 0.23338 0.0
C2826 C 0.70806 0.35072 0.22642 0.0
C2827 C 0.70233 0.35324 0.24417 0.0
C2828 C 0.71632 0.35915 0.2565 0.0
C2829 C 0.73558 0.36274 0.25117 0.0
C2830 C 0.65539 0.36001 0.26748 0.0
C2831 C 0.64268 0.34424 0.25995 0.0
C2832 C 0.67474 0.36285 0.26244 0.0
C2833 C 0.68181 0.35004 0.24972 0.0
C2834 C 0.6691 0.33431 0.24216 0.0
C2835 C 0.64977 0.33144 0.24722 0.0
H2836 H 0.39137 0.72247 0.2114 0.0
H2837 H 0.41588 0.7306 0.15931 0.0
H2838 H 0.41909 0.74351 0.2236 0.0
H2839 H 0.4436 0.75214 0.17152 0.0
H2840 H 0.49891 0.75947 0.20339 0.0
H2841 H 0.47023 0.7469 0.18769 0.0
H2842 H 0.43747 0.77613 0.22701 0.0
H2843 H 0.4661 0.78846 0.24292 0.0
C2844 C 0.4026 0.72901 0.20255 0.0
C2845 C 0.40154 0.72473 0.18441 0.0
C2846 C 0.41841 0.74126 0.20953 0.0
C2847 C 0.43362 0.74951 0.19854 0.0
C2848 C 0.4322 0.74589 0.18034 0.0
C2849 C 0.41628 0.73369 0.17335 0.0
C2850 C 0.48569 0.76362 0.2085 0.0
C2851 C 0.48479 0.77471 0.22459 0.0
C2852 C 0.46922 0.75645 0.19943 0.0
C2853 C 0.45148 0.76023 0.20625 0.0
C2854 C 0.45085 0.77263 0.2216 0.0
C2855 C 0.46731 0.7798 0.23066 0.0
loop_
_geom_bond_atom_site_label_1
_geom_bond_atom_site_label_2
_geom_bond_distance
_geom_bond_site_symmetry_2
_ccdc_geom_bond_type
H0 C5 0.930 . S
H1 C8 0.930 . S
H2 C10 0.930 . S
H3 C4 1.016 . S
C4 H3 1.016 . S
C4 N11 1.286 . S
C5 H0 0.930 . S
C5 C6 1.397 . S
C5 C7 1.361 . S
C6 C5 1.397 . S
C6 C10 1.390 . S
C7 C5 1.361 . S
C7 C8 1.393 . S
C7 N11 1.413 . S
C8 H1 0.930 . S
C8 C7 1.393 . S
C8 C9 1.399 . S
C9 C8 1.399 . S
C9 C10 1.381 . S
C10 H2 0.930 . S
C10 C6 1.390 . S
C10 C9 1.381 . S
N11 C4 1.286 . S
N11 C7 1.413 . S
H12 C17 0.930 . S
H13 C20 0.930 . S
H14 C22 0.930 . S
H15 C16 1.016 . S
C16 H15 1.016 . S
C16 N23 1.286 . S
C17 H12 0.930 . S
C17 C18 1.397 . S
C17 C19 1.361 . S
C18 C17 1.397 . S
C18 C22 1.390 . S
C19 C17 1.361 . S
C19 C20 1.393 . S
C19 N23 1.413 . S
C20 H13 0.930 . S
C20 C19 1.393 . S
C20 C21 1.399 . S
C21 C20 1.399 . S
C21 C22 1.381 . S
C22 H14 0.930 . S
C22 C18 1.390 . S
C22 C21 1.381 . S
N23 C16 1.286 . S
N23 C19 1.413 . S
H24 C29 0.930 . S
H25 C32 0.930 . S
H26 C34 0.930 . S
H27 C28 1.016 . S
C28 H27 1.016 . S
C28 N35 1.286 . S
C29 H24 0.930 . S
C29 C30 1.397 . S
C29 C31 1.361 . S
C30 C29 1.397 . S
C30 C34 1.390 . S
C31 C29 1.361 . S
C31 C32 1.393 . S
C31 N35 1.413 . S
C32 H25 0.930 . S
C32 C31 1.393 . S
C32 C33 1.399 . S
C33 C32 1.399 . S
C33 C34 1.381 . S
C34 H26 0.930 . S
C34 C30 1.390 . S
C34 C33 1.381 . S
N35 C28 1.286 . S
N35 C31 1.413 . S
H36 C41 0.930 . S
H37 C44 0.930 . S
H38 C46 0.930 . S
H39 C40 1.016 . S
C40 H39 1.016 . S
C40 N47 1.286 . S
C41 H36 0.930 . S
C41 C42 1.397 . S
C41 C43 1.361 . S
C42 C41 1.397 . S
C42 C46 1.390 . S
C43 C41 1.361 . S
C43 C44 1.393 . S
C43 N47 1.413 . S
C44 H37 0.930 . S
C44 C43 1.393 . S
C44 C45 1.399 . S
C45 C44 1.399 . S
C45 C46 1.381 . S
C46 H38 0.930 . S
C46 C42 1.390 . S
C46 C45 1.381 . S
N47 C40 1.286 . S
N47 C43 1.413 . S
H48 C53 0.930 . S
H49 C56 0.930 . S
H50 C58 0.930 . S
H51 C52 1.016 . S
C52 H51 1.016 . S
C52 N59 1.286 . S
C53 H48 0.930 . S
C53 C54 1.397 . S
C53 C55 1.361 . S
C54 C53 1.397 . S
C54 C58 1.390 . S
C55 C53 1.361 . S
C55 C56 1.393 . S
C55 N59 1.413 . S
C56 H49 0.930 . S
C56 C55 1.393 . S
C56 C57 1.399 . S
C57 C56 1.399 . S
C57 C58 1.381 . S
C58 H50 0.930 . S
C58 C54 1.390 . S
C58 C57 1.381 . S
N59 C52 1.286 . S
N59 C55 1.413 . S
H60 C65 0.930 . S
H61 C68 0.930 . S
H62 C70 0.930 . S
H63 C64 1.016 . S
C64 H63 1.016 . S
C64 N71 1.286 . S
C65 H60 0.930 . S
C65 C66 1.397 . S
C65 C67 1.361 . S
C66 C65 1.397 . S
C66 C70 1.390 . S
C67 C65 1.361 . S
C67 C68 1.393 . S
C67 N71 1.413 . S
C68 H61 0.930 . S
C68 C67 1.393 . S
C68 C69 1.399 . S
C69 C68 1.399 . S
C69 C70 1.381 . S
C70 H62 0.930 . S
C70 C66 1.390 . S
C70 C69 1.381 . S
N71 C64 1.286 . S
N71 C67 1.413 . S
H72 C77 0.930 . S
H73 C80 0.930 . S
H74 C82 0.930 . S
H75 C76 1.016 . S
C76 H75 1.016 . S
C76 N83 1.286 . S
C77 H72 0.930 . S
C77 C78 1.397 . S
C77 C79 1.361 . S
C78 C77 1.397 . S
C78 C82 1.390 . S
C79 C77 1.361 . S
C79 C80 1.393 . S
C79 N83 1.413 . S
C80 H73 0.930 . S
C80 C79 1.393 . S
C80 C81 1.399 . S
C81 C80 1.399 . S
C81 C82 1.381 . S
C82 H74 0.930 . S
C82 C78 1.390 . S
C82 C81 1.381 . S
N83 C76 1.286 . S
N83 C79 1.413 . S
H84 C89 0.930 . S
H85 C92 0.930 . S
H86 C94 0.930 . S
H87 C88 1.016 . S
C88 H87 1.016 . S
C88 N95 1.286 . S
C89 H84 0.930 . S
C89 C90 1.397 . S
C89 C91 1.361 . S
C90 C89 1.397 . S
C90 C94 1.390 . S
C91 C89 1.361 . S
C91 C92 1.393 . S
C91 N95 1.413 . S
C92 H85 0.930 . S
C92 C91 1.393 . S
C92 C93 1.399 . S
C93 C92 1.399 . S
C93 C94 1.381 . S
C94 H86 0.930 . S
C94 C90 1.390 . S
C94 C93 1.381 . S
N95 C88 1.286 . S
N95 C91 1.413 . S
H96 C101 0.930 . S
H97 C104 0.930 . S
H98 C106 0.930 . S
H99 C100 1.016 . S
C100 H99 1.016 . S
C100 N107 1.286 . S
C101 H96 0.930 . S
C101 C102 1.397 . S
C101 C103 1.361 . S
C102 C101 1.397 . S
C102 C106 1.390 . S
C103 C101 1.361 . S
C103 C104 1.393 . S
C103 N107 1.413 . S
C104 H97 0.930 . S
C104 C103 1.393 . S
C104 C105 1.399 . S
C105 C104 1.399 . S
C105 C106 1.381 . S
C106 H98 0.930 . S
C106 C102 1.390 . S
C106 C105 1.381 . S
N107 C100 1.286 . S
N107 C103 1.413 . S
H108 C113 0.930 . S
H109 C116 0.930 . S
H110 C118 0.930 . S
H111 C112 1.016 . S
C112 H111 1.016 . S
C112 N119 1.286 . S
C113 H108 0.930 . S
C113 C114 1.397 . S
C113 C115 1.361 . S
C114 C113 1.397 . S
C114 C118 1.390 . S
C115 C113 1.361 . S
C115 C116 1.393 . S
C115 N119 1.413 . S
C116 H109 0.930 . S
C116 C115 1.393 . S
C116 C117 1.399 . S
C117 C116 1.399 . S
C117 C118 1.381 . S
C118 H110 0.930 . S
C118 C114 1.390 . S
C118 C117 1.381 . S
N119 C112 1.286 . S
N119 C115 1.413 . S
H120 C125 0.930 . S
H121 C128 0.930 . S
H122 C130 0.930 . S
H123 C124 1.016 . S
C124 H123 1.016 . S
C124 N131 1.286 . S
C125 H120 0.930 . S
C125 C126 1.397 . S
C125 C127 1.361 . S
C126 C125 1.397 . S
C126 C130 1.390 . S
C127 C125 1.361 . S
C127 C128 1.393 . S
C127 N131 1.413 . S
C128 H121 0.930 . S
C128 C127 1.393 . S
C128 C129 1.399 . S
C129 C128 1.399 . S
C129 C130 1.381 . S
C130 H122 0.930 . S
C130 C126 1.390 . S
C130 C129 1.381 . S
N131 C124 1.286 . S
N131 C127 1.413 . S
H132 C137 0.930 . S
H133 C140 0.930 . S
H134 C142 0.930 . S
H135 C136 1.016 . S
C136 H135 1.016 . S
C136 N143 1.286 . S
C137 H132 0.930 . S
C137 C138 1.397 . S
C137 C139 1.361 . S
C138 C137 1.397 . S
C138 C142 1.390 . S
C139 C137 1.361 . S
C139 C140 1.393 . S
C139 N143 1.413 . S
C140 H133 0.930 . S
C140 C139 1.393 . S
C140 C141 1.399 . S
C141 C140 1.399 . S
C141 C142 1.381 . S
C142 H134 0.930 . S
C142 C138 1.390 . S
C142 C141 1.381 . S
N143 C136 1.286 . S
N143 C139 1.413 . S
H144 C149 0.930 . S
H145 C152 0.930 . S
H146 C154 0.930 . S
H147 C148 1.016 . S
C148 H147 1.016 . S
C148 N155 1.286 . S
C149 H144 0.930 . S
C149 C150 1.397 . S
C149 C151 1.361 . S
C150 C149 1.397 . S
C150 C154 1.390 . S
C151 C149 1.361 . S
C151 C152 1.393 . S
C151 N155 1.413 . S
C152 H145 0.930 . S
C152 C151 1.393 . S
C152 C153 1.399 . S
C153 C152 1.399 . S
C153 C154 1.381 . S
C154 H146 0.930 . S
C154 C150 1.390 . S
C154 C153 1.381 . S
N155 C148 1.286 . S
N155 C151 1.413 . S
H156 C161 0.930 . S
H157 C164 0.930 . S
H158 C166 0.930 . S
H159 C160 1.016 . S
C160 H159 1.016 . S
C160 N167 1.286 . S
C161 H156 0.930 . S
C161 C162 1.397 . S
C161 C163 1.361 . S
C162 C161 1.397 . S
C162 C166 1.390 . S
C163 C161 1.361 . S
C163 C164 1.393 . S
C163 N167 1.413 . S
C164 H157 0.930 . S
C164 C163 1.393 . S
C164 C165 1.399 . S
C165 C164 1.399 . S
C165 C166 1.381 . S
C166 H158 0.930 . S
C166 C162 1.390 . S
C166 C165 1.381 . S
N167 C160 1.286 . S
N167 C163 1.413 . S
H168 C173 0.930 . S
H169 C176 0.930 . S
H170 C178 0.930 . S
H171 C172 1.016 . S
C172 H171 1.016 . S
C172 N179 1.286 . S
C173 H168 0.930 . S
C173 C174 1.397 . S
C173 C175 1.361 . S
C174 C173 1.397 . S
C174 C178 1.390 . S
C175 C173 1.361 . S
C175 C176 1.393 . S
C175 N179 1.413 . S
C176 H169 0.930 . S
C176 C175 1.393 . S
C176 C177 1.399 . S
C177 C176 1.399 . S
C177 C178 1.381 . S
C178 H170 0.930 . S
C178 C174 1.390 . S
C178 C177 1.381 . S
N179 C172 1.286 . S
N179 C175 1.413 . S
H180 C185 0.930 . S
H181 C188 0.930 . S
H182 C190 0.930 . S
H183 C184 1.016 . S
C184 H183 1.016 . S
C184 N191 1.286 . S
C185 H180 0.930 . S
C185 C186 1.397 . S
C185 C187 1.361 . S
C186 C185 1.397 . S
C186 C190 1.390 . S
C187 C185 1.361 . S
C187 C188 1.393 . S
C187 N191 1.413 . S
C188 H181 0.930 . S
C188 C187 1.393 . S
C188 C189 1.399 . S
C189 C188 1.399 . S
C189 C190 1.381 . S
C190 H182 0.930 . S
C190 C186 1.390 . S
C190 C189 1.381 . S
N191 C184 1.286 . S
N191 C187 1.413 . S
H192 C197 0.930 . S
H193 C200 0.930 . S
H194 C202 0.930 . S
H195 C196 1.016 . S
C196 H195 1.016 . S
C196 N203 1.286 . S
C197 H192 0.930 . S
C197 C198 1.397 . S
C197 C199 1.361 . S
C198 C197 1.397 . S
C198 C202 1.390 . S
C199 C197 1.361 . S
C199 C200 1.393 . S
C199 N203 1.413 . S
C200 H193 0.930 . S
C200 C199 1.393 . S
C200 C201 1.399 . S
C201 C200 1.399 . S
C201 C202 1.381 . S
C202 H194 0.930 . S
C202 C198 1.390 . S
C202 C201 1.381 . S
N203 C196 1.286 . S
N203 C199 1.413 . S
H204 C209 0.930 . S
H205 C212 0.930 . S
H206 C214 0.930 . S
H207 C208 1.016 . S
C208 H207 1.016 . S
C208 N215 1.286 . S
C209 H204 0.930 . S
C209 C210 1.397 . S
C209 C211 1.361 . S
C210 C209 1.397 . S
C210 C214 1.390 . S
C211 C209 1.361 . S
C211 C212 1.393 . S
C211 N215 1.413 . S
C212 H205 0.930 . S
C212 C211 1.393 . S
C212 C213 1.399 . S
C213 C212 1.399 . S
C213 C214 1.381 . S
C214 H206 0.930 . S
C214 C210 1.390 . S
C214 C213 1.381 . S
N215 C208 1.286 . S
N215 C211 1.413 . S
H216 C221 0.930 . S
H217 C224 0.930 . S
H218 C226 0.930 . S
H219 C220 1.016 . S
C220 H219 1.016 . S
C220 N227 1.286 . S
C221 H216 0.930 . S
C221 C222 1.397 . S
C221 C223 1.361 . S
C222 C221 1.397 . S
C222 C226 1.390 . S
C223 C221 1.361 . S
C223 C224 1.393 . S
C223 N227 1.413 . S
C224 H217 0.930 . S
C224 C223 1.393 . S
C224 C225 1.399 . S
C225 C224 1.399 . S
C225 C226 1.381 . S
C226 H218 0.930 . S
C226 C222 1.390 . S
C226 C225 1.381 . S
N227 C220 1.286 . S
N227 C223 1.413 . S
H228 C233 0.930 . S
H229 C236 0.930 . S
H230 C238 0.930 . S
H231 C232 1.016 . S
C232 H231 1.016 . S
C232 N239 1.286 . S
C233 H228 0.930 . S
C233 C234 1.397 . S
C233 C235 1.361 . S
C234 C233 1.397 . S
C234 C238 1.390 . S
C235 C233 1.361 . S
C235 C236 1.393 . S
C235 N239 1.413 . S
C236 H229 0.930 . S
C236 C235 1.393 . S
C236 C237 1.399 . S
C237 C236 1.399 . S
C237 C238 1.381 . S
C238 H230 0.930 . S
C238 C234 1.390 . S
C238 C237 1.381 . S
N239 C232 1.286 . S
N239 C235 1.413 . S
H240 C245 0.930 . S
H241 C248 0.930 . S
H242 C250 0.930 . S
H243 C244 1.016 . S
C244 H243 1.016 . S
C244 N251 1.286 . S
C245 H240 0.930 . S
C245 C246 1.397 . S
C245 C247 1.361 . S
C246 C245 1.397 . S
C246 C250 1.390 . S
C247 C245 1.361 . S
C247 C248 1.393 . S
C247 N251 1.413 . S
C248 H241 0.930 . S
C248 C247 1.393 . S
C248 C249 1.399 . S
C249 C248 1.399 . S
C249 C250 1.381 . S
C250 H242 0.930 . S
C250 C246 1.390 . S
C250 C249 1.381 . S
N251 C244 1.286 . S
N251 C247 1.413 . S
H252 C257 0.930 . S
H253 C260 0.930 . S
H254 C262 0.930 . S
H255 C256 1.016 . S
C256 H255 1.016 . S
C256 N263 1.286 . S
C257 H252 0.930 . S
C257 C258 1.397 . S
C257 C259 1.361 . S
C258 C257 1.397 . S
C258 C262 1.390 . S
C259 C257 1.361 . S
C259 C260 1.393 . S
C259 N263 1.413 . S
C260 H253 0.930 . S
C260 C259 1.393 . S
C260 C261 1.399 . S
C261 C260 1.399 . S
C261 C262 1.381 . S
C262 H254 0.930 . S
C262 C258 1.390 . S
C262 C261 1.381 . S
N263 C256 1.286 . S
N263 C259 1.413 . S
H264 C269 0.930 . S
H265 C272 0.930 . S
H266 C274 0.930 . S
H267 C268 1.016 . S
C268 H267 1.016 . S
C268 N275 1.286 . S
C269 H264 0.930 . S
C269 C270 1.397 . S
C269 C271 1.361 . S
C270 C269 1.397 . S
C270 C274 1.390 . S
C271 C269 1.361 . S
C271 C272 1.393 . S
C271 N275 1.413 . S
C272 H265 0.930 . S
C272 C271 1.393 . S
C272 C273 1.399 . S
C273 C272 1.399 . S
C273 C274 1.381 . S
C274 H266 0.930 . S
C274 C270 1.390 . S
C274 C273 1.381 . S
N275 C268 1.286 . S
N275 C271 1.413 . S
H276 C281 0.930 . S
H277 C284 0.930 . S
H278 C286 0.930 . S
H279 C280 1.016 . S
C280 H279 1.016 . S
C280 N287 1.286 . S
C281 H276 0.930 . S
C281 C282 1.397 . S
C281 C283 1.361 . S
C282 C281 1.397 . S
C282 C286 1.390 . S
C283 C281 1.361 . S
C283 C284 1.393 . S
C283 N287 1.413 . S
C284 H277 0.930 . S
C284 C283 1.393 . S
C284 C285 1.399 . S
C285 C284 1.399 . S
C285 C286 1.381 . S
C286 H278 0.930 . S
C286 C282 1.390 . S
C286 C285 1.381 . S
N287 C280 1.286 . S
N287 C283 1.413 . S
H288 C293 0.930 . S
H289 C296 0.930 . S
H290 C298 0.930 . S
H291 C292 1.016 . S
C292 H291 1.016 . S
C292 N299 1.286 . S
C293 H288 0.930 . S
C293 C294 1.397 . S
C293 C295 1.361 . S
C294 C293 1.397 . S
C294 C298 1.390 . S
C295 C293 1.361 . S
C295 C296 1.393 . S
C295 N299 1.413 . S
C296 H289 0.930 . S
C296 C295 1.393 . S
C296 C297 1.399 . S
C297 C296 1.399 . S
C297 C298 1.381 . S
C298 H290 0.930 . S
C298 C294 1.390 . S
C298 C297 1.381 . S
N299 C292 1.286 . S
N299 C295 1.413 . S
H300 C305 0.930 . S
H301 C308 0.930 . S
H302 C310 0.930 . S
H303 C304 1.016 . S
C304 H303 1.016 . S
C304 N311 1.286 . S
C305 H300 0.930 . S
C305 C306 1.397 . S
C305 C307 1.361 . S
C306 C305 1.397 . S
C306 C310 1.390 . S
C307 C305 1.361 . S
C307 C308 1.393 . S
C307 N311 1.413 . S
C308 H301 0.930 . S
C308 C307 1.393 . S
C308 C309 1.399 . S
C309 C308 1.399 . S
C309 C310 1.381 . S
C310 H302 0.930 . S
C310 C306 1.390 . S
C310 C309 1.381 . S
N311 C304 1.286 . S
N311 C307 1.413 . S
H312 C317 0.930 . S
H313 C320 0.930 . S
H314 C322 0.930 . S
H315 C316 1.016 . S
C316 H315 1.016 . S
C316 N323 1.286 . S
C317 H312 0.930 . S
C317 C318 1.397 . S
C317 C319 1.361 . S
C318 C317 1.397 . S
C318 C322 1.390 . S
C319 C317 1.361 . S
C319 C320 1.393 . S
C319 N323 1.413 . S
C320 H313 0.930 . S
C320 C319 1.393 . S
C320 C321 1.399 . S
C321 C320 1.399 . S
C321 C322 1.381 . S
C322 H314 0.930 . S
C322 C318 1.390 . S
C322 C321 1.381 . S
N323 C316 1.286 . S
N323 C319 1.413 . S
H324 C329 0.930 . S
H325 C332 0.930 . S
H326 C334 0.930 . S
H327 C328 1.016 . S
C328 H327 1.016 . S
C328 N335 1.286 . S
C329 H324 0.930 . S
C329 C330 1.397 . S
C329 C331 1.361 . S
C330 C329 1.397 . S
C330 C334 1.390 . S
C331 C329 1.361 . S
C331 C332 1.393 . S
C331 N335 1.413 . S
C332 H325 0.930 . S
C332 C331 1.393 . S
C332 C333 1.399 . S
C333 C332 1.399 . S
C333 C334 1.381 . S
C334 H326 0.930 . S
C334 C330 1.390 . S
C334 C333 1.381 . S
N335 C328 1.286 . S
N335 C331 1.413 . S
H336 C341 0.930 . S
H337 C344 0.930 . S
H338 C346 0.930 . S
H339 C340 1.016 . S
C340 H339 1.016 . S
C340 N347 1.286 . S
C341 H336 0.930 . S
C341 C342 1.397 . S
C341 C343 1.361 . S
C342 C341 1.397 . S
C342 C346 1.390 . S
C343 C341 1.361 . S
C343 C344 1.393 . S
C343 N347 1.413 . S
C344 H337 0.930 . S
C344 C343 1.393 . S
C344 C345 1.399 . S
C345 C344 1.399 . S
C345 C346 1.381 . S
C346 H338 0.930 . S
C346 C342 1.390 . S
C346 C345 1.381 . S
N347 C340 1.286 . S
N347 C343 1.413 . S
H348 C353 0.930 . S
H349 C356 0.930 . S
H350 C358 0.930 . S
H351 C352 1.016 . S
C352 H351 1.016 . S
C352 N359 1.286 . S
C353 H348 0.930 . S
C353 C354 1.397 . S
C353 C355 1.361 . S
C354 C353 1.397 . S
C354 C358 1.390 . S
C355 C353 1.361 . S
C355 C356 1.393 . S
C355 N359 1.413 . S
C356 H349 0.930 . S
C356 C355 1.393 . S
C356 C357 1.399 . S
C357 C356 1.399 . S
C357 C358 1.381 . S
C358 H350 0.930 . S
C358 C354 1.390 . S
C358 C357 1.381 . S
N359 C352 1.286 . S
N359 C355 1.413 . S
H360 C365 0.930 . S
H361 C368 0.930 . S
H362 C370 0.930 . S
H363 C364 1.016 . S
C364 H363 1.016 . S
C364 N371 1.286 . S
C365 H360 0.930 . S
C365 C366 1.397 . S
C365 C367 1.361 . S
C366 C365 1.397 . S
C366 C370 1.390 . S
C367 C365 1.361 . S
C367 C368 1.393 . S
C367 N371 1.413 . S
C368 H361 0.930 . S
C368 C367 1.393 . S
C368 C369 1.399 . S
C369 C368 1.399 . S
C369 C370 1.381 . S
C370 H362 0.930 . S
C370 C366 1.390 . S
C370 C369 1.381 . S
N371 C364 1.286 . S
N371 C367 1.413 . S
H372 C377 0.930 . S
H373 C380 0.930 . S
H374 C382 0.930 . S
H375 C376 1.016 . S
C376 H375 1.016 . S
C376 N383 1.286 . S
C377 H372 0.930 . S
C377 C378 1.397 . S
C377 C379 1.361 . S
C378 C377 1.397 . S
C378 C382 1.390 . S
C379 C377 1.361 . S
C379 C380 1.393 . S
C379 N383 1.413 . S
C380 H373 0.930 . S
C380 C379 1.393 . S
C380 C381 1.399 . S
C381 C380 1.399 . S
C381 C382 1.381 . S
C382 H374 0.930 . S
C382 C378 1.390 . S
C382 C381 1.381 . S
N383 C376 1.286 . S
N383 C379 1.413 . S
Cu384 N385 1.999 . S
Cu384 O390 1.974 1_554 S
Cu384 N395 1.985 . S
Cu384 O404 1.959 . S
N385 Cu384 1.999 . S
N385 C387 1.263 1_554 S
N385 C389 1.389 . S
N386 C387 1.358 . S
N386 C388 1.400 . S
C387 N385 1.263 1_556 S
C387 N386 1.358 . S
C387 H393 0.930 . S
C388 N386 1.400 . S
C388 C389 1.351 1_556 S
C388 H405 0.930 . S
C389 N385 1.389 . S
C389 C388 1.351 1_554 S
C389 H394 0.930 . S
O390 Cu384 1.974 1_556 S
O390 C400 1.282 . S
C391 O392 1.261 . S
C391 O404 1.251 . S
O392 C391 1.261 . S
H393 C387 0.930 . S
H394 C389 0.930 . S
N395 Cu384 1.985 . S
N395 C397 1.335 . S
N395 C398 1.390 . S
N396 C397 1.345 . S
N396 C399 1.336 . S
C397 N395 1.335 . S
C397 N396 1.345 . S
C397 H402 0.930 . S
C398 N395 1.390 . S
C398 C399 1.346 . S
C398 H403 0.930 . S
C399 N396 1.336 . S
C399 C398 1.346 . S
C399 H406 0.929 . S
C400 O390 1.282 . S
C400 O401 1.214 1_556 S
O401 C400 1.214 1_554 S
H402 C397 0.930 . S
H403 C398 0.930 . S
O404 Cu384 1.959 . S
O404 C391 1.251 . S
H405 C388 0.930 . S
H406 C399 0.929 . S
Cu407 N408 1.999 . S
Cu407 O413 1.974 . S
Cu407 N418 1.985 1_554 S
Cu407 O427 1.959 1_554 S
N408 Cu407 1.999 . S
N408 C410 1.263 . S
N408 C412 1.389 . S
N409 C410 1.358 . S
N409 C411 1.400 . S
C410 N408 1.263 . S
C410 N409 1.358 . S
C410 H416 0.930 . S
C411 N409 1.400 . S
C411 C412 1.351 . S
C411 H428 0.930 . S
C412 N408 1.389 . S
C412 C411 1.351 . S
C412 H417 0.930 . S
O413 Cu407 1.974 . S
O413 C423 1.282 . S
C414 O415 1.261 . S
C414 O427 1.251 . S
O415 C414 1.261 . S
H416 C410 0.930 . S
H417 C412 0.930 . S
N418 Cu407 1.985 1_556 S
N418 C420 1.335 . S
N418 C421 1.390 . S
N419 C420 1.345 . S
N419 C422 1.336 . S
C420 N418 1.335 . S
C420 N419 1.345 . S
C420 H425 0.930 . S
C421 N418 1.390 . S
C421 C422 1.346 . S
C421 H426 0.930 1_556 S
C422 N419 1.336 . S
C422 C421 1.346 . S
C422 H429 0.929 . S
C423 O413 1.282 . S
C423 O424 1.216 . S
O424 C423 1.216 . S
H425 C420 0.930 . S
H426 C421 0.930 1_554 S
O427 Cu407 1.959 1_556 S
O427 C414 1.251 . S
H428 C411 0.930 . S
H429 C422 0.929 . S
Cu430 N431 1.999 1_554 S
Cu430 O436 1.974 1_554 S
Cu430 N441 1.985 . S
Cu430 O450 1.959 . S
N431 Cu430 1.999 1_556 S
N431 C433 1.263 . S
N431 C435 1.389 . S
N432 C433 1.358 . S
N432 C434 1.400 . S
C433 N431 1.263 . S
C433 N432 1.358 . S
C433 H439 0.930 . S
C434 N432 1.400 . S
C434 C435 1.351 . S
C434 H451 0.930 . S
C435 N431 1.389 . S
C435 C434 1.351 . S
C435 H440 0.976 . S
O436 Cu430 1.974 1_556 S
O436 C446 1.282 . S
C437 O438 1.261 . S
C437 O450 1.251 . S
O438 C437 1.261 . S
H439 C433 0.930 . S
H440 C435 0.976 . S
N441 Cu430 1.985 . S
N441 C443 1.335 . S
N441 C444 1.390 . S
N442 C443 1.345 . S
N442 C445 1.336 . S
C443 N441 1.335 . S
C443 N442 1.345 . S
C443 H448 0.930 . S
C444 N441 1.390 . S
C444 C445 1.346 . S
C444 H449 0.930 . S
C445 N442 1.336 . S
C445 C444 1.346 . S
C445 H452 0.929 . S
C446 O436 1.282 . S
C446 O447 1.216 . S
O447 C446 1.216 . S
H448 C443 0.930 . S
H449 C444 0.930 . S
O450 Cu430 1.959 . S
O450 C437 1.251 . S
H451 C434 0.930 . S
H452 C445 0.929 . S
Cu453 N454 1.999 1_556 S
Cu453 O459 1.974 1_556 S
Cu453 N464 1.985 . S
Cu453 O473 1.959 . S
N454 Cu453 1.999 1_554 S
N454 C456 1.263 . S
N454 C458 1.389 . S
N455 C456 1.358 . S
N455 C457 1.400 . S
C456 N454 1.263 . S
C456 N455 1.358 . S
C456 H462 0.930 . S
C457 N455 1.400 . S
C457 C458 1.351 . S
C457 H474 0.930 . S
C458 N454 1.389 . S
C458 C457 1.351 . S
C458 H463 0.930 . S
O459 Cu453 1.974 1_554 S
O459 C469 1.282 . S
C460 O461 1.261 . S
C460 O473 1.251 . S
O461 C460 1.261 . S
H462 C456 0.930 . S
H463 C458 0.930 . S
N464 Cu453 1.985 . S
N464 C466 1.335 . S
N464 C467 1.390 . S
N465 C466 1.345 . S
N465 C468 1.336 . S
C466 N464 1.335 . S
C466 N465 1.345 . S
C466 H471 0.930 . S
C467 N464 1.390 . S
C467 C468 1.346 . S
C467 H472 0.930 . S
C468 N465 1.336 . S
C468 C467 1.346 . S
C468 H475 0.929 . S
C469 O459 1.282 . S
C469 O470 1.216 . S
O470 C469 1.216 . S
H471 C466 0.930 . S
H472 C467 0.930 . S
O473 Cu453 1.959 . S
O473 C460 1.251 . S
H474 C457 0.930 . S
H475 C468 0.929 . S
Cu476 N477 1.999 . S
Cu476 O482 1.974 . S
Cu476 N487 1.985 . S
Cu476 O496 1.959 . S
N477 Cu476 1.999 . S
N477 C479 1.263 . S
N477 C481 1.389 . S
N478 C479 1.358 . S
N478 C480 1.400 . S
C479 N477 1.263 . S
C479 N478 1.358 . S
C479 H485 0.930 . S
C480 N478 1.400 . S
C480 C481 1.351 . S
C480 H497 0.930 . S
C481 N477 1.389 . S
C481 C480 1.351 . S
C481 H486 0.930 . S
O482 Cu476 1.974 . S
O482 C492 1.282 . S
C483 O484 1.261 . S
C483 O496 1.251 1_655 S
O484 C483 1.261 . S
H485 C479 0.930 . S
H486 C481 0.930 . S
N487 Cu476 1.985 . S
N487 C489 1.335 1_455 S
N487 C490 1.390 . S
N488 C489 1.345 . S
N488 C491 1.336 . S
C489 N487 1.335 1_655 S
C489 N488 1.345 . S
C489 H494 0.930 . S
C490 N487 1.390 . S
C490 C491 1.346 1_455 S
C490 H495 0.930 . S
C491 N488 1.336 . S
C491 C490 1.346 1_655 S
C491 H498 0.929 . S
C492 O482 1.282 . S
C492 O493 1.216 . S
O493 C492 1.216 . S
H494 C489 0.930 . S
H495 C490 0.930 . S
O496 Cu476 1.959 . S
O496 C483 1.251 1_455 S
H497 C480 0.930 . S
H498 C491 0.929 . S
Cu499 N500 1.999 . S
Cu499 O505 1.974 . S
Cu499 N510 1.982 . S
Cu499 O519 1.959 1_545 S
N500 Cu499 1.999 . S
N500 C502 1.263 . S
N500 C504 1.389 . S
N501 C502 1.358 . S
N501 C503 1.400 . S
C502 N500 1.263 . S
C502 N501 1.358 . S
C502 H508 0.930 . S
C503 N501 1.400 . S
C503 C504 1.351 . S
C503 H520 0.930 . S
C504 N500 1.389 . S
C504 C503 1.351 . S
C504 H509 0.930 . S
O505 Cu499 1.974 . S
O505 C515 1.282 . S
C506 O507 1.261 1_565 S
C506 O519 1.251 . S
O507 C506 1.261 1_545 S
H508 C502 0.930 . S
H509 C504 0.930 . S
N510 Cu499 1.982 . S
N510 C512 1.340 1_545 S
N510 C513 1.389 . S
N511 C512 1.345 . S
N511 C514 1.336 . S
C512 N510 1.340 1_565 S
C512 N511 1.345 . S
C512 H517 0.930 . S
C513 N510 1.389 . S
C513 C514 1.346 1_545 S
C513 H518 0.930 . S
C514 N511 1.336 . S
C514 C513 1.346 1_565 S
C514 H521 0.929 . S
C515 O505 1.282 . S
C515 O516 1.216 . S
O516 C515 1.216 . S
H517 C512 0.930 . S
H518 C513 0.930 . S
O519 Cu499 1.959 1_565 S
O519 C506 1.251 . S
H520 C503 0.930 . S
H521 C514 0.929 . S
Cu522 N523 1.999 . S
Cu522 O528 1.974 . S
Cu522 N533 1.985 1_655 S
Cu522 O542 1.959 1_655 S
N523 Cu522 1.999 . S
N523 C525 1.263 . S
N523 C527 1.389 . S
N524 C525 1.358 . S
N524 C526 1.400 . S
C525 N523 1.263 . S
C525 N524 1.358 . S
C525 H531 0.930 . S
C526 N524 1.400 . S
C526 C527 1.351 . S
C526 H543 0.930 . S
C527 N523 1.389 . S
C527 C526 1.351 . S
C527 H532 0.930 1_655 S
O528 Cu522 1.974 . S
O528 C538 1.282 . S
C529 O530 1.261 . S
C529 O542 1.251 . S
O530 C529 1.261 . S
H531 C525 0.930 . S
H532 C527 0.930 1_455 S
N533 Cu522 1.985 1_455 S
N533 C535 1.335 . S
N533 C536 1.390 . S
N534 C535 1.345 . S
N534 C537 1.336 . S
C535 N533 1.335 . S
C535 N534 1.345 . S
C535 H540 0.930 . S
C536 N533 1.390 . S
C536 C537 1.346 . S
C536 H541 0.930 1_455 S
C537 N534 1.336 . S
C537 C536 1.346 . S
C537 H544 0.929 . S
C538 O528 1.282 . S
C538 O539 1.216 . S
O539 C538 1.216 . S
H540 C535 0.930 . S
H541 C536 0.930 1_655 S
O542 Cu522 1.959 1_455 S
O542 C529 1.251 . S
H543 C526 0.930 . S
H544 C537 0.929 . S
Cu545 N546 2.034 . S
Cu545 O551 2.014 . S
Cu545 N556 1.952 1_545 S
Cu545 O565 1.920 1_545 S
N546 Cu545 2.034 . S
N546 C548 1.263 . S
N546 C550 1.389 . S
N547 C548 1.358 . S
N547 C549 1.400 . S
C548 N546 1.263 . S
C548 N547 1.358 . S
C548 H554 0.930 . S
C549 N547 1.400 . S
C549 C550 1.351 . S
C549 H566 0.930 . S
C550 N546 1.389 . S
C550 C549 1.351 . S
C550 H555 0.930 . S
O551 Cu545 2.014 . S
O551 C561 1.282 . S
C552 O553 1.261 . S
C552 O565 1.251 . S
O553 C552 1.261 . S
H554 C548 0.930 . S
H555 C550 0.930 . S
N556 Cu545 1.952 1_565 S
N556 C558 1.335 . S
N556 C559 1.390 . S
N557 C558 1.345 . S
N557 C560 1.336 . S
C558 N556 1.335 . S
C558 N557 1.345 . S
C558 H563 0.930 . S
C559 N556 1.390 . S
C559 C560 1.346 . S
C559 H564 0.930 . S
C560 N557 1.336 . S
C560 C559 1.346 . S
C560 H567 0.929 . S
C561 O551 1.282 . S
C561 O562 1.216 . S
O562 C561 1.216 . S
H563 C558 0.930 . S
H564 C559 0.930 . S
O565 Cu545 1.920 1_565 S
O565 C552 1.251 . S
H566 C549 0.930 . S
H567 C560 0.929 . S
Cu568 N569 1.999 . S
Cu568 O574 1.974 . S
Cu568 N579 1.985 . S
Cu568 O588 1.959 . S
N569 Cu568 1.999 . S
N569 C571 1.263 . S
N569 C573 1.389 . S
N570 C571 1.358 . S
N570 C572 1.400 . S
C571 N569 1.263 . S
C571 N570 1.358 . S
C571 H577 0.930 . S
C572 N570 1.400 . S
C572 C573 1.351 . S
C572 H589 0.930 . S
C573 N569 1.389 . S
C573 C572 1.351 . S
C573 H578 0.930 . S
O574 Cu568 1.974 . S
O574 C584 1.282 . S
C575 O576 1.261 . S
C575 O588 1.251 1_655 S
O576 C575 1.261 . S
H577 C571 0.930 . S
H578 C573 0.930 . S
N579 Cu568 1.985 . S
N579 C581 1.335 1_455 S
N579 C582 1.390 . S
N580 C581 1.345 . S
N580 C583 1.336 . S
C581 N579 1.335 1_655 S
C581 N580 1.345 . S
C581 H586 0.930 . S
C582 N579 1.390 . S
C582 C583 1.346 1_455 S
C582 H587 0.930 . S
C583 N580 1.336 . S
C583 C582 1.346 1_655 S
C583 H590 0.929 . S
C584 O574 1.282 . S
C584 O585 1.216 . S
O585 C584 1.216 . S
H586 C581 0.930 . S
H587 C582 0.930 . S
O588 Cu568 1.959 . S
O588 C575 1.251 1_455 S
H589 C572 0.930 . S
H590 C583 0.929 . S
Cu591 N592 1.999 . S
Cu591 O597 1.974 . S
Cu591 N602 1.985 . S
Cu591 O611 1.959 . S
N592 Cu591 1.999 . S
N592 C594 1.263 . S
N592 C596 1.389 . S
N593 C594 1.358 . S
N593 C595 1.400 . S
C594 N592 1.263 . S
C594 N593 1.358 . S
C594 H600 0.930 . S
C595 N593 1.400 . S
C595 C596 1.351 . S
C595 H612 0.930 . S
C596 N592 1.389 . S
C596 C595 1.351 . S
C596 H601 0.930 . S
O597 Cu591 1.974 . S
O597 C607 1.282 . S
C598 O599 1.261 . S
C598 O611 1.251 . S
O599 C598 1.261 . S
H600 C594 0.930 . S
H601 C596 0.930 . S
N602 Cu591 1.985 . S
N602 C604 1.335 1_545 S
N602 C605 1.390 . S
N603 C604 1.345 . S
N603 C606 1.336 . S
C604 N602 1.335 1_565 S
C604 N603 1.345 . S
C604 H609 0.930 . S
C605 N602 1.390 . S
C605 C606 1.346 1_545 S
C605 H610 0.930 . S
C606 N603 1.336 . S
C606 C605 1.346 1_565 S
C606 H613 0.929 . S
C607 O597 1.282 . S
C607 O608 1.216 . S
O608 C607 1.216 . S
H609 C604 0.930 . S
H610 C605 0.930 . S
O611 Cu591 1.959 . S
O611 C598 1.251 . S
H612 C595 0.930 . S
H613 C606 0.929 . S
Cu614 N615 1.999 . S
Cu614 O620 1.974 . S
Cu614 N625 1.985 . S
Cu614 O634 1.959 . S
N615 Cu614 1.999 . S
N615 C617 1.263 . S
N615 C619 1.389 . S
N616 C617 1.358 . S
N616 C618 1.400 . S
C617 N615 1.263 . S
C617 N616 1.358 . S
C617 H623 0.930 . S
C618 N616 1.400 . S
C618 C619 1.351 . S
C618 H635 0.930 . S
C619 N615 1.389 . S
C619 C618 1.351 . S
C619 H624 0.930 . S
O620 Cu614 1.974 . S
O620 C630 1.282 . S
C621 O622 1.261 . S
C621 O634 1.251 . S
O622 C621 1.261 . S
H623 C617 0.930 . S
H624 C619 0.930 . S
N625 Cu614 1.985 . S
N625 C627 1.335 . S
N625 C628 1.390 . S
N626 C627 1.345 . S
N626 C629 1.336 . S
C627 N625 1.335 . S
C627 N626 1.345 . S
C627 H632 0.930 . S
C628 N625 1.390 . S
C628 C629 1.346 . S
C628 H633 0.930 . S
C629 N626 1.336 . S
C629 C628 1.346 . S
C629 H636 0.929 . S
C630 O620 1.282 . S
C630 O631 1.216 . S
O631 C630 1.216 . S
H632 C627 0.930 . S
H633 C628 0.930 . S
O634 Cu614 1.959 . S
O634 C621 1.251 . S
H635 C618 0.930 . S
H636 C629 0.929 . S
Cu637 N638 1.999 . S
Cu637 O643 1.974 . S
Cu637 N648 1.985 . S
Cu637 O657 1.959 . S
N638 Cu637 1.999 . S
N638 C640 1.263 . S
N638 C642 1.389 . S
N639 C640 1.358 . S
N639 C641 1.400 . S
C640 N638 1.263 . S
C640 N639 1.358 . S
C640 H646 0.930 . S
C641 N639 1.400 . S
C641 C642 1.351 . S
C641 H658 0.930 . S
C642 N638 1.389 . S
C642 C641 1.351 . S
C642 H647 0.930 . S
O643 Cu637 1.974 . S
O643 C653 1.282 . S
C644 O645 1.261 . S
C644 O657 1.251 . S
O645 C644 1.261 . S
H646 C640 0.930 . S
H647 C642 0.930 . S
N648 Cu637 1.985 . S
N648 C650 1.335 1_545 S
N648 C651 1.390 . S
N649 C650 1.345 . S
N649 C652 1.336 . S
C650 N648 1.335 1_565 S
C650 N649 1.345 . S
C650 H655 0.930 . S
C651 N648 1.390 . S
C651 C652 1.346 1_545 S
C651 H656 0.930 . S
C652 N649 1.336 . S
C652 C651 1.346 1_565 S
C652 H659 0.929 . S
C653 O643 1.282 . S
C653 O654 1.216 . S
O654 C653 1.216 . S
H655 C650 0.930 . S
H656 C651 0.930 . S
O657 Cu637 1.959 . S
O657 C644 1.251 . S
H658 C641 0.930 . S
H659 C652 0.929 . S
Cu660 N661 1.999 . S
Cu660 O666 1.974 . S
Cu660 N671 1.985 . S
Cu660 O680 1.959 . S
N661 Cu660 1.999 . S
N661 C663 1.263 . S
N661 C665 1.389 . S
N662 C663 1.358 . S
N662 C664 1.400 . S
C663 N661 1.263 . S
C663 N662 1.358 . S
C663 H669 0.930 . S
C664 N662 1.400 . S
C664 C665 1.351 . S
C664 H681 0.930 . S
C665 N661 1.389 . S
C665 C664 1.351 . S
C665 H670 0.930 . S
O666 Cu660 1.974 . S
O666 C676 1.282 . S
C667 O668 1.261 . S
C667 O680 1.251 . S
O668 C667 1.261 . S
H669 C663 0.930 . S
H670 C665 0.930 . S
N671 Cu660 1.985 . S
N671 C673 1.335 . S
N671 C674 1.390 . S
N672 C673 1.345 . S
N672 C675 1.336 . S
C673 N671 1.335 . S
C673 N672 1.345 . S
C673 H678 0.930 . S
C674 N671 1.390 . S
C674 C675 1.346 . S
C674 H679 0.930 . S
C675 N672 1.336 . S
C675 C674 1.346 . S
C675 H682 0.929 . S
C676 O666 1.282 . S
C676 O677 1.216 . S
O677 C676 1.216 . S
H678 C673 0.930 . S
H679 C674 0.930 . S
O680 Cu660 1.959 . S
O680 C667 1.251 . S
H681 C664 0.930 . S
H682 C675 0.929 . S
Cu683 N684 1.999 . S
Cu683 O689 1.974 . S
Cu683 N694 1.985 . S
Cu683 O703 1.959 . S
N684 Cu683 1.999 . S
N684 C686 1.263 . S
N684 C688 1.389 . S
N685 C686 1.358 . S
N685 C687 1.400 . S
C686 N684 1.263 . S
C686 N685 1.358 . S
C686 H692 0.930 . S
C687 N685 1.400 . S
C687 C688 1.351 . S
C687 H704 0.930 . S
C688 N684 1.389 . S
C688 C687 1.351 . S
C688 H693 0.930 . S
O689 Cu683 1.974 . S
O689 C699 1.282 . S
C690 O691 1.261 . S
C690 O703 1.251 . S
O691 C690 1.261 . S
H692 C686 0.930 . S
H693 C688 0.930 . S
N694 Cu683 1.985 . S
N694 C696 1.335 . S
N694 C697 1.390 . S
N695 C696 1.345 . S
N695 C698 1.336 . S
C696 N694 1.335 . S
C696 N695 1.345 . S
C696 H701 0.930 . S
C697 N694 1.390 . S
C697 C698 1.346 . S
C697 H702 0.930 . S
C698 N695 1.336 . S
C698 C697 1.346 . S
C698 H705 0.929 . S
C699 O689 1.282 . S
C699 O700 1.216 . S
O700 C699 1.216 . S
H701 C696 0.930 . S
H702 C697 0.930 . S
O703 Cu683 1.959 . S
O703 C690 1.251 . S
H704 C687 0.930 . S
H705 C698 0.929 . S
Cu706 N707 1.999 . S
Cu706 O712 1.974 . S
Cu706 N717 1.985 . S
Cu706 O726 1.959 . S
N707 Cu706 1.999 . S
N707 C709 1.263 . S
N707 C711 1.389 . S
N708 C709 1.358 . S
N708 C710 1.400 . S
C709 N707 1.263 . S
C709 N708 1.358 . S
C709 H715 0.930 . S
C710 N708 1.400 . S
C710 C711 1.351 . S
C710 H727 0.930 . S
C711 N707 1.389 . S
C711 C710 1.351 . S
C711 H716 0.930 . S
O712 Cu706 1.974 . S
O712 C722 1.282 . S
C713 O714 1.261 . S
C713 O726 1.251 . S
O714 C713 1.261 . S
H715 C709 0.930 . S
H716 C711 0.930 . S
N717 Cu706 1.985 . S
N717 C719 1.335 . S
N717 C720 1.390 . S
N718 C719 1.345 . S
N718 C721 1.336 . S
C719 N717 1.335 . S
C719 N718 1.345 . S
C719 H724 0.930 . S
C720 N717 1.390 . S
C720 C721 1.346 . S
C720 H725 0.930 . S
C721 N718 1.336 . S
C721 C720 1.346 . S
C721 H728 0.929 . S
C722 O712 1.282 . S
C722 O723 1.216 . S
O723 C722 1.216 . S
H724 C719 0.930 . S
H725 C720 0.930 . S
O726 Cu706 1.959 . S
O726 C713 1.251 . S
H727 C710 0.930 . S
H728 C721 0.929 . S
Cu729 N730 1.999 . S
Cu729 O735 1.974 . S
Cu729 N740 1.985 . S
Cu729 O749 1.959 . S
N730 Cu729 1.999 . S
N730 C732 1.263 . S
N730 C734 1.389 . S
N731 C732 1.358 . S
N731 C733 1.400 . S
C732 N730 1.263 . S
C732 N731 1.358 . S
C732 H738 0.930 . S
C733 N731 1.400 . S
C733 C734 1.351 . S
C733 H750 0.930 . S
C734 N730 1.389 . S
C734 C733 1.351 . S
C734 H739 0.930 . S
O735 Cu729 1.974 . S
O735 C745 1.282 . S
C736 O737 1.261 . S
C736 O749 1.251 . S
O737 C736 1.261 . S
H738 C732 0.930 . S
H739 C734 0.930 . S
N740 Cu729 1.985 . S
N740 C742 1.335 . S
N740 C743 1.390 . S
N741 C742 1.345 . S
N741 C744 1.336 . S
C742 N740 1.335 . S
C742 N741 1.345 . S
C742 H747 0.930 . S
C743 N740 1.390 . S
C743 C744 1.346 . S
C743 H748 0.930 . S
C744 N741 1.336 . S
C744 C743 1.346 . S
C744 H751 0.929 . S
C745 O735 1.282 . S
C745 O746 1.216 . S
O746 C745 1.216 . S
H747 C742 0.930 . S
H748 C743 0.930 . S
O749 Cu729 1.959 . S
O749 C736 1.251 . S
H750 C733 0.930 . S
H751 C744 0.929 . S
Cu752 N753 1.999 . S
Cu752 O758 1.974 . S
Cu752 N763 1.985 . S
Cu752 O772 1.959 . S
N753 Cu752 1.999 . S
N753 C755 1.263 . S
N753 C757 1.389 . S
N754 C755 1.358 . S
N754 C756 1.400 . S
C755 N753 1.263 . S
C755 N754 1.358 . S
C755 H761 0.930 . S
C756 N754 1.400 . S
C756 C757 1.351 . S
C756 H773 0.930 . S
C757 N753 1.389 . S
C757 C756 1.351 . S
C757 H762 0.930 . S
O758 Cu752 1.974 . S
O758 C768 1.282 . S
C759 O760 1.261 . S
C759 O772 1.251 . S
O760 C759 1.261 . S
H761 C755 0.930 . S
H762 C757 0.930 . S
N763 Cu752 1.985 . S
N763 C765 1.335 . S
N763 C766 1.390 . S
N764 C765 1.345 . S
N764 C767 1.336 . S
C765 N763 1.335 . S
C765 N764 1.345 . S
C765 H770 0.930 . S
C766 N763 1.390 . S
C766 C767 1.346 . S
C766 H771 0.930 . S
C767 N764 1.336 . S
C767 C766 1.346 . S
C767 H774 0.929 . S
C768 O758 1.282 . S
C768 O769 1.216 . S
O769 C768 1.216 . S
H770 C765 0.930 . S
H771 C766 0.930 . S
O772 Cu752 1.959 . S
O772 C759 1.251 . S
H773 C756 0.930 . S
H774 C767 0.929 . S
Cu775 N776 1.999 . S
Cu775 O781 1.974 . S
Cu775 N786 1.985 . S
Cu775 O795 1.959 . S
N776 Cu775 1.999 . S
N776 C778 1.263 . S
N776 C780 1.389 . S
N777 C778 1.358 . S
N777 C779 1.400 . S
C778 N776 1.263 . S
C778 N777 1.358 . S
C778 H784 0.930 . S
C779 N777 1.400 . S
C779 C780 1.351 . S
C779 H796 0.930 . S
C780 N776 1.389 . S
C780 C779 1.351 . S
C780 H785 0.930 . S
O781 Cu775 1.974 . S
O781 C791 1.282 . S
C782 O783 1.261 . S
C782 O795 1.251 . S
O783 C782 1.261 . S
H784 C778 0.930 . S
H785 C780 0.930 . S
N786 Cu775 1.985 . S
N786 C788 1.335 . S
N786 C789 1.390 . S
N787 C788 1.345 . S
N787 C790 1.336 . S
C788 N786 1.335 . S
C788 N787 1.345 . S
C788 H793 0.930 . S
C789 N786 1.390 . S
C789 C790 1.346 . S
C789 H794 0.930 . S
C790 N787 1.336 . S
C790 C789 1.346 . S
C790 H797 0.929 . S
C791 O781 1.282 . S
C791 O792 1.216 . S
O792 C791 1.216 . S
H793 C788 0.930 . S
H794 C789 0.930 . S
O795 Cu775 1.959 . S
O795 C782 1.251 . S
H796 C779 0.930 . S
H797 C790 0.929 . S
Cu798 N799 1.999 . S
Cu798 O804 1.974 . S
Cu798 N809 1.985 . S
Cu798 O818 1.959 . S
N799 Cu798 1.999 . S
N799 C801 1.263 . S
N799 C803 1.389 . S
N800 C801 1.358 . S
N800 C802 1.400 . S
C801 N799 1.263 . S
C801 N800 1.358 . S
C801 H807 0.930 . S
C802 N800 1.400 . S
C802 C803 1.351 . S
C802 H819 0.930 . S
C803 N799 1.389 . S
C803 C802 1.351 . S
C803 H808 0.930 . S
O804 Cu798 1.974 . S
O804 C814 1.282 . S
C805 O806 1.261 . S
C805 O818 1.251 . S
O806 C805 1.261 . S
H807 C801 0.930 . S
H808 C803 0.930 . S
N809 Cu798 1.985 . S
N809 C811 1.335 . S
N809 C812 1.390 . S
N810 C811 1.345 . S
N810 C813 1.336 . S
C811 N809 1.335 . S
C811 N810 1.345 . S
C811 H816 0.930 . S
C812 N809 1.390 . S
C812 C813 1.346 . S
C812 H817 0.930 . S
C813 N810 1.336 . S
C813 C812 1.346 . S
C813 H820 0.929 . S
C814 O804 1.282 . S
C814 O815 1.216 . S
O815 C814 1.216 . S
H816 C811 0.930 . S
H817 C812 0.930 . S
O818 Cu798 1.959 . S
O818 C805 1.251 . S
H819 C802 0.930 . S
H820 C813 0.929 . S
Cu821 N822 1.999 . S
Cu821 O827 1.974 . S
Cu821 N832 1.985 . S
Cu821 O841 1.959 . S
N822 Cu821 1.999 . S
N822 C824 1.263 . S
N822 C826 1.389 . S
N823 C824 1.358 . S
N823 C825 1.400 . S
C824 N822 1.263 . S
C824 N823 1.358 . S
C824 H830 0.930 . S
C825 N823 1.400 . S
C825 C826 1.351 . S
C825 H842 0.930 . S
C826 N822 1.389 . S
C826 C825 1.351 . S
C826 H831 0.930 . S
O827 Cu821 1.974 . S
O827 C837 1.282 . S
C828 O829 1.261 . S
C828 O841 1.251 . S
O829 C828 1.261 . S
H830 C824 0.930 . S
H831 C826 0.930 . S
N832 Cu821 1.985 . S
N832 C834 1.335 . S
N832 C835 1.390 . S
N833 C834 1.345 . S
N833 C836 1.336 . S
C834 N832 1.335 . S
C834 N833 1.345 . S
C834 H839 0.930 . S
C835 N832 1.390 . S
C835 C836 1.346 . S
C835 H840 0.930 . S
C836 N833 1.336 . S
C836 C835 1.346 . S
C836 H843 0.929 . S
C837 O827 1.282 . S
C837 O838 1.216 . S
O838 C837 1.216 . S
H839 C834 0.930 . S
H840 C835 0.930 . S
O841 Cu821 1.959 . S
O841 C828 1.251 . S
H842 C825 0.930 . S
H843 C836 0.929 . S
Cu844 N845 1.999 . S
Cu844 O850 1.974 . S
Cu844 N855 1.985 . S
Cu844 O864 1.959 . S
N845 Cu844 1.999 . S
N845 C847 1.263 . S
N845 C849 1.389 . S
N846 C847 1.358 . S
N846 C848 1.400 . S
C847 N845 1.263 . S
C847 N846 1.358 . S
C847 H853 0.930 . S
C848 N846 1.400 . S
C848 C849 1.351 . S
C848 H865 0.930 . S
C849 N845 1.389 . S
C849 C848 1.351 . S
C849 H854 0.930 . S
O850 Cu844 1.974 . S
O850 C860 1.282 . S
C851 O852 1.261 . S
C851 O864 1.251 . S
O852 C851 1.261 . S
H853 C847 0.930 . S
H854 C849 0.930 . S
N855 Cu844 1.985 . S
N855 C857 1.335 . S
N855 C858 1.390 . S
N856 C857 1.345 . S
N856 C859 1.336 . S
C857 N855 1.335 . S
C857 N856 1.345 . S
C857 H862 0.930 . S
C858 N855 1.390 . S
C858 C859 1.346 . S
C858 H863 0.930 . S
C859 N856 1.336 . S
C859 C858 1.346 . S
C859 H866 0.929 . S
C860 O850 1.282 . S
C860 O861 1.216 . S
O861 C860 1.216 . S
H862 C857 0.930 . S
H863 C858 0.930 . S
O864 Cu844 1.959 . S
O864 C851 1.251 . S
H865 C848 0.930 . S
H866 C859 0.929 . S
Cu867 N868 1.999 . S
Cu867 O873 1.974 . S
Cu867 N878 1.985 . S
Cu867 O887 1.959 . S
N868 Cu867 1.999 . S
N868 C870 1.263 . S
N868 C872 1.389 . S
N869 C870 1.358 . S
N869 C871 1.400 . S
C870 N868 1.263 . S
C870 N869 1.358 . S
C870 H876 0.930 . S
C871 N869 1.400 . S
C871 C872 1.351 . S
C871 H888 0.930 . S
C872 N868 1.389 . S
C872 C871 1.351 . S
C872 H877 0.930 . S
O873 Cu867 1.974 . S
O873 C883 1.282 . S
C874 O875 1.261 . S
C874 O887 1.251 . S
O875 C874 1.261 . S
H876 C870 0.930 . S
H877 C872 0.930 . S
N878 Cu867 1.985 . S
N878 C880 1.335 . S
N878 C881 1.390 . S
N879 C880 1.345 . S
N879 C882 1.336 . S
C880 N878 1.335 . S
C880 N879 1.345 . S
C880 H885 0.930 . S
C881 N878 1.390 . S
C881 C882 1.346 . S
C881 H886 0.930 . S
C882 N879 1.336 . S
C882 C881 1.346 . S
C882 H889 0.929 . S
C883 O873 1.282 . S
C883 O884 1.216 . S
O884 C883 1.216 . S
H885 C880 0.930 . S
H886 C881 0.930 . S
O887 Cu867 1.959 . S
O887 C874 1.251 . S
H888 C871 0.930 . S
H889 C882 0.929 . S
Cu890 N891 1.999 . S
Cu890 O896 1.974 . S
Cu890 N901 1.985 . S
Cu890 O910 1.959 . S
N891 Cu890 1.999 . S
N891 C893 1.263 . S
N891 C895 1.389 . S
N892 C893 1.358 . S
N892 C894 1.400 . S
C893 N891 1.263 . S
C893 N892 1.358 . S
C893 H899 0.930 . S
C894 N892 1.400 . S
C894 C895 1.351 . S
C894 H911 0.930 . S
C895 N891 1.389 . S
C895 C894 1.351 . S
C895 H900 0.930 . S
O896 Cu890 1.974 . S
O896 C906 1.282 . S
C897 O898 1.261 . S
C897 O910 1.251 . S
O898 C897 1.261 . S
H899 C893 0.930 . S
H900 C895 0.930 . S
N901 Cu890 1.985 . S
N901 C903 1.335 . S
N901 C904 1.390 . S
N902 C903 1.345 . S
N902 C905 1.336 . S
C903 N901 1.335 . S
C903 N902 1.345 . S
C903 H908 0.930 . S
C904 N901 1.390 . S
C904 C905 1.346 . S
C904 H909 0.930 . S
C905 N902 1.336 . S
C905 C904 1.346 . S
C905 H912 0.929 . S
C906 O896 1.282 . S
C906 O907 1.216 . S
O907 C906 1.216 . S
H908 C903 0.930 . S
H909 C904 0.930 . S
O910 Cu890 1.959 . S
O910 C897 1.251 . S
H911 C894 0.930 . S
H912 C905 0.929 . S
Cu913 N914 1.999 . S
Cu913 O919 1.974 . S
Cu913 N924 1.985 . S
Cu913 O933 1.959 . S
N914 Cu913 1.999 . S
N914 C916 1.263 . S
N914 C918 1.389 . S
N915 C916 1.358 . S
N915 C917 1.400 . S
C916 N914 1.263 . S
C916 N915 1.358 . S
C916 H922 0.930 . S
C917 N915 1.400 . S
C917 C918 1.351 . S
C917 H934 0.930 . S
C918 N914 1.389 . S
C918 C917 1.351 . S
C918 H923 0.930 . S
O919 Cu913 1.974 . S
O919 C929 1.282 . S
C920 O921 1.261 . S
C920 O933 1.251 . S
O921 C920 1.261 . S
H922 C916 0.930 . S
H923 C918 0.930 . S
N924 Cu913 1.985 . S
N924 C926 1.335 . S
N924 C927 1.390 . S
N925 C926 1.345 . S
N925 C928 1.336 . S
C926 N924 1.335 . S
C926 N925 1.345 . S
C926 H931 0.930 . S
C927 N924 1.390 . S
C927 C928 1.346 . S
C927 H932 0.930 . S
C928 N925 1.336 . S
C928 C927 1.346 . S
C928 H935 0.929 . S
C929 O919 1.282 . S
C929 O930 1.216 . S
O930 C929 1.216 . S
H931 C926 0.930 . S
H932 C927 0.930 . S
O933 Cu913 1.959 . S
O933 C920 1.251 . S
H934 C917 0.930 . S
H935 C928 0.929 . S
H936 C944 0.950 . S
H937 C949 0.950 . S
H938 C946 0.950 . S
H939 C948 0.950 . S
H940 C950 0.950 . S
H941 C952 0.950 . S
H942 C954 0.950 . S
H943 C955 0.950 . S
C944 H936 0.950 . S
C944 C945 1.386 . S
C944 C946 1.391 . S
C945 C944 1.386 . S
C945 C949 1.393 . S
C946 H938 0.950 . S
C946 C944 1.391 . S
C946 C947 1.400 . S
C947 C946 1.400 . S
C947 C948 1.398 . S
C947 C953 1.491 . S
C948 H939 0.950 . S
C948 C947 1.398 . S
C948 C949 1.391 . S
C949 H937 0.950 . S
C949 C945 1.393 . S
C949 C948 1.391 . S
C950 H940 0.950 . S
C950 C951 1.386 . S
C950 C952 1.391 . S
C951 C950 1.386 . S
C951 C955 1.393 . S
C952 H941 0.950 . S
C952 C950 1.391 . S
C952 C953 1.400 . S
C953 C947 1.491 . S
C953 C952 1.400 . S
C953 C954 1.398 . S
C954 H942 0.950 . S
C954 C953 1.398 . S
C954 C955 1.391 . S
C955 H943 0.950 . S
C955 C951 1.393 . S
C955 C954 1.391 . S
H956 C964 0.950 . S
H957 C969 0.950 . S
H958 C966 0.950 . S
H959 C968 0.950 . S
H960 C970 0.950 . S
H961 C972 0.950 . S
H962 C974 0.950 . S
H963 C975 0.950 . S
C964 H956 0.950 . S
C964 C965 1.386 . S
C964 C966 1.391 . S
C965 C964 1.386 . S
C965 C969 1.393 . S
C966 H958 0.950 . S
C966 C964 1.391 . S
C966 C967 1.400 . S
C967 C966 1.400 . S
C967 C968 1.398 . S
C967 C973 1.491 . S
C968 H959 0.950 . S
C968 C967 1.398 . S
C968 C969 1.391 . S
C969 H957 0.950 . S
C969 C965 1.393 . S
C969 C968 1.391 . S
C970 H960 0.950 . S
C970 C971 1.386 . S
C970 C972 1.391 . S
C971 C970 1.386 . S
C971 C975 1.393 . S
C972 H961 0.950 . S
C972 C970 1.391 . S
C972 C973 1.400 . S
C973 C967 1.491 . S
C973 C972 1.400 . S
C973 C974 1.398 . S
C974 H962 0.950 . S
C974 C973 1.398 . S
C974 C975 1.391 . S
C975 H963 0.950 . S
C975 C971 1.393 . S
C975 C974 1.391 . S
H976 C984 0.950 . S
H977 C989 0.950 . S
H978 C986 0.950 . S
H979 C988 0.950 . S
H980 C990 0.950 . S
H981 C992 0.950 . S
H982 C994 0.950 . S
H983 C995 0.950 . S
C984 H976 0.950 . S
C984 C985 1.386 . S
C984 C986 1.391 . S
C985 C984 1.386 . S
C985 C989 1.393 . S
C986 H978 0.950 . S
C986 C984 1.391 . S
C986 C987 1.400 . S
C987 C986 1.400 . S
C987 C988 1.398 . S
C987 C993 1.491 . S
C988 H979 0.950 . S
C988 C987 1.398 . S
C988 C989 1.391 . S
C989 H977 0.950 . S
C989 C985 1.393 . S
C989 C988 1.391 . S
C990 H980 0.950 . S
C990 C991 1.386 . S
C990 C992 1.391 . S
C991 C990 1.386 . S
C991 C995 1.393 . S
C992 H981 0.950 . S
C992 C990 1.391 . S
C992 C993 1.400 . S
C993 C987 1.491 . S
C993 C992 1.400 . S
C993 C994 1.398 . S
C994 H982 0.950 . S
C994 C993 1.398 . S
C994 C995 1.391 . S
C995 H983 0.950 . S
C995 C991 1.393 . S
C995 C994 1.391 . S
H996 C1004 0.950 . S
H997 C1009 0.950 . S
H998 C1006 0.950 . S
H999 C1008 0.950 . S
H1000 C1010 0.950 . S
H1001 C1012 0.950 . S
H1002 C1014 0.950 . S
H1003 C1015 0.950 . S
C1004 H996 0.950 . S
C1004 C1005 1.386 . S
C1004 C1006 1.391 . S
C1005 C1004 1.386 . S
C1005 C1009 1.393 . S
C1006 H998 0.950 . S
C1006 C1004 1.391 . S
C1006 C1007 1.400 . S
C1007 C1006 1.400 . S
C1007 C1008 1.398 . S
C1007 C1013 1.491 . S
C1008 H999 0.950 . S
C1008 C1007 1.398 . S
C1008 C1009 1.391 . S
C1009 H997 0.950 . S
C1009 C1005 1.393 . S
C1009 C1008 1.391 . S
C1010 H1000 0.950 . S
C1010 C1011 1.386 . S
C1010 C1012 1.391 . S
C1011 C1010 1.386 . S
C1011 C1015 1.393 . S
C1012 H1001 0.950 . S
C1012 C1010 1.391 . S
C1012 C1013 1.400 . S
C1013 C1007 1.491 . S
C1013 C1012 1.400 . S
C1013 C1014 1.398 . S
C1014 H1002 0.950 . S
C1014 C1013 1.398 . S
C1014 C1015 1.391 . S
C1015 H1003 0.950 . S
C1015 C1011 1.393 . S
C1015 C1014 1.391 . S
H1016 C1024 0.950 . S
H1017 C1029 0.950 . S
H1018 C1026 0.950 . S
H1019 C1028 0.950 . S
H1020 C1030 0.950 . S
H1021 C1032 0.950 . S
H1022 C1034 0.950 . S
H1023 C1035 0.950 . S
C1024 H1016 0.950 . S
C1024 C1025 1.386 . S
C1024 C1026 1.391 . S
C1025 C1024 1.386 . S
C1025 C1029 1.393 . S
C1026 H1018 0.950 . S
C1026 C1024 1.391 . S
C1026 C1027 1.400 . S
C1027 C1026 1.400 . S
C1027 C1028 1.398 . S
C1027 C1033 1.491 . S
C1028 H1019 0.950 . S
C1028 C1027 1.398 . S
C1028 C1029 1.391 . S
C1029 H1017 0.950 . S
C1029 C1025 1.393 . S
C1029 C1028 1.391 . S
C1030 H1020 0.950 . S
C1030 C1031 1.386 . S
C1030 C1032 1.391 . S
C1031 C1030 1.386 . S
C1031 C1035 1.393 . S
C1032 H1021 0.950 . S
C1032 C1030 1.391 . S
C1032 C1033 1.400 . S
C1033 C1027 1.491 . S
C1033 C1032 1.400 . S
C1033 C1034 1.398 . S
C1034 H1022 0.950 . S
C1034 C1033 1.398 . S
C1034 C1035 1.391 . S
C1035 H1023 0.950 . S
C1035 C1031 1.393 . S
C1035 C1034 1.391 . S
H1036 C1044 0.950 . S
H1037 C1049 0.950 . S
H1038 C1046 0.950 . S
H1039 C1048 0.950 . S
H1040 C1050 0.950 . S
H1041 C1052 0.950 . S
H1042 C1054 0.950 . S
H1043 C1055 0.950 . S
C1044 H1036 0.950 . S
C1044 C1045 1.386 . S
C1044 C1046 1.391 . S
C1045 C1044 1.386 . S
C1045 C1049 1.393 . S
C1046 H1038 0.950 . S
C1046 C1044 1.391 . S
C1046 C1047 1.400 . S
C1047 C1046 1.400 . S
C1047 C1048 1.398 . S
C1047 C1053 1.491 . S
C1048 H1039 0.950 . S
C1048 C1047 1.398 . S
C1048 C1049 1.391 . S
C1049 H1037 0.950 . S
C1049 C1045 1.393 . S
C1049 C1048 1.391 . S
C1050 H1040 0.950 . S
C1050 C1051 1.386 . S
C1050 C1052 1.391 . S
C1051 C1050 1.386 . S
C1051 C1055 1.393 . S
C1052 H1041 0.950 . S
C1052 C1050 1.391 . S
C1052 C1053 1.400 . S
C1053 C1047 1.491 . S
C1053 C1052 1.400 . S
C1053 C1054 1.398 . S
C1054 H1042 0.950 . S
C1054 C1053 1.398 . S
C1054 C1055 1.391 . S
C1055 H1043 0.950 . S
C1055 C1051 1.393 . S
C1055 C1054 1.391 . S
H1056 C1064 0.950 . S
H1057 C1069 0.950 . S
H1058 C1066 0.950 . S
H1059 C1068 0.950 . S
H1060 C1070 0.950 . S
H1061 C1072 0.950 . S
H1062 C1074 0.950 . S
H1063 C1075 0.950 . S
C1064 H1056 0.950 . S
C1064 C1065 1.386 . S
C1064 C1066 1.391 . S
C1065 C1064 1.386 . S
C1065 C1069 1.393 . S
C1066 H1058 0.950 . S
C1066 C1064 1.391 . S
C1066 C1067 1.400 . S
C1067 C1066 1.400 . S
C1067 C1068 1.398 . S
C1067 C1073 1.491 . S
C1068 H1059 0.950 . S
C1068 C1067 1.398 . S
C1068 C1069 1.391 . S
C1069 H1057 0.950 . S
C1069 C1065 1.393 . S
C1069 C1068 1.391 . S
C1070 H1060 0.950 . S
C1070 C1071 1.386 . S
C1070 C1072 1.391 . S
C1071 C1070 1.386 . S
C1071 C1075 1.393 . S
C1072 H1061 0.950 . S
C1072 C1070 1.391 . S
C1072 C1073 1.400 . S
C1073 C1067 1.491 . S
C1073 C1072 1.400 . S
C1073 C1074 1.398 . S
C1074 H1062 0.950 . S
C1074 C1073 1.398 . S
C1074 C1075 1.391 . S
C1075 H1063 0.950 . S
C1075 C1071 1.393 . S
C1075 C1074 1.391 . S
H1076 C1084 0.950 . S
H1077 C1089 0.950 . S
H1078 C1086 0.950 . S
H1079 C1088 0.950 . S
H1080 C1090 0.950 . S
H1081 C1092 0.950 . S
H1082 C1094 0.950 . S
H1083 C1095 0.950 . S
C1084 H1076 0.950 . S
C1084 C1085 1.386 . S
C1084 C1086 1.391 . S
C1085 C1084 1.386 . S
C1085 C1089 1.393 . S
C1086 H1078 0.950 . S
C1086 C1084 1.391 . S
C1086 C1087 1.400 . S
C1087 C1086 1.400 . S
C1087 C1088 1.398 . S
C1087 C1093 1.491 . S
C1088 H1079 0.950 . S
C1088 C1087 1.398 . S
C1088 C1089 1.391 . S
C1089 H1077 0.950 . S
C1089 C1085 1.393 . S
C1089 C1088 1.391 . S
C1090 H1080 0.950 . S
C1090 C1091 1.386 . S
C1090 C1092 1.391 . S
C1091 C1090 1.386 . S
C1091 C1095 1.393 . S
C1092 H1081 0.950 . S
C1092 C1090 1.391 . S
C1092 C1093 1.400 . S
C1093 C1087 1.491 . S
C1093 C1092 1.400 . S
C1093 C1094 1.398 . S
C1094 H1082 0.950 . S
C1094 C1093 1.398 . S
C1094 C1095 1.391 . S
C1095 H1083 0.950 . S
C1095 C1091 1.393 . S
C1095 C1094 1.391 . S
H1096 C1104 0.950 . S
H1097 C1109 0.950 . S
H1098 C1106 0.950 . S
H1099 C1108 0.950 . S
H1100 C1110 0.950 . S
H1101 C1112 0.950 . S
H1102 C1114 0.950 . S
H1103 C1115 0.950 . S
C1104 H1096 0.950 . S
C1104 C1105 1.386 . S
C1104 C1106 1.391 . S
C1105 C1104 1.386 . S
C1105 C1109 1.393 . S
C1106 H1098 0.950 . S
C1106 C1104 1.391 . S
C1106 C1107 1.400 . S
C1107 C1106 1.400 . S
C1107 C1108 1.398 . S
C1107 C1113 1.491 . S
C1108 H1099 0.950 . S
C1108 C1107 1.398 . S
C1108 C1109 1.391 . S
C1109 H1097 0.950 . S
C1109 C1105 1.393 . S
C1109 C1108 1.391 . S
C1110 H1100 0.950 . S
C1110 C1111 1.386 . S
C1110 C1112 1.391 . S
C1111 C1110 1.386 . S
C1111 C1115 1.393 . S
C1112 H1101 0.950 . S
C1112 C1110 1.391 . S
C1112 C1113 1.400 . S
C1113 C1107 1.491 . S
C1113 C1112 1.400 . S
C1113 C1114 1.398 . S
C1114 H1102 0.950 . S
C1114 C1113 1.398 . S
C1114 C1115 1.391 . S
C1115 H1103 0.950 . S
C1115 C1111 1.393 . S
C1115 C1114 1.391 . S
H1116 C1124 0.950 . S
H1117 C1129 0.950 . S
H1118 C1126 0.950 . S
H1119 C1128 0.950 . S
H1120 C1130 0.950 . S
H1121 C1132 0.950 . S
H1122 C1134 0.950 . S
H1123 C1135 0.950 . S
C1124 H1116 0.950 . S
C1124 C1125 1.386 . S
C1124 C1126 1.391 . S
C1125 C1124 1.386 . S
C1125 C1129 1.393 . S
C1126 H1118 0.950 . S
C1126 C1124 1.391 . S
C1126 C1127 1.400 . S
C1127 C1126 1.400 . S
C1127 C1128 1.398 . S
C1127 C1133 1.491 . S
C1128 H1119 0.950 . S
C1128 C1127 1.398 . S
C1128 C1129 1.391 . S
C1129 H1117 0.950 . S
C1129 C1125 1.393 . S
C1129 C1128 1.391 . S
C1130 H1120 0.950 . S
C1130 C1131 1.386 . S
C1130 C1132 1.391 . S
C1131 C1130 1.386 . S
C1131 C1135 1.393 . S
C1132 H1121 0.950 . S
C1132 C1130 1.391 . S
C1132 C1133 1.400 . S
C1133 C1127 1.491 . S
C1133 C1132 1.400 . S
C1133 C1134 1.398 . S
C1134 H1122 0.950 . S
C1134 C1133 1.398 . S
C1134 C1135 1.391 . S
C1135 H1123 0.950 . S
C1135 C1131 1.393 . S
C1135 C1134 1.391 . S
H1136 C1144 0.950 . S
H1137 C1149 0.950 . S
H1138 C1146 0.950 . S
H1139 C1148 0.950 . S
H1140 C1150 0.950 . S
H1141 C1152 0.950 . S
H1142 C1154 0.950 . S
H1143 C1155 0.950 . S
C1144 H1136 0.950 . S
C1144 C1145 1.386 . S
C1144 C1146 1.391 . S
C1145 C1144 1.386 . S
C1145 C1149 1.393 . S
C1146 H1138 0.950 . S
C1146 C1144 1.391 . S
C1146 C1147 1.400 . S
C1147 C1146 1.400 . S
C1147 C1148 1.398 . S
C1147 C1153 1.491 . S
C1148 H1139 0.950 . S
C1148 C1147 1.398 . S
C1148 C1149 1.391 . S
C1149 H1137 0.950 . S
C1149 C1145 1.393 . S
C1149 C1148 1.391 . S
C1150 H1140 0.950 . S
C1150 C1151 1.386 . S
C1150 C1152 1.391 . S
C1151 C1150 1.386 . S
C1151 C1155 1.393 . S
C1152 H1141 0.950 . S
C1152 C1150 1.391 . S
C1152 C1153 1.400 . S
C1153 C1147 1.491 . S
C1153 C1152 1.400 . S
C1153 C1154 1.398 . S
C1154 H1142 0.950 . S
C1154 C1153 1.398 . S
C1154 C1155 1.391 . S
C1155 H1143 0.950 . S
C1155 C1151 1.393 . S
C1155 C1154 1.391 . S
H1156 C1164 0.950 . S
H1157 C1169 0.950 . S
H1158 C1166 0.950 . S
H1159 C1168 0.950 . S
H1160 C1170 0.950 . S
H1161 C1172 0.950 . S
H1162 C1174 0.950 . S
H1163 C1175 0.950 . S
C1164 H1156 0.950 . S
C1164 C1165 1.386 . S
C1164 C1166 1.391 . S
C1165 C1164 1.386 . S
C1165 C1169 1.393 . S
C1166 H1158 0.950 . S
C1166 C1164 1.391 . S
C1166 C1167 1.400 . S
C1167 C1166 1.400 . S
C1167 C1168 1.398 . S
C1167 C1173 1.491 . S
C1168 H1159 0.950 . S
C1168 C1167 1.398 . S
C1168 C1169 1.391 . S
C1169 H1157 0.950 . S
C1169 C1165 1.393 . S
C1169 C1168 1.391 . S
C1170 H1160 0.950 . S
C1170 C1171 1.386 . S
C1170 C1172 1.391 . S
C1171 C1170 1.386 . S
C1171 C1175 1.393 . S
C1172 H1161 0.950 . S
C1172 C1170 1.391 . S
C1172 C1173 1.400 . S
C1173 C1167 1.491 . S
C1173 C1172 1.400 . S
C1173 C1174 1.398 . S
C1174 H1162 0.950 . S
C1174 C1173 1.398 . S
C1174 C1175 1.391 . S
C1175 H1163 0.950 . S
C1175 C1171 1.393 . S
C1175 C1174 1.391 . S
H1176 C1184 0.950 . S
H1177 C1189 0.950 . S
H1178 C1186 0.950 . S
H1179 C1188 0.950 . S
H1180 C1190 0.950 . S
H1181 C1192 0.950 . S
H1182 C1194 0.950 . S
H1183 C1195 0.950 . S
C1184 H1176 0.950 . S
C1184 C1185 1.386 . S
C1184 C1186 1.391 . S
C1185 C1184 1.386 . S
C1185 C1189 1.393 . S
C1186 H1178 0.950 . S
C1186 C1184 1.391 . S
C1186 C1187 1.400 . S
C1187 C1186 1.400 . S
C1187 C1188 1.398 . S
C1187 C1193 1.491 . S
C1188 H1179 0.950 . S
C1188 C1187 1.398 . S
C1188 C1189 1.391 . S
C1189 H1177 0.950 . S
C1189 C1185 1.393 . S
C1189 C1188 1.391 . S
C1190 H1180 0.950 . S
C1190 C1191 1.386 . S
C1190 C1192 1.391 . S
C1191 C1190 1.386 . S
C1191 C1195 1.393 . S
C1192 H1181 0.950 . S
C1192 C1190 1.391 . S
C1192 C1193 1.400 . S
C1193 C1187 1.491 . S
C1193 C1192 1.400 . S
C1193 C1194 1.398 . S
C1194 H1182 0.950 . S
C1194 C1193 1.398 . S
C1194 C1195 1.391 . S
C1195 H1183 0.950 . S
C1195 C1191 1.393 . S
C1195 C1194 1.391 . S
H1196 C1204 0.950 . S
H1197 C1209 0.950 . S
H1198 C1206 0.950 . S
H1199 C1208 0.950 . S
H1200 C1210 0.950 . S
H1201 C1212 0.950 . S
H1202 C1214 0.950 . S
H1203 C1215 0.950 . S
C1204 H1196 0.950 . S
C1204 C1205 1.386 . S
C1204 C1206 1.391 . S
C1205 C1204 1.386 . S
C1205 C1209 1.393 . S
C1206 H1198 0.950 . S
C1206 C1204 1.391 . S
C1206 C1207 1.400 . S
C1207 C1206 1.400 . S
C1207 C1208 1.398 . S
C1207 C1213 1.491 . S
C1208 H1199 0.950 . S
C1208 C1207 1.398 . S
C1208 C1209 1.391 . S
C1209 H1197 0.950 . S
C1209 C1205 1.393 . S
C1209 C1208 1.391 . S
C1210 H1200 0.950 . S
C1210 C1211 1.386 . S
C1210 C1212 1.391 . S
C1211 C1210 1.386 . S
C1211 C1215 1.393 . S
C1212 H1201 0.950 . S
C1212 C1210 1.391 . S
C1212 C1213 1.400 . S
C1213 C1207 1.491 . S
C1213 C1212 1.400 . S
C1213 C1214 1.398 . S
C1214 H1202 0.950 . S
C1214 C1213 1.398 . S
C1214 C1215 1.391 . S
C1215 H1203 0.950 . S
C1215 C1211 1.393 . S
C1215 C1214 1.391 . S
H1216 C1224 0.950 . S
H1217 C1229 0.950 . S
H1218 C1226 0.950 . S
H1219 C1228 0.950 . S
H1220 C1230 0.950 . S
H1221 C1232 0.950 . S
H1222 C1234 0.950 . S
H1223 C1235 0.950 . S
C1224 H1216 0.950 . S
C1224 C1225 1.386 . S
C1224 C1226 1.391 . S
C1225 C1224 1.386 . S
C1225 C1229 1.393 . S
C1226 H1218 0.950 . S
C1226 C1224 1.391 . S
C1226 C1227 1.400 . S
C1227 C1226 1.400 . S
C1227 C1228 1.398 . S
C1227 C1233 1.491 . S
C1228 H1219 0.950 . S
C1228 C1227 1.398 . S
C1228 C1229 1.391 . S
C1229 H1217 0.950 . S
C1229 C1225 1.393 . S
C1229 C1228 1.391 . S
C1230 H1220 0.950 . S
C1230 C1231 1.386 . S
C1230 C1232 1.391 . S
C1231 C1230 1.386 . S
C1231 C1235 1.393 . S
C1232 H1221 0.950 . S
C1232 C1230 1.391 . S
C1232 C1233 1.400 . S
C1233 C1227 1.491 . S
C1233 C1232 1.400 . S
C1233 C1234 1.398 . S
C1234 H1222 0.950 . S
C1234 C1233 1.398 . S
C1234 C1235 1.391 . S
C1235 H1223 0.950 . S
C1235 C1231 1.393 . S
C1235 C1234 1.391 . S
H1236 C1244 0.950 . S
H1237 C1249 0.950 . S
H1238 C1246 0.950 . S
H1239 C1248 0.950 . S
H1240 C1250 0.950 . S
H1241 C1252 0.950 1_545 S
H1242 C1254 0.950 . S
H1243 C1255 0.950 . S
C1244 H1236 0.950 . S
C1244 C1245 1.386 . S
C1244 C1246 1.391 . S
C1245 C1244 1.386 . S
C1245 C1249 1.393 . S
C1246 H1238 0.950 . S
C1246 C1244 1.391 . S
C1246 C1247 1.400 . S
C1247 C1246 1.400 . S
C1247 C1248 1.398 . S
C1247 C1253 1.491 . S
C1248 H1239 0.950 . S
C1248 C1247 1.398 . S
C1248 C1249 1.391 . S
C1249 H1237 0.950 . S
C1249 C1245 1.393 . S
C1249 C1248 1.391 . S
C1250 H1240 0.950 . S
C1250 C1251 1.383 1_545 S
C1250 C1252 1.391 1_545 S
C1251 C1250 1.383 1_565 S
C1251 C1255 1.411 . S
C1252 H1241 0.950 1_565 S
C1252 C1250 1.391 1_565 S
C1252 C1253 1.400 . S
C1253 C1247 1.491 . S
C1253 C1252 1.400 . S
C1253 C1254 1.398 . S
C1254 H1242 0.950 . S
C1254 C1253 1.398 . S
C1254 C1255 1.391 . S
C1255 H1243 0.950 . S
C1255 C1251 1.411 . S
C1255 C1254 1.391 . S
H1256 C1264 0.950 . S
H1257 C1269 0.950 . S
H1258 C1266 0.950 . S
H1259 C1268 0.950 . S
H1260 C1270 0.950 . S
H1261 C1272 0.950 . S
H1262 C1274 0.950 . S
H1263 C1275 0.950 . S
C1264 H1256 0.950 . S
C1264 C1265 1.386 . S
C1264 C1266 1.391 . S
C1265 C1264 1.386 . S
C1265 C1269 1.393 . S
C1266 H1258 0.950 . S
C1266 C1264 1.391 . S
C1266 C1267 1.400 . S
C1267 C1266 1.400 . S
C1267 C1268 1.398 . S
C1267 C1273 1.491 . S
C1268 H1259 0.950 . S
C1268 C1267 1.398 . S
C1268 C1269 1.391 . S
C1269 H1257 0.950 . S
C1269 C1265 1.393 . S
C1269 C1268 1.391 . S
C1270 H1260 0.950 . S
C1270 C1271 1.386 . S
C1270 C1272 1.391 . S
C1271 C1270 1.386 . S
C1271 C1275 1.393 . S
C1272 H1261 0.950 . S
C1272 C1270 1.391 . S
C1272 C1273 1.400 . S
C1273 C1267 1.491 . S
C1273 C1272 1.400 . S
C1273 C1274 1.398 . S
C1274 H1262 0.950 . S
C1274 C1273 1.398 . S
C1274 C1275 1.391 . S
C1275 H1263 0.950 . S
C1275 C1271 1.393 . S
C1275 C1274 1.391 . S
H1276 C1284 0.950 . S
H1277 C1289 0.950 . S
H1278 C1286 0.950 . S
H1279 C1288 0.950 . S
H1280 C1290 0.950 . S
H1281 C1292 0.950 . S
H1282 C1294 0.950 . S
H1283 C1295 0.950 . S
C1284 H1276 0.950 . S
C1284 C1285 1.386 . S
C1284 C1286 1.391 . S
C1285 C1284 1.386 . S
C1285 C1289 1.393 . S
C1286 H1278 0.950 . S
C1286 C1284 1.391 . S
C1286 C1287 1.400 . S
C1287 C1286 1.400 . S
C1287 C1288 1.398 . S
C1287 C1293 1.491 . S
C1288 H1279 0.950 . S
C1288 C1287 1.398 . S
C1288 C1289 1.391 . S
C1289 H1277 0.950 . S
C1289 C1285 1.393 . S
C1289 C1288 1.391 . S
C1290 H1280 0.950 . S
C1290 C1291 1.386 . S
C1290 C1292 1.391 . S
C1291 C1290 1.386 . S
C1291 C1295 1.393 . S
C1292 H1281 0.950 . S
C1292 C1290 1.391 . S
C1292 C1293 1.400 . S
C1293 C1287 1.491 . S
C1293 C1292 1.400 . S
C1293 C1294 1.398 . S
C1294 H1282 0.950 . S
C1294 C1293 1.398 . S
C1294 C1295 1.391 . S
C1295 H1283 0.950 . S
C1295 C1291 1.393 . S
C1295 C1294 1.391 . S
H1296 C1304 0.950 . S
H1297 C1309 0.950 . S
H1298 C1306 0.950 . S
H1299 C1308 0.950 . S
H1300 C1310 0.950 . S
H1301 C1312 0.950 . S
H1302 C1314 0.950 . S
H1303 C1315 0.950 . S
C1304 H1296 0.950 . S
C1304 C1305 1.386 . S
C1304 C1306 1.391 . S
C1305 C1304 1.386 . S
C1305 C1309 1.393 . S
C1306 H1298 0.950 . S
C1306 C1304 1.391 . S
C1306 C1307 1.400 . S
C1307 C1306 1.400 . S
C1307 C1308 1.398 . S
C1307 C1313 1.491 . S
C1308 H1299 0.950 . S
C1308 C1307 1.398 . S
C1308 C1309 1.391 . S
C1309 H1297 0.950 . S
C1309 C1305 1.393 . S
C1309 C1308 1.391 . S
C1310 H1300 0.950 . S
C1310 C1311 1.386 . S
C1310 C1312 1.391 . S
C1311 C1310 1.386 . S
C1311 C1315 1.393 . S
C1312 H1301 0.950 . S
C1312 C1310 1.391 . S
C1312 C1313 1.400 . S
C1313 C1307 1.491 . S
C1313 C1312 1.400 . S
C1313 C1314 1.398 . S
C1314 H1302 0.950 . S
C1314 C1313 1.398 . S
C1314 C1315 1.391 . S
C1315 H1303 0.950 . S
C1315 C1311 1.393 . S
C1315 C1314 1.391 . S
H1316 C1324 0.950 . S
H1317 C1329 0.950 . S
H1318 C1326 0.950 . S
H1319 C1328 0.950 . S
H1320 C1330 0.950 . S
H1321 C1332 0.950 . S
H1322 C1334 0.950 . S
H1323 C1335 0.950 . S
C1324 H1316 0.950 . S
C1324 C1325 1.386 . S
C1324 C1326 1.391 . S
C1325 C1324 1.386 . S
C1325 C1329 1.393 . S
C1326 H1318 0.950 . S
C1326 C1324 1.391 . S
C1326 C1327 1.400 . S
C1327 C1326 1.400 . S
C1327 C1328 1.398 . S
C1327 C1333 1.491 . S
C1328 H1319 0.950 . S
C1328 C1327 1.398 . S
C1328 C1329 1.391 . S
C1329 H1317 0.950 . S
C1329 C1325 1.393 . S
C1329 C1328 1.391 . S
C1330 H1320 0.950 . S
C1330 C1331 1.386 . S
C1330 C1332 1.391 . S
C1331 C1330 1.386 . S
C1331 C1335 1.393 . S
C1332 H1321 0.950 . S
C1332 C1330 1.391 . S
C1332 C1333 1.400 . S
C1333 C1327 1.491 . S
C1333 C1332 1.400 . S
C1333 C1334 1.398 . S
C1334 H1322 0.950 . S
C1334 C1333 1.398 . S
C1334 C1335 1.391 . S
C1335 H1323 0.950 . S
C1335 C1331 1.393 . S
C1335 C1334 1.391 . S
H1336 C1344 0.950 . S
H1337 C1349 0.950 . S
H1338 C1346 0.950 . S
H1339 C1348 0.950 . S
H1340 C1350 0.950 . S
H1341 C1352 0.950 . S
H1342 C1354 0.950 . S
H1343 C1355 0.950 . S
C1344 H1336 0.950 . S
C1344 C1345 1.386 . S
C1344 C1346 1.391 . S
C1345 C1344 1.386 . S
C1345 C1349 1.393 . S
C1346 H1338 0.950 . S
C1346 C1344 1.391 . S
C1346 C1347 1.400 . S
C1347 C1346 1.400 . S
C1347 C1348 1.398 . S
C1347 C1353 1.491 . S
C1348 H1339 0.950 . S
C1348 C1347 1.398 . S
C1348 C1349 1.391 . S
C1349 H1337 0.950 . S
C1349 C1345 1.393 . S
C1349 C1348 1.391 . S
C1350 H1340 0.950 . S
C1350 C1351 1.386 . S
C1350 C1352 1.391 . S
C1351 C1350 1.386 . S
C1351 C1355 1.393 . S
C1352 H1341 0.950 . S
C1352 C1350 1.391 . S
C1352 C1353 1.400 . S
C1353 C1347 1.491 . S
C1353 C1352 1.400 . S
C1353 C1354 1.398 . S
C1354 H1342 0.950 . S
C1354 C1353 1.398 . S
C1354 C1355 1.391 . S
C1355 H1343 0.950 . S
C1355 C1351 1.393 . S
C1355 C1354 1.391 . S
H1356 C1364 0.950 . S
H1357 C1369 0.950 . S
H1358 C1366 0.950 . S
H1359 C1368 0.950 . S
H1360 C1370 0.950 . S
H1361 C1372 0.950 . S
H1362 C1374 0.950 . S
H1363 C1375 0.950 . S
C1364 H1356 0.950 . S
C1364 C1365 1.386 . S
C1364 C1366 1.391 . S
C1365 C1364 1.386 . S
C1365 C1369 1.393 . S
C1366 H1358 0.950 . S
C1366 C1364 1.391 . S
C1366 C1367 1.400 . S
C1367 C1366 1.400 . S
C1367 C1368 1.398 . S
C1367 C1373 1.491 . S
C1368 H1359 0.950 . S
C1368 C1367 1.398 . S
C1368 C1369 1.391 . S
C1369 H1357 0.950 . S
C1369 C1365 1.393 . S
C1369 C1368 1.391 . S
C1370 H1360 0.950 . S
C1370 C1371 1.386 . S
C1370 C1372 1.391 . S
C1371 C1370 1.386 . S
C1371 C1375 1.393 . S
C1372 H1361 0.950 . S
C1372 C1370 1.391 . S
C1372 C1373 1.400 . S
C1373 C1367 1.491 . S
C1373 C1372 1.400 . S
C1373 C1374 1.398 . S
C1374 H1362 0.950 . S
C1374 C1373 1.398 . S
C1374 C1375 1.391 . S
C1375 H1363 0.950 . S
C1375 C1371 1.393 . S
C1375 C1374 1.391 . S
H1376 C1384 0.950 . S
H1377 C1389 0.950 . S
H1378 C1386 0.950 . S
H1379 C1388 0.950 . S
H1380 C1390 0.950 . S
H1381 C1392 0.950 . S
H1382 C1394 0.950 . S
H1383 C1395 0.950 . S
C1384 H1376 0.950 . S
C1384 C1385 1.386 . S
C1384 C1386 1.391 . S
C1385 C1384 1.386 . S
C1385 C1389 1.393 . S
C1386 H1378 0.950 . S
C1386 C1384 1.391 . S
C1386 C1387 1.400 . S
C1387 C1386 1.400 . S
C1387 C1388 1.398 . S
C1387 C1393 1.491 . S
C1388 H1379 0.950 . S
C1388 C1387 1.398 . S
C1388 C1389 1.391 . S
C1389 H1377 0.950 . S
C1389 C1385 1.393 . S
C1389 C1388 1.391 . S
C1390 H1380 0.950 . S
C1390 C1391 1.386 . S
C1390 C1392 1.391 . S
C1391 C1390 1.386 . S
C1391 C1395 1.393 . S
C1392 H1381 0.950 . S
C1392 C1390 1.391 . S
C1392 C1393 1.400 . S
C1393 C1387 1.491 . S
C1393 C1392 1.400 . S
C1393 C1394 1.398 . S
C1394 H1382 0.950 . S
C1394 C1393 1.398 . S
C1394 C1395 1.391 . S
C1395 H1383 0.950 . S
C1395 C1391 1.393 . S
C1395 C1394 1.391 . S
H1396 C1404 0.950 . S
H1397 C1409 0.950 . S
H1398 C1406 0.950 . S
H1399 C1408 0.950 . S
H1400 C1410 0.950 . S
H1401 C1412 0.950 . S
H1402 C1414 0.950 . S
H1403 C1415 0.950 . S
C1404 H1396 0.950 . S
C1404 C1405 1.386 . S
C1404 C1406 1.391 . S
C1405 C1404 1.386 . S
C1405 C1409 1.393 . S
C1406 H1398 0.950 . S
C1406 C1404 1.391 . S
C1406 C1407 1.400 . S
C1407 C1406 1.400 . S
C1407 C1408 1.398 . S
C1407 C1413 1.491 . S
C1408 H1399 0.950 . S
C1408 C1407 1.398 . S
C1408 C1409 1.391 . S
C1409 H1397 0.950 . S
C1409 C1405 1.393 . S
C1409 C1408 1.391 . S
C1410 H1400 0.950 . S
C1410 C1411 1.386 . S
C1410 C1412 1.391 . S
C1411 C1410 1.386 . S
C1411 C1415 1.393 . S
C1412 H1401 0.950 . S
C1412 C1410 1.391 . S
C1412 C1413 1.400 . S
C1413 C1407 1.491 . S
C1413 C1412 1.400 . S
C1413 C1414 1.398 . S
C1414 H1402 0.950 . S
C1414 C1413 1.398 . S
C1414 C1415 1.391 . S
C1415 H1403 0.950 . S
C1415 C1411 1.393 . S
C1415 C1414 1.391 . S
H1416 C1424 0.950 . S
H1417 C1429 0.950 . S
H1418 C1426 0.950 . S
H1419 C1428 0.950 . S
H1420 C1430 0.950 . S
H1421 C1432 0.950 . S
H1422 C1434 0.950 . S
H1423 C1435 0.950 . S
C1424 H1416 0.950 . S
C1424 C1425 1.386 . S
C1424 C1426 1.391 . S
C1425 C1424 1.386 . S
C1425 C1429 1.393 . S
C1426 H1418 0.950 . S
C1426 C1424 1.391 . S
C1426 C1427 1.400 . S
C1427 C1426 1.400 . S
C1427 C1428 1.398 . S
C1427 C1433 1.491 . S
C1428 H1419 0.950 . S
C1428 C1427 1.398 . S
C1428 C1429 1.391 . S
C1429 H1417 0.950 . S
C1429 C1425 1.393 . S
C1429 C1428 1.391 . S
C1430 H1420 0.950 . S
C1430 C1431 1.386 . S
C1430 C1432 1.391 . S
C1431 C1430 1.386 . S
C1431 C1435 1.393 . S
C1432 H1421 0.950 . S
C1432 C1430 1.391 . S
C1432 C1433 1.400 . S
C1433 C1427 1.491 . S
C1433 C1432 1.400 . S
C1433 C1434 1.398 . S
C1434 H1422 0.950 . S
C1434 C1433 1.398 . S
C1434 C1435 1.391 . S
C1435 H1423 0.950 . S
C1435 C1431 1.393 . S
C1435 C1434 1.391 . S
H1436 C1444 0.950 . S
H1437 C1449 0.950 . S
H1438 C1446 0.950 . S
H1439 C1448 0.950 . S
H1440 C1450 0.950 . S
H1441 C1452 0.950 . S
H1442 C1454 0.950 . S
H1443 C1455 0.950 . S
C1444 H1436 0.950 . S
C1444 C1445 1.386 . S
C1444 C1446 1.391 . S
C1445 C1444 1.386 . S
C1445 C1449 1.393 . S
C1446 H1438 0.950 . S
C1446 C1444 1.391 . S
C1446 C1447 1.400 . S
C1447 C1446 1.400 . S
C1447 C1448 1.398 . S
C1447 C1453 1.491 . S
C1448 H1439 0.950 . S
C1448 C1447 1.398 . S
C1448 C1449 1.391 . S
C1449 H1437 0.950 . S
C1449 C1445 1.393 . S
C1449 C1448 1.391 . S
C1450 H1440 0.950 . S
C1450 C1451 1.386 . S
C1450 C1452 1.391 . S
C1451 C1450 1.386 . S
C1451 C1455 1.393 . S
C1452 H1441 0.950 . S
C1452 C1450 1.391 . S
C1452 C1453 1.400 . S
C1453 C1447 1.491 . S
C1453 C1452 1.400 . S
C1453 C1454 1.398 . S
C1454 H1442 0.950 . S
C1454 C1453 1.398 . S
C1454 C1455 1.391 . S
C1455 H1443 0.950 . S
C1455 C1451 1.393 . S
C1455 C1454 1.391 . S
H1456 C1464 0.950 . S
H1457 C1469 0.950 . S
H1458 C1466 0.950 . S
H1459 C1468 0.950 . S
H1460 C1470 0.950 . S
H1461 C1472 0.950 . S
H1462 C1474 0.950 . S
H1463 C1475 0.950 . S
C1464 H1456 0.950 . S
C1464 C1465 1.386 . S
C1464 C1466 1.391 . S
C1465 C1464 1.386 . S
C1465 C1469 1.393 . S
C1466 H1458 0.950 . S
C1466 C1464 1.391 . S
C1466 C1467 1.400 . S
C1467 C1466 1.400 . S
C1467 C1468 1.398 . S
C1467 C1473 1.491 . S
C1468 H1459 0.950 . S
C1468 C1467 1.398 . S
C1468 C1469 1.391 . S
C1469 H1457 0.950 . S
C1469 C1465 1.393 . S
C1469 C1468 1.391 . S
C1470 H1460 0.950 . S
C1470 C1471 1.386 . S
C1470 C1472 1.391 . S
C1471 C1470 1.386 . S
C1471 C1475 1.393 . S
C1472 H1461 0.950 . S
C1472 C1470 1.391 . S
C1472 C1473 1.400 . S
C1473 C1467 1.491 . S
C1473 C1472 1.400 . S
C1473 C1474 1.398 . S
C1474 H1462 0.950 . S
C1474 C1473 1.398 . S
C1474 C1475 1.391 . S
C1475 H1463 0.950 . S
C1475 C1471 1.393 . S
C1475 C1474 1.391 . S
H1476 C1484 0.950 . S
H1477 C1489 0.950 . S
H1478 C1486 0.950 . S
H1479 C1488 0.950 . S
H1480 C1490 0.950 . S
H1481 C1492 0.950 . S
H1482 C1494 0.950 . S
H1483 C1495 0.950 . S
C1484 H1476 0.950 . S
C1484 C1485 1.386 . S
C1484 C1486 1.391 . S
C1485 C1484 1.386 . S
C1485 C1489 1.393 . S
C1486 H1478 0.950 . S
C1486 C1484 1.391 . S
C1486 C1487 1.400 . S
C1487 C1486 1.400 . S
C1487 C1488 1.398 . S
C1487 C1493 1.491 . S
C1488 H1479 0.950 . S
C1488 C1487 1.398 . S
C1488 C1489 1.391 . S
C1489 H1477 0.950 . S
C1489 C1485 1.393 . S
C1489 C1488 1.391 . S
C1490 H1480 0.950 . S
C1490 C1491 1.386 . S
C1490 C1492 1.391 . S
C1491 C1490 1.386 . S
C1491 C1495 1.393 . S
C1492 H1481 0.950 . S
C1492 C1490 1.391 . S
C1492 C1493 1.400 . S
C1493 C1487 1.491 . S
C1493 C1492 1.400 . S
C1493 C1494 1.398 . S
C1494 H1482 0.950 . S
C1494 C1493 1.398 . S
C1494 C1495 1.391 . S
C1495 H1483 0.950 . S
C1495 C1491 1.393 . S
C1495 C1494 1.391 . S
H1496 C1504 0.950 . S
H1497 C1509 0.950 . S
H1498 C1506 0.950 . S
H1499 C1508 0.950 . S
H1500 C1510 0.950 . S
H1501 C1512 0.950 . S
H1502 C1514 0.950 . S
H1503 C1515 0.950 . S
C1504 H1496 0.950 . S
C1504 C1505 1.386 . S
C1504 C1506 1.391 . S
C1505 C1504 1.386 . S
C1505 C1509 1.393 . S
C1506 H1498 0.950 . S
C1506 C1504 1.391 . S
C1506 C1507 1.400 . S
C1507 C1506 1.400 . S
C1507 C1508 1.398 . S
C1507 C1513 1.491 . S
C1508 H1499 0.950 . S
C1508 C1507 1.398 . S
C1508 C1509 1.391 . S
C1509 H1497 0.950 . S
C1509 C1505 1.393 . S
C1509 C1508 1.391 . S
C1510 H1500 0.950 . S
C1510 C1511 1.386 . S
C1510 C1512 1.391 . S
C1511 C1510 1.386 . S
C1511 C1515 1.393 . S
C1512 H1501 0.950 . S
C1512 C1510 1.391 . S
C1512 C1513 1.400 . S
C1513 C1507 1.491 . S
C1513 C1512 1.400 . S
C1513 C1514 1.398 . S
C1514 H1502 0.950 . S
C1514 C1513 1.398 . S
C1514 C1515 1.391 . S
C1515 H1503 0.950 . S
C1515 C1511 1.393 . S
C1515 C1514 1.391 . S
H1516 C1524 0.950 . S
H1517 C1529 0.950 . S
H1518 C1526 0.950 . S
H1519 C1528 0.950 . S
H1520 C1530 0.950 . S
H1521 C1532 0.950 . S
H1522 C1534 0.950 . S
H1523 C1535 0.950 . S
C1524 H1516 0.950 . S
C1524 C1525 1.386 . S
C1524 C1526 1.391 . S
C1525 C1524 1.386 . S
C1525 C1529 1.393 . S
C1526 H1518 0.950 . S
C1526 C1524 1.391 . S
C1526 C1527 1.400 . S
C1527 C1526 1.400 . S
C1527 C1528 1.398 . S
C1527 C1533 1.491 . S
C1528 H1519 0.950 . S
C1528 C1527 1.398 . S
C1528 C1529 1.391 . S
C1529 H1517 0.950 . S
C1529 C1525 1.393 . S
C1529 C1528 1.391 . S
C1530 H1520 0.950 . S
C1530 C1531 1.386 . S
C1530 C1532 1.391 . S
C1531 C1530 1.386 . S
C1531 C1535 1.393 . S
C1532 H1521 0.950 . S
C1532 C1530 1.391 . S
C1532 C1533 1.400 . S
C1533 C1527 1.491 . S
C1533 C1532 1.400 . S
C1533 C1534 1.398 . S
C1534 H1522 0.950 . S
C1534 C1533 1.398 . S
C1534 C1535 1.391 . S
C1535 H1523 0.950 . S
C1535 C1531 1.393 . S
C1535 C1534 1.391 . S
H1536 C1544 0.950 . S
H1537 C1549 0.950 . S
H1538 C1546 0.950 . S
H1539 C1548 0.950 . S
H1540 C1550 0.950 . S
H1541 C1552 0.950 . S
H1542 C1554 0.950 . S
H1543 C1555 0.950 . S
C1544 H1536 0.950 . S
C1544 C1545 1.386 . S
C1544 C1546 1.391 . S
C1545 C1544 1.386 . S
C1545 C1549 1.393 . S
C1546 H1538 0.950 . S
C1546 C1544 1.391 . S
C1546 C1547 1.400 . S
C1547 C1546 1.400 . S
C1547 C1548 1.398 . S
C1547 C1553 1.491 . S
C1548 H1539 0.950 . S
C1548 C1547 1.398 . S
C1548 C1549 1.391 . S
C1549 H1537 0.950 . S
C1549 C1545 1.393 . S
C1549 C1548 1.391 . S
C1550 H1540 0.950 . S
C1550 C1551 1.386 . S
C1550 C1552 1.391 . S
C1551 C1550 1.386 . S
C1551 C1555 1.393 . S
C1552 H1541 0.950 . S
C1552 C1550 1.391 . S
C1552 C1553 1.400 . S
C1553 C1547 1.491 . S
C1553 C1552 1.400 . S
C1553 C1554 1.398 . S
C1554 H1542 0.950 . S
C1554 C1553 1.398 . S
C1554 C1555 1.391 . S
C1555 H1543 0.950 . S
C1555 C1551 1.393 . S
C1555 C1554 1.391 . S
H1556 C1564 0.950 . S
H1557 C1569 0.950 . S
H1558 C1566 0.950 . S
H1559 C1568 0.950 . S
H1560 C1570 0.950 . S
H1561 C1572 0.950 . S
H1562 C1574 0.950 . S
H1563 C1575 0.950 . S
C1564 H1556 0.950 . S
C1564 C1565 1.386 . S
C1564 C1566 1.391 . S
C1565 C1564 1.386 . S
C1565 C1569 1.393 . S
C1566 H1558 0.950 . S
C1566 C1564 1.391 . S
C1566 C1567 1.400 . S
C1567 C1566 1.400 . S
C1567 C1568 1.398 . S
C1567 C1573 1.491 . S
C1568 H1559 0.950 . S
C1568 C1567 1.398 . S
C1568 C1569 1.391 . S
C1569 H1557 0.950 . S
C1569 C1565 1.393 . S
C1569 C1568 1.391 . S
C1570 H1560 0.950 . S
C1570 C1571 1.386 . S
C1570 C1572 1.391 . S
C1571 C1570 1.386 . S
C1571 C1575 1.393 . S
C1572 H1561 0.950 . S
C1572 C1570 1.391 . S
C1572 C1573 1.400 . S
C1573 C1567 1.491 . S
C1573 C1572 1.400 . S
C1573 C1574 1.398 . S
C1574 H1562 0.950 . S
C1574 C1573 1.398 . S
C1574 C1575 1.391 . S
C1575 H1563 0.950 . S
C1575 C1571 1.393 . S
C1575 C1574 1.391 . S
H1576 C1584 0.950 . S
H1577 C1589 0.950 . S
H1578 C1586 0.950 . S
H1579 C1588 0.950 . S
H1580 C1590 0.950 . S
H1581 C1592 0.950 . S
H1582 C1594 0.950 . S
H1583 C1595 0.950 . S
C1584 H1576 0.950 . S
C1584 C1585 1.386 . S
C1584 C1586 1.391 . S
C1585 C1584 1.386 . S
C1585 C1589 1.393 . S
C1586 H1578 0.950 . S
C1586 C1584 1.391 . S
C1586 C1587 1.400 . S
C1587 C1586 1.400 . S
C1587 C1588 1.398 . S
C1587 C1593 1.491 . S
C1588 H1579 0.950 . S
C1588 C1587 1.398 . S
C1588 C1589 1.391 . S
C1589 H1577 0.950 . S
C1589 C1585 1.393 . S
C1589 C1588 1.391 . S
C1590 H1580 0.950 . S
C1590 C1591 1.386 . S
C1590 C1592 1.391 . S
C1591 C1590 1.386 . S
C1591 C1595 1.393 . S
C1592 H1581 0.950 . S
C1592 C1590 1.391 . S
C1592 C1593 1.400 . S
C1593 C1587 1.491 . S
C1593 C1592 1.400 . S
C1593 C1594 1.398 . S
C1594 H1582 0.950 . S
C1594 C1593 1.398 . S
C1594 C1595 1.391 . S
C1595 H1583 0.950 . S
C1595 C1591 1.393 . S
C1595 C1594 1.391 . S
H1596 C1604 0.950 . S
H1597 C1609 0.950 . S
H1598 C1606 0.950 . S
H1599 C1608 0.950 . S
H1600 C1610 0.950 . S
H1601 C1612 0.950 . S
H1602 C1614 0.950 . S
H1603 C1615 0.950 . S
C1604 H1596 0.950 . S
C1604 C1605 1.386 . S
C1604 C1606 1.391 . S
C1605 C1604 1.386 . S
C1605 C1609 1.393 . S
C1606 H1598 0.950 . S
C1606 C1604 1.391 . S
C1606 C1607 1.400 . S
C1607 C1606 1.400 . S
C1607 C1608 1.398 . S
C1607 C1613 1.491 . S
C1608 H1599 0.950 . S
C1608 C1607 1.398 . S
C1608 C1609 1.391 . S
C1609 H1597 0.950 . S
C1609 C1605 1.393 . S
C1609 C1608 1.391 . S
C1610 H1600 0.950 . S
C1610 C1611 1.386 . S
C1610 C1612 1.391 . S
C1611 C1610 1.386 . S
C1611 C1615 1.393 . S
C1612 H1601 0.950 . S
C1612 C1610 1.391 . S
C1612 C1613 1.400 . S
C1613 C1607 1.491 . S
C1613 C1612 1.400 . S
C1613 C1614 1.398 . S
C1614 H1602 0.950 . S
C1614 C1613 1.398 . S
C1614 C1615 1.391 . S
C1615 H1603 0.950 . S
C1615 C1611 1.393 . S
C1615 C1614 1.391 . S
H1616 C1624 0.950 . S
H1617 C1629 0.950 . S
H1618 C1626 0.950 . S
H1619 C1628 0.950 . S
H1620 C1630 0.950 . S
H1621 C1632 0.950 . S
H1622 C1634 0.950 . S
H1623 C1635 0.950 . S
C1624 H1616 0.950 . S
C1624 C1625 1.386 . S
C1624 C1626 1.391 . S
C1625 C1624 1.386 . S
C1625 C1629 1.393 . S
C1626 H1618 0.950 . S
C1626 C1624 1.391 . S
C1626 C1627 1.400 . S
C1627 C1626 1.400 . S
C1627 C1628 1.398 . S
C1627 C1633 1.491 . S
C1628 H1619 0.950 . S
C1628 C1627 1.398 . S
C1628 C1629 1.391 . S
C1629 H1617 0.950 . S
C1629 C1625 1.393 . S
C1629 C1628 1.391 . S
C1630 H1620 0.950 . S
C1630 C1631 1.386 . S
C1630 C1632 1.391 . S
C1631 C1630 1.386 . S
C1631 C1635 1.393 . S
C1632 H1621 0.950 . S
C1632 C1630 1.391 . S
C1632 C1633 1.400 . S
C1633 C1627 1.491 . S
C1633 C1632 1.400 . S
C1633 C1634 1.398 . S
C1634 H1622 0.950 . S
C1634 C1633 1.398 . S
C1634 C1635 1.391 . S
C1635 H1623 0.950 . S
C1635 C1631 1.393 . S
C1635 C1634 1.391 . S
H1636 C1644 0.950 . S
H1637 C1649 0.950 . S
H1638 C1646 0.950 . S
H1639 C1648 0.950 . S
H1640 C1650 0.950 . S
H1641 C1652 0.950 . S
H1642 C1654 0.950 . S
H1643 C1655 0.950 . S
C1644 H1636 0.950 . S
C1644 C1645 1.386 . S
C1644 C1646 1.391 . S
C1645 C1644 1.386 . S
C1645 C1649 1.393 . S
C1646 H1638 0.950 . S
C1646 C1644 1.391 . S
C1646 C1647 1.400 . S
C1647 C1646 1.400 . S
C1647 C1648 1.398 . S
C1647 C1653 1.491 . S
C1648 H1639 0.950 . S
C1648 C1647 1.398 . S
C1648 C1649 1.391 . S
C1649 H1637 0.950 . S
C1649 C1645 1.393 . S
C1649 C1648 1.391 . S
C1650 H1640 0.950 . S
C1650 C1651 1.386 . S
C1650 C1652 1.391 . S
C1651 C1650 1.386 . S
C1651 C1655 1.393 . S
C1652 H1641 0.950 . S
C1652 C1650 1.391 . S
C1652 C1653 1.400 . S
C1653 C1647 1.491 . S
C1653 C1652 1.400 . S
C1653 C1654 1.398 . S
C1654 H1642 0.950 . S
C1654 C1653 1.398 . S
C1654 C1655 1.391 . S
C1655 H1643 0.950 . S
C1655 C1651 1.393 . S
C1655 C1654 1.391 . S
H1656 C1664 0.950 . S
H1657 C1669 0.950 . S
H1658 C1666 0.950 . S
H1659 C1668 0.950 . S
H1660 C1670 0.950 . S
H1661 C1672 0.950 . S
H1662 C1674 0.950 . S
H1663 C1675 0.950 . S
C1664 H1656 0.950 . S
C1664 C1665 1.386 . S
C1664 C1666 1.391 . S
C1665 C1664 1.386 . S
C1665 C1669 1.393 . S
C1666 H1658 0.950 . S
C1666 C1664 1.391 . S
C1666 C1667 1.400 . S
C1667 C1666 1.400 . S
C1667 C1668 1.398 . S
C1667 C1673 1.491 . S
C1668 H1659 0.950 . S
C1668 C1667 1.398 . S
C1668 C1669 1.391 . S
C1669 H1657 0.950 . S
C1669 C1665 1.393 . S
C1669 C1668 1.391 . S
C1670 H1660 0.950 . S
C1670 C1671 1.386 . S
C1670 C1672 1.391 . S
C1671 C1670 1.386 . S
C1671 C1675 1.393 . S
C1672 H1661 0.950 . S
C1672 C1670 1.391 . S
C1672 C1673 1.400 . S
C1673 C1667 1.491 . S
C1673 C1672 1.400 . S
C1673 C1674 1.398 . S
C1674 H1662 0.950 . S
C1674 C1673 1.398 . S
C1674 C1675 1.391 . S
C1675 H1663 0.950 . S
C1675 C1671 1.393 . S
C1675 C1674 1.391 . S
H1676 C1684 0.950 . S
H1677 C1689 0.950 . S
H1678 C1686 0.950 . S
H1679 C1688 0.950 . S
H1680 C1690 0.950 . S
H1681 C1692 0.950 . S
H1682 C1694 0.950 . S
H1683 C1695 0.950 . S
C1684 H1676 0.950 . S
C1684 C1685 1.386 . S
C1684 C1686 1.391 . S
C1685 C1684 1.386 . S
C1685 C1689 1.393 . S
C1686 H1678 0.950 . S
C1686 C1684 1.391 . S
C1686 C1687 1.400 . S
C1687 C1686 1.400 . S
C1687 C1688 1.398 . S
C1687 C1693 1.491 . S
C1688 H1679 0.950 . S
C1688 C1687 1.398 . S
C1688 C1689 1.391 . S
C1689 H1677 0.950 . S
C1689 C1685 1.393 . S
C1689 C1688 1.391 . S
C1690 H1680 0.950 . S
C1690 C1691 1.386 . S
C1690 C1692 1.391 . S
C1691 C1690 1.386 . S
C1691 C1695 1.393 . S
C1692 H1681 0.950 . S
C1692 C1690 1.391 . S
C1692 C1693 1.400 . S
C1693 C1687 1.491 . S
C1693 C1692 1.400 . S
C1693 C1694 1.398 . S
C1694 H1682 0.950 . S
C1694 C1693 1.398 . S
C1694 C1695 1.391 . S
C1695 H1683 0.950 . S
C1695 C1691 1.393 . S
C1695 C1694 1.391 . S
H1696 C1704 0.950 . S
H1697 C1709 0.950 . S
H1698 C1706 0.950 . S
H1699 C1708 0.950 . S
H1700 C1710 0.950 . S
H1701 C1712 0.950 . S
H1702 C1714 0.950 . S
H1703 C1715 0.950 . S
C1704 H1696 0.950 . S
C1704 C1705 1.386 . S
C1704 C1706 1.391 . S
C1705 C1704 1.386 . S
C1705 C1709 1.393 . S
C1706 H1698 0.950 . S
C1706 C1704 1.391 . S
C1706 C1707 1.400 . S
C1707 C1706 1.400 . S
C1707 C1708 1.398 . S
C1707 C1713 1.491 . S
C1708 H1699 0.950 . S
C1708 C1707 1.398 . S
C1708 C1709 1.391 . S
C1709 H1697 0.950 . S
C1709 C1705 1.393 . S
C1709 C1708 1.391 . S
C1710 H1700 0.950 . S
C1710 C1711 1.386 . S
C1710 C1712 1.391 . S
C1711 C1710 1.386 . S
C1711 C1715 1.393 . S
C1712 H1701 0.950 . S
C1712 C1710 1.391 . S
C1712 C1713 1.400 . S
C1713 C1707 1.491 . S
C1713 C1712 1.400 . S
C1713 C1714 1.398 . S
C1714 H1702 0.950 . S
C1714 C1713 1.398 . S
C1714 C1715 1.391 . S
C1715 H1703 0.950 . S
C1715 C1711 1.393 . S
C1715 C1714 1.391 . S
H1716 C1724 0.950 . S
H1717 C1729 0.950 . S
H1718 C1726 0.950 . S
H1719 C1728 0.950 . S
H1720 C1730 0.950 . S
H1721 C1732 0.950 . S
H1722 C1734 0.950 . S
H1723 C1735 0.950 . S
C1724 H1716 0.950 . S
C1724 C1725 1.386 . S
C1724 C1726 1.391 . S
C1725 C1724 1.386 . S
C1725 C1729 1.393 . S
C1726 H1718 0.950 . S
C1726 C1724 1.391 . S
C1726 C1727 1.400 . S
C1727 C1726 1.400 . S
C1727 C1728 1.398 . S
C1727 C1733 1.491 . S
C1728 H1719 0.950 . S
C1728 C1727 1.398 . S
C1728 C1729 1.391 . S
C1729 H1717 0.950 . S
C1729 C1725 1.393 . S
C1729 C1728 1.391 . S
C1730 H1720 0.950 . S
C1730 C1731 1.386 . S
C1730 C1732 1.391 . S
C1731 C1730 1.386 . S
C1731 C1735 1.393 . S
C1732 H1721 0.950 . S
C1732 C1730 1.391 . S
C1732 C1733 1.400 . S
C1733 C1727 1.491 . S
C1733 C1732 1.400 . S
C1733 C1734 1.398 . S
C1734 H1722 0.950 . S
C1734 C1733 1.398 . S
C1734 C1735 1.391 . S
C1735 H1723 0.950 . S
C1735 C1731 1.393 . S
C1735 C1734 1.391 . S
H1736 C1744 0.950 . S
H1737 C1749 0.950 . S
H1738 C1746 0.950 . S
H1739 C1748 0.950 . S
H1740 C1750 0.950 . S
H1741 C1752 0.950 . S
H1742 C1754 0.950 . S
H1743 C1755 0.950 . S
C1744 H1736 0.950 . S
C1744 C1745 1.386 . S
C1744 C1746 1.391 . S
C1745 C1744 1.386 . S
C1745 C1749 1.393 . S
C1746 H1738 0.950 . S
C1746 C1744 1.391 . S
C1746 C1747 1.400 . S
C1747 C1746 1.400 . S
C1747 C1748 1.398 . S
C1747 C1753 1.491 . S
C1748 H1739 0.950 . S
C1748 C1747 1.398 . S
C1748 C1749 1.391 . S
C1749 H1737 0.950 . S
C1749 C1745 1.393 . S
C1749 C1748 1.391 . S
C1750 H1740 0.950 . S
C1750 C1751 1.386 . S
C1750 C1752 1.391 . S
C1751 C1750 1.386 . S
C1751 C1755 1.393 . S
C1752 H1741 0.950 . S
C1752 C1750 1.391 . S
C1752 C1753 1.400 . S
C1753 C1747 1.491 . S
C1753 C1752 1.400 . S
C1753 C1754 1.398 . S
C1754 H1742 0.950 . S
C1754 C1753 1.398 . S
C1754 C1755 1.391 . S
C1755 H1743 0.950 . S
C1755 C1751 1.393 . S
C1755 C1754 1.391 . S
H1756 C1764 0.950 . S
H1757 C1769 0.950 . S
H1758 C1766 0.950 . S
H1759 C1768 0.950 . S
H1760 C1770 0.950 . S
H1761 C1772 0.950 . S
H1762 C1774 0.950 . S
H1763 C1775 0.950 . S
C1764 H1756 0.950 . S
C1764 C1765 1.386 . S
C1764 C1766 1.391 . S
C1765 C1764 1.386 . S
C1765 C1769 1.393 . S
C1766 H1758 0.950 . S
C1766 C1764 1.391 . S
C1766 C1767 1.400 . S
C1767 C1766 1.400 . S
C1767 C1768 1.398 . S
C1767 C1773 1.491 . S
C1768 H1759 0.950 . S
C1768 C1767 1.398 . S
C1768 C1769 1.391 . S
C1769 H1757 0.950 . S
C1769 C1765 1.393 . S
C1769 C1768 1.391 . S
C1770 H1760 0.950 . S
C1770 C1771 1.386 . S
C1770 C1772 1.391 . S
C1771 C1770 1.386 . S
C1771 C1775 1.393 . S
C1772 H1761 0.950 . S
C1772 C1770 1.391 . S
C1772 C1773 1.400 . S
C1773 C1767 1.491 . S
C1773 C1772 1.400 . S
C1773 C1774 1.398 . S
C1774 H1762 0.950 . S
C1774 C1773 1.398 . S
C1774 C1775 1.391 . S
C1775 H1763 0.950 . S
C1775 C1771 1.393 . S
C1775 C1774 1.391 . S
H1776 C1784 0.950 . S
H1777 C1789 0.950 . S
H1778 C1786 0.950 . S
H1779 C1788 0.950 . S
H1780 C1790 0.950 . S
H1781 C1792 0.950 . S
H1782 C1794 0.950 . S
H1783 C1795 0.950 . S
C1784 H1776 0.950 . S
C1784 C1785 1.386 . S
C1784 C1786 1.391 . S
C1785 C1784 1.386 . S
C1785 C1789 1.393 . S
C1786 H1778 0.950 . S
C1786 C1784 1.391 . S
C1786 C1787 1.400 . S
C1787 C1786 1.400 . S
C1787 C1788 1.398 . S
C1787 C1793 1.491 . S
C1788 H1779 0.950 . S
C1788 C1787 1.398 . S
C1788 C1789 1.391 . S
C1789 H1777 0.950 . S
C1789 C1785 1.393 . S
C1789 C1788 1.391 . S
C1790 H1780 0.950 . S
C1790 C1791 1.386 . S
C1790 C1792 1.391 . S
C1791 C1790 1.386 . S
C1791 C1795 1.393 . S
C1792 H1781 0.950 . S
C1792 C1790 1.391 . S
C1792 C1793 1.400 . S
C1793 C1787 1.491 . S
C1793 C1792 1.400 . S
C1793 C1794 1.398 . S
C1794 H1782 0.950 . S
C1794 C1793 1.398 . S
C1794 C1795 1.391 . S
C1795 H1783 0.950 . S
C1795 C1791 1.393 . S
C1795 C1794 1.391 . S
H1796 C1804 0.950 . S
H1797 C1809 0.950 . S
H1798 C1806 0.950 . S
H1799 C1808 0.950 . S
H1800 C1810 0.950 . S
H1801 C1812 0.950 . S
H1802 C1814 0.950 . S
H1803 C1815 0.950 . S
C1804 H1796 0.950 . S
C1804 C1805 1.386 . S
C1804 C1806 1.391 . S
C1805 C1804 1.386 . S
C1805 C1809 1.393 . S
C1806 H1798 0.950 . S
C1806 C1804 1.391 . S
C1806 C1807 1.400 . S
C1807 C1806 1.400 . S
C1807 C1808 1.398 . S
C1807 C1813 1.491 . S
C1808 H1799 0.950 . S
C1808 C1807 1.398 . S
C1808 C1809 1.391 . S
C1809 H1797 0.950 . S
C1809 C1805 1.393 . S
C1809 C1808 1.391 . S
C1810 H1800 0.950 . S
C1810 C1811 1.386 . S
C1810 C1812 1.391 . S
C1811 C1810 1.386 . S
C1811 C1815 1.393 . S
C1812 H1801 0.950 . S
C1812 C1810 1.391 . S
C1812 C1813 1.400 . S
C1813 C1807 1.491 . S
C1813 C1812 1.400 . S
C1813 C1814 1.398 . S
C1814 H1802 0.950 . S
C1814 C1813 1.398 . S
C1814 C1815 1.391 . S
C1815 H1803 0.950 . S
C1815 C1811 1.393 . S
C1815 C1814 1.391 . S
H1816 C1824 0.950 . S
H1817 C1829 0.950 . S
H1818 C1826 0.950 . S
H1819 C1828 0.950 . S
H1820 C1830 0.950 . S
H1821 C1832 0.950 . S
H1822 C1834 0.950 . S
H1823 C1835 0.950 . S
C1824 H1816 0.950 . S
C1824 C1825 1.386 . S
C1824 C1826 1.391 . S
C1825 C1824 1.386 . S
C1825 C1829 1.393 . S
C1826 H1818 0.950 . S
C1826 C1824 1.391 . S
C1826 C1827 1.400 . S
C1827 C1826 1.400 . S
C1827 C1828 1.398 . S
C1827 C1833 1.491 . S
C1828 H1819 0.950 . S
C1828 C1827 1.398 . S
C1828 C1829 1.391 . S
C1829 H1817 0.950 . S
C1829 C1825 1.393 . S
C1829 C1828 1.391 . S
C1830 H1820 0.950 . S
C1830 C1831 1.386 . S
C1830 C1832 1.391 . S
C1831 C1830 1.386 . S
C1831 C1835 1.393 . S
C1832 H1821 0.950 . S
C1832 C1830 1.391 . S
C1832 C1833 1.400 . S
C1833 C1827 1.491 . S
C1833 C1832 1.400 . S
C1833 C1834 1.398 . S
C1834 H1822 0.950 . S
C1834 C1833 1.398 . S
C1834 C1835 1.391 . S
C1835 H1823 0.950 . S
C1835 C1831 1.393 . S
C1835 C1834 1.391 . S
H1836 C1844 0.950 . S
H1837 C1849 0.950 . S
H1838 C1846 0.950 . S
H1839 C1848 0.950 . S
H1840 C1850 0.950 . S
H1841 C1852 0.950 . S
H1842 C1854 0.950 . S
H1843 C1855 0.950 . S
C1844 H1836 0.950 . S
C1844 C1845 1.386 . S
C1844 C1846 1.391 . S
C1845 C1844 1.386 . S
C1845 C1849 1.393 . S
C1846 H1838 0.950 . S
C1846 C1844 1.391 . S
C1846 C1847 1.400 . S
C1847 C1846 1.400 . S
C1847 C1848 1.398 . S
C1847 C1853 1.491 . S
C1848 H1839 0.950 . S
C1848 C1847 1.398 . S
C1848 C1849 1.391 . S
C1849 H1837 0.950 . S
C1849 C1845 1.393 . S
C1849 C1848 1.391 . S
C1850 H1840 0.950 . S
C1850 C1851 1.386 . S
C1850 C1852 1.391 . S
C1851 C1850 1.386 . S
C1851 C1855 1.393 . S
C1852 H1841 0.950 . S
C1852 C1850 1.391 . S
C1852 C1853 1.400 . S
C1853 C1847 1.491 . S
C1853 C1852 1.400 . S
C1853 C1854 1.398 . S
C1854 H1842 0.950 . S
C1854 C1853 1.398 . S
C1854 C1855 1.391 . S
C1855 H1843 0.950 . S
C1855 C1851 1.393 . S
C1855 C1854 1.391 . S
H1856 C1864 0.950 . S
H1857 C1869 0.950 . S
H1858 C1866 0.950 . S
H1859 C1868 0.950 . S
H1860 C1870 0.950 . S
H1861 C1872 0.950 . S
H1862 C1874 0.950 . S
H1863 C1875 0.950 . S
C1864 H1856 0.950 . S
C1864 C1865 1.386 . S
C1864 C1866 1.391 . S
C1865 C1864 1.386 . S
C1865 C1869 1.393 . S
C1866 H1858 0.950 . S
C1866 C1864 1.391 . S
C1866 C1867 1.400 . S
C1867 C1866 1.400 . S
C1867 C1868 1.398 . S
C1867 C1873 1.491 . S
C1868 H1859 0.950 . S
C1868 C1867 1.398 . S
C1868 C1869 1.391 . S
C1869 H1857 0.950 . S
C1869 C1865 1.393 . S
C1869 C1868 1.391 . S
C1870 H1860 0.950 . S
C1870 C1871 1.386 . S
C1870 C1872 1.391 . S
C1871 C1870 1.386 . S
C1871 C1875 1.393 . S
C1872 H1861 0.950 . S
C1872 C1870 1.391 . S
C1872 C1873 1.400 . S
C1873 C1867 1.491 . S
C1873 C1872 1.400 . S
C1873 C1874 1.398 . S
C1874 H1862 0.950 . S
C1874 C1873 1.398 . S
C1874 C1875 1.391 . S
C1875 H1863 0.950 . S
C1875 C1871 1.393 . S
C1875 C1874 1.391 . S
H1876 C1884 0.950 . S
H1877 C1889 0.950 . S
H1878 C1886 0.950 . S
H1879 C1888 0.950 . S
H1880 C1890 0.950 . S
H1881 C1892 0.950 . S
H1882 C1894 0.950 . S
H1883 C1895 0.950 . S
C1884 H1876 0.950 . S
C1884 C1885 1.386 . S
C1884 C1886 1.391 . S
C1885 C1884 1.386 . S
C1885 C1889 1.393 . S
C1886 H1878 0.950 . S
C1886 C1884 1.391 . S
C1886 C1887 1.400 . S
C1887 C1886 1.400 . S
C1887 C1888 1.398 . S
C1887 C1893 1.491 . S
C1888 H1879 0.950 . S
C1888 C1887 1.398 . S
C1888 C1889 1.391 . S
C1889 H1877 0.950 . S
C1889 C1885 1.393 . S
C1889 C1888 1.391 . S
C1890 H1880 0.950 . S
C1890 C1891 1.386 . S
C1890 C1892 1.391 . S
C1891 C1890 1.386 . S
C1891 C1895 1.393 . S
C1892 H1881 0.950 . S
C1892 C1890 1.391 . S
C1892 C1893 1.400 . S
C1893 C1887 1.491 . S
C1893 C1892 1.400 . S
C1893 C1894 1.398 . S
C1894 H1882 0.950 . S
C1894 C1893 1.398 . S
C1894 C1895 1.391 . S
C1895 H1883 0.950 . S
C1895 C1891 1.393 . S
C1895 C1894 1.391 . S
H1896 C1904 0.950 . S
H1897 C1909 0.950 . S
H1898 C1906 0.950 . S
H1899 C1908 0.950 . S
H1900 C1910 0.950 . S
H1901 C1912 0.950 . S
H1902 C1914 0.950 . S
H1903 C1915 0.950 . S
C1904 H1896 0.950 . S
C1904 C1905 1.386 . S
C1904 C1906 1.391 . S
C1905 C1904 1.386 . S
C1905 C1909 1.393 . S
C1906 H1898 0.950 . S
C1906 C1904 1.391 . S
C1906 C1907 1.400 . S
C1907 C1906 1.400 . S
C1907 C1908 1.398 . S
C1907 C1913 1.491 . S
C1908 H1899 0.950 . S
C1908 C1907 1.398 . S
C1908 C1909 1.391 . S
C1909 H1897 0.950 . S
C1909 C1905 1.393 . S
C1909 C1908 1.391 . S
C1910 H1900 0.950 . S
C1910 C1911 1.386 . S
C1910 C1912 1.391 . S
C1911 C1910 1.386 . S
C1911 C1915 1.393 . S
C1912 H1901 0.950 . S
C1912 C1910 1.391 . S
C1912 C1913 1.400 . S
C1913 C1907 1.491 . S
C1913 C1912 1.400 . S
C1913 C1914 1.398 . S
C1914 H1902 0.950 . S
C1914 C1913 1.398 . S
C1914 C1915 1.391 . S
C1915 H1903 0.950 . S
C1915 C1911 1.393 . S
C1915 C1914 1.391 . S
H1916 C1924 0.950 . S
H1917 C1929 0.950 . S
H1918 C1926 0.950 . S
H1919 C1928 0.950 . S
H1920 C1930 0.950 . S
H1921 C1932 0.950 . S
H1922 C1934 0.950 . S
H1923 C1935 0.950 . S
C1924 H1916 0.950 . S
C1924 C1925 1.386 . S
C1924 C1926 1.391 . S
C1925 C1924 1.386 . S
C1925 C1929 1.393 . S
C1926 H1918 0.950 . S
C1926 C1924 1.391 . S
C1926 C1927 1.400 . S
C1927 C1926 1.400 . S
C1927 C1928 1.398 . S
C1927 C1933 1.491 . S
C1928 H1919 0.950 . S
C1928 C1927 1.398 . S
C1928 C1929 1.391 . S
C1929 H1917 0.950 . S
C1929 C1925 1.393 . S
C1929 C1928 1.391 . S
C1930 H1920 0.950 . S
C1930 C1931 1.386 . S
C1930 C1932 1.391 . S
C1931 C1930 1.386 . S
C1931 C1935 1.393 . S
C1932 H1921 0.950 . S
C1932 C1930 1.391 . S
C1932 C1933 1.400 . S
C1933 C1927 1.491 . S
C1933 C1932 1.400 . S
C1933 C1934 1.398 . S
C1934 H1922 0.950 . S
C1934 C1933 1.398 . S
C1934 C1935 1.391 . S
C1935 H1923 0.950 . S
C1935 C1931 1.393 . S
C1935 C1934 1.391 . S
H1936 C1944 0.950 . S
H1937 C1949 0.950 . S
H1938 C1946 0.950 . S
H1939 C1948 0.950 . S
H1940 C1950 0.950 . S
H1941 C1952 0.950 . S
H1942 C1954 0.950 . S
H1943 C1955 0.950 . S
C1944 H1936 0.950 . S
C1944 C1945 1.386 . S
C1944 C1946 1.391 . S
C1945 C1944 1.386 . S
C1945 C1949 1.393 . S
C1946 H1938 0.950 . S
C1946 C1944 1.391 . S
C1946 C1947 1.400 . S
C1947 C1946 1.400 . S
C1947 C1948 1.398 . S
C1947 C1953 1.491 . S
C1948 H1939 0.950 . S
C1948 C1947 1.398 . S
C1948 C1949 1.391 . S
C1949 H1937 0.950 . S
C1949 C1945 1.393 . S
C1949 C1948 1.391 . S
C1950 H1940 0.950 . S
C1950 C1951 1.386 . S
C1950 C1952 1.391 . S
C1951 C1950 1.386 . S
C1951 C1955 1.393 . S
C1952 H1941 0.950 . S
C1952 C1950 1.391 . S
C1952 C1953 1.400 . S
C1953 C1947 1.491 . S
C1953 C1952 1.400 . S
C1953 C1954 1.398 . S
C1954 H1942 0.950 . S
C1954 C1953 1.398 . S
C1954 C1955 1.391 . S
C1955 H1943 0.950 . S
C1955 C1951 1.393 . S
C1955 C1954 1.391 . S
H1956 C1964 0.950 . S
H1957 C1969 0.950 . S
H1958 C1966 0.950 . S
H1959 C1968 0.950 . S
H1960 C1970 0.950 . S
H1961 C1972 0.950 . S
H1962 C1974 0.950 . S
H1963 C1975 0.950 . S
C1964 H1956 0.950 . S
C1964 C1965 1.386 . S
C1964 C1966 1.391 . S
C1965 C1964 1.386 . S
C1965 C1969 1.393 . S
C1966 H1958 0.950 . S
C1966 C1964 1.391 . S
C1966 C1967 1.400 . S
C1967 C1966 1.400 . S
C1967 C1968 1.398 . S
C1967 C1973 1.491 . S
C1968 H1959 0.950 . S
C1968 C1967 1.398 . S
C1968 C1969 1.391 . S
C1969 H1957 0.950 . S
C1969 C1965 1.393 . S
C1969 C1968 1.391 . S
C1970 H1960 0.950 . S
C1970 C1971 1.386 . S
C1970 C1972 1.391 . S
C1971 C1970 1.386 . S
C1971 C1975 1.393 . S
C1972 H1961 0.950 . S
C1972 C1970 1.391 . S
C1972 C1973 1.400 . S
C1973 C1967 1.491 . S
C1973 C1972 1.400 . S
C1973 C1974 1.398 . S
C1974 H1962 0.950 . S
C1974 C1973 1.398 . S
C1974 C1975 1.391 . S
C1975 H1963 0.950 . S
C1975 C1971 1.393 . S
C1975 C1974 1.391 . S
H1976 C1984 0.950 . S
H1977 C1989 0.950 . S
H1978 C1986 0.950 . S
H1979 C1988 0.950 . S
H1980 C1990 0.950 . S
H1981 C1992 0.950 . S
H1982 C1994 0.950 . S
H1983 C1995 0.950 . S
C1984 H1976 0.950 . S
C1984 C1985 1.386 . S
C1984 C1986 1.391 . S
C1985 C1984 1.386 . S
C1985 C1989 1.393 . S
C1986 H1978 0.950 . S
C1986 C1984 1.391 . S
C1986 C1987 1.400 . S
C1987 C1986 1.400 . S
C1987 C1988 1.398 . S
C1987 C1993 1.491 . S
C1988 H1979 0.950 . S
C1988 C1987 1.398 . S
C1988 C1989 1.391 . S
C1989 H1977 0.950 . S
C1989 C1985 1.393 . S
C1989 C1988 1.391 . S
C1990 H1980 0.950 . S
C1990 C1991 1.386 . S
C1990 C1992 1.391 . S
C1991 C1990 1.386 . S
C1991 C1995 1.393 . S
C1992 H1981 0.950 . S
C1992 C1990 1.391 . S
C1992 C1993 1.400 . S
C1993 C1987 1.491 . S
C1993 C1992 1.400 . S
C1993 C1994 1.398 . S
C1994 H1982 0.950 . S
C1994 C1993 1.398 . S
C1994 C1995 1.391 . S
C1995 H1983 0.950 . S
C1995 C1991 1.393 . S
C1995 C1994 1.391 . S
H1996 C2004 0.950 . S
H1997 C2009 0.950 . S
H1998 C2006 0.950 . S
H1999 C2008 0.950 . S
H2000 C2010 0.950 . S
H2001 C2012 0.950 . S
H2002 C2014 0.950 . S
H2003 C2015 0.950 . S
C2004 H1996 0.950 . S
C2004 C2005 1.386 . S
C2004 C2006 1.391 . S
C2005 C2004 1.386 . S
C2005 C2009 1.393 . S
C2006 H1998 0.950 . S
C2006 C2004 1.391 . S
C2006 C2007 1.400 . S
C2007 C2006 1.400 . S
C2007 C2008 1.398 . S
C2007 C2013 1.491 . S
C2008 H1999 0.950 . S
C2008 C2007 1.398 . S
C2008 C2009 1.391 . S
C2009 H1997 0.950 . S
C2009 C2005 1.393 . S
C2009 C2008 1.391 . S
C2010 H2000 0.950 . S
C2010 C2011 1.386 . S
C2010 C2012 1.391 . S
C2011 C2010 1.386 . S
C2011 C2015 1.393 . S
C2012 H2001 0.950 . S
C2012 C2010 1.391 . S
C2012 C2013 1.400 . S
C2013 C2007 1.491 . S
C2013 C2012 1.400 . S
C2013 C2014 1.398 . S
C2014 H2002 0.950 . S
C2014 C2013 1.398 . S
C2014 C2015 1.391 . S
C2015 H2003 0.950 . S
C2015 C2011 1.393 . S
C2015 C2014 1.391 . S
H2016 C2024 0.950 . S
H2017 C2029 0.950 . S
H2018 C2026 0.950 . S
H2019 C2028 0.950 . S
H2020 C2030 0.950 . S
H2021 C2032 0.950 . S
H2022 C2034 0.950 . S
H2023 C2035 0.950 . S
C2024 H2016 0.950 . S
C2024 C2025 1.386 . S
C2024 C2026 1.391 . S
C2025 C2024 1.386 . S
C2025 C2029 1.393 . S
C2026 H2018 0.950 . S
C2026 C2024 1.391 . S
C2026 C2027 1.400 . S
C2027 C2026 1.400 . S
C2027 C2028 1.398 . S
C2027 C2033 1.491 . S
C2028 H2019 0.950 . S
C2028 C2027 1.398 . S
C2028 C2029 1.391 . S
C2029 H2017 0.950 . S
C2029 C2025 1.393 . S
C2029 C2028 1.391 . S
C2030 H2020 0.950 . S
C2030 C2031 1.386 . S
C2030 C2032 1.391 . S
C2031 C2030 1.386 . S
C2031 C2035 1.393 . S
C2032 H2021 0.950 . S
C2032 C2030 1.391 . S
C2032 C2033 1.400 . S
C2033 C2027 1.491 . S
C2033 C2032 1.400 . S
C2033 C2034 1.398 . S
C2034 H2022 0.950 . S
C2034 C2033 1.398 . S
C2034 C2035 1.391 . S
C2035 H2023 0.950 . S
C2035 C2031 1.393 . S
C2035 C2034 1.391 . S
H2036 C2044 0.950 . S
H2037 C2049 0.950 . S
H2038 C2046 0.950 . S
H2039 C2048 0.950 . S
H2040 C2050 0.950 . S
H2041 C2052 0.950 . S
H2042 C2054 0.950 . S
H2043 C2055 0.950 . S
C2044 H2036 0.950 . S
C2044 C2045 1.386 . S
C2044 C2046 1.391 . S
C2045 C2044 1.386 . S
C2045 C2049 1.393 . S
C2046 H2038 0.950 . S
C2046 C2044 1.391 . S
C2046 C2047 1.400 . S
C2047 C2046 1.400 . S
C2047 C2048 1.398 . S
C2047 C2053 1.491 . S
C2048 H2039 0.950 . S
C2048 C2047 1.398 . S
C2048 C2049 1.391 . S
C2049 H2037 0.950 . S
C2049 C2045 1.393 . S
C2049 C2048 1.391 . S
C2050 H2040 0.950 . S
C2050 C2051 1.386 . S
C2050 C2052 1.391 . S
C2051 C2050 1.386 . S
C2051 C2055 1.393 . S
C2052 H2041 0.950 . S
C2052 C2050 1.391 . S
C2052 C2053 1.400 . S
C2053 C2047 1.491 . S
C2053 C2052 1.400 . S
C2053 C2054 1.398 . S
C2054 H2042 0.950 . S
C2054 C2053 1.398 . S
C2054 C2055 1.391 . S
C2055 H2043 0.950 . S
C2055 C2051 1.393 . S
C2055 C2054 1.391 . S
H2056 C2064 0.950 . S
H2057 C2069 0.950 . S
H2058 C2066 0.950 . S
H2059 C2068 0.950 . S
H2060 C2070 0.950 . S
H2061 C2072 0.950 . S
H2062 C2074 0.950 . S
H2063 C2075 0.950 . S
C2064 H2056 0.950 . S
C2064 C2065 1.386 . S
C2064 C2066 1.391 . S
C2065 C2064 1.386 . S
C2065 C2069 1.393 . S
C2066 H2058 0.950 . S
C2066 C2064 1.391 . S
C2066 C2067 1.400 . S
C2067 C2066 1.400 . S
C2067 C2068 1.398 . S
C2067 C2073 1.491 . S
C2068 H2059 0.950 . S
C2068 C2067 1.398 . S
C2068 C2069 1.391 . S
C2069 H2057 0.950 . S
C2069 C2065 1.393 . S
C2069 C2068 1.391 . S
C2070 H2060 0.950 . S
C2070 C2071 1.386 . S
C2070 C2072 1.391 . S
C2071 C2070 1.386 . S
C2071 C2075 1.393 . S
C2072 H2061 0.950 . S
C2072 C2070 1.391 . S
C2072 C2073 1.400 . S
C2073 C2067 1.491 . S
C2073 C2072 1.400 . S
C2073 C2074 1.398 . S
C2074 H2062 0.950 . S
C2074 C2073 1.398 . S
C2074 C2075 1.391 . S
C2075 H2063 0.950 . S
C2075 C2071 1.393 . S
C2075 C2074 1.391 . S
H2076 C2084 0.950 . S
H2077 C2089 0.950 . S
H2078 C2086 0.950 . S
H2079 C2088 0.950 . S
H2080 C2090 0.950 . S
H2081 C2092 0.950 . S
H2082 C2094 0.950 . S
H2083 C2095 0.950 . S
C2084 H2076 0.950 . S
C2084 C2085 1.386 . S
C2084 C2086 1.391 . S
C2085 C2084 1.386 . S
C2085 C2089 1.393 . S
C2086 H2078 0.950 . S
C2086 C2084 1.391 . S
C2086 C2087 1.400 . S
C2087 C2086 1.400 . S
C2087 C2088 1.398 . S
C2087 C2093 1.491 . S
C2088 H2079 0.950 . S
C2088 C2087 1.398 . S
C2088 C2089 1.391 . S
C2089 H2077 0.950 . S
C2089 C2085 1.393 . S
C2089 C2088 1.391 . S
C2090 H2080 0.950 . S
C2090 C2091 1.386 . S
C2090 C2092 1.391 . S
C2091 C2090 1.386 . S
C2091 C2095 1.393 . S
C2092 H2081 0.950 . S
C2092 C2090 1.391 . S
C2092 C2093 1.400 . S
C2093 C2087 1.491 . S
C2093 C2092 1.400 . S
C2093 C2094 1.398 . S
C2094 H2082 0.950 . S
C2094 C2093 1.398 . S
C2094 C2095 1.391 . S
C2095 H2083 0.950 . S
C2095 C2091 1.393 . S
C2095 C2094 1.391 . S
H2096 C2104 0.950 . S
H2097 C2109 0.950 . S
H2098 C2106 0.950 . S
H2099 C2108 0.950 . S
H2100 C2110 0.950 . S
H2101 C2112 0.950 . S
H2102 C2114 0.950 . S
H2103 C2115 0.950 . S
C2104 H2096 0.950 . S
C2104 C2105 1.386 . S
C2104 C2106 1.391 . S
C2105 C2104 1.386 . S
C2105 C2109 1.393 . S
C2106 H2098 0.950 . S
C2106 C2104 1.391 . S
C2106 C2107 1.400 . S
C2107 C2106 1.400 . S
C2107 C2108 1.398 . S
C2107 C2113 1.491 . S
C2108 H2099 0.950 . S
C2108 C2107 1.398 . S
C2108 C2109 1.391 . S
C2109 H2097 0.950 . S
C2109 C2105 1.393 . S
C2109 C2108 1.391 . S
C2110 H2100 0.950 . S
C2110 C2111 1.386 . S
C2110 C2112 1.391 . S
C2111 C2110 1.386 . S
C2111 C2115 1.393 . S
C2112 H2101 0.950 . S
C2112 C2110 1.391 . S
C2112 C2113 1.400 . S
C2113 C2107 1.491 . S
C2113 C2112 1.400 . S
C2113 C2114 1.398 . S
C2114 H2102 0.950 . S
C2114 C2113 1.398 . S
C2114 C2115 1.391 . S
C2115 H2103 0.950 . S
C2115 C2111 1.393 . S
C2115 C2114 1.391 . S
H2116 C2124 0.950 . S
H2117 C2129 0.950 . S
H2118 C2126 0.950 . S
H2119 C2128 0.950 . S
H2120 C2130 0.950 . S
H2121 C2132 0.950 . S
H2122 C2134 0.950 . S
H2123 C2135 0.950 . S
C2124 H2116 0.950 . S
C2124 C2125 1.386 . S
C2124 C2126 1.391 . S
C2125 C2124 1.386 . S
C2125 C2129 1.393 . S
C2126 H2118 0.950 . S
C2126 C2124 1.391 . S
C2126 C2127 1.400 . S
C2127 C2126 1.400 . S
C2127 C2128 1.398 . S
C2127 C2133 1.491 . S
C2128 H2119 0.950 . S
C2128 C2127 1.398 . S
C2128 C2129 1.391 . S
C2129 H2117 0.950 . S
C2129 C2125 1.393 . S
C2129 C2128 1.391 . S
C2130 H2120 0.950 . S
C2130 C2131 1.386 . S
C2130 C2132 1.391 . S
C2131 C2130 1.386 . S
C2131 C2135 1.393 . S
C2132 H2121 0.950 . S
C2132 C2130 1.391 . S
C2132 C2133 1.400 . S
C2133 C2127 1.491 . S
C2133 C2132 1.400 . S
C2133 C2134 1.398 . S
C2134 H2122 0.950 . S
C2134 C2133 1.398 . S
C2134 C2135 1.391 . S
C2135 H2123 0.950 . S
C2135 C2131 1.393 . S
C2135 C2134 1.391 . S
H2136 C2144 0.950 . S
H2137 C2149 0.950 . S
H2138 C2146 0.950 . S
H2139 C2148 0.950 . S
H2140 C2150 0.950 . S
H2141 C2152 0.950 . S
H2142 C2154 0.950 . S
H2143 C2155 0.950 . S
C2144 H2136 0.950 . S
C2144 C2145 1.386 . S
C2144 C2146 1.391 . S
C2145 C2144 1.386 . S
C2145 C2149 1.393 . S
C2146 H2138 0.950 . S
C2146 C2144 1.391 . S
C2146 C2147 1.400 . S
C2147 C2146 1.400 . S
C2147 C2148 1.398 . S
C2147 C2153 1.491 . S
C2148 H2139 0.950 . S
C2148 C2147 1.398 . S
C2148 C2149 1.391 . S
C2149 H2137 0.950 . S
C2149 C2145 1.393 . S
C2149 C2148 1.391 . S
C2150 H2140 0.950 . S
C2150 C2151 1.386 . S
C2150 C2152 1.391 . S
C2151 C2150 1.386 . S
C2151 C2155 1.393 . S
C2152 H2141 0.950 . S
C2152 C2150 1.391 . S
C2152 C2153 1.400 . S
C2153 C2147 1.491 . S
C2153 C2152 1.400 . S
C2153 C2154 1.398 . S
C2154 H2142 0.950 . S
C2154 C2153 1.398 . S
C2154 C2155 1.391 . S
C2155 H2143 0.950 . S
C2155 C2151 1.393 . S
C2155 C2154 1.391 . S
H2156 C2164 0.950 . S
H2157 C2169 0.950 . S
H2158 C2166 0.950 . S
H2159 C2168 0.950 . S
H2160 C2170 0.950 . S
H2161 C2172 0.950 . S
H2162 C2174 0.950 . S
H2163 C2175 0.950 . S
C2164 H2156 0.950 . S
C2164 C2165 1.386 . S
C2164 C2166 1.391 . S
C2165 C2164 1.386 . S
C2165 C2169 1.393 . S
C2166 H2158 0.950 . S
C2166 C2164 1.391 . S
C2166 C2167 1.400 . S
C2167 C2166 1.400 . S
C2167 C2168 1.398 . S
C2167 C2173 1.491 . S
C2168 H2159 0.950 . S
C2168 C2167 1.398 . S
C2168 C2169 1.391 . S
C2169 H2157 0.950 . S
C2169 C2165 1.393 . S
C2169 C2168 1.391 . S
C2170 H2160 0.950 . S
C2170 C2171 1.386 . S
C2170 C2172 1.391 . S
C2171 C2170 1.386 . S
C2171 C2175 1.393 . S
C2172 H2161 0.950 . S
C2172 C2170 1.391 . S
C2172 C2173 1.400 . S
C2173 C2167 1.491 . S
C2173 C2172 1.400 . S
C2173 C2174 1.398 . S
C2174 H2162 0.950 . S
C2174 C2173 1.398 . S
C2174 C2175 1.391 . S
C2175 H2163 0.950 . S
C2175 C2171 1.393 . S
C2175 C2174 1.391 . S
H2176 C2184 0.950 . S
H2177 C2189 0.950 . S
H2178 C2186 0.950 . S
H2179 C2188 0.950 . S
H2180 C2190 0.950 . S
H2181 C2192 0.950 . S
H2182 C2194 0.950 . S
H2183 C2195 0.950 . S
C2184 H2176 0.950 . S
C2184 C2185 1.386 . S
C2184 C2186 1.391 . S
C2185 C2184 1.386 . S
C2185 C2189 1.393 . S
C2186 H2178 0.950 . S
C2186 C2184 1.391 . S
C2186 C2187 1.400 . S
C2187 C2186 1.400 . S
C2187 C2188 1.398 . S
C2187 C2193 1.491 . S
C2188 H2179 0.950 . S
C2188 C2187 1.398 . S
C2188 C2189 1.391 . S
C2189 H2177 0.950 . S
C2189 C2185 1.393 . S
C2189 C2188 1.391 . S
C2190 H2180 0.950 . S
C2190 C2191 1.386 . S
C2190 C2192 1.391 . S
C2191 C2190 1.386 . S
C2191 C2195 1.393 . S
C2192 H2181 0.950 . S
C2192 C2190 1.391 . S
C2192 C2193 1.400 . S
C2193 C2187 1.491 . S
C2193 C2192 1.400 . S
C2193 C2194 1.398 . S
C2194 H2182 0.950 . S
C2194 C2193 1.398 . S
C2194 C2195 1.391 . S
C2195 H2183 0.950 . S
C2195 C2191 1.393 . S
C2195 C2194 1.391 . S
H2196 C2204 0.950 . S
H2197 C2209 0.950 . S
H2198 C2206 0.950 . S
H2199 C2208 0.950 . S
H2200 C2210 0.950 . S
H2201 C2212 0.950 . S
H2202 C2214 0.950 . S
H2203 C2215 0.950 . S
C2204 H2196 0.950 . S
C2204 C2205 1.386 . S
C2204 C2206 1.391 . S
C2205 C2204 1.386 . S
C2205 C2209 1.393 . S
C2206 H2198 0.950 . S
C2206 C2204 1.391 . S
C2206 C2207 1.400 . S
C2207 C2206 1.400 . S
C2207 C2208 1.398 . S
C2207 C2213 1.491 . S
C2208 H2199 0.950 . S
C2208 C2207 1.398 . S
C2208 C2209 1.391 . S
C2209 H2197 0.950 . S
C2209 C2205 1.393 . S
C2209 C2208 1.391 . S
C2210 H2200 0.950 . S
C2210 C2211 1.386 . S
C2210 C2212 1.391 . S
C2211 C2210 1.386 . S
C2211 C2215 1.393 . S
C2212 H2201 0.950 . S
C2212 C2210 1.391 . S
C2212 C2213 1.400 . S
C2213 C2207 1.491 . S
C2213 C2212 1.400 . S
C2213 C2214 1.398 . S
C2214 H2202 0.950 . S
C2214 C2213 1.398 . S
C2214 C2215 1.391 . S
C2215 H2203 0.950 . S
C2215 C2211 1.393 . S
C2215 C2214 1.391 . S
H2216 C2224 0.950 . S
H2217 C2229 0.950 . S
H2218 C2226 0.950 . S
H2219 C2228 0.950 . S
H2220 C2230 0.950 . S
H2221 C2232 0.950 . S
H2222 C2234 0.950 . S
H2223 C2235 0.950 . S
C2224 H2216 0.950 . S
C2224 C2225 1.386 . S
C2224 C2226 1.391 . S
C2225 C2224 1.386 . S
C2225 C2229 1.393 . S
C2226 H2218 0.950 . S
C2226 C2224 1.391 . S
C2226 C2227 1.400 . S
C2227 C2226 1.400 . S
C2227 C2228 1.398 . S
C2227 C2233 1.491 . S
C2228 H2219 0.950 . S
C2228 C2227 1.398 . S
C2228 C2229 1.391 . S
C2229 H2217 0.950 . S
C2229 C2225 1.393 . S
C2229 C2228 1.391 . S
C2230 H2220 0.950 . S
C2230 C2231 1.386 . S
C2230 C2232 1.391 . S
C2231 C2230 1.386 . S
C2231 C2235 1.393 . S
C2232 H2221 0.950 . S
C2232 C2230 1.391 . S
C2232 C2233 1.400 . S
C2233 C2227 1.491 . S
C2233 C2232 1.400 . S
C2233 C2234 1.398 . S
C2234 H2222 0.950 . S
C2234 C2233 1.398 . S
C2234 C2235 1.391 . S
C2235 H2223 0.950 . S
C2235 C2231 1.393 . S
C2235 C2234 1.391 . S
H2236 C2244 0.950 . S
H2237 C2249 0.950 . S
H2238 C2246 0.950 . S
H2239 C2248 0.950 . S
H2240 C2250 0.950 . S
H2241 C2252 0.950 . S
H2242 C2254 0.950 . S
H2243 C2255 0.950 . S
C2244 H2236 0.950 . S
C2244 C2245 1.386 . S
C2244 C2246 1.391 . S
C2245 C2244 1.386 . S
C2245 C2249 1.393 . S
C2246 H2238 0.950 . S
C2246 C2244 1.391 . S
C2246 C2247 1.400 . S
C2247 C2246 1.400 . S
C2247 C2248 1.398 . S
C2247 C2253 1.491 . S
C2248 H2239 0.950 . S
C2248 C2247 1.398 . S
C2248 C2249 1.391 . S
C2249 H2237 0.950 . S
C2249 C2245 1.393 . S
C2249 C2248 1.391 . S
C2250 H2240 0.950 . S
C2250 C2251 1.386 . S
C2250 C2252 1.391 . S
C2251 C2250 1.386 . S
C2251 C2255 1.393 . S
C2252 H2241 0.950 . S
C2252 C2250 1.391 . S
C2252 C2253 1.400 . S
C2253 C2247 1.491 . S
C2253 C2252 1.400 . S
C2253 C2254 1.398 . S
C2254 H2242 0.950 . S
C2254 C2253 1.398 . S
C2254 C2255 1.391 . S
C2255 H2243 0.950 . S
C2255 C2251 1.393 . S
C2255 C2254 1.391 . S
H2256 C2264 0.950 . S
H2257 C2269 0.950 . S
H2258 C2266 0.950 . S
H2259 C2268 0.950 . S
H2260 C2270 0.950 . S
H2261 C2272 0.950 . S
H2262 C2274 0.950 . S
H2263 C2275 0.950 . S
C2264 H2256 0.950 . S
C2264 C2265 1.386 . S
C2264 C2266 1.391 . S
C2265 C2264 1.386 . S
C2265 C2269 1.393 . S
C2266 H2258 0.950 . S
C2266 C2264 1.391 . S
C2266 C2267 1.400 . S
C2267 C2266 1.400 . S
C2267 C2268 1.398 . S
C2267 C2273 1.491 . S
C2268 H2259 0.950 . S
C2268 C2267 1.398 . S
C2268 C2269 1.391 . S
C2269 H2257 0.950 . S
C2269 C2265 1.393 . S
C2269 C2268 1.391 . S
C2270 H2260 0.950 . S
C2270 C2271 1.386 . S
C2270 C2272 1.391 . S
C2271 C2270 1.386 . S
C2271 C2275 1.393 . S
C2272 H2261 0.950 . S
C2272 C2270 1.391 . S
C2272 C2273 1.400 . S
C2273 C2267 1.491 . S
C2273 C2272 1.400 . S
C2273 C2274 1.398 . S
C2274 H2262 0.950 . S
C2274 C2273 1.398 . S
C2274 C2275 1.391 . S
C2275 H2263 0.950 . S
C2275 C2271 1.393 . S
C2275 C2274 1.391 . S
H2276 C2284 0.950 . S
H2277 C2289 0.950 . S
H2278 C2286 0.950 . S
H2279 C2288 0.950 . S
H2280 C2290 0.950 . S
H2281 C2292 0.950 . S
H2282 C2294 0.950 . S
H2283 C2295 0.950 . S
C2284 H2276 0.950 . S
C2284 C2285 1.386 . S
C2284 C2286 1.391 . S
C2285 C2284 1.386 . S
C2285 C2289 1.393 . S
C2286 H2278 0.950 . S
C2286 C2284 1.391 . S
C2286 C2287 1.400 . S
C2287 C2286 1.400 . S
C2287 C2288 1.398 . S
C2287 C2293 1.491 . S
C2288 H2279 0.950 . S
C2288 C2287 1.398 . S
C2288 C2289 1.391 . S
C2289 H2277 0.950 . S
C2289 C2285 1.393 . S
C2289 C2288 1.391 . S
C2290 H2280 0.950 . S
C2290 C2291 1.386 . S
C2290 C2292 1.391 . S
C2291 C2290 1.386 . S
C2291 C2295 1.393 . S
C2292 H2281 0.950 . S
C2292 C2290 1.391 . S
C2292 C2293 1.400 . S
C2293 C2287 1.491 . S
C2293 C2292 1.400 . S
C2293 C2294 1.398 . S
C2294 H2282 0.950 . S
C2294 C2293 1.398 . S
C2294 C2295 1.391 . S
C2295 H2283 0.950 . S
C2295 C2291 1.393 . S
C2295 C2294 1.391 . S
H2296 C2304 0.950 . S
H2297 C2309 0.950 . S
H2298 C2306 0.950 . S
H2299 C2308 0.950 . S
H2300 C2310 0.950 . S
H2301 C2312 0.950 . S
H2302 C2314 0.950 . S
H2303 C2315 0.950 . S
C2304 H2296 0.950 . S
C2304 C2305 1.386 . S
C2304 C2306 1.391 . S
C2305 C2304 1.386 . S
C2305 C2309 1.393 . S
C2306 H2298 0.950 . S
C2306 C2304 1.391 . S
C2306 C2307 1.400 . S
C2307 C2306 1.400 . S
C2307 C2308 1.398 . S
C2307 C2313 1.491 . S
C2308 H2299 0.950 . S
C2308 C2307 1.398 . S
C2308 C2309 1.391 . S
C2309 H2297 0.950 . S
C2309 C2305 1.393 . S
C2309 C2308 1.391 . S
C2310 H2300 0.950 . S
C2310 C2311 1.386 . S
C2310 C2312 1.391 . S
C2311 C2310 1.386 . S
C2311 C2315 1.393 . S
C2312 H2301 0.950 . S
C2312 C2310 1.391 . S
C2312 C2313 1.400 . S
C2313 C2307 1.491 . S
C2313 C2312 1.400 . S
C2313 C2314 1.398 . S
C2314 H2302 0.950 . S
C2314 C2313 1.398 . S
C2314 C2315 1.391 . S
C2315 H2303 0.950 . S
C2315 C2311 1.393 . S
C2315 C2314 1.391 . S
H2316 C2324 0.950 . S
H2317 C2329 0.950 . S
H2318 C2326 0.950 . S
H2319 C2328 0.950 . S
H2320 C2330 0.950 . S
H2321 C2332 0.950 . S
H2322 C2334 0.950 . S
H2323 C2335 0.950 1_545 S
C2324 H2316 0.950 . S
C2324 C2325 1.386 . S
C2324 C2326 1.391 . S
C2325 C2324 1.386 . S
C2325 C2329 1.393 . S
C2326 H2318 0.950 . S
C2326 C2324 1.391 . S
C2326 C2327 1.400 . S
C2327 C2326 1.400 . S
C2327 C2328 1.398 . S
C2327 C2333 1.491 . S
C2328 H2319 0.950 . S
C2328 C2327 1.398 . S
C2328 C2329 1.391 . S
C2329 H2317 0.950 . S
C2329 C2325 1.393 . S
C2329 C2328 1.391 . S
C2330 H2320 0.950 . S
C2330 C2331 1.386 . S
C2330 C2332 1.391 . S
C2331 C2330 1.386 . S
C2331 C2335 1.393 . S
C2332 H2321 0.950 . S
C2332 C2330 1.391 . S
C2332 C2333 1.400 . S
C2333 C2327 1.491 . S
C2333 C2332 1.400 . S
C2333 C2334 1.398 . S
C2334 H2322 0.950 . S
C2334 C2333 1.398 . S
C2334 C2335 1.391 . S
C2335 H2323 0.950 1_565 S
C2335 C2331 1.393 . S
C2335 C2334 1.391 . S
H2336 C2344 0.950 . S
H2337 C2349 0.950 . S
H2338 C2346 0.950 . S
H2339 C2348 0.950 . S
H2340 C2350 0.950 . S
H2341 C2352 0.950 . S
H2342 C2354 0.950 . S
H2343 C2355 0.950 . S
C2344 H2336 0.950 . S
C2344 C2345 1.386 . S
C2344 C2346 1.391 . S
C2345 C2344 1.386 . S
C2345 C2349 1.393 . S
C2346 H2338 0.950 . S
C2346 C2344 1.391 . S
C2346 C2347 1.400 . S
C2347 C2346 1.400 . S
C2347 C2348 1.398 . S
C2347 C2353 1.491 . S
C2348 H2339 0.950 . S
C2348 C2347 1.398 . S
C2348 C2349 1.391 . S
C2349 H2337 0.950 . S
C2349 C2345 1.393 . S
C2349 C2348 1.391 . S
C2350 H2340 0.950 . S
C2350 C2351 1.386 . S
C2350 C2352 1.391 . S
C2351 C2350 1.386 . S
C2351 C2355 1.393 . S
C2352 H2341 0.950 . S
C2352 C2350 1.391 . S
C2352 C2353 1.400 . S
C2353 C2347 1.491 . S
C2353 C2352 1.400 . S
C2353 C2354 1.398 . S
C2354 H2342 0.950 . S
C2354 C2353 1.398 . S
C2354 C2355 1.391 . S
C2355 H2343 0.950 . S
C2355 C2351 1.393 . S
C2355 C2354 1.391 . S
H2356 C2364 0.950 . S
H2357 C2369 0.950 . S
H2358 C2366 0.950 . S
H2359 C2368 0.950 . S
H2360 C2370 0.950 . S
H2361 C2372 0.950 . S
H2362 C2374 0.950 . S
H2363 C2375 0.950 . S
C2364 H2356 0.950 . S
C2364 C2365 1.386 . S
C2364 C2366 1.391 . S
C2365 C2364 1.386 . S
C2365 C2369 1.393 . S
C2366 H2358 0.950 . S
C2366 C2364 1.391 . S
C2366 C2367 1.400 . S
C2367 C2366 1.400 . S
C2367 C2368 1.398 . S
C2367 C2373 1.491 . S
C2368 H2359 0.950 . S
C2368 C2367 1.398 . S
C2368 C2369 1.391 . S
C2369 H2357 0.950 . S
C2369 C2365 1.393 . S
C2369 C2368 1.391 . S
C2370 H2360 0.950 . S
C2370 C2371 1.386 . S
C2370 C2372 1.391 . S
C2371 C2370 1.386 . S
C2371 C2375 1.393 . S
C2372 H2361 0.950 . S
C2372 C2370 1.391 . S
C2372 C2373 1.400 . S
C2373 C2367 1.491 . S
C2373 C2372 1.400 . S
C2373 C2374 1.398 . S
C2374 H2362 0.950 . S
C2374 C2373 1.398 . S
C2374 C2375 1.391 . S
C2375 H2363 0.950 . S
C2375 C2371 1.393 . S
C2375 C2374 1.391 . S
H2376 C2384 0.950 . S
H2377 C2389 0.950 . S
H2378 C2386 0.950 . S
H2379 C2388 0.950 . S
H2380 C2390 0.950 . S
H2381 C2392 0.950 . S
H2382 C2394 0.950 . S
H2383 C2395 0.950 . S
C2384 H2376 0.950 . S
C2384 C2385 1.386 . S
C2384 C2386 1.391 . S
C2385 C2384 1.386 . S
C2385 C2389 1.393 . S
C2386 H2378 0.950 . S
C2386 C2384 1.391 . S
C2386 C2387 1.400 . S
C2387 C2386 1.400 . S
C2387 C2388 1.398 . S
C2387 C2393 1.491 . S
C2388 H2379 0.950 . S
C2388 C2387 1.398 . S
C2388 C2389 1.391 . S
C2389 H2377 0.950 . S
C2389 C2385 1.393 . S
C2389 C2388 1.391 . S
C2390 H2380 0.950 . S
C2390 C2391 1.386 . S
C2390 C2392 1.391 . S
C2391 C2390 1.386 . S
C2391 C2395 1.393 . S
C2392 H2381 0.950 . S
C2392 C2390 1.391 . S
C2392 C2393 1.400 . S
C2393 C2387 1.491 . S
C2393 C2392 1.400 . S
C2393 C2394 1.398 . S
C2394 H2382 0.950 . S
C2394 C2393 1.398 . S
C2394 C2395 1.391 . S
C2395 H2383 0.950 . S
C2395 C2391 1.393 . S
C2395 C2394 1.391 . S
H2396 C2404 0.950 . S
H2397 C2409 0.950 . S
H2398 C2406 0.950 . S
H2399 C2408 0.950 . S
H2400 C2410 0.950 . S
H2401 C2412 0.950 . S
H2402 C2414 0.950 . S
H2403 C2415 0.950 . S
C2404 H2396 0.950 . S
C2404 C2405 1.386 . S
C2404 C2406 1.391 . S
C2405 C2404 1.386 . S
C2405 C2409 1.393 . S
C2406 H2398 0.950 . S
C2406 C2404 1.391 . S
C2406 C2407 1.400 . S
C2407 C2406 1.400 . S
C2407 C2408 1.398 . S
C2407 C2413 1.491 . S
C2408 H2399 0.950 . S
C2408 C2407 1.398 . S
C2408 C2409 1.391 . S
C2409 H2397 0.950 . S
C2409 C2405 1.393 . S
C2409 C2408 1.391 . S
C2410 H2400 0.950 . S
C2410 C2411 1.386 . S
C2410 C2412 1.391 . S
C2411 C2410 1.386 . S
C2411 C2415 1.393 . S
C2412 H2401 0.950 . S
C2412 C2410 1.391 . S
C2412 C2413 1.400 . S
C2413 C2407 1.491 . S
C2413 C2412 1.400 . S
C2413 C2414 1.398 . S
C2414 H2402 0.950 . S
C2414 C2413 1.398 . S
C2414 C2415 1.391 . S
C2415 H2403 0.950 . S
C2415 C2411 1.393 . S
C2415 C2414 1.391 . S
H2416 C2424 0.950 . S
H2417 C2429 0.950 . S
H2418 C2426 0.950 . S
H2419 C2428 0.950 . S
H2420 C2430 0.950 . S
H2421 C2432 0.950 . S
H2422 C2434 0.950 . S
H2423 C2435 0.950 . S
C2424 H2416 0.950 . S
C2424 C2425 1.386 . S
C2424 C2426 1.391 . S
C2425 C2424 1.386 . S
C2425 C2429 1.393 . S
C2426 H2418 0.950 . S
C2426 C2424 1.391 . S
C2426 C2427 1.400 . S
C2427 C2426 1.400 . S
C2427 C2428 1.398 . S
C2427 C2433 1.491 . S
C2428 H2419 0.950 . S
C2428 C2427 1.398 . S
C2428 C2429 1.391 . S
C2429 H2417 0.950 . S
C2429 C2425 1.393 . S
C2429 C2428 1.391 . S
C2430 H2420 0.950 . S
C2430 C2431 1.386 . S
C2430 C2432 1.391 . S
C2431 C2430 1.386 . S
C2431 C2435 1.393 . S
C2432 H2421 0.950 . S
C2432 C2430 1.391 . S
C2432 C2433 1.400 . S
C2433 C2427 1.491 . S
C2433 C2432 1.400 . S
C2433 C2434 1.398 . S
C2434 H2422 0.950 . S
C2434 C2433 1.398 . S
C2434 C2435 1.391 . S
C2435 H2423 0.950 . S
C2435 C2431 1.393 . S
C2435 C2434 1.391 . S
H2436 C2444 0.950 . S
H2437 C2449 0.950 . S
H2438 C2446 0.950 . S
H2439 C2448 0.950 . S
H2440 C2450 0.950 . S
H2441 C2452 0.950 . S
H2442 C2454 0.950 . S
H2443 C2455 0.950 . S
C2444 H2436 0.950 . S
C2444 C2445 1.386 . S
C2444 C2446 1.391 . S
C2445 C2444 1.386 . S
C2445 C2449 1.393 . S
C2446 H2438 0.950 . S
C2446 C2444 1.391 . S
C2446 C2447 1.400 . S
C2447 C2446 1.400 . S
C2447 C2448 1.398 . S
C2447 C2453 1.491 . S
C2448 H2439 0.950 . S
C2448 C2447 1.398 . S
C2448 C2449 1.391 . S
C2449 H2437 0.950 . S
C2449 C2445 1.393 . S
C2449 C2448 1.391 . S
C2450 H2440 0.950 . S
C2450 C2451 1.386 . S
C2450 C2452 1.391 . S
C2451 C2450 1.386 . S
C2451 C2455 1.393 . S
C2452 H2441 0.950 . S
C2452 C2450 1.391 . S
C2452 C2453 1.400 . S
C2453 C2447 1.491 . S
C2453 C2452 1.400 . S
C2453 C2454 1.398 . S
C2454 H2442 0.950 . S
C2454 C2453 1.398 . S
C2454 C2455 1.391 . S
C2455 H2443 0.950 . S
C2455 C2451 1.393 . S
C2455 C2454 1.391 . S
H2456 C2464 0.950 . S
H2457 C2469 0.950 . S
H2458 C2466 0.950 . S
H2459 C2468 0.950 . S
H2460 C2470 0.950 . S
H2461 C2472 0.950 . S
H2462 C2474 0.950 . S
H2463 C2475 0.950 . S
C2464 H2456 0.950 . S
C2464 C2465 1.386 . S
C2464 C2466 1.391 . S
C2465 C2464 1.386 . S
C2465 C2469 1.393 . S
C2466 H2458 0.950 . S
C2466 C2464 1.391 . S
C2466 C2467 1.400 . S
C2467 C2466 1.400 . S
C2467 C2468 1.398 . S
C2467 C2473 1.491 . S
C2468 H2459 0.950 . S
C2468 C2467 1.398 . S
C2468 C2469 1.391 . S
C2469 H2457 0.950 . S
C2469 C2465 1.393 . S
C2469 C2468 1.391 . S
C2470 H2460 0.950 . S
C2470 C2471 1.386 . S
C2470 C2472 1.391 . S
C2471 C2470 1.386 . S
C2471 C2475 1.393 . S
C2472 H2461 0.950 . S
C2472 C2470 1.391 . S
C2472 C2473 1.400 . S
C2473 C2467 1.491 . S
C2473 C2472 1.400 . S
C2473 C2474 1.398 . S
C2474 H2462 0.950 . S
C2474 C2473 1.398 . S
C2474 C2475 1.391 . S
C2475 H2463 0.950 . S
C2475 C2471 1.393 . S
C2475 C2474 1.391 . S
H2476 C2484 0.950 . S
H2477 C2489 0.950 . S
H2478 C2486 0.950 . S
H2479 C2488 0.950 . S
H2480 C2490 0.950 . S
H2481 C2492 0.950 . S
H2482 C2494 0.950 . S
H2483 C2495 0.950 . S
C2484 H2476 0.950 . S
C2484 C2485 1.386 . S
C2484 C2486 1.391 . S
C2485 C2484 1.386 . S
C2485 C2489 1.393 . S
C2486 H2478 0.950 . S
C2486 C2484 1.391 . S
C2486 C2487 1.400 . S
C2487 C2486 1.400 . S
C2487 C2488 1.398 . S
C2487 C2493 1.491 . S
C2488 H2479 0.950 . S
C2488 C2487 1.398 . S
C2488 C2489 1.391 . S
C2489 H2477 0.950 . S
C2489 C2485 1.393 . S
C2489 C2488 1.391 . S
C2490 H2480 0.950 . S
C2490 C2491 1.386 . S
C2490 C2492 1.391 . S
C2491 C2490 1.386 . S
C2491 C2495 1.393 . S
C2492 H2481 0.950 . S
C2492 C2490 1.391 . S
C2492 C2493 1.400 . S
C2493 C2487 1.491 . S
C2493 C2492 1.400 . S
C2493 C2494 1.398 . S
C2494 H2482 0.950 . S
C2494 C2493 1.398 . S
C2494 C2495 1.391 . S
C2495 H2483 0.950 . S
C2495 C2491 1.393 . S
C2495 C2494 1.391 . S
H2496 C2504 0.950 . S
H2497 C2509 0.950 . S
H2498 C2506 0.950 . S
H2499 C2508 0.950 . S
H2500 C2510 0.950 . S
H2501 C2512 0.950 . S
H2502 C2514 0.950 . S
H2503 C2515 0.950 . S
C2504 H2496 0.950 . S
C2504 C2505 1.386 . S
C2504 C2506 1.391 . S
C2505 C2504 1.386 . S
C2505 C2509 1.393 . S
C2506 H2498 0.950 . S
C2506 C2504 1.391 . S
C2506 C2507 1.400 . S
C2507 C2506 1.400 . S
C2507 C2508 1.398 . S
C2507 C2513 1.491 . S
C2508 H2499 0.950 . S
C2508 C2507 1.398 . S
C2508 C2509 1.391 . S
C2509 H2497 0.950 . S
C2509 C2505 1.393 . S
C2509 C2508 1.391 . S
C2510 H2500 0.950 . S
C2510 C2511 1.386 . S
C2510 C2512 1.391 . S
C2511 C2510 1.386 . S
C2511 C2515 1.393 . S
C2512 H2501 0.950 . S
C2512 C2510 1.391 . S
C2512 C2513 1.400 . S
C2513 C2507 1.491 . S
C2513 C2512 1.400 . S
C2513 C2514 1.398 . S
C2514 H2502 0.950 . S
C2514 C2513 1.398 . S
C2514 C2515 1.391 . S
C2515 H2503 0.950 . S
C2515 C2511 1.393 . S
C2515 C2514 1.391 . S
H2516 C2524 0.950 . S
H2517 C2529 0.950 . S
H2518 C2526 0.950 . S
H2519 C2528 0.950 . S
H2520 C2530 0.950 . S
H2521 C2532 0.950 . S
H2522 C2534 0.950 . S
H2523 C2535 0.950 . S
C2524 H2516 0.950 . S
C2524 C2525 1.386 . S
C2524 C2526 1.391 . S
C2525 C2524 1.386 . S
C2525 C2529 1.393 . S
C2526 H2518 0.950 . S
C2526 C2524 1.391 . S
C2526 C2527 1.400 . S
C2527 C2526 1.400 . S
C2527 C2528 1.398 . S
C2527 C2533 1.491 . S
C2528 H2519 0.950 . S
C2528 C2527 1.398 . S
C2528 C2529 1.391 . S
C2529 H2517 0.950 . S
C2529 C2525 1.393 . S
C2529 C2528 1.391 . S
C2530 H2520 0.950 . S
C2530 C2531 1.386 . S
C2530 C2532 1.391 . S
C2531 C2530 1.386 . S
C2531 C2535 1.393 . S
C2532 H2521 0.950 . S
C2532 C2530 1.391 . S
C2532 C2533 1.400 . S
C2533 C2527 1.491 . S
C2533 C2532 1.400 . S
C2533 C2534 1.398 . S
C2534 H2522 0.950 . S
C2534 C2533 1.398 . S
C2534 C2535 1.391 . S
C2535 H2523 0.950 . S
C2535 C2531 1.393 . S
C2535 C2534 1.391 . S
H2536 C2544 0.950 . S
H2537 C2549 0.950 . S
H2538 C2546 0.950 . S
H2539 C2548 0.950 . S
H2540 C2550 0.950 . S
H2541 C2552 0.950 . S
H2542 C2554 0.950 . S
H2543 C2555 0.950 . S
C2544 H2536 0.950 . S
C2544 C2545 1.386 . S
C2544 C2546 1.391 . S
C2545 C2544 1.386 . S
C2545 C2549 1.393 . S
C2546 H2538 0.950 . S
C2546 C2544 1.391 . S
C2546 C2547 1.400 . S
C2547 C2546 1.400 . S
C2547 C2548 1.398 . S
C2547 C2553 1.491 . S
C2548 H2539 0.950 . S
C2548 C2547 1.398 . S
C2548 C2549 1.391 . S
C2549 H2537 0.950 . S
C2549 C2545 1.393 . S
C2549 C2548 1.391 . S
C2550 H2540 0.950 . S
C2550 C2551 1.386 . S
C2550 C2552 1.391 . S
C2551 C2550 1.386 . S
C2551 C2555 1.393 . S
C2552 H2541 0.950 . S
C2552 C2550 1.391 . S
C2552 C2553 1.400 . S
C2553 C2547 1.491 . S
C2553 C2552 1.400 . S
C2553 C2554 1.398 . S
C2554 H2542 0.950 . S
C2554 C2553 1.398 . S
C2554 C2555 1.391 . S
C2555 H2543 0.950 . S
C2555 C2551 1.393 . S
C2555 C2554 1.391 . S
H2556 C2564 0.950 . S
H2557 C2569 0.950 . S
H2558 C2566 0.950 . S
H2559 C2568 0.950 . S
H2560 C2570 0.950 . S
H2561 C2572 0.950 . S
H2562 C2574 0.950 . S
H2563 C2575 0.950 . S
C2564 H2556 0.950 . S
C2564 C2565 1.386 . S
C2564 C2566 1.391 . S
C2565 C2564 1.386 . S
C2565 C2569 1.393 . S
C2566 H2558 0.950 . S
C2566 C2564 1.391 . S
C2566 C2567 1.400 . S
C2567 C2566 1.400 . S
C2567 C2568 1.398 . S
C2567 C2573 1.491 . S
C2568 H2559 0.950 . S
C2568 C2567 1.398 . S
C2568 C2569 1.391 . S
C2569 H2557 0.950 . S
C2569 C2565 1.393 . S
C2569 C2568 1.391 . S
C2570 H2560 0.950 . S
C2570 C2571 1.386 . S
C2570 C2572 1.391 . S
C2571 C2570 1.386 . S
C2571 C2575 1.393 . S
C2572 H2561 0.950 . S
C2572 C2570 1.391 . S
C2572 C2573 1.400 . S
C2573 C2567 1.491 . S
C2573 C2572 1.400 . S
C2573 C2574 1.398 . S
C2574 H2562 0.950 . S
C2574 C2573 1.398 . S
C2574 C2575 1.391 . S
C2575 H2563 0.950 . S
C2575 C2571 1.393 . S
C2575 C2574 1.391 . S
H2576 C2584 0.950 . S
H2577 C2589 0.950 . S
H2578 C2586 0.950 . S
H2579 C2588 0.950 . S
H2580 C2590 0.950 . S
H2581 C2592 0.950 . S
H2582 C2594 0.950 . S
H2583 C2595 0.950 . S
C2584 H2576 0.950 . S
C2584 C2585 1.386 . S
C2584 C2586 1.391 . S
C2585 C2584 1.386 . S
C2585 C2589 1.393 . S
C2586 H2578 0.950 . S
C2586 C2584 1.391 . S
C2586 C2587 1.400 . S
C2587 C2586 1.400 . S
C2587 C2588 1.398 . S
C2587 C2593 1.491 . S
C2588 H2579 0.950 . S
C2588 C2587 1.398 . S
C2588 C2589 1.391 . S
C2589 H2577 0.950 . S
C2589 C2585 1.393 . S
C2589 C2588 1.391 . S
C2590 H2580 0.950 . S
C2590 C2591 1.386 . S
C2590 C2592 1.391 . S
C2591 C2590 1.386 . S
C2591 C2595 1.393 . S
C2592 H2581 0.950 . S
C2592 C2590 1.391 . S
C2592 C2593 1.400 . S
C2593 C2587 1.491 . S
C2593 C2592 1.400 . S
C2593 C2594 1.398 . S
C2594 H2582 0.950 . S
C2594 C2593 1.398 . S
C2594 C2595 1.391 . S
C2595 H2583 0.950 . S
C2595 C2591 1.393 . S
C2595 C2594 1.391 . S
H2596 C2604 0.950 . S
H2597 C2609 0.950 . S
H2598 C2606 0.950 . S
H2599 C2608 0.950 . S
H2600 C2610 0.950 . S
H2601 C2612 0.950 . S
H2602 C2614 0.950 . S
H2603 C2615 0.950 . S
C2604 H2596 0.950 . S
C2604 C2605 1.386 . S
C2604 C2606 1.391 . S
C2605 C2604 1.386 . S
C2605 C2609 1.393 . S
C2606 H2598 0.950 . S
C2606 C2604 1.391 . S
C2606 C2607 1.400 . S
C2607 C2606 1.400 . S
C2607 C2608 1.398 . S
C2607 C2613 1.491 . S
C2608 H2599 0.950 . S
C2608 C2607 1.398 . S
C2608 C2609 1.391 . S
C2609 H2597 0.950 . S
C2609 C2605 1.393 . S
C2609 C2608 1.391 . S
C2610 H2600 0.950 . S
C2610 C2611 1.386 . S
C2610 C2612 1.391 . S
C2611 C2610 1.386 . S
C2611 C2615 1.393 . S
C2612 H2601 0.950 . S
C2612 C2610 1.391 . S
C2612 C2613 1.400 . S
C2613 C2607 1.491 . S
C2613 C2612 1.400 . S
C2613 C2614 1.398 . S
C2614 H2602 0.950 . S
C2614 C2613 1.398 . S
C2614 C2615 1.391 . S
C2615 H2603 0.950 . S
C2615 C2611 1.393 . S
C2615 C2614 1.391 . S
H2616 C2624 0.950 . S
H2617 C2629 0.950 . S
H2618 C2626 0.950 . S
H2619 C2628 0.950 . S
H2620 C2630 0.950 . S
H2621 C2632 0.950 . S
H2622 C2634 0.950 . S
H2623 C2635 0.950 . S
C2624 H2616 0.950 . S
C2624 C2625 1.386 . S
C2624 C2626 1.391 . S
C2625 C2624 1.386 . S
C2625 C2629 1.393 . S
C2626 H2618 0.950 . S
C2626 C2624 1.391 . S
C2626 C2627 1.400 . S
C2627 C2626 1.400 . S
C2627 C2628 1.398 . S
C2627 C2633 1.491 . S
C2628 H2619 0.950 . S
C2628 C2627 1.398 . S
C2628 C2629 1.391 . S
C2629 H2617 0.950 . S
C2629 C2625 1.393 . S
C2629 C2628 1.391 . S
C2630 H2620 0.950 . S
C2630 C2631 1.386 . S
C2630 C2632 1.391 . S
C2631 C2630 1.386 . S
C2631 C2635 1.393 . S
C2632 H2621 0.950 . S
C2632 C2630 1.391 . S
C2632 C2633 1.400 . S
C2633 C2627 1.491 . S
C2633 C2632 1.400 . S
C2633 C2634 1.398 . S
C2634 H2622 0.950 . S
C2634 C2633 1.398 . S
C2634 C2635 1.391 . S
C2635 H2623 0.950 . S
C2635 C2631 1.393 . S
C2635 C2634 1.391 . S
H2636 C2644 0.950 . S
H2637 C2649 0.950 . S
H2638 C2646 0.950 . S
H2639 C2648 0.950 . S
H2640 C2650 0.950 . S
H2641 C2652 0.950 . S
H2642 C2654 0.950 . S
H2643 C2655 0.950 . S
C2644 H2636 0.950 . S
C2644 C2645 1.386 . S
C2644 C2646 1.391 . S
C2645 C2644 1.386 . S
C2645 C2649 1.393 . S
C2646 H2638 0.950 . S
C2646 C2644 1.391 . S
C2646 C2647 1.400 . S
C2647 C2646 1.400 . S
C2647 C2648 1.398 . S
C2647 C2653 1.491 . S
C2648 H2639 0.950 . S
C2648 C2647 1.398 . S
C2648 C2649 1.391 . S
C2649 H2637 0.950 . S
C2649 C2645 1.393 . S
C2649 C2648 1.391 . S
C2650 H2640 0.950 . S
C2650 C2651 1.386 . S
C2650 C2652 1.391 . S
C2651 C2650 1.386 . S
C2651 C2655 1.393 . S
C2652 H2641 0.950 . S
C2652 C2650 1.391 . S
C2652 C2653 1.400 . S
C2653 C2647 1.491 . S
C2653 C2652 1.400 . S
C2653 C2654 1.398 . S
C2654 H2642 0.950 . S
C2654 C2653 1.398 . S
C2654 C2655 1.391 . S
C2655 H2643 0.950 . S
C2655 C2651 1.393 . S
C2655 C2654 1.391 . S
H2656 C2664 0.950 . S
H2657 C2669 0.950 . S
H2658 C2666 0.950 . S
H2659 C2668 0.950 . S
H2660 C2670 0.950 . S
H2661 C2672 0.950 . S
H2662 C2674 0.950 . S
H2663 C2675 0.950 . S
C2664 H2656 0.950 . S
C2664 C2665 1.386 . S
C2664 C2666 1.391 . S
C2665 C2664 1.386 . S
C2665 C2669 1.393 . S
C2666 H2658 0.950 . S
C2666 C2664 1.391 . S
C2666 C2667 1.400 . S
C2667 C2666 1.400 . S
C2667 C2668 1.398 . S
C2667 C2673 1.491 . S
C2668 H2659 0.950 . S
C2668 C2667 1.398 . S
C2668 C2669 1.391 . S
C2669 H2657 0.950 . S
C2669 C2665 1.393 . S
C2669 C2668 1.391 . S
C2670 H2660 0.950 . S
C2670 C2671 1.386 . S
C2670 C2672 1.391 . S
C2671 C2670 1.386 . S
C2671 C2675 1.393 . S
C2672 H2661 0.950 . S
C2672 C2670 1.391 . S
C2672 C2673 1.400 . S
C2673 C2667 1.491 . S
C2673 C2672 1.400 . S
C2673 C2674 1.398 . S
C2674 H2662 0.950 . S
C2674 C2673 1.398 . S
C2674 C2675 1.391 . S
C2675 H2663 0.950 . S
C2675 C2671 1.393 . S
C2675 C2674 1.391 . S
H2676 C2684 0.950 . S
H2677 C2689 0.950 . S
H2678 C2686 0.950 . S
H2679 C2688 0.950 . S
H2680 C2690 0.950 . S
H2681 C2692 0.950 . S
H2682 C2694 0.950 . S
H2683 C2695 0.950 . S
C2684 H2676 0.950 . S
C2684 C2685 1.386 . S
C2684 C2686 1.391 . S
C2685 C2684 1.386 . S
C2685 C2689 1.393 . S
C2686 H2678 0.950 . S
C2686 C2684 1.391 . S
C2686 C2687 1.400 . S
C2687 C2686 1.400 . S
C2687 C2688 1.398 . S
C2687 C2693 1.491 . S
C2688 H2679 0.950 . S
C2688 C2687 1.398 . S
C2688 C2689 1.391 . S
C2689 H2677 0.950 . S
C2689 C2685 1.393 . S
C2689 C2688 1.391 . S
C2690 H2680 0.950 . S
C2690 C2691 1.386 . S
C2690 C2692 1.391 . S
C2691 C2690 1.386 . S
C2691 C2695 1.393 . S
C2692 H2681 0.950 . S
C2692 C2690 1.391 . S
C2692 C2693 1.400 . S
C2693 C2687 1.491 . S
C2693 C2692 1.400 . S
C2693 C2694 1.398 . S
C2694 H2682 0.950 . S
C2694 C2693 1.398 . S
C2694 C2695 1.391 . S
C2695 H2683 0.950 . S
C2695 C2691 1.393 . S
C2695 C2694 1.391 . S
H2696 C2704 0.950 . S
H2697 C2709 0.950 . S
H2698 C2706 0.950 . S
H2699 C2708 0.950 . S
H2700 C2710 0.950 . S
H2701 C2712 0.950 . S
H2702 C2714 0.950 . S
H2703 C2715 0.950 . S
C2704 H2696 0.950 . S
C2704 C2705 1.386 . S
C2704 C2706 1.391 . S
C2705 C2704 1.386 . S
C2705 C2709 1.393 . S
C2706 H2698 0.950 . S
C2706 C2704 1.391 . S
C2706 C2707 1.400 . S
C2707 C2706 1.400 . S
C2707 C2708 1.398 . S
C2707 C2713 1.491 . S
C2708 H2699 0.950 . S
C2708 C2707 1.398 . S
C2708 C2709 1.391 . S
C2709 H2697 0.950 . S
C2709 C2705 1.393 . S
C2709 C2708 1.391 . S
C2710 H2700 0.950 . S
C2710 C2711 1.386 . S
C2710 C2712 1.391 . S
C2711 C2710 1.386 . S
C2711 C2715 1.393 . S
C2712 H2701 0.950 . S
C2712 C2710 1.391 . S
C2712 C2713 1.400 . S
C2713 C2707 1.491 . S
C2713 C2712 1.400 . S
C2713 C2714 1.398 . S
C2714 H2702 0.950 . S
C2714 C2713 1.398 . S
C2714 C2715 1.391 . S
C2715 H2703 0.950 . S
C2715 C2711 1.393 . S
C2715 C2714 1.391 . S
H2716 C2724 0.950 . S
H2717 C2729 0.950 . S
H2718 C2726 0.950 . S
H2719 C2728 0.950 . S
H2720 C2730 0.950 . S
H2721 C2732 0.950 . S
H2722 C2734 0.950 . S
H2723 C2735 0.950 . S
C2724 H2716 0.950 . S
C2724 C2725 1.386 . S
C2724 C2726 1.391 . S
C2725 C2724 1.386 . S
C2725 C2729 1.393 . S
C2726 H2718 0.950 . S
C2726 C2724 1.391 . S
C2726 C2727 1.400 . S
C2727 C2726 1.400 . S
C2727 C2728 1.398 . S
C2727 C2733 1.491 . S
C2728 H2719 0.950 . S
C2728 C2727 1.398 . S
C2728 C2729 1.391 . S
C2729 H2717 0.950 . S
C2729 C2725 1.393 . S
C2729 C2728 1.391 . S
C2730 H2720 0.950 . S
C2730 C2731 1.386 . S
C2730 C2732 1.391 . S
C2731 C2730 1.386 . S
C2731 C2735 1.393 . S
C2732 H2721 0.950 . S
C2732 C2730 1.391 . S
C2732 C2733 1.400 . S
C2733 C2727 1.491 . S
C2733 C2732 1.400 . S
C2733 C2734 1.398 . S
C2734 H2722 0.950 . S
C2734 C2733 1.398 . S
C2734 C2735 1.391 . S
C2735 H2723 0.950 . S
C2735 C2731 1.393 . S
C2735 C2734 1.391 . S
H2736 C2744 0.950 . S
H2737 C2749 0.950 . S
H2738 C2746 0.950 . S
H2739 C2748 0.950 . S
H2740 C2750 0.950 . S
H2741 C2752 0.950 . S
H2742 C2754 0.950 . S
H2743 C2755 0.950 . S
C2744 H2736 0.950 . S
C2744 C2745 1.386 . S
C2744 C2746 1.391 . S
C2745 C2744 1.386 . S
C2745 C2749 1.393 . S
C2746 H2738 0.950 . S
C2746 C2744 1.391 . S
C2746 C2747 1.400 . S
C2747 C2746 1.400 . S
C2747 C2748 1.398 . S
C2747 C2753 1.491 . S
C2748 H2739 0.950 . S
C2748 C2747 1.398 . S
C2748 C2749 1.391 . S
C2749 H2737 0.950 . S
C2749 C2745 1.393 . S
C2749 C2748 1.391 . S
C2750 H2740 0.950 . S
C2750 C2751 1.386 . S
C2750 C2752 1.391 . S
C2751 C2750 1.386 . S
C2751 C2755 1.393 . S
C2752 H2741 0.950 . S
C2752 C2750 1.391 . S
C2752 C2753 1.400 . S
C2753 C2747 1.491 . S
C2753 C2752 1.400 . S
C2753 C2754 1.398 . S
C2754 H2742 0.950 . S
C2754 C2753 1.398 . S
C2754 C2755 1.391 . S
C2755 H2743 0.950 . S
C2755 C2751 1.393 . S
C2755 C2754 1.391 . S
H2756 C2764 0.950 . S
H2757 C2769 0.950 . S
H2758 C2766 0.950 . S
H2759 C2768 0.950 . S
H2760 C2770 0.950 . S
H2761 C2772 0.950 . S
H2762 C2774 0.950 . S
H2763 C2775 0.950 . S
C2764 H2756 0.950 . S
C2764 C2765 1.386 . S
C2764 C2766 1.391 . S
C2765 C2764 1.386 . S
C2765 C2769 1.393 . S
C2766 H2758 0.950 . S
C2766 C2764 1.391 . S
C2766 C2767 1.400 . S
C2767 C2766 1.400 . S
C2767 C2768 1.398 . S
C2767 C2773 1.491 . S
C2768 H2759 0.950 . S
C2768 C2767 1.398 . S
C2768 C2769 1.391 . S
C2769 H2757 0.950 . S
C2769 C2765 1.393 . S
C2769 C2768 1.391 . S
C2770 H2760 0.950 . S
C2770 C2771 1.386 . S
C2770 C2772 1.391 . S
C2771 C2770 1.386 . S
C2771 C2775 1.393 . S
C2772 H2761 0.950 . S
C2772 C2770 1.391 . S
C2772 C2773 1.400 . S
C2773 C2767 1.491 . S
C2773 C2772 1.400 . S
C2773 C2774 1.398 . S
C2774 H2762 0.950 . S
C2774 C2773 1.398 . S
C2774 C2775 1.391 . S
C2775 H2763 0.950 . S
C2775 C2771 1.393 . S
C2775 C2774 1.391 . S
H2776 C2784 0.950 . S
H2777 C2789 0.950 . S
H2778 C2786 0.950 . S
H2779 C2788 0.950 . S
H2780 C2790 0.950 . S
H2781 C2792 0.950 . S
H2782 C2794 0.950 . S
H2783 C2795 0.950 . S
C2784 H2776 0.950 . S
C2784 C2785 1.386 . S
C2784 C2786 1.391 . S
C2785 C2784 1.386 . S
C2785 C2789 1.393 . S
C2786 H2778 0.950 . S
C2786 C2784 1.391 . S
C2786 C2787 1.400 . S
C2787 C2786 1.400 . S
C2787 C2788 1.398 . S
C2787 C2793 1.491 . S
C2788 H2779 0.950 . S
C2788 C2787 1.398 . S
C2788 C2789 1.391 . S
C2789 H2777 0.950 . S
C2789 C2785 1.393 . S
C2789 C2788 1.391 . S
C2790 H2780 0.950 . S
C2790 C2791 1.386 . S
C2790 C2792 1.391 . S
C2791 C2790 1.386 . S
C2791 C2795 1.393 . S
C2792 H2781 0.950 . S
C2792 C2790 1.391 . S
C2792 C2793 1.400 . S
C2793 C2787 1.491 . S
C2793 C2792 1.400 . S
C2793 C2794 1.398 . S
C2794 H2782 0.950 . S
C2794 C2793 1.398 . S
C2794 C2795 1.391 . S
C2795 H2783 0.950 . S
C2795 C2791 1.393 . S
C2795 C2794 1.391 . S
H2796 C2804 0.950 . S
H2797 C2809 0.950 . S
H2798 C2806 0.950 . S
H2799 C2808 0.950 . S
H2800 C2810 0.950 . S
H2801 C2812 0.950 . S
H2802 C2814 0.950 . S
H2803 C2815 0.950 . S
C2804 H2796 0.950 . S
C2804 C2805 1.386 . S
C2804 C2806 1.391 . S
C2805 C2804 1.386 . S
C2805 C2809 1.393 . S
C2806 H2798 0.950 . S
C2806 C2804 1.391 . S
C2806 C2807 1.400 . S
C2807 C2806 1.400 . S
C2807 C2808 1.398 . S
C2807 C2813 1.491 . S
C2808 H2799 0.950 . S
C2808 C2807 1.398 . S
C2808 C2809 1.391 . S
C2809 H2797 0.950 . S
C2809 C2805 1.393 . S
C2809 C2808 1.391 . S
C2810 H2800 0.950 . S
C2810 C2811 1.386 . S
C2810 C2812 1.391 . S
C2811 C2810 1.386 . S
C2811 C2815 1.393 . S
C2812 H2801 0.950 . S
C2812 C2810 1.391 . S
C2812 C2813 1.400 . S
C2813 C2807 1.491 . S
C2813 C2812 1.400 . S
C2813 C2814 1.398 . S
C2814 H2802 0.950 . S
C2814 C2813 1.398 . S
C2814 C2815 1.391 . S
C2815 H2803 0.950 . S
C2815 C2811 1.393 . S
C2815 C2814 1.391 . S
H2816 C2824 0.950 . S
H2817 C2829 0.950 . S
H2818 C2826 0.950 . S
H2819 C2828 0.950 . S
H2820 C2830 0.950 . S
H2821 C2832 0.950 . S
H2822 C2834 0.950 . S
H2823 C2835 0.950 . S
C2824 H2816 0.950 . S
C2824 C2825 1.386 . S
C2824 C2826 1.391 . S
C2825 C2824 1.386 . S
C2825 C2829 1.393 . S
C2826 H2818 0.950 . S
C2826 C2824 1.391 . S
C2826 C2827 1.400 . S
C2827 C2826 1.400 . S
C2827 C2828 1.398 . S
C2827 C2833 1.491 . S
C2828 H2819 0.950 . S
C2828 C2827 1.398 . S
C2828 C2829 1.391 . S
C2829 H2817 0.950 . S
C2829 C2825 1.393 . S
C2829 C2828 1.391 . S
C2830 H2820 0.950 . S
C2830 C2831 1.386 . S
C2830 C2832 1.391 . S
C2831 C2830 1.386 . S
C2831 C2835 1.393 . S
C2832 H2821 0.950 . S
C2832 C2830 1.391 . S
C2832 C2833 1.400 . S
C2833 C2827 1.491 . S
C2833 C2832 1.400 . S
C2833 C2834 1.398 . S
C2834 H2822 0.950 . S
C2834 C2833 1.398 . S
C2834 C2835 1.391 . S
C2835 H2823 0.950 . S
C2835 C2831 1.393 . S
C2835 C2834 1.391 . S
H2836 C2844 0.950 . S
H2837 C2849 0.950 . S
H2838 C2846 0.950 . S
H2839 C2848 0.950 . S
H2840 C2850 0.950 . S
H2841 C2852 0.950 . S
H2842 C2854 0.950 . S
H2843 C2855 0.950 . S
C2844 H2836 0.950 . S
C2844 C2845 1.386 . S
C2844 C2846 1.391 . S
C2845 C2844 1.386 . S
C2845 C2849 1.393 . S
C2846 H2838 0.950 . S
C2846 C2844 1.391 . S
C2846 C2847 1.400 . S
C2847 C2846 1.400 . S
C2847 C2848 1.398 . S
C2847 C2853 1.491 . S
C2848 H2839 0.950 . S
C2848 C2847 1.398 . S
C2848 C2849 1.391 . S
C2849 H2837 0.950 . S
C2849 C2845 1.393 . S
C2849 C2848 1.391 . S
C2850 H2840 0.950 . S
C2850 C2851 1.386 . S
C2850 C2852 1.391 . S
C2851 C2850 1.386 . S
C2851 C2855 1.393 . S
C2852 H2841 0.950 . S
C2852 C2850 1.391 . S
C2852 C2853 1.400 . S
C2853 C2847 1.491 . S
C2853 C2852 1.400 . S
C2853 C2854 1.398 . S
C2854 H2842 0.950 . S
C2854 C2853 1.398 . S
C2854 C2855 1.391 . S
C2855 H2843 0.950 . S
C2855 C2851 1.393 . S
C2855 C2854 1.391 . S
C951 N396 1.746 . S
C945 C9 1.787 . S
C971 C423 1.588 . S
C965 C16 1.584 . S
C985 C30 1.836 . S
C991 C437 1.849 . S
C1011 N455 0.716 . S
C1005 C40 0.730 . S
C1025 C52 1.526 . S
C1031 C460 1.539 . S
C1045 C66 1.817 . S
C1051 C400 1.821 . S
C1065 C76 0.654 . S
C1071 N419 0.657 . S
C1091 N432 1.777 . S
C1085 C90 1.807 . S
C1111 N478 1.769 . S
C1105 C6 1.806 . S
C1125 C21 1.672 . S
C1131 N501 1.647 . S
C1145 C28 1.678 . S
C1151 N524 1.657 . S
C1171 N557 1.156 . S
C1165 C45 1.175 . S
C1185 C54 1.573 . S
C1191 C584 1.567 . S
C1211 C607 2.058 . S
C1205 C69 2.057 . S
C1225 C81 0.985 . S
C1231 C630 0.994 1_655 S
C1251 C644 1.563 1_565 S
C1245 C88 1.572 . S
C1265 C4 1.513 . S
C1271 C561 1.507 . S
C1285 C57 1.618 . S
C1291 N603 1.592 . S
C1311 N626 1.587 . S
C1305 C64 1.615 . S
C1325 C78 1.178 . S
C1331 N639 1.156 . S
C1351 N580 1.748 . S
C1345 C93 1.797 . S
C1371 C506 2.130 . S
C1365 C33 2.127 . S
C1385 C42 0.949 . S
C1391 C529 0.941 . S
C1411 C483 1.629 . S
C1405 C18 1.620 . S
C1431 C676 1.742 . S
C1425 C105 1.740 . S
C1445 C112 1.533 . S
C1451 C690 1.548 . S
C1465 C126 1.796 . S
C1471 N718 1.758 . S
C1491 N731 0.676 . S
C1485 C136 0.655 . S
C1505 C148 1.521 . S
C1511 C736 1.532 . S
C1525 C162 1.756 . S
C1531 N672 1.712 . S
C1545 C172 0.742 . S
C1551 N685 0.764 . S
C1565 C186 1.724 . S
C1571 C722 1.724 . S
C1591 N570 1.761 . S
C1585 C102 1.806 . S
C1605 C117 1.575 . S
C1611 N754 1.539 . S
C1631 N616 1.575 1_655 S
C1625 C124 1.609 . S
C1645 C141 1.165 . S
C1651 C791 1.170 . S
C1665 C150 1.672 . S
C1671 C492 1.667 . S
C1691 C805 2.113 . S
C1685 C165 2.103 . S
C1705 C177 1.075 . S
C1711 C538 1.087 . S
C1731 N823 1.434 . S
C1725 C184 1.476 . S
C1745 C100 1.523 . S
C1751 N787 1.498 . S
C1771 N800 1.529 . S
C1765 C153 1.575 . S
C1785 C160 1.612 . S
C1791 N534 1.585 . S
C1811 C828 0.960 . S
C1805 C174 0.960 . S
C1825 C189 1.787 . S
C1831 N488 1.750 . S
C1845 C129 2.041 . S
C1851 C759 2.046 . S
C1865 C138 1.064 . S
C1871 C621 1.068 . S
C1885 C114 1.677 . S
C1891 C575 1.688 . S
C1905 C201 1.813 . S
C1911 C713 1.818 . S
C1931 C745 1.497 . S
C1925 C208 1.496 . S
C1945 C222 1.806 . S
C1951 N662 1.776 . S
C1965 C232 0.692 . S
C1971 N695 0.704 . S
C1985 C244 1.543 . S
C1991 C699 1.535 . S
C2005 C258 1.878 . S
C2011 N708 1.854 . S
C2031 N741 0.617 . S
C2025 C268 0.588 . S
C2045 C282 1.795 . S
C2051 C667 1.804 . S
C2071 N856 1.787 . S
C2065 C198 1.832 . S
C2085 C213 1.551 . S
C2091 N593 1.509 . S
C2111 N879 1.497 . S
C2105 C220 1.532 . S
C2125 C237 1.236 . S
C2131 N649 1.177 . S
C2145 C246 1.629 . S
C2151 C897 1.627 . S
C2165 C261 2.143 . S
C2171 C515 2.135 . S
C2191 N915 0.983 . S
C2185 C273 1.000 . S
C2205 C280 1.559 . S
C2211 C552 1.564 . S
C2231 C653 1.546 . S
C2225 C196 1.561 . S
C2251 N511 1.578 . S
C2245 C249 1.601 . S
C2265 C256 1.755 . S
C2271 C920 1.764 . S
C2285 C270 0.993 . S
C2291 N547 0.984 . S
C2311 N892 1.822 . S
C2305 C285 1.851 . S
C2331 C598 2.019 1_565 S
C2325 C225 2.013 . S
C2351 C883 1.094 . S
C2345 C234 1.092 . S
C2371 C860 1.656 . S
C2365 C210 1.650 . S
C2385 C297 1.728 . S
C2391 N442 1.686 . S
C2405 C304 1.502 . S
C2411 C469 1.497 . S
C2431 C391 1.868 . S
C2425 C318 1.861 . S
C2451 N409 0.629 . S
C2445 C328 0.621 . S
C2471 C414 1.584 . S
C2465 C340 1.569 . S
C2491 C446 1.749 . S
C2485 C354 1.743 . S
C2511 N465 0.819 . S
C2505 C364 0.802 . S
C2525 C378 1.795 . S
C2531 N386 1.763 . S
C2545 C294 1.770 . S
C2551 N902 1.731 . S
C2571 N810 1.562 . S
C2565 C309 1.585 . S
C2591 C929 1.775 . S
C2585 C316 1.778 . S
C2611 C837 0.925 . S
C2605 C333 0.929 . S
C2625 C342 1.679 . S
C2631 C851 1.668 . S
C2651 C768 2.059 . S
C2645 C357 2.074 . S
C2671 C874 1.211 . S
C2665 C369 1.235 . S
C2685 C376 1.570 . S
C2691 N777 1.517 . S
C2711 N833 1.434 . S
C2705 C292 1.449 . S
C2731 N764 1.564 . S
C2725 C345 1.582 . S
C2751 N869 1.494 . S
C2745 C352 1.535 . S
C2765 C366 1.085 . S
C2771 C782 1.090 . S
C2785 C381 1.775 . S
C2791 N846 1.734 . S
C2805 C321 2.154 . S
C2811 C814 2.155 . S
C2825 C330 1.027 . S
C2831 N925 1.005 . S
C2851 C906 1.593 . S
C2845 C306 1.590 . S
