# Generated by pormake.
# Topology pyr, (3,6)-cn, num edge types: 1
# Building blocks:
#     Node 0, Type 0, BuildingBlock: BELTOD_clean_linker_0, # of connection points: 3
#     Node 1, Type 0, BuildingBlock: BELTOD_clean_linker_0, # of connection points: 3
#     Node 2, Type 0, BuildingBlock: BELTOD_clean_linker_0, # of connection points: 3
#     Node 3, Type 0, BuildingBlock: BELTOD_clean_linker_0, # of connection points: 3
#     Node 4, Type 0, BuildingBlock: BELTOD_clean_linker_0, # of connection points: 3
#     Node 5, Type 0, BuildingBlock: BELTOD_clean_linker_0, # of connection points: 3
#     Node 6, Type 0, BuildingBlock: BELTOD_clean_linker_0, # of connection points: 3
#     Node 7, Type 0, BuildingBlock: BELTOD_clean_linker_0, # of connection points: 3
#     Node 8, Type 1, BuildingBlock: VOLQOD_clean_sbu_1, # of connection points: 6
#     Node 9, Type 1, BuildingBlock: VOLQOD_clean_sbu_1, # of connection points: 6
#     Node 10, Type 1, BuildingBlock: VOLQOD_clean_sbu_1, # of connection points: 6
#     Node 11, Type 1, BuildingBlock: VOLQOD_clean_sbu_1, # of connection points: 6
#     Edge 12, Type (0, 1), BuildingBlock: XIVTED_clean_linker_0, # of connection points: 2
#     Edge 13, Type (0, 1), BuildingBlock: XIVTED_clean_linker_0, # of connection points: 2
#     Edge 14, Type (0, 1), BuildingBlock: XIVTED_clean_linker_0, # of connection points: 2
#     Edge 15, Type (0, 1), BuildingBlock: XIVTED_clean_linker_0, # of connection points: 2
#     Edge 16, Type (0, 1), BuildingBlock: XIVTED_clean_linker_0, # of connection points: 2
#     Edge 17, Type (0, 1), BuildingBlock: XIVTED_clean_linker_0, # of connection points: 2
#     Edge 18, Type (0, 1), BuildingBlock: XIVTED_clean_linker_0, # of connection points: 2
#     Edge 19, Type (0, 1), BuildingBlock: XIVTED_clean_linker_0, # of connection points: 2
#     Edge 20, Type (0, 1), BuildingBlock: XIVTED_clean_linker_0, # of connection points: 2
#     Edge 21, Type (0, 1), BuildingBlock: XIVTED_clean_linker_0, # of connection points: 2
#     Edge 22, Type (0, 1), BuildingBlock: XIVTED_clean_linker_0, # of connection points: 2
#     Edge 23, Type (0, 1), BuildingBlock: XIVTED_clean_linker_0, # of connection points: 2
#     Edge 24, Type (0, 1), BuildingBlock: XIVTED_clean_linker_0, # of connection points: 2
#     Edge 25, Type (0, 1), BuildingBlock: XIVTED_clean_linker_0, # of connection points: 2
#     Edge 26, Type (0, 1), BuildingBlock: XIVTED_clean_linker_0, # of connection points: 2
#     Edge 27, Type (0, 1), BuildingBlock: XIVTED_clean_linker_0, # of connection points: 2
#     Edge 28, Type (0, 1), BuildingBlock: XIVTED_clean_linker_0, # of connection points: 2
#     Edge 29, Type (0, 1), BuildingBlock: XIVTED_clean_linker_0, # of connection points: 2
#     Edge 30, Type (0, 1), BuildingBlock: XIVTED_clean_linker_0, # of connection points: 2
#     Edge 31, Type (0, 1), BuildingBlock: XIVTED_clean_linker_0, # of connection points: 2
#     Edge 32, Type (0, 1), BuildingBlock: XIVTED_clean_linker_0, # of connection points: 2
#     Edge 33, Type (0, 1), BuildingBlock: XIVTED_clean_linker_0, # of connection points: 2
#     Edge 34, Type (0, 1), BuildingBlock: XIVTED_clean_linker_0, # of connection points: 2
#     Edge 35, Type (0, 1), BuildingBlock: XIVTED_clean_linker_0, # of connection points: 2
# Relax obj value: 0.036
# Max RMSD: 0.117
# Mean RMSD: 0.050
data_MOF--net-pry--node1-VOLQOD_clean_sbu_1--node2-BELTOD_clean_linker_0--edge1-XIVTED_clean_linker_0
_symmetry_space_group_name_H-M    P1
_symmetry_Int_Tables_number       1
_symmetry_cell_setting            triclinic
loop_
_symmetry_equiv_pos_as_xyz
'x, y, z'
_cell_length_a     42.235557
_cell_length_b     42.617725
_cell_length_c     42.152789
_cell_angle_alpha  90.02908
_cell_angle_beta   90.246586
_cell_angle_gamma 90.147392
loop_
_atom_site_label
_atom_site_type_symbol
_atom_site_fract_x
_atom_site_fract_y
_atom_site_fract_z
_atom_type_partial_charge
P0 P 0.15581 0.15987 0.1788 0.0
H1 H 0.22475 0.16318 0.17857 0.0
H2 H 0.26527 0.13187 0.15245 0.0
H3 H 0.19269 0.07838 0.10426 0.0
H4 H 0.15177 0.10937 0.1314 0.0
H5 H 0.12399 0.21757 0.19531 0.0
H6 H 0.09568 0.25698 0.16445 0.0
H7 H 0.11395 0.20457 0.07874 0.0
H8 H 0.14233 0.16499 0.10989 0.0
H9 H 0.16465 0.09945 0.20974 0.0
H10 H 0.08736 0.16307 0.1915 0.0
O11 O 0.17413 0.17931 0.20799 0.0
H12 H 0.13124 0.06976 0.24622 0.0
H13 H 0.05406 0.1336 0.22798 0.0
C14 C 0.18526 0.13846 0.15703 0.0
C15 C 0.2174 0.1448 0.1624 0.0
C16 C 0.24057 0.12689 0.14752 0.0
C17 C 0.23199 0.10268 0.12657 0.0
C18 C 0.19979 0.097 0.1203 0.0
C19 C 0.17652 0.11463 0.13572 0.0
C20 C 0.13557 0.18854 0.1549 0.0
C21 C 0.12199 0.21455 0.16987 0.0
C22 C 0.10555 0.2369 0.15224 0.0
C23 C 0.10249 0.23375 0.1192 0.0
C24 C 0.11611 0.20763 0.10417 0.0
C25 C 0.13232 0.185 0.12196 0.0
C26 C 0.12855 0.13342 0.19774 0.0
C27 C 0.14019 0.10641 0.21269 0.0
C28 C 0.12104 0.0894 0.23351 0.0
C29 C 0.09011 0.09951 0.24007 0.0
C30 C 0.07789 0.12542 0.22351 0.0
C31 C 0.09698 0.14228 0.20256 0.0
P32 P 0.4303 0.92177 0.59612 0.0
H33 H 0.48471 0.90687 0.63627 0.0
H34 H 0.49676 0.9171 0.69215 0.0
H35 H 0.40754 0.96571 0.7016 0.0
H36 H 0.3964 0.95655 0.64574 0.0
H37 H 0.4485 0.89115 0.53712 0.0
H38 H 0.45731 0.83609 0.52302 0.0
H39 H 0.43781 0.80899 0.61976 0.0
H40 H 0.42901 0.86393 0.63361 0.0
H41 H 0.39589 0.96149 0.55082 0.0
H42 H 0.37371 0.89417 0.62377 0.0
O43 O 0.452 0.94549 0.57338 0.0
H44 H 0.33949 0.96958 0.54094 0.0
H45 H 0.31725 0.90285 0.61492 0.0
C46 C 0.4393 0.93016 0.63706 0.0
C47 C 0.4678 0.91973 0.65046 0.0
C48 C 0.47456 0.92545 0.68244 0.0
C49 C 0.45298 0.94195 0.70152 0.0
C50 C 0.42483 0.95311 0.68764 0.0
C51 C 0.41821 0.94752 0.65566 0.0
C52 C 0.43905 0.88164 0.58658 0.0
C53 C 0.44655 0.87335 0.55535 0.0
C54 C 0.4513 0.84191 0.54727 0.0
C55 C 0.44848 0.81828 0.57036 0.0
C56 C 0.44074 0.82673 0.60162 0.0
C57 C 0.43575 0.85813 0.60957 0.0
C58 C 0.38887 0.92741 0.58817 0.0
C59 C 0.37885 0.94853 0.5648 0.0
C60 C 0.34656 0.95327 0.55933 0.0
C61 C 0.32375 0.93701 0.57727 0.0
C62 C 0.33407 0.91548 0.60037 0.0
C63 C 0.36634 0.91062 0.60562 0.0
P64 P 0.64995 0.34918 0.84081 0.0
H65 H 0.7188 0.35107 0.83713 0.0
H66 H 0.75914 0.38142 0.86512 0.0
H67 H 0.68694 0.42451 0.92255 0.0
H68 H 0.64613 0.39493 0.89346 0.0
H69 H 0.63203 0.28506 0.8252 0.0
H70 H 0.60484 0.24388 0.85458 0.0
H71 H 0.5982 0.30525 0.93586 0.0
H72 H 0.62551 0.34641 0.90636 0.0
H73 H 0.64289 0.41797 0.83447 0.0
H74 H 0.59146 0.33433 0.80803 0.0
O75 O 0.66814 0.33232 0.81015 0.0
H76 H 0.60535 0.44979 0.80482 0.0
H77 H 0.55512 0.36559 0.77657 0.0
C78 C 0.67937 0.3706 0.86322 0.0
C79 C 0.71144 0.367 0.85567 0.0
C80 C 0.73454 0.38438 0.87163 0.0
C81 C 0.72604 0.4053 0.89584 0.0
C82 C 0.69401 0.40835 0.90406 0.0
C83 C 0.67077 0.39131 0.88762 0.0
C84 C 0.63154 0.31864 0.86377 0.0
C85 C 0.62505 0.28964 0.84945 0.0
C86 C 0.60915 0.26621 0.86614 0.0
C87 C 0.59936 0.27137 0.89751 0.0
C88 C 0.60578 0.30051 0.91182 0.0
C89 C 0.62151 0.32406 0.89496 0.0
C90 C 0.61968 0.37374 0.824 0.0
C91 C 0.62316 0.40643 0.82291 0.0
C92 C 0.60182 0.42463 0.80546 0.0
C93 C 0.57721 0.41037 0.78793 0.0
C94 C 0.57327 0.37764 0.79013 0.0
C95 C 0.59425 0.35959 0.80803 0.0
P96 P 0.86049 0.63662 0.38941 0.0
H97 H 0.92265 0.65973 0.37076 0.0
H98 H 0.95898 0.69685 0.39528 0.0
H99 H 0.89904 0.70068 0.47809 0.0
H100 H 0.86395 0.66181 0.45424 0.0
H101 H 0.83731 0.61679 0.32767 0.0
H102 H 0.86096 0.58621 0.28503 0.0
H103 H 0.94262 0.56794 0.34426 0.0
H104 H 0.91847 0.59843 0.38719 0.0
H105 H 0.80708 0.65714 0.42693 0.0
H106 H 0.85489 0.56997 0.40735 0.0
O107 O 0.83948 0.66383 0.37025 0.0
H108 H 0.76571 0.62871 0.45505 0.0
H109 H 0.81337 0.54121 0.43553 0.0
C110 C 0.89085 0.65742 0.41086 0.0
C111 C 0.91802 0.66741 0.39478 0.0
C112 C 0.93859 0.68908 0.40868 0.0
C113 C 0.93172 0.70218 0.43849 0.0
C114 C 0.90533 0.69086 0.45528 0.0
C115 C 0.88505 0.66868 0.44153 0.0
C116 C 0.87671 0.61078 0.36003 0.0
C117 C 0.86017 0.60598 0.3316 0.0
C118 C 0.87359 0.58826 0.30736 0.0
C119 C 0.90378 0.57499 0.31126 0.0
C120 C 0.91952 0.57832 0.34052 0.0
C121 C 0.90583 0.59577 0.36495 0.0
C122 C 0.83369 0.61562 0.41467 0.0
C123 C 0.80894 0.63189 0.4292 0.0
C124 C 0.78542 0.6156 0.44546 0.0
C125 C 0.78621 0.58268 0.44734 0.0
C126 C 0.81201 0.56655 0.43415 0.0
C127 C 0.83574 0.58297 0.41808 0.0
P128 P 0.93644 0.93706 0.95815 0.0
H129 H 0.89972 0.95452 0.01378 0.0
H130 H 0.84298 0.96253 0.02208 0.0
H131 H 0.82613 0.94787 0.92195 0.0
H132 H 0.88257 0.93935 0.914 0.0
H133 H 0.99266 0.90216 0.97754 0.0
H134 H 0.00212 0.84621 0.98688 0.0
H135 H 0.90286 0.82718 0.97026 0.0
H136 H 0.89377 0.88269 0.9604 0.0
H137 H 0.95546 0.99288 0.92289 0.0
H138 H 0.94072 0.8945 0.9036 0.0
O139 O 0.95861 0.95987 0.98158 0.0
H140 H 0.96809 0.00171 0.86693 0.0
H141 H 0.95282 0.90315 0.84788 0.0
C142 C 0.89542 0.94698 0.96323 0.0
C143 C 0.88382 0.95357 0.99358 0.0
C144 C 0.85141 0.95814 -0.00173 0.0
C145 C 0.83005 0.95583 0.97266 0.0
C146 C 0.84191 0.9495 0.94221 0.0
C147 C 0.87428 0.94499 0.93757 0.0
C148 C 0.94246 0.89666 0.96885 0.0
C149 C 0.9729 0.88594 0.97642 0.0
C150 C 0.97825 0.854 0.98177 0.0
C151 C 0.95323 0.83227 0.97926 0.0
C152 C 0.92269 0.84326 0.97204 0.0
C153 C 0.9174 0.87513 0.96673 0.0
C154 C 0.94788 0.94297 0.91753 0.0
C155 C 0.95528 0.97315 0.90668 0.0
C156 C 0.96222 0.97819 0.87467 0.0
C157 C 0.96164 0.95308 0.85298 0.0
C158 C 0.95411 0.92287 0.86405 0.0
C159 C 0.94714 0.9179 0.89599 0.0
P160 P 0.63664 0.13346 0.4046 0.0
H161 H 0.64496 0.17778 0.45638 0.0
H162 H 0.60999 0.21776 0.4784 0.0
H163 H 0.53229 0.18063 0.42291 0.0
H164 H 0.56718 0.14052 0.40124 0.0
H165 H 0.67954 0.08503 0.38453 0.0
H166 H 0.71816 0.05355 0.41295 0.0
H167 H 0.681 0.08716 0.50214 0.0
H168 H 0.64255 0.11917 0.47322 0.0
H169 H 0.63022 0.15359 0.33905 0.0
H170 H 0.6008 0.07485 0.39602 0.0
O171 O 0.66369 0.15872 0.39117 0.0
H172 H 0.60512 0.13033 0.29272 0.0
H173 H 0.57437 0.05158 0.3496 0.0
C174 C 0.60879 0.15622 0.42712 0.0
C175 C 0.62014 0.17754 0.44982 0.0
C176 C 0.60011 0.20036 0.46242 0.0
C177 C 0.56849 0.20245 0.45213 0.0
C178 C 0.55664 0.17969 0.43102 0.0
C179 C 0.57663 0.15668 0.41868 0.0
C180 C 0.65823 0.10447 0.4267 0.0
C181 C 0.67907 0.08494 0.41023 0.0
C182 C 0.70113 0.06679 0.4266 0.0
C183 C 0.7029 0.06793 0.45991 0.0
C184 C 0.68059 0.0861 0.47647 0.0
C185 C 0.65846 0.10434 0.45995 0.0
C186 C 0.61782 0.11565 0.37075 0.0
C187 C 0.61828 0.13123 0.34157 0.0
C188 C 0.60352 0.11802 0.31513 0.0
C189 C 0.58748 0.08913 0.31743 0.0
C190 C 0.58677 0.07368 0.34693 0.0
C191 C 0.60178 0.08694 0.37345 0.0
P192 P 0.43036 0.57344 0.07415 0.0
H193 H 0.3936 0.52671 0.03832 0.0
H194 H 0.33676 0.51901 0.03068 0.0
H195 H 0.31849 0.60072 0.08865 0.0
H196 H 0.37523 0.60738 0.09712 0.0
H197 H 0.4879 0.60893 0.0876 0.0
H198 H 0.50256 0.66396 0.07912 0.0
H199 H 0.41416 0.67919 0.02969 0.0
H200 H 0.39991 0.62424 0.03762 0.0
H201 H 0.44921 0.51756 0.10981 0.0
H202 H 0.42615 0.61408 0.12971 0.0
O203 O 0.45105 0.54815 0.05231 0.0
H204 H 0.45609 0.50768 0.16665 0.0
H205 H 0.43362 0.60467 0.18627 0.0
C206 C 0.38858 0.56782 0.06797 0.0
C207 C 0.37733 0.54293 0.04936 0.0
C208 C 0.34478 0.53868 0.04488 0.0
C209 C 0.32293 0.55934 0.0589 0.0
C210 C 0.33449 0.58409 0.07783 0.0
C211 C 0.36698 0.58809 0.08251 0.0
C212 C 0.44243 0.61274 0.06413 0.0
C213 C 0.47184 0.62407 0.07467 0.0
C214 C 0.48022 0.65543 0.06974 0.0
C215 C 0.45923 0.67588 0.05421 0.0
C216 C 0.43046 0.66404 0.04232 0.0
C217 C 0.42229 0.63261 0.04693 0.0
C218 C 0.43783 0.56667 0.11557 0.0
C219 C 0.44612 0.53672 0.12638 0.0
C220 C 0.45009 0.53114 0.15885 0.0
C221 C 0.44546 0.55541 0.18099 0.0
C222 C 0.43704 0.58538 0.16991 0.0
C223 C 0.43308 0.59088 0.13752 0.0
P224 P 0.10386 0.39988 0.61935 0.0
H225 H 0.13292 0.34495 0.592 0.0
H226 H 0.11134 0.29625 0.57074 0.0
H227 H 0.01664 0.33356 0.57886 0.0
H228 H 0.03865 0.38267 0.60008 0.0
H229 H 0.14513 0.4529 0.63167 0.0
H230 H 0.18394 0.47936 0.59857 0.0
H231 H 0.1483 0.42972 0.51648 0.0
H232 H 0.10865 0.40391 0.54964 0.0
H233 H 0.0581 0.37222 0.66165 0.0
H234 H 0.08889 0.46564 0.63687 0.0
O235 O 0.13201 0.38529 0.64296 0.0
H236 H 0.03172 0.39279 0.7083 0.0
H237 H 0.06416 0.4861 0.68483 0.0
C238 C 0.08732 0.36693 0.59843 0.0
C239 C 0.10755 0.34284 0.58878 0.0
C240 C 0.09516 0.31509 0.57641 0.0
C241 C 0.06224 0.31098 0.57344 0.0
C242 C 0.04207 0.33596 0.58136 0.0
C243 C 0.0546 0.36397 0.59345 0.0
C244 C 0.1239 0.42653 0.59318 0.0
C245 C 0.14453 0.44887 0.6063 0.0
C246 C 0.16679 0.46397 0.58732 0.0
C247 C 0.16923 0.45642 0.55499 0.0
C248 C 0.14693 0.43585 0.54138 0.0
C249 C 0.12427 0.4211 0.56036 0.0
C250 C 0.07566 0.4173 0.64579 0.0
C251 C 0.0583 0.39733 0.6656 0.0
C252 C 0.04351 0.40907 0.69252 0.0
C253 C 0.04662 0.4409 0.70064 0.0
C254 C 0.06142 0.46144 0.67921 0.0
C255 C 0.07587 0.44966 0.65187 0.0
O256 O 0.9931 0.06959 0.55916 0.0
Zn257 Zn 0.97983 0.02383 0.56024 0.0
O258 O 0.00693 0.99765 0.53354 0.0
Zn259 Zn 0.98278 0.98193 0.49723 0.0
Zn260 Zn 0.04175 0.023 0.51798 0.0
Zn261 Zn 0.02385 0.96233 0.55815 0.0
O262 O 0.98623 0.93536 0.49491 0.0
O263 O 0.01039 0.92058 0.53938 0.0
O264 O 0.93446 0.02138 0.54553 0.0
O265 O 0.93651 0.99237 0.50179 0.0
O266 O 0.99831 -0.00058 0.45538 0.0
O267 O 0.0406 0.0265 0.47081 0.0
O268 O 0.08393 0.00588 0.53115 0.0
O269 O 0.98143 0.00894 0.60553 0.0
O270 O 0.07174 0.96291 0.55826 0.0
O271 O 0.00969 0.96504 0.60377 0.0
C272 C 0.01752 0.08282 0.54755 0.0
C273 C 0.99671 0.91399 0.51319 0.0
C274 C 0.02206 0.01674 0.4491 0.0
C275 C 0.92084 0.00807 0.52208 0.0
C276 C 0.09222 0.98172 0.54681 0.0
C277 C 0.99359 0.98515 0.6192 0.0
O278 O 0.03829 0.06715 0.5327 0.0
O279 O 0.49586 0.05963 0.98535 0.0
Zn280 Zn 0.48052 0.01518 0.9921 0.0
O281 O 0.51 0.99138 0.01887 0.0
Zn282 Zn 0.52947 0.95789 0.99405 0.0
Zn283 Zn 0.54287 0.01949 0.03434 0.0
Zn284 Zn 0.48777 0.97349 0.05536 0.0
O285 O 0.51801 0.91566 0.01193 0.0
O286 O 0.48789 0.92618 0.0537 0.0
O287 O 0.47729 0.99606 0.94855 0.0
O288 O 0.5139 0.95873 0.94875 0.0
O289 O 0.57716 0.96147 0.99404 0.0
O290 O 0.58623 0.00338 0.02401 0.0
O291 O 0.54013 0.02496 0.08118 0.0
O292 O 0.43712 0.01721 0.01198 0.0
O293 O 0.50647 0.98824 0.09732 0.0
O294 O 0.44255 0.98817 0.05541 0.0
C295 C 0.51967 0.07476 0.99601 0.0
C296 C 0.50119 0.90659 0.03522 0.0
C297 C 0.59628 0.98056 0.00742 0.0
C298 C 0.49268 0.97457 0.9344 0.0
C299 C 0.52587 0.01043 0.10327 0.0
C300 C 0.42575 0.00534 0.03725 0.0
O301 O 0.53935 0.06206 0.0149 0.0
O302 O 0.50445 0.51374 0.57427 0.0
Zn303 Zn 0.50708 0.52962 0.52983 0.0
O304 O 0.48084 0.50466 0.50128 0.0
Zn305 Zn 0.50736 0.48598 0.46844 0.0
Zn306 Zn 0.46003 0.4712 0.5255 0.0
Zn307 Zn 0.44936 0.53218 0.48148 0.0
O308 O 0.49409 0.50012 0.42491 0.0
O309 O 0.4538 0.5322 0.43389 0.0
O310 O 0.55274 0.52806 0.51729 0.0
O311 O 0.55327 0.49764 0.47457 0.0
O312 O 0.50453 0.43896 0.46938 0.0
O313 O 0.47392 0.42828 0.51073 0.0
O314 O 0.41274 0.47391 0.51981 0.0
O315 O 0.49382 0.57472 0.53049 0.0
O316 O 0.4053 0.5173 0.49142 0.0
O317 O 0.45352 0.57697 0.49667 0.0
C318 C 0.48911 0.49192 0.58793 0.0
C319 C 0.47249 0.5184 0.41482 0.0
C320 C 0.49109 0.41933 0.4877 0.0
C321 C 0.56768 0.51443 0.49508 0.0
C322 C 0.39448 0.49356 0.5062 0.0
C323 C 0.47233 0.59021 0.51625 0.0
O324 O 0.47063 0.47388 0.57235 0.0
O325 O 0.97065 0.50075 0.08042 0.0
Zn326 Zn 0.97578 0.48662 0.03539 0.0
O327 O 0.00348 0.51546 0.01236 0.0
Zn328 Zn 0.97938 0.53584 0.97848 0.0
Zn329 Zn 0.02092 0.54707 0.04135 0.0
Zn330 Zn 0.03811 0.49184 0.99384 0.0
O331 O 0.99699 0.52574 0.93528 0.0
O332 O 0.03533 0.49202 0.94659 0.0
O333 O 0.93248 0.4838 0.01517 0.0
O334 O 0.93453 0.51998 0.97736 0.0
O335 O 0.97898 0.58265 0.98418 0.0
O336 O 0.00795 0.59059 0.02758 0.0
O337 O 0.06881 0.54594 0.04244 0.0
O338 O 0.99439 0.44315 0.03734 0.0
O339 O 0.08021 0.50991 0.00625 0.0
O340 O 0.03796 0.447 0.0084 0.0
C341 C 0.98416 0.52162 0.09737 0.0
C342 C 0.01862 0.50694 0.92649 0.0
C343 C 0.99136 0.60106 0.0046 0.0
C344 C 0.91946 0.49895 0.99259 0.0
C345 C 0.08894 0.53051 0.02635 0.0
C346 C 0.01922 0.43098 0.02557 0.0
O347 O 0.00454 0.54039 0.08569 0.0
H348 H 0.0608 0.13176 0.28706 0.0
H349 H 0.01046 0.98552 0.39302 0.0
H350 H 0.08103 0.03742 0.25604 0.0
H351 H 0.04597 0.07286 0.43107 0.0
H352 H 0.02214 0.00479 0.33906 0.0
H353 H 0.03933 0.11074 0.33633 0.0
C354 C 0.06003 0.10655 0.29028 0.0
C355 C 0.07276 0.08627 0.26746 0.0
C356 C 0.02715 0.01962 0.35936 0.0
C357 C 0.04851 0.06219 0.32393 0.0
C358 C 0.02046 0.00875 0.38997 0.0
C359 C 0.02755 0.02759 0.4164 0.0
C360 C 0.04004 0.04975 0.35543 0.0
C361 C 0.0405 0.05748 0.41132 0.0
C362 C 0.04805 0.09463 0.31852 0.0
C363 C 0.07163 0.05381 0.27319 0.0
N364 N 0.04615 0.0677 0.38145 0.0
N365 N 0.05979 0.04268 0.30102 0.0
H366 H 0.44029 0.99441 0.7371 0.0
H367 H 0.51524 0.92665 0.89736 0.0
H368 H 0.48054 0.90161 0.74429 0.0
H369 H 0.45629 0.00924 0.89356 0.0
H370 H 0.50603 0.9186 0.84063 0.0
H371 H 0.44934 0.00184 0.79379 0.0
C372 C 0.4509 0.97551 0.75058 0.0
C373 C 0.45951 0.94726 0.73581 0.0
C374 C 0.49505 0.93842 0.85227 0.0
C375 C 0.47038 0.95586 0.80081 0.0
C376 C 0.50031 0.94306 0.88465 0.0
C377 C 0.48651 0.96868 0.90031 0.0
C378 C 0.47609 0.95968 0.83532 0.0
C379 C 0.46736 0.98913 0.88257 0.0
C380 C 0.45617 0.97984 0.78297 0.0
C381 C 0.47385 0.92392 0.7545 0.0
N382 N 0.46283 0.98426 0.85103 0.0
N383 N 0.47882 0.92874 0.78601 0.0
H384 H 0.51466 0.40209 0.77007 0.0
H385 H 0.52824 0.52477 0.62773 0.0
H386 H 0.59649 0.46036 0.75175 0.0
H387 H 0.46424 0.44554 0.62595 0.0
H388 H 0.5443 0.51038 0.68131 0.0
H389 H 0.48769 0.42661 0.72498 0.0
C390 C 0.5269 0.4202 0.7569 0.0
C391 C 0.55822 0.42871 0.7646 0.0
C392 C 0.52648 0.49636 0.66932 0.0
C393 C 0.52711 0.45726 0.71349 0.0
C394 C 0.51722 0.50455 0.6387 0.0
C395 C 0.49526 0.48598 0.62201 0.0
C396 C 0.51368 0.46944 0.68349 0.0
C397 C 0.48155 0.46029 0.63774 0.0
C398 C 0.51138 0.43426 0.73128 0.0
C399 C 0.57237 0.45303 0.74711 0.0
N400 N 0.49126 0.45255 0.66754 0.0
N401 N 0.55682 0.46621 0.72228 0.0
H402 H 0.96424 0.58469 0.29083 0.0
H403 H 0.93708 0.4905 0.12896 0.0
H404 H 0.87913 0.53273 0.26883 0.0
H405 H 0.01122 0.55922 0.14289 0.0
H406 H 0.92085 0.49792 0.18392 0.0
H407 H 0.98725 0.56698 0.2408 0.0
C408 C 0.95067 0.56901 0.27577 0.0
C409 C 0.91966 0.56034 0.28379 0.0
C410 C 0.94079 0.51122 0.17498 0.0
C411 C 0.94558 0.54043 0.22644 0.0
C412 C 0.9501 0.50701 0.1436 0.0
C413 C 0.97535 0.52454 0.13114 0.0
C414 C 0.9569 0.53301 0.19414 0.0
C415 C 0.99142 0.54545 0.15135 0.0
C416 C 0.96368 0.55916 0.24711 0.0
C417 C 0.90296 0.54028 0.26326 0.0
N418 N 0.98181 0.54921 0.18183 0.0
N419 N 0.91605 0.53118 0.23539 0.0
H420 H 0.27804 0.07043 0.15739 0.0
H421 H 0.38067 0.03863 0.00417 0.0
H422 H 0.24258 0.09072 0.06361 0.0
H423 H 0.39701 0.99193 0.09366 0.0
H424 H 0.33003 0.05787 0.02445 0.0
H425 H 0.32214 0.04174 0.13395 0.0
C426 C 0.27953 0.06859 0.1318 0.0
C427 C 0.25691 0.08301 0.11232 0.0
C428 C 0.34456 0.04305 0.03942 0.0
C429 C 0.30738 0.05057 0.08527 0.0
C430 C 0.37349 0.0321 0.02791 0.0
C431 C 0.39335 0.01389 0.04734 0.0
C432 C 0.33567 0.03609 0.0707 0.0
C433 C 0.38268 0.00605 0.07785 0.0
C434 C 0.30458 0.05214 0.11842 0.0
C435 C 0.25964 0.07983 0.07934 0.0
N436 N 0.35481 0.01753 0.08869 0.0
N437 N 0.28475 0.06427 0.06676 0.0
H438 H 0.27463 0.89452 0.57872 0.0
H439 H 0.14219 0.0206 0.53397 0.0
H440 H 0.29435 0.99304 0.56475 0.0
H441 H 0.12014 0.92833 0.57014 0.0
H442 H 0.1984 0.00957 0.54109 0.0
H443 H 0.21822 0.90522 0.57187 0.0
C444 C 0.26715 0.91842 0.57436 0.0
C445 C 0.28939 0.94292 0.57235 0.0
C446 C 0.18127 0.99176 0.54753 0.0
C447 C 0.22481 0.95519 0.56402 0.0
C448 C 0.14913 0.998 0.54341 0.0
C449 C 0.12635 0.97536 0.55148 0.0
C450 C 0.19081 0.96256 0.55956 0.0
C451 C 0.13684 0.94652 0.56369 0.0
C452 C 0.23492 0.92447 0.57033 0.0
C453 C 0.27822 0.97331 0.56602 0.0
N454 N 0.16833 0.9409 0.56725 0.0
N455 N 0.24676 0.97856 0.56206 0.0
H456 H 0.76987 0.44297 0.86815 0.0
H457 H 0.87692 0.45958 0.02175 0.0
H458 H 0.73855 0.41001 0.95948 0.0
H459 H 0.88847 0.51802 0.9389 0.0
H460 H 0.82633 0.4409 0.00019 0.0
H461 H 0.81391 0.47031 0.89398 0.0
C462 C 0.77224 0.44173 0.89373 0.0
C463 C 0.75081 0.42416 0.91178 0.0
C464 C 0.8398 0.45812 0.98699 0.0
C465 C 0.80121 0.45502 0.94148 0.0
C466 C 0.8687 0.46874 -0.00078 0.0
C467 C 0.88717 0.49018 0.98197 0.0
C468 C 0.82955 0.46866 0.95712 0.0
C469 C 0.8752 0.50137 0.95299 0.0
C470 C 0.79725 0.45742 0.90848 0.0
C471 C 0.75466 0.42342 0.94483 0.0
N472 N 0.84738 0.49018 0.94131 0.0
N473 N 0.77971 0.43829 0.95865 0.0
H474 H 0.75691 0.53108 0.42209 0.0
H475 H 0.60635 0.54867 0.53434 0.0
H476 H 0.7519 0.59563 0.50082 0.0
H477 H 0.60807 0.49073 0.45024 0.0
H478 H 0.66262 0.55942 0.52756 0.0
H479 H 0.706 0.50887 0.43783 0.0
C480 C 0.74544 0.54011 0.44313 0.0
C481 C 0.75848 0.56548 0.45999 0.0
C482 C 0.65075 0.54416 0.51072 0.0
C483 C 0.69992 0.54061 0.47772 0.0
C484 C 0.61857 0.53803 0.51454 0.0
C485 C 0.60229 0.51911 0.49256 0.0
C486 C 0.66685 0.53136 0.4847 0.0
C487 C 0.61953 0.50572 0.46758 0.0
C488 C 0.71623 0.52761 0.45192 0.0
C489 C 0.74239 0.57646 0.48683 0.0
N490 N 0.65082 0.51233 0.46418 0.0
N491 N 0.71379 0.56418 0.49468 0.0
H492 H 0.046 0.26178 0.13264 0.0
H493 H 0.06886 0.3961 0.00326 0.0
H494 H 0.12145 0.26186 0.064 0.0
H495 H 0.98914 0.39132 0.06694 0.0
H496 H 0.08581 0.34451 0.02169 0.0
H497 H 0.02219 0.30662 0.10561 0.0
C498 C 0.05742 0.27115 0.11171 0.0
C499 C 0.08592 0.25835 0.10074 0.0
C500 C 0.06443 0.3546 0.0314 0.0
C501 C 0.05888 0.30973 0.06969 0.0
C502 C 0.05472 0.3841 0.0209 0.0
C503 C 0.02771 0.39829 0.03384 0.0
C504 C 0.04715 0.33921 0.05517 0.0
C505 C 0.01024 0.38145 0.05644 0.0
C506 C 0.04377 0.29667 0.09622 0.0
C507 C 0.09944 0.27101 0.07321 0.0
N508 N 0.02046 0.35297 0.06662 0.0
N509 N 0.08601 0.29627 0.05884 0.0
H510 H 0.61004 0.25243 0.95864 0.0
H511 H 0.49126 0.10621 0.94674 0.0
H512 H 0.5517 0.23279 0.87668 0.0
H513 H 0.56256 0.11689 0.01973 0.0
H514 H 0.50643 0.15742 0.92535 0.0
H515 H 0.58602 0.20772 0.98586 0.0
C516 C 0.59188 0.23895 0.94654 0.0
C517 C 0.58308 0.2461 0.91525 0.0
C518 C 0.51854 0.14863 0.94621 0.0
C519 C 0.55569 0.19482 0.9461 0.0
C520 C 0.50983 0.11945 0.9585 0.0
C521 C 0.52593 0.10706 0.98484 0.0
C522 C 0.5434 0.16556 0.96046 0.0
C523 C 0.54976 0.12532 -0.00085 0.0
C524 C 0.57831 0.21333 0.962 0.0
C525 C 0.55958 0.22771 0.9006 0.0
N526 N 0.55789 0.15354 0.98666 0.0
N527 N 0.54681 0.2028 0.91609 0.0
H528 H 0.95333 0.75107 0.40278 0.0
H529 H 2e-05 0.86047 0.54976 0.0
H530 H 0.94873 0.7186 0.49974 0.0
H531 H 0.98477 0.89239 0.45371 0.0
H532 H 0.99019 0.80633 0.53197 0.0
H533 H 0.97525 0.80036 0.42123 0.0
C534 C 0.95754 0.75395 0.42797 0.0
C535 C 0.94905 0.73049 0.44972 0.0
C536 C 0.98923 0.82526 0.51487 0.0
C537 C 0.97329 0.78783 0.47118 0.0
C538 C 0.99487 0.85608 0.52496 0.0
C539 C 0.99283 0.88098 0.50324 0.0
C540 C 0.98194 0.81948 0.48284 0.0
C541 C 0.98616 0.87402 0.47139 0.0
C542 C 0.96975 0.7824 0.43854 0.0
C543 C 0.95448 0.73619 0.48216 0.0
N544 N 0.9809 0.844 0.46222 0.0
N545 N 0.96602 0.76444 0.49197 0.0
H546 H 0.4817 0.77373 0.60311 0.0
H547 H 0.43377 0.63306 0.4866 0.0
H548 H 0.42561 0.78678 0.51837 0.0
H549 H 0.50342 0.62475 0.56144 0.0
H550 H 0.42852 0.68888 0.49901 0.0
H551 H 0.48789 0.71837 0.58947 0.0
C552 C 0.47064 0.7649 0.58166 0.0
C553 C 0.45309 0.78485 0.56186 0.0
C554 C 0.445 0.67482 0.51263 0.0
C555 C 0.46012 0.72154 0.54602 0.0
C556 C 0.44797 0.64293 0.50561 0.0
C557 C 0.46905 0.62413 0.52301 0.0
C558 C 0.46306 0.68796 0.53737 0.0
C559 C 0.48689 0.63828 0.54734 0.0
C560 C 0.47431 0.73334 0.57378 0.0
C561 C 0.43958 0.77226 0.53413 0.0
N562 N 0.48339 0.66927 0.55386 0.0
N563 N 0.44325 0.74136 0.5271 0.0
H564 H 0.99627 0.91641 0.81254 0.0
H565 H 0.96129 0.02324 0.66024 0.0
H566 H 0.94138 0.00165 0.81542 0.0
H567 H 0.01581 0.93769 0.65718 0.0
H568 H 0.95449 0.01616 0.71723 0.0
H569 H 0.00446 0.92428 0.75577 0.0
C570 C 0.98589 0.93677 0.80122 0.0
C571 C 0.96803 0.95836 0.81878 0.0
C572 C 0.96796 -0.00106 0.7041 0.0
C573 C 0.97749 0.96763 0.75377 0.0
C574 C 0.97184 0.00294 0.6715 0.0
C575 C 0.98913 0.981 0.65379 0.0
C576 C 0.98144 0.9728 0.71921 0.0
C577 C 0.00226 0.9552 0.6698 0.0
C578 C 0.99069 0.94132 0.76882 0.0
C579 C 0.9556 0.98458 0.80293 0.0
N580 N 0.99812 0.95181 0.70157 0.0
N581 N 0.96047 0.98842 0.77133 0.0
H582 H 0.5854 0.02708 0.29884 0.0
H583 H 0.54141 0.06903 0.12277 0.0
H584 H 0.55475 0.11957 0.27055 0.0
H585 H 0.52213 0.97609 0.15854 0.0
H586 H 0.5514 0.08695 0.17674 0.0
H587 H 0.56576 0.0064 0.24807 0.0
C588 C 0.57414 0.04297 0.28225 0.0
C589 C 0.5723 0.07527 0.28877 0.0
C590 C 0.54479 0.06267 0.17287 0.0
C591 C 0.55051 0.05184 0.23066 0.0
C592 C 0.53932 0.05236 0.14205 0.0
C593 C 0.5311 0.02099 0.13621 0.0
C594 C 0.5427 0.04137 0.19812 0.0
C595 C 0.5284 0.00048 0.16213 0.0
C596 C 0.56306 0.03113 0.25329 0.0
C597 C 0.55762 0.09471 0.26623 0.0
N598 N 0.53462 0.01094 0.19208 0.0
N599 N 0.54774 0.08278 0.23805 0.0
H600 H 0.408 0.57703 0.22912 0.0
H601 H 0.5084 0.49394 0.36675 0.0
H602 H 0.49065 0.52031 0.2116 0.0
H603 H 0.42833 0.55438 0.38395 0.0
H604 H 0.50175 0.50241 0.30984 0.0
H605 H 0.41463 0.56814 0.28591 0.0
C606 C 0.42767 0.56283 0.23723 0.0
C607 C 0.44891 0.54953 0.21554 0.0
C608 C 0.48565 0.51382 0.32607 0.0
C609 C 0.45643 0.53894 0.28063 0.0
C610 C 0.48942 0.50901 0.35861 0.0
C611 C 0.4689 0.52348 0.38025 0.0
C612 C 0.46115 0.53322 0.31502 0.0
C613 C 0.44475 0.54274 0.36822 0.0
C614 C 0.43134 0.55762 0.26967 0.0
C615 C 0.47355 0.5308 0.22742 0.0
N616 N 0.44155 0.54702 0.33644 0.0
N617 N 0.47667 0.52611 0.25917 0.0
H618 H 0.06129 0.41004 0.75487 0.0
H619 H 0.98881 0.53426 0.87517 0.0
H620 H 0.01769 0.49537 0.72122 0.0
H621 H 0.05877 0.46456 0.89999 0.0
H622 H 0.99437 0.51931 0.81918 0.0
H623 H 0.05418 0.42762 0.80901 0.0
C624 C 0.04968 0.43232 0.75889 0.0
C625 C 0.03969 0.45111 0.73345 0.0
C626 C 0.00858 0.50755 0.83699 0.0
C627 C 0.03225 0.47186 0.79577 0.0
C628 C 0.00546 0.51603 0.86889 0.0
C629 C 0.02322 0.5005 0.89237 0.0
C630 C 0.0293 0.48321 0.82875 0.0
C631 C 0.04446 0.47712 0.88285 0.0
C632 C 0.04602 0.44255 0.78988 0.0
C633 C 0.02568 0.4802 0.74021 0.0
N634 N 0.0467 0.46907 0.85188 0.0
N635 N 0.02226 0.48973 0.77086 0.0
H636 H 0.78217 0.92049 0.94687 0.0
H637 H 0.64417 0.01583 0.03334 0.0
H638 H 0.79912 -0.00167 0.01031 0.0
H639 H 0.62731 0.93634 0.97188 0.0
H640 H 0.70095 0.00968 0.02528 0.0
H641 H 0.72536 0.92613 0.9555 0.0
C642 C 0.77393 0.93892 0.96246 0.0
C643 C 0.79546 0.95907 0.97779 0.0
C644 C 0.68485 0.99355 0.01359 0.0
C645 C 0.73037 0.96541 0.98809 0.0
C646 C 0.65236 0.99703 0.01818 0.0
C647 C 0.63084 0.97659 0.00323 0.0
C648 C 0.696 0.96948 0.99386 0.0
C649 C 0.64296 0.95266 0.98389 0.0
C650 C 0.74148 0.94199 0.96755 0.0
C651 C 0.78341 0.98211 -0.00178 0.0
N652 N 0.67472 0.94982 0.97972 0.0
N653 N 0.75168 0.98469 0.00272 0.0
H654 H 0.73712 0.09173 0.50987 0.0
H655 H 0.88206 0.97787 0.47954 0.0
H656 H 0.73193 0.01151 0.44742 0.0
H657 H 0.88068 0.04682 0.55462 0.0
H658 H 0.82586 0.9874 0.47002 0.0
H659 H 0.78763 0.07271 0.5301 0.0
C660 C 0.74617 0.06971 0.5009 0.0
C661 C 0.73033 0.05344 0.47654 0.0
C662 C 0.83776 0.00021 0.4888 0.0
C663 C 0.78883 0.03199 0.49904 0.0
C664 C 0.86992 0.99488 0.49417 0.0
C665 C 0.88626 0.01184 0.51768 0.0
C666 C 0.82184 0.02292 0.50682 0.0
C667 C 0.86915 0.03335 0.5361 0.0
C668 C 0.77524 0.059 0.5123 0.0
C669 C 0.74363 0.02525 0.46564 0.0
N670 N 0.83798 0.03853 0.53003 0.0
N671 N 0.77231 0.01568 0.47662 0.0
H672 H 0.29215 0.54083 0.00445 0.0
H673 H 0.11815 0.56334 0.07437 0.0
H674 H 0.27451 0.5688 0.10128 0.0
H675 H 0.1379 0.51049 0.98931 0.0
H676 H 0.17512 0.57094 0.08228 0.0
H677 H 0.23528 0.53437 0.99637 0.0
C678 C 0.27641 0.5454 0.02411 0.0
C679 C 0.2883 0.55529 0.05365 0.0
C680 C 0.16692 0.55769 0.06191 0.0
C681 C 0.22297 0.54855 0.04428 0.0
C682 C 0.13442 0.55344 0.0573 0.0
C683 C 0.12321 0.53616 0.03119 0.0
C684 C 0.18832 0.54487 0.04006 0.0
C685 C 0.14542 0.52382 0.00988 0.0
C686 C 0.24389 0.54189 0.0194 0.0
C687 C 0.26652 0.56156 0.07797 0.0
N688 N 0.17688 0.52848 0.01475 0.0
N689 N 0.23493 0.55814 0.07272 0.0
H690 H 0.19804 0.51417 0.55128 0.0
H691 H 0.36288 0.43842 0.51507 0.0
H692 H 0.20742 0.41794 0.52101 0.0
H693 H 0.34758 0.53746 0.5003 0.0
H694 H 0.3057 0.43083 0.51912 0.0
H695 H 0.25226 0.5244 0.53322 0.0
C696 C 0.21126 0.49544 0.54014 0.0
C697 C 0.19834 0.46517 0.53769 0.0
C698 C 0.31484 0.45418 0.51467 0.0
C699 C 0.26027 0.47642 0.51786 0.0
C700 C 0.34745 0.45856 0.51263 0.0
C701 C 0.35994 0.48863 0.50757 0.0
C702 C 0.29458 0.48015 0.51232 0.0
C703 C 0.33886 0.51388 0.50425 0.0
C704 C 0.24213 0.50126 0.52989 0.0
C705 C 0.2164 0.44167 0.52313 0.0
N706 N 0.30716 0.50915 0.50714 0.0
N707 N 0.24668 0.44764 0.51433 0.0
H708 H 0.9293 0.78434 0.94324 0.0
H709 H 0.01502 0.64837 0.04222 0.0
H710 H 0.99055 0.80244 0.02344 0.0
H711 H 0.95617 0.63194 0.95978 0.0
H712 H 0.00617 0.70474 0.03631 0.0
H713 H 0.93853 0.72828 0.94966 0.0
C714 C 0.94454 0.7765 0.96237 0.0
C715 C 0.95902 0.79813 0.98297 0.0
C716 C 0.99522 0.68877 0.01952 0.0
C717 C 0.97004 0.73382 0.99024 0.0
C718 C 0.00024 0.65656 0.02288 0.0
C719 C 0.98632 0.6353 0.00147 0.0
C720 C 0.9761 0.69983 0.99461 0.0
C721 C 0.96741 0.64736 0.97687 0.0
C722 C 0.94997 0.74446 0.9659 0.0
C723 C 0.97908 0.78661 0.00689 0.0
N724 N 0.96287 0.67877 0.97415 0.0
N725 N 0.98394 0.75522 0.00993 0.0
H726 H 0.51458 0.70348 0.03494 0.0
H727 H 0.45631 0.87785 0.07194 0.0
H728 H 0.4207 0.72512 0.06823 0.0
H729 H 0.53455 0.85783 0.00955 0.0
H730 H 0.44683 0.8215 0.07745 0.0
H731 H 0.52607 0.75986 0.03174 0.0
C732 C 0.49645 0.72013 0.04161 0.0
C733 C 0.4666 0.70974 0.05166 0.0
C734 C 0.4661 0.82949 0.06261 0.0
C735 C 0.47959 0.77396 0.04836 0.0
C736 C 0.47163 0.86163 0.05957 0.0
C737 C 0.49618 0.87259 0.04013 0.0
C738 C 0.48547 0.80814 0.04642 0.0
C739 C 0.51522 0.85044 0.02461 0.0
C740 C 0.50295 0.75222 0.03968 0.0
C741 C 0.44387 0.73222 0.05995 0.0
N742 N 0.5095 0.81926 0.02813 0.0
N743 N 0.45087 0.76328 0.05824 0.0
H744 H 0.01331 0.27899 0.60117 0.0
H745 H 0.06119 0.11881 0.51705 0.0
H746 H 0.08261 0.27154 0.52664 0.0
H747 H 0.98259 0.12548 0.58193 0.0
H748 H 0.06761 0.17531 0.51943 0.0
H749 H -0.00114 0.22396 0.59256 0.0
C750 C 0.025 0.26597 0.58253 0.0
C751 C 0.04945 0.27972 0.5648 0.0
C752 C 0.04886 0.16455 0.53311 0.0
C753 C 0.03353 0.21674 0.55533 0.0
C754 C 0.04528 0.13214 0.53194 0.0
C755 C 0.02144 0.11726 0.54955 0.0
C756 C 0.02867 0.18243 0.55224 0.0
C757 C 0.00138 0.13595 0.56809 0.0
C758 C 0.01693 0.2345 0.57783 0.0
C759 C 0.06404 0.26169 0.54123 0.0
N760 N 0.00557 0.16762 0.56913 0.0
N761 N 0.05609 0.23107 0.53742 0.0
H762 H 0.5606 0.2314 0.5099 0.0
H763 H 0.50575 0.39019 0.43217 0.0
H764 H 0.5347 0.23858 0.41105 0.0
H765 H 0.4892 0.3717 0.53138 0.0
H766 H 0.51866 0.33491 0.42442 0.0
H767 H 0.53623 0.28283 0.51934 0.0
C768 C 0.54935 0.24358 0.49034 0.0
C769 C 0.54967 0.23077 0.45966 0.0
C770 C 0.51187 0.34286 0.44782 0.0
C771 C 0.52241 0.28953 0.47012 0.0
C772 C 0.50467 0.37442 0.45229 0.0
C773 C 0.49653 0.38552 0.48248 0.0
C774 C 0.51165 0.32233 0.47386 0.0
C775 C 0.49531 0.36403 0.5077 0.0
C776 C 0.53542 0.27281 0.49574 0.0
C777 C 0.53474 0.24745 0.43513 0.0
N778 N 0.50327 0.33347 0.50293 0.0
N779 N 0.52217 0.27617 0.44079 0.0
loop_
_geom_bond_atom_site_label_1
_geom_bond_atom_site_label_2
_geom_bond_distance
_geom_bond_site_symmetry_2
_ccdc_geom_bond_type
P0 O11 1.490 . S
P0 C14 1.812 . S
P0 C20 1.803 . S
P0 C26 1.819 . S
H1 C15 0.941 . S
H2 C16 0.939 . S
H3 C18 0.940 . S
H4 C19 0.940 . S
H5 C21 0.939 . S
H6 C22 0.942 . S
H7 C24 0.940 . S
H8 C25 0.939 . S
H9 C27 0.941 . S
H10 C31 0.939 . S
O11 P0 1.490 . S
H12 C28 0.939 . S
H13 C30 0.940 . S
C14 P0 1.812 . S
C14 C15 1.389 . S
C14 C19 1.391 . S
C15 H1 0.941 . S
C15 C14 1.389 . S
C15 C16 1.397 . S
C16 H2 0.939 . S
C16 C15 1.397 . S
C16 C17 1.378 . S
C17 C16 1.378 . S
C17 C18 1.378 . S
C18 H3 0.940 . S
C18 C17 1.378 . S
C18 C19 1.396 . S
C19 H4 0.940 . S
C19 C14 1.391 . S
C19 C18 1.396 . S
C20 P0 1.803 . S
C20 C21 1.378 . S
C20 C25 1.400 . S
C21 H5 0.939 . S
C21 C20 1.378 . S
C21 C22 1.361 . S
C22 H6 0.942 . S
C22 C21 1.361 . S
C22 C23 1.369 . S
C23 C22 1.369 . S
C23 C24 1.404 . S
C24 H7 0.940 . S
C24 C23 1.404 . S
C24 C25 1.389 . S
C25 H8 0.939 . S
C25 C20 1.400 . S
C25 C24 1.389 . S
C26 P0 1.819 . S
C26 C27 1.391 . S
C26 C31 1.391 . S
C27 H9 0.941 . S
C27 C26 1.391 . S
C27 C28 1.396 . S
C28 H12 0.939 . S
C28 C27 1.396 . S
C28 C29 1.397 . S
C29 C28 1.397 . S
C29 C30 1.385 . S
C30 H13 0.940 . S
C30 C29 1.385 . S
C30 C31 1.388 . S
C31 H10 0.939 . S
C31 C26 1.391 . S
C31 C30 1.388 . S
P32 O43 1.490 . S
P32 C46 1.812 . S
P32 C52 1.803 . S
P32 C58 1.819 . S
H33 C47 0.941 . S
H34 C48 0.939 . S
H35 C50 0.940 . S
H36 C51 0.940 . S
H37 C53 0.939 . S
H38 C54 0.942 . S
H39 C56 0.940 . S
H40 C57 0.939 . S
H41 C59 0.941 . S
H42 C63 0.939 . S
O43 P32 1.490 . S
H44 C60 0.939 . S
H45 C62 0.940 . S
C46 P32 1.812 . S
C46 C47 1.389 . S
C46 C51 1.391 . S
C47 H33 0.941 . S
C47 C46 1.389 . S
C47 C48 1.397 . S
C48 H34 0.939 . S
C48 C47 1.397 . S
C48 C49 1.378 . S
C49 C48 1.378 . S
C49 C50 1.378 . S
C50 H35 0.940 . S
C50 C49 1.378 . S
C50 C51 1.396 . S
C51 H36 0.940 . S
C51 C46 1.391 . S
C51 C50 1.396 . S
C52 P32 1.803 . S
C52 C53 1.378 . S
C52 C57 1.400 . S
C53 H37 0.939 . S
C53 C52 1.378 . S
C53 C54 1.361 . S
C54 H38 0.942 . S
C54 C53 1.361 . S
C54 C55 1.369 . S
C55 C54 1.369 . S
C55 C56 1.404 . S
C56 H39 0.940 . S
C56 C55 1.404 . S
C56 C57 1.389 . S
C57 H40 0.939 . S
C57 C52 1.400 . S
C57 C56 1.389 . S
C58 P32 1.819 . S
C58 C59 1.391 . S
C58 C63 1.391 . S
C59 H41 0.941 . S
C59 C58 1.391 . S
C59 C60 1.396 . S
C60 H44 0.939 . S
C60 C59 1.396 . S
C60 C61 1.397 . S
C61 C60 1.397 . S
C61 C62 1.385 . S
C62 H45 0.940 . S
C62 C61 1.385 . S
C62 C63 1.388 . S
C63 H42 0.939 . S
C63 C58 1.391 . S
C63 C62 1.388 . S
P64 O75 1.490 . S
P64 C78 1.812 . S
P64 C84 1.803 . S
P64 C90 1.819 . S
H65 C79 0.941 . S
H66 C80 0.939 . S
H67 C82 0.940 . S
H68 C83 0.940 . S
H69 C85 0.939 . S
H70 C86 0.942 . S
H71 C88 0.940 . S
H72 C89 0.939 . S
H73 C91 0.941 . S
H74 C95 0.939 . S
O75 P64 1.490 . S
H76 C92 0.939 . S
H77 C94 0.940 . S
C78 P64 1.812 . S
C78 C79 1.389 . S
C78 C83 1.391 . S
C79 H65 0.941 . S
C79 C78 1.389 . S
C79 C80 1.397 . S
C80 H66 0.939 . S
C80 C79 1.397 . S
C80 C81 1.378 . S
C81 C80 1.378 . S
C81 C82 1.378 . S
C82 H67 0.940 . S
C82 C81 1.378 . S
C82 C83 1.396 . S
C83 H68 0.940 . S
C83 C78 1.391 . S
C83 C82 1.396 . S
C84 P64 1.803 . S
C84 C85 1.378 . S
C84 C89 1.400 . S
C85 H69 0.939 . S
C85 C84 1.378 . S
C85 C86 1.361 . S
C86 H70 0.942 . S
C86 C85 1.361 . S
C86 C87 1.369 . S
C87 C86 1.369 . S
C87 C88 1.404 . S
C88 H71 0.940 . S
C88 C87 1.404 . S
C88 C89 1.389 . S
C89 H72 0.939 . S
C89 C84 1.400 . S
C89 C88 1.389 . S
C90 P64 1.819 . S
C90 C91 1.391 . S
C90 C95 1.391 . S
C91 H73 0.941 . S
C91 C90 1.391 . S
C91 C92 1.396 . S
C92 H76 0.939 . S
C92 C91 1.396 . S
C92 C93 1.397 . S
C93 C92 1.397 . S
C93 C94 1.385 . S
C94 H77 0.940 . S
C94 C93 1.385 . S
C94 C95 1.388 . S
C95 H74 0.939 . S
C95 C90 1.391 . S
C95 C94 1.388 . S
P96 O107 1.490 . S
P96 C110 1.812 . S
P96 C116 1.803 . S
P96 C122 1.819 . S
H97 C111 0.941 . S
H98 C112 0.939 . S
H99 C114 0.940 . S
H100 C115 0.940 . S
H101 C117 0.939 . S
H102 C118 0.942 . S
H103 C120 0.940 . S
H104 C121 0.939 . S
H105 C123 0.941 . S
H106 C127 0.939 . S
O107 P96 1.490 . S
H108 C124 0.939 . S
H109 C126 0.940 . S
C110 P96 1.812 . S
C110 C111 1.389 . S
C110 C115 1.391 . S
C111 H97 0.941 . S
C111 C110 1.389 . S
C111 C112 1.397 . S
C112 H98 0.939 . S
C112 C111 1.397 . S
C112 C113 1.378 . S
C113 C112 1.378 . S
C113 C114 1.378 . S
C114 H99 0.940 . S
C114 C113 1.378 . S
C114 C115 1.396 . S
C115 H100 0.940 . S
C115 C110 1.391 . S
C115 C114 1.396 . S
C116 P96 1.803 . S
C116 C117 1.378 . S
C116 C121 1.400 . S
C117 H101 0.939 . S
C117 C116 1.378 . S
C117 C118 1.361 . S
C118 H102 0.942 . S
C118 C117 1.361 . S
C118 C119 1.369 . S
C119 C118 1.369 . S
C119 C120 1.404 . S
C120 H103 0.940 . S
C120 C119 1.404 . S
C120 C121 1.389 . S
C121 H104 0.939 . S
C121 C116 1.400 . S
C121 C120 1.389 . S
C122 P96 1.819 . S
C122 C123 1.391 . S
C122 C127 1.391 . S
C123 H105 0.941 . S
C123 C122 1.391 . S
C123 C124 1.396 . S
C124 H108 0.939 . S
C124 C123 1.396 . S
C124 C125 1.397 . S
C125 C124 1.397 . S
C125 C126 1.385 . S
C126 H109 0.940 . S
C126 C125 1.385 . S
C126 C127 1.388 . S
C127 H106 0.939 . S
C127 C122 1.391 . S
C127 C126 1.388 . S
P128 O139 1.490 . S
P128 C142 1.812 . S
P128 C148 1.803 . S
P128 C154 1.819 . S
H129 C143 0.945 . S
H130 C144 0.939 1_554 S
H131 C146 0.940 . S
H132 C147 0.940 . S
H133 C149 0.939 . S
H134 C150 0.942 . S
H135 C152 0.940 . S
H136 C153 0.939 . S
H137 C155 0.941 1_545 S
H138 C159 0.939 . S
O139 P128 1.490 . S
H140 C156 0.939 1_545 S
H141 C158 0.940 . S
C142 P128 1.812 . S
C142 C143 1.389 . S
C142 C147 1.391 . S
C143 H129 0.945 . S
C143 C142 1.389 . S
C143 C144 1.397 . S
C144 H130 0.939 1_556 S
C144 C143 1.397 . S
C144 C145 1.378 . S
C145 C144 1.378 . S
C145 C146 1.378 . S
C146 H131 0.940 . S
C146 C145 1.378 . S
C146 C147 1.396 . S
C147 H132 0.940 . S
C147 C142 1.391 . S
C147 C146 1.396 . S
C148 P128 1.803 . S
C148 C149 1.378 . S
C148 C153 1.400 . S
C149 H133 0.939 . S
C149 C148 1.378 . S
C149 C150 1.361 . S
C150 H134 0.942 . S
C150 C149 1.361 . S
C150 C151 1.369 . S
C151 C150 1.369 . S
C151 C152 1.404 . S
C152 H135 0.940 . S
C152 C151 1.404 . S
C152 C153 1.389 . S
C153 H136 0.939 . S
C153 C148 1.400 . S
C153 C152 1.389 . S
C154 P128 1.819 . S
C154 C155 1.391 . S
C154 C159 1.391 . S
C155 H137 0.941 1_565 S
C155 C154 1.391 . S
C155 C156 1.396 . S
C156 H140 0.939 1_565 S
C156 C155 1.396 . S
C156 C157 1.397 . S
C157 C156 1.397 . S
C157 C158 1.385 . S
C158 H141 0.940 . S
C158 C157 1.385 . S
C158 C159 1.388 . S
C159 H138 0.939 . S
C159 C154 1.391 . S
C159 C158 1.388 . S
P160 O171 1.490 . S
P160 C174 1.812 . S
P160 C180 1.803 . S
P160 C186 1.819 . S
H161 C175 0.941 . S
H162 C176 0.939 . S
H163 C178 0.940 . S
H164 C179 0.940 . S
H165 C181 0.939 . S
H166 C182 0.942 . S
H167 C184 0.940 . S
H168 C185 0.939 . S
H169 C187 0.941 . S
H170 C191 0.939 . S
O171 P160 1.490 . S
H172 C188 0.939 . S
H173 C190 0.940 . S
C174 P160 1.812 . S
C174 C175 1.389 . S
C174 C179 1.391 . S
C175 H161 0.941 . S
C175 C174 1.389 . S
C175 C176 1.397 . S
C176 H162 0.939 . S
C176 C175 1.397 . S
C176 C177 1.378 . S
C177 C176 1.378 . S
C177 C178 1.378 . S
C178 H163 0.940 . S
C178 C177 1.378 . S
C178 C179 1.396 . S
C179 H164 0.940 . S
C179 C174 1.391 . S
C179 C178 1.396 . S
C180 P160 1.803 . S
C180 C181 1.378 . S
C180 C185 1.400 . S
C181 H165 0.939 . S
C181 C180 1.378 . S
C181 C182 1.361 . S
C182 H166 0.942 . S
C182 C181 1.361 . S
C182 C183 1.369 . S
C183 C182 1.369 . S
C183 C184 1.404 . S
C184 H167 0.940 . S
C184 C183 1.404 . S
C184 C185 1.389 . S
C185 H168 0.939 . S
C185 C180 1.400 . S
C185 C184 1.389 . S
C186 P160 1.819 . S
C186 C187 1.391 . S
C186 C191 1.391 . S
C187 H169 0.941 . S
C187 C186 1.391 . S
C187 C188 1.396 . S
C188 H172 0.939 . S
C188 C187 1.396 . S
C188 C189 1.397 . S
C189 C188 1.397 . S
C189 C190 1.385 . S
C190 H173 0.940 . S
C190 C189 1.385 . S
C190 C191 1.388 . S
C191 H170 0.939 . S
C191 C186 1.391 . S
C191 C190 1.388 . S
P192 O203 1.490 . S
P192 C206 1.812 . S
P192 C212 1.803 . S
P192 C218 1.819 . S
H193 C207 0.941 . S
H194 C208 0.939 . S
H195 C210 0.940 . S
H196 C211 0.940 . S
H197 C213 0.939 . S
H198 C214 0.942 . S
H199 C216 0.940 . S
H200 C217 0.939 . S
H201 C219 0.941 . S
H202 C223 0.939 . S
O203 P192 1.490 . S
H204 C220 0.939 . S
H205 C222 0.940 . S
C206 P192 1.812 . S
C206 C207 1.389 . S
C206 C211 1.391 . S
C207 H193 0.941 . S
C207 C206 1.389 . S
C207 C208 1.397 . S
C208 H194 0.939 . S
C208 C207 1.397 . S
C208 C209 1.378 . S
C209 C208 1.378 . S
C209 C210 1.378 . S
C210 H195 0.940 . S
C210 C209 1.378 . S
C210 C211 1.396 . S
C211 H196 0.940 . S
C211 C206 1.391 . S
C211 C210 1.396 . S
C212 P192 1.803 . S
C212 C213 1.378 . S
C212 C217 1.400 . S
C213 H197 0.939 . S
C213 C212 1.378 . S
C213 C214 1.361 . S
C214 H198 0.942 . S
C214 C213 1.361 . S
C214 C215 1.369 . S
C215 C214 1.369 . S
C215 C216 1.404 . S
C216 H199 0.940 . S
C216 C215 1.404 . S
C216 C217 1.389 . S
C217 H200 0.939 . S
C217 C212 1.400 . S
C217 C216 1.389 . S
C218 P192 1.819 . S
C218 C219 1.391 . S
C218 C223 1.391 . S
C219 H201 0.941 . S
C219 C218 1.391 . S
C219 C220 1.396 . S
C220 H204 0.939 . S
C220 C219 1.396 . S
C220 C221 1.397 . S
C221 C220 1.397 . S
C221 C222 1.385 . S
C222 H205 0.940 . S
C222 C221 1.385 . S
C222 C223 1.388 . S
C223 H202 0.939 . S
C223 C218 1.391 . S
C223 C222 1.388 . S
P224 O235 1.490 . S
P224 C238 1.812 . S
P224 C244 1.803 . S
P224 C250 1.819 . S
H225 C239 0.941 . S
H226 C240 0.939 . S
H227 C242 0.940 . S
H228 C243 0.940 . S
H229 C245 0.939 . S
H230 C246 0.942 . S
H231 C248 0.940 . S
H232 C249 0.939 . S
H233 C251 0.941 . S
H234 C255 0.939 . S
O235 P224 1.490 . S
H236 C252 0.939 . S
H237 C254 0.940 . S
C238 P224 1.812 . S
C238 C239 1.389 . S
C238 C243 1.391 . S
C239 H225 0.941 . S
C239 C238 1.389 . S
C239 C240 1.397 . S
C240 H226 0.939 . S
C240 C239 1.397 . S
C240 C241 1.378 . S
C241 C240 1.378 . S
C241 C242 1.378 . S
C242 H227 0.940 . S
C242 C241 1.378 . S
C242 C243 1.396 . S
C243 H228 0.940 . S
C243 C238 1.391 . S
C243 C242 1.396 . S
C244 P224 1.803 . S
C244 C245 1.378 . S
C244 C249 1.400 . S
C245 H229 0.939 . S
C245 C244 1.378 . S
C245 C246 1.361 . S
C246 H230 0.942 . S
C246 C245 1.361 . S
C246 C247 1.369 . S
C247 C246 1.369 . S
C247 C248 1.404 . S
C248 H231 0.940 . S
C248 C247 1.404 . S
C248 C249 1.389 . S
C249 H232 0.939 . S
C249 C244 1.400 . S
C249 C248 1.389 . S
C250 P224 1.819 . S
C250 C251 1.391 . S
C250 C255 1.391 . S
C251 H233 0.941 . S
C251 C250 1.391 . S
C251 C252 1.396 . S
C252 H236 0.939 . S
C252 C251 1.396 . S
C252 C253 1.397 . S
C253 C252 1.397 . S
C253 C254 1.385 . S
C254 H237 0.940 . S
C254 C253 1.385 . S
C254 C255 1.388 . S
C255 H234 0.939 . S
C255 C250 1.391 . S
C255 C254 1.388 . S
O256 Zn257 1.953 . S
O256 C272 1.225 1_655 S
Zn257 O256 1.953 . S
Zn257 O258 1.949 1_655 S
Zn257 O264 1.919 . S
Zn257 O269 1.924 . S
O258 Zn257 1.949 1_455 S
O258 Zn259 1.923 1_445 S
O258 Zn260 1.950 . S
O258 Zn261 1.945 1_545 S
Zn259 O258 1.923 1_665 S
Zn259 O262 1.933 . S
Zn259 O265 1.941 1_565 S
Zn259 O266 1.965 1_665 S
Zn260 O258 1.950 . S
Zn260 O267 1.938 . S
Zn260 O268 1.906 1_545 S
Zn260 O278 1.953 . S
Zn261 O258 1.945 1_565 S
Zn261 O263 1.932 1_455 S
Zn261 O270 1.977 . S
Zn261 O271 1.910 1_455 S
O262 Zn259 1.933 . S
O262 C273 1.226 . S
O263 Zn261 1.932 1_655 S
O263 C273 1.307 . S
O264 Zn257 1.919 . S
O264 C275 1.253 . S
O265 Zn259 1.941 1_545 S
O265 C275 1.283 . S
O266 Zn259 1.965 1_445 S
O266 C274 1.303 . S
O267 Zn260 1.938 . S
O267 C274 1.247 . S
O268 Zn260 1.906 1_565 S
O268 C276 1.304 . S
O269 Zn257 1.924 . S
O269 C277 1.311 1_545 S
O270 Zn261 1.977 . S
O270 C276 1.272 . S
O271 Zn261 1.910 1_655 S
O271 C277 1.231 . S
C272 O256 1.225 1_455 S
C272 O278 1.298 . S
C273 O262 1.226 . S
C273 O263 1.307 . S
C274 O266 1.303 . S
C274 O267 1.247 . S
C275 O264 1.253 . S
C275 O265 1.283 . S
C276 O268 1.304 . S
C276 O270 1.272 . S
C277 O269 1.311 1_565 S
C277 O271 1.231 . S
O278 Zn260 1.953 . S
O278 C272 1.298 . S
O279 Zn280 1.953 . S
O279 C295 1.225 . S
Zn280 O279 1.953 . S
Zn280 O281 1.949 1_556 S
Zn280 O287 1.919 . S
Zn280 O292 1.924 1_556 S
O281 Zn280 1.949 1_554 S
O281 Zn282 1.923 1_545 S
O281 Zn283 1.950 . S
O281 Zn284 1.945 1_545 S
Zn282 O281 1.923 1_565 S
Zn282 O285 1.933 . S
Zn282 O288 1.941 1_554 S
Zn282 O289 1.965 . S
Zn283 O281 1.950 . S
Zn283 O290 1.938 . S
Zn283 O291 1.906 . S
Zn283 O301 1.953 . S
Zn284 O281 1.945 1_565 S
Zn284 O286 1.932 . S
Zn284 O293 1.977 1_565 S
Zn284 O294 1.910 1_565 S
O285 Zn282 1.933 . S
O285 C296 1.226 . S
O286 Zn284 1.932 . S
O286 C296 1.307 . S
O287 Zn280 1.919 . S
O287 C298 1.253 1_545 S
O288 Zn282 1.941 1_556 S
O288 C298 1.283 . S
O289 Zn282 1.965 . S
O289 C297 1.303 . S
O290 Zn283 1.938 . S
O290 C297 1.247 1_545 S
O291 Zn283 1.906 . S
O291 C299 1.304 . S
O292 Zn280 1.924 1_554 S
O292 C300 1.311 . S
O293 Zn284 1.977 1_545 S
O293 C299 1.272 . S
O294 Zn284 1.910 1_545 S
O294 C300 1.231 . S
C295 O279 1.225 . S
C295 O301 1.298 1_556 S
C296 O285 1.226 . S
C296 O286 1.307 . S
C297 O289 1.303 . S
C297 O290 1.247 1_565 S
C298 O287 1.253 1_565 S
C298 O288 1.283 . S
C299 O291 1.304 . S
C299 O293 1.272 . S
C300 O292 1.311 . S
C300 O294 1.231 . S
O301 Zn283 1.953 . S
O301 C295 1.298 1_554 S
O302 Zn303 1.953 . S
O302 C318 1.225 . S
Zn303 O302 1.953 . S
Zn303 O304 1.949 . S
Zn303 O310 1.919 . S
Zn303 O315 1.924 . S
O304 Zn303 1.949 . S
O304 Zn305 1.923 . S
O304 Zn306 1.950 . S
O304 Zn307 1.945 . S
Zn305 O304 1.923 . S
Zn305 O308 1.933 . S
Zn305 O311 1.941 . S
Zn305 O312 1.965 . S
Zn306 O304 1.950 . S
Zn306 O313 1.938 . S
Zn306 O314 1.906 . S
Zn306 O324 1.953 . S
Zn307 O304 1.945 . S
Zn307 O309 1.932 . S
Zn307 O316 1.977 . S
Zn307 O317 1.910 . S
O308 Zn305 1.933 . S
O308 C319 1.226 . S
O309 Zn307 1.932 . S
O309 C319 1.307 . S
O310 Zn303 1.919 . S
O310 C321 1.253 . S
O311 Zn305 1.941 . S
O311 C321 1.283 . S
O312 Zn305 1.965 . S
O312 C320 1.303 . S
O313 Zn306 1.938 . S
O313 C320 1.247 . S
O314 Zn306 1.906 . S
O314 C322 1.304 . S
O315 Zn303 1.924 . S
O315 C323 1.311 . S
O316 Zn307 1.977 . S
O316 C322 1.272 . S
O317 Zn307 1.910 . S
O317 C323 1.231 . S
C318 O302 1.225 . S
C318 O324 1.298 . S
C319 O308 1.226 . S
C319 O309 1.307 . S
C320 O312 1.303 . S
C320 O313 1.247 . S
C321 O310 1.253 . S
C321 O311 1.283 . S
C322 O314 1.304 . S
C322 O316 1.272 . S
C323 O315 1.311 . S
C323 O317 1.231 . S
O324 Zn306 1.953 . S
O324 C318 1.298 . S
O325 Zn326 1.953 . S
O325 C341 1.225 . S
Zn326 O325 1.953 . S
Zn326 O327 1.949 1_655 S
Zn326 O333 1.919 . S
Zn326 O338 1.924 . S
O327 Zn326 1.949 1_455 S
O327 Zn328 1.923 1_454 S
O327 Zn329 1.950 . S
O327 Zn330 1.945 1_554 S
Zn328 O327 1.923 1_656 S
Zn328 O331 1.933 1_655 S
Zn328 O334 1.941 . S
Zn328 O335 1.965 . S
Zn329 O327 1.950 . S
Zn329 O336 1.938 . S
Zn329 O337 1.906 . S
Zn329 O347 1.953 . S
Zn330 O327 1.945 1_556 S
Zn330 O332 1.932 . S
Zn330 O339 1.977 1_556 S
Zn330 O340 1.910 1_556 S
O331 Zn328 1.933 1_455 S
O331 C342 1.226 . S
O332 Zn330 1.932 . S
O332 C342 1.307 . S
O333 Zn326 1.919 . S
O333 C344 1.253 1_554 S
O334 Zn328 1.941 . S
O334 C344 1.283 . S
O335 Zn328 1.965 . S
O335 C343 1.303 . S
O336 Zn329 1.938 . S
O336 C343 1.247 1_454 S
O337 Zn329 1.906 . S
O337 C345 1.304 . S
O338 Zn326 1.924 . S
O338 C346 1.311 1_655 S
O339 Zn330 1.977 1_554 S
O339 C345 1.272 . S
O340 Zn330 1.910 1_554 S
O340 C346 1.231 . S
C341 O325 1.225 . S
C341 O347 1.298 1_655 S
C342 O331 1.226 . S
C342 O332 1.307 . S
C343 O335 1.303 . S
C343 O336 1.247 1_656 S
C344 O333 1.253 1_556 S
C344 O334 1.283 . S
C345 O337 1.304 . S
C345 O339 1.272 . S
C346 O338 1.311 1_455 S
C346 O340 1.231 . S
O347 Zn329 1.953 . S
O347 C341 1.298 1_455 S
H348 C354 0.930 . S
H349 C358 0.930 . S
H350 C363 0.929 . S
H351 C361 0.929 . S
H352 C356 0.929 . S
H353 C362 0.929 . S
C354 H348 0.930 . S
C354 C355 1.367 . S
C354 C362 1.378 . S
C355 C354 1.367 . S
C355 C363 1.433 . S
C356 H352 0.929 . S
C356 C358 1.378 . S
C356 C360 1.350 . S
C357 C360 1.463 . S
C357 C362 1.350 . S
C357 N365 1.427 . S
C358 H349 0.930 . S
C358 C356 1.378 . S
C358 C359 1.367 . S
C359 C358 1.367 . S
C359 C361 1.433 . S
C360 C356 1.350 . S
C360 C357 1.463 . S
C360 N364 1.427 . S
C361 H351 0.929 . S
C361 C359 1.433 . S
C361 N364 1.384 . S
C362 H353 0.929 . S
C362 C354 1.378 . S
C362 C357 1.350 . S
C363 H350 0.929 . S
C363 C355 1.433 . S
C363 N365 1.384 . S
N364 C360 1.427 . S
N364 C361 1.384 . S
N365 C357 1.427 . S
N365 C363 1.384 . S
H366 C372 0.930 . S
H367 C376 0.930 . S
H368 C381 0.929 . S
H369 C379 0.929 . S
H370 C374 0.929 . S
H371 C380 0.929 . S
C372 H366 0.930 . S
C372 C373 1.367 . S
C372 C380 1.378 . S
C373 C372 1.367 . S
C373 C381 1.433 . S
C374 H370 0.929 . S
C374 C376 1.378 . S
C374 C378 1.350 . S
C375 C378 1.463 . S
C375 C380 1.350 . S
C375 N383 1.427 . S
C376 H367 0.930 . S
C376 C374 1.378 . S
C376 C377 1.367 . S
C377 C376 1.367 . S
C377 C379 1.433 . S
C378 C374 1.350 . S
C378 C375 1.463 . S
C378 N382 1.427 . S
C379 H369 0.929 . S
C379 C377 1.433 . S
C379 N382 1.384 . S
C380 H371 0.929 . S
C380 C372 1.378 . S
C380 C375 1.350 . S
C381 H368 0.929 . S
C381 C373 1.433 . S
C381 N383 1.384 . S
N382 C378 1.427 . S
N382 C379 1.384 . S
N383 C375 1.427 . S
N383 C381 1.384 . S
H384 C390 0.930 . S
H385 C394 0.930 . S
H386 C399 0.929 . S
H387 C397 0.929 . S
H388 C392 0.929 . S
H389 C398 0.929 . S
C390 H384 0.930 . S
C390 C391 1.367 . S
C390 C398 1.378 . S
C391 C390 1.367 . S
C391 C399 1.433 . S
C392 H388 0.929 . S
C392 C394 1.378 . S
C392 C396 1.350 . S
C393 C396 1.463 . S
C393 C398 1.350 . S
C393 N401 1.427 . S
C394 H385 0.930 . S
C394 C392 1.378 . S
C394 C395 1.367 . S
C395 C394 1.367 . S
C395 C397 1.433 . S
C396 C392 1.350 . S
C396 C393 1.463 . S
C396 N400 1.427 . S
C397 H387 0.929 . S
C397 C395 1.433 . S
C397 N400 1.384 . S
C398 H389 0.929 . S
C398 C390 1.378 . S
C398 C393 1.350 . S
C399 H386 0.929 . S
C399 C391 1.433 . S
C399 N401 1.384 . S
N400 C396 1.427 . S
N400 C397 1.384 . S
N401 C393 1.427 . S
N401 C399 1.384 . S
H402 C408 0.930 . S
H403 C412 0.930 . S
H404 C417 0.929 . S
H405 C415 0.929 . S
H406 C410 0.929 . S
H407 C416 0.929 . S
C408 H402 0.930 . S
C408 C409 1.367 . S
C408 C416 1.378 . S
C409 C408 1.367 . S
C409 C417 1.433 . S
C410 H406 0.929 . S
C410 C412 1.378 . S
C410 C414 1.350 . S
C411 C414 1.463 . S
C411 C416 1.350 . S
C411 N419 1.427 . S
C412 H403 0.930 . S
C412 C410 1.378 . S
C412 C413 1.367 . S
C413 C412 1.367 . S
C413 C415 1.433 . S
C414 C410 1.350 . S
C414 C411 1.463 . S
C414 N418 1.427 . S
C415 H405 0.929 . S
C415 C413 1.433 . S
C415 N418 1.384 . S
C416 H407 0.929 . S
C416 C408 1.378 . S
C416 C411 1.350 . S
C417 H404 0.929 . S
C417 C409 1.433 . S
C417 N419 1.384 . S
N418 C414 1.427 . S
N418 C415 1.384 . S
N419 C411 1.427 . S
N419 C417 1.384 . S
H420 C426 0.930 . S
H421 C430 0.930 . S
H422 C435 0.929 . S
H423 C433 0.929 . S
H424 C428 0.929 . S
H425 C434 0.929 . S
C426 H420 0.930 . S
C426 C427 1.367 . S
C426 C434 1.378 . S
C427 C426 1.367 . S
C427 C435 1.433 . S
C428 H424 0.929 . S
C428 C430 1.378 . S
C428 C432 1.350 . S
C429 C432 1.463 . S
C429 C434 1.350 . S
C429 N437 1.427 . S
C430 H421 0.930 . S
C430 C428 1.378 . S
C430 C431 1.367 . S
C431 C430 1.367 . S
C431 C433 1.433 . S
C432 C428 1.350 . S
C432 C429 1.463 . S
C432 N436 1.427 . S
C433 H423 0.929 . S
C433 C431 1.433 . S
C433 N436 1.384 . S
C434 H425 0.929 . S
C434 C426 1.378 . S
C434 C429 1.350 . S
C435 H422 0.929 . S
C435 C427 1.433 . S
C435 N437 1.384 . S
N436 C432 1.427 . S
N436 C433 1.384 . S
N437 C429 1.427 . S
N437 C435 1.384 . S
H438 C444 0.930 . S
H439 C448 0.930 . S
H440 C453 0.929 . S
H441 C451 0.929 . S
H442 C446 0.929 . S
H443 C452 0.929 . S
C444 H438 0.930 . S
C444 C445 1.367 . S
C444 C452 1.378 . S
C445 C444 1.367 . S
C445 C453 1.433 . S
C446 H442 0.929 . S
C446 C448 1.378 . S
C446 C450 1.350 . S
C447 C450 1.463 . S
C447 C452 1.350 . S
C447 N455 1.427 . S
C448 H439 0.930 . S
C448 C446 1.378 . S
C448 C449 1.367 . S
C449 C448 1.367 . S
C449 C451 1.433 . S
C450 C446 1.350 . S
C450 C447 1.463 . S
C450 N454 1.427 . S
C451 H441 0.929 . S
C451 C449 1.433 . S
C451 N454 1.384 . S
C452 H443 0.929 . S
C452 C444 1.378 . S
C452 C447 1.350 . S
C453 H440 0.929 . S
C453 C445 1.433 . S
C453 N455 1.384 . S
N454 C450 1.427 . S
N454 C451 1.384 . S
N455 C447 1.427 . S
N455 C453 1.384 . S
H456 C462 0.930 . S
H457 C466 0.922 1_554 S
H458 C471 0.929 . S
H459 C469 0.929 . S
H460 C464 0.929 . S
H461 C470 0.929 . S
C462 H456 0.930 . S
C462 C463 1.367 . S
C462 C470 1.378 . S
C463 C462 1.367 . S
C463 C471 1.433 . S
C464 H460 0.929 . S
C464 C466 1.378 . S
C464 C468 1.350 . S
C465 C468 1.463 . S
C465 C470 1.350 . S
C465 N473 1.427 . S
C466 H457 0.922 1_556 S
C466 C464 1.378 . S
C466 C467 1.367 . S
C467 C466 1.367 . S
C467 C469 1.433 . S
C468 C464 1.350 . S
C468 C465 1.463 . S
C468 N472 1.427 . S
C469 H459 0.929 . S
C469 C467 1.433 . S
C469 N472 1.384 . S
C470 H461 0.929 . S
C470 C462 1.378 . S
C470 C465 1.350 . S
C471 H458 0.929 . S
C471 C463 1.433 . S
C471 N473 1.384 . S
N472 C468 1.427 . S
N472 C469 1.384 . S
N473 C465 1.427 . S
N473 C471 1.384 . S
H474 C480 0.930 . S
H475 C484 0.930 . S
H476 C489 0.929 . S
H477 C487 0.929 . S
H478 C482 0.929 . S
H479 C488 0.929 . S
C480 H474 0.930 . S
C480 C481 1.367 . S
C480 C488 1.378 . S
C481 C480 1.367 . S
C481 C489 1.433 . S
C482 H478 0.929 . S
C482 C484 1.378 . S
C482 C486 1.350 . S
C483 C486 1.463 . S
C483 C488 1.350 . S
C483 N491 1.427 . S
C484 H475 0.930 . S
C484 C482 1.378 . S
C484 C485 1.367 . S
C485 C484 1.367 . S
C485 C487 1.433 . S
C486 C482 1.350 . S
C486 C483 1.463 . S
C486 N490 1.427 . S
C487 H477 0.929 . S
C487 C485 1.433 . S
C487 N490 1.384 . S
C488 H479 0.929 . S
C488 C480 1.378 . S
C488 C483 1.350 . S
C489 H476 0.929 . S
C489 C481 1.433 . S
C489 N491 1.384 . S
N490 C486 1.427 . S
N490 C487 1.384 . S
N491 C483 1.427 . S
N491 C489 1.384 . S
H492 C498 0.930 . S
H493 C502 0.930 . S
H494 C507 0.929 . S
H495 C505 0.929 . S
H496 C500 0.929 . S
H497 C506 0.929 . S
C498 H492 0.930 . S
C498 C499 1.367 . S
C498 C506 1.378 . S
C499 C498 1.367 . S
C499 C507 1.433 . S
C500 H496 0.929 . S
C500 C502 1.378 . S
C500 C504 1.350 . S
C501 C504 1.463 . S
C501 C506 1.350 . S
C501 N509 1.427 . S
C502 H493 0.930 . S
C502 C500 1.378 . S
C502 C503 1.367 . S
C503 C502 1.367 . S
C503 C505 1.433 . S
C504 C500 1.350 . S
C504 C501 1.463 . S
C504 N508 1.427 . S
C505 H495 0.929 . S
C505 C503 1.433 . S
C505 N508 1.384 . S
C506 H497 0.929 . S
C506 C498 1.378 . S
C506 C501 1.350 . S
C507 H494 0.929 . S
C507 C499 1.433 . S
C507 N509 1.384 . S
N508 C504 1.427 . S
N508 C505 1.384 . S
N509 C501 1.427 . S
N509 C507 1.384 . S
H510 C516 0.930 . S
H511 C520 0.930 1_554 S
H512 C525 0.929 . S
H513 C523 0.929 . S
H514 C518 0.929 . S
H515 C524 0.929 . S
C516 H510 0.930 . S
C516 C517 1.367 . S
C516 C524 1.378 . S
C517 C516 1.367 . S
C517 C525 1.433 . S
C518 H514 0.929 . S
C518 C520 1.378 . S
C518 C522 1.350 . S
C519 C522 1.463 . S
C519 C524 1.350 . S
C519 N527 1.427 . S
C520 H511 0.930 1_556 S
C520 C518 1.378 . S
C520 C521 1.367 . S
C521 C520 1.367 . S
C521 C523 1.433 . S
C522 C518 1.350 . S
C522 C519 1.463 . S
C522 N526 1.427 . S
C523 H513 0.929 . S
C523 C521 1.433 . S
C523 N526 1.384 . S
C524 H515 0.929 . S
C524 C516 1.378 . S
C524 C519 1.350 . S
C525 H512 0.929 . S
C525 C517 1.433 . S
C525 N527 1.384 . S
N526 C522 1.427 . S
N526 C523 1.384 . S
N527 C519 1.427 . S
N527 C525 1.384 . S
H528 C534 0.930 . S
H529 C538 0.930 . S
H530 C543 0.929 . S
H531 C541 0.929 . S
H532 C536 0.929 . S
H533 C542 0.929 . S
C534 H528 0.930 . S
C534 C535 1.367 . S
C534 C542 1.378 . S
C535 C534 1.367 . S
C535 C543 1.433 . S
C536 H532 0.929 . S
C536 C538 1.378 . S
C536 C540 1.350 . S
C537 C540 1.463 . S
C537 C542 1.350 . S
C537 N545 1.427 . S
C538 H529 0.930 . S
C538 C536 1.378 . S
C538 C539 1.367 . S
C539 C538 1.367 . S
C539 C541 1.433 . S
C540 C536 1.350 . S
C540 C537 1.463 . S
C540 N544 1.427 . S
C541 H531 0.929 . S
C541 C539 1.433 . S
C541 N544 1.384 . S
C542 H533 0.929 . S
C542 C534 1.378 . S
C542 C537 1.350 . S
C543 H530 0.929 . S
C543 C535 1.433 . S
C543 N545 1.384 . S
N544 C540 1.427 . S
N544 C541 1.384 . S
N545 C537 1.427 . S
N545 C543 1.384 . S
H546 C552 0.930 . S
H547 C556 0.930 . S
H548 C561 0.929 . S
H549 C559 0.929 . S
H550 C554 0.929 . S
H551 C560 0.929 . S
C552 H546 0.930 . S
C552 C553 1.367 . S
C552 C560 1.378 . S
C553 C552 1.367 . S
C553 C561 1.433 . S
C554 H550 0.929 . S
C554 C556 1.378 . S
C554 C558 1.350 . S
C555 C558 1.463 . S
C555 C560 1.350 . S
C555 N563 1.427 . S
C556 H547 0.930 . S
C556 C554 1.378 . S
C556 C557 1.367 . S
C557 C556 1.367 . S
C557 C559 1.433 . S
C558 C554 1.350 . S
C558 C555 1.463 . S
C558 N562 1.427 . S
C559 H549 0.929 . S
C559 C557 1.433 . S
C559 N562 1.384 . S
C560 H551 0.929 . S
C560 C552 1.378 . S
C560 C555 1.350 . S
C561 H548 0.929 . S
C561 C553 1.433 . S
C561 N563 1.384 . S
N562 C558 1.427 . S
N562 C559 1.384 . S
N563 C555 1.427 . S
N563 C561 1.384 . S
H564 C570 0.930 . S
H565 C574 0.930 . S
H566 C579 0.929 . S
H567 C577 0.929 . S
H568 C572 0.929 . S
H569 C578 0.929 . S
C570 H564 0.930 . S
C570 C571 1.367 . S
C570 C578 1.378 . S
C571 C570 1.367 . S
C571 C579 1.433 1_565 S
C572 H568 0.929 . S
C572 C574 1.378 . S
C572 C576 1.350 1_545 S
C573 C576 1.463 . S
C573 C578 1.350 . S
C573 N581 1.427 1_565 S
C574 H565 0.930 . S
C574 C572 1.378 . S
C574 C575 1.367 1_545 S
C575 C574 1.367 1_565 S
C575 C577 1.433 . S
C576 C572 1.350 1_565 S
C576 C573 1.463 . S
C576 N580 1.427 . S
C577 H567 0.929 . S
C577 C575 1.433 . S
C577 N580 1.384 . S
C578 H569 0.929 . S
C578 C570 1.378 . S
C578 C573 1.350 . S
C579 H566 0.929 . S
C579 C571 1.433 1_545 S
C579 N581 1.384 . S
N580 C576 1.427 . S
N580 C577 1.384 . S
N581 C573 1.427 1_545 S
N581 C579 1.384 . S
H582 C588 0.930 1_565 S
H583 C592 0.930 . S
H584 C597 0.929 . S
H585 C595 0.929 . S
H586 C590 0.929 . S
H587 C596 0.929 1_565 S
C588 H582 0.930 1_545 S
C588 C589 1.367 . S
C588 C596 1.378 . S
C589 C588 1.367 . S
C589 C597 1.433 . S
C590 H586 0.929 . S
C590 C592 1.378 . S
C590 C594 1.350 . S
C591 C594 1.463 . S
C591 C596 1.350 . S
C591 N599 1.427 . S
C592 H583 0.930 . S
C592 C590 1.378 . S
C592 C593 1.367 . S
C593 C592 1.367 . S
C593 C595 1.433 1_545 S
C594 C590 1.350 . S
C594 C591 1.463 . S
C594 N598 1.423 1_545 S
C595 H585 0.929 . S
C595 C593 1.433 1_565 S
C595 N598 1.384 . S
C596 H587 0.929 1_545 S
C596 C588 1.378 . S
C596 C591 1.350 . S
C597 H584 0.929 . S
C597 C589 1.433 . S
C597 N599 1.384 . S
N598 C594 1.423 1_565 S
N598 C595 1.384 . S
N599 C591 1.427 . S
N599 C597 1.384 . S
H600 C606 0.930 . S
H601 C610 0.930 . S
H602 C615 0.929 . S
H603 C613 0.929 . S
H604 C608 0.929 . S
H605 C614 0.929 . S
C606 H600 0.930 . S
C606 C607 1.367 . S
C606 C614 1.378 . S
C607 C606 1.367 . S
C607 C615 1.433 . S
C608 H604 0.929 . S
C608 C610 1.378 . S
C608 C612 1.350 . S
C609 C612 1.463 . S
C609 C614 1.350 . S
C609 N617 1.427 . S
C610 H601 0.930 . S
C610 C608 1.378 . S
C610 C611 1.367 . S
C611 C610 1.367 . S
C611 C613 1.433 . S
C612 C608 1.350 . S
C612 C609 1.463 . S
C612 N616 1.427 . S
C613 H603 0.929 . S
C613 C611 1.433 . S
C613 N616 1.384 . S
C614 H605 0.929 . S
C614 C606 1.378 . S
C614 C609 1.350 . S
C615 H602 0.929 . S
C615 C607 1.433 . S
C615 N617 1.384 . S
N616 C612 1.427 . S
N616 C613 1.384 . S
N617 C609 1.427 . S
N617 C615 1.384 . S
H618 C624 0.930 . S
H619 C628 0.930 . S
H620 C633 0.929 . S
H621 C631 0.929 . S
H622 C626 0.929 . S
H623 C632 0.929 . S
C624 H618 0.930 . S
C624 C625 1.367 . S
C624 C632 1.378 . S
C625 C624 1.367 . S
C625 C633 1.433 . S
C626 H622 0.929 . S
C626 C628 1.378 . S
C626 C630 1.350 . S
C627 C630 1.463 . S
C627 C632 1.350 . S
C627 N635 1.427 . S
C628 H619 0.930 . S
C628 C626 1.378 . S
C628 C629 1.367 . S
C629 C628 1.367 . S
C629 C631 1.433 . S
C630 C626 1.350 . S
C630 C627 1.463 . S
C630 N634 1.427 . S
C631 H621 0.929 . S
C631 C629 1.433 . S
C631 N634 1.384 . S
C632 H623 0.929 . S
C632 C624 1.378 . S
C632 C627 1.350 . S
C633 H620 0.929 . S
C633 C625 1.433 . S
C633 N635 1.384 . S
N634 C630 1.427 . S
N634 C631 1.384 . S
N635 C627 1.427 . S
N635 C633 1.384 . S
H636 C642 0.930 . S
H637 C646 0.930 . S
H638 C651 0.930 1_554 S
H639 C649 0.929 . S
H640 C644 0.929 . S
H641 C650 0.929 . S
C642 H636 0.930 . S
C642 C643 1.367 . S
C642 C650 1.378 . S
C643 C642 1.367 . S
C643 C651 1.433 . S
C644 H640 0.929 . S
C644 C646 1.378 . S
C644 C648 1.350 1_544 S
C645 C648 1.463 . S
C645 C650 1.350 . S
C645 N653 1.423 1_556 S
C646 H637 0.930 . S
C646 C644 1.378 . S
C646 C647 1.367 1_544 S
C647 C646 1.367 1_566 S
C647 C649 1.433 . S
C648 C644 1.350 1_566 S
C648 C645 1.463 . S
C648 N652 1.427 . S
C649 H639 0.929 . S
C649 C647 1.433 . S
C649 N652 1.384 . S
C650 H641 0.929 . S
C650 C642 1.378 . S
C650 C645 1.350 . S
C651 H638 0.930 1_556 S
C651 C643 1.433 . S
C651 N653 1.383 1_556 S
N652 C648 1.427 . S
N652 C649 1.384 . S
N653 C645 1.423 1_554 S
N653 C651 1.383 1_554 S
H654 C660 0.930 . S
H655 C664 0.930 . S
H656 C669 0.929 . S
H657 C667 0.929 . S
H658 C662 0.929 . S
H659 C668 0.929 . S
C660 H654 0.930 . S
C660 C661 1.367 . S
C660 C668 1.378 . S
C661 C660 1.367 . S
C661 C669 1.433 . S
C662 H658 0.929 . S
C662 C664 1.378 . S
C662 C666 1.350 . S
C663 C666 1.463 . S
C663 C668 1.350 . S
C663 N671 1.427 . S
C664 H655 0.930 . S
C664 C662 1.378 . S
C664 C665 1.367 . S
C665 C664 1.367 . S
C665 C667 1.433 . S
C666 C662 1.350 . S
C666 C663 1.463 . S
C666 N670 1.427 . S
C667 H657 0.929 . S
C667 C665 1.433 . S
C667 N670 1.384 . S
C668 H659 0.929 . S
C668 C660 1.378 . S
C668 C663 1.350 . S
C669 H656 0.929 . S
C669 C661 1.433 . S
C669 N671 1.384 . S
N670 C666 1.427 . S
N670 C667 1.384 . S
N671 C663 1.427 . S
N671 C669 1.384 . S
H672 C678 0.930 . S
H673 C682 0.930 . S
H674 C687 0.929 . S
H675 C685 0.929 . S
H676 C680 0.929 . S
H677 C686 0.929 1_556 S
C678 H672 0.930 . S
C678 C679 1.367 . S
C678 C686 1.378 . S
C679 C678 1.367 . S
C679 C687 1.433 . S
C680 H676 0.929 . S
C680 C682 1.378 . S
C680 C684 1.350 . S
C681 C684 1.463 . S
C681 C686 1.350 . S
C681 N689 1.427 . S
C682 H673 0.930 . S
C682 C680 1.378 . S
C682 C683 1.367 . S
C683 C682 1.367 . S
C683 C685 1.433 1_554 S
C684 C680 1.350 . S
C684 C681 1.463 . S
C684 N688 1.444 . S
C685 H675 0.929 . S
C685 C683 1.433 1_556 S
C685 N688 1.379 1_556 S
C686 H677 0.929 1_554 S
C686 C678 1.378 . S
C686 C681 1.350 . S
C687 H674 0.929 . S
C687 C679 1.433 . S
C687 N689 1.384 . S
N688 C684 1.444 . S
N688 C685 1.379 1_554 S
N689 C681 1.427 . S
N689 C687 1.384 . S
H690 C696 0.930 . S
H691 C700 0.930 . S
H692 C705 0.929 . S
H693 C703 0.929 . S
H694 C698 0.929 . S
H695 C704 0.929 . S
C696 H690 0.930 . S
C696 C697 1.367 . S
C696 C704 1.378 . S
C697 C696 1.367 . S
C697 C705 1.433 . S
C698 H694 0.929 . S
C698 C700 1.378 . S
C698 C702 1.350 . S
C699 C702 1.463 . S
C699 C704 1.350 . S
C699 N707 1.427 . S
C700 H691 0.930 . S
C700 C698 1.378 . S
C700 C701 1.367 . S
C701 C700 1.367 . S
C701 C703 1.433 . S
C702 C698 1.350 . S
C702 C699 1.463 . S
C702 N706 1.427 . S
C703 H693 0.929 . S
C703 C701 1.433 . S
C703 N706 1.384 . S
C704 H695 0.929 . S
C704 C696 1.378 . S
C704 C699 1.350 . S
C705 H692 0.929 . S
C705 C697 1.433 . S
C705 N707 1.384 . S
N706 C702 1.427 . S
N706 C703 1.384 . S
N707 C699 1.427 . S
N707 C705 1.384 . S
H708 C714 0.930 . S
H709 C718 0.930 . S
H710 C723 0.929 1_554 S
H711 C721 0.929 . S
H712 C716 0.929 . S
H713 C722 0.929 . S
C714 H708 0.930 . S
C714 C715 1.367 . S
C714 C722 1.378 . S
C715 C714 1.367 . S
C715 C723 1.433 . S
C716 H712 0.929 . S
C716 C718 1.378 . S
C716 C720 1.350 1_554 S
C717 C720 1.463 . S
C717 C722 1.350 . S
C717 N725 1.427 1_556 S
C718 H709 0.930 . S
C718 C716 1.378 . S
C718 C719 1.367 1_554 S
C719 C718 1.367 1_556 S
C719 C721 1.433 . S
C720 C716 1.350 1_556 S
C720 C717 1.463 . S
C720 N724 1.427 . S
C721 H711 0.929 . S
C721 C719 1.433 . S
C721 N724 1.384 . S
C722 H713 0.929 . S
C722 C714 1.378 . S
C722 C717 1.350 . S
C723 H710 0.929 1_556 S
C723 C715 1.433 . S
C723 N725 1.384 1_556 S
N724 C720 1.427 . S
N724 C721 1.384 . S
N725 C717 1.427 1_554 S
N725 C723 1.384 1_554 S
H726 C732 0.930 . S
H727 C736 0.930 . S
H728 C741 0.929 . S
H729 C739 0.929 . S
H730 C734 0.929 . S
H731 C740 0.929 . S
C732 H726 0.930 . S
C732 C733 1.367 . S
C732 C740 1.378 . S
C733 C732 1.367 . S
C733 C741 1.433 . S
C734 H730 0.929 . S
C734 C736 1.378 . S
C734 C738 1.350 . S
C735 C738 1.463 . S
C735 C740 1.350 . S
C735 N743 1.427 . S
C736 H727 0.930 . S
C736 C734 1.378 . S
C736 C737 1.367 . S
C737 C736 1.367 . S
C737 C739 1.433 . S
C738 C734 1.350 . S
C738 C735 1.463 . S
C738 N742 1.427 . S
C739 H729 0.929 . S
C739 C737 1.433 . S
C739 N742 1.384 . S
C740 H731 0.929 . S
C740 C732 1.378 . S
C740 C735 1.350 . S
C741 H728 0.929 . S
C741 C733 1.433 . S
C741 N743 1.384 . S
N742 C738 1.427 . S
N742 C739 1.384 . S
N743 C735 1.427 . S
N743 C741 1.384 . S
H744 C750 0.930 . S
H745 C754 0.930 . S
H746 C759 0.929 . S
H747 C757 0.929 1_655 S
H748 C752 0.929 . S
H749 C758 0.929 . S
C750 H744 0.930 . S
C750 C751 1.367 . S
C750 C758 1.378 . S
C751 C750 1.367 . S
C751 C759 1.433 . S
C752 H748 0.929 . S
C752 C754 1.378 . S
C752 C756 1.350 . S
C753 C756 1.463 . S
C753 C758 1.350 . S
C753 N761 1.427 . S
C754 H745 0.930 . S
C754 C752 1.378 . S
C754 C755 1.367 . S
C755 C754 1.367 . S
C755 C757 1.433 . S
C756 C752 1.350 . S
C756 C753 1.463 . S
C756 N760 1.427 . S
C757 H747 0.929 1_455 S
C757 C755 1.433 . S
C757 N760 1.384 . S
C758 H749 0.929 . S
C758 C750 1.378 . S
C758 C753 1.350 . S
C759 H746 0.929 . S
C759 C751 1.433 . S
C759 N761 1.384 . S
N760 C756 1.427 . S
N760 C757 1.384 . S
N761 C753 1.427 . S
N761 C759 1.384 . S
H762 C768 0.930 . S
H763 C772 0.930 . S
H764 C777 0.929 . S
H765 C775 0.929 . S
H766 C770 0.929 . S
H767 C776 0.929 . S
C768 H762 0.930 . S
C768 C769 1.367 . S
C768 C776 1.378 . S
C769 C768 1.367 . S
C769 C777 1.433 . S
C770 H766 0.929 . S
C770 C772 1.378 . S
C770 C774 1.350 . S
C771 C774 1.463 . S
C771 C776 1.350 . S
C771 N779 1.427 . S
C772 H763 0.930 . S
C772 C770 1.378 . S
C772 C773 1.367 . S
C773 C772 1.367 . S
C773 C775 1.433 . S
C774 C770 1.350 . S
C774 C771 1.463 . S
C774 N778 1.427 . S
C775 H765 0.929 . S
C775 C773 1.433 . S
C775 N778 1.384 . S
C776 H767 0.929 . S
C776 C768 1.378 . S
C776 C771 1.350 . S
C777 H764 0.929 . S
C777 C769 1.433 . S
C777 N779 1.384 . S
N778 C774 1.427 . S
N778 C775 1.384 . S
N779 C771 1.427 . S
N779 C777 1.384 . S
C355 C29 1.567 . S
C359 C274 1.611 . S
C373 C49 1.555 . S
C377 C298 1.519 . S
C395 C318 1.458 . S
C391 C93 1.379 . S
C409 C119 1.319 . S
C413 C341 1.398 . S
C431 C300 1.636 . S
C427 C17 1.622 . S
C449 C276 1.667 . S
C445 C61 1.707 . S
C467 C344 1.533 . S
C463 C81 1.501 . S
C485 C321 1.585 . S
C481 C125 1.537 . S
C499 C23 1.325 . S
C503 C346 1.338 . S
C521 C295 1.606 . S
C517 C87 1.519 . S
C535 C113 1.570 . S
C539 C273 1.656 . S
C553 C55 1.388 . S
C557 C323 1.346 . S
C575 C277 1.643 . S
C571 C157 1.652 . S
C589 C189 1.510 . S
C593 C299 1.605 . S
C607 C221 1.776 . S
C611 C319 1.769 . S
C625 C253 1.639 . S
C629 C342 1.780 . S
C643 C145 1.633 . S
C647 C297 1.578 1_556 S
C665 C275 1.549 . S
C661 C183 1.439 . S
C683 C345 1.493 . S
C679 C209 1.540 . S
C701 C322 1.501 . S
C697 C247 1.439 . S
C715 C151 1.895 . S
C719 C343 1.836 . S
C737 C296 1.564 . S
C733 C215 1.574 . S
C755 C272 1.601 . S
C751 C241 1.500 . S
C769 C177 1.767 . S
C773 C320 1.839 . S
