# Generated by pormake.
# Topology anh, (6,3)-cn, num edge types: 1
# Building blocks:
#     Node 0, Type 0, BuildingBlock: BETFAJ_clean_sbu_0, # of connection points: 6
#     Node 1, Type 0, BuildingBlock: BETFAJ_clean_sbu_0, # of connection points: 6
#     Node 2, Type 0, BuildingBlock: BETFAJ_clean_sbu_0, # of connection points: 6
#     Node 3, Type 1, BuildingBlock: CUQRIR_clean_linker_1, # of connection points: 3
#     Node 4, Type 1, BuildingBlock: CUQRIR_clean_linker_1, # of connection points: 3
#     Node 5, Type 1, BuildingBlock: CUQRIR_clean_linker_1, # of connection points: 3
#     Node 6, Type 1, BuildingBlock: CUQRIR_clean_linker_1, # of connection points: 3
#     Node 7, Type 1, BuildingBlock: CUQRIR_clean_linker_1, # of connection points: 3
#     Node 8, Type 1, BuildingBlock: CUQRIR_clean_linker_1, # of connection points: 3
#     Edge 9, Type (0, 1), BuildingBlock: XIVTED_clean_linker_0, # of connection points: 2
#     Edge 10, Type (0, 1), BuildingBlock: XIVTED_clean_linker_0, # of connection points: 2
#     Edge 11, Type (0, 1), BuildingBlock: XIVTED_clean_linker_0, # of connection points: 2
#     Edge 12, Type (0, 1), BuildingBlock: XIVTED_clean_linker_0, # of connection points: 2
#     Edge 13, Type (0, 1), BuildingBlock: XIVTED_clean_linker_0, # of connection points: 2
#     Edge 14, Type (0, 1), BuildingBlock: XIVTED_clean_linker_0, # of connection points: 2
#     Edge 15, Type (0, 1), BuildingBlock: XIVTED_clean_linker_0, # of connection points: 2
#     Edge 16, Type (0, 1), BuildingBlock: XIVTED_clean_linker_0, # of connection points: 2
#     Edge 17, Type (0, 1), BuildingBlock: XIVTED_clean_linker_0, # of connection points: 2
#     Edge 18, Type (0, 1), BuildingBlock: XIVTED_clean_linker_0, # of connection points: 2
#     Edge 19, Type (0, 1), BuildingBlock: XIVTED_clean_linker_0, # of connection points: 2
#     Edge 20, Type (0, 1), BuildingBlock: XIVTED_clean_linker_0, # of connection points: 2
#     Edge 21, Type (0, 1), BuildingBlock: XIVTED_clean_linker_0, # of connection points: 2
#     Edge 22, Type (0, 1), BuildingBlock: XIVTED_clean_linker_0, # of connection points: 2
#     Edge 23, Type (0, 1), BuildingBlock: XIVTED_clean_linker_0, # of connection points: 2
#     Edge 24, Type (0, 1), BuildingBlock: XIVTED_clean_linker_0, # of connection points: 2
#     Edge 25, Type (0, 1), BuildingBlock: XIVTED_clean_linker_0, # of connection points: 2
#     Edge 26, Type (0, 1), BuildingBlock: XIVTED_clean_linker_0, # of connection points: 2
# Relax obj value: 0.203
# Max RMSD: 0.217
# Mean RMSD: 0.164
data_MOF--net-anh--node1-BETFAJ_clean_sbu_0--node2-CUQRIR_clean_linker_1--edge1-XIVTED_clean_linker_0
_symmetry_space_group_name_H-M    P1
_symmetry_Int_Tables_number       1
_symmetry_cell_setting            triclinic
loop_
_symmetry_equiv_pos_as_xyz
'x, y, z'
_cell_length_a     29.458705
_cell_length_b     35.953522
_cell_length_c     46.923921
_cell_angle_alpha  88.08928
_cell_angle_beta   90.315205
_cell_angle_gamma 130.76196
loop_
_atom_site_label
_atom_site_type_symbol
_atom_site_fract_x
_atom_site_fract_y
_atom_site_fract_z
_atom_type_partial_charge
Sm0 Sm 0.11294 0.47709 0.14564 0.0
Sm1 Sm 1.04003 0.50572 0.1446 0.0
C2 C 0.17808 0.45248 0.14312 0.0
C3 C 0.23463 0.48043 0.15832 0.0
C4 C 0.28834 0.50716 0.14262 0.0
C5 C 0.3426 0.54198 0.15579 0.0
C6 C 0.34431 0.55074 0.18506 0.0
C7 C 0.29032 0.52444 0.20063 0.0
C8 C 0.23603 0.48944 0.18745 0.0
C9 C 0.09328 0.49396 0.19925 0.0
C10 C 0.18551 0.59449 0.14673 0.0
C11 C 0.9769 0.52582 0.16552 0.0
C12 C 0.925 0.49416 0.1849 0.0
C13 C 0.91673 0.51328 0.20778 0.0
C14 C 0.86075 0.48434 0.22174 0.0
C15 C 0.81242 0.43862 0.21062 0.0
C16 C 0.82655 0.41533 0.1941 0.0
C17 C 0.88183 0.44376 0.18014 0.0
C18 C 0.07252 0.51243 0.0879 0.0
C19 C 0.96782 0.38772 0.14443 0.0
O20 O 0.17816 0.47742 0.1221 0.0
O21 O 0.12951 0.42729 0.15923 0.0
O22 O 1.05413 0.47028 0.1803 0.0
O23 O 0.14464 0.51023 0.18963 0.0
O24 O 0.19056 0.5615 0.14133 0.0
O25 O 0.13254 0.58119 0.15115 0.0
O26 O 1.02826 0.54331 0.17637 0.0
O27 O 0.96876 0.50958 0.13972 0.0
O28 O 0.08723 0.49962 0.10879 0.0
O29 O 1.03997 0.52244 0.09651 0.0
O30 O 0.96382 0.42148 0.14897 0.0
O31 O 1.02031 0.40057 0.13868 0.0
H32 H 0.28822 0.50177 0.12002 0.0
H33 H 0.38334 0.56039 0.14319 0.0
H34 H 0.29027 0.52981 0.22321 0.0
H35 H 0.19516 0.47007 0.20007 0.0
H36 H 0.95129 0.55133 0.21317 0.0
H37 H 0.85253 0.50159 0.23684 0.0
H38 H 0.79226 0.37843 0.1869 0.0
H39 H 0.88807 0.42731 0.16355 0.0
Sm40 Sm 0.68429 0.03045 0.47197 0.0
Sm41 Sm 0.60408 0.05051 0.46581 0.0
C42 C 0.73218 0.99227 0.48884 0.0
C43 C 0.71006 0.94175 0.49123 0.0
C44 C 0.68484 0.91422 0.51711 0.0
C45 C 0.66537 0.86697 0.51972 0.0
C46 C 0.67118 0.84648 0.49658 0.0
C47 C 0.6944 0.87327 0.47042 0.0
C48 C 0.71383 0.9205 0.46778 0.0
C49 C 0.67109 0.04622 0.41603 0.0
C50 C 0.53754 0.93692 0.46579 0.0
C51 C 0.55571 0.08955 0.45266 0.0
C52 C 0.5759 0.13853 0.45737 0.0
C53 C 0.58406 0.16779 0.434 0.0
C54 C 0.60477 0.21489 0.438 0.0
C55 C 0.6173 0.23337 0.4655 0.0
C56 C 0.61079 0.20452 0.4888 0.0
C57 C 0.59053 0.15761 0.48476 0.0
C58 C 0.6193 0.03562 0.52171 0.0
C59 C 0.75109 0.14463 0.46705 0.0
O60 O 0.70808 1.00276 0.50652 0.0
O61 O 0.74031 0.01104 0.46309 0.0
O62 O 0.62889 0.02049 0.43434 0.0
O63 O 0.72189 0.06296 0.42665 0.0
O64 O 0.58929 0.95171 0.47528 0.0
O65 O 0.53287 0.96924 0.4566 0.0
O66 O 0.58835 0.08852 0.43453 0.0
O67 O 0.5394 0.06081 0.4753 0.0
O68 O 0.66099 0.06214 0.50327 0.0
O69 O 0.56778 0.01615 0.51094 0.0
O70 O 0.69761 0.12821 0.45969 0.0
O71 O 0.75829 0.11382 0.47638 0.0
H72 H 0.68119 0.92951 0.53556 0.0
H73 H 0.64833 0.84744 0.54026 0.0
H74 H 0.69876 0.85809 0.45214 0.0
H75 H 0.73262 0.94057 0.44748 0.0
H76 H 0.57435 0.15416 0.41262 0.0
H77 H 0.61035 0.23665 0.4196 0.0
H78 H 0.61944 0.21746 0.5103 0.0
H79 H 0.58589 0.13625 0.50316 0.0
Sm80 Sm 0.6864 0.63357 0.82663 0.0
Sm81 Sm 0.597 0.52175 0.83641 0.0
C82 C 0.74428 0.72614 0.81094 0.0
C83 C 0.72903 0.75729 0.80503 0.0
C84 C 0.6887 0.74646 0.78368 0.0
C85 C 0.67499 0.77671 0.77881 0.0
C86 C 0.70108 0.81811 0.79529 0.0
C87 C 0.74021 0.82799 0.81707 0.0
C88 C 0.75427 0.79807 0.82175 0.0
C89 C 0.67649 0.60065 0.88099 0.0
C90 C 0.53602 0.57524 0.8364 0.0
C91 C 0.54328 0.43335 0.85857 0.0
C92 C 0.54744 0.3962 0.85058 0.0
C93 C 0.57078 0.38206 0.86993 0.0
C94 C 0.58013 0.35037 0.86185 0.0
C95 C 0.56587 0.3319 0.83431 0.0
C96 C 0.54275 0.34624 0.81493 0.0
C97 C 0.53379 0.37814 0.82293 0.0
C98 C 0.61409 0.54062 0.77802 0.0
C99 C 0.74767 0.58107 0.82972 0.0
O100 O 0.72739 0.69251 0.7927 0.0
O101 O 0.73727 0.71093 0.83751 0.0
O102 O 0.63304 0.5839 0.86484 0.0
O103 O 0.72753 0.6374 0.86923 0.0
O104 O 0.59193 0.61639 0.82893 0.0
O105 O 0.52681 0.53393 0.84209 0.0
O106 O 0.59226 0.47323 0.86896 0.0
O107 O 0.51665 0.44234 0.84076 0.0
O108 O 0.63881 0.57224 0.79687 0.0
O109 O 0.57782 0.49706 0.78994 0.0
O110 O 0.69195 0.54073 0.8376 0.0
O111 O 0.75671 0.62149 0.82134 0.0
H112 H 0.668 0.71486 0.77067 0.0
H113 H 0.645 0.76827 0.76174 0.0
H114 H 0.76004 0.85889 0.83058 0.0
H115 H 0.78487 0.80674 0.83858 0.0
H116 H 0.58258 0.39611 0.89121 0.0
H117 H 0.59776 0.33982 0.87728 0.0
H118 H 0.53234 0.33333 0.79339 0.0
H119 H 0.51706 0.38917 0.80725 0.0
C120 C 0.57545 0.99263 0.16676 0.0
N121 N 0.60942 0.02959 0.18537 0.0
N122 N 0.52936 0.94988 0.18064 0.0
C123 C 0.58592 0.99823 0.13505 0.0
C124 C 0.53607 0.96208 0.2082 0.0
N125 N 0.58402 0.01031 0.2111 0.0
C126 C 0.4971 0.92631 0.2326 0.0
H127 H 0.60514 0.03548 0.12714 0.0
H128 H 0.54356 0.97012 0.12395 0.0
H129 H 0.61817 0.99305 0.12995 0.0
H130 H 0.52531 0.93184 0.2506 0.0
H131 H 0.46827 0.88759 0.22626 0.0
H132 H 0.46776 0.93328 0.24024 0.0
C133 C 0.63465 0.53141 0.52439 0.0
N134 N 0.63159 0.55552 0.54476 0.0
N135 N 0.63493 0.49693 0.53649 0.0
C136 C 0.63742 0.54116 0.4927 0.0
C137 C 0.63167 0.50073 0.56485 0.0
N138 N 0.62979 0.53647 0.56987 0.0
C139 C 0.62966 0.46922 0.58763 0.0
H140 H 0.59363 0.5107 0.48352 0.0
H141 H 0.67206 0.54204 0.48254 0.0
H142 H 0.64684 0.57586 0.48729 0.0
H143 H 0.67595 0.48831 0.59476 0.0
H144 H 0.61077 0.43314 0.57937 0.0
H145 H 0.60252 0.46324 0.60638 0.0
C146 C 0.14358 0.57862 0.83966 0.0
N147 N 0.17361 0.56997 0.8581 0.0
N148 N 0.09553 0.57119 0.85276 0.0
C149 C 0.15953 0.59249 0.80868 0.0
C150 C 0.0986 0.55842 0.87977 0.0
N151 N 0.14395 0.55748 0.88297 0.0
C152 C 1.05722 0.54794 0.90381 0.0
H153 H 0.19851 0.63245 0.80637 0.0
H154 H 0.12152 0.58458 0.79682 0.0
H155 H 0.17253 0.57247 0.79953 0.0
H156 H 1.01708 0.50822 0.90447 0.0
H157 H 1.04232 0.5692 0.90053 0.0
H158 H 0.07856 0.5568 0.92487 0.0
C159 C 0.14232 0.53971 0.45046 0.0
N160 N 0.10193 0.50514 0.43178 0.0
N161 N 0.18024 0.5849 0.43723 0.0
C162 C 0.14306 0.53019 0.4818 0.0
C163 C 0.16144 0.5768 0.41004 0.0
N164 N 0.1137 0.52869 0.4067 0.0
C165 C 0.19187 0.61555 0.38625 0.0
H166 H 0.16479 0.56409 0.49374 0.0
H167 H 0.16905 0.51807 0.48512 0.0
H168 H 0.09683 0.50075 0.49035 0.0
H169 H 0.1962 0.60112 0.36687 0.0
H170 H 0.23695 0.64932 0.39224 0.0
H171 H 0.16388 0.62524 0.38093 0.0
C172 C 0.631 0.07677 0.77471 0.0
N173 N 0.6368 0.05454 0.75416 0.0
N174 N 0.62515 0.10823 0.7629 0.0
C175 C 0.63051 0.0675 0.80622 0.0
C176 C 0.62799 0.10457 0.73445 0.0
N177 N 0.63542 0.0721 0.72914 0.0
C178 C 0.62608 0.13407 0.71177 0.0
H179 H 0.60388 0.07403 0.81803 0.0
H180 H 0.67724 0.09318 0.8138 0.0
H181 H 0.61207 0.02937 0.8109 0.0
H182 H 0.67249 0.16485 0.70396 0.0
H183 H 0.60663 0.14969 0.7199 0.0
H184 H 0.59992 0.11092 0.69341 0.0
C185 C 0.53091 0.44564 0.12032 0.0
N186 N 0.55466 0.44476 0.09592 0.0
N187 N 0.51148 0.4705 0.11588 0.0
C188 C 0.54026 0.43304 0.1496 0.0
C189 C 0.52269 0.4835 0.08783 0.0
N190 N 0.5506 0.46929 0.07587 0.0
C191 C 0.50936 0.51281 0.07256 0.0
H192 H 0.53068 0.39769 0.14969 0.0
H193 H 0.51116 0.42986 0.16613 0.0
H194 H 0.5877 0.46221 0.15556 0.0
H195 H 0.54799 0.55263 0.07417 0.0
H196 H 0.46955 0.50482 0.08248 0.0
H197 H 0.50132 0.50415 0.04964 0.0
H198 H 0.36505 0.521 0.23384 0.0
H199 H 0.59106 0.56832 0.12241 0.0
H200 H 0.45686 0.63985 0.17073 0.0
H201 H 0.42976 0.43245 0.15846 0.0
H202 H 0.58557 0.61358 0.15836 0.0
H203 H 0.44418 0.5177 0.22999 0.0
C204 C 0.40379 0.54876 0.22042 0.0
C205 C 0.40158 0.57692 0.2 0.0
C206 C 0.5525 0.5738 0.15884 0.0
C207 C 0.49074 0.57281 0.19541 0.0
C208 C 0.55469 0.54821 0.13807 0.0
C209 C 0.50946 0.49699 0.1372 0.0
C210 C 0.50548 0.54766 0.1791 0.0
C211 C 0.46455 0.47205 0.15832 0.0
C212 C 0.44888 0.54641 0.21803 0.0
C213 C 0.45484 0.6144 0.18492 0.0
N214 N 0.46339 0.4977 0.17835 0.0
N215 N 0.49626 0.60939 0.18137 0.0
H216 H 0.75128 0.21666 0.44608 0.0
H217 H 0.10557 0.43923 0.45931 0.0
H218 H 0.87023 0.19594 0.47998 0.0
H219 H 0.98567 0.45273 0.41827 0.0
H220 H 1.02047 0.35155 0.46982 0.0
H221 H 0.83641 0.30397 0.43852 0.0
C222 C 0.7953 0.23038 0.45207 0.0
C223 C 0.80328 0.19845 0.46364 0.0
C224 C 1.01274 0.37364 0.45847 0.0
C225 C 0.90196 0.29952 0.45489 0.0
C226 C 1.06125 0.42371 0.45261 0.0
C227 C 1.0526 0.45325 0.43786 0.0
C228 C 0.95502 0.35288 0.44953 0.0
C229 C 0.99438 0.43115 0.42936 0.0
C230 C 0.84412 0.2805 0.44766 0.0
C231 C 0.86175 0.21894 0.47095 0.0
N232 N 0.94798 0.3825 0.43532 0.0
N233 N 0.90878 0.26808 0.46643 0.0
H234 H 0.59496 0.79526 0.78059 0.0
H235 H 0.73778 0.07634 0.77235 0.0
H236 H 0.78106 0.91843 0.79596 0.0
H237 H 0.55755 0.95676 0.74764 0.0
H238 H 0.7531 0.01798 0.78302 0.0
H239 H 0.57856 0.85276 0.76989 0.0
C240 C 0.63239 0.83433 0.78164 0.0
C241 C 0.68948 0.852 0.78923 0.0
C242 C 0.71031 1.00437 0.77496 0.0
C243 C 0.67088 0.91785 0.77731 0.0
C244 C 0.70189 0.03765 0.76883 0.0
C245 C 0.64705 0.02097 0.75852 0.0
C246 C 0.66317 0.95403 0.77092 0.0
C247 C 0.60095 0.97068 0.75481 0.0
C248 C 0.62293 0.8671 0.77565 0.0
C249 C 0.73608 0.903 0.79066 0.0
N250 N 0.60999 0.93877 0.76101 0.0
N251 N 0.72572 0.93404 0.78476 0.0
H252 H 0.69923 0.35168 0.19726 0.0
H253 H 0.6734 0.51775 0.09558 0.0
H254 H 0.80002 0.50783 0.20268 0.0
H255 H 0.53546 0.36045 0.09983 0.0
H256 H 0.73572 0.51139 0.12565 0.0
H257 H 0.643 0.35034 0.15809 0.0
C258 C 0.70876 0.38542 0.19085 0.0
C259 C 0.75795 0.43059 0.20202 0.0
C260 C 0.69245 0.47797 0.11941 0.0
C261 C 0.6942 0.4291 0.15747 0.0
C262 C 0.65783 0.48162 0.10145 0.0
C263 C 0.59881 0.43959 0.09632 0.0
C264 C 0.66734 0.43193 0.13192 0.0
C265 C 0.58052 0.39358 0.10417 0.0
C266 C 0.67736 0.38467 0.16815 0.0
C267 C 0.76511 0.47228 0.19406 0.0
N268 N 0.61376 0.39079 0.12275 0.0
N269 N 0.73505 0.47079 0.17167 0.0
H270 H 0.41995 0.89437 0.4614 0.0
H271 H 0.2928 0.61989 0.44541 0.0
H272 H 0.53267 0.85747 0.46866 0.0
H273 H 0.1811 0.6569 0.45229 0.0
H274 H 0.38119 0.70543 0.4554 0.0
H275 H 0.33235 0.80719 0.45897 0.0
C276 C 0.42637 0.86793 0.46246 0.0
C277 C 0.48403 0.88351 0.46511 0.0
C278 C 0.33726 0.69473 0.4553 0.0
C279 C 0.38314 0.78285 0.46219 0.0
C280 C 0.28697 0.64592 0.44986 0.0
C281 C 0.2299 0.63157 0.44852 0.0
C282 C 0.33031 0.72946 0.45915 0.0
C283 C 0.22443 0.66668 0.45356 0.0
C284 C 0.37612 0.81797 0.46119 0.0
C285 C 0.48916 0.84725 0.46665 0.0
N286 N 0.27392 0.71397 0.45847 0.0
N287 N 0.43951 0.79872 0.46492 0.0
H288 H 0.48841 0.24854 0.8047 0.0
H289 H 0.70345 0.18605 0.79531 0.0
H290 H 0.66053 0.3352 0.84486 0.0
H291 H 0.52505 0.0958 0.76256 0.0
H292 H 0.68861 0.23986 0.81568 0.0
H293 H 0.50133 0.19156 0.79016 0.0
C294 C 0.5291 0.25567 0.81037 0.0
C295 C 0.57355 0.29683 0.82589 0.0
C296 C 0.65253 0.2081 0.80422 0.0
C297 C 0.58855 0.23126 0.80951 0.0
C298 C 0.66103 0.17758 0.79275 0.0
C299 C 0.61553 0.13731 0.77709 0.0
C300 C 0.5981 0.1979 0.79988 0.0
C301 C 0.56116 0.12709 0.77427 0.0
C302 C 0.5363 0.22289 0.80225 0.0
C303 C 0.62492 0.30371 0.83308 0.0
N304 N 0.55406 0.15741 0.78535 0.0
N305 N 0.6312 0.27137 0.82468 0.0
H306 H 0.74015 0.82644 0.4779 0.0
H307 H 0.54502 0.55975 0.55447 0.0
H308 H 0.57685 0.76133 0.52534 0.0
H309 H 0.72694 0.64448 0.52422 0.0
H310 H 0.5499 0.6292 0.54095 0.0
H311 H 0.72814 0.75405 0.4896 0.0
C312 C 0.70115 0.7965 0.4904 0.0
C313 C 0.65955 0.79996 0.50076 0.0
C314 C 0.58886 0.63269 0.53746 0.0
C315 C 0.64635 0.7174 0.51491 0.0
C316 C 0.58612 0.59344 0.54534 0.0
C317 C 0.63572 0.59717 0.54031 0.0
C318 C 0.64153 0.67536 0.52439 0.0
C319 C 0.68804 0.64084 0.52829 0.0
C320 C 0.69472 0.7554 0.49739 0.0
C321 C 0.61036 0.76031 0.51726 0.0
N322 N 0.6895 0.67821 0.52051 0.0
N323 N 0.60519 0.7206 0.52396 0.0
H324 H 0.74634 0.50412 0.84568 0.0
H325 H 0.10688 0.65081 0.83137 0.0
H326 H 0.87363 0.65627 0.81775 0.0
H327 H 0.97251 0.49727 0.85459 0.0
H328 H 1.0262 0.65482 0.82509 0.0
H329 H 0.8285 0.50246 0.84862 0.0
C330 C 0.7913 0.53748 0.83998 0.0
C331 C 0.80074 0.58034 0.83118 0.0
C332 C 1.01392 0.61994 0.83124 0.0
C333 C 0.89929 0.57861 0.83478 0.0
C334 C 1.06067 0.61747 0.83448 0.0
C335 C 1.0482 0.5732 0.84297 0.0
C336 C 0.95252 0.57804 0.83674 0.0
C337 C 0.98595 0.53223 0.84754 0.0
C338 C 0.83907 0.53643 0.84173 0.0
C339 C 0.86203 0.62186 0.8245 0.0
N340 N 0.94196 0.53573 0.84454 0.0
N341 N 0.90769 0.61989 0.82643 0.0
H342 H 0.30411 0.63752 0.15378 0.0
H343 H 0.42247 0.91239 0.15898 0.0
H344 H 0.19036 0.67317 0.14465 0.0
H345 H 0.5325 0.87658 0.17991 0.0
H346 H 0.33954 0.8258 0.14846 0.0
H347 H 0.39055 0.72527 0.15906 0.0
C348 C 0.29731 0.66372 0.15259 0.0
C349 C 0.23965 0.64768 0.14868 0.0
C350 C 0.382 0.83681 0.15499 0.0
C351 C 0.33864 0.74844 0.15462 0.0
C352 C 0.42934 0.88627 0.16067 0.0
C353 C 0.48441 0.90147 0.16972 0.0
C354 C 0.38963 0.80211 0.1586 0.0
C355 C 0.49092 0.86618 0.17239 0.0
C356 C 0.34669 0.71386 0.15572 0.0
C357 C 0.23374 0.68352 0.14768 0.0
N358 N 0.44414 0.81817 0.16697 0.0
N359 N 0.28233 0.7319 0.15057 0.0
H360 H 0.56722 0.26824 0.44034 0.0
H361 H 0.72066 0.49125 0.54468 0.0
H362 H 0.69929 0.30535 0.50203 0.0
H363 H 0.56245 0.43144 0.49676 0.0
H364 H 0.72698 0.43374 0.52262 0.0
H365 H 0.58057 0.33982 0.45326 0.0
C366 C 0.59992 0.29198 0.45622 0.0
C367 C 0.63172 0.2805 0.47035 0.0
C368 C 0.69121 0.4335 0.51672 0.0
C369 C 0.64613 0.36185 0.48569 0.0
C370 C 0.68755 0.46601 0.52936 0.0
C371 C 0.64083 0.46544 0.5225 0.0
C372 C 0.64778 0.40046 0.4971 0.0
C373 C 0.5993 0.43295 0.5023 0.0
C374 C 0.60707 0.33259 0.46378 0.0
C375 C 0.67298 0.31233 0.49101 0.0
N376 N 0.60351 0.40143 0.49038 0.0
N377 N 0.67859 0.35138 0.49827 0.0
H378 H 0.52921 0.64841 0.81973 0.0
H379 H 0.18468 0.50222 0.87701 0.0
H380 H 0.41669 0.50264 0.85831 0.0
H381 H 0.28356 0.63805 0.82749 0.0
H382 H 0.26931 0.50423 0.87188 0.0
H383 H 0.44472 0.64759 0.82343 0.0
C384 C 0.48716 0.61599 0.82908 0.0
C385 C 0.48247 0.57551 0.83863 0.0
C386 C 0.27313 0.53383 0.862 0.0
C387 C 0.38156 0.57454 0.84332 0.0
C388 C 0.224 0.53296 0.86515 0.0
C389 C 0.22468 0.57017 0.85306 0.0
C390 C 0.32626 0.5725 0.84658 0.0
C391 C 0.27861 0.6079 0.83731 0.0
C392 C 0.43804 0.61559 0.83117 0.0
C393 C 0.42471 0.53515 0.85042 0.0
N394 N 0.326 0.60809 0.8348 0.0
N395 N 0.37818 0.53594 0.85246 0.0
H396 H 0.85702 0.34727 0.1665 0.0
H397 H 0.70999 0.06566 0.15487 0.0
H398 H 0.95385 0.30582 0.13289 0.0
H399 H 0.62814 0.11032 0.20145 0.0
H400 H 0.79701 0.15258 0.14377 0.0
H401 H 0.77064 0.26067 0.17636 0.0
C402 C 0.86012 0.32009 0.16082 0.0
C403 C 0.9132 0.33441 0.14855 0.0
C404 C 0.76009 0.14346 0.15644 0.0
C405 C 0.81342 0.23404 0.16015 0.0
C406 C 0.71028 0.09383 0.16262 0.0
C407 C 0.66159 0.08074 0.17896 0.0
C408 C 0.7613 0.18054 0.16652 0.0
C409 C 0.6648 0.1188 0.1889 0.0
C410 C 0.81061 0.27038 0.1667 0.0
C411 C 0.91407 0.29687 0.14221 0.0
N412 N 0.71348 0.16677 0.18246 0.0
N413 N 0.86511 0.24863 0.148 0.0
H414 H 0.09356 0.57919 0.04816 0.0
H415 H 0.09743 0.47234 0.91118 0.0
H416 H 0.10134 0.464 0.05946 0.0
H417 H 0.22091 0.62901 0.91873 0.0
H418 H 0.0911 0.46202 0.96353 0.0
H419 H 0.12891 0.5925 -0.00137 0.0
C420 C 0.10274 0.55669 0.0402 0.0
C421 C 0.09455 0.52047 0.05797 0.0
C422 C 0.12141 0.49868 0.95373 0.0
C423 C 0.13414 0.53505 0.0011 0.0
C424 C 0.12583 0.50455 0.9239 0.0
C425 C 0.16078 0.55164 0.91063 0.0
C426 C 0.15036 0.54019 0.97034 0.0
C427 C 0.19463 0.59223 0.92814 0.0
C428 C 0.12338 0.5646 0.01203 0.0
C429 C 0.1073 0.49244 0.04649 0.0
N430 N 0.18707 0.58564 0.95705 0.0
N431 N 0.1254 0.49965 0.01858 0.0
H432 H 0.57028 0.01887 0.39018 0.0
H433 H 0.69032 0.04683 0.23301 0.0
H434 H 0.75232 0.08261 0.37215 0.0
H435 H 0.52992 0.0232 0.25067 0.0
H436 H 0.71746 0.06499 0.28336 0.0
H437 H 0.55585 0.02246 0.33902 0.0
C438 C 0.60726 0.0338 0.37544 0.0
C439 C 0.6624 0.05011 0.38535 0.0
C440 C 0.67693 0.05687 0.27615 0.0
C441 C 0.64628 0.0542 0.32679 0.0
C442 C 0.66192 0.04706 0.24742 0.0
C443 C 0.60786 0.03341 0.23799 0.0
C444 C 0.63705 0.05233 0.29549 0.0
C445 C 0.57179 0.0333 0.25739 0.0
C446 C 0.59915 0.03609 0.34625 0.0
C447 C 0.70897 0.06942 0.36536 0.0
N448 N 0.58646 0.04175 0.28534 0.0
N449 N 0.69968 0.07044 0.33701 0.0
H450 H 0.70447 0.62334 0.74541 0.0
H451 H 0.53064 0.49841 0.60035 0.0
H452 H 0.53131 0.47847 0.73983 0.0
H453 H 0.72299 0.60508 0.60208 0.0
H454 H 0.52628 0.50821 0.65154 0.0
H455 H 0.70867 0.63258 0.69276 0.0
C456 C 0.66721 0.59386 0.73316 0.0
C457 C 0.61768 0.54993 0.74686 0.0
C458 C 0.56952 0.53036 0.64066 0.0
C459 C 0.62154 0.56056 0.68731 0.0
C460 C 0.57179 0.52509 0.61153 0.0
C461 C 0.62711 0.55122 0.59739 0.0
C462 C 0.6231 0.56192 0.65568 0.0
C463 C 0.67964 0.58474 0.61256 0.0
C464 C 0.66965 0.59909 0.70325 0.0
C465 C 0.57058 0.51277 0.73011 0.0
N466 N 0.67651 0.58889 0.6411 0.0
N467 N 0.57363 0.51896 0.70133 0.0
H468 H 0.53659 0.96801 0.5616 0.0
H469 H 0.7304 0.13076 0.69317 0.0
H470 H 0.72117 0.10131 0.5524 0.0
H471 H 0.5545 0.98837 0.70174 0.0
H472 H 0.73308 0.11733 0.64239 0.0
H473 H 0.54663 0.97081 0.61336 0.0
C474 C 0.57943 0.99774 0.57054 0.0
C475 C 0.6279 0.03477 0.55276 0.0
C476 C 0.69443 0.08844 0.65546 0.0
C477 C 0.63966 0.03872 0.61214 0.0
C478 C 0.69315 0.09607 0.68437 0.0
C479 C 0.64249 0.0603 0.70144 0.0
C480 C 0.64416 0.0449 0.64355 0.0
C481 C 0.59471 0.01628 0.68926 0.0
C482 C 0.58522 0.99929 0.60011 0.0
C483 C 0.68262 0.07212 0.56541 0.0
N484 N 0.59639 0.01 0.66098 0.0
N485 N 0.68678 0.07358 0.59437 0.0
H486 H 0.68325 0.53285 0.9014 0.0
H487 H 0.63795 0.56543 0.06248 0.0
H488 H 0.65707 0.63174 0.92704 0.0
H489 H 0.54475 0.42097 0.03113 0.0
H490 H 0.68247 0.60124 0.01488 0.0
H491 H 0.66546 0.50144 0.95125 0.0
C492 C 0.6736 0.5477 0.91761 0.0
C493 C 0.6698 0.58369 0.91048 0.0
C494 C 0.653 0.56176 0.01855 0.0
C495 C 0.6529 0.55038 0.96678 0.0
C496 C 0.62749 0.54145 0.04546 0.0
C497 C 0.58584 0.49033 0.04995 0.0
C498 C 0.6375 0.53062 -0.00371 0.0
C499 C 0.57562 0.46054 0.02794 0.0
C500 C 0.66409 0.53022 0.94584 0.0
C501 C 0.65945 0.60341 0.93198 0.0
N502 N 0.60067 0.48113 0.00165 0.0
N503 N 0.65135 0.58646 0.95932 0.0
H504 H 0.13378 0.46582 0.23875 0.0
H505 H 1.05317 0.54368 0.37204 0.0
H506 H 1.02365 0.50497 0.23071 0.0
H507 H 0.1198 0.46734 0.37928 0.0
H508 H 1.03388 0.52459 0.32128 0.0
H509 H 0.12273 0.46144 0.29045 0.0
C510 C 0.10683 0.47319 0.24793 0.0
C511 C 0.07998 0.48614 0.23039 0.0
C512 C 1.05137 0.51094 0.33404 0.0
C513 C 1.06787 0.48206 0.29002 0.0
C514 C 1.06201 0.5216 0.36297 0.0
C515 C 0.08795 0.50691 0.37964 0.0
C516 C 1.06784 0.48611 0.32162 0.0
C517 C 0.09933 0.47889 0.36708 0.0
C518 C 0.10033 0.47051 0.27753 0.0
C519 C 1.04512 0.49488 0.24348 0.0
N520 N 0.09018 0.47011 0.33873 0.0
N521 N 1.0409 0.49352 0.27257 0.0
loop_
_geom_bond_atom_site_label_1
_geom_bond_atom_site_label_2
_geom_bond_distance
_geom_bond_site_symmetry_2
_ccdc_geom_bond_type
Sm0 C2 2.846 . S
Sm0 O20 2.543 . S
Sm0 O21 2.450 . S
Sm0 O22 2.681 1_455 S
Sm0 O23 2.464 . S
Sm0 O24 2.396 . S
Sm0 O28 2.386 . S
Sm0 O31 2.408 1_455 S
Sm1 C11 2.846 . S
Sm1 O22 2.386 . S
Sm1 O25 2.408 1_655 S
Sm1 O26 2.543 . S
Sm1 O27 2.450 . S
Sm1 O28 2.681 1_655 S
Sm1 O29 2.464 . S
Sm1 O30 2.396 . S
C2 Sm0 2.846 . S
C2 C3 1.506 . S
C2 O20 1.261 . S
C2 O21 1.242 . S
C3 C2 1.506 . S
C3 C4 1.358 . S
C3 C8 1.382 . S
C4 C3 1.358 . S
C4 C5 1.385 . S
C4 H32 0.930 . S
C5 C4 1.385 . S
C5 C6 1.395 . S
C5 H33 0.929 . S
C6 C5 1.395 . S
C6 C7 1.335 . S
C7 C6 1.335 . S
C7 C8 1.398 . S
C7 H34 0.930 . S
C8 C3 1.382 . S
C8 C7 1.398 . S
C8 H35 0.929 . S
C9 O22 1.271 1_455 S
C9 O23 1.251 . S
C10 O24 1.252 . S
C10 O25 1.272 . S
C11 Sm1 2.846 . S
C11 C12 1.506 . S
C11 O26 1.261 . S
C11 O27 1.242 . S
C12 C11 1.506 . S
C12 C13 1.358 . S
C12 C17 1.382 . S
C13 C12 1.358 . S
C13 C14 1.385 . S
C13 H36 0.930 . S
C14 C13 1.385 . S
C14 C15 1.395 . S
C14 H37 0.929 . S
C15 C14 1.395 . S
C15 C16 1.335 . S
C16 C15 1.335 . S
C16 C17 1.398 . S
C16 H38 0.930 . S
C17 C12 1.382 . S
C17 C16 1.398 . S
C17 H39 0.929 . S
C18 O28 1.271 . S
C18 O29 1.251 1_455 S
C19 O30 1.252 . S
C19 O31 1.272 . S
O20 Sm0 2.543 . S
O20 C2 1.261 . S
O21 Sm0 2.450 . S
O21 C2 1.242 . S
O22 Sm0 2.681 1_655 S
O22 Sm1 2.386 . S
O22 C9 1.271 1_655 S
O23 Sm0 2.464 . S
O23 C9 1.251 . S
O24 Sm0 2.396 . S
O24 C10 1.252 . S
O25 Sm1 2.408 1_455 S
O25 C10 1.272 . S
O26 Sm1 2.543 . S
O26 C11 1.261 . S
O27 Sm1 2.450 . S
O27 C11 1.242 . S
O28 Sm0 2.386 . S
O28 Sm1 2.681 1_455 S
O28 C18 1.271 . S
O29 Sm1 2.464 . S
O29 C18 1.251 1_655 S
O30 Sm1 2.396 . S
O30 C19 1.252 . S
O31 Sm0 2.408 1_655 S
O31 C19 1.272 . S
H32 C4 0.930 . S
H33 C5 0.929 . S
H34 C7 0.930 . S
H35 C8 0.929 . S
H36 C13 0.930 . S
H37 C14 0.929 . S
H38 C16 0.930 . S
H39 C17 0.929 . S
Sm40 C42 2.846 1_545 S
Sm40 O60 2.543 1_545 S
Sm40 O61 2.450 1_545 S
Sm40 O62 2.681 . S
Sm40 O63 2.464 . S
Sm40 O64 2.396 1_545 S
Sm40 O68 2.386 . S
Sm40 O71 2.408 . S
Sm41 C51 2.846 . S
Sm41 O62 2.386 . S
Sm41 O65 2.408 1_545 S
Sm41 O66 2.543 . S
Sm41 O67 2.450 . S
Sm41 O68 2.681 . S
Sm41 O69 2.464 . S
Sm41 O70 2.396 . S
C42 Sm40 2.846 1_565 S
C42 C43 1.506 . S
C42 O60 1.261 . S
C42 O61 1.242 . S
C43 C42 1.506 . S
C43 C44 1.358 . S
C43 C48 1.382 . S
C44 C43 1.358 . S
C44 C45 1.385 . S
C44 H72 0.930 . S
C45 C44 1.385 . S
C45 C46 1.395 . S
C45 H73 0.929 . S
C46 C45 1.395 . S
C46 C47 1.335 . S
C47 C46 1.335 . S
C47 C48 1.398 . S
C47 H74 0.930 . S
C48 C43 1.382 . S
C48 C47 1.398 . S
C48 H75 0.929 . S
C49 O62 1.271 . S
C49 O63 1.251 . S
C50 O64 1.252 . S
C50 O65 1.272 . S
C51 Sm41 2.846 . S
C51 C52 1.506 . S
C51 O66 1.261 . S
C51 O67 1.242 . S
C52 C51 1.506 . S
C52 C53 1.358 . S
C52 C57 1.382 . S
C53 C52 1.358 . S
C53 C54 1.385 . S
C53 H76 0.930 . S
C54 C53 1.385 . S
C54 C55 1.395 . S
C54 H77 0.929 . S
C55 C54 1.395 . S
C55 C56 1.335 . S
C56 C55 1.335 . S
C56 C57 1.398 . S
C56 H78 0.930 . S
C57 C52 1.382 . S
C57 C56 1.398 . S
C57 H79 0.929 . S
C58 O68 1.271 . S
C58 O69 1.251 . S
C59 O70 1.252 . S
C59 O71 1.272 . S
O60 Sm40 2.543 1_565 S
O60 C42 1.261 . S
O61 Sm40 2.450 1_565 S
O61 C42 1.242 . S
O62 Sm40 2.681 . S
O62 Sm41 2.386 . S
O62 C49 1.271 . S
O63 Sm40 2.464 . S
O63 C49 1.251 . S
O64 Sm40 2.396 1_565 S
O64 C50 1.252 . S
O65 Sm41 2.408 1_565 S
O65 C50 1.272 . S
O66 Sm41 2.543 . S
O66 C51 1.261 . S
O67 Sm41 2.450 . S
O67 C51 1.242 . S
O68 Sm40 2.386 . S
O68 Sm41 2.681 . S
O68 C58 1.271 . S
O69 Sm41 2.464 . S
O69 C58 1.251 . S
O70 Sm41 2.396 . S
O70 C59 1.252 . S
O71 Sm40 2.408 . S
O71 C59 1.272 . S
H72 C44 0.930 . S
H73 C45 0.929 . S
H74 C47 0.930 . S
H75 C48 0.929 . S
H76 C53 0.930 . S
H77 C54 0.929 . S
H78 C56 0.930 . S
H79 C57 0.929 . S
Sm80 C82 2.846 . S
Sm80 O100 2.543 . S
Sm80 O101 2.450 . S
Sm80 O102 2.681 . S
Sm80 O103 2.464 . S
Sm80 O104 2.396 . S
Sm80 O108 2.386 . S
Sm80 O111 2.408 . S
Sm81 C91 2.846 . S
Sm81 O102 2.386 . S
Sm81 O105 2.408 . S
Sm81 O106 2.543 . S
Sm81 O107 2.450 . S
Sm81 O108 2.681 . S
Sm81 O109 2.464 . S
Sm81 O110 2.396 . S
C82 Sm80 2.846 . S
C82 C83 1.506 . S
C82 O100 1.261 . S
C82 O101 1.242 . S
C83 C82 1.506 . S
C83 C84 1.358 . S
C83 C88 1.382 . S
C84 C83 1.358 . S
C84 C85 1.385 . S
C84 H112 0.930 . S
C85 C84 1.385 . S
C85 C86 1.395 . S
C85 H113 0.929 . S
C86 C85 1.395 . S
C86 C87 1.335 . S
C87 C86 1.335 . S
C87 C88 1.398 . S
C87 H114 0.930 . S
C88 C83 1.382 . S
C88 C87 1.398 . S
C88 H115 0.929 . S
C89 O102 1.271 . S
C89 O103 1.251 . S
C90 O104 1.252 . S
C90 O105 1.272 . S
C91 Sm81 2.846 . S
C91 C92 1.506 . S
C91 O106 1.261 . S
C91 O107 1.242 . S
C92 C91 1.506 . S
C92 C93 1.358 . S
C92 C97 1.382 . S
C93 C92 1.358 . S
C93 C94 1.385 . S
C93 H116 0.930 . S
C94 C93 1.385 . S
C94 C95 1.395 . S
C94 H117 0.929 . S
C95 C94 1.395 . S
C95 C96 1.335 . S
C96 C95 1.335 . S
C96 C97 1.398 . S
C96 H118 0.930 . S
C97 C92 1.382 . S
C97 C96 1.398 . S
C97 H119 0.929 . S
C98 O108 1.271 . S
C98 O109 1.251 . S
C99 O110 1.252 . S
C99 O111 1.272 . S
O100 Sm80 2.543 . S
O100 C82 1.261 . S
O101 Sm80 2.450 . S
O101 C82 1.242 . S
O102 Sm80 2.681 . S
O102 Sm81 2.386 . S
O102 C89 1.271 . S
O103 Sm80 2.464 . S
O103 C89 1.251 . S
O104 Sm80 2.396 . S
O104 C90 1.252 . S
O105 Sm81 2.408 . S
O105 C90 1.272 . S
O106 Sm81 2.543 . S
O106 C91 1.261 . S
O107 Sm81 2.450 . S
O107 C91 1.242 . S
O108 Sm80 2.386 . S
O108 Sm81 2.681 . S
O108 C98 1.271 . S
O109 Sm81 2.464 . S
O109 C98 1.251 . S
O110 Sm81 2.396 . S
O110 C99 1.252 . S
O111 Sm80 2.408 . S
O111 C99 1.272 . S
H112 C84 0.930 . S
H113 C85 0.929 . S
H114 C87 0.930 . S
H115 C88 0.929 . S
H116 C93 0.930 . S
H117 C94 0.929 . S
H118 C96 0.930 . S
H119 C97 0.929 . S
C120 N121 1.317 1_565 S
C120 N122 1.348 . S
C120 C123 1.485 1_565 S
N121 C120 1.317 1_545 S
N121 N125 1.370 . S
N122 C120 1.348 . S
N122 C124 1.346 . S
C123 C120 1.485 1_545 S
C123 H127 0.960 . S
C123 H128 0.961 1_545 S
C123 H129 0.960 . S
C124 N122 1.346 . S
C124 N125 1.307 1_565 S
C124 C126 1.486 . S
N125 N121 1.370 . S
N125 C124 1.307 1_545 S
C126 C124 1.486 . S
C126 H130 0.960 . S
C126 H131 0.960 . S
C126 H132 0.959 . S
H127 C123 0.960 . S
H128 C123 0.961 1_565 S
H129 C123 0.960 . S
H130 C126 0.960 . S
H131 C126 0.960 . S
H132 C126 0.959 . S
C133 N134 1.317 . S
C133 N135 1.348 . S
C133 C136 1.485 . S
N134 C133 1.317 . S
N134 N138 1.370 . S
N135 C133 1.348 . S
N135 C137 1.346 . S
C136 C133 1.485 . S
C136 H140 0.960 . S
C136 H141 0.961 . S
C136 H142 0.960 . S
C137 N135 1.346 . S
C137 N138 1.307 . S
C137 C139 1.486 . S
N138 N134 1.370 . S
N138 C137 1.307 . S
C139 C137 1.486 . S
C139 H143 0.960 . S
C139 H144 0.960 . S
C139 H145 0.959 . S
H140 C136 0.960 . S
H141 C136 0.961 . S
H142 C136 0.960 . S
H143 C139 0.960 . S
H144 C139 0.960 . S
H145 C139 0.959 . S
C146 N147 1.317 . S
C146 N148 1.348 . S
C146 C149 1.485 . S
N147 C146 1.317 . S
N147 N151 1.370 . S
N148 C146 1.348 . S
N148 C150 1.346 . S
C149 C146 1.485 . S
C149 H153 0.960 . S
C149 H154 0.961 . S
C149 H155 0.960 . S
C150 N148 1.346 . S
C150 N151 1.307 . S
C150 C152 1.486 1_455 S
N151 N147 1.370 . S
N151 C150 1.307 . S
C152 C150 1.486 1_655 S
C152 H156 0.960 . S
C152 H157 0.960 . S
C152 H158 0.959 . S
H153 C149 0.960 . S
H154 C149 0.961 . S
H155 C149 0.960 . S
H156 C152 0.960 . S
H157 C152 0.960 . S
H158 C152 0.959 . S
C159 N160 1.317 . S
C159 N161 1.348 . S
C159 C162 1.485 . S
N160 C159 1.317 . S
N160 N164 1.370 . S
N161 C159 1.348 . S
N161 C163 1.346 . S
C162 C159 1.485 . S
C162 H166 0.960 . S
C162 H167 0.961 . S
C162 H168 0.960 . S
C163 N161 1.346 . S
C163 N164 1.307 . S
C163 C165 1.486 . S
N164 N160 1.370 . S
N164 C163 1.307 . S
C165 C163 1.486 . S
C165 H169 0.960 . S
C165 H170 0.960 . S
C165 H171 0.959 . S
H166 C162 0.960 . S
H167 C162 0.961 . S
H168 C162 0.960 . S
H169 C165 0.960 . S
H170 C165 0.960 . S
H171 C165 0.959 . S
C172 N173 1.317 . S
C172 N174 1.348 . S
C172 C175 1.485 . S
N173 C172 1.317 . S
N173 N177 1.370 . S
N174 C172 1.348 . S
N174 C176 1.346 . S
C175 C172 1.485 . S
C175 H179 0.960 . S
C175 H180 0.961 . S
C175 H181 0.960 . S
C176 N174 1.346 . S
C176 N177 1.307 . S
C176 C178 1.486 . S
N177 N173 1.370 . S
N177 C176 1.307 . S
C178 C176 1.486 . S
C178 H182 0.960 . S
C178 H183 0.960 . S
C178 H184 0.959 . S
H179 C175 0.960 . S
H180 C175 0.961 . S
H181 C175 0.960 . S
H182 C178 0.960 . S
H183 C178 0.960 . S
H184 C178 0.959 . S
C185 N186 1.317 . S
C185 N187 1.348 . S
C185 C188 1.485 . S
N186 C185 1.317 . S
N186 N190 1.370 . S
N187 C185 1.348 . S
N187 C189 1.346 . S
C188 C185 1.485 . S
C188 H192 0.960 . S
C188 H193 0.961 . S
C188 H194 0.960 . S
C189 N187 1.346 . S
C189 N190 1.307 . S
C189 C191 1.486 . S
N190 N186 1.370 . S
N190 C189 1.307 . S
C191 C189 1.486 . S
C191 H195 0.960 . S
C191 H196 0.960 . S
C191 H197 0.959 . S
H192 C188 0.960 . S
H193 C188 0.961 . S
H194 C188 0.960 . S
H195 C191 0.960 . S
H196 C191 0.960 . S
H197 C191 0.959 . S
H198 C204 0.930 . S
H199 C208 0.930 . S
H200 C213 0.929 . S
H201 C211 0.929 . S
H202 C206 0.929 . S
H203 C212 0.929 . S
C204 H198 0.930 . S
C204 C205 1.367 . S
C204 C212 1.378 . S
C205 C204 1.367 . S
C205 C213 1.433 . S
C206 H202 0.929 . S
C206 C208 1.378 . S
C206 C210 1.350 . S
C207 C210 1.463 . S
C207 C212 1.350 . S
C207 N215 1.427 . S
C208 H199 0.930 . S
C208 C206 1.378 . S
C208 C209 1.367 . S
C209 C208 1.367 . S
C209 C211 1.433 . S
C210 C206 1.350 . S
C210 C207 1.463 . S
C210 N214 1.427 . S
C211 H201 0.929 . S
C211 C209 1.433 . S
C211 N214 1.384 . S
C212 H203 0.929 . S
C212 C204 1.378 . S
C212 C207 1.350 . S
C213 H200 0.929 . S
C213 C205 1.433 . S
C213 N215 1.384 . S
N214 C210 1.427 . S
N214 C211 1.384 . S
N215 C207 1.427 . S
N215 C213 1.384 . S
H216 C222 0.930 . S
H217 C226 0.930 . S
H218 C231 0.929 . S
H219 C229 0.929 . S
H220 C224 0.929 . S
H221 C230 0.929 . S
C222 H216 0.930 . S
C222 C223 1.367 . S
C222 C230 1.378 . S
C223 C222 1.367 . S
C223 C231 1.433 . S
C224 H220 0.929 . S
C224 C226 1.378 . S
C224 C228 1.350 . S
C225 C228 1.463 . S
C225 C230 1.350 . S
C225 N233 1.427 . S
C226 H217 0.930 . S
C226 C224 1.378 . S
C226 C227 1.367 . S
C227 C226 1.367 . S
C227 C229 1.433 . S
C228 C224 1.350 . S
C228 C225 1.463 . S
C228 N232 1.427 . S
C229 H219 0.929 . S
C229 C227 1.433 . S
C229 N232 1.384 . S
C230 H221 0.929 . S
C230 C222 1.378 . S
C230 C225 1.350 . S
C231 H218 0.929 . S
C231 C223 1.433 . S
C231 N233 1.384 . S
N232 C228 1.427 . S
N232 C229 1.384 . S
N233 C225 1.427 . S
N233 C231 1.384 . S
H234 C240 0.930 . S
H235 C244 0.930 . S
H236 C249 0.929 . S
H237 C247 0.929 . S
H238 C242 0.929 1_545 S
H239 C248 0.929 . S
C240 H234 0.930 . S
C240 C241 1.367 . S
C240 C248 1.378 . S
C241 C240 1.367 . S
C241 C249 1.433 . S
C242 H238 0.929 1_565 S
C242 C244 1.378 1_565 S
C242 C246 1.350 . S
C243 C246 1.463 . S
C243 C248 1.350 . S
C243 N251 1.427 . S
C244 H235 0.930 . S
C244 C242 1.378 1_545 S
C244 C245 1.367 1_545 S
C245 C244 1.367 1_565 S
C245 C247 1.433 . S
C246 C242 1.350 . S
C246 C243 1.463 . S
C246 N250 1.427 . S
C247 H237 0.929 . S
C247 C245 1.433 . S
C247 N250 1.384 . S
C248 H239 0.929 . S
C248 C240 1.378 . S
C248 C243 1.350 . S
C249 H236 0.929 . S
C249 C241 1.433 . S
C249 N251 1.384 . S
N250 C246 1.427 . S
N250 C247 1.384 . S
N251 C243 1.427 . S
N251 C249 1.384 . S
H252 C258 0.930 . S
H253 C262 0.930 . S
H254 C267 0.929 . S
H255 C265 0.929 . S
H256 C260 0.929 . S
H257 C266 0.929 . S
C258 H252 0.930 . S
C258 C259 1.367 . S
C258 C266 1.378 . S
C259 C258 1.367 . S
C259 C267 1.433 . S
C260 H256 0.929 . S
C260 C262 1.378 . S
C260 C264 1.350 . S
C261 C264 1.463 . S
C261 C266 1.350 . S
C261 N269 1.427 . S
C262 H253 0.930 . S
C262 C260 1.378 . S
C262 C263 1.367 . S
C263 C262 1.367 . S
C263 C265 1.433 . S
C264 C260 1.350 . S
C264 C261 1.463 . S
C264 N268 1.427 . S
C265 H255 0.929 . S
C265 C263 1.433 . S
C265 N268 1.384 . S
C266 H257 0.929 . S
C266 C258 1.378 . S
C266 C261 1.350 . S
C267 H254 0.929 . S
C267 C259 1.433 . S
C267 N269 1.384 . S
N268 C264 1.427 . S
N268 C265 1.384 . S
N269 C261 1.427 . S
N269 C267 1.384 . S
H270 C276 0.930 . S
H271 C280 0.930 . S
H272 C285 0.929 . S
H273 C283 0.929 . S
H274 C278 0.929 . S
H275 C284 0.929 . S
C276 H270 0.930 . S
C276 C277 1.367 . S
C276 C284 1.378 . S
C277 C276 1.367 . S
C277 C285 1.433 . S
C278 H274 0.929 . S
C278 C280 1.378 . S
C278 C282 1.350 . S
C279 C282 1.463 . S
C279 C284 1.350 . S
C279 N287 1.427 . S
C280 H271 0.930 . S
C280 C278 1.378 . S
C280 C281 1.367 . S
C281 C280 1.367 . S
C281 C283 1.433 . S
C282 C278 1.350 . S
C282 C279 1.463 . S
C282 N286 1.427 . S
C283 H273 0.929 . S
C283 C281 1.433 . S
C283 N286 1.384 . S
C284 H275 0.929 . S
C284 C276 1.378 . S
C284 C279 1.350 . S
C285 H272 0.929 . S
C285 C277 1.433 . S
C285 N287 1.384 . S
N286 C282 1.427 . S
N286 C283 1.384 . S
N287 C279 1.427 . S
N287 C285 1.384 . S
H288 C294 0.930 . S
H289 C298 0.930 . S
H290 C303 0.929 . S
H291 C301 0.929 . S
H292 C296 0.929 . S
H293 C302 0.929 . S
C294 H288 0.930 . S
C294 C295 1.367 . S
C294 C302 1.378 . S
C295 C294 1.367 . S
C295 C303 1.433 . S
C296 H292 0.929 . S
C296 C298 1.378 . S
C296 C300 1.350 . S
C297 C300 1.463 . S
C297 C302 1.350 . S
C297 N305 1.427 . S
C298 H289 0.930 . S
C298 C296 1.378 . S
C298 C299 1.367 . S
C299 C298 1.367 . S
C299 C301 1.433 . S
C300 C296 1.350 . S
C300 C297 1.463 . S
C300 N304 1.427 . S
C301 H291 0.929 . S
C301 C299 1.433 . S
C301 N304 1.384 . S
C302 H293 0.929 . S
C302 C294 1.378 . S
C302 C297 1.350 . S
C303 H290 0.929 . S
C303 C295 1.433 . S
C303 N305 1.384 . S
N304 C300 1.427 . S
N304 C301 1.384 . S
N305 C297 1.427 . S
N305 C303 1.384 . S
H306 C312 0.930 . S
H307 C316 0.930 . S
H308 C321 0.929 . S
H309 C319 0.929 . S
H310 C314 0.929 . S
H311 C320 0.929 . S
C312 H306 0.930 . S
C312 C313 1.367 . S
C312 C320 1.378 . S
C313 C312 1.367 . S
C313 C321 1.433 . S
C314 H310 0.929 . S
C314 C316 1.378 . S
C314 C318 1.350 . S
C315 C318 1.463 . S
C315 C320 1.350 . S
C315 N323 1.427 . S
C316 H307 0.930 . S
C316 C314 1.378 . S
C316 C317 1.367 . S
C317 C316 1.367 . S
C317 C319 1.433 . S
C318 C314 1.350 . S
C318 C315 1.463 . S
C318 N322 1.427 . S
C319 H309 0.929 . S
C319 C317 1.433 . S
C319 N322 1.384 . S
C320 H311 0.929 . S
C320 C312 1.378 . S
C320 C315 1.350 . S
C321 H308 0.929 . S
C321 C313 1.433 . S
C321 N323 1.384 . S
N322 C318 1.427 . S
N322 C319 1.384 . S
N323 C315 1.427 . S
N323 C321 1.384 . S
H324 C330 0.930 . S
H325 C334 0.930 . S
H326 C339 0.929 . S
H327 C337 0.929 . S
H328 C332 0.929 . S
H329 C338 0.929 . S
C330 H324 0.930 . S
C330 C331 1.367 . S
C330 C338 1.378 . S
C331 C330 1.367 . S
C331 C339 1.433 . S
C332 H328 0.929 . S
C332 C334 1.378 . S
C332 C336 1.350 . S
C333 C336 1.463 . S
C333 C338 1.350 . S
C333 N341 1.427 . S
C334 H325 0.930 . S
C334 C332 1.378 . S
C334 C335 1.367 . S
C335 C334 1.367 . S
C335 C337 1.433 . S
C336 C332 1.350 . S
C336 C333 1.463 . S
C336 N340 1.427 . S
C337 H327 0.929 . S
C337 C335 1.433 . S
C337 N340 1.384 . S
C338 H329 0.929 . S
C338 C330 1.378 . S
C338 C333 1.350 . S
C339 H326 0.929 . S
C339 C331 1.433 . S
C339 N341 1.384 . S
N340 C336 1.427 . S
N340 C337 1.384 . S
N341 C333 1.427 . S
N341 C339 1.384 . S
H342 C348 0.930 . S
H343 C352 0.930 . S
H344 C357 0.929 . S
H345 C355 0.929 . S
H346 C350 0.929 . S
H347 C356 0.929 . S
C348 H342 0.930 . S
C348 C349 1.367 . S
C348 C356 1.378 . S
C349 C348 1.367 . S
C349 C357 1.433 . S
C350 H346 0.929 . S
C350 C352 1.378 . S
C350 C354 1.350 . S
C351 C354 1.463 . S
C351 C356 1.350 . S
C351 N359 1.427 . S
C352 H343 0.930 . S
C352 C350 1.378 . S
C352 C353 1.367 . S
C353 C352 1.367 . S
C353 C355 1.433 . S
C354 C350 1.350 . S
C354 C351 1.463 . S
C354 N358 1.427 . S
C355 H345 0.929 . S
C355 C353 1.433 . S
C355 N358 1.384 . S
C356 H347 0.929 . S
C356 C348 1.378 . S
C356 C351 1.350 . S
C357 H344 0.929 . S
C357 C349 1.433 . S
C357 N359 1.384 . S
N358 C354 1.427 . S
N358 C355 1.384 . S
N359 C351 1.427 . S
N359 C357 1.384 . S
H360 C366 0.930 . S
H361 C370 0.930 . S
H362 C375 0.929 . S
H363 C373 0.929 . S
H364 C368 0.929 . S
H365 C374 0.929 . S
C366 H360 0.930 . S
C366 C367 1.367 . S
C366 C374 1.378 . S
C367 C366 1.367 . S
C367 C375 1.433 . S
C368 H364 0.929 . S
C368 C370 1.378 . S
C368 C372 1.350 . S
C369 C372 1.463 . S
C369 C374 1.350 . S
C369 N377 1.427 . S
C370 H361 0.930 . S
C370 C368 1.378 . S
C370 C371 1.367 . S
C371 C370 1.367 . S
C371 C373 1.433 . S
C372 C368 1.350 . S
C372 C369 1.463 . S
C372 N376 1.427 . S
C373 H363 0.929 . S
C373 C371 1.433 . S
C373 N376 1.384 . S
C374 H365 0.929 . S
C374 C366 1.378 . S
C374 C369 1.350 . S
C375 H362 0.929 . S
C375 C367 1.433 . S
C375 N377 1.384 . S
N376 C372 1.427 . S
N376 C373 1.384 . S
N377 C369 1.427 . S
N377 C375 1.384 . S
H378 C384 0.930 . S
H379 C388 0.930 . S
H380 C393 0.929 . S
H381 C391 0.929 . S
H382 C386 0.929 . S
H383 C392 0.929 . S
C384 H378 0.930 . S
C384 C385 1.367 . S
C384 C392 1.378 . S
C385 C384 1.367 . S
C385 C393 1.433 . S
C386 H382 0.929 . S
C386 C388 1.378 . S
C386 C390 1.350 . S
C387 C390 1.463 . S
C387 C392 1.350 . S
C387 N395 1.427 . S
C388 H379 0.930 . S
C388 C386 1.378 . S
C388 C389 1.367 . S
C389 C388 1.367 . S
C389 C391 1.433 . S
C390 C386 1.350 . S
C390 C387 1.463 . S
C390 N394 1.427 . S
C391 H381 0.929 . S
C391 C389 1.433 . S
C391 N394 1.384 . S
C392 H383 0.929 . S
C392 C384 1.378 . S
C392 C387 1.350 . S
C393 H380 0.929 . S
C393 C385 1.433 . S
C393 N395 1.384 . S
N394 C390 1.427 . S
N394 C391 1.384 . S
N395 C387 1.427 . S
N395 C393 1.384 . S
H396 C402 0.930 . S
H397 C406 0.930 . S
H398 C411 0.929 . S
H399 C409 0.929 . S
H400 C404 0.929 . S
H401 C410 0.929 . S
C402 H396 0.930 . S
C402 C403 1.367 . S
C402 C410 1.378 . S
C403 C402 1.367 . S
C403 C411 1.433 . S
C404 H400 0.929 . S
C404 C406 1.378 . S
C404 C408 1.350 . S
C405 C408 1.463 . S
C405 C410 1.350 . S
C405 N413 1.427 . S
C406 H397 0.930 . S
C406 C404 1.378 . S
C406 C407 1.367 . S
C407 C406 1.367 . S
C407 C409 1.433 . S
C408 C404 1.350 . S
C408 C405 1.463 . S
C408 N412 1.427 . S
C409 H399 0.929 . S
C409 C407 1.433 . S
C409 N412 1.384 . S
C410 H401 0.929 . S
C410 C402 1.378 . S
C410 C405 1.350 . S
C411 H398 0.929 . S
C411 C403 1.433 . S
C411 N413 1.384 . S
N412 C408 1.427 . S
N412 C409 1.384 . S
N413 C405 1.427 . S
N413 C411 1.384 . S
H414 C420 0.930 1_655 S
H415 C424 0.930 . S
H416 C429 0.929 . S
H417 C427 0.929 . S
H418 C422 0.929 . S
H419 C428 0.920 1_655 S
C420 H414 0.930 1_455 S
C420 C421 1.367 . S
C420 C428 1.378 . S
C421 C420 1.367 . S
C421 C429 1.433 . S
C422 H418 0.929 . S
C422 C424 1.378 . S
C422 C426 1.350 . S
C423 C426 1.463 1_554 S
C423 C428 1.350 . S
C423 N431 1.427 . S
C424 H415 0.930 . S
C424 C422 1.378 . S
C424 C425 1.367 . S
C425 C424 1.367 . S
C425 C427 1.433 . S
C426 C422 1.350 . S
C426 C423 1.463 1_556 S
C426 N430 1.427 . S
C427 H417 0.929 . S
C427 C425 1.433 . S
C427 N430 1.384 . S
C428 H419 0.920 1_455 S
C428 C420 1.378 . S
C428 C423 1.350 . S
C429 H416 0.929 . S
C429 C421 1.433 . S
C429 N431 1.384 . S
N430 C426 1.427 . S
N430 C427 1.384 . S
N431 C423 1.427 . S
N431 C429 1.384 . S
H432 C438 0.930 1_565 S
H433 C442 0.930 . S
H434 C447 0.929 . S
H435 C445 0.929 . S
H436 C440 0.929 . S
H437 C446 0.930 . S
C438 H432 0.930 1_545 S
C438 C439 1.367 . S
C438 C446 1.379 1_545 S
C439 C438 1.367 . S
C439 C447 1.433 . S
C440 H436 0.929 . S
C440 C442 1.378 . S
C440 C444 1.350 . S
C441 C444 1.463 . S
C441 C446 1.349 1_545 S
C441 N449 1.427 . S
C442 H433 0.930 . S
C442 C440 1.378 . S
C442 C443 1.367 . S
C443 C442 1.367 . S
C443 C445 1.433 1_545 S
C444 C440 1.350 . S
C444 C441 1.463 . S
C444 N448 1.427 1_545 S
C445 H435 0.929 . S
C445 C443 1.433 1_565 S
C445 N448 1.384 . S
C446 H437 0.930 . S
C446 C438 1.379 1_565 S
C446 C441 1.349 1_565 S
C447 H434 0.929 . S
C447 C439 1.433 . S
C447 N449 1.384 . S
N448 C444 1.427 1_565 S
N448 C445 1.384 . S
N449 C441 1.427 . S
N449 C447 1.384 . S
H450 C456 0.930 . S
H451 C460 0.930 . S
H452 C465 0.929 . S
H453 C463 0.929 . S
H454 C458 0.929 . S
H455 C464 0.929 . S
C456 H450 0.930 . S
C456 C457 1.367 . S
C456 C464 1.378 . S
C457 C456 1.367 . S
C457 C465 1.433 . S
C458 H454 0.929 . S
C458 C460 1.378 . S
C458 C462 1.350 . S
C459 C462 1.463 . S
C459 C464 1.350 . S
C459 N467 1.427 . S
C460 H451 0.930 . S
C460 C458 1.378 . S
C460 C461 1.367 . S
C461 C460 1.367 . S
C461 C463 1.433 . S
C462 C458 1.350 . S
C462 C459 1.463 . S
C462 N466 1.427 . S
C463 H453 0.929 . S
C463 C461 1.433 . S
C463 N466 1.384 . S
C464 H455 0.929 . S
C464 C456 1.378 . S
C464 C459 1.350 . S
C465 H452 0.929 . S
C465 C457 1.433 . S
C465 N467 1.384 . S
N466 C462 1.427 . S
N466 C463 1.384 . S
N467 C459 1.427 . S
N467 C465 1.384 . S
H468 C474 0.930 . S
H469 C478 0.930 . S
H470 C483 0.929 . S
H471 C481 0.929 . S
H472 C476 0.929 . S
H473 C482 0.929 . S
C474 H468 0.930 . S
C474 C475 1.367 1_565 S
C474 C482 1.378 . S
C475 C474 1.367 1_545 S
C475 C483 1.433 . S
C476 H472 0.929 . S
C476 C478 1.378 . S
C476 C480 1.350 . S
C477 C480 1.463 . S
C477 C482 1.350 1_545 S
C477 N485 1.427 . S
C478 H469 0.930 . S
C478 C476 1.378 . S
C478 C479 1.367 . S
C479 C478 1.367 . S
C479 C481 1.433 1_545 S
C480 C476 1.350 . S
C480 C477 1.463 . S
C480 N484 1.427 1_545 S
C481 H471 0.929 . S
C481 C479 1.433 1_565 S
C481 N484 1.384 . S
C482 H473 0.929 . S
C482 C474 1.378 . S
C482 C477 1.350 1_565 S
C483 H470 0.929 . S
C483 C475 1.433 . S
C483 N485 1.384 . S
N484 C480 1.427 1_565 S
N484 C481 1.384 . S
N485 C477 1.427 . S
N485 C483 1.384 . S
H486 C492 0.930 . S
H487 C496 0.930 . S
H488 C501 0.929 . S
H489 C499 0.929 . S
H490 C494 0.929 . S
H491 C500 0.929 . S
C492 H486 0.930 . S
C492 C493 1.367 . S
C492 C500 1.378 . S
C493 C492 1.367 . S
C493 C501 1.433 . S
C494 H490 0.929 . S
C494 C496 1.378 . S
C494 C498 1.350 1_554 S
C495 C498 1.463 . S
C495 C500 1.350 . S
C495 N503 1.427 . S
C496 H487 0.930 . S
C496 C494 1.378 . S
C496 C497 1.367 . S
C497 C496 1.367 . S
C497 C499 1.433 . S
C498 C494 1.350 1_556 S
C498 C495 1.463 . S
C498 N502 1.427 1_556 S
C499 H489 0.929 . S
C499 C497 1.433 . S
C499 N502 1.384 . S
C500 H491 0.929 . S
C500 C492 1.378 . S
C500 C495 1.350 . S
C501 H488 0.929 . S
C501 C493 1.433 . S
C501 N503 1.384 . S
N502 C498 1.427 1_554 S
N502 C499 1.384 . S
N503 C495 1.427 . S
N503 C501 1.384 . S
H504 C510 0.930 . S
H505 C514 0.930 . S
H506 C519 0.929 . S
H507 C517 0.929 . S
H508 C512 0.929 . S
H509 C518 0.947 1_655 S
C510 H504 0.930 . S
C510 C511 1.367 . S
C510 C518 1.378 1_655 S
C511 C510 1.367 . S
C511 C519 1.433 1_655 S
C512 H508 0.929 . S
C512 C514 1.378 . S
C512 C516 1.350 . S
C513 C516 1.463 . S
C513 C518 1.340 . S
C513 N521 1.427 . S
C514 H505 0.930 . S
C514 C512 1.378 . S
C514 C515 1.367 . S
C515 C514 1.367 . S
C515 C517 1.433 . S
C516 C512 1.350 . S
C516 C513 1.463 . S
C516 N520 1.427 . S
C517 H507 0.929 . S
C517 C515 1.433 . S
C517 N520 1.384 . S
C518 H509 0.947 1_455 S
C518 C510 1.378 1_455 S
C518 C513 1.340 . S
C519 H506 0.929 . S
C519 C511 1.433 1_455 S
C519 N521 1.384 . S
N520 C516 1.427 . S
N520 C517 1.384 . S
N521 C513 1.427 . S
N521 C519 1.384 . S
C205 C6 0.359 . S
C209 N187 0.302 . S
C223 C59 1.811 . S
C227 N160 1.808 1_655 S
C241 C86 1.165 . S
C245 N173 1.161 1_565 S
C259 C15 0.760 . S
C263 N186 0.750 . S
C281 N161 1.977 . S
C277 C50 1.978 . S
C299 N174 1.366 . S
C295 C95 1.338 . S
C313 C46 1.089 . S
C317 N134 1.092 . S
C331 C99 2.834 . S
C335 N148 2.794 1_655 S
C349 C10 1.993 . S
C353 N122 2.014 . S
C371 N135 1.415 . S
C367 C55 1.386 . S
C389 N147 3.287 . S
C385 C90 3.246 . S
C403 C19 1.811 . S
C407 N121 1.825 . S
C425 N151 1.743 . S
C421 C18 1.716 . S
C439 C49 1.462 . S
C443 N125 1.479 . S
C457 C98 1.499 . S
C461 N138 1.579 . S
C479 N177 1.534 . S
C475 C58 1.474 . S
C497 N190 1.243 . S
C493 C89 1.260 . S
C511 C9 1.424 1_655 S
C515 N164 1.456 . S
