# Generated by pormake.
# Topology zzz, (3,6)-cn, num edge types: 1
# Building blocks:
#     Node 0, Type 0, BuildingBlock: CUQRIR_clean_linker_1, # of connection points: 3
#     Node 1, Type 0, BuildingBlock: CUQRIR_clean_linker_1, # of connection points: 3
#     Node 2, Type 0, BuildingBlock: CUQRIR_clean_linker_1, # of connection points: 3
#     Node 3, Type 0, BuildingBlock: CUQRIR_clean_linker_1, # of connection points: 3
#     Node 4, Type 0, BuildingBlock: CUQRIR_clean_linker_1, # of connection points: 3
#     Node 5, Type 0, BuildingBlock: CUQRIR_clean_linker_1, # of connection points: 3
#     Node 6, Type 0, BuildingBlock: CUQRIR_clean_linker_1, # of connection points: 3
#     Node 7, Type 0, BuildingBlock: CUQRIR_clean_linker_1, # of connection points: 3
#     Node 8, Type 1, BuildingBlock: CIFDUS_clean_sbu_1, # of connection points: 6
#     Node 9, Type 1, BuildingBlock: CIFDUS_clean_sbu_1, # of connection points: 6
#     Node 10, Type 1, BuildingBlock: CIFDUS_clean_sbu_1, # of connection points: 6
#     Node 11, Type 1, BuildingBlock: CIFDUS_clean_sbu_1, # of connection points: 6
#     Edge 12, Type (0, 1), BuildingBlock: EYOCIG_clean_linker_4, # of connection points: 2
#     Edge 13, Type (0, 1), BuildingBlock: EYOCIG_clean_linker_4, # of connection points: 2
#     Edge 14, Type (0, 1), BuildingBlock: EYOCIG_clean_linker_4, # of connection points: 2
#     Edge 15, Type (0, 1), BuildingBlock: EYOCIG_clean_linker_4, # of connection points: 2
#     Edge 16, Type (0, 1), BuildingBlock: EYOCIG_clean_linker_4, # of connection points: 2
#     Edge 17, Type (0, 1), BuildingBlock: EYOCIG_clean_linker_4, # of connection points: 2
#     Edge 18, Type (0, 1), BuildingBlock: EYOCIG_clean_linker_4, # of connection points: 2
#     Edge 19, Type (0, 1), BuildingBlock: EYOCIG_clean_linker_4, # of connection points: 2
#     Edge 20, Type (0, 1), BuildingBlock: EYOCIG_clean_linker_4, # of connection points: 2
#     Edge 21, Type (0, 1), BuildingBlock: EYOCIG_clean_linker_4, # of connection points: 2
#     Edge 22, Type (0, 1), BuildingBlock: EYOCIG_clean_linker_4, # of connection points: 2
#     Edge 23, Type (0, 1), BuildingBlock: EYOCIG_clean_linker_4, # of connection points: 2
#     Edge 24, Type (0, 1), BuildingBlock: EYOCIG_clean_linker_4, # of connection points: 2
#     Edge 25, Type (0, 1), BuildingBlock: EYOCIG_clean_linker_4, # of connection points: 2
#     Edge 26, Type (0, 1), BuildingBlock: EYOCIG_clean_linker_4, # of connection points: 2
#     Edge 27, Type (0, 1), BuildingBlock: EYOCIG_clean_linker_4, # of connection points: 2
#     Edge 28, Type (0, 1), BuildingBlock: EYOCIG_clean_linker_4, # of connection points: 2
#     Edge 29, Type (0, 1), BuildingBlock: EYOCIG_clean_linker_4, # of connection points: 2
#     Edge 30, Type (0, 1), BuildingBlock: EYOCIG_clean_linker_4, # of connection points: 2
#     Edge 31, Type (0, 1), BuildingBlock: EYOCIG_clean_linker_4, # of connection points: 2
#     Edge 32, Type (0, 1), BuildingBlock: EYOCIG_clean_linker_4, # of connection points: 2
#     Edge 33, Type (0, 1), BuildingBlock: EYOCIG_clean_linker_4, # of connection points: 2
#     Edge 34, Type (0, 1), BuildingBlock: EYOCIG_clean_linker_4, # of connection points: 2
#     Edge 35, Type (0, 1), BuildingBlock: EYOCIG_clean_linker_4, # of connection points: 2
# Relax obj value: 0.150
# Max RMSD: 0.188
# Mean RMSD: 0.115
data_MOF--net-zzz--node1-CIFDUS_clean_sbu_1--node2-CUQRIR_clean_linker_1--edge1-EYOCIG_clean_linker_4
_symmetry_space_group_name_H-M    P1
_symmetry_Int_Tables_number       1
_symmetry_cell_setting            triclinic
loop_
_symmetry_equiv_pos_as_xyz
'x, y, z'
_cell_length_a     35.726568
_cell_length_b     35.742344
_cell_length_c     11.058352
_cell_angle_alpha  90.01695
_cell_angle_beta   89.998787
_cell_angle_gamma 90.004499
loop_
_atom_site_label
_atom_site_type_symbol
_atom_site_fract_x
_atom_site_fract_y
_atom_site_fract_z
_atom_type_partial_charge
C0 C 0.75845 0.56807 0.21953 0.0
N1 N 0.79641 0.56621 0.21941 0.0
N2 N 0.74504 0.56748 0.10402 0.0
C3 C 0.7347 0.56606 0.33074 0.0
C4 C 0.77608 0.56503 0.03475 0.0
N5 N 0.80686 0.56403 0.10505 0.0
C6 C 0.77585 0.56005 0.89954 0.0
H7 H 0.72848 0.53626 0.3504 0.0
H8 H 0.70781 0.58093 0.31619 0.0
H9 H 0.74975 0.57811 0.40944 0.0
H10 H 0.75901 0.58269 0.85754 0.0
H11 H 0.76215 0.53309 0.87665 0.0
H12 H 0.80454 0.56044 0.86115 0.0
C13 C 0.96952 0.75903 0.21759 0.0
N14 N 0.97045 0.79701 0.21787 0.0
N15 N 0.9693 0.74576 0.10187 0.0
C16 C 0.97326 0.73522 0.32815 0.0
C17 C 0.9703 0.77692 0.03286 0.0
N18 N 0.9712 0.80763 0.10349 0.0
C19 C 0.97422 0.77694 0.89727 0.0
H20 H 1.00341 0.72964 0.34435 0.0
H21 H 0.95883 0.70805 0.31488 0.0
H22 H 0.96174 0.74991 0.40838 0.0
H23 H 0.95121 0.76023 0.85685 0.0
H24 H 1.00096 0.76322 0.87183 0.0
H25 H 0.97359 0.80569 0.85943 0.0
C26 C 0.77782 0.96865 0.21871 0.0
N27 N 0.73987 0.97091 0.21908 0.0
N28 N 0.79113 0.96958 0.10307 0.0
C29 C 0.80168 0.96993 0.32976 0.0
C30 C 0.76004 0.97262 0.03428 0.0
N31 N 0.72934 0.97371 0.10496 0.0
C32 C 0.76017 0.97788 0.89919 0.0
H33 H 0.80818 0.99959 0.35085 0.0
H34 H 0.82842 0.95489 0.31421 0.0
H35 H 0.78659 0.95766 0.40799 0.0
H36 H 0.77683 0.95523 0.85646 0.0
H37 H 0.77399 1.00481 0.87679 0.0
H38 H 0.73142 0.97774 0.86114 0.0
C39 C 0.56826 0.77784 0.21937 0.0
N40 N 0.56591 0.73992 0.22029 0.0
N41 N 0.56734 0.79099 0.10356 0.0
C42 C 0.56706 0.80187 0.33007 0.0
C43 C 0.56419 0.75981 0.0352 0.0
N44 N 0.56306 0.72924 0.10632 0.0
C45 C 0.55888 0.75976 0.90013 0.0
H46 H 0.53741 0.80847 0.35107 0.0
H47 H 0.58218 0.82853 0.31414 0.0
H48 H 0.57931 0.78687 0.40852 0.0
H49 H 0.58158 0.77626 0.85709 0.0
H50 H 0.53198 0.77366 0.87761 0.0
H51 H 0.55888 0.73097 0.86249 0.0
C52 C 0.27756 0.47167 0.19122 0.0
N53 N 0.23955 0.47165 0.19008 0.0
N54 N 0.29054 0.47023 0.30717 0.0
C55 C 0.30163 0.47695 0.08168 0.0
C56 C 0.25917 0.46981 0.3754 0.0
N57 N 0.22861 0.47103 0.30418 0.0
C58 C 0.25857 0.4726 0.5112 0.0
H59 H 0.31115 0.44914 0.04954 0.0
H60 H 0.32671 0.49387 0.10437 0.0
H61 H 0.28568 0.4907 0.00789 0.0
H62 H 0.26454 0.50192 0.53807 0.0
H63 H 0.2807 0.45456 0.55075 0.0
H64 H 0.23089 0.46437 0.54818 0.0
C65 C 0.06511 0.2781 0.19142 0.0
N66 N 0.06418 0.24012 0.19 0.0
N67 N 0.0657 0.29099 0.30755 0.0
C68 C 0.06178 0.30232 0.0815 0.0
C69 C 0.06463 0.25961 0.37557 0.0
N70 N 0.06338 0.22914 0.304 0.0
C71 C 0.06089 0.25902 0.51112 0.0
H72 H 0.0902 0.31115 0.05299 0.0
H73 H 0.04523 0.32781 0.10227 0.0
H74 H 0.04851 0.28676 0.00591 0.0
H75 H 0.03153 0.26566 0.53593 0.0
H76 H 0.07919 0.28068 0.55214 0.0
H77 H 0.06821 0.23114 0.54848 0.0
C78 C 0.25879 0.06515 0.19306 0.0
N79 N 0.29678 0.06402 0.19012 0.0
N80 N 0.24634 0.06569 0.30971 0.0
C81 C 0.2341 0.06198 0.0841 0.0
C82 C 0.27799 0.0644 0.37643 0.0
N83 N 0.30819 0.06299 0.30368 0.0
C84 C 0.27911 0.06055 0.51191 0.0
H85 H 0.22522 0.09043 0.05631 0.0
H86 H 0.20865 0.04548 0.10575 0.0
H87 H 0.24932 0.04876 0.00771 0.0
H88 H 0.27247 0.03121 0.53672 0.0
H89 H 0.25767 0.07889 0.55397 0.0
H90 H 0.30717 0.06776 0.54818 0.0
C91 C 0.47127 0.25908 0.19216 0.0
N92 N 0.47232 0.29705 0.18968 0.0
N93 N 0.47068 0.24651 0.30864 0.0
C94 C 0.4745 0.23453 0.08291 0.0
C95 C 0.47188 0.27808 0.37578 0.0
N96 N 0.47321 0.30835 0.30338 0.0
C97 C 0.47563 0.27904 0.5113 0.0
H98 H 0.44606 0.22558 0.05504 0.0
H99 H 0.4911 0.20913 0.10425 0.0
H100 H 0.48766 0.24987 0.00669 0.0
H101 H 0.50497 0.27241 0.53628 0.0
H102 H 0.45729 0.25754 0.55293 0.0
H103 H 0.46837 0.30704 0.54789 0.0
O104 O 0.03679 0.06524 0.80957 0.0
Mn105 Mn 0.01814 0.01848 0.7055 0.0
O106 O 0.98744 0.10456 0.82047 0.0
Mn107 Mn 0.95579 0.07712 0.7217 0.0
O108 O 0.99932 0.97172 0.60094 0.0
O109 O 0.07258 1.00744 0.65739 0.0
Mn110 Mn 0.07983 0.95942 0.68811 0.0
O111 O 0.01947 0.98502 0.85474 0.0
O112 O 0.04875 0.93271 0.58579 0.0
O113 O 0.01666 0.05221 0.55641 0.0
O114 O 0.96324 0.08474 0.55871 0.0
O115 O 0.12472 0.97559 0.63046 0.0
O116 O 0.0715 0.95037 0.84989 0.0
C117 C 0.9297 0.02949 0.79693 0.0
C118 C 0.02119 0.09608 0.84506 0.0
C119 C 0.01491 0.94116 0.56276 0.0
C120 C 0.10697 1.00688 0.61706 0.0
C121 C 0.04109 0.96045 0.8993 0.0
C122 C 0.99417 0.07579 0.51037 0.0
O123 O 0.96384 0.02943 0.75457 0.0
O124 O 0.91146 0.06048 0.78331 0.0
O125 O 0.55186 0.02034 0.85439 0.0
Mn126 Mn 0.51827 0.01807 0.70507 0.0
O127 O 0.58577 0.07282 0.84702 0.0
Mn128 Mn 0.57685 0.07995 0.68471 0.0
O129 O 0.48461 0.01583 0.55589 0.0
O130 O 0.50765 0.96386 0.75616 0.0
Mn131 Mn 0.45995 0.95559 0.72281 0.0
O132 O 0.47137 0.0368 0.80854 0.0
O133 O 0.45226 0.96237 0.55954 0.0
O134 O 0.56505 0.99907 0.60125 0.0
O135 O 0.60393 0.04852 0.58454 0.0
O136 O 0.47655 0.9115 0.78572 0.0
O137 O 0.43219 0.98735 0.82017 0.0
C138 C 0.52939 0.10669 0.61272 0.0
C139 C 0.57604 0.04261 0.89815 0.0
C140 C 0.46121 0.9931 0.51014 0.0
C141 C 0.50754 0.92979 0.79904 0.0
C142 C 0.44053 0.02117 0.84409 0.0
C143 C 0.5956 0.01459 0.56273 0.0
O144 O 0.52884 0.07241 0.65414 0.0
O145 O 0.56071 0.12449 0.62495 0.0
O146 O 0.5165 0.55205 0.85486 0.0
Mn147 Mn 0.51826 0.51852 0.70529 0.0
O148 O 0.46375 0.58558 0.85052 0.0
Mn149 Mn 0.45651 0.57748 0.68778 0.0
O150 O 0.51998 0.48478 0.55606 0.0
O151 O 0.57245 0.50752 0.75535 0.0
Mn152 Mn 0.58064 0.45995 0.72084 0.0
O153 O 0.49947 0.47171 0.80879 0.0
O154 O 0.57376 0.45294 0.55729 0.0
O155 O 0.53731 0.56526 0.60154 0.0
O156 O 0.48817 0.60473 0.5887 0.0
O157 O 0.6248 0.47641 0.78418 0.0
O158 O 0.54872 0.43217 0.81774 0.0
C159 C 0.42974 0.53025 0.61367 0.0
C160 C 0.49422 0.57593 0.90031 0.0
C161 C 0.54274 0.4616 0.50919 0.0
C162 C 0.60651 0.50735 0.79825 0.0
C163 C 0.51503 0.44071 0.84308 0.0
C164 C 0.52194 0.59611 0.56506 0.0
O165 O 0.46398 0.52961 0.65534 0.0
O166 O 0.41194 0.56152 0.62707 0.0
O167 O 0.0645 0.49982 0.80956 0.0
Mn168 Mn 0.01799 0.51853 0.70425 0.0
O169 O 0.10432 0.54884 0.81819 0.0
Mn170 Mn 0.07698 0.58049 0.71925 0.0
O171 O 0.97156 0.5374 0.59894 0.0
O172 O 1.00685 0.46429 0.65509 0.0
Mn173 Mn 0.95903 0.45661 0.68733 0.0
O174 O 0.98388 0.51726 0.85258 0.0
O175 O 0.93182 0.48839 0.58834 0.0
O176 O 0.05198 0.51959 0.55592 0.0
O177 O 0.08464 0.57283 0.55632 0.0
O178 O 0.97533 0.41215 0.62626 0.0
O179 O 0.95133 0.46389 0.85024 0.0
C180 C 0.02965 0.60698 0.79496 0.0
C181 C 0.09553 0.51529 0.84425 0.0
C182 C 0.94061 0.52202 0.56328 0.0
C183 C 1.00652 0.43011 0.61322 0.0
C184 C 0.96029 0.49478 0.89862 0.0
C185 C 0.07565 0.54177 0.50908 0.0
O186 O 0.02922 0.5728 0.75306 0.0
O187 O 0.06075 0.62499 0.78047 0.0
C188 C 0.17996 0.05903 0.4089 0.0
C189 C 0.20959 0.0622 0.35601 0.0
C190 C 0.14812 0.05027 0.48142 0.0
C191 C 0.12455 0.03558 0.54467 0.0
C192 C 0.47714 0.17994 0.40656 0.0
C193 C 0.47407 0.20969 0.35439 0.0
C194 C 0.4858 0.1479 0.47824 0.0
C195 C 0.50048 0.12423 0.54109 0.0
C196 C 0.35707 0.47806 0.40435 0.0
C197 C 0.32735 0.47446 0.35227 0.0
C198 C 0.38891 0.48698 0.47665 0.0
C199 C 0.41235 0.50164 0.54046 0.0
C200 C 0.0589 0.35767 0.40429 0.0
C201 C 0.06212 0.32789 0.35239 0.0
C202 C 0.05007 0.38956 0.47642 0.0
C203 C 0.03532 0.41295 0.54018 0.0
C204 C 0.85806 0.97651 0.00806 0.0
C205 C 0.82825 0.97305 0.05981 0.0
C206 C 0.88979 0.98574 0.93546 0.0
C207 C 0.9129 1.0007 0.87102 0.0
C208 C 0.56066 0.85791 0.00844 0.0
C209 C 0.56399 0.82807 0.05997 0.0
C210 C 0.55148 0.88976 0.93646 0.0
C211 C 0.53648 0.91295 0.87249 0.0
C212 C 0.67807 0.56028 0.00964 0.0
C213 C 0.70791 0.56381 0.06108 0.0
C214 C 0.64633 0.55103 0.93722 0.0
C215 C 0.62326 0.53609 0.87264 0.0
C216 C 0.97711 0.67901 0.00634 0.0
C217 C 0.97341 0.70878 0.05808 0.0
C218 C 0.9863 0.64728 0.93383 0.0
C219 C 1.0011 0.62407 0.86937 0.0
C220 C 0.04234 0.16183 0.35424 0.0
C221 C 0.05212 0.19329 0.33752 0.0
C222 C 0.0259 0.12773 0.38241 0.0
C223 C 0.01165 0.10375 0.44098 0.0
C224 C 0.37531 0.04077 0.35186 0.0
C225 C 0.34397 0.05108 0.33571 0.0
C226 C 0.40934 0.02419 0.3802 0.0
C227 C 0.4333 0.01026 0.43967 0.0
C228 C 0.49447 0.37573 0.35212 0.0
C229 C 0.48459 0.34426 0.33589 0.0
C230 C 0.51109 0.40975 0.38042 0.0
C231 C 0.52555 0.43352 0.4394 0.0
C232 C 0.16131 0.49165 0.35636 0.0
C233 C 0.19278 0.48198 0.33906 0.0
C234 C 0.12744 0.50865 0.38404 0.0
C235 C 0.10368 0.52377 0.44132 0.0
C236 C 0.99144 0.87506 0.05269 0.0
C237 C 0.98201 0.8435 0.0691 0.0
C238 C 1.00799 0.90916 0.02593 0.0
C239 C 0.02253 0.93311 0.96815 0.0
C240 C 0.66244 0.99615 0.05576 0.0
C241 C 0.69374 0.98582 0.07195 0.0
C242 C 0.62806 0.01206 0.02828 0.0
C243 C 0.60353 0.02509 0.96924 0.0
C244 C 0.54076 0.66222 0.05809 0.0
C245 C 0.55102 0.69356 0.07383 0.0
C246 C 0.52492 0.62779 0.03077 0.0
C247 C 0.51183 0.60333 0.97153 0.0
C248 C 0.87391 0.54242 0.0541 0.0
C249 C 0.84254 0.5524 0.0711 0.0
C250 C 0.90812 0.5262 0.0262 0.0
C251 C 0.9323 0.51224 0.96784 0.0
C252 C 0.05781 0.1874 0.02625 0.0
C253 C 0.06088 0.21453 0.09216 0.0
C254 C 0.05164 0.15288 0.96345 0.0
C255 C 0.04198 0.12457 0.91059 0.0
C256 C 0.34902 0.05767 0.02479 0.0
C257 C 0.32202 0.06075 0.09132 0.0
C258 C 0.38353 0.05154 0.96177 0.0
C259 C 0.41191 0.04194 0.90914 0.0
C260 C 0.47862 0.3494 0.02475 0.0
C261 C 0.47557 0.32238 0.09116 0.0
C262 C 0.48473 0.38387 0.96161 0.0
C263 C 0.49431 0.4122 0.90877 0.0
C264 C 0.18666 0.4789 0.02705 0.0
C265 C 0.21383 0.47559 0.09278 0.0
C266 C 0.15215 0.48505 0.96408 0.0
C267 C 0.12386 0.49459 0.91078 0.0
C268 C 0.97774 0.85012 0.38034 0.0
C269 C 0.97426 0.82286 0.31496 0.0
C270 C 0.98422 0.88462 0.44327 0.0
C271 C 0.99397 0.9128 0.49683 0.0
C272 C 0.68677 0.97706 0.38195 0.0
C273 C 0.71405 0.97387 0.31653 0.0
C274 C 0.65223 0.98358 0.44462 0.0
C275 C 0.62402 0.99348 0.49771 0.0
C276 C 0.55965 0.68709 0.38384 0.0
C277 C 0.56291 0.71427 0.3181 0.0
C278 C 0.55303 0.65263 0.44668 0.0
C279 C 0.54303 0.62445 0.49968 0.0
C280 C 0.84962 0.55957 0.38164 0.0
C281 C 0.82232 0.56292 0.31647 0.0
C282 C 0.88415 0.55293 0.44411 0.0
C283 C 0.91233 0.54299 0.49727 0.0
loop_
_geom_bond_atom_site_label_1
_geom_bond_atom_site_label_2
_geom_bond_distance
_geom_bond_site_symmetry_2
_ccdc_geom_bond_type
C0 N1 1.317 . S
C0 N2 1.348 . S
C0 C3 1.485 . S
N1 C0 1.317 . S
N1 N5 1.370 . S
N2 C0 1.348 . S
N2 C4 1.346 1_554 S
C3 C0 1.485 . S
C3 H7 0.960 . S
C3 H8 0.961 . S
C3 H9 0.960 . S
C4 N2 1.346 1_556 S
C4 N5 1.307 1_556 S
C4 C6 1.486 . S
N5 N1 1.370 . S
N5 C4 1.307 1_554 S
C6 C4 1.486 . S
C6 H10 0.960 . S
C6 H11 0.960 . S
C6 H12 0.959 . S
H7 C3 0.960 . S
H8 C3 0.961 . S
H9 C3 0.960 . S
H10 C6 0.960 . S
H11 C6 0.960 . S
H12 C6 0.959 . S
C13 N14 1.317 . S
C13 N15 1.348 . S
C13 C16 1.485 . S
N14 C13 1.317 . S
N14 N18 1.370 . S
N15 C13 1.348 . S
N15 C17 1.346 1_554 S
C16 C13 1.485 . S
C16 H20 0.960 . S
C16 H21 0.961 . S
C16 H22 0.960 . S
C17 N15 1.346 1_556 S
C17 N18 1.307 1_556 S
C17 C19 1.486 . S
N18 N14 1.370 . S
N18 C17 1.307 1_554 S
C19 C17 1.486 . S
C19 H23 0.960 . S
C19 H24 0.960 . S
C19 H25 0.959 . S
H20 C16 0.960 . S
H21 C16 0.961 . S
H22 C16 0.960 . S
H23 C19 0.960 . S
H24 C19 0.960 . S
H25 C19 0.959 . S
C26 N27 1.317 . S
C26 N28 1.348 . S
C26 C29 1.485 . S
N27 C26 1.317 . S
N27 N31 1.370 . S
N28 C26 1.348 . S
N28 C30 1.346 1_554 S
C29 C26 1.485 . S
C29 H33 0.960 . S
C29 H34 0.961 . S
C29 H35 0.960 . S
C30 N28 1.346 1_556 S
C30 N31 1.307 1_556 S
C30 C32 1.486 . S
N31 N27 1.370 . S
N31 C30 1.307 1_554 S
C32 C30 1.486 . S
C32 H36 0.960 . S
C32 H37 0.960 . S
C32 H38 0.959 . S
H33 C29 0.960 . S
H34 C29 0.961 . S
H35 C29 0.960 . S
H36 C32 0.960 . S
H37 C32 0.960 . S
H38 C32 0.959 . S
C39 N40 1.317 . S
C39 N41 1.348 . S
C39 C42 1.485 . S
N40 C39 1.317 . S
N40 N44 1.370 . S
N41 C39 1.348 . S
N41 C43 1.346 1_554 S
C42 C39 1.485 . S
C42 H46 0.960 . S
C42 H47 0.961 . S
C42 H48 0.960 . S
C43 N41 1.346 1_556 S
C43 N44 1.307 1_556 S
C43 C45 1.486 . S
N44 N40 1.370 . S
N44 C43 1.307 1_554 S
C45 C43 1.486 . S
C45 H49 0.960 . S
C45 H50 0.960 . S
C45 H51 0.959 . S
H46 C42 0.960 . S
H47 C42 0.961 . S
H48 C42 0.960 . S
H49 C45 0.960 . S
H50 C45 0.960 . S
H51 C45 0.959 . S
C52 N53 1.317 . S
C52 N54 1.348 . S
C52 C55 1.485 . S
N53 C52 1.317 . S
N53 N57 1.370 . S
N54 C52 1.348 . S
N54 C56 1.346 . S
C55 C52 1.485 . S
C55 H59 0.960 . S
C55 H60 0.961 . S
C55 H61 0.960 . S
C56 N54 1.346 . S
C56 N57 1.307 . S
C56 C58 1.486 . S
N57 N53 1.370 . S
N57 C56 1.307 . S
C58 C56 1.486 . S
C58 H62 0.960 . S
C58 H63 0.960 . S
C58 H64 0.959 . S
H59 C55 0.960 . S
H60 C55 0.961 . S
H61 C55 0.960 . S
H62 C58 0.960 . S
H63 C58 0.960 . S
H64 C58 0.959 . S
C65 N66 1.317 . S
C65 N67 1.348 . S
C65 C68 1.485 . S
N66 C65 1.317 . S
N66 N70 1.370 . S
N67 C65 1.348 . S
N67 C69 1.346 . S
C68 C65 1.485 . S
C68 H72 0.960 . S
C68 H73 0.961 . S
C68 H74 0.960 . S
C69 N67 1.346 . S
C69 N70 1.307 . S
C69 C71 1.486 . S
N70 N66 1.370 . S
N70 C69 1.307 . S
C71 C69 1.486 . S
C71 H75 0.960 . S
C71 H76 0.960 . S
C71 H77 0.959 . S
H72 C68 0.960 . S
H73 C68 0.961 . S
H74 C68 0.960 . S
H75 C71 0.960 . S
H76 C71 0.960 . S
H77 C71 0.959 . S
C78 N79 1.317 . S
C78 N80 1.348 . S
C78 C81 1.485 . S
N79 C78 1.317 . S
N79 N83 1.370 . S
N80 C78 1.348 . S
N80 C82 1.346 . S
C81 C78 1.485 . S
C81 H85 0.960 . S
C81 H86 0.961 . S
C81 H87 0.960 . S
C82 N80 1.346 . S
C82 N83 1.307 . S
C82 C84 1.486 . S
N83 N79 1.370 . S
N83 C82 1.307 . S
C84 C82 1.486 . S
C84 H88 0.960 . S
C84 H89 0.960 . S
C84 H90 0.959 . S
H85 C81 0.960 . S
H86 C81 0.961 . S
H87 C81 0.960 . S
H88 C84 0.960 . S
H89 C84 0.960 . S
H90 C84 0.959 . S
C91 N92 1.317 . S
C91 N93 1.348 . S
C91 C94 1.485 . S
N92 C91 1.317 . S
N92 N96 1.370 . S
N93 C91 1.348 . S
N93 C95 1.346 . S
C94 C91 1.485 . S
C94 H98 0.960 . S
C94 H99 0.961 . S
C94 H100 0.960 . S
C95 N93 1.346 . S
C95 N96 1.307 . S
C95 C97 1.486 . S
N96 N92 1.370 . S
N96 C95 1.307 . S
C97 C95 1.486 . S
C97 H101 0.960 . S
C97 H102 0.960 . S
C97 H103 0.959 . S
H98 C94 0.960 . S
H99 C94 0.961 . S
H100 C94 0.960 . S
H101 C97 0.960 . S
H102 C97 0.960 . S
H103 C97 0.959 . S
O104 Mn105 2.163 . S
O104 C118 1.244 . S
Mn105 O104 2.163 . S
Mn105 O108 2.160 1_445 S
Mn105 O109 2.221 1_545 S
Mn105 O111 2.163 1_545 S
Mn105 O113 2.160 . S
Mn105 O123 2.221 1_455 S
O106 Mn107 2.087 . S
O106 C118 1.256 1_655 S
Mn107 O106 2.087 . S
Mn107 O114 2.089 . S
Mn107 O123 2.290 . S
Mn107 O124 2.251 . S
O108 Mn105 2.160 1_665 S
O108 C119 1.239 . S
O109 Mn105 2.221 1_565 S
O109 Mn110 2.290 . S
O109 C120 1.278 . S
Mn110 O109 2.290 . S
Mn110 O112 2.089 . S
Mn110 O115 2.251 . S
Mn110 O116 2.087 . S
O111 Mn105 2.163 1_565 S
O111 C121 1.244 . S
O112 Mn110 2.089 . S
O112 C119 1.256 1_455 S
O113 Mn105 2.160 . S
O113 C122 1.239 1_455 S
O114 Mn107 2.089 . S
O114 C122 1.256 . S
O115 Mn110 2.251 . S
O115 C120 1.241 . S
O116 Mn110 2.087 . S
O116 C121 1.256 . S
C117 O123 1.278 . S
C117 O124 1.241 . S
C118 O104 1.244 . S
C118 O106 1.256 1_455 S
C119 O108 1.239 . S
C119 O112 1.256 1_655 S
C120 O109 1.278 . S
C120 O115 1.241 . S
C121 O111 1.244 . S
C121 O116 1.256 . S
C122 O113 1.239 1_655 S
C122 O114 1.256 . S
O123 Mn105 2.221 1_655 S
O123 Mn107 2.290 . S
O123 C117 1.278 . S
O124 Mn107 2.251 . S
O124 C117 1.241 . S
O125 Mn126 2.163 . S
O125 C139 1.244 . S
Mn126 O125 2.163 . S
Mn126 O129 2.160 . S
Mn126 O130 2.221 1_545 S
Mn126 O132 2.163 . S
Mn126 O134 2.160 1_545 S
Mn126 O144 2.221 . S
O127 Mn128 2.087 . S
O127 C139 1.256 . S
Mn128 O127 2.087 . S
Mn128 O135 2.089 . S
Mn128 O144 2.290 . S
Mn128 O145 2.251 . S
O129 Mn126 2.160 . S
O129 C140 1.239 1_545 S
O130 Mn126 2.221 1_565 S
O130 Mn131 2.290 . S
O130 C141 1.278 . S
Mn131 O130 2.290 . S
Mn131 O133 2.089 . S
Mn131 O136 2.251 . S
Mn131 O137 2.087 . S
O132 Mn126 2.163 . S
O132 C142 1.244 . S
O133 Mn131 2.089 . S
O133 C140 1.256 . S
O134 Mn126 2.160 1_565 S
O134 C143 1.239 . S
O135 Mn128 2.089 . S
O135 C143 1.256 1_545 S
O136 Mn131 2.251 . S
O136 C141 1.241 . S
O137 Mn131 2.087 . S
O137 C142 1.256 1_565 S
C138 O144 1.278 . S
C138 O145 1.241 . S
C139 O125 1.244 . S
C139 O127 1.256 . S
C140 O129 1.239 1_565 S
C140 O133 1.256 . S
C141 O130 1.278 . S
C141 O136 1.241 . S
C142 O132 1.244 . S
C142 O137 1.256 1_545 S
C143 O134 1.239 . S
C143 O135 1.256 1_565 S
O144 Mn126 2.221 . S
O144 Mn128 2.290 . S
O144 C138 1.278 . S
O145 Mn128 2.251 . S
O145 C138 1.241 . S
O146 Mn147 2.163 . S
O146 C160 1.244 . S
Mn147 O146 2.163 . S
Mn147 O150 2.160 . S
Mn147 O151 2.221 . S
Mn147 O153 2.163 . S
Mn147 O155 2.160 . S
Mn147 O165 2.221 . S
O148 Mn149 2.087 . S
O148 C160 1.256 . S
Mn149 O148 2.087 . S
Mn149 O156 2.089 . S
Mn149 O165 2.290 . S
Mn149 O166 2.251 . S
O150 Mn147 2.160 . S
O150 C161 1.239 . S
O151 Mn147 2.221 . S
O151 Mn152 2.290 . S
O151 C162 1.278 . S
Mn152 O151 2.290 . S
Mn152 O154 2.089 . S
Mn152 O157 2.251 . S
Mn152 O158 2.087 . S
O153 Mn147 2.163 . S
O153 C163 1.244 . S
O154 Mn152 2.089 . S
O154 C161 1.256 . S
O155 Mn147 2.160 . S
O155 C164 1.239 . S
O156 Mn149 2.089 . S
O156 C164 1.256 . S
O157 Mn152 2.251 . S
O157 C162 1.241 . S
O158 Mn152 2.087 . S
O158 C163 1.256 . S
C159 O165 1.278 . S
C159 O166 1.241 . S
C160 O146 1.244 . S
C160 O148 1.256 . S
C161 O150 1.239 . S
C161 O154 1.256 . S
C162 O151 1.278 . S
C162 O157 1.241 . S
C163 O153 1.244 . S
C163 O158 1.256 . S
C164 O155 1.239 . S
C164 O156 1.256 . S
O165 Mn147 2.221 . S
O165 Mn149 2.290 . S
O165 C159 1.278 . S
O166 Mn149 2.251 . S
O166 C159 1.241 . S
O167 Mn168 2.163 . S
O167 C181 1.244 . S
Mn168 O167 2.163 . S
Mn168 O171 2.160 1_455 S
Mn168 O172 2.221 1_455 S
Mn168 O174 2.163 1_455 S
Mn168 O176 2.160 . S
Mn168 O186 2.221 . S
O169 Mn170 2.087 . S
O169 C181 1.256 . S
Mn170 O169 2.087 . S
Mn170 O177 2.089 . S
Mn170 O186 2.290 . S
Mn170 O187 2.251 . S
O171 Mn168 2.160 1_655 S
O171 C182 1.239 . S
O172 Mn168 2.221 1_655 S
O172 Mn173 2.290 . S
O172 C183 1.278 . S
Mn173 O172 2.290 . S
Mn173 O175 2.089 . S
Mn173 O178 2.251 . S
Mn173 O179 2.087 . S
O174 Mn168 2.163 1_655 S
O174 C184 1.244 . S
O175 Mn173 2.089 . S
O175 C182 1.256 . S
O176 Mn168 2.160 . S
O176 C185 1.239 . S
O177 Mn170 2.089 . S
O177 C185 1.256 . S
O178 Mn173 2.251 . S
O178 C183 1.241 . S
O179 Mn173 2.087 . S
O179 C184 1.256 . S
C180 O186 1.278 . S
C180 O187 1.241 . S
C181 O167 1.244 . S
C181 O169 1.256 . S
C182 O171 1.239 . S
C182 O175 1.256 . S
C183 O172 1.278 . S
C183 O178 1.241 . S
C184 O174 1.244 . S
C184 O179 1.256 . S
C185 O176 1.239 . S
C185 O177 1.256 . S
O186 Mn168 2.221 . S
O186 Mn170 2.290 . S
O186 C180 1.278 . S
O187 Mn170 2.251 . S
O187 C180 1.241 . S
C188 C189 1.170 . S
C188 C190 1.380 . S
C189 C188 1.170 . S
C190 C188 1.380 . S
C190 C191 1.170 . S
C191 C190 1.170 . S
C192 C193 1.170 . S
C192 C194 1.380 . S
C193 C192 1.170 . S
C194 C192 1.380 . S
C194 C195 1.170 . S
C195 C194 1.170 . S
C196 C197 1.170 . S
C196 C198 1.380 . S
C197 C196 1.170 . S
C198 C196 1.380 . S
C198 C199 1.170 . S
C199 C198 1.170 . S
C200 C201 1.170 . S
C200 C202 1.380 . S
C201 C200 1.170 . S
C202 C200 1.380 . S
C202 C203 1.170 . S
C203 C202 1.170 . S
C204 C205 1.170 1_556 S
C204 C206 1.380 . S
C205 C204 1.170 1_554 S
C206 C204 1.380 . S
C206 C207 1.170 . S
C207 C206 1.170 . S
C208 C209 1.170 1_556 S
C208 C210 1.380 . S
C209 C208 1.170 1_554 S
C210 C208 1.380 . S
C210 C211 1.170 . S
C211 C210 1.170 . S
C212 C213 1.170 1_556 S
C212 C214 1.380 . S
C213 C212 1.170 1_554 S
C214 C212 1.380 . S
C214 C215 1.170 . S
C215 C214 1.170 . S
C216 C217 1.170 1_556 S
C216 C218 1.380 . S
C217 C216 1.170 1_554 S
C218 C216 1.380 . S
C218 C219 1.170 . S
C219 C218 1.170 . S
C220 C221 1.170 . S
C220 C222 1.380 . S
C221 C220 1.170 . S
C222 C220 1.380 . S
C222 C223 1.170 . S
C223 C222 1.170 . S
C224 C225 1.170 . S
C224 C226 1.380 . S
C225 C224 1.170 . S
C226 C224 1.380 . S
C226 C227 1.170 . S
C227 C226 1.170 . S
C228 C229 1.170 . S
C228 C230 1.380 . S
C229 C228 1.170 . S
C230 C228 1.380 . S
C230 C231 1.170 . S
C231 C230 1.170 . S
C232 C233 1.170 . S
C232 C234 1.380 . S
C233 C232 1.170 . S
C234 C232 1.380 . S
C234 C235 1.170 . S
C235 C234 1.170 . S
C236 C237 1.170 1_556 S
C236 C238 1.380 . S
C237 C236 1.170 1_554 S
C238 C236 1.380 . S
C238 C239 1.170 1_655 S
C239 C238 1.170 1_455 S
C240 C241 1.170 1_556 S
C240 C242 1.390 . S
C241 C240 1.170 1_554 S
C242 C240 1.390 . S
C242 C243 1.162 1_565 S
C243 C242 1.162 1_545 S
C244 C245 1.170 1_556 S
C244 C246 1.380 . S
C245 C244 1.170 1_554 S
C246 C244 1.380 . S
C246 C247 1.170 . S
C247 C246 1.170 . S
C248 C249 1.171 . S
C248 C250 1.380 . S
C249 C248 1.171 . S
C250 C248 1.380 . S
C250 C251 1.170 . S
C251 C250 1.170 . S
C252 C253 1.170 . S
C252 C254 1.380 . S
C253 C252 1.170 . S
C254 C252 1.380 . S
C254 C255 1.170 1_554 S
C255 C254 1.170 1_556 S
C256 C257 1.170 . S
C256 C258 1.380 . S
C257 C256 1.170 . S
C258 C256 1.380 . S
C258 C259 1.170 1_554 S
C259 C258 1.170 1_556 S
C260 C261 1.170 . S
C260 C262 1.380 . S
C261 C260 1.170 . S
C262 C260 1.380 . S
C262 C263 1.170 1_554 S
C263 C262 1.170 1_556 S
C264 C265 1.170 . S
C264 C266 1.380 . S
C265 C264 1.170 . S
C266 C264 1.380 . S
C266 C267 1.170 1_554 S
C267 C266 1.170 1_556 S
C268 C269 1.170 . S
C268 C270 1.380 . S
C269 C268 1.170 . S
C270 C268 1.380 . S
C270 C271 1.170 . S
C271 C270 1.170 . S
C272 C273 1.170 . S
C272 C274 1.380 . S
C273 C272 1.170 . S
C274 C272 1.380 . S
C274 C275 1.170 . S
C275 C274 1.170 . S
C276 C277 1.170 . S
C276 C278 1.380 . S
C277 C276 1.170 . S
C278 C276 1.380 . S
C278 C279 1.170 . S
C279 C278 1.170 . S
C280 C281 1.170 . S
C280 C282 1.380 . S
C281 C280 1.170 . S
C282 C280 1.380 . S
C282 C283 1.170 . S
C283 C282 1.170 . S
C189 N80 1.613 . S
C191 C120 1.458 1_545 S
C195 C138 1.447 . S
C193 N93 1.610 . S
C199 C159 1.445 . S
C197 N54 1.610 . S
C203 C183 1.477 1_455 S
C201 N67 1.641 . S
C207 C117 1.338 1_565 S
C205 N28 1.536 . S
C209 N41 1.521 . S
C211 C141 1.395 . S
C213 N2 1.525 . S
C215 C162 1.330 . S
C217 N15 1.513 . S
C219 C180 1.368 1_655 S
C223 C122 0.821 1_455 S
C221 N70 0.862 . S
C227 C140 0.870 1_545 S
C225 N83 0.846 . S
C231 C161 0.877 . S
C229 N96 0.850 . S
C233 N57 0.882 . S
C235 C185 0.836 . S
C237 N18 0.945 . S
C239 C121 0.951 . S
C243 C139 0.954 . S
C241 N31 0.921 . S
C247 C160 0.957 . S
C245 N44 0.923 . S
C249 N5 0.934 1_556 S
C251 C184 0.916 . S
C253 N66 1.630 . S
C255 C118 1.508 . S
C257 N79 1.622 . S
C259 C142 1.510 . S
C263 C163 1.520 . S
C261 N92 1.617 . S
C267 C181 1.521 . S
C265 N53 1.634 . S
C269 N14 1.512 . S
C271 C119 1.395 . S
C275 C143 1.437 . S
C273 N27 1.509 . S
C279 C164 1.435 . S
C277 N40 1.526 . S
C281 N1 1.523 . S
C283 C182 1.441 . S
