# Generated by pormake.
# Topology apo, (3,6)-cn, num edge types: 1
# Building blocks:
#     Node 0, Type 0, BuildingBlock: ESEHIV_clean_linker_0, # of connection points: 3
#     Node 1, Type 0, BuildingBlock: ESEHIV_clean_linker_0, # of connection points: 3
#     Node 2, Type 0, BuildingBlock: ESEHIV_clean_linker_0, # of connection points: 3
#     Node 3, Type 0, BuildingBlock: ESEHIV_clean_linker_0, # of connection points: 3
#     Node 4, Type 0, BuildingBlock: ESEHIV_clean_linker_0, # of connection points: 3
#     Node 5, Type 0, BuildingBlock: ESEHIV_clean_linker_0, # of connection points: 3
#     Node 6, Type 0, BuildingBlock: ESEHIV_clean_linker_0, # of connection points: 3
#     Node 7, Type 0, BuildingBlock: ESEHIV_clean_linker_0, # of connection points: 3
#     Node 8, Type 1, BuildingBlock: KUMBOL_clean_sbu_1, # of connection points: 6
#     Node 9, Type 1, BuildingBlock: KUMBOL_clean_sbu_1, # of connection points: 6
#     Node 10, Type 1, BuildingBlock: KUMBOL_clean_sbu_1, # of connection points: 6
#     Node 11, Type 1, BuildingBlock: KUMBOL_clean_sbu_1, # of connection points: 6
#     Edge 12, Type (0, 1), BuildingBlock: OJICUG_clean_linker_0, # of connection points: 2
#     Edge 13, Type (0, 1), BuildingBlock: OJICUG_clean_linker_0, # of connection points: 2
#     Edge 14, Type (0, 1), BuildingBlock: OJICUG_clean_linker_0, # of connection points: 2
#     Edge 15, Type (0, 1), BuildingBlock: OJICUG_clean_linker_0, # of connection points: 2
#     Edge 16, Type (0, 1), BuildingBlock: OJICUG_clean_linker_0, # of connection points: 2
#     Edge 17, Type (0, 1), BuildingBlock: OJICUG_clean_linker_0, # of connection points: 2
#     Edge 18, Type (0, 1), BuildingBlock: OJICUG_clean_linker_0, # of connection points: 2
#     Edge 19, Type (0, 1), BuildingBlock: OJICUG_clean_linker_0, # of connection points: 2
#     Edge 20, Type (0, 1), BuildingBlock: OJICUG_clean_linker_0, # of connection points: 2
#     Edge 21, Type (0, 1), BuildingBlock: OJICUG_clean_linker_0, # of connection points: 2
#     Edge 22, Type (0, 1), BuildingBlock: OJICUG_clean_linker_0, # of connection points: 2
#     Edge 23, Type (0, 1), BuildingBlock: OJICUG_clean_linker_0, # of connection points: 2
#     Edge 24, Type (0, 1), BuildingBlock: OJICUG_clean_linker_0, # of connection points: 2
#     Edge 25, Type (0, 1), BuildingBlock: OJICUG_clean_linker_0, # of connection points: 2
#     Edge 26, Type (0, 1), BuildingBlock: OJICUG_clean_linker_0, # of connection points: 2
#     Edge 27, Type (0, 1), BuildingBlock: OJICUG_clean_linker_0, # of connection points: 2
#     Edge 28, Type (0, 1), BuildingBlock: OJICUG_clean_linker_0, # of connection points: 2
#     Edge 29, Type (0, 1), BuildingBlock: OJICUG_clean_linker_0, # of connection points: 2
#     Edge 30, Type (0, 1), BuildingBlock: OJICUG_clean_linker_0, # of connection points: 2
#     Edge 31, Type (0, 1), BuildingBlock: OJICUG_clean_linker_0, # of connection points: 2
#     Edge 32, Type (0, 1), BuildingBlock: OJICUG_clean_linker_0, # of connection points: 2
#     Edge 33, Type (0, 1), BuildingBlock: OJICUG_clean_linker_0, # of connection points: 2
#     Edge 34, Type (0, 1), BuildingBlock: OJICUG_clean_linker_0, # of connection points: 2
#     Edge 35, Type (0, 1), BuildingBlock: OJICUG_clean_linker_0, # of connection points: 2
# Relax obj value: 0.007
# Max RMSD: 0.142
# Mean RMSD: 0.106
data_MOF--net-apo--node1-KUMBOL_clean_sbu_1--node2-ESEHIV_clean_linker_0--edge1-OJICUG_clean_linker_0
_symmetry_space_group_name_H-M    P1
_symmetry_Int_Tables_number       1
_symmetry_cell_setting            triclinic
loop_
_symmetry_equiv_pos_as_xyz
'x, y, z'
_cell_length_a     16.459657
_cell_length_b     28.182145
_cell_length_c     38.494032
_cell_angle_alpha  89.935017
_cell_angle_beta   90.144135
_cell_angle_gamma 90.606628
loop_
_atom_site_label
_atom_site_type_symbol
_atom_site_fract_x
_atom_site_fract_y
_atom_site_fract_z
_atom_type_partial_charge
H0 H 0.34239 0.44529 0.43608 0.0
H1 H 0.2641 0.38104 0.34048 0.0
H2 H 0.1999 0.31554 0.43739 0.0
C3 C 0.3097 0.41708 0.42279 0.0
C4 C 0.2719 0.38025 0.44184 0.0
C5 C 0.30547 0.41785 0.38638 0.0
C6 C 0.2661 0.38083 0.36865 0.0
C7 C 0.22913 0.3436 0.38707 0.0
C8 C 0.2307 0.3439 0.4235 0.0
H9 H 0.15382 0.06821 0.93028 0.0
H10 H 0.26414 0.11684 0.83592 0.0
H11 H 0.28797 0.20017 0.92916 0.0
C12 C 0.19006 0.09455 0.91662 0.0
C13 C 0.22168 0.1342 0.93451 0.0
C14 C 0.20517 0.08855 0.88105 0.0
C15 C 0.25182 0.12255 0.8632 0.0
C16 C 0.28018 0.16402 0.87989 0.0
C17 C 0.26548 0.16901 0.91573 0.0
H18 H 0.82361 0.07863 0.59161 0.0
H19 H 0.77936 0.14562 0.69017 0.0
H20 H 0.69795 0.2114 0.59641 0.0
C21 C 0.7995 0.1075 0.60678 0.0
C22 C 0.766 0.14702 0.58949 0.0
C23 C 0.80162 0.10546 0.64348 0.0
C24 C 0.77196 0.14436 0.66226 0.0
C25 C 0.73195 0.18181 0.6458 0.0
C26 C 0.72978 0.18298 0.60939 0.0
H27 H 0.64528 0.42248 0.09927 0.0
H28 H 0.75196 0.38027 0.19667 0.0
H29 H 0.79822 0.30007 0.10424 0.0
C30 C 0.68402 0.39916 0.11417 0.0
C31 C 0.72 0.3601 0.09767 0.0
C32 C 0.69489 0.40659 0.15016 0.0
C33 C 0.74354 0.37483 0.16909 0.0
C34 C 0.78027 0.33578 0.15317 0.0
C35 C 0.76876 0.32924 0.11728 0.0
H36 H 0.67842 0.55785 0.59487 0.0
H37 H 0.79605 0.69531 0.59368 0.0
H38 H 0.753 0.62217 0.69049 0.0
C39 C 0.70523 0.58786 0.60844 0.0
C40 C 0.71032 0.58669 0.64481 0.0
C41 C 0.73876 0.62625 0.5896 0.0
C42 C 0.77332 0.6649 0.60801 0.0
C43 C 0.77725 0.66466 0.64466 0.0
C44 C 0.74775 0.62441 0.66248 0.0
H45 H 0.84065 0.94553 0.0989 0.0
H46 H 0.76653 0.87972 0.19451 0.0
H47 H 0.71128 0.81115 0.0978 0.0
C48 C 0.81012 0.91654 0.11219 0.0
C49 C 0.77682 0.87816 0.09316 0.0
C50 C 0.80662 0.91701 0.14866 0.0
C51 C 0.76928 0.87931 0.16634 0.0
C52 C 0.73567 0.84102 0.14802 0.0
C53 C 0.73969 0.84042 0.11161 0.0
H54 H 0.15106 0.92495 0.43581 0.0
H55 H 0.29488 0.79879 0.4337 0.0
H56 H 0.26339 0.88024 0.34048 0.0
C57 C 0.18936 0.90073 0.42161 0.0
C58 C 0.20442 0.90808 0.38591 0.0
C59 C 0.22051 0.86059 0.43859 0.0
C60 C 0.26885 0.82867 0.42006 0.0
C61 C 0.28417 0.83495 0.38455 0.0
C62 C 0.25209 0.875 0.36789 0.0
H63 H 0.34161 0.58422 0.9374 0.0
H64 H 0.27286 0.64289 0.8383 0.0
H65 H 0.21221 0.71546 0.9322 0.0
C66 C 0.31335 0.61163 0.92199 0.0
C67 C 0.28247 0.65195 0.93878 0.0
C68 C 0.30798 0.60701 0.88553 0.0
C69 C 0.27202 0.64387 0.86638 0.0
C70 C 0.23506 0.68236 0.88281 0.0
C71 C 0.2412 0.68622 0.91905 0.0
C72 C 0.76107 0.06894 0.26741 0.0
C73 C 0.77274 0.98673 0.28539 0.0
C74 C 0.8027 0.03382 0.28544 0.0
C75 C 0.70233 0.97527 0.26632 0.0
C76 C 0.68951 0.05776 0.24881 0.0
C77 C 0.66071 0.0107 0.24818 0.0
N78 N 0.79191 0.11391 0.26734 0.0
C79 C 0.75224 0.14986 0.25098 0.0
C80 C 0.64926 0.09426 0.23126 0.0
C81 C 0.68053 0.14054 0.23253 0.0
Gd82 Gd 0.10931 0.12602 0.23591 0.0
Gd83 Gd 0.91013 0.1263 0.29997 0.0
N84 N 0.87129 0.04582 0.30352 0.0
C85 C 0.81345 0.95271 0.30516 0.0
C86 C 0.90673 0.01361 0.32508 0.0
C87 C 0.87987 0.96639 0.32554 0.0
H88 H 0.9536 0.02433 0.34301 0.0
H89 H 0.90932 0.94081 0.34222 0.0
H90 H 0.10455 0.24118 0.21558 0.0
H91 H 0.77584 0.18571 0.25233 0.0
H92 H 0.19699 0.31105 0.21732 0.0
H93 H 0.79227 0.91623 0.30589 0.0
H94 H 0.67889 0.93919 0.26583 0.0
H95 H 0.22146 0.03207 0.25866 0.0
H96 H 0.59383 0.08714 0.21685 0.0
H97 H 0.64934 0.16904 0.21937 0.0
H98 H 0.44753 0.24913 0.26167 0.0
H99 H 0.6061 0.00136 0.23386 0.0
H100 H 0.46029 0.08218 0.28475 0.0
H101 H 0.36101 0.01612 0.27881 0.0
N102 N 0.23976 0.1068 0.25572 0.0
C103 C 0.2938 0.14347 0.25807 0.0
C104 C 0.2633 0.0614 0.26243 0.0
C105 C 0.39858 0.08954 0.27665 0.0
C106 C 0.34268 0.05215 0.27337 0.0
C107 C 0.37473 0.13583 0.26864 0.0
H108 H 0.49196 0.16913 0.27831 0.0
N109 N 0.19082 0.19467 0.23806 0.0
C110 C 0.26892 0.18862 0.24864 0.0
C111 C 0.29721 0.27185 0.23866 0.0
C112 C 0.32412 0.2272 0.24948 0.0
C113 C 0.16548 0.23747 0.22561 0.0
C114 C 0.21776 0.27689 0.2264 0.0
O115 O 0.90687 0.10074 0.24381 0.0
O116 O 0.02706 0.06256 0.24018 0.0
O117 O 0.08167 0.13466 0.1809 0.0
O118 O 0.18601 0.09416 0.19665 0.0
O119 O 0.02602 0.09478 0.32195 0.0
O120 O 0.08758 0.065 0.27299 0.0
O121 O 0.11477 0.18076 0.2789 0.0
O122 O 0.01267 0.1714 0.32059 0.0
O123 O 0.86024 0.11351 0.35179 0.0
O124 O 0.82423 0.17616 0.32196 0.0
O125 O -0.0005 0.16847 0.22016 0.0
O126 O 0.93281 0.19411 0.26985 0.0
C127 C 0.95027 0.06555 0.23201 0.0
C128 C 0.07915 0.06686 0.30697 0.0
C129 C 0.19656 0.1377 0.14432 0.0
C130 C 0.22577 0.15655 0.08362 0.0
C131 C 0.30501 0.19337 0.12977 0.0
C132 C 0.26018 0.16825 0.15447 0.0
C133 C 0.28771 0.18785 0.09456 0.0
C134 C 0.18015 0.13141 0.10869 0.0
C135 C 0.14686 0.11291 0.17072 0.0
C136 C 0.40431 0.2199 0.26069 0.0
C137 C 0.42957 0.17434 0.27021 0.0
H138 H 0.33767 0.30242 0.23909 0.0
C139 C 0.08023 0.19088 0.30881 0.0
C140 C 0.95311 0.19855 0.23689 0.0
C141 C 0.76305 0.16654 0.37912 0.0
C142 C 0.73106 0.1716 0.44099 0.0
C143 C 0.64544 0.21062 0.39835 0.0
C144 C 0.69511 0.19451 0.37164 0.0
C145 C 0.66361 0.19964 0.43283 0.0
C146 C 0.78017 0.1544 0.41396 0.0
C147 C 0.81681 0.15177 0.35055 0.0
H148 H 0.35369 0.21698 0.13796 0.0
H149 H 0.27578 0.17256 0.18142 0.0
H150 H 0.32401 0.20726 0.07576 0.0
H151 H 0.13179 0.10747 0.10053 0.0
H152 H 0.59322 0.2322 0.39235 0.0
H153 H 0.68046 0.204 0.34508 0.0
H154 H 0.6251 0.21322 0.45325 0.0
H155 H 0.83301 0.13333 0.42013 0.0
C156 C 0.77961 0.39828 0.78366 0.0
C157 C 0.80549 0.48133 0.79697 0.0
C158 C 0.75234 0.4417 0.79614 0.0
C159 C 0.88621 0.47657 0.78585 0.0
C160 C 0.86076 0.39349 0.77251 0.0
C161 C 0.91379 0.43279 0.77374 0.0
N162 N 0.72677 0.36091 0.78209 0.0
C163 C 0.75229 0.31725 0.77173 0.0
C164 C 0.88635 0.34924 0.76048 0.0
C165 C 0.832 0.31089 0.76034 0.0
Gd166 Gd 0.408 0.38507 0.73308 0.0
Gd167 Gd 0.59602 0.37493 0.80326 0.0
N168 N 0.6733 0.44561 0.8062 0.0
C169 C 0.77573 0.52485 0.80851 0.0
C170 C 0.64427 0.48804 0.81753 0.0
C171 C 0.6948 0.52819 0.81878 0.0
H172 H 0.58242 0.49161 0.82562 0.0
H173 H 0.67122 0.56174 0.82769 0.0
H174 H 0.45393 0.30195 0.67456 0.0
H175 H 0.71185 0.28691 0.7728 0.0
H176 H 0.39319 0.22873 0.65062 0.0
H177 H 0.81457 0.55611 0.80943 0.0
H178 H 0.92776 0.50665 0.78638 0.0
H179 H 0.27302 0.42464 0.79403 0.0
H180 H 0.94812 0.34418 0.75165 0.0
H181 H 0.85169 0.27631 0.75178 0.0
H182 H 0.13885 0.21268 0.71015 0.0
H183 H 0.97629 0.42971 0.7653 0.0
H184 H 0.07074 0.32947 0.79493 0.0
H185 H 0.14035 0.40147 0.81688 0.0
N186 N 0.28247 0.36593 0.75956 0.0
C187 C 0.24453 0.32631 0.74688 0.0
C188 C 0.24542 0.39283 0.78428 0.0
C189 C 0.12993 0.33929 0.78478 0.0
C190 C 0.16914 0.37987 0.7973 0.0
C191 C 0.16733 0.31198 0.75924 0.0
H192 H 0.07046 0.25961 0.75496 0.0
N193 N 0.35833 0.31333 0.71058 0.0
C194 C 0.28323 0.29954 0.72154 0.0
C195 C 0.28616 0.23237 0.68254 0.0
C196 C 0.24551 0.25831 0.70802 0.0
C197 C 0.39698 0.28912 0.68491 0.0
C198 C 0.36203 0.24801 0.67082 0.0
O199 O 0.62122 0.41432 0.75284 0.0
O200 O 0.49592 0.44536 0.74283 0.0
O201 O 0.41398 0.39898 0.67743 0.0
O202 O 0.31566 0.42735 0.70786 0.0
O203 O 0.4963 0.42327 0.82172 0.0
O204 O 0.40646 0.44074 0.7759 0.0
O205 O 0.41442 0.31953 0.76666 0.0
O206 O 0.46703 0.35272 0.81583 0.0
O207 O 0.64056 0.38217 0.85704 0.0
O208 O 0.63268 0.31256 0.83158 0.0
O209 O 0.52746 0.355 0.71497 0.0
O210 O 0.57279 0.31641 0.76422 0.0
C211 C 0.5738 0.44397 0.73619 0.0
C212 C 0.43598 0.44748 0.80771 0.0
C213 C 0.28381 0.39924 0.65137 0.0
C214 C 0.24843 0.37767 0.59174 0.0
C215 C 0.15883 0.35541 0.63914 0.0
C216 C 0.21096 0.37776 0.66272 0.0
C217 C 0.17766 0.35498 0.60387 0.0
C218 C 0.30155 0.3998 0.61561 0.0
C219 C 0.3429 0.41889 0.67674 0.0
C220 C 0.16868 0.24424 0.72025 0.0
C221 C 0.12976 0.27097 0.74578 0.0
H222 H 0.25914 0.20054 0.67151 0.0
C223 C 0.4279 0.31803 0.80024 0.0
C224 C 0.56973 0.32148 0.73024 0.0
C225 C 0.68694 0.31259 0.89008 0.0
C226 C 0.70999 0.3062 0.95286 0.0
C227 C 0.76157 0.24595 0.91358 0.0
C228 C 0.72881 0.26995 0.8853 0.0
C229 C 0.75226 0.26377 0.94704 0.0
C230 C 0.67838 0.33107 0.92399 0.0
C231 C 0.65251 0.33661 0.8593 0.0
H232 H 0.10356 0.33843 0.64825 0.0
H233 H 0.19431 0.37783 0.68985 0.0
H234 H 0.13606 0.33776 0.5859 0.0
H235 H 0.35701 0.41665 0.60643 0.0
H236 H 0.79424 0.21328 0.90955 0.0
H237 H 0.73681 0.25525 0.85955 0.0
H238 H 0.77883 0.24436 0.96848 0.0
H239 H 0.64552 0.36373 0.92796 0.0
C240 C 0.72699 0.83026 0.78237 0.0
C241 C 0.72617 0.7568 0.8156 0.0
C242 C 0.76575 0.79895 0.80481 0.0
C243 C 0.64763 0.74629 0.80336 0.0
C244 C 0.64778 0.81975 0.77022 0.0
C245 C 0.6086 0.77764 0.78072 0.0
N246 N 0.76635 0.87092 0.77266 0.0
C247 C 0.72832 0.90307 0.75183 0.0
C248 C 0.60987 0.85206 0.74805 0.0
C249 C 0.65017 0.89399 0.73899 0.0
Gd250 Gd 0.08464 0.87208 0.72867 0.0
Gd251 Gd 0.896 0.88271 0.79768 0.0
N252 N 0.84245 0.80946 0.81576 0.0
C253 C 0.76663 0.7265 0.83852 0.0
C254 C 0.88069 0.7811 0.83929 0.0
C255 C 0.84397 0.73891 0.85062 0.0
H256 H 0.93871 0.7913 0.85011 0.0
H257 H 0.87492 0.71631 0.86903 0.0
H258 H 0.07332 0.98714 0.70153 0.0
H259 H 0.75653 0.93629 0.74544 0.0
H260 H 0.16144 0.05752 0.6995 0.0
H261 H 0.73824 0.69383 0.84742 0.0
H262 H 0.61641 0.71405 0.81133 0.0
H263 H 0.19994 0.78538 0.76128 0.0
H264 H 0.54918 0.84526 0.73814 0.0
H265 H 0.62068 0.91966 0.7224 0.0
H266 H 0.41448 0.00536 0.7471 0.0
H267 H 0.54782 0.7691 0.77162 0.0
H268 H 0.43394 0.84411 0.78526 0.0
H269 H 0.3384 0.77579 0.78459 0.0
N270 N 0.21449 0.85925 0.75151 0.0
C271 C 0.2671 0.89669 0.74997 0.0
C272 C 0.23991 0.81589 0.76267 0.0
C273 C 0.37276 0.8487 0.77545 0.0
C274 C 0.31889 0.81012 0.77531 0.0
C275 C 0.34753 0.89252 0.76233 0.0
H276 H 0.46218 0.92938 0.77052 0.0
N277 N 0.16206 0.9427 0.72474 0.0
C278 C 0.24028 0.93953 0.73621 0.0
C279 C 0.26415 0.02209 0.72199 0.0
C280 C 0.29322 0.97925 0.73522 0.0
C281 C 0.13402 0.98434 0.71138 0.0
C282 C 0.1843 0.02458 0.70998 0.0
O283 O 0.89812 0.81925 0.76147 0.0
O284 O 0.95585 0.85319 0.71353 0.0
O285 O 0.13243 0.87734 0.67571 0.0
O286 O 0.12077 0.80825 0.70194 0.0
O287 O 0.01412 0.85088 0.81582 0.0
O288 O 0.05655 0.81268 0.76635 0.0
O289 O 0.10881 0.91039 0.77954 0.0
O290 O 0.98429 0.94303 0.78868 0.0
O291 O 0.90824 0.89226 0.85364 0.0
O292 O 0.80801 0.92411 0.82624 0.0
O293 O 0.98537 0.92075 0.70961 0.0
O294 O 0.8977 0.93995 0.75557 0.0
C295 C 0.91263 0.81923 0.72789 0.0
C296 C 0.05538 0.81737 0.8003 0.0
C297 C 0.177 0.80713 0.64386 0.0
C298 C 0.20138 0.80174 0.58141 0.0
C299 C 0.24562 0.73867 0.62011 0.0
C300 C 0.21438 0.76301 0.64848 0.0
C301 C 0.23905 0.75772 0.58681 0.0
C302 C 0.17143 0.82676 0.61026 0.0
C303 C 0.14282 0.83158 0.67421 0.0
C304 C 0.37312 0.9752 0.7477 0.0
C305 C 0.40025 0.93196 0.76113 0.0
H306 H 0.30284 0.0534 0.72088 0.0
C307 C 0.06232 0.94127 0.79527 0.0
C308 C 0.92678 0.94623 0.72364 0.0
C309 C 0.78203 0.89373 0.88275 0.0
C310 C 0.75054 0.87368 0.94311 0.0
C311 C 0.6589 0.84929 0.89679 0.0
C312 C 0.70919 0.87128 0.87239 0.0
C313 C 0.67964 0.85012 0.93191 0.0
C314 C 0.80182 0.89551 0.91839 0.0
C315 C 0.8387 0.91351 0.85648 0.0
H316 H 0.27477 0.7048 0.62392 0.0
H317 H 0.2198 0.74738 0.6741 0.0
H318 H 0.26401 0.73807 0.56522 0.0
H319 H 0.14181 0.86054 0.60644 0.0
H320 H 0.60349 0.83164 0.88843 0.0
H321 H 0.69096 0.8705 0.84543 0.0
H322 H 0.63943 0.83311 0.9505 0.0
H323 H 0.85732 0.91313 0.92682 0.0
C324 C 0.77238 0.67777 0.26304 0.0
C325 C 0.76899 0.76167 0.27702 0.0
C326 C 0.73369 0.71588 0.27868 0.0
C327 C 0.84217 0.76873 0.25893 0.0
C328 C 0.84612 0.68466 0.24509 0.0
C329 C 0.88074 0.73033 0.24312 0.0
N330 N 0.73587 0.63427 0.26414 0.0
C331 C 0.7705 0.59596 0.24871 0.0
C332 C 0.88223 0.64549 0.22921 0.0
C333 C 0.84431 0.60096 0.23109 0.0
Gd334 Gd 0.40897 0.63657 0.23495 0.0
Gd335 Gd 0.61304 0.6292 0.29442 0.0
N336 N 0.66179 0.70819 0.29543 0.0
C337 C 0.73023 0.79894 0.29398 0.0
C338 C 0.62813 0.74361 0.31457 0.0
C339 C 0.66037 0.78968 0.31339 0.0
H340 H 0.57831 0.73651 0.33183 0.0
H341 H 0.63219 0.81783 0.32801 0.0
H342 H 0.42812 0.52563 0.20215 0.0
H343 H 0.74137 0.56148 0.25024 0.0
H344 H 0.35196 0.4504 0.20233 0.0
H345 H 0.75523 0.8346 0.29321 0.0
H346 H 0.86978 0.80374 0.25725 0.0
H347 H 0.29113 0.71514 0.27574 0.0
H348 H 0.93912 0.6493 0.21533 0.0
H349 H 0.87182 0.57051 0.21891 0.0
H350 H 0.10457 0.48657 0.26165 0.0
H351 H 0.93722 0.73635 0.22932 0.0
H352 H 0.06939 0.64473 0.30404 0.0
H353 H 0.15615 0.71696 0.30346 0.0
N354 N 0.2829 0.64202 0.26269 0.0
C355 C 0.23563 0.60216 0.26203 0.0
C356 C 0.25501 0.68302 0.27698 0.0
C357 C 0.1291 0.64356 0.2923 0.0
C358 C 0.17801 0.68435 0.29217 0.0
C359 C 0.15757 0.60181 0.2771 0.0
H360 H 0.05063 0.55897 0.28821 0.0
N361 N 0.34243 0.56235 0.23309 0.0
C362 C 0.26632 0.56117 0.24697 0.0
C363 C 0.25136 0.47858 0.23107 0.0
C364 C 0.21919 0.51905 0.24665 0.0
C365 C 0.37191 0.52371 0.21614 0.0
C366 C 0.32768 0.48109 0.21545 0.0
O367 O 0.62075 0.65797 0.23931 0.0
O368 O 0.5003 0.69657 0.23419 0.0
O369 O 0.39405 0.63259 0.17781 0.0
O370 O 0.32334 0.68166 0.20933 0.0
O371 O 0.50166 0.66403 0.31749 0.0
O372 O 0.44355 0.69799 0.26928 0.0
O373 O 0.3972 0.59798 0.2868 0.0
O374 O 0.52462 0.56799 0.29839 0.0
O375 O 0.63756 0.63666 0.35042 0.0
O376 O 0.70494 0.58603 0.31899 0.0
O377 O 0.51524 0.59482 0.21332 0.0
O378 O 0.58421 0.56498 0.26139 0.0
C379 C 0.57698 0.69209 0.22606 0.0
C380 C 0.45179 0.69446 0.30305 0.0
C381 C 0.29384 0.68368 0.14804 0.0
C382 C 0.2704 0.68957 0.08547 0.0
C383 C 0.1908 0.73679 0.12535 0.0
C384 C 0.23244 0.71731 0.15335 0.0
C385 C 0.20984 0.72328 0.09163 0.0
C386 C 0.31203 0.66932 0.11383 0.0
C387 C 0.33818 0.66512 0.1786 0.0
C388 C 0.14149 0.51863 0.26167 0.0
C389 C 0.11072 0.55989 0.27677 0.0
H390 H 0.21712 0.44554 0.23032 0.0
C391 C 0.44557 0.56828 0.30308 0.0
C392 C 0.5639 0.56377 0.22819 0.0
C393 C 0.74267 0.58978 0.38005 0.0
C394 C 0.77554 0.59261 0.44225 0.0
C395 C 0.8589 0.54694 0.40266 0.0
C396 C 0.80973 0.56016 0.37486 0.0
C397 C 0.8423 0.56314 0.43603 0.0
C398 C 0.72514 0.60564 0.41407 0.0
C399 C 0.6942 0.60477 0.34945 0.0
H400 H 0.14383 0.76268 0.1298 0.0
H401 H 0.21653 0.72888 0.17926 0.0
H402 H 0.17679 0.73901 0.0702 0.0
H403 H 0.35916 0.64353 0.10923 0.0
H404 H 0.91042 0.52416 0.39829 0.0
H405 H 0.82492 0.54746 0.34916 0.0
H406 H 0.88139 0.55217 0.4572 0.0
H407 H 0.67378 0.62856 0.41855 0.0
C408 C 0.14342 0.94336 0.33196 0.0
C409 C 0.16922 0.9491 0.36663 0.0
H410 H 0.09691 0.97597 0.28604 0.0
C411 C 0.16349 0.99437 0.38187 0.0
H412 H 0.14378 0.90889 0.31959 0.0
C413 C 0.13425 0.03295 0.3626 0.0
C414 C 0.11174 0.0271 0.32763 0.0
H415 H 0.183 1.00024 0.40841 0.0
H416 H 0.13041 0.06745 0.37483 0.0
C417 C 0.11626 0.98189 0.31263 0.0
C418 C 0.30311 0.54984 0.83519 0.0
C419 C 0.33876 0.56419 0.86689 0.0
H420 H 0.30777 0.50448 0.79107 0.0
C421 C 0.40451 0.53784 0.87978 0.0
H422 H 0.25032 0.56748 0.82475 0.0
C423 C 0.4342 0.499 0.86124 0.0
C424 C 0.401 0.48651 0.82871 0.0
H425 H 0.43457 0.54759 0.90378 0.0
H426 H 0.48469 0.4796 0.87213 0.0
C427 C 0.33509 0.51258 0.816 0.0
C428 C 0.72694 0.51956 0.68669 0.0
C429 C 0.67625 0.54654 0.66514 0.0
H430 H 0.7348 0.46506 0.72517 0.0
C431 C 0.59212 0.53814 0.66583 0.0
H432 H 0.79207 0.52556 0.68661 0.0
C433 C 0.55891 0.50452 0.68872 0.0
C434 C 0.6094 0.47814 0.71095 0.0
H435 H 0.55188 0.55886 0.64963 0.0
H436 H 0.49357 0.49959 0.68924 0.0
C437 C 0.69397 0.48522 0.70898 0.0
C438 C 0.90999 0.94615 0.19092 0.0
C439 C 0.84432 0.95587 0.16887 0.0
H440 H 0.99526 0.97357 0.22801 0.0
C441 C 0.81276 0.00193 0.1677 0.0
H442 H 0.93463 0.9107 0.19237 0.0
C443 C 0.84643 0.0378 0.18857 0.0
C444 C 0.91286 0.02812 0.21036 0.0
H445 H 0.76136 0.00987 0.15113 0.0
H446 H 0.82112 0.0731 0.18745 0.0
C447 C 0.94451 0.98206 0.21122 0.0
C448 C 0.89237 0.03329 0.64918 0.0
C449 C 0.83234 0.06305 0.66296 0.0
H450 H 0.96724 0.97249 0.65678 0.0
C451 C 0.80198 0.05242 0.69638 0.0
H452 H 0.9183 0.04005 0.62384 0.0
C453 C 0.83366 0.01545 0.71609 0.0
C454 C 0.89326 0.98568 0.70237 0.0
H455 H 0.75344 0.0727 0.70779 0.0
H456 H 0.81114 0.01057 0.74224 0.0
C457 C 0.9214 0.99467 0.6684 0.0
C458 C 0.64773 0.49176 0.1534 0.0
C459 C 0.65511 0.44663 0.16878 0.0
H460 H 0.61248 0.56443 0.16021 0.0
C461 C 0.62771 0.4404 0.20317 0.0
H462 H 0.66839 0.49806 0.1271 0.0
C463 C 0.59862 0.47857 0.2223 0.0
C464 C 0.59338 0.52369 0.20724 0.0
H465 H 0.62921 0.40595 0.21561 0.0
H466 H 0.57939 0.47266 0.24887 0.0
C467 C 0.61633 0.52985 0.17239 0.0
C468 C 0.42578 0.46039 0.36175 0.0
C469 C 0.3416 0.45752 0.36658 0.0
H470 H 0.52467 0.49732 0.33761 0.0
C471 C 0.29156 0.4919 0.35156 0.0
H472 H 0.46524 0.43409 0.37321 0.0
C473 C 0.32533 0.52867 0.33172 0.0
C474 C 0.40952 0.53093 0.32569 0.0
H475 H 0.22634 0.49032 0.35525 0.0
H476 H 0.28529 0.55514 0.32116 0.0
C477 C 0.45946 0.49659 0.34132 0.0
C478 C 0.21881 0.01776 0.8423 0.0
C479 C 0.16923 0.04805 0.86168 0.0
H480 H 0.22431 0.95917 0.80727 0.0
C481 C 0.08461 0.04162 0.86042 0.0
H482 H 0.28431 0.02195 0.843 0.0
C483 C 0.04998 0.00665 0.83909 0.0
C484 C 0.0994 0.97689 0.81902 0.0
H485 H 0.04517 0.06475 0.87502 0.0
H486 H 0.98439 0.00328 0.8381 0.0
C487 C 0.18429 0.98207 0.82161 0.0
C488 C 0.2005 0.18385 0.98808 0.0
C489 C 0.21123 0.13896 0.97287 0.0
H490 H 0.19642 0.22443 0.03509 0.0
C491 C 0.2175 0.09911 0.99483 0.0
H492 H 0.19312 0.21518 0.97213 0.0
C493 C 0.2173 0.10443 0.03101 0.0
C494 C 0.21179 0.14969 0.04592 0.0
H495 H 0.22652 0.06404 0.98415 0.0
H496 H 0.22593 0.07348 0.04728 0.0
C497 C 0.20157 0.18919 0.02415 0.0
C498 C 0.27585 0.33677 0.49914 0.0
C499 C 0.27392 0.37994 0.48066 0.0
H500 H 0.26909 0.30238 0.54882 0.0
C501 C 0.27078 0.4226 0.49968 0.0
H502 H 0.28062 0.30322 0.48566 0.0
C503 C 0.26691 0.42196 0.536 0.0
C504 C 0.26471 0.3787 0.55401 0.0
H505 H 0.26813 0.45655 0.48656 0.0
H506 H 0.26178 0.45517 0.54993 0.0
C507 C 0.27028 0.33616 0.53535 0.0
C508 C 0.68296 0.30306 0.05047 0.0
C509 C 0.70522 0.34938 0.06029 0.0
H510 H 0.66468 0.25371 1.00902 0.0
C511 C 0.71932 0.38343 0.03415 0.0
H512 H 0.67015 0.27629 0.06999 0.0
C513 C 0.71669 0.37034 0.99889 0.0
C514 C 0.69968 0.32306 0.9893 0.0
H515 H 0.73648 0.41943 0.04101 0.0
H516 H 0.73214 0.39652 0.97931 0.0
C517 C 0.67995 0.29013 0.01551 0.0
C518 C 0.77831 0.19613 0.53523 0.0
C519 C 0.76663 0.1513 0.55076 0.0
H520 H 0.77609 0.23733 0.48842 0.0
C521 C 0.75156 0.11193 0.52903 0.0
H522 H 0.79224 0.22707 0.5509 0.0
C523 C 0.74423 0.11785 0.49291 0.0
C524 C 0.75126 0.16322 0.47801 0.0
H525 H 0.7419 0.07693 0.54 0.0
H526 H 0.72934 0.08744 0.47684 0.0
C527 C 0.7699 0.20206 0.4994 0.0
C528 C 0.77177 0.92005 0.03495 0.0
C529 C 0.77888 0.8777 0.05425 0.0
H530 H 0.75887 0.95189 0.98448 0.0
C531 C 0.78446 0.83456 0.03594 0.0
H532 H 0.76623 0.95394 0.04787 0.0
C533 C 0.77839 0.83354 0.99971 0.0
C534 C 0.76871 0.87565 0.98077 0.0
H535 H 0.79228 0.80131 0.04958 0.0
H536 H 0.77974 0.79966 0.98644 0.0
C537 C 0.76736 0.91901 0.99858 0.0
C538 C 0.67747 0.60643 0.53088 0.0
C539 C 0.74294 0.6242 0.55085 0.0
H540 H 0.63578 0.58348 0.48053 0.0
C541 C 0.8156 0.63643 0.53375 0.0
H542 H 0.62037 0.5971 0.54317 0.0
C543 C 0.82426 0.62856 0.49809 0.0
C544 C 0.7603 0.6087 0.47846 0.0
H545 H 0.86746 0.64981 0.54825 0.0
H546 H 0.88226 0.63642 0.48602 0.0
C547 C 0.68591 0.59906 0.49498 0.0
C548 C 0.31071 0.70437 0.9899 0.0
C549 C 0.29176 0.65895 0.97693 0.0
H550 H 0.31984 0.74924 0.03458 0.0
C551 C 0.27691 0.62181 1.00067 0.0
H552 H 0.32439 0.73347 0.97238 0.0
C553 C 0.27563 0.63084 0.03653 0.0
C554 C 0.28896 0.67707 0.04904 0.0
H555 H 0.26203 0.58645 0.99151 0.0
H556 H 0.25947 0.60241 0.05426 0.0
C557 C 0.30888 0.71336 0.02549 0.0
C558 C 0.22018 0.88185 0.50216 0.0
C559 C 0.20145 0.84965 0.47539 0.0
H560 H 0.23518 0.89179 0.5572 0.0
C561 C 0.17303 0.80402 0.48407 0.0
H562 H 0.24237 0.9172 0.49608 0.0
C563 C 0.16898 0.78957 0.51864 0.0
C564 C 0.19338 0.82038 0.54545 0.0
H565 H 0.15706 0.77875 0.46391 0.0
H566 H 0.14935 0.75359 0.52436 0.0
C567 C 0.21616 0.86728 0.53703 0.0
C568 C 0.1072 0.2943 0.37105 0.0
C569 C 0.19079 0.30371 0.36809 0.0
H570 H 0.0062 0.25146 0.35409 0.0
C571 C 0.23827 0.27474 0.34685 0.0
H572 H 0.06961 0.31627 0.3874 0.0
C573 C 0.20262 0.23717 0.32854 0.0
C574 C 0.11854 0.2286 0.33027 0.0
H575 H 0.30319 0.28085 0.34476 0.0
H576 H 0.2412 0.2144 0.31353 0.0
C577 C 0.07122 0.25718 0.35212 0.0
C578 C 0.37934 0.23364 0.87484 0.0
C579 C 0.32141 0.20276 0.85953 0.0
H580 H 0.45741 0.29457 0.86847 0.0
C581 C 0.30125 0.20999 0.82438 0.0
H582 H 0.39859 0.2289 0.9015 0.0
C583 C 0.33794 0.24622 0.8052 0.0
C584 C 0.39304 0.27809 0.82074 0.0
H585 H 0.25587 0.18827 0.81143 0.0
H586 H 0.32192 0.2493 0.77816 0.0
C587 C 0.41388 0.27122 0.85579 0.0
C588 C 0.65171 0.20508 0.69844 0.0
C589 C 0.68979 0.21824 0.66707 0.0
H590 H 0.58494 0.22751 0.74303 0.0
C591 C 0.68646 0.266 0.65642 0.0
H592 H 0.65065 0.16851 0.70709 0.0
C593 C 0.6464 0.29959 0.67673 0.0
C594 C 0.6104 0.28623 0.70833 0.0
H595 H 0.7157 0.27764 0.63269 0.0
H596 H 0.64501 0.33618 0.66811 0.0
C597 C 0.61339 0.23877 0.71899 0.0
C598 C 0.82671 0.25236 0.16555 0.0
C599 C 0.82741 0.30089 0.17435 0.0
H600 H 0.86689 0.18237 0.17834 0.0
C601 C 0.8711 0.31523 0.20425 0.0
H602 H 0.79239 0.23934 0.14345 0.0
C603 C 0.91094 0.28194 0.22507 0.0
C604 C 0.91029 0.23393 0.21579 0.0
H605 H 0.87514 0.35222 0.21162 0.0
H606 H 0.9436 0.29379 0.248 0.0
C607 C 0.8687 0.21947 0.18573 0.0
C608 C 0.77995 0.71624 0.69804 0.0
C609 C 0.81095 0.70594 0.66486 0.0
H610 H 0.78955 0.75749 0.74391 0.0
C611 C 0.87497 0.73463 0.65208 0.0
H612 H 0.72907 0.69646 0.70868 0.0
C613 C 0.90727 0.77197 0.67219 0.0
C614 C 0.87751 0.78085 0.70579 0.0
H615 H 0.90145 0.72777 0.6269 0.0
H616 H 0.9568 0.79312 0.66171 0.0
C617 C 0.81388 0.75225 0.71834 0.0
C618 C 0.72337 0.75576 0.16577 0.0
C619 C 0.69438 0.80237 0.16723 0.0
H620 H 0.70928 0.68407 0.18389 0.0
C621 C 0.62687 0.81245 0.18802 0.0
H622 H 0.77596 0.74744 0.15014 0.0
C623 C 0.5881 0.77636 0.20674 0.0
C624 C 0.61729 0.72974 0.20558 0.0
H625 H 0.60392 0.84828 0.18962 0.0
H626 H 0.53614 0.78513 0.22263 0.0
C627 C 0.68557 0.71975 0.18512 0.0
C628 C 0.32653 0.75035 0.37354 0.0
C629 C 0.33097 0.7989 0.36462 0.0
H630 H 0.36317 0.67936 0.36137 0.0
C631 C 0.37858 0.81239 0.3358 0.0
H632 H 0.28916 0.73808 0.39489 0.0
C633 C 0.41778 0.7783 0.31583 0.0
C634 C 0.41302 0.73023 0.32499 0.0
H635 H 0.38579 0.84927 0.32849 0.0
H636 H 0.4527 0.78956 0.2934 0.0
C637 C 0.36834 0.71649 0.35426 0.0
C638 C 0.18655 0.76575 0.8713 0.0
C639 C 0.18831 0.71747 0.86195 0.0
H640 H 0.142 0.83517 0.85918 0.0
C641 C 0.1442 0.70263 0.83239 0.0
H642 H 0.22053 0.77876 0.8935 0.0
C643 C 0.10133 0.73519 0.81233 0.0
C644 C 0.09982 0.78312 0.8218 0.0
H645 H 0.14196 0.66566 0.8248 0.0
H646 H 0.06844 0.72278 0.78961 0.0
C647 C 0.14193 0.79815 0.85161 0.0
loop_
_geom_bond_atom_site_label_1
_geom_bond_atom_site_label_2
_geom_bond_distance
_geom_bond_site_symmetry_2
_ccdc_geom_bond_type
H0 C3 0.931 . S
H1 C6 0.928 . S
H2 C8 0.930 . S
C3 H0 0.931 . S
C3 C4 1.413 . S
C3 C5 1.360 . S
C4 C3 1.413 . S
C4 C8 1.429 . S
C5 C3 1.360 . S
C5 C6 1.372 . S
C6 H1 0.928 . S
C6 C5 1.372 . S
C6 C7 1.404 . S
C7 C6 1.404 . S
C7 C8 1.391 . S
C8 H2 0.930 . S
C8 C4 1.429 . S
C8 C7 1.391 . S
H9 C12 0.931 . S
H10 C15 0.928 . S
H11 C17 0.930 . S
C12 H9 0.931 . S
C12 C13 1.413 . S
C12 C14 1.360 . S
C13 C12 1.413 . S
C13 C17 1.429 . S
C14 C12 1.360 . S
C14 C15 1.372 . S
C15 H10 0.928 . S
C15 C14 1.372 . S
C15 C16 1.404 . S
C16 C15 1.404 . S
C16 C17 1.391 . S
C17 H11 0.930 . S
C17 C13 1.429 . S
C17 C16 1.391 . S
H18 C21 0.931 . S
H19 C24 0.928 . S
H20 C26 0.930 . S
C21 H18 0.931 . S
C21 C22 1.413 . S
C21 C23 1.360 . S
C22 C21 1.413 . S
C22 C26 1.429 . S
C23 C21 1.360 . S
C23 C24 1.372 . S
C24 H19 0.928 . S
C24 C23 1.372 . S
C24 C25 1.404 . S
C25 C24 1.404 . S
C25 C26 1.391 . S
C26 H20 0.930 . S
C26 C22 1.429 . S
C26 C25 1.391 . S
H27 C30 0.931 . S
H28 C33 0.928 . S
H29 C35 0.930 . S
C30 H27 0.931 . S
C30 C31 1.413 . S
C30 C32 1.360 . S
C31 C30 1.413 . S
C31 C35 1.429 . S
C32 C30 1.360 . S
C32 C33 1.372 . S
C33 H28 0.928 . S
C33 C32 1.372 . S
C33 C34 1.404 . S
C34 C33 1.404 . S
C34 C35 1.391 . S
C35 H29 0.930 . S
C35 C31 1.429 . S
C35 C34 1.391 . S
H36 C39 0.931 . S
H37 C42 0.928 . S
H38 C44 0.930 . S
C39 H36 0.931 . S
C39 C40 1.413 . S
C39 C41 1.360 . S
C40 C39 1.413 . S
C40 C44 1.429 . S
C41 C39 1.360 . S
C41 C42 1.372 . S
C42 H37 0.928 . S
C42 C41 1.372 . S
C42 C43 1.404 . S
C43 C42 1.404 . S
C43 C44 1.391 . S
C44 H38 0.930 . S
C44 C40 1.429 . S
C44 C43 1.391 . S
H45 C48 0.931 . S
H46 C51 0.928 . S
H47 C53 0.930 . S
C48 H45 0.931 . S
C48 C49 1.413 . S
C48 C50 1.360 . S
C49 C48 1.413 . S
C49 C53 1.429 . S
C50 C48 1.360 . S
C50 C51 1.372 . S
C51 H46 0.928 . S
C51 C50 1.372 . S
C51 C52 1.404 . S
C52 C51 1.404 . S
C52 C53 1.391 . S
C53 H47 0.930 . S
C53 C49 1.429 . S
C53 C52 1.391 . S
H54 C57 0.931 . S
H55 C60 0.928 . S
H56 C62 0.930 . S
C57 H54 0.931 . S
C57 C58 1.413 . S
C57 C59 1.360 . S
C58 C57 1.413 . S
C58 C62 1.429 . S
C59 C57 1.360 . S
C59 C60 1.372 . S
C60 H55 0.928 . S
C60 C59 1.372 . S
C60 C61 1.404 . S
C61 C60 1.404 . S
C61 C62 1.391 . S
C62 H56 0.930 . S
C62 C58 1.429 . S
C62 C61 1.391 . S
H63 C66 0.931 . S
H64 C69 0.928 . S
H65 C71 0.930 . S
C66 H63 0.931 . S
C66 C67 1.413 . S
C66 C68 1.360 . S
C67 C66 1.413 . S
C67 C71 1.429 . S
C68 C66 1.360 . S
C68 C69 1.372 . S
C69 H64 0.928 . S
C69 C68 1.372 . S
C69 C70 1.404 . S
C70 C69 1.404 . S
C70 C71 1.391 . S
C71 H65 0.930 . S
C71 C67 1.429 . S
C71 C70 1.391 . S
C72 C74 1.422 . S
C72 C76 1.415 . S
C72 N78 1.369 . S
C73 C74 1.421 . S
C73 C75 1.417 . S
C73 C85 1.422 1_545 S
C74 C72 1.422 . S
C74 C73 1.421 . S
C74 N84 1.359 . S
C75 C73 1.417 . S
C75 C77 1.329 . S
C75 H94 0.930 1_545 S
C76 C72 1.415 . S
C76 C77 1.437 . S
C76 C80 1.413 . S
C77 C75 1.329 . S
C77 C76 1.437 . S
C77 H99 0.929 . S
N78 C72 1.369 . S
N78 C79 1.338 . S
N78 Gd83 2.622 . S
C79 N78 1.338 . S
C79 C81 1.378 . S
C79 H91 0.929 . S
C80 C76 1.413 . S
C80 C81 1.348 . S
C80 H96 0.931 . S
C81 C79 1.378 . S
C81 C80 1.348 . S
C81 H97 0.930 . S
Gd82 N102 2.622 . S
Gd82 N109 2.570 . S
Gd82 O116 2.353 1_455 S
Gd82 O117 2.468 . S
Gd82 O118 2.427 . S
Gd82 O120 2.388 . S
Gd82 O121 2.386 . S
Gd82 O125 2.307 1_455 S
Gd82 C135 2.805 . S
Gd83 N78 2.622 . S
Gd83 N84 2.570 . S
Gd83 O115 2.386 . S
Gd83 O119 2.307 1_655 S
Gd83 O122 2.353 1_655 S
Gd83 O123 2.468 . S
Gd83 O124 2.427 . S
Gd83 O126 2.388 . S
Gd83 C147 2.805 . S
N84 C74 1.359 . S
N84 Gd83 2.570 . S
N84 C86 1.343 . S
C85 C73 1.422 1_565 S
C85 C87 1.321 . S
C85 H93 0.931 . S
C86 N84 1.343 . S
C86 C87 1.390 1_545 S
C86 H88 0.931 . S
C87 C85 1.321 . S
C87 C86 1.390 1_565 S
C87 H89 0.930 . S
H88 C86 0.931 . S
H89 C87 0.930 . S
H90 C113 0.931 . S
H91 C79 0.929 . S
H92 C114 0.930 . S
H93 C85 0.931 . S
H94 C75 0.930 1_565 S
H95 C104 0.929 . S
H96 C80 0.931 . S
H97 C81 0.930 . S
H98 C136 0.930 . S
H99 C77 0.929 . S
H100 C105 0.931 . S
H101 C106 0.930 . S
N102 Gd82 2.622 . S
N102 C103 1.369 . S
N102 C104 1.338 . S
C103 N102 1.369 . S
C103 C107 1.415 . S
C103 C110 1.422 . S
C104 H95 0.929 . S
C104 N102 1.338 . S
C104 C106 1.378 . S
C105 H100 0.931 . S
C105 C106 1.348 . S
C105 C107 1.413 . S
C106 H101 0.930 . S
C106 C104 1.378 . S
C106 C105 1.348 . S
C107 C103 1.415 . S
C107 C105 1.413 . S
C107 C137 1.437 . S
H108 C137 0.929 . S
N109 Gd82 2.570 . S
N109 C110 1.359 . S
N109 C113 1.343 . S
C110 C103 1.422 . S
C110 N109 1.359 . S
C110 C112 1.421 . S
C111 C112 1.422 . S
C111 C114 1.321 . S
C111 H138 0.931 . S
C112 C110 1.421 . S
C112 C111 1.422 . S
C112 C136 1.417 . S
C113 H90 0.931 . S
C113 N109 1.343 . S
C113 C114 1.390 . S
C114 H92 0.930 . S
C114 C111 1.321 . S
C114 C113 1.390 . S
O115 Gd83 2.386 . S
O115 C127 1.265 . S
O116 Gd82 2.353 1_655 S
O116 C127 1.242 . S
O117 Gd82 2.468 . S
O117 C135 1.263 . S
O118 Gd82 2.427 . S
O118 C135 1.252 . S
O119 Gd83 2.307 1_455 S
O119 C128 1.261 . S
O120 Gd82 2.388 . S
O120 C128 1.252 . S
O121 Gd82 2.386 . S
O121 C139 1.265 . S
O122 Gd83 2.353 1_455 S
O122 C139 1.242 . S
O123 Gd83 2.468 . S
O123 C147 1.263 . S
O124 Gd83 2.427 . S
O124 C147 1.252 . S
O125 Gd82 2.307 1_655 S
O125 C140 1.261 . S
O126 Gd83 2.388 . S
O126 C140 1.252 . S
C127 O115 1.265 . S
C127 O116 1.242 . S
C128 O119 1.261 . S
C128 O120 1.252 . S
C129 C132 1.394 . S
C129 C134 1.370 . S
C129 C135 1.500 . S
C130 C133 1.383 . S
C130 C134 1.395 . S
C131 C132 1.396 . S
C131 C133 1.365 . S
C131 H148 0.929 . S
C132 C129 1.394 . S
C132 C131 1.396 . S
C132 H149 0.930 . S
C133 C130 1.383 . S
C133 C131 1.365 . S
C133 H150 0.931 . S
C134 C129 1.370 . S
C134 C130 1.395 . S
C134 H151 0.930 . S
C135 Gd82 2.805 . S
C135 O117 1.263 . S
C135 O118 1.252 . S
C135 C129 1.500 . S
C136 H98 0.930 . S
C136 C112 1.417 . S
C136 C137 1.329 . S
C137 C107 1.437 . S
C137 H108 0.929 . S
C137 C136 1.329 . S
H138 C111 0.931 . S
C139 O121 1.265 . S
C139 O122 1.242 . S
C140 O125 1.261 . S
C140 O126 1.252 . S
C141 C144 1.394 . S
C141 C146 1.370 . S
C141 C147 1.500 . S
C142 C145 1.383 . S
C142 C146 1.395 . S
C143 C144 1.396 . S
C143 C145 1.365 . S
C143 H152 0.929 . S
C144 C141 1.394 . S
C144 C143 1.396 . S
C144 H153 0.930 . S
C145 C142 1.383 . S
C145 C143 1.365 . S
C145 H154 0.931 . S
C146 C141 1.370 . S
C146 C142 1.395 . S
C146 H155 0.930 . S
C147 Gd83 2.805 . S
C147 O123 1.263 . S
C147 O124 1.252 . S
C147 C141 1.500 . S
H148 C131 0.929 . S
H149 C132 0.930 . S
H150 C133 0.931 . S
H151 C134 0.930 . S
H152 C143 0.929 . S
H153 C144 0.930 . S
H154 C145 0.931 . S
H155 C146 0.930 . S
C156 C158 1.422 . S
C156 C160 1.415 . S
C156 N162 1.369 . S
C157 C158 1.421 . S
C157 C159 1.417 . S
C157 C169 1.422 . S
C158 C156 1.422 . S
C158 C157 1.421 . S
C158 N168 1.359 . S
C159 C157 1.417 . S
C159 C161 1.329 . S
C159 H178 0.930 . S
C160 C156 1.415 . S
C160 C161 1.437 . S
C160 C164 1.413 . S
C161 C159 1.329 . S
C161 C160 1.437 . S
C161 H183 0.929 . S
N162 C156 1.369 . S
N162 C163 1.338 . S
N162 Gd167 2.622 . S
C163 N162 1.338 . S
C163 C165 1.378 . S
C163 H175 0.929 . S
C164 C160 1.413 . S
C164 C165 1.348 . S
C164 H180 0.931 . S
C165 C163 1.378 . S
C165 C164 1.348 . S
C165 H181 0.930 . S
Gd166 N186 2.622 . S
Gd166 N193 2.570 . S
Gd166 O200 2.353 . S
Gd166 O201 2.468 . S
Gd166 O202 2.427 . S
Gd166 O204 2.388 . S
Gd166 O205 2.386 . S
Gd166 O209 2.307 . S
Gd166 C219 2.805 . S
Gd167 N162 2.622 . S
Gd167 N168 2.570 . S
Gd167 O199 2.386 . S
Gd167 O203 2.307 . S
Gd167 O206 2.353 . S
Gd167 O207 2.468 . S
Gd167 O208 2.427 . S
Gd167 O210 2.388 . S
Gd167 C231 2.805 . S
N168 C158 1.359 . S
N168 Gd167 2.570 . S
N168 C170 1.343 . S
C169 C157 1.422 . S
C169 C171 1.321 . S
C169 H177 0.931 . S
C170 N168 1.343 . S
C170 C171 1.390 . S
C170 H172 0.931 . S
C171 C169 1.321 . S
C171 C170 1.390 . S
C171 H173 0.930 . S
H172 C170 0.931 . S
H173 C171 0.930 . S
H174 C197 0.931 . S
H175 C163 0.929 . S
H176 C198 0.930 . S
H177 C169 0.931 . S
H178 C159 0.930 . S
H179 C188 0.929 . S
H180 C164 0.931 . S
H181 C165 0.930 . S
H182 C220 0.930 . S
H183 C161 0.929 . S
H184 C189 0.931 . S
H185 C190 0.930 . S
N186 Gd166 2.622 . S
N186 C187 1.369 . S
N186 C188 1.338 . S
C187 N186 1.369 . S
C187 C191 1.415 . S
C187 C194 1.422 . S
C188 H179 0.929 . S
C188 N186 1.338 . S
C188 C190 1.378 . S
C189 H184 0.931 . S
C189 C190 1.348 . S
C189 C191 1.413 . S
C190 H185 0.930 . S
C190 C188 1.378 . S
C190 C189 1.348 . S
C191 C187 1.415 . S
C191 C189 1.413 . S
C191 C221 1.437 . S
H192 C221 0.929 . S
N193 Gd166 2.570 . S
N193 C194 1.359 . S
N193 C197 1.343 . S
C194 C187 1.422 . S
C194 N193 1.359 . S
C194 C196 1.421 . S
C195 C196 1.422 . S
C195 C198 1.321 . S
C195 H222 0.931 . S
C196 C194 1.421 . S
C196 C195 1.422 . S
C196 C220 1.417 . S
C197 H174 0.931 . S
C197 N193 1.343 . S
C197 C198 1.390 . S
C198 H176 0.930 . S
C198 C195 1.321 . S
C198 C197 1.390 . S
O199 Gd167 2.386 . S
O199 C211 1.265 . S
O200 Gd166 2.353 . S
O200 C211 1.242 . S
O201 Gd166 2.468 . S
O201 C219 1.263 . S
O202 Gd166 2.427 . S
O202 C219 1.252 . S
O203 Gd167 2.307 . S
O203 C212 1.261 . S
O204 Gd166 2.388 . S
O204 C212 1.252 . S
O205 Gd166 2.386 . S
O205 C223 1.265 . S
O206 Gd167 2.353 . S
O206 C223 1.242 . S
O207 Gd167 2.468 . S
O207 C231 1.263 . S
O208 Gd167 2.427 . S
O208 C231 1.252 . S
O209 Gd166 2.307 . S
O209 C224 1.261 . S
O210 Gd167 2.388 . S
O210 C224 1.252 . S
C211 O199 1.265 . S
C211 O200 1.242 . S
C212 O203 1.261 . S
C212 O204 1.252 . S
C213 C216 1.394 . S
C213 C218 1.370 . S
C213 C219 1.500 . S
C214 C217 1.383 . S
C214 C218 1.395 . S
C215 C216 1.396 . S
C215 C217 1.365 . S
C215 H232 0.929 . S
C216 C213 1.394 . S
C216 C215 1.396 . S
C216 H233 0.930 . S
C217 C214 1.383 . S
C217 C215 1.365 . S
C217 H234 0.931 . S
C218 C213 1.370 . S
C218 C214 1.395 . S
C218 H235 0.930 . S
C219 Gd166 2.805 . S
C219 O201 1.263 . S
C219 O202 1.252 . S
C219 C213 1.500 . S
C220 H182 0.930 . S
C220 C196 1.417 . S
C220 C221 1.329 . S
C221 C191 1.437 . S
C221 H192 0.929 . S
C221 C220 1.329 . S
H222 C195 0.931 . S
C223 O205 1.265 . S
C223 O206 1.242 . S
C224 O209 1.261 . S
C224 O210 1.252 . S
C225 C228 1.394 . S
C225 C230 1.370 . S
C225 C231 1.500 . S
C226 C229 1.383 . S
C226 C230 1.395 . S
C227 C228 1.396 . S
C227 C229 1.365 . S
C227 H236 0.929 . S
C228 C225 1.394 . S
C228 C227 1.396 . S
C228 H237 0.930 . S
C229 C226 1.383 . S
C229 C227 1.365 . S
C229 H238 0.931 . S
C230 C225 1.370 . S
C230 C226 1.395 . S
C230 H239 0.930 . S
C231 Gd167 2.805 . S
C231 O207 1.263 . S
C231 O208 1.252 . S
C231 C225 1.500 . S
H232 C215 0.929 . S
H233 C216 0.930 . S
H234 C217 0.931 . S
H235 C218 0.930 . S
H236 C227 0.929 . S
H237 C228 0.930 . S
H238 C229 0.931 . S
H239 C230 0.930 . S
C240 C242 1.422 . S
C240 C244 1.415 . S
C240 N246 1.369 . S
C241 C242 1.421 . S
C241 C243 1.417 . S
C241 C253 1.422 . S
C242 C240 1.422 . S
C242 C241 1.421 . S
C242 N252 1.359 . S
C243 C241 1.417 . S
C243 C245 1.329 . S
C243 H262 0.930 . S
C244 C240 1.415 . S
C244 C245 1.437 . S
C244 C248 1.413 . S
C245 C243 1.329 . S
C245 C244 1.437 . S
C245 H267 0.929 . S
N246 C240 1.369 . S
N246 C247 1.338 . S
N246 Gd251 2.622 . S
C247 N246 1.338 . S
C247 C249 1.378 . S
C247 H259 0.929 . S
C248 C244 1.413 . S
C248 C249 1.348 . S
C248 H264 0.931 . S
C249 C247 1.378 . S
C249 C248 1.348 . S
C249 H265 0.930 . S
Gd250 N270 2.622 . S
Gd250 N277 2.570 . S
Gd250 O284 2.353 . S
Gd250 O285 2.468 . S
Gd250 O286 2.427 . S
Gd250 O288 2.388 . S
Gd250 O289 2.386 . S
Gd250 O293 2.307 . S
Gd250 C303 2.805 . S
Gd251 N246 2.622 . S
Gd251 N252 2.570 . S
Gd251 O283 2.386 . S
Gd251 O287 2.307 1_655 S
Gd251 O290 2.353 1_655 S
Gd251 O291 2.468 . S
Gd251 O292 2.427 . S
Gd251 O294 2.388 . S
Gd251 C315 2.805 . S
N252 C242 1.359 . S
N252 Gd251 2.570 . S
N252 C254 1.343 . S
C253 C241 1.422 . S
C253 C255 1.321 . S
C253 H261 0.931 . S
C254 N252 1.343 . S
C254 C255 1.390 . S
C254 H256 0.931 . S
C255 C253 1.321 . S
C255 C254 1.390 . S
C255 H257 0.930 . S
H256 C254 0.931 . S
H257 C255 0.930 . S
H258 C281 0.931 . S
H259 C247 0.929 . S
H260 C282 0.930 . S
H261 C253 0.931 . S
H262 C243 0.930 . S
H263 C272 0.929 . S
H264 C248 0.931 . S
H265 C249 0.930 . S
H266 C304 0.930 1_545 S
H267 C245 0.929 . S
H268 C273 0.931 . S
H269 C274 0.930 . S
N270 Gd250 2.622 . S
N270 C271 1.369 . S
N270 C272 1.338 . S
C271 N270 1.369 . S
C271 C275 1.415 . S
C271 C278 1.422 . S
C272 H263 0.929 . S
C272 N270 1.338 . S
C272 C274 1.378 . S
C273 H268 0.931 . S
C273 C274 1.348 . S
C273 C275 1.413 . S
C274 H269 0.930 . S
C274 C272 1.378 . S
C274 C273 1.348 . S
C275 C271 1.415 . S
C275 C273 1.413 . S
C275 C305 1.437 . S
H276 C305 0.929 . S
N277 Gd250 2.570 . S
N277 C278 1.359 . S
N277 C281 1.343 . S
C278 C271 1.422 . S
C278 N277 1.359 . S
C278 C280 1.421 . S
C279 C280 1.422 1_545 S
C279 C282 1.321 . S
C279 H306 0.931 . S
C280 C278 1.421 . S
C280 C279 1.422 1_565 S
C280 C304 1.417 . S
C281 H258 0.931 . S
C281 N277 1.343 . S
C281 C282 1.390 1_565 S
C282 H260 0.930 . S
C282 C279 1.321 . S
C282 C281 1.390 1_545 S
O283 Gd251 2.386 . S
O283 C295 1.265 . S
O284 Gd250 2.353 . S
O284 C295 1.242 1_455 S
O285 Gd250 2.468 . S
O285 C303 1.263 . S
O286 Gd250 2.427 . S
O286 C303 1.252 . S
O287 Gd251 2.307 1_455 S
O287 C296 1.261 . S
O288 Gd250 2.388 . S
O288 C296 1.252 . S
O289 Gd250 2.386 . S
O289 C307 1.265 . S
O290 Gd251 2.353 1_455 S
O290 C307 1.242 . S
O291 Gd251 2.468 . S
O291 C315 1.263 . S
O292 Gd251 2.427 . S
O292 C315 1.252 . S
O293 Gd250 2.307 . S
O293 C308 1.261 1_455 S
O294 Gd251 2.388 . S
O294 C308 1.252 . S
C295 O283 1.265 . S
C295 O284 1.242 1_655 S
C296 O287 1.261 . S
C296 O288 1.252 . S
C297 C300 1.394 . S
C297 C302 1.370 . S
C297 C303 1.500 . S
C298 C301 1.383 . S
C298 C302 1.395 . S
C299 C300 1.396 . S
C299 C301 1.365 . S
C299 H316 0.929 . S
C300 C297 1.394 . S
C300 C299 1.396 . S
C300 H317 0.930 . S
C301 C298 1.383 . S
C301 C299 1.365 . S
C301 H318 0.931 . S
C302 C297 1.370 . S
C302 C298 1.395 . S
C302 H319 0.930 . S
C303 Gd250 2.805 . S
C303 O285 1.263 . S
C303 O286 1.252 . S
C303 C297 1.500 . S
C304 H266 0.930 1_565 S
C304 C280 1.417 . S
C304 C305 1.329 . S
C305 C275 1.437 . S
C305 H276 0.929 . S
C305 C304 1.329 . S
H306 C279 0.931 . S
C307 O289 1.265 . S
C307 O290 1.242 . S
C308 O293 1.261 1_655 S
C308 O294 1.252 . S
C309 C312 1.394 . S
C309 C314 1.370 . S
C309 C315 1.500 . S
C310 C313 1.383 . S
C310 C314 1.395 . S
C311 C312 1.396 . S
C311 C313 1.365 . S
C311 H320 0.929 . S
C312 C309 1.394 . S
C312 C311 1.396 . S
C312 H321 0.930 . S
C313 C310 1.383 . S
C313 C311 1.365 . S
C313 H322 0.931 . S
C314 C309 1.370 . S
C314 C310 1.395 . S
C314 H323 0.930 . S
C315 Gd251 2.805 . S
C315 O291 1.263 . S
C315 O292 1.252 . S
C315 C309 1.500 . S
H316 C299 0.929 . S
H317 C300 0.930 . S
H318 C301 0.931 . S
H319 C302 0.930 . S
H320 C311 0.929 . S
H321 C312 0.930 . S
H322 C313 0.931 . S
H323 C314 0.930 . S
C324 C326 1.422 . S
C324 C328 1.415 . S
C324 N330 1.369 . S
C325 C326 1.421 . S
C325 C327 1.417 . S
C325 C337 1.422 . S
C326 C324 1.422 . S
C326 C325 1.421 . S
C326 N336 1.359 . S
C327 C325 1.417 . S
C327 C329 1.329 . S
C327 H346 0.930 . S
C328 C324 1.415 . S
C328 C329 1.437 . S
C328 C332 1.413 . S
C329 C327 1.329 . S
C329 C328 1.437 . S
C329 H351 0.929 . S
N330 C324 1.369 . S
N330 C331 1.338 . S
N330 Gd335 2.622 . S
C331 N330 1.338 . S
C331 C333 1.378 . S
C331 H343 0.929 . S
C332 C328 1.413 . S
C332 C333 1.348 . S
C332 H348 0.931 . S
C333 C331 1.378 . S
C333 C332 1.348 . S
C333 H349 0.930 . S
Gd334 N354 2.622 . S
Gd334 N361 2.570 . S
Gd334 O368 2.353 . S
Gd334 O369 2.468 . S
Gd334 O370 2.427 . S
Gd334 O372 2.388 . S
Gd334 O373 2.386 . S
Gd334 O377 2.307 . S
Gd334 C387 2.805 . S
Gd335 N330 2.622 . S
Gd335 N336 2.570 . S
Gd335 O367 2.386 . S
Gd335 O371 2.307 . S
Gd335 O374 2.353 . S
Gd335 O375 2.468 . S
Gd335 O376 2.427 . S
Gd335 O378 2.388 . S
Gd335 C399 2.805 . S
N336 C326 1.359 . S
N336 Gd335 2.570 . S
N336 C338 1.343 . S
C337 C325 1.422 . S
C337 C339 1.321 . S
C337 H345 0.931 . S
C338 N336 1.343 . S
C338 C339 1.390 . S
C338 H340 0.931 . S
C339 C337 1.321 . S
C339 C338 1.390 . S
C339 H341 0.930 . S
H340 C338 0.931 . S
H341 C339 0.930 . S
H342 C365 0.931 . S
H343 C331 0.929 . S
H344 C366 0.930 . S
H345 C337 0.931 . S
H346 C327 0.930 . S
H347 C356 0.929 . S
H348 C332 0.931 . S
H349 C333 0.930 . S
H350 C388 0.930 . S
H351 C329 0.929 . S
H352 C357 0.931 . S
H353 C358 0.930 . S
N354 Gd334 2.622 . S
N354 C355 1.369 . S
N354 C356 1.338 . S
C355 N354 1.369 . S
C355 C359 1.415 . S
C355 C362 1.422 . S
C356 H347 0.929 . S
C356 N354 1.338 . S
C356 C358 1.378 . S
C357 H352 0.931 . S
C357 C358 1.348 . S
C357 C359 1.413 . S
C358 H353 0.930 . S
C358 C356 1.378 . S
C358 C357 1.348 . S
C359 C355 1.415 . S
C359 C357 1.413 . S
C359 C389 1.437 . S
H360 C389 0.929 . S
N361 Gd334 2.570 . S
N361 C362 1.359 . S
N361 C365 1.343 . S
C362 C355 1.422 . S
C362 N361 1.359 . S
C362 C364 1.421 . S
C363 C364 1.422 . S
C363 C366 1.321 . S
C363 H390 0.931 . S
C364 C362 1.421 . S
C364 C363 1.422 . S
C364 C388 1.417 . S
C365 H342 0.931 . S
C365 N361 1.343 . S
C365 C366 1.390 . S
C366 H344 0.930 . S
C366 C363 1.321 . S
C366 C365 1.390 . S
O367 Gd335 2.386 . S
O367 C379 1.265 . S
O368 Gd334 2.353 . S
O368 C379 1.242 . S
O369 Gd334 2.468 . S
O369 C387 1.263 . S
O370 Gd334 2.427 . S
O370 C387 1.252 . S
O371 Gd335 2.307 . S
O371 C380 1.261 . S
O372 Gd334 2.388 . S
O372 C380 1.252 . S
O373 Gd334 2.386 . S
O373 C391 1.265 . S
O374 Gd335 2.353 . S
O374 C391 1.242 . S
O375 Gd335 2.468 . S
O375 C399 1.263 . S
O376 Gd335 2.427 . S
O376 C399 1.252 . S
O377 Gd334 2.307 . S
O377 C392 1.261 . S
O378 Gd335 2.388 . S
O378 C392 1.252 . S
C379 O367 1.265 . S
C379 O368 1.242 . S
C380 O371 1.261 . S
C380 O372 1.252 . S
C381 C384 1.394 . S
C381 C386 1.370 . S
C381 C387 1.500 . S
C382 C385 1.383 . S
C382 C386 1.395 . S
C383 C384 1.396 . S
C383 C385 1.365 . S
C383 H400 0.929 . S
C384 C381 1.394 . S
C384 C383 1.396 . S
C384 H401 0.930 . S
C385 C382 1.383 . S
C385 C383 1.365 . S
C385 H402 0.931 . S
C386 C381 1.370 . S
C386 C382 1.395 . S
C386 H403 0.930 . S
C387 Gd334 2.805 . S
C387 O369 1.263 . S
C387 O370 1.252 . S
C387 C381 1.500 . S
C388 H350 0.930 . S
C388 C364 1.417 . S
C388 C389 1.329 . S
C389 C359 1.437 . S
C389 H360 0.929 . S
C389 C388 1.329 . S
H390 C363 0.931 . S
C391 O373 1.265 . S
C391 O374 1.242 . S
C392 O377 1.261 . S
C392 O378 1.252 . S
C393 C396 1.394 . S
C393 C398 1.370 . S
C393 C399 1.500 . S
C394 C397 1.383 . S
C394 C398 1.395 . S
C395 C396 1.396 . S
C395 C397 1.365 . S
C395 H404 0.929 . S
C396 C393 1.394 . S
C396 C395 1.396 . S
C396 H405 0.930 . S
C397 C394 1.383 . S
C397 C395 1.365 . S
C397 H406 0.931 . S
C398 C393 1.370 . S
C398 C394 1.395 . S
C398 H407 0.930 . S
C399 Gd335 2.805 . S
C399 O375 1.263 . S
C399 O376 1.252 . S
C399 C393 1.500 . S
H400 C383 0.929 . S
H401 C384 0.930 . S
H402 C385 0.931 . S
H403 C386 0.930 . S
H404 C395 0.929 . S
H405 C396 0.930 . S
H406 C397 0.931 . S
H407 C398 0.930 . S
C408 C409 1.387 . S
C408 H412 0.950 . S
C408 C417 1.390 . S
C409 C408 1.387 . S
C409 C411 1.387 1_565 S
H410 C417 0.950 . S
C411 C409 1.387 1_545 S
C411 C413 1.390 . S
C411 H415 0.950 . S
H412 C408 0.950 . S
C413 C411 1.390 . S
C413 C414 1.387 . S
C413 H416 0.950 . S
C414 C413 1.387 . S
C414 C417 1.387 1_545 S
H415 C411 0.950 . S
H416 C413 0.950 . S
C417 C408 1.390 . S
C417 H410 0.950 . S
C417 C414 1.387 1_565 S
C418 C419 1.387 . S
C418 H422 0.950 . S
C418 C427 1.390 . S
C419 C418 1.387 . S
C419 C421 1.387 . S
H420 C427 0.950 . S
C421 C419 1.387 . S
C421 C423 1.390 . S
C421 H425 0.950 . S
H422 C418 0.950 . S
C423 C421 1.390 . S
C423 C424 1.387 . S
C423 H426 0.950 . S
C424 C423 1.387 . S
C424 C427 1.387 . S
H425 C421 0.950 . S
H426 C423 0.950 . S
C427 C418 1.390 . S
C427 H420 0.950 . S
C427 C424 1.387 . S
C428 C429 1.387 . S
C428 H432 0.950 . S
C428 C437 1.390 . S
C429 C428 1.387 . S
C429 C431 1.387 . S
H430 C437 0.950 . S
C431 C429 1.387 . S
C431 C433 1.390 . S
C431 H435 0.950 . S
H432 C428 0.950 . S
C433 C431 1.390 . S
C433 C434 1.387 . S
C433 H436 0.950 . S
C434 C433 1.387 . S
C434 C437 1.387 . S
H435 C431 0.950 . S
H436 C433 0.950 . S
C437 C428 1.390 . S
C437 H430 0.950 . S
C437 C434 1.387 . S
C438 C439 1.387 . S
C438 H442 0.950 . S
C438 C447 1.390 . S
C439 C438 1.387 . S
C439 C441 1.387 1_565 S
H440 C447 0.950 . S
C441 C439 1.387 1_545 S
C441 C443 1.390 . S
C441 H445 0.950 . S
H442 C438 0.950 . S
C443 C441 1.390 . S
C443 C444 1.387 . S
C443 H446 0.950 . S
C444 C443 1.387 . S
C444 C447 1.387 1_545 S
H445 C441 0.950 . S
H446 C443 0.950 . S
C447 C438 1.390 . S
C447 H440 0.950 . S
C447 C444 1.387 1_565 S
C448 C449 1.387 . S
C448 H452 0.950 . S
C448 C457 1.390 1_545 S
C449 C448 1.387 . S
C449 C451 1.387 . S
H450 C457 0.950 . S
C451 C449 1.387 . S
C451 C453 1.390 1_545 S
C451 H455 0.950 . S
H452 C448 0.950 . S
C453 C451 1.390 1_565 S
C453 C454 1.387 . S
C453 H456 0.950 . S
C454 C453 1.387 . S
C454 C457 1.387 . S
H455 C451 0.950 . S
H456 C453 0.950 . S
C457 C448 1.390 1_565 S
C457 H450 0.950 . S
C457 C454 1.387 . S
C458 C459 1.387 . S
C458 H462 0.950 . S
C458 C467 1.390 . S
C459 C458 1.387 . S
C459 C461 1.387 . S
H460 C467 0.950 . S
C461 C459 1.387 . S
C461 C463 1.390 . S
C461 H465 0.950 . S
H462 C458 0.950 . S
C463 C461 1.390 . S
C463 C464 1.387 . S
C463 H466 0.950 . S
C464 C463 1.387 . S
C464 C467 1.387 . S
H465 C461 0.950 . S
H466 C463 0.950 . S
C467 C458 1.390 . S
C467 H460 0.950 . S
C467 C464 1.387 . S
C468 C469 1.387 . S
C468 H472 0.950 . S
C468 C477 1.390 . S
C469 C468 1.387 . S
C469 C471 1.387 . S
H470 C477 0.950 . S
C471 C469 1.387 . S
C471 C473 1.390 . S
C471 H475 0.950 . S
H472 C468 0.950 . S
C473 C471 1.390 . S
C473 C474 1.387 . S
C473 H476 0.950 . S
C474 C473 1.387 . S
C474 C477 1.387 . S
H475 C471 0.950 . S
H476 C473 0.950 . S
C477 C468 1.390 . S
C477 H470 0.950 . S
C477 C474 1.387 . S
C478 C479 1.387 . S
C478 H482 0.950 . S
C478 C487 1.390 1_545 S
C479 C478 1.387 . S
C479 C481 1.387 . S
H480 C487 0.950 . S
C481 C479 1.387 . S
C481 C483 1.390 1_545 S
C481 H485 0.950 . S
H482 C478 0.950 . S
C483 C481 1.390 1_565 S
C483 C484 1.387 . S
C483 H486 0.950 . S
C484 C483 1.387 . S
C484 C487 1.387 . S
H485 C481 0.950 . S
H486 C483 0.950 . S
C487 C478 1.390 1_565 S
C487 H480 0.950 . S
C487 C484 1.387 . S
C488 C489 1.387 . S
C488 H492 0.950 . S
C488 C497 1.390 1_556 S
C489 C488 1.387 . S
C489 C491 1.387 . S
H490 C497 0.950 . S
C491 C489 1.387 . S
C491 C493 1.390 1_556 S
C491 H495 0.950 . S
H492 C488 0.950 . S
C493 C491 1.390 1_554 S
C493 C494 1.387 . S
C493 H496 0.950 . S
C494 C493 1.387 . S
C494 C497 1.387 . S
H495 C491 0.950 . S
H496 C493 0.950 . S
C497 C488 1.390 1_554 S
C497 H490 0.950 . S
C497 C494 1.387 . S
C498 C499 1.387 . S
C498 H502 0.950 . S
C498 C507 1.390 . S
C499 C498 1.387 . S
C499 C501 1.387 . S
H500 C507 0.950 . S
C501 C499 1.387 . S
C501 C503 1.390 . S
C501 H505 0.950 . S
H502 C498 0.950 . S
C503 C501 1.390 . S
C503 C504 1.387 . S
C503 H506 0.950 . S
C504 C503 1.387 . S
C504 C507 1.387 . S
H505 C501 0.950 . S
H506 C503 0.950 . S
C507 C498 1.390 . S
C507 H500 0.950 . S
C507 C504 1.387 . S
C508 C509 1.387 . S
C508 H512 0.950 . S
C508 C517 1.390 . S
C509 C508 1.387 . S
C509 C511 1.387 . S
H510 C517 0.950 1_556 S
C511 C509 1.387 . S
C511 C513 1.390 1_554 S
C511 H515 0.950 . S
H512 C508 0.950 . S
C513 C511 1.390 1_556 S
C513 C514 1.387 . S
C513 H516 0.950 . S
C514 C513 1.387 . S
C514 C517 1.387 1_556 S
H515 C511 0.950 . S
H516 C513 0.950 . S
C517 C508 1.390 . S
C517 H510 0.950 1_554 S
C517 C514 1.387 1_554 S
C518 C519 1.387 . S
C518 H522 0.950 . S
C518 C527 1.390 . S
C519 C518 1.387 . S
C519 C521 1.387 . S
H520 C527 0.950 . S
C521 C519 1.387 . S
C521 C523 1.390 . S
C521 H525 0.950 . S
H522 C518 0.950 . S
C523 C521 1.390 . S
C523 C524 1.387 . S
C523 H526 0.950 . S
C524 C523 1.387 . S
C524 C527 1.387 . S
H525 C521 0.950 . S
H526 C523 0.950 . S
C527 C518 1.390 . S
C527 H520 0.950 . S
C527 C524 1.387 . S
C528 C529 1.387 . S
C528 H532 0.950 . S
C528 C537 1.390 1_554 S
C529 C528 1.387 . S
C529 C531 1.387 . S
H530 C537 0.950 . S
C531 C529 1.387 . S
C531 C533 1.390 1_554 S
C531 H535 0.950 . S
H532 C528 0.950 . S
C533 C531 1.390 1_556 S
C533 C534 1.387 . S
C533 H536 0.950 . S
C534 C533 1.387 . S
C534 C537 1.387 . S
H535 C531 0.950 . S
H536 C533 0.950 . S
C537 C528 1.390 1_556 S
C537 H530 0.950 . S
C537 C534 1.387 . S
C538 C539 1.387 . S
C538 H542 0.950 . S
C538 C547 1.390 . S
C539 C538 1.387 . S
C539 C541 1.387 . S
H540 C547 0.950 . S
C541 C539 1.387 . S
C541 C543 1.390 . S
C541 H545 0.950 . S
H542 C538 0.950 . S
C543 C541 1.390 . S
C543 C544 1.387 . S
C543 H546 0.950 . S
C544 C543 1.387 . S
C544 C547 1.387 . S
H545 C541 0.950 . S
H546 C543 0.950 . S
C547 C538 1.390 . S
C547 H540 0.950 . S
C547 C544 1.387 . S
C548 C549 1.387 . S
C548 H552 0.950 . S
C548 C557 1.390 . S
C549 C548 1.387 . S
C549 C551 1.387 . S
H550 C557 0.950 1_554 S
C551 C549 1.387 . S
C551 C553 1.390 1_556 S
C551 H555 0.950 . S
H552 C548 0.950 . S
C553 C551 1.390 1_554 S
C553 C554 1.387 . S
C553 H556 0.950 . S
C554 C553 1.387 . S
C554 C557 1.387 1_554 S
H555 C551 0.950 . S
H556 C553 0.950 . S
C557 C548 1.390 . S
C557 H550 0.950 1_556 S
C557 C554 1.387 1_556 S
C558 C559 1.387 . S
C558 H562 0.950 . S
C558 C567 1.390 . S
C559 C558 1.387 . S
C559 C561 1.387 . S
H560 C567 0.950 . S
C561 C559 1.387 . S
C561 C563 1.390 . S
C561 H565 0.950 . S
H562 C558 0.950 . S
C563 C561 1.390 . S
C563 C564 1.387 . S
C563 H566 0.950 . S
C564 C563 1.387 . S
C564 C567 1.387 . S
H565 C561 0.950 . S
H566 C563 0.950 . S
C567 C558 1.390 . S
C567 H560 0.950 . S
C567 C564 1.387 . S
C568 C569 1.387 . S
C568 H572 0.950 . S
C568 C577 1.390 . S
C569 C568 1.387 . S
C569 C571 1.387 . S
H570 C577 0.950 . S
C571 C569 1.387 . S
C571 C573 1.390 . S
C571 H575 0.950 . S
H572 C568 0.950 . S
C573 C571 1.390 . S
C573 C574 1.387 . S
C573 H576 0.950 . S
C574 C573 1.387 . S
C574 C577 1.387 . S
H575 C571 0.950 . S
H576 C573 0.950 . S
C577 C568 1.390 . S
C577 H570 0.950 . S
C577 C574 1.387 . S
C578 C579 1.387 . S
C578 H582 0.950 . S
C578 C587 1.390 . S
C579 C578 1.387 . S
C579 C581 1.387 . S
H580 C587 0.950 . S
C581 C579 1.387 . S
C581 C583 1.390 . S
C581 H585 0.950 . S
H582 C578 0.950 . S
C583 C581 1.390 . S
C583 C584 1.387 . S
C583 H586 0.950 . S
C584 C583 1.387 . S
C584 C587 1.387 . S
H585 C581 0.950 . S
H586 C583 0.950 . S
C587 C578 1.390 . S
C587 H580 0.950 . S
C587 C584 1.387 . S
C588 C589 1.387 . S
C588 H592 0.950 . S
C588 C597 1.390 . S
C589 C588 1.387 . S
C589 C591 1.387 . S
H590 C597 0.950 . S
C591 C589 1.387 . S
C591 C593 1.390 . S
C591 H595 0.950 . S
H592 C588 0.950 . S
C593 C591 1.390 . S
C593 C594 1.387 . S
C593 H596 0.950 . S
C594 C593 1.387 . S
C594 C597 1.387 . S
H595 C591 0.950 . S
H596 C593 0.950 . S
C597 C588 1.390 . S
C597 H590 0.950 . S
C597 C594 1.387 . S
C598 C599 1.387 . S
C598 H602 0.950 . S
C598 C607 1.390 . S
C599 C598 1.387 . S
C599 C601 1.387 . S
H600 C607 0.950 . S
C601 C599 1.387 . S
C601 C603 1.390 . S
C601 H605 0.950 . S
H602 C598 0.950 . S
C603 C601 1.390 . S
C603 C604 1.387 . S
C603 H606 0.950 . S
C604 C603 1.387 . S
C604 C607 1.387 . S
H605 C601 0.950 . S
H606 C603 0.950 . S
C607 C598 1.390 . S
C607 H600 0.950 . S
C607 C604 1.387 . S
C608 C609 1.387 . S
C608 H612 0.950 . S
C608 C617 1.390 . S
C609 C608 1.387 . S
C609 C611 1.387 . S
H610 C617 0.950 . S
C611 C609 1.387 . S
C611 C613 1.390 . S
C611 H615 0.950 . S
H612 C608 0.950 . S
C613 C611 1.390 . S
C613 C614 1.387 . S
C613 H616 0.950 . S
C614 C613 1.387 . S
C614 C617 1.387 . S
H615 C611 0.950 . S
H616 C613 0.950 . S
C617 C608 1.390 . S
C617 H610 0.950 . S
C617 C614 1.387 . S
C618 C619 1.387 . S
C618 H622 0.950 . S
C618 C627 1.390 . S
C619 C618 1.387 . S
C619 C621 1.387 . S
H620 C627 0.950 . S
C621 C619 1.387 . S
C621 C623 1.390 . S
C621 H625 0.950 . S
H622 C618 0.950 . S
C623 C621 1.390 . S
C623 C624 1.387 . S
C623 H626 0.950 . S
C624 C623 1.387 . S
C624 C627 1.387 . S
H625 C621 0.950 . S
H626 C623 0.950 . S
C627 C618 1.390 . S
C627 H620 0.950 . S
C627 C624 1.387 . S
C628 C629 1.387 . S
C628 H632 0.950 . S
C628 C637 1.390 . S
C629 C628 1.387 . S
C629 C631 1.387 . S
H630 C637 0.950 . S
C631 C629 1.387 . S
C631 C633 1.390 . S
C631 H635 0.950 . S
H632 C628 0.950 . S
C633 C631 1.390 . S
C633 C634 1.387 . S
C633 H636 0.950 . S
C634 C633 1.387 . S
C634 C637 1.387 . S
H635 C631 0.950 . S
H636 C633 0.950 . S
C637 C628 1.390 . S
C637 H630 0.950 . S
C637 C634 1.387 . S
C638 C639 1.387 . S
C638 H642 0.950 . S
C638 C647 1.390 . S
C639 C638 1.387 . S
C639 C641 1.387 . S
H640 C647 0.950 . S
C641 C639 1.387 . S
C641 C643 1.390 . S
C641 H645 0.950 . S
H642 C638 0.950 . S
C643 C641 1.390 . S
C643 C644 1.387 . S
C643 H646 0.950 . S
C644 C643 1.387 . S
C644 C647 1.387 . S
H645 C641 0.950 . S
H646 C643 0.950 . S
C647 C638 1.390 . S
C647 H640 0.950 . S
C647 C644 1.387 . S
C409 C58 1.479 . S
C414 C128 1.456 . S
C424 C212 1.456 . S
C419 C68 1.479 . S
C434 C211 1.467 . S
C429 C40 1.468 . S
C439 C50 1.467 . S
C444 C127 1.468 . S
C454 C308 1.457 . S
C449 C23 1.481 . S
C464 C392 1.458 . S
C459 C32 1.480 . S
C469 C5 1.471 . S
C474 C391 1.469 . S
C479 C14 1.469 . S
C484 C307 1.467 . S
C494 C130 1.323 . S
C489 C13 1.502 . S
C504 C214 1.322 . S
C499 C4 1.502 . S
C514 C226 1.408 . S
C509 C31 1.523 . S
C524 C142 1.408 . S
C519 C22 1.523 . S
C534 C310 1.324 . S
C529 C49 1.502 . S
C539 C41 1.504 . S
C544 C394 1.324 . S
C554 C382 1.405 . S
C549 C67 1.522 . S
C559 C59 1.524 . S
C564 C298 1.409 . S
C574 C139 1.521 . S
C569 C7 1.517 . S
C584 C223 1.519 . S
C579 C16 1.515 . S
C589 C25 1.514 . S
C594 C224 1.499 . S
C604 C140 1.499 . S
C599 C34 1.512 . S
C614 C295 1.520 . S
C609 C43 1.518 . S
C619 C52 1.516 . S
C624 C379 1.521 . S
C629 C61 1.516 . S
C634 C380 1.500 . S
C639 C70 1.513 . S
C644 C296 1.501 . S
