# Generated by pormake.
# Topology anh, (6,3)-cn, num edge types: 1
# Building blocks:
#     Node 0, Type 0, BuildingBlock: NUHQIS_clean_sbu_0, # of connection points: 6
#     Node 1, Type 0, BuildingBlock: NUHQIS_clean_sbu_0, # of connection points: 6
#     Node 2, Type 0, BuildingBlock: NUHQIS_clean_sbu_0, # of connection points: 6
#     Node 3, Type 1, BuildingBlock: BELTOD_clean_linker_0, # of connection points: 3
#     Node 4, Type 1, BuildingBlock: BELTOD_clean_linker_0, # of connection points: 3
#     Node 5, Type 1, BuildingBlock: BELTOD_clean_linker_0, # of connection points: 3
#     Node 6, Type 1, BuildingBlock: BELTOD_clean_linker_0, # of connection points: 3
#     Node 7, Type 1, BuildingBlock: BELTOD_clean_linker_0, # of connection points: 3
#     Node 8, Type 1, BuildingBlock: BELTOD_clean_linker_0, # of connection points: 3
#     Edge 9, Type (0, 1), BuildingBlock: UVAHIK_clean_linker_0, # of connection points: 2
#     Edge 10, Type (0, 1), BuildingBlock: UVAHIK_clean_linker_0, # of connection points: 2
#     Edge 11, Type (0, 1), BuildingBlock: UVAHIK_clean_linker_0, # of connection points: 2
#     Edge 12, Type (0, 1), BuildingBlock: UVAHIK_clean_linker_0, # of connection points: 2
#     Edge 13, Type (0, 1), BuildingBlock: UVAHIK_clean_linker_0, # of connection points: 2
#     Edge 14, Type (0, 1), BuildingBlock: UVAHIK_clean_linker_0, # of connection points: 2
#     Edge 15, Type (0, 1), BuildingBlock: UVAHIK_clean_linker_0, # of connection points: 2
#     Edge 16, Type (0, 1), BuildingBlock: UVAHIK_clean_linker_0, # of connection points: 2
#     Edge 17, Type (0, 1), BuildingBlock: UVAHIK_clean_linker_0, # of connection points: 2
#     Edge 18, Type (0, 1), BuildingBlock: UVAHIK_clean_linker_0, # of connection points: 2
#     Edge 19, Type (0, 1), BuildingBlock: UVAHIK_clean_linker_0, # of connection points: 2
#     Edge 20, Type (0, 1), BuildingBlock: UVAHIK_clean_linker_0, # of connection points: 2
#     Edge 21, Type (0, 1), BuildingBlock: UVAHIK_clean_linker_0, # of connection points: 2
#     Edge 22, Type (0, 1), BuildingBlock: UVAHIK_clean_linker_0, # of connection points: 2
#     Edge 23, Type (0, 1), BuildingBlock: UVAHIK_clean_linker_0, # of connection points: 2
#     Edge 24, Type (0, 1), BuildingBlock: UVAHIK_clean_linker_0, # of connection points: 2
#     Edge 25, Type (0, 1), BuildingBlock: UVAHIK_clean_linker_0, # of connection points: 2
#     Edge 26, Type (0, 1), BuildingBlock: UVAHIK_clean_linker_0, # of connection points: 2
# Relax obj value: 0.201
# Max RMSD: 0.178
# Mean RMSD: 0.141
data_MOF--net-anh--node1-NUHQIS_clean_sbu_0--node2-BELTOD_clean_linker_0--edge1-UVAHIK_clean_linker_0
_symmetry_space_group_name_H-M    P1
_symmetry_Int_Tables_number       1
_symmetry_cell_setting            triclinic
loop_
_symmetry_equiv_pos_as_xyz
'x, y, z'
_cell_length_a     43.062499
_cell_length_b     42.9848
_cell_length_c     75.982811
_cell_angle_alpha  89.595745
_cell_angle_beta   94.053133
_cell_angle_gamma 120.07731
loop_
_atom_site_label
_atom_site_type_symbol
_atom_site_fract_x
_atom_site_fract_y
_atom_site_fract_z
_atom_type_partial_charge
Tb0 Tb 0.12015 0.59024 0.16238 0.0
Eu1 Eu 0.07763 0.63306 0.16962 0.0
C2 C 0.11602 0.61058 0.20046 0.0
C3 C 1.03673 0.54657 0.16863 0.0
C4 C 0.18971 0.56381 0.1584 0.0
C5 C 0.24707 0.58803 0.17577 0.0
C6 C 0.2125 0.58348 0.17324 0.0
C7 C 0.20203 0.54955 0.14598 0.0
C8 C 0.23651 0.55428 0.14841 0.0
C9 C 0.25934 0.57337 0.16337 0.0
C10 C 0.15299 0.55761 0.15553 0.0
O11 O 0.08685 0.58595 0.13872 0.0
O12 O 0.09077 0.64036 0.14106 0.0
O13 O 0.13571 0.67718 0.17228 0.0
O14 O 0.162 0.6472 0.1607 0.0
C15 C 0.08716 0.61361 0.13125 0.0
O16 O 1.0396 0.65023 0.16053 0.0
O17 O 1.06269 0.66202 0.18756 0.0
O18 O 0.08605 0.61006 0.19522 0.0
O19 O 0.13799 0.6122 0.18899 0.0
O20 O 1.06828 0.54857 0.17131 0.0
O21 O 1.03453 0.57501 0.16421 0.0
C22 C 0.1639 0.67694 0.16677 0.0
O23 O 0.13525 0.55223 0.16953 0.0
O24 O 0.14876 0.57902 0.14465 0.0
C25 C 1.00057 0.63979 0.18233 0.0
C26 C 0.92669 0.59355 0.18594 0.0
C27 C 0.95159 0.58216 0.19041 0.0
C28 C 0.98814 0.60509 0.18866 0.0
C29 C 0.97638 0.65226 0.17899 0.0
C30 C 0.93968 0.62939 0.18094 0.0
C31 C 1.03705 0.65966 0.1764 0.0
H32 H 0.26416 0.60293 0.18738 0.0
H33 H 0.20348 0.595 0.18291 0.0
H34 H 0.18478 0.53434 0.13445 0.0
H35 H 0.24493 0.54208 0.1388 0.0
H36 H 0.94274 0.55472 0.19404 0.0
H37 H 1.00641 0.59483 0.19115 0.0
H38 H 0.98552 0.67891 0.174 0.0
H39 H 0.92131 0.63925 0.17771 0.0
Tb40 Tb 0.59712 0.11983 0.50123 0.0
Eu41 Eu 0.50978 0.08042 0.49781 0.0
C42 C 0.55482 0.09056 0.53446 0.0
C43 C 0.55019 1.03403 0.49997 0.0
C44 C 0.6941 0.18776 0.49883 0.0
C45 C 0.75348 0.22263 0.48825 0.0
C46 C 0.72512 0.18977 0.49298 0.0
C47 C 0.69154 0.21905 0.49976 0.0
C48 C 0.72014 0.2521 0.49517 0.0
C49 C 0.75136 0.25414 0.48936 0.0
C50 C 0.66492 0.15276 0.50384 0.0
O51 O 0.58345 0.13024 0.47463 0.0
O52 O 0.5266 0.0819 0.47019 0.0
O53 O 0.52829 0.13884 0.49316 0.0
O54 O 0.58366 0.16127 0.50823 0.0
C55 C 0.55616 0.10741 0.46398 0.0
O56 O 0.4578 1.04131 0.48479 0.0
O57 O 0.45974 0.07197 0.5077 0.0
O58 O 0.52882 0.09428 0.52666 0.0
O59 O 0.58039 0.09199 0.52559 0.0
O60 O 0.57962 0.06293 0.49543 0.0
O61 O 0.52208 1.03601 0.50408 0.0
C62 C 0.55718 0.16575 0.50132 0.0
O63 O 0.64555 0.15312 0.5162 0.0
O64 O 0.64524 0.13039 0.49082 0.0
C65 C 0.41947 1.0092 0.50649 0.0
C66 C 0.39537 0.93943 0.51885 0.0
C67 C 0.37976 0.94465 0.503 0.0
C68 C 0.39175 0.9793 0.49688 0.0
C69 C 0.43281 1.00421 0.52306 0.0
C70 C 0.42073 0.96966 0.52922 0.0
C71 C 0.44012 1.04331 0.49755 0.0
H72 H 0.77744 0.22351 0.48408 0.0
H73 H 0.7275 0.1659 0.49218 0.0
H74 H 0.66759 0.21797 0.50409 0.0
H75 H 0.7178 0.27597 0.49605 0.0
H76 H 0.36039 0.92196 0.4946 0.0
H77 H 0.3815 0.98249 0.48397 0.0
H78 H 0.45454 1.02676 0.5307 0.0
H79 H 0.43281 0.96655 0.5416 0.0
Tb80 Tb 0.56272 0.58409 0.84135 0.0
Eu81 Eu 0.51913 0.49938 0.82877 0.0
C82 C 0.53904 0.52358 0.86873 0.0
C83 C 0.60673 0.54376 0.83567 0.0
C84 C 0.58199 0.67073 0.86123 0.0
C85 C 0.59455 0.71656 0.88353 0.0
C86 C 0.60415 0.69397 0.87528 0.0
C87 C 0.54915 0.66897 0.85615 0.0
C88 C 0.53968 0.69169 0.86427 0.0
C89 C 0.56273 0.7165 0.87774 0.0
C90 C 0.59362 0.64895 0.85184 0.0
O91 O 0.57114 0.58101 0.81343 0.0
O92 O 0.51714 0.53118 0.80571 0.0
O93 O 0.47585 0.51059 0.83681 0.0
O94 O 0.50706 0.57239 0.83637 0.0
C95 C 0.54561 0.56057 0.8013 0.0
O96 O 0.50653 0.45689 0.80931 0.0
O97 O 0.48106 0.44346 0.83402 0.0
O98 O 0.54099 0.50331 0.85666 0.0
O99 O 0.5386 0.55299 0.86443 0.0
O100 O 0.60501 0.56996 0.84358 0.0
O101 O 0.5782 0.51679 0.82722 0.0
C102 C 0.47671 0.54165 0.83726 0.0
O103 O 0.59521 0.62386 0.86087 0.0
O104 O 0.57909 0.63771 0.83582 0.0
C105 C 0.50161 0.40654 0.82356 0.0
C106 C 0.53167 0.36185 0.82835 0.0
C107 C 0.5503 0.39747 0.83514 0.0
C108 C 0.53532 0.4195 0.83283 0.0
C109 C 0.4823 0.37082 0.81719 0.0
C110 C 0.49717 0.34852 0.81962 0.0
C111 C 0.48809 0.43132 0.82004 0.0
H112 H 0.61266 0.73494 0.89404 0.0
H113 H 0.62933 0.6953 0.87957 0.0
H114 H 0.53134 0.65094 0.84547 0.0
H115 H 0.51524 0.69114 0.85924 0.0
H116 H 0.57713 0.40895 0.84162 0.0
H117 H 0.55056 0.44707 0.83788 0.0
H118 H 0.45614 0.36043 0.81007 0.0
H119 H 0.48194 0.32107 0.81443 0.0
P120 P 0.62063 0.09864 0.21854 0.0
H121 H 0.59943 1.04374 0.19038 0.0
H122 H 0.54098 0.994 0.17926 0.0
H123 H 0.48838 1.03691 0.20922 0.0
H124 H 0.54701 0.08753 0.21945 0.0
H125 H 0.68307 0.11816 0.19843 0.0
H126 H 0.73195 0.1752 0.18955 0.0
H127 H 0.67805 0.22953 0.20764 0.0
H128 H 0.62812 0.1715 0.21596 0.0
H129 H 0.57081 0.04904 0.24276 0.0
H130 H 0.65494 0.16033 0.24474 0.0
O131 O 0.64138 0.07467 0.22081 0.0
H132 H 0.56137 0.05402 0.27353 0.0
H133 H 0.64462 0.16598 0.27536 0.0
C134 C 0.57788 0.06926 0.20602 0.0
C135 C 0.57531 1.04304 0.19416 0.0
C136 C 0.54162 1.01408 0.18803 0.0
C137 C 0.50943 1.01034 0.19369 0.0
C138 C 0.51218 1.03839 0.20448 0.0
C139 C 0.54595 0.06761 0.21041 0.0
C140 C 0.65211 0.14036 0.20836 0.0
C141 C 0.68132 0.14216 0.20032 0.0
C142 C 0.70971 0.17514 0.19539 0.0
C143 C 0.70993 0.20759 0.19835 0.0
C144 C 0.67924 0.20538 0.20521 0.0
C145 C 0.65053 0.17209 0.21002 0.0
C146 C 0.6123 0.10475 0.24098 0.0
C147 C 0.5865 0.07495 0.24961 0.0
C148 C 0.58111 0.07784 0.26731 0.0
C149 C 0.60177 0.11058 0.27698 0.0
C150 C 0.62811 0.14032 0.26839 0.0
C151 C 0.63361 0.13729 0.25065 0.0
P152 P 0.59219 0.61875 0.55313 0.0
H153 H 0.60427 0.59391 0.51959 0.0
H154 H 0.59444 0.53543 0.50959 0.0
H155 H 0.53476 0.48687 0.55506 0.0
H156 H 0.54319 0.5446 0.56435 0.0
H157 H 0.55582 0.62701 0.51958 0.0
H158 H 0.54224 0.67428 0.51012 0.0
H159 H 0.58475 0.72795 0.56125 0.0
H160 H 0.59755 0.6813 0.57043 0.0
H161 H 0.6408 0.61973 0.58255 0.0
H162 H 0.53407 0.60515 0.57551 0.0
O163 O 0.63613 0.64097 0.55023 0.0
H164 H 0.63567 0.61343 0.61437 0.0
H165 H 0.52885 0.59937 0.6074 0.0
C166 C 0.57462 0.57417 0.54278 0.0
C167 C 0.58803 0.57044 0.52709 0.0
C168 C 0.58292 0.53685 0.52155 0.0
C169 C 0.56438 0.50594 0.53163 0.0
C170 C 0.54901 0.50951 0.54675 0.0
C171 C 0.55392 0.54299 0.55217 0.0
C172 C 0.57639 0.64952 0.54601 0.0
C173 C 0.56134 0.64853 0.52884 0.0
C174 C 0.55399 0.67591 0.5234 0.0
C175 C 0.56182 0.70505 0.53497 0.0
C176 C 0.57715 0.70573 0.55205 0.0
C177 C 0.58448 0.67869 0.55738 0.0
C178 C 0.58807 0.61357 0.57668 0.0
C179 C 0.61634 0.61545 0.58786 0.0
C180 C 0.61341 0.61198 0.60609 0.0
C181 C 0.58196 0.6062 0.61351 0.0
C182 C 0.55338 0.60359 0.60217 0.0
C183 C 0.55639 0.60713 0.58393 0.0
P184 P 0.07345 0.59652 0.87979 0.0
H185 H 0.08259 0.56592 0.84691 0.0
H186 H 0.12804 0.55058 0.83936 0.0
H187 H 0.17121 0.57072 0.89378 0.0
H188 H 0.1262 0.58534 0.90109 0.0
H189 H 1.04458 0.62681 0.85298 0.0
H190 H 0.98382 0.61453 0.84448 0.0
H191 H 0.94063 0.51938 0.87556 0.0
H192 H 1.00191 0.53168 0.88394 0.0
H193 H 0.0899 0.65486 0.90519 0.0
H194 H 1.04966 0.54071 0.90639 0.0
O195 O 0.09876 0.63907 0.87398 0.0
H196 H 0.08849 0.65737 0.9371 0.0
H197 H 1.04651 0.54259 0.93834 0.0
C198 C 0.09962 0.57539 0.87474 0.0
C199 C 0.10104 0.56574 0.8573 0.0
C200 C 0.12756 0.55754 0.85296 0.0
C201 C 0.15358 0.55915 0.86594 0.0
C202 C 0.1514 0.56816 0.88341 0.0
C203 C 0.12515 0.57639 0.88768 0.0
C204 C 1.0283 0.5804 0.86927 0.0
C205 C 1.0222 0.60279 0.85771 0.0
C206 C 0.9872 0.59594 0.85298 0.0
C207 C 0.95707 0.56638 0.85962 0.0
C208 C 0.96303 0.54247 0.8702 0.0
C209 C 0.99825 0.54946 0.87499 0.0
C210 C 0.07026 0.59764 0.90338 0.0
C211 C 0.08045 0.6302 0.9123 0.0
C212 C 0.07928 0.63154 0.93061 0.0
C213 C 1.06746 0.6002 0.94044 0.0
C214 C 1.05635 0.5674 0.93133 0.0
C215 C 1.05777 0.56617 0.913 0.0
P216 P 0.21104 0.5023 0.43373 0.0
H217 H 0.25767 0.50952 0.46507 0.0
H218 H 0.30105 0.56177 0.48378 0.0
H219 H 0.2855 0.63167 0.4476 0.0
H220 H 0.24239 0.57977 0.42921 0.0
H221 H 0.15352 0.43582 0.44743 0.0
H222 H 0.0965 0.42136 0.45909 0.0
H223 H 0.12395 0.53249 0.45483 0.0
H224 H 0.18033 0.54643 0.44274 0.0
H225 H 0.26079 0.5445 0.40706 0.0
H226 H 0.14613 0.47696 0.4098 0.0
O227 O 0.21842 0.46773 0.43479 0.0
H228 H 0.25066 0.55949 0.3768 0.0
H229 H 0.13593 0.49183 0.37978 0.0
C230 C 0.24769 0.54085 0.44546 0.0
C231 C 0.26443 0.53623 0.46095 0.0
C232 C 0.28896 0.56601 0.47169 0.0
C233 C 0.29698 0.60083 0.46705 0.0
C234 C 0.28063 0.6053 0.45131 0.0
C235 C 0.25598 0.57557 0.44071 0.0
C236 C 0.17132 0.49226 0.44445 0.0
C237 C 0.1475 0.45714 0.44927 0.0
C238 C 0.11497 0.44898 0.456 0.0
C239 C 0.10573 0.47583 0.45793 0.0
C240 C 0.13012 0.51116 0.45338 0.0
C241 C 0.16255 0.51923 0.44664 0.0
C242 C 0.2042 0.51071 0.41092 0.0
C243 C 0.23348 0.53297 0.40119 0.0
C244 C 0.22767 0.54155 0.38393 0.0
C245 C 0.19247 0.52721 0.37602 0.0
C246 C 0.16335 0.5033 0.3855 0.0
C247 C 0.16918 0.49503 0.40276 0.0
P248 P 0.70457 0.07769 0.7713 0.0
H249 H 0.73451 0.10994 0.80629 0.0
H250 H 0.73651 0.16081 0.82192 0.0
H251 H 0.69951 0.1892 0.77351 0.0
H252 H 0.69585 0.13803 0.75826 0.0
H253 H 0.69054 1.0067 0.7823 0.0
H254 H 0.6463 0.96205 0.8009 0.0
H255 H 0.6001 1.02994 0.80709 0.0
H256 H 0.64415 0.07431 0.78832 0.0
H257 H 0.73572 0.11865 0.74025 0.0
H258 H 0.63552 1.02559 0.75221 0.0
O259 O 0.74137 0.07392 0.77257 0.0
H260 H 0.71027 0.11667 0.71002 0.0
H261 H 0.61078 1.02296 0.72195 0.0
C262 C 0.71554 0.12037 0.78104 0.0
C263 C 0.72791 0.12782 0.79894 0.0
C264 C 0.72899 0.15672 0.80786 0.0
C265 C 0.71851 0.17897 0.79883 0.0
C266 C 0.70843 0.17283 0.78066 0.0
C267 C 0.70644 0.14347 0.77189 0.0
C268 C 0.67118 1.04413 0.78435 0.0
C269 C 0.67086 1.01192 0.78763 0.0
C270 C 0.64541 0.98636 0.79814 0.0
C271 C 0.61989 0.99269 0.80549 0.0
C272 C 0.61972 1.02462 0.80176 0.0
C273 C 0.64493 0.04996 0.79109 0.0
C274 C 0.68739 0.07272 0.74857 0.0
C275 C 0.70853 0.09753 0.73631 0.0
C276 C 0.69403 0.09648 0.71914 0.0
C277 C 0.65862 0.06981 0.71387 0.0
C278 C 0.63815 1.04376 0.72582 0.0
C279 C 0.65234 1.04536 0.74312 0.0
P280 P 0.46635 0.33311 0.09856 0.0
H281 H 0.47902 0.30582 0.13178 0.0
H282 H 0.53457 0.31583 0.14823 0.0
H283 H 0.59457 0.36971 0.10366 0.0
H284 H 0.53971 0.36066 0.08756 0.0
H285 H 0.40182 0.33806 0.10105 0.0
H286 H 0.3906 0.3806 0.11687 0.0
H287 H 0.49825 0.43082 0.14219 0.0
H288 H 0.50989 0.38935 0.12601 0.0
H289 H 0.47617 0.30782 0.06499 0.0
H290 H 0.47469 0.40096 0.08464 0.0
O291 O 0.43146 0.29121 0.09684 0.0
H292 H 0.48946 0.33442 0.03599 0.0
H293 H 0.48544 0.42643 0.0557 0.0
C294 C 0.50516 0.33234 0.10844 0.0
C295 C 0.50401 0.31887 0.12539 0.0
C296 C 0.53567 0.32468 0.13479 0.0
C297 C 0.56873 0.34341 0.12717 0.0
C298 C 0.56935 0.35471 0.10974 0.0
C299 C 0.53787 0.34956 0.10051 0.0
C300 C 0.45631 0.3599 0.11264 0.0
C301 C 0.42272 0.35772 0.11029 0.0
C302 C 0.41643 0.38209 0.11921 0.0
C303 C 0.44358 0.40872 0.13075 0.0
C304 C 0.47681 0.41018 0.13353 0.0
C305 C 0.48333 0.38629 0.12433 0.0
C306 C 0.47408 0.3521 0.07697 0.0
C307 C 0.47813 0.3337 0.06298 0.0
C308 C 0.48554 0.34892 0.04638 0.0
C309 C 0.48854 0.38269 0.04339 0.0
C310 C 0.48406 0.40077 0.05749 0.0
C311 C 0.47733 0.38585 0.07412 0.0
C312 C 0.30562 0.5672 0.1826 0.0
C313 C 0.29486 0.57574 0.16625 0.0
C314 C 0.33521 0.56192 0.18416 0.0
C315 C 0.40887 0.56577 0.1589 0.0
H316 H 0.37837 0.47259 0.17906 0.0
C317 C 0.42769 0.45684 0.12812 0.0
C318 C 0.43806 0.43647 0.13888 0.0
C319 C 0.42176 0.48274 0.1356 0.0
C320 C 0.38784 0.49904 0.17374 0.0
H321 H 0.30879 0.58942 0.13934 0.0
H322 H 0.35936 0.57922 0.14181 0.0
H323 H 0.34772 0.50514 0.18562 0.0
H324 H 0.4512 0.42739 0.16575 0.0
H325 H 0.43936 0.47212 0.17901 0.0
H326 H 0.44686 0.55776 0.14574 0.0
C327 C 0.34548 0.57677 0.15353 0.0
C328 C 0.37037 0.51787 0.17754 0.0
C329 C 0.3161 0.58216 0.152 0.0
C330 C 0.4431 0.44282 0.15725 0.0
C331 C 0.43645 0.46833 0.16479 0.0
C332 C 0.42599 0.54668 0.15491 0.0
C333 C 0.35445 0.56501 0.1694 0.0
C334 C 0.37946 0.55061 0.16944 0.0
C335 C 0.42558 0.48838 0.154 0.0
C336 C 0.41445 0.51243 0.16166 0.0
H337 H 0.28979 0.5622 0.19384 0.0
H338 H 0.3418 0.55352 0.19666 0.0
H339 H 0.41718 0.59135 0.15281 0.0
H340 H 0.42402 0.45261 0.11391 0.0
H341 H 0.41286 0.49745 0.12701 0.0
C342 C 0.79607 0.31905 0.49661 0.0
C343 C 0.78242 0.28899 0.48502 0.0
C344 C 0.82864 0.35014 0.49384 0.0
C345 C 0.89788 0.39428 0.46133 0.0
H346 H 0.96535 0.42328 0.50276 0.0
C347 C 1.04984 0.48055 0.45502 0.0
C348 C 0.0699 0.46648 0.46364 0.0
C349 C 1.01459 0.46883 0.4591 0.0
C350 C 0.94681 0.41567 0.49109 0.0
H351 H 0.79036 0.26874 0.46072 0.0
H352 H 0.84722 0.32248 0.45599 0.0
H353 H 0.9013 0.38413 0.50587 0.0
H354 H 1.06949 0.43081 0.48405 0.0
H355 H 1.00777 0.40958 0.4908 0.0
H356 H 0.94355 0.42356 0.44638 0.0
C357 C 0.83294 0.32239 0.46718 0.0
C358 C 0.91003 0.3936 0.49289 0.0
C359 C 0.80057 0.29139 0.46999 0.0
C360 C 1.05455 0.44175 0.477 0.0
C361 C 1.01932 0.42999 0.48104 0.0
C362 C 0.93465 0.41623 0.45952 0.0
C363 C 0.84792 0.3517 0.47935 0.0
C364 C 0.88534 0.38145 0.47793 0.0
C365 C 0.99864 0.44276 0.47185 0.0
C366 C 0.95963 0.42595 0.4743 0.0
H367 H 0.78259 0.31787 0.50832 0.0
H368 H 0.83936 0.37244 0.50335 0.0
H369 H 0.87942 0.38583 0.4496 0.0
H370 H 1.06079 0.49948 0.44459 0.0
H371 H 0.99949 0.47945 0.45191 0.0
C372 C 0.58493 0.78112 0.88521 0.0
C373 C 0.55616 0.74552 0.88356 0.0
C374 C 0.57842 0.80973 0.88561 0.0
C375 C 0.51148 0.8261 0.86376 0.0
H376 H 0.58651 0.92373 0.87645 0.0
C377 C 0.57708 0.92964 0.81338 0.0
C378 C 0.5947 0.96657 0.8176 0.0
C379 C 0.55782 0.90463 0.82582 0.0
C380 C 0.56452 0.89684 0.87303 0.0
H381 H 0.49821 0.71195 0.88382 0.0
H382 H 0.4868 0.76217 0.88426 0.0
H383 H 0.58001 0.87486 0.895 0.0
H384 H 0.60391 1.00651 0.83768 0.0
H385 H 0.57018 0.9626 0.85958 0.0
H386 H 0.49724 0.84787 0.84129 0.0
C387 C 0.51438 0.76788 0.88489 0.0
C388 C 0.56101 0.86873 0.88363 0.0
C389 C 0.52092 0.73913 0.88454 0.0
C390 C 0.59056 0.97812 0.83409 0.0
C391 C 0.57139 0.95303 0.84664 0.0
C392 C 0.51474 0.85422 0.85329 0.0
C393 C 0.54297 0.80347 0.88431 0.0
C394 C 0.53651 0.83284 0.87824 0.0
C395 C 0.55584 0.916 0.84283 0.0
C396 C 0.54323 0.88945 0.85702 0.0
H397 H 0.61242 0.78723 0.88442 0.0
H398 H 0.60123 0.83667 0.88505 0.0
H399 H 0.49199 0.79887 0.85925 0.0
H400 H 0.57945 0.92005 0.80067 0.0
H401 H 0.54665 0.87638 0.82246 0.0
C402 C 0.86591 0.56772 0.16966 0.0
C403 C 0.88753 0.56669 0.18414 0.0
C404 C 0.83079 0.5395 0.16607 0.0
C405 C 0.75574 0.45889 0.18404 0.0
H406 H 0.72991 0.43191 0.13431 0.0
C407 C 0.60983 0.37558 0.15375 0.0
C408 C 0.60308 0.35584 0.13791 0.0
C409 C 0.64468 0.39468 0.16189 0.0
C410 C 0.73674 0.43844 0.1483 0.0
H411 H 0.88811 0.5361 0.2069 0.0
H412 H 0.82691 0.48621 0.20028 0.0
H413 H 0.78991 0.47982 0.14371 0.0
H414 H 0.62637 0.33753 0.11907 0.0
H415 H 0.68711 0.36981 0.13362 0.0
H416 H 0.70237 0.41707 0.18856 0.0
C417 C 0.83723 0.50905 0.19178 0.0
C418 C 0.77105 0.46648 0.15365 0.0
C419 C 0.8724 0.53752 0.19548 0.0
C420 C 0.63106 0.35291 0.13118 0.0
C421 C 0.66581 0.3716 0.13946 0.0
C422 C 0.72129 0.43058 0.17867 0.0
C423 C 0.81646 0.5093 0.17673 0.0
C424 C 0.78067 0.47767 0.17151 0.0
C425 C 0.67336 0.39413 0.15441 0.0
C426 C 0.71117 0.4205 0.16067 0.0
H427 H 0.87659 0.58941 0.1605 0.0
H428 H 0.81515 0.5409 0.1546 0.0
H429 H 0.76242 0.46682 0.1979 0.0
H430 H 0.58875 0.37852 0.15911 0.0
H431 H 0.64945 0.41192 0.17329 0.0
C432 C 0.41821 0.89827 0.52868 0.0
C433 C 0.38902 0.90304 0.52314 0.0
C434 C 0.41371 0.86382 0.52972 0.0
C435 C 0.34446 0.76599 0.52637 0.0
H436 H 0.41655 0.75883 0.50169 0.0
C437 C 0.31359 0.63046 0.49722 0.0
C438 C 0.31954 0.63228 0.47919 0.0
C439 C 0.32972 0.66175 0.50795 0.0
C440 C 0.39631 0.76033 0.50873 0.0
H441 H 0.33174 0.87533 0.51564 0.0
H442 H 0.32401 0.81536 0.51688 0.0
H443 H 0.42785 0.81753 0.51149 0.0
H444 H 0.34953 0.66759 0.45865 0.0
H445 H 0.37702 0.72211 0.47715 0.0
H446 H 0.31171 0.70911 0.52228 0.0
C447 C 0.35034 0.83811 0.52069 0.0
C448 C 0.40292 0.794 0.51455 0.0
C449 C 0.35481 0.87255 0.51975 0.0
C450 C 0.34409 0.66548 0.47245 0.0
C451 C 0.36018 0.69669 0.48314 0.0
C452 C 0.33775 0.73236 0.52043 0.0
C453 C 0.37998 0.83337 0.52512 0.0
C454 C 0.37637 0.79738 0.52272 0.0
C455 C 0.35212 0.6954 0.50085 0.0
C456 C 0.36293 0.72935 0.51083 0.0
H457 H 0.44506 0.92116 0.53123 0.0
H458 H 0.43699 0.86113 0.53341 0.0
H459 H 0.3238 0.76757 0.53298 0.0
H460 H 0.29472 0.60524 0.50278 0.0
H461 H 0.32336 0.6598 0.52159 0.0
C462 C 0.57301 0.3431 0.8438 0.0
C463 C 0.54978 0.34012 0.8291 0.0
C464 C 0.59428 0.32706 0.84334 0.0
C465 C 0.63309 0.29612 0.81075 0.0
H466 H 0.6561 0.25264 0.85068 0.0
C467 C 0.68781 0.19243 0.82157 0.0
C468 C 0.71234 0.2048 0.80846 0.0
C469 C 0.67399 0.21347 0.82737 0.0
C470 C 0.64994 0.26472 0.83941 0.0
H471 H 0.52925 0.31615 0.80277 0.0
H472 H 0.56498 0.28693 0.8023 0.0
H473 H 0.61562 0.27632 0.85374 0.0
H474 H 0.74465 0.24994 0.79246 0.0
H475 H 0.72188 0.28757 0.80317 0.0
H476 H 0.6656 0.28309 0.7961 0.0
C477 C 0.56763 0.30262 0.81398 0.0
C478 C 0.62694 0.2785 0.8412 0.0
C479 C 0.54665 0.31889 0.81437 0.0
C480 C 0.72554 0.23983 0.8025 0.0
C481 C 0.7122 0.26113 0.80851 0.0
C482 C 0.65576 0.28219 0.80893 0.0
C483 C 0.59253 0.30749 0.82822 0.0
C484 C 0.61781 0.29381 0.82678 0.0
C485 C 0.68481 0.24741 0.82028 0.0
C486 C 0.66418 0.26593 0.82315 0.0
H487 H 0.57556 0.35871 0.8555 0.0
H488 H 0.61312 0.33129 0.85454 0.0
H489 H 0.62732 0.30849 0.79949 0.0
H490 H 0.67699 0.1653 0.82622 0.0
H491 H 0.65283 0.20189 0.83635 0.0
C492 C 0.58067 0.99647 0.50093 0.0
C493 C 0.54922 0.99868 0.50154 0.0
C494 C 0.57996 0.96361 0.50336 0.0
C495 C 0.52283 0.87046 0.52046 0.0
H496 H 0.59109 0.85219 0.49871 0.0
C497 C 0.54498 0.75227 0.54172 0.0
C498 C 0.55543 0.73539 0.52947 0.0
C499 C 0.54202 0.78252 0.53731 0.0
C500 C 0.57144 0.85642 0.50476 0.0
H501 H 0.49203 0.96716 0.5049 0.0
H502 H 0.49048 0.91012 0.50849 0.0
H503 H 0.58988 0.90715 0.49253 0.0
H504 H 0.56988 0.73736 0.50257 0.0
H505 H 0.56368 0.78931 0.49469 0.0
H506 H 0.50358 0.81918 0.53222 0.0
C507 C 0.51612 0.93387 0.50662 0.0
C508 C 0.57114 0.88854 0.50143 0.0
C509 C 0.51692 0.96679 0.50438 0.0
C510 C 0.56161 0.74926 0.5124 0.0
C511 C 0.55854 0.77957 0.50795 0.0
C512 C 0.52296 0.83824 0.52369 0.0
C513 C 0.54768 0.93162 0.50632 0.0
C514 C 0.5471 0.89644 0.50936 0.0
C515 C 0.54911 0.79708 0.5204 0.0
C516 C 0.54756 0.83075 0.51608 0.0
H517 H 0.60615 1.02035 0.49894 0.0
H518 H 0.60509 0.96364 0.50332 0.0
H519 H 0.50402 0.87517 0.52705 0.0
H520 H 0.53932 0.74229 0.55491 0.0
H521 H 0.53506 0.79503 0.54743 0.0
C522 C 0.64426 0.51381 0.83274 0.0
C523 C 0.64207 0.54456 0.83683 0.0
C524 C 0.67746 0.51462 0.83453 0.0
C525 C 0.77657 0.57773 0.8368 0.0
H526 H 0.78375 0.49964 0.85868 0.0
C527 C 0.91571 0.59235 0.85707 0.0
C528 C 0.92018 0.5621 0.85636 0.0
C529 C 0.88156 0.58895 0.85422 0.0
C530 C 0.78235 0.52153 0.85228 0.0
H531 H 0.67371 0.60042 0.84585 0.0
H532 H 0.73116 0.60191 0.84872 0.0
H533 H 0.72519 0.49585 0.85421 0.0
H534 H 0.89144 0.50426 0.85201 0.0
H535 H 0.83197 0.49829 0.84665 0.0
H536 H 0.83333 0.60328 0.83455 0.0
C537 C 0.70727 0.5771 0.84412 0.0
C538 C 0.74858 0.51935 0.84975 0.0
C539 C 0.67413 0.57617 0.84255 0.0
C540 C 0.88917 0.52819 0.85278 0.0
C541 C 0.85491 0.52478 0.84976 0.0
C542 C 0.8102 0.57978 0.83916 0.0
C543 C 0.70953 0.54634 0.84021 0.0
C544 C 0.74522 0.54763 0.84216 0.0
C545 C 0.85047 0.55516 0.85038 0.0
C546 C 0.81389 0.55195 0.84716 0.0
H547 H 0.62023 0.4889 0.82837 0.0
H548 H 0.67806 0.49045 0.83128 0.0
H549 H 0.77511 0.59978 0.83061 0.0
H550 H 0.93867 0.61884 0.8602 0.0
H551 H 0.87963 0.61299 0.85534 0.0
C552 C 0.20106 0.7445 0.1712 0.0
C553 C 0.19933 0.71144 0.16794 0.0
C554 C 0.23422 0.77678 0.17306 0.0
C555 C 0.3325 0.81773 0.16547 0.0
H556 H 0.34279 0.89203 0.19795 0.0
C557 C 0.47151 0.9428 0.18767 0.0
C558 C 0.47367 0.97655 0.18928 0.0
C559 C 0.43824 0.91103 0.18433 0.0
C560 C 0.34036 0.87178 0.18867 0.0
H561 H 0.23181 0.68688 0.16409 0.0
H562 H 0.28952 0.74278 0.16777 0.0
H563 H 0.28548 0.83608 0.19381 0.0
H564 H 0.44138 1.00245 0.18816 0.0
H565 H 0.3836 0.94713 0.18272 0.0
H566 H 0.38785 0.85338 0.16072 0.0
C567 C 0.26517 0.74405 0.1685 0.0
C568 C 0.30726 0.8395 0.18622 0.0
C569 C 0.2319 0.71175 0.16645 0.0
C570 C 0.44119 0.97723 0.18734 0.0
C571 C 0.40786 0.94535 0.18416 0.0
C572 C 0.36572 0.8499 0.16806 0.0
C573 C 0.26698 0.77719 0.17194 0.0
C574 C 0.30263 0.81184 0.17454 0.0
C575 C 0.40584 0.91172 0.18266 0.0
C576 C 0.37018 0.87748 0.17968 0.0
H577 H 0.17666 0.74555 0.17231 0.0
H578 H 0.234 0.80151 0.17528 0.0
H579 H 0.33021 0.79767 0.15612 0.0
H580 H 0.49547 0.94059 0.18947 0.0
H581 H 0.43788 0.88571 0.18353 0.0
C582 C 0.5858 0.22877 0.51498 0.0
C583 C 0.55905 0.20139 0.50352 0.0
C584 C 0.58653 0.26157 0.51753 0.0
C585 C 0.52888 0.30463 0.51041 0.0
H586 H 0.61934 0.39249 0.5216 0.0
C587 C 0.53335 0.43737 0.53115 0.0
C588 C 0.56273 0.47085 0.52707 0.0
C589 C 0.53291 0.40494 0.52791 0.0
C590 C 0.59373 0.36843 0.51827 0.0
H591 H 0.51255 0.18799 0.48542 0.0
H592 H 0.51444 0.24505 0.48935 0.0
H593 H 0.61908 0.33673 0.51619 0.0
H594 H 0.61482 0.49532 0.51613 0.0
H595 H 0.61328 0.43925 0.50978 0.0
H596 H 0.50363 0.33653 0.51181 0.0
C597 C 0.53438 0.24105 0.49687 0.0
C598 C 0.59353 0.33599 0.51543 0.0
C599 C 0.53345 0.20816 0.49447 0.0
C600 C 0.59134 0.47043 0.5193 0.0
C601 C 0.59076 0.43797 0.51592 0.0
C602 C 0.5291 0.3371 0.51309 0.0
C603 C 0.56074 0.26835 0.50857 0.0
C604 C 0.56109 0.30337 0.51148 0.0
C605 C 0.56169 0.40456 0.52031 0.0
C606 C 0.56151 0.36969 0.51714 0.0
H607 H 0.60592 0.22466 0.52227 0.0
H608 H 0.60703 0.28131 0.52686 0.0
H609 H 0.50314 0.28036 0.50769 0.0
H610 H 0.51043 0.43602 0.53689 0.0
H611 H 0.51009 0.38018 0.53174 0.0
C612 C 0.40891 0.5102 0.83845 0.0
C613 C 0.44248 0.54224 0.83904 0.0
C614 C 0.37698 0.51084 0.84044 0.0
C615 C 0.33864 0.57277 0.83946 0.0
H616 H 0.26254 0.4955 0.86365 0.0
C617 C 0.20096 0.56586 0.84557 0.0
C618 C 0.18405 0.55352 0.86141 0.0
C619 C 0.2312 0.56312 0.84208 0.0
C620 C 0.28352 0.51756 0.85698 0.0
H621 H 0.46818 0.60021 0.8423 0.0
H622 H 0.41311 0.60132 0.8461 0.0
H623 H 0.31744 0.49431 0.8596 0.0
H624 H 0.18567 0.52719 0.88565 0.0
H625 H 0.23843 0.52338 0.87986 0.0
H626 H 0.30524 0.59667 0.83741 0.0
C627 C 0.41114 0.57557 0.84372 0.0
C628 C 0.31506 0.5166 0.85441 0.0
C629 C 0.443 0.57493 0.84164 0.0
C630 C 0.19799 0.53756 0.87341 0.0
C631 C 0.22823 0.53492 0.86996 0.0
C632 C 0.30715 0.5738 0.8421 0.0
C633 C 0.37748 0.54353 0.84319 0.0
C634 C 0.34331 0.54425 0.84565 0.0
C635 C 0.24567 0.54794 0.8543 0.0
C636 C 0.27902 0.54629 0.85098 0.0
H637 H 0.40719 0.48446 0.83641 0.0
H638 H 0.3518 0.48554 0.83963 0.0
H639 H 0.35928 0.59441 0.83244 0.0
H640 H 0.19148 0.57863 0.83601 0.0
H641 H 0.24325 0.57299 0.82973 0.0
C642 C 1.00363 0.48083 0.1765 0.0
C643 C 1.00273 0.5118 0.17114 0.0
C644 C 0.9717 0.44854 0.17917 0.0
C645 C 0.87377 0.41117 0.18621 0.0
H646 H 0.86721 0.32034 0.1746 0.0
C647 C 0.73995 0.27279 0.18875 0.0
C648 C 0.74272 0.24323 0.19499 0.0
C649 C 0.77092 0.30577 0.18563 0.0
C650 C 0.86857 0.34538 0.17812 0.0
H651 H 0.96683 0.53255 0.16443 0.0
H652 H 0.91155 0.47653 0.1688 0.0
H653 H 0.92183 0.37643 0.16962 0.0
H654 H 0.78123 0.22654 0.20348 0.0
H655 H 0.83447 0.28321 0.19795 0.0
H656 H 0.82026 0.37988 0.19461 0.0
C657 C 0.93693 0.47714 0.1712 0.0
C658 C 0.90014 0.37778 0.17527 0.0
C659 C 0.96884 0.50941 0.16854 0.0
C660 C 0.77755 0.24803 0.19821 0.0
C661 C 0.80836 0.28082 0.19505 0.0
C662 C 0.84208 0.37869 0.189 0.0
C663 C 0.93773 0.44606 0.17656 0.0
C664 C 0.90348 0.41132 0.17937 0.0
C665 C 0.80567 0.31025 0.18863 0.0
C666 C 0.83903 0.3452 0.18513 0.0
H667 H 1.02908 0.48151 0.17877 0.0
H668 H 0.97382 0.42562 0.18357 0.0
H669 H 0.87516 0.4362 0.18979 0.0
H670 H 0.7138 0.27034 0.18595 0.0
H671 H 0.76753 0.32756 0.18054 0.0
C672 C 0.08631 0.58807 0.10166 0.0
C673 C 0.08385 0.61406 0.11166 0.0
C674 C 0.08447 0.58848 0.08325 0.0
C675 C 1.05193 0.61861 0.04465 0.0
H676 H 0.12136 0.60503 0.02098 0.0
C677 C 1.05931 0.62565 0.9685 0.0
C678 C 1.06775 0.60202 0.9601 0.0
C679 C 1.06112 0.62841 0.98695 0.0
C680 C 0.1014 0.60834 0.02731 0.0
H681 H 0.07699 0.66066 0.11005 0.0
H682 H 0.0733 0.66108 0.07765 0.0
H683 H 0.12477 0.60795 0.05307 0.0
H684 H 0.08455 0.56257 0.96478 0.0
H685 H 0.08631 0.56629 0.99675 0.0
H686 H 1.02801 0.61817 0.01889 0.0
C687 C 0.07675 0.64044 0.0842 0.0
C688 C 0.10351 0.6102 0.04575 0.0
C689 C 0.07899 0.64027 0.10274 0.0
C690 C 0.07745 0.58078 0.97069 0.0
C691 C 0.07902 0.58336 0.98911 0.0
C692 C 1.0496 0.61643 0.02615 0.0
C693 C 0.07985 0.61472 0.07428 0.0
C694 C 0.07861 0.615 0.05465 0.0
C695 C 0.07125 0.60747 0.99753 0.0
C696 C 0.07412 0.61091 0.01722 0.0
H697 H 0.09009 0.56746 0.10803 0.0
H698 H 0.08646 0.56801 0.07601 0.0
H699 H 1.03218 0.62202 0.05114 0.0
H700 H 1.05123 0.6421 0.96083 0.0
H701 H 1.05519 0.64747 0.99289 0.0
C702 C 0.53013 0.08816 0.43257 0.0
C703 C 0.5595 0.11014 0.44461 0.0
C704 C 0.53409 0.08973 0.41437 0.0
C705 C 0.60299 0.11457 0.38255 0.0
H706 H 0.53127 0.11451 0.34869 0.0
C707 C 0.62612 0.13356 0.3083 0.0
C708 C 0.59655 0.11311 0.29606 0.0
C709 C 0.62133 0.13458 0.32628 0.0
C710 C 0.55138 0.11409 0.35793 0.0
H711 H 0.61603 0.15135 0.44681 0.0
H712 H 0.62282 0.15392 0.4152 0.0
H713 H 0.52296 0.11309 0.3802 0.0
H714 H 0.53849 0.0785 0.29332 0.0
H715 H 0.53034 0.07924 0.32462 0.0
H716 H 0.63113 0.11484 0.36041 0.0
C717 C 0.59678 0.13533 0.41983 0.0
C718 C 0.54661 0.11335 0.37601 0.0
C719 C 0.59277 0.13399 0.43797 0.0
C720 C 0.56201 0.09414 0.30233 0.0
C721 C 0.55726 0.09497 0.32032 0.0
C722 C 0.60764 0.11502 0.36449 0.0
C723 C 0.56759 0.11304 0.4078 0.0
C724 C 0.57241 0.11368 0.38854 0.0
C725 C 0.58688 0.115 0.33259 0.0
C726 C 0.58195 0.11487 0.35189 0.0
H727 H 0.50413 0.06946 0.4372 0.0
H728 H 0.51112 0.07202 0.40547 0.0
H729 H 0.62311 0.11426 0.39183 0.0
H730 H 0.65318 0.14824 0.30407 0.0
H731 H 0.64477 0.15078 0.33525 0.0
C732 C 0.52154 0.54747 0.76958 0.0
C733 C 0.54987 0.56865 0.78226 0.0
C734 C 0.52583 0.55306 0.75157 0.0
C735 C 0.58221 0.61875 0.71922 0.0
H736 H 0.54063 0.53396 0.68817 0.0
C737 C 0.60842 0.62528 0.6449 0.0
C738 C 0.57899 0.60284 0.63298 0.0
C739 C 0.60564 0.62205 0.66316 0.0
C740 C 0.55208 0.55796 0.6966 0.0
H741 H 0.60482 0.61298 0.78583 0.0
H742 H 0.61246 0.62257 0.75428 0.0
H743 H 0.53465 0.52717 0.71977 0.0
H744 H 0.52359 0.55918 0.63106 0.0
H745 H 0.51857 0.55389 0.66282 0.0
H746 H 0.59973 0.64949 0.69595 0.0
C747 C 0.58674 0.60177 0.75833 0.0
C748 C 0.54864 0.55408 0.71477 0.0
C749 C 0.58241 0.59621 0.77644 0.0
C750 C 0.5467 0.57714 0.63982 0.0
C751 C 0.54395 0.57383 0.65806 0.0
C752 C 0.58571 0.62264 0.70101 0.0
C753 C 0.55863 0.57991 0.74565 0.0
C754 C 0.56338 0.5844 0.72633 0.0
C755 C 0.5734 0.59619 0.66999 0.0
C756 C 0.57045 0.59227 0.68944 0.0
H757 H 0.49596 0.52619 0.77354 0.0
H758 H 0.50331 0.53622 0.74224 0.0
H759 H 0.5936 0.64271 0.72768 0.0
H760 H 0.63359 0.64563 0.64012 0.0
H761 H 0.62895 0.63952 0.67194 0.0
C762 C 0.56896 0.06185 0.55982 0.0
C763 C 0.55542 0.08381 0.55345 0.0
C764 C 0.57268 0.05756 0.5779 0.0
C765 C 0.59638 0.10663 0.61852 0.0
H766 H 0.56024 1.01471 0.64087 0.0
C767 C 0.63752 0.09905 0.69151 0.0
C768 C 0.64244 0.07014 0.69619 0.0
C769 C 0.62176 0.09938 0.67486 0.0
C770 C 0.57097 1.04061 0.63482 0.0
H771 H 0.53431 0.11783 0.56077 0.0
H772 H 0.5423 0.11144 0.59272 0.0
H773 H 0.54069 1.01679 0.61015 0.0
H774 H 0.63513 1.019 0.68746 0.0
H775 H 0.60952 1.02027 0.65794 0.0
H776 H 0.62865 0.13057 0.6425 0.0
C777 C 0.54934 0.09712 0.5836 0.0
C778 C 0.55939 1.04173 0.61731 0.0
C779 C 0.54472 0.10069 0.56542 0.0
C780 C 0.63144 1.04151 0.68404 0.0
C781 C 0.61642 1.04217 0.66723 0.0
C782 C 0.6086 0.10551 0.6359 0.0
C783 C 0.56368 0.07579 0.58994 0.0
C784 C 0.57229 0.07472 0.60899 0.0
C785 C 0.61135 0.07114 0.66238 0.0
C786 C 0.59643 0.07244 0.64425 0.0
H787 H 0.57716 0.04836 0.5508 0.0
H788 H 0.58404 1.04119 0.58252 0.0
H789 H 0.60708 0.13234 0.61224 0.0
H790 H 0.64545 0.12118 0.70085 0.0
H791 H 0.61762 0.12175 0.67185 0.0
C792 C 0.52494 0.47576 0.89059 0.0
C793 C 0.53564 0.51176 0.88715 0.0
C794 C 0.52177 0.46394 0.90783 0.0
C795 C 0.51397 0.48797 0.95353 0.0
H796 H 0.53652 0.41301 0.96497 0.0
C797 C 0.51734 0.43665 0.02424 0.0
C798 C 0.49626 0.39908 0.02572 0.0
C799 C 0.52375 0.45209 0.00768 0.0
C800 C 0.53006 0.43388 0.96192 0.0
H801 H 0.5515 0.56373 0.8991 0.0
H802 H 0.54717 0.54338 0.92945 0.0
H803 H 0.54614 0.43803 0.93568 0.0
H804 H 0.46541 0.3485 0.01069 0.0
H805 H 0.47797 0.37552 0.98186 0.0
H806 H 0.49878 0.48413 0.9801 0.0
C807 C 0.54041 0.52403 0.91874 0.0
C808 C 0.53534 0.44813 0.94512 0.0
C809 C 0.54306 0.53578 0.90137 0.0
C810 C 0.48229 0.3774 0.01016 0.0
C811 C 0.48927 0.39284 0.99362 0.0
C812 C 0.50927 0.47409 0.97046 0.0
C813 C 0.5298 0.48793 0.92219 0.0
C814 C 0.52671 0.47488 0.94056 0.0
C815 C 0.50986 0.43031 0.99224 0.0
C816 C 0.51672 0.44652 0.97469 0.0
H817 H 0.51854 0.45641 0.8799 0.0
H818 H 0.51255 0.43576 0.90985 0.0
H819 H 0.50663 0.5082 0.95049 0.0
H820 H 0.52927 0.45424 0.03586 0.0
H821 H 0.54005 0.48105 0.00694 0.0
C822 C 0.15607 0.60617 0.22453 0.0
C823 C 0.12456 0.60708 0.21932 0.0
C824 C 0.16356 0.60078 0.24206 0.0
C825 C 0.11936 0.5626 0.28281 0.0
H826 H 0.21777 0.60985 0.30356 0.0
C827 C 0.20413 0.57428 0.35367 0.0
C828 C 0.18585 0.53796 0.35818 0.0
C829 C 0.19648 0.58471 0.33723 0.0
C830 C 0.19008 0.5967 0.29807 0.0
H831 H 0.07658 0.60389 0.22859 0.0
H832 H 0.08997 0.59493 0.2594 0.0
H833 H 0.20466 0.62651 0.27448 0.0
H834 H 0.14593 0.48396 0.34885 0.0
H835 H 0.13304 0.502 0.32002 0.0
H836 H 0.10471 0.53317 0.30653 0.0
C837 C 0.1086 0.59789 0.24979 0.0
C838 C 0.18261 0.60597 0.2813 0.0
C839 C 0.10104 0.60323 0.23217 0.0
C840 C 0.16013 0.51221 0.34581 0.0
C841 C 0.15263 0.5226 0.32934 0.0
C842 C 0.12681 0.55342 0.29962 0.0
C843 C 0.13984 0.59631 0.2549 0.0
C844 C 0.14725 0.58865 0.27335 0.0
C845 C 0.17053 0.55901 0.32488 0.0
C846 C 0.16234 0.57 0.30736 0.0
H847 H 0.17479 0.60894 0.215 0.0
H848 H 0.18753 0.59912 0.24544 0.0
H849 H 0.09187 0.54851 0.27703 0.0
H850 H 0.22369 0.59479 0.36305 0.0
H851 H 0.21043 0.61303 0.33433 0.0
loop_
_geom_bond_atom_site_label_1
_geom_bond_atom_site_label_2
_geom_bond_distance
_geom_bond_site_symmetry_2
_ccdc_geom_bond_type
Tb0 C10 2.825 . S
Tb0 O11 2.347 . S
Tb0 O14 2.366 . S
Tb0 O19 2.418 . S
Tb0 O20 2.384 1_455 S
Tb0 O23 2.479 . S
Tb0 O24 2.471 . S
Eu1 O12 2.418 . S
Eu1 O13 2.384 . S
Eu1 O16 2.479 1_455 S
Eu1 O17 2.471 1_455 S
Eu1 O18 2.347 . S
Eu1 O21 2.366 1_455 S
Eu1 C31 2.825 1_455 S
C2 O18 1.259 . S
C2 O19 1.265 . S
C3 O20 1.255 . S
C3 O21 1.265 . S
C4 C6 1.380 . S
C4 C7 1.374 . S
C4 C10 1.507 . S
C5 C6 1.384 . S
C5 C9 1.387 . S
C5 H32 0.930 . S
C6 C4 1.380 . S
C6 C5 1.384 . S
C6 H33 0.931 . S
C7 C4 1.374 . S
C7 C8 1.390 . S
C7 H34 0.930 . S
C8 C7 1.390 . S
C8 C9 1.391 . S
C8 H35 0.930 . S
C9 C5 1.387 . S
C9 C8 1.391 . S
C10 Tb0 2.825 . S
C10 C4 1.507 . S
C10 O23 1.238 . S
C10 O24 1.247 . S
O11 Tb0 2.347 . S
O11 C15 1.259 . S
O12 Eu1 2.418 . S
O12 C15 1.265 . S
O13 Eu1 2.384 . S
O13 C22 1.255 . S
O14 Tb0 2.366 . S
O14 C22 1.265 . S
C15 O11 1.259 . S
C15 O12 1.265 . S
O16 Eu1 2.479 1_655 S
O16 C31 1.238 . S
O17 Eu1 2.471 1_655 S
O17 C31 1.247 . S
O18 Eu1 2.347 . S
O18 C2 1.259 . S
O19 Tb0 2.418 . S
O19 C2 1.265 . S
O20 Tb0 2.384 1_655 S
O20 C3 1.255 . S
O21 Eu1 2.366 1_655 S
O21 C3 1.265 . S
C22 O13 1.255 . S
C22 O14 1.265 . S
O23 Tb0 2.479 . S
O23 C10 1.238 . S
O24 Tb0 2.471 . S
O24 C10 1.247 . S
C25 C28 1.380 . S
C25 C29 1.374 . S
C25 C31 1.507 . S
C26 C27 1.387 . S
C26 C30 1.391 . S
C27 C26 1.387 . S
C27 C28 1.384 . S
C27 H36 0.930 . S
C28 C25 1.380 . S
C28 C27 1.384 . S
C28 H37 0.931 . S
C29 C25 1.374 . S
C29 C30 1.390 . S
C29 H38 0.930 . S
C30 C26 1.391 . S
C30 C29 1.390 . S
C30 H39 0.930 . S
C31 Eu1 2.825 1_655 S
C31 O16 1.238 . S
C31 O17 1.247 . S
C31 C25 1.507 . S
H32 C5 0.930 . S
H33 C6 0.931 . S
H34 C7 0.930 . S
H35 C8 0.930 . S
H36 C27 0.930 . S
H37 C28 0.931 . S
H38 C29 0.930 . S
H39 C30 0.930 . S
Tb40 C50 2.825 . S
Tb40 O51 2.347 . S
Tb40 O54 2.366 . S
Tb40 O59 2.418 . S
Tb40 O60 2.384 . S
Tb40 O63 2.479 . S
Tb40 O64 2.471 . S
Eu41 O52 2.418 . S
Eu41 O53 2.384 . S
Eu41 O56 2.479 1_545 S
Eu41 O57 2.471 1_545 S
Eu41 O58 2.347 . S
Eu41 O61 2.366 1_545 S
Eu41 C71 2.825 1_545 S
C42 O58 1.259 . S
C42 O59 1.265 . S
C43 O60 1.255 1_565 S
C43 O61 1.265 . S
C44 C46 1.380 . S
C44 C47 1.374 . S
C44 C50 1.507 . S
C45 C46 1.384 . S
C45 C49 1.387 . S
C45 H72 0.930 . S
C46 C44 1.380 . S
C46 C45 1.384 . S
C46 H73 0.931 . S
C47 C44 1.374 . S
C47 C48 1.390 . S
C47 H74 0.930 . S
C48 C47 1.390 . S
C48 C49 1.391 . S
C48 H75 0.930 . S
C49 C45 1.387 . S
C49 C48 1.391 . S
C50 Tb40 2.825 . S
C50 C44 1.507 . S
C50 O63 1.238 . S
C50 O64 1.247 . S
O51 Tb40 2.347 . S
O51 C55 1.259 . S
O52 Eu41 2.418 . S
O52 C55 1.265 . S
O53 Eu41 2.384 . S
O53 C62 1.255 . S
O54 Tb40 2.366 . S
O54 C62 1.265 . S
C55 O51 1.259 . S
C55 O52 1.265 . S
O56 Eu41 2.479 1_565 S
O56 C71 1.238 . S
O57 Eu41 2.471 1_565 S
O57 C71 1.247 . S
O58 Eu41 2.347 . S
O58 C42 1.259 . S
O59 Tb40 2.418 . S
O59 C42 1.265 . S
O60 Tb40 2.384 . S
O60 C43 1.255 1_545 S
O61 Eu41 2.366 1_565 S
O61 C43 1.265 . S
C62 O53 1.255 . S
C62 O54 1.265 . S
O63 Tb40 2.479 . S
O63 C50 1.238 . S
O64 Tb40 2.471 . S
O64 C50 1.247 . S
C65 C68 1.380 . S
C65 C69 1.374 . S
C65 C71 1.507 . S
C66 C67 1.387 . S
C66 C70 1.391 . S
C67 C66 1.387 . S
C67 C68 1.384 . S
C67 H76 0.930 . S
C68 C65 1.380 . S
C68 C67 1.384 . S
C68 H77 0.931 . S
C69 C65 1.374 . S
C69 C70 1.390 . S
C69 H78 0.930 . S
C70 C66 1.391 . S
C70 C69 1.390 . S
C70 H79 0.930 . S
C71 Eu41 2.825 1_565 S
C71 O56 1.238 . S
C71 O57 1.247 . S
C71 C65 1.507 . S
H72 C45 0.930 . S
H73 C46 0.931 . S
H74 C47 0.930 . S
H75 C48 0.930 . S
H76 C67 0.930 . S
H77 C68 0.931 . S
H78 C69 0.930 . S
H79 C70 0.930 . S
Tb80 C90 2.825 . S
Tb80 O91 2.347 . S
Tb80 O94 2.366 . S
Tb80 O99 2.418 . S
Tb80 O100 2.384 . S
Tb80 O103 2.479 . S
Tb80 O104 2.471 . S
Eu81 O92 2.418 . S
Eu81 O93 2.384 . S
Eu81 O96 2.479 . S
Eu81 O97 2.471 . S
Eu81 O98 2.347 . S
Eu81 O101 2.366 . S
Eu81 C111 2.825 . S
C82 O98 1.259 . S
C82 O99 1.265 . S
C83 O100 1.255 . S
C83 O101 1.265 . S
C84 C86 1.380 . S
C84 C87 1.374 . S
C84 C90 1.507 . S
C85 C86 1.384 . S
C85 C89 1.387 . S
C85 H112 0.930 . S
C86 C84 1.380 . S
C86 C85 1.384 . S
C86 H113 0.931 . S
C87 C84 1.374 . S
C87 C88 1.390 . S
C87 H114 0.930 . S
C88 C87 1.390 . S
C88 C89 1.391 . S
C88 H115 0.930 . S
C89 C85 1.387 . S
C89 C88 1.391 . S
C90 Tb80 2.825 . S
C90 C84 1.507 . S
C90 O103 1.238 . S
C90 O104 1.247 . S
O91 Tb80 2.347 . S
O91 C95 1.259 . S
O92 Eu81 2.418 . S
O92 C95 1.265 . S
O93 Eu81 2.384 . S
O93 C102 1.255 . S
O94 Tb80 2.366 . S
O94 C102 1.265 . S
C95 O91 1.259 . S
C95 O92 1.265 . S
O96 Eu81 2.479 . S
O96 C111 1.238 . S
O97 Eu81 2.471 . S
O97 C111 1.247 . S
O98 Eu81 2.347 . S
O98 C82 1.259 . S
O99 Tb80 2.418 . S
O99 C82 1.265 . S
O100 Tb80 2.384 . S
O100 C83 1.255 . S
O101 Eu81 2.366 . S
O101 C83 1.265 . S
C102 O93 1.255 . S
C102 O94 1.265 . S
O103 Tb80 2.479 . S
O103 C90 1.238 . S
O104 Tb80 2.471 . S
O104 C90 1.247 . S
C105 C108 1.380 . S
C105 C109 1.374 . S
C105 C111 1.507 . S
C106 C107 1.387 . S
C106 C110 1.391 . S
C107 C106 1.387 . S
C107 C108 1.384 . S
C107 H116 0.930 . S
C108 C105 1.380 . S
C108 C107 1.384 . S
C108 H117 0.931 . S
C109 C105 1.374 . S
C109 C110 1.390 . S
C109 H118 0.930 . S
C110 C106 1.391 . S
C110 C109 1.390 . S
C110 H119 0.930 . S
C111 Eu81 2.825 . S
C111 O96 1.238 . S
C111 O97 1.247 . S
C111 C105 1.507 . S
H112 C85 0.930 . S
H113 C86 0.931 . S
H114 C87 0.930 . S
H115 C88 0.930 . S
H116 C107 0.930 . S
H117 C108 0.931 . S
H118 C109 0.930 . S
H119 C110 0.930 . S
P120 O131 1.490 . S
P120 C134 1.812 . S
P120 C140 1.803 1_565 S
P120 C146 1.819 1_565 S
H121 C135 0.941 . S
H122 C136 0.939 . S
H123 C138 0.940 . S
H124 C139 0.940 . S
H125 C141 0.939 . S
H126 C142 0.942 . S
H127 C144 0.940 . S
H128 C145 0.939 . S
H129 C147 0.941 . S
H130 C151 0.939 . S
O131 P120 1.490 . S
H132 C148 0.939 . S
H133 C150 0.940 . S
C134 P120 1.812 . S
C134 C135 1.389 . S
C134 C139 1.391 . S
C135 H121 0.941 . S
C135 C134 1.389 . S
C135 C136 1.397 . S
C136 H122 0.939 . S
C136 C135 1.397 . S
C136 C137 1.378 . S
C137 C136 1.378 . S
C137 C138 1.378 . S
C138 H123 0.940 . S
C138 C137 1.378 . S
C138 C139 1.396 . S
C139 H124 0.940 . S
C139 C134 1.391 . S
C139 C138 1.396 . S
C140 P120 1.803 1_545 S
C140 C141 1.378 . S
C140 C145 1.400 . S
C141 H125 0.939 . S
C141 C140 1.378 . S
C141 C142 1.361 . S
C142 H126 0.942 . S
C142 C141 1.361 . S
C142 C143 1.369 . S
C143 C142 1.369 . S
C143 C144 1.404 . S
C144 H127 0.940 . S
C144 C143 1.404 . S
C144 C145 1.389 . S
C145 H128 0.939 . S
C145 C140 1.400 . S
C145 C144 1.389 . S
C146 P120 1.819 1_545 S
C146 C147 1.391 1_545 S
C146 C151 1.391 . S
C147 H129 0.941 . S
C147 C146 1.391 1_565 S
C147 C148 1.396 . S
C148 H132 0.939 . S
C148 C147 1.396 . S
C148 C149 1.397 1_565 S
C149 C148 1.397 1_545 S
C149 C150 1.385 . S
C150 H133 0.940 . S
C150 C149 1.385 . S
C150 C151 1.388 . S
C151 H130 0.939 . S
C151 C146 1.391 . S
C151 C150 1.388 . S
P152 O163 1.490 . S
P152 C166 1.812 . S
P152 C172 1.803 . S
P152 C178 1.819 . S
H153 C167 0.941 . S
H154 C168 0.939 . S
H155 C170 0.940 . S
H156 C171 0.940 . S
H157 C173 0.939 . S
H158 C174 0.942 . S
H159 C176 0.940 . S
H160 C177 0.939 . S
H161 C179 0.941 . S
H162 C183 0.939 . S
O163 P152 1.490 . S
H164 C180 0.939 . S
H165 C182 0.940 . S
C166 P152 1.812 . S
C166 C167 1.389 . S
C166 C171 1.391 . S
C167 H153 0.941 . S
C167 C166 1.389 . S
C167 C168 1.397 . S
C168 H154 0.939 . S
C168 C167 1.397 . S
C168 C169 1.378 . S
C169 C168 1.378 . S
C169 C170 1.378 . S
C170 H155 0.940 . S
C170 C169 1.378 . S
C170 C171 1.396 . S
C171 H156 0.940 . S
C171 C166 1.391 . S
C171 C170 1.396 . S
C172 P152 1.803 . S
C172 C173 1.378 . S
C172 C177 1.400 . S
C173 H157 0.939 . S
C173 C172 1.378 . S
C173 C174 1.361 . S
C174 H158 0.942 . S
C174 C173 1.361 . S
C174 C175 1.369 . S
C175 C174 1.369 . S
C175 C176 1.404 . S
C176 H159 0.940 . S
C176 C175 1.404 . S
C176 C177 1.389 . S
C177 H160 0.939 . S
C177 C172 1.400 . S
C177 C176 1.389 . S
C178 P152 1.819 . S
C178 C179 1.391 . S
C178 C183 1.391 . S
C179 H161 0.941 . S
C179 C178 1.391 . S
C179 C180 1.396 . S
C180 H164 0.939 . S
C180 C179 1.396 . S
C180 C181 1.397 . S
C181 C180 1.397 . S
C181 C182 1.385 . S
C182 H165 0.940 . S
C182 C181 1.385 . S
C182 C183 1.388 . S
C183 H162 0.939 . S
C183 C178 1.391 . S
C183 C182 1.388 . S
P184 O195 1.490 . S
P184 C198 1.812 . S
P184 C204 1.803 1_455 S
P184 C210 1.819 . S
H185 C199 0.941 . S
H186 C200 0.939 . S
H187 C202 0.940 . S
H188 C203 0.940 . S
H189 C205 0.939 . S
H190 C206 0.942 . S
H191 C208 0.940 . S
H192 C209 0.939 . S
H193 C211 0.941 . S
H194 C215 0.939 . S
O195 P184 1.490 . S
H196 C212 0.939 . S
H197 C214 0.940 . S
C198 P184 1.812 . S
C198 C199 1.389 . S
C198 C203 1.391 . S
C199 H185 0.941 . S
C199 C198 1.389 . S
C199 C200 1.397 . S
C200 H186 0.939 . S
C200 C199 1.397 . S
C200 C201 1.378 . S
C201 C200 1.378 . S
C201 C202 1.378 . S
C202 H187 0.940 . S
C202 C201 1.378 . S
C202 C203 1.396 . S
C203 H188 0.940 . S
C203 C198 1.391 . S
C203 C202 1.396 . S
C204 P184 1.803 1_655 S
C204 C205 1.378 . S
C204 C209 1.400 . S
C205 H189 0.939 . S
C205 C204 1.378 . S
C205 C206 1.361 . S
C206 H190 0.942 . S
C206 C205 1.361 . S
C206 C207 1.369 . S
C207 C206 1.369 . S
C207 C208 1.404 . S
C208 H191 0.940 . S
C208 C207 1.404 . S
C208 C209 1.389 . S
C209 H192 0.939 . S
C209 C204 1.400 . S
C209 C208 1.389 . S
C210 P184 1.819 . S
C210 C211 1.391 . S
C210 C215 1.391 1_455 S
C211 H193 0.941 . S
C211 C210 1.391 . S
C211 C212 1.396 . S
C212 H196 0.939 . S
C212 C211 1.396 . S
C212 C213 1.397 . S
C213 C212 1.397 . S
C213 C214 1.385 1_455 S
C214 H197 0.940 . S
C214 C213 1.385 1_655 S
C214 C215 1.388 . S
C215 H194 0.939 . S
C215 C210 1.391 1_655 S
C215 C214 1.388 . S
P216 O227 1.490 . S
P216 C230 1.812 . S
P216 C236 1.803 1_455 S
P216 C242 1.819 . S
H217 C231 0.941 . S
H218 C232 0.939 . S
H219 C234 0.940 . S
H220 C235 0.940 . S
H221 C237 0.939 . S
H222 C238 0.942 . S
H223 C240 0.940 . S
H224 C241 0.939 . S
H225 C243 0.941 . S
H226 C247 0.939 . S
O227 P216 1.490 . S
H228 C244 0.939 . S
H229 C246 0.940 . S
C230 P216 1.812 . S
C230 C231 1.389 . S
C230 C235 1.391 . S
C231 H217 0.941 . S
C231 C230 1.389 . S
C231 C232 1.397 . S
C232 H218 0.939 . S
C232 C231 1.397 . S
C232 C233 1.378 . S
C233 C232 1.378 . S
C233 C234 1.378 . S
C234 H219 0.940 . S
C234 C233 1.378 . S
C234 C235 1.396 . S
C235 H220 0.940 . S
C235 C230 1.391 . S
C235 C234 1.396 . S
C236 P216 1.803 1_655 S
C236 C237 1.378 . S
C236 C241 1.400 . S
C237 H221 0.939 . S
C237 C236 1.378 . S
C237 C238 1.361 . S
C238 H222 0.942 . S
C238 C237 1.361 . S
C238 C239 1.369 . S
C239 C238 1.369 . S
C239 C240 1.404 . S
C240 H223 0.940 . S
C240 C239 1.404 . S
C240 C241 1.389 . S
C241 H224 0.939 . S
C241 C236 1.400 . S
C241 C240 1.389 . S
C242 P216 1.819 . S
C242 C243 1.391 . S
C242 C247 1.391 1_455 S
C243 H225 0.941 . S
C243 C242 1.391 . S
C243 C244 1.396 . S
C244 H228 0.939 . S
C244 C243 1.396 . S
C244 C245 1.397 . S
C245 C244 1.397 . S
C245 C246 1.385 1_455 S
C246 H229 0.940 . S
C246 C245 1.385 1_655 S
C246 C247 1.388 . S
C247 H226 0.939 . S
C247 C242 1.391 1_655 S
C247 C246 1.388 . S
P248 O259 1.490 . S
P248 C262 1.812 . S
P248 C268 1.803 1_545 S
P248 C274 1.819 . S
H249 C263 0.941 . S
H250 C264 0.939 . S
H251 C266 0.940 . S
H252 C267 0.940 . S
H253 C269 0.939 . S
H254 C270 0.942 . S
H255 C272 0.940 . S
H256 C273 0.939 . S
H257 C275 0.941 . S
H258 C279 0.939 . S
O259 P248 1.490 . S
H260 C276 0.939 . S
H261 C278 0.940 . S
C262 P248 1.812 . S
C262 C263 1.389 . S
C262 C267 1.391 . S
C263 H249 0.941 . S
C263 C262 1.389 . S
C263 C264 1.397 . S
C264 H250 0.939 . S
C264 C263 1.397 . S
C264 C265 1.378 . S
C265 C264 1.378 . S
C265 C266 1.378 . S
C266 H251 0.940 . S
C266 C265 1.378 . S
C266 C267 1.396 . S
C267 H252 0.940 . S
C267 C262 1.391 . S
C267 C266 1.396 . S
C268 P248 1.803 1_565 S
C268 C269 1.378 . S
C268 C273 1.400 . S
C269 H253 0.939 . S
C269 C268 1.378 . S
C269 C270 1.361 . S
C270 H254 0.942 . S
C270 C269 1.361 . S
C270 C271 1.369 . S
C271 C270 1.369 . S
C271 C272 1.404 . S
C272 H255 0.940 . S
C272 C271 1.404 . S
C272 C273 1.389 . S
C273 H256 0.939 . S
C273 C268 1.400 . S
C273 C272 1.389 . S
C274 P248 1.819 . S
C274 C275 1.391 . S
C274 C279 1.391 1_545 S
C275 H257 0.941 . S
C275 C274 1.391 . S
C275 C276 1.396 . S
C276 H260 0.939 . S
C276 C275 1.396 . S
C276 C277 1.397 . S
C277 C276 1.397 . S
C277 C278 1.385 1_545 S
C278 H261 0.940 . S
C278 C277 1.385 1_565 S
C278 C279 1.388 . S
C279 H258 0.939 . S
C279 C274 1.391 1_565 S
C279 C278 1.388 . S
P280 O291 1.490 . S
P280 C294 1.812 . S
P280 C300 1.803 . S
P280 C306 1.819 . S
H281 C295 0.941 . S
H282 C296 0.939 . S
H283 C298 0.940 . S
H284 C299 0.940 . S
H285 C301 0.939 . S
H286 C302 0.942 . S
H287 C304 0.940 . S
H288 C305 0.939 . S
H289 C307 0.941 . S
H290 C311 0.939 . S
O291 P280 1.490 . S
H292 C308 0.939 . S
H293 C310 0.940 . S
C294 P280 1.812 . S
C294 C295 1.389 . S
C294 C299 1.391 . S
C295 H281 0.941 . S
C295 C294 1.389 . S
C295 C296 1.397 . S
C296 H282 0.939 . S
C296 C295 1.397 . S
C296 C297 1.378 . S
C297 C296 1.378 . S
C297 C298 1.378 . S
C298 H283 0.940 . S
C298 C297 1.378 . S
C298 C299 1.396 . S
C299 H284 0.940 . S
C299 C294 1.391 . S
C299 C298 1.396 . S
C300 P280 1.803 . S
C300 C301 1.378 . S
C300 C305 1.400 . S
C301 H285 0.939 . S
C301 C300 1.378 . S
C301 C302 1.361 . S
C302 H286 0.942 . S
C302 C301 1.361 . S
C302 C303 1.369 . S
C303 C302 1.369 . S
C303 C304 1.404 . S
C304 H287 0.940 . S
C304 C303 1.404 . S
C304 C305 1.389 . S
C305 H288 0.939 . S
C305 C300 1.400 . S
C305 C304 1.389 . S
C306 P280 1.819 . S
C306 C307 1.391 . S
C306 C311 1.391 . S
C307 H289 0.941 . S
C307 C306 1.391 . S
C307 C308 1.396 . S
C308 H292 0.939 . S
C308 C307 1.396 . S
C308 C309 1.397 . S
C309 C308 1.397 . S
C309 C310 1.385 . S
C310 H293 0.940 . S
C310 C309 1.385 . S
C310 C311 1.388 . S
C311 H290 0.939 . S
C311 C306 1.391 . S
C311 C310 1.388 . S
C312 C313 1.349 . S
C312 C314 1.327 . S
C312 H337 0.950 . S
C313 C312 1.349 . S
C313 C329 1.349 . S
C314 C312 1.327 . S
C314 C333 1.429 . S
C314 H338 0.950 . S
C315 C332 1.574 . S
C315 C334 1.368 . S
C315 H339 0.949 . S
H316 C320 0.949 . S
C317 C318 1.349 . S
C317 C319 1.327 . S
C317 H340 0.950 . S
C318 C317 1.349 . S
C318 C330 1.349 . S
C319 C317 1.327 . S
C319 C335 1.429 . S
C319 H341 0.950 . S
C320 H316 0.949 . S
C320 C328 1.574 . S
C320 C336 1.368 . S
H321 C329 0.950 . S
H322 C327 0.950 . S
H323 C328 0.949 . S
H324 C330 0.950 . S
H325 C331 0.950 . S
H326 C332 0.949 . S
C327 H322 0.950 . S
C327 C329 1.327 . S
C327 C333 1.429 . S
C328 C320 1.574 . S
C328 H323 0.949 . S
C328 C334 1.368 . S
C329 C313 1.349 . S
C329 H321 0.950 . S
C329 C327 1.327 . S
C330 C318 1.349 . S
C330 H324 0.950 . S
C330 C331 1.327 . S
C331 H325 0.950 . S
C331 C330 1.327 . S
C331 C335 1.429 . S
C332 C315 1.574 . S
C332 H326 0.949 . S
C332 C336 1.368 . S
C333 C314 1.429 . S
C333 C327 1.429 . S
C333 C334 1.523 . S
C334 C315 1.368 . S
C334 C328 1.368 . S
C334 C333 1.523 . S
C335 C319 1.429 . S
C335 C331 1.429 . S
C335 C336 1.523 . S
C336 C320 1.368 . S
C336 C332 1.368 . S
C336 C335 1.523 . S
H337 C312 0.950 . S
H338 C314 0.950 . S
H339 C315 0.949 . S
H340 C317 0.950 . S
H341 C319 0.950 . S
C342 C343 1.349 . S
C342 C344 1.327 . S
C342 H367 0.950 . S
C343 C342 1.349 . S
C343 C359 1.349 . S
C344 C342 1.327 . S
C344 C363 1.429 . S
C344 H368 0.950 . S
C345 C362 1.574 . S
C345 C364 1.368 . S
C345 H369 0.949 . S
H346 C350 0.949 . S
C347 C348 1.349 . S
C347 C349 1.327 . S
C347 H370 0.950 . S
C348 C347 1.349 . S
C348 C360 1.349 . S
C349 C347 1.327 . S
C349 C365 1.429 . S
C349 H371 0.950 . S
C350 H346 0.949 . S
C350 C358 1.574 . S
C350 C366 1.368 . S
H351 C359 0.950 . S
H352 C357 0.950 . S
H353 C358 0.949 . S
H354 C360 0.950 . S
H355 C361 0.950 . S
H356 C362 0.949 . S
C357 H352 0.950 . S
C357 C359 1.327 . S
C357 C363 1.429 . S
C358 C350 1.574 . S
C358 H353 0.949 . S
C358 C364 1.368 . S
C359 C343 1.349 . S
C359 H351 0.950 . S
C359 C357 1.327 . S
C360 C348 1.349 . S
C360 H354 0.950 . S
C360 C361 1.327 . S
C361 H355 0.950 . S
C361 C360 1.327 . S
C361 C365 1.429 . S
C362 C345 1.574 . S
C362 H356 0.949 . S
C362 C366 1.368 . S
C363 C344 1.429 . S
C363 C357 1.429 . S
C363 C364 1.523 . S
C364 C345 1.368 . S
C364 C358 1.368 . S
C364 C363 1.523 . S
C365 C349 1.429 . S
C365 C361 1.429 . S
C365 C366 1.523 . S
C366 C350 1.368 . S
C366 C362 1.368 . S
C366 C365 1.523 . S
H367 C342 0.950 . S
H368 C344 0.950 . S
H369 C345 0.949 . S
H370 C347 0.950 . S
H371 C349 0.950 . S
C372 C373 1.349 . S
C372 C374 1.327 . S
C372 H397 0.950 . S
C373 C372 1.349 . S
C373 C389 1.349 . S
C374 C372 1.327 . S
C374 C393 1.429 . S
C374 H398 0.950 . S
C375 C392 1.574 . S
C375 C394 1.368 . S
C375 H399 0.949 . S
H376 C380 0.949 . S
C377 C378 1.349 . S
C377 C379 1.327 . S
C377 H400 0.950 . S
C378 C377 1.349 . S
C378 C390 1.349 . S
C379 C377 1.327 . S
C379 C395 1.429 . S
C379 H401 0.950 . S
C380 H376 0.949 . S
C380 C388 1.574 . S
C380 C396 1.368 . S
H381 C389 0.950 . S
H382 C387 0.950 . S
H383 C388 0.949 . S
H384 C390 0.950 . S
H385 C391 0.950 . S
H386 C392 0.949 . S
C387 H382 0.950 . S
C387 C389 1.327 . S
C387 C393 1.429 . S
C388 C380 1.574 . S
C388 H383 0.949 . S
C388 C394 1.368 . S
C389 C373 1.349 . S
C389 H381 0.950 . S
C389 C387 1.327 . S
C390 C378 1.349 . S
C390 H384 0.950 . S
C390 C391 1.327 . S
C391 H385 0.950 . S
C391 C390 1.327 . S
C391 C395 1.429 . S
C392 C375 1.574 . S
C392 H386 0.949 . S
C392 C396 1.368 . S
C393 C374 1.429 . S
C393 C387 1.429 . S
C393 C394 1.523 . S
C394 C375 1.368 . S
C394 C388 1.368 . S
C394 C393 1.523 . S
C395 C379 1.429 . S
C395 C391 1.429 . S
C395 C396 1.523 . S
C396 C380 1.368 . S
C396 C392 1.368 . S
C396 C395 1.523 . S
H397 C372 0.950 . S
H398 C374 0.950 . S
H399 C375 0.949 . S
H400 C377 0.950 . S
H401 C379 0.950 . S
C402 C403 1.349 . S
C402 C404 1.327 . S
C402 H427 0.950 . S
C403 C402 1.349 . S
C403 C419 1.349 . S
C404 C402 1.327 . S
C404 C423 1.429 . S
C404 H428 0.950 . S
C405 C422 1.574 . S
C405 C424 1.368 . S
C405 H429 0.949 . S
H406 C410 0.949 . S
C407 C408 1.349 . S
C407 C409 1.327 . S
C407 H430 0.950 . S
C408 C407 1.349 . S
C408 C420 1.349 . S
C409 C407 1.327 . S
C409 C425 1.429 . S
C409 H431 0.950 . S
C410 H406 0.949 . S
C410 C418 1.574 . S
C410 C426 1.368 . S
H411 C419 0.950 . S
H412 C417 0.950 . S
H413 C418 0.949 . S
H414 C420 0.950 . S
H415 C421 0.950 . S
H416 C422 0.949 . S
C417 H412 0.950 . S
C417 C419 1.327 . S
C417 C423 1.429 . S
C418 C410 1.574 . S
C418 H413 0.949 . S
C418 C424 1.368 . S
C419 C403 1.349 . S
C419 H411 0.950 . S
C419 C417 1.327 . S
C420 C408 1.349 . S
C420 H414 0.950 . S
C420 C421 1.327 . S
C421 H415 0.950 . S
C421 C420 1.327 . S
C421 C425 1.429 . S
C422 C405 1.574 . S
C422 H416 0.949 . S
C422 C426 1.368 . S
C423 C404 1.429 . S
C423 C417 1.429 . S
C423 C424 1.523 . S
C424 C405 1.368 . S
C424 C418 1.368 . S
C424 C423 1.523 . S
C425 C409 1.429 . S
C425 C421 1.429 . S
C425 C426 1.523 . S
C426 C410 1.368 . S
C426 C422 1.368 . S
C426 C425 1.523 . S
H427 C402 0.950 . S
H428 C404 0.950 . S
H429 C405 0.949 . S
H430 C407 0.950 . S
H431 C409 0.950 . S
C432 C433 1.349 . S
C432 C434 1.327 . S
C432 H457 0.950 . S
C433 C432 1.349 . S
C433 C449 1.349 . S
C434 C432 1.327 . S
C434 C453 1.429 . S
C434 H458 0.950 . S
C435 C452 1.574 . S
C435 C454 1.368 . S
C435 H459 0.949 . S
H436 C440 0.949 . S
C437 C438 1.349 . S
C437 C439 1.327 . S
C437 H460 0.950 . S
C438 C437 1.349 . S
C438 C450 1.349 . S
C439 C437 1.327 . S
C439 C455 1.429 . S
C439 H461 0.950 . S
C440 H436 0.949 . S
C440 C448 1.574 . S
C440 C456 1.368 . S
H441 C449 0.950 . S
H442 C447 0.950 . S
H443 C448 0.949 . S
H444 C450 0.950 . S
H445 C451 0.950 . S
H446 C452 0.949 . S
C447 H442 0.950 . S
C447 C449 1.327 . S
C447 C453 1.429 . S
C448 C440 1.574 . S
C448 H443 0.949 . S
C448 C454 1.368 . S
C449 C433 1.349 . S
C449 H441 0.950 . S
C449 C447 1.327 . S
C450 C438 1.349 . S
C450 H444 0.950 . S
C450 C451 1.327 . S
C451 H445 0.950 . S
C451 C450 1.327 . S
C451 C455 1.429 . S
C452 C435 1.574 . S
C452 H446 0.949 . S
C452 C456 1.368 . S
C453 C434 1.429 . S
C453 C447 1.429 . S
C453 C454 1.523 . S
C454 C435 1.368 . S
C454 C448 1.368 . S
C454 C453 1.523 . S
C455 C439 1.429 . S
C455 C451 1.429 . S
C455 C456 1.523 . S
C456 C440 1.368 . S
C456 C452 1.368 . S
C456 C455 1.523 . S
H457 C432 0.950 . S
H458 C434 0.950 . S
H459 C435 0.949 . S
H460 C437 0.950 . S
H461 C439 0.950 . S
C462 C463 1.349 . S
C462 C464 1.327 . S
C462 H487 0.950 . S
C463 C462 1.349 . S
C463 C479 1.349 . S
C464 C462 1.327 . S
C464 C483 1.429 . S
C464 H488 0.950 . S
C465 C482 1.574 . S
C465 C484 1.368 . S
C465 H489 0.949 . S
H466 C470 0.949 . S
C467 C468 1.349 . S
C467 C469 1.327 . S
C467 H490 0.950 . S
C468 C467 1.349 . S
C468 C480 1.349 . S
C469 C467 1.327 . S
C469 C485 1.429 . S
C469 H491 0.950 . S
C470 H466 0.949 . S
C470 C478 1.574 . S
C470 C486 1.368 . S
H471 C479 0.950 . S
H472 C477 0.950 . S
H473 C478 0.949 . S
H474 C480 0.950 . S
H475 C481 0.950 . S
H476 C482 0.949 . S
C477 H472 0.950 . S
C477 C479 1.327 . S
C477 C483 1.429 . S
C478 C470 1.574 . S
C478 H473 0.949 . S
C478 C484 1.368 . S
C479 C463 1.349 . S
C479 H471 0.950 . S
C479 C477 1.327 . S
C480 C468 1.349 . S
C480 H474 0.950 . S
C480 C481 1.327 . S
C481 H475 0.950 . S
C481 C480 1.327 . S
C481 C485 1.429 . S
C482 C465 1.574 . S
C482 H476 0.949 . S
C482 C486 1.368 . S
C483 C464 1.429 . S
C483 C477 1.429 . S
C483 C484 1.523 . S
C484 C465 1.368 . S
C484 C478 1.368 . S
C484 C483 1.523 . S
C485 C469 1.429 . S
C485 C481 1.429 . S
C485 C486 1.523 . S
C486 C470 1.368 . S
C486 C482 1.368 . S
C486 C485 1.523 . S
H487 C462 0.950 . S
H488 C464 0.950 . S
H489 C465 0.949 . S
H490 C467 0.950 . S
H491 C469 0.950 . S
C492 C493 1.349 . S
C492 C494 1.327 . S
C492 H517 0.950 . S
C493 C492 1.349 . S
C493 C509 1.349 . S
C494 C492 1.327 . S
C494 C513 1.429 . S
C494 H518 0.950 . S
C495 C512 1.574 . S
C495 C514 1.368 . S
C495 H519 0.949 . S
H496 C500 0.949 . S
C497 C498 1.349 . S
C497 C499 1.327 . S
C497 H520 0.950 . S
C498 C497 1.349 . S
C498 C510 1.349 . S
C499 C497 1.327 . S
C499 C515 1.429 . S
C499 H521 0.950 . S
C500 H496 0.949 . S
C500 C508 1.574 . S
C500 C516 1.368 . S
H501 C509 0.950 . S
H502 C507 0.950 . S
H503 C508 0.949 . S
H504 C510 0.950 . S
H505 C511 0.950 . S
H506 C512 0.949 . S
C507 H502 0.950 . S
C507 C509 1.327 . S
C507 C513 1.429 . S
C508 C500 1.574 . S
C508 H503 0.949 . S
C508 C514 1.368 . S
C509 C493 1.349 . S
C509 H501 0.950 . S
C509 C507 1.327 . S
C510 C498 1.349 . S
C510 H504 0.950 . S
C510 C511 1.327 . S
C511 H505 0.950 . S
C511 C510 1.327 . S
C511 C515 1.429 . S
C512 C495 1.574 . S
C512 H506 0.949 . S
C512 C516 1.368 . S
C513 C494 1.429 . S
C513 C507 1.429 . S
C513 C514 1.523 . S
C514 C495 1.368 . S
C514 C508 1.368 . S
C514 C513 1.523 . S
C515 C499 1.429 . S
C515 C511 1.429 . S
C515 C516 1.523 . S
C516 C500 1.368 . S
C516 C512 1.368 . S
C516 C515 1.523 . S
H517 C492 0.950 . S
H518 C494 0.950 . S
H519 C495 0.949 . S
H520 C497 0.950 . S
H521 C499 0.950 . S
C522 C523 1.349 . S
C522 C524 1.327 . S
C522 H547 0.950 . S
C523 C522 1.349 . S
C523 C539 1.349 . S
C524 C522 1.327 . S
C524 C543 1.429 . S
C524 H548 0.950 . S
C525 C542 1.574 . S
C525 C544 1.368 . S
C525 H549 0.949 . S
H526 C530 0.949 . S
C527 C528 1.349 . S
C527 C529 1.327 . S
C527 H550 0.950 . S
C528 C527 1.349 . S
C528 C540 1.349 . S
C529 C527 1.327 . S
C529 C545 1.429 . S
C529 H551 0.950 . S
C530 H526 0.949 . S
C530 C538 1.574 . S
C530 C546 1.368 . S
H531 C539 0.950 . S
H532 C537 0.950 . S
H533 C538 0.949 . S
H534 C540 0.950 . S
H535 C541 0.950 . S
H536 C542 0.949 . S
C537 H532 0.950 . S
C537 C539 1.327 . S
C537 C543 1.429 . S
C538 C530 1.574 . S
C538 H533 0.949 . S
C538 C544 1.368 . S
C539 C523 1.349 . S
C539 H531 0.950 . S
C539 C537 1.327 . S
C540 C528 1.349 . S
C540 H534 0.950 . S
C540 C541 1.327 . S
C541 H535 0.950 . S
C541 C540 1.327 . S
C541 C545 1.429 . S
C542 C525 1.574 . S
C542 H536 0.949 . S
C542 C546 1.368 . S
C543 C524 1.429 . S
C543 C537 1.429 . S
C543 C544 1.523 . S
C544 C525 1.368 . S
C544 C538 1.368 . S
C544 C543 1.523 . S
C545 C529 1.429 . S
C545 C541 1.429 . S
C545 C546 1.523 . S
C546 C530 1.368 . S
C546 C542 1.368 . S
C546 C545 1.523 . S
H547 C522 0.950 . S
H548 C524 0.950 . S
H549 C525 0.949 . S
H550 C527 0.950 . S
H551 C529 0.950 . S
C552 C553 1.349 . S
C552 C554 1.327 . S
C552 H577 0.950 . S
C553 C552 1.349 . S
C553 C569 1.349 . S
C554 C552 1.327 . S
C554 C573 1.429 . S
C554 H578 0.950 . S
C555 C572 1.574 . S
C555 C574 1.368 . S
C555 H579 0.949 . S
H556 C560 0.949 . S
C557 C558 1.349 . S
C557 C559 1.327 . S
C557 H580 0.950 . S
C558 C557 1.349 . S
C558 C570 1.349 . S
C559 C557 1.327 . S
C559 C575 1.429 . S
C559 H581 0.950 . S
C560 H556 0.949 . S
C560 C568 1.574 . S
C560 C576 1.368 . S
H561 C569 0.950 . S
H562 C567 0.950 . S
H563 C568 0.949 . S
H564 C570 0.950 . S
H565 C571 0.950 . S
H566 C572 0.949 . S
C567 H562 0.950 . S
C567 C569 1.327 . S
C567 C573 1.429 . S
C568 C560 1.574 . S
C568 H563 0.949 . S
C568 C574 1.368 . S
C569 C553 1.349 . S
C569 H561 0.950 . S
C569 C567 1.327 . S
C570 C558 1.349 . S
C570 H564 0.950 . S
C570 C571 1.327 . S
C571 H565 0.950 . S
C571 C570 1.327 . S
C571 C575 1.429 . S
C572 C555 1.574 . S
C572 H566 0.949 . S
C572 C576 1.368 . S
C573 C554 1.429 . S
C573 C567 1.429 . S
C573 C574 1.523 . S
C574 C555 1.368 . S
C574 C568 1.368 . S
C574 C573 1.523 . S
C575 C559 1.429 . S
C575 C571 1.429 . S
C575 C576 1.523 . S
C576 C560 1.368 . S
C576 C572 1.368 . S
C576 C575 1.523 . S
H577 C552 0.950 . S
H578 C554 0.950 . S
H579 C555 0.949 . S
H580 C557 0.950 . S
H581 C559 0.950 . S
C582 C583 1.349 . S
C582 C584 1.327 . S
C582 H607 0.950 . S
C583 C582 1.349 . S
C583 C599 1.349 . S
C584 C582 1.327 . S
C584 C603 1.429 . S
C584 H608 0.950 . S
C585 C602 1.574 . S
C585 C604 1.368 . S
C585 H609 0.949 . S
H586 C590 0.949 . S
C587 C588 1.349 . S
C587 C589 1.327 . S
C587 H610 0.950 . S
C588 C587 1.349 . S
C588 C600 1.349 . S
C589 C587 1.327 . S
C589 C605 1.429 . S
C589 H611 0.950 . S
C590 H586 0.949 . S
C590 C598 1.574 . S
C590 C606 1.368 . S
H591 C599 0.950 . S
H592 C597 0.950 . S
H593 C598 0.949 . S
H594 C600 0.950 . S
H595 C601 0.950 . S
H596 C602 0.949 . S
C597 H592 0.950 . S
C597 C599 1.327 . S
C597 C603 1.429 . S
C598 C590 1.574 . S
C598 H593 0.949 . S
C598 C604 1.368 . S
C599 C583 1.349 . S
C599 H591 0.950 . S
C599 C597 1.327 . S
C600 C588 1.349 . S
C600 H594 0.950 . S
C600 C601 1.327 . S
C601 H595 0.950 . S
C601 C600 1.327 . S
C601 C605 1.429 . S
C602 C585 1.574 . S
C602 H596 0.949 . S
C602 C606 1.368 . S
C603 C584 1.429 . S
C603 C597 1.429 . S
C603 C604 1.523 . S
C604 C585 1.368 . S
C604 C598 1.368 . S
C604 C603 1.523 . S
C605 C589 1.429 . S
C605 C601 1.429 . S
C605 C606 1.523 . S
C606 C590 1.368 . S
C606 C602 1.368 . S
C606 C605 1.523 . S
H607 C582 0.950 . S
H608 C584 0.950 . S
H609 C585 0.949 . S
H610 C587 0.950 . S
H611 C589 0.950 . S
C612 C613 1.349 . S
C612 C614 1.327 . S
C612 H637 0.950 . S
C613 C612 1.349 . S
C613 C629 1.349 . S
C614 C612 1.327 . S
C614 C633 1.429 . S
C614 H638 0.950 . S
C615 C632 1.574 . S
C615 C634 1.368 . S
C615 H639 0.949 . S
H616 C620 0.949 . S
C617 C618 1.349 . S
C617 C619 1.327 . S
C617 H640 0.950 . S
C618 C617 1.349 . S
C618 C630 1.349 . S
C619 C617 1.327 . S
C619 C635 1.429 . S
C619 H641 0.950 . S
C620 H616 0.949 . S
C620 C628 1.574 . S
C620 C636 1.368 . S
H621 C629 0.950 . S
H622 C627 0.950 . S
H623 C628 0.949 . S
H624 C630 0.950 . S
H625 C631 0.950 . S
H626 C632 0.949 . S
C627 H622 0.950 . S
C627 C629 1.327 . S
C627 C633 1.429 . S
C628 C620 1.574 . S
C628 H623 0.949 . S
C628 C634 1.368 . S
C629 C613 1.349 . S
C629 H621 0.950 . S
C629 C627 1.327 . S
C630 C618 1.349 . S
C630 H624 0.950 . S
C630 C631 1.327 . S
C631 H625 0.950 . S
C631 C630 1.327 . S
C631 C635 1.429 . S
C632 C615 1.574 . S
C632 H626 0.949 . S
C632 C636 1.368 . S
C633 C614 1.429 . S
C633 C627 1.429 . S
C633 C634 1.523 . S
C634 C615 1.368 . S
C634 C628 1.368 . S
C634 C633 1.523 . S
C635 C619 1.429 . S
C635 C631 1.429 . S
C635 C636 1.523 . S
C636 C620 1.368 . S
C636 C632 1.368 . S
C636 C635 1.523 . S
H637 C612 0.950 . S
H638 C614 0.950 . S
H639 C615 0.949 . S
H640 C617 0.950 . S
H641 C619 0.950 . S
C642 C643 1.349 . S
C642 C644 1.327 . S
C642 H667 0.950 . S
C643 C642 1.349 . S
C643 C659 1.349 . S
C644 C642 1.327 . S
C644 C663 1.429 . S
C644 H668 0.950 . S
C645 C662 1.574 . S
C645 C664 1.368 . S
C645 H669 0.949 . S
H646 C650 0.949 . S
C647 C648 1.349 . S
C647 C649 1.327 . S
C647 H670 0.950 . S
C648 C647 1.349 . S
C648 C660 1.349 . S
C649 C647 1.327 . S
C649 C665 1.429 . S
C649 H671 0.950 . S
C650 H646 0.949 . S
C650 C658 1.574 . S
C650 C666 1.368 . S
H651 C659 0.950 . S
H652 C657 0.950 . S
H653 C658 0.949 . S
H654 C660 0.950 . S
H655 C661 0.950 . S
H656 C662 0.949 . S
C657 H652 0.950 . S
C657 C659 1.327 . S
C657 C663 1.429 . S
C658 C650 1.574 . S
C658 H653 0.949 . S
C658 C664 1.368 . S
C659 C643 1.349 . S
C659 H651 0.950 . S
C659 C657 1.327 . S
C660 C648 1.349 . S
C660 H654 0.950 . S
C660 C661 1.327 . S
C661 H655 0.950 . S
C661 C660 1.327 . S
C661 C665 1.429 . S
C662 C645 1.574 . S
C662 H656 0.949 . S
C662 C666 1.368 . S
C663 C644 1.429 . S
C663 C657 1.429 . S
C663 C664 1.523 . S
C664 C645 1.368 . S
C664 C658 1.368 . S
C664 C663 1.523 . S
C665 C649 1.429 . S
C665 C661 1.429 . S
C665 C666 1.523 . S
C666 C650 1.368 . S
C666 C662 1.368 . S
C666 C665 1.523 . S
H667 C642 0.950 . S
H668 C644 0.950 . S
H669 C645 0.949 . S
H670 C647 0.950 . S
H671 C649 0.950 . S
C672 C673 1.349 . S
C672 C674 1.327 . S
C672 H697 0.950 1_455 S
C673 C672 1.349 . S
C673 C689 1.349 . S
C674 C672 1.327 . S
C674 C693 1.429 . S
C674 H698 0.950 1_455 S
C675 C692 1.574 . S
C675 C694 1.368 . S
C675 H699 0.949 . S
H676 C680 0.949 1_655 S
C677 C678 1.349 . S
C677 C679 1.327 . S
C677 H700 0.950 . S
C678 C677 1.349 . S
C678 C690 1.349 . S
C679 C677 1.327 . S
C679 C695 1.429 1_556 S
C679 H701 0.950 1_556 S
C680 H676 0.949 1_455 S
C680 C688 1.574 . S
C680 C696 1.368 . S
H681 C689 0.950 . S
H682 C687 0.950 . S
H683 C688 0.949 1_655 S
H684 C690 0.950 1_655 S
H685 C691 0.950 1_655 S
H686 C692 0.949 . S
C687 H682 0.950 . S
C687 C689 1.327 . S
C687 C693 1.429 . S
C688 C680 1.574 . S
C688 H683 0.949 1_455 S
C688 C694 1.368 . S
C689 C673 1.349 . S
C689 H681 0.950 . S
C689 C687 1.327 . S
C690 C678 1.349 . S
C690 H684 0.950 1_455 S
C690 C691 1.327 . S
C691 H685 0.950 1_455 S
C691 C690 1.327 . S
C691 C695 1.429 1_556 S
C692 C675 1.574 . S
C692 H686 0.949 . S
C692 C696 1.368 . S
C693 C674 1.429 . S
C693 C687 1.429 . S
C693 C694 1.523 . S
C694 C675 1.368 . S
C694 C688 1.368 . S
C694 C693 1.523 . S
C695 C679 1.429 1_554 S
C695 C691 1.429 1_554 S
C695 C696 1.523 . S
C696 C680 1.368 . S
C696 C692 1.368 . S
C696 C695 1.523 . S
H697 C672 0.950 1_655 S
H698 C674 0.950 1_655 S
H699 C675 0.949 . S
H700 C677 0.950 . S
H701 C679 0.950 1_554 S
C702 C703 1.349 . S
C702 C704 1.327 . S
C702 H727 0.950 1_545 S
C703 C702 1.349 . S
C703 C719 1.349 . S
C704 C702 1.327 . S
C704 C723 1.429 . S
C704 H728 0.950 1_545 S
C705 C722 1.574 . S
C705 C724 1.368 . S
C705 H729 0.949 . S
H706 C710 0.949 1_565 S
C707 C708 1.349 . S
C707 C709 1.327 . S
C707 H730 0.950 . S
C708 C707 1.349 . S
C708 C720 1.349 . S
C709 C707 1.327 . S
C709 C725 1.429 . S
C709 H731 0.950 . S
C710 H706 0.949 1_545 S
C710 C718 1.574 . S
C710 C726 1.368 . S
H711 C719 0.950 . S
H712 C717 0.950 . S
H713 C718 0.949 1_565 S
H714 C720 0.950 1_565 S
H715 C721 0.950 1_565 S
H716 C722 0.949 . S
C717 H712 0.950 . S
C717 C719 1.327 . S
C717 C723 1.429 . S
C718 C710 1.574 . S
C718 H713 0.949 1_545 S
C718 C724 1.368 . S
C719 C703 1.349 . S
C719 H711 0.950 . S
C719 C717 1.327 . S
C720 C708 1.349 . S
C720 H714 0.950 1_545 S
C720 C721 1.327 . S
C721 H715 0.950 1_545 S
C721 C720 1.327 . S
C721 C725 1.429 . S
C722 C705 1.574 . S
C722 H716 0.949 . S
C722 C726 1.368 . S
C723 C704 1.429 . S
C723 C717 1.429 . S
C723 C724 1.523 . S
C724 C705 1.368 . S
C724 C718 1.368 . S
C724 C723 1.523 . S
C725 C709 1.429 . S
C725 C721 1.429 . S
C725 C726 1.523 . S
C726 C710 1.368 . S
C726 C722 1.368 . S
C726 C725 1.523 . S
H727 C702 0.950 1_565 S
H728 C704 0.950 1_565 S
H729 C705 0.949 . S
H730 C707 0.950 . S
H731 C709 0.950 . S
C732 C733 1.349 . S
C732 C734 1.327 . S
C732 H757 0.950 . S
C733 C732 1.349 . S
C733 C749 1.349 . S
C734 C732 1.327 . S
C734 C753 1.429 . S
C734 H758 0.950 . S
C735 C752 1.574 . S
C735 C754 1.368 . S
C735 H759 0.949 . S
H736 C740 0.949 . S
C737 C738 1.349 . S
C737 C739 1.327 . S
C737 H760 0.950 . S
C738 C737 1.349 . S
C738 C750 1.349 . S
C739 C737 1.327 . S
C739 C755 1.429 . S
C739 H761 0.950 . S
C740 H736 0.949 . S
C740 C748 1.574 . S
C740 C756 1.368 . S
H741 C749 0.950 . S
H742 C747 0.950 . S
H743 C748 0.949 . S
H744 C750 0.950 . S
H745 C751 0.950 . S
H746 C752 0.949 . S
C747 H742 0.950 . S
C747 C749 1.327 . S
C747 C753 1.429 . S
C748 C740 1.574 . S
C748 H743 0.949 . S
C748 C754 1.368 . S
C749 C733 1.349 . S
C749 H741 0.950 . S
C749 C747 1.327 . S
C750 C738 1.349 . S
C750 H744 0.950 . S
C750 C751 1.327 . S
C751 H745 0.950 . S
C751 C750 1.327 . S
C751 C755 1.429 . S
C752 C735 1.574 . S
C752 H746 0.949 . S
C752 C756 1.368 . S
C753 C734 1.429 . S
C753 C747 1.429 . S
C753 C754 1.523 . S
C754 C735 1.368 . S
C754 C748 1.368 . S
C754 C753 1.523 . S
C755 C739 1.429 . S
C755 C751 1.429 . S
C755 C756 1.523 . S
C756 C740 1.368 . S
C756 C752 1.368 . S
C756 C755 1.523 . S
H757 C732 0.950 . S
H758 C734 0.950 . S
H759 C735 0.949 . S
H760 C737 0.950 . S
H761 C739 0.950 . S
C762 C763 1.349 . S
C762 C764 1.327 . S
C762 H787 0.950 1_545 S
C763 C762 1.349 . S
C763 C779 1.349 . S
C764 C762 1.327 . S
C764 C783 1.429 . S
C764 H788 0.950 1_545 S
C765 C782 1.574 . S
C765 C784 1.368 . S
C765 H789 0.949 . S
H766 C770 0.949 . S
C767 C768 1.349 . S
C767 C769 1.327 . S
C767 H790 0.950 . S
C768 C767 1.349 . S
C768 C780 1.349 1_545 S
C769 C767 1.327 . S
C769 C785 1.429 . S
C769 H791 0.950 . S
C770 H766 0.949 . S
C770 C778 1.574 . S
C770 C786 1.368 1_565 S
H771 C779 0.950 . S
H772 C777 0.950 . S
H773 C778 0.949 . S
H774 C780 0.950 . S
H775 C781 0.950 . S
H776 C782 0.949 . S
C777 H772 0.950 . S
C777 C779 1.327 . S
C777 C783 1.429 . S
C778 C770 1.574 . S
C778 H773 0.949 . S
C778 C784 1.368 1_565 S
C779 C763 1.349 . S
C779 H771 0.950 . S
C779 C777 1.327 . S
C780 C768 1.349 1_565 S
C780 H774 0.950 . S
C780 C781 1.327 . S
C781 H775 0.950 . S
C781 C780 1.327 . S
C781 C785 1.429 1_565 S
C782 C765 1.574 . S
C782 H776 0.949 . S
C782 C786 1.368 . S
C783 C764 1.429 . S
C783 C777 1.429 . S
C783 C784 1.523 . S
C784 C765 1.368 . S
C784 C778 1.368 1_545 S
C784 C783 1.523 . S
C785 C769 1.429 . S
C785 C781 1.429 1_545 S
C785 C786 1.523 . S
C786 C770 1.368 1_545 S
C786 C782 1.368 . S
C786 C785 1.523 . S
H787 C762 0.950 1_565 S
H788 C764 0.950 1_565 S
H789 C765 0.949 . S
H790 C767 0.950 . S
H791 C769 0.950 . S
C792 C793 1.349 . S
C792 C794 1.327 . S
C792 H817 0.950 . S
C793 C792 1.349 . S
C793 C809 1.349 . S
C794 C792 1.327 . S
C794 C813 1.429 . S
C794 H818 0.950 . S
C795 C812 1.574 . S
C795 C814 1.368 . S
C795 H819 0.949 . S
H796 C800 0.949 . S
C797 C798 1.349 . S
C797 C799 1.327 . S
C797 H820 0.950 . S
C798 C797 1.349 . S
C798 C810 1.349 . S
C799 C797 1.327 . S
C799 C815 1.429 1_554 S
C799 H821 0.950 . S
C800 H796 0.949 . S
C800 C808 1.574 . S
C800 C816 1.368 . S
H801 C809 0.950 . S
H802 C807 0.950 . S
H803 C808 0.949 . S
H804 C810 0.950 . S
H805 C811 0.950 1_556 S
H806 C812 0.949 . S
C807 H802 0.950 . S
C807 C809 1.327 . S
C807 C813 1.429 . S
C808 C800 1.574 . S
C808 H803 0.949 . S
C808 C814 1.368 . S
C809 C793 1.349 . S
C809 H801 0.950 . S
C809 C807 1.327 . S
C810 C798 1.349 . S
C810 H804 0.950 . S
C810 C811 1.327 . S
C811 H805 0.950 1_554 S
C811 C810 1.327 . S
C811 C815 1.429 1_554 S
C812 C795 1.574 . S
C812 H806 0.949 . S
C812 C816 1.368 . S
C813 C794 1.429 . S
C813 C807 1.429 . S
C813 C814 1.523 . S
C814 C795 1.368 . S
C814 C808 1.368 . S
C814 C813 1.523 . S
C815 C799 1.429 1_556 S
C815 C811 1.429 1_556 S
C815 C816 1.523 . S
C816 C800 1.368 . S
C816 C812 1.368 . S
C816 C815 1.523 . S
H817 C792 0.950 . S
H818 C794 0.950 . S
H819 C795 0.949 . S
H820 C797 0.950 . S
H821 C799 0.950 . S
C822 C823 1.349 . S
C822 C824 1.327 . S
C822 H847 0.950 . S
C823 C822 1.349 . S
C823 C839 1.349 . S
C824 C822 1.327 . S
C824 C843 1.429 . S
C824 H848 0.950 . S
C825 C842 1.574 . S
C825 C844 1.368 . S
C825 H849 0.949 . S
H826 C830 0.949 . S
C827 C828 1.349 . S
C827 C829 1.327 . S
C827 H850 0.950 . S
C828 C827 1.349 . S
C828 C840 1.349 . S
C829 C827 1.327 . S
C829 C845 1.429 . S
C829 H851 0.950 . S
C830 H826 0.949 . S
C830 C838 1.574 . S
C830 C846 1.368 . S
H831 C839 0.950 . S
H832 C837 0.950 . S
H833 C838 0.949 . S
H834 C840 0.950 . S
H835 C841 0.950 . S
H836 C842 0.949 . S
C837 H832 0.950 . S
C837 C839 1.327 . S
C837 C843 1.429 . S
C838 C830 1.574 . S
C838 H833 0.949 . S
C838 C844 1.368 . S
C839 C823 1.349 . S
C839 H831 0.950 . S
C839 C837 1.327 . S
C840 C828 1.349 . S
C840 H834 0.950 . S
C840 C841 1.327 . S
C841 H835 0.950 . S
C841 C840 1.327 . S
C841 C845 1.429 . S
C842 C825 1.574 . S
C842 H836 0.949 . S
C842 C846 1.368 . S
C843 C824 1.429 . S
C843 C837 1.429 . S
C843 C844 1.523 . S
C844 C825 1.368 . S
C844 C838 1.368 . S
C844 C843 1.523 . S
C845 C829 1.429 . S
C845 C841 1.429 . S
C845 C846 1.523 . S
C846 C830 1.368 . S
C846 C842 1.368 . S
C846 C845 1.523 . S
H847 C822 0.950 . S
H848 C824 0.950 . S
H849 C825 0.949 . S
H850 C827 0.950 . S
H851 C829 0.950 . S
C313 C9 0.383 . S
C318 C303 0.329 . S
C343 C49 0.270 . S
C348 C239 0.343 . S
C373 C89 0.258 . S
C378 C271 0.360 . S
C403 C26 0.367 . S
C408 C297 0.279 . S
C438 C233 0.383 . S
C433 C66 0.401 . S
C468 C265 0.407 . S
C463 C106 0.427 . S
C493 C43 2.868 . S
C498 C175 2.814 . S
C523 C83 2.980 . S
C528 C207 2.911 . S
C553 C22 3.055 . S
C558 C137 2.993 . S
C588 C169 2.987 . S
C583 C62 3.045 . S
C618 C201 2.878 . S
C613 C102 2.930 . S
C643 C3 2.859 . S
C648 C143 2.807 . S
C678 C213 1.740 . S
C673 C15 1.721 . S
C703 C55 1.731 . S
C708 C149 1.739 . S
C733 C95 1.725 . S
C738 C181 1.735 . S
C768 C277 1.080 . S
C763 C42 1.090 . S
C798 C309 1.101 . S
C793 C82 1.095 . S
C823 C2 1.091 . S
C828 C245 1.078 . S
