# Generated by pormake.
# Topology pto, (3,4)-cn, num edge types: 1
# Building blocks:
#     Node 0, Type 0, BuildingBlock: BELTOD_clean_linker_0, # of connection points: 3
#     Node 1, Type 0, BuildingBlock: BELTOD_clean_linker_0, # of connection points: 3
#     Node 2, Type 0, BuildingBlock: BELTOD_clean_linker_0, # of connection points: 3
#     Node 3, Type 0, BuildingBlock: BELTOD_clean_linker_0, # of connection points: 3
#     Node 4, Type 0, BuildingBlock: BELTOD_clean_linker_0, # of connection points: 3
#     Node 5, Type 0, BuildingBlock: BELTOD_clean_linker_0, # of connection points: 3
#     Node 6, Type 0, BuildingBlock: BELTOD_clean_linker_0, # of connection points: 3
#     Node 7, Type 0, BuildingBlock: BELTOD_clean_linker_0, # of connection points: 3
#     Node 8, Type 1, BuildingBlock: KOZSID_clean_sbu_0, # of connection points: 4
#     Node 9, Type 1, BuildingBlock: KOZSID_clean_sbu_0, # of connection points: 4
#     Node 10, Type 1, BuildingBlock: KOZSID_clean_sbu_0, # of connection points: 4
#     Node 11, Type 1, BuildingBlock: KOZSID_clean_sbu_0, # of connection points: 4
#     Node 12, Type 1, BuildingBlock: KOZSID_clean_sbu_0, # of connection points: 4
#     Node 13, Type 1, BuildingBlock: KOZSID_clean_sbu_0, # of connection points: 4
#     Edge 14, Type (0, 1), BuildingBlock: XIVTED_clean_linker_0, # of connection points: 2
#     Edge 15, Type (0, 1), BuildingBlock: XIVTED_clean_linker_0, # of connection points: 2
#     Edge 16, Type (0, 1), BuildingBlock: XIVTED_clean_linker_0, # of connection points: 2
#     Edge 17, Type (0, 1), BuildingBlock: XIVTED_clean_linker_0, # of connection points: 2
#     Edge 18, Type (0, 1), BuildingBlock: XIVTED_clean_linker_0, # of connection points: 2
#     Edge 19, Type (0, 1), BuildingBlock: XIVTED_clean_linker_0, # of connection points: 2
#     Edge 20, Type (0, 1), BuildingBlock: XIVTED_clean_linker_0, # of connection points: 2
#     Edge 21, Type (0, 1), BuildingBlock: XIVTED_clean_linker_0, # of connection points: 2
#     Edge 22, Type (0, 1), BuildingBlock: XIVTED_clean_linker_0, # of connection points: 2
#     Edge 23, Type (0, 1), BuildingBlock: XIVTED_clean_linker_0, # of connection points: 2
#     Edge 24, Type (0, 1), BuildingBlock: XIVTED_clean_linker_0, # of connection points: 2
#     Edge 25, Type (0, 1), BuildingBlock: XIVTED_clean_linker_0, # of connection points: 2
#     Edge 26, Type (0, 1), BuildingBlock: XIVTED_clean_linker_0, # of connection points: 2
#     Edge 27, Type (0, 1), BuildingBlock: XIVTED_clean_linker_0, # of connection points: 2
#     Edge 28, Type (0, 1), BuildingBlock: XIVTED_clean_linker_0, # of connection points: 2
#     Edge 29, Type (0, 1), BuildingBlock: XIVTED_clean_linker_0, # of connection points: 2
#     Edge 30, Type (0, 1), BuildingBlock: XIVTED_clean_linker_0, # of connection points: 2
#     Edge 31, Type (0, 1), BuildingBlock: XIVTED_clean_linker_0, # of connection points: 2
#     Edge 32, Type (0, 1), BuildingBlock: XIVTED_clean_linker_0, # of connection points: 2
#     Edge 33, Type (0, 1), BuildingBlock: XIVTED_clean_linker_0, # of connection points: 2
#     Edge 34, Type (0, 1), BuildingBlock: XIVTED_clean_linker_0, # of connection points: 2
#     Edge 35, Type (0, 1), BuildingBlock: XIVTED_clean_linker_0, # of connection points: 2
#     Edge 36, Type (0, 1), BuildingBlock: XIVTED_clean_linker_0, # of connection points: 2
#     Edge 37, Type (0, 1), BuildingBlock: XIVTED_clean_linker_0, # of connection points: 2
# Relax obj value: 0.000
# Max RMSD: 0.028
# Mean RMSD: 0.010
data_MOF--net-pto--node1-KOZSID_clean_sbu_0--node2-BELTOD_clean_linker_0--edge1-XIVTED_clean_linker_0
_symmetry_space_group_name_H-M    P1
_symmetry_Int_Tables_number       1
_symmetry_cell_setting            triclinic
loop_
_symmetry_equiv_pos_as_xyz
'x, y, z'
_cell_length_a     43.529359
_cell_length_b     59.065095
_cell_length_c     51.234507
_cell_angle_alpha  86.924191
_cell_angle_beta   89.269153
_cell_angle_gamma 95.185168
loop_
_atom_site_label
_atom_site_type_symbol
_atom_site_fract_x
_atom_site_fract_y
_atom_site_fract_z
_atom_type_partial_charge
P0 P 0.3251 0.29121 0.34479 0.0
H1 H 0.37465 0.31678 0.31391 0.0
H2 H 0.39545 0.31296 0.27001 0.0
H3 H 0.32918 0.25507 0.26044 0.0
H4 H 0.30811 0.25934 0.30412 0.0
H5 H 0.28738 0.30639 0.38632 0.0
H6 H 0.24535 0.33121 0.38671 0.0
H7 H 0.25192 0.34006 0.30245 0.0
H8 H 0.29341 0.31493 0.30222 0.0
H9 H 0.35657 0.25999 0.37891 0.0
H10 H 0.2672 0.26176 0.3439 0.0
O11 O 0.35293 0.30376 0.36258 0.0
H12 H 0.34056 0.22249 0.39972 0.0
H13 H 0.25098 0.22415 0.36467 0.0
C14 C 0.34033 0.28802 0.3125 0.0
C15 C 0.36473 0.30319 0.30241 0.0
C16 C 0.37665 0.30094 0.27732 0.0
C17 C 0.36419 0.28356 0.26178 0.0
C18 C 0.33923 0.2687 0.27182 0.0
C19 C 0.32733 0.27099 0.29692 0.0
C20 C 0.2935 0.30885 0.3443 0.0
C21 C 0.27962 0.31362 0.36795 0.0
C22 C 0.25574 0.32791 0.36814 0.0
C23 C 0.24533 0.33769 0.34461 0.0
C24 C 0.25912 0.3326 0.32089 0.0
C25 C 0.28303 0.31831 0.32074 0.0
C26 C 0.31289 0.26377 0.36027 0.0
C27 C 0.33341 0.25237 0.37588 0.0
C28 C 0.32421 0.23097 0.3878 0.0
C29 C 0.29443 0.22047 0.38398 0.0
C30 C 0.27409 0.2318 0.36789 0.0
C31 C 0.28325 0.25332 0.35617 0.0
P32 P 0.28726 0.75592 0.6934 0.0
H33 H 0.2723 0.72081 0.65633 0.0
H34 H 0.23139 0.68967 0.65559 0.0
H35 H 0.19368 0.71069 0.72796 0.0
H36 H 0.23432 0.74209 0.7282 0.0
H37 H 0.31776 0.80176 0.69154 0.0
H38 H 0.30365 0.8383 0.67299 0.0
H39 H 0.21724 0.80544 0.64767 0.0
H40 H 0.23156 0.76892 0.66619 0.0
H41 H 0.32701 0.72892 0.72499 0.0
H42 H 0.27444 0.78642 0.73508 0.0
O43 O 0.31681 0.74945 0.67502 0.0
H44 H 0.34531 0.73131 0.76983 0.0
H45 H 0.29294 0.78908 0.7798 0.0
C46 C 0.25664 0.73341 0.6926 0.0
C47 C 0.25524 0.71868 0.67205 0.0
C48 C 0.2319 0.70083 0.6717 0.0
C49 C 0.20942 0.69754 0.69185 0.0
C50 C 0.21049 0.71281 0.71206 0.0
C51 C 0.23385 0.73066 0.71235 0.0
C52 C 0.27558 0.78271 0.68057 0.0
C53 C 0.29565 0.80248 0.68221 0.0
C54 C 0.28749 0.82335 0.67171 0.0
C55 C 0.25923 0.82477 0.65902 0.0
C56 C 0.23921 0.80486 0.65725 0.0
C57 C 0.24733 0.78399 0.66796 0.0
C58 C 0.30013 0.75788 0.7265 0.0
C59 C 0.31954 0.74212 0.73683 0.0
C60 C 0.32978 0.7434 0.76249 0.0
C61 C 0.32074 0.7605 0.77822 0.0
C62 C 0.30068 0.77596 0.76796 0.0
C63 C 0.29018 0.77449 0.74239 0.0
P64 P 0.82038 0.78954 0.27938 0.0
H65 H 0.86038 0.81253 0.31649 0.0
H66 H 0.85039 0.83572 0.35318 0.0
H67 H 0.75227 0.82203 0.34239 0.0
H68 H 0.76252 0.799 0.30549 0.0
H69 H 0.8412 0.75553 0.24648 0.0
H70 H 0.8608 0.71856 0.25568 0.0
H71 H 0.84688 0.72554 0.33845 0.0
H72 H 0.82645 0.76231 0.32897 0.0
H73 H 0.79596 0.82325 0.24398 0.0
H74 H 0.77247 0.75283 0.26874 0.0
O75 O 0.84954 0.80462 0.26314 0.0
H76 H 0.75287 0.82164 0.21388 0.0
H77 H 0.72994 0.75078 0.23804 0.0
C78 C 0.81224 0.80443 0.30802 0.0
C79 C 0.83672 0.8144 0.32216 0.0
C80 C 0.83095 0.82753 0.34324 0.0
C81 C 0.80051 0.83087 0.3506 0.0
C82 C 0.77597 0.82009 0.33693 0.0
C83 C 0.78181 0.80687 0.31588 0.0
C84 C 0.83258 0.76169 0.287 0.0
C85 C 0.84218 0.74901 0.26659 0.0
C86 C 0.85356 0.72795 0.27191 0.0
C87 C 0.85577 0.7192 0.29784 0.0
C88 C 0.84532 0.73172 0.31827 0.0
C89 C 0.83381 0.75283 0.31288 0.0
C90 C 0.78782 0.78804 0.25807 0.0
C91 C 0.78162 0.80738 0.24277 0.0
C92 C 0.75705 0.80639 0.22548 0.0
C93 C 0.73817 0.78598 0.22323 0.0
C94 C 0.74391 0.76679 0.23932 0.0
C95 C 0.76844 0.76787 0.25672 0.0
P96 P 0.81895 0.23812 0.801 0.0
H97 H 0.81369 0.24159 0.85743 0.0
H98 H 0.76988 0.24371 0.88699 0.0
H99 H 0.70805 0.23776 0.82182 0.0
H100 H 0.75225 0.23642 0.79225 0.0
H101 H 0.8311 0.1906 0.79953 0.0
H102 H 0.82199 0.16224 0.76706 0.0
H103 H 0.77923 0.21127 0.71712 0.0
H104 H 0.78742 0.23935 0.75037 0.0
H105 H 0.81935 0.28271 0.82264 0.0
H106 H 0.84506 0.25579 0.74961 0.0
O107 O 0.84888 0.23053 0.81839 0.0
H108 H 0.83911 0.32093 0.80608 0.0
H109 H 0.86357 0.29426 0.73267 0.0
C110 C 0.78618 0.23838 0.82272 0.0
C111 C 0.79069 0.24052 0.84953 0.0
C112 C 0.76554 0.24166 0.86645 0.0
C113 C 0.73533 0.24071 0.85687 0.0
C114 C 0.73097 0.23871 0.82987 0.0
C115 C 0.75622 0.23771 0.81294 0.0
C116 C 0.81087 0.2173 0.77697 0.0
C117 C 0.81981 0.19528 0.78158 0.0
C118 C 0.81469 0.17908 0.7629 0.0
C119 C 0.80043 0.18457 0.73919 0.0
C120 C 0.79027 0.20643 0.73513 0.0
C121 C 0.79523 0.22259 0.754 0.0
C122 C 0.82965 0.26643 0.78707 0.0
C123 C 0.82841 0.28505 0.80281 0.0
C124 C 0.83982 0.30686 0.79343 0.0
C125 C 0.85245 0.31042 0.76806 0.0
C126 C 0.8534 0.29188 0.75214 0.0
C127 C 0.84261 0.26995 0.76178 0.0
P128 P 0.81197 0.78788 0.78845 0.0
H129 H 0.80873 0.78316 0.84556 0.0
H130 H 0.76564 0.77902 0.87682 0.0
H131 H 0.70171 0.77716 0.81283 0.0
H132 H 0.74512 0.78241 0.78175 0.0
H133 H 0.86897 0.77237 0.76879 0.0
H134 H 0.88171 0.73656 0.75154 0.0
H135 H 0.78611 0.70996 0.76009 0.0
H136 H 0.7736 0.74575 0.77755 0.0
H137 H 0.7856 0.83116 0.79079 0.0
H138 H 0.82113 0.79121 0.73116 0.0
O139 O 0.84302 0.79843 0.80407 0.0
H140 H 0.77676 0.86111 0.75777 0.0
H141 H 0.81316 0.82134 0.69811 0.0
C142 C 0.78006 0.78336 0.81138 0.0
C143 C 0.78543 0.7819 0.83828 0.0
C144 C 0.76069 0.77932 0.85615 0.0
C145 C 0.73006 0.77783 0.84742 0.0
C146 C 0.7249 0.77871 0.82032 0.0
C147 C 0.74969 0.78153 0.80249 0.0
C148 C 0.82051 0.76155 0.77503 0.0
C149 C 0.85076 0.75881 0.76699 0.0
C150 C 0.85795 0.73841 0.75688 0.0
C151 C 0.83493 0.72036 0.75455 0.0
C152 C 0.80443 0.72341 0.762 0.0
C153 C 0.79725 0.74391 0.77199 0.0
C154 C 0.8036 0.80884 0.76341 0.0
C155 C 0.79128 0.82877 0.77054 0.0
C156 C 0.7865 0.84596 0.75166 0.0
C157 C 0.79431 0.84366 0.72528 0.0
C158 C 0.80646 0.82352 0.71818 0.0
C159 C 0.81116 0.80629 0.73712 0.0
P160 P 0.83408 0.23353 0.27717 0.0
H161 H 0.8918 0.24903 0.30122 0.0
H162 H 0.91261 0.28594 0.31584 0.0
H163 H 0.82798 0.31445 0.29379 0.0
H164 H 0.80703 0.27736 0.28022 0.0
H165 H 0.8081 0.18669 0.27617 0.0
H166 H 0.79548 0.15667 0.31026 0.0
H167 H 0.82518 0.20343 0.36898 0.0
H168 H 0.83672 0.23351 0.33484 0.0
H169 H 0.83022 0.24402 0.22112 0.0
H170 H 0.76733 0.23099 0.287 0.0
O171 O 0.86252 0.22414 0.25977 0.0
H172 H 0.7868 0.2484 0.19211 0.0
H173 H 0.72369 0.23577 0.25821 0.0
C174 C 0.8481 0.26053 0.28929 0.0
C175 C 0.87771 0.26323 0.29971 0.0
C176 C 0.88962 0.28439 0.30792 0.0
C177 C 0.87213 0.3033 0.30574 0.0
C178 C 0.84203 0.30027 0.29599 0.0
C179 C 0.83008 0.27905 0.28797 0.0
C180 C 0.82337 0.21228 0.30294 0.0
C181 C 0.81163 0.19049 0.29642 0.0
C182 C 0.80464 0.17331 0.31593 0.0
C183 C 0.80951 0.17756 0.34238 0.0
C184 C 0.82082 0.19961 0.34885 0.0
C185 C 0.82768 0.21683 0.32928 0.0
C186 C 0.80188 0.23667 0.25604 0.0
C187 C 0.80701 0.24204 0.22931 0.0
C188 C 0.78217 0.24475 0.2128 0.0
C189 C 0.75173 0.24234 0.22282 0.0
C190 C 0.74678 0.23733 0.24979 0.0
C191 C 0.77169 0.23463 0.26628 0.0
P192 P 0.29344 0.29302 0.70215 0.0
H193 H 0.28336 0.28023 0.64875 0.0
H194 H 0.26651 0.24417 0.62981 0.0
H195 H 0.25377 0.21197 0.70745 0.0
H196 H 0.271 0.24805 0.7262 0.0
H197 H 0.2971 0.3425 0.69677 0.0
H198 H 0.25804 0.36973 0.69686 0.0
H199 H 0.18659 0.31404 0.70688 0.0
H200 H 0.22593 0.28692 0.70711 0.0
H201 H 0.34996 0.27651 0.72211 0.0
H202 H 0.26593 0.298 0.75414 0.0
O203 O 0.32333 0.30427 0.68356 0.0
H204 H 0.36907 0.26989 0.76625 0.0
H205 H 0.28465 0.29113 0.79837 0.0
C206 C 0.2791 0.26666 0.68879 0.0
C207 C 0.27686 0.2654 0.66166 0.0
C208 C 0.26697 0.24482 0.65089 0.0
C209 C 0.25899 0.22514 0.66713 0.0
C210 C 0.26026 0.22672 0.69441 0.0
C211 C 0.27008 0.24735 0.70515 0.0
C212 C 0.26432 0.31274 0.70138 0.0
C213 C 0.27301 0.33617 0.69875 0.0
C214 C 0.25065 0.3517 0.69873 0.0
C215 C 0.21919 0.34404 0.70166 0.0
C216 C 0.21063 0.32048 0.7047 0.0
C217 C 0.23305 0.30496 0.70461 0.0
C218 C 0.30688 0.2882 0.73486 0.0
C219 C 0.33566 0.27983 0.73867 0.0
C220 C 0.34641 0.27586 0.76393 0.0
C221 C 0.32843 0.28007 0.78585 0.0
C222 C 0.29927 0.28808 0.7819 0.0
C223 C 0.28852 0.29199 0.7566 0.0
P224 P 0.31437 0.7453 0.3428 0.0
H225 H 0.37356 0.76566 0.32184 0.0
H226 H 0.39441 0.77292 0.27734 0.0
H227 H 0.30756 0.74539 0.24683 0.0
H228 H 0.28674 0.73872 0.29129 0.0
H229 H 0.29486 0.75408 0.39525 0.0
H230 H 0.27903 0.78799 0.41513 0.0
H231 H 0.28726 0.82475 0.33975 0.0
H232 H 0.30249 0.79062 0.31995 0.0
H233 H 0.31628 0.69627 0.35107 0.0
H234 H 0.24742 0.74317 0.33608 0.0
O235 O 0.3434 0.73772 0.36132 0.0
H236 H 0.27655 0.66434 0.35161 0.0
H237 H 0.20751 0.71127 0.33568 0.0
C238 C 0.3289 0.75117 0.30987 0.0
C239 C 0.35906 0.76118 0.30554 0.0
C240 C 0.37096 0.76525 0.2801 0.0
C241 C 0.35277 0.75949 0.25851 0.0
C242 C 0.32215 0.75014 0.26298 0.0
C243 C 0.31028 0.74611 0.28845 0.0
C244 C 0.30028 0.76995 0.35628 0.0
C245 C 0.29303 0.76941 0.38301 0.0
C246 C 0.28412 0.78882 0.39434 0.0
C247 C 0.28223 0.80915 0.37907 0.0
C248 C 0.28833 0.80934 0.35202 0.0
C249 C 0.29729 0.78986 0.3407 0.0
C250 C 0.28465 0.72205 0.34403 0.0
C251 C 0.29253 0.69967 0.34799 0.0
C252 C 0.26979 0.68141 0.34802 0.0
C253 C 0.23876 0.68519 0.3437 0.0
C254 C 0.23105 0.70774 0.33954 0.0
C255 C 0.25384 0.726 0.33969 0.0
C256 C 0.06283 0.54231 0.36179 0.0
C257 C 0.07136 0.54872 0.38656 0.0
C258 C 0.05157 0.5364 0.40391 0.0
C259 C 0.03232 0.5231 0.38886 0.0
N260 N 0.03867 0.52609 0.36291 0.0
Co261 Co 0.01696 0.50968 0.33416 0.0
N262 N 0.988 0.4915 0.35977 0.0
C263 C 0.98607 0.49368 0.38586 0.0
C264 C 0.96495 0.47803 0.3984 0.0
C265 C 0.95307 0.4648 0.37926 0.0
C266 C 0.96766 0.47323 0.35605 0.0
N267 N 0.99575 0.49283 0.30549 0.0
C268 C 0.97491 0.47433 0.3071 0.0
C269 C 0.96707 0.46697 0.28259 0.0
C270 C 0.98426 0.48095 0.26482 0.0
C271 C 0.00147 0.49598 0.27947 0.0
N272 N 0.04557 0.52806 0.30842 0.0
C273 C 0.04519 0.52749 0.28203 0.0
C274 C 0.06677 0.5427 0.26947 0.0
C275 C 0.08179 0.55378 0.28892 0.0
C276 C 0.06856 0.54453 0.31239 0.0
N277 N 0.04622 0.48591 0.33735 0.0
C278 C 0.08743 0.45181 0.34146 0.0
C279 C 0.08098 0.46209 0.3172 0.0
C280 C 0.06054 0.47896 0.3156 0.0
C281 C 0.07288 0.45894 0.36367 0.0
C282 C 0.05245 0.47585 0.36118 0.0
N283 N 0.98774 0.53376 0.3309 0.0
C284 C 0.96257 0.56101 0.3037 0.0
C285 C 0.95387 0.57224 0.32551 0.0
C286 C 0.96056 0.56297 0.35021 0.0
C287 C 0.97726 0.54381 0.35244 0.0
C288 C 0.97916 0.54196 0.30681 0.0
H289 H 0.98205 0.53786 0.37178 0.0
H290 H 0.98529 0.53459 0.2893 0.0
H291 H 0.05667 0.48616 0.29656 0.0
H292 H 0.04185 0.48048 0.37877 0.0
C293 C 0.00746 0.50822 0.39842 0.0
C294 C 0.07806 0.55242 0.33784 0.0
C295 C 0.96346 0.46233 0.33134 0.0
C296 C 0.02453 0.51228 0.26959 0.0
H297 H 0.08984 0.56115 0.39158 0.0
H298 H 0.05109 0.5372 0.42497 0.0
H299 H 0.96008 0.47569 0.41919 0.0
H300 H 0.93652 0.45007 0.38227 0.0
H301 H 0.95124 0.45254 0.27812 0.0
H302 H 0.98495 0.47978 0.24381 0.0
H303 H 0.07098 0.54549 0.24863 0.0
H304 H 0.10019 0.56731 0.28607 0.0
H305 H 0.09202 0.45741 0.29945 0.0
H306 H 0.07689 0.45132 0.38288 0.0
H307 H 0.95704 0.56709 0.28414 0.0
H308 H 0.95405 0.57095 0.36775 0.0
C309 C 0.04387 0.55234 0.72834 0.0
C310 C 0.05816 0.56001 0.75071 0.0
C311 C 0.04392 0.54765 0.77139 0.0
C312 C 0.02196 0.53313 0.76055 0.0
N313 N 0.02138 0.53534 0.73412 0.0
Co314 Co 0.9933 0.51745 0.71041 0.0
N315 N 0.97239 0.49937 0.74092 0.0
C316 C 0.97752 0.50205 0.76661 0.0
C317 C 0.95974 0.48688 0.78291 0.0
C318 C 0.94274 0.47334 0.76666 0.0
C319 C 0.9514 0.481 0.7413 0.0
N320 N 0.96531 0.49934 0.68679 0.0
C321 C 0.94588 0.48035 0.69239 0.0
C322 C 0.93262 0.47191 0.66997 0.0
C323 C 0.94421 0.48594 0.64949 0.0
C324 C 0.96397 0.502 0.66045 0.0
N325 N 0.01422 0.53558 0.67988 0.0
C326 C 0.0075 0.53385 0.6543 0.0
C327 C 0.02532 0.54887 0.63787 0.0
C328 C 0.0445 0.56105 0.65387 0.0
C329 C 0.03728 0.55266 0.67926 0.0
N330 N 0.02361 0.4945 0.70828 0.0
C331 C 0.06574 0.46117 0.70541 0.0
C332 C 0.05277 0.47028 0.68282 0.0
C333 C 0.03188 0.48675 0.68469 0.0
C334 C 0.05734 0.46912 0.72944 0.0
C335 C 0.03649 0.48568 0.73041 0.0
N336 N 0.96291 0.54059 0.71256 0.0
C337 C 0.93059 0.56727 0.6916 0.0
C338 C 0.92402 0.57612 0.71556 0.0
C339 C 0.93642 0.56643 0.73803 0.0
C340 C 0.95561 0.54892 0.7361 0.0
C341 C 0.94969 0.5495 0.69059 0.0
H342 H 0.96473 0.54281 0.75394 0.0
H343 H 0.95373 0.54355 0.67176 0.0
H344 H 0.02252 0.49286 0.66682 0.0
H345 H 0.03106 0.49106 0.7493 0.0
C346 C 0.00106 0.51764 0.77471 0.0
C347 C 0.05225 0.56199 0.70214 0.0
C348 C 0.94102 0.46909 0.71836 0.0
C349 C 0.98405 0.51811 0.64636 0.0
H350 H 0.07683 0.5733 0.75197 0.0
H351 H 0.04882 0.54921 0.79191 0.0
H352 H 0.96001 0.48526 0.80405 0.0
H353 H 0.92666 0.45891 0.77273 0.0
H354 H 0.91703 0.45675 0.66834 0.0
H355 H 0.93991 0.484 0.62893 0.0
H356 H 0.02427 0.55088 0.61678 0.0
H357 H 0.0616 0.57476 0.64757 0.0
H358 H 0.05831 0.46448 0.66376 0.0
H359 H 0.06709 0.46281 0.74746 0.0
H360 H 0.92113 0.57405 0.67368 0.0
H361 H 0.93226 0.57285 0.75705 0.0
C362 C 0.26756 0.98692 0.55949 0.0
C363 C 0.29458 0.98058 0.57078 0.0
C364 C 0.31827 0.99411 0.55887 0.0
C365 C 0.30451 0.0078 0.54098 0.0
N366 N 0.27334 0.00413 0.54101 0.0
Co367 Co 0.24434 0.01909 0.51684 0.0
N368 N 0.27942 0.03803 0.49834 0.0
C369 C 0.30989 0.0378 0.50318 0.0
C370 C 0.3283 0.05343 0.48793 0.0
C371 C 0.30837 0.06473 0.47287 0.0
C372 C 0.27887 0.05531 0.47993 0.0
N373 N 0.21545 0.03382 0.49236 0.0
C374 C 0.22115 0.0515 0.47445 0.0
C375 C 0.19435 0.05727 0.46242 0.0
C376 C 0.17079 0.04292 0.47337 0.0
C377 C 0.18447 0.0293 0.49143 0.0
N378 N 0.20922 0.00048 0.53567 0.0
C379 C 0.17877 0.00105 0.53101 0.0
C380 C 0.1602 0.98596 0.54682 0.0
C381 C 0.17998 0.97485 0.56227 0.0
C382 C 0.20957 0.98379 0.55485 0.0
N383 N 0.24093 0.04372 0.54132 0.0
C384 C 0.2372 0.08019 0.57415 0.0
C385 C 0.21096 0.07052 0.56209 0.0
C386 C 0.21328 0.05232 0.54601 0.0
C387 C 0.2652 0.0711 0.56977 0.0
C388 C 0.26654 0.0531 0.55341 0.0
N389 N 0.24778 0.99433 0.49245 0.0
C390 C 0.22409 0.96278 0.46926 0.0
C391 C 0.25293 0.95524 0.46407 0.0
C392 C 0.27912 0.96837 0.47188 0.0
C393 C 0.27606 0.98771 0.48575 0.0
C394 C 0.22207 0.98228 0.48333 0.0
H395 H 0.29696 0.99666 0.49136 0.0
H396 H 0.19943 0.98688 0.4872 0.0
H397 H 0.19248 0.04563 0.53741 0.0
H398 H 0.2887 0.04731 0.55055 0.0
C399 C 0.32033 0.02355 0.52314 0.0
C400 C 0.23724 0.97509 0.56569 0.0
C401 C 0.25107 0.06439 0.46989 0.0
C402 C 0.16857 0.01434 0.51005 0.0
H403 H 0.2971 0.96715 0.58557 0.0
H404 H 0.34268 0.99358 0.56231 0.0
H405 H 0.35315 0.05672 0.48834 0.0
H406 H 0.31471 0.07879 0.45884 0.0
H407 H 0.19185 0.07099 0.44797 0.0
H408 H 0.14641 0.0432 0.46961 0.0
H409 H 0.13532 0.98284 0.5465 0.0
H410 H 0.17347 0.96128 0.57687 0.0
H411 H 0.18869 0.07688 0.56511 0.0
H412 H 0.28627 0.07823 0.57839 0.0
H413 H 0.20312 0.95323 0.46342 0.0
H414 H 0.30203 0.96356 0.46764 0.0
C415 C 0.45208 0.79247 0.06221 0.0
C416 C 0.44363 0.81327 0.06983 0.0
C417 C 0.45868 0.82957 0.05326 0.0
C418 C 0.47551 0.81785 0.03667 0.0
N419 N 0.47161 0.79499 0.04123 0.0
Co420 Co 0.49404 0.7716 0.02357 0.0
N421 N 0.51944 0.79572 0.00168 0.0
C422 C 0.51677 0.81841 0.00083 0.0
C423 C 0.53733 0.83075 0.98394 0.0
C424 C 0.55404 0.81503 0.97322 0.0
C425 C 0.54254 0.79387 0.98414 0.0
N426 N 0.51731 0.74821 0.00682 0.0
C427 C 0.54105 0.75084 0.98922 0.0
C428 C 0.5506 0.72998 0.98281 0.0
C429 C 0.53252 0.71363 0.99708 0.0
C430 C 0.51297 0.72533 0.01126 0.0
N431 N 0.46804 0.7475 0.04489 0.0
C432 C 0.4675 0.7247 0.04323 0.0
C433 C 0.44748 0.71253 0.06076 0.0
C434 C 0.43484 0.72852 0.07473 0.0
C435 C 0.44808 0.74955 0.06492 0.0
N436 N 0.46296 0.76993 0.99531 0.0
C437 C 0.4235 0.76833 0.9519 0.0
C438 C 0.43538 0.74869 0.96239 0.0
C439 C 0.45461 0.74983 0.98397 0.0
C440 C 0.43072 0.78861 0.96424 0.0
C441 C 0.45027 0.78903 0.98565 0.0
N442 N 0.52503 0.77328 0.0515 0.0
C443 C 0.55483 0.75477 0.08445 0.0
C444 C 0.56984 0.77567 0.09062 0.0
C445 C 0.56174 0.79536 0.07709 0.0
C446 C 0.53938 0.79381 0.05783 0.0
C447 C 0.53272 0.75396 0.06491 0.0
H448 H 0.53407 0.80942 0.04828 0.0
H449 H 0.52224 0.73751 0.06085 0.0
H450 H 0.46281 0.73422 0.9907 0.0
H451 H 0.45502 0.80512 0.99373 0.0
C452 C 0.49639 0.82779 0.01757 0.0
C453 C 0.44255 0.77087 0.07636 0.0
C454 C 0.55464 0.77259 0.97748 0.0
C455 C 0.48924 0.71529 0.02784 0.0
H456 H 0.42883 0.81642 0.08611 0.0
H457 H 0.45824 0.84784 0.05382 0.0
H458 H 0.54027 0.84904 0.98029 0.0
H459 H 0.57281 0.81882 0.95917 0.0
H460 H 0.56852 0.72683 0.96899 0.0
H461 H 0.53322 0.69537 0.99683 0.0
H462 H 0.44374 0.69422 0.06393 0.0
H463 H 0.41859 0.72511 0.09094 0.0
H464 H 0.43073 0.7325 0.95358 0.0
H465 H 0.4215 0.80424 0.95736 0.0
H466 H 0.56053 0.73903 0.09425 0.0
H467 H 0.5724 0.81198 0.08148 0.0
C468 C 0.81161 0.98059 0.57747 0.0
C469 C 0.83987 0.97439 0.58633 0.0
C470 C 0.86206 0.9875 0.57202 0.0
C471 C 0.84622 0.00084 0.55525 0.0
N472 N 0.81517 0.99709 0.55796 0.0
Co473 Co 0.78339 0.01251 0.5372 0.0
N474 N 0.8162 0.03107 0.51537 0.0
C475 C 0.84713 0.03051 0.51725 0.0
C476 C 0.86383 0.04534 0.49986 0.0
C477 C 0.84236 0.05604 0.48595 0.0
C478 C 0.81363 0.04699 0.49565 0.0
N479 N 0.75166 0.02814 0.51665 0.0
C480 C 0.75522 0.04447 0.49692 0.0
C481 C 0.72699 0.05067 0.48806 0.0
C482 C 0.7048 0.03799 0.50285 0.0
C483 C 0.72064 0.02477 0.51977 0.0
N484 N 0.75061 0.99372 0.5588 0.0
C485 C 0.7197 0.9942 0.55686 0.0
C486 C 0.70301 0.97921 0.57411 0.0
C487 C 0.72451 0.96835 0.58784 0.0
C488 C 0.75319 0.97736 0.57804 0.0
N489 N 0.78432 0.03667 0.56283 0.0
C490 C 0.78617 0.06961 0.60085 0.0
C491 C 0.75806 0.05941 0.59245 0.0
C492 C 0.75767 0.04317 0.57353 0.0
C493 C 0.81324 0.06341 0.58939 0.0
C494 C 0.8118 0.04707 0.57068 0.0
N495 N 0.78248 0.98827 0.51175 0.0
C496 C 0.7541 0.96052 0.486 0.0
C497 C 0.78145 0.95215 0.47783 0.0
C498 C 0.8093 0.96253 0.48646 0.0
C499 C 0.80929 0.9804 0.50318 0.0
C500 C 0.75514 0.97845 0.50282 0.0
H501 H 0.83129 0.98749 0.509 0.0
H502 H 0.73352 0.98392 0.50853 0.0
H503 H 0.73554 0.03598 0.56808 0.0
H504 H 0.83331 0.0431 0.56298 0.0
C505 C 0.85985 0.01635 0.53607 0.0
C506 C 0.78213 0.96986 0.58775 0.0
C507 C 0.78469 0.05442 0.48577 0.0
C508 C 0.70702 0.00888 0.53856 0.0
H509 H 0.84405 0.96151 0.60136 0.0
H510 H 0.8868 0.98711 0.5734 0.0
H511 H 0.88867 0.04821 0.49774 0.0
H512 H 0.84736 0.06918 0.47057 0.0
H513 H 0.72284 0.06304 0.47244 0.0
H514 H 0.68005 0.03831 0.50139 0.0
H515 H 0.67818 0.97646 0.57638 0.0
H516 H 0.71963 0.95525 0.6033 0.0
H517 H 0.7364 0.06351 0.6008 0.0
H518 H 0.83561 0.07118 0.59472 0.0
H519 H 0.7319 0.95301 0.4799 0.0
H520 H 0.83116 0.95702 0.48022 0.0
C521 C 0.46517 0.28605 0.06765 0.0
C522 C 0.45963 0.30791 0.0739 0.0
C523 C 0.47737 0.3225 0.05712 0.0
C524 C 0.49254 0.30877 0.0416 0.0
N525 N 0.48518 0.28626 0.04716 0.0
Co526 Co 0.50235 0.26026 0.03002 0.0
N527 N 0.53213 0.2816 0.00823 0.0
C528 C 0.53529 0.30462 0.0082 0.0
C529 C 0.55841 0.31461 0.99193 0.0
C530 C 0.57089 0.29696 0.98091 0.0
C531 C 0.5544 0.2771 0.99099 0.0
N532 N 0.51932 0.23424 0.01273 0.0
C533 C 0.54233 0.23425 0.99463 0.0
C534 C 0.54621 0.21238 0.98727 0.0
C535 C 0.52519 0.19803 0.00142 0.0
C536 C 0.50959 0.21187 0.01644 0.0
N537 N 0.47298 0.23895 0.05224 0.0
C538 C 0.4691 0.21599 0.05183 0.0
C539 C 0.4486 0.20593 0.07041 0.0
C540 C 0.43919 0.22347 0.08385 0.0
C541 C 0.45448 0.2433 0.07252 0.0
N542 N 0.47106 0.26192 0.00207 0.0
C543 C 0.43141 0.26365 0.95894 0.0
C544 C 0.43439 0.2432 0.97325 0.0
C545 C 0.454 0.24275 0.99461 0.0
C546 C 0.44756 0.28337 0.9673 0.0
C547 C 0.46696 0.28214 0.98872 0.0
N548 N 0.53362 0.25861 0.05763 0.0
C549 C 0.56331 0.23649 0.08738 0.0
C550 C 0.57947 0.25625 0.09575 0.0
C551 C 0.57185 0.27722 0.085 0.0
C552 C 0.54904 0.278 0.06615 0.0
C553 C 0.54063 0.23804 0.06848 0.0
H554 H 0.54433 0.29449 0.05868 0.0
H555 H 0.52923 0.22239 0.06277 0.0
H556 H 0.45522 0.2266 0.00446 0.0
H557 H 0.47881 0.29776 0.99367 0.0
C558 C 0.51623 0.31639 0.02374 0.0
C559 C 0.45213 0.2657 0.08259 0.0
C560 C 0.56097 0.25443 0.98378 0.0
C561 C 0.48652 0.20428 0.03488 0.0
H562 H 0.44498 0.31276 0.08949 0.0
H563 H 0.4799 0.34091 0.05698 0.0
H564 H 0.56551 0.33259 0.98862 0.0
H565 H 0.59009 0.29857 0.96712 0.0
H566 H 0.56257 0.20729 0.97313 0.0
H567 H 0.52183 0.17967 0.00097 0.0
H568 H 0.44208 0.18794 0.07431 0.0
H569 H 0.42351 0.22177 0.10052 0.0
H570 H 0.42179 0.2275 0.96793 0.0
H571 H 0.44616 0.29967 0.95684 0.0
H572 H 0.56853 0.21981 0.09492 0.0
H573 H 0.58329 0.29304 0.09118 0.0
H574 H 0.19696 0.34039 0.31106 0.0
H575 H 0.13182 0.44621 0.37824 0.0
H576 H 0.23741 0.37108 0.37866 0.0
H577 H 0.09325 0.41682 0.30919 0.0
H578 H 0.16904 0.41759 0.38009 0.0
H579 H 0.15755 0.36733 0.31107 0.0
C580 C 0.19762 0.35283 0.32587 0.0
C581 C 0.22062 0.35349 0.34484 0.0
C582 C 0.15239 0.41736 0.36456 0.0
C583 C 0.17535 0.3843 0.34512 0.0
C584 C 0.13099 0.43362 0.36359 0.0
C585 C 0.10944 0.434 0.34346 0.0
C586 C 0.15224 0.40131 0.34529 0.0
C587 C 0.10975 0.41742 0.32482 0.0
C588 C 0.175 0.36814 0.32595 0.0
C589 C 0.21996 0.36975 0.36383 0.0
N590 N 0.13082 0.4018 0.32616 0.0
N591 N 0.19777 0.38454 0.36343 0.0
H592 H 0.14798 0.69673 0.70514 0.0
H593 H 0.11164 0.56345 0.68418 0.0
H594 H 0.21608 0.6537 0.67921 0.0
H595 H 0.04467 0.60572 0.71314 0.0
H596 H 0.14984 0.59674 0.68038 0.0
H597 H 0.10933 0.66398 0.70668 0.0
C598 C 0.15484 0.68039 0.69983 0.0
C599 C 0.18538 0.67798 0.69209 0.0
C600 C 0.12679 0.5988 0.6875 0.0
C601 C 0.14113 0.64042 0.69359 0.0
C602 C 0.1051 0.57985 0.68961 0.0
C603 C 0.07524 0.58208 0.69894 0.0
C604 C 0.11843 0.62005 0.69485 0.0
C605 C 0.0676 0.60351 0.70585 0.0
C606 C 0.13271 0.66171 0.70059 0.0
C607 C 0.19277 0.65645 0.68501 0.0
N608 N 0.0891 0.62171 0.70371 0.0
N609 N 0.17084 0.63851 0.686 0.0
H610 H 0.83777 0.68432 0.33431 0.0
H611 H 0.9695 0.60748 0.28989 0.0
H612 H 0.90652 0.70476 0.27412 0.0
H613 H 0.90572 0.58685 0.35376 0.0
H614 H 0.94576 0.64307 0.28393 0.0
H615 H 0.86173 0.64861 0.34221 0.0
C616 C 0.85795 0.68137 0.32284 0.0
C617 C 0.86998 0.69751 0.30336 0.0
C618 C 0.93686 0.63081 0.29927 0.0
C619 C 0.89732 0.65668 0.31217 0.0
C620 C 0.95029 0.61037 0.30257 0.0
C621 C 0.93939 0.59402 0.32219 0.0
C622 C 0.91221 0.6351 0.31569 0.0
C623 C 0.91492 0.59901 0.33844 0.0
C624 C 0.87152 0.66094 0.32729 0.0
C625 C 0.89602 0.69266 0.28897 0.0
N626 N 0.90204 0.61908 0.33476 0.0
N627 N 0.90872 0.67273 0.29363 0.0
H628 H 0.90016 0.33523 0.78952 0.0
H629 H 0.88267 0.45033 0.70803 0.0
H630 H 0.83615 0.33715 0.72613 0.0
H631 H 0.97038 0.43342 0.73776 0.0
H632 H 0.86157 0.41066 0.71783 0.0
H633 H 0.92279 0.37339 0.77489 0.0
C634 C 0.89093 0.34378 0.77251 0.0
C635 C 0.86635 0.33323 0.75895 0.0
C636 C 0.88553 0.41562 0.72185 0.0
C637 C 0.8917 0.37675 0.74236 0.0
C638 C 0.89755 0.43812 0.71618 0.0
C639 C 0.92834 0.4449 0.7218 0.0
C640 C 0.90427 0.40011 0.7339 0.0
C641 C 0.94655 0.42871 0.73304 0.0
C642 C 0.90389 0.36542 0.76411 0.0
C643 C 0.85518 0.34484 0.73697 0.0
N644 N 0.93415 0.4071 0.73901 0.0
N645 N 0.86773 0.36618 0.72947 0.0
H646 H 0.26354 0.18363 0.36244 0.0
H647 H 0.26506 0.10373 0.4938 0.0
H648 H 0.30346 0.20562 0.43452 0.0
H649 H 0.2431 0.07787 0.41862 0.0
H650 H 0.27306 0.14233 0.47335 0.0
H651 H 0.24969 0.14584 0.38364 0.0
C652 C 0.26916 0.18055 0.38278 0.0
C653 C 0.28483 0.19774 0.39671 0.0
C654 C 0.26629 0.12828 0.4613 0.0
C655 C 0.26914 0.15461 0.42102 0.0
C656 C 0.26164 0.10635 0.47298 0.0
C657 C 0.25327 0.08785 0.45778 0.0
C658 C 0.26255 0.13168 0.43421 0.0
C659 C 0.24928 0.09187 0.43091 0.0
C660 C 0.26141 0.15896 0.39481 0.0
C661 C 0.29178 0.19276 0.42295 0.0
N662 N 0.254 0.1134 0.41991 0.0
N663 N 0.2839 0.17168 0.43424 0.0
H664 H 0.34411 0.79901 0.80108 0.0
H665 H 0.38102 0.73433 0.93667 0.0
H666 H 0.32498 0.72651 0.81618 0.0
H667 H 0.42349 0.80104 0.91168 0.0
H668 H 0.35377 0.7328 0.89533 0.0
H669 H 0.36635 0.80169 0.84457 0.0
C670 C 0.34433 0.7837 0.81367 0.0
C671 C 0.33281 0.76249 0.80501 0.0
C672 C 0.36898 0.7478 0.899 0.0
C673 C 0.35827 0.76542 0.85468 0.0
C674 C 0.38468 0.74867 0.92256 0.0
C675 C 0.40486 0.76779 0.92772 0.0
C676 C 0.37321 0.76625 0.88049 0.0
C677 C 0.40797 0.78605 0.90882 0.0
C678 C 0.35719 0.78521 0.8384 0.0
C679 C 0.33395 0.74315 0.822 0.0
N680 N 0.3924 0.7848 0.88606 0.0
N681 N 0.34645 0.74507 0.84605 0.0
H682 H 0.82954 0.83484 0.39757 0.0
H683 H 0.74496 0.94377 0.4354 0.0
H684 H 0.75833 0.86262 0.35123 0.0
H685 H 0.81724 0.9163 0.48074 0.0
H686 H 0.74665 0.91252 0.40611 0.0
H687 H 0.82269 0.86298 0.42989 0.0
C688 C 0.81239 0.84682 0.39423 0.0
C689 C 0.79464 0.84646 0.37156 0.0
C690 C 0.76205 0.91328 0.42253 0.0
C691 C 0.78658 0.87873 0.40855 0.0
C692 C 0.76099 0.93106 0.43934 0.0
C693 C 0.78116 0.93278 0.46046 0.0
C694 C 0.7834 0.89706 0.42687 0.0
C695 C 0.80166 0.91592 0.46443 0.0
C696 C 0.80841 0.86285 0.41274 0.0
C697 C 0.77237 0.86215 0.3685 0.0
N698 N 0.80233 0.89884 0.44776 0.0
N699 N 0.76914 0.87775 0.38668 0.0
H700 H 0.68335 0.26311 0.84838 0.0
H701 H 0.61521 0.23624 0.9937 0.0
H702 H 0.72635 0.22159 0.90676 0.0
H703 H 0.5643 0.26666 0.93161 0.0
H704 H 0.65738 0.23214 0.96255 0.0
H705 H 0.64038 0.26581 0.87883 0.0
C706 C 0.68369 0.25439 0.86749 0.0
C707 C 0.70863 0.24212 0.87496 0.0
C708 C 0.637 0.23969 0.95568 0.0
C709 C 0.65963 0.24549 0.91013 0.0
C710 C 0.61306 0.24202 0.97343 0.0
C711 C 0.58655 0.25184 0.96505 0.0
C712 C 0.63438 0.24736 0.92941 0.0
C713 C 0.58458 0.2591 0.93869 0.0
C714 C 0.65919 0.25606 0.88494 0.0
C715 C 0.70794 0.23155 0.90023 0.0
N716 N 0.60827 0.25679 0.92178 0.0
N717 N 0.68392 0.23353 0.91689 0.0
H718 H 0.26631 0.86678 0.67952 0.0
H719 H 0.22404 0.93331 0.54676 0.0
H720 H 0.23429 0.83305 0.61098 0.0
H721 H 0.24558 0.9665 0.61793 0.0
H722 H 0.22502 0.89621 0.57053 0.0
H723 H 0.25674 0.90334 0.65798 0.0
C724 C 0.25718 0.86708 0.65995 0.0
C725 C 0.25129 0.84685 0.64695 0.0
C726 C 0.22928 0.91157 0.58106 0.0
C727 C 0.24021 0.88864 0.62216 0.0
C728 C 0.22865 0.93265 0.56751 0.0
C729 C 0.23499 0.95274 0.58051 0.0
C730 C 0.23648 0.91067 0.60775 0.0
C731 C 0.24081 0.95124 0.60733 0.0
C732 C 0.25156 0.88794 0.64771 0.0
C733 C 0.239 0.8482 0.62178 0.0
N734 N 0.24171 0.93053 0.62006 0.0
N735 N 0.23413 0.86875 0.61012 0.0
H736 H 0.73928 0.80538 0.1734 0.0
H737 H 0.56993 0.75248 0.13853 0.0
H738 H 0.68008 0.76333 0.22835 0.0
H739 H 0.6252 0.80169 0.08834 0.0
H740 H 0.61067 0.75477 0.17105 0.0
H741 H 0.69821 0.80309 0.14153 0.0
C742 C 0.71755 0.79581 0.17888 0.0
C743 C 0.71314 0.78463 0.20372 0.0
C744 C 0.61384 0.7651 0.15294 0.0
C745 C 0.66603 0.78161 0.16699 0.0
C746 C 0.59068 0.7637 0.13431 0.0
C747 C 0.59415 0.77694 0.11069 0.0
C748 C 0.64077 0.77973 0.14783 0.0
C749 C 0.62136 0.7914 0.10641 0.0
C750 C 0.69413 0.79439 0.16057 0.0
C751 C 0.68467 0.77203 0.20939 0.0
N752 N 0.64362 0.79235 0.12475 0.0
N753 N 0.66221 0.77086 0.19117 0.0
H754 H 0.75192 0.17599 0.7059 0.0
H755 H 0.82772 0.07394 0.64036 0.0
H756 H 0.8416 0.15475 0.72526 0.0
H757 H 0.74754 0.10314 0.60916 0.0
H758 H 0.83073 0.10185 0.67369 0.0
H759 H 0.74767 0.14805 0.67218 0.0
C760 C 0.77076 0.16555 0.70304 0.0
C761 C 0.79711 0.1677 0.71861 0.0
C762 C 0.81248 0.10221 0.65954 0.0
C763 C 0.79217 0.1355 0.68029 0.0
C764 C 0.81084 0.08632 0.64036 0.0
C765 C 0.78751 0.08627 0.62169 0.0
C766 C 0.79054 0.11819 0.66029 0.0
C767 C 0.76579 0.1024 0.62324 0.0
C768 C 0.76824 0.14953 0.68387 0.0
C769 C 0.82058 0.15345 0.71417 0.0
N770 N 0.76786 0.11774 0.64218 0.0
N771 N 0.81752 0.13799 0.69551 0.0
H772 H 0.42508 0.28764 0.24643 0.0
H773 H 0.39121 0.26042 0.09728 0.0
H774 H 0.33339 0.27327 0.21681 0.0
H775 H 0.48227 0.27625 0.127 0.0
H776 H 0.36933 0.26463 0.14102 0.0
H777 H 0.44635 0.28336 0.20286 0.0
C778 C 0.40938 0.28372 0.23073 0.0
C779 C 0.37736 0.28088 0.23532 0.0
C780 C 0.3941 0.26715 0.13803 0.0
C781 C 0.40165 0.27567 0.18532 0.0
C782 C 0.40649 0.2647 0.11316 0.0
C783 C 0.43845 0.26785 0.10888 0.0
C784 C 0.41391 0.27285 0.15863 0.0
C785 C 0.45747 0.2736 0.12978 0.0
C786 C 0.42157 0.28114 0.20586 0.0
C787 C 0.35822 0.27538 0.21427 0.0
N788 N 0.44492 0.2759 0.1538 0.0
N789 N 0.37065 0.27298 0.1902 0.0
H790 H 0.81474 0.67759 0.7745 0.0
H791 H 0.92819 0.61518 0.6839 0.0
H792 H 0.87392 0.71258 0.71412 0.0
H793 H 0.87874 0.58259 0.75132 0.0
H794 H 0.90229 0.64962 0.6902 0.0
H795 H 0.83181 0.64142 0.76178 0.0
C796 C 0.83101 0.67764 0.75832 0.0
C797 C 0.8431 0.69818 0.74549 0.0
C798 C 0.8969 0.63486 0.70348 0.0
C799 C 0.86304 0.65681 0.73102 0.0
C800 C 0.9115 0.61514 0.69977 0.0
C801 C 0.90581 0.59606 0.71726 0.0
C802 C 0.87638 0.63547 0.72477 0.0
C803 C 0.88419 0.59705 0.73764 0.0
C804 C 0.84091 0.65699 0.75118 0.0
C805 C 0.86439 0.6972 0.72484 0.0
N806 N 0.87041 0.61646 0.74092 0.0
N807 N 0.8738 0.67688 0.71834 0.0
H808 H 0.84375 0.33683 0.3295 0.0
H809 H 0.99426 0.42587 0.32102 0.0
H810 H 0.93148 0.32232 0.29714 0.0
H811 H 0.90354 0.44467 0.33961 0.0
H812 H 0.97259 0.38647 0.31702 0.0
H813 H 0.86608 0.3752 0.33791 0.0
C814 C 0.86768 0.34166 0.32415 0.0
C815 C 0.88569 0.32625 0.31249 0.0
C816 C 0.95739 0.39913 0.32215 0.0
C817 C 0.91147 0.3701 0.32238 0.0
C818 C 0.96977 0.42152 0.32448 0.0
C819 C 0.95057 0.43826 0.33081 0.0
C820 C 0.92554 0.3935 0.32613 0.0
C821 C 0.919 0.43204 0.33495 0.0
C822 C 0.88044 0.36355 0.32907 0.0
C823 C 0.91675 0.33341 0.30647 0.0
N824 N 0.9074 0.41011 0.33251 0.0
N825 N 0.92859 0.35479 0.31141 0.0
H826 H 0.16823 0.34336 0.73385 0.0
H827 H 0.11302 0.45935 0.66992 0.0
H828 H 0.21623 0.38252 0.66978 0.0
H829 H 0.06891 0.42287 0.73758 0.0
H830 H 0.14956 0.43037 0.66822 0.0
H831 H 0.13009 0.37129 0.73416 0.0
C832 C 0.17063 0.35775 0.71972 0.0
C833 C 0.1955 0.36062 0.70179 0.0
C834 C 0.13188 0.42869 0.68344 0.0
C835 C 0.15207 0.39279 0.70218 0.0
C836 C 0.1109 0.44516 0.68433 0.0
C837 C 0.08789 0.44356 0.70396 0.0
C838 C 0.12982 0.41039 0.70226 0.0
C839 C 0.08652 0.42495 0.72232 0.0
C840 C 0.14895 0.37377 0.72002 0.0
C841 C 0.19767 0.37977 0.68417 0.0
N842 N 0.10717 0.4091 0.72101 0.0
N843 N 0.17624 0.39511 0.68481 0.0
H844 H 0.17925 0.68226 0.36308 0.0
H845 H 0.13958 0.55276 0.32691 0.0
H846 H 0.24321 0.64353 0.32328 0.0
H847 H 0.07099 0.59549 0.35198 0.0
H848 H 0.17903 0.58507 0.32855 0.0
H849 H 0.14011 0.64999 0.36194 0.0
C850 C 0.18506 0.66705 0.35397 0.0
C851 C 0.21466 0.66568 0.34326 0.0
C852 C 0.15537 0.58741 0.3337 0.0
C853 C 0.17001 0.62849 0.34227 0.0
C854 C 0.13299 0.56902 0.33279 0.0
C855 C 0.10224 0.57168 0.33927 0.0
C856 C 0.14687 0.60853 0.34134 0.0
C857 C 0.09459 0.59292 0.34687 0.0
C858 C 0.16272 0.64857 0.35345 0.0
C859 C 0.22092 0.6453 0.33215 0.0
N860 N 0.11679 0.61058 0.34773 0.0
N861 N 0.19882 0.62753 0.33198 0.0
H862 H 0.80681 0.88948 0.73045 0.0
H863 H 0.76711 0.92461 0.58233 0.0
H864 H 0.77412 0.84086 0.67482 0.0
H865 H 0.79622 0.97287 0.63915 0.0
H866 H 0.76838 0.89358 0.61608 0.0
H867 H 0.80183 0.92023 0.69753 0.0
C868 C 0.7983 0.88526 0.71138 0.0
C869 C 0.79081 0.86251 0.70544 0.0
C870 C 0.7744 0.91094 0.62123 0.0
C871 C 0.78551 0.89773 0.66742 0.0
C872 C 0.77363 0.92855 0.60202 0.0
C873 C 0.78165 0.9511 0.60819 0.0
C874 C 0.78333 0.91602 0.6467 0.0
C875 C 0.78996 0.95559 0.63382 0.0
C876 C 0.79565 0.90285 0.69251 0.0
C877 C 0.78051 0.85811 0.68019 0.0
N878 N 0.7907 0.93817 0.65216 0.0
N879 N 0.77819 0.87555 0.6621 0.0
H880 H 0.69575 0.21684 0.2235 0.0
H881 H 0.63501 0.28212 0.09602 0.0
H882 H 0.74748 0.27363 0.18176 0.0
H883 H 0.58106 0.22749 0.13962 0.0
H884 H 0.6761 0.27956 0.12767 0.0
H885 H 0.65313 0.2208 0.1935 0.0
C886 C 0.69807 0.23026 0.20816 0.0
C887 C 0.72532 0.24489 0.20513 0.0
C888 C 0.65526 0.26815 0.13037 0.0
C889 C 0.67671 0.24934 0.17048 0.0
C890 C 0.63167 0.2697 0.11237 0.0
C891 C 0.60446 0.25501 0.11514 0.0
C892 C 0.65174 0.25177 0.15135 0.0
C893 C 0.60176 0.23897 0.13649 0.0
C894 C 0.67379 0.23243 0.19093 0.0
C895 C 0.72714 0.26174 0.18462 0.0
N896 N 0.6251 0.23777 0.15375 0.0
N897 N 0.70322 0.26347 0.16808 0.0
H898 H 0.2226 0.21607 0.62483 0.0
H899 H 0.26496 0.08735 0.62098 0.0
H900 H 0.27741 0.18353 0.68288 0.0
H901 H 0.20676 0.11836 0.56446 0.0
H902 H 0.26667 0.1217 0.64558 0.0
H903 H 0.21353 0.17981 0.60401 0.0
C904 C 0.23263 0.20128 0.63325 0.0
C905 C 0.25096 0.20289 0.65556 0.0
C906 C 0.25332 0.12096 0.62791 0.0
C907 C 0.24059 0.16131 0.63187 0.0
C908 C 0.25244 0.10138 0.61381 0.0
C909 C 0.23591 0.10007 0.59052 0.0
C910 C 0.23774 0.1395 0.6186 0.0
C911 C 0.21967 0.11861 0.58238 0.0
C912 C 0.22732 0.18056 0.62143 0.0
C913 C 0.26294 0.18308 0.66586 0.0
N914 N 0.22123 0.13765 0.59627 0.0
N915 N 0.25775 0.16319 0.65383 0.0
H916 H 0.32514 0.77464 0.21369 0.0
H917 H 0.47125 0.75987 0.1213 0.0
H918 H 0.4105 0.75121 0.24173 0.0
H919 H 0.38505 0.78036 0.09216 0.0
H920 H 0.44985 0.75799 0.16593 0.0
H921 H 0.34698 0.77817 0.16929 0.0
C922 C 0.34845 0.77019 0.21053 0.0
C923 C 0.36598 0.76258 0.23152 0.0
C924 C 0.43558 0.76299 0.14985 0.0
C925 C 0.39122 0.76677 0.18074 0.0
C926 C 0.44781 0.76406 0.12448 0.0
C927 C 0.42983 0.77042 0.10335 0.0
C928 C 0.40509 0.76824 0.15403 0.0
C929 C 0.39957 0.77557 0.10816 0.0
C930 C 0.36095 0.77232 0.18518 0.0
C931 C 0.39624 0.75742 0.22626 0.0
N932 N 0.38809 0.77437 0.13306 0.0
N933 N 0.40783 0.75955 0.20142 0.0
H934 H 0.82175 0.13298 0.34015 0.0
H935 H 0.77149 0.09846 0.48882 0.0
H936 H 0.78451 0.17951 0.39174 0.0
H937 H 0.79983 0.05088 0.43451 0.0
H938 H 0.7755 0.12847 0.45353 0.0
H939 H 0.81326 0.10269 0.37435 0.0
C940 C 0.81148 0.13681 0.35858 0.0
C941 C 0.80379 0.15889 0.363 0.0
C942 C 0.78069 0.11145 0.44926 0.0
C943 C 0.79447 0.12422 0.40255 0.0
C944 C 0.77836 0.09441 0.46934 0.0
C945 C 0.7854 0.07238 0.46434 0.0
C946 C 0.7903 0.10635 0.4241 0.0
C947 C 0.79428 0.06778 0.43896 0.0
C948 C 0.80681 0.11949 0.37819 0.0
C949 C 0.79117 0.16286 0.38754 0.0
N950 N 0.79663 0.08466 0.41977 0.0
N951 N 0.78698 0.14571 0.40639 0.0
H952 H 0.32411 0.30714 0.82736 0.0
H953 H 0.4272 0.2329 0.92067 0.0
H954 H 0.36005 0.24497 0.80545 0.0
H955 H 0.3935 0.29602 0.94204 0.0
H956 H 0.39934 0.23552 0.87976 0.0
H957 H 0.34603 0.3019 0.8707 0.0
C958 C 0.33635 0.29226 0.83174 0.0
C959 C 0.34037 0.27653 0.81266 0.0
C960 C 0.39789 0.24875 0.89344 0.0
C961 C 0.36585 0.27055 0.8622 0.0
C962 C 0.41363 0.24718 0.91693 0.0
C963 C 0.4128 0.26431 0.93483 0.0
C964 C 0.38117 0.2676 0.88772 0.0
C965 C 0.39519 0.28259 0.92866 0.0
C966 C 0.34902 0.28935 0.85645 0.0
C967 C 0.3568 0.25772 0.81938 0.0
N968 N 0.38018 0.2838 0.9056 0.0
N969 N 0.369 0.2553 0.84354 0.0
H970 H 0.24505 0.84201 0.36178 0.0
H971 H 0.29048 0.92251 0.47869 0.0
H972 H 0.30498 0.82473 0.42484 0.0
H973 H 0.22204 0.93796 0.42184 0.0
H974 H 0.29638 0.88684 0.45828 0.0
H975 H 0.23655 0.87746 0.38252 0.0
C976 C 0.25639 0.84566 0.37997 0.0
C977 C 0.27569 0.83034 0.39163 0.0
C978 C 0.28002 0.89797 0.45021 0.0
C979 C 0.26605 0.87076 0.41543 0.0
C980 C 0.2768 0.91844 0.46177 0.0
C981 C 0.25595 0.93334 0.45179 0.0
C982 C 0.26237 0.89226 0.42838 0.0
C983 C 0.23832 0.92692 0.43018 0.0
C984 C 0.25141 0.86582 0.39185 0.0
C985 C 0.28956 0.83584 0.41532 0.0
N986 N 0.24205 0.90689 0.41908 0.0
N987 N 0.28456 0.85559 0.42634 0.0
H988 H 0.7248 0.75418 0.8953 0.0
H989 H 0.55302 0.78419 0.92532 0.0
H990 H 0.67505 0.79713 0.8432 0.0
H991 H 0.6135 0.76159 0.98529 0.0
H992 H 0.5954 0.78486 0.89312 0.0
H993 H 0.6821 0.75261 0.92692 0.0
C994 C 0.70502 0.76336 0.89049 0.0
C995 C 0.70372 0.7759 0.86649 0.0
C996 C 0.59943 0.77978 0.91332 0.0
C997 C 0.65445 0.77376 0.90251 0.0
C998 C 0.57533 0.77941 0.93159 0.0
C999 C 0.58007 0.77296 0.95783 0.0
C1000 C 0.62829 0.77336 0.92136 0.0
C1001 C 0.60915 0.7667 0.96516 0.0
C1002 C 0.68058 0.76235 0.90854 0.0
C1003 C 0.67703 0.78698 0.86121 0.0
N1004 N 0.63222 0.76699 0.94698 0.0
N1005 N 0.65348 0.78563 0.87905 0.0
loop_
_geom_bond_atom_site_label_1
_geom_bond_atom_site_label_2
_geom_bond_distance
_geom_bond_site_symmetry_2
_ccdc_geom_bond_type
P0 O11 1.490 . S
P0 C14 1.812 . S
P0 C20 1.803 . S
P0 C26 1.819 . S
H1 C15 0.941 . S
H2 C16 0.939 . S
H3 C18 0.940 . S
H4 C19 0.940 . S
H5 C21 0.939 . S
H6 C22 0.942 . S
H7 C24 0.940 . S
H8 C25 0.939 . S
H9 C27 0.941 . S
H10 C31 0.939 . S
O11 P0 1.490 . S
H12 C28 0.939 . S
H13 C30 0.940 . S
C14 P0 1.812 . S
C14 C15 1.389 . S
C14 C19 1.391 . S
C15 H1 0.941 . S
C15 C14 1.389 . S
C15 C16 1.397 . S
C16 H2 0.939 . S
C16 C15 1.397 . S
C16 C17 1.378 . S
C17 C16 1.378 . S
C17 C18 1.378 . S
C18 H3 0.940 . S
C18 C17 1.378 . S
C18 C19 1.396 . S
C19 H4 0.940 . S
C19 C14 1.391 . S
C19 C18 1.396 . S
C20 P0 1.803 . S
C20 C21 1.378 . S
C20 C25 1.400 . S
C21 H5 0.939 . S
C21 C20 1.378 . S
C21 C22 1.361 . S
C22 H6 0.942 . S
C22 C21 1.361 . S
C22 C23 1.369 . S
C23 C22 1.369 . S
C23 C24 1.404 . S
C24 H7 0.940 . S
C24 C23 1.404 . S
C24 C25 1.389 . S
C25 H8 0.939 . S
C25 C20 1.400 . S
C25 C24 1.389 . S
C26 P0 1.819 . S
C26 C27 1.391 . S
C26 C31 1.391 . S
C27 H9 0.941 . S
C27 C26 1.391 . S
C27 C28 1.396 . S
C28 H12 0.939 . S
C28 C27 1.396 . S
C28 C29 1.397 . S
C29 C28 1.397 . S
C29 C30 1.385 . S
C30 H13 0.940 . S
C30 C29 1.385 . S
C30 C31 1.388 . S
C31 H10 0.939 . S
C31 C26 1.391 . S
C31 C30 1.388 . S
P32 O43 1.490 . S
P32 C46 1.812 . S
P32 C52 1.803 . S
P32 C58 1.819 . S
H33 C47 0.941 . S
H34 C48 0.939 . S
H35 C50 0.940 . S
H36 C51 0.940 . S
H37 C53 0.939 . S
H38 C54 0.942 . S
H39 C56 0.940 . S
H40 C57 0.939 . S
H41 C59 0.941 . S
H42 C63 0.939 . S
O43 P32 1.490 . S
H44 C60 0.939 . S
H45 C62 0.940 . S
C46 P32 1.812 . S
C46 C47 1.389 . S
C46 C51 1.391 . S
C47 H33 0.941 . S
C47 C46 1.389 . S
C47 C48 1.397 . S
C48 H34 0.939 . S
C48 C47 1.397 . S
C48 C49 1.378 . S
C49 C48 1.378 . S
C49 C50 1.378 . S
C50 H35 0.940 . S
C50 C49 1.378 . S
C50 C51 1.396 . S
C51 H36 0.940 . S
C51 C46 1.391 . S
C51 C50 1.396 . S
C52 P32 1.803 . S
C52 C53 1.378 . S
C52 C57 1.400 . S
C53 H37 0.939 . S
C53 C52 1.378 . S
C53 C54 1.361 . S
C54 H38 0.942 . S
C54 C53 1.361 . S
C54 C55 1.369 . S
C55 C54 1.369 . S
C55 C56 1.404 . S
C56 H39 0.940 . S
C56 C55 1.404 . S
C56 C57 1.389 . S
C57 H40 0.939 . S
C57 C52 1.400 . S
C57 C56 1.389 . S
C58 P32 1.819 . S
C58 C59 1.391 . S
C58 C63 1.391 . S
C59 H41 0.941 . S
C59 C58 1.391 . S
C59 C60 1.396 . S
C60 H44 0.939 . S
C60 C59 1.396 . S
C60 C61 1.397 . S
C61 C60 1.397 . S
C61 C62 1.385 . S
C62 H45 0.940 . S
C62 C61 1.385 . S
C62 C63 1.388 . S
C63 H42 0.939 . S
C63 C58 1.391 . S
C63 C62 1.388 . S
P64 O75 1.490 . S
P64 C78 1.812 . S
P64 C84 1.803 . S
P64 C90 1.819 . S
H65 C79 0.941 . S
H66 C80 0.939 . S
H67 C82 0.940 . S
H68 C83 0.940 . S
H69 C85 0.939 . S
H70 C86 0.942 . S
H71 C88 0.940 . S
H72 C89 0.939 . S
H73 C91 0.941 . S
H74 C95 0.939 . S
O75 P64 1.490 . S
H76 C92 0.939 . S
H77 C94 0.940 . S
C78 P64 1.812 . S
C78 C79 1.389 . S
C78 C83 1.391 . S
C79 H65 0.941 . S
C79 C78 1.389 . S
C79 C80 1.397 . S
C80 H66 0.939 . S
C80 C79 1.397 . S
C80 C81 1.378 . S
C81 C80 1.378 . S
C81 C82 1.378 . S
C82 H67 0.940 . S
C82 C81 1.378 . S
C82 C83 1.396 . S
C83 H68 0.940 . S
C83 C78 1.391 . S
C83 C82 1.396 . S
C84 P64 1.803 . S
C84 C85 1.378 . S
C84 C89 1.400 . S
C85 H69 0.939 . S
C85 C84 1.378 . S
C85 C86 1.361 . S
C86 H70 0.942 . S
C86 C85 1.361 . S
C86 C87 1.369 . S
C87 C86 1.369 . S
C87 C88 1.404 . S
C88 H71 0.940 . S
C88 C87 1.404 . S
C88 C89 1.389 . S
C89 H72 0.939 . S
C89 C84 1.400 . S
C89 C88 1.389 . S
C90 P64 1.819 . S
C90 C91 1.391 . S
C90 C95 1.391 . S
C91 H73 0.941 . S
C91 C90 1.391 . S
C91 C92 1.396 . S
C92 H76 0.939 . S
C92 C91 1.396 . S
C92 C93 1.397 . S
C93 C92 1.397 . S
C93 C94 1.385 . S
C94 H77 0.940 . S
C94 C93 1.385 . S
C94 C95 1.388 . S
C95 H74 0.939 . S
C95 C90 1.391 . S
C95 C94 1.388 . S
P96 O107 1.490 . S
P96 C110 1.812 . S
P96 C116 1.803 . S
P96 C122 1.819 . S
H97 C111 0.941 . S
H98 C112 0.939 . S
H99 C114 0.940 . S
H100 C115 0.940 . S
H101 C117 0.939 . S
H102 C118 0.942 . S
H103 C120 0.940 . S
H104 C121 0.939 . S
H105 C123 0.941 . S
H106 C127 0.939 . S
O107 P96 1.490 . S
H108 C124 0.939 . S
H109 C126 0.940 . S
C110 P96 1.812 . S
C110 C111 1.389 . S
C110 C115 1.391 . S
C111 H97 0.941 . S
C111 C110 1.389 . S
C111 C112 1.397 . S
C112 H98 0.939 . S
C112 C111 1.397 . S
C112 C113 1.378 . S
C113 C112 1.378 . S
C113 C114 1.378 . S
C114 H99 0.940 . S
C114 C113 1.378 . S
C114 C115 1.396 . S
C115 H100 0.940 . S
C115 C110 1.391 . S
C115 C114 1.396 . S
C116 P96 1.803 . S
C116 C117 1.378 . S
C116 C121 1.400 . S
C117 H101 0.939 . S
C117 C116 1.378 . S
C117 C118 1.361 . S
C118 H102 0.942 . S
C118 C117 1.361 . S
C118 C119 1.369 . S
C119 C118 1.369 . S
C119 C120 1.404 . S
C120 H103 0.940 . S
C120 C119 1.404 . S
C120 C121 1.389 . S
C121 H104 0.939 . S
C121 C116 1.400 . S
C121 C120 1.389 . S
C122 P96 1.819 . S
C122 C123 1.391 . S
C122 C127 1.391 . S
C123 H105 0.941 . S
C123 C122 1.391 . S
C123 C124 1.396 . S
C124 H108 0.939 . S
C124 C123 1.396 . S
C124 C125 1.397 . S
C125 C124 1.397 . S
C125 C126 1.385 . S
C126 H109 0.940 . S
C126 C125 1.385 . S
C126 C127 1.388 . S
C127 H106 0.939 . S
C127 C122 1.391 . S
C127 C126 1.388 . S
P128 O139 1.490 . S
P128 C142 1.812 . S
P128 C148 1.803 . S
P128 C154 1.819 . S
H129 C143 0.941 . S
H130 C144 0.939 . S
H131 C146 0.940 . S
H132 C147 0.940 . S
H133 C149 0.939 . S
H134 C150 0.942 . S
H135 C152 0.940 . S
H136 C153 0.939 . S
H137 C155 0.941 . S
H138 C159 0.939 . S
O139 P128 1.490 . S
H140 C156 0.939 . S
H141 C158 0.940 . S
C142 P128 1.812 . S
C142 C143 1.389 . S
C142 C147 1.391 . S
C143 H129 0.941 . S
C143 C142 1.389 . S
C143 C144 1.397 . S
C144 H130 0.939 . S
C144 C143 1.397 . S
C144 C145 1.378 . S
C145 C144 1.378 . S
C145 C146 1.378 . S
C146 H131 0.940 . S
C146 C145 1.378 . S
C146 C147 1.396 . S
C147 H132 0.940 . S
C147 C142 1.391 . S
C147 C146 1.396 . S
C148 P128 1.803 . S
C148 C149 1.378 . S
C148 C153 1.400 . S
C149 H133 0.939 . S
C149 C148 1.378 . S
C149 C150 1.361 . S
C150 H134 0.942 . S
C150 C149 1.361 . S
C150 C151 1.369 . S
C151 C150 1.369 . S
C151 C152 1.404 . S
C152 H135 0.940 . S
C152 C151 1.404 . S
C152 C153 1.389 . S
C153 H136 0.939 . S
C153 C148 1.400 . S
C153 C152 1.389 . S
C154 P128 1.819 . S
C154 C155 1.391 . S
C154 C159 1.391 . S
C155 H137 0.941 . S
C155 C154 1.391 . S
C155 C156 1.396 . S
C156 H140 0.939 . S
C156 C155 1.396 . S
C156 C157 1.397 . S
C157 C156 1.397 . S
C157 C158 1.385 . S
C158 H141 0.940 . S
C158 C157 1.385 . S
C158 C159 1.388 . S
C159 H138 0.939 . S
C159 C154 1.391 . S
C159 C158 1.388 . S
P160 O171 1.490 . S
P160 C174 1.812 . S
P160 C180 1.803 . S
P160 C186 1.819 . S
H161 C175 0.941 . S
H162 C176 0.939 . S
H163 C178 0.940 . S
H164 C179 0.940 . S
H165 C181 0.939 . S
H166 C182 0.942 . S
H167 C184 0.940 . S
H168 C185 0.939 . S
H169 C187 0.941 . S
H170 C191 0.939 . S
O171 P160 1.490 . S
H172 C188 0.939 . S
H173 C190 0.940 . S
C174 P160 1.812 . S
C174 C175 1.389 . S
C174 C179 1.391 . S
C175 H161 0.941 . S
C175 C174 1.389 . S
C175 C176 1.397 . S
C176 H162 0.939 . S
C176 C175 1.397 . S
C176 C177 1.378 . S
C177 C176 1.378 . S
C177 C178 1.378 . S
C178 H163 0.940 . S
C178 C177 1.378 . S
C178 C179 1.396 . S
C179 H164 0.940 . S
C179 C174 1.391 . S
C179 C178 1.396 . S
C180 P160 1.803 . S
C180 C181 1.378 . S
C180 C185 1.400 . S
C181 H165 0.939 . S
C181 C180 1.378 . S
C181 C182 1.361 . S
C182 H166 0.942 . S
C182 C181 1.361 . S
C182 C183 1.369 . S
C183 C182 1.369 . S
C183 C184 1.404 . S
C184 H167 0.940 . S
C184 C183 1.404 . S
C184 C185 1.389 . S
C185 H168 0.939 . S
C185 C180 1.400 . S
C185 C184 1.389 . S
C186 P160 1.819 . S
C186 C187 1.391 . S
C186 C191 1.391 . S
C187 H169 0.941 . S
C187 C186 1.391 . S
C187 C188 1.396 . S
C188 H172 0.939 . S
C188 C187 1.396 . S
C188 C189 1.397 . S
C189 C188 1.397 . S
C189 C190 1.385 . S
C190 H173 0.940 . S
C190 C189 1.385 . S
C190 C191 1.388 . S
C191 H170 0.939 . S
C191 C186 1.391 . S
C191 C190 1.388 . S
P192 O203 1.490 . S
P192 C206 1.812 . S
P192 C212 1.803 . S
P192 C218 1.819 . S
H193 C207 0.941 . S
H194 C208 0.939 . S
H195 C210 0.940 . S
H196 C211 0.940 . S
H197 C213 0.939 . S
H198 C214 0.942 . S
H199 C216 0.940 . S
H200 C217 0.939 . S
H201 C219 0.941 . S
H202 C223 0.939 . S
O203 P192 1.490 . S
H204 C220 0.939 . S
H205 C222 0.940 . S
C206 P192 1.812 . S
C206 C207 1.389 . S
C206 C211 1.391 . S
C207 H193 0.941 . S
C207 C206 1.389 . S
C207 C208 1.397 . S
C208 H194 0.939 . S
C208 C207 1.397 . S
C208 C209 1.378 . S
C209 C208 1.378 . S
C209 C210 1.378 . S
C210 H195 0.940 . S
C210 C209 1.378 . S
C210 C211 1.396 . S
C211 H196 0.940 . S
C211 C206 1.391 . S
C211 C210 1.396 . S
C212 P192 1.803 . S
C212 C213 1.378 . S
C212 C217 1.400 . S
C213 H197 0.939 . S
C213 C212 1.378 . S
C213 C214 1.361 . S
C214 H198 0.942 . S
C214 C213 1.361 . S
C214 C215 1.369 . S
C215 C214 1.369 . S
C215 C216 1.404 . S
C216 H199 0.940 . S
C216 C215 1.404 . S
C216 C217 1.389 . S
C217 H200 0.939 . S
C217 C212 1.400 . S
C217 C216 1.389 . S
C218 P192 1.819 . S
C218 C219 1.391 . S
C218 C223 1.391 . S
C219 H201 0.941 . S
C219 C218 1.391 . S
C219 C220 1.396 . S
C220 H204 0.939 . S
C220 C219 1.396 . S
C220 C221 1.397 . S
C221 C220 1.397 . S
C221 C222 1.385 . S
C222 H205 0.940 . S
C222 C221 1.385 . S
C222 C223 1.388 . S
C223 H202 0.939 . S
C223 C218 1.391 . S
C223 C222 1.388 . S
P224 O235 1.490 . S
P224 C238 1.812 . S
P224 C244 1.803 . S
P224 C250 1.819 . S
H225 C239 0.941 . S
H226 C240 0.939 . S
H227 C242 0.940 . S
H228 C243 0.940 . S
H229 C245 0.939 . S
H230 C246 0.942 . S
H231 C248 0.940 . S
H232 C249 0.939 . S
H233 C251 0.941 . S
H234 C255 0.939 . S
O235 P224 1.490 . S
H236 C252 0.939 . S
H237 C254 0.940 . S
C238 P224 1.812 . S
C238 C239 1.389 . S
C238 C243 1.391 . S
C239 H225 0.941 . S
C239 C238 1.389 . S
C239 C240 1.397 . S
C240 H226 0.939 . S
C240 C239 1.397 . S
C240 C241 1.378 . S
C241 C240 1.378 . S
C241 C242 1.378 . S
C242 H227 0.940 . S
C242 C241 1.378 . S
C242 C243 1.396 . S
C243 H228 0.940 . S
C243 C238 1.391 . S
C243 C242 1.396 . S
C244 P224 1.803 . S
C244 C245 1.378 . S
C244 C249 1.400 . S
C245 H229 0.939 . S
C245 C244 1.378 . S
C245 C246 1.361 . S
C246 H230 0.942 . S
C246 C245 1.361 . S
C246 C247 1.369 . S
C247 C246 1.369 . S
C247 C248 1.404 . S
C248 H231 0.940 . S
C248 C247 1.404 . S
C248 C249 1.389 . S
C249 H232 0.939 . S
C249 C244 1.400 . S
C249 C248 1.389 . S
C250 P224 1.819 . S
C250 C251 1.391 . S
C250 C255 1.391 . S
C251 H233 0.941 . S
C251 C250 1.391 . S
C251 C252 1.396 . S
C252 H236 0.939 . S
C252 C251 1.396 . S
C252 C253 1.397 . S
C253 C252 1.397 . S
C253 C254 1.385 . S
C254 H237 0.940 . S
C254 C253 1.385 . S
C254 C255 1.388 . S
C255 H234 0.939 . S
C255 C250 1.391 . S
C255 C254 1.388 . S
C256 C257 1.443 . S
C256 N260 1.376 . S
C256 C294 1.389 . S
C257 C256 1.443 . S
C257 C258 1.340 . S
C257 H297 0.951 . S
C258 C257 1.340 . S
C258 C259 1.439 . S
C258 H298 0.950 . S
C259 C258 1.439 . S
C259 N260 1.374 . S
C259 C293 1.395 . S
N260 C256 1.376 . S
N260 C259 1.374 . S
N260 Co261 2.008 . S
Co261 N260 2.008 . S
Co261 N262 1.995 . S
Co261 N267 2.008 . S
Co261 N272 1.995 . S
Co261 N277 2.282 . S
Co261 N283 2.282 1_455 S
N262 Co261 1.995 . S
N262 C263 1.376 . S
N262 C266 1.383 1_455 S
C263 N262 1.376 . S
C263 C264 1.446 1_455 S
C263 C293 1.391 . S
C264 C263 1.446 1_655 S
C264 C265 1.339 . S
C264 H299 0.949 . S
C265 C264 1.339 . S
C265 C266 1.439 . S
C265 H300 0.950 . S
C266 N262 1.383 1_655 S
C266 C265 1.439 . S
C266 C295 1.392 . S
N267 Co261 2.008 . S
N267 C268 1.376 1_455 S
N267 C271 1.374 . S
C268 N267 1.376 1_655 S
C268 C269 1.443 . S
C268 C295 1.389 . S
C269 C268 1.443 . S
C269 C270 1.340 1_655 S
C269 H301 0.951 . S
C270 C269 1.340 1_455 S
C270 C271 1.439 . S
C270 H302 0.950 . S
C271 N267 1.374 . S
C271 C270 1.439 . S
C271 C296 1.395 . S
N272 Co261 1.995 . S
N272 C273 1.376 . S
N272 C276 1.383 . S
C273 N272 1.376 . S
C273 C274 1.446 . S
C273 C296 1.391 . S
C274 C273 1.446 . S
C274 C275 1.339 . S
C274 H303 0.949 . S
C275 C274 1.339 . S
C275 C276 1.439 . S
C275 H304 0.950 . S
C276 N272 1.383 . S
C276 C275 1.439 . S
C276 C294 1.392 . S
N277 Co261 2.282 . S
N277 C280 1.332 . S
N277 C282 1.332 . S
C278 C279 1.386 . S
C278 C281 1.388 . S
C279 C278 1.386 . S
C279 C280 1.382 . S
C279 H305 0.950 . S
C280 N277 1.332 . S
C280 C279 1.382 . S
C280 H291 0.952 . S
C281 C278 1.388 . S
C281 C282 1.382 . S
C281 H306 0.950 . S
C282 N277 1.332 . S
C282 C281 1.382 . S
C282 H292 0.948 . S
N283 Co261 2.282 1_655 S
N283 C287 1.332 . S
N283 C288 1.332 . S
C284 C285 1.388 . S
C284 C288 1.382 . S
C284 H307 0.950 . S
C285 C284 1.388 . S
C285 C286 1.386 . S
C286 C285 1.386 . S
C286 C287 1.382 . S
C286 H308 0.950 . S
C287 N283 1.332 . S
C287 C286 1.382 . S
C287 H289 0.952 . S
C288 N283 1.332 . S
C288 C284 1.382 . S
C288 H290 0.948 1_655 S
H289 C287 0.952 . S
H290 C288 0.948 1_455 S
H291 C280 0.952 . S
H292 C282 0.948 . S
C293 C259 1.395 . S
C293 C263 1.391 . S
C294 C256 1.389 . S
C294 C276 1.392 . S
C295 C266 1.392 . S
C295 C268 1.389 . S
C296 C271 1.395 . S
C296 C273 1.391 . S
H297 C257 0.951 . S
H298 C258 0.950 . S
H299 C264 0.949 . S
H300 C265 0.950 . S
H301 C269 0.951 . S
H302 C270 0.950 . S
H303 C274 0.949 . S
H304 C275 0.950 . S
H305 C279 0.950 . S
H306 C281 0.950 . S
H307 C284 0.950 . S
H308 C286 0.950 . S
C309 C310 1.443 . S
C309 N313 1.376 . S
C309 C347 1.389 . S
C310 C309 1.443 . S
C310 C311 1.340 . S
C310 H350 0.951 . S
C311 C310 1.340 . S
C311 C312 1.439 . S
C311 H351 0.950 . S
C312 C311 1.439 . S
C312 N313 1.374 . S
C312 C346 1.395 . S
N313 C309 1.376 . S
N313 C312 1.374 . S
N313 Co314 2.008 . S
Co314 N313 2.008 . S
Co314 N315 1.995 1_455 S
Co314 N320 2.008 1_455 S
Co314 N325 1.995 . S
Co314 N330 2.282 . S
Co314 N336 2.282 1_455 S
N315 Co314 1.995 1_655 S
N315 C316 1.376 . S
N315 C319 1.383 . S
C316 N315 1.376 . S
C316 C317 1.446 . S
C316 C346 1.391 1_655 S
C317 C316 1.446 . S
C317 C318 1.339 . S
C317 H352 0.949 . S
C318 C317 1.339 . S
C318 C319 1.439 . S
C318 H353 0.950 . S
C319 N315 1.383 . S
C319 C318 1.439 . S
C319 C348 1.392 . S
N320 Co314 2.008 1_655 S
N320 C321 1.376 . S
N320 C324 1.374 . S
C321 N320 1.376 . S
C321 C322 1.443 . S
C321 C348 1.389 . S
C322 C321 1.443 . S
C322 C323 1.340 . S
C322 H354 0.951 . S
C323 C322 1.340 . S
C323 C324 1.439 . S
C323 H355 0.950 . S
C324 N320 1.374 . S
C324 C323 1.439 . S
C324 C349 1.395 1_655 S
N325 Co314 1.995 . S
N325 C326 1.376 . S
N325 C329 1.383 . S
C326 N325 1.376 . S
C326 C327 1.446 . S
C326 C349 1.391 . S
C327 C326 1.446 . S
C327 C328 1.339 . S
C327 H356 0.949 . S
C328 C327 1.339 . S
C328 C329 1.439 . S
C328 H357 0.950 . S
C329 N325 1.383 . S
C329 C328 1.439 . S
C329 C347 1.392 . S
N330 Co314 2.282 . S
N330 C333 1.332 . S
N330 C335 1.332 . S
C331 C332 1.386 . S
C331 C334 1.388 . S
C332 C331 1.386 . S
C332 C333 1.382 . S
C332 H358 0.950 . S
C333 N330 1.332 . S
C333 C332 1.382 . S
C333 H344 0.952 . S
C334 C331 1.388 . S
C334 C335 1.382 . S
C334 H359 0.950 . S
C335 N330 1.332 . S
C335 C334 1.382 . S
C335 H345 0.948 . S
N336 Co314 2.282 1_655 S
N336 C340 1.332 . S
N336 C341 1.332 . S
C337 C338 1.388 . S
C337 C341 1.382 . S
C337 H360 0.950 . S
C338 C337 1.388 . S
C338 C339 1.386 . S
C339 C338 1.386 . S
C339 C340 1.382 . S
C339 H361 0.950 . S
C340 N336 1.332 . S
C340 C339 1.382 . S
C340 H342 0.952 . S
C341 N336 1.332 . S
C341 C337 1.382 . S
C341 H343 0.948 . S
H342 C340 0.952 . S
H343 C341 0.948 . S
H344 C333 0.952 . S
H345 C335 0.948 . S
C346 C312 1.395 . S
C346 C316 1.391 1_455 S
C347 C309 1.389 . S
C347 C329 1.392 . S
C348 C319 1.392 . S
C348 C321 1.389 . S
C349 C324 1.395 1_455 S
C349 C326 1.391 . S
H350 C310 0.951 . S
H351 C311 0.950 . S
H352 C317 0.949 . S
H353 C318 0.950 . S
H354 C322 0.951 . S
H355 C323 0.950 . S
H356 C327 0.949 . S
H357 C328 0.950 . S
H358 C332 0.950 . S
H359 C334 0.950 . S
H360 C337 0.950 . S
H361 C339 0.950 . S
C362 C363 1.443 . S
C362 N366 1.376 . S
C362 C400 1.389 . S
C363 C362 1.443 . S
C363 C364 1.340 . S
C363 H403 0.951 . S
C364 C363 1.340 . S
C364 C365 1.441 1_565 S
C364 H404 0.950 . S
C365 C364 1.441 1_545 S
C365 N366 1.374 1_545 S
C365 C399 1.393 . S
N366 C362 1.376 . S
N366 C365 1.374 1_565 S
N366 Co367 2.008 1_565 S
Co367 N366 2.008 1_545 S
Co367 N368 1.995 . S
Co367 N373 2.008 . S
Co367 N378 1.995 1_545 S
Co367 N383 2.282 . S
Co367 N389 2.282 1_545 S
N368 Co367 1.995 . S
N368 C369 1.376 . S
N368 C372 1.383 . S
C369 N368 1.376 . S
C369 C370 1.446 . S
C369 C399 1.391 . S
C370 C369 1.446 . S
C370 C371 1.339 . S
C370 H405 0.949 . S
C371 C370 1.339 . S
C371 C372 1.439 . S
C371 H406 0.950 . S
C372 N368 1.383 . S
C372 C371 1.439 . S
C372 C401 1.392 . S
N373 Co367 2.008 . S
N373 C374 1.376 . S
N373 C377 1.374 . S
C374 N373 1.376 . S
C374 C375 1.443 . S
C374 C401 1.389 . S
C375 C374 1.443 . S
C375 C376 1.340 . S
C375 H407 0.951 . S
C376 C375 1.340 . S
C376 C377 1.439 . S
C376 H408 0.950 . S
C377 N373 1.374 . S
C377 C376 1.439 . S
C377 C402 1.395 . S
N378 Co367 1.995 1_565 S
N378 C379 1.376 . S
N378 C382 1.383 . S
C379 N378 1.376 . S
C379 C380 1.446 . S
C379 C402 1.391 1_565 S
C380 C379 1.446 . S
C380 C381 1.339 . S
C380 H409 0.949 . S
C381 C380 1.339 . S
C381 C382 1.439 . S
C381 H410 0.950 . S
C382 N378 1.383 . S
C382 C381 1.439 . S
C382 C400 1.392 . S
N383 Co367 2.282 . S
N383 C386 1.332 . S
N383 C388 1.332 . S
C384 C385 1.386 . S
C384 C387 1.388 . S
C385 C384 1.386 . S
C385 C386 1.382 . S
C385 H411 0.950 . S
C386 N383 1.332 . S
C386 C385 1.382 . S
C386 H397 0.952 . S
C387 C384 1.388 . S
C387 C388 1.382 . S
C387 H412 0.950 . S
C388 N383 1.332 . S
C388 C387 1.382 . S
C388 H398 0.948 . S
N389 Co367 2.282 1_565 S
N389 C393 1.332 . S
N389 C394 1.332 . S
C390 C391 1.388 . S
C390 C394 1.382 . S
C390 H413 0.950 . S
C391 C390 1.388 . S
C391 C392 1.386 . S
C392 C391 1.386 . S
C392 C393 1.382 . S
C392 H414 0.950 . S
C393 N389 1.332 . S
C393 C392 1.382 . S
C393 H395 0.952 . S
C394 N389 1.332 . S
C394 C390 1.382 . S
C394 H396 0.948 . S
H395 C393 0.952 . S
H396 C394 0.948 . S
H397 C386 0.952 . S
H398 C388 0.948 . S
C399 C365 1.393 . S
C399 C369 1.391 . S
C400 C362 1.389 . S
C400 C382 1.392 . S
C401 C372 1.392 . S
C401 C374 1.389 . S
C402 C377 1.395 . S
C402 C379 1.391 1_545 S
H403 C363 0.951 . S
H404 C364 0.950 . S
H405 C370 0.949 . S
H406 C371 0.950 . S
H407 C375 0.951 . S
H408 C376 0.950 . S
H409 C380 0.949 . S
H410 C381 0.950 . S
H411 C385 0.950 . S
H412 C387 0.950 . S
H413 C390 0.950 . S
H414 C392 0.950 . S
C415 C416 1.443 . S
C415 N419 1.376 . S
C415 C453 1.389 . S
C416 C415 1.443 . S
C416 C417 1.340 . S
C416 H456 0.951 . S
C417 C416 1.340 . S
C417 C418 1.439 . S
C417 H457 0.950 . S
C418 C417 1.439 . S
C418 N419 1.374 . S
C418 C452 1.395 . S
N419 C415 1.376 . S
N419 C418 1.374 . S
N419 Co420 2.008 . S
Co420 N419 2.008 . S
Co420 N421 2.010 . S
Co420 N426 2.006 . S
Co420 N431 1.995 . S
Co420 N436 2.282 1_554 S
Co420 N442 2.282 . S
N421 Co420 2.010 . S
N421 C422 1.381 . S
N421 C425 1.358 1_554 S
C422 N421 1.381 . S
C422 C423 1.446 1_554 S
C422 C452 1.391 . S
C423 C422 1.446 1_556 S
C423 C424 1.339 . S
C423 H458 0.949 . S
C424 C423 1.339 . S
C424 C425 1.439 . S
C424 H459 0.950 . S
C425 N421 1.358 1_556 S
C425 C424 1.439 . S
C425 C454 1.392 . S
N426 Co420 2.006 . S
N426 C427 1.379 1_554 S
N426 C430 1.374 . S
C427 N426 1.379 1_556 S
C427 C428 1.443 . S
C427 C454 1.389 . S
C428 C427 1.443 . S
C428 C429 1.340 . S
C428 H460 0.951 . S
C429 C428 1.340 . S
C429 C430 1.439 1_556 S
C429 H461 0.950 . S
C430 N426 1.374 . S
C430 C429 1.439 1_554 S
C430 C455 1.395 . S
N431 Co420 1.995 . S
N431 C432 1.376 . S
N431 C435 1.383 . S
C432 N431 1.376 . S
C432 C433 1.446 . S
C432 C455 1.391 . S
C433 C432 1.446 . S
C433 C434 1.339 . S
C433 H462 0.949 . S
C434 C433 1.339 . S
C434 C435 1.439 . S
C434 H463 0.950 . S
C435 N431 1.383 . S
C435 C434 1.439 . S
C435 C453 1.392 . S
N436 Co420 2.282 1_556 S
N436 C439 1.332 . S
N436 C441 1.332 . S
C437 C438 1.386 . S
C437 C440 1.388 . S
C438 C437 1.386 . S
C438 C439 1.382 . S
C438 H464 0.950 . S
C439 N436 1.332 . S
C439 C438 1.382 . S
C439 H450 0.952 . S
C440 C437 1.388 . S
C440 C441 1.382 . S
C440 H465 0.950 . S
C441 N436 1.332 . S
C441 C440 1.382 . S
C441 H451 0.948 . S
N442 Co420 2.282 . S
N442 C446 1.332 . S
N442 C447 1.332 . S
C443 C444 1.388 . S
C443 C447 1.382 . S
C443 H466 0.950 . S
C444 C443 1.388 . S
C444 C445 1.386 . S
C445 C444 1.386 . S
C445 C446 1.382 . S
C445 H467 0.950 . S
C446 N442 1.332 . S
C446 C445 1.382 . S
C446 H448 0.952 . S
C447 N442 1.332 . S
C447 C443 1.382 . S
C447 H449 0.948 . S
H448 C446 0.952 . S
H449 C447 0.948 . S
H450 C439 0.952 . S
H451 C441 0.948 . S
C452 C418 1.395 . S
C452 C422 1.391 . S
C453 C415 1.389 . S
C453 C435 1.392 . S
C454 C425 1.392 . S
C454 C427 1.389 . S
C455 C430 1.395 . S
C455 C432 1.391 . S
H456 C416 0.951 . S
H457 C417 0.950 . S
H458 C423 0.949 . S
H459 C424 0.950 . S
H460 C428 0.951 . S
H461 C429 0.950 . S
H462 C433 0.949 . S
H463 C434 0.950 . S
H464 C438 0.950 . S
H465 C440 0.950 . S
H466 C443 0.950 . S
H467 C445 0.950 . S
C468 C469 1.443 . S
C468 N472 1.376 . S
C468 C506 1.389 . S
C469 C468 1.443 . S
C469 C470 1.340 . S
C469 H509 0.951 . S
C470 C469 1.340 . S
C470 C471 1.439 . S
C470 H510 0.950 . S
C471 C470 1.439 . S
C471 N472 1.374 . S
C471 C505 1.395 1_565 S
N472 C468 1.376 . S
N472 C471 1.374 . S
N472 Co473 2.008 1_565 S
Co473 N472 2.008 1_545 S
Co473 N474 1.995 . S
Co473 N479 2.008 . S
Co473 N484 1.995 1_545 S
Co473 N489 2.282 . S
Co473 N495 2.282 1_545 S
N474 Co473 1.995 . S
N474 C475 1.376 . S
N474 C478 1.383 . S
C475 N474 1.376 . S
C475 C476 1.446 . S
C475 C505 1.391 . S
C476 C475 1.446 . S
C476 C477 1.339 . S
C476 H511 0.949 . S
C477 C476 1.339 . S
C477 C478 1.439 . S
C477 H512 0.950 . S
C478 N474 1.383 . S
C478 C477 1.439 . S
C478 C507 1.392 . S
N479 Co473 2.008 . S
N479 C480 1.376 . S
N479 C483 1.374 . S
C480 N479 1.376 . S
C480 C481 1.443 . S
C480 C507 1.389 . S
C481 C480 1.443 . S
C481 C482 1.340 . S
C481 H513 0.951 . S
C482 C481 1.340 . S
C482 C483 1.439 . S
C482 H514 0.950 . S
C483 N479 1.374 . S
C483 C482 1.439 . S
C483 C508 1.395 . S
N484 Co473 1.995 1_565 S
N484 C485 1.376 . S
N484 C488 1.383 . S
C485 N484 1.376 . S
C485 C486 1.446 . S
C485 C508 1.391 1_565 S
C486 C485 1.446 . S
C486 C487 1.339 . S
C486 H515 0.949 . S
C487 C486 1.339 . S
C487 C488 1.439 . S
C487 H516 0.950 . S
C488 N484 1.383 . S
C488 C487 1.439 . S
C488 C506 1.392 . S
N489 Co473 2.282 . S
N489 C492 1.332 . S
N489 C494 1.332 . S
C490 C491 1.386 . S
C490 C493 1.388 . S
C491 C490 1.386 . S
C491 C492 1.382 . S
C491 H517 0.950 . S
C492 N489 1.332 . S
C492 C491 1.382 . S
C492 H503 0.952 . S
C493 C490 1.388 . S
C493 C494 1.382 . S
C493 H518 0.950 . S
C494 N489 1.332 . S
C494 C493 1.382 . S
C494 H504 0.948 . S
N495 Co473 2.282 1_565 S
N495 C499 1.332 . S
N495 C500 1.332 . S
C496 C497 1.388 . S
C496 C500 1.382 . S
C496 H519 0.950 . S
C497 C496 1.388 . S
C497 C498 1.386 . S
C498 C497 1.386 . S
C498 C499 1.382 . S
C498 H520 0.950 . S
C499 N495 1.332 . S
C499 C498 1.382 . S
C499 H501 0.952 . S
C500 N495 1.332 . S
C500 C496 1.382 . S
C500 H502 0.948 . S
H501 C499 0.952 . S
H502 C500 0.948 . S
H503 C492 0.952 . S
H504 C494 0.948 . S
C505 C471 1.395 1_545 S
C505 C475 1.391 . S
C506 C468 1.389 . S
C506 C488 1.392 . S
C507 C478 1.392 . S
C507 C480 1.389 . S
C508 C483 1.395 . S
C508 C485 1.391 1_545 S
H509 C469 0.951 . S
H510 C470 0.950 . S
H511 C476 0.949 . S
H512 C477 0.950 . S
H513 C481 0.951 . S
H514 C482 0.950 . S
H515 C486 0.949 . S
H516 C487 0.950 . S
H517 C491 0.950 . S
H518 C493 0.950 . S
H519 C496 0.950 . S
H520 C498 0.950 . S
C521 C522 1.443 . S
C521 N525 1.376 . S
C521 C559 1.389 . S
C522 C521 1.443 . S
C522 C523 1.340 . S
C522 H562 0.951 . S
C523 C522 1.340 . S
C523 C524 1.439 . S
C523 H563 0.950 . S
C524 C523 1.439 . S
C524 N525 1.374 . S
C524 C558 1.395 . S
N525 C521 1.376 . S
N525 C524 1.374 . S
N525 Co526 2.008 . S
Co526 N525 2.008 . S
Co526 N527 1.995 . S
Co526 N532 2.008 . S
Co526 N537 1.995 . S
Co526 N542 2.282 . S
Co526 N548 2.282 . S
N527 Co526 1.995 . S
N527 C528 1.376 . S
N527 C531 1.383 1_554 S
C528 N527 1.376 . S
C528 C529 1.446 1_554 S
C528 C558 1.391 . S
C529 C528 1.446 1_556 S
C529 C530 1.339 . S
C529 H564 0.949 . S
C530 C529 1.339 . S
C530 C531 1.439 . S
C530 H565 0.950 . S
C531 N527 1.383 1_556 S
C531 C530 1.439 . S
C531 C560 1.392 . S
N532 Co526 2.008 . S
N532 C533 1.376 1_554 S
N532 C536 1.374 . S
C533 N532 1.376 1_556 S
C533 C534 1.443 . S
C533 C560 1.389 . S
C534 C533 1.443 . S
C534 C535 1.340 . S
C534 H566 0.951 . S
C535 C534 1.340 . S
C535 C536 1.439 1_556 S
C535 H567 0.950 . S
C536 N532 1.374 . S
C536 C535 1.439 1_554 S
C536 C561 1.395 . S
N537 Co526 1.995 . S
N537 C538 1.376 . S
N537 C541 1.383 . S
C538 N537 1.376 . S
C538 C539 1.446 . S
C538 C561 1.391 . S
C539 C538 1.446 . S
C539 C540 1.339 . S
C539 H568 0.949 . S
C540 C539 1.339 . S
C540 C541 1.439 . S
C540 H569 0.950 . S
C541 N537 1.383 . S
C541 C540 1.439 . S
C541 C559 1.392 . S
N542 Co526 2.282 . S
N542 C545 1.332 1_554 S
N542 C547 1.332 1_554 S
C543 C544 1.386 . S
C543 C546 1.388 . S
C544 C543 1.386 . S
C544 C545 1.382 . S
C544 H570 0.950 . S
C545 N542 1.332 1_556 S
C545 C544 1.382 . S
C545 H556 0.952 1_556 S
C546 C543 1.388 . S
C546 C547 1.382 . S
C546 H571 0.950 . S
C547 N542 1.332 1_556 S
C547 C546 1.382 . S
C547 H557 0.948 . S
N548 Co526 2.282 . S
N548 C552 1.332 . S
N548 C553 1.332 . S
C549 C550 1.388 . S
C549 C553 1.382 . S
C549 H572 0.950 . S
C550 C549 1.388 . S
C550 C551 1.386 . S
C551 C550 1.386 . S
C551 C552 1.382 . S
C551 H573 0.950 . S
C552 N548 1.332 . S
C552 C551 1.382 . S
C552 H554 0.952 . S
C553 N548 1.332 . S
C553 C549 1.382 . S
C553 H555 0.948 . S
H554 C552 0.952 . S
H555 C553 0.948 . S
H556 C545 0.952 1_554 S
H557 C547 0.948 . S
C558 C524 1.395 . S
C558 C528 1.391 . S
C559 C521 1.389 . S
C559 C541 1.392 . S
C560 C531 1.392 . S
C560 C533 1.389 . S
C561 C536 1.395 . S
C561 C538 1.391 . S
H562 C522 0.951 . S
H563 C523 0.950 . S
H564 C529 0.949 . S
H565 C530 0.950 . S
H566 C534 0.951 . S
H567 C535 0.950 . S
H568 C539 0.949 . S
H569 C540 0.950 . S
H570 C544 0.950 . S
H571 C546 0.950 . S
H572 C549 0.950 . S
H573 C551 0.950 . S
H574 C580 0.930 . S
H575 C584 0.930 . S
H576 C589 0.929 . S
H577 C587 0.929 . S
H578 C582 0.929 . S
H579 C588 0.929 . S
C580 H574 0.930 . S
C580 C581 1.367 . S
C580 C588 1.378 . S
C581 C580 1.367 . S
C581 C589 1.433 . S
C582 H578 0.929 . S
C582 C584 1.378 . S
C582 C586 1.350 . S
C583 C586 1.463 . S
C583 C588 1.350 . S
C583 N591 1.427 . S
C584 H575 0.930 . S
C584 C582 1.378 . S
C584 C585 1.367 . S
C585 C584 1.367 . S
C585 C587 1.433 . S
C586 C582 1.350 . S
C586 C583 1.463 . S
C586 N590 1.427 . S
C587 H577 0.929 . S
C587 C585 1.433 . S
C587 N590 1.384 . S
C588 H579 0.929 . S
C588 C580 1.378 . S
C588 C583 1.350 . S
C589 H576 0.929 . S
C589 C581 1.433 . S
C589 N591 1.384 . S
N590 C586 1.427 . S
N590 C587 1.384 . S
N591 C583 1.427 . S
N591 C589 1.384 . S
H592 C598 0.930 . S
H593 C602 0.930 . S
H594 C607 0.929 . S
H595 C605 0.929 . S
H596 C600 0.929 . S
H597 C606 0.929 . S
C598 H592 0.930 . S
C598 C599 1.367 . S
C598 C606 1.378 . S
C599 C598 1.367 . S
C599 C607 1.433 . S
C600 H596 0.929 . S
C600 C602 1.378 . S
C600 C604 1.350 . S
C601 C604 1.463 . S
C601 C606 1.350 . S
C601 N609 1.427 . S
C602 H593 0.930 . S
C602 C600 1.378 . S
C602 C603 1.367 . S
C603 C602 1.367 . S
C603 C605 1.433 . S
C604 C600 1.350 . S
C604 C601 1.463 . S
C604 N608 1.427 . S
C605 H595 0.929 . S
C605 C603 1.433 . S
C605 N608 1.384 . S
C606 H597 0.929 . S
C606 C598 1.378 . S
C606 C601 1.350 . S
C607 H594 0.929 . S
C607 C599 1.433 . S
C607 N609 1.384 . S
N608 C604 1.427 . S
N608 C605 1.384 . S
N609 C601 1.427 . S
N609 C607 1.384 . S
H610 C616 0.930 . S
H611 C620 0.930 . S
H612 C625 0.929 . S
H613 C623 0.929 . S
H614 C618 0.929 . S
H615 C624 0.929 . S
C616 H610 0.930 . S
C616 C617 1.367 . S
C616 C624 1.378 . S
C617 C616 1.367 . S
C617 C625 1.433 . S
C618 H614 0.929 . S
C618 C620 1.378 . S
C618 C622 1.350 . S
C619 C622 1.463 . S
C619 C624 1.350 . S
C619 N627 1.427 . S
C620 H611 0.930 . S
C620 C618 1.378 . S
C620 C621 1.367 . S
C621 C620 1.367 . S
C621 C623 1.433 . S
C622 C618 1.350 . S
C622 C619 1.463 . S
C622 N626 1.427 . S
C623 H613 0.929 . S
C623 C621 1.433 . S
C623 N626 1.384 . S
C624 H615 0.929 . S
C624 C616 1.378 . S
C624 C619 1.350 . S
C625 H612 0.929 . S
C625 C617 1.433 . S
C625 N627 1.384 . S
N626 C622 1.427 . S
N626 C623 1.384 . S
N627 C619 1.427 . S
N627 C625 1.384 . S
H628 C634 0.930 . S
H629 C638 0.930 . S
H630 C643 0.929 . S
H631 C641 0.929 . S
H632 C636 0.929 . S
H633 C642 0.929 . S
C634 H628 0.930 . S
C634 C635 1.367 . S
C634 C642 1.378 . S
C635 C634 1.367 . S
C635 C643 1.433 . S
C636 H632 0.929 . S
C636 C638 1.378 . S
C636 C640 1.350 . S
C637 C640 1.463 . S
C637 C642 1.350 . S
C637 N645 1.427 . S
C638 H629 0.930 . S
C638 C636 1.378 . S
C638 C639 1.367 . S
C639 C638 1.367 . S
C639 C641 1.433 . S
C640 C636 1.350 . S
C640 C637 1.463 . S
C640 N644 1.427 . S
C641 H631 0.929 . S
C641 C639 1.433 . S
C641 N644 1.384 . S
C642 H633 0.929 . S
C642 C634 1.378 . S
C642 C637 1.350 . S
C643 H630 0.929 . S
C643 C635 1.433 . S
C643 N645 1.384 . S
N644 C640 1.427 . S
N644 C641 1.384 . S
N645 C637 1.427 . S
N645 C643 1.384 . S
H646 C652 0.930 . S
H647 C656 0.930 . S
H648 C661 0.929 . S
H649 C659 0.929 . S
H650 C654 0.929 . S
H651 C660 0.929 . S
C652 H646 0.930 . S
C652 C653 1.367 . S
C652 C660 1.378 . S
C653 C652 1.367 . S
C653 C661 1.433 . S
C654 H650 0.929 . S
C654 C656 1.378 . S
C654 C658 1.350 . S
C655 C658 1.463 . S
C655 C660 1.350 . S
C655 N663 1.427 . S
C656 H647 0.930 . S
C656 C654 1.378 . S
C656 C657 1.367 . S
C657 C656 1.367 . S
C657 C659 1.433 . S
C658 C654 1.350 . S
C658 C655 1.463 . S
C658 N662 1.427 . S
C659 H649 0.929 . S
C659 C657 1.433 . S
C659 N662 1.384 . S
C660 H651 0.929 . S
C660 C652 1.378 . S
C660 C655 1.350 . S
C661 H648 0.929 . S
C661 C653 1.433 . S
C661 N663 1.384 . S
N662 C658 1.427 . S
N662 C659 1.384 . S
N663 C655 1.427 . S
N663 C661 1.384 . S
H664 C670 0.930 . S
H665 C674 0.930 . S
H666 C679 0.929 . S
H667 C677 0.929 . S
H668 C672 0.929 . S
H669 C678 0.929 . S
C670 H664 0.930 . S
C670 C671 1.367 . S
C670 C678 1.378 . S
C671 C670 1.367 . S
C671 C679 1.433 . S
C672 H668 0.929 . S
C672 C674 1.378 . S
C672 C676 1.350 . S
C673 C676 1.463 . S
C673 C678 1.350 . S
C673 N681 1.427 . S
C674 H665 0.930 . S
C674 C672 1.378 . S
C674 C675 1.367 . S
C675 C674 1.367 . S
C675 C677 1.433 . S
C676 C672 1.350 . S
C676 C673 1.463 . S
C676 N680 1.427 . S
C677 H667 0.929 . S
C677 C675 1.433 . S
C677 N680 1.384 . S
C678 H669 0.929 . S
C678 C670 1.378 . S
C678 C673 1.350 . S
C679 H666 0.929 . S
C679 C671 1.433 . S
C679 N681 1.384 . S
N680 C676 1.427 . S
N680 C677 1.384 . S
N681 C673 1.427 . S
N681 C679 1.384 . S
H682 C688 0.930 . S
H683 C692 0.930 . S
H684 C697 0.929 . S
H685 C695 0.929 . S
H686 C690 0.929 . S
H687 C696 0.929 . S
C688 H682 0.930 . S
C688 C689 1.367 . S
C688 C696 1.378 . S
C689 C688 1.367 . S
C689 C697 1.433 . S
C690 H686 0.929 . S
C690 C692 1.378 . S
C690 C694 1.350 . S
C691 C694 1.463 . S
C691 C696 1.350 . S
C691 N699 1.427 . S
C692 H683 0.930 . S
C692 C690 1.378 . S
C692 C693 1.367 . S
C693 C692 1.367 . S
C693 C695 1.433 . S
C694 C690 1.350 . S
C694 C691 1.463 . S
C694 N698 1.427 . S
C695 H685 0.929 . S
C695 C693 1.433 . S
C695 N698 1.384 . S
C696 H687 0.929 . S
C696 C688 1.378 . S
C696 C691 1.350 . S
C697 H684 0.929 . S
C697 C689 1.433 . S
C697 N699 1.384 . S
N698 C694 1.427 . S
N698 C695 1.384 . S
N699 C691 1.427 . S
N699 C697 1.384 . S
H700 C706 0.930 . S
H701 C710 0.930 . S
H702 C715 0.929 . S
H703 C713 0.929 . S
H704 C708 0.929 . S
H705 C714 0.929 . S
C706 H700 0.930 . S
C706 C707 1.367 . S
C706 C714 1.378 . S
C707 C706 1.367 . S
C707 C715 1.433 . S
C708 H704 0.929 . S
C708 C710 1.378 . S
C708 C712 1.350 . S
C709 C712 1.463 . S
C709 C714 1.350 . S
C709 N717 1.427 . S
C710 H701 0.930 . S
C710 C708 1.378 . S
C710 C711 1.367 . S
C711 C710 1.367 . S
C711 C713 1.433 . S
C712 C708 1.350 . S
C712 C709 1.463 . S
C712 N716 1.427 . S
C713 H703 0.929 . S
C713 C711 1.433 . S
C713 N716 1.384 . S
C714 H705 0.929 . S
C714 C706 1.378 . S
C714 C709 1.350 . S
C715 H702 0.929 . S
C715 C707 1.433 . S
C715 N717 1.384 . S
N716 C712 1.427 . S
N716 C713 1.384 . S
N717 C709 1.427 . S
N717 C715 1.384 . S
H718 C724 0.930 . S
H719 C728 0.930 . S
H720 C733 0.929 . S
H721 C731 0.929 . S
H722 C726 0.929 . S
H723 C732 0.929 . S
C724 H718 0.930 . S
C724 C725 1.367 . S
C724 C732 1.378 . S
C725 C724 1.367 . S
C725 C733 1.433 . S
C726 H722 0.929 . S
C726 C728 1.378 . S
C726 C730 1.350 . S
C727 C730 1.463 . S
C727 C732 1.350 . S
C727 N735 1.427 . S
C728 H719 0.930 . S
C728 C726 1.378 . S
C728 C729 1.367 . S
C729 C728 1.367 . S
C729 C731 1.433 . S
C730 C726 1.350 . S
C730 C727 1.463 . S
C730 N734 1.427 . S
C731 H721 0.929 . S
C731 C729 1.433 . S
C731 N734 1.384 . S
C732 H723 0.929 . S
C732 C724 1.378 . S
C732 C727 1.350 . S
C733 H720 0.929 . S
C733 C725 1.433 . S
C733 N735 1.384 . S
N734 C730 1.427 . S
N734 C731 1.384 . S
N735 C727 1.427 . S
N735 C733 1.384 . S
H736 C742 0.930 . S
H737 C746 0.930 . S
H738 C751 0.929 . S
H739 C749 0.929 . S
H740 C744 0.929 . S
H741 C750 0.929 . S
C742 H736 0.930 . S
C742 C743 1.367 . S
C742 C750 1.378 . S
C743 C742 1.367 . S
C743 C751 1.433 . S
C744 H740 0.929 . S
C744 C746 1.378 . S
C744 C748 1.350 . S
C745 C748 1.463 . S
C745 C750 1.350 . S
C745 N753 1.427 . S
C746 H737 0.930 . S
C746 C744 1.378 . S
C746 C747 1.367 . S
C747 C746 1.367 . S
C747 C749 1.433 . S
C748 C744 1.350 . S
C748 C745 1.463 . S
C748 N752 1.427 . S
C749 H739 0.929 . S
C749 C747 1.433 . S
C749 N752 1.384 . S
C750 H741 0.929 . S
C750 C742 1.378 . S
C750 C745 1.350 . S
C751 H738 0.929 . S
C751 C743 1.433 . S
C751 N753 1.384 . S
N752 C748 1.427 . S
N752 C749 1.384 . S
N753 C745 1.427 . S
N753 C751 1.384 . S
H754 C760 0.930 . S
H755 C764 0.930 . S
H756 C769 0.929 . S
H757 C767 0.929 . S
H758 C762 0.929 . S
H759 C768 0.929 . S
C760 H754 0.930 . S
C760 C761 1.367 . S
C760 C768 1.378 . S
C761 C760 1.367 . S
C761 C769 1.433 . S
C762 H758 0.929 . S
C762 C764 1.378 . S
C762 C766 1.350 . S
C763 C766 1.463 . S
C763 C768 1.350 . S
C763 N771 1.427 . S
C764 H755 0.930 . S
C764 C762 1.378 . S
C764 C765 1.367 . S
C765 C764 1.367 . S
C765 C767 1.433 . S
C766 C762 1.350 . S
C766 C763 1.463 . S
C766 N770 1.427 . S
C767 H757 0.929 . S
C767 C765 1.433 . S
C767 N770 1.384 . S
C768 H759 0.929 . S
C768 C760 1.378 . S
C768 C763 1.350 . S
C769 H756 0.929 . S
C769 C761 1.433 . S
C769 N771 1.384 . S
N770 C766 1.427 . S
N770 C767 1.384 . S
N771 C763 1.427 . S
N771 C769 1.384 . S
H772 C778 0.930 . S
H773 C782 0.930 . S
H774 C787 0.929 . S
H775 C785 0.929 . S
H776 C780 0.929 . S
H777 C786 0.929 . S
C778 H772 0.930 . S
C778 C779 1.367 . S
C778 C786 1.378 . S
C779 C778 1.367 . S
C779 C787 1.433 . S
C780 H776 0.929 . S
C780 C782 1.378 . S
C780 C784 1.350 . S
C781 C784 1.463 . S
C781 C786 1.350 . S
C781 N789 1.427 . S
C782 H773 0.930 . S
C782 C780 1.378 . S
C782 C783 1.367 . S
C783 C782 1.367 . S
C783 C785 1.433 . S
C784 C780 1.350 . S
C784 C781 1.463 . S
C784 N788 1.427 . S
C785 H775 0.929 . S
C785 C783 1.433 . S
C785 N788 1.384 . S
C786 H777 0.929 . S
C786 C778 1.378 . S
C786 C781 1.350 . S
C787 H774 0.929 . S
C787 C779 1.433 . S
C787 N789 1.384 . S
N788 C784 1.427 . S
N788 C785 1.384 . S
N789 C781 1.427 . S
N789 C787 1.384 . S
H790 C796 0.930 . S
H791 C800 0.930 . S
H792 C805 0.929 . S
H793 C803 0.929 . S
H794 C798 0.929 . S
H795 C804 0.929 . S
C796 H790 0.930 . S
C796 C797 1.367 . S
C796 C804 1.378 . S
C797 C796 1.367 . S
C797 C805 1.433 . S
C798 H794 0.929 . S
C798 C800 1.378 . S
C798 C802 1.350 . S
C799 C802 1.463 . S
C799 C804 1.350 . S
C799 N807 1.427 . S
C800 H791 0.930 . S
C800 C798 1.378 . S
C800 C801 1.367 . S
C801 C800 1.367 . S
C801 C803 1.433 . S
C802 C798 1.350 . S
C802 C799 1.463 . S
C802 N806 1.427 . S
C803 H793 0.929 . S
C803 C801 1.433 . S
C803 N806 1.384 . S
C804 H795 0.929 . S
C804 C796 1.378 . S
C804 C799 1.350 . S
C805 H792 0.929 . S
C805 C797 1.433 . S
C805 N807 1.384 . S
N806 C802 1.427 . S
N806 C803 1.384 . S
N807 C799 1.427 . S
N807 C805 1.384 . S
H808 C814 0.930 . S
H809 C818 0.930 . S
H810 C823 0.929 . S
H811 C821 0.929 . S
H812 C816 0.929 . S
H813 C822 0.929 . S
C814 H808 0.930 . S
C814 C815 1.367 . S
C814 C822 1.378 . S
C815 C814 1.367 . S
C815 C823 1.433 . S
C816 H812 0.929 . S
C816 C818 1.378 . S
C816 C820 1.350 . S
C817 C820 1.463 . S
C817 C822 1.350 . S
C817 N825 1.427 . S
C818 H809 0.930 . S
C818 C816 1.378 . S
C818 C819 1.367 . S
C819 C818 1.367 . S
C819 C821 1.433 . S
C820 C816 1.350 . S
C820 C817 1.463 . S
C820 N824 1.427 . S
C821 H811 0.929 . S
C821 C819 1.433 . S
C821 N824 1.384 . S
C822 H813 0.929 . S
C822 C814 1.378 . S
C822 C817 1.350 . S
C823 H810 0.929 . S
C823 C815 1.433 . S
C823 N825 1.384 . S
N824 C820 1.427 . S
N824 C821 1.384 . S
N825 C817 1.427 . S
N825 C823 1.384 . S
H826 C832 0.930 . S
H827 C836 0.930 . S
H828 C841 0.929 . S
H829 C839 0.929 . S
H830 C834 0.929 . S
H831 C840 0.929 . S
C832 H826 0.930 . S
C832 C833 1.367 . S
C832 C840 1.378 . S
C833 C832 1.367 . S
C833 C841 1.433 . S
C834 H830 0.929 . S
C834 C836 1.378 . S
C834 C838 1.350 . S
C835 C838 1.463 . S
C835 C840 1.350 . S
C835 N843 1.427 . S
C836 H827 0.930 . S
C836 C834 1.378 . S
C836 C837 1.367 . S
C837 C836 1.367 . S
C837 C839 1.433 . S
C838 C834 1.350 . S
C838 C835 1.463 . S
C838 N842 1.427 . S
C839 H829 0.929 . S
C839 C837 1.433 . S
C839 N842 1.384 . S
C840 H831 0.929 . S
C840 C832 1.378 . S
C840 C835 1.350 . S
C841 H828 0.929 . S
C841 C833 1.433 . S
C841 N843 1.384 . S
N842 C838 1.427 . S
N842 C839 1.384 . S
N843 C835 1.427 . S
N843 C841 1.384 . S
H844 C850 0.930 . S
H845 C854 0.930 . S
H846 C859 0.929 . S
H847 C857 0.929 . S
H848 C852 0.929 . S
H849 C858 0.929 . S
C850 H844 0.930 . S
C850 C851 1.367 . S
C850 C858 1.378 . S
C851 C850 1.367 . S
C851 C859 1.433 . S
C852 H848 0.929 . S
C852 C854 1.378 . S
C852 C856 1.350 . S
C853 C856 1.463 . S
C853 C858 1.350 . S
C853 N861 1.427 . S
C854 H845 0.930 . S
C854 C852 1.378 . S
C854 C855 1.367 . S
C855 C854 1.367 . S
C855 C857 1.433 . S
C856 C852 1.350 . S
C856 C853 1.463 . S
C856 N860 1.427 . S
C857 H847 0.929 . S
C857 C855 1.433 . S
C857 N860 1.384 . S
C858 H849 0.929 . S
C858 C850 1.378 . S
C858 C853 1.350 . S
C859 H846 0.929 . S
C859 C851 1.433 . S
C859 N861 1.384 . S
N860 C856 1.427 . S
N860 C857 1.384 . S
N861 C853 1.427 . S
N861 C859 1.384 . S
H862 C868 0.930 . S
H863 C872 0.930 . S
H864 C877 0.929 . S
H865 C875 0.929 . S
H866 C870 0.929 . S
H867 C876 0.929 . S
C868 H862 0.930 . S
C868 C869 1.367 . S
C868 C876 1.378 . S
C869 C868 1.367 . S
C869 C877 1.433 . S
C870 H866 0.929 . S
C870 C872 1.378 . S
C870 C874 1.350 . S
C871 C874 1.463 . S
C871 C876 1.350 . S
C871 N879 1.427 . S
C872 H863 0.930 . S
C872 C870 1.378 . S
C872 C873 1.367 . S
C873 C872 1.367 . S
C873 C875 1.433 . S
C874 C870 1.350 . S
C874 C871 1.463 . S
C874 N878 1.427 . S
C875 H865 0.929 . S
C875 C873 1.433 . S
C875 N878 1.384 . S
C876 H867 0.929 . S
C876 C868 1.378 . S
C876 C871 1.350 . S
C877 H864 0.929 . S
C877 C869 1.433 . S
C877 N879 1.384 . S
N878 C874 1.427 . S
N878 C875 1.384 . S
N879 C871 1.427 . S
N879 C877 1.384 . S
H880 C886 0.930 . S
H881 C890 0.930 . S
H882 C895 0.929 . S
H883 C893 0.929 . S
H884 C888 0.929 . S
H885 C894 0.929 . S
C886 H880 0.930 . S
C886 C887 1.367 . S
C886 C894 1.378 . S
C887 C886 1.367 . S
C887 C895 1.433 . S
C888 H884 0.929 . S
C888 C890 1.378 . S
C888 C892 1.350 . S
C889 C892 1.463 . S
C889 C894 1.350 . S
C889 N897 1.427 . S
C890 H881 0.930 . S
C890 C888 1.378 . S
C890 C891 1.367 . S
C891 C890 1.367 . S
C891 C893 1.433 . S
C892 C888 1.350 . S
C892 C889 1.463 . S
C892 N896 1.427 . S
C893 H883 0.929 . S
C893 C891 1.433 . S
C893 N896 1.384 . S
C894 H885 0.929 . S
C894 C886 1.378 . S
C894 C889 1.350 . S
C895 H882 0.929 . S
C895 C887 1.433 . S
C895 N897 1.384 . S
N896 C892 1.427 . S
N896 C893 1.384 . S
N897 C889 1.427 . S
N897 C895 1.384 . S
H898 C904 0.930 . S
H899 C908 0.930 . S
H900 C913 0.929 . S
H901 C911 0.929 . S
H902 C906 0.929 . S
H903 C912 0.929 . S
C904 H898 0.930 . S
C904 C905 1.367 . S
C904 C912 1.378 . S
C905 C904 1.367 . S
C905 C913 1.433 . S
C906 H902 0.929 . S
C906 C908 1.378 . S
C906 C910 1.350 . S
C907 C910 1.463 . S
C907 C912 1.350 . S
C907 N915 1.427 . S
C908 H899 0.930 . S
C908 C906 1.378 . S
C908 C909 1.367 . S
C909 C908 1.367 . S
C909 C911 1.433 . S
C910 C906 1.350 . S
C910 C907 1.463 . S
C910 N914 1.427 . S
C911 H901 0.929 . S
C911 C909 1.433 . S
C911 N914 1.384 . S
C912 H903 0.929 . S
C912 C904 1.378 . S
C912 C907 1.350 . S
C913 H900 0.929 . S
C913 C905 1.433 . S
C913 N915 1.384 . S
N914 C910 1.427 . S
N914 C911 1.384 . S
N915 C907 1.427 . S
N915 C913 1.384 . S
H916 C922 0.930 . S
H917 C926 0.930 . S
H918 C931 0.929 . S
H919 C929 0.929 . S
H920 C924 0.929 . S
H921 C930 0.929 . S
C922 H916 0.930 . S
C922 C923 1.367 . S
C922 C930 1.378 . S
C923 C922 1.367 . S
C923 C931 1.433 . S
C924 H920 0.929 . S
C924 C926 1.378 . S
C924 C928 1.350 . S
C925 C928 1.463 . S
C925 C930 1.350 . S
C925 N933 1.427 . S
C926 H917 0.930 . S
C926 C924 1.378 . S
C926 C927 1.367 . S
C927 C926 1.367 . S
C927 C929 1.433 . S
C928 C924 1.350 . S
C928 C925 1.463 . S
C928 N932 1.427 . S
C929 H919 0.929 . S
C929 C927 1.433 . S
C929 N932 1.384 . S
C930 H921 0.929 . S
C930 C922 1.378 . S
C930 C925 1.350 . S
C931 H918 0.929 . S
C931 C923 1.433 . S
C931 N933 1.384 . S
N932 C928 1.427 . S
N932 C929 1.384 . S
N933 C925 1.427 . S
N933 C931 1.384 . S
H934 C940 0.930 . S
H935 C944 0.930 . S
H936 C949 0.929 . S
H937 C947 0.929 . S
H938 C942 0.929 . S
H939 C948 0.929 . S
C940 H934 0.930 . S
C940 C941 1.367 . S
C940 C948 1.378 . S
C941 C940 1.367 . S
C941 C949 1.433 . S
C942 H938 0.929 . S
C942 C944 1.378 . S
C942 C946 1.350 . S
C943 C946 1.463 . S
C943 C948 1.350 . S
C943 N951 1.427 . S
C944 H935 0.930 . S
C944 C942 1.378 . S
C944 C945 1.367 . S
C945 C944 1.367 . S
C945 C947 1.433 . S
C946 C942 1.350 . S
C946 C943 1.463 . S
C946 N950 1.427 . S
C947 H937 0.929 . S
C947 C945 1.433 . S
C947 N950 1.384 . S
C948 H939 0.929 . S
C948 C940 1.378 . S
C948 C943 1.350 . S
C949 H936 0.929 . S
C949 C941 1.433 . S
C949 N951 1.384 . S
N950 C946 1.427 . S
N950 C947 1.384 . S
N951 C943 1.427 . S
N951 C949 1.384 . S
H952 C958 0.930 . S
H953 C962 0.930 . S
H954 C967 0.929 . S
H955 C965 0.929 . S
H956 C960 0.929 . S
H957 C966 0.929 . S
C958 H952 0.930 . S
C958 C959 1.367 . S
C958 C966 1.378 . S
C959 C958 1.367 . S
C959 C967 1.433 . S
C960 H956 0.929 . S
C960 C962 1.378 . S
C960 C964 1.350 . S
C961 C964 1.463 . S
C961 C966 1.350 . S
C961 N969 1.427 . S
C962 H953 0.930 . S
C962 C960 1.378 . S
C962 C963 1.367 . S
C963 C962 1.367 . S
C963 C965 1.433 . S
C964 C960 1.350 . S
C964 C961 1.463 . S
C964 N968 1.427 . S
C965 H955 0.929 . S
C965 C963 1.433 . S
C965 N968 1.384 . S
C966 H957 0.929 . S
C966 C958 1.378 . S
C966 C961 1.350 . S
C967 H954 0.929 . S
C967 C959 1.433 . S
C967 N969 1.384 . S
N968 C964 1.427 . S
N968 C965 1.384 . S
N969 C961 1.427 . S
N969 C967 1.384 . S
H970 C976 0.930 . S
H971 C980 0.930 . S
H972 C985 0.929 . S
H973 C983 0.929 . S
H974 C978 0.929 . S
H975 C984 0.929 . S
C976 H970 0.930 . S
C976 C977 1.367 . S
C976 C984 1.378 . S
C977 C976 1.367 . S
C977 C985 1.433 . S
C978 H974 0.929 . S
C978 C980 1.378 . S
C978 C982 1.350 . S
C979 C982 1.463 . S
C979 C984 1.350 . S
C979 N987 1.427 . S
C980 H971 0.930 . S
C980 C978 1.378 . S
C980 C981 1.367 . S
C981 C980 1.367 . S
C981 C983 1.433 . S
C982 C978 1.350 . S
C982 C979 1.463 . S
C982 N986 1.427 . S
C983 H973 0.929 . S
C983 C981 1.433 . S
C983 N986 1.384 . S
C984 H975 0.929 . S
C984 C976 1.378 . S
C984 C979 1.350 . S
C985 H972 0.929 . S
C985 C977 1.433 . S
C985 N987 1.384 . S
N986 C982 1.427 . S
N986 C983 1.384 . S
N987 C979 1.427 . S
N987 C985 1.384 . S
H988 C994 0.930 . S
H989 C998 0.930 . S
H990 C1003 0.929 . S
H991 C1001 0.929 . S
H992 C996 0.929 . S
H993 C1002 0.929 . S
C994 H988 0.930 . S
C994 C995 1.367 . S
C994 C1002 1.378 . S
C995 C994 1.367 . S
C995 C1003 1.433 . S
C996 H992 0.929 . S
C996 C998 1.378 . S
C996 C1000 1.350 . S
C997 C1000 1.463 . S
C997 C1002 1.350 . S
C997 N1005 1.427 . S
C998 H989 0.930 . S
C998 C996 1.378 . S
C998 C999 1.367 . S
C999 C998 1.367 . S
C999 C1001 1.433 . S
C1000 C996 1.350 . S
C1000 C997 1.463 . S
C1000 N1004 1.427 . S
C1001 H991 0.929 . S
C1001 C999 1.433 . S
C1001 N1004 1.384 . S
C1002 H993 0.929 . S
C1002 C994 1.378 . S
C1002 C997 1.350 . S
C1003 H990 0.929 . S
C1003 C995 1.433 . S
C1003 N1005 1.384 . S
N1004 C1000 1.427 . S
N1004 C1001 1.384 . S
N1005 C997 1.427 . S
N1005 C1003 1.384 . S
C585 C278 1.548 . S
C581 C23 1.537 . S
C603 C347 1.530 . S
C599 C49 1.518 . S
C621 C285 1.536 . S
C617 C87 1.513 . S
C639 C348 1.547 . S
C635 C125 1.505 . S
C657 C401 1.557 . S
C653 C29 1.551 . S
C675 C437 1.514 . S
C671 C61 1.489 . S
C689 C81 1.499 . S
C693 C497 1.537 . S
C711 C560 1.517 . S
C707 C113 1.487 . S
C729 C400 1.524 . S
C725 C55 1.514 . S
C743 C93 1.473 . S
C747 C444 1.526 . S
C765 C490 1.540 . S
C761 C119 1.502 . S
C783 C559 1.532 . S
C779 C17 1.521 . S
C797 C151 1.521 . S
C801 C338 1.549 . S
C819 C295 1.527 . S
C815 C177 1.509 . S
C833 C215 1.526 . S
C837 C331 1.538 . S
C851 C253 1.520 . S
C855 C294 1.543 . S
C873 C506 1.557 . S
C869 C157 1.495 . S
C891 C550 1.514 . S
C887 C189 1.471 . S
C909 C384 1.537 . S
C905 C209 1.532 . S
C923 C241 1.505 . S
C927 C453 1.516 . S
C945 C507 1.520 . S
C941 C183 1.478 . S
C963 C543 1.528 . S
C959 C221 1.511 . S
C981 C391 1.537 . S
C977 C247 1.532 . S
C995 C145 1.489 . S
C999 C454 1.533 . S
