# Generated by pormake.
# Topology pyr, (3,6)-cn, num edge types: 1
# Building blocks:
#     Node 0, Type 0, BuildingBlock: QEWDON_clean_linker_0, # of connection points: 3
#     Node 1, Type 0, BuildingBlock: QEWDON_clean_linker_0, # of connection points: 3
#     Node 2, Type 0, BuildingBlock: QEWDON_clean_linker_0, # of connection points: 3
#     Node 3, Type 0, BuildingBlock: QEWDON_clean_linker_0, # of connection points: 3
#     Node 4, Type 0, BuildingBlock: QEWDON_clean_linker_0, # of connection points: 3
#     Node 5, Type 0, BuildingBlock: QEWDON_clean_linker_0, # of connection points: 3
#     Node 6, Type 0, BuildingBlock: QEWDON_clean_linker_0, # of connection points: 3
#     Node 7, Type 0, BuildingBlock: QEWDON_clean_linker_0, # of connection points: 3
#     Node 8, Type 1, BuildingBlock: BETFAJ_clean_sbu_0, # of connection points: 6
#     Node 9, Type 1, BuildingBlock: BETFAJ_clean_sbu_0, # of connection points: 6
#     Node 10, Type 1, BuildingBlock: BETFAJ_clean_sbu_0, # of connection points: 6
#     Node 11, Type 1, BuildingBlock: BETFAJ_clean_sbu_0, # of connection points: 6
#     Edge 12, Type (0, 1), BuildingBlock: OJICUG_clean_linker_0, # of connection points: 2
#     Edge 13, Type (0, 1), BuildingBlock: OJICUG_clean_linker_0, # of connection points: 2
#     Edge 14, Type (0, 1), BuildingBlock: OJICUG_clean_linker_0, # of connection points: 2
#     Edge 15, Type (0, 1), BuildingBlock: OJICUG_clean_linker_0, # of connection points: 2
#     Edge 16, Type (0, 1), BuildingBlock: OJICUG_clean_linker_0, # of connection points: 2
#     Edge 17, Type (0, 1), BuildingBlock: OJICUG_clean_linker_0, # of connection points: 2
#     Edge 18, Type (0, 1), BuildingBlock: OJICUG_clean_linker_0, # of connection points: 2
#     Edge 19, Type (0, 1), BuildingBlock: OJICUG_clean_linker_0, # of connection points: 2
#     Edge 20, Type (0, 1), BuildingBlock: OJICUG_clean_linker_0, # of connection points: 2
#     Edge 21, Type (0, 1), BuildingBlock: OJICUG_clean_linker_0, # of connection points: 2
#     Edge 22, Type (0, 1), BuildingBlock: OJICUG_clean_linker_0, # of connection points: 2
#     Edge 23, Type (0, 1), BuildingBlock: OJICUG_clean_linker_0, # of connection points: 2
#     Edge 24, Type (0, 1), BuildingBlock: OJICUG_clean_linker_0, # of connection points: 2
#     Edge 25, Type (0, 1), BuildingBlock: OJICUG_clean_linker_0, # of connection points: 2
#     Edge 26, Type (0, 1), BuildingBlock: OJICUG_clean_linker_0, # of connection points: 2
#     Edge 27, Type (0, 1), BuildingBlock: OJICUG_clean_linker_0, # of connection points: 2
#     Edge 28, Type (0, 1), BuildingBlock: OJICUG_clean_linker_0, # of connection points: 2
#     Edge 29, Type (0, 1), BuildingBlock: OJICUG_clean_linker_0, # of connection points: 2
#     Edge 30, Type (0, 1), BuildingBlock: OJICUG_clean_linker_0, # of connection points: 2
#     Edge 31, Type (0, 1), BuildingBlock: OJICUG_clean_linker_0, # of connection points: 2
#     Edge 32, Type (0, 1), BuildingBlock: OJICUG_clean_linker_0, # of connection points: 2
#     Edge 33, Type (0, 1), BuildingBlock: OJICUG_clean_linker_0, # of connection points: 2
#     Edge 34, Type (0, 1), BuildingBlock: OJICUG_clean_linker_0, # of connection points: 2
#     Edge 35, Type (0, 1), BuildingBlock: OJICUG_clean_linker_0, # of connection points: 2
# Relax obj value: 0.227
# Max RMSD: 0.266
# Mean RMSD: 0.197
data_MOF--net-pyr--node1-BETFAJ_clean_sbu_0--node2-QEWDON_clean_linker_0--edge1-OJICUG_clean_linker_0
_symmetry_space_group_name_H-M    P1
_symmetry_Int_Tables_number       1
_symmetry_cell_setting            triclinic
loop_
_symmetry_equiv_pos_as_xyz
'x, y, z'
_cell_length_a     28.307872
_cell_length_b     31.230996
_cell_length_c     30.039349
_cell_angle_alpha  92.228511
_cell_angle_beta   89.732535
_cell_angle_gamma 111.29718
loop_
_atom_site_label
_atom_site_type_symbol
_atom_site_fract_x
_atom_site_fract_y
_atom_site_fract_z
_atom_type_partial_charge
H0 H 0.49553 0.36748 0.19674 0.0
C1 C 0.47112 0.36073 0.22557 0.0
C2 C 0.45996 0.31916 0.24737 0.0
C3 C 0.44662 0.3913 0.23803 0.0
H4 H 0.41629 0.27712 0.29925 0.0
C5 C 0.42574 0.30942 0.28274 0.0
C6 C 0.40046 0.33908 0.29485 0.0
C7 C 0.41213 0.38058 0.27348 0.0
C8 C 0.45111 0.43086 0.21032 0.0
H9 H 0.39172 0.40303 0.28243 0.0
C10 C 0.40706 0.43822 0.19753 0.0
C11 C 0.40978 0.47565 0.17192 0.0
C12 C 0.49843 0.46096 0.19614 0.0
H13 H 0.53296 0.45595 0.20536 0.0
C14 C 0.50149 0.49838 0.17057 0.0
H15 H 0.37031 0.41483 0.20791 0.0
C16 C 0.45749 0.50598 0.15877 0.0
H17 H 0.46068 0.53521 0.13907 0.0
H18 H 0.53812 0.52171 0.16006 0.0
H19 H 0.15716 0.88392 0.78064 0.0
C20 C 0.18541 0.86881 0.77346 0.0
C21 C 0.21867 0.86677 0.80728 0.0
C22 C 0.19078 0.85462 0.72937 0.0
H23 H 0.28312 0.84762 0.82136 0.0
C24 C 0.25557 0.84778 0.79654 0.0
C25 C 0.26052 0.83261 0.75288 0.0
C26 C 0.22744 0.83534 0.7196 0.0
C27 C 0.16555 0.86794 0.69227 0.0
H28 H 0.23336 0.82643 0.68532 0.0
C29 C 0.16892 0.91384 0.69027 0.0
C30 C 0.15221 0.92911 0.65232 0.0
C31 C 0.14376 0.83696 0.65634 0.0
H32 H 0.14112 0.80151 0.65707 0.0
C33 C 0.12606 0.85184 0.61883 0.0
H34 H 0.18686 0.93834 0.71731 0.0
C35 C 0.13065 0.89778 0.61657 0.0
H36 H 0.11694 0.90876 0.58713 0.0
H37 H 0.10935 0.82785 0.59121 0.0
H38 H 0.74644 0.51095 0.93632 0.0
C39 C 0.73033 0.47502 0.94413 0.0
C40 C 0.75543 0.45681 0.97533 0.0
C41 C 0.68205 0.44823 0.92561 0.0
H42 H 0.74866 0.39474 1.0096 0.0
C43 C 0.73072 0.41006 0.98667 0.0
C44 C 0.68173 0.38285 0.97053 0.0
C45 C 0.65849 0.40241 0.93963 0.0
C46 C 0.64988 0.47021 0.90152 0.0
H47 H 0.62057 0.38235 0.92751 0.0
C48 C 0.65945 0.48976 0.85814 0.0
C49 C 0.62485 0.50833 0.83868 0.0
C50 C 0.60627 0.47032 0.924 0.0
H51 H 0.59773 0.45625 0.95678 0.0
C52 C 0.57307 0.48839 0.90523 0.0
H53 H 0.69273 0.49029 0.83994 0.0
C54 C 0.58213 0.50701 0.86333 0.0
H55 H 0.55522 0.52064 0.84993 0.0
H56 H 0.53981 0.48793 0.92343 0.0
H57 H 0.94103 0.858 0.41307 0.0
C58 C 0.91159 0.83359 0.4321 0.0
C59 C 0.90017 0.84675 0.47561 0.0
C60 C 0.88291 0.79007 0.41122 0.0
H61 H 0.85283 0.82122 0.53238 0.0
C62 C 0.85974 0.81412 0.49801 0.0
C63 C 0.82685 0.77277 0.47706 0.0
C64 C 0.83982 0.76064 0.43388 0.0
C65 C 0.88824 0.78229 0.36154 0.0
H66 H 0.81464 0.72982 0.41651 0.0
C67 C 0.91367 0.75423 0.34096 0.0
C68 C 0.91686 0.75024 0.29309 0.0
C69 C 0.8659 0.80481 0.33377 0.0
H70 H 0.84628 0.82607 0.34801 0.0
C71 C 0.86781 0.80018 0.28766 0.0
H72 H 0.93135 0.73665 0.36175 0.0
C73 C 0.89261 0.77339 0.26767 0.0
H74 H 0.89208 0.77041 0.23163 0.0
H75 H 0.84968 0.81755 0.26705 0.0
H76 H 0.66382 0.77836 0.99457 0.0
C77 C 0.67697 0.79394 0.96302 0.0
C78 C 0.72109 0.79077 0.94392 0.0
C79 C 0.65136 0.81916 0.94235 0.0
H80 H 0.77541 0.81356 0.89146 0.0
C81 C 0.73942 0.81317 0.90436 0.0
C82 C 0.71502 0.83914 0.88399 0.0
C83 C 0.67024 0.84088 0.90246 0.0
C84 C 0.60765 0.82666 0.96397 0.0
H85 H 0.65106 0.86069 0.88656 0.0
C86 C 0.60561 0.87107 0.96646 0.0
C87 C 0.56448 0.87916 0.98639 0.0
C88 C 0.56798 0.79008 0.98195 0.0
H89 H 0.56856 0.75557 0.98033 0.0
C90 C 0.5267 0.79772 1.00151 0.0
H91 H 0.63638 0.89954 0.95302 0.0
C92 C 0.52482 0.84187 1.00373 0.0
H93 H 0.49291 0.84695 1.01994 0.0
H94 H 0.49614 0.76933 1.01521 0.0
H95 H 0.82711 0.22884 0.58735 0.0
C96 C 0.81568 0.22895 0.553 0.0
C97 C 0.84442 0.21868 0.51914 0.0
C98 C 0.77102 0.23656 0.54275 0.0
H99 H 0.85211 0.20864 0.44894 0.0
C100 C 0.8305 0.2184 0.47466 0.0
C101 C 0.78727 0.22756 0.46338 0.0
C102 C 0.75734 0.23613 0.49756 0.0
C103 C 0.73736 0.24222 0.57906 0.0
H104 H 0.7227 0.24112 0.48879 0.0
C105 C 0.70878 0.27025 0.5736 0.0
C106 C 0.67558 0.27449 0.60686 0.0
C107 C 0.73245 0.21878 0.61902 0.0
H108 H 0.75255 0.19577 0.6242 0.0
C109 C 0.70048 0.22396 0.65268 0.0
H110 H 0.71268 0.28949 0.54368 0.0
C111 C 0.67216 0.25176 0.64676 0.0
H112 H 0.64689 0.25478 0.67286 0.0
H113 H 0.69713 0.20585 0.68323 0.0
H114 H 0.47421 0.88203 0.27645 0.0
C115 C 0.43713 0.85974 0.26429 0.0
C116 C 0.41332 0.87585 0.23071 0.0
C117 C 0.4158 0.81416 0.28025 0.0
H118 H 0.34753 0.85715 0.18836 0.0
C119 C 0.36577 0.8455 0.21429 0.0
C120 C 0.34176 0.80038 0.22982 0.0
C121 C 0.36762 0.78518 0.26292 0.0
C122 C 0.4494 0.79563 0.3075 0.0
H123 H 0.35121 0.75039 0.27419 0.0
C124 C 0.43577 0.77021 0.34784 0.0
C125 C 0.472 0.7556 0.3705 0.0
C126 C 0.49853 0.80444 0.291 0.0
H127 H 0.51043 0.82231 0.26033 0.0
C128 C 0.53323 0.79033 0.31284 0.0
H129 H 0.39817 0.76226 0.36136 0.0
C130 C 0.52032 0.76653 0.3519 0.0
H131 H 0.54862 0.75621 0.36777 0.0
H132 H 0.57072 0.79785 0.29917 0.0
H133 H 0.27933 0.52201 0.79315 0.0
C134 C 0.25769 0.48938 0.77653 0.0
C135 C 0.27267 0.47831 0.73346 0.0
C136 C 0.21596 0.45742 0.79885 0.0
H137 H 0.25918 0.42466 0.6825 0.0
C138 C 0.24586 0.43413 0.71384 0.0
C139 C 0.20447 0.40116 0.73476 0.0
C140 C 0.18959 0.41397 0.77679 0.0
C141 C 0.20601 0.46281 0.8484 0.0
H142 H 0.15813 0.38922 0.79364 0.0
C143 C 0.1907 0.49788 0.86988 0.0
C144 C 0.17795 0.49619 0.91677 0.0
C145 C 0.20971 0.42802 0.87481 0.0
H146 H 0.22193 0.40141 0.86046 0.0
C147 C 0.19646 0.42558 0.91936 0.0
H148 H 0.18821 0.5254 0.85037 0.0
C149 C 0.17994 0.45823 0.93967 0.0
H150 H 0.1678 0.45261 0.97381 0.0
H151 H 0.1982 0.3974 0.93834 0.0
Sm152 Sm 0.08833 0.13908 0.56694 0.0
Sm153 Sm 1.02589 0.10635 0.64752 0.0
C154 C 0.12231 0.16356 0.48624 0.0
C155 C 0.1556 0.20313 0.46235 0.0
C156 C 0.14383 0.2078 0.41806 0.0
C157 C 0.17976 0.23869 0.39148 0.0
C158 C 0.22816 0.26496 0.40879 0.0
C159 C 0.23807 0.2634 0.45436 0.0
C160 C 0.20192 0.23264 0.48105 0.0
C161 C 0.13164 0.0996 0.62722 0.0
C162 C 0.1113 0.21418 0.64955 0.0
C163 C 0.98422 0.07957 0.72534 0.0
C164 C 0.93932 0.04174 0.74104 0.0
C165 C 0.9444 1.00208 0.75731 0.0
C166 C 0.90226 0.96671 0.7731 0.0
C167 C 0.85424 0.97044 0.77324 0.0
C168 C 0.84899 1.00981 0.75643 0.0
C169 C 0.8911 0.04514 0.74055 0.0
C170 C 0.97916 0.13749 0.58439 0.0
C171 C 1.00269 1.03127 0.56359 0.0
O172 O 0.07913 0.16482 0.50057 0.0
O173 O 0.14445 0.14554 0.5141 0.0
O174 O 0.0858 0.08589 0.61591 0.0
O175 O 0.15764 0.13523 0.60479 0.0
O176 O 0.11522 0.20917 0.60593 0.0
O177 O 0.0851 0.17813 0.67312 0.0
O178 O 1.02169 0.0686 0.70946 0.0
O179 O 0.97553 0.1108 0.70252 0.0
O180 O 1.02463 0.15727 0.59695 0.0
O181 O 0.95659 0.10034 0.60573 0.0
O182 O 0.99517 1.03678 0.6067 0.0
O183 O 0.0333 0.06608 0.54099 0.0
H184 H 0.10806 0.18556 0.40326 0.0
H185 H 0.17088 0.23987 0.35661 0.0
H186 H 0.27506 0.28317 0.46856 0.0
H187 H 0.21145 0.22984 0.51543 0.0
H188 H 0.9811 0.99863 0.75846 0.0
H189 H 0.90765 0.93718 0.78671 0.0
H190 H 0.81241 1.01352 0.75606 0.0
H191 H 0.88584 0.0753 0.72834 0.0
Sm192 Sm 0.58779 0.13146 0.11147 0.0
Sm193 Sm 0.49576 0.1186 0.07239 0.0
C194 C 0.68132 0.1546 0.14243 0.0
C195 C 0.70193 0.16483 0.18814 0.0
C196 C 0.73796 0.20844 0.19938 0.0
C197 C 0.75224 0.22121 0.24381 0.0
C198 C 0.73089 0.19042 0.27775 0.0
C199 C 0.69627 0.14613 0.26613 0.0
C200 C 0.6817 0.13354 0.22184 0.0
C201 C 0.5116 0.05962 0.15335 0.0
C202 C 0.51894 0.17877 0.16094 0.0
C203 C 0.40671 0.09773 0.03221 0.0
C204 C 0.36684 0.06105 1.00698 0.0
C205 C 0.34021 1.01792 1.02454 0.0
C206 C 0.30361 0.98375 0.99852 0.0
C207 C 0.29335 0.99215 0.95454 0.0
C208 C 0.31954 1.03587 0.9378 0.0
C209 C 0.35545 0.0699 0.96382 0.0
C210 C 0.56741 0.20488 0.05156 0.0
C211 C 0.55774 0.05793 1.02959 0.0
O212 O 0.66346 0.18439 0.1273 0.0
O213 O 0.65225 0.11209 0.1324 0.0
O214 O 0.51532 0.06591 0.11184 0.0
O215 O 0.54679 0.09337 0.17403 0.0
O216 O 0.56582 0.18692 0.14876 0.0
O217 O 0.48248 0.14382 0.14203 0.0
O218 O 0.41158 0.09324 0.07491 0.0
O219 O 0.45009 0.11593 1.01209 0.0
O220 O 0.57524 0.16721 0.05002 0.0
O221 O 0.52247 0.19746 0.06656 0.0
O222 O 0.51286 0.06116 0.03342 0.0
O223 O 0.59664 0.08698 0.05203 0.0
H224 H 0.75366 0.23324 0.17394 0.0
H225 H 0.77878 0.25567 0.25166 0.0
H226 H 0.68004 0.1212 0.29133 0.0
H227 H 0.65356 0.09972 0.21429 0.0
H228 H 0.34809 1.01036 0.05797 0.0
H229 H 0.28394 0.95065 1.01264 0.0
H230 H 0.31398 0.04353 0.90382 0.0
H231 H 0.37535 0.10302 0.94972 0.0
Sm232 Sm 0.53545 0.58717 0.57623 0.0
Sm233 Sm 0.55674 0.66663 0.62637 0.0
C234 C 0.53893 0.51393 0.53093 0.0
C235 C 0.5458 0.47141 0.5421 0.0
C236 C 0.56617 0.44938 0.51025 0.0
C237 C 0.5801 0.41284 0.52203 0.0
C238 C 0.57377 0.3977 0.56596 0.0
C239 C 0.55143 0.41886 0.59742 0.0
C240 C 0.53769 0.4556 0.58559 0.0
C241 C 0.4505 0.58131 0.62704 0.0
C242 C 0.58935 0.59077 0.67592 0.0
C243 C 0.55485 0.73986 0.67308 0.0
C244 C 0.51662 0.76051 0.6815 0.0
C245 C 0.47963 0.75708 0.64922 0.0
C246 C 0.43922 0.77096 0.65985 0.0
C247 C 0.43499 0.78814 0.70303 0.0
C248 C 0.47304 0.79282 0.73483 0.0
C249 C 0.51355 0.7791 0.72409 0.0
C250 C 0.64209 0.67161 0.57645 0.0
C251 C 0.50214 0.66235 0.52794 0.0
O252 O 0.57853 0.55128 0.53864 0.0
O253 O 0.49658 0.51832 0.54326 0.0
O254 O 0.49612 0.59693 0.64098 0.0
O255 O 0.4495 0.57113 0.58465 0.0
O256 O 0.57458 0.56745 0.63751 0.0
O257 O 0.58568 0.63152 0.68104 0.0
O258 O 0.54447 0.69965 0.68977 0.0
O259 O 0.57267 0.74182 0.63278 0.0
O260 O 0.59659 0.65662 0.56228 0.0
O261 O 0.64259 0.68336 0.61833 0.0
O262 O 0.50601 0.67927 0.56952 0.0
O263 O 0.51675 0.62732 0.51978 0.0
H264 H 0.57324 0.46166 0.47671 0.0
H265 H 0.59803 0.39795 0.49717 0.0
H266 H 0.54556 0.40771 0.63136 0.0
H267 H 0.52228 0.47257 0.6107 0.0
H268 H 0.48113 0.74253 0.61619 0.0
H269 H 0.41093 0.76766 0.63446 0.0
H270 H 0.47056 0.80546 0.76851 0.0
H271 H 0.54148 0.78141 0.74954 0.0
Sm272 Sm 0.04891 0.58446 0.13044 0.0
Sm273 Sm 0.05072 0.67044 0.07355 0.0
C274 C 0.07278 0.51403 0.15266 0.0
C275 C 0.12186 0.50709 0.15331 0.0
C276 C 0.13486 0.48245 0.11821 0.0
C277 C 0.18259 0.4786 0.11732 0.0
C278 C 0.21827 0.4993 0.15153 0.0
C279 C 0.20499 0.52337 0.18686 0.0
C280 C 0.15737 0.52714 0.18782 0.0
C281 C 1.00229 0.63626 0.17987 0.0
C282 C 0.14819 0.68427 0.14108 0.0
C283 C 0.02913 0.74079 0.04657 0.0
C284 C 0.98121 0.74761 0.03771 0.0
C285 C 0.94118 0.73528 0.06841 0.0
C286 C 0.89426 0.73767 0.05713 0.0
C287 C 0.88644 0.75153 1.01475 0.0
C288 C 0.92684 0.76467 0.98458 0.0
C289 C 0.97377 0.7629 0.99603 0.0
C290 C 0.0987 0.61852 1.02563 0.0
C291 C 0.95047 0.57098 0.06392 0.0
O292 O 0.05416 0.51643 0.11333 0.0
O293 O 0.06764 0.54421 0.18194 0.0
O294 O 1.02117 0.64342 0.141 0.0
O295 O 1.00562 0.59813 0.19271 0.0
O296 O 0.12948 0.63917 0.14678 0.0
O297 O 0.12415 0.70467 0.11647 0.0
O298 O 0.04029 0.73676 0.08808 0.0
O299 O 0.03885 0.71157 1.01916 0.0
O300 O 0.07923 0.61226 0.06414 0.0
O301 O 0.09435 0.6557 1.01148 0.0
O302 O 0.97095 0.61546 0.05561 0.0
O303 O 0.97304 0.55091 0.09047 0.0
H304 H 0.10841 0.4667 0.09109 0.0
H305 H 0.19183 0.45997 0.08956 0.0
H306 H 0.23124 0.53891 0.21417 0.0
H307 H 0.14871 0.54623 0.21551 0.0
H308 H 0.9457 0.72283 0.10067 0.0
H309 H 0.86371 0.72746 0.08096 0.0
H310 H 0.92208 0.77627 0.95195 0.0
H311 H 1.00398 0.77241 0.97183 0.0
C312 C 0.31794 0.27959 0.31303 0.0
C313 C 0.35569 0.32243 0.3237 0.0
H314 H 0.24832 0.22822 0.33148 0.0
C315 C 0.3498 0.34838 0.36107 0.0
H316 H 0.32127 0.2593 0.28391 0.0
C317 C 0.30749 0.33058 0.38848 0.0
C318 C 0.27028 0.28711 0.37817 0.0
H319 H 0.3784 0.3817 0.3696 0.0
H320 H 0.30409 0.35045 0.41786 0.0
C321 C 0.27577 0.26215 0.3399 0.0
C322 C 0.21543 0.93472 0.85286 0.0
C323 C 0.22228 0.89227 0.85092 0.0
H324 H 0.22987 0.99865 0.88857 0.0
C325 C 0.24164 0.87899 0.88893 0.0
H326 H 0.20041 0.94648 0.82472 0.0
C327 C 0.26109 0.9102 0.92485 0.0
C328 C 0.26005 0.95482 0.92405 0.0
H329 H 0.24557 0.84579 0.88951 0.0
H330 H 0.28063 0.90048 0.95124 0.0
C331 C 0.23337 0.96529 0.88935 0.0
C332 C 0.61247 0.50382 0.75401 0.0
C333 C 0.63006 0.5305 0.7938 0.0
H334 H 0.58642 0.50117 0.68605 0.0
C335 C 0.63796 0.57775 0.79262 0.0
H336 H 0.60398 0.46709 0.75372 0.0
C337 C 0.62691 0.59722 0.75415 0.0
C338 C 0.60719 0.57033 0.7149 0.0
H339 H 0.6498 0.59933 0.82269 0.0
H340 H 0.63199 0.63332 0.7559 0.0
C341 C 0.60163 0.52342 0.71518 0.0
C342 C 0.96944 0.73888 0.22705 0.0
C343 C 0.94374 0.72254 0.26729 0.0
H344 H 1.00695 0.72562 0.16843 0.0
C345 C 0.93942 0.67793 0.27867 0.0
H346 H 0.97486 0.77322 0.21692 0.0
C347 C 0.95831 0.65051 0.25031 0.0
C348 C 0.98215 0.6664 0.20934 0.0
H349 H 0.91984 0.66349 0.30875 0.0
H350 H 0.95348 0.61624 0.26031 0.0
C351 C 0.98793 0.7114 0.19869 0.0
C352 C 0.52758 0.29246 0.2159 0.0
C353 C 0.47724 0.28259 0.22917 0.0
H354 H 0.58077 0.26678 0.1848 0.0
C355 C 0.44204 0.23737 0.22312 0.0
H356 H 0.55546 0.32695 0.22035 0.0
C357 C 0.45637 0.20307 0.20305 0.0
C358 C 0.50624 0.21314 0.18851 0.0
H359 H 0.40271 0.22878 0.23234 0.0
H360 H 0.42787 0.169 0.19759 0.0
C361 C 0.54207 0.25791 0.19598 0.0
C362 C 0.13587 0.99742 0.684 0.0
C363 C 0.15672 0.97761 0.65024 0.0
H364 H 0.11264 0.0535 0.70328 0.0
C365 C 0.17882 1.00337 0.61322 0.0
H366 H 0.11864 0.97816 0.71285 0.0
C367 C 0.17685 0.04704 0.60853 0.0
C368 C 0.15197 0.06503 0.64041 0.0
H369 H 0.19557 0.98887 0.58703 0.0
H370 H 0.19054 0.06475 0.57806 0.0
C371 C 0.13296 0.04062 0.67883 0.0
C372 C 0.82037 0.47573 0.04008 0.0
C373 C 0.80567 0.48673 0.9982 0.0
H374 H 0.87632 0.49219 0.09267 0.0
C375 C 0.83967 0.52691 0.97907 0.0
H376 H 0.79575 0.44667 0.05779 0.0
C377 C 0.88567 0.5544 1.00062 0.0
C378 C 0.90041 0.54241 0.04171 0.0
H379 H 0.83144 0.53718 0.94694 0.0
H380 H 0.91036 0.5847 0.98441 0.0
C381 C 0.86695 0.50247 0.06089 0.0
C382 C 0.75355 0.69698 0.49462 0.0
C383 C 0.7774 0.74534 0.49995 0.0
H384 H 0.69208 0.63562 0.51396 0.0
C385 C 0.75339 0.76826 0.52837 0.0
H386 H 0.7701 0.67764 0.47319 0.0
C387 C 0.70966 0.74413 0.55224 0.0
C388 C 0.68677 0.69606 0.54787 0.0
H389 H 0.76827 0.80537 0.53248 0.0
H390 H 0.69354 0.76335 0.57434 0.0
C391 C 0.70871 0.67272 0.5181 0.0
C392 C 0.3591 0.52669 0.16875 0.0
C393 C 0.36254 0.48332 0.16086 0.0
H394 H 0.3107 0.56585 0.17165 0.0
C395 C 0.31916 0.44624 0.14614 0.0
H396 H 0.39186 0.55582 0.1803 0.0
C397 C 0.27272 0.45186 0.14142 0.0
C398 C 0.26864 0.49465 0.15153 0.0
H399 H 0.32088 0.4125 0.13939 0.0
H400 H 0.2396 0.42219 0.13171 0.0
C401 C 0.31255 0.53227 0.16426 0.0
C402 C 0.67606 0.30348 0.99732 0.0
C403 C 0.65289 0.33584 0.98936 0.0
H404 H 0.66801 0.23697 1.02208 0.0
C405 C 0.60173 0.32373 1.00171 0.0
H406 H 0.71531 0.31113 0.98843 0.0
C407 C 0.57505 0.28166 1.02153 0.0
C408 C 0.59785 0.24921 1.02938 0.0
H409 H 0.58236 0.34746 0.99715 0.0
H410 H 0.53602 0.27462 1.03085 0.0
C411 C 0.64886 0.2607 1.01658 0.0
C412 C 0.97632 0.92412 0.48483 0.0
C413 C 0.92723 0.8949 0.49735 0.0
H414 H 0.03797 0.98941 0.49486 0.0
C415 C 0.90352 0.91273 0.53126 0.0
H416 H 0.99686 0.91283 0.45941 0.0
C417 C 0.92815 0.95608 0.55275 0.0
C418 C 0.97685 0.98483 0.54022 0.0
H419 H 0.86514 0.89375 0.54135 0.0
H420 H 0.90833 0.96757 0.57875 0.0
C421 C 1.00032 0.9684 0.50547 0.0
C422 C 0.35356 0.84895 0.75529 0.0
C423 C 0.30478 0.82034 0.74077 0.0
H424 H 0.433 0.86177 0.75392 0.0
C425 C 0.29903 0.78145 0.7132 0.0
H426 H 0.35917 0.87981 0.77569 0.0
C427 C 0.34135 0.77105 0.70077 0.0
C428 C 0.39019 0.79962 0.71541 0.0
H429 H 0.26177 0.75891 0.70162 0.0
H430 H 0.33573 0.74028 0.68024 0.0
C431 C 0.39582 0.83871 0.74272 0.0
C432 C 0.7465 0.91686 0.85183 0.0
C433 C 0.74143 0.87038 0.84846 0.0
H434 H 0.78653 0.98499 0.83077 0.0
C435 C 0.76843 0.85612 0.81539 0.0
H436 H 0.72676 0.92909 0.87733 0.0
C437 C 0.80307 0.88834 0.78884 0.0
C438 C 0.81107 0.9353 0.79477 0.0
H439 H 0.76469 0.82039 0.81165 0.0
H440 H 0.82514 0.87678 0.76498 0.0
C441 C 0.78096 0.949 0.82521 0.0
C442 C 0.7208 0.1992 0.40332 0.0
C443 C 0.77149 0.2235 0.41596 0.0
H444 H 0.66807 0.17047 0.3497 0.0
C445 C 0.80801 0.24007 0.38268 0.0
H446 H 0.69183 0.18568 0.42811 0.0
C447 C 0.79467 0.23033 0.33777 0.0
C448 C 0.74441 0.20416 0.32516 0.0
H449 H 0.8473 0.25944 0.39143 0.0
H450 H 0.82415 0.24186 0.31308 0.0
C451 C 0.70737 0.1898 0.35838 0.0
C452 C 0.46365 0.68286 0.40959 0.0
C453 C 0.46352 0.72808 0.41259 0.0
H454 H 0.47537 0.6273 0.44212 0.0
C455 C 0.47188 0.75003 0.45546 0.0
H456 H 0.45929 0.66513 0.37727 0.0
C457 C 0.48156 0.72818 0.49329 0.0
C458 C 0.48434 0.68381 0.48956 0.0
H459 H 0.47425 0.78538 0.45929 0.0
H460 H 0.48969 0.74719 0.52501 0.0
C461 C 0.47377 0.66128 0.44704 0.0
C462 C 0.16713 0.53627 0.99087 0.0
C463 C 0.16084 0.53104 0.94362 0.0
H464 H 0.15131 0.56501 0.05317 0.0
C465 C 0.13513 0.55693 0.92419 0.0
H466 H 0.18876 0.5197 1.00822 0.0
C467 C 0.11555 0.58522 0.95077 0.0
C468 C 0.11958 0.58789 0.99791 0.0
H469 H 0.12903 0.55469 0.88851 0.0
H470 H 0.09605 0.60438 0.93431 0.0
C471 C 0.14591 0.56297 1.01735 0.0
C472 C 0.60871 0.96387 1.00303 0.0
C473 C 0.56415 0.92669 0.9909 0.0
H474 H 0.64201 1.03489 1.02358 0.0
C475 C 0.51902 0.93504 0.98529 0.0
H476 H 0.6441 0.95871 1.00792 0.0
C477 C 0.51779 0.9789 0.99429 0.0
C478 C 0.56168 1.01536 1.00928 0.0
H479 H 0.48426 0.90737 0.97507 0.0
H480 H 0.48182 0.98354 0.99177 0.0
C481 C 0.6075 1.00769 1.012 0.0
C482 C 0.92825 0.22771 0.55255 0.0
C483 C 0.88337 0.2002 0.53044 0.0
H484 H 0.99565 0.22913 0.58596 0.0
C485 C 0.87324 0.15325 0.52197 0.0
H486 H 0.93634 0.26402 0.55931 0.0
C487 C 0.9062 0.1333 0.53776 0.0
C488 C 0.95016 0.1603 0.56131 0.0
H489 H 0.83854 0.1316 0.50508 0.0
H490 H 0.89649 0.09651 0.53291 0.0
C491 C 0.96203 0.20789 0.56741 0.0
C492 C 0.25597 0.78842 0.19333 0.0
C493 C 0.29087 0.76946 0.20924 0.0
H494 H 0.1857 0.77764 0.15938 0.0
C495 C 0.27718 0.72132 0.20309 0.0
H496 H 0.26323 0.82476 0.19824 0.0
C497 C 0.23125 0.69376 0.18134 0.0
C498 C 0.1975 0.71329 0.16431 0.0
H499 H 0.30243 0.7048 0.21413 0.0
H500 H 0.2226 0.65708 0.17725 0.0
C501 C 0.21076 0.76111 0.17096 0.0
C502 C 0.31379 0.51426 0.66181 0.0
C503 C 0.31744 0.5107 0.7083 0.0
H504 H 0.35154 0.53897 0.60062 0.0
C505 C 0.36525 0.53445 0.7286 0.0
H506 H 0.27786 0.49719 0.64469 0.0
C507 C 0.40819 0.55879 0.70288 0.0
C508 C 0.4046 0.56033 0.65608 0.0
H509 H 0.37006 0.5325 0.76411 0.0
H510 H 0.44455 0.57511 0.71951 0.0
C511 C 0.35634 0.53847 0.63633 0.0
C512 C 0.77106 0.78543 1.01068 0.0
C513 C 0.75317 0.7701 0.96716 0.0
H514 H 0.82796 0.7915 0.0601 0.0
C515 C 0.77426 0.7423 0.94269 0.0
H516 H 0.75577 0.80727 1.03008 0.0
C517 C 0.81571 0.73386 0.95952 0.0
C518 C 0.83667 0.75274 1.00131 0.0
H519 H 0.76088 0.72979 0.90918 0.0
H520 H 0.83304 0.71449 0.93889 0.0
C521 C 0.81254 0.77669 1.02772 0.0
C522 C 0.46834 0.9623 0.23744 0.0
C523 C 0.43855 0.92339 0.21111 0.0
H524 H 0.51363 1.0348 0.24068 0.0
C525 C 0.43286 0.9306 0.16546 0.0
H526 H 0.47373 0.95909 0.27263 0.0
C527 C 0.45559 0.9744 0.14714 0.0
C528 C 0.48518 1.01311 0.17352 0.0
H529 H 0.41145 0.90207 0.14327 0.0
H530 H 0.45039 0.97778 0.11192 0.0
C531 C 0.49106 1.00618 0.21906 0.0
C532 C 0.15877 0.31337 0.73897 0.0
C533 C 0.17895 0.35294 0.71331 0.0
H534 H 0.12226 0.23959 0.73983 0.0
C535 C 0.17603 0.34562 0.66647 0.0
H536 H 0.16052 0.3166 0.77498 0.0
C537 C 0.1549 0.30108 0.64632 0.0
C538 C 0.13506 0.26166 0.67192 0.0
H539 H 0.18971 0.37446 0.64491 0.0
H540 H 0.15369 0.29771 0.61027 0.0
C541 C 0.13708 0.26871 0.71869 0.0
C542 C 0.64506 0.33767 0.63003 0.0
C543 C 0.64453 0.30261 0.5992 0.0
H544 H 0.62368 0.39586 0.64339 0.0
C545 C 0.61655 0.29618 0.55944 0.0
H546 H 0.66661 0.34331 0.66083 0.0
C547 C 0.5913 0.32561 0.54971 0.0
C548 C 0.5941 0.36245 0.57929 0.0
H549 H 0.61501 0.26883 0.5355 0.0
H550 H 0.57056 0.32013 0.51849 0.0
C551 C 0.62026 0.36753 0.62007 0.0
loop_
_geom_bond_atom_site_label_1
_geom_bond_atom_site_label_2
_geom_bond_distance
_geom_bond_site_symmetry_2
_ccdc_geom_bond_type
H0 C1 0.949 . S
C1 H0 0.949 . S
C1 C2 1.395 . S
C1 C3 1.391 . S
C2 C1 1.395 . S
C2 C5 1.390 . S
C3 C1 1.391 . S
C3 C7 1.387 . S
C3 C8 1.491 . S
H4 C5 0.950 . S
C5 C2 1.390 . S
C5 H4 0.950 . S
C5 C6 1.378 . S
C6 C5 1.378 . S
C6 C7 1.409 . S
C7 C3 1.387 . S
C7 C6 1.409 . S
C7 H9 0.951 . S
C8 C3 1.491 . S
C8 C10 1.382 . S
C8 C12 1.404 . S
H9 C7 0.951 . S
C10 C8 1.382 . S
C10 C11 1.390 . S
C10 H15 0.949 . S
C11 C10 1.390 . S
C11 C16 1.399 . S
C12 C8 1.404 . S
C12 H13 0.950 . S
C12 C14 1.375 . S
H13 C12 0.950 . S
C14 C12 1.375 . S
C14 C16 1.382 . S
C14 H18 0.950 . S
H15 C10 0.949 . S
C16 C11 1.399 . S
C16 C14 1.382 . S
C16 H17 0.952 . S
H17 C16 0.952 . S
H18 C14 0.950 . S
H19 C20 0.949 . S
C20 H19 0.949 . S
C20 C21 1.395 . S
C20 C22 1.391 . S
C21 C20 1.395 . S
C21 C24 1.390 . S
C22 C20 1.391 . S
C22 C26 1.387 . S
C22 C27 1.491 . S
H23 C24 0.950 . S
C24 C21 1.390 . S
C24 H23 0.950 . S
C24 C25 1.378 . S
C25 C24 1.378 . S
C25 C26 1.409 . S
C26 C22 1.387 . S
C26 C25 1.409 . S
C26 H28 0.951 . S
C27 C22 1.491 . S
C27 C29 1.382 . S
C27 C31 1.404 . S
H28 C26 0.951 . S
C29 C27 1.382 . S
C29 C30 1.390 . S
C29 H34 0.949 . S
C30 C29 1.390 . S
C30 C35 1.399 . S
C31 C27 1.404 . S
C31 H32 0.950 . S
C31 C33 1.375 . S
H32 C31 0.950 . S
C33 C31 1.375 . S
C33 C35 1.382 . S
C33 H37 0.950 . S
H34 C29 0.949 . S
C35 C30 1.399 . S
C35 C33 1.382 . S
C35 H36 0.952 . S
H36 C35 0.952 . S
H37 C33 0.950 . S
H38 C39 0.949 . S
C39 H38 0.949 . S
C39 C40 1.395 . S
C39 C41 1.391 . S
C40 C39 1.395 . S
C40 C43 1.390 . S
C41 C39 1.391 . S
C41 C45 1.387 . S
C41 C46 1.491 . S
H42 C43 0.950 . S
C43 C40 1.390 . S
C43 H42 0.950 . S
C43 C44 1.378 . S
C44 C43 1.378 . S
C44 C45 1.409 . S
C45 C41 1.387 . S
C45 C44 1.409 . S
C45 H47 0.951 . S
C46 C41 1.491 . S
C46 C48 1.382 . S
C46 C50 1.404 . S
H47 C45 0.951 . S
C48 C46 1.382 . S
C48 C49 1.390 . S
C48 H53 0.949 . S
C49 C48 1.390 . S
C49 C54 1.399 . S
C50 C46 1.404 . S
C50 H51 0.950 . S
C50 C52 1.375 . S
H51 C50 0.950 . S
C52 C50 1.375 . S
C52 C54 1.382 . S
C52 H56 0.950 . S
H53 C48 0.949 . S
C54 C49 1.399 . S
C54 C52 1.382 . S
C54 H55 0.952 . S
H55 C54 0.952 . S
H56 C52 0.950 . S
H57 C58 0.949 . S
C58 H57 0.949 . S
C58 C59 1.395 . S
C58 C60 1.391 . S
C59 C58 1.395 . S
C59 C62 1.390 . S
C60 C58 1.391 . S
C60 C64 1.387 . S
C60 C65 1.491 . S
H61 C62 0.950 . S
C62 C59 1.390 . S
C62 H61 0.950 . S
C62 C63 1.378 . S
C63 C62 1.378 . S
C63 C64 1.409 . S
C64 C60 1.387 . S
C64 C63 1.409 . S
C64 H66 0.951 . S
C65 C60 1.491 . S
C65 C67 1.382 . S
C65 C69 1.404 . S
H66 C64 0.951 . S
C67 C65 1.382 . S
C67 C68 1.390 . S
C67 H72 0.949 . S
C68 C67 1.390 . S
C68 C73 1.399 . S
C69 C65 1.404 . S
C69 H70 0.950 . S
C69 C71 1.375 . S
H70 C69 0.950 . S
C71 C69 1.375 . S
C71 C73 1.382 . S
C71 H75 0.950 . S
H72 C67 0.949 . S
C73 C68 1.399 . S
C73 C71 1.382 . S
C73 H74 0.952 . S
H74 C73 0.952 . S
H75 C71 0.950 . S
H76 C77 0.949 . S
C77 H76 0.949 . S
C77 C78 1.395 . S
C77 C79 1.391 . S
C78 C77 1.395 . S
C78 C81 1.390 . S
C79 C77 1.391 . S
C79 C83 1.387 . S
C79 C84 1.491 . S
H80 C81 0.950 . S
C81 C78 1.390 . S
C81 H80 0.950 . S
C81 C82 1.378 . S
C82 C81 1.378 . S
C82 C83 1.409 . S
C83 C79 1.387 . S
C83 C82 1.409 . S
C83 H85 0.951 . S
C84 C79 1.491 . S
C84 C86 1.382 . S
C84 C88 1.404 . S
H85 C83 0.951 . S
C86 C84 1.382 . S
C86 C87 1.390 . S
C86 H91 0.949 . S
C87 C86 1.390 . S
C87 C92 1.399 . S
C88 C84 1.404 . S
C88 H89 0.950 . S
C88 C90 1.375 . S
H89 C88 0.950 . S
C90 C88 1.375 . S
C90 C92 1.382 . S
C90 H94 0.950 . S
H91 C86 0.949 . S
C92 C87 1.399 . S
C92 C90 1.382 . S
C92 H93 0.952 . S
H93 C92 0.952 . S
H94 C90 0.950 . S
H95 C96 0.949 . S
C96 H95 0.949 . S
C96 C97 1.395 . S
C96 C98 1.391 . S
C97 C96 1.395 . S
C97 C100 1.390 . S
C98 C96 1.391 . S
C98 C102 1.387 . S
C98 C103 1.491 . S
H99 C100 0.950 . S
C100 C97 1.390 . S
C100 H99 0.950 . S
C100 C101 1.378 . S
C101 C100 1.378 . S
C101 C102 1.409 . S
C102 C98 1.387 . S
C102 C101 1.409 . S
C102 H104 0.951 . S
C103 C98 1.491 . S
C103 C105 1.382 . S
C103 C107 1.404 . S
H104 C102 0.951 . S
C105 C103 1.382 . S
C105 C106 1.390 . S
C105 H110 0.949 . S
C106 C105 1.390 . S
C106 C111 1.399 . S
C107 C103 1.404 . S
C107 H108 0.950 . S
C107 C109 1.375 . S
H108 C107 0.950 . S
C109 C107 1.375 . S
C109 C111 1.382 . S
C109 H113 0.950 . S
H110 C105 0.949 . S
C111 C106 1.399 . S
C111 C109 1.382 . S
C111 H112 0.952 . S
H112 C111 0.952 . S
H113 C109 0.950 . S
H114 C115 0.949 . S
C115 H114 0.949 . S
C115 C116 1.395 . S
C115 C117 1.391 . S
C116 C115 1.395 . S
C116 C119 1.390 . S
C117 C115 1.391 . S
C117 C121 1.387 . S
C117 C122 1.491 . S
H118 C119 0.950 . S
C119 C116 1.390 . S
C119 H118 0.950 . S
C119 C120 1.378 . S
C120 C119 1.378 . S
C120 C121 1.409 . S
C121 C117 1.387 . S
C121 C120 1.409 . S
C121 H123 0.951 . S
C122 C117 1.491 . S
C122 C124 1.382 . S
C122 C126 1.404 . S
H123 C121 0.951 . S
C124 C122 1.382 . S
C124 C125 1.390 . S
C124 H129 0.949 . S
C125 C124 1.390 . S
C125 C130 1.399 . S
C126 C122 1.404 . S
C126 H127 0.950 . S
C126 C128 1.375 . S
H127 C126 0.950 . S
C128 C126 1.375 . S
C128 C130 1.382 . S
C128 H132 0.950 . S
H129 C124 0.949 . S
C130 C125 1.399 . S
C130 C128 1.382 . S
C130 H131 0.952 . S
H131 C130 0.952 . S
H132 C128 0.950 . S
H133 C134 0.949 . S
C134 H133 0.949 . S
C134 C135 1.395 . S
C134 C136 1.391 . S
C135 C134 1.395 . S
C135 C138 1.390 . S
C136 C134 1.391 . S
C136 C140 1.387 . S
C136 C141 1.491 . S
H137 C138 0.950 . S
C138 C135 1.390 . S
C138 H137 0.950 . S
C138 C139 1.378 . S
C139 C138 1.378 . S
C139 C140 1.409 . S
C140 C136 1.387 . S
C140 C139 1.409 . S
C140 H142 0.951 . S
C141 C136 1.491 . S
C141 C143 1.382 . S
C141 C145 1.404 . S
H142 C140 0.951 . S
C143 C141 1.382 . S
C143 C144 1.390 . S
C143 H148 0.949 . S
C144 C143 1.390 . S
C144 C149 1.399 . S
C145 C141 1.404 . S
C145 H146 0.950 . S
C145 C147 1.375 . S
H146 C145 0.950 . S
C147 C145 1.375 . S
C147 C149 1.382 . S
C147 H151 0.950 . S
H148 C143 0.949 . S
C149 C144 1.399 . S
C149 C147 1.382 . S
C149 H150 0.952 . S
H150 C149 0.952 . S
H151 C147 0.950 . S
Sm152 C154 2.846 . S
Sm152 O172 2.543 . S
Sm152 O173 2.450 . S
Sm152 O174 2.681 . S
Sm152 O175 2.464 . S
Sm152 O176 2.396 . S
Sm152 O180 2.386 1_455 S
Sm152 O183 2.408 1_445 S
Sm153 C163 2.846 1_545 S
Sm153 O174 2.386 1_655 S
Sm153 O177 2.408 1_655 S
Sm153 O178 2.543 1_545 S
Sm153 O179 2.450 1_545 S
Sm153 O180 2.681 . S
Sm153 O181 2.464 . S
Sm153 O182 2.396 1_545 S
C154 Sm152 2.846 . S
C154 C155 1.506 . S
C154 O172 1.261 . S
C154 O173 1.242 . S
C155 C154 1.506 . S
C155 C156 1.358 . S
C155 C160 1.382 . S
C156 C155 1.358 . S
C156 C157 1.385 . S
C156 H184 0.930 . S
C157 C156 1.385 . S
C157 C158 1.395 . S
C157 H185 0.929 . S
C158 C157 1.395 . S
C158 C159 1.335 . S
C159 C158 1.335 . S
C159 C160 1.398 . S
C159 H186 0.930 . S
C160 C155 1.382 . S
C160 C159 1.398 . S
C160 H187 0.929 . S
C161 O174 1.271 . S
C161 O175 1.251 . S
C162 O176 1.252 . S
C162 O177 1.272 . S
C163 Sm153 2.846 1_565 S
C163 C164 1.506 . S
C163 O178 1.261 . S
C163 O179 1.242 . S
C164 C163 1.506 . S
C164 C165 1.358 . S
C164 C169 1.382 . S
C165 C164 1.358 . S
C165 C166 1.385 . S
C165 H188 0.930 . S
C166 C165 1.385 . S
C166 C167 1.395 . S
C166 H189 0.929 . S
C167 C166 1.395 . S
C167 C168 1.335 . S
C168 C167 1.335 . S
C168 C169 1.398 . S
C168 H190 0.930 . S
C169 C164 1.382 . S
C169 C168 1.398 . S
C169 H191 0.929 . S
C170 O180 1.271 . S
C170 O181 1.251 . S
C171 O182 1.252 . S
C171 O183 1.272 . S
O172 Sm152 2.543 . S
O172 C154 1.261 . S
O173 Sm152 2.450 . S
O173 C154 1.242 . S
O174 Sm152 2.681 . S
O174 Sm153 2.386 1_455 S
O174 C161 1.271 . S
O175 Sm152 2.464 . S
O175 C161 1.251 . S
O176 Sm152 2.396 . S
O176 C162 1.252 . S
O177 Sm153 2.408 1_455 S
O177 C162 1.272 . S
O178 Sm153 2.543 1_565 S
O178 C163 1.261 . S
O179 Sm153 2.450 1_565 S
O179 C163 1.242 . S
O180 Sm152 2.386 1_655 S
O180 Sm153 2.681 . S
O180 C170 1.271 . S
O181 Sm153 2.464 . S
O181 C170 1.251 . S
O182 Sm153 2.396 1_565 S
O182 C171 1.252 . S
O183 Sm152 2.408 1_665 S
O183 C171 1.272 . S
H184 C156 0.930 . S
H185 C157 0.929 . S
H186 C159 0.930 . S
H187 C160 0.929 . S
H188 C165 0.930 . S
H189 C166 0.929 . S
H190 C168 0.930 . S
H191 C169 0.929 . S
Sm192 C194 2.846 . S
Sm192 O212 2.543 . S
Sm192 O213 2.450 . S
Sm192 O214 2.681 . S
Sm192 O215 2.464 1_545 S
Sm192 O216 2.396 . S
Sm192 O220 2.386 . S
Sm192 O223 2.408 . S
Sm193 C203 2.846 1_544 S
Sm193 O214 2.385 . S
Sm193 O217 2.408 . S
Sm193 O218 2.543 1_545 S
Sm193 O219 2.450 1_554 S
Sm193 O220 2.681 . S
Sm193 O221 2.464 . S
Sm193 O222 2.396 . S
C194 Sm192 2.846 . S
C194 C195 1.506 . S
C194 O212 1.261 . S
C194 O213 1.242 . S
C195 C194 1.506 . S
C195 C196 1.358 . S
C195 C200 1.382 . S
C196 C195 1.358 . S
C196 C197 1.385 . S
C196 H224 0.930 . S
C197 C196 1.385 . S
C197 C198 1.395 . S
C197 H225 0.929 . S
C198 C197 1.395 . S
C198 C199 1.335 . S
C199 C198 1.335 . S
C199 C200 1.398 . S
C199 H226 0.930 . S
C200 C195 1.382 . S
C200 C199 1.398 . S
C200 H227 0.929 . S
C201 O214 1.273 1_565 S
C201 O215 1.251 . S
C202 O216 1.252 . S
C202 O217 1.272 . S
C203 Sm193 2.846 1_566 S
C203 C204 1.506 . S
C203 O218 1.261 1_556 S
C203 O219 1.242 1_565 S
C204 C203 1.506 . S
C204 C205 1.358 . S
C204 C209 1.382 . S
C205 C204 1.358 . S
C205 C206 1.385 . S
C205 H228 0.930 . S
C206 C205 1.385 . S
C206 C207 1.395 . S
C206 H229 0.929 . S
C207 C206 1.395 . S
C207 C208 1.335 . S
C208 C207 1.335 . S
C208 C209 1.398 . S
C208 H230 0.930 . S
C209 C204 1.382 . S
C209 C208 1.398 . S
C209 H231 0.929 1_565 S
C210 O220 1.271 . S
C210 O221 1.251 . S
C211 O222 1.252 1_565 S
C211 O223 1.272 1_565 S
O212 Sm192 2.543 . S
O212 C194 1.261 . S
O213 Sm192 2.450 . S
O213 C194 1.242 . S
O214 Sm192 2.681 . S
O214 Sm193 2.385 . S
O214 C201 1.273 1_545 S
O215 Sm192 2.464 1_565 S
O215 C201 1.251 . S
O216 Sm192 2.396 . S
O216 C202 1.252 . S
O217 Sm193 2.408 . S
O217 C202 1.272 . S
O218 Sm193 2.543 1_565 S
O218 C203 1.261 1_554 S
O219 Sm193 2.450 1_556 S
O219 C203 1.242 1_545 S
O220 Sm192 2.386 . S
O220 Sm193 2.681 . S
O220 C210 1.271 . S
O221 Sm193 2.464 . S
O221 C210 1.251 . S
O222 Sm193 2.396 . S
O222 C211 1.252 1_545 S
O223 Sm192 2.408 . S
O223 C211 1.272 1_545 S
H224 C196 0.930 . S
H225 C197 0.929 . S
H226 C199 0.930 . S
H227 C200 0.929 . S
H228 C205 0.930 . S
H229 C206 0.929 . S
H230 C208 0.930 . S
H231 C209 0.929 1_545 S
Sm232 C234 2.846 . S
Sm232 O252 2.543 . S
Sm232 O253 2.450 . S
Sm232 O254 2.681 . S
Sm232 O255 2.464 . S
Sm232 O256 2.396 . S
Sm232 O260 2.386 . S
Sm232 O263 2.408 . S
Sm233 C243 2.846 . S
Sm233 O254 2.386 . S
Sm233 O257 2.408 . S
Sm233 O258 2.543 . S
Sm233 O259 2.450 . S
Sm233 O260 2.681 . S
Sm233 O261 2.464 . S
Sm233 O262 2.396 . S
C234 Sm232 2.846 . S
C234 C235 1.506 . S
C234 O252 1.261 . S
C234 O253 1.242 . S
C235 C234 1.506 . S
C235 C236 1.358 . S
C235 C240 1.382 . S
C236 C235 1.358 . S
C236 C237 1.385 . S
C236 H264 0.930 . S
C237 C236 1.385 . S
C237 C238 1.395 . S
C237 H265 0.929 . S
C238 C237 1.395 . S
C238 C239 1.335 . S
C239 C238 1.335 . S
C239 C240 1.398 . S
C239 H266 0.930 . S
C240 C235 1.382 . S
C240 C239 1.398 . S
C240 H267 0.929 . S
C241 O254 1.271 . S
C241 O255 1.251 . S
C242 O256 1.252 . S
C242 O257 1.272 . S
C243 Sm233 2.846 . S
C243 C244 1.506 . S
C243 O258 1.261 . S
C243 O259 1.242 . S
C244 C243 1.506 . S
C244 C245 1.358 . S
C244 C249 1.382 . S
C245 C244 1.358 . S
C245 C246 1.385 . S
C245 H268 0.930 . S
C246 C245 1.385 . S
C246 C247 1.395 . S
C246 H269 0.929 . S
C247 C246 1.395 . S
C247 C248 1.335 . S
C248 C247 1.335 . S
C248 C249 1.398 . S
C248 H270 0.930 . S
C249 C244 1.382 . S
C249 C248 1.398 . S
C249 H271 0.929 . S
C250 O260 1.271 . S
C250 O261 1.251 . S
C251 O262 1.252 . S
C251 O263 1.272 . S
O252 Sm232 2.543 . S
O252 C234 1.261 . S
O253 Sm232 2.450 . S
O253 C234 1.242 . S
O254 Sm232 2.681 . S
O254 Sm233 2.386 . S
O254 C241 1.271 . S
O255 Sm232 2.464 . S
O255 C241 1.251 . S
O256 Sm232 2.396 . S
O256 C242 1.252 . S
O257 Sm233 2.408 . S
O257 C242 1.272 . S
O258 Sm233 2.543 . S
O258 C243 1.261 . S
O259 Sm233 2.450 . S
O259 C243 1.242 . S
O260 Sm232 2.386 . S
O260 Sm233 2.681 . S
O260 C250 1.271 . S
O261 Sm233 2.464 . S
O261 C250 1.251 . S
O262 Sm233 2.396 . S
O262 C251 1.252 . S
O263 Sm232 2.408 . S
O263 C251 1.272 . S
H264 C236 0.930 . S
H265 C237 0.929 . S
H266 C239 0.930 . S
H267 C240 0.929 . S
H268 C245 0.930 . S
H269 C246 0.929 . S
H270 C248 0.930 . S
H271 C249 0.929 . S
Sm272 C274 2.846 . S
Sm272 O292 2.543 . S
Sm272 O293 2.450 . S
Sm272 O294 2.681 . S
Sm272 O295 2.464 . S
Sm272 O296 2.396 . S
Sm272 O300 2.387 . S
Sm272 O303 2.408 1_455 S
Sm273 C283 2.846 1_454 S
Sm273 O294 2.386 . S
Sm273 O297 2.408 . S
Sm273 O298 2.543 1_455 S
Sm273 O299 2.464 1_554 S
Sm273 O300 2.681 . S
Sm273 O301 2.464 1_554 S
Sm273 O302 2.396 1_454 S
C274 Sm272 2.846 . S
C274 C275 1.506 . S
C274 O292 1.261 . S
C274 O293 1.242 . S
C275 C274 1.506 . S
C275 C276 1.358 . S
C275 C280 1.382 . S
C276 C275 1.358 . S
C276 C277 1.385 . S
C276 H304 0.930 . S
C277 C276 1.385 . S
C277 C278 1.395 . S
C277 H305 0.929 . S
C278 C277 1.395 . S
C278 C279 1.335 . S
C279 C278 1.335 . S
C279 C280 1.398 . S
C279 H306 0.930 . S
C280 C275 1.382 . S
C280 C279 1.398 . S
C280 H307 0.929 . S
C281 O294 1.271 1_655 S
C281 O295 1.251 1_655 S
C282 O296 1.252 . S
C282 O297 1.272 . S
C283 Sm273 2.846 1_656 S
C283 C284 1.506 . S
C283 O298 1.261 1_556 S
C283 O299 1.220 1_655 S
C284 C283 1.506 . S
C284 C285 1.358 . S
C284 C289 1.382 . S
C285 C284 1.358 . S
C285 C286 1.385 . S
C285 H308 0.930 . S
C286 C285 1.385 . S
C286 C287 1.395 . S
C286 H309 0.929 . S
C287 C286 1.395 . S
C287 C288 1.335 . S
C288 C287 1.335 . S
C288 C289 1.398 . S
C288 H310 0.930 . S
C289 C284 1.382 . S
C289 C288 1.398 . S
C289 H311 0.929 . S
C290 O300 1.270 1_556 S
C290 O301 1.251 . S
C291 O302 1.252 . S
C291 O303 1.272 1_556 S
O292 Sm272 2.543 . S
O292 C274 1.261 . S
O293 Sm272 2.450 . S
O293 C274 1.242 . S
O294 Sm272 2.681 . S
O294 Sm273 2.386 . S
O294 C281 1.271 1_455 S
O295 Sm272 2.464 . S
O295 C281 1.251 1_455 S
O296 Sm272 2.396 . S
O296 C282 1.252 . S
O297 Sm273 2.408 . S
O297 C282 1.272 . S
O298 Sm273 2.543 1_655 S
O298 C283 1.261 1_554 S
O299 Sm273 2.464 1_556 S
O299 C283 1.220 1_455 S
O300 Sm272 2.387 . S
O300 Sm273 2.681 . S
O300 C290 1.270 1_554 S
O301 Sm273 2.464 1_556 S
O301 C290 1.251 . S
O302 Sm273 2.396 1_656 S
O302 C291 1.252 . S
O303 Sm272 2.408 1_655 S
O303 C291 1.272 1_554 S
H304 C276 0.930 . S
H305 C277 0.929 . S
H306 C279 0.930 . S
H307 C280 0.929 . S
H308 C285 0.930 . S
H309 C286 0.929 . S
H310 C288 0.930 . S
H311 C289 0.929 . S
C312 C313 1.387 . S
C312 H316 0.950 . S
C312 C321 1.390 . S
C313 C312 1.387 . S
C313 C315 1.387 . S
H314 C321 0.950 . S
C315 C313 1.387 . S
C315 C317 1.390 . S
C315 H319 0.950 . S
H316 C312 0.950 . S
C317 C315 1.390 . S
C317 C318 1.387 . S
C317 H320 0.950 . S
C318 C317 1.387 . S
C318 C321 1.387 . S
H319 C315 0.950 . S
H320 C317 0.950 . S
C321 C312 1.390 . S
C321 H314 0.950 . S
C321 C318 1.387 . S
C322 C323 1.387 . S
C322 H326 0.950 . S
C322 C331 1.390 . S
C323 C322 1.387 . S
C323 C325 1.387 . S
H324 C331 0.950 . S
C325 C323 1.387 . S
C325 C327 1.390 . S
C325 H329 0.950 . S
H326 C322 0.950 . S
C327 C325 1.390 . S
C327 C328 1.387 . S
C327 H330 0.950 . S
C328 C327 1.387 . S
C328 C331 1.387 . S
H329 C325 0.950 . S
H330 C327 0.950 . S
C331 C322 1.390 . S
C331 H324 0.950 . S
C331 C328 1.387 . S
C332 C333 1.387 . S
C332 H336 0.950 . S
C332 C341 1.390 . S
C333 C332 1.387 . S
C333 C335 1.387 . S
H334 C341 0.950 . S
C335 C333 1.387 . S
C335 C337 1.390 . S
C335 H339 0.950 . S
H336 C332 0.950 . S
C337 C335 1.390 . S
C337 C338 1.387 . S
C337 H340 0.950 . S
C338 C337 1.387 . S
C338 C341 1.387 . S
H339 C335 0.950 . S
H340 C337 0.950 . S
C341 C332 1.390 . S
C341 H334 0.950 . S
C341 C338 1.387 . S
C342 C343 1.387 . S
C342 H346 0.950 . S
C342 C351 1.390 . S
C343 C342 1.387 . S
C343 C345 1.387 . S
H344 C351 0.950 . S
C345 C343 1.387 . S
C345 C347 1.390 . S
C345 H349 0.950 . S
H346 C342 0.950 . S
C347 C345 1.390 . S
C347 C348 1.387 . S
C347 H350 0.950 . S
C348 C347 1.387 . S
C348 C351 1.387 . S
H349 C345 0.950 . S
H350 C347 0.950 . S
C351 C342 1.390 . S
C351 H344 0.950 . S
C351 C348 1.387 . S
C352 C353 1.387 . S
C352 H356 0.950 . S
C352 C361 1.390 . S
C353 C352 1.387 . S
C353 C355 1.387 . S
H354 C361 0.950 . S
C355 C353 1.387 . S
C355 C357 1.390 . S
C355 H359 0.950 . S
H356 C352 0.950 . S
C357 C355 1.390 . S
C357 C358 1.387 . S
C357 H360 0.950 . S
C358 C357 1.387 . S
C358 C361 1.387 . S
H359 C355 0.950 . S
H360 C357 0.950 . S
C361 C352 1.390 . S
C361 H354 0.950 . S
C361 C358 1.387 . S
C362 C363 1.387 . S
C362 H366 0.950 . S
C362 C371 1.390 . S
C363 C362 1.387 . S
C363 C365 1.387 . S
H364 C371 0.950 1_545 S
C365 C363 1.387 . S
C365 C367 1.390 . S
C365 H369 0.950 . S
H366 C362 0.950 . S
C367 C365 1.390 . S
C367 C368 1.387 1_565 S
C367 H370 0.945 1_565 S
C368 C367 1.387 1_545 S
C368 C371 1.387 1_545 S
H369 C365 0.950 . S
H370 C367 0.945 1_545 S
C371 C362 1.390 . S
C371 H364 0.950 1_565 S
C371 C368 1.387 1_565 S
C372 C373 1.387 . S
C372 H376 0.950 1_556 S
C372 C381 1.390 1_556 S
C373 C372 1.387 . S
C373 C375 1.387 . S
H374 C381 0.950 . S
C375 C373 1.387 . S
C375 C377 1.390 . S
C375 H379 0.950 . S
H376 C372 0.950 1_554 S
C377 C375 1.390 . S
C377 C378 1.387 . S
C377 H380 0.950 . S
C378 C377 1.387 . S
C378 C381 1.387 1_556 S
H379 C375 0.950 . S
H380 C377 0.950 . S
C381 C372 1.390 1_554 S
C381 H374 0.950 . S
C381 C378 1.387 1_554 S
C382 C383 1.387 . S
C382 H386 0.950 . S
C382 C391 1.390 . S
C383 C382 1.387 . S
C383 C385 1.387 . S
H384 C391 0.950 . S
C385 C383 1.387 . S
C385 C387 1.390 . S
C385 H389 0.950 . S
H386 C382 0.950 . S
C387 C385 1.390 . S
C387 C388 1.387 . S
C387 H390 0.950 . S
C388 C387 1.387 . S
C388 C391 1.387 . S
H389 C385 0.950 . S
H390 C387 0.950 . S
C391 C382 1.390 . S
C391 H384 0.950 . S
C391 C388 1.387 . S
C392 C393 1.387 . S
C392 H396 0.950 . S
C392 C401 1.390 . S
C393 C392 1.387 . S
C393 C395 1.387 . S
H394 C401 0.950 . S
C395 C393 1.387 . S
C395 C397 1.390 . S
C395 H399 0.950 . S
H396 C392 0.950 . S
C397 C395 1.390 . S
C397 C398 1.387 . S
C397 H400 0.950 . S
C398 C397 1.387 . S
C398 C401 1.387 . S
H399 C395 0.950 . S
H400 C397 0.950 . S
C401 C392 1.390 . S
C401 H394 0.950 . S
C401 C398 1.387 . S
C402 C403 1.387 1_554 S
C402 H406 0.950 . S
C402 C411 1.390 . S
C403 C402 1.387 1_556 S
C403 C405 1.387 . S
H404 C411 0.950 . S
C405 C403 1.387 . S
C405 C407 1.390 . S
C405 H409 0.950 . S
H406 C402 0.950 . S
C407 C405 1.390 . S
C407 C408 1.387 1_556 S
C407 H410 0.950 . S
C408 C407 1.387 1_554 S
C408 C411 1.387 . S
H409 C405 0.950 . S
H410 C407 0.950 . S
C411 C402 1.390 . S
C411 H404 0.950 . S
C411 C408 1.387 . S
C412 C413 1.387 . S
C412 H416 0.950 . S
C412 C421 1.390 . S
C413 C412 1.387 . S
C413 C415 1.387 . S
H414 C421 0.950 . S
C415 C413 1.387 . S
C415 C417 1.390 . S
C415 H419 0.950 . S
H416 C412 0.950 . S
C417 C415 1.390 . S
C417 C418 1.387 . S
C417 H420 0.950 . S
C418 C417 1.387 . S
C418 C421 1.387 . S
H419 C415 0.950 . S
H420 C417 0.950 . S
C421 C412 1.390 . S
C421 H414 0.950 . S
C421 C418 1.387 . S
C422 C423 1.387 . S
C422 H426 0.950 . S
C422 C431 1.390 . S
C423 C422 1.387 . S
C423 C425 1.387 . S
H424 C431 0.950 . S
C425 C423 1.387 . S
C425 C427 1.390 . S
C425 H429 0.950 . S
H426 C422 0.950 . S
C427 C425 1.390 . S
C427 C428 1.387 . S
C427 H430 0.950 . S
C428 C427 1.387 . S
C428 C431 1.387 . S
H429 C425 0.950 . S
H430 C427 0.950 . S
C431 C422 1.390 . S
C431 H424 0.950 . S
C431 C428 1.387 . S
C432 C433 1.387 . S
C432 H436 0.950 . S
C432 C441 1.390 . S
C433 C432 1.387 . S
C433 C435 1.387 . S
H434 C441 0.950 . S
C435 C433 1.387 . S
C435 C437 1.390 . S
C435 H439 0.950 . S
H436 C432 0.950 . S
C437 C435 1.390 . S
C437 C438 1.387 . S
C437 H440 0.950 . S
C438 C437 1.387 . S
C438 C441 1.387 . S
H439 C435 0.950 . S
H440 C437 0.950 . S
C441 C432 1.390 . S
C441 H434 0.950 . S
C441 C438 1.387 . S
C442 C443 1.387 . S
C442 H446 0.950 . S
C442 C451 1.390 . S
C443 C442 1.387 . S
C443 C445 1.387 . S
H444 C451 0.950 . S
C445 C443 1.387 . S
C445 C447 1.390 . S
C445 H449 0.950 . S
H446 C442 0.950 . S
C447 C445 1.390 . S
C447 C448 1.387 . S
C447 H450 0.950 . S
C448 C447 1.387 . S
C448 C451 1.387 . S
H449 C445 0.950 . S
H450 C447 0.950 . S
C451 C442 1.390 . S
C451 H444 0.950 . S
C451 C448 1.387 . S
C452 C453 1.387 . S
C452 H456 0.950 . S
C452 C461 1.390 . S
C453 C452 1.387 . S
C453 C455 1.387 . S
H454 C461 0.950 . S
C455 C453 1.387 . S
C455 C457 1.390 . S
C455 H459 0.950 . S
H456 C452 0.950 . S
C457 C455 1.390 . S
C457 C458 1.387 . S
C457 H460 0.950 . S
C458 C457 1.387 . S
C458 C461 1.387 . S
H459 C455 0.950 . S
H460 C457 0.950 . S
C461 C452 1.390 . S
C461 H454 0.950 . S
C461 C458 1.387 . S
C462 C463 1.387 . S
C462 H466 0.950 . S
C462 C471 1.390 . S
C463 C462 1.387 . S
C463 C465 1.387 . S
H464 C471 0.950 . S
C465 C463 1.387 . S
C465 C467 1.390 . S
C465 H469 0.950 . S
H466 C462 0.950 . S
C467 C465 1.390 . S
C467 C468 1.387 . S
C467 H470 0.950 . S
C468 C467 1.387 . S
C468 C471 1.387 . S
H469 C465 0.950 . S
H470 C467 0.950 . S
C471 C462 1.390 . S
C471 H464 0.950 . S
C471 C468 1.387 . S
C472 C473 1.387 . S
C472 H476 0.950 . S
C472 C481 1.390 1_556 S
C473 C472 1.387 . S
C473 C475 1.387 . S
H474 C481 0.950 . S
C475 C473 1.387 . S
C475 C477 1.390 . S
C475 H479 0.950 . S
H476 C472 0.950 . S
C477 C475 1.390 . S
C477 C478 1.391 . S
C477 H480 0.950 . S
C478 C477 1.391 . S
C478 C481 1.386 1_556 S
H479 C475 0.950 . S
H480 C477 0.950 . S
C481 C472 1.390 1_554 S
C481 H474 0.950 . S
C481 C478 1.386 1_554 S
C482 C483 1.387 . S
C482 H486 0.950 . S
C482 C491 1.390 . S
C483 C482 1.387 . S
C483 C485 1.387 . S
H484 C491 0.950 . S
C485 C483 1.387 . S
C485 C487 1.390 . S
C485 H489 0.950 . S
H486 C482 0.950 . S
C487 C485 1.390 . S
C487 C488 1.387 . S
C487 H490 0.950 . S
C488 C487 1.387 . S
C488 C491 1.387 . S
H489 C485 0.950 . S
H490 C487 0.950 . S
C491 C482 1.390 . S
C491 H484 0.950 . S
C491 C488 1.387 . S
C492 C493 1.387 . S
C492 H496 0.950 . S
C492 C501 1.390 . S
C493 C492 1.387 . S
C493 C495 1.387 . S
H494 C501 0.950 . S
C495 C493 1.387 . S
C495 C497 1.390 . S
C495 H499 0.950 . S
H496 C492 0.950 . S
C497 C495 1.390 . S
C497 C498 1.387 . S
C497 H500 0.950 . S
C498 C497 1.387 . S
C498 C501 1.387 . S
H499 C495 0.950 . S
H500 C497 0.950 . S
C501 C492 1.390 . S
C501 H494 0.950 . S
C501 C498 1.387 . S
C502 C503 1.387 . S
C502 H506 0.950 . S
C502 C511 1.390 . S
C503 C502 1.387 . S
C503 C505 1.387 . S
H504 C511 0.950 . S
C505 C503 1.387 . S
C505 C507 1.390 . S
C505 H509 0.950 . S
H506 C502 0.950 . S
C507 C505 1.390 . S
C507 C508 1.387 . S
C507 H510 0.950 . S
C508 C507 1.387 . S
C508 C511 1.387 . S
H509 C505 0.950 . S
H510 C507 0.950 . S
C511 C502 1.390 . S
C511 H504 0.950 . S
C511 C508 1.387 . S
C512 C513 1.387 . S
C512 H516 0.950 . S
C512 C521 1.390 . S
C513 C512 1.387 . S
C513 C515 1.387 . S
H514 C521 0.950 . S
C515 C513 1.387 . S
C515 C517 1.390 . S
C515 H519 0.950 . S
H516 C512 0.950 . S
C517 C515 1.390 . S
C517 C518 1.387 . S
C517 H520 0.950 . S
C518 C517 1.387 . S
C518 C521 1.387 . S
H519 C515 0.950 . S
H520 C517 0.950 . S
C521 C512 1.390 . S
C521 H514 0.950 . S
C521 C518 1.387 . S
C522 C523 1.387 . S
C522 H526 0.950 . S
C522 C531 1.390 . S
C523 C522 1.387 . S
C523 C525 1.387 . S
H524 C531 0.950 . S
C525 C523 1.387 . S
C525 C527 1.390 . S
C525 H529 0.950 . S
H526 C522 0.950 . S
C527 C525 1.390 . S
C527 C528 1.387 . S
C527 H530 0.950 . S
C528 C527 1.387 . S
C528 C531 1.387 . S
H529 C525 0.950 . S
H530 C527 0.950 . S
C531 C522 1.390 . S
C531 H524 0.950 . S
C531 C528 1.387 . S
C532 C533 1.387 . S
C532 H536 0.950 . S
C532 C541 1.390 . S
C533 C532 1.387 . S
C533 C535 1.387 . S
H534 C541 0.950 . S
C535 C533 1.387 . S
C535 C537 1.390 . S
C535 H539 0.950 . S
H536 C532 0.950 . S
C537 C535 1.390 . S
C537 C538 1.387 . S
C537 H540 0.950 . S
C538 C537 1.387 . S
C538 C541 1.387 . S
H539 C535 0.950 . S
H540 C537 0.950 . S
C541 C532 1.390 . S
C541 H534 0.950 . S
C541 C538 1.387 . S
C542 C543 1.387 . S
C542 H546 0.950 . S
C542 C551 1.390 . S
C543 C542 1.387 . S
C543 C545 1.387 . S
H544 C551 0.950 . S
C545 C543 1.387 . S
C545 C547 1.390 . S
C545 H549 0.950 . S
H546 C542 0.950 . S
C547 C545 1.390 . S
C547 C548 1.387 . S
C547 H550 0.950 . S
C548 C547 1.387 . S
C548 C551 1.387 . S
H549 C545 0.950 . S
H550 C547 0.950 . S
C551 C542 1.390 . S
C551 H544 0.950 . S
C551 C548 1.387 . S
C313 C6 1.237 . S
C318 C158 1.267 . S
C323 C21 1.447 . S
C328 C207 1.472 . S
C338 C242 2.022 . S
C333 C49 2.057 . S
C343 C68 2.189 . S
C348 C281 2.240 . S
C358 C202 2.838 . S
C353 C2 2.675 . S
C368 C161 0.506 . S
C363 C30 0.447 . S
C378 C291 2.022 . S
C373 C40 2.088 . S
C388 C250 1.750 . S
C383 C63 1.740 . S
C393 C11 1.354 . S
C398 C278 1.574 . S
C408 C210 2.610 . S
C403 C44 2.694 . S
C413 C59 2.037 . S
C418 C171 2.043 . S
C423 C25 1.593 . S
C428 C247 1.564 . S
C438 C167 1.362 . S
C433 C82 1.364 . S
C443 C101 1.369 . S
C448 C198 1.379 . S
C453 C125 2.306 . S
C458 C251 2.409 . S
C463 C144 2.009 . S
C468 C290 2.081 . S
C473 C87 1.978 . S
C478 C211 2.152 1_556 S
C488 C170 1.597 . S
C483 C97 1.633 . S
C498 C282 1.777 . S
C493 C120 1.872 . S
C508 C241 1.756 . S
C503 C135 1.876 . S
C513 C78 1.886 . S
C518 C287 2.052 . S
C528 C201 1.962 . S
C523 C116 2.025 . S
C538 C162 2.643 . S
C533 C139 2.638 . S
C543 C106 0.874 . S
C548 C238 1.139 . S
