# Generated by pormake.
# Topology rtl, (3,6)-cn, num edge types: 1
# Building blocks:
#     Node 0, Type 0, BuildingBlock: QEWDON_clean_linker_0, # of connection points: 3
#     Node 1, Type 0, BuildingBlock: QEWDON_clean_linker_0, # of connection points: 3
#     Node 2, Type 0, BuildingBlock: QEWDON_clean_linker_0, # of connection points: 3
#     Node 3, Type 0, BuildingBlock: QEWDON_clean_linker_0, # of connection points: 3
#     Node 4, Type 1, BuildingBlock: KUMBUR_clean_sbu_1, # of connection points: 6
#     Node 5, Type 1, BuildingBlock: KUMBUR_clean_sbu_1, # of connection points: 6
#     Edge 6, Type (0, 1), BuildingBlock: KIFKEQ_clean_linker_1, # of connection points: 2
#     Edge 7, Type (0, 1), BuildingBlock: KIFKEQ_clean_linker_1, # of connection points: 2
#     Edge 8, Type (0, 1), BuildingBlock: KIFKEQ_clean_linker_1, # of connection points: 2
#     Edge 9, Type (0, 1), BuildingBlock: KIFKEQ_clean_linker_1, # of connection points: 2
#     Edge 10, Type (0, 1), BuildingBlock: KIFKEQ_clean_linker_1, # of connection points: 2
#     Edge 11, Type (0, 1), BuildingBlock: KIFKEQ_clean_linker_1, # of connection points: 2
#     Edge 12, Type (0, 1), BuildingBlock: KIFKEQ_clean_linker_1, # of connection points: 2
#     Edge 13, Type (0, 1), BuildingBlock: KIFKEQ_clean_linker_1, # of connection points: 2
#     Edge 14, Type (0, 1), BuildingBlock: KIFKEQ_clean_linker_1, # of connection points: 2
#     Edge 15, Type (0, 1), BuildingBlock: KIFKEQ_clean_linker_1, # of connection points: 2
#     Edge 16, Type (0, 1), BuildingBlock: KIFKEQ_clean_linker_1, # of connection points: 2
#     Edge 17, Type (0, 1), BuildingBlock: KIFKEQ_clean_linker_1, # of connection points: 2
# Relax obj value: 0.085
# Max RMSD: 0.273
# Mean RMSD: 0.209
data_MOF--net-rtl--node1-KUMBUR_clean_sbu_1--node2-QEWDON_clean_linker_0--edge1-KIFKEQ_clean_linker_1
_symmetry_space_group_name_H-M    P1
_symmetry_Int_Tables_number       1
_symmetry_cell_setting            triclinic
loop_
_symmetry_equiv_pos_as_xyz
'x, y, z'
_cell_length_a     38.417784
_cell_length_b     38.328642
_cell_length_c     26.951375
_cell_angle_alpha  79.260984
_cell_angle_beta   100.27619
_cell_angle_gamma 90.887758
loop_
_atom_site_label
_atom_site_type_symbol
_atom_site_fract_x
_atom_site_fract_y
_atom_site_fract_z
_atom_type_partial_charge
H0 H 0.2379 0.82832 0.10116 0.0
C1 C 0.22193 0.83514 0.06315 0.0
C2 C 0.18779 0.85009 0.05712 0.0
C3 C 0.23629 0.83047 0.02015 0.0
H4 H 0.14275 0.87367 1.00229 0.0
C5 C 0.16822 0.86045 1.00727 0.0
C6 C 0.1824 0.85702 0.96369 0.0
C7 C 0.21639 0.84153 0.97064 0.0
C8 C 0.27462 0.82207 0.02635 0.0
H9 H 0.22812 0.83955 0.93752 0.0
C10 C 0.28793 0.78778 0.02631 0.0
C11 C 0.32497 0.78151 0.03351 0.0
C12 C 0.29832 0.84979 0.03238 0.0
H13 H 0.28863 0.87622 0.03229 0.0
C14 C 0.33459 0.8439 0.03828 0.0
H15 H 0.2698 0.76618 0.02202 0.0
C16 C 0.34783 0.81018 0.03889 0.0
H17 H 0.37621 0.80654 0.04344 0.0
H18 H 0.35259 0.86558 0.04258 0.0
H19 H 0.7321 0.70182 0.59834 0.0
C20 C 0.71547 0.69664 0.62732 0.0
C21 C 0.68511 0.67574 0.61949 0.0
C22 C 0.72617 0.7079 0.67462 0.0
H23 H 0.64154 0.65154 0.65234 0.0
C24 C 0.66463 0.66783 0.6584 0.0
C25 C 0.67443 0.67865 0.70583 0.0
C26 C 0.70527 0.69887 0.71341 0.0
C27 C 0.76203 0.72329 0.6876 0.0
H28 H 0.71365 0.70693 0.75009 0.0
C29 C 0.77427 0.75396 0.6574 0.0
C30 C 0.80815 0.76774 0.67357 0.0
C31 C 0.78459 0.70623 0.73221 0.0
H32 H 0.77636 0.68245 0.75555 0.0
C33 C 0.81807 0.7192 0.74723 0.0
H34 H 0.75726 0.76758 0.62301 0.0
C35 C 0.82967 0.74968 0.71847 0.0
H36 H 0.85577 0.75928 0.73148 0.0
H37 H 0.83508 0.70563 0.78164 0.0
H38 H 0.80007 0.19367 0.14047 0.0
C39 C 0.81413 0.19086 0.10992 0.0
C40 C 0.8477 0.17411 0.12203 0.0
C41 C 0.7978 0.2019 0.05832 0.0
H42 H 0.89017 0.1544 0.09244 0.0
C43 C 0.86504 0.16876 0.08241 0.0
C44 C 0.84926 0.1792 0.03054 0.0
C45 C 0.8156 0.19597 0.01897 0.0
C46 C 0.76002 0.214 0.04524 0.0
H47 H 0.80275 0.20382 0.97929 0.0
C48 C 0.74767 0.24428 0.06065 0.0
C49 C 0.71122 0.25382 0.04828 0.0
C50 C 0.73569 0.19389 0.0174 0.0
H51 H 0.7444 0.17052 1.0054 0.0
C52 C 0.69985 0.20316 1.00557 0.0
H53 H 0.76613 0.26018 0.08189 0.0
C54 C 0.68767 0.23275 0.02098 0.0
H55 H 0.6597 0.23956 0.01087 0.0
H56 H 0.6814 0.18729 0.98433 0.0
H57 H 0.3193 0.30172 0.51505 0.0
C58 C 0.3293 0.31491 0.48139 0.0
C59 C 0.34618 0.3479 0.48176 0.0
C60 C 0.32679 0.29811 0.43851 0.0
H61 H 0.3745 0.38853 0.43912 0.0
C62 C 0.36005 0.36407 0.43831 0.0
C63 C 0.35766 0.3483 0.3949 0.0
C64 C 0.34103 0.31525 0.39538 0.0
C65 C 0.31378 0.26079 0.44089 0.0
H66 H 0.33943 0.30265 0.36225 0.0
C67 C 0.282 0.24907 0.45856 0.0
C68 C 0.27193 0.21299 0.46152 0.0
C69 C 0.33472 0.23597 0.42638 0.0
H70 H 0.35936 0.24374 0.41356 0.0
C71 C 0.32479 0.20068 0.42925 0.0
H72 H 0.26544 0.26766 0.46997 0.0
C73 C 0.29382 0.18925 0.44673 0.0
H74 H 0.28674 0.16163 0.44835 0.0
H75 H 0.34133 0.18197 0.41806 0.0
Tb76 Tb 0.0415 0.98162 0.50788 0.0
C77 C 0.97752 0.12355 0.50391 0.0
N78 N 1.00283 0.1065 0.54201 0.0
C79 C 0.0369 0.15971 0.53821 0.0
C80 C 0.98191 0.15867 0.47906 0.0
C81 C 0.03071 0.12515 0.56236 0.0
C82 C 0.01285 0.17622 0.49537 0.0
C83 C 0.9166 0.12537 0.46019 0.0
C84 C 0.94542 0.10726 0.49453 0.0
C85 C 0.92164 0.15919 0.43194 0.0
C86 C 0.95434 0.17581 0.44128 0.0
Tb87 Tb 0.9915 0.04843 0.57437 0.0
N88 N 0.94172 0.07464 0.52251 0.0
C89 C 0.88337 0.10953 0.45706 0.0
C90 C 0.90903 0.06004 0.5223 0.0
C91 C 0.87944 0.07703 0.48906 0.0
H92 H 0.04858 0.11321 0.59686 0.0
H93 H 0.85371 0.065 0.48792 0.0
H94 H 0.0209 0.8999 0.5549 0.0
H95 H 0.17198 0.037 0.5019 0.0
H96 H 0.90608 0.03487 0.54687 0.0
H97 H 0.86048 0.1226 0.43126 0.0
H98 H 0.1091 0.02878 0.46749 0.0
H99 H 0.0599 0.17375 0.55312 0.0
H100 H 0.90005 0.17329 0.40448 0.0
H101 H 0.9574 0.20257 0.42106 0.0
H102 H 0.04839 0.8495 0.62123 0.0
H103 H 0.01735 0.2032 0.47728 0.0
H104 H 0.20139 0.99768 0.58147 0.0
N105 N 0.06541 0.93298 0.56578 0.0
C106 C 0.09954 0.93526 0.5887 0.0
C107 C 0.06298 0.87361 0.61274 0.0
C108 C 0.11632 0.90748 0.62683 0.0
C109 C 0.04746 0.90211 0.57531 0.0
C110 C 0.09735 0.87655 0.63933 0.0
N111 N 0.10144 0.98889 0.53102 0.0
C112 C 0.12109 0.01271 0.50369 0.0
C113 C 0.15434 0.96722 0.59124 0.0
C114 C 0.11807 0.96473 0.57134 0.0
C115 C 0.17347 0.99474 0.5674 0.0
C116 C 0.15698 0.01697 0.5225 0.0
H117 H 0.10926 0.85453 0.6684 0.0
H118 H 0.16489 0.89038 0.68001 0.0
H119 H 0.19837 0.94274 0.64856 0.0
O120 O 0.07051 0.95727 0.46374 0.0
O121 O 0.03408 0.96959 0.58847 0.0
O122 O 0.04113 0.02228 0.61655 0.0
O123 O 0.0141 0.95927 0.4465 0.0
O124 O 0.05418 0.03886 0.4948 0.0
O125 O 0.04831 0.05589 0.57044 0.0
O126 O 0.9761 0.02715 0.64513 0.0
O127 O 0.96902 0.0343 0.49966 0.0
O128 O 0.0161 0.03013 0.45978 0.0
O129 O 0.97442 0.0831 0.61761 0.0
O130 O 0.96582 0.99631 0.57416 0.0
O131 O 0.9889 0.96184 0.52304 0.0
C132 C 0.04669 0.98786 0.6241 0.0
C133 C 0.04504 0.96337 0.37666 0.0
C134 C 0.06921 0.9562 0.30067 0.0
C135 C 0.05314 0.98884 0.27473 0.0
C136 C 0.02933 0.99584 0.34968 0.0
C137 C 0.03325 1.00833 0.29901 0.0
C138 C 0.06474 0.94341 0.35178 0.0
C139 C 0.06303 0.05935 0.5292 0.0
C140 C 0.04285 0.95132 0.43147 0.0
C141 C 0.15166 0.9111 0.64986 0.0
C142 C 0.17067 0.94098 0.63209 0.0
C143 C 0.98349 0.04056 0.45837 0.0
C144 C 0.98639 0.0645 0.70687 0.0
C145 C 0.98061 0.08506 0.7861 0.0
C146 C 0.01751 0.08038 0.80217 0.0
C147 C 0.02295 0.05996 0.72407 0.0
C148 C 0.96528 0.07696 0.73793 0.0
C149 C 0.03833 0.06779 0.77153 0.0
C150 C 0.96547 0.96819 0.55154 0.0
C151 C 0.97035 0.05809 0.65553 0.0
H152 H 0.05575 0.9992 0.23535 0.0
H153 H 0.01424 0.01173 0.36785 0.0
H154 H 0.02102 0.0334 0.27855 0.0
H155 H 0.07734 0.91854 0.37256 0.0
H156 H 0.03057 0.08705 0.83814 0.0
H157 H 0.03965 0.0508 0.70054 0.0
H158 H 0.937 0.08021 0.72449 0.0
H159 H 0.06663 0.06448 0.78441 0.0
Tb160 Tb 0.47953 0.49268 0.99899 0.0
C161 C 0.62291 0.56004 0.06663 0.0
N162 N 0.60989 0.52952 0.09055 0.0
C163 C 0.66621 0.50029 0.101 0.0
C164 C 0.658 0.56155 0.05771 0.0
C165 C 0.63114 0.50001 0.10867 0.0
C166 C 0.67965 0.53112 0.07515 0.0
C167 C 0.61257 0.62126 0.02288 0.0
C168 C 0.60037 0.58946 0.04921 0.0
C169 C 0.6475 0.62288 0.01378 0.0
C170 C 0.67015 0.59312 0.03115 0.0
Tb171 Tb 0.55206 0.532 0.09964 0.0
N172 N 0.56621 0.58645 0.05683 0.0
C173 C 0.5893 0.65048 1.00645 0.0
C174 C 0.54431 0.61571 0.04406 0.0
C175 C 0.55521 0.64783 0.01782 0.0
H176 H 0.62137 0.47647 0.13015 0.0
H177 H 0.53745 0.6707 1.00704 0.0
H178 H 0.40719 0.54228 0.98446 0.0
H179 H 0.50571 0.35184 0.07224 0.0
H180 H 0.51882 0.61515 0.05516 0.0
H181 H 0.59763 0.67539 0.98606 0.0
H182 H 0.51712 0.41052 0.02493 0.0
H183 H 0.68289 0.47678 0.11525 0.0
H184 H 0.65725 0.64703 0.9933 0.0
H185 H 0.69698 0.59475 0.0237 0.0
H186 H 0.34795 0.53526 1.00804 0.0
H187 H 0.70678 0.5312 0.06905 0.0
H188 H 0.45 0.34115 0.10611 0.0
N189 N 0.42366 0.48901 0.01732 0.0
C190 C 0.41422 0.45656 0.04068 0.0
C191 C 0.36642 0.51297 0.01773 0.0
C192 C 0.38064 0.45131 0.05473 0.0
C193 C 0.40016 0.51699 1.00494 0.0
C194 C 0.35666 0.48005 0.04295 0.0
N195 N 0.47155 0.43542 0.03922 0.0
C196 C 0.49422 0.40751 0.04303 0.0
C197 C 0.4306 0.39522 0.07795 0.0
C198 C 0.43915 0.42905 0.05271 0.0
C199 C 0.45552 0.36754 0.08688 0.0
C200 C 0.48713 0.37356 0.06828 0.0
H201 H 0.33059 0.47711 0.05315 0.0
H202 H 0.34679 0.41336 0.09237 0.0
H203 H 0.39042 0.36416 0.11233 0.0
O204 O 0.48445 0.46438 0.94038 0.0
O205 O 0.46944 0.49374 0.0768 0.0
O206 O 0.5228 0.48591 0.13225 0.0
O207 O 0.43974 0.49863 0.93321 0.0
O208 O 0.53451 0.47123 0.0164 0.0
O209 O 0.55582 0.47479 0.10124 0.0
O210 O 0.54471 0.56376 0.15306 0.0
O211 O 0.56173 0.53302 0.02108 0.0
O212 O 0.50803 0.53917 0.966 0.0
O213 O 0.58874 0.52737 0.16867 0.0
O214 O 0.49797 0.55534 0.08097 0.0
O215 O 0.47349 0.54985 0.99742 0.0
C216 C 0.4885 0.48067 0.12177 0.0
C217 C 0.45592 0.48946 0.85631 0.0
C218 C 0.44041 0.4794 0.76775 0.0
C219 C 0.45342 0.51338 0.75093 0.0
C220 C 0.46914 0.52282 0.8385 0.0
C221 C 0.46788 0.53463 0.78604 0.0
C222 C 0.4419 0.46773 0.82103 0.0
C223 C 0.55632 0.46054 0.06046 0.0
C224 C 0.45517 0.47745 0.91126 0.0
C225 C 0.37237 0.41786 0.0809 0.0
C226 C 0.39729 0.3899 0.09251 0.0
C227 C 0.54212 0.5455 0.97626 0.0
C228 C 0.56812 0.54103 0.24007 0.0
C229 C 0.58058 0.55317 0.32762 0.0
C230 C 0.56217 0.52218 0.34371 0.0
C231 C 0.54965 0.51063 0.25702 0.0
C232 C 0.58341 0.5623 0.27528 0.0
C233 C 0.54674 0.50131 0.30863 0.0
C234 C 0.47486 0.56506 0.03789 0.0
C235 C 0.57242 0.55056 0.18609 0.0
H236 H 0.45198 0.524 0.71048 0.0
H237 H 0.47996 0.53988 0.86505 0.0
H238 H 0.47776 0.56061 0.77242 0.0
H239 H 0.4323 0.44174 0.83536 0.0
H240 H 0.56007 0.51364 0.38366 0.0
H241 H 0.53779 0.49398 0.2305 0.0
H242 H 0.59723 0.58604 0.26168 0.0
H243 H 0.5327 0.47761 0.32163 0.0
H244 H 0.20268 0.23021 0.41737 0.0
H245 H 0.26703 0.16092 0.54344 0.0
H246 H 0.15002 0.19647 0.43557 0.0
H247 H 0.21495 0.12713 0.56162 0.0
H248 H 0.11102 0.08351 0.60291 0.0
H249 H 0.15869 0.12562 0.59079 0.0
H250 H 0.12707 0.13743 0.42648 0.0
H251 H 0.07912 0.09576 0.43884 0.0
C252 C 0.20538 0.20845 0.44992 0.0
C253 C 0.23896 0.19853 0.47935 0.0
C254 C 0.17531 0.18872 0.45995 0.0
C255 C 0.17805 0.15873 0.49993 0.0
C256 C 0.21148 0.15013 0.5309 0.0
C257 C 0.24144 0.16957 0.52056 0.0
C258 C 0.11402 0.09542 0.56421 0.0
C259 C 0.09125 0.08618 0.52187 0.0
C260 C 0.14154 0.11944 0.55719 0.0
C261 C 0.14699 0.13513 0.50757 0.0
C262 C 0.12361 0.12639 0.46525 0.0
C263 C 0.09626 0.10218 0.47231 0.0
H264 H 0.30769 0.73308 0.96895 0.0
H265 H 0.37955 0.74915 0.10487 0.0
H266 H 0.34032 0.67826 0.96948 0.0
H267 H 0.41259 0.6959 0.10455 0.0
H268 H 0.45357 0.58588 0.11924 0.0
H269 H 0.41292 0.6338 0.11902 0.0
H270 H 0.39622 0.65822 0.95334 0.0
H271 H 0.43639 0.60906 0.9537 0.0
C272 C 0.33009 0.72467 0.9993 0.0
C273 C 0.34106 0.74562 0.03673 0.0
C274 C 0.34913 0.6935 0.99927 0.0
C275 C 0.37938 0.68244 0.03694 0.0
C276 C 0.38933 0.70294 0.07524 0.0
C277 C 0.37046 0.73383 0.07521 0.0
C278 C 0.44123 0.60137 0.08265 0.0
C279 C 0.44864 0.59376 0.0365 0.0
C280 C 0.41787 0.62907 0.0825 0.0
C281 C 0.40142 0.6505 0.03619 0.0
C282 C 0.40805 0.64226 0.98981 0.0
C283 C 0.4313 0.61418 0.98997 0.0
H284 H 0.82938 0.82584 0.71386 0.0
H285 H 0.82074 0.78467 0.57404 0.0
H286 H 0.86399 0.87498 0.67941 0.0
H287 H 0.85494 0.83493 0.53809 0.0
H288 H 0.95689 0.90215 0.52338 0.0
H289 H 0.91436 0.85668 0.54655 0.0
H290 H 0.86643 0.92824 0.62218 0.0
H291 H 0.90964 0.97277 0.60123 0.0
C292 C 0.83408 0.82793 0.67495 0.0
C293 C 0.82206 0.8014 0.64665 0.0
C294 C 0.85399 0.8563 0.65495 0.0
C295 C 0.86267 0.8593 0.60571 0.0
C296 C 0.84932 0.83348 0.57636 0.0
C297 C 0.82918 0.80491 0.59656 0.0
C298 C 0.93729 0.90826 0.54493 0.0
C299 C 0.93739 0.94124 0.56099 0.0
C300 C 0.91253 0.88215 0.55787 0.0
C301 C 0.88688 0.88828 0.58696 0.0
C302 C 0.88611 0.92188 0.60093 0.0
C303 C 0.91097 0.94774 0.58846 0.0
H304 H 0.72506 0.32366 0.01467 0.0
H305 H 0.66225 0.256 0.10912 0.0
H306 H 0.69087 0.37572 0.02136 0.0
H307 H 0.62826 0.30769 0.11623 0.0
H308 H 0.58725 0.4125 0.14501 0.0
H309 H 0.62976 0.36463 0.1488 0.0
H310 H 0.62815 0.39634 0.98609 0.0
H311 H 0.58573 0.44404 0.98238 0.0
C312 C 0.70468 0.3201 0.03815 0.0
C313 C 0.69654 0.28586 0.06179 0.0
C314 C 0.68478 0.3498 0.04148 0.0
C315 C 0.65658 0.34592 0.06905 0.0
C316 C 0.64989 0.3118 0.09505 0.0
C317 C 0.66941 0.28215 0.09109 0.0
C318 C 0.5962 0.40937 0.11015 0.0
C319 C 0.58303 0.43206 0.06338 0.0
C320 C 0.62047 0.38188 0.11227 0.0
C321 C 0.63256 0.37663 0.06779 0.0
C322 C 0.61984 0.39982 0.02123 0.0
C323 C 0.59523 0.42698 0.019 0.0
H324 H 0.2219 0.88228 0.13446 0.0
H325 H 0.12126 0.83857 0.07967 0.0
H326 H 0.1963 0.90389 0.20019 0.0
H327 H 0.09557 0.8604 0.1451 0.0
H328 H 0.06543 0.88584 0.29199 0.0
H329 H 0.09664 0.85546 0.23974 0.0
H330 H 0.15229 0.9518 0.1958 0.0
H331 H 0.12124 0.98189 0.24775 0.0
C332 C 0.19452 0.87662 0.13712 0.0
C333 C 0.17363 0.85874 0.10169 0.0
C334 C 0.17973 0.88931 0.17449 0.0
C335 C 0.14378 0.88411 0.17778 0.0
C336 C 0.12337 0.86469 0.14396 0.0
C337 C 0.13804 0.85236 0.10623 0.0
C338 C 0.08475 0.90027 0.27177 0.0
C339 C 0.09074 0.93631 0.2738 0.0
C340 C 0.10243 0.88298 0.24155 0.0
C341 C 0.12696 0.90119 0.21343 0.0
C342 C 0.13388 0.93683 0.21724 0.0
C343 C 0.11588 0.95417 0.24674 0.0
H344 H 0.69966 0.6559 0.80933 0.0
H345 H 0.60237 0.67075 0.69869 0.0
H346 H 0.66715 0.62728 0.87514 0.0
H347 H 0.57038 0.63978 0.76311 0.0
H348 H 0.51486 0.60028 0.89837 0.0
H349 H 0.54615 0.63695 0.83658 0.0
H350 H 0.64121 0.57353 0.90117 0.0
H351 H 0.61015 0.53808 0.96342 0.0
C352 C 0.6713 0.65345 0.79898 0.0
C353 C 0.65394 0.66545 0.74814 0.0
C354 C 0.6526 0.63632 0.83668 0.0
C355 C 0.61597 0.63027 0.82471 0.0
C356 C 0.5984 0.64381 0.77443 0.0
C357 C 0.61699 0.6613 0.737 0.0
C358 C 0.54238 0.59415 0.89896 0.0
C359 C 0.55999 0.56631 0.93587 0.0
C360 C 0.56047 0.61519 0.8635 0.0
C361 C 0.59658 0.60864 0.86353 0.0
C362 C 0.61382 0.58028 0.90023 0.0
C363 C 0.59586 0.55959 0.93585 0.0
H364 H 0.9041 0.19752 0.18307 0.0
H365 H 0.82849 0.11353 0.17932 0.0
H366 H 0.93578 0.16629 0.26597 0.0
H367 H 0.86091 0.08098 0.26046 0.0
H368 H 1.00815 0.08449 0.38071 0.0
H369 H 0.97386 0.11799 0.3017 0.0
H370 H 0.87748 0.07487 0.3483 0.0
H371 H 0.91227 0.03953 0.42504 0.0
C372 C 0.89409 0.17251 0.20056 0.0
C373 C 0.86362 0.15813 0.17551 0.0
C374 C 0.9125 0.15425 0.24766 0.0
C375 C 0.90134 0.1207 0.27019 0.0
C376 C 0.87021 0.10688 0.24522 0.0
C377 C 0.85151 0.12547 0.1986 0.0
C378 C 0.97964 0.08199 0.37364 0.0
C379 C 0.9628 0.05987 0.40946 0.0
C380 C 0.95982 0.10162 0.32865 0.0
C381 C 0.92259 0.09975 0.31839 0.0
C382 C 0.90598 0.077 0.35415 0.0
C383 C 0.92588 0.05706 0.39873 0.0
H384 H 0.36544 0.31625 0.58379 0.0
H385 H 0.34149 0.41861 0.485 0.0
H386 H 0.38567 0.346 0.65678 0.0
H387 H 0.3632 0.44788 0.55715 0.0
H388 H 0.46046 0.47517 0.67593 0.0
H389 H 0.43271 0.44256 0.61056 0.0
H390 H 0.35926 0.39733 0.70736 0.0
H391 H 0.38545 0.43175 0.77225 0.0
C392 C 0.36375 0.34495 0.57774 0.0
C393 C 0.35233 0.36498 0.52816 0.0
C394 C 0.37554 0.36193 0.6195 0.0
C395 C 0.37649 0.3992 0.61228 0.0
C396 C 0.36321 0.41912 0.56356 0.0
C397 C 0.3509 0.40227 0.52223 0.0
C398 C 0.43805 0.45885 0.68341 0.0
C399 C 0.42502 0.45683 0.72953 0.0
C400 C 0.42237 0.43988 0.64594 0.0
C401 C 0.39374 0.41764 0.65383 0.0
C402 C 0.3814 0.41426 0.70046 0.0
C403 C 0.39664 0.43388 0.73773 0.0
H404 H 0.68187 0.70604 0.51704 0.0
H405 H 0.66708 0.6071 0.61716 0.0
H406 H 0.65822 0.67897 0.44204 0.0
H407 H 0.64276 0.58092 0.5432 0.0
H408 H 0.5545 0.56761 0.4101 0.0
H409 H 0.58321 0.59844 0.47706 0.0
H410 H 0.67156 0.62188 0.39838 0.0
H411 H 0.64357 0.58952 0.33179 0.0
C412 C 0.67403 0.67853 0.52304 0.0
C413 C 0.67557 0.65902 0.57314 0.0
C414 C 0.66043 0.66311 0.48021 0.0
C415 C 0.64799 0.62809 0.48697 0.0
C416 C 0.65141 0.60818 0.53688 0.0
C417 C 0.66527 0.62329 0.57925 0.0
C418 C 0.58019 0.57895 0.40698 0.0
C419 C 0.59689 0.57532 0.36572 0.0
C420 C 0.5965 0.59689 0.44526 0.0
C421 C 0.62974 0.61228 0.44313 0.0
C422 C 0.64586 0.61035 0.40084 0.0
C423 C 0.6297 0.59187 0.36266 0.0
H424 H 0.81897 0.15624 0.94161 0.0
H425 H 0.92018 0.18032 0.02621 0.0
H426 H 0.84905 0.13483 0.88002 0.0
H427 H 0.94997 0.15785 0.96572 0.0
H428 H 0.98917 0.07089 0.89135 0.0
H429 H 0.95696 0.09642 0.94626 0.0
H430 H 0.88902 0.15492 0.8128 0.0
H431 H 0.92215 0.13038 0.7572 0.0
C432 C 0.84753 0.15756 0.94676 0.0
C433 C 0.86705 0.16978 0.98946 0.0
C434 C 0.86476 0.14508 0.91151 0.0
C435 C 0.90192 0.14415 0.91839 0.0
C436 C 0.92134 0.15754 0.95989 0.0
C437 C 0.90418 0.17038 0.99467 0.0
C438 C 0.9677 0.08953 0.87337 0.0
C439 C 0.95877 0.09882 0.8195 0.0
C440 C 0.94913 0.1041 0.90503 0.0
C441 C 0.92068 0.12803 0.88395 0.0
C442 C 0.91078 0.13648 0.83022 0.0
C443 C 0.92972 0.12223 0.79837 0.0
H444 H 0.40076 0.31919 0.34094 0.0
H445 H 0.35303 0.4185 0.34966 0.0
H446 H 0.43244 0.35043 0.2748 0.0
H447 H 0.385 0.44967 0.28491 0.0
H448 H 0.42075 0.49134 0.13332 0.0
H449 H 0.38794 0.45767 0.19511 0.0
H450 H 0.48111 0.39299 0.26535 0.0
H451 H 0.51376 0.42633 0.20187 0.0
C452 C 0.39668 0.34758 0.32834 0.0
C453 C 0.3743 0.36628 0.35074 0.0
C454 C 0.41521 0.36559 0.2909 0.0
C455 C 0.41154 0.40271 0.2745 0.0
C456 C 0.38839 0.42112 0.29604 0.0
C457 C 0.37014 0.40322 0.33353 0.0
C458 C 0.43425 0.46981 0.16178 0.0
C459 C 0.46983 0.4614 0.1624 0.0
C460 C 0.41547 0.45063 0.19759 0.0
C461 C 0.43173 0.42246 0.23549 0.0
C462 C 0.46752 0.41418 0.23641 0.0
C463 C 0.4864 0.43355 0.20046 0.0
H464 H 0.20896 0.89724 0.88386 0.0
H465 H 0.11147 0.85415 0.92565 0.0
H466 H 0.1762 0.92818 0.8017 0.0
H467 H 0.07861 0.88601 0.84442 0.0
H468 H 0.03439 0.92143 0.67336 0.0
H469 H 0.06801 0.88799 0.75297 0.0
H470 H 0.13481 0.97841 0.76902 0.0
H471 H 0.10153 0.01146 0.68826 0.0
C472 C 0.1806 0.89397 0.87531 0.0
C473 C 0.1629 0.8731 0.91148 0.0
C474 C 0.16173 0.91218 0.82847 0.0
C475 C 0.12467 0.90992 0.81648 0.0
C476 C 0.10712 0.88825 0.85208 0.0
C477 C 0.12596 0.87014 0.8989 0.0
C478 C 0.05635 0.93408 0.69387 0.0
C479 C 0.06559 0.96888 0.67443 0.0
C480 C 0.07547 0.91503 0.73974 0.0
C481 C 0.1043 0.93036 0.76748 0.0
C482 C 0.11314 0.96552 0.74832 0.0
C483 C 0.09386 0.98464 0.70242 0.0
loop_
_geom_bond_atom_site_label_1
_geom_bond_atom_site_label_2
_geom_bond_distance
_geom_bond_site_symmetry_2
_ccdc_geom_bond_type
H0 C1 0.949 . S
C1 H0 0.949 . S
C1 C2 1.395 . S
C1 C3 1.391 . S
C2 C1 1.395 . S
C2 C5 1.390 . S
C3 C1 1.391 . S
C3 C7 1.387 1_554 S
C3 C8 1.491 . S
H4 C5 0.950 . S
C5 C2 1.390 . S
C5 H4 0.950 . S
C5 C6 1.378 1_554 S
C6 C5 1.378 1_556 S
C6 C7 1.409 . S
C7 C3 1.387 1_556 S
C7 C6 1.409 . S
C7 H9 0.951 . S
C8 C3 1.491 . S
C8 C10 1.382 . S
C8 C12 1.404 1_554 S
H9 C7 0.951 . S
C10 C8 1.382 . S
C10 C11 1.390 . S
C10 H15 0.949 . S
C11 C10 1.390 . S
C11 C16 1.399 . S
C12 C8 1.404 1_556 S
C12 H13 0.950 . S
C12 C14 1.375 . S
H13 C12 0.950 . S
C14 C12 1.375 . S
C14 C16 1.382 1_556 S
C14 H18 0.950 . S
H15 C10 0.949 . S
C16 C11 1.399 . S
C16 C14 1.382 1_554 S
C16 H17 0.952 . S
H17 C16 0.952 . S
H18 C14 0.950 . S
H19 C20 0.949 . S
C20 H19 0.949 . S
C20 C21 1.395 . S
C20 C22 1.391 . S
C21 C20 1.395 . S
C21 C24 1.390 . S
C22 C20 1.391 . S
C22 C26 1.387 . S
C22 C27 1.491 . S
H23 C24 0.950 . S
C24 C21 1.390 . S
C24 H23 0.950 . S
C24 C25 1.378 . S
C25 C24 1.378 . S
C25 C26 1.409 . S
C26 C22 1.387 . S
C26 C25 1.409 . S
C26 H28 0.951 . S
C27 C22 1.491 . S
C27 C29 1.382 . S
C27 C31 1.404 . S
H28 C26 0.951 . S
C29 C27 1.382 . S
C29 C30 1.390 . S
C29 H34 0.949 . S
C30 C29 1.390 . S
C30 C35 1.399 . S
C31 C27 1.404 . S
C31 H32 0.950 . S
C31 C33 1.375 . S
H32 C31 0.950 . S
C33 C31 1.375 . S
C33 C35 1.382 . S
C33 H37 0.950 . S
H34 C29 0.949 . S
C35 C30 1.399 . S
C35 C33 1.382 . S
C35 H36 0.952 . S
H36 C35 0.952 . S
H37 C33 0.950 . S
H38 C39 0.949 . S
C39 H38 0.949 . S
C39 C40 1.395 . S
C39 C41 1.391 . S
C40 C39 1.395 . S
C40 C43 1.390 . S
C41 C39 1.391 . S
C41 C45 1.387 1_554 S
C41 C46 1.491 . S
H42 C43 0.950 . S
C43 C40 1.390 . S
C43 H42 0.950 . S
C43 C44 1.378 . S
C44 C43 1.378 . S
C44 C45 1.409 1_554 S
C45 C41 1.387 1_556 S
C45 C44 1.409 1_556 S
C45 H47 0.951 . S
C46 C41 1.491 . S
C46 C48 1.382 . S
C46 C50 1.404 1_554 S
H47 C45 0.951 . S
C48 C46 1.382 . S
C48 C49 1.390 . S
C48 H53 0.949 . S
C49 C48 1.390 . S
C49 C54 1.399 1_554 S
C50 C46 1.404 1_556 S
C50 H51 0.950 . S
C50 C52 1.375 . S
H51 C50 0.950 . S
C52 C50 1.375 . S
C52 C54 1.382 . S
C52 H56 0.950 . S
H53 C48 0.949 . S
C54 C49 1.399 1_556 S
C54 C52 1.382 . S
C54 H55 0.952 . S
H55 C54 0.952 . S
H56 C52 0.950 . S
H57 C58 0.949 . S
C58 H57 0.949 . S
C58 C59 1.395 . S
C58 C60 1.391 . S
C59 C58 1.395 . S
C59 C62 1.390 . S
C60 C58 1.391 . S
C60 C64 1.387 . S
C60 C65 1.491 . S
H61 C62 0.950 . S
C62 C59 1.390 . S
C62 H61 0.950 . S
C62 C63 1.378 . S
C63 C62 1.378 . S
C63 C64 1.409 . S
C64 C60 1.387 . S
C64 C63 1.409 . S
C64 H66 0.951 . S
C65 C60 1.491 . S
C65 C67 1.382 . S
C65 C69 1.404 . S
H66 C64 0.951 . S
C67 C65 1.382 . S
C67 C68 1.390 . S
C67 H72 0.949 . S
C68 C67 1.390 . S
C68 C73 1.399 . S
C69 C65 1.404 . S
C69 H70 0.950 . S
C69 C71 1.375 . S
H70 C69 0.950 . S
C71 C69 1.375 . S
C71 C73 1.382 . S
C71 H75 0.950 . S
H72 C67 0.949 . S
C73 C68 1.399 . S
C73 C71 1.382 . S
C73 H74 0.952 . S
H74 C73 0.952 . S
H75 C71 0.950 . S
Tb76 N105 2.617 . S
Tb76 N111 2.572 . S
Tb76 O120 2.465 . S
Tb76 O121 2.387 . S
Tb76 O123 2.428 . S
Tb76 O124 2.308 1_565 S
Tb76 O128 2.349 1_465 S
Tb76 O131 2.393 1_455 S
Tb76 C140 2.802 . S
C77 N78 1.379 . S
C77 C80 1.416 . S
C77 C84 1.424 . S
N78 C77 1.379 . S
N78 C81 1.334 1_655 S
N78 Tb87 2.617 . S
C79 C81 1.390 . S
C79 C82 1.339 1_455 S
C79 H99 0.930 . S
C80 C77 1.416 . S
C80 C82 1.416 . S
C80 C86 1.448 . S
C81 N78 1.334 1_455 S
C81 C79 1.390 . S
C81 H92 0.930 . S
C82 C79 1.339 1_655 S
C82 C80 1.416 . S
C82 H103 0.930 . S
C83 C84 1.413 . S
C83 C85 1.427 . S
C83 C89 1.416 . S
C84 C77 1.424 . S
C84 C83 1.413 . S
C84 N88 1.361 . S
C85 C83 1.427 . S
C85 C86 1.328 . S
C85 H100 0.929 . S
C86 C80 1.448 . S
C86 C85 1.328 . S
C86 H101 0.930 . S
Tb87 N78 2.617 . S
Tb87 N88 2.572 . S
Tb87 O122 2.349 1_655 S
Tb87 O125 2.393 1_655 S
Tb87 O126 2.465 . S
Tb87 O127 2.387 . S
Tb87 O129 2.428 . S
Tb87 O130 2.308 1_545 S
Tb87 C151 2.802 . S
N88 C84 1.361 . S
N88 Tb87 2.572 . S
N88 C90 1.340 . S
C89 C83 1.416 . S
C89 C91 1.332 . S
C89 H97 0.931 . S
C90 N88 1.340 . S
C90 C91 1.407 . S
C90 H96 0.930 . S
C91 C89 1.332 . S
C91 C90 1.407 . S
C91 H93 0.929 . S
H92 C81 0.930 . S
H93 C91 0.929 . S
H94 C109 0.930 1_655 S
H95 C116 0.929 . S
H96 C90 0.930 . S
H97 C89 0.931 . S
H98 C112 0.930 . S
H99 C79 0.930 . S
H100 C85 0.929 . S
H101 C86 0.930 . S
H102 C107 0.930 1_655 S
H103 C82 0.930 . S
H104 C115 0.931 . S
N105 Tb76 2.617 . S
N105 C106 1.379 . S
N105 C109 1.334 . S
C106 N105 1.379 . S
C106 C108 1.416 . S
C106 C114 1.424 . S
C107 H102 0.930 1_455 S
C107 C109 1.390 . S
C107 C110 1.339 . S
C108 C106 1.416 . S
C108 C110 1.416 . S
C108 C141 1.448 . S
C109 H94 0.930 1_455 S
C109 N105 1.334 . S
C109 C107 1.390 . S
C110 C107 1.339 . S
C110 C108 1.416 . S
C110 H117 0.930 . S
N111 Tb76 2.572 . S
N111 C112 1.340 . S
N111 C114 1.361 . S
C112 H98 0.930 . S
C112 N111 1.340 . S
C112 C116 1.407 . S
C113 C114 1.413 . S
C113 C115 1.416 . S
C113 C142 1.427 . S
C114 C106 1.424 . S
C114 N111 1.361 . S
C114 C113 1.413 . S
C115 H104 0.931 . S
C115 C113 1.416 . S
C115 C116 1.332 . S
C116 H95 0.929 . S
C116 C112 1.407 . S
C116 C115 1.332 . S
H117 C110 0.930 . S
H118 C141 0.930 . S
H119 C142 0.929 . S
O120 Tb76 2.465 . S
O120 C140 1.264 . S
O121 Tb76 2.387 . S
O121 C132 1.264 . S
O122 Tb87 2.349 1_455 S
O122 C132 1.243 1_545 S
O123 Tb76 2.428 . S
O123 C140 1.256 . S
O124 Tb76 2.308 1_545 S
O124 C139 1.266 . S
O125 Tb87 2.393 1_455 S
O125 C139 1.248 . S
O126 Tb87 2.465 . S
O126 C151 1.264 . S
O127 Tb87 2.387 . S
O127 C143 1.264 . S
O128 Tb76 2.349 1_645 S
O128 C143 1.243 . S
O129 Tb87 2.428 . S
O129 C151 1.256 . S
O130 Tb87 2.308 1_565 S
O130 C150 1.266 . S
O131 Tb76 2.393 1_655 S
O131 C150 1.248 . S
C132 O121 1.264 . S
C132 O122 1.243 1_565 S
C133 C136 1.399 . S
C133 C138 1.383 . S
C133 C140 1.496 . S
C134 C135 1.399 . S
C134 C138 1.389 . S
C135 C134 1.399 . S
C135 C137 1.380 . S
C135 H152 0.929 . S
C136 C133 1.399 . S
C136 C137 1.392 . S
C136 H153 0.929 . S
C137 C135 1.380 . S
C137 C136 1.392 . S
C137 H154 0.929 . S
C138 C133 1.383 . S
C138 C134 1.389 . S
C138 H155 0.931 . S
C139 O124 1.266 . S
C139 O125 1.248 . S
C140 Tb76 2.802 . S
C140 O120 1.264 . S
C140 O123 1.256 . S
C140 C133 1.496 . S
C141 C108 1.448 . S
C141 H118 0.930 . S
C141 C142 1.328 . S
C142 C113 1.427 . S
C142 H119 0.929 . S
C142 C141 1.328 . S
C143 O127 1.264 . S
C143 O128 1.243 . S
C144 C147 1.399 . S
C144 C148 1.383 . S
C144 C151 1.496 . S
C145 C146 1.399 . S
C145 C148 1.389 . S
C146 C145 1.399 . S
C146 C149 1.380 . S
C146 H156 0.929 . S
C147 C144 1.399 . S
C147 C149 1.392 . S
C147 H157 0.929 . S
C148 C144 1.383 . S
C148 C145 1.389 . S
C148 H158 0.931 . S
C149 C146 1.380 . S
C149 C147 1.392 . S
C149 H159 0.929 . S
C150 O130 1.266 . S
C150 O131 1.248 . S
C151 Tb87 2.802 . S
C151 O126 1.264 . S
C151 O129 1.256 . S
C151 C144 1.496 . S
H152 C135 0.929 . S
H153 C136 0.929 . S
H154 C137 0.929 . S
H155 C138 0.931 . S
H156 C146 0.929 . S
H157 C147 0.929 . S
H158 C148 0.931 . S
H159 C149 0.929 . S
Tb160 N189 2.613 1_556 S
Tb160 N195 2.572 1_556 S
Tb160 O204 2.465 . S
Tb160 O205 2.387 1_556 S
Tb160 O207 2.428 . S
Tb160 O208 2.308 1_556 S
Tb160 O212 2.349 . S
Tb160 O215 2.393 1_556 S
Tb160 C224 2.802 . S
C161 N162 1.379 . S
C161 C164 1.416 . S
C161 C168 1.424 . S
N162 C161 1.379 . S
N162 C165 1.334 . S
N162 Tb171 2.617 . S
C163 C165 1.390 . S
C163 C166 1.339 . S
C163 H183 0.930 . S
C164 C161 1.416 . S
C164 C166 1.416 . S
C164 C170 1.448 . S
C165 N162 1.334 . S
C165 C163 1.390 . S
C165 H176 0.930 . S
C166 C163 1.339 . S
C166 C164 1.416 . S
C166 H187 0.930 . S
C167 C168 1.413 . S
C167 C169 1.427 . S
C167 C173 1.416 . S
C168 C161 1.424 . S
C168 C167 1.413 . S
C168 N172 1.361 . S
C169 C167 1.427 . S
C169 C170 1.328 . S
C169 H184 0.929 . S
C170 C164 1.448 . S
C170 C169 1.328 . S
C170 H185 0.930 . S
Tb171 N162 2.617 . S
Tb171 N172 2.572 . S
Tb171 O206 2.349 . S
Tb171 O209 2.393 . S
Tb171 O210 2.465 . S
Tb171 O211 2.387 . S
Tb171 O213 2.428 . S
Tb171 O214 2.308 . S
Tb171 C235 2.802 . S
N172 C168 1.361 . S
N172 Tb171 2.572 . S
N172 C174 1.340 . S
C173 C167 1.416 . S
C173 C175 1.332 . S
C173 H181 0.931 . S
C174 N172 1.340 . S
C174 C175 1.407 . S
C174 H180 0.930 . S
C175 C173 1.332 . S
C175 C174 1.407 . S
C175 H177 0.929 . S
H176 C165 0.930 . S
H177 C175 0.929 . S
H178 C193 0.930 . S
H179 C200 0.929 . S
H180 C174 0.930 . S
H181 C173 0.931 . S
H182 C196 0.930 . S
H183 C163 0.930 . S
H184 C169 0.929 . S
H185 C170 0.930 . S
H186 C191 0.930 . S
H187 C166 0.930 . S
H188 C199 0.931 . S
N189 Tb160 2.613 1_554 S
N189 C190 1.384 . S
N189 C193 1.336 1_554 S
C190 N189 1.384 . S
C190 C192 1.416 . S
C190 C198 1.424 . S
C191 H186 0.930 . S
C191 C193 1.390 . S
C191 C194 1.339 1_556 S
C192 C190 1.416 . S
C192 C194 1.416 . S
C192 C225 1.448 . S
C193 H178 0.930 . S
C193 N189 1.336 1_556 S
C193 C191 1.390 . S
C194 C191 1.339 1_554 S
C194 C192 1.416 . S
C194 H201 0.930 . S
N195 Tb160 2.572 1_554 S
N195 C196 1.340 . S
N195 C198 1.361 . S
C196 H182 0.930 . S
C196 N195 1.340 . S
C196 C200 1.407 . S
C197 C198 1.413 . S
C197 C199 1.416 . S
C197 C226 1.427 . S
C198 C190 1.424 . S
C198 N195 1.361 . S
C198 C197 1.413 . S
C199 H188 0.931 . S
C199 C197 1.416 . S
C199 C200 1.332 . S
C200 H179 0.929 . S
C200 C196 1.407 . S
C200 C199 1.332 . S
H201 C194 0.930 . S
H202 C225 0.930 . S
H203 C226 0.929 . S
O204 Tb160 2.465 . S
O204 C224 1.264 . S
O205 Tb160 2.387 1_554 S
O205 C216 1.264 . S
O206 Tb171 2.349 . S
O206 C216 1.243 . S
O207 Tb160 2.428 . S
O207 C224 1.256 . S
O208 Tb160 2.308 1_554 S
O208 C223 1.266 . S
O209 Tb171 2.393 . S
O209 C223 1.248 . S
O210 Tb171 2.465 . S
O210 C235 1.264 . S
O211 Tb171 2.387 . S
O211 C227 1.264 1_554 S
O212 Tb160 2.349 . S
O212 C227 1.243 . S
O213 Tb171 2.428 . S
O213 C235 1.256 . S
O214 Tb171 2.308 . S
O214 C234 1.266 . S
O215 Tb160 2.393 1_554 S
O215 C234 1.248 . S
C216 O205 1.264 . S
C216 O206 1.243 . S
C217 C220 1.399 . S
C217 C222 1.383 . S
C217 C224 1.496 . S
C218 C219 1.399 . S
C218 C222 1.389 . S
C219 C218 1.399 . S
C219 C221 1.380 . S
C219 H236 0.929 . S
C220 C217 1.399 . S
C220 C221 1.392 . S
C220 H237 0.929 . S
C221 C219 1.380 . S
C221 C220 1.392 . S
C221 H238 0.929 . S
C222 C217 1.383 . S
C222 C218 1.389 . S
C222 H239 0.931 . S
C223 O208 1.266 . S
C223 O209 1.248 . S
C224 Tb160 2.802 . S
C224 O204 1.264 . S
C224 O207 1.256 . S
C224 C217 1.496 . S
C225 C192 1.448 . S
C225 H202 0.930 . S
C225 C226 1.328 . S
C226 C197 1.427 . S
C226 H203 0.929 . S
C226 C225 1.328 . S
C227 O211 1.264 1_556 S
C227 O212 1.243 . S
C228 C231 1.399 . S
C228 C232 1.383 . S
C228 C235 1.496 . S
C229 C230 1.399 . S
C229 C232 1.389 . S
C230 C229 1.399 . S
C230 C233 1.380 . S
C230 H240 0.929 . S
C231 C228 1.399 . S
C231 C233 1.392 . S
C231 H241 0.929 . S
C232 C228 1.383 . S
C232 C229 1.389 . S
C232 H242 0.931 . S
C233 C230 1.380 . S
C233 C231 1.392 . S
C233 H243 0.929 . S
C234 O214 1.266 . S
C234 O215 1.248 . S
C235 Tb171 2.802 . S
C235 O210 1.264 . S
C235 O213 1.256 . S
C235 C228 1.496 . S
H236 C219 0.929 . S
H237 C220 0.929 . S
H238 C221 0.929 . S
H239 C222 0.931 . S
H240 C230 0.929 . S
H241 C231 0.929 . S
H242 C232 0.931 . S
H243 C233 0.929 . S
H244 C252 0.950 . S
H245 C257 0.950 . S
H246 C254 0.950 . S
H247 C256 0.950 . S
H248 C258 0.950 . S
H249 C260 0.950 . S
H250 C262 0.950 . S
H251 C263 0.950 . S
C252 H244 0.950 . S
C252 C253 1.386 . S
C252 C254 1.391 . S
C253 C252 1.386 . S
C253 C257 1.393 . S
C254 H246 0.950 . S
C254 C252 1.391 . S
C254 C255 1.400 . S
C255 C254 1.400 . S
C255 C256 1.398 . S
C255 C261 1.491 . S
C256 H247 0.950 . S
C256 C255 1.398 . S
C256 C257 1.391 . S
C257 H245 0.950 . S
C257 C253 1.393 . S
C257 C256 1.391 . S
C258 H248 0.950 . S
C258 C259 1.386 . S
C258 C260 1.391 . S
C259 C258 1.386 . S
C259 C263 1.393 . S
C260 H249 0.950 . S
C260 C258 1.391 . S
C260 C261 1.400 . S
C261 C255 1.491 . S
C261 C260 1.400 . S
C261 C262 1.398 . S
C262 H250 0.950 . S
C262 C261 1.398 . S
C262 C263 1.391 . S
C263 H251 0.950 . S
C263 C259 1.393 . S
C263 C262 1.391 . S
H264 C272 0.950 1_556 S
H265 C277 0.950 . S
H266 C274 0.950 1_556 S
H267 C276 0.950 . S
H268 C278 0.950 . S
H269 C280 0.950 . S
H270 C282 0.950 1_556 S
H271 C283 0.950 1_556 S
C272 H264 0.950 1_554 S
C272 C273 1.386 . S
C272 C274 1.391 . S
C273 C272 1.386 . S
C273 C277 1.393 . S
C274 H266 0.950 1_554 S
C274 C272 1.391 . S
C274 C275 1.400 . S
C275 C274 1.400 . S
C275 C276 1.398 . S
C275 C281 1.491 . S
C276 H267 0.950 . S
C276 C275 1.398 . S
C276 C277 1.391 . S
C277 H265 0.950 . S
C277 C273 1.393 . S
C277 C276 1.391 . S
C278 H268 0.950 . S
C278 C279 1.386 . S
C278 C280 1.391 . S
C279 C278 1.386 . S
C279 C283 1.393 . S
C280 H269 0.950 . S
C280 C278 1.391 . S
C280 C281 1.400 . S
C281 C275 1.491 . S
C281 C280 1.400 . S
C281 C282 1.398 . S
C282 H270 0.950 1_554 S
C282 C281 1.398 . S
C282 C283 1.391 . S
C283 H271 0.950 1_554 S
C283 C279 1.393 . S
C283 C282 1.391 . S
H284 C292 0.950 . S
H285 C297 0.950 . S
H286 C294 0.950 . S
H287 C296 0.950 . S
H288 C298 0.950 . S
H289 C300 0.950 . S
H290 C302 0.950 . S
H291 C303 0.950 . S
C292 H284 0.950 . S
C292 C293 1.386 . S
C292 C294 1.391 . S
C293 C292 1.386 . S
C293 C297 1.393 . S
C294 H286 0.950 . S
C294 C292 1.391 . S
C294 C295 1.400 . S
C295 C294 1.400 . S
C295 C296 1.398 . S
C295 C301 1.491 . S
C296 H287 0.950 . S
C296 C295 1.398 . S
C296 C297 1.391 . S
C297 H285 0.950 . S
C297 C293 1.393 . S
C297 C296 1.391 . S
C298 H288 0.950 . S
C298 C299 1.386 . S
C298 C300 1.391 . S
C299 C298 1.386 . S
C299 C303 1.393 . S
C300 H289 0.950 . S
C300 C298 1.391 . S
C300 C301 1.400 . S
C301 C295 1.491 . S
C301 C300 1.400 . S
C301 C302 1.398 . S
C302 H290 0.950 . S
C302 C301 1.398 . S
C302 C303 1.391 . S
C303 H291 0.950 . S
C303 C299 1.393 . S
C303 C302 1.391 . S
H304 C312 0.950 . S
H305 C317 0.950 . S
H306 C314 0.950 . S
H307 C316 0.950 . S
H308 C318 0.950 . S
H309 C320 0.950 . S
H310 C322 0.950 . S
H311 C323 0.950 . S
C312 H304 0.950 . S
C312 C313 1.386 . S
C312 C314 1.391 . S
C313 C312 1.386 . S
C313 C317 1.393 . S
C314 H306 0.950 . S
C314 C312 1.391 . S
C314 C315 1.400 . S
C315 C314 1.400 . S
C315 C316 1.398 . S
C315 C321 1.491 . S
C316 H307 0.950 . S
C316 C315 1.398 . S
C316 C317 1.391 . S
C317 H305 0.950 . S
C317 C313 1.393 . S
C317 C316 1.391 . S
C318 H308 0.950 . S
C318 C319 1.386 . S
C318 C320 1.391 . S
C319 C318 1.386 . S
C319 C323 1.393 . S
C320 H309 0.950 . S
C320 C318 1.391 . S
C320 C321 1.400 . S
C321 C315 1.491 . S
C321 C320 1.400 . S
C321 C322 1.398 . S
C322 H310 0.950 . S
C322 C321 1.398 . S
C322 C323 1.391 . S
C323 H311 0.950 . S
C323 C319 1.393 . S
C323 C322 1.391 . S
H324 C332 0.950 . S
H325 C337 0.950 . S
H326 C334 0.950 . S
H327 C336 0.950 . S
H328 C338 0.950 . S
H329 C340 0.950 . S
H330 C342 0.950 . S
H331 C343 0.950 1_545 S
C332 H324 0.950 . S
C332 C333 1.386 . S
C332 C334 1.391 . S
C333 C332 1.386 . S
C333 C337 1.393 . S
C334 H326 0.950 . S
C334 C332 1.391 . S
C334 C335 1.400 . S
C335 C334 1.400 . S
C335 C336 1.398 . S
C335 C341 1.491 . S
C336 H327 0.950 . S
C336 C335 1.398 . S
C336 C337 1.391 . S
C337 H325 0.950 . S
C337 C333 1.393 . S
C337 C336 1.391 . S
C338 H328 0.950 . S
C338 C339 1.386 . S
C338 C340 1.391 . S
C339 C338 1.386 . S
C339 C343 1.393 . S
C340 H329 0.950 . S
C340 C338 1.391 . S
C340 C341 1.400 . S
C341 C335 1.491 . S
C341 C340 1.400 . S
C341 C342 1.398 . S
C342 H330 0.950 . S
C342 C341 1.398 . S
C342 C343 1.391 . S
C343 H331 0.950 1_565 S
C343 C339 1.393 . S
C343 C342 1.391 . S
H344 C352 0.950 . S
H345 C357 0.950 . S
H346 C354 0.950 . S
H347 C356 0.950 . S
H348 C358 0.950 . S
H349 C360 0.950 . S
H350 C362 0.950 . S
H351 C363 0.950 . S
C352 H344 0.950 . S
C352 C353 1.386 . S
C352 C354 1.391 . S
C353 C352 1.386 . S
C353 C357 1.393 . S
C354 H346 0.950 . S
C354 C352 1.391 . S
C354 C355 1.400 . S
C355 C354 1.400 . S
C355 C356 1.398 . S
C355 C361 1.491 . S
C356 H347 0.950 . S
C356 C355 1.398 . S
C356 C357 1.391 . S
C357 H345 0.950 . S
C357 C353 1.393 . S
C357 C356 1.391 . S
C358 H348 0.950 . S
C358 C359 1.386 . S
C358 C360 1.391 . S
C359 C358 1.386 . S
C359 C363 1.393 . S
C360 H349 0.950 . S
C360 C358 1.391 . S
C360 C361 1.400 . S
C361 C355 1.491 . S
C361 C360 1.400 . S
C361 C362 1.398 . S
C362 H350 0.950 . S
C362 C361 1.398 . S
C362 C363 1.391 . S
C363 H351 0.950 . S
C363 C359 1.393 . S
C363 C362 1.391 . S
H364 C372 0.950 . S
H365 C377 0.950 . S
H366 C374 0.950 . S
H367 C376 0.950 . S
H368 C378 0.950 . S
H369 C380 0.950 . S
H370 C382 0.950 . S
H371 C383 0.950 . S
C372 H364 0.950 . S
C372 C373 1.386 . S
C372 C374 1.391 . S
C373 C372 1.386 . S
C373 C377 1.393 . S
C374 H366 0.950 . S
C374 C372 1.391 . S
C374 C375 1.400 . S
C375 C374 1.400 . S
C375 C376 1.398 . S
C375 C381 1.491 . S
C376 H367 0.950 . S
C376 C375 1.398 . S
C376 C377 1.391 . S
C377 H365 0.950 . S
C377 C373 1.393 . S
C377 C376 1.391 . S
C378 H368 0.950 . S
C378 C379 1.386 . S
C378 C380 1.391 . S
C379 C378 1.386 . S
C379 C383 1.393 . S
C380 H369 0.950 . S
C380 C378 1.391 . S
C380 C381 1.400 . S
C381 C375 1.491 . S
C381 C380 1.400 . S
C381 C382 1.398 . S
C382 H370 0.950 . S
C382 C381 1.398 . S
C382 C383 1.391 . S
C383 H371 0.950 . S
C383 C379 1.393 . S
C383 C382 1.391 . S
H384 C392 0.950 . S
H385 C397 0.950 . S
H386 C394 0.950 . S
H387 C396 0.950 . S
H388 C398 0.950 . S
H389 C400 0.950 . S
H390 C402 0.950 . S
H391 C403 0.950 . S
C392 H384 0.950 . S
C392 C393 1.386 . S
C392 C394 1.391 . S
C393 C392 1.386 . S
C393 C397 1.393 . S
C394 H386 0.950 . S
C394 C392 1.391 . S
C394 C395 1.400 . S
C395 C394 1.400 . S
C395 C396 1.398 . S
C395 C401 1.491 . S
C396 H387 0.950 . S
C396 C395 1.398 . S
C396 C397 1.391 . S
C397 H385 0.950 . S
C397 C393 1.393 . S
C397 C396 1.391 . S
C398 H388 0.950 . S
C398 C399 1.386 . S
C398 C400 1.391 . S
C399 C398 1.386 . S
C399 C403 1.393 . S
C400 H389 0.950 . S
C400 C398 1.391 . S
C400 C401 1.400 . S
C401 C395 1.491 . S
C401 C400 1.400 . S
C401 C402 1.398 . S
C402 H390 0.950 . S
C402 C401 1.398 . S
C402 C403 1.391 . S
C403 H391 0.950 . S
C403 C399 1.393 . S
C403 C402 1.391 . S
H404 C412 0.950 . S
H405 C417 0.950 . S
H406 C414 0.950 . S
H407 C416 0.950 . S
H408 C418 0.950 . S
H409 C420 0.950 . S
H410 C422 0.950 . S
H411 C423 0.950 . S
C412 H404 0.950 . S
C412 C413 1.386 . S
C412 C414 1.391 . S
C413 C412 1.386 . S
C413 C417 1.393 . S
C414 H406 0.950 . S
C414 C412 1.391 . S
C414 C415 1.400 . S
C415 C414 1.400 . S
C415 C416 1.398 . S
C415 C421 1.491 . S
C416 H407 0.950 . S
C416 C415 1.398 . S
C416 C417 1.391 . S
C417 H405 0.950 . S
C417 C413 1.393 . S
C417 C416 1.391 . S
C418 H408 0.950 . S
C418 C419 1.386 . S
C418 C420 1.391 . S
C419 C418 1.386 . S
C419 C423 1.393 . S
C420 H409 0.950 . S
C420 C418 1.391 . S
C420 C421 1.400 . S
C421 C415 1.491 . S
C421 C420 1.400 . S
C421 C422 1.398 . S
C422 H410 0.950 . S
C422 C421 1.398 . S
C422 C423 1.391 . S
C423 H411 0.950 . S
C423 C419 1.393 . S
C423 C422 1.391 . S
H424 C432 0.950 . S
H425 C437 0.950 1_554 S
H426 C434 0.950 . S
H427 C436 0.950 . S
H428 C438 0.950 . S
H429 C440 0.950 . S
H430 C442 0.950 . S
H431 C443 0.950 . S
C432 H424 0.950 . S
C432 C433 1.386 . S
C432 C434 1.391 . S
C433 C432 1.386 . S
C433 C437 1.393 . S
C434 H426 0.950 . S
C434 C432 1.391 . S
C434 C435 1.400 . S
C435 C434 1.400 . S
C435 C436 1.398 . S
C435 C441 1.491 . S
C436 H427 0.950 . S
C436 C435 1.398 . S
C436 C437 1.391 . S
C437 H425 0.950 1_556 S
C437 C433 1.393 . S
C437 C436 1.391 . S
C438 H428 0.950 . S
C438 C439 1.386 . S
C438 C440 1.391 . S
C439 C438 1.386 . S
C439 C443 1.393 . S
C440 H429 0.950 . S
C440 C438 1.391 . S
C440 C441 1.400 . S
C441 C435 1.491 . S
C441 C440 1.400 . S
C441 C442 1.398 . S
C442 H430 0.950 . S
C442 C441 1.398 . S
C442 C443 1.391 . S
C443 H431 0.950 . S
C443 C439 1.393 . S
C443 C442 1.391 . S
H444 C452 0.950 . S
H445 C457 0.950 . S
H446 C454 0.950 . S
H447 C456 0.950 . S
H448 C458 0.950 . S
H449 C460 0.950 . S
H450 C462 0.950 . S
H451 C463 0.950 . S
C452 H444 0.950 . S
C452 C453 1.386 . S
C452 C454 1.391 . S
C453 C452 1.386 . S
C453 C457 1.393 . S
C454 H446 0.950 . S
C454 C452 1.391 . S
C454 C455 1.400 . S
C455 C454 1.400 . S
C455 C456 1.398 . S
C455 C461 1.491 . S
C456 H447 0.950 . S
C456 C455 1.398 . S
C456 C457 1.391 . S
C457 H445 0.950 . S
C457 C453 1.393 . S
C457 C456 1.391 . S
C458 H448 0.950 . S
C458 C459 1.386 . S
C458 C460 1.391 . S
C459 C458 1.386 . S
C459 C463 1.393 . S
C460 H449 0.950 . S
C460 C458 1.391 . S
C460 C461 1.400 . S
C461 C455 1.491 . S
C461 C460 1.400 . S
C461 C462 1.398 . S
C462 H450 0.950 . S
C462 C461 1.398 . S
C462 C463 1.391 . S
C463 H451 0.950 . S
C463 C459 1.393 . S
C463 C462 1.391 . S
H464 C472 0.950 . S
H465 C477 0.950 . S
H466 C474 0.950 . S
H467 C476 0.950 . S
H468 C478 0.950 . S
H469 C480 0.950 . S
H470 C482 0.950 . S
H471 C483 0.950 1_545 S
C472 H464 0.950 . S
C472 C473 1.386 . S
C472 C474 1.391 . S
C473 C472 1.386 . S
C473 C477 1.393 . S
C474 H466 0.950 . S
C474 C472 1.391 . S
C474 C475 1.400 . S
C475 C474 1.400 . S
C475 C476 1.398 . S
C475 C481 1.491 . S
C476 H467 0.950 . S
C476 C475 1.398 . S
C476 C477 1.391 . S
C477 H465 0.950 . S
C477 C473 1.393 . S
C477 C476 1.391 . S
C478 H468 0.950 . S
C478 C479 1.386 . S
C478 C480 1.391 . S
C479 C478 1.386 . S
C479 C483 1.393 . S
C480 H469 0.950 . S
C480 C478 1.391 . S
C480 C481 1.400 . S
C481 C475 1.491 . S
C481 C480 1.400 . S
C481 C482 1.398 . S
C482 H470 0.950 . S
C482 C481 1.398 . S
C482 C483 1.391 . S
C483 H471 0.950 1_565 S
C483 C479 1.393 . S
C483 C482 1.391 . S
C259 C139 1.687 . S
C253 C68 1.643 . S
C273 C11 1.576 . S
C279 C234 1.707 . S
C293 C30 1.611 . S
C299 C150 1.712 . S
C313 C49 1.608 . S
C319 C223 1.665 . S
C339 C134 1.515 . S
C333 C2 1.665 . S
C359 C227 1.791 . S
C353 C25 1.789 . S
C373 C40 1.697 . S
C379 C143 1.713 . S
C393 C59 1.665 . S
C399 C218 1.486 . S
C419 C229 1.461 . S
C413 C21 1.606 . S
C439 C145 1.444 . S
C433 C44 1.612 1_556 S
C459 C216 1.683 . S
C453 C63 1.683 . S
C473 C6 1.635 . S
C479 C132 1.643 . S
