# Generated by pormake.
# Topology pyr, (3,6)-cn, num edge types: 1
# Building blocks:
#     Node 0, Type 0, BuildingBlock: INOVEN_clean_linker_0, # of connection points: 3
#     Node 1, Type 0, BuildingBlock: INOVEN_clean_linker_0, # of connection points: 3
#     Node 2, Type 0, BuildingBlock: INOVEN_clean_linker_0, # of connection points: 3
#     Node 3, Type 0, BuildingBlock: INOVEN_clean_linker_0, # of connection points: 3
#     Node 4, Type 0, BuildingBlock: INOVEN_clean_linker_0, # of connection points: 3
#     Node 5, Type 0, BuildingBlock: INOVEN_clean_linker_0, # of connection points: 3
#     Node 6, Type 0, BuildingBlock: INOVEN_clean_linker_0, # of connection points: 3
#     Node 7, Type 0, BuildingBlock: INOVEN_clean_linker_0, # of connection points: 3
#     Node 8, Type 1, BuildingBlock: MIFKUJ_clean_sbu_0, # of connection points: 6
#     Node 9, Type 1, BuildingBlock: MIFKUJ_clean_sbu_0, # of connection points: 6
#     Node 10, Type 1, BuildingBlock: MIFKUJ_clean_sbu_0, # of connection points: 6
#     Node 11, Type 1, BuildingBlock: MIFKUJ_clean_sbu_0, # of connection points: 6
#     Edge 12, Type (0, 1), BuildingBlock: KIFKEQ_clean_linker_1, # of connection points: 2
#     Edge 13, Type (0, 1), BuildingBlock: KIFKEQ_clean_linker_1, # of connection points: 2
#     Edge 14, Type (0, 1), BuildingBlock: KIFKEQ_clean_linker_1, # of connection points: 2
#     Edge 15, Type (0, 1), BuildingBlock: KIFKEQ_clean_linker_1, # of connection points: 2
#     Edge 16, Type (0, 1), BuildingBlock: KIFKEQ_clean_linker_1, # of connection points: 2
#     Edge 17, Type (0, 1), BuildingBlock: KIFKEQ_clean_linker_1, # of connection points: 2
#     Edge 18, Type (0, 1), BuildingBlock: KIFKEQ_clean_linker_1, # of connection points: 2
#     Edge 19, Type (0, 1), BuildingBlock: KIFKEQ_clean_linker_1, # of connection points: 2
#     Edge 20, Type (0, 1), BuildingBlock: KIFKEQ_clean_linker_1, # of connection points: 2
#     Edge 21, Type (0, 1), BuildingBlock: KIFKEQ_clean_linker_1, # of connection points: 2
#     Edge 22, Type (0, 1), BuildingBlock: KIFKEQ_clean_linker_1, # of connection points: 2
#     Edge 23, Type (0, 1), BuildingBlock: KIFKEQ_clean_linker_1, # of connection points: 2
#     Edge 24, Type (0, 1), BuildingBlock: KIFKEQ_clean_linker_1, # of connection points: 2
#     Edge 25, Type (0, 1), BuildingBlock: KIFKEQ_clean_linker_1, # of connection points: 2
#     Edge 26, Type (0, 1), BuildingBlock: KIFKEQ_clean_linker_1, # of connection points: 2
#     Edge 27, Type (0, 1), BuildingBlock: KIFKEQ_clean_linker_1, # of connection points: 2
#     Edge 28, Type (0, 1), BuildingBlock: KIFKEQ_clean_linker_1, # of connection points: 2
#     Edge 29, Type (0, 1), BuildingBlock: KIFKEQ_clean_linker_1, # of connection points: 2
#     Edge 30, Type (0, 1), BuildingBlock: KIFKEQ_clean_linker_1, # of connection points: 2
#     Edge 31, Type (0, 1), BuildingBlock: KIFKEQ_clean_linker_1, # of connection points: 2
#     Edge 32, Type (0, 1), BuildingBlock: KIFKEQ_clean_linker_1, # of connection points: 2
#     Edge 33, Type (0, 1), BuildingBlock: KIFKEQ_clean_linker_1, # of connection points: 2
#     Edge 34, Type (0, 1), BuildingBlock: KIFKEQ_clean_linker_1, # of connection points: 2
#     Edge 35, Type (0, 1), BuildingBlock: KIFKEQ_clean_linker_1, # of connection points: 2
# Relax obj value: 0.054
# Max RMSD: 0.189
# Mean RMSD: 0.124
data_MOF--net-pyr--node1-MIFKUJ_clean_sbu_0--node2-INOVEN_clean_linker_0--edge1-KIFKEQ_clean_linker_1
_symmetry_space_group_name_H-M    P1
_symmetry_Int_Tables_number       1
_symmetry_cell_setting            triclinic
loop_
_symmetry_equiv_pos_as_xyz
'x, y, z'
_cell_length_a     38.775461
_cell_length_b     35.389306
_cell_length_c     39.269461
_cell_angle_alpha  86.528168
_cell_angle_beta   89.070214
_cell_angle_gamma 103.24188
loop_
_atom_site_label
_atom_site_type_symbol
_atom_site_fract_x
_atom_site_fract_y
_atom_site_fract_z
_atom_type_partial_charge
H0 H 0.13479 0.19777 0.23989 0.0
H1 H 0.21154 0.12751 0.24922 0.0
H2 H 0.2142 0.20679 0.16077 0.0
N3 N 0.15641 0.23223 0.18091 0.0
N4 N 0.16349 0.24402 0.15049 0.0
C5 C 0.15744 0.1884 0.22982 0.0
C6 C 0.17114 0.16036 0.24835 0.0
C7 C 0.17233 0.20464 0.19824 0.0
C8 C 0.20218 0.19356 0.185 0.0
C9 C 0.21707 0.16622 0.20363 0.0
C10 C 0.20116 0.14961 0.23524 0.0
H11 H 0.33339 0.82968 0.65288 0.0
H12 H 0.41164 0.83523 0.73019 0.0
H13 H 0.32739 0.89499 0.74045 0.0
N14 N 0.29687 0.8738 0.6806 0.0
N15 N 0.28085 0.89598 0.6943 0.0
C16 C 0.34431 0.8401 0.67672 0.0
C17 C 0.37488 0.82965 0.68907 0.0
C18 C 0.32716 0.86358 0.69491 0.0
C19 C 0.34043 0.87658 0.72632 0.0
C20 C 0.37096 0.86643 0.73924 0.0
C21 C 0.38807 0.84304 0.7204 0.0
H22 H 0.61381 0.35465 0.84599 0.0
H23 H 0.6991 0.36281 0.91571 0.0
H24 H 0.70615 0.44821 0.83118 0.0
N25 N 0.64154 0.41631 0.80674 0.0
N26 N 0.65597 0.44525 0.78763 0.0
C27 C 0.63979 0.36926 0.85413 0.0
C28 C 0.65451 0.3543 0.88283 0.0
C29 C 0.65802 0.40307 0.83565 0.0
C30 C 0.6917 0.42245 0.84594 0.0
C31 C 0.70689 0.40814 0.87495 0.0
C32 C 0.68786 0.37413 0.89332 0.0
H33 H 0.80427 0.62261 0.3183 0.0
H34 H 0.80827 0.71115 0.38921 0.0
H35 H 0.89405 0.72061 0.31595 0.0
N36 N 0.86487 0.65314 0.28617 0.0
N37 N 0.89433 0.66803 0.2721 0.0
C38 C 0.81787 0.6497 0.32838 0.0
C39 C 0.80252 0.66437 0.35575 0.0
C40 C 0.85094 0.66942 0.31405 0.0
C41 C 0.86875 0.70475 0.32711 0.0
C42 C 0.8531 0.72019 0.35399 0.0
C43 C 0.82031 0.6995 0.36833 0.0
H44 H 0.83029 0.919 0.80124 0.0
H45 H 0.91464 0.85897 0.81465 0.0
H46 H 0.83808 0.85563 0.896 0.0
N47 N 0.8019 0.90249 0.86203 0.0
N48 N 0.79151 0.89796 0.89255 0.0
C49 C 0.84434 0.90148 0.81677 0.0
C50 C 0.87477 0.89147 0.8037 0.0
C51 C 0.83151 0.8894 0.84998 0.0
C52 C 0.84819 0.86527 0.87029 0.0
C53 C 0.87786 0.85349 0.85739 0.0
C54 C 0.89136 0.86734 0.82433 0.0
H55 H 0.62767 0.1843 0.33334 0.0
H56 H 0.71082 0.12249 0.32789 0.0
H57 H 0.70264 0.1916 0.4132 0.0
N58 N 0.6448 0.21574 0.39089 0.0
N59 N 0.65659 0.2344 0.41579 0.0
C60 C 0.65071 0.17617 0.34414 0.0
C61 C 0.66775 0.15163 0.32695 0.0
C62 C 0.6631 0.19072 0.37501 0.0
C63 C 0.69311 0.18055 0.38913 0.0
C64 C 0.71046 0.15558 0.37249 0.0
C65 C 0.69731 0.14094 0.34145 0.0
H66 H 0.38836 0.7252 0.22231 0.0
H67 H 0.3089 0.71505 0.14664 0.0
H68 H 0.3048 0.62153 0.22346 0.0
N69 N 0.36384 0.65819 0.2556 0.0
N70 N 0.35127 0.62638 0.27169 0.0
C71 C 0.3644 0.70879 0.21151 0.0
C72 C 0.35073 0.72402 0.18235 0.0
C73 C 0.34801 0.67207 0.22652 0.0
C74 C 0.31724 0.6502 0.2122 0.0
C75 C 0.30304 0.66529 0.18289 0.0
C76 C 0.31998 0.70239 0.16848 0.0
H77 H 0.10551 0.32585 0.71979 0.0
H78 H 0.19703 0.33736 0.65289 0.0
H79 H 0.19388 0.42471 0.72316 0.0
N80 N 0.12897 0.39105 0.75097 0.0
N81 N 0.14256 0.42175 0.76457 0.0
C82 C 0.13146 0.34194 0.71033 0.0
C83 C 0.14948 0.32708 0.68475 0.0
C84 C 0.14732 0.37706 0.72451 0.0
C85 C 0.18136 0.39754 0.71258 0.0
C86 C 0.19925 0.38345 0.6866 0.0
C87 C 0.18311 0.34836 0.67284 0.0
Zn88 Zn 0.03595 0.01148 0.53589 0.0
Zn89 Zn 0.97124 0.03449 0.50159 0.0
C90 C 0.07155 0.0861 0.5552 0.0
O91 O 0.09632 0.07698 0.53627 0.0
C92 C 0.93459 0.95889 0.48443 0.0
O93 O 0.91 0.96814 0.50351 0.0
O94 O 0.07453 0.98762 0.55519 0.0
O95 O 0.98971 0.97551 0.55138 0.0
O96 O 0.96622 0.02611 0.55306 0.0
C97 C 0.07544 0.98173 0.5874 0.0
O98 O 0.05065 0.99025 0.60671 0.0
O99 O 0.04141 0.06249 0.5585 0.0
C100 C 0.93153 0.08705 0.46707 0.0
O101 O 0.9629 0.10896 0.45816 0.0
O102 O 0.92941 0.05574 0.48553 0.0
O103 O 0.01638 0.06869 0.48065 0.0
O104 O 0.0463 0.02277 0.4856 0.0
O105 O 0.96464 0.98257 0.48058 0.0
C106 C 0.96928 0.99328 0.56593 0.0
C107 C 0.04095 0.05344 0.47017 0.0
Zn108 Zn 0.52463 0.01142 0.00321 0.0
Zn109 Zn 0.48264 0.06311 0.06996 0.0
C110 C 0.47402 0.9587 0.96252 0.0
O111 O 0.47108 0.93392 0.98928 0.0
C112 C 0.54831 0.08255 0.10722 0.0
O113 O 0.56055 0.10257 0.07859 0.0
O114 O 0.56989 0.99467 0.99454 0.0
O115 O 0.53563 0.06975 0.99766 0.0
O116 O 0.50703 0.1007 0.03188 0.0
C117 C 0.58871 0.00833 0.96791 0.0
O118 O 0.57879 0.03433 0.94739 0.0
O119 O 0.49394 0.99255 0.96366 0.0
C120 C 0.4275 0.0726 0.116 0.0
O121 O 0.4377 0.04445 0.13348 0.0
O122 O 0.44326 0.08593 0.08767 0.0
O123 O 0.4587 0.00824 0.05995 0.0
O124 O 0.50347 0.98212 0.04698 0.0
O125 O 0.51648 0.06257 0.10897 0.0
C126 C 0.52825 0.10085 0.00686 0.0
C127 C 0.47401 0.98014 0.0624 0.0
Zn128 Zn 0.51188 0.49786 0.5134 0.0
Zn129 Zn 0.49426 0.56901 0.54712 0.0
C130 C 0.56352 0.53169 0.46315 0.0
O131 O 0.54115 0.50652 0.44618 0.0
C132 C 0.44116 0.53183 0.59673 0.0
O133 O 0.46107 0.55743 0.6153 0.0
O134 O 0.51843 0.44599 0.49865 0.0
O135 O 0.51241 0.49381 0.5649 0.0
O136 O 0.53727 0.55562 0.56831 0.0
C137 C 0.54304 0.43322 0.5131 0.0
O138 O 0.56037 0.45272 0.53738 0.0
O139 O 0.55626 0.53538 0.49432 0.0
C140 C 0.46232 0.63264 0.55716 0.0
O141 O 0.44024 0.61401 0.53546 0.0
O142 O 0.48931 0.61975 0.56528 0.0
O143 O 0.49126 0.57449 0.49595 0.0
O144 O 0.47032 0.51207 0.48948 0.0
O145 O 0.45061 0.52986 0.56584 0.0
C146 C 0.53314 0.5205 0.57977 0.0
C147 C 0.47252 0.54752 0.47967 0.0
Zn148 Zn 0.00334 0.58038 0.99296 0.0
Zn149 Zn 0.0188 0.50927 0.03492 0.0
C150 C 0.94775 0.54712 0.95145 0.0
O151 O 0.96935 0.57106 0.92948 0.0
C152 C 0.06987 0.54669 0.07852 0.0
O153 O 0.04412 0.52862 0.0999 0.0
O154 O 0.99919 0.63251 0.97171 0.0
O155 O 0.00566 0.58714 0.04367 0.0
O156 O 0.97982 0.52671 0.06036 0.0
C157 C 0.97417 0.64568 0.98418 0.0
O158 O 0.95509 0.62601 0.01017 0.0
O159 O 0.95681 0.54434 0.98233 0.0
C160 C 0.05292 0.44941 0.04221 0.0
O161 O 0.07136 0.47332 0.01811 0.0
O162 O 0.02518 0.45748 0.05479 0.0
O163 O 0.01547 0.5024 0.98428 0.0
O164 O 0.04212 0.56248 0.96782 0.0
O165 O 0.0653 0.54478 0.04657 0.0
C166 C 0.98609 0.56288 0.06515 0.0
C167 C 0.03525 0.52639 0.96283 0.0
H168 H 0.202 0.14434 0.30834 0.0
H169 H 0.10021 0.13549 0.26232 0.0
H170 H 0.17203 0.11875 0.36313 0.0
H171 H 0.07053 0.11061 0.31687 0.0
H172 H 0.03122 0.11263 0.42613 0.0
H173 H 0.06429 0.13784 0.37315 0.0
H174 H 0.13196 0.05761 0.39054 0.0
H175 H 0.09904 0.03241 0.44379 0.0
C176 C 0.1733 0.13658 0.30984 0.0
C177 C 0.15347 0.14237 0.28112 0.0
C178 C 0.15618 0.12206 0.34117 0.0
C179 C 0.11898 0.11325 0.34432 0.0
C180 C 0.09924 0.11801 0.31538 0.0
C181 C 0.11626 0.13225 0.28415 0.0
C182 C 0.05325 0.10048 0.41882 0.0
C183 C 0.06231 0.07031 0.43906 0.0
C184 C 0.07207 0.11479 0.38837 0.0
C185 C 0.10048 0.09942 0.37761 0.0
C186 C 0.11027 0.07009 0.3983 0.0
C187 C 0.09128 0.05556 0.42868 0.0
H188 H 0.33429 0.86548 0.79952 0.0
H189 H 0.43964 0.89916 0.7535 0.0
H190 H 0.35776 0.88873 0.85387 0.0
H191 H 0.46312 0.92205 0.80782 0.0
H192 H 0.48498 0.99736 0.89947 0.0
H193 H 0.45912 0.97555 0.84583 0.0
H194 H 0.39806 0.87044 0.89879 0.0
H195 H 0.42394 0.89217 0.95262 0.0
C196 C 0.36243 0.87798 0.80102 0.0
C197 C 0.38514 0.8805 0.77227 0.0
C198 C 0.37588 0.89099 0.83216 0.0
C199 C 0.41226 0.90727 0.83509 0.0
C200 C 0.43492 0.90998 0.80628 0.0
C201 C 0.42154 0.89657 0.77527 0.0
C202 C 0.46586 0.96971 0.89978 0.0
C203 C 0.4566 0.94646 0.93036 0.0
C204 C 0.45123 0.95713 0.86899 0.0
C205 C 0.42671 0.9212 0.86807 0.0
C206 C 0.41674 0.89837 0.89874 0.0
C207 C 0.43168 0.91076 0.92953 0.0
H208 H 0.58852 0.41448 0.76925 0.0
H209 H 0.68306 0.50271 0.74115 0.0
H210 H 0.55949 0.43447 0.71918 0.0
H211 H 0.65418 0.52247 0.69005 0.0
H212 H 0.53246 0.4481 0.60825 0.0
H213 H 0.56303 0.43106 0.65835 0.0
H214 H 0.60648 0.55294 0.67137 0.0
H215 H 0.57647 0.57009 0.62046 0.0
C216 C 0.60317 0.43814 0.75224 0.0
C217 C 0.63823 0.45707 0.75889 0.0
C218 C 0.58658 0.44947 0.72338 0.0
C219 C 0.60459 0.47983 0.70038 0.0
C220 C 0.63946 0.49916 0.70737 0.0
C221 C 0.65607 0.48783 0.73641 0.0
C222 C 0.54854 0.47134 0.62171 0.0
C223 C 0.55192 0.51048 0.61037 0.0
C224 C 0.56594 0.46155 0.6506 0.0
C225 C 0.58702 0.49063 0.66906 0.0
C226 C 0.5907 0.52982 0.65757 0.0
C227 C 0.57333 0.53964 0.62852 0.0
H228 H 0.95676 0.69431 0.24007 0.0
H229 H 0.86099 0.60384 0.24022 0.0
H230 H 0.98008 0.66771 0.1908 0.0
H231 H 0.88362 0.5777 0.19065 0.0
H232 H 0.99192 0.63823 0.08038 0.0
H233 H 0.96983 0.66239 0.13097 0.0
H234 H 0.92768 0.54433 0.17172 0.0
H235 H 0.94923 0.51999 0.12046 0.0
C236 C 0.94079 0.66875 0.22945 0.0
C237 C 0.90726 0.65129 0.24388 0.0
C238 C 0.95393 0.6536 0.20116 0.0
C239 C 0.93368 0.62058 0.18659 0.0
C240 C 0.90015 0.60283 0.2014 0.0
C241 C 0.88706 0.61797 0.22971 0.0
C242 C 0.97798 0.61731 0.10009 0.0
C243 C 0.97238 0.5771 0.09629 0.0
C244 C 0.96549 0.63123 0.12929 0.0
C245 C 0.94711 0.60538 0.15561 0.0
C246 C 0.94141 0.56511 0.15182 0.0
C247 C 0.95389 0.55113 0.12249 0.0
H248 H 0.23219 0.15157 0.1379 0.0
H249 H 0.2744 0.15492 0.2391 0.0
H250 H 0.28377 0.13051 0.11661 0.0
H251 H 0.32581 0.13374 0.21786 0.0
H252 H 0.38923 0.05118 0.17588 0.0
H253 H 0.33915 0.07513 0.19652 0.0
H254 H 0.34804 0.15295 0.10607 0.0
H255 H 0.39791 0.12858 0.0851 0.0
C256 C 0.25264 0.14823 0.15552 0.0
C257 C 0.24905 0.15472 0.19024 0.0
C258 C 0.28221 0.13616 0.14333 0.0
C259 C 0.30882 0.13025 0.16558 0.0
C260 C 0.30548 0.13734 0.20017 0.0
C261 C 0.27599 0.14946 0.21234 0.0
C262 C 0.38059 0.07346 0.16039 0.0
C263 C 0.39758 0.08792 0.12882 0.0
C264 C 0.35198 0.08735 0.17233 0.0
C265 C 0.33962 0.116 0.15296 0.0
C266 C 0.35667 0.13057 0.12142 0.0
C267 C 0.38538 0.11675 0.10951 0.0
H268 H 0.24526 0.94485 0.71822 0.0
H269 H 0.24874 0.87005 0.63614 0.0
H270 H 0.19467 0.96514 0.69251 0.0
H271 H 0.1979 0.88936 0.61081 0.0
H272 H 0.13365 0.96672 0.5554 0.0
H273 H 0.18299 0.94516 0.58161 0.0
H274 H 0.13265 0.94143 0.68112 0.0
H275 H 0.08372 0.96386 0.65501 0.0
C276 C 0.23493 0.93263 0.69481 0.0
C277 C 0.25087 0.90615 0.67921 0.0
C278 C 0.20593 0.94399 0.68016 0.0
C279 C 0.19223 0.92892 0.64953 0.0
C280 C 0.20808 0.90199 0.6341 0.0
C281 C 0.2371 0.89073 0.64873 0.0
C282 C 0.13304 0.96117 0.58286 0.0
C283 C 0.10476 0.96708 0.6031 0.0
C284 C 0.16127 0.94862 0.59789 0.0
C285 C 0.16184 0.94158 0.63351 0.0
C286 C 0.13334 0.94712 0.65368 0.0
C287 C 0.10515 0.95975 0.63866 0.0
H288 H 0.73536 0.48672 0.87442 0.0
H289 H 0.75956 0.37538 0.90068 0.0
H290 H 0.79373 0.51958 0.8929 0.0
H291 H 0.81735 0.40846 0.92021 0.0
H292 H 0.90055 0.48685 0.98609 0.0
H293 H 0.84221 0.45284 0.96762 0.0
H294 H 0.85775 0.52537 0.87367 0.0
H295 H 0.91585 0.55913 0.89184 0.0
C296 C 0.75311 0.46921 0.8839 0.0
C297 C 0.7426 0.42834 0.88604 0.0
C298 C 0.78649 0.48807 0.89464 0.0
C299 C 0.80998 0.46654 0.9081 0.0
C300 C 0.79955 0.42577 0.91039 0.0
C301 C 0.76637 0.40688 0.89927 0.0
C302 C 0.8915 0.49543 0.96148 0.0
C303 C 0.9128 0.52565 0.94043 0.0
C304 C 0.85822 0.47589 0.95087 0.0
C305 C 0.84545 0.48662 0.91927 0.0
C306 C 0.86677 0.51679 0.89829 0.0
C307 C 0.90014 0.53593 0.90865 0.0
H308 H 0.78492 0.64634 0.42317 0.0
H309 H 0.74138 0.63653 0.32281 0.0
H310 H 0.72697 0.61499 0.44879 0.0
H311 H 0.68298 0.60641 0.34827 0.0
H312 H 0.59207 0.51786 0.4027 0.0
H313 H 0.64964 0.54908 0.37693 0.0
H314 H 0.6698 0.62508 0.46011 0.0
H315 H 0.61252 0.59247 0.4867 0.0
C316 C 0.7628 0.63759 0.40663 0.0
C317 C 0.76758 0.64373 0.37103 0.0
C318 C 0.72951 0.6199 0.42129 0.0
C319 C 0.7001 0.60831 0.40068 0.0
C320 C 0.70505 0.61435 0.36497 0.0
C321 C 0.73848 0.63164 0.35032 0.0
C322 C 0.60869 0.54137 0.41545 0.0
C323 C 0.59774 0.55266 0.44679 0.0
C324 C 0.64172 0.55946 0.40053 0.0
C325 C 0.66454 0.58966 0.41636 0.0
C326 C 0.65325 0.60145 0.44747 0.0
C327 C 0.6203 0.583 0.46261 0.0
H328 H 0.16701 0.26576 0.08431 0.0
H329 H 0.1213 0.28468 0.18088 0.0
H330 H 0.13723 0.31231 0.05561 0.0
H331 H 0.09272 0.33193 0.15287 0.0
H332 H 0.02174 0.39211 0.09079 0.0
H333 H 0.04668 0.33957 0.1155 0.0
H334 H 0.14051 0.38019 0.05044 0.0
H335 H 0.11516 0.43139 0.02505 0.0
C336 C 0.15072 0.28009 0.09928 0.0
C337 C 0.14643 0.27162 0.13456 0.0
C338 C 0.13376 0.30679 0.08301 0.0
C339 C 0.11243 0.32585 0.10191 0.0
C340 C 0.10828 0.31728 0.13737 0.0
C341 C 0.12496 0.29041 0.15351 0.0
C342 C 0.04751 0.38948 0.08158 0.0
C343 C 0.06647 0.41598 0.05605 0.0
C344 C 0.06194 0.35956 0.09587 0.0
C345 C 0.09574 0.35572 0.0851 0.0
C346 C 0.11425 0.3818 0.05904 0.0
C347 C 0.09974 0.41143 0.04462 0.0
H348 H 0.62013 0.28753 0.85534 0.0
H349 H 0.64554 0.33782 0.95194 0.0
H350 H 0.58828 0.22696 0.88524 0.0
H351 H 0.61457 0.27664 0.98195 0.0
H352 H 0.52416 0.17439 0.02193 0.0
H353 H 0.55402 0.23593 0.99202 0.0
H354 H 0.60221 0.17364 0.92072 0.0
H355 H 0.57206 0.11222 0.95008 0.0
C356 C 0.6188 0.28567 0.88298 0.0
C357 C 0.63528 0.31747 0.90129 0.0
C358 C 0.60087 0.25084 0.90011 0.0
C359 C 0.59898 0.24699 0.93595 0.0
C360 C 0.61529 0.27884 0.95431 0.0
C361 C 0.63334 0.31371 0.93715 0.0
C362 C 0.54098 0.17379 0.99977 0.0
C363 C 0.54563 0.1383 0.98839 0.0
C364 C 0.55828 0.20908 0.9828 0.0
C365 C 0.58046 0.20963 0.95403 0.0
C366 C 0.58495 0.17417 0.94256 0.0
C367 C 0.56777 0.13894 0.95954 0.0
H368 H 0.92066 0.745 0.37675 0.0
H369 H 0.82257 0.78082 0.3617 0.0
H370 H 0.94343 0.80345 0.40778 0.0
H371 H 0.84512 0.83891 0.3921 0.0
H372 H 0.87262 0.90377 0.48686 0.0
H373 H 0.85644 0.84779 0.45269 0.0
H374 H 0.9607 0.87685 0.40411 0.0
H375 H 0.97725 0.93311 0.43882 0.0
C376 C 0.90436 0.76581 0.37943 0.0
C377 C 0.86972 0.75823 0.36729 0.0
C378 C 0.91729 0.79915 0.39721 0.0
C379 C 0.89574 0.82532 0.40304 0.0
C380 C 0.86201 0.81879 0.38888 0.0
C381 C 0.84916 0.78567 0.37129 0.0
C382 C 0.89226 0.89824 0.46907 0.0
C383 C 0.92614 0.92315 0.46541 0.0
C384 C 0.88288 0.86624 0.44928 0.0
C385 C 0.90709 0.85824 0.42526 0.0
C386 C 0.94146 0.88228 0.42238 0.0
C387 C 0.95088 0.91451 0.44222 0.0
H388 H 0.40226 0.76868 0.71338 0.0
H389 H 0.38714 0.83312 0.61997 0.0
H390 H 0.42701 0.72429 0.68044 0.0
H391 H 0.41155 0.78854 0.5871 0.0
H392 H 0.40955 0.66993 0.54254 0.0
H393 H 0.39187 0.72 0.57399 0.0
H394 H 0.47765 0.71982 0.64275 0.0
H395 H 0.49522 0.66928 0.61143 0.0
C396 C 0.40471 0.77375 0.68588 0.0
C397 C 0.39242 0.80428 0.66932 0.0
C398 C 0.41889 0.74829 0.66699 0.0
C399 C 0.42102 0.75273 0.63113 0.0
C400 C 0.40971 0.78393 0.61466 0.0
C401 C 0.39567 0.80943 0.63351 0.0
C402 C 0.42487 0.68078 0.56417 0.0
C403 C 0.45374 0.66553 0.5745 0.0
C404 C 0.41484 0.70965 0.5821 0.0
C405 C 0.43332 0.72385 0.61092 0.0
C406 C 0.46266 0.70919 0.62087 0.0
C407 C 0.47286 0.68044 0.60277 0.0
H408 H 0.90806 0.8554 0.75701 0.0
H409 H 0.87397 0.96183 0.77048 0.0
H410 H 0.93171 0.88055 0.70058 0.0
H411 H 0.8935 0.98479 0.71276 0.0
H412 H 0.96204 0.03536 0.61999 0.0
H413 H 0.94095 0.01091 0.67755 0.0
H414 H 0.9186 0.89314 0.64514 0.0
H415 H 0.94257 0.91797 0.58833 0.0
C416 C 0.90543 0.88409 0.74804 0.0
C417 C 0.88894 0.90641 0.76865 0.0
C418 C 0.91839 0.89828 0.71518 0.0
C419 C 0.91447 0.93478 0.70163 0.0
C420 C 0.89773 0.95689 0.7222 0.0
C421 C 0.88571 0.94322 0.75533 0.0
C422 C 0.95241 0.00428 0.62531 0.0
C423 C 0.95375 0.97849 0.59989 0.0
C424 C 0.94009 0.99013 0.6583 0.0
C425 C 0.92781 0.94985 0.66637 0.0
C426 C 0.92852 0.92421 0.6404 0.0
C427 C 0.94186 0.93837 0.60768 0.0
H428 H 0.65657 0.19697 0.272 0.0
H429 H 0.64992 0.07725 0.30623 0.0
H430 H 0.63116 0.17634 0.21788 0.0
H431 H 0.62415 0.05634 0.25173 0.0
H432 H 0.53238 0.0449 0.1707 0.0
H433 H 0.56537 0.05851 0.22287 0.0
H434 H 0.64604 0.1443 0.16575 0.0
H435 H 0.61335 0.13084 0.11372 0.0
C436 C 0.64986 0.16621 0.26775 0.0
C437 C 0.65504 0.13867 0.29325 0.0
C438 C 0.63555 0.1544 0.23672 0.0
C439 C 0.6257 0.11473 0.23058 0.0
C440 C 0.63138 0.0871 0.25587 0.0
C441 C 0.64628 0.09902 0.28687 0.0
C442 C 0.55741 0.06626 0.16918 0.0
C443 C 0.57002 0.08707 0.13809 0.0
C444 C 0.57637 0.07388 0.19903 0.0
C445 C 0.60811 0.10269 0.19839 0.0
C446 C 0.62144 0.12226 0.16706 0.0
C447 C 0.60271 0.11442 0.13723 0.0
H448 H 0.41467 0.66274 0.29614 0.0
H449 H 0.3274 0.56245 0.31257 0.0
H450 H 0.4431 0.64176 0.34616 0.0
H451 H 0.3556 0.54155 0.36371 0.0
H452 H 0.43633 0.49884 0.43364 0.0
H453 H 0.4065 0.51684 0.38285 0.0
H454 H 0.43509 0.63733 0.40699 0.0
H455 H 0.46543 0.6196 0.45698 0.0
C456 C 0.40144 0.63621 0.31059 0.0
C457 C 0.36859 0.61419 0.30063 0.0
C458 C 0.41768 0.62427 0.33946 0.0
C459 C 0.40151 0.59016 0.35923 0.0
C460 C 0.36891 0.56782 0.34894 0.0
C461 C 0.35266 0.57979 0.31987 0.0
C462 C 0.4362 0.52915 0.42807 0.0
C463 C 0.45354 0.5578 0.44924 0.0
C464 C 0.41894 0.53944 0.39906 0.0
C465 C 0.41861 0.57858 0.39065 0.0
C466 C 0.43543 0.60702 0.41225 0.0
C467 C 0.45273 0.5968 0.44106 0.0
H468 H 0.0764 0.392 0.79316 0.0
H469 H 0.1699 0.48492 0.79619 0.0
H470 H 0.04909 0.41878 0.8398 0.0
H471 H 0.14325 0.51143 0.84343 0.0
H472 H 0.0734 0.56862 0.90797 0.0
H473 H 0.09749 0.54369 0.85838 0.0
H474 H 0.05493 0.42601 0.89992 0.0
H475 H 0.03023 0.45078 0.94881 0.0
C476 C 0.0911 0.41815 0.80388 0.0
C477 C 0.12535 0.43656 0.79124 0.0
C478 C 0.07558 0.43343 0.83073 0.0
C479 C 0.09396 0.4673 0.84551 0.0
C480 C 0.12806 0.4857 0.83244 0.0
C481 C 0.14347 0.47046 0.8056 0.0
C482 C 0.06912 0.53744 0.90643 0.0
C483 C 0.04986 0.51176 0.93239 0.0
C484 C 0.08306 0.52311 0.87807 0.0
C485 C 0.07817 0.48277 0.87505 0.0
C486 C 0.05875 0.45719 0.901 0.0
C487 C 0.04475 0.47147 0.92923 0.0
H488 H 0.77051 0.90042 0.95694 0.0
H489 H 0.74609 0.92786 0.85287 0.0
H490 H 0.72219 0.9283 0.9773 0.0
H491 H 0.69745 0.95442 0.87278 0.0
H492 H 0.63833 0.0365 0.91706 0.0
H493 H 0.68796 0.00975 0.90001 0.0
H494 H 0.65867 0.91827 0.98035 0.0
H495 H 0.60963 0.94585 0.99811 0.0
C496 C 0.75452 0.91212 0.93855 0.0
C497 C 0.76214 0.91228 0.90357 0.0
C498 C 0.72685 0.92793 0.95008 0.0
C499 C 0.70613 0.94397 0.92667 0.0
C500 C 0.71336 0.94319 0.89154 0.0
C501 C 0.7411 0.92768 0.8801 0.0
C502 C 0.6426 0.01082 0.93123 0.0
C503 C 0.61996 0.99322 0.95884 0.0
C504 C 0.67092 0.99529 0.9213 0.0
C505 C 0.67712 0.96158 0.93857 0.0
C506 C 0.65489 0.94445 0.96668 0.0
C507 C 0.62668 0.96017 0.97677 0.0
H508 H 0.72763 0.08453 0.37685 0.0
H509 H 0.76632 0.20397 0.40111 0.0
H510 H 0.78094 0.06843 0.4 0.0
H511 H 0.81908 0.18764 0.42516 0.0
H512 H 0.92629 0.15258 0.42867 0.0
H513 H 0.87289 0.16899 0.40624 0.0
H514 H 0.80941 0.06228 0.45467 0.0
H515 H 0.86283 0.04557 0.47673 0.0
C516 C 0.74751 0.10735 0.38712 0.0
C517 C 0.74268 0.14553 0.38712 0.0
C518 C 0.7779 0.09804 0.40072 0.0
C519 C 0.80429 0.12673 0.4145 0.0
C520 C 0.79945 0.16491 0.41448 0.0
C521 C 0.769 0.17418 0.40103 0.0
C522 C 0.90095 0.13265 0.43464 0.0
C523 C 0.8989 0.09774 0.4545 0.0
C524 C 0.87029 0.14216 0.42191 0.0
C525 C 0.83684 0.11693 0.4286 0.0
C526 C 0.83478 0.08214 0.44866 0.0
C527 C 0.86541 0.07269 0.46151 0.0
H528 H 0.24308 0.61923 0.21501 0.0
H529 H 0.28883 0.66144 0.11492 0.0
H530 H 0.1879 0.58868 0.18912 0.0
H531 H 0.23301 0.63417 0.0894 0.0
H532 H 0.1355 0.55573 0.04846 0.0
H533 H 0.19265 0.57988 0.07387 0.0
H534 H 0.13888 0.60491 0.16432 0.0
H535 H 0.08204 0.57855 0.13953 0.0
C536 C 0.24148 0.62188 0.1875 0.0
C537 C 0.27035 0.64335 0.16719 0.0
C538 C 0.20955 0.60494 0.17262 0.0
C539 C 0.20552 0.60946 0.13709 0.0
C540 C 0.23489 0.62971 0.11675 0.0
C541 C 0.26691 0.64599 0.13154 0.0
C542 C 0.13607 0.56674 0.07364 0.0
C543 C 0.10444 0.56537 0.09202 0.0
C544 C 0.16883 0.58064 0.0883 0.0
C545 C 0.17066 0.59424 0.1214 0.0
C546 C 0.13876 0.59378 0.13924 0.0
C547 C 0.10609 0.57913 0.12487 0.0
H548 H 0.25684 0.41248 0.72409 0.0
H549 H 0.22218 0.40267 0.62048 0.0
H550 H 0.3162 0.44602 0.70312 0.0
H551 H 0.28104 0.43741 0.59931 0.0
H552 H 0.39788 0.46913 0.56975 0.0
H553 H 0.34024 0.432 0.59221 0.0
H554 H 0.3487 0.50544 0.67722 0.0
H555 H 0.40676 0.54125 0.65554 0.0
C556 C 0.26189 0.41797 0.69682 0.0
C557 C 0.23498 0.40502 0.6739 0.0
C558 C 0.29587 0.43726 0.68474 0.0
C559 C 0.30358 0.44448 0.64944 0.0
C560 C 0.2764 0.43172 0.6266 0.0
C561 C 0.24258 0.41202 0.63869 0.0
C562 C 0.38748 0.47709 0.59337 0.0
C563 C 0.40689 0.50809 0.61086 0.0
C564 C 0.3543 0.45601 0.60614 0.0
C565 C 0.33958 0.46577 0.63651 0.0
C566 C 0.3593 0.49659 0.6541 0.0
C567 C 0.39261 0.51732 0.64155 0.0
H568 H 0.94851 0.85522 0.8652 0.0
H569 H 0.84357 0.78848 0.89572 0.0
H570 H 0.97436 0.80774 0.89734 0.0
H571 H 0.8693 0.74134 0.92779 0.0
H572 H 0.92457 0.68226 0.00715 0.0
H573 H 0.90351 0.73504 0.97826 0.0
H574 H 0.97891 0.73963 0.89503 0.0
H575 H 1.00052 0.68705 0.92432 0.0
C576 C 0.93097 0.8304 0.8787 0.0
C577 C 0.89396 0.8257 0.87797 0.0
C578 C 0.94578 0.80323 0.89709 0.0
C579 C 0.9239 0.77084 0.91523 0.0
C580 C 0.88694 0.76634 0.91465 0.0
C581 C 0.87217 0.79341 0.89627 0.0
C582 C 0.93693 0.69471 0.98283 0.0
C583 C 0.96406 0.68024 0.96791 0.0
C584 C 0.9247 0.72485 0.96619 0.0
C585 C 0.93923 0.74124 0.93416 0.0
C586 C 0.96731 0.72779 0.91979 0.0
C587 C 0.97961 0.69758 0.9365 0.0
H588 H 0.36876 0.74065 0.11509 0.0
H589 H 0.37367 0.79301 0.21192 0.0
H590 H 0.39853 0.80332 0.08688 0.0
H591 H 0.40355 0.85598 0.18358 0.0
H592 H 0.49022 0.90932 0.05937 0.0
H593 H 0.46041 0.84797 0.08931 0.0
H594 H 0.38776 0.9054 0.13796 0.0
H595 H 0.4174 0.96712 0.1077 0.0
C596 C 0.37613 0.76566 0.13027 0.0
C597 C 0.36896 0.76211 0.16563 0.0
C598 C 0.39332 0.80139 0.1142 0.0
C599 C 0.40331 0.83437 0.13311 0.0
C600 C 0.3959 0.83098 0.16845 0.0
C601 C 0.37911 0.79502 0.18464 0.0
C602 C 0.46792 0.90901 0.07645 0.0
C603 C 0.45607 0.9431 0.08104 0.0
C604 C 0.45081 0.87382 0.09347 0.0
C605 C 0.42179 0.87203 0.11583 0.0
C606 C 0.41023 0.90613 0.12097 0.0
C607 C 0.42706 0.94133 0.10352 0.0
H608 H 0.18218 0.26812 0.67568 0.0
H609 H 0.0824 0.3005 0.66119 0.0
H610 H 0.16082 0.20963 0.64552 0.0
H611 H 0.06085 0.2416 0.63053 0.0
H612 H 0.02884 0.11156 0.60107 0.0
H613 H 0.04496 0.16855 0.63502 0.0
H614 H 0.14888 0.19842 0.5857 0.0
H615 H 0.13314 0.14174 0.55236 0.0
C616 C 0.15557 0.26261 0.6661 0.0
C617 C 0.13416 0.28919 0.67033 0.0
C618 C 0.14336 0.22915 0.6487 0.0
C619 C 0.1094 0.22135 0.63498 0.0
C620 C 0.08715 0.24681 0.64078 0.0
C621 C 0.09944 0.28047 0.65834 0.0
C622 C 0.05505 0.13048 0.59738 0.0
C623 C 0.0798 0.12192 0.57417 0.0
C624 C 0.06422 0.16315 0.61677 0.0
C625 C 0.09836 0.18771 0.61342 0.0
C626 C 0.12262 0.17963 0.58949 0.0
C627 C 0.11349 0.14721 0.57017 0.0
H628 H 0.68182 0.28518 0.46126 0.0
H629 H 0.58875 0.24011 0.40454 0.0
H630 H 0.65207 0.33139 0.48605 0.0
H631 H 0.55822 0.28487 0.43021 0.0
H632 H 0.53107 0.4015 0.45127 0.0
H633 H 0.55711 0.35134 0.4286 0.0
H634 H 0.60736 0.33817 0.52472 0.0
H635 H 0.58256 0.38941 0.54667 0.0
C636 C 0.65481 0.28499 0.45451 0.0
C637 C 0.63778 0.25946 0.43096 0.0
C638 C 0.63758 0.31118 0.46882 0.0
C639 C 0.6026 0.31198 0.46019 0.0
C640 C 0.5853 0.28566 0.43703 0.0
C641 C 0.60273 0.2598 0.42244 0.0
C642 C 0.54734 0.38751 0.46764 0.0
C643 C 0.55493 0.39953 0.50066 0.0
C644 C 0.56224 0.35864 0.4547 0.0
C645 C 0.58471 0.34081 0.47467 0.0
C646 C 0.59096 0.35183 0.50825 0.0
C647 C 0.57647 0.38101 0.52098 0.0
loop_
_geom_bond_atom_site_label_1
_geom_bond_atom_site_label_2
_geom_bond_distance
_geom_bond_site_symmetry_2
_ccdc_geom_bond_type
H0 C5 0.929 . S
H1 C10 0.931 . S
H2 C8 0.930 . S
N3 N4 1.234 . S
N3 C7 1.453 . S
N4 N3 1.234 . S
C5 H0 0.929 . S
C5 C6 1.373 . S
C5 C7 1.368 . S
C6 C5 1.373 . S
C6 C10 1.397 . S
C7 N3 1.453 . S
C7 C5 1.368 . S
C7 C8 1.373 . S
C8 H2 0.930 . S
C8 C7 1.373 . S
C8 C9 1.371 . S
C9 C8 1.371 . S
C9 C10 1.383 . S
C10 H1 0.931 . S
C10 C6 1.397 . S
C10 C9 1.383 . S
H11 C16 0.929 . S
H12 C21 0.931 . S
H13 C19 0.930 . S
N14 N15 1.234 . S
N14 C18 1.453 . S
N15 N14 1.234 . S
C16 H11 0.929 . S
C16 C17 1.373 . S
C16 C18 1.368 . S
C17 C16 1.373 . S
C17 C21 1.397 . S
C18 N14 1.453 . S
C18 C16 1.368 . S
C18 C19 1.373 . S
C19 H13 0.930 . S
C19 C18 1.373 . S
C19 C20 1.371 . S
C20 C19 1.371 . S
C20 C21 1.383 . S
C21 H12 0.931 . S
C21 C17 1.397 . S
C21 C20 1.383 . S
H22 C27 0.929 . S
H23 C32 0.931 . S
H24 C30 0.930 . S
N25 N26 1.234 . S
N25 C29 1.453 . S
N26 N25 1.234 . S
C27 H22 0.929 . S
C27 C28 1.373 . S
C27 C29 1.368 . S
C28 C27 1.373 . S
C28 C32 1.397 . S
C29 N25 1.453 . S
C29 C27 1.368 . S
C29 C30 1.373 . S
C30 H24 0.930 . S
C30 C29 1.373 . S
C30 C31 1.371 . S
C31 C30 1.371 . S
C31 C32 1.383 . S
C32 H23 0.931 . S
C32 C28 1.397 . S
C32 C31 1.383 . S
H33 C38 0.929 . S
H34 C43 0.931 . S
H35 C41 0.930 . S
N36 N37 1.234 . S
N36 C40 1.453 . S
N37 N36 1.234 . S
C38 H33 0.929 . S
C38 C39 1.373 . S
C38 C40 1.368 . S
C39 C38 1.373 . S
C39 C43 1.397 . S
C40 N36 1.453 . S
C40 C38 1.368 . S
C40 C41 1.373 . S
C41 H35 0.930 . S
C41 C40 1.373 . S
C41 C42 1.371 . S
C42 C41 1.371 . S
C42 C43 1.383 . S
C43 H34 0.931 . S
C43 C39 1.397 . S
C43 C42 1.383 . S
H44 C49 0.929 . S
H45 C54 0.931 . S
H46 C52 0.930 . S
N47 N48 1.234 . S
N47 C51 1.453 . S
N48 N47 1.234 . S
C49 H44 0.929 . S
C49 C50 1.373 . S
C49 C51 1.368 . S
C50 C49 1.373 . S
C50 C54 1.397 . S
C51 N47 1.453 . S
C51 C49 1.368 . S
C51 C52 1.373 . S
C52 H46 0.930 . S
C52 C51 1.373 . S
C52 C53 1.371 . S
C53 C52 1.371 . S
C53 C54 1.383 . S
C54 H45 0.931 . S
C54 C50 1.397 . S
C54 C53 1.383 . S
H55 C60 0.929 . S
H56 C65 0.931 . S
H57 C63 0.930 . S
N58 N59 1.234 . S
N58 C62 1.453 . S
N59 N58 1.234 . S
C60 H55 0.929 . S
C60 C61 1.373 . S
C60 C62 1.368 . S
C61 C60 1.373 . S
C61 C65 1.397 . S
C62 N58 1.453 . S
C62 C60 1.368 . S
C62 C63 1.373 . S
C63 H57 0.930 . S
C63 C62 1.373 . S
C63 C64 1.371 . S
C64 C63 1.371 . S
C64 C65 1.383 . S
C65 H56 0.931 . S
C65 C61 1.397 . S
C65 C64 1.383 . S
H66 C71 0.929 . S
H67 C76 0.931 . S
H68 C74 0.930 . S
N69 N70 1.234 . S
N69 C73 1.453 . S
N70 N69 1.234 . S
C71 H66 0.929 . S
C71 C72 1.373 . S
C71 C73 1.368 . S
C72 C71 1.373 . S
C72 C76 1.397 . S
C73 N69 1.453 . S
C73 C71 1.368 . S
C73 C74 1.373 . S
C74 H68 0.930 . S
C74 C73 1.373 . S
C74 C75 1.371 . S
C75 C74 1.371 . S
C75 C76 1.383 . S
C76 H67 0.931 . S
C76 C72 1.397 . S
C76 C75 1.383 . S
H77 C82 0.929 . S
H78 C87 0.931 . S
H79 C85 0.930 . S
N80 N81 1.234 . S
N80 C84 1.453 . S
N81 N80 1.234 . S
C82 H77 0.929 . S
C82 C83 1.373 . S
C82 C84 1.368 . S
C83 C82 1.373 . S
C83 C87 1.397 . S
C84 N80 1.453 . S
C84 C82 1.368 . S
C84 C85 1.373 . S
C85 H79 0.930 . S
C85 C84 1.373 . S
C85 C86 1.371 . S
C86 C85 1.371 . S
C86 C87 1.383 . S
C87 H78 0.931 . S
C87 C83 1.397 . S
C87 C86 1.383 . S
Zn88 O94 1.992 . S
Zn88 O95 1.965 1_545 S
Zn88 O99 2.024 . S
Zn88 O104 1.969 . S
Zn89 O96 1.969 1_545 S
Zn89 O102 1.969 . S
Zn89 O103 1.965 1_655 S
Zn89 O105 2.024 1_545 S
C90 O91 1.229 . S
C90 O99 1.058 . S
O91 C90 1.229 . S
C92 O93 1.229 . S
C92 O105 1.058 . S
O93 C92 1.229 . S
O94 Zn88 1.992 . S
O94 C97 1.258 1_545 S
O95 Zn88 1.965 1_565 S
O95 C106 1.260 1_455 S
O96 Zn89 1.969 1_565 S
O96 C106 1.258 . S
C97 O94 1.258 1_565 S
C97 O98 1.228 . S
O98 C97 1.228 . S
O99 Zn88 2.024 . S
O99 C90 1.058 . S
C100 O101 1.228 . S
C100 O102 1.267 . S
O101 C100 1.228 . S
O102 Zn89 1.969 . S
O102 C100 1.267 . S
O103 Zn89 1.965 1_455 S
O103 C107 1.260 . S
O104 Zn88 1.969 . S
O104 C107 1.258 . S
O105 Zn89 2.024 1_565 S
O105 C92 1.058 . S
C106 O95 1.260 1_655 S
C106 O96 1.258 . S
C107 O103 1.260 . S
C107 O104 1.258 . S
Zn108 O114 1.969 . S
Zn108 O115 1.954 1_566 S
Zn108 O119 2.043 . S
Zn108 O124 1.948 1_556 S
Zn109 O116 1.969 . S
Zn109 O122 1.969 . S
Zn109 O123 1.963 . S
Zn109 O125 2.024 . S
C110 O111 1.229 . S
C110 O119 1.058 . S
O111 C110 1.229 . S
C112 O113 1.229 . S
C112 O125 1.058 . S
O113 C112 1.229 . S
O114 Zn108 1.969 . S
O114 C117 1.283 . S
O115 Zn108 1.954 1_544 S
O115 C126 1.260 . S
O116 Zn109 1.969 . S
O116 C126 1.258 . S
C117 O114 1.283 . S
C117 O118 1.228 . S
O118 C117 1.228 . S
O119 Zn108 2.043 . S
O119 C110 1.058 . S
C120 O121 1.228 . S
C120 O122 1.267 . S
O121 C120 1.228 . S
O122 Zn109 1.969 . S
O122 C120 1.267 . S
O123 Zn109 1.963 . S
O123 C127 1.262 1_545 S
O124 Zn108 1.948 1_554 S
O124 C127 1.258 . S
O125 Zn109 2.024 . S
O125 C112 1.058 . S
C126 O115 1.260 . S
C126 O116 1.258 . S
C127 O123 1.262 1_565 S
C127 O124 1.258 . S
Zn128 O134 1.969 . S
Zn128 O135 1.965 . S
Zn128 O139 2.024 . S
Zn128 O144 1.969 . S
Zn129 O136 1.969 . S
Zn129 O142 1.969 . S
Zn129 O143 1.965 . S
Zn129 O145 2.024 . S
C130 O131 1.229 . S
C130 O139 1.058 . S
O131 C130 1.229 . S
C132 O133 1.229 . S
C132 O145 1.058 . S
O133 C132 1.229 . S
O134 Zn128 1.969 . S
O134 C137 1.267 . S
O135 Zn128 1.965 . S
O135 C146 1.260 . S
O136 Zn129 1.969 . S
O136 C146 1.258 . S
C137 O134 1.267 . S
C137 O138 1.228 . S
O138 C137 1.228 . S
O139 Zn128 2.024 . S
O139 C130 1.058 . S
C140 O141 1.228 . S
C140 O142 1.267 . S
O141 C140 1.228 . S
O142 Zn129 1.969 . S
O142 C140 1.267 . S
O143 Zn129 1.965 . S
O143 C147 1.260 . S
O144 Zn128 1.969 . S
O144 C147 1.258 . S
O145 Zn129 2.024 . S
O145 C132 1.058 . S
C146 O135 1.260 . S
C146 O136 1.258 . S
C147 O143 1.260 . S
C147 O144 1.258 . S
Zn148 O154 1.969 . S
Zn148 O155 1.965 1_556 S
Zn148 O159 2.024 . S
Zn148 O164 1.969 1_655 S
Zn149 O156 1.969 . S
Zn149 O162 1.969 . S
Zn149 O163 1.965 1_554 S
Zn149 O165 2.024 . S
C150 O151 1.229 . S
C150 O159 1.058 . S
O151 C150 1.229 . S
C152 O153 1.229 . S
C152 O165 1.058 . S
O153 C152 1.229 . S
O154 Zn148 1.969 . S
O154 C157 1.267 . S
O155 Zn148 1.965 1_554 S
O155 C166 1.260 . S
O156 Zn149 1.969 . S
O156 C166 1.258 1_455 S
C157 O154 1.267 . S
C157 O158 1.228 . S
O158 C157 1.228 . S
O159 Zn148 2.024 . S
O159 C150 1.058 . S
C160 O161 1.228 . S
C160 O162 1.267 . S
O161 C160 1.228 . S
O162 Zn149 1.969 . S
O162 C160 1.267 . S
O163 Zn149 1.965 1_556 S
O163 C167 1.260 . S
O164 Zn148 1.969 1_455 S
O164 C167 1.258 . S
O165 Zn149 2.024 . S
O165 C152 1.058 . S
C166 O155 1.260 . S
C166 O156 1.258 1_655 S
C167 O163 1.260 . S
C167 O164 1.258 . S
H168 C176 0.950 . S
H169 C181 0.950 . S
H170 C178 0.950 . S
H171 C180 0.950 . S
H172 C182 0.950 . S
H173 C184 0.950 . S
H174 C186 0.950 . S
H175 C187 0.950 . S
C176 H168 0.950 . S
C176 C177 1.386 . S
C176 C178 1.391 . S
C177 C176 1.386 . S
C177 C181 1.393 . S
C178 H170 0.950 . S
C178 C176 1.391 . S
C178 C179 1.400 . S
C179 C178 1.400 . S
C179 C180 1.398 . S
C179 C185 1.491 . S
C180 H171 0.950 . S
C180 C179 1.398 . S
C180 C181 1.391 . S
C181 H169 0.950 . S
C181 C177 1.393 . S
C181 C180 1.391 . S
C182 H172 0.950 . S
C182 C183 1.386 . S
C182 C184 1.391 . S
C183 C182 1.386 . S
C183 C187 1.393 . S
C184 H173 0.950 . S
C184 C182 1.391 . S
C184 C185 1.400 . S
C185 C179 1.491 . S
C185 C184 1.400 . S
C185 C186 1.398 . S
C186 H174 0.950 . S
C186 C185 1.398 . S
C186 C187 1.391 . S
C187 H175 0.950 . S
C187 C183 1.393 . S
C187 C186 1.391 . S
H188 C196 0.950 . S
H189 C201 0.950 . S
H190 C198 0.950 . S
H191 C200 0.950 . S
H192 C202 0.950 . S
H193 C204 0.950 . S
H194 C206 0.950 . S
H195 C207 0.950 . S
C196 H188 0.950 . S
C196 C197 1.386 . S
C196 C198 1.391 . S
C197 C196 1.386 . S
C197 C201 1.393 . S
C198 H190 0.950 . S
C198 C196 1.391 . S
C198 C199 1.400 . S
C199 C198 1.400 . S
C199 C200 1.398 . S
C199 C205 1.491 . S
C200 H191 0.950 . S
C200 C199 1.398 . S
C200 C201 1.391 . S
C201 H189 0.950 . S
C201 C197 1.393 . S
C201 C200 1.391 . S
C202 H192 0.950 . S
C202 C203 1.386 . S
C202 C204 1.391 . S
C203 C202 1.386 . S
C203 C207 1.393 . S
C204 H193 0.950 . S
C204 C202 1.391 . S
C204 C205 1.400 . S
C205 C199 1.491 . S
C205 C204 1.400 . S
C205 C206 1.398 . S
C206 H194 0.950 . S
C206 C205 1.398 . S
C206 C207 1.391 . S
C207 H195 0.950 . S
C207 C203 1.393 . S
C207 C206 1.391 . S
H208 C216 0.950 . S
H209 C221 0.950 . S
H210 C218 0.950 . S
H211 C220 0.950 . S
H212 C222 0.950 . S
H213 C224 0.950 . S
H214 C226 0.950 . S
H215 C227 0.950 . S
C216 H208 0.950 . S
C216 C217 1.386 . S
C216 C218 1.391 . S
C217 C216 1.386 . S
C217 C221 1.393 . S
C218 H210 0.950 . S
C218 C216 1.391 . S
C218 C219 1.400 . S
C219 C218 1.400 . S
C219 C220 1.398 . S
C219 C225 1.491 . S
C220 H211 0.950 . S
C220 C219 1.398 . S
C220 C221 1.391 . S
C221 H209 0.950 . S
C221 C217 1.393 . S
C221 C220 1.391 . S
C222 H212 0.950 . S
C222 C223 1.386 . S
C222 C224 1.391 . S
C223 C222 1.386 . S
C223 C227 1.393 . S
C224 H213 0.950 . S
C224 C222 1.391 . S
C224 C225 1.400 . S
C225 C219 1.491 . S
C225 C224 1.400 . S
C225 C226 1.398 . S
C226 H214 0.950 . S
C226 C225 1.398 . S
C226 C227 1.391 . S
C227 H215 0.950 . S
C227 C223 1.393 . S
C227 C226 1.391 . S
H228 C236 0.950 . S
H229 C241 0.950 . S
H230 C238 0.950 . S
H231 C240 0.950 . S
H232 C242 0.950 . S
H233 C244 0.950 . S
H234 C246 0.950 . S
H235 C247 0.950 1_455 S
C236 H228 0.950 . S
C236 C237 1.386 . S
C236 C238 1.391 . S
C237 C236 1.386 . S
C237 C241 1.393 . S
C238 H230 0.950 . S
C238 C236 1.391 . S
C238 C239 1.400 . S
C239 C238 1.400 . S
C239 C240 1.398 . S
C239 C245 1.491 . S
C240 H231 0.950 . S
C240 C239 1.398 . S
C240 C241 1.391 . S
C241 H229 0.950 . S
C241 C237 1.393 . S
C241 C240 1.391 . S
C242 H232 0.950 . S
C242 C243 1.386 . S
C242 C244 1.391 . S
C243 C242 1.386 . S
C243 C247 1.393 . S
C244 H233 0.950 . S
C244 C242 1.391 . S
C244 C245 1.400 . S
C245 C239 1.491 . S
C245 C244 1.400 . S
C245 C246 1.398 . S
C246 H234 0.950 . S
C246 C245 1.398 . S
C246 C247 1.391 . S
C247 H235 0.950 1_655 S
C247 C243 1.393 . S
C247 C246 1.391 . S
H248 C256 0.950 . S
H249 C261 0.950 . S
H250 C258 0.950 . S
H251 C260 0.950 . S
H252 C262 0.950 . S
H253 C264 0.950 . S
H254 C266 0.950 . S
H255 C267 0.950 . S
C256 H248 0.950 . S
C256 C257 1.386 . S
C256 C258 1.391 . S
C257 C256 1.386 . S
C257 C261 1.393 . S
C258 H250 0.950 . S
C258 C256 1.391 . S
C258 C259 1.400 . S
C259 C258 1.400 . S
C259 C260 1.398 . S
C259 C265 1.491 . S
C260 H251 0.950 . S
C260 C259 1.398 . S
C260 C261 1.391 . S
C261 H249 0.950 . S
C261 C257 1.393 . S
C261 C260 1.391 . S
C262 H252 0.950 . S
C262 C263 1.386 . S
C262 C264 1.391 . S
C263 C262 1.386 . S
C263 C267 1.393 . S
C264 H253 0.950 . S
C264 C262 1.391 . S
C264 C265 1.400 . S
C265 C259 1.491 . S
C265 C264 1.400 . S
C265 C266 1.398 . S
C266 H254 0.950 . S
C266 C265 1.398 . S
C266 C267 1.391 . S
C267 H255 0.950 . S
C267 C263 1.393 . S
C267 C266 1.391 . S
H268 C276 0.950 . S
H269 C281 0.950 . S
H270 C278 0.950 . S
H271 C280 0.950 . S
H272 C282 0.950 . S
H273 C284 0.950 . S
H274 C286 0.950 . S
H275 C287 0.950 . S
C276 H268 0.950 . S
C276 C277 1.386 . S
C276 C278 1.391 . S
C277 C276 1.386 . S
C277 C281 1.393 . S
C278 H270 0.950 . S
C278 C276 1.391 . S
C278 C279 1.400 . S
C279 C278 1.400 . S
C279 C280 1.398 . S
C279 C285 1.491 . S
C280 H271 0.950 . S
C280 C279 1.398 . S
C280 C281 1.391 . S
C281 H269 0.950 . S
C281 C277 1.393 . S
C281 C280 1.391 . S
C282 H272 0.950 . S
C282 C283 1.386 . S
C282 C284 1.391 . S
C283 C282 1.386 . S
C283 C287 1.393 . S
C284 H273 0.950 . S
C284 C282 1.391 . S
C284 C285 1.400 . S
C285 C279 1.491 . S
C285 C284 1.400 . S
C285 C286 1.398 . S
C286 H274 0.950 . S
C286 C285 1.398 . S
C286 C287 1.391 . S
C287 H275 0.950 . S
C287 C283 1.393 . S
C287 C286 1.391 . S
H288 C296 0.950 . S
H289 C301 0.950 . S
H290 C298 0.950 . S
H291 C300 0.950 . S
H292 C302 0.950 . S
H293 C304 0.950 . S
H294 C306 0.950 . S
H295 C307 0.950 . S
C296 H288 0.950 . S
C296 C297 1.386 . S
C296 C298 1.391 . S
C297 C296 1.386 . S
C297 C301 1.393 . S
C298 H290 0.950 . S
C298 C296 1.391 . S
C298 C299 1.400 . S
C299 C298 1.400 . S
C299 C300 1.398 . S
C299 C305 1.491 . S
C300 H291 0.950 . S
C300 C299 1.398 . S
C300 C301 1.391 . S
C301 H289 0.950 . S
C301 C297 1.393 . S
C301 C300 1.391 . S
C302 H292 0.950 . S
C302 C303 1.386 . S
C302 C304 1.391 . S
C303 C302 1.386 . S
C303 C307 1.393 . S
C304 H293 0.950 . S
C304 C302 1.391 . S
C304 C305 1.400 . S
C305 C299 1.491 . S
C305 C304 1.400 . S
C305 C306 1.398 . S
C306 H294 0.950 . S
C306 C305 1.398 . S
C306 C307 1.391 . S
C307 H295 0.950 . S
C307 C303 1.393 . S
C307 C306 1.391 . S
H308 C316 0.950 . S
H309 C321 0.950 . S
H310 C318 0.950 . S
H311 C320 0.950 . S
H312 C322 0.950 . S
H313 C324 0.950 . S
H314 C326 0.950 . S
H315 C327 0.950 . S
C316 H308 0.950 . S
C316 C317 1.386 . S
C316 C318 1.391 . S
C317 C316 1.386 . S
C317 C321 1.393 . S
C318 H310 0.950 . S
C318 C316 1.391 . S
C318 C319 1.400 . S
C319 C318 1.400 . S
C319 C320 1.398 . S
C319 C325 1.491 . S
C320 H311 0.950 . S
C320 C319 1.398 . S
C320 C321 1.391 . S
C321 H309 0.950 . S
C321 C317 1.393 . S
C321 C320 1.391 . S
C322 H312 0.950 . S
C322 C323 1.386 . S
C322 C324 1.391 . S
C323 C322 1.386 . S
C323 C327 1.393 . S
C324 H313 0.950 . S
C324 C322 1.391 . S
C324 C325 1.400 . S
C325 C319 1.491 . S
C325 C324 1.400 . S
C325 C326 1.398 . S
C326 H314 0.950 . S
C326 C325 1.398 . S
C326 C327 1.391 . S
C327 H315 0.950 . S
C327 C323 1.393 . S
C327 C326 1.391 . S
H328 C336 0.950 . S
H329 C341 0.950 . S
H330 C338 0.950 . S
H331 C340 0.950 . S
H332 C342 0.950 . S
H333 C344 0.950 . S
H334 C346 0.950 . S
H335 C347 0.950 . S
C336 H328 0.950 . S
C336 C337 1.386 . S
C336 C338 1.391 . S
C337 C336 1.386 . S
C337 C341 1.393 . S
C338 H330 0.950 . S
C338 C336 1.391 . S
C338 C339 1.400 . S
C339 C338 1.400 . S
C339 C340 1.398 . S
C339 C345 1.491 . S
C340 H331 0.950 . S
C340 C339 1.398 . S
C340 C341 1.391 . S
C341 H329 0.950 . S
C341 C337 1.393 . S
C341 C340 1.391 . S
C342 H332 0.950 . S
C342 C343 1.386 . S
C342 C344 1.391 . S
C343 C342 1.386 . S
C343 C347 1.393 . S
C344 H333 0.950 . S
C344 C342 1.391 . S
C344 C345 1.400 . S
C345 C339 1.491 . S
C345 C344 1.400 . S
C345 C346 1.398 . S
C346 H334 0.950 . S
C346 C345 1.398 . S
C346 C347 1.391 . S
C347 H335 0.950 . S
C347 C343 1.393 . S
C347 C346 1.391 . S
H348 C356 0.950 . S
H349 C361 0.950 . S
H350 C358 0.950 . S
H351 C360 0.950 . S
H352 C362 0.950 1_554 S
H353 C364 0.950 . S
H354 C366 0.950 . S
H355 C367 0.950 . S
C356 H348 0.950 . S
C356 C357 1.386 . S
C356 C358 1.391 . S
C357 C356 1.386 . S
C357 C361 1.393 . S
C358 H350 0.950 . S
C358 C356 1.391 . S
C358 C359 1.400 . S
C359 C358 1.400 . S
C359 C360 1.398 . S
C359 C365 1.491 . S
C360 H351 0.950 . S
C360 C359 1.398 . S
C360 C361 1.391 . S
C361 H349 0.950 . S
C361 C357 1.393 . S
C361 C360 1.391 . S
C362 H352 0.950 1_556 S
C362 C363 1.386 . S
C362 C364 1.391 . S
C363 C362 1.386 . S
C363 C367 1.393 . S
C364 H353 0.950 . S
C364 C362 1.391 . S
C364 C365 1.400 . S
C365 C359 1.491 . S
C365 C364 1.400 . S
C365 C366 1.398 . S
C366 H354 0.950 . S
C366 C365 1.398 . S
C366 C367 1.391 . S
C367 H355 0.950 . S
C367 C363 1.393 . S
C367 C366 1.391 . S
H368 C376 0.950 . S
H369 C381 0.950 . S
H370 C378 0.950 . S
H371 C380 0.950 . S
H372 C382 0.950 . S
H373 C384 0.950 . S
H374 C386 0.950 . S
H375 C387 0.950 . S
C376 H368 0.950 . S
C376 C377 1.386 . S
C376 C378 1.391 . S
C377 C376 1.386 . S
C377 C381 1.393 . S
C378 H370 0.950 . S
C378 C376 1.391 . S
C378 C379 1.400 . S
C379 C378 1.400 . S
C379 C380 1.398 . S
C379 C385 1.491 . S
C380 H371 0.950 . S
C380 C379 1.398 . S
C380 C381 1.391 . S
C381 H369 0.950 . S
C381 C377 1.393 . S
C381 C380 1.391 . S
C382 H372 0.950 . S
C382 C383 1.386 . S
C382 C384 1.391 . S
C383 C382 1.386 . S
C383 C387 1.393 . S
C384 H373 0.950 . S
C384 C382 1.391 . S
C384 C385 1.400 . S
C385 C379 1.491 . S
C385 C384 1.400 . S
C385 C386 1.398 . S
C386 H374 0.950 . S
C386 C385 1.398 . S
C386 C387 1.391 . S
C387 H375 0.950 . S
C387 C383 1.393 . S
C387 C386 1.391 . S
H388 C396 0.950 . S
H389 C401 0.950 . S
H390 C398 0.950 . S
H391 C400 0.950 . S
H392 C402 0.950 . S
H393 C404 0.950 . S
H394 C406 0.950 . S
H395 C407 0.950 . S
C396 H388 0.950 . S
C396 C397 1.386 . S
C396 C398 1.391 . S
C397 C396 1.386 . S
C397 C401 1.393 . S
C398 H390 0.950 . S
C398 C396 1.391 . S
C398 C399 1.400 . S
C399 C398 1.400 . S
C399 C400 1.398 . S
C399 C405 1.491 . S
C400 H391 0.950 . S
C400 C399 1.398 . S
C400 C401 1.391 . S
C401 H389 0.950 . S
C401 C397 1.393 . S
C401 C400 1.391 . S
C402 H392 0.950 . S
C402 C403 1.386 . S
C402 C404 1.391 . S
C403 C402 1.386 . S
C403 C407 1.393 . S
C404 H393 0.950 . S
C404 C402 1.391 . S
C404 C405 1.400 . S
C405 C399 1.491 . S
C405 C404 1.400 . S
C405 C406 1.398 . S
C406 H394 0.950 . S
C406 C405 1.398 . S
C406 C407 1.391 . S
C407 H395 0.950 . S
C407 C403 1.393 . S
C407 C406 1.391 . S
H408 C416 0.950 . S
H409 C421 0.950 . S
H410 C418 0.950 . S
H411 C420 0.950 . S
H412 C422 0.950 1_545 S
H413 C424 0.950 . S
H414 C426 0.950 . S
H415 C427 0.950 . S
C416 H408 0.950 . S
C416 C417 1.386 . S
C416 C418 1.391 . S
C417 C416 1.386 . S
C417 C421 1.393 . S
C418 H410 0.950 . S
C418 C416 1.391 . S
C418 C419 1.400 . S
C419 C418 1.400 . S
C419 C420 1.398 . S
C419 C425 1.491 . S
C420 H411 0.950 . S
C420 C419 1.398 . S
C420 C421 1.391 . S
C421 H409 0.950 . S
C421 C417 1.393 . S
C421 C420 1.391 . S
C422 H412 0.950 1_565 S
C422 C423 1.386 . S
C422 C424 1.391 . S
C423 C422 1.386 . S
C423 C427 1.393 . S
C424 H413 0.950 . S
C424 C422 1.391 . S
C424 C425 1.400 . S
C425 C419 1.491 . S
C425 C424 1.400 . S
C425 C426 1.398 . S
C426 H414 0.950 . S
C426 C425 1.398 . S
C426 C427 1.391 . S
C427 H415 0.950 . S
C427 C423 1.393 . S
C427 C426 1.391 . S
H428 C436 0.950 . S
H429 C441 0.950 . S
H430 C438 0.950 . S
H431 C440 0.950 . S
H432 C442 0.950 . S
H433 C444 0.950 . S
H434 C446 0.950 . S
H435 C447 0.950 . S
C436 H428 0.950 . S
C436 C437 1.386 . S
C436 C438 1.391 . S
C437 C436 1.386 . S
C437 C441 1.393 . S
C438 H430 0.950 . S
C438 C436 1.391 . S
C438 C439 1.400 . S
C439 C438 1.400 . S
C439 C440 1.398 . S
C439 C445 1.491 . S
C440 H431 0.950 . S
C440 C439 1.398 . S
C440 C441 1.391 . S
C441 H429 0.950 . S
C441 C437 1.393 . S
C441 C440 1.391 . S
C442 H432 0.950 . S
C442 C443 1.386 . S
C442 C444 1.391 . S
C443 C442 1.386 . S
C443 C447 1.393 . S
C444 H433 0.950 . S
C444 C442 1.391 . S
C444 C445 1.400 . S
C445 C439 1.491 . S
C445 C444 1.400 . S
C445 C446 1.398 . S
C446 H434 0.950 . S
C446 C445 1.398 . S
C446 C447 1.391 . S
C447 H435 0.950 . S
C447 C443 1.393 . S
C447 C446 1.391 . S
H448 C456 0.950 . S
H449 C461 0.950 . S
H450 C458 0.950 . S
H451 C460 0.950 . S
H452 C462 0.950 . S
H453 C464 0.950 . S
H454 C466 0.950 . S
H455 C467 0.950 . S
C456 H448 0.950 . S
C456 C457 1.386 . S
C456 C458 1.391 . S
C457 C456 1.386 . S
C457 C461 1.393 . S
C458 H450 0.950 . S
C458 C456 1.391 . S
C458 C459 1.400 . S
C459 C458 1.400 . S
C459 C460 1.398 . S
C459 C465 1.491 . S
C460 H451 0.950 . S
C460 C459 1.398 . S
C460 C461 1.391 . S
C461 H449 0.950 . S
C461 C457 1.393 . S
C461 C460 1.391 . S
C462 H452 0.950 . S
C462 C463 1.386 . S
C462 C464 1.391 . S
C463 C462 1.386 . S
C463 C467 1.393 . S
C464 H453 0.950 . S
C464 C462 1.391 . S
C464 C465 1.400 . S
C465 C459 1.491 . S
C465 C464 1.400 . S
C465 C466 1.398 . S
C466 H454 0.950 . S
C466 C465 1.398 . S
C466 C467 1.391 . S
C467 H455 0.950 . S
C467 C463 1.393 . S
C467 C466 1.391 . S
H468 C476 0.950 . S
H469 C481 0.950 . S
H470 C478 0.950 . S
H471 C480 0.950 . S
H472 C482 0.950 . S
H473 C484 0.950 . S
H474 C486 0.950 . S
H475 C487 0.950 . S
C476 H468 0.950 . S
C476 C477 1.386 . S
C476 C478 1.391 . S
C477 C476 1.386 . S
C477 C481 1.393 . S
C478 H470 0.950 . S
C478 C476 1.391 . S
C478 C479 1.400 . S
C479 C478 1.400 . S
C479 C480 1.398 . S
C479 C485 1.491 . S
C480 H471 0.950 . S
C480 C479 1.398 . S
C480 C481 1.391 . S
C481 H469 0.950 . S
C481 C477 1.393 . S
C481 C480 1.391 . S
C482 H472 0.950 . S
C482 C483 1.386 . S
C482 C484 1.391 . S
C483 C482 1.386 . S
C483 C487 1.393 . S
C484 H473 0.950 . S
C484 C482 1.391 . S
C484 C485 1.400 . S
C485 C479 1.491 . S
C485 C484 1.400 . S
C485 C486 1.398 . S
C486 H474 0.950 . S
C486 C485 1.398 . S
C486 C487 1.391 . S
C487 H475 0.950 . S
C487 C483 1.393 . S
C487 C486 1.391 . S
H488 C496 0.950 . S
H489 C501 0.950 . S
H490 C498 0.950 . S
H491 C500 0.950 . S
H492 C502 0.950 . S
H493 C504 0.950 . S
H494 C506 0.950 . S
H495 C507 0.950 . S
C496 H488 0.950 . S
C496 C497 1.386 . S
C496 C498 1.391 . S
C497 C496 1.386 . S
C497 C501 1.393 . S
C498 H490 0.950 . S
C498 C496 1.391 . S
C498 C499 1.400 . S
C499 C498 1.400 . S
C499 C500 1.398 . S
C499 C505 1.491 . S
C500 H491 0.950 . S
C500 C499 1.398 . S
C500 C501 1.391 . S
C501 H489 0.950 . S
C501 C497 1.393 . S
C501 C500 1.391 . S
C502 H492 0.950 . S
C502 C503 1.386 . S
C502 C504 1.391 . S
C503 C502 1.386 . S
C503 C507 1.393 . S
C504 H493 0.950 . S
C504 C502 1.391 . S
C504 C505 1.400 . S
C505 C499 1.491 . S
C505 C504 1.400 . S
C505 C506 1.398 . S
C506 H494 0.950 . S
C506 C505 1.398 . S
C506 C507 1.391 . S
C507 H495 0.950 . S
C507 C503 1.393 . S
C507 C506 1.391 . S
H508 C516 0.950 . S
H509 C521 0.950 . S
H510 C518 0.950 . S
H511 C520 0.950 . S
H512 C522 0.950 . S
H513 C524 0.950 . S
H514 C526 0.950 . S
H515 C527 0.950 . S
C516 H508 0.950 . S
C516 C517 1.386 . S
C516 C518 1.391 . S
C517 C516 1.386 . S
C517 C521 1.393 . S
C518 H510 0.950 . S
C518 C516 1.391 . S
C518 C519 1.400 . S
C519 C518 1.400 . S
C519 C520 1.398 . S
C519 C525 1.491 . S
C520 H511 0.950 . S
C520 C519 1.398 . S
C520 C521 1.391 . S
C521 H509 0.950 . S
C521 C517 1.393 . S
C521 C520 1.391 . S
C522 H512 0.950 . S
C522 C523 1.386 . S
C522 C524 1.391 . S
C523 C522 1.386 . S
C523 C527 1.393 . S
C524 H513 0.950 . S
C524 C522 1.391 . S
C524 C525 1.400 . S
C525 C519 1.491 . S
C525 C524 1.400 . S
C525 C526 1.398 . S
C526 H514 0.950 . S
C526 C525 1.398 . S
C526 C527 1.391 . S
C527 H515 0.950 . S
C527 C523 1.393 . S
C527 C526 1.391 . S
H528 C536 0.950 . S
H529 C541 0.950 . S
H530 C538 0.950 . S
H531 C540 0.950 . S
H532 C542 0.950 . S
H533 C544 0.950 . S
H534 C546 0.950 . S
H535 C547 0.950 . S
C536 H528 0.950 . S
C536 C537 1.386 . S
C536 C538 1.391 . S
C537 C536 1.386 . S
C537 C541 1.393 . S
C538 H530 0.950 . S
C538 C536 1.391 . S
C538 C539 1.400 . S
C539 C538 1.400 . S
C539 C540 1.398 . S
C539 C545 1.491 . S
C540 H531 0.950 . S
C540 C539 1.398 . S
C540 C541 1.391 . S
C541 H529 0.950 . S
C541 C537 1.393 . S
C541 C540 1.391 . S
C542 H532 0.950 . S
C542 C543 1.386 . S
C542 C544 1.391 . S
C543 C542 1.386 . S
C543 C547 1.393 . S
C544 H533 0.950 . S
C544 C542 1.391 . S
C544 C545 1.400 . S
C545 C539 1.491 . S
C545 C544 1.400 . S
C545 C546 1.398 . S
C546 H534 0.950 . S
C546 C545 1.398 . S
C546 C547 1.391 . S
C547 H535 0.950 . S
C547 C543 1.393 . S
C547 C546 1.391 . S
H548 C556 0.950 . S
H549 C561 0.950 . S
H550 C558 0.950 . S
H551 C560 0.950 . S
H552 C562 0.950 . S
H553 C564 0.950 . S
H554 C566 0.950 . S
H555 C567 0.950 . S
C556 H548 0.950 . S
C556 C557 1.386 . S
C556 C558 1.391 . S
C557 C556 1.386 . S
C557 C561 1.393 . S
C558 H550 0.950 . S
C558 C556 1.391 . S
C558 C559 1.400 . S
C559 C558 1.400 . S
C559 C560 1.398 . S
C559 C565 1.491 . S
C560 H551 0.950 . S
C560 C559 1.398 . S
C560 C561 1.391 . S
C561 H549 0.950 . S
C561 C557 1.393 . S
C561 C560 1.391 . S
C562 H552 0.950 . S
C562 C563 1.386 . S
C562 C564 1.391 . S
C563 C562 1.386 . S
C563 C567 1.393 . S
C564 H553 0.950 . S
C564 C562 1.391 . S
C564 C565 1.400 . S
C565 C559 1.491 . S
C565 C564 1.400 . S
C565 C566 1.398 . S
C566 H554 0.950 . S
C566 C565 1.398 . S
C566 C567 1.391 . S
C567 H555 0.950 . S
C567 C563 1.393 . S
C567 C566 1.391 . S
H568 C576 0.950 . S
H569 C581 0.950 . S
H570 C578 0.950 . S
H571 C580 0.950 . S
H572 C582 0.950 . S
H573 C584 0.950 . S
H574 C586 0.950 . S
H575 C587 0.950 . S
C576 H568 0.950 . S
C576 C577 1.386 . S
C576 C578 1.391 . S
C577 C576 1.386 . S
C577 C581 1.393 . S
C578 H570 0.950 . S
C578 C576 1.391 . S
C578 C579 1.400 . S
C579 C578 1.400 . S
C579 C580 1.398 . S
C579 C585 1.491 . S
C580 H571 0.950 . S
C580 C579 1.398 . S
C580 C581 1.391 . S
C581 H569 0.950 . S
C581 C577 1.393 . S
C581 C580 1.391 . S
C582 H572 0.950 . S
C582 C583 1.386 . S
C582 C584 1.391 . S
C583 C582 1.386 . S
C583 C587 1.393 . S
C584 H573 0.950 . S
C584 C582 1.391 . S
C584 C585 1.400 . S
C585 C579 1.491 . S
C585 C584 1.400 . S
C585 C586 1.398 . S
C586 H574 0.950 . S
C586 C585 1.398 . S
C586 C587 1.391 . S
C587 H575 0.950 . S
C587 C583 1.393 . S
C587 C586 1.391 . S
H588 C596 0.950 . S
H589 C601 0.950 . S
H590 C598 0.950 . S
H591 C600 0.950 . S
H592 C602 0.950 . S
H593 C604 0.950 . S
H594 C606 0.950 . S
H595 C607 0.950 . S
C596 H588 0.950 . S
C596 C597 1.386 . S
C596 C598 1.391 . S
C597 C596 1.386 . S
C597 C601 1.393 . S
C598 H590 0.950 . S
C598 C596 1.391 . S
C598 C599 1.400 . S
C599 C598 1.400 . S
C599 C600 1.398 . S
C599 C605 1.491 . S
C600 H591 0.950 . S
C600 C599 1.398 . S
C600 C601 1.391 . S
C601 H589 0.950 . S
C601 C597 1.393 . S
C601 C600 1.391 . S
C602 H592 0.950 . S
C602 C603 1.386 . S
C602 C604 1.391 . S
C603 C602 1.386 . S
C603 C607 1.393 . S
C604 H593 0.950 . S
C604 C602 1.391 . S
C604 C605 1.400 . S
C605 C599 1.491 . S
C605 C604 1.400 . S
C605 C606 1.398 . S
C606 H594 0.950 . S
C606 C605 1.398 . S
C606 C607 1.391 . S
C607 H595 0.950 . S
C607 C603 1.393 . S
C607 C606 1.391 . S
H608 C616 0.950 . S
H609 C621 0.950 . S
H610 C618 0.950 . S
H611 C620 0.950 . S
H612 C622 0.950 . S
H613 C624 0.950 . S
H614 C626 0.950 . S
H615 C627 0.950 . S
C616 H608 0.950 . S
C616 C617 1.386 . S
C616 C618 1.391 . S
C617 C616 1.386 . S
C617 C621 1.393 . S
C618 H610 0.950 . S
C618 C616 1.391 . S
C618 C619 1.400 . S
C619 C618 1.400 . S
C619 C620 1.398 . S
C619 C625 1.491 . S
C620 H611 0.950 . S
C620 C619 1.398 . S
C620 C621 1.391 . S
C621 H609 0.950 . S
C621 C617 1.393 . S
C621 C620 1.391 . S
C622 H612 0.950 . S
C622 C623 1.386 . S
C622 C624 1.391 . S
C623 C622 1.386 . S
C623 C627 1.393 . S
C624 H613 0.950 . S
C624 C622 1.391 . S
C624 C625 1.400 . S
C625 C619 1.491 . S
C625 C624 1.400 . S
C625 C626 1.398 . S
C626 H614 0.950 . S
C626 C625 1.398 . S
C626 C627 1.391 . S
C627 H615 0.950 . S
C627 C623 1.393 . S
C627 C626 1.391 . S
H628 C636 0.950 . S
H629 C641 0.950 . S
H630 C638 0.950 . S
H631 C640 0.950 . S
H632 C642 0.950 . S
H633 C644 0.950 . S
H634 C646 0.950 . S
H635 C647 0.950 . S
C636 H628 0.950 . S
C636 C637 1.386 . S
C636 C638 1.391 . S
C637 C636 1.386 . S
C637 C641 1.393 . S
C638 H630 0.950 . S
C638 C636 1.391 . S
C638 C639 1.400 . S
C639 C638 1.400 . S
C639 C640 1.398 . S
C639 C645 1.491 . S
C640 H631 0.950 . S
C640 C639 1.398 . S
C640 C641 1.391 . S
C641 H629 0.950 . S
C641 C637 1.393 . S
C641 C640 1.391 . S
C642 H632 0.950 . S
C642 C643 1.386 . S
C642 C644 1.391 . S
C643 C642 1.386 . S
C643 C647 1.393 . S
C644 H633 0.950 . S
C644 C642 1.391 . S
C644 C645 1.400 . S
C645 C639 1.491 . S
C645 C644 1.400 . S
C645 C646 1.398 . S
C646 H634 0.950 . S
C646 C645 1.398 . S
C646 C647 1.391 . S
C647 H635 0.950 . S
C647 C643 1.393 . S
C647 C646 1.391 . S
C177 C6 1.601 . S
C183 C107 1.597 . S
C197 C20 1.514 . S
C203 C110 1.481 . S
C223 C146 1.336 . S
C217 N26 1.368 . S
C237 N37 1.536 . S
C243 C166 1.530 . S
C263 C120 2.075 . S
C257 C9 2.094 . S
C283 C97 1.278 . S
C277 N15 1.301 . S
C303 C150 1.423 . S
C297 C31 1.497 . S
C323 C130 1.261 . S
C317 C39 1.367 . S
C337 N4 1.377 . S
C343 C160 1.329 . S
C363 C126 1.770 1_556 S
C357 C28 1.790 . S
C377 C42 1.461 . S
C383 C92 1.415 . S
C397 C17 1.461 . S
C403 C140 1.421 . S
C423 C106 1.686 . S
C417 C50 1.689 . S
C437 C61 1.322 . S
C443 C112 1.255 . S
C457 N70 1.687 . S
C463 C147 1.655 . S
C477 N81 1.389 . S
C483 C167 1.358 . S
C497 N48 1.526 . S
C503 C117 1.486 . S
C523 C100 1.932 . S
C517 C64 1.924 . S
C543 C152 1.395 . S
C537 C75 1.530 . S
C563 C132 1.258 . S
C557 C86 1.307 . S
C577 C53 1.602 . S
C583 C157 1.521 . S
C603 C127 1.383 . S
C597 C72 1.404 . S
C623 C90 1.701 . S
C617 C83 1.755 . S
C637 N59 1.322 . S
C643 C137 1.290 . S
