# Generated by pormake.
# Topology anh, (6,3)-cn, num edge types: 1
# Building blocks:
#     Node 0, Type 0, BuildingBlock: GEDQOX_clean_sbu_0, # of connection points: 6
#     Node 1, Type 0, BuildingBlock: GEDQOX_clean_sbu_0, # of connection points: 6
#     Node 2, Type 0, BuildingBlock: GEDQOX_clean_sbu_0, # of connection points: 6
#     Node 3, Type 1, BuildingBlock: MIDCAF_clean_linker_0, # of connection points: 3
#     Node 4, Type 1, BuildingBlock: MIDCAF_clean_linker_0, # of connection points: 3
#     Node 5, Type 1, BuildingBlock: MIDCAF_clean_linker_0, # of connection points: 3
#     Node 6, Type 1, BuildingBlock: MIDCAF_clean_linker_0, # of connection points: 3
#     Node 7, Type 1, BuildingBlock: MIDCAF_clean_linker_0, # of connection points: 3
#     Node 8, Type 1, BuildingBlock: MIDCAF_clean_linker_0, # of connection points: 3
#     Edge 9, Type (0, 1), BuildingBlock: XIVTED_clean_linker_0, # of connection points: 2
#     Edge 10, Type (0, 1), BuildingBlock: XIVTED_clean_linker_0, # of connection points: 2
#     Edge 11, Type (0, 1), BuildingBlock: XIVTED_clean_linker_0, # of connection points: 2
#     Edge 12, Type (0, 1), BuildingBlock: XIVTED_clean_linker_0, # of connection points: 2
#     Edge 13, Type (0, 1), BuildingBlock: XIVTED_clean_linker_0, # of connection points: 2
#     Edge 14, Type (0, 1), BuildingBlock: XIVTED_clean_linker_0, # of connection points: 2
#     Edge 15, Type (0, 1), BuildingBlock: XIVTED_clean_linker_0, # of connection points: 2
#     Edge 16, Type (0, 1), BuildingBlock: XIVTED_clean_linker_0, # of connection points: 2
#     Edge 17, Type (0, 1), BuildingBlock: XIVTED_clean_linker_0, # of connection points: 2
#     Edge 18, Type (0, 1), BuildingBlock: XIVTED_clean_linker_0, # of connection points: 2
#     Edge 19, Type (0, 1), BuildingBlock: XIVTED_clean_linker_0, # of connection points: 2
#     Edge 20, Type (0, 1), BuildingBlock: XIVTED_clean_linker_0, # of connection points: 2
#     Edge 21, Type (0, 1), BuildingBlock: XIVTED_clean_linker_0, # of connection points: 2
#     Edge 22, Type (0, 1), BuildingBlock: XIVTED_clean_linker_0, # of connection points: 2
#     Edge 23, Type (0, 1), BuildingBlock: XIVTED_clean_linker_0, # of connection points: 2
#     Edge 24, Type (0, 1), BuildingBlock: XIVTED_clean_linker_0, # of connection points: 2
#     Edge 25, Type (0, 1), BuildingBlock: XIVTED_clean_linker_0, # of connection points: 2
#     Edge 26, Type (0, 1), BuildingBlock: XIVTED_clean_linker_0, # of connection points: 2
# Relax obj value: 0.179
# Max RMSD: 0.211
# Mean RMSD: 0.157
data_MOF--net-anh--node1-GEDQOX_clean_sbu_0--node2-MIDCAF_clean_linker_0--edge1-XIVTED_clean_linker_0
_symmetry_space_group_name_H-M    P1
_symmetry_Int_Tables_number       1
_symmetry_cell_setting            triclinic
loop_
_symmetry_equiv_pos_as_xyz
'x, y, z'
_cell_length_a     36.636269
_cell_length_b     35.72995
_cell_length_c     66.732079
_cell_angle_alpha  93.138986
_cell_angle_beta   90.92363
_cell_angle_gamma 105.62232
loop_
_atom_site_label
_atom_site_type_symbol
_atom_site_fract_x
_atom_site_fract_y
_atom_site_fract_z
_atom_type_partial_charge
Nd0 Nd 0.08632 0.54652 0.14526 0.0
Nd1 Nd 0.06705 0.45941 0.14804 0.0
C2 C 0.11534 0.61924 0.1358 0.0
C3 C 0.15161 0.64969 0.13922 0.0
C4 C 0.18602 0.64425 0.13235 0.0
C5 C 0.22004 0.67328 0.1362 0.0
C6 C 0.22042 0.70826 0.14711 0.0
C7 C 0.18584 0.71353 0.15388 0.0
C8 C 0.15187 0.68469 0.14988 0.0
C9 C 0.07391 0.52348 0.18356 0.0
C10 C 0.15658 0.50307 0.14901 0.0
C11 C 1.03858 0.38577 0.15617 0.0
C12 C 1.00174 0.36005 0.1614 0.0
C13 C 0.9779 0.37309 0.17476 0.0
C14 C 0.94352 0.34783 0.17992 0.0
C15 C 0.93216 0.30925 0.17164 0.0
C16 C 0.95567 0.29663 0.15789 0.0
C17 C 0.99021 0.32179 0.15289 0.0
C18 C 0.08096 0.48513 0.11026 0.0
C19 C 0.99742 0.5025 0.14494 0.0
O20 O 0.11529 0.58902 0.12376 0.0
O21 O 0.09497 0.60992 0.15161 0.0
O22 O 0.06361 0.55236 0.17658 0.0
O23 O 0.09209 0.50895 0.17079 0.0
O24 O 0.14587 0.5345 0.14483 0.0
O25 O 0.13137 0.47022 0.15273 0.0
O26 O 1.05569 0.41313 0.16966 0.0
O27 O 1.04098 0.39757 0.13792 0.0
O28 O 0.09339 0.45726 0.11697 0.0
O29 O 0.06127 0.49724 0.12303 0.0
O30 O 1.00877 0.47327 0.15189 0.0
O31 O 1.02227 0.533 0.13825 0.0
H32 H 0.18678 0.61755 0.12407 0.0
H33 H 0.24598 0.66834 0.13053 0.0
H34 H 0.18497 0.73965 0.16266 0.0
H35 H 0.12575 0.68955 0.15537 0.0
H36 H 0.98594 0.40269 0.18132 0.0
H37 H 0.92575 0.35849 0.19036 0.0
H38 H 0.94781 0.26699 0.1514 0.0
H39 H 1.00814 0.31125 0.14249 0.0
Nd40 Nd 0.5202 0.99575 0.522 0.0
Nd41 Nd 0.60248 0.01661 0.51108 0.0
C42 C 0.45264 0.9642 0.53626 0.0
C43 C 0.42501 0.92626 0.53188 0.0
C44 C 0.3917 0.91546 0.54266 0.0
C45 C 0.36509 0.87961 0.538 0.0
C46 C 0.37147 0.85402 0.52245 0.0
C47 C 0.40521 0.86505 0.51184 0.0
C48 C 0.4317 0.90076 0.51652 0.0
C49 C 0.53228 0.00246 0.48178 0.0
C50 C 0.56292 0.92557 0.51368 0.0
C51 C 0.66881 0.04602 0.49497 0.0
C52 C 0.69552 0.08448 0.49238 0.0
C53 C 0.70512 0.09579 0.47293 0.0
C54 C 0.73093 0.1316 0.47 0.0
C55 C 0.74795 0.15677 0.4865 0.0
C56 C 0.73825 0.14551 0.506 0.0
C57 C 0.71216 0.10976 0.50892 0.0
C58 C 0.59075 0.00807 0.5512 0.0
C59 C 0.5599 0.08639 0.52059 0.0
O60 O 0.48435 0.96326 0.54526 0.0
O61 O 0.45809 0.98751 0.52151 0.0
O62 O 0.50642 0.01465 0.491 0.0
O63 O 0.54942 0.98599 0.49345 0.0
O64 O 0.53511 0.93696 0.52224 0.0
O65 O 0.59125 0.9506 0.50556 0.0
O66 O 0.63654 0.03793 0.48477 0.0
O67 O 0.66521 0.0337 0.51313 0.0
O68 O 0.61656 0.99641 0.54156 0.0
O69 O 0.57339 0.02534 0.53999 0.0
O70 O 0.58691 0.07554 0.51082 0.0
O71 O 0.53334 0.06093 0.52961 0.0
H72 H 0.38619 0.93481 0.5546 0.0
H73 H 0.33964 0.87187 0.54661 0.0
H74 H 0.41084 0.84649 0.49957 0.0
H75 H 0.45727 0.90874 0.50798 0.0
H76 H 0.69284 0.07673 0.45995 0.0
H77 H 0.7382 0.1392 0.45481 0.0
H78 H 0.75064 0.16445 0.51899 0.0
H79 H 0.70521 0.10193 0.52412 0.0
Nd80 Nd 0.51842 0.48912 0.83298 0.0
Nd81 Nd 0.59735 0.51944 0.85139 0.0
C82 C 0.45723 0.48323 0.8105 0.0
C83 C 0.43829 0.51354 0.80636 0.0
C84 C 0.42582 0.51743 0.78679 0.0
C85 C 0.41151 0.54888 0.78259 0.0
C86 C 0.40978 0.57699 0.7979 0.0
C87 C 0.42217 0.57268 0.81747 0.0
C88 C 0.43644 0.5415 0.82163 0.0
C89 C 0.52259 0.48878 0.87399 0.0
C90 C 0.55412 0.58364 0.84437 0.0
C91 C 0.66191 0.52991 0.87159 0.0
C92 C 0.69398 0.51316 0.8679 0.0
C93 C 0.68898 0.47263 0.86678 0.0
C94 C 0.71776 0.45698 0.85966 0.0
C95 C 0.75179 0.48163 0.85342 0.0
C96 C 0.75739 0.52216 0.85548 0.0
C97 C 0.72882 0.53776 0.86272 0.0
C98 C 0.59391 0.51947 0.81036 0.0
C99 C 0.56084 0.42391 0.84031 0.0
O100 O 0.49095 0.48872 0.8031 0.0
O101 O 0.45586 0.47231 0.82896 0.0
O102 O 0.5 0.46096 0.86277 0.0
O103 O 0.54038 0.51591 0.86369 0.0
O104 O 0.53176 0.55614 0.83227 0.0
O105 O 0.57887 0.57533 0.85673 0.0
O106 O 0.63014 0.50628 0.87704 0.0
O107 O 0.65665 0.55332 0.8581 0.0
O108 O 0.61699 0.54658 0.8216 0.0
O109 O 0.57564 0.49265 0.82067 0.0
O110 O 0.58657 0.45207 0.85053 0.0
O111 O 0.53282 0.43113 0.82994 0.0
H112 H 0.42773 0.49653 0.77474 0.0
H113 H 0.40215 0.55139 0.76737 0.0
H114 H 0.42043 0.59318 0.82976 0.0
H115 H 0.44658 0.53966 0.83679 0.0
H116 H 0.66244 0.45294 0.87075 0.0
H117 H 0.71293 0.42566 0.8584 0.0
H118 H 0.78381 0.54187 0.85129 0.0
H119 H 0.73339 0.56907 0.8635 0.0
C120 C 0.44731 0.91979 0.22099 0.0
C121 C 0.45319 0.90693 0.20138 0.0
C122 C 0.48925 0.9202 0.19328 0.0
C123 C 0.51879 0.94642 0.20458 0.0
H124 H 0.6295 0.03325 0.20246 0.0
H125 H 0.68499 0.07868 0.18922 0.0
H126 H 0.69651 0.15222 0.24388 0.0
H127 H 0.64248 0.10647 0.25725 0.0
H128 H 0.60277 0.07153 0.29649 0.0
H129 H 0.59901 0.07177 0.33302 0.0
H130 H 0.52598 0.95441 0.3279 0.0
H131 H 0.52931 0.9541 0.29137 0.0
H132 H 0.47121 0.95444 0.24748 0.0
H133 H 0.41987 0.90971 0.22765 0.0
H134 H 0.49441 0.91067 0.17816 0.0
H135 H 0.54629 0.95641 0.198 0.0
N136 N 0.57314 0.01136 0.22816 0.0
N137 N 0.5973 0.03798 0.2602 0.0
N138 N 0.54177 0.98683 0.25707 0.0
C139 C 0.59997 0.03758 0.23991 0.0
C140 C 0.56852 0.01252 0.26889 0.0
C141 C 0.5437 0.98611 0.23674 0.0
C142 C 0.63185 0.06596 0.231 0.0
C143 C 0.64389 0.05922 0.21157 0.0
C144 C 0.67562 0.08536 0.20396 0.0
C145 C 0.69568 0.11894 0.21558 0.0
C146 C 0.68259 0.12618 0.23471 0.0
C147 C 0.65135 0.09996 0.24236 0.0
C148 C 0.5663 0.0128 0.29102 0.0
C149 C 0.58593 0.04575 0.30314 0.0
C150 C 0.58367 0.046 0.32403 0.0
C151 C 0.56227 0.01309 0.33322 0.0
C152 C 0.54291 0.98005 0.32116 0.0
C153 C 0.54464 0.98 0.30026 0.0
C154 C 0.51289 0.95897 0.22432 0.0
C155 C 0.47684 0.94523 0.23238 0.0
C156 C 0.53531 0.37026 0.55482 0.0
C157 C 0.55452 0.36514 0.53728 0.0
C158 C 0.5745 0.39838 0.52767 0.0
C159 C 0.57574 0.43594 0.53575 0.0
H160 H 0.58498 0.56785 0.52709 0.0
H161 H 0.5824 0.62884 0.51229 0.0
H162 H 0.53746 0.66508 0.56717 0.0
H163 H 0.54022 0.60537 0.58185 0.0
H164 H 0.57042 0.57714 0.62234 0.0
H165 H 0.57247 0.57827 0.65891 0.0
H166 H 0.57028 0.45659 0.65591 0.0
H167 H 0.5675 0.4551 0.6195 0.0
H168 H 0.52256 0.41003 0.5768 0.0
H169 H 0.52012 0.34548 0.5628 0.0
H170 H 0.58948 0.39532 0.51408 0.0
H171 H 0.59207 0.46111 0.52844 0.0
N172 N 0.56314 0.5119 0.55465 0.0
N173 N 0.56711 0.54711 0.58587 0.0
N174 N 0.56448 0.48113 0.58481 0.0
C175 C 0.56514 0.54606 0.56546 0.0
C176 C 0.56707 0.51488 0.59565 0.0
C177 C 0.56252 0.47918 0.56445 0.0
C178 C 0.56293 0.58175 0.55566 0.0
C179 C 0.57442 0.58885 0.53589 0.0
C180 C 0.57313 0.62375 0.52747 0.0
C181 C 0.5595 0.65155 0.53855 0.0
C182 C 0.54768 0.64406 0.55817 0.0
C183 C 0.54955 0.60983 0.56663 0.0
C184 C 0.56876 0.51603 0.6179 0.0
C185 C 0.57035 0.5506 0.62945 0.0
C186 C 0.5717 0.55132 0.65043 0.0
C187 C 0.57144 0.51749 0.66031 0.0
C188 C 0.56991 0.483 0.64877 0.0
C189 C 0.56858 0.48226 0.62784 0.0
C190 C 0.55766 0.44066 0.55376 0.0
C191 C 0.53697 0.40739 0.56295 0.0
C192 C 1.01199 0.48723 0.86641 0.0
C193 C 1.00584 0.49088 0.84585 0.0
C194 C 1.03318 0.51814 0.83571 0.0
C195 C 0.0642 0.5434 0.84627 0.0
H196 H 0.13915 0.65992 0.8459 0.0
H197 H 0.1882 0.69257 0.82369 0.0
H198 H 0.27385 0.69061 0.8687 0.0
H199 H 0.22468 0.6597 0.8911 0.0
H200 H 0.18744 0.62039 0.93714 0.0
H201 H 0.18664 0.6116 0.97347 0.0
H202 H 0.065 0.56445 0.96922 0.0
H203 H 0.06576 0.57269 0.93332 0.0
H204 H 1.04564 0.50969 0.89294 0.0
H205 H 0.99142 0.46697 0.87484 0.0
H206 H 1.02956 0.52131 0.81981 0.0
H207 H 0.08379 0.56526 0.83818 0.0
N208 N 0.12303 0.60017 0.86982 0.0
N209 N 0.15219 0.62642 0.90104 0.0
N210 N 0.09978 0.5713 0.89925 0.0
C211 C 0.15005 0.62765 0.8807 0.0
C212 C 0.12652 0.59846 0.91038 0.0
C213 C 0.09806 0.57162 0.87897 0.0
C214 C 0.17833 0.65637 0.86996 0.0
C215 C 0.16847 0.66771 0.85125 0.0
C216 C 0.19657 0.6864 0.83852 0.0
C217 C 0.23507 0.69317 0.84409 0.0
C218 C 0.24457 0.68598 0.86381 0.0
C219 C 0.21636 0.66792 0.87669 0.0
C220 C 0.12671 0.59703 0.93244 0.0
C221 C 0.16059 0.60863 0.9441 0.0
C222 C 0.16016 0.60343 0.96478 0.0
C223 C 0.12574 0.58746 0.97409 0.0
C224 C 0.09187 0.5772 0.96248 0.0
C225 C 0.09237 0.58168 0.94189 0.0
C226 C 0.0685 0.54176 0.86716 0.0
C227 C 1.04294 0.51231 0.87693 0.0
C228 C 0.19269 0.60189 0.44412 0.0
C229 C 0.18464 0.61247 0.46379 0.0
C230 C 0.15027 0.59236 0.47195 0.0
C231 C 0.12445 0.56227 0.46061 0.0
H232 H 1.03459 0.45831 0.46485 0.0
H233 H 0.98128 0.41116 0.47887 0.0
H234 H 0.93999 0.36638 0.41892 0.0
H235 H 0.99235 0.41331 0.40495 0.0
H236 H 1.04549 0.43495 0.3683 0.0
H237 H 1.04647 0.43624 0.33177 0.0
H238 H 0.12637 0.55007 0.3371 0.0
H239 H 0.1256 0.549 0.37358 0.0
H240 H 0.1739 0.56522 0.41755 0.0
H241 H 0.21874 0.61714 0.43733 0.0
H242 H 0.14343 0.5998 0.48712 0.0
H243 H 0.0981 0.54745 0.46726 0.0
N244 N 0.07543 0.49572 0.43663 0.0
N245 N 1.05384 0.46685 0.40465 0.0
N246 N 0.10773 0.51993 0.40795 0.0
C247 C 1.04998 0.46808 0.42487 0.0
C248 C 0.08254 0.49261 0.39606 0.0
C249 C 0.10452 0.52167 0.42821 0.0
C250 C 1.01787 0.43975 0.43374 0.0
C251 C 1.01406 0.43848 0.45466 0.0
C252 C 0.98361 0.41138 0.46272 0.0
C253 C 0.95625 0.38521 0.45001 0.0
C254 C 0.96014 0.38658 0.42914 0.0
C255 C 0.99048 0.41341 0.42112 0.0
C256 C 0.08524 0.49201 0.37391 0.0
C257 C 0.0635 0.46016 0.36171 0.0
C258 C 0.06422 0.46074 0.34078 0.0
C259 C 0.08632 0.49334 0.33164 0.0
C260 C 0.10878 0.52473 0.34378 0.0
C261 C 0.10843 0.52399 0.36468 0.0
C262 C 0.13229 0.55216 0.44078 0.0
C263 C 0.1668 0.57225 0.43273 0.0
C264 C 0.55594 0.1154 0.83279 0.0
C265 C 0.57892 0.14915 0.8248 0.0
C266 C 0.60295 0.14497 0.80915 0.0
C267 C 0.60245 0.10812 0.80088 0.0
H268 H 0.57869 0.95439 0.83421 0.0
H269 H 0.57311 0.89092 0.84815 0.0
H270 H 0.52871 0.83344 0.79079 0.0
H271 H 0.53363 0.89578 0.77712 0.0
H272 H 0.56222 0.93975 0.73839 0.0
H273 H 0.56219 0.93947 0.7019 0.0
H274 H 0.57578 0.06355 0.70529 0.0
H275 H 0.57534 0.06396 0.74178 0.0
H276 H 0.53697 0.05281 0.83057 0.0
H277 H 0.53727 0.11777 0.84493 0.0
H278 H 0.6207 0.1703 0.80252 0.0
H279 H 0.62008 0.10603 0.78821 0.0
N280 N 0.56752 0.00246 0.80626 0.0
N281 N 0.56303 0.96845 0.77473 0.0
N282 N 0.57425 0.03602 0.77658 0.0
C283 C 0.56243 0.96815 0.79509 0.0
C284 C 0.56883 0.00213 0.76535 0.0
C285 C 0.57359 0.03657 0.79693 0.0
C286 C 0.55674 0.93031 0.80452 0.0
C287 C 0.5673 0.92812 0.82471 0.0
C288 C 0.56437 0.8918 0.83264 0.0
C289 C 0.55033 0.85704 0.82061 0.0
C290 C 0.53906 0.85946 0.80062 0.0
C291 C 0.54223 0.89544 0.7927 0.0
C292 C 0.56887 0.00189 0.7431 0.0
C293 C 0.56517 0.96702 0.73141 0.0
C294 C 0.56531 0.96685 0.71046 0.0
C295 C 0.569 1.00149 0.7007 0.0
C296 C 0.57243 0.0363 0.71235 0.0
C297 C 0.57244 0.03653 0.7333 0.0
C298 C 0.57839 0.07444 0.80825 0.0
C299 C 0.55598 0.07829 0.82471 0.0
C300 C 0.69506 0.46201 0.12295 0.0
C301 C 0.71746 0.49113 0.13644 0.0
C302 C 0.70031 0.51841 0.14562 0.0
C303 C 0.66231 0.51731 0.14086 0.0
H304 H 0.50632 0.55786 0.11132 0.0
H305 H 0.44318 0.55905 0.12108 0.0
H306 H 0.43916 0.46505 0.15977 0.0
H307 H 0.50301 0.4636 0.14946 0.0
H308 H 0.52585 0.52899 0.06501 0.0
H309 H 0.52037 0.5277 0.02853 0.0
H310 H 0.60125 0.45966 0.02349 0.0
H311 H 0.60725 0.46124 0.06019 0.0
H312 H 0.64199 0.43969 0.10671 0.0
H313 H 0.7071 0.44073 0.11539 0.0
H314 H 0.71651 0.54111 0.15619 0.0
H315 H 0.65056 0.53969 0.14748 0.0
N316 N 0.57538 0.4997 0.12871 0.0
N317 N 0.54169 0.50302 0.0988 0.0
N318 N 0.60109 0.4909 0.09713 0.0
C319 C 0.54357 0.50445 0.11914 0.0
C320 C 0.57 0.49613 0.08769 0.0
C321 C 0.60445 0.49301 0.11752 0.0
C322 C 0.51002 0.51094 0.12975 0.0
C323 C 0.49247 0.53815 0.12238 0.0
C324 C 0.456 0.5388 0.12803 0.0
C325 C 0.43544 0.51202 0.1412 0.0
C326 C 0.45373 0.48588 0.1494 0.0
C327 C 0.49067 0.48544 0.14379 0.0
C328 C 0.567 0.4952 0.06551 0.0
C329 C 0.54249 0.5137 0.05618 0.0
C330 C 0.53948 0.51318 0.03529 0.0
C331 C 0.56042 0.49364 0.02325 0.0
C332 C 0.58468 0.47479 0.03248 0.0
C333 C 0.58824 0.47589 0.05345 0.0
C334 C 0.64081 0.48932 0.12656 0.0
C335 C 0.65756 0.46137 0.11797 0.0
H336 H 0.21764 0.56682 0.1452 0.0
H337 H 0.37496 0.44742 0.14599 0.0
H338 H 0.19057 0.44356 0.15347 0.0
H339 H 0.40169 0.57254 0.1451 0.0
H340 H 0.30784 0.44512 0.14916 0.0
H341 H 0.28495 0.56906 0.145 0.0
C342 C 0.22573 0.54016 0.14702 0.0
C343 C 0.19801 0.50491 0.14935 0.0
C344 C 0.32843 0.4731 0.14837 0.0
C345 C 0.27581 0.50731 0.14905 0.0
C346 C 0.36699 0.47451 0.14672 0.0
C347 C 0.39455 0.51024 0.14513 0.0
C348 C 0.31692 0.50765 0.14839 0.0
C349 C 0.3818 0.54417 0.14587 0.0
C350 C 0.26436 0.5415 0.14693 0.0
C351 C 0.21068 0.47145 0.15165 0.0
N352 N 0.34419 0.54199 0.14732 0.0
N353 N 0.24845 0.47345 0.15136 0.0
H354 H 0.74445 0.20979 0.45896 0.0
H355 H 0.95701 0.34007 0.482 0.0
H356 H 0.81613 0.18884 0.5066 0.0
H357 H 0.88206 0.36337 0.43667 0.0
H358 H 0.90461 0.28769 0.49306 0.0
H359 H 0.79343 0.26872 0.45211 0.0
C360 C 0.77051 0.21766 0.468 0.0
C361 C 0.77634 0.19418 0.48325 0.0
C362 C 0.89957 0.30447 0.48079 0.0
C363 C 0.83265 0.26176 0.47554 0.0
C364 C 0.92943 0.33453 0.47455 0.0
C365 C 0.92405 0.35588 0.45823 0.0
C366 C 0.86409 0.29568 0.47064 0.0
C367 C 0.88774 0.34716 0.44904 0.0
C368 C 0.79842 0.25142 0.46416 0.0
C369 C 0.81039 0.20618 0.49475 0.0
N370 N 0.85929 0.31762 0.45527 0.0
N371 N 0.8374 0.23895 0.49054 0.0
H372 H 0.50432 0.60944 0.82169 0.0
H373 H 0.6028 0.83563 0.84435 0.0
H374 H 0.59801 0.65071 0.86455 0.0
H375 H 0.49355 0.78945 0.81416 0.0
H376 H 0.60221 0.76937 0.85268 0.0
H377 H 0.50131 0.67598 0.8188 0.0
C378 C 0.52402 0.63242 0.83072 0.0
C379 C 0.55134 0.62424 0.84348 0.0
C380 C 0.57824 0.77388 0.84441 0.0
C381 C 0.54812 0.70122 0.84009 0.0
C382 C 0.57844 0.81172 0.83975 0.0
C383 C 0.54842 0.81814 0.82827 0.0
C384 C 0.54789 0.74227 0.83746 0.0
C385 C 0.51774 0.78591 0.82261 0.0
C386 C 0.52222 0.67057 0.82906 0.0
C387 C 0.5764 0.65559 0.85456 0.0
N388 N 0.51847 0.7495 0.82708 0.0
N389 N 0.57437 0.69277 0.85251 0.0
H390 H 0.93664 0.44075 0.15264 0.0
H391 H 0.77841 0.55667 0.13869 0.0
H392 H 0.96323 0.56022 0.13659 0.0
H393 H 0.75158 0.43196 0.14147 0.0
H394 H 0.84609 0.55994 0.14147 0.0
H395 H 0.86915 0.43836 0.1518 0.0
C396 C 0.92842 0.46656 0.14897 0.0
C397 C 0.95601 0.50074 0.14461 0.0
C398 C 0.8254 0.53186 0.14155 0.0
C399 C 0.87815 0.49821 0.14379 0.0
C400 C 0.78662 0.52998 0.14014 0.0
C401 C 0.7589 0.49396 0.13981 0.0
C402 C 0.83692 0.49751 0.14287 0.0
C403 C 0.77169 0.46038 0.14145 0.0
C404 C 0.88972 0.46512 0.14847 0.0
C405 C 0.94321 0.53315 0.13998 0.0
N406 N 0.80952 0.46299 0.14293 0.0
N407 N 0.90542 0.53111 0.13974 0.0
H408 H 0.29375 0.83894 0.52069 0.0
H409 H 0.26163 0.62639 0.46769 0.0
H410 H 0.38366 0.78337 0.51126 0.0
H411 H 0.16958 0.67314 0.48603 0.0
H412 H 0.3066 0.68332 0.48426 0.0
H413 H 0.24759 0.77814 0.50908 0.0
C414 C 0.30381 0.81387 0.51643 0.0
C415 C 0.34278 0.81649 0.51683 0.0
C416 C 0.27656 0.68105 0.48483 0.0
C417 C 0.29001 0.74688 0.50318 0.0
C418 C 0.2509 0.64862 0.47529 0.0
C419 C 0.21183 0.64516 0.47537 0.0
C420 C 0.26317 0.71056 0.49437 0.0
C421 C 0.19945 0.67457 0.48569 0.0
C422 C 0.27741 0.77919 0.50969 0.0
C423 C 0.35404 0.78306 0.51084 0.0
N424 N 0.22506 0.70624 0.49461 0.0
N425 N 0.32785 0.74981 0.50415 0.0
H426 H 0.62282 0.39858 0.85021 0.0
H427 H 0.51429 0.17238 0.83042 0.0
H428 H 0.50547 0.35659 0.83036 0.0
H429 H 0.6362 0.21598 0.83326 0.0
H430 H 0.5094 0.23908 0.83636 0.0
H431 H 0.62704 0.33128 0.84945 0.0
C432 C 0.59787 0.37524 0.84584 0.0
C433 C 0.56378 0.38331 0.84029 0.0
C434 C 0.53722 0.23401 0.83586 0.0
C435 C 0.56835 0.30615 0.83947 0.0
C436 C 0.54003 0.1959 0.83268 0.0
C437 C 0.57571 0.18861 0.83127 0.0
C438 C 0.57033 0.26509 0.83782 0.0
C439 C 0.60812 0.22035 0.83404 0.0
C440 C 0.60034 0.33682 0.84534 0.0
C441 C 0.53243 0.35181 0.83461 0.0
N442 N 0.60467 0.25718 0.83712 0.0
N443 N 0.53546 0.31467 0.83437 0.0
H444 H 0.61892 0.89027 0.50332 0.0
H445 H 0.49981 0.68336 0.53879 0.0
H446 H 0.50424 0.86524 0.52394 0.0
H447 H 0.61512 0.70465 0.51977 0.0
H448 H 0.49944 0.74839 0.52969 0.0
H449 H 0.61691 0.82141 0.50583 0.0
C450 C 0.59325 0.87032 0.5082 0.0
C451 C 0.56184 0.88373 0.5136 0.0
C452 C 0.52482 0.73891 0.52731 0.0
C453 C 0.55936 0.805 0.51648 0.0
C454 C 0.52499 0.70172 0.53251 0.0
C455 C 0.55766 0.68875 0.53021 0.0
C456 C 0.55769 0.76373 0.51989 0.0
C457 C 0.58933 0.71354 0.52175 0.0
C458 C 0.59215 0.83103 0.50965 0.0
C459 C 0.52933 0.8565 0.51981 0.0
N460 N 0.58875 0.75009 0.51711 0.0
N461 N 0.52905 0.81865 0.52115 0.0
H462 H 0.7806 0.42494 0.86795 0.0
H463 H 0.95941 0.41699 0.85029 0.0
H464 H 0.79153 0.50235 0.81973 0.0
H465 H 0.9649 0.52212 0.82013 0.0
H466 H 0.89063 0.39761 0.84488 0.0
H467 H 0.83889 0.40984 0.85802 0.0
C468 C 0.79475 0.43781 0.85486 0.0
C469 C 0.78199 0.46576 0.845 0.0
C470 C 0.90688 0.42474 0.83928 0.0
C471 C 0.84868 0.44849 0.83328 0.0
C472 C 0.94624 0.43565 0.8422 0.0
C473 C 0.96783 0.47208 0.83647 0.0
C474 C 0.88922 0.45073 0.83075 0.0
C475 C 0.94953 0.49418 0.82524 0.0
C476 C 0.82809 0.42902 0.84905 0.0
C477 C 0.80121 0.48154 0.82812 0.0
N478 N 0.9112 0.4836 0.8232 0.0
N479 N 0.83401 0.47331 0.82305 0.0
H480 H 0.23285 0.78778 0.14863 0.0
H481 H 0.45227 0.8371 0.18194 0.0
H482 H 0.29095 0.6989 0.15635 0.0
H483 H 0.38193 0.91416 0.19473 0.0
H484 H 0.39696 0.78908 0.16591 0.0
H485 H 0.29101 0.83728 0.15919 0.0
C486 C 0.25774 0.77856 0.15256 0.0
C487 C 0.25663 0.73888 0.15185 0.0
C488 C 0.3938 0.81666 0.17209 0.0
C489 C 0.32372 0.79576 0.16354 0.0
C490 C 0.42531 0.84408 0.18108 0.0
C491 C 0.42146 0.87943 0.18973 0.0
C492 C 0.35846 0.82503 0.17151 0.0
C493 C 0.38592 0.88705 0.18839 0.0
C494 C 0.29102 0.80693 0.15847 0.0
C495 C 0.29034 0.72902 0.15653 0.0
N496 N 0.35579 0.86007 0.17949 0.0
N497 N 0.32245 0.75725 0.16225 0.0
H498 H 0.50254 0.11646 0.53317 0.0
H499 H 0.61492 0.33931 0.52416 0.0
H500 H 0.61481 0.15052 0.50941 0.0
H501 H 0.49514 0.29932 0.53455 0.0
H502 H 0.61637 0.27133 0.51799 0.0
H503 H 0.50056 0.18406 0.53411 0.0
C504 C 0.52688 0.13817 0.52818 0.0
C505 C 0.55896 0.1277 0.52129 0.0
C506 C 0.58972 0.27753 0.5214 0.0
C507 C 0.55684 0.20566 0.52229 0.0
C508 C 0.58881 0.31633 0.52476 0.0
C509 C 0.55494 0.32504 0.53012 0.0
C510 C 0.55657 0.2473 0.52352 0.0
C511 C 0.52204 0.294 0.53087 0.0
C512 C 0.52563 0.17685 0.52861 0.0
C513 C 0.58949 0.15725 0.51487 0.0
N514 N 0.52378 0.25665 0.52784 0.0
N515 N 0.58779 0.19495 0.51565 0.0
H516 H 0.34668 0.57438 0.77459 0.0
H517 H 0.31027 0.73606 0.84693 0.0
H518 H 0.43298 0.65296 0.81297 0.0
H519 H 0.2269 0.66113 0.80551 0.0
H520 H 0.36031 0.7228 0.82628 0.0
H521 H 0.30917 0.62119 0.77664 0.0
C522 C 0.35832 0.60197 0.78298 0.0
C523 C 0.39236 0.60911 0.79427 0.0
C524 C 0.33103 0.71021 0.82138 0.0
C525 C 0.34899 0.66237 0.79723 0.0
C526 C 0.30241 0.71773 0.83322 0.0
C527 C 0.26427 0.69837 0.82849 0.0
C528 C 0.3213 0.68278 0.80491 0.0
C529 C 0.25581 0.67616 0.81012 0.0
C530 C 0.33674 0.62873 0.78425 0.0
C531 C 0.40611 0.6456 0.8047 0.0
N532 N 0.28408 0.66806 0.79933 0.0
N533 N 0.38392 0.67041 0.80641 0.0
H534 H 0.90654 0.29825 0.20964 0.0
H535 H 0.71112 0.14187 0.17703 0.0
H536 H 0.87712 0.25771 0.14787 0.0
H537 H 0.76027 0.15792 0.23721 0.0
H538 H 0.76845 0.188 0.16583 0.0
H539 H 0.84889 0.25181 0.21991 0.0
C540 C 0.88776 0.27975 0.19822 0.0
C541 C 0.89661 0.28185 0.17787 0.0
C542 C 0.76656 0.18131 0.18148 0.0
C543 C 0.83062 0.2284 0.18953 0.0
C544 C 0.73393 0.15483 0.18788 0.0
C545 C 0.73054 0.14611 0.20817 0.0
C546 C 0.79588 0.19944 0.19548 0.0
C547 C 0.761 0.1643 0.22154 0.0
C548 C 0.85501 0.25304 0.2041 0.0
C549 C 0.87148 0.25679 0.16373 0.0
N550 N 0.79218 0.19016 0.21498 0.0
N551 N 0.83952 0.23117 0.16982 0.0
H552 H 0.13059 0.46949 0.08297 0.0
H553 H 0.07907 0.60563 0.00222 0.0
H554 H 1.05373 0.54056 0.0937 0.0
H555 H 0.169 0.5497 0.99461 0.0
H556 H 0.07095 0.58357 0.03627 0.0
H557 H 0.14607 0.49904 0.05079 0.0
C558 C 0.11699 0.4913 0.07852 0.0
C559 C 0.09069 0.50247 0.09088 0.0
C560 C 0.09276 0.57643 0.02727 0.0
C561 C 0.10825 0.53642 0.05427 0.0
C562 C 0.09739 0.58903 0.00786 0.0
C563 C 0.12461 0.57928 0.99561 0.0
C564 C 0.11521 0.55346 0.03445 0.0
C565 C 0.14782 0.55798 0.00364 0.0
C566 C 0.12596 0.50829 0.06023 0.0
C567 C 0.07405 0.53102 0.08454 0.0
N568 N 0.14229 0.54535 0.02251 0.0
N569 N 0.08297 0.54687 0.06663 0.0
H570 H 0.57415 0.96513 0.45872 0.0
H571 H 0.54631 0.0686 0.35875 0.0
H572 H 0.50564 0.04588 0.4558 0.0
H573 H 0.57275 0.95798 0.35786 0.0
H574 H 0.54081 0.06744 0.3953 0.0
H575 H 0.58339 0.9688 0.42248 0.0
C576 C 0.56116 0.98369 0.45043 0.0
C577 C 0.53888 0.00504 0.46014 0.0
C578 C 0.54785 0.04347 0.38709 0.0
C579 C 0.54963 0.00968 0.41893 0.0
C580 C 0.55119 0.04422 0.3663 0.0
C581 C 0.55986 0.01327 0.35534 0.0
C582 C 0.55381 0.01183 0.39698 0.0
C583 C 0.56567 0.98221 0.36578 0.0
C584 C 0.56635 0.98569 0.4298 0.0
C585 C 0.52278 0.02876 0.44879 0.0
N586 N 0.56268 0.98234 0.38606 0.0
N587 N 0.52856 0.03056 0.42877 0.0
H588 H 0.62939 0.57685 0.78655 0.0
H589 H 0.53191 0.46214 0.68459 0.0
H590 H 0.55052 0.46257 0.78426 0.0
H591 H 0.61481 0.57413 0.68678 0.0
H592 H 0.53688 0.46254 0.72114 0.0
H593 H 0.62305 0.57716 0.75005 0.0
C594 C 0.61076 0.5518 0.77832 0.0
C595 C 0.59045 0.51963 0.78836 0.0
C596 C 0.55395 0.48706 0.71364 0.0
C597 C 0.58293 0.51977 0.74665 0.0
C598 C 0.55126 0.48678 0.69275 0.0
C599 C 0.57311 0.51808 0.68258 0.0
C600 C 0.57869 0.51888 0.72448 0.0
C601 C 0.59716 0.54955 0.69398 0.0
C602 C 0.6071 0.552 0.7575 0.0
C603 C 0.56662 0.48798 0.77705 0.0
N604 N 0.59938 0.54908 0.71431 0.0
N605 N 0.5635 0.48884 0.75677 0.0
H606 H 0.62575 0.97116 0.57677 0.0
H607 H 0.534 0.04012 0.67538 0.0
H608 H 0.5445 0.0388 0.5751 0.0
H609 H 0.60653 0.96288 0.67536 0.0
H610 H 0.53767 0.04079 0.6388 0.0
H611 H 0.61901 0.96823 0.61302 0.0
C612 C 0.60643 0.98538 0.58407 0.0
C613 C 0.58579 0.00542 0.57299 0.0
C614 C 0.55266 0.02359 0.6468 0.0
C615 C 0.57793 0.00228 0.61451 0.0
C616 C 0.55076 0.02337 0.66769 0.0
C617 C 0.57003 1.00144 0.67846 0.0
C618 C 0.57419 0.00192 0.63661 0.0
C619 C 0.59087 0.97986 0.66768 0.0
C620 C 0.60254 0.98366 0.60477 0.0
C621 C 0.56102 0.02315 0.58315 0.0
N622 N 0.59251 0.98078 0.64739 0.0
N623 N 0.55788 0.02132 0.60339 0.0
H624 H 0.49857 0.42763 0.89788 0.0
H625 H 0.5653 0.55539 0.0002 0.0
H626 H 0.55925 0.54939 0.89978 0.0
H627 H 0.54683 0.43077 0.9961 0.0
H628 H 0.5565 0.55395 0.96369 0.0
H629 H 0.50917 0.42819 0.93435 0.0
C630 C 0.51396 0.45447 0.90601 0.0
C631 C 0.52795 0.48855 0.89591 0.0
C632 C 0.55454 0.52693 0.97076 0.0
C633 C 0.53997 0.48945 0.9374 0.0
C634 C 0.5594 0.52773 0.99156 0.0
C635 C 0.55676 0.49314 0.0011 0.0
C636 C 0.54635 0.4912 0.95944 0.0
C637 C 0.54933 0.45809 0.98925 0.0
C638 C 0.52017 0.45472 0.92674 0.0
C639 C 0.54795 0.52251 0.90704 0.0
N640 N 0.54405 0.45794 0.96901 0.0
N641 N 0.55316 0.52217 0.92722 0.0
H642 H 1.04726 0.56242 0.21343 0.0
H643 H 0.0906 0.43796 0.30217 0.0
H644 H 0.0985 0.46798 0.20263 0.0
H645 H 0.07689 0.55386 0.31098 0.0
H646 H 0.08589 0.44287 0.26565 0.0
H647 H 1.04931 0.5535 0.24932 0.0
C648 C 1.0588 0.53964 0.21863 0.0
C649 C 0.07303 0.51609 0.20509 0.0
C650 C 0.08404 0.46719 0.27562 0.0
C651 C 0.0754 0.50567 0.24621 0.0
C652 C 0.08658 0.46437 0.2964 0.0
C653 C 0.08435 0.49566 0.30956 0.0
C654 C 0.07858 0.50127 0.26806 0.0
C655 C 0.07926 0.52927 0.30136 0.0
C656 C 1.06009 0.53466 0.23914 0.0
C657 C 0.08743 0.48686 0.21264 0.0
N658 N 0.07638 0.5311 0.28117 0.0
N659 N 0.0883 0.48244 0.23277 0.0
loop_
_geom_bond_atom_site_label_1
_geom_bond_atom_site_label_2
_geom_bond_distance
_geom_bond_site_symmetry_2
_ccdc_geom_bond_type
Nd0 C2 2.836 . S
Nd0 O20 2.500 . S
Nd0 O21 2.492 . S
Nd0 O22 2.487 . S
Nd0 O23 2.682 . S
Nd0 O24 2.410 . S
Nd0 O29 2.414 . S
Nd0 O31 2.424 1_455 S
Nd1 C11 2.836 . S
Nd1 O23 2.414 1_655 S
Nd1 O25 2.424 1_655 S
Nd1 O26 2.500 . S
Nd1 O27 2.492 . S
Nd1 O28 2.487 1_655 S
Nd1 O29 2.682 1_655 S
Nd1 O30 2.410 . S
C2 Nd0 2.836 . S
C2 C3 1.498 . S
C2 O20 1.258 . S
C2 O21 1.239 . S
C3 C2 1.498 . S
C3 C4 1.366 . S
C3 C8 1.407 . S
C4 C3 1.366 . S
C4 C5 1.392 . S
C4 H32 0.930 . S
C5 C4 1.392 . S
C5 C6 1.398 . S
C5 H33 0.929 . S
C6 C5 1.398 . S
C6 C7 1.352 . S
C7 C6 1.352 . S
C7 C8 1.384 . S
C7 H34 0.930 . S
C8 C3 1.407 . S
C8 C7 1.384 . S
C8 H35 0.929 . S
C9 O22 1.241 . S
C9 O23 1.273 . S
C10 O24 1.251 . S
C10 O25 1.268 . S
C11 Nd1 2.836 . S
C11 C12 1.498 . S
C11 O26 1.258 . S
C11 O27 1.239 . S
C12 C11 1.498 . S
C12 C13 1.366 . S
C12 C17 1.407 . S
C13 C12 1.366 . S
C13 C14 1.392 . S
C13 H36 0.930 . S
C14 C13 1.392 . S
C14 C15 1.398 . S
C14 H37 0.929 . S
C15 C14 1.398 . S
C15 C16 1.352 . S
C16 C15 1.352 . S
C16 C17 1.384 . S
C16 H38 0.930 . S
C17 C12 1.407 . S
C17 C16 1.384 . S
C17 H39 0.929 . S
C18 O28 1.241 . S
C18 O29 1.273 . S
C19 O30 1.251 . S
C19 O31 1.268 . S
O20 Nd0 2.500 . S
O20 C2 1.258 . S
O21 Nd0 2.492 . S
O21 C2 1.239 . S
O22 Nd0 2.487 . S
O22 C9 1.241 . S
O23 Nd0 2.682 . S
O23 Nd1 2.414 1_455 S
O23 C9 1.273 . S
O24 Nd0 2.410 . S
O24 C10 1.251 . S
O25 Nd1 2.424 1_455 S
O25 C10 1.268 . S
O26 Nd1 2.500 . S
O26 C11 1.258 . S
O27 Nd1 2.492 . S
O27 C11 1.239 . S
O28 Nd1 2.487 1_455 S
O28 C18 1.241 . S
O29 Nd0 2.414 . S
O29 Nd1 2.682 1_455 S
O29 C18 1.273 . S
O30 Nd1 2.410 . S
O30 C19 1.251 . S
O31 Nd0 2.424 1_655 S
O31 C19 1.268 . S
H32 C4 0.930 . S
H33 C5 0.929 . S
H34 C7 0.930 . S
H35 C8 0.929 . S
H36 C13 0.930 . S
H37 C14 0.929 . S
H38 C16 0.930 . S
H39 C17 0.929 . S
Nd40 C42 2.820 1_545 S
Nd40 O60 2.485 1_545 S
Nd40 O61 2.479 1_545 S
Nd40 O62 2.487 1_545 S
Nd40 O63 2.684 . S
Nd40 O64 2.388 1_545 S
Nd40 O69 2.411 . S
Nd40 O71 2.446 . S
Nd41 C51 2.836 . S
Nd41 O63 2.414 . S
Nd41 O65 2.424 1_545 S
Nd41 O66 2.500 . S
Nd41 O67 2.492 . S
Nd41 O68 2.487 . S
Nd41 O69 2.682 . S
Nd41 O70 2.410 . S
C42 Nd40 2.820 1_565 S
C42 C43 1.498 . S
C42 O60 1.258 . S
C42 O61 1.239 . S
C43 C42 1.498 . S
C43 C44 1.366 . S
C43 C48 1.407 . S
C44 C43 1.366 . S
C44 C45 1.392 . S
C44 H72 0.930 . S
C45 C44 1.392 . S
C45 C46 1.398 . S
C45 H73 0.929 . S
C46 C45 1.398 . S
C46 C47 1.352 . S
C47 C46 1.352 . S
C47 C48 1.384 . S
C47 H74 0.930 . S
C48 C43 1.407 . S
C48 C47 1.384 . S
C48 H75 0.929 . S
C49 O62 1.242 1_545 S
C49 O63 1.273 . S
C50 O64 1.251 . S
C50 O65 1.268 . S
C51 Nd41 2.836 . S
C51 C52 1.498 . S
C51 O66 1.258 . S
C51 O67 1.239 . S
C52 C51 1.498 . S
C52 C53 1.366 . S
C52 C57 1.407 . S
C53 C52 1.366 . S
C53 C54 1.392 . S
C53 H76 0.930 . S
C54 C53 1.392 . S
C54 C55 1.398 . S
C54 H77 0.929 . S
C55 C54 1.398 . S
C55 C56 1.352 . S
C56 C55 1.352 . S
C56 C57 1.384 . S
C56 H78 0.930 . S
C57 C52 1.407 . S
C57 C56 1.384 . S
C57 H79 0.929 . S
C58 O68 1.241 . S
C58 O69 1.273 . S
C59 O70 1.251 . S
C59 O71 1.268 . S
O60 Nd40 2.485 1_565 S
O60 C42 1.258 . S
O61 Nd40 2.479 1_565 S
O61 C42 1.239 . S
O62 Nd40 2.487 1_565 S
O62 C49 1.242 1_565 S
O63 Nd40 2.684 . S
O63 Nd41 2.414 . S
O63 C49 1.273 . S
O64 Nd40 2.388 1_565 S
O64 C50 1.251 . S
O65 Nd41 2.424 1_565 S
O65 C50 1.268 . S
O66 Nd41 2.500 . S
O66 C51 1.258 . S
O67 Nd41 2.492 . S
O67 C51 1.239 . S
O68 Nd41 2.487 . S
O68 C58 1.241 . S
O69 Nd40 2.411 . S
O69 Nd41 2.682 . S
O69 C58 1.273 . S
O70 Nd41 2.410 . S
O70 C59 1.251 . S
O71 Nd40 2.446 . S
O71 C59 1.268 . S
H72 C44 0.930 . S
H73 C45 0.929 . S
H74 C47 0.930 . S
H75 C48 0.929 . S
H76 C53 0.930 . S
H77 C54 0.929 . S
H78 C56 0.930 . S
H79 C57 0.929 . S
Nd80 C82 2.836 . S
Nd80 O100 2.500 . S
Nd80 O101 2.492 . S
Nd80 O102 2.487 . S
Nd80 O103 2.682 . S
Nd80 O104 2.410 . S
Nd80 O109 2.414 . S
Nd80 O111 2.424 . S
Nd81 C91 2.836 . S
Nd81 O103 2.414 . S
Nd81 O105 2.424 . S
Nd81 O106 2.500 . S
Nd81 O107 2.492 . S
Nd81 O108 2.487 . S
Nd81 O109 2.682 . S
Nd81 O110 2.410 . S
C82 Nd80 2.836 . S
C82 C83 1.498 . S
C82 O100 1.258 . S
C82 O101 1.239 . S
C83 C82 1.498 . S
C83 C84 1.366 . S
C83 C88 1.407 . S
C84 C83 1.366 . S
C84 C85 1.392 . S
C84 H112 0.930 . S
C85 C84 1.392 . S
C85 C86 1.398 . S
C85 H113 0.929 . S
C86 C85 1.398 . S
C86 C87 1.352 . S
C87 C86 1.352 . S
C87 C88 1.384 . S
C87 H114 0.930 . S
C88 C83 1.407 . S
C88 C87 1.384 . S
C88 H115 0.929 . S
C89 O102 1.241 . S
C89 O103 1.273 . S
C90 O104 1.251 . S
C90 O105 1.268 . S
C91 Nd81 2.836 . S
C91 C92 1.498 . S
C91 O106 1.258 . S
C91 O107 1.239 . S
C92 C91 1.498 . S
C92 C93 1.366 . S
C92 C97 1.407 . S
C93 C92 1.366 . S
C93 C94 1.392 . S
C93 H116 0.930 . S
C94 C93 1.392 . S
C94 C95 1.398 . S
C94 H117 0.929 . S
C95 C94 1.398 . S
C95 C96 1.352 . S
C96 C95 1.352 . S
C96 C97 1.384 . S
C96 H118 0.930 . S
C97 C92 1.407 . S
C97 C96 1.384 . S
C97 H119 0.929 . S
C98 O108 1.241 . S
C98 O109 1.273 . S
C99 O110 1.251 . S
C99 O111 1.268 . S
O100 Nd80 2.500 . S
O100 C82 1.258 . S
O101 Nd80 2.492 . S
O101 C82 1.239 . S
O102 Nd80 2.487 . S
O102 C89 1.241 . S
O103 Nd80 2.682 . S
O103 Nd81 2.414 . S
O103 C89 1.273 . S
O104 Nd80 2.410 . S
O104 C90 1.251 . S
O105 Nd81 2.424 . S
O105 C90 1.268 . S
O106 Nd81 2.500 . S
O106 C91 1.258 . S
O107 Nd81 2.492 . S
O107 C91 1.239 . S
O108 Nd81 2.487 . S
O108 C98 1.241 . S
O109 Nd80 2.414 . S
O109 Nd81 2.682 . S
O109 C98 1.273 . S
O110 Nd81 2.410 . S
O110 C99 1.251 . S
O111 Nd80 2.424 . S
O111 C99 1.268 . S
H112 C84 0.930 . S
H113 C85 0.929 . S
H114 C87 0.930 . S
H115 C88 0.929 . S
H116 C93 0.930 . S
H117 C94 0.929 . S
H118 C96 0.930 . S
H119 C97 0.929 . S
C120 C121 1.384 . S
C120 H133 0.947 . S
C120 C155 1.382 . S
C121 C120 1.384 . S
C121 C122 1.378 . S
C122 C121 1.378 . S
C122 C123 1.378 . S
C122 H134 0.952 . S
C123 C122 1.378 . S
C123 H135 0.950 . S
C123 C154 1.383 . S
H124 C143 0.947 . S
H125 C144 0.946 . S
H126 C146 0.953 . S
H127 C147 0.945 . S
H128 C149 0.952 . S
H129 C150 0.949 . S
H130 C152 0.940 1_565 S
H131 C153 0.948 . S
H132 C155 0.951 . S
H133 C120 0.947 . S
H134 C122 0.952 . S
H135 C123 0.950 . S
N136 C139 1.382 . S
N136 C141 1.363 1_545 S
N137 C139 1.371 . S
N137 C140 1.372 . S
N138 C140 1.361 1_565 S
N138 C141 1.377 . S
C139 N136 1.382 . S
C139 N137 1.371 . S
C139 C142 1.480 . S
C140 N137 1.372 . S
C140 N138 1.361 1_545 S
C140 C148 1.457 . S
C141 N136 1.363 1_565 S
C141 N138 1.377 . S
C141 C154 1.479 . S
C142 C139 1.480 . S
C142 C143 1.383 . S
C142 C147 1.385 . S
C143 H124 0.947 . S
C143 C142 1.383 . S
C143 C144 1.388 . S
C144 H125 0.946 . S
C144 C143 1.388 . S
C144 C145 1.384 . S
C145 C144 1.384 . S
C145 C146 1.377 . S
C146 H126 0.953 . S
C146 C145 1.377 . S
C146 C147 1.369 . S
C147 H127 0.945 . S
C147 C142 1.385 . S
C147 C146 1.369 . S
C148 C140 1.457 . S
C148 C149 1.372 . S
C148 C153 1.364 1_545 S
C149 H128 0.952 . S
C149 C148 1.372 . S
C149 C150 1.389 . S
C150 H129 0.949 . S
C150 C149 1.389 . S
C150 C151 1.387 . S
C151 C150 1.387 . S
C151 C152 1.383 . S
C152 H130 0.940 1_545 S
C152 C151 1.383 . S
C152 C153 1.378 1_545 S
C153 H131 0.948 . S
C153 C148 1.364 1_565 S
C153 C152 1.378 1_565 S
C154 C123 1.383 . S
C154 C141 1.479 . S
C154 C155 1.398 . S
C155 C120 1.382 . S
C155 H132 0.951 . S
C155 C154 1.398 . S
C156 C157 1.384 . S
C156 H169 0.947 . S
C156 C191 1.382 . S
C157 C156 1.384 . S
C157 C158 1.378 . S
C158 C157 1.378 . S
C158 C159 1.378 . S
C158 H170 0.952 . S
C159 C158 1.378 . S
C159 H171 0.950 . S
C159 C190 1.383 . S
H160 C179 0.947 . S
H161 C180 0.946 . S
H162 C182 0.953 . S
H163 C183 0.945 . S
H164 C185 0.952 . S
H165 C186 0.949 . S
H166 C188 0.950 . S
H167 C189 0.948 . S
H168 C191 0.951 . S
H169 C156 0.947 . S
H170 C158 0.952 . S
H171 C159 0.950 . S
N172 C175 1.382 . S
N172 C177 1.363 . S
N173 C175 1.371 . S
N173 C176 1.372 . S
N174 C176 1.361 . S
N174 C177 1.377 . S
C175 N172 1.382 . S
C175 N173 1.371 . S
C175 C178 1.480 . S
C176 N173 1.372 . S
C176 N174 1.361 . S
C176 C184 1.457 . S
C177 N172 1.363 . S
C177 N174 1.377 . S
C177 C190 1.479 . S
C178 C175 1.480 . S
C178 C179 1.383 . S
C178 C183 1.385 . S
C179 H160 0.947 . S
C179 C178 1.383 . S
C179 C180 1.388 . S
C180 H161 0.946 . S
C180 C179 1.388 . S
C180 C181 1.384 . S
C181 C180 1.384 . S
C181 C182 1.377 . S
C182 H162 0.953 . S
C182 C181 1.377 . S
C182 C183 1.369 . S
C183 H163 0.945 . S
C183 C178 1.385 . S
C183 C182 1.369 . S
C184 C176 1.457 . S
C184 C185 1.372 . S
C184 C189 1.364 . S
C185 H164 0.952 . S
C185 C184 1.372 . S
C185 C186 1.389 . S
C186 H165 0.949 . S
C186 C185 1.389 . S
C186 C187 1.387 . S
C187 C186 1.387 . S
C187 C188 1.372 . S
C188 H166 0.950 . S
C188 C187 1.372 . S
C188 C189 1.379 . S
C189 H167 0.948 . S
C189 C184 1.364 . S
C189 C188 1.379 . S
C190 C159 1.383 . S
C190 C177 1.479 . S
C190 C191 1.398 . S
C191 C156 1.382 . S
C191 H168 0.951 . S
C191 C190 1.398 . S
C192 C193 1.384 . S
C192 H205 0.947 . S
C192 C227 1.382 . S
C193 C192 1.384 . S
C193 C194 1.378 . S
C194 C193 1.378 . S
C194 C195 1.378 . S
C194 H206 0.952 . S
C195 C194 1.378 . S
C195 H207 0.950 . S
C195 C226 1.383 . S
H196 C215 0.947 . S
H197 C216 0.946 . S
H198 C218 0.953 . S
H199 C219 0.945 . S
H200 C221 0.952 . S
H201 C222 0.949 . S
H202 C224 0.949 1_655 S
H203 C225 0.968 . S
H204 C227 0.951 . S
H205 C192 0.947 . S
H206 C194 0.952 . S
H207 C195 0.950 . S
N208 C211 1.382 . S
N208 C213 1.363 . S
N209 C211 1.371 . S
N209 C212 1.372 . S
N210 C212 1.361 . S
N210 C213 1.377 . S
C211 N208 1.382 . S
C211 N209 1.371 . S
C211 C214 1.480 . S
C212 N209 1.372 . S
C212 N210 1.361 . S
C212 C220 1.457 . S
C213 N208 1.363 . S
C213 N210 1.377 . S
C213 C226 1.479 1_455 S
C214 C211 1.480 . S
C214 C215 1.383 . S
C214 C219 1.385 . S
C215 H196 0.947 . S
C215 C214 1.383 . S
C215 C216 1.388 . S
C216 H197 0.946 . S
C216 C215 1.388 . S
C216 C217 1.384 . S
C217 C216 1.384 . S
C217 C218 1.377 . S
C218 H198 0.953 . S
C218 C217 1.377 . S
C218 C219 1.369 . S
C219 H199 0.945 . S
C219 C214 1.385 . S
C219 C218 1.369 . S
C220 C212 1.457 . S
C220 C221 1.372 . S
C220 C225 1.343 1_455 S
C221 H200 0.952 . S
C221 C220 1.372 . S
C221 C222 1.389 . S
C222 H201 0.949 . S
C222 C221 1.389 . S
C222 C223 1.387 . S
C223 C222 1.387 . S
C223 C224 1.373 . S
C224 H202 0.949 1_455 S
C224 C223 1.373 . S
C224 C225 1.379 1_455 S
C225 H203 0.968 . S
C225 C220 1.343 1_655 S
C225 C224 1.379 1_655 S
C226 C195 1.383 . S
C226 C213 1.479 1_655 S
C226 C227 1.398 . S
C227 C192 1.382 . S
C227 H204 0.951 . S
C227 C226 1.398 . S
C228 C229 1.384 . S
C228 H241 0.947 . S
C228 C263 1.382 . S
C229 C228 1.384 . S
C229 C230 1.378 . S
C230 C229 1.378 . S
C230 C231 1.378 . S
C230 H242 0.952 . S
C231 C230 1.378 . S
C231 H243 0.950 . S
C231 C262 1.383 . S
H232 C251 0.947 . S
H233 C252 0.946 . S
H234 C254 0.953 . S
H235 C255 0.945 . S
H236 C257 0.952 . S
H237 C258 0.949 . S
H238 C260 0.950 . S
H239 C261 0.948 . S
H240 C263 0.951 . S
H241 C228 0.947 . S
H242 C230 0.952 . S
H243 C231 0.950 . S
N244 C247 1.382 1_455 S
N244 C249 1.363 . S
N245 C247 1.371 . S
N245 C248 1.372 1_655 S
N246 C248 1.361 . S
N246 C249 1.377 . S
C247 N244 1.382 1_655 S
C247 N245 1.371 . S
C247 C250 1.480 . S
C248 N245 1.372 1_455 S
C248 N246 1.361 . S
C248 C256 1.457 . S
C249 N244 1.363 . S
C249 N246 1.377 . S
C249 C262 1.479 . S
C250 C247 1.480 . S
C250 C251 1.383 . S
C250 C255 1.385 . S
C251 H232 0.947 . S
C251 C250 1.383 . S
C251 C252 1.388 . S
C252 H233 0.946 . S
C252 C251 1.388 . S
C252 C253 1.384 . S
C253 C252 1.384 . S
C253 C254 1.377 . S
C254 H234 0.953 . S
C254 C253 1.377 . S
C254 C255 1.369 . S
C255 H235 0.945 . S
C255 C250 1.385 . S
C255 C254 1.369 . S
C256 C248 1.457 . S
C256 C257 1.372 1_455 S
C256 C261 1.364 . S
C257 H236 0.952 . S
C257 C256 1.372 1_655 S
C257 C258 1.389 . S
C258 H237 0.949 . S
C258 C257 1.389 . S
C258 C259 1.387 1_655 S
C259 C258 1.387 1_455 S
C259 C260 1.372 . S
C260 H238 0.950 . S
C260 C259 1.372 . S
C260 C261 1.379 . S
C261 H239 0.948 . S
C261 C256 1.364 . S
C261 C260 1.379 . S
C262 C231 1.383 . S
C262 C249 1.479 . S
C262 C263 1.398 . S
C263 C228 1.382 . S
C263 H240 0.951 . S
C263 C262 1.398 . S
C264 C265 1.384 . S
C264 H277 0.947 . S
C264 C299 1.382 . S
C265 C264 1.384 . S
C265 C266 1.378 . S
C266 C265 1.378 . S
C266 C267 1.378 . S
C266 H278 0.952 . S
C267 C266 1.378 . S
C267 H279 0.950 . S
C267 C298 1.383 . S
H268 C287 0.947 . S
H269 C288 0.946 . S
H270 C290 0.953 . S
H271 C291 0.945 . S
H272 C293 0.952 . S
H273 C294 0.949 . S
H274 C296 0.950 . S
H275 C297 0.948 . S
H276 C299 0.951 . S
H277 C264 0.947 . S
H278 C266 0.952 . S
H279 C267 0.950 . S
N280 C283 1.382 1_545 S
N280 C285 1.363 . S
N281 C283 1.371 . S
N281 C284 1.372 1_565 S
N282 C284 1.361 . S
N282 C285 1.377 . S
C283 N280 1.382 1_565 S
C283 N281 1.371 . S
C283 C286 1.480 . S
C284 N281 1.372 1_545 S
C284 N282 1.361 . S
C284 C292 1.457 . S
C285 N280 1.363 . S
C285 N282 1.377 . S
C285 C298 1.479 . S
C286 C283 1.480 . S
C286 C287 1.383 . S
C286 C291 1.385 . S
C287 H268 0.947 . S
C287 C286 1.383 . S
C287 C288 1.388 . S
C288 H269 0.946 . S
C288 C287 1.388 . S
C288 C289 1.384 . S
C289 C288 1.384 . S
C289 C290 1.377 . S
C290 H270 0.953 . S
C290 C289 1.377 . S
C290 C291 1.369 . S
C291 H271 0.945 . S
C291 C286 1.385 . S
C291 C290 1.369 . S
C292 C284 1.457 . S
C292 C293 1.372 1_545 S
C292 C297 1.364 . S
C293 H272 0.952 . S
C293 C292 1.372 1_565 S
C293 C294 1.389 . S
C294 H273 0.949 . S
C294 C293 1.389 . S
C294 C295 1.387 1_565 S
C295 C294 1.387 1_545 S
C295 C296 1.372 . S
C296 H274 0.950 . S
C296 C295 1.372 . S
C296 C297 1.379 . S
C297 H275 0.948 . S
C297 C292 1.364 . S
C297 C296 1.379 . S
C298 C267 1.383 . S
C298 C285 1.479 . S
C298 C299 1.398 . S
C299 C264 1.382 . S
C299 H276 0.951 . S
C299 C298 1.398 . S
C300 C301 1.384 . S
C300 H313 0.947 . S
C300 C335 1.382 . S
C301 C300 1.384 . S
C301 C302 1.378 . S
C302 C301 1.378 . S
C302 C303 1.378 . S
C302 H314 0.952 . S
C303 C302 1.378 . S
C303 H315 0.950 . S
C303 C334 1.383 . S
H304 C323 0.947 . S
H305 C324 0.946 . S
H306 C326 0.953 . S
H307 C327 0.945 . S
H308 C329 0.952 . S
H309 C330 0.949 . S
H310 C332 0.950 . S
H311 C333 0.948 . S
H312 C335 0.951 . S
H313 C300 0.947 . S
H314 C302 0.952 . S
H315 C303 0.950 . S
N316 C319 1.382 . S
N316 C321 1.363 . S
N317 C319 1.371 . S
N317 C320 1.372 . S
N318 C320 1.361 . S
N318 C321 1.377 . S
C319 N316 1.382 . S
C319 N317 1.371 . S
C319 C322 1.480 . S
C320 N317 1.372 . S
C320 N318 1.361 . S
C320 C328 1.457 . S
C321 N316 1.363 . S
C321 N318 1.377 . S
C321 C334 1.479 . S
C322 C319 1.480 . S
C322 C323 1.383 . S
C322 C327 1.385 . S
C323 H304 0.947 . S
C323 C322 1.383 . S
C323 C324 1.388 . S
C324 H305 0.946 . S
C324 C323 1.388 . S
C324 C325 1.384 . S
C325 C324 1.384 . S
C325 C326 1.377 . S
C326 H306 0.953 . S
C326 C325 1.377 . S
C326 C327 1.369 . S
C327 H307 0.945 . S
C327 C322 1.385 . S
C327 C326 1.369 . S
C328 C320 1.457 . S
C328 C329 1.372 . S
C328 C333 1.364 . S
C329 H308 0.952 . S
C329 C328 1.372 . S
C329 C330 1.389 . S
C330 H309 0.949 . S
C330 C329 1.389 . S
C330 C331 1.387 . S
C331 C330 1.387 . S
C331 C332 1.372 . S
C332 H310 0.950 . S
C332 C331 1.372 . S
C332 C333 1.379 . S
C333 H311 0.948 . S
C333 C328 1.364 . S
C333 C332 1.379 . S
C334 C303 1.383 . S
C334 C321 1.479 . S
C334 C335 1.398 . S
C335 C300 1.382 . S
C335 H312 0.951 . S
C335 C334 1.398 . S
H336 C342 0.930 . S
H337 C346 0.930 . S
H338 C351 0.929 . S
H339 C349 0.929 . S
H340 C344 0.929 . S
H341 C350 0.929 . S
C342 H336 0.930 . S
C342 C343 1.367 . S
C342 C350 1.378 . S
C343 C342 1.367 . S
C343 C351 1.433 . S
C344 H340 0.929 . S
C344 C346 1.378 . S
C344 C348 1.350 . S
C345 C348 1.463 . S
C345 C350 1.350 . S
C345 N353 1.427 . S
C346 H337 0.930 . S
C346 C344 1.378 . S
C346 C347 1.367 . S
C347 C346 1.367 . S
C347 C349 1.433 . S
C348 C344 1.350 . S
C348 C345 1.463 . S
C348 N352 1.427 . S
C349 H339 0.929 . S
C349 C347 1.433 . S
C349 N352 1.384 . S
C350 H341 0.929 . S
C350 C342 1.378 . S
C350 C345 1.350 . S
C351 H338 0.929 . S
C351 C343 1.433 . S
C351 N353 1.384 . S
N352 C348 1.427 . S
N352 C349 1.384 . S
N353 C345 1.427 . S
N353 C351 1.384 . S
H354 C360 0.930 . S
H355 C364 0.930 . S
H356 C369 0.929 . S
H357 C367 0.929 . S
H358 C362 0.929 . S
H359 C368 0.929 . S
C360 H354 0.930 . S
C360 C361 1.367 . S
C360 C368 1.378 . S
C361 C360 1.367 . S
C361 C369 1.433 . S
C362 H358 0.929 . S
C362 C364 1.378 . S
C362 C366 1.350 . S
C363 C366 1.463 . S
C363 C368 1.350 . S
C363 N371 1.427 . S
C364 H355 0.930 . S
C364 C362 1.378 . S
C364 C365 1.367 . S
C365 C364 1.367 . S
C365 C367 1.433 . S
C366 C362 1.350 . S
C366 C363 1.463 . S
C366 N370 1.427 . S
C367 H357 0.929 . S
C367 C365 1.433 . S
C367 N370 1.384 . S
C368 H359 0.929 . S
C368 C360 1.378 . S
C368 C363 1.350 . S
C369 H356 0.929 . S
C369 C361 1.433 . S
C369 N371 1.384 . S
N370 C366 1.427 . S
N370 C367 1.384 . S
N371 C363 1.427 . S
N371 C369 1.384 . S
H372 C378 0.930 . S
H373 C382 0.930 . S
H374 C387 0.929 . S
H375 C385 0.929 . S
H376 C380 0.929 . S
H377 C386 0.929 . S
C378 H372 0.930 . S
C378 C379 1.367 . S
C378 C386 1.378 . S
C379 C378 1.367 . S
C379 C387 1.433 . S
C380 H376 0.929 . S
C380 C382 1.378 . S
C380 C384 1.350 . S
C381 C384 1.463 . S
C381 C386 1.350 . S
C381 N389 1.427 . S
C382 H373 0.930 . S
C382 C380 1.378 . S
C382 C383 1.367 . S
C383 C382 1.367 . S
C383 C385 1.433 . S
C384 C380 1.350 . S
C384 C381 1.463 . S
C384 N388 1.427 . S
C385 H375 0.929 . S
C385 C383 1.433 . S
C385 N388 1.384 . S
C386 H377 0.929 . S
C386 C378 1.378 . S
C386 C381 1.350 . S
C387 H374 0.929 . S
C387 C379 1.433 . S
C387 N389 1.384 . S
N388 C384 1.427 . S
N388 C385 1.384 . S
N389 C381 1.427 . S
N389 C387 1.384 . S
H390 C396 0.930 . S
H391 C400 0.930 . S
H392 C405 0.929 . S
H393 C403 0.929 . S
H394 C398 0.929 . S
H395 C404 0.929 . S
C396 H390 0.930 . S
C396 C397 1.367 . S
C396 C404 1.378 . S
C397 C396 1.367 . S
C397 C405 1.433 . S
C398 H394 0.929 . S
C398 C400 1.378 . S
C398 C402 1.350 . S
C399 C402 1.463 . S
C399 C404 1.350 . S
C399 N407 1.427 . S
C400 H391 0.930 . S
C400 C398 1.378 . S
C400 C401 1.367 . S
C401 C400 1.367 . S
C401 C403 1.433 . S
C402 C398 1.350 . S
C402 C399 1.463 . S
C402 N406 1.427 . S
C403 H393 0.929 . S
C403 C401 1.433 . S
C403 N406 1.384 . S
C404 H395 0.929 . S
C404 C396 1.378 . S
C404 C399 1.350 . S
C405 H392 0.929 . S
C405 C397 1.433 . S
C405 N407 1.384 . S
N406 C402 1.427 . S
N406 C403 1.384 . S
N407 C399 1.427 . S
N407 C405 1.384 . S
H408 C414 0.930 . S
H409 C418 0.930 . S
H410 C423 0.929 . S
H411 C421 0.929 . S
H412 C416 0.929 . S
H413 C422 0.929 . S
C414 H408 0.930 . S
C414 C415 1.367 . S
C414 C422 1.378 . S
C415 C414 1.367 . S
C415 C423 1.433 . S
C416 H412 0.929 . S
C416 C418 1.378 . S
C416 C420 1.350 . S
C417 C420 1.463 . S
C417 C422 1.350 . S
C417 N425 1.427 . S
C418 H409 0.930 . S
C418 C416 1.378 . S
C418 C419 1.367 . S
C419 C418 1.367 . S
C419 C421 1.433 . S
C420 C416 1.350 . S
C420 C417 1.463 . S
C420 N424 1.427 . S
C421 H411 0.929 . S
C421 C419 1.433 . S
C421 N424 1.384 . S
C422 H413 0.929 . S
C422 C414 1.378 . S
C422 C417 1.350 . S
C423 H410 0.929 . S
C423 C415 1.433 . S
C423 N425 1.384 . S
N424 C420 1.427 . S
N424 C421 1.384 . S
N425 C417 1.427 . S
N425 C423 1.384 . S
H426 C432 0.930 . S
H427 C436 0.930 . S
H428 C441 0.929 . S
H429 C439 0.929 . S
H430 C434 0.929 . S
H431 C440 0.929 . S
C432 H426 0.930 . S
C432 C433 1.367 . S
C432 C440 1.378 . S
C433 C432 1.367 . S
C433 C441 1.433 . S
C434 H430 0.929 . S
C434 C436 1.378 . S
C434 C438 1.350 . S
C435 C438 1.463 . S
C435 C440 1.350 . S
C435 N443 1.427 . S
C436 H427 0.930 . S
C436 C434 1.378 . S
C436 C437 1.367 . S
C437 C436 1.367 . S
C437 C439 1.433 . S
C438 C434 1.350 . S
C438 C435 1.463 . S
C438 N442 1.427 . S
C439 H429 0.929 . S
C439 C437 1.433 . S
C439 N442 1.384 . S
C440 H431 0.929 . S
C440 C432 1.378 . S
C440 C435 1.350 . S
C441 H428 0.929 . S
C441 C433 1.433 . S
C441 N443 1.384 . S
N442 C438 1.427 . S
N442 C439 1.384 . S
N443 C435 1.427 . S
N443 C441 1.384 . S
H444 C450 0.930 . S
H445 C454 0.930 . S
H446 C459 0.929 . S
H447 C457 0.929 . S
H448 C452 0.929 . S
H449 C458 0.929 . S
C450 H444 0.930 . S
C450 C451 1.367 . S
C450 C458 1.378 . S
C451 C450 1.367 . S
C451 C459 1.433 . S
C452 H448 0.929 . S
C452 C454 1.378 . S
C452 C456 1.350 . S
C453 C456 1.463 . S
C453 C458 1.350 . S
C453 N461 1.427 . S
C454 H445 0.930 . S
C454 C452 1.378 . S
C454 C455 1.367 . S
C455 C454 1.367 . S
C455 C457 1.433 . S
C456 C452 1.350 . S
C456 C453 1.463 . S
C456 N460 1.427 . S
C457 H447 0.929 . S
C457 C455 1.433 . S
C457 N460 1.384 . S
C458 H449 0.929 . S
C458 C450 1.378 . S
C458 C453 1.350 . S
C459 H446 0.929 . S
C459 C451 1.433 . S
C459 N461 1.384 . S
N460 C456 1.427 . S
N460 C457 1.384 . S
N461 C453 1.427 . S
N461 C459 1.384 . S
H462 C468 0.930 . S
H463 C472 0.930 . S
H464 C477 0.929 . S
H465 C475 0.929 . S
H466 C470 0.929 . S
H467 C476 0.929 . S
C468 H462 0.930 . S
C468 C469 1.367 . S
C468 C476 1.378 . S
C469 C468 1.367 . S
C469 C477 1.433 . S
C470 H466 0.929 . S
C470 C472 1.378 . S
C470 C474 1.350 . S
C471 C474 1.463 . S
C471 C476 1.350 . S
C471 N479 1.427 . S
C472 H463 0.930 . S
C472 C470 1.378 . S
C472 C473 1.367 . S
C473 C472 1.367 . S
C473 C475 1.433 . S
C474 C470 1.350 . S
C474 C471 1.463 . S
C474 N478 1.427 . S
C475 H465 0.929 . S
C475 C473 1.433 . S
C475 N478 1.384 . S
C476 H467 0.929 . S
C476 C468 1.378 . S
C476 C471 1.350 . S
C477 H464 0.929 . S
C477 C469 1.433 . S
C477 N479 1.384 . S
N478 C474 1.427 . S
N478 C475 1.384 . S
N479 C471 1.427 . S
N479 C477 1.384 . S
H480 C486 0.930 . S
H481 C490 0.930 . S
H482 C495 0.929 . S
H483 C493 0.929 . S
H484 C488 0.929 . S
H485 C494 0.929 . S
C486 H480 0.930 . S
C486 C487 1.367 . S
C486 C494 1.378 . S
C487 C486 1.367 . S
C487 C495 1.433 . S
C488 H484 0.929 . S
C488 C490 1.378 . S
C488 C492 1.350 . S
C489 C492 1.463 . S
C489 C494 1.350 . S
C489 N497 1.427 . S
C490 H481 0.930 . S
C490 C488 1.378 . S
C490 C491 1.367 . S
C491 C490 1.367 . S
C491 C493 1.433 . S
C492 C488 1.350 . S
C492 C489 1.463 . S
C492 N496 1.427 . S
C493 H483 0.929 . S
C493 C491 1.433 . S
C493 N496 1.384 . S
C494 H485 0.929 . S
C494 C486 1.378 . S
C494 C489 1.350 . S
C495 H482 0.929 . S
C495 C487 1.433 . S
C495 N497 1.384 . S
N496 C492 1.427 . S
N496 C493 1.384 . S
N497 C489 1.427 . S
N497 C495 1.384 . S
H498 C504 0.930 . S
H499 C508 0.930 . S
H500 C513 0.929 . S
H501 C511 0.929 . S
H502 C506 0.929 . S
H503 C512 0.929 . S
C504 H498 0.930 . S
C504 C505 1.367 . S
C504 C512 1.378 . S
C505 C504 1.367 . S
C505 C513 1.433 . S
C506 H502 0.929 . S
C506 C508 1.378 . S
C506 C510 1.350 . S
C507 C510 1.463 . S
C507 C512 1.350 . S
C507 N515 1.427 . S
C508 H499 0.930 . S
C508 C506 1.378 . S
C508 C509 1.367 . S
C509 C508 1.367 . S
C509 C511 1.433 . S
C510 C506 1.350 . S
C510 C507 1.463 . S
C510 N514 1.427 . S
C511 H501 0.929 . S
C511 C509 1.433 . S
C511 N514 1.384 . S
C512 H503 0.929 . S
C512 C504 1.378 . S
C512 C507 1.350 . S
C513 H500 0.929 . S
C513 C505 1.433 . S
C513 N515 1.384 . S
N514 C510 1.427 . S
N514 C511 1.384 . S
N515 C507 1.427 . S
N515 C513 1.384 . S
H516 C522 0.930 . S
H517 C526 0.930 . S
H518 C531 0.929 . S
H519 C529 0.929 . S
H520 C524 0.929 . S
H521 C530 0.929 . S
C522 H516 0.930 . S
C522 C523 1.367 . S
C522 C530 1.378 . S
C523 C522 1.367 . S
C523 C531 1.433 . S
C524 H520 0.929 . S
C524 C526 1.378 . S
C524 C528 1.350 . S
C525 C528 1.463 . S
C525 C530 1.350 . S
C525 N533 1.427 . S
C526 H517 0.930 . S
C526 C524 1.378 . S
C526 C527 1.367 . S
C527 C526 1.367 . S
C527 C529 1.433 . S
C528 C524 1.350 . S
C528 C525 1.463 . S
C528 N532 1.427 . S
C529 H519 0.929 . S
C529 C527 1.433 . S
C529 N532 1.384 . S
C530 H521 0.929 . S
C530 C522 1.378 . S
C530 C525 1.350 . S
C531 H518 0.929 . S
C531 C523 1.433 . S
C531 N533 1.384 . S
N532 C528 1.427 . S
N532 C529 1.384 . S
N533 C525 1.427 . S
N533 C531 1.384 . S
H534 C540 0.930 . S
H535 C544 0.930 . S
H536 C549 0.929 . S
H537 C547 0.929 . S
H538 C542 0.929 . S
H539 C548 0.929 . S
C540 H534 0.930 . S
C540 C541 1.367 . S
C540 C548 1.378 . S
C541 C540 1.367 . S
C541 C549 1.433 . S
C542 H538 0.929 . S
C542 C544 1.378 . S
C542 C546 1.350 . S
C543 C546 1.463 . S
C543 C548 1.350 . S
C543 N551 1.427 . S
C544 H535 0.930 . S
C544 C542 1.378 . S
C544 C545 1.367 . S
C545 C544 1.367 . S
C545 C547 1.433 . S
C546 C542 1.350 . S
C546 C543 1.463 . S
C546 N550 1.427 . S
C547 H537 0.929 . S
C547 C545 1.433 . S
C547 N550 1.384 . S
C548 H539 0.929 . S
C548 C540 1.378 . S
C548 C543 1.350 . S
C549 H536 0.929 . S
C549 C541 1.433 . S
C549 N551 1.384 . S
N550 C546 1.427 . S
N550 C547 1.384 . S
N551 C543 1.427 . S
N551 C549 1.384 . S
H552 C558 0.930 . S
H553 C562 0.930 . S
H554 C567 0.929 . S
H555 C565 0.929 . S
H556 C560 0.929 . S
H557 C566 0.929 . S
C558 H552 0.930 . S
C558 C559 1.367 . S
C558 C566 1.378 . S
C559 C558 1.367 . S
C559 C567 1.433 . S
C560 H556 0.929 . S
C560 C562 1.378 . S
C560 C564 1.350 . S
C561 C564 1.463 . S
C561 C566 1.350 . S
C561 N569 1.427 . S
C562 H553 0.930 . S
C562 C560 1.378 . S
C562 C563 1.367 . S
C563 C562 1.367 . S
C563 C565 1.433 . S
C564 C560 1.350 . S
C564 C561 1.463 . S
C564 N568 1.427 . S
C565 H555 0.929 . S
C565 C563 1.433 . S
C565 N568 1.384 . S
C566 H557 0.929 . S
C566 C558 1.378 . S
C566 C561 1.350 . S
C567 H554 0.929 . S
C567 C559 1.433 . S
C567 N569 1.384 . S
N568 C564 1.427 . S
N568 C565 1.384 . S
N569 C561 1.427 . S
N569 C567 1.384 . S
H570 C576 0.930 . S
H571 C580 0.930 . S
H572 C585 0.929 . S
H573 C583 0.929 1_565 S
H574 C578 0.929 . S
H575 C584 0.929 . S
C576 H570 0.930 . S
C576 C577 1.367 1_565 S
C576 C584 1.378 . S
C577 C576 1.367 1_545 S
C577 C585 1.433 . S
C578 H574 0.929 . S
C578 C580 1.378 . S
C578 C582 1.350 . S
C579 C582 1.463 . S
C579 C584 1.350 1_545 S
C579 N587 1.427 . S
C580 H571 0.930 . S
C580 C578 1.378 . S
C580 C581 1.367 . S
C581 C580 1.367 . S
C581 C583 1.433 . S
C582 C578 1.350 . S
C582 C579 1.463 . S
C582 N586 1.427 . S
C583 H573 0.929 1_545 S
C583 C581 1.433 . S
C583 N586 1.384 . S
C584 H575 0.929 . S
C584 C576 1.378 . S
C584 C579 1.350 1_565 S
C585 H572 0.929 . S
C585 C577 1.433 . S
C585 N587 1.384 . S
N586 C582 1.427 . S
N586 C583 1.384 . S
N587 C579 1.427 . S
N587 C585 1.384 . S
H588 C594 0.930 . S
H589 C598 0.930 . S
H590 C603 0.929 . S
H591 C601 0.929 . S
H592 C596 0.929 . S
H593 C602 0.929 . S
C594 H588 0.930 . S
C594 C595 1.367 . S
C594 C602 1.378 . S
C595 C594 1.367 . S
C595 C603 1.433 . S
C596 H592 0.929 . S
C596 C598 1.378 . S
C596 C600 1.350 . S
C597 C600 1.463 . S
C597 C602 1.350 . S
C597 N605 1.427 . S
C598 H589 0.930 . S
C598 C596 1.378 . S
C598 C599 1.367 . S
C599 C598 1.367 . S
C599 C601 1.433 . S
C600 C596 1.350 . S
C600 C597 1.463 . S
C600 N604 1.427 . S
C601 H591 0.929 . S
C601 C599 1.433 . S
C601 N604 1.384 . S
C602 H593 0.929 . S
C602 C594 1.378 . S
C602 C597 1.350 . S
C603 H590 0.929 . S
C603 C595 1.433 . S
C603 N605 1.384 . S
N604 C600 1.427 . S
N604 C601 1.384 . S
N605 C597 1.427 . S
N605 C603 1.384 . S
H606 C612 0.930 . S
H607 C616 0.930 . S
H608 C621 0.929 . S
H609 C619 0.929 . S
H610 C614 0.929 . S
H611 C620 0.929 . S
C612 H606 0.930 . S
C612 C613 1.367 1_565 S
C612 C620 1.378 . S
C613 C612 1.367 1_545 S
C613 C621 1.433 . S
C614 H610 0.929 . S
C614 C616 1.378 . S
C614 C618 1.350 . S
C615 C618 1.463 . S
C615 C620 1.350 1_545 S
C615 N623 1.427 . S
C616 H607 0.930 . S
C616 C614 1.378 . S
C616 C617 1.367 . S
C617 C616 1.367 . S
C617 C619 1.433 1_545 S
C618 C614 1.350 . S
C618 C615 1.463 . S
C618 N622 1.427 1_545 S
C619 H609 0.929 . S
C619 C617 1.433 1_565 S
C619 N622 1.384 . S
C620 H611 0.929 . S
C620 C612 1.378 . S
C620 C615 1.350 1_565 S
C621 H608 0.929 . S
C621 C613 1.433 . S
C621 N623 1.384 . S
N622 C618 1.427 1_565 S
N622 C619 1.384 . S
N623 C615 1.427 . S
N623 C621 1.384 . S
H624 C630 0.930 . S
H625 C634 0.930 . S
H626 C639 0.929 . S
H627 C637 0.929 . S
H628 C632 0.929 . S
H629 C638 0.929 . S
C630 H624 0.930 . S
C630 C631 1.367 . S
C630 C638 1.378 . S
C631 C630 1.367 . S
C631 C639 1.433 . S
C632 H628 0.929 . S
C632 C634 1.378 . S
C632 C636 1.350 . S
C633 C636 1.463 . S
C633 C638 1.350 . S
C633 N641 1.427 . S
C634 H625 0.930 . S
C634 C632 1.378 . S
C634 C635 1.367 . S
C635 C634 1.367 . S
C635 C637 1.433 . S
C636 C632 1.350 . S
C636 C633 1.463 . S
C636 N640 1.427 . S
C637 H627 0.929 . S
C637 C635 1.433 . S
C637 N640 1.384 . S
C638 H629 0.929 . S
C638 C630 1.378 . S
C638 C633 1.350 . S
C639 H626 0.929 . S
C639 C631 1.433 . S
C639 N641 1.384 . S
N640 C636 1.427 . S
N640 C637 1.384 . S
N641 C633 1.427 . S
N641 C639 1.384 . S
H642 C648 0.930 . S
H643 C652 0.930 . S
H644 C657 0.929 . S
H645 C655 0.929 . S
H646 C650 0.929 . S
H647 C656 0.929 . S
C648 H642 0.930 . S
C648 C649 1.367 . S
C648 C656 1.378 . S
C649 C648 1.367 . S
C649 C657 1.433 . S
C650 H646 0.929 . S
C650 C652 1.378 . S
C650 C654 1.350 . S
C651 C654 1.463 . S
C651 C656 1.350 . S
C651 N659 1.427 . S
C652 H643 0.930 . S
C652 C650 1.378 . S
C652 C653 1.367 . S
C653 C652 1.367 . S
C653 C655 1.433 . S
C654 C650 1.350 . S
C654 C651 1.463 . S
C654 N658 1.427 . S
C655 H645 0.929 . S
C655 C653 1.433 . S
C655 N658 1.384 . S
C656 H647 0.929 . S
C656 C648 1.378 . S
C656 C651 1.350 . S
C657 H644 0.929 . S
C657 C649 1.433 . S
C657 N659 1.384 . S
N658 C654 1.427 . S
N658 C655 1.384 . S
N659 C651 1.427 . S
N659 C657 1.384 . S
C343 C10 3.123 . S
C347 C325 3.041 . S
C361 C55 1.209 . S
C365 C253 1.221 . S
C379 C90 1.917 . S
C383 C289 1.867 . S
C397 C19 2.999 . S
C401 C301 2.985 . S
C419 C229 1.313 . S
C415 C46 1.303 . S
C437 C265 2.044 . S
C433 C99 2.082 . S
C451 C50 1.920 . S
C455 C181 1.858 . S
C469 C95 0.599 . S
C473 C193 0.595 . S
C487 C6 1.325 . S
C491 C121 1.329 . S
C509 C157 2.006 . S
C505 C59 2.048 . S
C527 C217 0.349 . S
C523 C86 0.428 . S
C541 C15 1.257 . S
C545 C145 1.261 . S
C563 C223 1.107 1_554 S
C559 C18 1.090 . S
C577 C49 1.454 . S
C581 C151 1.490 . S
C595 C98 1.330 . S
C599 C187 1.367 . S
C617 C295 1.374 . S
C613 C58 1.334 . S
C635 C331 1.777 1_556 S
C631 C89 1.703 . S
C649 C9 1.448 . S
C653 C259 1.505 . S
