# Generated by pormake.
# Topology pto, (3,4)-cn, num edge types: 1
# Building blocks:
#     Node 0, Type 0, BuildingBlock: MIDCAF_clean_linker_0, # of connection points: 3
#     Node 1, Type 0, BuildingBlock: MIDCAF_clean_linker_0, # of connection points: 3
#     Node 2, Type 0, BuildingBlock: MIDCAF_clean_linker_0, # of connection points: 3
#     Node 3, Type 0, BuildingBlock: MIDCAF_clean_linker_0, # of connection points: 3
#     Node 4, Type 0, BuildingBlock: MIDCAF_clean_linker_0, # of connection points: 3
#     Node 5, Type 0, BuildingBlock: MIDCAF_clean_linker_0, # of connection points: 3
#     Node 6, Type 0, BuildingBlock: MIDCAF_clean_linker_0, # of connection points: 3
#     Node 7, Type 0, BuildingBlock: MIDCAF_clean_linker_0, # of connection points: 3
#     Node 8, Type 1, BuildingBlock: KOZSID_clean_sbu_0, # of connection points: 4
#     Node 9, Type 1, BuildingBlock: KOZSID_clean_sbu_0, # of connection points: 4
#     Node 10, Type 1, BuildingBlock: KOZSID_clean_sbu_0, # of connection points: 4
#     Node 11, Type 1, BuildingBlock: KOZSID_clean_sbu_0, # of connection points: 4
#     Node 12, Type 1, BuildingBlock: KOZSID_clean_sbu_0, # of connection points: 4
#     Node 13, Type 1, BuildingBlock: KOZSID_clean_sbu_0, # of connection points: 4
#     Edge 14, Type (0, 1), BuildingBlock: TEMPAE_clean_linker_10, # of connection points: 2
#     Edge 15, Type (0, 1), BuildingBlock: TEMPAE_clean_linker_10, # of connection points: 2
#     Edge 16, Type (0, 1), BuildingBlock: TEMPAE_clean_linker_10, # of connection points: 2
#     Edge 17, Type (0, 1), BuildingBlock: TEMPAE_clean_linker_10, # of connection points: 2
#     Edge 18, Type (0, 1), BuildingBlock: TEMPAE_clean_linker_10, # of connection points: 2
#     Edge 19, Type (0, 1), BuildingBlock: TEMPAE_clean_linker_10, # of connection points: 2
#     Edge 20, Type (0, 1), BuildingBlock: TEMPAE_clean_linker_10, # of connection points: 2
#     Edge 21, Type (0, 1), BuildingBlock: TEMPAE_clean_linker_10, # of connection points: 2
#     Edge 22, Type (0, 1), BuildingBlock: TEMPAE_clean_linker_10, # of connection points: 2
#     Edge 23, Type (0, 1), BuildingBlock: TEMPAE_clean_linker_10, # of connection points: 2
#     Edge 24, Type (0, 1), BuildingBlock: TEMPAE_clean_linker_10, # of connection points: 2
#     Edge 25, Type (0, 1), BuildingBlock: TEMPAE_clean_linker_10, # of connection points: 2
#     Edge 26, Type (0, 1), BuildingBlock: TEMPAE_clean_linker_10, # of connection points: 2
#     Edge 27, Type (0, 1), BuildingBlock: TEMPAE_clean_linker_10, # of connection points: 2
#     Edge 28, Type (0, 1), BuildingBlock: TEMPAE_clean_linker_10, # of connection points: 2
#     Edge 29, Type (0, 1), BuildingBlock: TEMPAE_clean_linker_10, # of connection points: 2
#     Edge 30, Type (0, 1), BuildingBlock: TEMPAE_clean_linker_10, # of connection points: 2
#     Edge 31, Type (0, 1), BuildingBlock: TEMPAE_clean_linker_10, # of connection points: 2
#     Edge 32, Type (0, 1), BuildingBlock: TEMPAE_clean_linker_10, # of connection points: 2
#     Edge 33, Type (0, 1), BuildingBlock: TEMPAE_clean_linker_10, # of connection points: 2
#     Edge 34, Type (0, 1), BuildingBlock: TEMPAE_clean_linker_10, # of connection points: 2
#     Edge 35, Type (0, 1), BuildingBlock: TEMPAE_clean_linker_10, # of connection points: 2
#     Edge 36, Type (0, 1), BuildingBlock: TEMPAE_clean_linker_10, # of connection points: 2
#     Edge 37, Type (0, 1), BuildingBlock: TEMPAE_clean_linker_10, # of connection points: 2
# Relax obj value: 0.000
# Max RMSD: 0.022
# Mean RMSD: 0.009
data_MOF--net-pto--node1-KOZSID_clean_sbu_0--node2-MIDCAF_clean_linker_0--edge1-TEMPAE_clean_linker_10
_symmetry_space_group_name_H-M    P1
_symmetry_Int_Tables_number       1
_symmetry_cell_setting            triclinic
loop_
_symmetry_equiv_pos_as_xyz
'x, y, z'
_cell_length_a     46.951959
_cell_length_b     63.469876
_cell_length_c     55.327515
_cell_angle_alpha  87.566459
_cell_angle_beta   87.498836
_cell_angle_gamma 92.784801
loop_
_atom_site_label
_atom_site_type_symbol
_atom_site_fract_x
_atom_site_fract_y
_atom_site_fract_z
_atom_type_partial_charge
C0 C 0.34178 0.24879 0.24823 0.0
C1 C 0.34379 0.26584 0.23108 0.0
C2 C 0.32805 0.28368 0.23553 0.0
C3 C 0.31031 0.28428 0.25643 0.0
H4 H 0.26965 0.32527 0.30573 0.0
H5 H 0.24256 0.35656 0.31269 0.0
H6 H 0.17497 0.31752 0.34954 0.0
H7 H 0.20221 0.28615 0.34304 0.0
H8 H 0.22444 0.24036 0.36628 0.0
H9 H 0.21753 0.20801 0.39186 0.0
H10 H 0.28715 0.18092 0.35244 0.0
H11 H 0.29437 0.21309 0.32714 0.0
H12 H 0.32289 0.23583 0.28175 0.0
H13 H 0.354 0.23497 0.24555 0.0
H14 H 0.32891 0.29699 0.22257 0.0
H15 H 0.29816 0.29814 0.25906 0.0
N16 N 0.27325 0.28447 0.29978 0.0
N17 N 0.24967 0.26637 0.33339 0.0
N18 N 0.28341 0.24947 0.30959 0.0
C19 C 0.25413 0.28424 0.31897 0.0
C20 C 0.26443 0.24893 0.32887 0.0
C21 C 0.28791 0.2671 0.2949 0.0
C22 C 0.23804 0.30322 0.32381 0.0
C23 C 0.24906 0.32334 0.3154 0.0
C24 C 0.23368 0.34126 0.31948 0.0
C25 C 0.20674 0.33937 0.33161 0.0
C26 C 0.19568 0.31932 0.34005 0.0
C27 C 0.21132 0.30143 0.33642 0.0
C28 C 0.25998 0.22941 0.34461 0.0
C29 C 0.23833 0.22754 0.3631 0.0
C30 C 0.23425 0.20897 0.37768 0.0
C31 C 0.25186 0.19195 0.37421 0.0
C32 C 0.27349 0.19385 0.35579 0.0
C33 C 0.27748 0.21231 0.34116 0.0
C34 C 0.30785 0.26703 0.27335 0.0
C35 C 0.32402 0.24936 0.26908 0.0
C36 C 0.20697 0.69369 0.73468 0.0
C37 C 0.18822 0.69228 0.71565 0.0
C38 C 0.18654 0.70976 0.6994 0.0
C39 C 0.2032 0.72828 0.70218 0.0
H40 H 0.20521 0.79897 0.69417 0.0
H41 H 0.19996 0.83095 0.66924 0.0
H42 H 0.29158 0.84328 0.66717 0.0
H43 H 0.29622 0.81222 0.69372 0.0
H44 H 0.30772 0.80185 0.75913 0.0
H45 H 0.33813 0.80347 0.79362 0.0
H46 H 0.32032 0.7368 0.80964 0.0
H47 H 0.2894 0.7352 0.77558 0.0
H48 H 0.23794 0.7126 0.75229 0.0
H49 H 0.20898 0.6804 0.74732 0.0
H50 H 0.17207 0.7092 0.68469 0.0
H51 H 0.20131 0.74145 0.68935 0.0
N52 N 0.2373 0.76663 0.70939 0.0
N53 N 0.27336 0.78479 0.72948 0.0
N54 N 0.2592 0.74994 0.74176 0.0
C55 C 0.25406 0.78439 0.7119 0.0
C56 C 0.27593 0.76764 0.7446 0.0
C57 C 0.23992 0.74925 0.72417 0.0
C58 C 0.25109 0.80324 0.6959 0.0
C59 C 0.22415 0.80861 0.68835 0.0
C60 C 0.22123 0.8269 0.67388 0.0
C61 C 0.24532 0.83991 0.66603 0.0
C62 C 0.27238 0.83411 0.67327 0.0
C63 C 0.27515 0.81618 0.68833 0.0
C64 C 0.29591 0.76842 0.76461 0.0
C65 C 0.31037 0.78749 0.7699 0.0
C66 C 0.32793 0.78842 0.78964 0.0
C67 C 0.33151 0.77029 0.80447 0.0
C68 C 0.3176 0.75114 0.79884 0.0
C69 C 0.29998 0.75021 0.77918 0.0
C70 C 0.222 0.7297 0.72123 0.0
C71 C 0.22368 0.71216 0.73743 0.0
C72 C 0.70608 0.74683 0.23945 0.0
C73 C 0.69736 0.76654 0.23087 0.0
C74 C 0.70485 0.78461 0.24349 0.0
C75 C 0.72056 0.78297 0.26432 0.0
H76 H 0.76031 0.81818 0.31565 0.0
H77 H 0.76896 0.84899 0.33966 0.0
H78 H 0.79122 0.80848 0.39985 0.0
H79 H 0.78265 0.77754 0.37591 0.0
H80 H 0.79268 0.72853 0.36606 0.0
H81 H 0.81393 0.69526 0.37657 0.0
H82 H 0.79603 0.67291 0.30583 0.0
H83 H 0.77396 0.70568 0.29567 0.0
H84 H 0.72797 0.7297 0.26634 0.0
H85 H 0.7003 0.73256 0.23037 0.0
H86 H 0.69876 0.80006 0.23716 0.0
H87 H 0.72594 0.79722 0.27358 0.0
N88 N 0.75057 0.77838 0.30875 0.0
N89 N 0.77484 0.75757 0.33637 0.0
N90 N 0.75543 0.74246 0.30244 0.0
C91 C 0.76519 0.77663 0.32935 0.0
C92 C 0.77011 0.74041 0.32293 0.0
C93 C 0.74549 0.76134 0.29524 0.0
C94 C 0.77071 0.79535 0.34386 0.0
C95 C 0.76705 0.81578 0.33399 0.0
C96 C 0.77218 0.83346 0.34766 0.0
C97 C 0.78077 0.83109 0.37157 0.0
C98 C 0.78444 0.81072 0.38149 0.0
C99 C 0.77965 0.79303 0.36773 0.0
C100 C 0.78172 0.71985 0.32997 0.0
C101 C 0.79307 0.71644 0.35283 0.0
C102 C 0.80535 0.69738 0.35883 0.0
C103 C 0.8068 0.68139 0.34204 0.0
C104 C 0.79487 0.68468 0.31939 0.0
C105 C 0.78237 0.70361 0.31349 0.0
C106 C 0.72918 0.76323 0.27296 0.0
C107 C 0.72184 0.74519 0.26021 0.0
C108 C 0.80655 0.21358 0.6877 0.0
C109 C 0.78541 0.19718 0.68766 0.0
C110 C 0.76056 0.19815 0.70255 0.0
C111 C 0.75702 0.21517 0.71742 0.0
H112 H 0.73616 0.22811 0.79407 0.0
H113 H 0.70559 0.22478 0.8309 0.0
H114 H 0.69404 0.29202 0.82616 0.0
H115 H 0.72585 0.2954 0.79022 0.0
H116 H 0.80528 0.31314 0.77418 0.0
H117 H 0.83391 0.3457 0.76549 0.0
H118 H 0.83113 0.33553 0.68874 0.0
H119 H 0.8041 0.30217 0.69776 0.0
H120 H 0.81946 0.24323 0.70184 0.0
H121 H 0.82582 0.21319 0.67625 0.0
H122 H 0.74403 0.18561 0.70289 0.0
H123 H 0.73768 0.21545 0.72879 0.0
N124 N 0.75631 0.24776 0.75299 0.0
N125 N 0.76797 0.2828 0.76208 0.0
N126 N 0.78905 0.26846 0.72768 0.0
C127 C 0.753 0.26424 0.76757 0.0
C128 C 0.78598 0.28501 0.74218 0.0
C129 C 0.77429 0.24977 0.73301 0.0
C130 C 0.73353 0.26203 0.78934 0.0
C131 C 0.72704 0.24215 0.80094 0.0
C132 C 0.70936 0.24025 0.822 0.0
C133 C 0.69732 0.25814 0.83168 0.0
C134 C 0.70342 0.27795 0.81967 0.0
C135 C 0.72153 0.27989 0.79892 0.0
C136 C 0.80253 0.30513 0.73665 0.0
C137 C 0.81079 0.31791 0.75546 0.0
C138 C 0.82706 0.3367 0.75041 0.0
C139 C 0.83484 0.34347 0.72635 0.0
C140 C 0.82611 0.33073 0.70751 0.0
C141 C 0.81043 0.31165 0.71263 0.0
C142 C 0.77806 0.23171 0.71734 0.0
C143 C 0.8028 0.23079 0.70224 0.0
C144 C 0.69103 0.78524 0.80505 0.0
C145 C 0.68846 0.76754 0.82129 0.0
C146 C 0.70363 0.74964 0.81586 0.0
C147 C 0.72129 0.74957 0.79485 0.0
H148 H 0.76263 0.70952 0.74586 0.0
H149 H 0.78963 0.67854 0.73698 0.0
H150 H 0.85269 0.71819 0.69525 0.0
H151 H 0.82573 0.74916 0.70379 0.0
H152 H 0.80131 0.79305 0.68202 0.0
H153 H 0.8096 0.82554 0.65722 0.0
H154 H 0.75516 0.8579 0.70682 0.0
H155 H 0.74628 0.82535 0.7314 0.0
H156 H 0.71027 0.79919 0.77212 0.0
H157 H 0.67926 0.79914 0.80848 0.0
H158 H 0.70234 0.73583 0.82811 0.0
H159 H 0.73294 0.7356 0.79143 0.0
N160 N 0.75771 0.75023 0.7511 0.0
N161 N 0.7813 0.76901 0.71804 0.0
N162 N 0.74898 0.78587 0.7432 0.0
C163 C 0.77643 0.75075 0.73161 0.0
C164 C 0.76758 0.78663 0.72365 0.0
C165 C 0.74392 0.76777 0.75704 0.0
C166 C 0.79208 0.73182 0.7256 0.0
C167 C 0.78218 0.71163 0.7347 0.0
C168 C 0.79749 0.69389 0.72951 0.0
C169 C 0.8232 0.69605 0.71548 0.0
C170 C 0.83298 0.71616 0.70621 0.0
C171 C 0.81746 0.73384 0.71105 0.0
C172 C 0.77303 0.8065 0.70872 0.0
C173 C 0.79109 0.80707 0.6877 0.0
C174 C 0.79601 0.82575 0.67353 0.0
C175 C 0.78305 0.84431 0.68004 0.0
C176 C 0.76517 0.8438 0.70113 0.0
C177 C 0.76019 0.82512 0.71529 0.0
C178 C 0.72425 0.76742 0.77881 0.0
C179 C 0.70873 0.7852 0.7841 0.0
C180 C 0.80708 0.20761 0.38024 0.0
C181 C 0.79139 0.18902 0.37517 0.0
C182 C 0.77458 0.18906 0.35476 0.0
C183 C 0.77344 0.20726 0.3398 0.0
H184 H 0.73906 0.22922 0.27818 0.0
H185 H 0.70792 0.22877 0.24419 0.0
H186 H 0.72416 0.29594 0.23151 0.0
H187 H 0.7553 0.29657 0.26572 0.0
H188 H 0.8015 0.32043 0.29762 0.0
H189 H 0.83197 0.35143 0.30501 0.0
H190 H 0.87785 0.31452 0.3564 0.0
H191 H 0.8469 0.28372 0.34961 0.0
H192 H 0.81829 0.23987 0.3698 0.0
H193 H 0.81995 0.20819 0.396 0.0
H194 H 0.76255 0.17491 0.35015 0.0
H195 H 0.76031 0.20664 0.32421 0.0
N196 N 0.77033 0.24548 0.31008 0.0
N197 N 0.78539 0.28061 0.2998 0.0
N198 N 0.80431 0.26279 0.33299 0.0
C199 C 0.7689 0.26309 0.29543 0.0
C200 C 0.80322 0.28056 0.31853 0.0
C201 C 0.78788 0.2452 0.32894 0.0
C202 C 0.74978 0.26295 0.27475 0.0
C203 C 0.73604 0.24395 0.26824 0.0
C204 C 0.71829 0.24363 0.24864 0.0
C205 C 0.71367 0.2623 0.23514 0.0
C206 C 0.72716 0.28133 0.2417 0.0
C207 C 0.74513 0.28165 0.26123 0.0
C208 C 0.82167 0.29953 0.32301 0.0
C209 C 0.81805 0.31891 0.31052 0.0
C210 C 0.83566 0.33668 0.31466 0.0
C211 C 0.85745 0.33549 0.33127 0.0
C212 C 0.86103 0.31611 0.34376 0.0
C213 C 0.84332 0.29839 0.33975 0.0
C214 C 0.78914 0.22588 0.34485 0.0
C215 C 0.80599 0.22582 0.36526 0.0
C216 C 0.25464 0.18747 0.70334 0.0
C217 C 0.24283 0.19005 0.68057 0.0
C218 C 0.23478 0.21017 0.67281 0.0
C219 C 0.2386 0.22739 0.68744 0.0
H220 H 0.19997 0.28366 0.70733 0.0
H221 H 0.17433 0.31556 0.7004 0.0
H222 H 0.23712 0.35094 0.73934 0.0
H223 H 0.26204 0.31877 0.74721 0.0
H224 H 0.29952 0.29213 0.78332 0.0
H225 H 0.32982 0.29027 0.81788 0.0
H226 H 0.3301 0.22251 0.81374 0.0
H227 H 0.29959 0.22423 0.77915 0.0
H228 H 0.2682 0.20227 0.73524 0.0
H229 H 0.26121 0.17215 0.70969 0.0
H230 H 0.22542 0.21256 0.65541 0.0
H231 H 0.23227 0.24268 0.6808 0.0
N232 N 0.24293 0.26173 0.71999 0.0
N233 N 0.26531 0.2777 0.75205 0.0
N234 N 0.27311 0.24237 0.74417 0.0
C235 C 0.2476 0.27892 0.73334 0.0
C236 C 0.27809 0.25948 0.75765 0.0
C237 C 0.25567 0.24342 0.7252 0.0
C238 C 0.23297 0.29863 0.72795 0.0
C239 C 0.2084 0.29826 0.71432 0.0
C240 C 0.19376 0.31663 0.71022 0.0
C241 C 0.20357 0.33591 0.71932 0.0
C242 C 0.22859 0.33633 0.73245 0.0
C243 C 0.24299 0.31789 0.73686 0.0
C244 C 0.29703 0.25832 0.77841 0.0
C245 C 0.306 0.2768 0.7897 0.0
C246 C 0.32352 0.27577 0.80944 0.0
C247 C 0.33233 0.25625 0.81849 0.0
C248 C 0.32344 0.23777 0.80725 0.0
C249 C 0.30609 0.23879 0.78735 0.0
C250 C 0.25087 0.22494 0.71008 0.0
C251 C 0.25879 0.20476 0.71789 0.0
C252 C 0.23938 0.67244 0.31681 0.0
C253 C 0.21825 0.66967 0.33559 0.0
C254 C 0.21138 0.68713 0.34914 0.0
C255 C 0.22461 0.70707 0.34348 0.0
H256 H 0.23891 0.76896 0.36868 0.0
H257 H 0.23143 0.79983 0.39257 0.0
H258 H 0.26147 0.84058 0.33126 0.0
H259 H 0.26973 0.80989 0.30769 0.0
H260 H 0.29579 0.79052 0.26055 0.0
H261 H 0.32409 0.79525 0.22263 0.0
H262 H 0.34134 0.72892 0.22604 0.0
H263 H 0.31207 0.72404 0.2634 0.0
H264 H 0.26821 0.69394 0.29609 0.0
H265 H 0.24498 0.65936 0.30588 0.0
H266 H 0.19542 0.68544 0.36392 0.0
H267 H 0.21831 0.72023 0.35398 0.0
N268 N 0.25114 0.7485 0.32963 0.0
N269 N 0.27756 0.77075 0.30103 0.0
N270 N 0.27368 0.73434 0.29573 0.0
C271 C 0.26133 0.76822 0.32199 0.0
C272 C 0.28392 0.75391 0.28785 0.0
C273 C 0.25719 0.73145 0.31652 0.0
C274 C 0.25517 0.78687 0.3363 0.0
C275 C 0.24382 0.7845 0.36027 0.0
C276 C 0.2394 0.80223 0.37395 0.0
C277 C 0.24605 0.82272 0.36393 0.0
C278 C 0.25669 0.82505 0.33976 0.0
C279 C 0.2613 0.80738 0.32618 0.0
C280 C 0.30159 0.75688 0.265 0.0
C281 C 0.30563 0.77694 0.25321 0.0
C282 C 0.32201 0.77967 0.23149 0.0
C283 C 0.33505 0.76248 0.22118 0.0
C284 C 0.33119 0.74246 0.23315 0.0
C285 C 0.31452 0.73967 0.25469 0.0
C286 C 0.24495 0.71002 0.32406 0.0
C287 C 0.25254 0.69236 0.31109 0.0
C288 C 0.05727 0.54788 0.37233 0.0
C289 C 0.05881 0.56018 0.39253 0.0
C290 C 0.0387 0.55177 0.40946 0.0
C291 C 0.02502 0.5355 0.39838 0.0
N292 N 0.03529 0.53329 0.3756 0.0
Co293 Co 0.01567 0.5166 0.35139 0.0
N294 N 0.99635 0.49766 0.37688 0.0
C295 C 0.99188 0.50226 0.40019 0.0
C296 C 0.97728 0.48614 0.41358 0.0
C297 C 0.97208 0.47061 0.39751 0.0
C298 C 0.98373 0.47821 0.37513 0.0
N299 N 0.9956 0.50022 0.32721 0.0
C300 C 0.98307 0.48058 0.32943 0.0
C301 C 0.97068 0.47528 0.308 0.0
C302 C 0.97538 0.49244 0.2921 0.0
C303 C 0.99039 0.50719 0.30461 0.0
N304 N 0.03479 0.53565 0.32586 0.0
C305 C 0.02404 0.54006 0.30419 0.0
C306 C 0.03752 0.55741 0.29234 0.0
C307 C 0.05803 0.5642 0.30757 0.0
C308 C 0.05688 0.54996 0.32748 0.0
N309 N 0.04723 0.49785 0.34955 0.0
C310 C 0.08778 0.46697 0.34723 0.0
C311 C 0.07661 0.47561 0.32608 0.0
C312 C 0.05668 0.49116 0.32762 0.0
C313 C 0.07907 0.47499 0.36949 0.0
C314 C 0.0587 0.4903 0.37026 0.0
N315 N 0.98381 0.53538 0.35321 0.0
C316 C 0.9333 0.54066 0.35502 0.0
C317 C 0.93876 0.56254 0.35335 0.0
C318 C 0.96703 0.57057 0.35225 0.0
C319 C 0.98916 0.55678 0.35244 0.0
C320 C 0.95616 0.52732 0.35472 0.0
H321 H 0.01063 0.56356 0.35163 0.0
H322 H 0.95147 0.5105 0.35537 0.0
H323 H 0.04812 0.49728 0.31111 0.0
H324 H 0.05161 0.49565 0.38767 0.0
C325 C 0.00449 0.52073 0.40911 0.0
C326 C 0.07406 0.55179 0.34917 0.0
C327 C 0.97985 0.46774 0.35222 0.0
C328 C 0.00298 0.52648 0.29507 0.0
H329 H 0.07214 0.5743 0.39465 0.0
H330 H 0.03443 0.55703 0.42756 0.0
H331 H 0.97155 0.48555 0.43276 0.0
H332 H 0.96047 0.45566 0.40167 0.0
H333 H 0.95891 0.46074 0.30441 0.0
H334 H 0.9691 0.49379 0.27353 0.0
H335 H 0.03283 0.56445 0.27489 0.0
H336 H 0.07139 0.57852 0.30463 0.0
H337 H 0.08234 0.46991 0.30845 0.0
H338 H 0.08756 0.46931 0.3863 0.0
H339 H 0.9116 0.53394 0.3559 0.0
H340 H 0.972 0.58744 0.35125 0.0
C341 C 0.05814 0.547 0.72565 0.0
C342 C 0.06798 0.55257 0.74793 0.0
C343 C 0.05215 0.54056 0.76512 0.0
C344 C 0.03368 0.52837 0.75244 0.0
N345 N 0.03684 0.53179 0.72815 0.0
Co346 Co 0.01482 0.51713 0.70293 0.0
N347 N 0.98941 0.50135 0.72829 0.0
C348 C 0.98903 0.5039 0.75244 0.0
C349 C 0.96809 0.49178 0.76519 0.0
C350 C 0.95438 0.48069 0.74819 0.0
C351 C 0.9681 0.48652 0.72598 0.0
N352 N 0.99396 0.50145 0.67778 0.0
C353 C 0.97396 0.48525 0.68038 0.0
C354 C 0.96737 0.47732 0.65815 0.0
C355 C 0.98358 0.48901 0.64094 0.0
C356 C 0.99935 0.50315 0.65354 0.0
N357 N 0.03908 0.53395 0.67756 0.0
C358 C 0.03731 0.53323 0.65328 0.0
C359 C 0.05553 0.54754 0.64045 0.0
C360 C 0.06948 0.55833 0.65757 0.0
C361 C 0.05891 0.54987 0.67991 0.0
N362 N 0.04246 0.49444 0.70379 0.0
C363 C 0.07972 0.46102 0.70488 0.0
C364 C 0.07685 0.47318 0.68361 0.0
C365 C 0.05807 0.48962 0.68341 0.0
C366 C 0.0641 0.46605 0.72568 0.0
C367 C 0.04597 0.4828 0.72481 0.0
N368 N 0.9871 0.53976 0.70215 0.0
C369 C 0.95423 0.56108 0.68062 0.0
C370 C 0.94743 0.57176 0.70153 0.0
C371 C 0.96109 0.56622 0.72265 0.0
C372 C 0.98045 0.55027 0.72261 0.0
C373 C 0.97408 0.54535 0.68128 0.0
H374 H 0.98982 0.54684 0.7394 0.0
H375 H 0.97853 0.53794 0.66469 0.0
H376 H 0.05636 0.49803 0.66649 0.0
H377 H 0.0349 0.48593 0.74138 0.0
C378 C 0.01061 0.51592 0.76277 0.0
C379 C 0.06821 0.55763 0.70281 0.0
C380 C 0.96128 0.47658 0.70349 0.0
C381 C 0.01907 0.5184 0.64315 0.0
H382 H 0.08425 0.56458 0.75144 0.0
H383 H 0.05309 0.54134 0.78458 0.0
H384 H 0.96391 0.49061 0.78461 0.0
H385 H 0.93679 0.46918 0.75182 0.0
H386 H 0.9527 0.46428 0.65463 0.0
H387 H 0.98408 0.48722 0.62155 0.0
H388 H 0.05832 0.54986 0.62098 0.0
H389 H 0.08554 0.57104 0.65405 0.0
H390 H 0.08855 0.46973 0.66704 0.0
H391 H 0.06602 0.45718 0.74265 0.0
H392 H 0.94413 0.56464 0.6638 0.0
H393 H 0.95719 0.57431 0.73923 0.0
C394 C 0.2573 0.98359 0.55208 0.0
C395 C 0.28331 0.97933 0.56179 0.0
C396 C 0.30373 0.99125 0.5484 0.0
C397 C 0.28908 0.00226 0.53156 0.0
N398 N 0.26049 0.99826 0.53355 0.0
Co399 Co 0.23108 0.01186 0.5138 0.0
N400 N 0.2613 0.02785 0.49266 0.0
C401 C 0.28986 0.0261 0.49326 0.0
C402 C 0.30517 0.03921 0.47658 0.0
C403 C 0.28522 0.05016 0.46482 0.0
C404 C 0.25881 0.04309 0.4751 0.0
N405 N 0.20169 0.02639 0.49482 0.0
C406 C 0.20498 0.04255 0.47796 0.0
C407 C 0.17892 0.04923 0.47053 0.0
C408 C 0.15835 0.03708 0.48349 0.0
C409 C 0.17301 0.02381 0.49804 0.0
N410 N 0.20089 0.99505 0.53417 0.0
C411 C 0.17235 0.99509 0.53168 0.0
C412 C 0.15705 0.98044 0.54653 0.0
C413 C 0.17698 0.97017 0.55903 0.0
C414 C 0.20346 0.97938 0.55128 0.0
N415 N 0.23052 0.03516 0.53664 0.0
C416 C 0.23022 0.06798 0.56949 0.0
C417 C 0.20509 0.05635 0.56494 0.0
C418 C 0.20569 0.04021 0.5485 0.0
C419 C 0.25537 0.06301 0.55704 0.0
C420 C 0.25507 0.04667 0.54097 0.0
N421 N 0.23171 0.98841 0.49109 0.0
C422 C 0.20697 0.9633 0.46659 0.0
C423 C 0.23192 0.95259 0.46263 0.0
C424 C 0.25693 0.96054 0.4724 0.0
C425 C 0.25641 0.97839 0.48627 0.0
C426 C 0.20732 0.98102 0.48081 0.0
H427 H 0.27625 0.98359 0.49314 0.0
H428 H 0.18749 0.98822 0.48353 0.0
H429 H 0.18582 0.03201 0.54572 0.0
H430 H 0.27503 0.04371 0.53223 0.0
C431 C 0.30168 0.01463 0.51211 0.0
C432 C 0.23048 0.97224 0.55998 0.0
C433 C 0.23222 0.05249 0.46906 0.0
C434 C 0.16056 0.00892 0.51505 0.0
H435 H 0.28721 0.96827 0.57657 0.0
H436 H 0.3266 0.99132 0.55019 0.0
H437 H 0.32814 0.0414 0.47419 0.0
H438 H 0.28967 0.06256 0.45093 0.0
H439 H 0.17523 0.0618 0.45737 0.0
H440 H 0.13545 0.03808 0.48273 0.0
H441 H 0.13415 0.9773 0.54774 0.0
H442 H 0.17238 0.9571 0.572 0.0
H443 H 0.18505 0.05946 0.57423 0.0
H444 H 0.27531 0.07182 0.55943 0.0
H445 H 0.18707 0.95772 0.45932 0.0
H446 H 0.27693 0.95302 0.46935 0.0
C447 C 0.46867 0.79415 0.05393 0.0
C448 C 0.46086 0.81396 0.06071 0.0
C449 C 0.4774 0.8284 0.04673 0.0
C450 C 0.4944 0.81668 0.03236 0.0
N451 N 0.48951 0.79557 0.03607 0.0
Co452 Co 0.51061 0.77272 0.0201 0.0
N453 N 0.53692 0.79402 0.00143 0.0
C454 C 0.53717 0.81528 0.00256 0.0
C455 C 0.55747 0.82574 0.98736 0.0
C456 C 0.57078 0.81027 0.97557 0.0
C457 C 0.55766 0.79119 0.98423 0.0
N458 N 0.53154 0.74986 0.00401 0.0
C459 C 0.55267 0.75128 0.98643 0.0
C460 C 0.56033 0.73148 0.97948 0.0
C461 C 0.54334 0.71703 0.99303 0.0
C462 C 0.52627 0.72875 0.00734 0.0
N463 N 0.48446 0.75142 0.0389 0.0
C464 C 0.4843 0.73014 0.0379 0.0
C465 C 0.46408 0.71968 0.05316 0.0
C466 C 0.45083 0.73515 0.06497 0.0
C467 C 0.46393 0.75424 0.05627 0.0
N468 N 0.48402 0.77331 0.99315 0.0
C469 C 0.44983 0.77388 0.95251 0.0
C470 C 0.45518 0.75491 0.9648 0.0
C471 C 0.47214 0.75499 0.98488 0.0
C472 C 0.46119 0.79262 0.96136 0.0
C473 C 0.47798 0.79198 0.98158 0.0
N474 N 0.53727 0.77215 0.04696 0.0
C475 C 0.56291 0.75262 0.07674 0.0
C476 C 0.57372 0.77132 0.08609 0.0
C477 C 0.56618 0.79044 0.07535 0.0
C478 C 0.54814 0.79049 0.05596 0.0
C479 C 0.54488 0.75339 0.05736 0.0
H480 H 0.54309 0.80557 0.04875 0.0
H481 H 0.53727 0.73859 0.05119 0.0
H482 H 0.47558 0.73999 0.9932 0.0
H483 H 0.4862 0.80679 0.98724 0.0
C484 C 0.51686 0.82499 0.01689 0.0
C485 C 0.45698 0.77449 0.06591 0.0
C486 C 0.56494 0.77093 0.97489 0.0
C487 C 0.50416 0.72043 0.02314 0.0
H488 H 0.44545 0.81768 0.07479 0.0
H489 H 0.47777 0.84541 0.04763 0.0
H490 H 0.5616 0.84263 0.98471 0.0
H491 H 0.58784 0.81273 0.96178 0.0
H492 H 0.57607 0.72781 0.96562 0.0
H493 H 0.54293 0.70002 0.99208 0.0
H494 H 0.45991 0.70279 0.05576 0.0
H495 H 0.43382 0.73267 0.0788 0.0
H496 H 0.44632 0.73998 0.95898 0.0
H497 H 0.45776 0.80774 0.95242 0.0
H498 H 0.56846 0.73739 0.08422 0.0
H499 H 0.57372 0.80537 0.08213 0.0
C500 C 0.8301 0.98681 0.56219 0.0
C501 C 0.85681 0.98119 0.56924 0.0
C502 C 0.87639 0.99342 0.5553 0.0
C503 C 0.86059 0.00575 0.5406 0.0
N504 N 0.83206 0.00226 0.54443 0.0
Co505 Co 0.80122 0.01642 0.52683 0.0
N506 N 0.83007 0.03319 0.505 0.0
C507 C 0.85882 0.03227 0.50486 0.0
C508 C 0.87302 0.04593 0.4881 0.0
C509 C 0.85214 0.05637 0.47699 0.0
C510 C 0.8263 0.0484 0.48767 0.0
N511 N 0.77037 0.03084 0.50953 0.0
C512 C 0.77236 0.04653 0.49206 0.0
C513 C 0.74567 0.05257 0.48544 0.0
C514 C 0.72606 0.0405 0.49951 0.0
C515 C 0.74183 0.02781 0.51381 0.0
N516 N 0.77233 0.99938 0.54834 0.0
C517 C 0.74355 0.9999 0.54811 0.0
C518 C 0.72936 0.986 0.5646 0.0
C519 C 0.75029 0.97575 0.57587 0.0
C520 C 0.77613 0.98403 0.56549 0.0
N521 N 0.80201 0.03926 0.55027 0.0
C522 C 0.80257 0.07268 0.58209 0.0
C523 C 0.77718 0.06147 0.57776 0.0
C524 C 0.77734 0.04507 0.56177 0.0
C525 C 0.82776 0.06681 0.57053 0.0
C526 C 0.82705 0.05001 0.55501 0.0
N527 N 0.80042 0.99357 0.50341 0.0
C528 C 0.77388 0.9676 0.48149 0.0
C529 C 0.79908 0.95966 0.47206 0.0
C530 C 0.82499 0.96927 0.47832 0.0
C531 C 0.82516 0.98599 0.49394 0.0
C532 C 0.77503 0.98448 0.49681 0.0
H533 H 0.84558 0.99242 0.49822 0.0
H534 H 0.75506 0.9897 0.50332 0.0
H535 H 0.75717 0.03753 0.55883 0.0
H536 H 0.847 0.04613 0.54696 0.0
C537 C 0.87189 0.01956 0.52192 0.0
C538 C 0.80359 0.97634 0.57206 0.0
C539 C 0.79891 0.05659 0.48167 0.0
C540 C 0.73047 0.01335 0.53183 0.0
H541 H 0.86163 0.96917 0.5827 0.0
H542 H 0.8994 0.99296 0.55539 0.0
H543 H 0.89586 0.04845 0.48487 0.0
H544 H 0.85558 0.0688 0.46302 0.0
H545 H 0.7409 0.06468 0.47205 0.0
H546 H 0.70306 0.04113 0.49958 0.0
H547 H 0.70653 0.98341 0.56781 0.0
H548 H 0.74694 0.96336 0.58992 0.0
H549 H 0.75712 0.06567 0.58623 0.0
H550 H 0.84795 0.07505 0.57359 0.0
H551 H 0.75322 0.96058 0.47752 0.0
H552 H 0.84514 0.96397 0.47119 0.0
C553 C 0.47657 0.27776 0.06414 0.0
C554 C 0.46912 0.29776 0.07055 0.0
C555 C 0.48553 0.31186 0.05604 0.0
C556 C 0.5021 0.29976 0.04176 0.0
N557 N 0.497 0.27872 0.04598 0.0
Co558 Co 0.51761 0.25544 0.0304 0.0
N559 N 0.54286 0.27627 0.01006 0.0
C560 C 0.54252 0.29759 0.00988 0.0
C561 C 0.5622 0.30769 0.99384 0.0
C562 C 0.57563 0.2919 0.98276 0.0
C563 C 0.56314 0.27299 0.99264 0.0
N564 N 0.53859 0.23217 0.01518 0.0
C565 C 0.5592 0.23308 0.99715 0.0
C566 C 0.56712 0.21305 0.99128 0.0
C567 C 0.551 0.19902 0.00611 0.0
C568 C 0.5341 0.21116 0.02005 0.0
N569 N 0.49197 0.23462 0.05041 0.0
C570 C 0.49165 0.21331 0.05 0.0
C571 C 0.47177 0.20323 0.06591 0.0
C572 C 0.45879 0.21902 0.0774 0.0
C573 C 0.4717 0.23788 0.06785 0.0
N574 N 0.49007 0.25487 0.00411 0.0
C575 C 0.45378 0.25417 0.96484 0.0
C576 C 0.46249 0.23545 0.97569 0.0
C577 C 0.48031 0.23615 0.99524 0.0
C578 C 0.46303 0.27324 0.97429 0.0
C579 C 0.48107 0.27323 0.99371 0.0
N580 N 0.54519 0.25602 0.05666 0.0
C581 C 0.56975 0.23804 0.08844 0.0
C582 C 0.58293 0.25704 0.09492 0.0
C583 C 0.5771 0.27548 0.08181 0.0
C584 C 0.55828 0.27463 0.06298 0.0
C585 C 0.55124 0.23787 0.06934 0.0
H586 H 0.55449 0.28929 0.05399 0.0
H587 H 0.54199 0.22287 0.06525 0.0
H588 H 0.4861 0.22133 0.00268 0.0
H589 H 0.48776 0.2883 0.99975 0.0
C590 C 0.52329 0.30767 0.02486 0.0
C591 C 0.46472 0.25841 0.07662 0.0
C592 C 0.57062 0.2524 0.98422 0.0
C593 C 0.51187 0.20325 0.03598 0.0
H594 H 0.45385 0.30178 0.08461 0.0
H595 H 0.48586 0.32892 0.05629 0.0
H596 H 0.56609 0.32452 0.9904 0.0
H597 H 0.59244 0.29406 0.96873 0.0
H598 H 0.58232 0.20888 0.97726 0.0
H599 H 0.5508 0.18196 0.00604 0.0
H600 H 0.46779 0.18639 0.06928 0.0
H601 H 0.44215 0.21691 0.09158 0.0
H602 H 0.45549 0.22027 0.9692 0.0
H603 H 0.45696 0.28817 0.96635 0.0
H604 H 0.5739 0.22329 0.09791 0.0
H605 H 0.58659 0.29062 0.08634 0.0
C606 C 0.16209 0.35866 0.32684 0.0
C607 C 0.18994 0.35827 0.3349 0.0
C608 C 0.14619 0.37669 0.32906 0.0
C609 C 0.15824 0.39457 0.34009 0.0
C610 C 0.18623 0.39411 0.34862 0.0
C611 C 0.20189 0.37602 0.34565 0.0
C612 C 0.11665 0.37671 0.31931 0.0
C613 C 0.19955 0.41266 0.36098 0.0
C614 C 0.12685 0.44763 0.32642 0.0
C615 C 0.10725 0.44908 0.34613 0.0
C616 C 0.14371 0.43007 0.3243 0.0
C617 C 0.14149 0.41375 0.34263 0.0
C618 C 0.12254 0.4154 0.36297 0.0
C619 C 0.10544 0.43288 0.36434 0.0
C620 C 0.16342 0.42875 0.30217 0.0
C621 C 0.11991 0.39849 0.3831 0.0
H622 H 0.153 0.34497 0.31831 0.0
H623 H 0.22338 0.37563 0.35201 0.0
H624 H 0.10069 0.37931 0.33412 0.0
H625 H 0.1155 0.38989 0.3056 0.0
H626 H 0.11061 0.36167 0.31084 0.0
H627 H 0.22124 0.40958 0.36709 0.0
H628 H 0.20104 0.42683 0.34846 0.0
H629 H 0.18587 0.41644 0.37692 0.0
H630 H 0.12893 0.46018 0.31247 0.0
H631 H 0.09009 0.43353 0.37946 0.0
H632 H 0.15735 0.4145 0.29224 0.0
H633 H 0.18569 0.42715 0.30761 0.0
H634 H 0.16282 0.44284 0.28962 0.0
H635 H 0.11107 0.38353 0.37609 0.0
H636 H 0.10582 0.4029 0.39853 0.0
H637 H 0.14126 0.39536 0.38988 0.0
C638 C 0.15641 0.66216 0.73317 0.0
C639 C 0.17045 0.67263 0.71287 0.0
C640 C 0.13983 0.64343 0.73093 0.0
C641 C 0.13726 0.63495 0.70784 0.0
C642 C 0.15129 0.64545 0.68725 0.0
C643 C 0.1677 0.6642 0.69001 0.0
C644 C 0.12502 0.63273 0.75329 0.0
C645 C 0.14912 0.6368 0.66235 0.0
C646 C 0.11546 0.57663 0.70665 0.0
C647 C 0.08625 0.57738 0.70299 0.0
C648 C 0.13249 0.59531 0.70784 0.0
C649 C 0.11984 0.61505 0.70531 0.0
C650 C 0.09033 0.61578 0.70118 0.0
C651 C 0.07385 0.59685 0.70005 0.0
C652 C 0.16386 0.59391 0.71223 0.0
C653 C 0.07609 0.63651 0.6984 0.0
H654 H 0.15817 0.66876 0.75083 0.0
H655 H 0.17878 0.67211 0.67431 0.0
H656 H 0.10163 0.63148 0.75107 0.0
H657 H 0.13225 0.61644 0.75582 0.0
H658 H 0.12921 0.64138 0.76991 0.0
H659 H 0.16121 0.64694 0.64818 0.0
H660 H 0.15744 0.62073 0.66225 0.0
H661 H 0.12643 0.63534 0.65756 0.0
H662 H 0.12481 0.56142 0.70886 0.0
H663 H 0.05116 0.5972 0.69721 0.0
H664 H 0.16876 0.60105 0.72963 0.0
H665 H 0.17682 0.60301 0.69773 0.0
H666 H 0.17056 0.57736 0.71288 0.0
H667 H 0.07784 0.64526 0.71525 0.0
H668 H 0.05315 0.63431 0.69449 0.0
H669 H 0.08704 0.6465 0.68353 0.0
C670 C 0.84803 0.6631 0.35921 0.0
C671 C 0.82223 0.66191 0.34735 0.0
C672 C 0.86449 0.64538 0.36198 0.0
C673 C 0.85515 0.62605 0.35237 0.0
C674 C 0.82856 0.62446 0.34134 0.0
C675 C 0.81233 0.64237 0.33909 0.0
C676 C 0.89263 0.64766 0.37409 0.0
C677 C 0.81794 0.60414 0.33079 0.0
C678 C 0.91539 0.59218 0.3328 0.0
C679 C 0.9154 0.57723 0.35214 0.0
C680 C 0.89508 0.6076 0.33223 0.0
C681 C 0.87461 0.60829 0.3517 0.0
C682 C 0.87401 0.59282 0.37098 0.0
C683 C 0.89436 0.5773 0.37086 0.0
C684 C 0.89614 0.62357 0.31112 0.0
C685 C 0.85272 0.59323 0.39217 0.0
H686 H 0.85608 0.67812 0.36542 0.0
H687 H 0.79214 0.64119 0.33034 0.0
H688 H 0.8944 0.63469 0.38794 0.0
H689 H 0.91044 0.64654 0.36042 0.0
H690 H 0.89533 0.66299 0.3829 0.0
H691 H 0.79565 0.60489 0.32496 0.0
H692 H 0.83188 0.60074 0.31485 0.0
H693 H 0.81899 0.59072 0.34419 0.0
H694 H 0.93161 0.59194 0.31826 0.0
H695 H 0.89458 0.56576 0.38586 0.0
H696 H 0.90177 0.63952 0.31749 0.0
H697 H 0.87487 0.6242 0.30322 0.0
H698 H 0.91204 0.61989 0.29665 0.0
H699 H 0.85719 0.60755 0.40248 0.0
H700 H 0.85354 0.57912 0.40466 0.0
H701 H 0.83075 0.59411 0.38574 0.0
C702 C 0.84911 0.38083 0.73581 0.0
C703 C 0.85233 0.36353 0.72107 0.0
C704 C 0.86661 0.39932 0.73205 0.0
C705 C 0.88725 0.40089 0.71257 0.0
C706 C 0.88994 0.3839 0.69703 0.0
C707 C 0.87278 0.36532 0.70167 0.0
C708 C 0.86346 0.41698 0.74929 0.0
C709 C 0.91128 0.38521 0.67572 0.0
C710 C 0.91636 0.45631 0.69379 0.0
C711 C 0.94279 0.45687 0.70457 0.0
C712 C 0.89842 0.43792 0.69551 0.0
C713 C 0.90677 0.42002 0.7091 0.0
C714 C 0.93345 0.4206 0.72011 0.0
C715 C 0.95132 0.43895 0.71741 0.0
C716 C 0.87049 0.43769 0.68299 0.0
C717 C 0.94279 0.40204 0.73526 0.0
H718 H 0.83296 0.37995 0.75045 0.0
H719 H 0.87588 0.35205 0.69034 0.0
H720 H 0.88396 0.42026 0.75799 0.0
H721 H 0.85824 0.43168 0.73924 0.0
H722 H 0.84654 0.41318 0.76369 0.0
H723 H 0.90901 0.37139 0.66417 0.0
H724 H 0.90867 0.3998 0.66442 0.0
H725 H 0.93328 0.38608 0.68227 0.0
H726 H 0.90974 0.47031 0.68408 0.0
H727 H 0.97179 0.43952 0.72578 0.0
H728 H 0.85242 0.43598 0.69664 0.0
H729 H 0.86879 0.42395 0.6713 0.0
H730 H 0.86817 0.45234 0.67168 0.0
H731 H 0.92708 0.39834 0.75061 0.0
H732 H 0.96416 0.40511 0.74265 0.0
H733 H 0.94351 0.38784 0.7243 0.0
C734 C 0.27137 0.16222 0.39852 0.0
C735 C 0.24772 0.17215 0.38952 0.0
C736 C 0.26804 0.14299 0.41203 0.0
C737 C 0.24037 0.1334 0.41662 0.0
C738 C 0.21634 0.1435 0.40795 0.0
C739 C 0.2203 0.16279 0.39454 0.0
C740 C 0.29417 0.13279 0.42113 0.0
C741 C 0.18653 0.13371 0.41245 0.0
C742 C 0.23622 0.07413 0.43023 0.0
C743 C 0.23302 0.07313 0.45548 0.0
C744 C 0.2381 0.09369 0.41728 0.0
C745 C 0.23677 0.11255 0.43002 0.0
C746 C 0.23305 0.11148 0.4556 0.0
C747 C 0.2312 0.0917 0.46806 0.0
C748 C 0.24201 0.09418 0.39003 0.0
C749 C 0.23159 0.13121 0.46982 0.0
H750 H 0.29257 0.16954 0.395 0.0
H751 H 0.20197 0.1703 0.38744 0.0
H752 H 0.29205 0.1301 0.44109 0.0
H753 H 0.29618 0.11714 0.4132 0.0
H754 H 0.3141 0.14255 0.41651 0.0
H755 H 0.17003 0.14391 0.40518 0.0
H756 H 0.1848 0.11826 0.40384 0.0
H757 H 0.1819 0.13067 0.43215 0.0
H758 H 0.23756 0.05961 0.4207 0.0
H759 H 0.22871 0.09069 0.48766 0.0
H760 H 0.26274 0.10241 0.3843 0.0
H761 H 0.225 0.10318 0.38169 0.0
H762 H 0.24152 0.07809 0.38284 0.0
H763 H 0.25194 0.14081 0.46704 0.0
H764 H 0.22761 0.1276 0.48954 0.0
H765 H 0.21436 0.14103 0.46324 0.0
C766 C 0.33977 0.76072 0.8479 0.0
C767 C 0.34917 0.7714 0.82606 0.0
C768 C 0.35619 0.76147 0.86844 0.0
C769 C 0.38258 0.7733 0.86718 0.0
C770 C 0.39212 0.78428 0.84529 0.0
C771 C 0.37532 0.78317 0.82497 0.0
C772 C 0.34532 0.74954 0.89147 0.0
C773 C 0.42016 0.79707 0.8433 0.0
C774 C 0.41285 0.78939 0.9266 0.0
C775 C 0.43287 0.77402 0.93046 0.0
C776 C 0.3966 0.78953 0.9059 0.0
C777 C 0.40037 0.77388 0.88873 0.0
C778 C 0.42069 0.75844 0.8924 0.0
C779 C 0.43674 0.75874 0.91318 0.0
C780 C 0.37516 0.80627 0.90255 0.0
C781 C 0.42531 0.74149 0.87448 0.0
H782 H 0.31937 0.7519 0.84901 0.0
H783 H 0.38285 0.79128 0.80809 0.0
H784 H 0.36084 0.73781 0.89695 0.0
H785 H 0.34321 0.76059 0.90638 0.0
H786 H 0.32429 0.74115 0.88947 0.0
H787 H 0.42421 0.80507 0.82513 0.0
H788 H 0.42038 0.80922 0.85714 0.0
H789 H 0.43796 0.78668 0.84691 0.0
H790 H 0.40954 0.80111 0.93999 0.0
H791 H 0.45253 0.74705 0.91581 0.0
H792 H 0.35336 0.79875 0.90223 0.0
H793 H 0.37957 0.81505 0.88491 0.0
H794 H 0.37547 0.81772 0.91719 0.0
H795 H 0.40516 0.73189 0.87281 0.0
H796 H 0.44221 0.73081 0.87986 0.0
H797 H 0.43137 0.74882 0.85631 0.0
C798 C 0.80164 0.86757 0.37672 0.0
C799 C 0.7853 0.84983 0.38627 0.0
C800 C 0.80544 0.88562 0.39024 0.0
C801 C 0.79225 0.88601 0.41371 0.0
C802 C 0.77587 0.86808 0.42349 0.0
C803 C 0.77274 0.85015 0.40969 0.0
C804 C 0.82342 0.90432 0.37938 0.0
C805 C 0.76116 0.868 0.44832 0.0
C806 C 0.81821 0.92561 0.45844 0.0
C807 C 0.79822 0.94125 0.45626 0.0
C808 C 0.81693 0.90777 0.4443 0.0
C809 C 0.79489 0.90535 0.42784 0.0
C810 C 0.77485 0.92115 0.42533 0.0
C811 C 0.7769 0.93898 0.43941 0.0
C812 C 0.83887 0.89134 0.44728 0.0
C813 C 0.75094 0.91907 0.40806 0.0
H814 H 0.81159 0.86725 0.3587 0.0
H815 H 0.75986 0.83651 0.41699 0.0
H816 H 0.81017 0.91825 0.37754 0.0
H817 H 0.84078 0.90853 0.39155 0.0
H818 H 0.83308 0.90119 0.36128 0.0
H819 H 0.74954 0.85268 0.45341 0.0
H820 H 0.77702 0.87132 0.46213 0.0
H821 H 0.74573 0.88069 0.44887 0.0
H822 H 0.83453 0.92704 0.47161 0.0
H823 H 0.7617 0.95115 0.43722 0.0
H824 H 0.84932 0.88835 0.42946 0.0
H825 H 0.82827 0.8762 0.4544 0.0
H826 H 0.85559 0.89616 0.45983 0.0
H827 H 0.75981 0.91746 0.38936 0.0
H828 H 0.7372 0.93283 0.40815 0.0
H829 H 0.73741 0.90457 0.41301 0.0
C830 C 0.65992 0.23851 0.85919 0.0
C831 C 0.6787 0.25624 0.85428 0.0
C832 C 0.64233 0.23662 0.88043 0.0
C833 C 0.64303 0.25306 0.89691 0.0
C834 C 0.66177 0.27102 0.89209 0.0
C835 C 0.67962 0.27226 0.87103 0.0
C836 C 0.62291 0.21708 0.88518 0.0
C837 C 0.66284 0.28902 0.90909 0.0
C838 C 0.57876 0.25898 0.93963 0.0
C839 C 0.58869 0.25133 0.96164 0.0
C840 C 0.59614 0.25947 0.91834 0.0
C841 C 0.62388 0.2517 0.9191 0.0
C842 C 0.6337 0.24344 0.94124 0.0
C843 C 0.61609 0.24365 0.96238 0.0
C844 C 0.58513 0.26881 0.89521 0.0
C845 C 0.66291 0.23465 0.94266 0.0
H846 H 0.65864 0.22618 0.84627 0.0
H847 H 0.69444 0.2858 0.8678 0.0
H848 H 0.62694 0.2096 0.90312 0.0
H849 H 0.6003 0.22143 0.88571 0.0
H850 H 0.6259 0.20528 0.87114 0.0
H851 H 0.67808 0.30212 0.90238 0.0
H852 H 0.64133 0.29534 0.91153 0.0
H853 H 0.66922 0.28328 0.92718 0.0
H854 H 0.55755 0.265 0.93925 0.0
H855 H 0.62374 0.23793 0.97954 0.0
H856 H 0.58583 0.25716 0.88085 0.0
H857 H 0.59904 0.28272 0.8887 0.0
H858 H 0.56289 0.27385 0.89763 0.0
H859 H 0.66569 0.22249 0.92904 0.0
H860 H 0.66651 0.22749 0.96088 0.0
H861 H 0.67958 0.24741 0.93839 0.0
C862 C 0.22083 0.86042 0.63361 0.0
C863 C 0.24229 0.85945 0.65051 0.0
C864 C 0.2176 0.87878 0.61915 0.0
C865 C 0.23692 0.89639 0.62094 0.0
C866 C 0.25882 0.89552 0.63765 0.0
C867 C 0.2609 0.87726 0.65252 0.0
C868 C 0.19353 0.87932 0.60193 0.0
C869 C 0.28026 0.91382 0.63968 0.0
C870 C 0.24599 0.93551 0.56703 0.0
C871 C 0.2312 0.95257 0.57546 0.0
C872 C 0.24819 0.91716 0.58172 0.0
C873 C 0.2345 0.91566 0.60509 0.0
C874 C 0.21901 0.93272 0.61347 0.0
C875 C 0.21807 0.95119 0.59872 0.0
C876 C 0.26564 0.89959 0.57241 0.0
C877 C 0.20346 0.93148 0.638 0.0
H878 H 0.20662 0.84675 0.63142 0.0
H879 H 0.27713 0.87706 0.66584 0.0
H880 H 0.18059 0.89318 0.60522 0.0
H881 H 0.2023 0.88106 0.58298 0.0
H882 H 0.17925 0.8648 0.60382 0.0
H883 H 0.29677 0.91028 0.65284 0.0
H884 H 0.29104 0.91795 0.62173 0.0
H885 H 0.26923 0.92795 0.64545 0.0
H886 H 0.25624 0.93672 0.54904 0.0
H887 H 0.20697 0.96455 0.60527 0.0
H888 H 0.25208 0.88484 0.57188 0.0
H889 H 0.28296 0.8964 0.58489 0.0
H890 H 0.27535 0.90344 0.55399 0.0
H891 H 0.18879 0.91719 0.63972 0.0
H892 H 0.1909 0.94557 0.64113 0.0
H893 H 0.21896 0.93004 0.65246 0.0
C894 C 0.65681 0.78113 0.20853 0.0
C895 C 0.68012 0.76812 0.20903 0.0
C896 C 0.63978 0.78222 0.18834 0.0
C897 C 0.64615 0.76994 0.16822 0.0
C898 C 0.66982 0.75697 0.16848 0.0
C899 C 0.68657 0.75626 0.18885 0.0
C900 C 0.61473 0.79627 0.18869 0.0
C901 C 0.67727 0.74366 0.14734 0.0
C902 C 0.58641 0.75638 0.12664 0.0
C903 C 0.59244 0.7709 0.10705 0.0
C904 C 0.60376 0.75586 0.14663 0.0
C905 C 0.62766 0.7703 0.14711 0.0
C906 C 0.63387 0.78503 0.12744 0.0
C907 C 0.61622 0.78512 0.10762 0.0
C908 C 0.59648 0.73992 0.16729 0.0
C909 C 0.65916 0.80067 0.12733 0.0
H910 H 0.65148 0.79013 0.22417 0.0
H911 H 0.70481 0.74643 0.18895 0.0
H912 H 0.61649 0.80756 0.17277 0.0
H913 H 0.59459 0.78657 0.18743 0.0
H914 H 0.61325 0.80535 0.20539 0.0
H915 H 0.69665 0.73468 0.15023 0.0
H916 H 0.6592 0.7323 0.14431 0.0
H917 H 0.6809 0.75382 0.13057 0.0
H918 H 0.56783 0.74556 0.12651 0.0
H919 H 0.62122 0.79621 0.09241 0.0
H920 H 0.59254 0.74816 0.18431 0.0
H921 H 0.61473 0.72975 0.1701 0.0
H922 H 0.5773 0.72967 0.16401 0.0
H923 H 0.65742 0.81055 0.14334 0.0
H924 H 0.66091 0.81121 0.11072 0.0
H925 H 0.67916 0.79216 0.12864 0.0
C926 C 0.81402 0.16771 0.67299 0.0
C927 C 0.78921 0.17907 0.67209 0.0
C928 C 0.81759 0.15021 0.65869 0.0
C929 C 0.79605 0.14425 0.64282 0.0
C930 C 0.77116 0.15592 0.64158 0.0
C931 C 0.76792 0.17309 0.65643 0.0
C932 C 0.84416 0.13791 0.66082 0.0
C933 C 0.74797 0.15028 0.62456 0.0
C934 C 0.81465 0.11043 0.58996 0.0
C935 C 0.80248 0.09069 0.59817 0.0
C936 C 0.81298 0.12801 0.60441 0.0
C937 C 0.79925 0.12562 0.62774 0.0
C938 C 0.78768 0.10554 0.63637 0.0
C939 C 0.78919 0.08834 0.62135 0.0
C940 C 0.82513 0.14924 0.59445 0.0
C941 C 0.77337 0.1023 0.66131 0.0
H942 H 0.83037 0.17229 0.68527 0.0
H943 H 0.74886 0.18203 0.65561 0.0
H944 H 0.83821 0.12126 0.66658 0.0
H945 H 0.85576 0.13773 0.64293 0.0
H946 H 0.85887 0.14461 0.67403 0.0
H947 H 0.73044 0.16142 0.62518 0.0
H948 H 0.75706 0.1503 0.60571 0.0
H949 H 0.73881 0.13412 0.62928 0.0
H950 H 0.82469 0.11224 0.57192 0.0
H951 H 0.77997 0.073 0.62772 0.0
H952 H 0.84087 0.15585 0.60683 0.0
H953 H 0.80781 0.16047 0.59322 0.0
H954 H 0.83573 0.14831 0.5762 0.0
H955 H 0.78793 0.108 0.67516 0.0
H956 H 0.76697 0.08546 0.66579 0.0
H957 H 0.75405 0.11166 0.66252 0.0
C958 C 0.37871 0.28246 0.19936 0.0
C959 C 0.3618 0.2648 0.20843 0.0
C960 C 0.39561 0.28166 0.17788 0.0
C961 C 0.39564 0.26276 0.1652 0.0
C962 C 0.37869 0.24487 0.17426 0.0
C963 C 0.36194 0.24613 0.19573 0.0
C964 C 0.41348 0.30104 0.16878 0.0
C965 C 0.37814 0.22444 0.16122 0.0
C966 C 0.41879 0.26574 0.09845 0.0
C967 C 0.4469 0.25953 0.09927 0.0
C968 C 0.40184 0.26695 0.11982 0.0
C969 C 0.41338 0.26167 0.14241 0.0
C970 C 0.44181 0.25524 0.1432 0.0
C971 C 0.45827 0.25425 0.12154 0.0
C972 C 0.37164 0.27387 0.11825 0.0
C973 C 0.45481 0.24941 0.16689 0.0
H974 H 0.37899 0.29685 0.20923 0.0
H975 H 0.34859 0.23252 0.2024 0.0
H976 H 0.43635 0.2974 0.16758 0.0
H977 H 0.40745 0.3059 0.15027 0.0
H978 H 0.41094 0.31455 0.18068 0.0
H979 H 0.36407 0.21191 0.17082 0.0
H980 H 0.37057 0.22712 0.14268 0.0
H981 H 0.40003 0.21868 0.15933 0.0
H982 H 0.41017 0.2697 0.08106 0.0
H983 H 0.48008 0.24939 0.12194 0.0
H984 H 0.36884 0.28813 0.12886 0.0
H985 H 0.35643 0.2613 0.12627 0.0
H986 H 0.36598 0.2775 0.09929 0.0
H987 H 0.45442 0.26294 0.17892 0.0
H988 H 0.47722 0.24475 0.16435 0.0
H989 H 0.44205 0.2361 0.17634 0.0
C990 C 0.82805 0.65904 0.70249 0.0
C991 C 0.84044 0.67753 0.71136 0.0
C992 C 0.84422 0.64128 0.69902 0.0
C993 C 0.87323 0.64195 0.7051 0.0
C994 C 0.88582 0.66064 0.71399 0.0
C995 C 0.86931 0.67827 0.71681 0.0
C996 C 0.83024 0.62178 0.68904 0.0
C997 C 0.91653 0.66186 0.7211 0.0
C998 C 0.90846 0.59121 0.72189 0.0
C999 C 0.92667 0.58879 0.70149 0.0
C1000 C 0.89053 0.6082 0.72307 0.0
C1001 C 0.89027 0.62291 0.70316 0.0
C1002 C 0.90755 0.62006 0.68206 0.0
C1003 C 0.92574 0.60314 0.68154 0.0
C1004 C 0.87258 0.61078 0.74599 0.0
C1005 C 0.90747 0.63524 0.6603 0.0
H1006 H 0.80575 0.65857 0.6981 0.0
H1007 H 0.8788 0.69252 0.72389 0.0
H1008 H 0.84272 0.61705 0.67284 0.0
H1009 H 0.82998 0.60845 0.7027 0.0
H1010 H 0.80797 0.62422 0.68397 0.0
H1011 H 0.92316 0.67765 0.72745 0.0
H1012 H 0.91962 0.64984 0.73579 0.0
H1013 H 0.93085 0.65829 0.70549 0.0
H1014 H 0.90845 0.57994 0.73715 0.0
H1015 H 0.93984 0.60156 0.66577 0.0
H1016 H 0.84978 0.61169 0.7418 0.0
H1017 H 0.87916 0.6258 0.75422 0.0
H1018 H 0.87459 0.5976 0.75957 0.0
H1019 H 0.88527 0.6375 0.65499 0.0
H1020 H 0.91997 0.62968 0.64451 0.0
H1021 H 0.91672 0.65089 0.66494 0.0
C1022 C 0.88622 0.36812 0.31603 0.0
C1023 C 0.87645 0.35434 0.33546 0.0
C1024 C 0.90381 0.38611 0.31973 0.0
C1025 C 0.91208 0.39035 0.34342 0.0
C1026 C 0.90265 0.37639 0.36307 0.0
C1027 C 0.88485 0.35861 0.35889 0.0
C1028 C 0.91332 0.40069 0.29831 0.0
C1029 C 0.91107 0.38038 0.38857 0.0
C1030 C 0.97624 0.4287 0.348 0.0
C1031 C 0.96289 0.44746 0.35232 0.0
C1032 C 0.95997 0.40976 0.34578 0.0
C1033 C 0.92976 0.40983 0.34763 0.0
C1034 C 0.91632 0.42881 0.35245 0.0
C1035 C 0.9331 0.44742 0.35477 0.0
C1036 C 0.97505 0.38982 0.34085 0.0
C1037 C 0.88422 0.42961 0.35437 0.0
H1038 H 0.88028 0.36478 0.29783 0.0
H1039 H 0.87712 0.34823 0.37407 0.0
H1040 H 0.90564 0.41671 0.30108 0.0
H1041 H 0.93697 0.4022 0.29665 0.0
H1042 H 0.90524 0.39504 0.28103 0.0
H1043 H 0.90299 0.36752 0.40171 0.0
H1044 H 0.93466 0.38199 0.38923 0.0
H1045 H 0.90256 0.39545 0.3944 0.0
H1046 H 0.99933 0.42896 0.34594 0.0
H1047 H 0.92299 0.46214 0.35785 0.0
H1048 H 0.9698 0.38436 0.32271 0.0
H1049 H 0.96761 0.37706 0.35431 0.0
H1050 H 0.99861 0.39214 0.34145 0.0
H1051 H 0.87519 0.42562 0.33683 0.0
H1052 H 0.87719 0.44542 0.3592 0.0
H1053 H 0.87512 0.41772 0.36822 0.0
C1054 C 0.17351 0.35928 0.69415 0.0
C1055 C 0.18723 0.35528 0.71581 0.0
C1056 C 0.15663 0.3768 0.69121 0.0
C1057 C 0.15378 0.39088 0.71022 0.0
C1058 C 0.16824 0.38734 0.73182 0.0
C1059 C 0.18456 0.36951 0.73444 0.0
C1060 C 0.14132 0.37995 0.66799 0.0
C1061 C 0.16597 0.40213 0.75241 0.0
C1062 C 0.12697 0.4455 0.69654 0.0
C1063 C 0.09856 0.44298 0.70546 0.0
C1064 C 0.14525 0.42866 0.69789 0.0
C1065 C 0.13463 0.40879 0.70802 0.0
C1066 C 0.10576 0.40609 0.71656 0.0
C1067 C 0.08814 0.42327 0.71535 0.0
C1068 C 0.17602 0.43222 0.68897 0.0
C1069 C 0.09351 0.38506 0.72709 0.0
H1070 H 0.17584 0.34866 0.67945 0.0
H1071 H 0.19464 0.36646 0.7514 0.0
H1072 H 0.11792 0.37925 0.67198 0.0
H1073 H 0.14724 0.3958 0.65951 0.0
H1074 H 0.1463 0.36785 0.65472 0.0
H1075 H 0.18013 0.39799 0.76728 0.0
H1076 H 0.17157 0.41861 0.74575 0.0
H1077 H 0.14364 0.40166 0.75992 0.0
H1078 H 0.13505 0.4608 0.68904 0.0
H1079 H 0.06606 0.42128 0.722 0.0
H1080 H 0.18124 0.42088 0.67493 0.0
H1081 H 0.19025 0.42934 0.70413 0.0
H1082 H 0.18079 0.44851 0.68123 0.0
H1083 H 0.09666 0.37263 0.71387 0.0
H1084 H 0.07036 0.3854 0.73207 0.0
H1085 H 0.10489 0.38047 0.74351 0.0
C1086 C 0.21594 0.62992 0.33949 0.0
C1087 C 0.20204 0.64902 0.33983 0.0
C1088 C 0.20041 0.61037 0.34201 0.0
C1089 C 0.17023 0.60995 0.3445 0.0
C1090 C 0.15619 0.62919 0.34527 0.0
C1091 C 0.17223 0.64843 0.343 0.0
C1092 C 0.21649 0.59037 0.34123 0.0
C1093 C 0.12403 0.62949 0.34784 0.0
C1094 C 0.11893 0.56686 0.32545 0.0
C1095 C 0.10452 0.56119 0.34781 0.0
C1096 C 0.14215 0.58173 0.32394 0.0
C1097 C 0.15265 0.58973 0.34544 0.0
C1098 C 0.1428 0.58013 0.36795 0.0
C1099 C 0.11942 0.56539 0.36877 0.0
C1100 C 0.15375 0.59017 0.29937 0.0
C1101 C 0.15539 0.58667 0.39127 0.0
H1102 H 0.239 0.63025 0.33719 0.0
H1103 H 0.1613 0.66309 0.3429 0.0
H1104 H 0.20504 0.57702 0.35172 0.0
H1105 H 0.21922 0.58587 0.32215 0.0
H1106 H 0.23812 0.59279 0.34835 0.0
H1107 H 0.11644 0.64577 0.34847 0.0
H1108 H 0.11437 0.62168 0.33237 0.0
H1109 H 0.11615 0.6205 0.36465 0.0
H1110 H 0.11156 0.56055 0.30889 0.0
H1111 H 0.11248 0.55792 0.38605 0.0
H1112 H 0.17737 0.59001 0.29834 0.0
H1113 H 0.14794 0.60682 0.29657 0.0
H1114 H 0.1452 0.58092 0.28446 0.0
H1115 H 0.17905 0.58773 0.38939 0.0
H1116 H 0.14864 0.57551 0.40671 0.0
H1117 H 0.14829 0.60257 0.39555 0.0
C1118 C 0.76487 0.87672 0.65978 0.0
C1119 C 0.78777 0.86405 0.66467 0.0
C1120 C 0.76882 0.89519 0.64496 0.0
C1121 C 0.79634 0.90112 0.6347 0.0
C1122 C 0.81961 0.8885 0.63967 0.0
C1123 C 0.81505 0.87012 0.65462 0.0
C1124 C 0.74347 0.90824 0.64004 0.0
C1125 C 0.84925 0.89436 0.62905 0.0
C1126 C 0.79851 0.93728 0.57823 0.0
C1127 C 0.80424 0.95697 0.58783 0.0
C1128 C 0.79666 0.91885 0.59321 0.0
C1129 C 0.80051 0.92031 0.61835 0.0
C1130 C 0.80698 0.94022 0.62798 0.0
C1131 C 0.80873 0.9584 0.61253 0.0
C1132 C 0.78979 0.89791 0.58227 0.0
C1133 C 0.81118 0.9424 0.65467 0.0
H1134 H 0.74366 0.87197 0.6672 0.0
H1135 H 0.83291 0.86055 0.65859 0.0
H1136 H 0.74778 0.92468 0.64546 0.0
H1137 H 0.7398 0.90896 0.62035 0.0
H1138 H 0.72363 0.90174 0.64989 0.0
H1139 H 0.86513 0.88302 0.63497 0.0
H1140 H 0.84913 0.89486 0.60898 0.0
H1141 H 0.85623 0.91037 0.63444 0.0
H1142 H 0.79494 0.93641 0.55905 0.0
H1143 H 0.81299 0.97379 0.61976 0.0
H1144 H 0.76885 0.89122 0.58984 0.0
H1145 H 0.80603 0.88649 0.58699 0.0
H1146 H 0.78893 0.89938 0.56223 0.0
H1147 H 0.79103 0.93762 0.66512 0.0
H1148 H 0.81767 0.95882 0.65901 0.0
H1149 H 0.82769 0.93173 0.66085 0.0
C1150 C 0.67431 0.27692 0.21133 0.0
C1151 C 0.69484 0.26181 0.21426 0.0
C1152 C 0.65598 0.27632 0.19195 0.0
C1153 C 0.65841 0.26032 0.17501 0.0
C1154 C 0.67927 0.24514 0.17776 0.0
C1155 C 0.69717 0.24602 0.1974 0.0
C1156 C 0.63384 0.29269 0.18973 0.0
C1157 C 0.6827 0.22795 0.15995 0.0
C1158 C 0.59493 0.24651 0.1373 0.0
C1159 C 0.6024 0.25769 0.11535 0.0
C1160 C 0.61291 0.24729 0.1569 0.0
C1161 C 0.63908 0.25942 0.15442 0.0
C1162 C 0.64682 0.27064 0.13225 0.0
C1163 C 0.62834 0.2697 0.11301 0.0
C1164 C 0.60382 0.23525 0.18031 0.0
C1165 C 0.67466 0.28358 0.12884 0.0
H1166 H 0.67223 0.28901 0.22447 0.0
H1167 H 0.71324 0.23446 0.19943 0.0
H1168 H 0.63697 0.30158 0.17203 0.0
H1169 H 0.61218 0.28483 0.19029 0.0
H1170 H 0.63473 0.30409 0.2044 0.0
H1171 H 0.70017 0.21749 0.16453 0.0
H1172 H 0.66253 0.21815 0.15953 0.0
H1173 H 0.68729 0.23507 0.14144 0.0
H1174 H 0.57475 0.23743 0.13928 0.0
H1175 H 0.63434 0.27818 0.09599 0.0
H1176 H 0.60256 0.24627 0.19531 0.0
H1177 H 0.61992 0.22369 0.18494 0.0
H1178 H 0.58275 0.22664 0.17932 0.0
H1179 H 0.67556 0.29599 0.14235 0.0
H1180 H 0.67758 0.29127 0.11043 0.0
H1181 H 0.6928 0.27337 0.13192 0.0
C1182 C 0.22702 0.15255 0.67389 0.0
C1183 C 0.23946 0.17193 0.66469 0.0
C1184 C 0.22397 0.13526 0.65901 0.0
C1185 C 0.23401 0.13737 0.63447 0.0
C1186 C 0.24654 0.15694 0.6251 0.0
C1187 C 0.24896 0.17402 0.64029 0.0
C1188 C 0.21013 0.11474 0.66955 0.0
C1189 C 0.25788 0.15973 0.59913 0.0
C1190 C 0.25357 0.0883 0.60187 0.0
C1191 C 0.2304 0.08522 0.58696 0.0
C1192 C 0.25485 0.10507 0.61755 0.0
C1193 C 0.23222 0.11897 0.6187 0.0
C1194 C 0.2084 0.11566 0.60424 0.0
C1195 C 0.20785 0.09891 0.58844 0.0
C1196 C 0.2807 0.10813 0.63259 0.0
C1197 C 0.18373 0.13005 0.60514 0.0
H1198 H 0.21941 0.15098 0.69269 0.0
H1199 H 0.25886 0.18893 0.63321 0.0
H1200 H 0.19171 0.10989 0.6588 0.0
H1201 H 0.22554 0.10207 0.66858 0.0
H1202 H 0.20255 0.11592 0.68872 0.0
H1203 H 0.26668 0.17605 0.59458 0.0
H1204 H 0.27496 0.14858 0.59577 0.0
H1205 H 0.24065 0.15598 0.58667 0.0
H1206 H 0.27082 0.07756 0.60127 0.0
H1207 H 0.19001 0.09685 0.57683 0.0
H1208 H 0.27407 0.10787 0.6521 0.0
H1209 H 0.29151 0.1238 0.62791 0.0
H1210 H 0.29634 0.09578 0.62979 0.0
H1211 H 0.17527 0.13102 0.62408 0.0
H1212 H 0.16606 0.12461 0.59384 0.0
H1213 H 0.19117 0.14625 0.59866 0.0
C1214 C 0.35176 0.74974 0.18084 0.0
C1215 C 0.3526 0.76535 0.19807 0.0
C1216 C 0.36871 0.75194 0.15928 0.0
C1217 C 0.38663 0.77036 0.15458 0.0
C1218 C 0.38724 0.78638 0.17161 0.0
C1219 C 0.3704 0.78361 0.19322 0.0
C1220 C 0.36765 0.73443 0.14163 0.0
C1221 C 0.40588 0.80634 0.1671 0.0
C1222 C 0.45005 0.76651 0.11034 0.0
C1223 C 0.43945 0.77478 0.08888 0.0
C1224 C 0.43319 0.76521 0.13195 0.0
C1225 C 0.4052 0.7726 0.13206 0.0
C1226 C 0.39466 0.78141 0.11045 0.0
C1227 C 0.41185 0.78217 0.089 0.0
C1228 C 0.44505 0.75545 0.15451 0.0
C1229 C 0.36509 0.7897 0.10993 0.0
H1230 H 0.33769 0.73577 0.18413 0.0
H1231 H 0.37157 0.79564 0.20651 0.0
H1232 H 0.36087 0.74058 0.12384 0.0
H1233 H 0.38926 0.72839 0.13868 0.0
H1234 H 0.35274 0.72104 0.14807 0.0
H1235 H 0.4029 0.81771 0.18161 0.0
H1236 H 0.42866 0.80243 0.16592 0.0
H1237 H 0.40108 0.81415 0.14953 0.0
H1238 H 0.47141 0.7607 0.11005 0.0
H1239 H 0.40369 0.78835 0.07223 0.0
H1240 H 0.43173 0.74117 0.16073 0.0
H1241 H 0.44432 0.76667 0.16933 0.0
H1242 H 0.46744 0.75089 0.15147 0.0
H1243 H 0.3489 0.7766 0.11415 0.0
H1244 H 0.36077 0.79719 0.09203 0.0
H1245 H 0.36231 0.80147 0.12399 0.0
C1246 C 0.76765 0.15711 0.39727 0.0
C1247 C 0.79257 0.16963 0.39106 0.0
C1248 C 0.76848 0.13866 0.41205 0.0
C1249 C 0.79484 0.1326 0.42091 0.0
C1250 C 0.82005 0.1452 0.41482 0.0
C1251 C 0.81861 0.16354 0.39994 0.0
C1252 C 0.74114 0.12564 0.41821 0.0
C1253 C 0.84855 0.13923 0.42394 0.0
C1254 C 0.79332 0.0953 0.47649 0.0
C1255 C 0.79806 0.07604 0.46604 0.0
C1256 C 0.79231 0.1139 0.462 0.0
C1257 C 0.79604 0.11305 0.43652 0.0
C1258 C 0.8008 0.09351 0.42595 0.0
C1259 C 0.80175 0.07517 0.4409 0.0
C1260 C 0.78723 0.13443 0.47394 0.0
C1261 C 0.80481 0.09198 0.39887 0.0
H1262 H 0.74739 0.16187 0.39076 0.0
H1263 H 0.83801 0.17298 0.39496 0.0
H1264 H 0.74317 0.10936 0.412 0.0
H1265 H 0.73703 0.1244 0.43813 0.0
H1266 H 0.72242 0.13249 0.40979 0.0
H1267 H 0.8661 0.15084 0.41776 0.0
H1268 H 0.84751 0.13806 0.44403 0.0
H1269 H 0.85381 0.12348 0.41757 0.0
H1270 H 0.79046 0.09575 0.49602 0.0
H1271 H 0.80533 0.06011 0.43303 0.0
H1272 H 0.76761 0.14126 0.4672 0.0
H1273 H 0.80523 0.14603 0.46915 0.0
H1274 H 0.78492 0.13237 0.49398 0.0
H1275 H 0.7857 0.09751 0.38987 0.0
H1276 H 0.80844 0.0756 0.39357 0.0
H1277 H 0.82329 0.1024 0.39194 0.0
C1278 C 0.37424 0.26938 0.84111 0.0
C1279 C 0.35053 0.25524 0.83977 0.0
C1280 C 0.39127 0.26893 0.86133 0.0
C1281 C 0.38428 0.25409 0.88078 0.0
C1282 C 0.36043 0.23971 0.87948 0.0
C1283 C 0.34391 0.24039 0.85893 0.0
C1284 C 0.41671 0.28437 0.86192 0.0
C1285 C 0.35215 0.22378 0.89994 0.0
C1286 C 0.44195 0.24091 0.92429 0.0
C1287 C 0.4356 0.25384 0.94355 0.0
C1288 C 0.42539 0.24079 0.90377 0.0
C1289 C 0.40177 0.25379 0.90258 0.0
C1290 C 0.39508 0.2667 0.92208 0.0
C1291 C 0.41216 0.26665 0.94228 0.0
C1292 C 0.43339 0.22697 0.88324 0.0
C1293 C 0.3699 0.28062 0.92158 0.0
H1294 H 0.37961 0.28072 0.82621 0.0
H1295 H 0.32542 0.22959 0.85807 0.0
H1296 H 0.41417 0.29457 0.87759 0.0
H1297 H 0.43643 0.2757 0.86434 0.0
H1298 H 0.41959 0.29461 0.84512 0.0
H1299 H 0.33313 0.21361 0.89604 0.0
H1300 H 0.37016 0.21356 0.90342 0.0
H1301 H 0.34748 0.23207 0.91681 0.0
H1302 H 0.46026 0.23118 0.92507 0.0
H1303 H 0.40702 0.2765 0.95724 0.0
H1304 H 0.43821 0.23687 0.86641 0.0
H1305 H 0.41519 0.2159 0.87972 0.0
H1306 H 0.45224 0.21767 0.88708 0.0
H1307 H 0.37262 0.2922 0.90596 0.0
H1308 H 0.36722 0.28938 0.93842 0.0
H1309 H 0.35002 0.27091 0.91913 0.0
C1310 C 0.26322 0.85849 0.37657 0.0
C1311 C 0.24262 0.84163 0.37867 0.0
C1312 C 0.26043 0.87648 0.39019 0.0
C1313 C 0.2366 0.87762 0.40657 0.0
C1314 C 0.21576 0.86068 0.40889 0.0
C1315 C 0.21897 0.84292 0.39487 0.0
C1316 C 0.28312 0.89421 0.38717 0.0
C1317 C 0.19013 0.8613 0.42626 0.0
C1318 C 0.24584 0.91544 0.45738 0.0
C1319 C 0.23196 0.93311 0.44867 0.0
C1320 C 0.24687 0.89709 0.44415 0.0
C1321 C 0.23391 0.89645 0.42154 0.0
C1322 C 0.21948 0.91412 0.41282 0.0
C1323 C 0.21855 0.93222 0.42656 0.0
C1324 C 0.26217 0.8785 0.45422 0.0
C1325 C 0.20563 0.91411 0.3887 0.0
H1326 H 0.28184 0.85751 0.36447 0.0
H1327 H 0.20278 0.83011 0.39642 0.0
H1328 H 0.2733 0.90921 0.38206 0.0
H1329 H 0.29343 0.89648 0.4046 0.0
H1330 H 0.29989 0.89114 0.37315 0.0
H1331 H 0.17586 0.84684 0.42595 0.0
H1332 H 0.19722 0.86303 0.44497 0.0
H1333 H 0.17767 0.87521 0.42167 0.0
H1334 H 0.25585 0.91595 0.47465 0.0
H1335 H 0.20797 0.9459 0.4197 0.0
H1336 H 0.2807 0.87538 0.44198 0.0
H1337 H 0.24773 0.86409 0.45519 0.0
H1338 H 0.26996 0.88117 0.47257 0.0
H1339 H 0.22211 0.91253 0.37398 0.0
H1340 H 0.19429 0.92877 0.38495 0.0
H1341 H 0.19018 0.90037 0.38816 0.0
C1342 C 0.65293 0.75018 0.85203 0.0
C1343 C 0.67033 0.76791 0.84397 0.0
C1344 C 0.63578 0.75038 0.87345 0.0
C1345 C 0.63597 0.76876 0.88707 0.0
C1346 C 0.65347 0.7867 0.87906 0.0
C1347 C 0.67048 0.78604 0.85765 0.0
C1348 C 0.61736 0.73095 0.88144 0.0
C1349 C 0.65424 0.80659 0.89312 0.0
C1350 C 0.5726 0.77659 0.93019 0.0
C1351 C 0.58329 0.7704 0.95245 0.0
C1352 C 0.58953 0.77613 0.90872 0.0
C1353 C 0.61775 0.76929 0.90968 0.0
C1354 C 0.62861 0.76308 0.93225 0.0
C1355 C 0.61121 0.7638 0.95345 0.0
C1356 C 0.57726 0.78298 0.88504 0.0
C1357 C 0.65854 0.75564 0.93399 0.0
H1358 H 0.65243 0.73622 0.84142 0.0
H1359 H 0.68421 0.79968 0.85176 0.0
H1360 H 0.62279 0.7254 0.89989 0.0
H1361 H 0.59457 0.73484 0.88239 0.0
H1362 H 0.61997 0.71783 0.86899 0.0
H1363 H 0.66885 0.81922 0.88433 0.0
H1364 H 0.63251 0.81264 0.89493 0.0
H1365 H 0.66126 0.80308 0.91168 0.0
H1366 H 0.55093 0.78172 0.92965 0.0
H1367 H 0.61932 0.75913 0.97083 0.0
H1368 H 0.57762 0.76988 0.8724 0.0
H1369 H 0.59053 0.7964 0.87637 0.0
H1370 H 0.55495 0.78789 0.88745 0.0
H1371 H 0.66126 0.74175 0.92274 0.0
H1372 H 0.66364 0.75124 0.9529 0.0
H1373 H 0.67421 0.76825 0.92678 0.0
loop_
_geom_bond_atom_site_label_1
_geom_bond_atom_site_label_2
_geom_bond_distance
_geom_bond_site_symmetry_2
_ccdc_geom_bond_type
C0 C1 1.384 . S
C0 H13 0.947 . S
C0 C35 1.382 . S
C1 C0 1.384 . S
C1 C2 1.378 . S
C2 C1 1.378 . S
C2 C3 1.378 . S
C2 H14 0.952 . S
C3 C2 1.378 . S
C3 H15 0.950 . S
C3 C34 1.383 . S
H4 C23 0.947 . S
H5 C24 0.946 . S
H6 C26 0.953 . S
H7 C27 0.945 . S
H8 C29 0.952 . S
H9 C30 0.949 . S
H10 C32 0.950 . S
H11 C33 0.948 . S
H12 C35 0.951 . S
H13 C0 0.947 . S
H14 C2 0.952 . S
H15 C3 0.950 . S
N16 C19 1.382 . S
N16 C21 1.363 . S
N17 C19 1.371 . S
N17 C20 1.372 . S
N18 C20 1.361 . S
N18 C21 1.377 . S
C19 N16 1.382 . S
C19 N17 1.371 . S
C19 C22 1.480 . S
C20 N17 1.372 . S
C20 N18 1.361 . S
C20 C28 1.457 . S
C21 N16 1.363 . S
C21 N18 1.377 . S
C21 C34 1.479 . S
C22 C19 1.480 . S
C22 C23 1.383 . S
C22 C27 1.385 . S
C23 H4 0.947 . S
C23 C22 1.383 . S
C23 C24 1.388 . S
C24 H5 0.946 . S
C24 C23 1.388 . S
C24 C25 1.384 . S
C25 C24 1.384 . S
C25 C26 1.377 . S
C26 H6 0.953 . S
C26 C25 1.377 . S
C26 C27 1.369 . S
C27 H7 0.945 . S
C27 C22 1.385 . S
C27 C26 1.369 . S
C28 C20 1.457 . S
C28 C29 1.372 . S
C28 C33 1.364 . S
C29 H8 0.952 . S
C29 C28 1.372 . S
C29 C30 1.389 . S
C30 H9 0.949 . S
C30 C29 1.389 . S
C30 C31 1.387 . S
C31 C30 1.387 . S
C31 C32 1.372 . S
C32 H10 0.950 . S
C32 C31 1.372 . S
C32 C33 1.379 . S
C33 H11 0.948 . S
C33 C28 1.364 . S
C33 C32 1.379 . S
C34 C3 1.383 . S
C34 C21 1.479 . S
C34 C35 1.398 . S
C35 C0 1.382 . S
C35 H12 0.951 . S
C35 C34 1.398 . S
C36 C37 1.384 . S
C36 H49 0.947 . S
C36 C71 1.382 . S
C37 C36 1.384 . S
C37 C38 1.378 . S
C38 C37 1.378 . S
C38 C39 1.378 . S
C38 H50 0.952 . S
C39 C38 1.378 . S
C39 H51 0.950 . S
C39 C70 1.383 . S
H40 C59 0.947 . S
H41 C60 0.946 . S
H42 C62 0.953 . S
H43 C63 0.945 . S
H44 C65 0.952 . S
H45 C66 0.949 . S
H46 C68 0.950 . S
H47 C69 0.948 . S
H48 C71 0.951 . S
H49 C36 0.947 . S
H50 C38 0.952 . S
H51 C39 0.950 . S
N52 C55 1.382 . S
N52 C57 1.363 . S
N53 C55 1.371 . S
N53 C56 1.372 . S
N54 C56 1.361 . S
N54 C57 1.377 . S
C55 N52 1.382 . S
C55 N53 1.371 . S
C55 C58 1.480 . S
C56 N53 1.372 . S
C56 N54 1.361 . S
C56 C64 1.457 . S
C57 N52 1.363 . S
C57 N54 1.377 . S
C57 C70 1.479 . S
C58 C55 1.480 . S
C58 C59 1.383 . S
C58 C63 1.385 . S
C59 H40 0.947 . S
C59 C58 1.383 . S
C59 C60 1.388 . S
C60 H41 0.946 . S
C60 C59 1.388 . S
C60 C61 1.384 . S
C61 C60 1.384 . S
C61 C62 1.377 . S
C62 H42 0.953 . S
C62 C61 1.377 . S
C62 C63 1.369 . S
C63 H43 0.945 . S
C63 C58 1.385 . S
C63 C62 1.369 . S
C64 C56 1.457 . S
C64 C65 1.372 . S
C64 C69 1.364 . S
C65 H44 0.952 . S
C65 C64 1.372 . S
C65 C66 1.389 . S
C66 H45 0.949 . S
C66 C65 1.389 . S
C66 C67 1.387 . S
C67 C66 1.387 . S
C67 C68 1.372 . S
C68 H46 0.950 . S
C68 C67 1.372 . S
C68 C69 1.379 . S
C69 H47 0.948 . S
C69 C64 1.364 . S
C69 C68 1.379 . S
C70 C39 1.383 . S
C70 C57 1.479 . S
C70 C71 1.398 . S
C71 C36 1.382 . S
C71 H48 0.951 . S
C71 C70 1.398 . S
C72 C73 1.384 . S
C72 H85 0.947 . S
C72 C107 1.382 . S
C73 C72 1.384 . S
C73 C74 1.378 . S
C74 C73 1.378 . S
C74 C75 1.378 . S
C74 H86 0.952 . S
C75 C74 1.378 . S
C75 H87 0.950 . S
C75 C106 1.383 . S
H76 C95 0.947 . S
H77 C96 0.946 . S
H78 C98 0.953 . S
H79 C99 0.945 . S
H80 C101 0.952 . S
H81 C102 0.949 . S
H82 C104 0.950 . S
H83 C105 0.948 . S
H84 C107 0.951 . S
H85 C72 0.947 . S
H86 C74 0.952 . S
H87 C75 0.950 . S
N88 C91 1.382 . S
N88 C93 1.363 . S
N89 C91 1.371 . S
N89 C92 1.372 . S
N90 C92 1.361 . S
N90 C93 1.377 . S
C91 N88 1.382 . S
C91 N89 1.371 . S
C91 C94 1.480 . S
C92 N89 1.372 . S
C92 N90 1.361 . S
C92 C100 1.457 . S
C93 N88 1.363 . S
C93 N90 1.377 . S
C93 C106 1.479 . S
C94 C91 1.480 . S
C94 C95 1.383 . S
C94 C99 1.385 . S
C95 H76 0.947 . S
C95 C94 1.383 . S
C95 C96 1.388 . S
C96 H77 0.946 . S
C96 C95 1.388 . S
C96 C97 1.384 . S
C97 C96 1.384 . S
C97 C98 1.377 . S
C98 H78 0.953 . S
C98 C97 1.377 . S
C98 C99 1.369 . S
C99 H79 0.945 . S
C99 C94 1.385 . S
C99 C98 1.369 . S
C100 C92 1.457 . S
C100 C101 1.372 . S
C100 C105 1.364 . S
C101 H80 0.952 . S
C101 C100 1.372 . S
C101 C102 1.389 . S
C102 H81 0.949 . S
C102 C101 1.389 . S
C102 C103 1.387 . S
C103 C102 1.387 . S
C103 C104 1.372 . S
C104 H82 0.950 . S
C104 C103 1.372 . S
C104 C105 1.379 . S
C105 H83 0.948 . S
C105 C100 1.364 . S
C105 C104 1.379 . S
C106 C75 1.383 . S
C106 C93 1.479 . S
C106 C107 1.398 . S
C107 C72 1.382 . S
C107 H84 0.951 . S
C107 C106 1.398 . S
C108 C109 1.384 . S
C108 H121 0.947 . S
C108 C143 1.382 . S
C109 C108 1.384 . S
C109 C110 1.378 . S
C110 C109 1.378 . S
C110 C111 1.378 . S
C110 H122 0.952 . S
C111 C110 1.378 . S
C111 H123 0.950 . S
C111 C142 1.383 . S
H112 C131 0.947 . S
H113 C132 0.946 . S
H114 C134 0.953 . S
H115 C135 0.945 . S
H116 C137 0.952 . S
H117 C138 0.949 . S
H118 C140 0.950 . S
H119 C141 0.948 . S
H120 C143 0.951 . S
H121 C108 0.947 . S
H122 C110 0.952 . S
H123 C111 0.950 . S
N124 C127 1.382 . S
N124 C129 1.363 . S
N125 C127 1.371 . S
N125 C128 1.372 . S
N126 C128 1.361 . S
N126 C129 1.377 . S
C127 N124 1.382 . S
C127 N125 1.371 . S
C127 C130 1.480 . S
C128 N125 1.372 . S
C128 N126 1.361 . S
C128 C136 1.457 . S
C129 N124 1.363 . S
C129 N126 1.377 . S
C129 C142 1.479 . S
C130 C127 1.480 . S
C130 C131 1.383 . S
C130 C135 1.385 . S
C131 H112 0.947 . S
C131 C130 1.383 . S
C131 C132 1.388 . S
C132 H113 0.946 . S
C132 C131 1.388 . S
C132 C133 1.384 . S
C133 C132 1.384 . S
C133 C134 1.377 . S
C134 H114 0.953 . S
C134 C133 1.377 . S
C134 C135 1.369 . S
C135 H115 0.945 . S
C135 C130 1.385 . S
C135 C134 1.369 . S
C136 C128 1.457 . S
C136 C137 1.372 . S
C136 C141 1.364 . S
C137 H116 0.952 . S
C137 C136 1.372 . S
C137 C138 1.389 . S
C138 H117 0.949 . S
C138 C137 1.389 . S
C138 C139 1.387 . S
C139 C138 1.387 . S
C139 C140 1.372 . S
C140 H118 0.950 . S
C140 C139 1.372 . S
C140 C141 1.379 . S
C141 H119 0.948 . S
C141 C136 1.364 . S
C141 C140 1.379 . S
C142 C111 1.383 . S
C142 C129 1.479 . S
C142 C143 1.398 . S
C143 C108 1.382 . S
C143 H120 0.951 . S
C143 C142 1.398 . S
C144 C145 1.384 . S
C144 H157 0.947 . S
C144 C179 1.382 . S
C145 C144 1.384 . S
C145 C146 1.378 . S
C146 C145 1.378 . S
C146 C147 1.378 . S
C146 H158 0.952 . S
C147 C146 1.378 . S
C147 H159 0.950 . S
C147 C178 1.383 . S
H148 C167 0.947 . S
H149 C168 0.946 . S
H150 C170 0.953 . S
H151 C171 0.945 . S
H152 C173 0.952 . S
H153 C174 0.949 . S
H154 C176 0.950 . S
H155 C177 0.948 . S
H156 C179 0.951 . S
H157 C144 0.947 . S
H158 C146 0.952 . S
H159 C147 0.950 . S
N160 C163 1.382 . S
N160 C165 1.363 . S
N161 C163 1.371 . S
N161 C164 1.372 . S
N162 C164 1.361 . S
N162 C165 1.377 . S
C163 N160 1.382 . S
C163 N161 1.371 . S
C163 C166 1.480 . S
C164 N161 1.372 . S
C164 N162 1.361 . S
C164 C172 1.457 . S
C165 N160 1.363 . S
C165 N162 1.377 . S
C165 C178 1.479 . S
C166 C163 1.480 . S
C166 C167 1.383 . S
C166 C171 1.385 . S
C167 H148 0.947 . S
C167 C166 1.383 . S
C167 C168 1.388 . S
C168 H149 0.946 . S
C168 C167 1.388 . S
C168 C169 1.384 . S
C169 C168 1.384 . S
C169 C170 1.377 . S
C170 H150 0.953 . S
C170 C169 1.377 . S
C170 C171 1.369 . S
C171 H151 0.945 . S
C171 C166 1.385 . S
C171 C170 1.369 . S
C172 C164 1.457 . S
C172 C173 1.372 . S
C172 C177 1.364 . S
C173 H152 0.952 . S
C173 C172 1.372 . S
C173 C174 1.389 . S
C174 H153 0.949 . S
C174 C173 1.389 . S
C174 C175 1.387 . S
C175 C174 1.387 . S
C175 C176 1.372 . S
C176 H154 0.950 . S
C176 C175 1.372 . S
C176 C177 1.379 . S
C177 H155 0.948 . S
C177 C172 1.364 . S
C177 C176 1.379 . S
C178 C147 1.383 . S
C178 C165 1.479 . S
C178 C179 1.398 . S
C179 C144 1.382 . S
C179 H156 0.951 . S
C179 C178 1.398 . S
C180 C181 1.384 . S
C180 H193 0.947 . S
C180 C215 1.382 . S
C181 C180 1.384 . S
C181 C182 1.378 . S
C182 C181 1.378 . S
C182 C183 1.378 . S
C182 H194 0.952 . S
C183 C182 1.378 . S
C183 H195 0.950 . S
C183 C214 1.383 . S
H184 C203 0.947 . S
H185 C204 0.946 . S
H186 C206 0.953 . S
H187 C207 0.945 . S
H188 C209 0.952 . S
H189 C210 0.949 . S
H190 C212 0.950 . S
H191 C213 0.948 . S
H192 C215 0.951 . S
H193 C180 0.947 . S
H194 C182 0.952 . S
H195 C183 0.950 . S
N196 C199 1.382 . S
N196 C201 1.363 . S
N197 C199 1.371 . S
N197 C200 1.372 . S
N198 C200 1.361 . S
N198 C201 1.377 . S
C199 N196 1.382 . S
C199 N197 1.371 . S
C199 C202 1.480 . S
C200 N197 1.372 . S
C200 N198 1.361 . S
C200 C208 1.457 . S
C201 N196 1.363 . S
C201 N198 1.377 . S
C201 C214 1.479 . S
C202 C199 1.480 . S
C202 C203 1.383 . S
C202 C207 1.385 . S
C203 H184 0.947 . S
C203 C202 1.383 . S
C203 C204 1.388 . S
C204 H185 0.946 . S
C204 C203 1.388 . S
C204 C205 1.384 . S
C205 C204 1.384 . S
C205 C206 1.377 . S
C206 H186 0.953 . S
C206 C205 1.377 . S
C206 C207 1.369 . S
C207 H187 0.945 . S
C207 C202 1.385 . S
C207 C206 1.369 . S
C208 C200 1.457 . S
C208 C209 1.372 . S
C208 C213 1.364 . S
C209 H188 0.952 . S
C209 C208 1.372 . S
C209 C210 1.389 . S
C210 H189 0.949 . S
C210 C209 1.389 . S
C210 C211 1.387 . S
C211 C210 1.387 . S
C211 C212 1.372 . S
C212 H190 0.950 . S
C212 C211 1.372 . S
C212 C213 1.379 . S
C213 H191 0.948 . S
C213 C208 1.364 . S
C213 C212 1.379 . S
C214 C183 1.383 . S
C214 C201 1.479 . S
C214 C215 1.398 . S
C215 C180 1.382 . S
C215 H192 0.951 . S
C215 C214 1.398 . S
C216 C217 1.384 . S
C216 H229 0.947 . S
C216 C251 1.382 . S
C217 C216 1.384 . S
C217 C218 1.378 . S
C218 C217 1.378 . S
C218 C219 1.378 . S
C218 H230 0.952 . S
C219 C218 1.378 . S
C219 H231 0.950 . S
C219 C250 1.383 . S
H220 C239 0.947 . S
H221 C240 0.946 . S
H222 C242 0.953 . S
H223 C243 0.945 . S
H224 C245 0.952 . S
H225 C246 0.949 . S
H226 C248 0.950 . S
H227 C249 0.948 . S
H228 C251 0.951 . S
H229 C216 0.947 . S
H230 C218 0.952 . S
H231 C219 0.950 . S
N232 C235 1.382 . S
N232 C237 1.363 . S
N233 C235 1.371 . S
N233 C236 1.372 . S
N234 C236 1.361 . S
N234 C237 1.377 . S
C235 N232 1.382 . S
C235 N233 1.371 . S
C235 C238 1.480 . S
C236 N233 1.372 . S
C236 N234 1.361 . S
C236 C244 1.457 . S
C237 N232 1.363 . S
C237 N234 1.377 . S
C237 C250 1.479 . S
C238 C235 1.480 . S
C238 C239 1.383 . S
C238 C243 1.385 . S
C239 H220 0.947 . S
C239 C238 1.383 . S
C239 C240 1.388 . S
C240 H221 0.946 . S
C240 C239 1.388 . S
C240 C241 1.384 . S
C241 C240 1.384 . S
C241 C242 1.377 . S
C242 H222 0.953 . S
C242 C241 1.377 . S
C242 C243 1.369 . S
C243 H223 0.945 . S
C243 C238 1.385 . S
C243 C242 1.369 . S
C244 C236 1.457 . S
C244 C245 1.372 . S
C244 C249 1.364 . S
C245 H224 0.952 . S
C245 C244 1.372 . S
C245 C246 1.389 . S
C246 H225 0.949 . S
C246 C245 1.389 . S
C246 C247 1.387 . S
C247 C246 1.387 . S
C247 C248 1.372 . S
C248 H226 0.950 . S
C248 C247 1.372 . S
C248 C249 1.379 . S
C249 H227 0.948 . S
C249 C244 1.364 . S
C249 C248 1.379 . S
C250 C219 1.383 . S
C250 C237 1.479 . S
C250 C251 1.398 . S
C251 C216 1.382 . S
C251 H228 0.951 . S
C251 C250 1.398 . S
C252 C253 1.384 . S
C252 H265 0.947 . S
C252 C287 1.382 . S
C253 C252 1.384 . S
C253 C254 1.378 . S
C254 C253 1.378 . S
C254 C255 1.378 . S
C254 H266 0.952 . S
C255 C254 1.378 . S
C255 H267 0.950 . S
C255 C286 1.383 . S
H256 C275 0.947 . S
H257 C276 0.946 . S
H258 C278 0.953 . S
H259 C279 0.945 . S
H260 C281 0.952 . S
H261 C282 0.949 . S
H262 C284 0.950 . S
H263 C285 0.948 . S
H264 C287 0.951 . S
H265 C252 0.947 . S
H266 C254 0.952 . S
H267 C255 0.950 . S
N268 C271 1.382 . S
N268 C273 1.363 . S
N269 C271 1.371 . S
N269 C272 1.372 . S
N270 C272 1.361 . S
N270 C273 1.377 . S
C271 N268 1.382 . S
C271 N269 1.371 . S
C271 C274 1.480 . S
C272 N269 1.372 . S
C272 N270 1.361 . S
C272 C280 1.457 . S
C273 N268 1.363 . S
C273 N270 1.377 . S
C273 C286 1.479 . S
C274 C271 1.480 . S
C274 C275 1.383 . S
C274 C279 1.385 . S
C275 H256 0.947 . S
C275 C274 1.383 . S
C275 C276 1.388 . S
C276 H257 0.946 . S
C276 C275 1.388 . S
C276 C277 1.384 . S
C277 C276 1.384 . S
C277 C278 1.377 . S
C278 H258 0.953 . S
C278 C277 1.377 . S
C278 C279 1.369 . S
C279 H259 0.945 . S
C279 C274 1.385 . S
C279 C278 1.369 . S
C280 C272 1.457 . S
C280 C281 1.372 . S
C280 C285 1.364 . S
C281 H260 0.952 . S
C281 C280 1.372 . S
C281 C282 1.389 . S
C282 H261 0.949 . S
C282 C281 1.389 . S
C282 C283 1.387 . S
C283 C282 1.387 . S
C283 C284 1.372 . S
C284 H262 0.950 . S
C284 C283 1.372 . S
C284 C285 1.379 . S
C285 H263 0.948 . S
C285 C280 1.364 . S
C285 C284 1.379 . S
C286 C255 1.383 . S
C286 C273 1.479 . S
C286 C287 1.398 . S
C287 C252 1.382 . S
C287 H264 0.951 . S
C287 C286 1.398 . S
C288 C289 1.443 . S
C288 N292 1.376 . S
C288 C326 1.389 . S
C289 C288 1.443 . S
C289 C290 1.340 . S
C289 H329 0.951 . S
C290 C289 1.340 . S
C290 C291 1.439 . S
C290 H330 0.950 . S
C291 C290 1.439 . S
C291 N292 1.374 . S
C291 C325 1.395 . S
N292 C288 1.376 . S
N292 C291 1.374 . S
N292 Co293 2.008 . S
Co293 N292 2.008 . S
Co293 N294 1.995 1_455 S
Co293 N299 2.008 . S
Co293 N304 1.995 . S
Co293 N309 2.282 . S
Co293 N315 2.282 1_455 S
N294 Co293 1.995 1_655 S
N294 C295 1.376 . S
N294 C298 1.383 . S
C295 N294 1.376 . S
C295 C296 1.446 . S
C295 C325 1.391 1_655 S
C296 C295 1.446 . S
C296 C297 1.339 . S
C296 H331 0.949 . S
C297 C296 1.339 . S
C297 C298 1.439 . S
C297 H332 0.950 . S
C298 N294 1.383 . S
C298 C297 1.439 . S
C298 C327 1.392 . S
N299 Co293 2.008 . S
N299 C300 1.376 1_455 S
N299 C303 1.374 . S
C300 N299 1.376 1_655 S
C300 C301 1.443 . S
C300 C327 1.389 . S
C301 C300 1.443 . S
C301 C302 1.340 . S
C301 H333 0.951 . S
C302 C301 1.340 . S
C302 C303 1.439 1_655 S
C302 H334 0.950 . S
C303 N299 1.374 . S
C303 C302 1.439 1_455 S
C303 C328 1.395 . S
N304 Co293 1.995 . S
N304 C305 1.376 . S
N304 C308 1.383 . S
C305 N304 1.376 . S
C305 C306 1.446 . S
C305 C328 1.391 . S
C306 C305 1.446 . S
C306 C307 1.339 . S
C306 H335 0.949 . S
C307 C306 1.339 . S
C307 C308 1.439 . S
C307 H336 0.950 . S
C308 N304 1.383 . S
C308 C307 1.439 . S
C308 C326 1.392 . S
N309 Co293 2.282 . S
N309 C312 1.332 . S
N309 C314 1.332 . S
C310 C311 1.386 . S
C310 C313 1.388 . S
C311 C310 1.386 . S
C311 C312 1.382 . S
C311 H337 0.950 . S
C312 N309 1.332 . S
C312 C311 1.382 . S
C312 H323 0.952 . S
C313 C310 1.388 . S
C313 C314 1.382 . S
C313 H338 0.950 . S
C314 N309 1.332 . S
C314 C313 1.382 . S
C314 H324 0.948 . S
N315 Co293 2.282 1_655 S
N315 C319 1.332 . S
N315 C320 1.332 . S
C316 C317 1.388 . S
C316 C320 1.382 . S
C316 H339 0.950 . S
C317 C316 1.388 . S
C317 C318 1.386 . S
C318 C317 1.386 . S
C318 C319 1.382 . S
C318 H340 0.950 . S
C319 N315 1.332 . S
C319 C318 1.382 . S
C319 H321 0.952 . S
C320 N315 1.332 . S
C320 C316 1.382 . S
C320 H322 0.948 . S
H321 C319 0.952 . S
H322 C320 0.948 . S
H323 C312 0.952 . S
H324 C314 0.948 . S
C325 C291 1.395 . S
C325 C295 1.391 1_455 S
C326 C288 1.389 . S
C326 C308 1.392 . S
C327 C298 1.392 . S
C327 C300 1.389 . S
C328 C303 1.395 . S
C328 C305 1.391 . S
H329 C289 0.951 . S
H330 C290 0.950 . S
H331 C296 0.949 . S
H332 C297 0.950 . S
H333 C301 0.951 . S
H334 C302 0.950 . S
H335 C306 0.949 . S
H336 C307 0.950 . S
H337 C311 0.950 . S
H338 C313 0.950 . S
H339 C316 0.950 . S
H340 C318 0.950 . S
C341 C342 1.443 . S
C341 N345 1.376 . S
C341 C379 1.389 . S
C342 C341 1.443 . S
C342 C343 1.340 . S
C342 H382 0.951 . S
C343 C342 1.340 . S
C343 C344 1.439 . S
C343 H383 0.950 . S
C344 C343 1.439 . S
C344 N345 1.374 . S
C344 C378 1.395 . S
N345 C341 1.376 . S
N345 C344 1.374 . S
N345 Co346 2.008 . S
Co346 N345 2.008 . S
Co346 N347 1.995 1_455 S
Co346 N352 2.008 1_455 S
Co346 N357 1.995 . S
Co346 N362 2.282 . S
Co346 N368 2.282 1_455 S
N347 Co346 1.995 1_655 S
N347 C348 1.376 . S
N347 C351 1.383 . S
C348 N347 1.376 . S
C348 C349 1.446 . S
C348 C378 1.391 1_655 S
C349 C348 1.446 . S
C349 C350 1.339 . S
C349 H384 0.949 . S
C350 C349 1.339 . S
C350 C351 1.439 . S
C350 H385 0.950 . S
C351 N347 1.383 . S
C351 C350 1.439 . S
C351 C380 1.392 . S
N352 Co346 2.008 1_655 S
N352 C353 1.376 . S
N352 C356 1.368 1_655 S
C353 N352 1.376 . S
C353 C354 1.443 . S
C353 C380 1.389 . S
C354 C353 1.443 . S
C354 C355 1.340 . S
C354 H386 0.951 . S
C355 C354 1.340 . S
C355 C356 1.422 1_655 S
C355 H387 0.950 . S
C356 N352 1.368 1_455 S
C356 C355 1.422 1_455 S
C356 C381 1.418 . S
N357 Co346 1.995 . S
N357 C358 1.376 . S
N357 C361 1.383 . S
C358 N357 1.376 . S
C358 C359 1.446 . S
C358 C381 1.391 . S
C359 C358 1.446 . S
C359 C360 1.339 . S
C359 H388 0.949 . S
C360 C359 1.339 . S
C360 C361 1.439 . S
C360 H389 0.950 . S
C361 N357 1.383 . S
C361 C360 1.439 . S
C361 C379 1.392 . S
N362 Co346 2.282 . S
N362 C365 1.332 . S
N362 C367 1.332 . S
C363 C364 1.386 . S
C363 C366 1.388 . S
C364 C363 1.386 . S
C364 C365 1.382 . S
C364 H390 0.950 . S
C365 N362 1.332 . S
C365 C364 1.382 . S
C365 H376 0.952 . S
C366 C363 1.388 . S
C366 C367 1.382 . S
C366 H391 0.950 . S
C367 N362 1.332 . S
C367 C366 1.382 . S
C367 H377 0.948 . S
N368 Co346 2.282 1_655 S
N368 C372 1.332 . S
N368 C373 1.332 . S
C369 C370 1.388 . S
C369 C373 1.382 . S
C369 H392 0.950 . S
C370 C369 1.388 . S
C370 C371 1.386 . S
C371 C370 1.386 . S
C371 C372 1.382 . S
C371 H393 0.950 . S
C372 N368 1.332 . S
C372 C371 1.382 . S
C372 H374 0.952 . S
C373 N368 1.332 . S
C373 C369 1.382 . S
C373 H375 0.948 . S
H374 C372 0.952 . S
H375 C373 0.948 . S
H376 C365 0.952 . S
H377 C367 0.948 . S
C378 C344 1.395 . S
C378 C348 1.391 1_455 S
C379 C341 1.389 . S
C379 C361 1.392 . S
C380 C351 1.392 . S
C380 C353 1.389 . S
C381 C356 1.418 . S
C381 C358 1.391 . S
H382 C342 0.951 . S
H383 C343 0.950 . S
H384 C349 0.949 . S
H385 C350 0.950 . S
H386 C354 0.951 . S
H387 C355 0.950 . S
H388 C359 0.949 . S
H389 C360 0.950 . S
H390 C364 0.950 . S
H391 C366 0.950 . S
H392 C369 0.950 . S
H393 C371 0.950 . S
C394 C395 1.443 . S
C394 N398 1.376 . S
C394 C432 1.389 . S
C395 C394 1.443 . S
C395 C396 1.340 . S
C395 H435 0.951 . S
C396 C395 1.340 . S
C396 C397 1.439 . S
C396 H436 0.950 . S
C397 C396 1.439 . S
C397 N398 1.374 . S
C397 C431 1.395 1_565 S
N398 C394 1.376 . S
N398 C397 1.374 . S
N398 Co399 2.008 1_565 S
Co399 N398 2.008 1_545 S
Co399 N400 1.995 . S
Co399 N405 2.008 . S
Co399 N410 1.995 1_545 S
Co399 N415 2.282 . S
Co399 N421 2.282 1_545 S
N400 Co399 1.995 . S
N400 C401 1.376 . S
N400 C404 1.383 . S
C401 N400 1.376 . S
C401 C402 1.446 . S
C401 C431 1.391 . S
C402 C401 1.446 . S
C402 C403 1.339 . S
C402 H437 0.949 . S
C403 C402 1.339 . S
C403 C404 1.439 . S
C403 H438 0.950 . S
C404 N400 1.383 . S
C404 C403 1.439 . S
C404 C433 1.392 . S
N405 Co399 2.008 . S
N405 C406 1.376 . S
N405 C409 1.374 . S
C406 N405 1.376 . S
C406 C407 1.443 . S
C406 C433 1.389 . S
C407 C406 1.443 . S
C407 C408 1.340 . S
C407 H439 0.951 . S
C408 C407 1.340 . S
C408 C409 1.439 . S
C408 H440 0.950 . S
C409 N405 1.374 . S
C409 C408 1.439 . S
C409 C434 1.395 . S
N410 Co399 1.995 1_565 S
N410 C411 1.376 . S
N410 C414 1.383 . S
C411 N410 1.376 . S
C411 C412 1.446 . S
C411 C434 1.391 1_565 S
C412 C411 1.446 . S
C412 C413 1.339 . S
C412 H441 0.949 . S
C413 C412 1.339 . S
C413 C414 1.439 . S
C413 H442 0.950 . S
C414 N410 1.383 . S
C414 C413 1.439 . S
C414 C432 1.392 . S
N415 Co399 2.282 . S
N415 C418 1.332 . S
N415 C420 1.332 . S
C416 C417 1.386 . S
C416 C419 1.388 . S
C417 C416 1.386 . S
C417 C418 1.382 . S
C417 H443 0.950 . S
C418 N415 1.332 . S
C418 C417 1.382 . S
C418 H429 0.952 . S
C419 C416 1.388 . S
C419 C420 1.382 . S
C419 H444 0.950 . S
C420 N415 1.332 . S
C420 C419 1.382 . S
C420 H430 0.948 . S
N421 Co399 2.282 1_565 S
N421 C425 1.332 . S
N421 C426 1.332 . S
C422 C423 1.388 . S
C422 C426 1.382 . S
C422 H445 0.950 . S
C423 C422 1.388 . S
C423 C424 1.386 . S
C424 C423 1.386 . S
C424 C425 1.382 . S
C424 H446 0.950 . S
C425 N421 1.332 . S
C425 C424 1.382 . S
C425 H427 0.952 . S
C426 N421 1.332 . S
C426 C422 1.382 . S
C426 H428 0.948 . S
H427 C425 0.952 . S
H428 C426 0.948 . S
H429 C418 0.952 . S
H430 C420 0.948 . S
C431 C397 1.395 1_545 S
C431 C401 1.391 . S
C432 C394 1.389 . S
C432 C414 1.392 . S
C433 C404 1.392 . S
C433 C406 1.389 . S
C434 C409 1.395 . S
C434 C411 1.391 1_545 S
H435 C395 0.951 . S
H436 C396 0.950 . S
H437 C402 0.949 . S
H438 C403 0.950 . S
H439 C407 0.951 . S
H440 C408 0.950 . S
H441 C412 0.949 . S
H442 C413 0.950 . S
H443 C417 0.950 . S
H444 C419 0.950 . S
H445 C422 0.950 . S
H446 C424 0.950 . S
C447 C448 1.443 . S
C447 N451 1.376 . S
C447 C485 1.389 . S
C448 C447 1.443 . S
C448 C449 1.340 . S
C448 H488 0.951 . S
C449 C448 1.340 . S
C449 C450 1.439 . S
C449 H489 0.950 . S
C450 C449 1.439 . S
C450 N451 1.374 . S
C450 C484 1.395 . S
N451 C447 1.376 . S
N451 C450 1.374 . S
N451 Co452 2.008 . S
Co452 N451 2.008 . S
Co452 N453 2.009 . S
Co452 N458 1.989 1_554 S
Co452 N463 1.995 . S
Co452 N468 2.282 1_554 S
Co452 N474 2.282 . S
N453 Co452 2.009 . S
N453 C454 1.381 . S
N453 C457 1.358 1_554 S
C454 N453 1.381 . S
C454 C455 1.446 1_554 S
C454 C484 1.391 . S
C455 C454 1.446 1_556 S
C455 C456 1.339 . S
C455 H490 0.949 . S
C456 C455 1.339 . S
C456 C457 1.439 . S
C456 H491 0.950 . S
C457 N453 1.358 1_556 S
C457 C456 1.439 . S
C457 C486 1.392 . S
N458 Co452 1.989 1_556 S
N458 C459 1.404 . S
N458 C462 1.375 1_556 S
C459 N458 1.404 . S
C459 C460 1.443 . S
C459 C486 1.389 . S
C460 C459 1.443 . S
C460 C461 1.340 . S
C460 H492 0.951 . S
C461 C460 1.340 . S
C461 C462 1.421 1_556 S
C461 H493 0.950 . S
C462 N458 1.375 1_554 S
C462 C461 1.421 1_554 S
C462 C487 1.410 . S
N463 Co452 1.995 . S
N463 C464 1.376 . S
N463 C467 1.383 . S
C464 N463 1.376 . S
C464 C465 1.446 . S
C464 C487 1.391 . S
C465 C464 1.446 . S
C465 C466 1.339 . S
C465 H494 0.949 . S
C466 C465 1.339 . S
C466 C467 1.439 . S
C466 H495 0.950 . S
C467 N463 1.383 . S
C467 C466 1.439 . S
C467 C485 1.392 . S
N468 Co452 2.282 1_556 S
N468 C471 1.332 . S
N468 C473 1.332 . S
C469 C470 1.386 . S
C469 C472 1.388 . S
C470 C469 1.386 . S
C470 C471 1.382 . S
C470 H496 0.950 . S
C471 N468 1.332 . S
C471 C470 1.382 . S
C471 H482 0.952 . S
C472 C469 1.388 . S
C472 C473 1.382 . S
C472 H497 0.950 . S
C473 N468 1.332 . S
C473 C472 1.382 . S
C473 H483 0.948 . S
N474 Co452 2.282 . S
N474 C478 1.332 . S
N474 C479 1.332 . S
C475 C476 1.388 . S
C475 C479 1.382 . S
C475 H498 0.950 . S
C476 C475 1.388 . S
C476 C477 1.386 . S
C477 C476 1.386 . S
C477 C478 1.382 . S
C477 H499 0.950 . S
C478 N474 1.332 . S
C478 C477 1.382 . S
C478 H480 0.952 . S
C479 N474 1.332 . S
C479 C475 1.382 . S
C479 H481 0.948 . S
H480 C478 0.952 . S
H481 C479 0.948 . S
H482 C471 0.952 . S
H483 C473 0.948 . S
C484 C450 1.395 . S
C484 C454 1.391 . S
C485 C447 1.389 . S
C485 C467 1.392 . S
C486 C457 1.392 . S
C486 C459 1.389 . S
C487 C462 1.410 . S
C487 C464 1.391 . S
H488 C448 0.951 . S
H489 C449 0.950 . S
H490 C455 0.949 . S
H491 C456 0.950 . S
H492 C460 0.951 . S
H493 C461 0.950 . S
H494 C465 0.949 . S
H495 C466 0.950 . S
H496 C470 0.950 . S
H497 C472 0.950 . S
H498 C475 0.950 . S
H499 C477 0.950 . S
C500 C501 1.443 . S
C500 N504 1.351 1_565 S
C500 C538 1.389 . S
C501 C500 1.443 . S
C501 C502 1.340 . S
C501 H541 0.951 . S
C502 C501 1.340 . S
C502 C503 1.439 1_565 S
C502 H542 0.950 . S
C503 C502 1.439 1_545 S
C503 N504 1.374 . S
C503 C537 1.395 . S
N504 C500 1.351 1_545 S
N504 C503 1.374 . S
N504 Co505 2.027 . S
Co505 N504 2.027 . S
Co505 N506 1.995 . S
Co505 N511 2.008 . S
Co505 N516 1.995 . S
Co505 N521 2.282 . S
Co505 N527 2.282 1_545 S
N506 Co505 1.995 . S
N506 C507 1.376 . S
N506 C510 1.383 . S
C507 N506 1.376 . S
C507 C508 1.446 . S
C507 C537 1.391 . S
C508 C507 1.446 . S
C508 C509 1.339 . S
C508 H543 0.949 . S
C509 C508 1.339 . S
C509 C510 1.439 . S
C509 H544 0.950 . S
C510 N506 1.383 . S
C510 C509 1.439 . S
C510 C539 1.392 . S
N511 Co505 2.008 . S
N511 C512 1.376 . S
N511 C515 1.374 . S
C512 N511 1.376 . S
C512 C513 1.443 . S
C512 C539 1.389 . S
C513 C512 1.443 . S
C513 C514 1.340 . S
C513 H545 0.951 . S
C514 C513 1.340 . S
C514 C515 1.439 . S
C514 H546 0.950 . S
C515 N511 1.374 . S
C515 C514 1.439 . S
C515 C540 1.395 . S
N516 Co505 1.995 . S
N516 C517 1.376 . S
N516 C520 1.383 1_545 S
C517 N516 1.376 . S
C517 C518 1.446 1_545 S
C517 C540 1.391 . S
C518 C517 1.446 1_565 S
C518 C519 1.339 . S
C518 H547 0.949 . S
C519 C518 1.339 . S
C519 C520 1.439 . S
C519 H548 0.950 . S
C520 N516 1.383 1_565 S
C520 C519 1.439 . S
C520 C538 1.392 . S
N521 Co505 2.282 . S
N521 C524 1.332 . S
N521 C526 1.332 . S
C522 C523 1.386 . S
C522 C525 1.388 . S
C523 C522 1.386 . S
C523 C524 1.382 . S
C523 H549 0.950 . S
C524 N521 1.332 . S
C524 C523 1.382 . S
C524 H535 0.952 . S
C525 C522 1.388 . S
C525 C526 1.382 . S
C525 H550 0.950 . S
C526 N521 1.332 . S
C526 C525 1.382 . S
C526 H536 0.948 . S
N527 Co505 2.282 1_565 S
N527 C531 1.332 . S
N527 C532 1.332 . S
C528 C529 1.388 . S
C528 C532 1.382 . S
C528 H551 0.950 . S
C529 C528 1.388 . S
C529 C530 1.386 . S
C530 C529 1.386 . S
C530 C531 1.382 . S
C530 H552 0.950 . S
C531 N527 1.332 . S
C531 C530 1.382 . S
C531 H533 0.952 . S
C532 N527 1.332 . S
C532 C528 1.382 . S
C532 H534 0.948 . S
H533 C531 0.952 . S
H534 C532 0.948 . S
H535 C524 0.952 . S
H536 C526 0.948 . S
C537 C503 1.395 . S
C537 C507 1.391 . S
C538 C500 1.389 . S
C538 C520 1.392 . S
C539 C510 1.392 . S
C539 C512 1.389 . S
C540 C515 1.395 . S
C540 C517 1.391 . S
H541 C501 0.951 . S
H542 C502 0.950 . S
H543 C508 0.949 . S
H544 C509 0.950 . S
H545 C513 0.951 . S
H546 C514 0.950 . S
H547 C518 0.949 . S
H548 C519 0.950 . S
H549 C523 0.950 . S
H550 C525 0.950 . S
H551 C528 0.950 . S
H552 C530 0.950 . S
C553 C554 1.443 . S
C553 N557 1.376 . S
C553 C591 1.389 . S
C554 C553 1.443 . S
C554 C555 1.340 . S
C554 H594 0.951 . S
C555 C554 1.340 . S
C555 C556 1.439 . S
C555 H595 0.950 . S
C556 C555 1.439 . S
C556 N557 1.374 . S
C556 C590 1.395 . S
N557 C553 1.376 . S
N557 C556 1.374 . S
N557 Co558 2.008 . S
Co558 N557 2.008 . S
Co558 N559 1.995 . S
Co558 N564 2.008 . S
Co558 N569 1.995 . S
Co558 N574 2.281 . S
Co558 N580 2.282 . S
N559 Co558 1.995 . S
N559 C560 1.376 . S
N559 C563 1.383 1_554 S
C560 N559 1.376 . S
C560 C561 1.446 1_554 S
C560 C590 1.391 . S
C561 C560 1.446 1_556 S
C561 C562 1.339 . S
C561 H596 0.949 . S
C562 C561 1.339 . S
C562 C563 1.439 . S
C562 H597 0.950 . S
C563 N559 1.383 1_556 S
C563 C562 1.439 . S
C563 C592 1.392 . S
N564 Co558 2.008 . S
N564 C565 1.376 1_554 S
N564 C568 1.374 . S
C565 N564 1.376 1_556 S
C565 C566 1.443 . S
C565 C592 1.389 . S
C566 C565 1.443 . S
C566 C567 1.340 . S
C566 H598 0.951 . S
C567 C566 1.340 . S
C567 C568 1.439 1_556 S
C567 H599 0.950 . S
C568 N564 1.374 . S
C568 C567 1.439 1_554 S
C568 C593 1.395 . S
N569 Co558 1.995 . S
N569 C570 1.376 . S
N569 C573 1.383 . S
C570 N569 1.376 . S
C570 C571 1.446 . S
C570 C593 1.391 . S
C571 C570 1.446 . S
C571 C572 1.339 . S
C571 H600 0.949 . S
C572 C571 1.339 . S
C572 C573 1.439 . S
C572 H601 0.950 . S
C573 N569 1.383 . S
C573 C572 1.439 . S
C573 C591 1.392 . S
N574 Co558 2.281 . S
N574 C577 1.333 1_554 S
N574 C579 1.333 1_554 S
C575 C576 1.386 . S
C575 C578 1.388 . S
C576 C575 1.386 . S
C576 C577 1.382 . S
C576 H602 0.950 . S
C577 N574 1.333 1_556 S
C577 C576 1.382 . S
C577 H588 0.952 1_556 S
C578 C575 1.388 . S
C578 C579 1.382 . S
C578 H603 0.950 . S
C579 N574 1.333 1_556 S
C579 C578 1.382 . S
C579 H589 0.948 . S
N580 Co558 2.282 . S
N580 C584 1.332 . S
N580 C585 1.332 . S
C581 C582 1.388 . S
C581 C585 1.382 . S
C581 H604 0.950 . S
C582 C581 1.388 . S
C582 C583 1.386 . S
C583 C582 1.386 . S
C583 C584 1.382 . S
C583 H605 0.950 . S
C584 N580 1.332 . S
C584 C583 1.382 . S
C584 H586 0.952 . S
C585 N580 1.332 . S
C585 C581 1.382 . S
C585 H587 0.948 . S
H586 C584 0.952 . S
H587 C585 0.948 . S
H588 C577 0.952 1_554 S
H589 C579 0.948 . S
C590 C556 1.395 . S
C590 C560 1.391 . S
C591 C553 1.389 . S
C591 C573 1.392 . S
C592 C563 1.392 . S
C592 C565 1.389 . S
C593 C568 1.395 . S
C593 C570 1.391 . S
H594 C554 0.951 . S
H595 C555 0.950 . S
H596 C561 0.949 . S
H597 C562 0.950 . S
H598 C566 0.951 . S
H599 C567 0.950 . S
H600 C571 0.949 . S
H601 C572 0.950 . S
H602 C576 0.950 . S
H603 C578 0.950 . S
H604 C581 0.950 . S
H605 C583 0.950 . S
C606 C607 1.391 . S
C606 C608 1.394 . S
C606 H622 0.931 . S
C607 C606 1.391 . S
C607 C611 1.376 . S
C608 C606 1.394 . S
C608 C609 1.369 . S
C608 C612 1.531 . S
C609 C608 1.369 . S
C609 C610 1.410 . S
C609 C617 1.503 . S
C610 C609 1.410 . S
C610 C611 1.392 . S
C610 C613 1.511 . S
C611 C607 1.376 . S
C611 C610 1.392 . S
C611 H623 0.929 . S
C612 C608 1.531 . S
C612 H624 0.960 . S
C612 H625 0.962 . S
C612 H626 0.960 . S
C613 C610 1.511 . S
C613 H627 0.961 . S
C613 H628 0.961 . S
C613 H629 0.961 . S
C614 C615 1.370 . S
C614 C616 1.363 . S
C614 H630 0.931 . S
C615 C614 1.370 . S
C615 C619 1.408 . S
C616 C614 1.363 . S
C616 C617 1.370 . S
C616 C620 1.524 . S
C617 C609 1.503 . S
C617 C616 1.370 . S
C617 C618 1.403 . S
C618 C617 1.403 . S
C618 C619 1.404 . S
C618 C621 1.539 . S
C619 C615 1.408 . S
C619 C618 1.404 . S
C619 H631 0.930 . S
C620 C616 1.524 . S
C620 H632 0.956 . S
C620 H633 0.961 . S
C620 H634 0.961 . S
C621 C618 1.539 . S
C621 H635 0.958 . S
C621 H636 0.961 . S
C621 H637 0.960 . S
H622 C606 0.931 . S
H623 C611 0.929 . S
H624 C612 0.960 . S
H625 C612 0.962 . S
H626 C612 0.960 . S
H627 C613 0.961 . S
H628 C613 0.961 . S
H629 C613 0.961 . S
H630 C614 0.931 . S
H631 C619 0.930 . S
H632 C620 0.956 . S
H633 C620 0.961 . S
H634 C620 0.961 . S
H635 C621 0.958 . S
H636 C621 0.961 . S
H637 C621 0.960 . S
C638 C639 1.391 . S
C638 C640 1.394 . S
C638 H654 0.931 . S
C639 C638 1.391 . S
C639 C643 1.376 . S
C640 C638 1.394 . S
C640 C641 1.369 . S
C640 C644 1.531 . S
C641 C640 1.369 . S
C641 C642 1.410 . S
C641 C649 1.503 . S
C642 C641 1.410 . S
C642 C643 1.392 . S
C642 C645 1.511 . S
C643 C639 1.376 . S
C643 C642 1.392 . S
C643 H655 0.929 . S
C644 C640 1.531 . S
C644 H656 0.960 . S
C644 H657 0.962 . S
C644 H658 0.960 . S
C645 C642 1.511 . S
C645 H659 0.961 . S
C645 H660 0.961 . S
C645 H661 0.961 . S
C646 C647 1.370 . S
C646 C648 1.363 . S
C646 H662 0.931 . S
C647 C646 1.370 . S
C647 C651 1.408 . S
C648 C646 1.363 . S
C648 C649 1.370 . S
C648 C652 1.524 . S
C649 C641 1.503 . S
C649 C648 1.370 . S
C649 C650 1.403 . S
C650 C649 1.403 . S
C650 C651 1.404 . S
C650 C653 1.539 . S
C651 C647 1.408 . S
C651 C650 1.404 . S
C651 H663 0.930 . S
C652 C648 1.524 . S
C652 H664 0.956 . S
C652 H665 0.961 . S
C652 H666 0.961 . S
C653 C650 1.539 . S
C653 H667 0.958 . S
C653 H668 0.961 . S
C653 H669 0.960 . S
H654 C638 0.931 . S
H655 C643 0.929 . S
H656 C644 0.960 . S
H657 C644 0.962 . S
H658 C644 0.960 . S
H659 C645 0.961 . S
H660 C645 0.961 . S
H661 C645 0.961 . S
H662 C646 0.931 . S
H663 C651 0.930 . S
H664 C652 0.956 . S
H665 C652 0.961 . S
H666 C652 0.961 . S
H667 C653 0.958 . S
H668 C653 0.961 . S
H669 C653 0.960 . S
C670 C671 1.391 . S
C670 C672 1.394 . S
C670 H686 0.931 . S
C671 C670 1.391 . S
C671 C675 1.376 . S
C672 C670 1.394 . S
C672 C673 1.369 . S
C672 C676 1.531 . S
C673 C672 1.369 . S
C673 C674 1.410 . S
C673 C681 1.503 . S
C674 C673 1.410 . S
C674 C675 1.392 . S
C674 C677 1.511 . S
C675 C671 1.376 . S
C675 C674 1.392 . S
C675 H687 0.929 . S
C676 C672 1.531 . S
C676 H688 0.960 . S
C676 H689 0.962 . S
C676 H690 0.960 . S
C677 C674 1.511 . S
C677 H691 0.961 . S
C677 H692 0.961 . S
C677 H693 0.961 . S
C678 C679 1.370 . S
C678 C680 1.363 . S
C678 H694 0.931 . S
C679 C678 1.370 . S
C679 C683 1.408 . S
C680 C678 1.363 . S
C680 C681 1.370 . S
C680 C684 1.524 . S
C681 C673 1.503 . S
C681 C680 1.370 . S
C681 C682 1.403 . S
C682 C681 1.403 . S
C682 C683 1.404 . S
C682 C685 1.539 . S
C683 C679 1.408 . S
C683 C682 1.404 . S
C683 H695 0.930 . S
C684 C680 1.524 . S
C684 H696 0.956 . S
C684 H697 0.961 . S
C684 H698 0.961 . S
C685 C682 1.539 . S
C685 H699 0.958 . S
C685 H700 0.961 . S
C685 H701 0.960 . S
H686 C670 0.931 . S
H687 C675 0.929 . S
H688 C676 0.960 . S
H689 C676 0.962 . S
H690 C676 0.960 . S
H691 C677 0.961 . S
H692 C677 0.961 . S
H693 C677 0.961 . S
H694 C678 0.931 . S
H695 C683 0.930 . S
H696 C684 0.956 . S
H697 C684 0.961 . S
H698 C684 0.961 . S
H699 C685 0.958 . S
H700 C685 0.961 . S
H701 C685 0.960 . S
C702 C703 1.391 . S
C702 C704 1.394 . S
C702 H718 0.931 . S
C703 C702 1.391 . S
C703 C707 1.376 . S
C704 C702 1.394 . S
C704 C705 1.369 . S
C704 C708 1.531 . S
C705 C704 1.369 . S
C705 C706 1.410 . S
C705 C713 1.503 . S
C706 C705 1.410 . S
C706 C707 1.392 . S
C706 C709 1.511 . S
C707 C703 1.376 . S
C707 C706 1.392 . S
C707 H719 0.929 . S
C708 C704 1.531 . S
C708 H720 0.960 . S
C708 H721 0.962 . S
C708 H722 0.960 . S
C709 C706 1.511 . S
C709 H723 0.961 . S
C709 H724 0.961 . S
C709 H725 0.961 . S
C710 C711 1.370 . S
C710 C712 1.363 . S
C710 H726 0.931 . S
C711 C710 1.370 . S
C711 C715 1.408 . S
C712 C710 1.363 . S
C712 C713 1.370 . S
C712 C716 1.524 . S
C713 C705 1.503 . S
C713 C712 1.370 . S
C713 C714 1.403 . S
C714 C713 1.403 . S
C714 C715 1.404 . S
C714 C717 1.539 . S
C715 C711 1.408 . S
C715 C714 1.404 . S
C715 H727 0.930 . S
C716 C712 1.524 . S
C716 H728 0.956 . S
C716 H729 0.961 . S
C716 H730 0.961 . S
C717 C714 1.539 . S
C717 H731 0.958 . S
C717 H732 0.961 . S
C717 H733 0.960 . S
H718 C702 0.931 . S
H719 C707 0.929 . S
H720 C708 0.960 . S
H721 C708 0.962 . S
H722 C708 0.960 . S
H723 C709 0.961 . S
H724 C709 0.961 . S
H725 C709 0.961 . S
H726 C710 0.931 . S
H727 C715 0.930 . S
H728 C716 0.956 . S
H729 C716 0.961 . S
H730 C716 0.961 . S
H731 C717 0.958 . S
H732 C717 0.961 . S
H733 C717 0.960 . S
C734 C735 1.391 . S
C734 C736 1.394 . S
C734 H750 0.931 . S
C735 C734 1.391 . S
C735 C739 1.376 . S
C736 C734 1.394 . S
C736 C737 1.369 . S
C736 C740 1.531 . S
C737 C736 1.369 . S
C737 C738 1.410 . S
C737 C745 1.503 . S
C738 C737 1.410 . S
C738 C739 1.392 . S
C738 C741 1.511 . S
C739 C735 1.376 . S
C739 C738 1.392 . S
C739 H751 0.929 . S
C740 C736 1.531 . S
C740 H752 0.960 . S
C740 H753 0.962 . S
C740 H754 0.960 . S
C741 C738 1.511 . S
C741 H755 0.961 . S
C741 H756 0.961 . S
C741 H757 0.961 . S
C742 C743 1.370 . S
C742 C744 1.363 . S
C742 H758 0.931 . S
C743 C742 1.370 . S
C743 C747 1.408 . S
C744 C742 1.363 . S
C744 C745 1.370 . S
C744 C748 1.524 . S
C745 C737 1.503 . S
C745 C744 1.370 . S
C745 C746 1.403 . S
C746 C745 1.403 . S
C746 C747 1.404 . S
C746 C749 1.539 . S
C747 C743 1.408 . S
C747 C746 1.404 . S
C747 H759 0.930 . S
C748 C744 1.524 . S
C748 H760 0.956 . S
C748 H761 0.961 . S
C748 H762 0.961 . S
C749 C746 1.539 . S
C749 H763 0.958 . S
C749 H764 0.961 . S
C749 H765 0.960 . S
H750 C734 0.931 . S
H751 C739 0.929 . S
H752 C740 0.960 . S
H753 C740 0.962 . S
H754 C740 0.960 . S
H755 C741 0.961 . S
H756 C741 0.961 . S
H757 C741 0.961 . S
H758 C742 0.931 . S
H759 C747 0.930 . S
H760 C748 0.956 . S
H761 C748 0.961 . S
H762 C748 0.961 . S
H763 C749 0.958 . S
H764 C749 0.961 . S
H765 C749 0.960 . S
C766 C767 1.391 . S
C766 C768 1.394 . S
C766 H782 0.931 . S
C767 C766 1.391 . S
C767 C771 1.376 . S
C768 C766 1.394 . S
C768 C769 1.369 . S
C768 C772 1.531 . S
C769 C768 1.369 . S
C769 C770 1.410 . S
C769 C777 1.503 . S
C770 C769 1.410 . S
C770 C771 1.392 . S
C770 C773 1.511 . S
C771 C767 1.376 . S
C771 C770 1.392 . S
C771 H783 0.929 . S
C772 C768 1.531 . S
C772 H784 0.960 . S
C772 H785 0.962 . S
C772 H786 0.960 . S
C773 C770 1.511 . S
C773 H787 0.961 . S
C773 H788 0.961 . S
C773 H789 0.961 . S
C774 C775 1.370 . S
C774 C776 1.363 . S
C774 H790 0.931 . S
C775 C774 1.370 . S
C775 C779 1.408 . S
C776 C774 1.363 . S
C776 C777 1.370 . S
C776 C780 1.524 . S
C777 C769 1.503 . S
C777 C776 1.370 . S
C777 C778 1.403 . S
C778 C777 1.403 . S
C778 C779 1.404 . S
C778 C781 1.539 . S
C779 C775 1.408 . S
C779 C778 1.404 . S
C779 H791 0.930 . S
C780 C776 1.524 . S
C780 H792 0.956 . S
C780 H793 0.961 . S
C780 H794 0.961 . S
C781 C778 1.539 . S
C781 H795 0.958 . S
C781 H796 0.961 . S
C781 H797 0.960 . S
H782 C766 0.931 . S
H783 C771 0.929 . S
H784 C772 0.960 . S
H785 C772 0.962 . S
H786 C772 0.960 . S
H787 C773 0.961 . S
H788 C773 0.961 . S
H789 C773 0.961 . S
H790 C774 0.931 . S
H791 C779 0.930 . S
H792 C780 0.956 . S
H793 C780 0.961 . S
H794 C780 0.961 . S
H795 C781 0.958 . S
H796 C781 0.961 . S
H797 C781 0.960 . S
C798 C799 1.391 . S
C798 C800 1.394 . S
C798 H814 0.931 . S
C799 C798 1.391 . S
C799 C803 1.376 . S
C800 C798 1.394 . S
C800 C801 1.369 . S
C800 C804 1.531 . S
C801 C800 1.369 . S
C801 C802 1.410 . S
C801 C809 1.503 . S
C802 C801 1.410 . S
C802 C803 1.392 . S
C802 C805 1.511 . S
C803 C799 1.376 . S
C803 C802 1.392 . S
C803 H815 0.929 . S
C804 C800 1.531 . S
C804 H816 0.960 . S
C804 H817 0.962 . S
C804 H818 0.960 . S
C805 C802 1.511 . S
C805 H819 0.961 . S
C805 H820 0.961 . S
C805 H821 0.961 . S
C806 C807 1.370 . S
C806 C808 1.363 . S
C806 H822 0.931 . S
C807 C806 1.370 . S
C807 C811 1.408 . S
C808 C806 1.363 . S
C808 C809 1.370 . S
C808 C812 1.524 . S
C809 C801 1.503 . S
C809 C808 1.370 . S
C809 C810 1.403 . S
C810 C809 1.403 . S
C810 C811 1.404 . S
C810 C813 1.539 . S
C811 C807 1.408 . S
C811 C810 1.404 . S
C811 H823 0.930 . S
C812 C808 1.524 . S
C812 H824 0.956 . S
C812 H825 0.961 . S
C812 H826 0.961 . S
C813 C810 1.539 . S
C813 H827 0.958 . S
C813 H828 0.961 . S
C813 H829 0.960 . S
H814 C798 0.931 . S
H815 C803 0.929 . S
H816 C804 0.960 . S
H817 C804 0.962 . S
H818 C804 0.960 . S
H819 C805 0.961 . S
H820 C805 0.961 . S
H821 C805 0.961 . S
H822 C806 0.931 . S
H823 C811 0.930 . S
H824 C812 0.956 . S
H825 C812 0.961 . S
H826 C812 0.961 . S
H827 C813 0.958 . S
H828 C813 0.961 . S
H829 C813 0.960 . S
C830 C831 1.391 . S
C830 C832 1.394 . S
C830 H846 0.931 . S
C831 C830 1.391 . S
C831 C835 1.376 . S
C832 C830 1.394 . S
C832 C833 1.369 . S
C832 C836 1.531 . S
C833 C832 1.369 . S
C833 C834 1.410 . S
C833 C841 1.503 . S
C834 C833 1.410 . S
C834 C835 1.392 . S
C834 C837 1.511 . S
C835 C831 1.376 . S
C835 C834 1.392 . S
C835 H847 0.929 . S
C836 C832 1.531 . S
C836 H848 0.960 . S
C836 H849 0.962 . S
C836 H850 0.960 . S
C837 C834 1.511 . S
C837 H851 0.961 . S
C837 H852 0.961 . S
C837 H853 0.961 . S
C838 C839 1.370 . S
C838 C840 1.363 . S
C838 H854 0.931 . S
C839 C838 1.370 . S
C839 C843 1.408 . S
C840 C838 1.363 . S
C840 C841 1.370 . S
C840 C844 1.524 . S
C841 C833 1.503 . S
C841 C840 1.370 . S
C841 C842 1.403 . S
C842 C841 1.403 . S
C842 C843 1.404 . S
C842 C845 1.539 . S
C843 C839 1.408 . S
C843 C842 1.404 . S
C843 H855 0.930 . S
C844 C840 1.524 . S
C844 H856 0.956 . S
C844 H857 0.961 . S
C844 H858 0.961 . S
C845 C842 1.539 . S
C845 H859 0.958 . S
C845 H860 0.961 . S
C845 H861 0.960 . S
H846 C830 0.931 . S
H847 C835 0.929 . S
H848 C836 0.960 . S
H849 C836 0.962 . S
H850 C836 0.960 . S
H851 C837 0.961 . S
H852 C837 0.961 . S
H853 C837 0.961 . S
H854 C838 0.931 . S
H855 C843 0.930 . S
H856 C844 0.956 . S
H857 C844 0.961 . S
H858 C844 0.961 . S
H859 C845 0.958 . S
H860 C845 0.961 . S
H861 C845 0.960 . S
C862 C863 1.391 . S
C862 C864 1.394 . S
C862 H878 0.931 . S
C863 C862 1.391 . S
C863 C867 1.376 . S
C864 C862 1.394 . S
C864 C865 1.369 . S
C864 C868 1.531 . S
C865 C864 1.369 . S
C865 C866 1.410 . S
C865 C873 1.503 . S
C866 C865 1.410 . S
C866 C867 1.392 . S
C866 C869 1.511 . S
C867 C863 1.376 . S
C867 C866 1.392 . S
C867 H879 0.929 . S
C868 C864 1.531 . S
C868 H880 0.960 . S
C868 H881 0.962 . S
C868 H882 0.960 . S
C869 C866 1.511 . S
C869 H883 0.961 . S
C869 H884 0.961 . S
C869 H885 0.961 . S
C870 C871 1.370 . S
C870 C872 1.363 . S
C870 H886 0.931 . S
C871 C870 1.370 . S
C871 C875 1.408 . S
C872 C870 1.363 . S
C872 C873 1.370 . S
C872 C876 1.524 . S
C873 C865 1.503 . S
C873 C872 1.370 . S
C873 C874 1.403 . S
C874 C873 1.403 . S
C874 C875 1.404 . S
C874 C877 1.539 . S
C875 C871 1.408 . S
C875 C874 1.404 . S
C875 H887 0.930 . S
C876 C872 1.524 . S
C876 H888 0.956 . S
C876 H889 0.961 . S
C876 H890 0.961 . S
C877 C874 1.539 . S
C877 H891 0.958 . S
C877 H892 0.961 . S
C877 H893 0.960 . S
H878 C862 0.931 . S
H879 C867 0.929 . S
H880 C868 0.960 . S
H881 C868 0.962 . S
H882 C868 0.960 . S
H883 C869 0.961 . S
H884 C869 0.961 . S
H885 C869 0.961 . S
H886 C870 0.931 . S
H887 C875 0.930 . S
H888 C876 0.956 . S
H889 C876 0.961 . S
H890 C876 0.961 . S
H891 C877 0.958 . S
H892 C877 0.961 . S
H893 C877 0.960 . S
C894 C895 1.391 . S
C894 C896 1.394 . S
C894 H910 0.931 . S
C895 C894 1.391 . S
C895 C899 1.376 . S
C896 C894 1.394 . S
C896 C897 1.369 . S
C896 C900 1.531 . S
C897 C896 1.369 . S
C897 C898 1.410 . S
C897 C905 1.503 . S
C898 C897 1.410 . S
C898 C899 1.392 . S
C898 C901 1.511 . S
C899 C895 1.376 . S
C899 C898 1.392 . S
C899 H911 0.929 . S
C900 C896 1.531 . S
C900 H912 0.960 . S
C900 H913 0.962 . S
C900 H914 0.960 . S
C901 C898 1.511 . S
C901 H915 0.961 . S
C901 H916 0.961 . S
C901 H917 0.961 . S
C902 C903 1.370 . S
C902 C904 1.363 . S
C902 H918 0.931 . S
C903 C902 1.370 . S
C903 C907 1.408 . S
C904 C902 1.363 . S
C904 C905 1.370 . S
C904 C908 1.524 . S
C905 C897 1.503 . S
C905 C904 1.370 . S
C905 C906 1.403 . S
C906 C905 1.403 . S
C906 C907 1.404 . S
C906 C909 1.539 . S
C907 C903 1.408 . S
C907 C906 1.404 . S
C907 H919 0.930 . S
C908 C904 1.524 . S
C908 H920 0.956 . S
C908 H921 0.961 . S
C908 H922 0.961 . S
C909 C906 1.539 . S
C909 H923 0.958 . S
C909 H924 0.961 . S
C909 H925 0.960 . S
H910 C894 0.931 . S
H911 C899 0.929 . S
H912 C900 0.960 . S
H913 C900 0.962 . S
H914 C900 0.960 . S
H915 C901 0.961 . S
H916 C901 0.961 . S
H917 C901 0.961 . S
H918 C902 0.931 . S
H919 C907 0.930 . S
H920 C908 0.956 . S
H921 C908 0.961 . S
H922 C908 0.961 . S
H923 C909 0.958 . S
H924 C909 0.961 . S
H925 C909 0.960 . S
C926 C927 1.391 . S
C926 C928 1.394 . S
C926 H942 0.931 . S
C927 C926 1.391 . S
C927 C931 1.376 . S
C928 C926 1.394 . S
C928 C929 1.369 . S
C928 C932 1.531 . S
C929 C928 1.369 . S
C929 C930 1.410 . S
C929 C937 1.503 . S
C930 C929 1.410 . S
C930 C931 1.392 . S
C930 C933 1.511 . S
C931 C927 1.376 . S
C931 C930 1.392 . S
C931 H943 0.929 . S
C932 C928 1.531 . S
C932 H944 0.960 . S
C932 H945 0.962 . S
C932 H946 0.960 . S
C933 C930 1.511 . S
C933 H947 0.961 . S
C933 H948 0.961 . S
C933 H949 0.961 . S
C934 C935 1.370 . S
C934 C936 1.363 . S
C934 H950 0.931 . S
C935 C934 1.370 . S
C935 C939 1.408 . S
C936 C934 1.363 . S
C936 C937 1.370 . S
C936 C940 1.524 . S
C937 C929 1.503 . S
C937 C936 1.370 . S
C937 C938 1.403 . S
C938 C937 1.403 . S
C938 C939 1.404 . S
C938 C941 1.539 . S
C939 C935 1.408 . S
C939 C938 1.404 . S
C939 H951 0.930 . S
C940 C936 1.524 . S
C940 H952 0.956 . S
C940 H953 0.961 . S
C940 H954 0.961 . S
C941 C938 1.539 . S
C941 H955 0.958 . S
C941 H956 0.961 . S
C941 H957 0.960 . S
H942 C926 0.931 . S
H943 C931 0.929 . S
H944 C932 0.960 . S
H945 C932 0.962 . S
H946 C932 0.960 . S
H947 C933 0.961 . S
H948 C933 0.961 . S
H949 C933 0.961 . S
H950 C934 0.931 . S
H951 C939 0.930 . S
H952 C940 0.956 . S
H953 C940 0.961 . S
H954 C940 0.961 . S
H955 C941 0.958 . S
H956 C941 0.961 . S
H957 C941 0.960 . S
C958 C959 1.391 . S
C958 C960 1.394 . S
C958 H974 0.931 . S
C959 C958 1.391 . S
C959 C963 1.376 . S
C960 C958 1.394 . S
C960 C961 1.369 . S
C960 C964 1.531 . S
C961 C960 1.369 . S
C961 C962 1.410 . S
C961 C969 1.503 . S
C962 C961 1.410 . S
C962 C963 1.392 . S
C962 C965 1.511 . S
C963 C959 1.376 . S
C963 C962 1.392 . S
C963 H975 0.929 . S
C964 C960 1.531 . S
C964 H976 0.960 . S
C964 H977 0.962 . S
C964 H978 0.960 . S
C965 C962 1.511 . S
C965 H979 0.961 . S
C965 H980 0.961 . S
C965 H981 0.961 . S
C966 C967 1.370 . S
C966 C968 1.363 . S
C966 H982 0.931 . S
C967 C966 1.370 . S
C967 C971 1.408 . S
C968 C966 1.363 . S
C968 C969 1.370 . S
C968 C972 1.524 . S
C969 C961 1.503 . S
C969 C968 1.370 . S
C969 C970 1.403 . S
C970 C969 1.403 . S
C970 C971 1.404 . S
C970 C973 1.539 . S
C971 C967 1.408 . S
C971 C970 1.404 . S
C971 H983 0.930 . S
C972 C968 1.524 . S
C972 H984 0.956 . S
C972 H985 0.961 . S
C972 H986 0.961 . S
C973 C970 1.539 . S
C973 H987 0.958 . S
C973 H988 0.961 . S
C973 H989 0.960 . S
H974 C958 0.931 . S
H975 C963 0.929 . S
H976 C964 0.960 . S
H977 C964 0.962 . S
H978 C964 0.960 . S
H979 C965 0.961 . S
H980 C965 0.961 . S
H981 C965 0.961 . S
H982 C966 0.931 . S
H983 C971 0.930 . S
H984 C972 0.956 . S
H985 C972 0.961 . S
H986 C972 0.961 . S
H987 C973 0.958 . S
H988 C973 0.961 . S
H989 C973 0.960 . S
C990 C991 1.391 . S
C990 C992 1.394 . S
C990 H1006 0.931 . S
C991 C990 1.391 . S
C991 C995 1.376 . S
C992 C990 1.394 . S
C992 C993 1.369 . S
C992 C996 1.531 . S
C993 C992 1.369 . S
C993 C994 1.410 . S
C993 C1001 1.503 . S
C994 C993 1.410 . S
C994 C995 1.392 . S
C994 C997 1.511 . S
C995 C991 1.376 . S
C995 C994 1.392 . S
C995 H1007 0.929 . S
C996 C992 1.531 . S
C996 H1008 0.960 . S
C996 H1009 0.962 . S
C996 H1010 0.960 . S
C997 C994 1.511 . S
C997 H1011 0.961 . S
C997 H1012 0.961 . S
C997 H1013 0.961 . S
C998 C999 1.370 . S
C998 C1000 1.363 . S
C998 H1014 0.931 . S
C999 C998 1.370 . S
C999 C1003 1.408 . S
C1000 C998 1.363 . S
C1000 C1001 1.370 . S
C1000 C1004 1.524 . S
C1001 C993 1.503 . S
C1001 C1000 1.370 . S
C1001 C1002 1.403 . S
C1002 C1001 1.403 . S
C1002 C1003 1.404 . S
C1002 C1005 1.539 . S
C1003 C999 1.408 . S
C1003 C1002 1.404 . S
C1003 H1015 0.930 . S
C1004 C1000 1.524 . S
C1004 H1016 0.956 . S
C1004 H1017 0.961 . S
C1004 H1018 0.961 . S
C1005 C1002 1.539 . S
C1005 H1019 0.958 . S
C1005 H1020 0.961 . S
C1005 H1021 0.960 . S
H1006 C990 0.931 . S
H1007 C995 0.929 . S
H1008 C996 0.960 . S
H1009 C996 0.962 . S
H1010 C996 0.960 . S
H1011 C997 0.961 . S
H1012 C997 0.961 . S
H1013 C997 0.961 . S
H1014 C998 0.931 . S
H1015 C1003 0.930 . S
H1016 C1004 0.956 . S
H1017 C1004 0.961 . S
H1018 C1004 0.961 . S
H1019 C1005 0.958 . S
H1020 C1005 0.961 . S
H1021 C1005 0.960 . S
C1022 C1023 1.391 . S
C1022 C1024 1.394 . S
C1022 H1038 0.931 . S
C1023 C1022 1.391 . S
C1023 C1027 1.376 . S
C1024 C1022 1.394 . S
C1024 C1025 1.369 . S
C1024 C1028 1.531 . S
C1025 C1024 1.369 . S
C1025 C1026 1.410 . S
C1025 C1033 1.503 . S
C1026 C1025 1.410 . S
C1026 C1027 1.392 . S
C1026 C1029 1.511 . S
C1027 C1023 1.376 . S
C1027 C1026 1.392 . S
C1027 H1039 0.929 . S
C1028 C1024 1.531 . S
C1028 H1040 0.960 . S
C1028 H1041 0.962 . S
C1028 H1042 0.960 . S
C1029 C1026 1.511 . S
C1029 H1043 0.961 . S
C1029 H1044 0.961 . S
C1029 H1045 0.961 . S
C1030 C1031 1.370 . S
C1030 C1032 1.363 . S
C1030 H1046 0.931 . S
C1031 C1030 1.370 . S
C1031 C1035 1.408 . S
C1032 C1030 1.363 . S
C1032 C1033 1.370 . S
C1032 C1036 1.524 . S
C1033 C1025 1.503 . S
C1033 C1032 1.370 . S
C1033 C1034 1.403 . S
C1034 C1033 1.403 . S
C1034 C1035 1.404 . S
C1034 C1037 1.539 . S
C1035 C1031 1.408 . S
C1035 C1034 1.404 . S
C1035 H1047 0.930 . S
C1036 C1032 1.524 . S
C1036 H1048 0.956 . S
C1036 H1049 0.961 . S
C1036 H1050 0.961 . S
C1037 C1034 1.539 . S
C1037 H1051 0.958 . S
C1037 H1052 0.961 . S
C1037 H1053 0.960 . S
H1038 C1022 0.931 . S
H1039 C1027 0.929 . S
H1040 C1028 0.960 . S
H1041 C1028 0.962 . S
H1042 C1028 0.960 . S
H1043 C1029 0.961 . S
H1044 C1029 0.961 . S
H1045 C1029 0.961 . S
H1046 C1030 0.931 . S
H1047 C1035 0.930 . S
H1048 C1036 0.956 . S
H1049 C1036 0.961 . S
H1050 C1036 0.961 . S
H1051 C1037 0.958 . S
H1052 C1037 0.961 . S
H1053 C1037 0.960 . S
C1054 C1055 1.391 . S
C1054 C1056 1.394 . S
C1054 H1070 0.931 . S
C1055 C1054 1.391 . S
C1055 C1059 1.376 . S
C1056 C1054 1.394 . S
C1056 C1057 1.369 . S
C1056 C1060 1.531 . S
C1057 C1056 1.369 . S
C1057 C1058 1.410 . S
C1057 C1065 1.503 . S
C1058 C1057 1.410 . S
C1058 C1059 1.392 . S
C1058 C1061 1.511 . S
C1059 C1055 1.376 . S
C1059 C1058 1.392 . S
C1059 H1071 0.929 . S
C1060 C1056 1.531 . S
C1060 H1072 0.960 . S
C1060 H1073 0.962 . S
C1060 H1074 0.960 . S
C1061 C1058 1.511 . S
C1061 H1075 0.961 . S
C1061 H1076 0.961 . S
C1061 H1077 0.961 . S
C1062 C1063 1.370 . S
C1062 C1064 1.363 . S
C1062 H1078 0.931 . S
C1063 C1062 1.370 . S
C1063 C1067 1.408 . S
C1064 C1062 1.363 . S
C1064 C1065 1.370 . S
C1064 C1068 1.524 . S
C1065 C1057 1.503 . S
C1065 C1064 1.370 . S
C1065 C1066 1.403 . S
C1066 C1065 1.403 . S
C1066 C1067 1.404 . S
C1066 C1069 1.539 . S
C1067 C1063 1.408 . S
C1067 C1066 1.404 . S
C1067 H1079 0.930 . S
C1068 C1064 1.524 . S
C1068 H1080 0.956 . S
C1068 H1081 0.961 . S
C1068 H1082 0.961 . S
C1069 C1066 1.539 . S
C1069 H1083 0.958 . S
C1069 H1084 0.961 . S
C1069 H1085 0.960 . S
H1070 C1054 0.931 . S
H1071 C1059 0.929 . S
H1072 C1060 0.960 . S
H1073 C1060 0.962 . S
H1074 C1060 0.960 . S
H1075 C1061 0.961 . S
H1076 C1061 0.961 . S
H1077 C1061 0.961 . S
H1078 C1062 0.931 . S
H1079 C1067 0.930 . S
H1080 C1068 0.956 . S
H1081 C1068 0.961 . S
H1082 C1068 0.961 . S
H1083 C1069 0.958 . S
H1084 C1069 0.961 . S
H1085 C1069 0.960 . S
C1086 C1087 1.391 . S
C1086 C1088 1.394 . S
C1086 H1102 0.931 . S
C1087 C1086 1.391 . S
C1087 C1091 1.376 . S
C1088 C1086 1.394 . S
C1088 C1089 1.369 . S
C1088 C1092 1.531 . S
C1089 C1088 1.369 . S
C1089 C1090 1.410 . S
C1089 C1097 1.503 . S
C1090 C1089 1.410 . S
C1090 C1091 1.392 . S
C1090 C1093 1.511 . S
C1091 C1087 1.376 . S
C1091 C1090 1.392 . S
C1091 H1103 0.929 . S
C1092 C1088 1.531 . S
C1092 H1104 0.960 . S
C1092 H1105 0.962 . S
C1092 H1106 0.960 . S
C1093 C1090 1.511 . S
C1093 H1107 0.961 . S
C1093 H1108 0.961 . S
C1093 H1109 0.961 . S
C1094 C1095 1.370 . S
C1094 C1096 1.363 . S
C1094 H1110 0.931 . S
C1095 C1094 1.370 . S
C1095 C1099 1.408 . S
C1096 C1094 1.363 . S
C1096 C1097 1.370 . S
C1096 C1100 1.524 . S
C1097 C1089 1.503 . S
C1097 C1096 1.370 . S
C1097 C1098 1.403 . S
C1098 C1097 1.403 . S
C1098 C1099 1.404 . S
C1098 C1101 1.539 . S
C1099 C1095 1.408 . S
C1099 C1098 1.404 . S
C1099 H1111 0.930 . S
C1100 C1096 1.524 . S
C1100 H1112 0.956 . S
C1100 H1113 0.961 . S
C1100 H1114 0.961 . S
C1101 C1098 1.539 . S
C1101 H1115 0.958 . S
C1101 H1116 0.961 . S
C1101 H1117 0.960 . S
H1102 C1086 0.931 . S
H1103 C1091 0.929 . S
H1104 C1092 0.960 . S
H1105 C1092 0.962 . S
H1106 C1092 0.960 . S
H1107 C1093 0.961 . S
H1108 C1093 0.961 . S
H1109 C1093 0.961 . S
H1110 C1094 0.931 . S
H1111 C1099 0.930 . S
H1112 C1100 0.956 . S
H1113 C1100 0.961 . S
H1114 C1100 0.961 . S
H1115 C1101 0.958 . S
H1116 C1101 0.961 . S
H1117 C1101 0.960 . S
C1118 C1119 1.391 . S
C1118 C1120 1.394 . S
C1118 H1134 0.931 . S
C1119 C1118 1.391 . S
C1119 C1123 1.376 . S
C1120 C1118 1.394 . S
C1120 C1121 1.369 . S
C1120 C1124 1.531 . S
C1121 C1120 1.369 . S
C1121 C1122 1.410 . S
C1121 C1129 1.503 . S
C1122 C1121 1.410 . S
C1122 C1123 1.392 . S
C1122 C1125 1.511 . S
C1123 C1119 1.376 . S
C1123 C1122 1.392 . S
C1123 H1135 0.929 . S
C1124 C1120 1.531 . S
C1124 H1136 0.960 . S
C1124 H1137 0.962 . S
C1124 H1138 0.960 . S
C1125 C1122 1.511 . S
C1125 H1139 0.961 . S
C1125 H1140 0.961 . S
C1125 H1141 0.961 . S
C1126 C1127 1.370 . S
C1126 C1128 1.363 . S
C1126 H1142 0.931 . S
C1127 C1126 1.370 . S
C1127 C1131 1.408 . S
C1128 C1126 1.363 . S
C1128 C1129 1.370 . S
C1128 C1132 1.524 . S
C1129 C1121 1.503 . S
C1129 C1128 1.370 . S
C1129 C1130 1.403 . S
C1130 C1129 1.403 . S
C1130 C1131 1.404 . S
C1130 C1133 1.539 . S
C1131 C1127 1.408 . S
C1131 C1130 1.404 . S
C1131 H1143 0.930 . S
C1132 C1128 1.524 . S
C1132 H1144 0.956 . S
C1132 H1145 0.961 . S
C1132 H1146 0.961 . S
C1133 C1130 1.539 . S
C1133 H1147 0.958 . S
C1133 H1148 0.961 . S
C1133 H1149 0.960 . S
H1134 C1118 0.931 . S
H1135 C1123 0.929 . S
H1136 C1124 0.960 . S
H1137 C1124 0.962 . S
H1138 C1124 0.960 . S
H1139 C1125 0.961 . S
H1140 C1125 0.961 . S
H1141 C1125 0.961 . S
H1142 C1126 0.931 . S
H1143 C1131 0.930 . S
H1144 C1132 0.956 . S
H1145 C1132 0.961 . S
H1146 C1132 0.961 . S
H1147 C1133 0.958 . S
H1148 C1133 0.961 . S
H1149 C1133 0.960 . S
C1150 C1151 1.391 . S
C1150 C1152 1.394 . S
C1150 H1166 0.931 . S
C1151 C1150 1.391 . S
C1151 C1155 1.376 . S
C1152 C1150 1.394 . S
C1152 C1153 1.369 . S
C1152 C1156 1.531 . S
C1153 C1152 1.369 . S
C1153 C1154 1.410 . S
C1153 C1161 1.503 . S
C1154 C1153 1.410 . S
C1154 C1155 1.392 . S
C1154 C1157 1.511 . S
C1155 C1151 1.376 . S
C1155 C1154 1.392 . S
C1155 H1167 0.929 . S
C1156 C1152 1.531 . S
C1156 H1168 0.960 . S
C1156 H1169 0.962 . S
C1156 H1170 0.960 . S
C1157 C1154 1.511 . S
C1157 H1171 0.961 . S
C1157 H1172 0.961 . S
C1157 H1173 0.961 . S
C1158 C1159 1.370 . S
C1158 C1160 1.363 . S
C1158 H1174 0.931 . S
C1159 C1158 1.370 . S
C1159 C1163 1.408 . S
C1160 C1158 1.363 . S
C1160 C1161 1.370 . S
C1160 C1164 1.524 . S
C1161 C1153 1.503 . S
C1161 C1160 1.370 . S
C1161 C1162 1.403 . S
C1162 C1161 1.403 . S
C1162 C1163 1.404 . S
C1162 C1165 1.539 . S
C1163 C1159 1.408 . S
C1163 C1162 1.404 . S
C1163 H1175 0.930 . S
C1164 C1160 1.524 . S
C1164 H1176 0.956 . S
C1164 H1177 0.961 . S
C1164 H1178 0.961 . S
C1165 C1162 1.539 . S
C1165 H1179 0.958 . S
C1165 H1180 0.961 . S
C1165 H1181 0.960 . S
H1166 C1150 0.931 . S
H1167 C1155 0.929 . S
H1168 C1156 0.960 . S
H1169 C1156 0.962 . S
H1170 C1156 0.960 . S
H1171 C1157 0.961 . S
H1172 C1157 0.961 . S
H1173 C1157 0.961 . S
H1174 C1158 0.931 . S
H1175 C1163 0.930 . S
H1176 C1164 0.956 . S
H1177 C1164 0.961 . S
H1178 C1164 0.961 . S
H1179 C1165 0.958 . S
H1180 C1165 0.961 . S
H1181 C1165 0.960 . S
C1182 C1183 1.391 . S
C1182 C1184 1.394 . S
C1182 H1198 0.931 . S
C1183 C1182 1.391 . S
C1183 C1187 1.376 . S
C1184 C1182 1.394 . S
C1184 C1185 1.369 . S
C1184 C1188 1.531 . S
C1185 C1184 1.369 . S
C1185 C1186 1.410 . S
C1185 C1193 1.503 . S
C1186 C1185 1.410 . S
C1186 C1187 1.392 . S
C1186 C1189 1.511 . S
C1187 C1183 1.376 . S
C1187 C1186 1.392 . S
C1187 H1199 0.929 . S
C1188 C1184 1.531 . S
C1188 H1200 0.960 . S
C1188 H1201 0.962 . S
C1188 H1202 0.960 . S
C1189 C1186 1.511 . S
C1189 H1203 0.961 . S
C1189 H1204 0.961 . S
C1189 H1205 0.961 . S
C1190 C1191 1.370 . S
C1190 C1192 1.363 . S
C1190 H1206 0.931 . S
C1191 C1190 1.370 . S
C1191 C1195 1.408 . S
C1192 C1190 1.363 . S
C1192 C1193 1.370 . S
C1192 C1196 1.524 . S
C1193 C1185 1.503 . S
C1193 C1192 1.370 . S
C1193 C1194 1.403 . S
C1194 C1193 1.403 . S
C1194 C1195 1.404 . S
C1194 C1197 1.539 . S
C1195 C1191 1.408 . S
C1195 C1194 1.404 . S
C1195 H1207 0.930 . S
C1196 C1192 1.524 . S
C1196 H1208 0.956 . S
C1196 H1209 0.961 . S
C1196 H1210 0.961 . S
C1197 C1194 1.539 . S
C1197 H1211 0.958 . S
C1197 H1212 0.961 . S
C1197 H1213 0.960 . S
H1198 C1182 0.931 . S
H1199 C1187 0.929 . S
H1200 C1188 0.960 . S
H1201 C1188 0.962 . S
H1202 C1188 0.960 . S
H1203 C1189 0.961 . S
H1204 C1189 0.961 . S
H1205 C1189 0.961 . S
H1206 C1190 0.931 . S
H1207 C1195 0.930 . S
H1208 C1196 0.956 . S
H1209 C1196 0.961 . S
H1210 C1196 0.961 . S
H1211 C1197 0.958 . S
H1212 C1197 0.961 . S
H1213 C1197 0.960 . S
C1214 C1215 1.391 . S
C1214 C1216 1.394 . S
C1214 H1230 0.931 . S
C1215 C1214 1.391 . S
C1215 C1219 1.376 . S
C1216 C1214 1.394 . S
C1216 C1217 1.369 . S
C1216 C1220 1.531 . S
C1217 C1216 1.369 . S
C1217 C1218 1.410 . S
C1217 C1225 1.503 . S
C1218 C1217 1.410 . S
C1218 C1219 1.392 . S
C1218 C1221 1.511 . S
C1219 C1215 1.376 . S
C1219 C1218 1.392 . S
C1219 H1231 0.929 . S
C1220 C1216 1.531 . S
C1220 H1232 0.960 . S
C1220 H1233 0.962 . S
C1220 H1234 0.960 . S
C1221 C1218 1.511 . S
C1221 H1235 0.961 . S
C1221 H1236 0.961 . S
C1221 H1237 0.961 . S
C1222 C1223 1.370 . S
C1222 C1224 1.363 . S
C1222 H1238 0.931 . S
C1223 C1222 1.370 . S
C1223 C1227 1.408 . S
C1224 C1222 1.363 . S
C1224 C1225 1.370 . S
C1224 C1228 1.524 . S
C1225 C1217 1.503 . S
C1225 C1224 1.370 . S
C1225 C1226 1.403 . S
C1226 C1225 1.403 . S
C1226 C1227 1.404 . S
C1226 C1229 1.539 . S
C1227 C1223 1.408 . S
C1227 C1226 1.404 . S
C1227 H1239 0.930 . S
C1228 C1224 1.524 . S
C1228 H1240 0.956 . S
C1228 H1241 0.961 . S
C1228 H1242 0.961 . S
C1229 C1226 1.539 . S
C1229 H1243 0.958 . S
C1229 H1244 0.961 . S
C1229 H1245 0.960 . S
H1230 C1214 0.931 . S
H1231 C1219 0.929 . S
H1232 C1220 0.960 . S
H1233 C1220 0.962 . S
H1234 C1220 0.960 . S
H1235 C1221 0.961 . S
H1236 C1221 0.961 . S
H1237 C1221 0.961 . S
H1238 C1222 0.931 . S
H1239 C1227 0.930 . S
H1240 C1228 0.956 . S
H1241 C1228 0.961 . S
H1242 C1228 0.961 . S
H1243 C1229 0.958 . S
H1244 C1229 0.961 . S
H1245 C1229 0.960 . S
C1246 C1247 1.391 . S
C1246 C1248 1.394 . S
C1246 H1262 0.931 . S
C1247 C1246 1.391 . S
C1247 C1251 1.376 . S
C1248 C1246 1.394 . S
C1248 C1249 1.369 . S
C1248 C1252 1.531 . S
C1249 C1248 1.369 . S
C1249 C1250 1.410 . S
C1249 C1257 1.503 . S
C1250 C1249 1.410 . S
C1250 C1251 1.392 . S
C1250 C1253 1.511 . S
C1251 C1247 1.376 . S
C1251 C1250 1.392 . S
C1251 H1263 0.929 . S
C1252 C1248 1.531 . S
C1252 H1264 0.960 . S
C1252 H1265 0.962 . S
C1252 H1266 0.960 . S
C1253 C1250 1.511 . S
C1253 H1267 0.961 . S
C1253 H1268 0.961 . S
C1253 H1269 0.961 . S
C1254 C1255 1.370 . S
C1254 C1256 1.363 . S
C1254 H1270 0.931 . S
C1255 C1254 1.370 . S
C1255 C1259 1.408 . S
C1256 C1254 1.363 . S
C1256 C1257 1.370 . S
C1256 C1260 1.524 . S
C1257 C1249 1.503 . S
C1257 C1256 1.370 . S
C1257 C1258 1.403 . S
C1258 C1257 1.403 . S
C1258 C1259 1.404 . S
C1258 C1261 1.539 . S
C1259 C1255 1.408 . S
C1259 C1258 1.404 . S
C1259 H1271 0.930 . S
C1260 C1256 1.524 . S
C1260 H1272 0.956 . S
C1260 H1273 0.961 . S
C1260 H1274 0.961 . S
C1261 C1258 1.539 . S
C1261 H1275 0.958 . S
C1261 H1276 0.961 . S
C1261 H1277 0.960 . S
H1262 C1246 0.931 . S
H1263 C1251 0.929 . S
H1264 C1252 0.960 . S
H1265 C1252 0.962 . S
H1266 C1252 0.960 . S
H1267 C1253 0.961 . S
H1268 C1253 0.961 . S
H1269 C1253 0.961 . S
H1270 C1254 0.931 . S
H1271 C1259 0.930 . S
H1272 C1260 0.956 . S
H1273 C1260 0.961 . S
H1274 C1260 0.961 . S
H1275 C1261 0.958 . S
H1276 C1261 0.961 . S
H1277 C1261 0.960 . S
C1278 C1279 1.391 . S
C1278 C1280 1.394 . S
C1278 H1294 0.931 . S
C1279 C1278 1.391 . S
C1279 C1283 1.376 . S
C1280 C1278 1.394 . S
C1280 C1281 1.369 . S
C1280 C1284 1.531 . S
C1281 C1280 1.369 . S
C1281 C1282 1.410 . S
C1281 C1289 1.503 . S
C1282 C1281 1.410 . S
C1282 C1283 1.392 . S
C1282 C1285 1.511 . S
C1283 C1279 1.376 . S
C1283 C1282 1.392 . S
C1283 H1295 0.929 . S
C1284 C1280 1.531 . S
C1284 H1296 0.960 . S
C1284 H1297 0.962 . S
C1284 H1298 0.960 . S
C1285 C1282 1.511 . S
C1285 H1299 0.961 . S
C1285 H1300 0.961 . S
C1285 H1301 0.961 . S
C1286 C1287 1.370 . S
C1286 C1288 1.363 . S
C1286 H1302 0.931 . S
C1287 C1286 1.370 . S
C1287 C1291 1.408 . S
C1288 C1286 1.363 . S
C1288 C1289 1.370 . S
C1288 C1292 1.524 . S
C1289 C1281 1.503 . S
C1289 C1288 1.370 . S
C1289 C1290 1.403 . S
C1290 C1289 1.403 . S
C1290 C1291 1.404 . S
C1290 C1293 1.539 . S
C1291 C1287 1.408 . S
C1291 C1290 1.404 . S
C1291 H1303 0.930 . S
C1292 C1288 1.524 . S
C1292 H1304 0.956 . S
C1292 H1305 0.961 . S
C1292 H1306 0.961 . S
C1293 C1290 1.539 . S
C1293 H1307 0.958 . S
C1293 H1308 0.961 . S
C1293 H1309 0.960 . S
H1294 C1278 0.931 . S
H1295 C1283 0.929 . S
H1296 C1284 0.960 . S
H1297 C1284 0.962 . S
H1298 C1284 0.960 . S
H1299 C1285 0.961 . S
H1300 C1285 0.961 . S
H1301 C1285 0.961 . S
H1302 C1286 0.931 . S
H1303 C1291 0.930 . S
H1304 C1292 0.956 . S
H1305 C1292 0.961 . S
H1306 C1292 0.961 . S
H1307 C1293 0.958 . S
H1308 C1293 0.961 . S
H1309 C1293 0.960 . S
C1310 C1311 1.391 . S
C1310 C1312 1.394 . S
C1310 H1326 0.931 . S
C1311 C1310 1.391 . S
C1311 C1315 1.376 . S
C1312 C1310 1.394 . S
C1312 C1313 1.369 . S
C1312 C1316 1.531 . S
C1313 C1312 1.369 . S
C1313 C1314 1.410 . S
C1313 C1321 1.503 . S
C1314 C1313 1.410 . S
C1314 C1315 1.392 . S
C1314 C1317 1.511 . S
C1315 C1311 1.376 . S
C1315 C1314 1.392 . S
C1315 H1327 0.929 . S
C1316 C1312 1.531 . S
C1316 H1328 0.960 . S
C1316 H1329 0.962 . S
C1316 H1330 0.960 . S
C1317 C1314 1.511 . S
C1317 H1331 0.961 . S
C1317 H1332 0.961 . S
C1317 H1333 0.961 . S
C1318 C1319 1.370 . S
C1318 C1320 1.363 . S
C1318 H1334 0.931 . S
C1319 C1318 1.370 . S
C1319 C1323 1.408 . S
C1320 C1318 1.363 . S
C1320 C1321 1.370 . S
C1320 C1324 1.524 . S
C1321 C1313 1.503 . S
C1321 C1320 1.370 . S
C1321 C1322 1.403 . S
C1322 C1321 1.403 . S
C1322 C1323 1.404 . S
C1322 C1325 1.539 . S
C1323 C1319 1.408 . S
C1323 C1322 1.404 . S
C1323 H1335 0.930 . S
C1324 C1320 1.524 . S
C1324 H1336 0.956 . S
C1324 H1337 0.961 . S
C1324 H1338 0.961 . S
C1325 C1322 1.539 . S
C1325 H1339 0.958 . S
C1325 H1340 0.961 . S
C1325 H1341 0.960 . S
H1326 C1310 0.931 . S
H1327 C1315 0.929 . S
H1328 C1316 0.960 . S
H1329 C1316 0.962 . S
H1330 C1316 0.960 . S
H1331 C1317 0.961 . S
H1332 C1317 0.961 . S
H1333 C1317 0.961 . S
H1334 C1318 0.931 . S
H1335 C1323 0.930 . S
H1336 C1324 0.956 . S
H1337 C1324 0.961 . S
H1338 C1324 0.961 . S
H1339 C1325 0.958 . S
H1340 C1325 0.961 . S
H1341 C1325 0.960 . S
C1342 C1343 1.391 . S
C1342 C1344 1.394 . S
C1342 H1358 0.931 . S
C1343 C1342 1.391 . S
C1343 C1347 1.376 . S
C1344 C1342 1.394 . S
C1344 C1345 1.369 . S
C1344 C1348 1.531 . S
C1345 C1344 1.369 . S
C1345 C1346 1.410 . S
C1345 C1353 1.503 . S
C1346 C1345 1.410 . S
C1346 C1347 1.392 . S
C1346 C1349 1.511 . S
C1347 C1343 1.376 . S
C1347 C1346 1.392 . S
C1347 H1359 0.929 . S
C1348 C1344 1.531 . S
C1348 H1360 0.960 . S
C1348 H1361 0.962 . S
C1348 H1362 0.960 . S
C1349 C1346 1.511 . S
C1349 H1363 0.961 . S
C1349 H1364 0.961 . S
C1349 H1365 0.961 . S
C1350 C1351 1.370 . S
C1350 C1352 1.363 . S
C1350 H1366 0.931 . S
C1351 C1350 1.370 . S
C1351 C1355 1.408 . S
C1352 C1350 1.363 . S
C1352 C1353 1.370 . S
C1352 C1356 1.524 . S
C1353 C1345 1.503 . S
C1353 C1352 1.370 . S
C1353 C1354 1.403 . S
C1354 C1353 1.403 . S
C1354 C1355 1.404 . S
C1354 C1357 1.539 . S
C1355 C1351 1.408 . S
C1355 C1354 1.404 . S
C1355 H1367 0.930 . S
C1356 C1352 1.524 . S
C1356 H1368 0.956 . S
C1356 H1369 0.961 . S
C1356 H1370 0.961 . S
C1357 C1354 1.539 . S
C1357 H1371 0.958 . S
C1357 H1372 0.961 . S
C1357 H1373 0.960 . S
H1358 C1342 0.931 . S
H1359 C1347 0.929 . S
H1360 C1348 0.960 . S
H1361 C1348 0.962 . S
H1362 C1348 0.960 . S
H1363 C1349 0.961 . S
H1364 C1349 0.961 . S
H1365 C1349 0.961 . S
H1366 C1350 0.931 . S
H1367 C1355 0.930 . S
H1368 C1356 0.956 . S
H1369 C1356 0.961 . S
H1370 C1356 0.961 . S
H1371 C1357 0.958 . S
H1372 C1357 0.961 . S
H1373 C1357 0.960 . S
C615 C310 1.557 . S
C607 C25 1.542 . S
C647 C379 1.546 . S
C639 C37 1.536 . S
C679 C317 1.564 . S
C671 C103 1.566 . S
C711 C380 1.548 . S
C703 C139 1.554 . S
C743 C433 1.548 . S
C735 C31 1.547 . S
C775 C469 1.522 . S
C767 C67 1.519 . S
C799 C97 1.569 . S
C807 C529 1.561 . S
C839 C592 1.517 . S
C831 C133 1.516 . S
C871 C432 1.540 . S
C863 C61 1.542 . S
C895 C73 1.503 . S
C903 C476 1.530 . S
C935 C522 1.553 . S
C927 C109 1.557 . S
C967 C591 1.522 . S
C959 C1 1.521 . S
C991 C169 1.538 . S
C999 C370 1.556 . S
C1031 C327 1.551 . S
C1023 C211 1.554 . S
C1055 C241 1.549 . S
C1063 C363 1.541 . S
C1087 C253 1.538 . S
C1095 C326 1.549 . S
C1127 C538 1.568 . S
C1119 C175 1.537 . S
C1159 C582 1.521 . S
C1151 C205 1.501 . S
C1191 C416 1.548 . S
C1183 C217 1.539 . S
C1215 C283 1.512 . S
C1223 C485 1.530 . S
C1255 C539 1.560 . S
C1247 C181 1.538 . S
C1287 C575 1.522 . S
C1279 C247 1.526 . S
C1319 C423 1.548 . S
C1311 C277 1.524 . S
C1343 C145 1.522 . S
C1351 C486 1.528 . S
