# Generated by pormake.
# Topology pto, (3,4)-cn, num edge types: 1
# Building blocks:
#     Node 0, Type 0, BuildingBlock: OLANEW_clean_sbu_2, # of connection points: 3
#     Node 1, Type 0, BuildingBlock: OLANEW_clean_sbu_2, # of connection points: 3
#     Node 2, Type 0, BuildingBlock: OLANEW_clean_sbu_2, # of connection points: 3
#     Node 3, Type 0, BuildingBlock: OLANEW_clean_sbu_2, # of connection points: 3
#     Node 4, Type 0, BuildingBlock: OLANEW_clean_sbu_2, # of connection points: 3
#     Node 5, Type 0, BuildingBlock: OLANEW_clean_sbu_2, # of connection points: 3
#     Node 6, Type 0, BuildingBlock: OLANEW_clean_sbu_2, # of connection points: 3
#     Node 7, Type 0, BuildingBlock: OLANEW_clean_sbu_2, # of connection points: 3
#     Node 8, Type 1, BuildingBlock: MUDLON_clean_linker_0, # of connection points: 4
#     Node 9, Type 1, BuildingBlock: MUDLON_clean_linker_0, # of connection points: 4
#     Node 10, Type 1, BuildingBlock: MUDLON_clean_linker_0, # of connection points: 4
#     Node 11, Type 1, BuildingBlock: MUDLON_clean_linker_0, # of connection points: 4
#     Node 12, Type 1, BuildingBlock: MUDLON_clean_linker_0, # of connection points: 4
#     Node 13, Type 1, BuildingBlock: MUDLON_clean_linker_0, # of connection points: 4
#     Edge 14, Type (0, 1), BuildingBlock: XUDNAN_clean_linker_2, # of connection points: 2
#     Edge 15, Type (0, 1), BuildingBlock: XUDNAN_clean_linker_2, # of connection points: 2
#     Edge 16, Type (0, 1), BuildingBlock: XUDNAN_clean_linker_2, # of connection points: 2
#     Edge 17, Type (0, 1), BuildingBlock: XUDNAN_clean_linker_2, # of connection points: 2
#     Edge 18, Type (0, 1), BuildingBlock: XUDNAN_clean_linker_2, # of connection points: 2
#     Edge 19, Type (0, 1), BuildingBlock: XUDNAN_clean_linker_2, # of connection points: 2
#     Edge 20, Type (0, 1), BuildingBlock: XUDNAN_clean_linker_2, # of connection points: 2
#     Edge 21, Type (0, 1), BuildingBlock: XUDNAN_clean_linker_2, # of connection points: 2
#     Edge 22, Type (0, 1), BuildingBlock: XUDNAN_clean_linker_2, # of connection points: 2
#     Edge 23, Type (0, 1), BuildingBlock: XUDNAN_clean_linker_2, # of connection points: 2
#     Edge 24, Type (0, 1), BuildingBlock: XUDNAN_clean_linker_2, # of connection points: 2
#     Edge 25, Type (0, 1), BuildingBlock: XUDNAN_clean_linker_2, # of connection points: 2
#     Edge 26, Type (0, 1), BuildingBlock: XUDNAN_clean_linker_2, # of connection points: 2
#     Edge 27, Type (0, 1), BuildingBlock: XUDNAN_clean_linker_2, # of connection points: 2
#     Edge 28, Type (0, 1), BuildingBlock: XUDNAN_clean_linker_2, # of connection points: 2
#     Edge 29, Type (0, 1), BuildingBlock: XUDNAN_clean_linker_2, # of connection points: 2
#     Edge 30, Type (0, 1), BuildingBlock: XUDNAN_clean_linker_2, # of connection points: 2
#     Edge 31, Type (0, 1), BuildingBlock: XUDNAN_clean_linker_2, # of connection points: 2
#     Edge 32, Type (0, 1), BuildingBlock: XUDNAN_clean_linker_2, # of connection points: 2
#     Edge 33, Type (0, 1), BuildingBlock: XUDNAN_clean_linker_2, # of connection points: 2
#     Edge 34, Type (0, 1), BuildingBlock: XUDNAN_clean_linker_2, # of connection points: 2
#     Edge 35, Type (0, 1), BuildingBlock: XUDNAN_clean_linker_2, # of connection points: 2
#     Edge 36, Type (0, 1), BuildingBlock: XUDNAN_clean_linker_2, # of connection points: 2
#     Edge 37, Type (0, 1), BuildingBlock: XUDNAN_clean_linker_2, # of connection points: 2
# Relax obj value: 0.010
# Max RMSD: 0.127
# Mean RMSD: 0.066
data_MOF--net-pto--node1-OLANEW_clean_sbu_2--node2-MUDLON_clean_linker_0--edge1-XUDNAN_clean_linker_2
_symmetry_space_group_name_H-M    P1
_symmetry_Int_Tables_number       1
_symmetry_cell_setting            triclinic
loop_
_symmetry_equiv_pos_as_xyz
'x, y, z'
_cell_length_a     40.426618
_cell_length_b     71.652918
_cell_length_c     56.797661
_cell_angle_alpha  92.871923
_cell_angle_beta   89.058914
_cell_angle_gamma 106.40395
loop_
_atom_site_label
_atom_site_type_symbol
_atom_site_fract_x
_atom_site_fract_y
_atom_site_fract_z
_atom_type_partial_charge
O0 O 0.29871 0.29528 0.27743 0.0
Cd1 Cd 0.26682 0.28184 0.31241 0.0
O2 O 0.29971 0.3237 0.29363 0.0
Cd3 Cd 0.31177 0.35529 0.29978 0.0
O4 O 0.3049 0.38221 0.31599 0.0
C5 C 0.29142 0.39302 0.30462 0.0
O6 O 0.28366 0.38848 0.28229 0.0
C7 C 0.30781 0.31371 0.2765 0.0
C8 C 0.30807 0.26944 0.34341 0.0
O9 O 0.28842 0.25736 0.32866 0.0
O10 O 0.30826 0.28735 0.34345 0.0
O11 O 0.26798 0.84925 0.73834 0.0
Cd12 Cd 0.23707 0.84798 0.70146 0.0
O13 O 0.27325 0.81974 0.73134 0.0
Cd14 Cd 0.2447 0.81283 0.69832 0.0
O15 O 0.21636 0.79122 0.67205 0.0
C16 C 0.19724 0.7757 0.68041 0.0
O17 O 0.19511 0.77439 0.70341 0.0
C18 C 0.27888 0.83522 0.74444 0.0
C19 C 0.25119 0.88467 0.68278 0.0
O20 O 0.2251 0.87845 0.69629 0.0
O21 O 0.27051 0.87353 0.67809 0.0
O22 O 0.77399 0.7797 0.34901 0.0
Cd23 Cd 0.75442 0.74659 0.33124 0.0
O24 O 0.75662 0.7907 0.31739 0.0
Cd25 Cd 0.74174 0.76371 0.29564 0.0
O26 O 0.72173 0.75458 0.26026 0.0
C27 C 0.7329 0.7677 0.24553 0.0
O28 O 0.75607 0.78382 0.25261 0.0
C29 C 0.76942 0.79379 0.33799 0.0
C30 C 0.79256 0.72155 0.34312 0.0
O31 O 0.80019 0.73177 0.32487 0.0
O32 O 0.76731 0.72349 0.35602 0.0
O33 O 0.7625 0.28522 0.65897 0.0
Cd34 Cd 0.74261 0.25432 0.67856 0.0
O35 O 0.7155 0.29409 0.66683 0.0
Cd36 Cd 0.69337 0.27068 0.69051 0.0
O37 O 0.67234 0.26426 0.72581 0.0
C38 C 0.69173 0.27241 0.74298 0.0
O39 O 0.72347 0.28268 0.7385 0.0
C40 C 0.745 0.29729 0.65711 0.0
C41 C 0.76032 0.22436 0.6526 0.0
O42 O 0.73048 0.22702 0.65046 0.0
O43 O 0.78161 0.23577 0.66706 0.0
O44 O 0.77781 0.79132 0.63816 0.0
Cd45 Cd 0.74396 0.76127 0.6558 0.0
O46 O 0.80483 0.80489 0.67071 0.0
Cd47 Cd 0.77442 0.78315 0.694 0.0
O48 O 0.74326 0.78406 0.72559 0.0
C49 C 0.74548 0.80144 0.73291 0.0
O50 O 0.76551 0.81582 0.72136 0.0
C51 C 0.79973 0.80541 0.64876 0.0
C52 C 0.77611 0.73147 0.65601 0.0
O53 O 0.76115 0.73451 0.63745 0.0
O54 O 0.77645 0.74272 0.67433 0.0
O55 O 0.83143 0.28329 0.32765 0.0
Cd56 Cd 0.79242 0.25406 0.30883 0.0
O57 O 0.80925 0.30377 0.31018 0.0
Cd58 Cd 0.77468 0.28402 0.28484 0.0
O59 O 0.75046 0.2891 0.25249 0.0
C60 C 0.76411 0.30606 0.24521 0.0
O61 O 0.79043 0.31756 0.25694 0.0
C62 C 0.83017 0.30058 0.32488 0.0
C63 C 0.79969 0.22041 0.32848 0.0
O64 O 0.81484 0.2263 0.30911 0.0
O65 O 0.78104 0.23032 0.33846 0.0
O66 O 0.26151 0.34365 0.74822 0.0
Cd67 Cd 0.23033 0.33759 0.71065 0.0
O68 O 0.30599 0.36596 0.73465 0.0
Cd69 Cd 0.28944 0.35591 0.69871 0.0
O70 O 0.28598 0.3322 0.67223 0.0
C71 C 0.30671 0.3221 0.67529 0.0
O72 O 0.3282 0.3269 0.69316 0.0
C73 C 0.29013 0.35656 0.75181 0.0
C74 C 0.18662 0.36124 0.70567 0.0
O75 O 0.17641 0.34499 0.71579 0.0
O76 O 0.21775 0.36647 0.69805 0.0
O77 O 0.3766 0.86469 0.29933 0.0
Cd78 Cd 0.34966 0.85791 0.338 0.0
O79 O 0.36788 0.83347 0.2901 0.0
Cd80 Cd 0.339 0.82196 0.32153 0.0
O81 O 0.30348 0.79824 0.33979 0.0
C82 C 0.29703 0.78172 0.32881 0.0
O83 O 0.31228 0.78038 0.30844 0.0
C84 C 0.37985 0.85118 0.28488 0.0
C85 C 0.34454 0.89142 0.36325 0.0
O86 O 0.37203 0.88591 0.364 0.0
O87 O 0.31955 0.88115 0.35042 0.0
H88 H 0.03424 0.45861 0.41991 0.0
N89 N 0.05182 0.48323 0.38544 0.0
H90 H -0.00681 0.4261 0.41804 0.0
H91 H 0.00524 0.46788 0.34967 0.0
H92 H 0.96575 0.43545 0.34722 0.0
H93 H 0.0648 0.46435 0.34455 0.0
H94 H 0.11731 0.45592 0.33461 0.0
H95 H 0.11187 0.49555 0.40789 0.0
H96 H 0.16605 0.48838 0.39718 0.0
H97 H 0.04079 0.51138 0.4138 0.0
H98 H 0.04953 0.49509 0.34042 0.0
H99 H 0.03385 0.54262 0.40301 0.0
H100 H 0.03997 0.52545 0.32928 0.0
H101 H 0.00678 0.62624 0.38067 0.0
H102 H 0.9591 0.64061 0.38637 0.0
H103 H 0.92941 0.62564 0.31362 0.0
H104 H 0.97757 0.61131 0.30801 0.0
H105 H 0.05792 0.63619 0.30669 0.0
H106 H 0.10773 0.66478 0.31216 0.0
H107 H 0.11508 0.65103 0.38478 0.0
H108 H 0.06489 0.62247 0.37909 0.0
H109 H -0.00516 0.59088 0.37695 0.0
H110 H -0.00165 0.55909 0.38714 0.0
H111 H 0.06696 0.55838 0.32805 0.0
N112 N 0.02646 0.61172 0.33886 0.0
H113 H 0.06133 0.58974 0.317 0.0
C114 C 0.02312 0.46578 0.38504 0.0
C115 C 0.01861 0.45378 0.40427 0.0
C116 C -0.00455 0.43512 0.40302 0.0
C117 C 0.97644 0.42797 0.38234 0.0
C118 C 0.97959 0.44045 0.36355 0.0
C119 C 0.00251 0.45915 0.36491 0.0
C120 C 0.08406 0.48022 0.37739 0.0
C121 C 0.08664 0.4697 0.35619 0.0
C122 C 0.11715 0.4651 0.35032 0.0
C123 C 0.14615 0.4713 0.36516 0.0
C124 C 0.14409 0.48291 0.38559 0.0
C125 C 0.11328 0.48719 0.39167 0.0
C126 C 0.04524 0.5008 0.37805 0.0
C127 C 0.04044 0.51441 0.39533 0.0
C128 C 0.03623 0.53222 0.38906 0.0
C129 C 0.03625 0.5367 0.36519 0.0
C130 C 0.0404 0.52277 0.34784 0.0
C131 C 0.04532 0.50515 0.35418 0.0
C132 C -0.00436 0.61759 0.34383 0.0
C133 C 0.98968 0.62568 0.36605 0.0
C134 C 0.96231 0.63386 0.36932 0.0
C135 C 0.94062 0.63433 0.35041 0.0
C136 C 0.94591 0.62564 0.32845 0.0
C137 C 0.97314 0.61732 0.32526 0.0
C138 C 0.05779 0.62729 0.34238 0.0
C139 C 0.07064 0.63925 0.32366 0.0
C140 C 0.09914 0.6555 0.32683 0.0
C141 C 0.1154 0.66017 0.34892 0.0
C142 C 0.10291 0.64792 0.36763 0.0
C143 C 0.07437 0.63157 0.36438 0.0
C144 C 0.02768 0.59281 0.3459 0.0
C145 C 0.0104 0.58395 0.36595 0.0
C146 C 0.01271 0.56566 0.37197 0.0
C147 C 0.03292 0.55597 0.35846 0.0
C148 C 0.05045 0.56503 0.33862 0.0
C149 C 0.04756 0.5831 0.33236 0.0
H150 H 0.9321 0.46714 0.63593 0.0
N151 N 0.98924 0.46846 0.60886 0.0
H152 H 0.88026 0.43952 0.6379 0.0
H153 H 0.97317 0.4363 0.58104 0.0
H154 H 0.92128 0.40861 0.58278 0.0
H155 H 0.04693 0.45996 0.59592 0.0
H156 H 0.0807 0.4443 0.61936 0.0
H157 H 0.98468 0.46529 0.65679 0.0
H158 H 0.01928 0.45071 0.68066 0.0
H159 H 0.00252 0.49762 0.6446 0.0
H160 H 0.97117 0.48443 0.57196 0.0
H161 H -0.00265 0.53031 0.64187 0.0
H162 H 0.96424 0.51696 0.56944 0.0
H163 H 0.96371 0.6168 0.64332 0.0
H164 H 0.92306 0.63336 0.65921 0.0
H165 H 0.86641 0.62064 0.59363 0.0
H166 H 0.9088 0.60489 0.57737 0.0
H167 H 0.98844 0.63389 0.56947 0.0
H168 H 0.03675 0.6631 0.57616 0.0
H169 H 0.06763 0.63748 0.63637 0.0
H170 H 0.01875 0.60864 0.62993 0.0
H171 H 0.953 0.58173 0.63654 0.0
H172 H 0.95807 0.54892 0.63948 0.0
H173 H -0.00522 0.54972 0.56748 0.0
N174 N 0.96751 0.60406 0.59727 0.0
H175 H 0.98774 0.58221 0.56434 0.0
C176 C 0.95646 0.45372 0.60825 0.0
C177 C 0.92962 0.45457 0.62397 0.0
C178 C 0.89998 0.4388 0.62503 0.0
C179 C 0.89682 0.42187 0.61056 0.0
C180 C 0.92316 0.42138 0.5943 0.0
C181 C 0.95263 0.43719 0.59315 0.0
C182 C 0.01351 0.46398 0.6245 0.0
C183 C 0.0415 0.45849 0.61458 0.0
C184 C 0.06078 0.44952 0.62806 0.0
C185 C 0.05249 0.44596 0.6519 0.0
C186 C 0.02596 0.4528 0.66224 0.0
C187 C 0.00642 0.46147 0.64866 0.0
C188 C 0.9874 0.48832 0.6083 0.0
C189 C -0.00567 0.50155 0.62803 0.0
C190 C 0.99107 0.5204 0.62653 0.0
C191 C 0.98036 0.52643 0.60543 0.0
C192 C 0.97323 0.5131 0.58586 0.0
C193 C 0.97696 0.4944 0.58728 0.0
C194 C 0.93952 0.6097 0.60894 0.0
C195 C 0.94224 0.6172 0.63244 0.0
C196 C 0.91867 0.62664 0.64161 0.0
C197 C 0.89153 0.62863 0.62765 0.0
C198 C 0.88742 0.61982 0.60474 0.0
C199 C 0.9113 0.61055 0.59549 0.0
C200 C -0.0001 0.61911 0.59911 0.0
C201 C 0.00619 0.63443 0.58374 0.0
C202 C 0.03385 0.65109 0.58759 0.0
C203 C 0.05587 0.65271 0.60696 0.0
C204 C 0.05079 0.63682 0.62153 0.0
C205 C 0.02302 0.6202 0.61771 0.0
C206 C 0.96945 0.58443 0.59994 0.0
C207 C 0.96169 0.57485 0.62125 0.0
C208 C 0.96503 0.55604 0.62302 0.0
C209 C 0.97675 0.5465 0.6037 0.0
C210 C 0.98492 0.55631 0.58259 0.0
C211 C 0.98112 0.57495 0.58075 0.0
H212 H 0.43234 0.21281 0.55721 0.0
N213 N 0.3992 0.18062 0.53298 0.0
H214 H 0.40735 0.23341 0.58331 0.0
H215 H 0.33274 0.17065 0.54988 0.0
H216 H 0.30749 0.19112 0.57605 0.0
H217 H 0.45138 0.19766 0.50515 0.0
H218 H 0.44839 0.21363 0.46828 0.0
H219 H 0.34033 0.17985 0.5091 0.0
H220 H 0.33718 0.19547 0.47261 0.0
H221 H 0.34553 0.14972 0.51676 0.0
H222 H 0.44278 0.16497 0.55334 0.0
H223 H 0.34176 0.11539 0.51847 0.0
H224 H 0.43859 0.13039 0.556 0.0
H225 H 0.315 0.02077 0.54279 0.0
H226 H 0.2867 -0.00086 0.57351 0.0
H227 H 0.38417 0.00971 0.60926 0.0
H228 H 0.41236 0.03172 0.57851 0.0
H229 H 0.41709 0.0131 0.52552 0.0
H230 H 0.40503 0.99043 0.49129 0.0
H231 H 0.32876 0.01742 0.46815 0.0
H232 H 0.33948 0.0391 0.50332 0.0
H233 H 0.32977 0.05489 0.5446 0.0
H234 H 0.3329 0.08924 0.54433 0.0
H235 H 0.44264 0.1031 0.53136 0.0
N236 N 0.38416 0.03889 0.53928 0.0
H237 H 0.43942 0.06856 0.53263 0.0
C238 C 0.38457 0.19028 0.55154 0.0
C239 C 0.40525 0.20779 0.56176 0.0
C240 C 0.39089 0.21951 0.57667 0.0
C241 C 0.35534 0.21397 0.5816 0.0
C242 C 0.33487 0.1959 0.57231 0.0
C243 C 0.34935 0.18412 0.55746 0.0
C244 C 0.39626 0.1874 0.50983 0.0
C245 C 0.42642 0.19681 0.4978 0.0
C246 C 0.42466 0.206 0.47689 0.0
C247 C 0.39254 0.20577 0.46757 0.0
C248 C 0.3623 0.19562 0.47912 0.0
C249 C 0.3641 0.18663 0.50009 0.0
C250 C 0.3948 0.16006 0.53474 0.0
C251 C 0.36604 0.14577 0.52532 0.0
C252 C 0.36375 0.126 0.52649 0.0
C253 C 0.38996 0.12006 0.53727 0.0
C254 C 0.41825 0.13441 0.54716 0.0
C255 C 0.42059 0.15416 0.54584 0.0
C256 C 0.36587 0.02806 0.55854 0.0
C257 C 0.33015 0.01893 0.55756 0.0
C258 C 0.31399 0.00652 0.57511 0.0
C259 C 0.33328 0.00275 0.59373 0.0
C260 C 0.36875 0.01231 0.59503 0.0
C261 C 0.38481 0.02493 0.57763 0.0
C262 C 0.37954 0.02788 0.51699 0.0
C263 C 0.39814 0.01426 0.51283 0.0
C264 C 0.39127 0.00137 0.49311 0.0
C265 C 0.36582 0.00198 0.47677 0.0
C266 C 0.34809 0.01622 0.48049 0.0
C267 C 0.35456 0.02889 0.50052 0.0
C268 C 0.38461 0.05909 0.5389 0.0
C269 C 0.35459 0.06522 0.54191 0.0
C270 C 0.35636 0.08497 0.54152 0.0
C271 C 0.38804 0.09902 0.5379 0.0
C272 C 0.4179 0.09278 0.53465 0.0
C273 C 0.41612 0.07304 0.53519 0.0
H274 H 0.53092 0.80034 0.10408 0.0
N275 N 0.56024 0.83324 0.07995 0.0
H276 H 0.56146 0.78123 0.12447 0.0
H277 H 0.6273 0.8365 0.07801 0.0
H278 H 0.65826 0.81679 0.09757 0.0
H279 H 0.5806 0.86416 0.10941 0.0
H280 H 0.54753 0.87424 0.14163 0.0
H281 H 0.49055 0.81815 0.08778 0.0
H282 H 0.45734 0.8283 0.11951 0.0
H283 H 0.5165 0.79895 0.06214 0.0
H284 H 0.57759 0.8561 0.04391 0.0
H285 H 0.4989 0.79118 0.02115 0.0
H286 H 0.56149 0.84819 0.00255 0.0
H287 H 0.50463 0.77566 0.87433 0.0
H288 H 0.55244 0.77928 0.84644 0.0
H289 H 0.60974 0.83111 0.88611 0.0
H290 H 0.56122 0.828 0.9129 0.0
H291 H 0.50856 0.83563 0.89109 0.0
H292 H 0.46634 0.84639 0.86935 0.0
H293 H 0.38955 0.7921 0.88192 0.0
H294 H 0.43229 0.78131 0.90364 0.0
H295 H 0.50794 0.77634 0.94216 0.0
H296 H 0.52144 0.78409 0.98396 0.0
H297 H 0.51561 0.84272 0.97554 0.0
N298 N 0.49865 0.79995 0.90996 0.0
H299 H 0.50397 0.8352 0.93391 0.0
C300 C 0.57701 0.82016 0.08986 0.0
C301 C 0.55866 0.80399 0.10239 0.0
C302 C 0.57622 0.79288 0.11388 0.0
C303 C 0.61242 0.79754 0.11286 0.0
C304 C 0.63045 0.81302 0.09913 0.0
C305 C 0.61286 0.82423 0.08783 0.0
C306 C 0.5383 0.84045 0.09615 0.0
C307 C 0.5535 0.85656 0.11126 0.0
C308 C 0.53453 0.86231 0.1296 0.0
C309 C 0.49986 0.85197 0.13322 0.0
C310 C 0.48415 0.83639 0.11737 0.0
C311 C 0.50314 0.83066 0.09903 0.0
C312 C 0.54819 0.82826 0.0561 0.0
C313 C 0.52604 0.80989 0.04934 0.0
C314 C 0.51628 0.80538 0.02577 0.0
C315 C 0.52878 0.81904 0.00845 0.0
C316 C 0.55081 0.83742 0.0154 0.0
C317 C 0.56024 0.84196 0.03898 0.0
C318 C 0.5292 0.80139 0.89577 0.0
C319 C 0.52774 0.78765 0.87709 0.0
C320 C 0.55521 0.78971 0.86126 0.0
C321 C 0.58502 0.80555 0.8639 0.0
C322 C 0.58698 0.81893 0.88321 0.0
C323 C 0.55928 0.81702 0.89882 0.0
C324 C 0.47352 0.80755 0.89896 0.0
C325 C 0.48256 0.82611 0.88948 0.0
C326 C 0.45832 0.83232 0.87716 0.0
C327 C 0.42466 0.82007 0.8739 0.0
C328 C 0.4154 0.80178 0.88399 0.0
C329 C 0.43964 0.79563 0.89645 0.0
C330 C 0.5046 0.80498 0.9348 0.0
C331 C 0.50943 0.79082 0.94944 0.0
C332 C 0.51693 0.79526 0.97335 0.0
C333 C 0.51957 0.81405 0.98319 0.0
C334 C 0.51427 0.82818 0.96854 0.0
C335 C 0.50715 0.82378 0.9446 0.0
H336 H 0.73355 0.09625 0.4962 0.0
N337 N 0.77895 0.0766 0.48579 0.0
H338 H 0.73625 0.12066 0.52806 0.0
H339 H 0.82413 0.08442 0.52358 0.0
H340 H 0.8255 0.10757 0.55628 0.0
H341 H 0.83432 0.10878 0.48127 0.0
H342 H 0.84526 0.13038 0.44817 0.0
H343 H 0.74822 0.06975 0.44385 0.0
H344 H 0.76013 0.09101 0.41022 0.0
H345 H 0.74067 0.04028 0.49094 0.0
H346 H 0.84594 0.07513 0.48404 0.0
H347 H 0.75999 0.01105 0.49323 0.0
H348 H 0.86587 0.04625 0.48757 0.0
H349 H 0.80049 0.93106 0.51076 0.0
H350 H 0.79692 0.90907 0.54263 0.0
H351 H 0.90565 0.93435 0.55638 0.0
H352 H 0.90864 0.95684 0.52481 0.0
H353 H 0.89966 0.93804 0.47176 0.0
H354 H 0.88364 0.91315 0.43949 0.0
H355 H 0.78193 0.92135 0.43802 0.0
H356 H 0.79784 0.94592 0.47047 0.0
H357 H 0.80467 0.96488 0.51872 0.0
H358 H 0.78699 0.99437 0.51732 0.0
H359 H 0.86924 0.01734 0.46794 0.0
N360 N 0.85929 0.95658 0.49432 0.0
H361 H 0.88806 0.98799 0.47047 0.0
C362 C 0.77843 0.08837 0.50722 0.0
C363 C 0.7534 0.09849 0.50948 0.0
C364 C 0.75495 0.11242 0.52785 0.0
C365 C 0.78132 0.11634 0.54483 0.0
C366 C 0.80534 0.10541 0.54327 0.0
C367 C 0.80425 0.09181 0.52456 0.0
C368 C 0.78994 0.08777 0.46516 0.0
C369 C 0.81822 0.10463 0.46576 0.0
C370 C 0.82449 0.11696 0.44689 0.0
C371 C 0.80337 0.11233 0.42684 0.0
C372 C 0.77677 0.09481 0.42552 0.0
C373 C 0.76998 0.0827 0.44463 0.0
C374 C 0.79172 0.05983 0.48743 0.0
C375 C 0.76801 0.04159 0.49016 0.0
C376 C 0.77922 0.02494 0.49167 0.0
C377 C 0.81461 0.02618 0.49075 0.0
C378 C 0.83841 0.04458 0.48801 0.0
C379 C 0.82709 0.06119 0.48615 0.0
C380 C 0.85493 0.9458 0.51552 0.0
C381 C 0.82338 0.93226 0.52101 0.0
C382 C 0.82149 0.91948 0.53907 0.0
C383 C 0.85111 0.91973 0.55188 0.0
C384 C 0.88226 0.93385 0.54704 0.0
C385 C 0.88406 0.94673 0.52904 0.0
C386 C 0.85023 0.94399 0.47336 0.0
C387 C 0.87412 0.93466 0.46418 0.0
C388 C 0.86487 0.92038 0.44595 0.0
C389 C 0.83155 0.91534 0.43636 0.0
C390 C 0.80789 0.92511 0.44499 0.0
C391 C 0.817 0.9392 0.46348 0.0
C392 C 0.8482 0.97413 0.49478 0.0
C393 C 0.81933 0.9762 0.50776 0.0
C394 C 0.80889 0.99317 0.50675 0.0
C395 C 0.82652 0.00836 0.49244 0.0
C396 C 0.85532 0.00621 0.47951 0.0
C397 C 0.86604 0.98937 0.4808 0.0
H398 H 0.53393 0.32069 0.11799 0.0
N399 N 0.53808 0.35076 0.08861 0.0
H400 H 0.58079 0.31534 0.14008 0.0
H401 H 0.60509 0.36783 0.08319 0.0
H402 H 0.65307 0.36139 0.10368 0.0
H403 H 0.53205 0.37967 0.11804 0.0
H404 H 0.4875 0.37868 0.14815 0.0
H405 H 0.47902 0.32083 0.09437 0.0
H406 H 0.43443 0.31987 0.12394 0.0
H407 H 0.52755 0.31326 0.07078 0.0
H408 H 0.52903 0.37122 0.05287 0.0
H409 H 0.51188 0.30138 0.03022 0.0
H410 H 0.51282 0.35944 0.01229 0.0
H411 H 0.46768 0.29148 0.87618 0.0
H412 H 0.5118 0.2846 0.85085 0.0
H413 H 0.57646 0.2874 0.9115 0.0
H414 H 0.53336 0.29546 0.93675 0.0
H415 H 0.49829 0.3338 0.89829 0.0
H416 H 0.4662 0.3508 0.8758 0.0
H417 H 0.3705 0.31273 0.90109 0.0
H418 H 0.4032 0.29512 0.92265 0.0
H419 H 0.44635 0.28408 0.96275 0.0
H420 H 0.46279 0.29588 0.00336 0.0
H421 H 0.53651 0.34679 0.97708 0.0
N422 N 0.47128 0.30107 0.92314 0.0
H423 H 0.5198 0.33494 0.93673 0.0
C424 C 0.56582 0.3452 0.09941 0.0
C425 C 0.55975 0.32977 0.1148 0.0
C426 C 0.58693 0.32649 0.12726 0.0
C427 C 0.62102 0.33813 0.12412 0.0
C428 C 0.62718 0.35255 0.1073 0.0
C429 C 0.59984 0.35614 0.09532 0.0
C430 C 0.50903 0.35044 0.10391 0.0
C431 C 0.51044 0.36673 0.11901 0.0
C432 C 0.48495 0.36614 0.13612 0.0
C433 C 0.45761 0.34914 0.1385 0.0
C434 C 0.45544 0.33309 0.12272 0.0
C435 C 0.48085 0.3337 0.1056 0.0
C436 C 0.52962 0.34322 0.06478 0.0
C437 C 0.52459 0.32344 0.0581 0.0
C438 C 0.51537 0.31664 0.03493 0.0
C439 C 0.51109 0.32947 0.01802 0.0
C440 C 0.51634 0.34923 0.02479 0.0
C441 C 0.52544 0.35598 0.04794 0.0
C442 C 0.49765 0.29581 0.90844 0.0
C443 C 0.49165 0.29117 0.88416 0.0
C444 C 0.51683 0.28677 0.86959 0.0
C445 C 0.54827 0.28587 0.87896 0.0
C446 C 0.55321 0.28877 0.90346 0.0
C447 C 0.52825 0.29352 0.91802 0.0
C448 C 0.45304 0.31291 0.91188 0.0
C449 C 0.47042 0.32928 0.89929 0.0
C450 C 0.4519 0.33909 0.88647 0.0
C451 C 0.41559 0.33309 0.88636 0.0
C452 C 0.39839 0.31749 0.90024 0.0
C453 C 0.41696 0.30748 0.91274 0.0
C454 C 0.48157 0.30863 0.94678 0.0
C455 C 0.46598 0.29779 0.96585 0.0
C456 C 0.47558 0.3045 0.98897 0.0
C457 C 0.50098 0.32227 -0.00656 0.0
C458 C 0.51653 0.33318 0.97425 0.0
C459 C 0.50695 0.32644 0.95114 0.0
H460 H 0.25702 0.41701 0.28646 0.0
H461 H 0.29931 0.40418 0.3515 0.0
H462 H 0.27309 0.42691 0.37357 0.0
H463 H 0.26441 0.46962 0.30304 0.0
H464 H 0.22432 0.46817 0.28861 0.0
H465 H 0.25124 0.45349 0.2774 0.0
H466 H 0.19977 0.42247 0.28048 0.0
H467 H 0.17286 0.43697 0.29184 0.0
H468 H 0.17815 0.4172 0.30841 0.0
H469 H 0.23456 0.44631 0.38925 0.0
H470 H 0.18828 0.4618 0.39726 0.0
H471 H 0.17353 0.46398 0.32192 0.0
C472 C 0.26162 0.41939 0.30525 0.0
C473 C 0.28025 0.40881 0.31723 0.0
C474 C 0.28524 0.41215 0.34189 0.0
C475 C 0.27051 0.42509 0.3546 0.0
C476 C 0.25131 0.43479 0.34236 0.0
C477 C 0.24723 0.43233 0.31818 0.0
C478 C 0.22285 0.44314 0.30957 0.0
C479 C 0.24185 0.45959 0.29372 0.0
C480 C 0.19157 0.4291 0.29684 0.0
C481 C 0.21253 0.45122 0.3328 0.0
C482 C 0.22957 0.44646 0.35146 0.0
C483 C 0.22176 0.45062 0.37476 0.0
C484 C 0.19544 0.45957 0.37911 0.0
C485 C 0.17716 0.46433 0.36026 0.0
C486 C 0.1867 0.46051 0.33681 0.0
H487 H 0.15171 0.74173 0.69335 0.0
H488 H 0.2016 0.77174 0.63214 0.0
H489 H 0.17245 0.74304 0.60651 0.0
H490 H 0.15658 0.69413 0.67463 0.0
H491 H 0.11491 0.68186 0.68648 0.0
H492 H 0.13975 0.70472 0.6999 0.0
H493 H 0.08873 0.71937 0.69455 0.0
H494 H 0.06364 0.69651 0.68133 0.0
H495 H 0.0704 0.71854 0.66566 0.0
H496 H 0.13773 0.7107 0.58768 0.0
H497 H 0.09846 0.67813 0.57713 0.0
H498 H 0.07111 0.67016 0.65092 0.0
C499 C 0.15655 0.74232 0.67455 0.0
C500 C 0.17899 0.75896 0.66475 0.0
C501 C 0.18447 0.75914 0.64004 0.0
C502 C 0.16813 0.7429 0.62536 0.0
C503 C 0.14638 0.72665 0.63567 0.0
C504 C 0.14044 0.72633 0.6597 0.0
C505 C 0.11552 0.70729 0.66644 0.0
C506 C 0.13273 0.69636 0.68283 0.0
C507 C 0.08262 0.71064 0.67765 0.0
C508 C 0.10831 0.6969 0.64245 0.0
C509 C 0.1264 0.70823 0.62491 0.0
C510 C 0.12342 0.70171 0.60129 0.0
C511 C 0.10099 0.68323 0.59546 0.0
C512 C 0.08181 0.67153 0.61319 0.0
C513 C 0.08589 0.67852 0.63697 0.0
H514 H 0.84287 0.71154 0.31673 0.0
H515 H 0.78526 0.69967 0.38211 0.0
H516 H 0.81602 0.67554 0.39087 0.0
H517 H 0.84295 0.66232 0.30197 0.0
H518 H 0.88601 0.66901 0.28994 0.0
H519 H 0.85987 0.68557 0.28898 0.0
H520 H 0.90757 0.71251 0.31083 0.0
H521 H 0.93394 0.69608 0.3117 0.0
H522 H 0.92349 0.70759 0.33864 0.0
H523 H 0.85348 0.65277 0.39254 0.0
H524 H 0.89503 0.63331 0.38701 0.0
H525 H 0.92726 0.65995 0.32036 0.0
C526 C 0.83679 0.70394 0.33295 0.0
C527 C 0.8117 0.70753 0.34876 0.0
C528 C 0.8044 0.69718 0.36973 0.0
C529 C 0.82171 0.68343 0.37485 0.0
C530 C 0.84611 0.68014 0.35878 0.0
C531 C 0.85366 0.69012 0.33827 0.0
C532 C 0.88086 0.68385 0.32388 0.0
C533 C 0.86655 0.67464 0.29977 0.0
C534 C 0.91339 0.70103 0.32112 0.0
C535 C 0.88751 0.66883 0.33953 0.0
C536 C 0.86726 0.6669 0.3596 0.0
C537 C 0.86942 0.65414 0.37687 0.0
C538 C 0.8931 0.64319 0.37361 0.0
C539 C 0.91418 0.64503 0.3532 0.0
C540 C 0.91106 0.65795 0.33594 0.0
H541 H 0.81079 0.31141 0.63996 0.0
H542 H 0.71364 0.32562 0.64889 0.0
H543 H 0.74078 0.35832 0.6344 0.0
H544 H 0.86313 0.35602 0.66083 0.0
H545 H 0.89809 0.3569 0.64043 0.0
H546 H 0.87011 0.33377 0.64845 0.0
H547 H 0.85609 0.32397 0.60441 0.0
H548 H 0.88427 0.34707 0.59621 0.0
H549 H 0.84 0.33962 0.5866 0.0
H550 H 0.78004 0.39068 0.62342 0.0
H551 H 0.8282 0.4198 0.61534 0.0
H552 H 0.89934 0.38437 0.61356 0.0
C553 C 0.79496 0.32121 0.63833 0.0
C554 C 0.76003 0.31589 0.6455 0.0
C555 C 0.74042 0.3293 0.64344 0.0
C556 C 0.75559 0.34792 0.63519 0.0
C557 C 0.79032 0.35289 0.62891 0.0
C558 C 0.80969 0.33985 0.63015 0.0
C559 C 0.84706 0.34922 0.62392 0.0
C560 C 0.87099 0.34896 0.64465 0.0
C561 C 0.85746 0.33938 0.60145 0.0
C562 C 0.84588 0.3697 0.61964 0.0
C563 C 0.81289 0.37151 0.62242 0.0
C564 C 0.80589 0.38938 0.62084 0.0
C565 C 0.83338 0.40584 0.61639 0.0
C566 C 0.86739 0.4043 0.6136 0.0
C567 C 0.87349 0.38592 0.61504 0.0
H568 H 0.2994 0.23232 0.35721 0.0
H569 H 0.36376 0.29175 0.36836 0.0
H570 H 0.39705 0.28098 0.39838 0.0
H571 H 0.29234 0.22152 0.41665 0.0
H572 H 0.29286 0.19654 0.41191 0.0
H573 H 0.27717 0.20841 0.38918 0.0
H574 H 0.32125 0.2002 0.35969 0.0
H575 H 0.33711 0.18829 0.38239 0.0
H576 H 0.36646 0.20762 0.36701 0.0
H577 H 0.42057 0.26421 0.42905 0.0
H578 H 0.42979 0.24323 0.46003 0.0
H579 H 0.3491 0.19491 0.42959 0.0
C580 C 0.32096 0.24299 0.36563 0.0
C581 C 0.32924 0.26283 0.36034 0.0
C582 C 0.35707 0.27646 0.37212 0.0
C583 C 0.37624 0.27046 0.38908 0.0
C584 C 0.36713 0.25082 0.39411 0.0
C585 C 0.34004 0.2373 0.38281 0.0
C586 C 0.33346 0.21744 0.39297 0.0
C587 C 0.29679 0.21059 0.40329 0.0
C588 C 0.33997 0.20251 0.3744 0.0
C589 C 0.36051 0.222 0.41214 0.0
C590 C 0.3801 0.24124 0.41222 0.0
C591 C 0.40568 0.24906 0.42898 0.0
C592 C 0.41086 0.23701 0.44643 0.0
C593 C 0.39027 0.21743 0.44713 0.0
C594 C 0.36524 0.20981 0.42946 0.0
H595 H 0.3001 0.80652 0.76401 0.0
H596 H 0.30208 0.86724 0.77493 0.0
H597 H 0.33673 0.86959 0.81105 0.0
H598 H 0.29394 0.79486 0.82587 0.0
H599 H 0.32126 0.77893 0.82209 0.0
H600 H 0.29504 0.78187 0.79798 0.0
H601 H 0.34942 0.79202 0.77149 0.0
H602 H 0.37575 0.78907 0.79546 0.0
H603 H 0.38551 0.81197 0.78131 0.0
H604 H 0.37448 0.86564 0.84465 0.0
H605 H 0.41152 0.85563 0.8729 0.0
H606 H 0.38371 0.79755 0.83952 0.0
C607 C 0.30753 0.82031 0.77404 0.0
C608 C 0.29839 0.83671 0.76661 0.0
C609 C 0.30872 0.85446 0.7803 0.0
C610 C 0.32836 0.85593 0.80085 0.0
C611 C 0.33715 0.83948 0.80752 0.0
C612 C 0.3269 0.82199 0.79454 0.0
C613 C 0.34059 0.80662 0.8049 0.0
C614 C 0.31093 0.78957 0.81321 0.0
C615 C 0.36422 0.79952 0.78724 0.0
C616 C 0.36074 0.81826 0.82553 0.0
C617 C 0.35838 0.83715 0.82687 0.0
C618 C 0.37623 0.85082 0.84389 0.0
C619 C 0.39728 0.84504 0.85978 0.0
C620 C 0.40023 0.82578 0.85851 0.0
C621 C 0.38137 0.81224 0.84128 0.0
H622 H 0.80324 0.80753 0.37997 0.0
H623 H 0.75417 0.82529 0.3209 0.0
H624 H 0.76585 0.85833 0.33922 0.0
H625 H 0.7722 0.83507 0.42487 0.0
H626 H 0.8115 0.84164 0.44177 0.0
H627 H 0.80004 0.81932 0.42385 0.0
H628 H 0.85873 0.83005 0.40209 0.0
H629 H 0.87038 0.8524 0.41997 0.0
H630 H 0.87106 0.85313 0.38829 0.0
H631 H 0.78014 0.889 0.36454 0.0
H632 H 0.79884 0.91588 0.3948 0.0
H633 H 0.84017 0.87882 0.43685 0.0
C634 C 0.79509 0.81839 0.37085 0.0
C635 C 0.77774 0.81375 0.349 0.0
C636 C 0.76756 0.82843 0.33763 0.0
C637 C 0.77404 0.84728 0.34789 0.0
C638 C 0.79097 0.85133 0.36946 0.0
C639 C 0.80161 0.83739 0.38077 0.0
C640 C 0.81925 0.84565 0.40389 0.0
C641 C 0.79956 0.83477 0.42482 0.0
C642 C 0.8571 0.84529 0.40353 0.0
C643 C 0.8165 0.86631 0.40384 0.0
C644 C 0.79999 0.86925 0.38385 0.0
C645 C 0.79336 0.88695 0.3802 0.0
C646 C 0.80391 0.90207 0.39747 0.0
C647 C 0.82112 0.89942 0.41799 0.0
C648 C 0.82756 0.88132 0.42112 0.0
H649 H 0.62532 0.25573 0.75778 0.0
H650 H 0.72599 0.29025 0.78278 0.0
H651 H 0.70106 0.29454 0.82188 0.0
H652 H 0.57829 0.28389 0.78525 0.0
H653 H 0.54165 0.26406 0.79282 0.0
H654 H 0.56797 0.26128 0.7678 0.0
H655 H 0.57852 0.23069 0.78517 0.0
H656 H 0.55189 0.23327 0.8102 0.0
H657 H 0.59539 0.23227 0.81462 0.0
H658 H 0.6641 0.29893 0.85622 0.0
H659 H 0.61823 0.30197 0.88387 0.0
H660 H 0.5418 0.26312 0.83756 0.0
C661 C 0.64231 0.26378 0.77164 0.0
C662 C 0.67764 0.27263 0.76719 0.0
C663 C 0.69888 0.28328 0.78574 0.0
C664 C 0.68497 0.28578 0.80805 0.0
C665 C 0.64985 0.27736 0.81164 0.0
C666 C 0.62886 0.26636 0.79405 0.0
C667 C 0.59156 0.26001 0.80199 0.0
C668 C 0.56853 0.26778 0.78602 0.0
C669 C 0.57858 0.23773 0.80306 0.0
C670 C 0.5947 0.2698 0.82643 0.0
C671 C 0.62857 0.27958 0.83174 0.0
C672 C 0.63756 0.29093 0.85252 0.0
C673 C 0.61123 0.29248 0.86822 0.0
C674 C 0.57619 0.28268 0.86313 0.0
C675 C 0.56815 0.27092 0.84206 0.0
H676 H 0.30843 0.90352 0.65783 0.0
H677 H 0.2107 0.90961 0.68473 0.0
H678 H 0.22235 0.94149 0.66663 0.0
H679 H 0.35662 0.95467 0.66632 0.0
H680 H 0.38146 0.95455 0.6397 0.0
H681 H 0.366 0.9326 0.65558 0.0
H682 H 0.33567 0.9143 0.61781 0.0
H683 H 0.35109 0.93616 0.60182 0.0
H684 H 0.30558 0.92389 0.60273 0.0
H685 H 0.24311 0.97175 0.64335 0.0
H686 H 0.27226 -0.00158 0.61757 0.0
H687 H 0.35685 0.97277 0.60706 0.0
C688 C 0.28955 0.91159 0.66006 0.0
C689 C 0.25862 0.90406 0.67266 0.0
C690 C 0.2346 0.91511 0.67517 0.0
C691 C 0.241 0.93324 0.66497 0.0
C692 C 0.27166 0.94017 0.65253 0.0
C693 C 0.29563 0.92974 0.65017 0.0
C694 C 0.32623 0.94022 0.63552 0.0
C695 C 0.35954 0.94585 0.65016 0.0
C696 C 0.32983 0.92791 0.61314 0.0
C697 C 0.31546 0.95802 0.62965 0.0
C698 C 0.28394 0.95776 0.63963 0.0
C699 C 0.26799 0.97222 0.63567 0.0
C700 C 0.28463 0.98725 0.62099 0.0
C701 C 0.31692 0.98773 0.61059 0.0
C702 C 0.33255 0.973 0.61521 0.0
H703 H 0.74301 0.79633 0.21419 0.0
H704 H 0.68519 0.7363 0.22441 0.0
H705 H 0.65293 0.73595 0.18767 0.0
H706 H 0.67431 0.81137 0.1974 0.0
H707 H 0.69741 0.82813 0.17614 0.0
H708 H 0.72006 0.82248 0.2005 0.0
H709 H 0.76212 0.81168 0.17151 0.0
H710 H 0.73956 0.81737 0.14696 0.0
H711 H 0.74516 0.79338 0.14847 0.0
H712 H 0.62227 0.7436 0.15255 0.0
H713 H 0.59507 0.75869 0.12301 0.0
H714 H 0.6718 0.81404 0.13758 0.0
C715 C 0.72428 0.7829 0.2084 0.0
C716 C 0.71678 0.76629 0.22208 0.0
C717 C 0.69151 0.74916 0.21411 0.0
C718 C 0.67315 0.74881 0.19323 0.0
C719 C 0.68049 0.76568 0.18053 0.0
C720 C 0.7056 0.78238 0.18781 0.0
C721 C 0.70606 0.79923 0.1727 0.0
C722 C 0.69902 0.81629 0.18757 0.0
C723 C 0.74026 0.80579 0.1591 0.0
C724 C 0.67646 0.78964 0.15627 0.0
C725 C 0.66241 0.7702 0.16072 0.0
C726 C 0.63334 0.75874 0.14874 0.0
C727 C 0.61792 0.76749 0.13212 0.0
C728 C 0.63132 0.78757 0.12787 0.0
C729 C 0.66138 0.79857 0.13987 0.0
H730 H 0.71774 0.1931 0.62783 0.0
H731 H 0.82513 0.22048 0.64555 0.0
H732 H 0.842 0.19517 0.6211 0.0
H733 H 0.72261 0.14312 0.62876 0.0
H734 H 0.69315 0.13471 0.60448 0.0
H735 H 0.68945 0.1548 0.62372 0.0
H736 H 0.6943 0.17626 0.5877 0.0
H737 H 0.69807 0.15626 0.56838 0.0
H738 H 0.73087 0.1793 0.56818 0.0
H739 H 0.84747 0.16823 0.5927 0.0
H740 H 0.84121 0.14077 0.5638 0.0
H741 H 0.72973 0.12922 0.56707 0.0
C742 C 0.7448 0.19373 0.62663 0.0
C743 C 0.77016 0.2088 0.63854 0.0
C744 C 0.80526 0.20905 0.63663 0.0
C745 C 0.8151 0.19475 0.62277 0.0
C746 C 0.78949 0.18016 0.61117 0.0
C747 C 0.75503 0.17942 0.61313 0.0
C748 C 0.73266 0.16217 0.59885 0.0
C749 C 0.70802 0.14785 0.61492 0.0
C750 C 0.71281 0.16891 0.57964 0.0
C751 C 0.75999 0.15353 0.58822 0.0
C752 C 0.79258 0.16415 0.59552 0.0
C753 C 0.82203 0.15957 0.58718 0.0
C754 C 0.81812 0.14376 0.57087 0.0
C755 C 0.78491 0.13248 0.56318 0.0
C756 C 0.75554 0.13747 0.5723 0.0
H757 H 0.34863 0.2984 0.24752 0.0
H758 H 0.31161 0.34939 0.25867 0.0
H759 H 0.34621 0.36436 0.22469 0.0
H760 H 0.43467 0.32321 0.23 0.0
H761 H 0.43723 0.30456 0.20811 0.0
H762 H 0.41009 0.29827 0.23362 0.0
H763 H 0.35762 0.28267 0.20645 0.0
H764 H 0.38459 0.28899 0.18085 0.0
H765 H 0.34625 0.29698 0.18437 0.0
H766 H 0.38552 0.37367 0.18917 0.0
H767 H 0.4253 0.37624 0.15505 0.0
H768 H 0.43472 0.31866 0.16718 0.0
C769 C 0.34778 0.31273 0.24285 0.0
C770 C 0.32809 0.32294 0.25614 0.0
C771 C 0.32752 0.3416 0.24936 0.0
C772 C 0.34676 0.35012 0.22987 0.0
C773 C 0.36616 0.33969 0.21728 0.0
C774 C 0.36668 0.32137 0.2235 0.0
C775 C 0.38931 0.31307 0.20708 0.0
C776 C 0.41962 0.30958 0.22051 0.0
C777 C 0.36817 0.29432 0.19391 0.0
C778 C 0.4015 0.32956 0.1906 0.0
C779 C 0.38798 0.34482 0.19673 0.0
C780 C 0.39617 0.36178 0.18418 0.0
C781 C 0.41883 0.36314 0.16491 0.0
C782 C 0.43284 0.34759 0.15836 0.0
C783 C 0.42391 0.33064 0.17145 0.0
H784 H 0.79866 0.7128 0.61842 0.0
H785 H 0.78904 0.71341 0.69463 0.0
H786 H 0.81374 0.68557 0.69543 0.0
H787 H 0.77945 0.66065 0.60766 0.0
H788 H 0.81125 0.66241 0.58464 0.0
H789 H 0.79108 0.68168 0.58986 0.0
H790 H 0.85108 0.70679 0.5953 0.0
H791 H 0.87139 0.68764 0.58985 0.0
H792 H 0.88062 0.70277 0.6166 0.0
H793 H 0.8389 0.6574 0.68781 0.0
H794 H 0.86843 0.63339 0.67293 0.0
H795 H 0.86566 0.65299 0.60201 0.0
C796 C 0.80156 0.70699 0.63525 0.0
C797 C 0.79171 0.71514 0.65646 0.0
C798 C 0.79644 0.70737 0.67818 0.0
C799 C 0.81025 0.6915 0.6788 0.0
C800 C 0.81956 0.68372 0.65757 0.0
C801 C 0.81587 0.69138 0.63623 0.0
C802 C 0.82987 0.68113 0.61611 0.0
C803 C 0.8012 0.67086 0.59853 0.0
C804 C 0.86004 0.69544 0.60375 0.0
C805 C 0.84205 0.66654 0.62946 0.0
C806 C 0.83543 0.66808 0.6533 0.0
C807 C 0.84446 0.65616 0.66919 0.0
C808 C 0.86142 0.64262 0.66055 0.0
C809 C 0.86973 0.64127 0.63627 0.0
C810 C 0.85933 0.65329 0.62059 0.0
H811 H 0.83122 0.33893 0.32455 0.0
H812 H 0.88217 0.30015 0.35533 0.0
H813 H 0.92264 0.32846 0.37596 0.0
H814 H 0.90589 0.37661 0.31353 0.0
H815 H 0.8866 0.39602 0.32059 0.0
H816 H 0.86018 0.37261 0.30977 0.0
H817 H 0.82092 0.37049 0.34667 0.0
H818 H 0.84722 0.39394 0.3576 0.0
H819 H 0.83978 0.37314 0.37562 0.0
H820 H 0.96017 0.36131 0.39073 0.0
H821 H -0.00826 0.39585 0.39843 0.0
H822 H 0.91454 0.41289 0.35914 0.0
C823 C 0.85062 0.33629 0.33582 0.0
C824 C 0.85348 0.31727 0.33832 0.0
C825 C 0.87939 0.31456 0.35318 0.0
C826 C 0.90247 0.33055 0.36499 0.0
C827 C 0.89909 0.34911 0.36191 0.0
C828 C 0.87369 0.35202 0.34777 0.0
C829 C 0.87635 0.37346 0.34658 0.0
C830 C 0.88264 0.38006 0.32111 0.0
C831 C 0.84415 0.37802 0.35726 0.0
C832 C 0.90773 0.38223 0.36186 0.0
C833 C 0.92035 0.36796 0.37067 0.0
C834 C 0.95019 0.37259 0.38425 0.0
C835 C 0.96782 0.39231 0.38867 0.0
C836 C 0.95558 0.40721 0.37957 0.0
C837 C 0.92477 0.40195 0.3663 0.0
H838 H 0.19785 0.3943 0.68046 0.0
H839 H 0.12127 0.35523 0.72321 0.0
H840 H 0.08032 0.37419 0.71635 0.0
H841 H 0.17506 0.43906 0.69856 0.0
H842 H 0.18209 0.44853 0.66952 0.0
H843 H 0.20642 0.43278 0.67916 0.0
H844 H 0.18571 0.4095 0.64261 0.0
H845 H 0.1613 0.42515 0.63289 0.0
H846 H 0.14013 0.39979 0.63709 0.0
H847 H 0.04646 0.39582 0.70285 0.0
H848 H 0.02143 0.41846 0.68326 0.0
H849 H 0.12015 0.4443 0.64984 0.0
C850 C 0.17263 0.38988 0.68864 0.0
C851 C 0.16282 0.3733 0.70245 0.0
C852 C 0.12942 0.36788 0.71259 0.0
C853 C 0.10598 0.37859 0.70886 0.0
C854 C 0.11633 0.39472 0.69497 0.0
C855 C 0.14885 0.4004 0.68504 0.0
C856 C 0.1528 0.41776 0.66991 0.0
C857 C 0.18075 0.43559 0.67989 0.0
C858 C 0.16043 0.41274 0.6441 0.0
C859 C 0.11721 0.4207 0.67255 0.0
C860 C 0.09672 0.40734 0.68724 0.0
C861 C 0.0624 0.40657 0.69161 0.0
C862 C 0.0485 0.41965 0.6805 0.0
C863 C 0.06883 0.43344 0.66516 0.0
C864 C 0.10381 0.434 0.66141 0.0
H865 H 0.27422 0.74553 0.3071 0.0
H866 H 0.26176 0.77885 0.37093 0.0
H867 H 0.21698 0.75022 0.3848 0.0
H868 H 0.18665 0.72178 0.29851 0.0
H869 H 0.19319 0.69905 0.28751 0.0
H870 H 0.22637 0.72149 0.28379 0.0
H871 H 0.27017 0.70767 0.30483 0.0
H872 H 0.23707 0.68514 0.3086 0.0
H873 H 0.26033 0.69843 0.33384 0.0
H874 H 0.17074 0.71847 0.39031 0.0
H875 H 0.12595 0.68682 0.38643 0.0
H876 H 0.1695 0.67461 0.31904 0.0
C877 C 0.26249 0.74678 0.32417 0.0
C878 C 0.27159 0.76442 0.33798 0.0
C879 C 0.25526 0.76546 0.36007 0.0
C880 C 0.22988 0.74926 0.36812 0.0
C881 C 0.22125 0.73216 0.3539 0.0
C882 C 0.23714 0.73083 0.3324 0.0
C883 C 0.22192 0.71125 0.31978 0.0
C884 C 0.20609 0.71354 0.296 0.0
C885 C 0.24899 0.69995 0.31659 0.0
C886 C 0.19442 0.70186 0.33728 0.0
C887 C 0.19464 0.71403 0.35699 0.0
C888 C 0.1706 0.70874 0.37509 0.0
C889 C 0.14537 0.6907 0.37279 0.0
C890 C 0.14425 0.67823 0.35245 0.0
C891 C 0.16954 0.68385 0.33473 0.0
H892 H 0.78764 0.81397 0.60364 0.0
H893 H 0.84881 0.8378 0.66596 0.0
H894 H 0.87077 0.8693 0.64727 0.0
H895 H 0.85 0.84071 0.56016 0.0
H896 H 0.81634 0.84409 0.54186 0.0
H897 H 0.80834 0.8229 0.55923 0.0
H898 H 0.75577 0.83161 0.57857 0.0
H899 H 0.7639 0.85296 0.56154 0.0
H900 H 0.76167 0.85523 0.59323 0.0
H901 H 0.88197 0.89909 0.62325 0.0
H902 H 0.8836 0.92439 0.59488 0.0
H903 H 0.81588 0.88086 0.54814 0.0
C904 C 0.80626 0.82565 0.61318 0.0
C905 C 0.81656 0.82334 0.63627 0.0
C906 C 0.84059 0.83915 0.64823 0.0
C907 C 0.85321 0.85713 0.63777 0.0
C908 C 0.84171 0.85907 0.61529 0.0
C909 C 0.81907 0.84369 0.60302 0.0
C910 C 0.80942 0.84985 0.57958 0.0
C911 C 0.82178 0.83873 0.55899 0.0
C912 C 0.77038 0.84726 0.57816 0.0
C913 C 0.82958 0.87117 0.58081 0.0
C914 C 0.84819 0.8762 0.60147 0.0
C915 C 0.86786 0.89526 0.60686 0.0
C916 C 0.86868 0.90953 0.59061 0.0
C917 C 0.84988 0.90467 0.56925 0.0
C918 C 0.83021 0.88517 0.5644 0.0
H919 H 0.7102 0.28639 0.216 0.0
H920 H 0.7851 0.34271 0.22898 0.0
H921 H 0.75925 0.35622 0.19742 0.0
H922 H 0.70692 0.2896 0.1513 0.0
H923 H 0.66128 0.27764 0.14994 0.0
H924 H 0.68717 0.27184 0.17247 0.0
H925 H 0.6468 0.28031 0.20461 0.0
H926 H 0.62091 0.28621 0.18221 0.0
H927 H 0.6392 0.30396 0.20552 0.0
H928 H 0.72218 0.36461 0.16766 0.0
H929 H 0.6775 0.36711 0.14031 0.0
H930 H 0.62868 0.30487 0.14385 0.0
C931 C 0.72144 0.30148 0.21198 0.0
C932 C 0.74969 0.31348 0.22502 0.0
C933 C 0.76352 0.33319 0.21927 0.0
C934 C 0.74905 0.34103 0.20132 0.0
C935 C 0.72097 0.32894 0.18905 0.0
C936 C 0.70746 0.30955 0.19391 0.0
C937 C 0.67639 0.29998 0.17853 0.0
C938 C 0.68337 0.28381 0.16208 0.0
C939 C 0.64391 0.29216 0.19362 0.0
C940 C 0.67405 0.31719 0.16481 0.0
C941 C 0.7001 0.3337 0.17113 0.0
C942 C 0.70208 0.35168 0.16212 0.0
C943 C 0.67659 0.35289 0.14634 0.0
C944 C 0.64947 0.33617 0.13944 0.0
C945 C 0.64873 0.31803 0.14868 0.0
H946 H 0.35265 0.30044 0.67473 0.0
H947 H 0.26086 0.30527 0.63987 0.0
H948 H 0.26112 0.27667 0.61365 0.0
H949 H 0.39405 0.28788 0.62317 0.0
H950 H 0.41234 0.27126 0.63757 0.0
H951 H 0.40375 0.29143 0.65422 0.0
H952 H 0.36623 0.26755 0.68345 0.0
H953 H 0.3746 0.24728 0.66681 0.0
H954 H 0.33081 0.24774 0.6724 0.0
H955 H 0.27241 0.24794 0.59066 0.0
H956 H 0.29561 0.22267 0.57124 0.0
H957 H 0.37999 0.23686 0.62132 0.0
C958 C 0.33244 0.29545 0.66169 0.0
C959 C 0.30665 0.30506 0.6594 0.0
C960 C 0.28088 0.29814 0.64194 0.0
C961 C 0.28074 0.28186 0.62704 0.0
C962 C 0.30656 0.27272 0.62982 0.0
C963 C 0.33202 0.27934 0.64665 0.0
C964 C 0.35765 0.26746 0.64545 0.0
C965 C 0.3941 0.28027 0.63976 0.0
C966 C 0.35728 0.25688 0.66839 0.0
C967 C 0.34288 0.25324 0.62513 0.0
C968 C 0.31323 0.25637 0.61649 0.0
C969 C 0.29547 0.24528 0.59738 0.0
C970 C 0.30872 0.23086 0.58658 0.0
C971 C 0.33954 0.22772 0.59481 0.0
C972 C 0.35646 0.23895 0.61456 0.0
H973 H 0.38972 0.8254 0.25023 0.0
H974 H 0.41051 0.88731 0.26773 0.0
H975 H 0.44126 0.89452 0.22975 0.0
H976 H 0.47041 0.82759 0.22367 0.0
H977 H 0.45272 0.80884 0.20128 0.0
H978 H 0.43118 0.80879 0.22927 0.0
H979 H 0.37497 0.80876 0.2079 0.0
H980 H 0.3964 0.80888 0.17982 0.0
H981 H 0.37575 0.82755 0.18778 0.0
H982 H 0.47191 0.89472 0.19024 0.0
H983 H 0.49979 0.88787 0.15293 0.0
H984 H 0.45849 0.82586 0.16222 0.0
C985 C 0.40051 0.84051 0.2461 0.0
C986 C 0.39766 0.85579 0.26199 0.0
C987 C 0.41232 0.87534 0.25583 0.0
C988 C 0.42978 0.87958 0.23429 0.0
C989 C 0.43221 0.86411 0.2191 0.0
C990 C 0.4179 0.84497 0.22477 0.0
C991 C 0.42481 0.83094 0.20583 0.0
C992 C 0.44605 0.81831 0.2156 0.0
C993 C 0.39096 0.81829 0.19468 0.0
C994 C 0.4456 0.84515 0.18867 0.0
C995 C 0.44954 0.86422 0.19652 0.0
C996 C 0.4688 0.87984 0.18387 0.0
C997 C 0.48464 0.87581 0.16277 0.0
C998 C 0.4811 0.85634 0.15456 0.0
C999 C 0.46107 0.8409 0.1677 0.0
H1000 H 0.79054 0.21104 0.37468 0.0
H1001 H 0.81781 0.18993 0.30627 0.0
H1002 H 0.82283 0.15996 0.32395 0.0
H1003 H 0.84985 0.19314 0.4081 0.0
H1004 H 0.82092 0.18712 0.43284 0.0
H1005 H 0.81921 0.20673 0.41467 0.0
H1006 H 0.75418 0.19033 0.40708 0.0
H1007 H 0.75569 0.17069 0.42522 0.0
H1008 H 0.74038 0.16552 0.39531 0.0
H1009 H 0.8212 0.13131 0.34898 0.0
H1010 H 0.81754 0.10757 0.38 0.0
H1011 H 0.79578 0.14873 0.43218 0.0
C1012 C 0.79755 0.20011 0.36342 0.0
C1013 C 0.80355 0.20271 0.33908 0.0
C1014 C 0.81311 0.1882 0.32497 0.0
C1015 C 0.81595 0.17113 0.33484 0.0
C1016 C 0.80974 0.16898 0.35892 0.0
C1017 C 0.80116 0.1832 0.37306 0.0
C1018 C 0.79648 0.17758 0.39849 0.0
C1019 C 0.82322 0.192 0.41446 0.0
C1020 C 0.75948 0.17593 0.40701 0.0
C1021 C 0.80328 0.15786 0.39643 0.0
C1022 C 0.8106 0.15304 0.37344 0.0
C1023 C 0.81599 0.13505 0.36709 0.0
C1024 C 0.81385 0.12168 0.38472 0.0
C1025 C 0.80698 0.12656 0.40837 0.0
C1026 C 0.80179 0.14488 0.41425 0.0
H1027 H 0.28117 0.32923 0.78471 0.0
H1028 H 0.33851 0.38856 0.77067 0.0
H1029 H 0.372 0.39051 0.80727 0.0
H1030 H 0.28162 0.33426 0.85038 0.0
H1031 H 0.28803 0.31055 0.85292 0.0
H1032 H 0.26434 0.31515 0.8283 0.0
H1033 H 0.3059 0.30384 0.7994 0.0
H1034 H 0.3297 0.29926 0.82385 0.0
H1035 H 0.35164 0.31538 0.80159 0.0
H1036 H 0.40283 0.38478 0.84331 0.0
H1037 H 0.4309 0.37141 0.87397 0.0
H1038 H 0.35624 0.31489 0.86183 0.0
C1039 C 0.29995 0.34286 0.78976 0.0
C1040 C 0.30687 0.35888 0.77513 0.0
C1041 C 0.33258 0.37621 0.78182 0.0
C1042 C 0.35161 0.37745 0.8026 0.0
C1043 C 0.34478 0.36118 0.81633 0.0
C1044 C 0.3196 0.34419 0.81012 0.0
C1045 C 0.32023 0.32798 0.82605 0.0
C1046 C 0.28655 0.32161 0.84026 0.0
C1047 C 0.3273 0.3106 0.81187 0.0
C1048 C 0.35029 0.33832 0.84182 0.0
C1049 C 0.36363 0.35757 0.83631 0.0
C1050 C 0.39246 0.36975 0.84784 0.0
C1051 C 0.40843 0.36194 0.8651 0.0
C1052 C 0.396 0.34201 0.87039 0.0
C1053 C 0.36611 0.33025 0.85875 0.0
H1054 H 0.39576 0.91904 0.38693 0.0
H1055 H 0.2862 0.90296 0.37158 0.0
H1056 H 0.28034 0.93089 0.39692 0.0
H1057 H 0.39008 0.9331 0.44671 0.0
H1058 H 0.42854 0.95335 0.44674 0.0
H1059 H 0.42455 0.93286 0.42625 0.0
H1060 H 0.43569 0.95588 0.39141 0.0
H1061 H 0.43982 0.97648 0.41183 0.0
H1062 H 0.40903 0.97195 0.38813 0.0
H1063 H 0.28555 0.95875 0.42667 0.0
H1064 H 0.30161 0.98503 0.45751 0.0
H1065 H 0.40863 0.98445 0.45122 0.0
C1066 C 0.37058 0.9215 0.3887 0.0
C1067 C 0.34141 0.9088 0.3773 0.0
C1068 C 0.30893 0.91252 0.38009 0.0
C1069 C 0.30534 0.92835 0.39443 0.0
C1070 C 0.33455 0.94046 0.40562 0.0
C1071 C 0.36661 0.93734 0.40273 0.0
C1072 C 0.39372 0.95221 0.41719 0.0
C1073 C 0.41017 0.94228 0.43529 0.0
C1074 C 0.42119 0.96488 0.40118 0.0
C1075 C 0.37173 0.96388 0.42913 0.0
C1076 C 0.33771 0.95691 0.42219 0.0
C1077 C 0.31224 0.96459 0.4319 0.0
C1078 C 0.32174 0.97968 0.44934 0.0
C1079 C 0.35652 0.98708 0.45684 0.0
C1080 C 0.38178 0.97915 0.44617 0.0
H1081 H 0.7015 0.77541 0.76158 0.0
H1082 H 0.74383 0.8372 0.75068 0.0
H1083 H 0.70931 0.84483 0.78393 0.0
H1084 H 0.61625 0.77688 0.77595 0.0
H1085 H 0.6095 0.75916 0.79828 0.0
H1086 H 0.63867 0.75838 0.7742 0.0
H1087 H 0.68768 0.76024 0.80384 0.0
H1088 H 0.65861 0.76098 0.82803 0.0
H1089 H 0.69866 0.77994 0.82592 0.0
H1090 H 0.66821 0.84591 0.81662 0.0
H1091 H 0.62355 0.8404 0.84744 0.0
H1092 H 0.60929 0.778 0.83881 0.0
C1093 C 0.70368 0.79054 0.7663 0.0
C1094 C 0.7254 0.8057 0.75349 0.0
C1095 C 0.72743 0.82532 0.7602 0.0
C1096 C 0.70794 0.82983 0.77909 0.0
C1097 C 0.68664 0.81458 0.79123 0.0
C1098 C 0.68446 0.79534 0.78524 0.0
C1099 C 0.65895 0.78177 0.80099 0.0
C1100 C 0.62907 0.76825 0.78649 0.0
C1101 C 0.67706 0.77004 0.81556 0.0
C1102 C 0.64683 0.79641 0.81648 0.0
C1103 C 0.66324 0.81524 0.81055 0.0
C1104 C 0.65553 0.83125 0.8217 0.0
C1105 C 0.63025 0.82794 0.83936 0.0
C1106 C 0.61301 0.80876 0.84588 0.0
C1107 C 0.62175 0.79284 0.83427 0.0
loop_
_geom_bond_atom_site_label_1
_geom_bond_atom_site_label_2
_geom_bond_distance
_geom_bond_site_symmetry_2
_ccdc_geom_bond_type
O0 Cd1 2.300 . S
O0 C7 1.275 . S
Cd1 O0 2.300 . S
Cd1 O9 2.381 . S
Cd1 O10 2.378 . S
O2 Cd3 2.385 . S
O2 C7 1.255 . S
Cd3 O2 2.385 . S
Cd3 O4 2.317 . S
O4 Cd3 2.317 . S
O4 C5 1.232 . S
C5 O4 1.232 . S
C5 O6 1.218 . S
O6 C5 1.218 . S
C7 O0 1.275 . S
C7 O2 1.255 . S
C8 O9 1.258 . S
C8 O10 1.256 . S
O9 Cd1 2.381 . S
O9 C8 1.258 . S
O10 Cd1 2.378 . S
O10 C8 1.256 . S
O11 Cd12 2.300 . S
O11 C18 1.275 . S
Cd12 O11 2.300 . S
Cd12 O20 2.381 . S
Cd12 O21 2.378 . S
O13 Cd14 2.385 . S
O13 C18 1.255 . S
Cd14 O13 2.385 . S
Cd14 O15 2.317 . S
O15 Cd14 2.317 . S
O15 C16 1.232 . S
C16 O15 1.232 . S
C16 O17 1.218 . S
O17 C16 1.218 . S
C18 O11 1.275 . S
C18 O13 1.255 . S
C19 O20 1.258 . S
C19 O21 1.256 . S
O20 Cd12 2.381 . S
O20 C19 1.258 . S
O21 Cd12 2.378 . S
O21 C19 1.256 . S
O22 Cd23 2.300 . S
O22 C29 1.275 . S
Cd23 O22 2.300 . S
Cd23 O31 2.381 . S
Cd23 O32 2.378 . S
O24 Cd25 2.385 . S
O24 C29 1.255 . S
Cd25 O24 2.385 . S
Cd25 O26 2.317 . S
O26 Cd25 2.317 . S
O26 C27 1.232 . S
C27 O26 1.232 . S
C27 O28 1.218 . S
O28 C27 1.218 . S
C29 O22 1.275 . S
C29 O24 1.255 . S
C30 O31 1.258 . S
C30 O32 1.256 . S
O31 Cd23 2.381 . S
O31 C30 1.258 . S
O32 Cd23 2.378 . S
O32 C30 1.256 . S
O33 Cd34 2.300 . S
O33 C40 1.275 . S
Cd34 O33 2.300 . S
Cd34 O42 2.381 . S
Cd34 O43 2.378 . S
O35 Cd36 2.385 . S
O35 C40 1.255 . S
Cd36 O35 2.385 . S
Cd36 O37 2.317 . S
O37 Cd36 2.317 . S
O37 C38 1.232 . S
C38 O37 1.232 . S
C38 O39 1.218 . S
O39 C38 1.218 . S
C40 O33 1.275 . S
C40 O35 1.255 . S
C41 O42 1.258 . S
C41 O43 1.256 . S
O42 Cd34 2.381 . S
O42 C41 1.258 . S
O43 Cd34 2.378 . S
O43 C41 1.256 . S
O44 Cd45 2.300 . S
O44 C51 1.275 . S
Cd45 O44 2.300 . S
Cd45 O53 2.381 . S
Cd45 O54 2.378 . S
O46 Cd47 2.385 . S
O46 C51 1.255 . S
Cd47 O46 2.385 . S
Cd47 O48 2.317 . S
O48 Cd47 2.317 . S
O48 C49 1.232 . S
C49 O48 1.232 . S
C49 O50 1.218 . S
O50 C49 1.218 . S
C51 O44 1.275 . S
C51 O46 1.255 . S
C52 O53 1.258 . S
C52 O54 1.256 . S
O53 Cd45 2.381 . S
O53 C52 1.258 . S
O54 Cd45 2.378 . S
O54 C52 1.256 . S
O55 Cd56 2.300 . S
O55 C62 1.275 . S
Cd56 O55 2.300 . S
Cd56 O64 2.381 . S
Cd56 O65 2.378 . S
O57 Cd58 2.385 . S
O57 C62 1.255 . S
Cd58 O57 2.385 . S
Cd58 O59 2.317 . S
O59 Cd58 2.317 . S
O59 C60 1.232 . S
C60 O59 1.232 . S
C60 O61 1.218 . S
O61 C60 1.218 . S
C62 O55 1.275 . S
C62 O57 1.255 . S
C63 O64 1.258 . S
C63 O65 1.256 . S
O64 Cd56 2.381 . S
O64 C63 1.258 . S
O65 Cd56 2.378 . S
O65 C63 1.256 . S
O66 Cd67 2.300 . S
O66 C73 1.275 . S
Cd67 O66 2.300 . S
Cd67 O75 2.381 . S
Cd67 O76 2.378 . S
O68 Cd69 2.385 . S
O68 C73 1.255 . S
Cd69 O68 2.385 . S
Cd69 O70 2.317 . S
O70 Cd69 2.317 . S
O70 C71 1.232 . S
C71 O70 1.232 . S
C71 O72 1.218 . S
O72 C71 1.218 . S
C73 O66 1.275 . S
C73 O68 1.255 . S
C74 O75 1.258 . S
C74 O76 1.256 . S
O75 Cd67 2.381 . S
O75 C74 1.258 . S
O76 Cd67 2.378 . S
O76 C74 1.256 . S
O77 Cd78 2.300 . S
O77 C84 1.275 . S
Cd78 O77 2.300 . S
Cd78 O86 2.381 . S
Cd78 O87 2.378 . S
O79 Cd80 2.385 . S
O79 C84 1.255 . S
Cd80 O79 2.385 . S
Cd80 O81 2.317 . S
O81 Cd80 2.317 . S
O81 C82 1.232 . S
C82 O81 1.232 . S
C82 O83 1.218 . S
O83 C82 1.218 . S
C84 O77 1.275 . S
C84 O79 1.255 . S
C85 O86 1.258 . S
C85 O87 1.256 . S
O86 Cd78 2.381 . S
O86 C85 1.258 . S
O87 Cd78 2.378 . S
O87 C85 1.256 . S
H88 C115 0.929 . S
N89 C114 1.433 . S
N89 C120 1.435 . S
N89 C126 1.423 . S
H90 C116 0.930 . S
H91 C119 0.931 1_455 S
H92 C118 0.929 . S
H93 C121 0.930 . S
H94 C122 0.932 . S
H95 C125 0.929 . S
H96 C124 0.931 . S
H97 C127 0.929 . S
H98 C131 0.932 . S
H99 C128 0.931 . S
H100 C130 0.929 . S
H101 C133 0.929 . S
H102 C134 0.930 . S
H103 C136 0.929 . S
H104 C137 0.931 . S
H105 C139 0.930 . S
H106 C140 0.932 . S
H107 C142 0.931 . S
H108 C143 0.929 . S
H109 C145 0.929 . S
H110 C146 0.931 . S
H111 C148 0.929 . S
N112 C132 1.433 . S
N112 C138 1.435 . S
N112 C144 1.423 . S
H113 C149 0.932 . S
C114 N89 1.433 . S
C114 C115 1.363 . S
C114 C119 1.370 1_455 S
C115 H88 0.929 . S
C115 C114 1.363 . S
C115 C116 1.385 1_455 S
C116 H90 0.930 . S
C116 C115 1.385 1_655 S
C116 C117 1.357 . S
C117 C116 1.357 . S
C117 C118 1.406 . S
C118 H92 0.929 . S
C118 C117 1.406 . S
C118 C119 1.391 . S
C119 H91 0.931 1_655 S
C119 C114 1.370 1_655 S
C119 C118 1.391 . S
C120 N89 1.435 . S
C120 C121 1.358 . S
C120 C125 1.371 . S
C121 H93 0.930 . S
C121 C120 1.358 . S
C121 C122 1.405 . S
C122 H94 0.932 . S
C122 C121 1.405 . S
C122 C123 1.383 . S
C123 C122 1.383 . S
C123 C124 1.393 . S
C124 H96 0.931 . S
C124 C123 1.393 . S
C124 C125 1.382 . S
C125 H95 0.929 . S
C125 C120 1.371 . S
C125 C124 1.382 . S
C126 N89 1.423 . S
C126 C127 1.362 . S
C126 C131 1.388 . S
C127 H97 0.929 . S
C127 C126 1.362 . S
C127 C128 1.376 . S
C128 H99 0.931 . S
C128 C127 1.376 . S
C128 C129 1.396 . S
C129 C128 1.396 . S
C129 C130 1.348 . S
C129 C147 1.472 . S
C130 H100 0.929 . S
C130 C129 1.348 . S
C130 C131 1.443 . S
C131 H98 0.932 . S
C131 C126 1.388 . S
C131 C130 1.443 . S
C132 N112 1.433 . S
C132 C133 1.363 . S
C132 C137 1.370 . S
C133 H101 0.929 . S
C133 C132 1.363 . S
C133 C134 1.385 1_455 S
C134 H102 0.930 . S
C134 C133 1.385 1_655 S
C134 C135 1.357 . S
C135 C134 1.357 . S
C135 C136 1.406 . S
C136 H103 0.929 . S
C136 C135 1.406 . S
C136 C137 1.391 1_655 S
C137 H104 0.931 . S
C137 C132 1.370 . S
C137 C136 1.391 1_455 S
C138 N112 1.435 . S
C138 C139 1.358 . S
C138 C143 1.371 . S
C139 H105 0.930 . S
C139 C138 1.358 . S
C139 C140 1.405 . S
C140 H106 0.932 . S
C140 C139 1.405 . S
C140 C141 1.383 . S
C141 C140 1.383 . S
C141 C142 1.393 . S
C142 H107 0.931 . S
C142 C141 1.393 . S
C142 C143 1.382 . S
C143 H108 0.929 . S
C143 C138 1.371 . S
C143 C142 1.382 . S
C144 N112 1.423 . S
C144 C145 1.362 . S
C144 C149 1.388 . S
C145 H109 0.929 . S
C145 C144 1.362 . S
C145 C146 1.376 . S
C146 H110 0.931 . S
C146 C145 1.376 . S
C146 C147 1.396 . S
C147 C129 1.472 . S
C147 C146 1.396 . S
C147 C148 1.348 . S
C148 H111 0.929 . S
C148 C147 1.348 . S
C148 C149 1.443 . S
C149 H113 0.932 . S
C149 C144 1.388 . S
C149 C148 1.443 . S
H150 C177 0.929 . S
N151 C176 1.433 1_455 S
N151 C182 1.435 . S
N151 C188 1.423 . S
H152 C178 0.930 . S
H153 C181 0.931 . S
H154 C180 0.929 . S
H155 C183 0.930 . S
H156 C184 0.932 . S
H157 C187 0.929 . S
H158 C186 0.931 . S
H159 C189 0.929 . S
H160 C193 0.932 . S
H161 C190 0.931 . S
H162 C192 0.929 . S
H163 C195 0.929 . S
H164 C196 0.930 . S
H165 C198 0.929 . S
H166 C199 0.931 . S
H167 C201 0.930 . S
H168 C202 0.932 . S
H169 C204 0.931 . S
H170 C205 0.929 . S
H171 C207 0.929 . S
H172 C208 0.931 . S
H173 C210 0.929 . S
N174 C194 1.433 1_455 S
N174 C200 1.435 . S
N174 C206 1.423 . S
H175 C211 0.932 . S
C176 N151 1.433 1_655 S
C176 C177 1.363 . S
C176 C181 1.370 . S
C177 H150 0.929 . S
C177 C176 1.363 . S
C177 C178 1.385 . S
C178 H152 0.930 . S
C178 C177 1.385 . S
C178 C179 1.357 . S
C179 C178 1.357 . S
C179 C180 1.406 . S
C180 H154 0.929 . S
C180 C179 1.406 . S
C180 C181 1.391 . S
C181 H153 0.931 . S
C181 C176 1.370 . S
C181 C180 1.391 . S
C182 N151 1.435 . S
C182 C183 1.358 . S
C182 C187 1.371 . S
C183 H155 0.930 . S
C183 C182 1.358 . S
C183 C184 1.405 . S
C184 H156 0.932 . S
C184 C183 1.405 . S
C184 C185 1.383 . S
C185 C184 1.383 . S
C185 C186 1.393 . S
C186 H158 0.931 . S
C186 C185 1.393 . S
C186 C187 1.382 . S
C187 H157 0.929 . S
C187 C182 1.371 . S
C187 C186 1.382 . S
C188 N151 1.423 . S
C188 C189 1.362 1_455 S
C188 C193 1.388 . S
C189 H159 0.929 . S
C189 C188 1.362 1_655 S
C189 C190 1.376 . S
C190 H161 0.931 . S
C190 C189 1.376 . S
C190 C191 1.396 1_655 S
C191 C190 1.396 1_455 S
C191 C192 1.348 . S
C191 C209 1.472 . S
C192 H162 0.929 . S
C192 C191 1.348 . S
C192 C193 1.443 . S
C193 H160 0.932 . S
C193 C188 1.388 . S
C193 C192 1.443 . S
C194 N174 1.433 1_655 S
C194 C195 1.363 . S
C194 C199 1.370 . S
C195 H163 0.929 . S
C195 C194 1.363 . S
C195 C196 1.385 . S
C196 H164 0.930 . S
C196 C195 1.385 . S
C196 C197 1.357 . S
C197 C196 1.357 . S
C197 C198 1.406 . S
C198 H165 0.929 . S
C198 C197 1.406 . S
C198 C199 1.391 . S
C199 H166 0.931 . S
C199 C194 1.370 . S
C199 C198 1.391 . S
C200 N174 1.435 . S
C200 C201 1.358 . S
C200 C205 1.371 . S
C201 H167 0.930 . S
C201 C200 1.358 . S
C201 C202 1.405 . S
C202 H168 0.932 . S
C202 C201 1.405 . S
C202 C203 1.383 . S
C203 C202 1.383 . S
C203 C204 1.393 . S
C204 H169 0.931 . S
C204 C203 1.393 . S
C204 C205 1.382 . S
C205 H170 0.929 . S
C205 C200 1.371 . S
C205 C204 1.382 . S
C206 N174 1.423 . S
C206 C207 1.362 1_455 S
C206 C211 1.388 . S
C207 H171 0.929 . S
C207 C206 1.362 1_655 S
C207 C208 1.376 . S
C208 H172 0.931 . S
C208 C207 1.376 . S
C208 C209 1.396 1_655 S
C209 C191 1.472 . S
C209 C208 1.396 1_455 S
C209 C210 1.348 . S
C210 H173 0.929 . S
C210 C209 1.348 . S
C210 C211 1.443 . S
C211 H175 0.932 . S
C211 C206 1.388 . S
C211 C210 1.443 . S
H212 C239 0.929 . S
N213 C238 1.433 . S
N213 C244 1.435 . S
N213 C250 1.423 . S
H214 C240 0.930 . S
H215 C243 0.931 . S
H216 C242 0.929 . S
H217 C245 0.930 . S
H218 C246 0.932 . S
H219 C249 0.929 . S
H220 C248 0.931 . S
H221 C251 0.929 . S
H222 C255 0.932 . S
H223 C252 0.931 . S
H224 C254 0.929 . S
H225 C257 0.929 . S
H226 C258 0.930 1_565 S
H227 C260 0.929 . S
H228 C261 0.931 . S
H229 C263 0.930 . S
H230 C264 0.932 1_565 S
H231 C266 0.931 . S
H232 C267 0.929 . S
H233 C269 0.929 . S
H234 C270 0.931 . S
H235 C272 0.929 . S
N236 C256 1.433 . S
N236 C262 1.435 . S
N236 C268 1.423 . S
H237 C273 0.932 . S
C238 N213 1.433 . S
C238 C239 1.363 . S
C238 C243 1.370 . S
C239 H212 0.929 . S
C239 C238 1.363 . S
C239 C240 1.385 . S
C240 H214 0.930 . S
C240 C239 1.385 . S
C240 C241 1.357 . S
C241 C240 1.357 . S
C241 C242 1.406 . S
C242 H216 0.929 . S
C242 C241 1.406 . S
C242 C243 1.391 . S
C243 H215 0.931 . S
C243 C238 1.370 . S
C243 C242 1.391 . S
C244 N213 1.435 . S
C244 C245 1.358 . S
C244 C249 1.371 . S
C245 H217 0.930 . S
C245 C244 1.358 . S
C245 C246 1.405 . S
C246 H218 0.932 . S
C246 C245 1.405 . S
C246 C247 1.383 . S
C247 C246 1.383 . S
C247 C248 1.393 . S
C248 H220 0.931 . S
C248 C247 1.393 . S
C248 C249 1.382 . S
C249 H219 0.929 . S
C249 C244 1.371 . S
C249 C248 1.382 . S
C250 N213 1.423 . S
C250 C251 1.362 . S
C250 C255 1.388 . S
C251 H221 0.929 . S
C251 C250 1.362 . S
C251 C252 1.376 . S
C252 H223 0.931 . S
C252 C251 1.376 . S
C252 C253 1.396 . S
C253 C252 1.396 . S
C253 C254 1.348 . S
C253 C271 1.472 . S
C254 H224 0.929 . S
C254 C253 1.348 . S
C254 C255 1.443 . S
C255 H222 0.932 . S
C255 C250 1.388 . S
C255 C254 1.443 . S
C256 N236 1.433 . S
C256 C257 1.363 . S
C256 C261 1.370 . S
C257 H225 0.929 . S
C257 C256 1.363 . S
C257 C258 1.385 . S
C258 H226 0.930 1_545 S
C258 C257 1.385 . S
C258 C259 1.357 . S
C259 C258 1.357 . S
C259 C260 1.406 . S
C260 H227 0.929 . S
C260 C259 1.406 . S
C260 C261 1.391 . S
C261 H228 0.931 . S
C261 C256 1.370 . S
C261 C260 1.391 . S
C262 N236 1.435 . S
C262 C263 1.358 . S
C262 C267 1.371 . S
C263 H229 0.930 . S
C263 C262 1.358 . S
C263 C264 1.405 . S
C264 H230 0.932 1_545 S
C264 C263 1.405 . S
C264 C265 1.383 . S
C265 C264 1.383 . S
C265 C266 1.393 . S
C266 H231 0.931 . S
C266 C265 1.393 . S
C266 C267 1.382 . S
C267 H232 0.929 . S
C267 C262 1.371 . S
C267 C266 1.382 . S
C268 N236 1.423 . S
C268 C269 1.362 . S
C268 C273 1.388 . S
C269 H233 0.929 . S
C269 C268 1.362 . S
C269 C270 1.376 . S
C270 H234 0.931 . S
C270 C269 1.376 . S
C270 C271 1.396 . S
C271 C253 1.472 . S
C271 C270 1.396 . S
C271 C272 1.348 . S
C272 H235 0.929 . S
C272 C271 1.348 . S
C272 C273 1.443 . S
C273 H237 0.932 . S
C273 C268 1.388 . S
C273 C272 1.443 . S
H274 C301 0.929 . S
N275 C300 1.433 . S
N275 C306 1.435 . S
N275 C312 1.423 . S
H276 C302 0.930 . S
H277 C305 0.931 . S
H278 C304 0.929 . S
H279 C307 0.930 . S
H280 C308 0.932 . S
H281 C311 0.929 . S
H282 C310 0.931 . S
H283 C313 0.929 . S
H284 C317 0.932 . S
H285 C314 0.931 . S
H286 C316 0.929 . S
H287 C319 0.929 . S
H288 C320 0.930 . S
H289 C322 0.929 . S
H290 C323 0.931 . S
H291 C325 0.930 . S
H292 C326 0.932 . S
H293 C328 0.931 . S
H294 C329 0.929 . S
H295 C331 0.929 . S
H296 C332 0.931 . S
H297 C334 0.950 . S
N298 C318 1.433 . S
N298 C324 1.435 . S
N298 C330 1.423 . S
H299 C335 0.932 . S
C300 N275 1.433 . S
C300 C301 1.363 . S
C300 C305 1.370 . S
C301 H274 0.929 . S
C301 C300 1.363 . S
C301 C302 1.385 . S
C302 H276 0.930 . S
C302 C301 1.385 . S
C302 C303 1.357 . S
C303 C302 1.357 . S
C303 C304 1.406 . S
C304 H278 0.929 . S
C304 C303 1.406 . S
C304 C305 1.391 . S
C305 H277 0.931 . S
C305 C300 1.370 . S
C305 C304 1.391 . S
C306 N275 1.435 . S
C306 C307 1.358 . S
C306 C311 1.371 . S
C307 H279 0.930 . S
C307 C306 1.358 . S
C307 C308 1.405 . S
C308 H280 0.932 . S
C308 C307 1.405 . S
C308 C309 1.383 . S
C309 C308 1.383 . S
C309 C310 1.393 . S
C310 H282 0.931 . S
C310 C309 1.393 . S
C310 C311 1.382 . S
C311 H281 0.929 . S
C311 C306 1.371 . S
C311 C310 1.382 . S
C312 N275 1.423 . S
C312 C313 1.362 . S
C312 C317 1.388 . S
C313 H283 0.929 . S
C313 C312 1.362 . S
C313 C314 1.376 . S
C314 H285 0.931 . S
C314 C313 1.376 . S
C314 C315 1.396 . S
C315 C314 1.396 . S
C315 C316 1.348 . S
C315 C333 1.474 . S
C316 H286 0.929 . S
C316 C315 1.348 . S
C316 C317 1.443 . S
C317 H284 0.932 . S
C317 C312 1.388 . S
C317 C316 1.443 . S
C318 N298 1.433 . S
C318 C319 1.363 . S
C318 C323 1.370 . S
C319 H287 0.929 . S
C319 C318 1.363 . S
C319 C320 1.385 . S
C320 H288 0.930 . S
C320 C319 1.385 . S
C320 C321 1.357 . S
C321 C320 1.357 . S
C321 C322 1.406 . S
C322 H289 0.929 . S
C322 C321 1.406 . S
C322 C323 1.391 . S
C323 H290 0.931 . S
C323 C318 1.370 . S
C323 C322 1.391 . S
C324 N298 1.435 . S
C324 C325 1.358 . S
C324 C329 1.371 . S
C325 H291 0.930 . S
C325 C324 1.358 . S
C325 C326 1.405 . S
C326 H292 0.932 . S
C326 C325 1.405 . S
C326 C327 1.383 . S
C327 C326 1.383 . S
C327 C328 1.393 . S
C328 H293 0.931 . S
C328 C327 1.393 . S
C328 C329 1.382 . S
C329 H294 0.929 . S
C329 C324 1.371 . S
C329 C328 1.382 . S
C330 N298 1.423 . S
C330 C331 1.362 . S
C330 C335 1.388 . S
C331 H295 0.929 . S
C331 C330 1.362 . S
C331 C332 1.376 . S
C332 H296 0.931 . S
C332 C331 1.376 . S
C332 C333 1.395 1_556 S
C333 C315 1.474 . S
C333 C332 1.395 1_554 S
C333 C334 1.347 1_554 S
C334 H297 0.950 . S
C334 C333 1.347 1_556 S
C334 C335 1.443 . S
C335 H299 0.932 . S
C335 C330 1.388 . S
C335 C334 1.443 . S
H336 C363 0.929 . S
N337 C362 1.433 . S
N337 C368 1.435 . S
N337 C374 1.423 . S
H338 C364 0.930 . S
H339 C367 0.931 . S
H340 C366 0.929 . S
H341 C369 0.930 . S
H342 C370 0.932 . S
H343 C373 0.929 . S
H344 C372 0.931 . S
H345 C375 0.929 . S
H346 C379 0.932 . S
H347 C376 0.931 . S
H348 C378 0.929 . S
H349 C381 0.929 . S
H350 C382 0.930 . S
H351 C384 0.929 . S
H352 C385 0.931 . S
H353 C387 0.930 . S
H354 C388 0.932 . S
H355 C390 0.931 . S
H356 C391 0.929 . S
H357 C393 0.929 . S
H358 C394 0.931 . S
H359 C396 0.929 1_545 S
N360 C380 1.433 . S
N360 C386 1.435 . S
N360 C392 1.423 . S
H361 C397 0.932 . S
C362 N337 1.433 . S
C362 C363 1.363 . S
C362 C367 1.370 . S
C363 H336 0.929 . S
C363 C362 1.363 . S
C363 C364 1.385 . S
C364 H338 0.930 . S
C364 C363 1.385 . S
C364 C365 1.357 . S
C365 C364 1.357 . S
C365 C366 1.406 . S
C366 H340 0.929 . S
C366 C365 1.406 . S
C366 C367 1.391 . S
C367 H339 0.931 . S
C367 C362 1.370 . S
C367 C366 1.391 . S
C368 N337 1.435 . S
C368 C369 1.358 . S
C368 C373 1.371 . S
C369 H341 0.930 . S
C369 C368 1.358 . S
C369 C370 1.405 . S
C370 H342 0.932 . S
C370 C369 1.405 . S
C370 C371 1.383 . S
C371 C370 1.383 . S
C371 C372 1.393 . S
C372 H344 0.931 . S
C372 C371 1.393 . S
C372 C373 1.382 . S
C373 H343 0.929 . S
C373 C368 1.371 . S
C373 C372 1.382 . S
C374 N337 1.423 . S
C374 C375 1.362 . S
C374 C379 1.388 . S
C375 H345 0.929 . S
C375 C374 1.362 . S
C375 C376 1.376 . S
C376 H347 0.931 . S
C376 C375 1.376 . S
C376 C377 1.396 . S
C377 C376 1.396 . S
C377 C378 1.348 . S
C377 C395 1.472 . S
C378 H348 0.929 . S
C378 C377 1.348 . S
C378 C379 1.443 . S
C379 H346 0.932 . S
C379 C374 1.388 . S
C379 C378 1.443 . S
C380 N360 1.433 . S
C380 C381 1.363 . S
C380 C385 1.370 . S
C381 H349 0.929 . S
C381 C380 1.363 . S
C381 C382 1.385 . S
C382 H350 0.930 . S
C382 C381 1.385 . S
C382 C383 1.357 . S
C383 C382 1.357 . S
C383 C384 1.406 . S
C384 H351 0.929 . S
C384 C383 1.406 . S
C384 C385 1.391 . S
C385 H352 0.931 . S
C385 C380 1.370 . S
C385 C384 1.391 . S
C386 N360 1.435 . S
C386 C387 1.358 . S
C386 C391 1.371 . S
C387 H353 0.930 . S
C387 C386 1.358 . S
C387 C388 1.405 . S
C388 H354 0.932 . S
C388 C387 1.405 . S
C388 C389 1.383 . S
C389 C388 1.383 . S
C389 C390 1.393 . S
C390 H355 0.931 . S
C390 C389 1.393 . S
C390 C391 1.382 . S
C391 H356 0.929 . S
C391 C386 1.371 . S
C391 C390 1.382 . S
C392 N360 1.423 . S
C392 C393 1.362 . S
C392 C397 1.388 . S
C393 H357 0.929 . S
C393 C392 1.362 . S
C393 C394 1.376 . S
C394 H358 0.931 . S
C394 C393 1.376 . S
C394 C395 1.396 1_565 S
C395 C377 1.472 . S
C395 C394 1.396 1_545 S
C395 C396 1.348 1_545 S
C396 H359 0.929 1_565 S
C396 C395 1.348 1_565 S
C396 C397 1.443 . S
C397 H361 0.932 . S
C397 C392 1.388 . S
C397 C396 1.443 . S
H398 C425 0.929 . S
N399 C424 1.433 . S
N399 C430 1.435 . S
N399 C436 1.423 . S
H400 C426 0.930 . S
H401 C429 0.931 . S
H402 C428 0.929 . S
H403 C431 0.930 . S
H404 C432 0.932 . S
H405 C435 0.929 . S
H406 C434 0.931 . S
H407 C437 0.929 . S
H408 C441 0.932 . S
H409 C438 0.931 . S
H410 C440 0.929 . S
H411 C443 0.929 . S
H412 C444 0.930 . S
H413 C446 0.929 . S
H414 C447 0.931 . S
H415 C449 0.930 . S
H416 C450 0.932 . S
H417 C452 0.931 . S
H418 C453 0.929 . S
H419 C455 0.929 . S
H420 C456 0.931 . S
H421 C458 0.929 . S
N422 C442 1.433 . S
N422 C448 1.435 . S
N422 C454 1.423 . S
H423 C459 0.932 . S
C424 N399 1.433 . S
C424 C425 1.363 . S
C424 C429 1.370 . S
C425 H398 0.929 . S
C425 C424 1.363 . S
C425 C426 1.385 . S
C426 H400 0.930 . S
C426 C425 1.385 . S
C426 C427 1.357 . S
C427 C426 1.357 . S
C427 C428 1.406 . S
C428 H402 0.929 . S
C428 C427 1.406 . S
C428 C429 1.391 . S
C429 H401 0.931 . S
C429 C424 1.370 . S
C429 C428 1.391 . S
C430 N399 1.435 . S
C430 C431 1.358 . S
C430 C435 1.371 . S
C431 H403 0.930 . S
C431 C430 1.358 . S
C431 C432 1.405 . S
C432 H404 0.932 . S
C432 C431 1.405 . S
C432 C433 1.383 . S
C433 C432 1.383 . S
C433 C434 1.393 . S
C434 H406 0.931 . S
C434 C433 1.393 . S
C434 C435 1.382 . S
C435 H405 0.929 . S
C435 C430 1.371 . S
C435 C434 1.382 . S
C436 N399 1.423 . S
C436 C437 1.362 . S
C436 C441 1.388 . S
C437 H407 0.929 . S
C437 C436 1.362 . S
C437 C438 1.376 . S
C438 H409 0.931 . S
C438 C437 1.376 . S
C438 C439 1.396 . S
C439 C438 1.396 . S
C439 C440 1.348 . S
C439 C457 1.476 . S
C440 H410 0.929 . S
C440 C439 1.348 . S
C440 C441 1.443 . S
C441 H408 0.932 . S
C441 C436 1.388 . S
C441 C440 1.443 . S
C442 N422 1.433 . S
C442 C443 1.363 . S
C442 C447 1.370 . S
C443 H411 0.929 . S
C443 C442 1.363 . S
C443 C444 1.385 . S
C444 H412 0.930 . S
C444 C443 1.385 . S
C444 C445 1.357 . S
C445 C444 1.357 . S
C445 C446 1.406 . S
C446 H413 0.929 . S
C446 C445 1.406 . S
C446 C447 1.391 . S
C447 H414 0.931 . S
C447 C442 1.370 . S
C447 C446 1.391 . S
C448 N422 1.435 . S
C448 C449 1.358 . S
C448 C453 1.371 . S
C449 H415 0.930 . S
C449 C448 1.358 . S
C449 C450 1.405 . S
C450 H416 0.932 . S
C450 C449 1.405 . S
C450 C451 1.383 . S
C451 C450 1.383 . S
C451 C452 1.393 . S
C452 H417 0.931 . S
C452 C451 1.393 . S
C452 C453 1.382 . S
C453 H418 0.929 . S
C453 C448 1.371 . S
C453 C452 1.382 . S
C454 N422 1.423 . S
C454 C455 1.362 . S
C454 C459 1.388 . S
C455 H419 0.929 . S
C455 C454 1.362 . S
C455 C456 1.376 . S
C456 H420 0.931 . S
C456 C455 1.376 . S
C456 C457 1.394 1_556 S
C457 C439 1.476 . S
C457 C456 1.394 1_554 S
C457 C458 1.346 1_554 S
C458 H421 0.929 . S
C458 C457 1.346 1_556 S
C458 C459 1.443 . S
C459 H423 0.932 . S
C459 C454 1.388 . S
C459 C458 1.443 . S
H460 C472 0.930 . S
H461 C474 0.930 . S
H462 C475 0.930 . S
H463 C479 0.959 . S
H464 C479 0.959 . S
H465 C479 0.961 . S
H466 C480 0.960 . S
H467 C480 0.961 . S
H468 C480 0.959 . S
H469 C483 0.929 . S
H470 C484 0.931 . S
H471 C486 0.930 . S
C472 H460 0.930 . S
C472 C473 1.399 . S
C472 C477 1.399 . S
C473 C472 1.399 . S
C473 C474 1.376 . S
C474 H461 0.930 . S
C474 C473 1.376 . S
C474 C475 1.388 . S
C475 H462 0.930 . S
C475 C474 1.388 . S
C475 C476 1.390 . S
C476 C475 1.390 . S
C476 C477 1.394 . S
C476 C482 1.465 . S
C477 C472 1.399 . S
C477 C476 1.394 . S
C477 C478 1.516 . S
C478 C477 1.516 . S
C478 C479 1.502 . S
C478 C480 1.561 . S
C478 C481 1.526 . S
C479 H463 0.959 . S
C479 H464 0.959 . S
C479 H465 0.961 . S
C479 C478 1.502 . S
C480 H466 0.960 . S
C480 H467 0.961 . S
C480 H468 0.959 . S
C480 C478 1.561 . S
C481 C478 1.526 . S
C481 C482 1.396 . S
C481 C486 1.390 . S
C482 C476 1.465 . S
C482 C481 1.396 . S
C482 C483 1.399 . S
C483 H469 0.929 . S
C483 C482 1.399 . S
C483 C484 1.385 . S
C484 H470 0.931 . S
C484 C483 1.385 . S
C484 C485 1.389 . S
C485 C484 1.389 . S
C485 C486 1.387 . S
C486 H471 0.930 . S
C486 C481 1.390 . S
C486 C485 1.387 . S
H487 C499 0.930 . S
H488 C501 0.930 . S
H489 C502 0.930 . S
H490 C506 0.959 . S
H491 C506 0.959 . S
H492 C506 0.961 . S
H493 C507 0.960 . S
H494 C507 0.961 . S
H495 C507 0.959 . S
H496 C510 0.929 . S
H497 C511 0.931 . S
H498 C513 0.930 . S
C499 H487 0.930 . S
C499 C500 1.399 . S
C499 C504 1.399 . S
C500 C499 1.399 . S
C500 C501 1.376 . S
C501 H488 0.930 . S
C501 C500 1.376 . S
C501 C502 1.388 . S
C502 H489 0.930 . S
C502 C501 1.388 . S
C502 C503 1.390 . S
C503 C502 1.390 . S
C503 C504 1.394 . S
C503 C509 1.465 . S
C504 C499 1.399 . S
C504 C503 1.394 . S
C504 C505 1.516 . S
C505 C504 1.516 . S
C505 C506 1.502 . S
C505 C507 1.561 . S
C505 C508 1.526 . S
C506 H490 0.959 . S
C506 H491 0.959 . S
C506 H492 0.961 . S
C506 C505 1.502 . S
C507 H493 0.960 . S
C507 H494 0.961 . S
C507 H495 0.959 . S
C507 C505 1.561 . S
C508 C505 1.526 . S
C508 C509 1.396 . S
C508 C513 1.390 . S
C509 C503 1.465 . S
C509 C508 1.396 . S
C509 C510 1.399 . S
C510 H496 0.929 . S
C510 C509 1.399 . S
C510 C511 1.385 . S
C511 H497 0.931 . S
C511 C510 1.385 . S
C511 C512 1.389 . S
C512 C511 1.389 . S
C512 C513 1.387 . S
C513 H498 0.930 . S
C513 C508 1.390 . S
C513 C512 1.387 . S
H514 C526 0.930 . S
H515 C528 0.930 . S
H516 C529 0.930 . S
H517 C533 0.959 . S
H518 C533 0.959 . S
H519 C533 0.961 . S
H520 C534 0.960 . S
H521 C534 0.961 . S
H522 C534 0.959 . S
H523 C537 0.929 . S
H524 C538 0.931 . S
H525 C540 0.930 . S
C526 H514 0.930 . S
C526 C527 1.399 . S
C526 C531 1.399 . S
C527 C526 1.399 . S
C527 C528 1.376 . S
C528 H515 0.930 . S
C528 C527 1.376 . S
C528 C529 1.388 . S
C529 H516 0.930 . S
C529 C528 1.388 . S
C529 C530 1.390 . S
C530 C529 1.390 . S
C530 C531 1.394 . S
C530 C536 1.465 . S
C531 C526 1.399 . S
C531 C530 1.394 . S
C531 C532 1.516 . S
C532 C531 1.516 . S
C532 C533 1.502 . S
C532 C534 1.561 . S
C532 C535 1.526 . S
C533 H517 0.959 . S
C533 H518 0.959 . S
C533 H519 0.961 . S
C533 C532 1.502 . S
C534 H520 0.960 . S
C534 H521 0.961 . S
C534 H522 0.959 . S
C534 C532 1.561 . S
C535 C532 1.526 . S
C535 C536 1.396 . S
C535 C540 1.390 . S
C536 C530 1.465 . S
C536 C535 1.396 . S
C536 C537 1.399 . S
C537 H523 0.929 . S
C537 C536 1.399 . S
C537 C538 1.385 . S
C538 H524 0.931 . S
C538 C537 1.385 . S
C538 C539 1.389 . S
C539 C538 1.389 . S
C539 C540 1.387 . S
C540 H525 0.930 . S
C540 C535 1.390 . S
C540 C539 1.387 . S
H541 C553 0.930 . S
H542 C555 0.930 . S
H543 C556 0.930 . S
H544 C560 0.959 . S
H545 C560 0.959 . S
H546 C560 0.961 . S
H547 C561 0.960 . S
H548 C561 0.961 . S
H549 C561 0.959 . S
H550 C564 0.929 . S
H551 C565 0.931 . S
H552 C567 0.930 . S
C553 H541 0.930 . S
C553 C554 1.399 . S
C553 C558 1.399 . S
C554 C553 1.399 . S
C554 C555 1.376 . S
C555 H542 0.930 . S
C555 C554 1.376 . S
C555 C556 1.388 . S
C556 H543 0.930 . S
C556 C555 1.388 . S
C556 C557 1.390 . S
C557 C556 1.390 . S
C557 C558 1.394 . S
C557 C563 1.465 . S
C558 C553 1.399 . S
C558 C557 1.394 . S
C558 C559 1.516 . S
C559 C558 1.516 . S
C559 C560 1.502 . S
C559 C561 1.561 . S
C559 C562 1.526 . S
C560 H544 0.959 . S
C560 H545 0.959 . S
C560 H546 0.961 . S
C560 C559 1.502 . S
C561 H547 0.960 . S
C561 H548 0.961 . S
C561 H549 0.959 . S
C561 C559 1.561 . S
C562 C559 1.526 . S
C562 C563 1.396 . S
C562 C567 1.390 . S
C563 C557 1.465 . S
C563 C562 1.396 . S
C563 C564 1.399 . S
C564 H550 0.929 . S
C564 C563 1.399 . S
C564 C565 1.385 . S
C565 H551 0.931 . S
C565 C564 1.385 . S
C565 C566 1.389 . S
C566 C565 1.389 . S
C566 C567 1.387 . S
C567 H552 0.930 . S
C567 C562 1.390 . S
C567 C566 1.387 . S
H568 C580 0.930 . S
H569 C582 0.930 . S
H570 C583 0.930 . S
H571 C587 0.959 . S
H572 C587 0.959 . S
H573 C587 0.961 . S
H574 C588 0.960 . S
H575 C588 0.961 . S
H576 C588 0.959 . S
H577 C591 0.929 . S
H578 C592 0.931 . S
H579 C594 0.930 . S
C580 H568 0.930 . S
C580 C581 1.399 . S
C580 C585 1.399 . S
C581 C580 1.399 . S
C581 C582 1.376 . S
C582 H569 0.930 . S
C582 C581 1.376 . S
C582 C583 1.388 . S
C583 H570 0.930 . S
C583 C582 1.388 . S
C583 C584 1.390 . S
C584 C583 1.390 . S
C584 C585 1.394 . S
C584 C590 1.465 . S
C585 C580 1.399 . S
C585 C584 1.394 . S
C585 C586 1.516 . S
C586 C585 1.516 . S
C586 C587 1.502 . S
C586 C588 1.561 . S
C586 C589 1.526 . S
C587 H571 0.959 . S
C587 H572 0.959 . S
C587 H573 0.961 . S
C587 C586 1.502 . S
C588 H574 0.960 . S
C588 H575 0.961 . S
C588 H576 0.959 . S
C588 C586 1.561 . S
C589 C586 1.526 . S
C589 C590 1.396 . S
C589 C594 1.390 . S
C590 C584 1.465 . S
C590 C589 1.396 . S
C590 C591 1.399 . S
C591 H577 0.929 . S
C591 C590 1.399 . S
C591 C592 1.385 . S
C592 H578 0.931 . S
C592 C591 1.385 . S
C592 C593 1.389 . S
C593 C592 1.389 . S
C593 C594 1.387 . S
C594 H579 0.930 . S
C594 C589 1.390 . S
C594 C593 1.387 . S
H595 C607 0.930 . S
H596 C609 0.930 . S
H597 C610 0.930 . S
H598 C614 0.959 . S
H599 C614 0.959 . S
H600 C614 0.961 . S
H601 C615 0.960 . S
H602 C615 0.961 . S
H603 C615 0.959 . S
H604 C618 0.929 . S
H605 C619 0.931 . S
H606 C621 0.930 . S
C607 H595 0.930 . S
C607 C608 1.399 . S
C607 C612 1.399 . S
C608 C607 1.399 . S
C608 C609 1.376 . S
C609 H596 0.930 . S
C609 C608 1.376 . S
C609 C610 1.388 . S
C610 H597 0.930 . S
C610 C609 1.388 . S
C610 C611 1.390 . S
C611 C610 1.390 . S
C611 C612 1.394 . S
C611 C617 1.465 . S
C612 C607 1.399 . S
C612 C611 1.394 . S
C612 C613 1.516 . S
C613 C612 1.516 . S
C613 C614 1.502 . S
C613 C615 1.561 . S
C613 C616 1.526 . S
C614 H598 0.959 . S
C614 H599 0.959 . S
C614 H600 0.961 . S
C614 C613 1.502 . S
C615 H601 0.960 . S
C615 H602 0.961 . S
C615 H603 0.959 . S
C615 C613 1.561 . S
C616 C613 1.526 . S
C616 C617 1.396 . S
C616 C621 1.390 . S
C617 C611 1.465 . S
C617 C616 1.396 . S
C617 C618 1.399 . S
C618 H604 0.929 . S
C618 C617 1.399 . S
C618 C619 1.385 . S
C619 H605 0.931 . S
C619 C618 1.385 . S
C619 C620 1.389 . S
C620 C619 1.389 . S
C620 C621 1.387 . S
C621 H606 0.930 . S
C621 C616 1.390 . S
C621 C620 1.387 . S
H622 C634 0.930 . S
H623 C636 0.930 . S
H624 C637 0.930 . S
H625 C641 0.959 . S
H626 C641 0.959 . S
H627 C641 0.961 . S
H628 C642 0.960 . S
H629 C642 0.961 . S
H630 C642 0.959 . S
H631 C645 0.929 . S
H632 C646 0.931 . S
H633 C648 0.930 . S
C634 H622 0.930 . S
C634 C635 1.399 . S
C634 C639 1.399 . S
C635 C634 1.399 . S
C635 C636 1.376 . S
C636 H623 0.930 . S
C636 C635 1.376 . S
C636 C637 1.388 . S
C637 H624 0.930 . S
C637 C636 1.388 . S
C637 C638 1.390 . S
C638 C637 1.390 . S
C638 C639 1.394 . S
C638 C644 1.465 . S
C639 C634 1.399 . S
C639 C638 1.394 . S
C639 C640 1.516 . S
C640 C639 1.516 . S
C640 C641 1.502 . S
C640 C642 1.561 . S
C640 C643 1.526 . S
C641 H625 0.959 . S
C641 H626 0.959 . S
C641 H627 0.961 . S
C641 C640 1.502 . S
C642 H628 0.960 . S
C642 H629 0.961 . S
C642 H630 0.959 . S
C642 C640 1.561 . S
C643 C640 1.526 . S
C643 C644 1.396 . S
C643 C648 1.390 . S
C644 C638 1.465 . S
C644 C643 1.396 . S
C644 C645 1.399 . S
C645 H631 0.929 . S
C645 C644 1.399 . S
C645 C646 1.385 . S
C646 H632 0.931 . S
C646 C645 1.385 . S
C646 C647 1.389 . S
C647 C646 1.389 . S
C647 C648 1.387 . S
C648 H633 0.930 . S
C648 C643 1.390 . S
C648 C647 1.387 . S
H649 C661 0.930 . S
H650 C663 0.930 . S
H651 C664 0.930 . S
H652 C668 0.959 . S
H653 C668 0.959 . S
H654 C668 0.961 . S
H655 C669 0.960 . S
H656 C669 0.961 . S
H657 C669 0.959 . S
H658 C672 0.929 . S
H659 C673 0.931 . S
H660 C675 0.930 . S
C661 H649 0.930 . S
C661 C662 1.399 . S
C661 C666 1.399 . S
C662 C661 1.399 . S
C662 C663 1.376 . S
C663 H650 0.930 . S
C663 C662 1.376 . S
C663 C664 1.388 . S
C664 H651 0.930 . S
C664 C663 1.388 . S
C664 C665 1.390 . S
C665 C664 1.390 . S
C665 C666 1.394 . S
C665 C671 1.465 . S
C666 C661 1.399 . S
C666 C665 1.394 . S
C666 C667 1.516 . S
C667 C666 1.516 . S
C667 C668 1.502 . S
C667 C669 1.561 . S
C667 C670 1.526 . S
C668 H652 0.959 . S
C668 H653 0.959 . S
C668 H654 0.961 . S
C668 C667 1.502 . S
C669 H655 0.960 . S
C669 H656 0.961 . S
C669 H657 0.959 . S
C669 C667 1.561 . S
C670 C667 1.526 . S
C670 C671 1.396 . S
C670 C675 1.390 . S
C671 C665 1.465 . S
C671 C670 1.396 . S
C671 C672 1.399 . S
C672 H658 0.929 . S
C672 C671 1.399 . S
C672 C673 1.385 . S
C673 H659 0.931 . S
C673 C672 1.385 . S
C673 C674 1.389 . S
C674 C673 1.389 . S
C674 C675 1.387 . S
C675 H660 0.930 . S
C675 C670 1.390 . S
C675 C674 1.387 . S
H676 C688 0.930 . S
H677 C690 0.930 . S
H678 C691 0.930 . S
H679 C695 0.959 . S
H680 C695 0.959 . S
H681 C695 0.961 . S
H682 C696 0.960 . S
H683 C696 0.961 . S
H684 C696 0.959 . S
H685 C699 0.929 . S
H686 C700 0.931 . S
H687 C702 0.930 . S
C688 H676 0.930 . S
C688 C689 1.399 . S
C688 C693 1.399 . S
C689 C688 1.399 . S
C689 C690 1.376 . S
C690 H677 0.930 . S
C690 C689 1.376 . S
C690 C691 1.388 . S
C691 H678 0.930 . S
C691 C690 1.388 . S
C691 C692 1.390 . S
C692 C691 1.390 . S
C692 C693 1.394 . S
C692 C698 1.465 . S
C693 C688 1.399 . S
C693 C692 1.394 . S
C693 C694 1.516 . S
C694 C693 1.516 . S
C694 C695 1.502 . S
C694 C696 1.561 . S
C694 C697 1.526 . S
C695 H679 0.959 . S
C695 H680 0.959 . S
C695 H681 0.961 . S
C695 C694 1.502 . S
C696 H682 0.960 . S
C696 H683 0.961 . S
C696 H684 0.959 . S
C696 C694 1.561 . S
C697 C694 1.526 . S
C697 C698 1.396 . S
C697 C702 1.390 . S
C698 C692 1.465 . S
C698 C697 1.396 . S
C698 C699 1.399 . S
C699 H685 0.929 . S
C699 C698 1.399 . S
C699 C700 1.385 1_565 S
C700 H686 0.931 . S
C700 C699 1.385 1_545 S
C700 C701 1.389 . S
C701 C700 1.389 . S
C701 C702 1.387 1_545 S
C702 H687 0.930 . S
C702 C697 1.390 . S
C702 C701 1.387 1_565 S
H703 C715 0.930 . S
H704 C717 0.930 . S
H705 C718 0.930 . S
H706 C722 0.959 . S
H707 C722 0.959 . S
H708 C722 0.961 . S
H709 C723 0.960 . S
H710 C723 0.961 . S
H711 C723 0.959 . S
H712 C726 0.929 . S
H713 C727 0.931 . S
H714 C729 0.930 . S
C715 H703 0.930 . S
C715 C716 1.399 . S
C715 C720 1.399 . S
C716 C715 1.399 . S
C716 C717 1.376 . S
C717 H704 0.930 . S
C717 C716 1.376 . S
C717 C718 1.388 . S
C718 H705 0.930 . S
C718 C717 1.388 . S
C718 C719 1.390 . S
C719 C718 1.390 . S
C719 C720 1.394 . S
C719 C725 1.465 . S
C720 C715 1.399 . S
C720 C719 1.394 . S
C720 C721 1.516 . S
C721 C720 1.516 . S
C721 C722 1.502 . S
C721 C723 1.561 . S
C721 C724 1.526 . S
C722 H706 0.959 . S
C722 H707 0.959 . S
C722 H708 0.961 . S
C722 C721 1.502 . S
C723 H709 0.960 . S
C723 H710 0.961 . S
C723 H711 0.959 . S
C723 C721 1.561 . S
C724 C721 1.526 . S
C724 C725 1.396 . S
C724 C729 1.390 . S
C725 C719 1.465 . S
C725 C724 1.396 . S
C725 C726 1.399 . S
C726 H712 0.929 . S
C726 C725 1.399 . S
C726 C727 1.385 . S
C727 H713 0.931 . S
C727 C726 1.385 . S
C727 C728 1.389 . S
C728 C727 1.389 . S
C728 C729 1.387 . S
C729 H714 0.930 . S
C729 C724 1.390 . S
C729 C728 1.387 . S
H730 C742 0.930 . S
H731 C744 0.930 . S
H732 C745 0.930 . S
H733 C749 0.959 . S
H734 C749 0.959 . S
H735 C749 0.961 . S
H736 C750 0.960 . S
H737 C750 0.961 . S
H738 C750 0.959 . S
H739 C753 0.929 . S
H740 C754 0.931 . S
H741 C756 0.930 . S
C742 H730 0.930 . S
C742 C743 1.399 . S
C742 C747 1.399 . S
C743 C742 1.399 . S
C743 C744 1.376 . S
C744 H731 0.930 . S
C744 C743 1.376 . S
C744 C745 1.388 . S
C745 H732 0.930 . S
C745 C744 1.388 . S
C745 C746 1.390 . S
C746 C745 1.390 . S
C746 C747 1.394 . S
C746 C752 1.465 . S
C747 C742 1.399 . S
C747 C746 1.394 . S
C747 C748 1.516 . S
C748 C747 1.516 . S
C748 C749 1.502 . S
C748 C750 1.561 . S
C748 C751 1.526 . S
C749 H733 0.959 . S
C749 H734 0.959 . S
C749 H735 0.961 . S
C749 C748 1.502 . S
C750 H736 0.960 . S
C750 H737 0.961 . S
C750 H738 0.959 . S
C750 C748 1.561 . S
C751 C748 1.526 . S
C751 C752 1.396 . S
C751 C756 1.390 . S
C752 C746 1.465 . S
C752 C751 1.396 . S
C752 C753 1.399 . S
C753 H739 0.929 . S
C753 C752 1.399 . S
C753 C754 1.385 . S
C754 H740 0.931 . S
C754 C753 1.385 . S
C754 C755 1.389 . S
C755 C754 1.389 . S
C755 C756 1.387 . S
C756 H741 0.930 . S
C756 C751 1.390 . S
C756 C755 1.387 . S
H757 C769 0.930 . S
H758 C771 0.930 . S
H759 C772 0.930 . S
H760 C776 0.959 . S
H761 C776 0.959 . S
H762 C776 0.961 . S
H763 C777 0.960 . S
H764 C777 0.961 . S
H765 C777 0.959 . S
H766 C780 0.929 . S
H767 C781 0.931 . S
H768 C783 0.930 . S
C769 H757 0.930 . S
C769 C770 1.399 . S
C769 C774 1.399 . S
C770 C769 1.399 . S
C770 C771 1.376 . S
C771 H758 0.930 . S
C771 C770 1.376 . S
C771 C772 1.388 . S
C772 H759 0.930 . S
C772 C771 1.388 . S
C772 C773 1.390 . S
C773 C772 1.390 . S
C773 C774 1.394 . S
C773 C779 1.465 . S
C774 C769 1.399 . S
C774 C773 1.394 . S
C774 C775 1.516 . S
C775 C774 1.516 . S
C775 C776 1.502 . S
C775 C777 1.561 . S
C775 C778 1.526 . S
C776 H760 0.959 . S
C776 H761 0.959 . S
C776 H762 0.961 . S
C776 C775 1.502 . S
C777 H763 0.960 . S
C777 H764 0.961 . S
C777 H765 0.959 . S
C777 C775 1.561 . S
C778 C775 1.526 . S
C778 C779 1.396 . S
C778 C783 1.390 . S
C779 C773 1.465 . S
C779 C778 1.396 . S
C779 C780 1.399 . S
C780 H766 0.929 . S
C780 C779 1.399 . S
C780 C781 1.385 . S
C781 H767 0.931 . S
C781 C780 1.385 . S
C781 C782 1.389 . S
C782 C781 1.389 . S
C782 C783 1.387 . S
C783 H768 0.930 . S
C783 C778 1.390 . S
C783 C782 1.387 . S
H784 C796 0.930 . S
H785 C798 0.930 . S
H786 C799 0.930 . S
H787 C803 0.959 . S
H788 C803 0.959 . S
H789 C803 0.961 . S
H790 C804 0.960 . S
H791 C804 0.961 . S
H792 C804 0.959 . S
H793 C807 0.929 . S
H794 C808 0.931 . S
H795 C810 0.930 . S
C796 H784 0.930 . S
C796 C797 1.399 . S
C796 C801 1.399 . S
C797 C796 1.399 . S
C797 C798 1.376 . S
C798 H785 0.930 . S
C798 C797 1.376 . S
C798 C799 1.388 . S
C799 H786 0.930 . S
C799 C798 1.388 . S
C799 C800 1.390 . S
C800 C799 1.390 . S
C800 C801 1.394 . S
C800 C806 1.465 . S
C801 C796 1.399 . S
C801 C800 1.394 . S
C801 C802 1.516 . S
C802 C801 1.516 . S
C802 C803 1.502 . S
C802 C804 1.561 . S
C802 C805 1.526 . S
C803 H787 0.959 . S
C803 H788 0.959 . S
C803 H789 0.961 . S
C803 C802 1.502 . S
C804 H790 0.960 . S
C804 H791 0.961 . S
C804 H792 0.959 . S
C804 C802 1.561 . S
C805 C802 1.526 . S
C805 C806 1.396 . S
C805 C810 1.390 . S
C806 C800 1.465 . S
C806 C805 1.396 . S
C806 C807 1.399 . S
C807 H793 0.929 . S
C807 C806 1.399 . S
C807 C808 1.385 . S
C808 H794 0.931 . S
C808 C807 1.385 . S
C808 C809 1.389 . S
C809 C808 1.389 . S
C809 C810 1.387 . S
C810 H795 0.930 . S
C810 C805 1.390 . S
C810 C809 1.387 . S
H811 C823 0.930 . S
H812 C825 0.930 . S
H813 C826 0.930 . S
H814 C830 0.959 . S
H815 C830 0.959 . S
H816 C830 0.961 . S
H817 C831 0.960 . S
H818 C831 0.961 . S
H819 C831 0.959 . S
H820 C834 0.929 . S
H821 C835 0.931 . S
H822 C837 0.930 . S
C823 H811 0.930 . S
C823 C824 1.399 . S
C823 C828 1.399 . S
C824 C823 1.399 . S
C824 C825 1.376 . S
C825 H812 0.930 . S
C825 C824 1.376 . S
C825 C826 1.388 . S
C826 H813 0.930 . S
C826 C825 1.388 . S
C826 C827 1.390 . S
C827 C826 1.390 . S
C827 C828 1.394 . S
C827 C833 1.465 . S
C828 C823 1.399 . S
C828 C827 1.394 . S
C828 C829 1.516 . S
C829 C828 1.516 . S
C829 C830 1.502 . S
C829 C831 1.561 . S
C829 C832 1.526 . S
C830 H814 0.959 . S
C830 H815 0.959 . S
C830 H816 0.961 . S
C830 C829 1.502 . S
C831 H817 0.960 . S
C831 H818 0.961 . S
C831 H819 0.959 . S
C831 C829 1.561 . S
C832 C829 1.526 . S
C832 C833 1.396 . S
C832 C837 1.390 . S
C833 C827 1.465 . S
C833 C832 1.396 . S
C833 C834 1.399 . S
C834 H820 0.929 . S
C834 C833 1.399 . S
C834 C835 1.385 . S
C835 H821 0.931 . S
C835 C834 1.385 . S
C835 C836 1.389 . S
C836 C835 1.389 . S
C836 C837 1.387 . S
C837 H822 0.930 . S
C837 C832 1.390 . S
C837 C836 1.387 . S
H838 C850 0.930 . S
H839 C852 0.930 . S
H840 C853 0.930 . S
H841 C857 0.959 . S
H842 C857 0.959 . S
H843 C857 0.961 . S
H844 C858 0.960 . S
H845 C858 0.961 . S
H846 C858 0.959 . S
H847 C861 0.929 . S
H848 C862 0.931 . S
H849 C864 0.930 . S
C850 H838 0.930 . S
C850 C851 1.399 . S
C850 C855 1.399 . S
C851 C850 1.399 . S
C851 C852 1.376 . S
C852 H839 0.930 . S
C852 C851 1.376 . S
C852 C853 1.388 . S
C853 H840 0.930 . S
C853 C852 1.388 . S
C853 C854 1.390 . S
C854 C853 1.390 . S
C854 C855 1.394 . S
C854 C860 1.465 . S
C855 C850 1.399 . S
C855 C854 1.394 . S
C855 C856 1.516 . S
C856 C855 1.516 . S
C856 C857 1.502 . S
C856 C858 1.561 . S
C856 C859 1.526 . S
C857 H841 0.959 . S
C857 H842 0.959 . S
C857 H843 0.961 . S
C857 C856 1.502 . S
C858 H844 0.960 . S
C858 H845 0.961 . S
C858 H846 0.959 . S
C858 C856 1.561 . S
C859 C856 1.526 . S
C859 C860 1.396 . S
C859 C864 1.390 . S
C860 C854 1.465 . S
C860 C859 1.396 . S
C860 C861 1.399 . S
C861 H847 0.929 . S
C861 C860 1.399 . S
C861 C862 1.385 . S
C862 H848 0.931 . S
C862 C861 1.385 . S
C862 C863 1.389 . S
C863 C862 1.389 . S
C863 C864 1.387 . S
C864 H849 0.930 . S
C864 C859 1.390 . S
C864 C863 1.387 . S
H865 C877 0.930 . S
H866 C879 0.930 . S
H867 C880 0.930 . S
H868 C884 0.959 . S
H869 C884 0.959 . S
H870 C884 0.961 . S
H871 C885 0.960 . S
H872 C885 0.961 . S
H873 C885 0.959 . S
H874 C888 0.929 . S
H875 C889 0.931 . S
H876 C891 0.930 . S
C877 H865 0.930 . S
C877 C878 1.399 . S
C877 C882 1.399 . S
C878 C877 1.399 . S
C878 C879 1.376 . S
C879 H866 0.930 . S
C879 C878 1.376 . S
C879 C880 1.388 . S
C880 H867 0.930 . S
C880 C879 1.388 . S
C880 C881 1.390 . S
C881 C880 1.390 . S
C881 C882 1.394 . S
C881 C887 1.465 . S
C882 C877 1.399 . S
C882 C881 1.394 . S
C882 C883 1.516 . S
C883 C882 1.516 . S
C883 C884 1.502 . S
C883 C885 1.561 . S
C883 C886 1.526 . S
C884 H868 0.959 . S
C884 H869 0.959 . S
C884 H870 0.961 . S
C884 C883 1.502 . S
C885 H871 0.960 . S
C885 H872 0.961 . S
C885 H873 0.959 . S
C885 C883 1.561 . S
C886 C883 1.526 . S
C886 C887 1.396 . S
C886 C891 1.390 . S
C887 C881 1.465 . S
C887 C886 1.396 . S
C887 C888 1.399 . S
C888 H874 0.929 . S
C888 C887 1.399 . S
C888 C889 1.385 . S
C889 H875 0.931 . S
C889 C888 1.385 . S
C889 C890 1.389 . S
C890 C889 1.389 . S
C890 C891 1.387 . S
C891 H876 0.930 . S
C891 C886 1.390 . S
C891 C890 1.387 . S
H892 C904 0.930 . S
H893 C906 0.930 . S
H894 C907 0.930 . S
H895 C911 0.959 . S
H896 C911 0.959 . S
H897 C911 0.961 . S
H898 C912 0.960 . S
H899 C912 0.961 . S
H900 C912 0.959 . S
H901 C915 0.929 . S
H902 C916 0.931 . S
H903 C918 0.930 . S
C904 H892 0.930 . S
C904 C905 1.399 . S
C904 C909 1.399 . S
C905 C904 1.399 . S
C905 C906 1.376 . S
C906 H893 0.930 . S
C906 C905 1.376 . S
C906 C907 1.388 . S
C907 H894 0.930 . S
C907 C906 1.388 . S
C907 C908 1.390 . S
C908 C907 1.390 . S
C908 C909 1.394 . S
C908 C914 1.465 . S
C909 C904 1.399 . S
C909 C908 1.394 . S
C909 C910 1.516 . S
C910 C909 1.516 . S
C910 C911 1.502 . S
C910 C912 1.561 . S
C910 C913 1.526 . S
C911 H895 0.959 . S
C911 H896 0.959 . S
C911 H897 0.961 . S
C911 C910 1.502 . S
C912 H898 0.960 . S
C912 H899 0.961 . S
C912 H900 0.959 . S
C912 C910 1.561 . S
C913 C910 1.526 . S
C913 C914 1.396 . S
C913 C918 1.390 . S
C914 C908 1.465 . S
C914 C913 1.396 . S
C914 C915 1.399 . S
C915 H901 0.929 . S
C915 C914 1.399 . S
C915 C916 1.385 . S
C916 H902 0.931 . S
C916 C915 1.385 . S
C916 C917 1.389 . S
C917 C916 1.389 . S
C917 C918 1.387 . S
C918 H903 0.930 . S
C918 C913 1.390 . S
C918 C917 1.387 . S
H919 C931 0.930 . S
H920 C933 0.930 . S
H921 C934 0.930 . S
H922 C938 0.959 . S
H923 C938 0.959 . S
H924 C938 0.961 . S
H925 C939 0.960 . S
H926 C939 0.961 . S
H927 C939 0.959 . S
H928 C942 0.929 . S
H929 C943 0.931 . S
H930 C945 0.930 . S
C931 H919 0.930 . S
C931 C932 1.399 . S
C931 C936 1.399 . S
C932 C931 1.399 . S
C932 C933 1.376 . S
C933 H920 0.930 . S
C933 C932 1.376 . S
C933 C934 1.388 . S
C934 H921 0.930 . S
C934 C933 1.388 . S
C934 C935 1.390 . S
C935 C934 1.390 . S
C935 C936 1.394 . S
C935 C941 1.465 . S
C936 C931 1.399 . S
C936 C935 1.394 . S
C936 C937 1.516 . S
C937 C936 1.516 . S
C937 C938 1.502 . S
C937 C939 1.561 . S
C937 C940 1.526 . S
C938 H922 0.959 . S
C938 H923 0.959 . S
C938 H924 0.961 . S
C938 C937 1.502 . S
C939 H925 0.960 . S
C939 H926 0.961 . S
C939 H927 0.959 . S
C939 C937 1.561 . S
C940 C937 1.526 . S
C940 C941 1.396 . S
C940 C945 1.390 . S
C941 C935 1.465 . S
C941 C940 1.396 . S
C941 C942 1.399 . S
C942 H928 0.929 . S
C942 C941 1.399 . S
C942 C943 1.385 . S
C943 H929 0.931 . S
C943 C942 1.385 . S
C943 C944 1.389 . S
C944 C943 1.389 . S
C944 C945 1.387 . S
C945 H930 0.930 . S
C945 C940 1.390 . S
C945 C944 1.387 . S
H946 C958 0.930 . S
H947 C960 0.930 . S
H948 C961 0.930 . S
H949 C965 0.959 . S
H950 C965 0.959 . S
H951 C965 0.961 . S
H952 C966 0.960 . S
H953 C966 0.961 . S
H954 C966 0.959 . S
H955 C969 0.929 . S
H956 C970 0.931 . S
H957 C972 0.930 . S
C958 H946 0.930 . S
C958 C959 1.399 . S
C958 C963 1.399 . S
C959 C958 1.399 . S
C959 C960 1.376 . S
C960 H947 0.930 . S
C960 C959 1.376 . S
C960 C961 1.388 . S
C961 H948 0.930 . S
C961 C960 1.388 . S
C961 C962 1.390 . S
C962 C961 1.390 . S
C962 C963 1.394 . S
C962 C968 1.465 . S
C963 C958 1.399 . S
C963 C962 1.394 . S
C963 C964 1.516 . S
C964 C963 1.516 . S
C964 C965 1.502 . S
C964 C966 1.561 . S
C964 C967 1.526 . S
C965 H949 0.959 . S
C965 H950 0.959 . S
C965 H951 0.961 . S
C965 C964 1.502 . S
C966 H952 0.960 . S
C966 H953 0.961 . S
C966 H954 0.959 . S
C966 C964 1.561 . S
C967 C964 1.526 . S
C967 C968 1.396 . S
C967 C972 1.390 . S
C968 C962 1.465 . S
C968 C967 1.396 . S
C968 C969 1.399 . S
C969 H955 0.929 . S
C969 C968 1.399 . S
C969 C970 1.385 . S
C970 H956 0.931 . S
C970 C969 1.385 . S
C970 C971 1.389 . S
C971 C970 1.389 . S
C971 C972 1.387 . S
C972 H957 0.930 . S
C972 C967 1.390 . S
C972 C971 1.387 . S
H973 C985 0.930 . S
H974 C987 0.930 . S
H975 C988 0.930 . S
H976 C992 0.959 . S
H977 C992 0.959 . S
H978 C992 0.961 . S
H979 C993 0.960 . S
H980 C993 0.961 . S
H981 C993 0.959 . S
H982 C996 0.929 . S
H983 C997 0.931 . S
H984 C999 0.930 . S
C985 H973 0.930 . S
C985 C986 1.399 . S
C985 C990 1.399 . S
C986 C985 1.399 . S
C986 C987 1.376 . S
C987 H974 0.930 . S
C987 C986 1.376 . S
C987 C988 1.388 . S
C988 H975 0.930 . S
C988 C987 1.388 . S
C988 C989 1.390 . S
C989 C988 1.390 . S
C989 C990 1.394 . S
C989 C995 1.465 . S
C990 C985 1.399 . S
C990 C989 1.394 . S
C990 C991 1.516 . S
C991 C990 1.516 . S
C991 C992 1.502 . S
C991 C993 1.561 . S
C991 C994 1.526 . S
C992 H976 0.959 . S
C992 H977 0.959 . S
C992 H978 0.961 . S
C992 C991 1.502 . S
C993 H979 0.960 . S
C993 H980 0.961 . S
C993 H981 0.959 . S
C993 C991 1.561 . S
C994 C991 1.526 . S
C994 C995 1.396 . S
C994 C999 1.390 . S
C995 C989 1.465 . S
C995 C994 1.396 . S
C995 C996 1.399 . S
C996 H982 0.929 . S
C996 C995 1.399 . S
C996 C997 1.385 . S
C997 H983 0.931 . S
C997 C996 1.385 . S
C997 C998 1.389 . S
C998 C997 1.389 . S
C998 C999 1.387 . S
C999 H984 0.930 . S
C999 C994 1.390 . S
C999 C998 1.387 . S
H1000 C1012 0.930 . S
H1001 C1014 0.930 . S
H1002 C1015 0.930 . S
H1003 C1019 0.959 . S
H1004 C1019 0.959 . S
H1005 C1019 0.961 . S
H1006 C1020 0.960 . S
H1007 C1020 0.961 . S
H1008 C1020 0.959 . S
H1009 C1023 0.929 . S
H1010 C1024 0.931 . S
H1011 C1026 0.930 . S
C1012 H1000 0.930 . S
C1012 C1013 1.399 . S
C1012 C1017 1.399 . S
C1013 C1012 1.399 . S
C1013 C1014 1.376 . S
C1014 H1001 0.930 . S
C1014 C1013 1.376 . S
C1014 C1015 1.388 . S
C1015 H1002 0.930 . S
C1015 C1014 1.388 . S
C1015 C1016 1.390 . S
C1016 C1015 1.390 . S
C1016 C1017 1.394 . S
C1016 C1022 1.465 . S
C1017 C1012 1.399 . S
C1017 C1016 1.394 . S
C1017 C1018 1.516 . S
C1018 C1017 1.516 . S
C1018 C1019 1.502 . S
C1018 C1020 1.561 . S
C1018 C1021 1.526 . S
C1019 H1003 0.959 . S
C1019 H1004 0.959 . S
C1019 H1005 0.961 . S
C1019 C1018 1.502 . S
C1020 H1006 0.960 . S
C1020 H1007 0.961 . S
C1020 H1008 0.959 . S
C1020 C1018 1.561 . S
C1021 C1018 1.526 . S
C1021 C1022 1.396 . S
C1021 C1026 1.390 . S
C1022 C1016 1.465 . S
C1022 C1021 1.396 . S
C1022 C1023 1.399 . S
C1023 H1009 0.929 . S
C1023 C1022 1.399 . S
C1023 C1024 1.385 . S
C1024 H1010 0.931 . S
C1024 C1023 1.385 . S
C1024 C1025 1.389 . S
C1025 C1024 1.389 . S
C1025 C1026 1.387 . S
C1026 H1011 0.930 . S
C1026 C1021 1.390 . S
C1026 C1025 1.387 . S
H1027 C1039 0.930 . S
H1028 C1041 0.930 . S
H1029 C1042 0.930 . S
H1030 C1046 0.959 . S
H1031 C1046 0.959 . S
H1032 C1046 0.961 . S
H1033 C1047 0.960 . S
H1034 C1047 0.961 . S
H1035 C1047 0.959 . S
H1036 C1050 0.929 . S
H1037 C1051 0.931 . S
H1038 C1053 0.930 . S
C1039 H1027 0.930 . S
C1039 C1040 1.399 . S
C1039 C1044 1.399 . S
C1040 C1039 1.399 . S
C1040 C1041 1.376 . S
C1041 H1028 0.930 . S
C1041 C1040 1.376 . S
C1041 C1042 1.388 . S
C1042 H1029 0.930 . S
C1042 C1041 1.388 . S
C1042 C1043 1.390 . S
C1043 C1042 1.390 . S
C1043 C1044 1.394 . S
C1043 C1049 1.465 . S
C1044 C1039 1.399 . S
C1044 C1043 1.394 . S
C1044 C1045 1.516 . S
C1045 C1044 1.516 . S
C1045 C1046 1.502 . S
C1045 C1047 1.561 . S
C1045 C1048 1.526 . S
C1046 H1030 0.959 . S
C1046 H1031 0.959 . S
C1046 H1032 0.961 . S
C1046 C1045 1.502 . S
C1047 H1033 0.960 . S
C1047 H1034 0.961 . S
C1047 H1035 0.959 . S
C1047 C1045 1.561 . S
C1048 C1045 1.526 . S
C1048 C1049 1.396 . S
C1048 C1053 1.390 . S
C1049 C1043 1.465 . S
C1049 C1048 1.396 . S
C1049 C1050 1.399 . S
C1050 H1036 0.929 . S
C1050 C1049 1.399 . S
C1050 C1051 1.385 . S
C1051 H1037 0.931 . S
C1051 C1050 1.385 . S
C1051 C1052 1.389 . S
C1052 C1051 1.389 . S
C1052 C1053 1.387 . S
C1053 H1038 0.930 . S
C1053 C1048 1.390 . S
C1053 C1052 1.387 . S
H1054 C1066 0.930 . S
H1055 C1068 0.930 . S
H1056 C1069 0.930 . S
H1057 C1073 0.959 . S
H1058 C1073 0.959 . S
H1059 C1073 0.961 . S
H1060 C1074 0.960 . S
H1061 C1074 0.961 . S
H1062 C1074 0.959 . S
H1063 C1077 0.929 . S
H1064 C1078 0.931 . S
H1065 C1080 0.930 . S
C1066 H1054 0.930 . S
C1066 C1067 1.399 . S
C1066 C1071 1.399 . S
C1067 C1066 1.399 . S
C1067 C1068 1.376 . S
C1068 H1055 0.930 . S
C1068 C1067 1.376 . S
C1068 C1069 1.388 . S
C1069 H1056 0.930 . S
C1069 C1068 1.388 . S
C1069 C1070 1.390 . S
C1070 C1069 1.390 . S
C1070 C1071 1.394 . S
C1070 C1076 1.465 . S
C1071 C1066 1.399 . S
C1071 C1070 1.394 . S
C1071 C1072 1.516 . S
C1072 C1071 1.516 . S
C1072 C1073 1.502 . S
C1072 C1074 1.561 . S
C1072 C1075 1.526 . S
C1073 H1057 0.959 . S
C1073 H1058 0.959 . S
C1073 H1059 0.961 . S
C1073 C1072 1.502 . S
C1074 H1060 0.960 . S
C1074 H1061 0.961 . S
C1074 H1062 0.959 . S
C1074 C1072 1.561 . S
C1075 C1072 1.526 . S
C1075 C1076 1.396 . S
C1075 C1080 1.390 . S
C1076 C1070 1.465 . S
C1076 C1075 1.396 . S
C1076 C1077 1.399 . S
C1077 H1063 0.929 . S
C1077 C1076 1.399 . S
C1077 C1078 1.385 . S
C1078 H1064 0.931 . S
C1078 C1077 1.385 . S
C1078 C1079 1.389 . S
C1079 C1078 1.389 . S
C1079 C1080 1.387 . S
C1080 H1065 0.930 . S
C1080 C1075 1.390 . S
C1080 C1079 1.387 . S
H1081 C1093 0.930 . S
H1082 C1095 0.930 . S
H1083 C1096 0.930 . S
H1084 C1100 0.959 . S
H1085 C1100 0.959 . S
H1086 C1100 0.961 . S
H1087 C1101 0.960 . S
H1088 C1101 0.961 . S
H1089 C1101 0.959 . S
H1090 C1104 0.929 . S
H1091 C1105 0.931 . S
H1092 C1107 0.930 . S
C1093 H1081 0.930 . S
C1093 C1094 1.399 . S
C1093 C1098 1.399 . S
C1094 C1093 1.399 . S
C1094 C1095 1.376 . S
C1095 H1082 0.930 . S
C1095 C1094 1.376 . S
C1095 C1096 1.388 . S
C1096 H1083 0.930 . S
C1096 C1095 1.388 . S
C1096 C1097 1.390 . S
C1097 C1096 1.390 . S
C1097 C1098 1.394 . S
C1097 C1103 1.465 . S
C1098 C1093 1.399 . S
C1098 C1097 1.394 . S
C1098 C1099 1.516 . S
C1099 C1098 1.516 . S
C1099 C1100 1.502 . S
C1099 C1101 1.561 . S
C1099 C1102 1.526 . S
C1100 H1084 0.959 . S
C1100 H1085 0.959 . S
C1100 H1086 0.961 . S
C1100 C1099 1.502 . S
C1101 H1087 0.960 . S
C1101 H1088 0.961 . S
C1101 H1089 0.959 . S
C1101 C1099 1.561 . S
C1102 C1099 1.526 . S
C1102 C1103 1.396 . S
C1102 C1107 1.390 . S
C1103 C1097 1.465 . S
C1103 C1102 1.396 . S
C1103 C1104 1.399 . S
C1104 H1090 0.929 . S
C1104 C1103 1.399 . S
C1104 C1105 1.385 . S
C1105 H1091 0.931 . S
C1105 C1104 1.385 . S
C1105 C1106 1.389 . S
C1106 C1105 1.389 . S
C1106 C1107 1.387 . S
C1107 H1092 0.930 . S
C1107 C1102 1.390 . S
C1107 C1106 1.387 . S
C485 C123 1.407 . S
C473 C5 1.335 . S
C512 C203 1.633 . S
C500 C16 1.464 . S
C539 C135 1.609 . S
C527 C30 1.760 . S
C566 C179 1.808 . S
C554 C40 1.986 . S
C593 C247 1.236 . S
C581 C8 1.255 . S
C620 C327 1.443 . S
C608 C18 1.343 . S
C635 C29 1.866 . S
C647 C389 1.842 . S
C674 C445 1.586 . S
C662 C38 1.349 . S
C701 C259 1.326 . S
C689 C19 1.460 . S
C716 C27 1.511 . S
C728 C303 1.519 . S
C755 C365 1.761 . S
C743 C41 1.899 . S
C782 C433 1.448 . S
C770 C7 1.458 . S
C797 C52 1.884 . S
C809 C197 1.711 . S
C836 C117 1.513 . S
C824 C62 1.615 . S
C851 C74 1.544 . S
C863 C185 1.445 . S
C878 C82 1.183 . S
C890 C141 1.296 . S
C917 C383 2.021 . S
C905 C51 2.055 . S
C944 C427 1.574 . S
C932 C60 1.405 . S
C971 C241 1.299 . S
C959 C71 1.284 . S
C986 C84 1.337 . S
C998 C309 1.395 . S
C1025 C371 1.765 . S
C1013 C63 1.809 . S
C1052 C451 1.464 . S
C1040 C73 1.377 . S
C1079 C265 1.286 1_565 S
C1067 C85 1.379 . S
C1094 C49 1.348 . S
C1106 C321 1.614 . S
