# Generated by pormake.
# Topology ctn, (3,4)-cn, num edge types: 1
# Building blocks:
#     Node 0, Type 0, BuildingBlock: CUQRIR_clean_linker_1, # of connection points: 3
#     Node 1, Type 0, BuildingBlock: CUQRIR_clean_linker_1, # of connection points: 3
#     Node 2, Type 0, BuildingBlock: CUQRIR_clean_linker_1, # of connection points: 3
#     Node 3, Type 0, BuildingBlock: CUQRIR_clean_linker_1, # of connection points: 3
#     Node 4, Type 0, BuildingBlock: CUQRIR_clean_linker_1, # of connection points: 3
#     Node 5, Type 0, BuildingBlock: CUQRIR_clean_linker_1, # of connection points: 3
#     Node 6, Type 0, BuildingBlock: CUQRIR_clean_linker_1, # of connection points: 3
#     Node 7, Type 0, BuildingBlock: CUQRIR_clean_linker_1, # of connection points: 3
#     Node 8, Type 0, BuildingBlock: CUQRIR_clean_linker_1, # of connection points: 3
#     Node 9, Type 0, BuildingBlock: CUQRIR_clean_linker_1, # of connection points: 3
#     Node 10, Type 0, BuildingBlock: CUQRIR_clean_linker_1, # of connection points: 3
#     Node 11, Type 0, BuildingBlock: CUQRIR_clean_linker_1, # of connection points: 3
#     Node 12, Type 0, BuildingBlock: CUQRIR_clean_linker_1, # of connection points: 3
#     Node 13, Type 0, BuildingBlock: CUQRIR_clean_linker_1, # of connection points: 3
#     Node 14, Type 0, BuildingBlock: CUQRIR_clean_linker_1, # of connection points: 3
#     Node 15, Type 0, BuildingBlock: CUQRIR_clean_linker_1, # of connection points: 3
#     Node 16, Type 1, BuildingBlock: UXUYUI_clean_sbu_0, # of connection points: 4
#     Node 17, Type 1, BuildingBlock: UXUYUI_clean_sbu_0, # of connection points: 4
#     Node 18, Type 1, BuildingBlock: UXUYUI_clean_sbu_0, # of connection points: 4
#     Node 19, Type 1, BuildingBlock: UXUYUI_clean_sbu_0, # of connection points: 4
#     Node 20, Type 1, BuildingBlock: UXUYUI_clean_sbu_0, # of connection points: 4
#     Node 21, Type 1, BuildingBlock: UXUYUI_clean_sbu_0, # of connection points: 4
#     Node 22, Type 1, BuildingBlock: UXUYUI_clean_sbu_0, # of connection points: 4
#     Node 23, Type 1, BuildingBlock: UXUYUI_clean_sbu_0, # of connection points: 4
#     Node 24, Type 1, BuildingBlock: UXUYUI_clean_sbu_0, # of connection points: 4
#     Node 25, Type 1, BuildingBlock: UXUYUI_clean_sbu_0, # of connection points: 4
#     Node 26, Type 1, BuildingBlock: UXUYUI_clean_sbu_0, # of connection points: 4
#     Node 27, Type 1, BuildingBlock: UXUYUI_clean_sbu_0, # of connection points: 4
#     Edge 28, Type (0, 1), BuildingBlock: CIFDUS_clean_linker_0, # of connection points: 2
#     Edge 29, Type (0, 1), BuildingBlock: CIFDUS_clean_linker_0, # of connection points: 2
#     Edge 30, Type (0, 1), BuildingBlock: CIFDUS_clean_linker_0, # of connection points: 2
#     Edge 31, Type (0, 1), BuildingBlock: CIFDUS_clean_linker_0, # of connection points: 2
#     Edge 32, Type (0, 1), BuildingBlock: CIFDUS_clean_linker_0, # of connection points: 2
#     Edge 33, Type (0, 1), BuildingBlock: CIFDUS_clean_linker_0, # of connection points: 2
#     Edge 34, Type (0, 1), BuildingBlock: CIFDUS_clean_linker_0, # of connection points: 2
#     Edge 35, Type (0, 1), BuildingBlock: CIFDUS_clean_linker_0, # of connection points: 2
#     Edge 36, Type (0, 1), BuildingBlock: CIFDUS_clean_linker_0, # of connection points: 2
#     Edge 37, Type (0, 1), BuildingBlock: CIFDUS_clean_linker_0, # of connection points: 2
#     Edge 38, Type (0, 1), BuildingBlock: CIFDUS_clean_linker_0, # of connection points: 2
#     Edge 39, Type (0, 1), BuildingBlock: CIFDUS_clean_linker_0, # of connection points: 2
#     Edge 40, Type (0, 1), BuildingBlock: CIFDUS_clean_linker_0, # of connection points: 2
#     Edge 41, Type (0, 1), BuildingBlock: CIFDUS_clean_linker_0, # of connection points: 2
#     Edge 42, Type (0, 1), BuildingBlock: CIFDUS_clean_linker_0, # of connection points: 2
#     Edge 43, Type (0, 1), BuildingBlock: CIFDUS_clean_linker_0, # of connection points: 2
#     Edge 44, Type (0, 1), BuildingBlock: CIFDUS_clean_linker_0, # of connection points: 2
#     Edge 45, Type (0, 1), BuildingBlock: CIFDUS_clean_linker_0, # of connection points: 2
#     Edge 46, Type (0, 1), BuildingBlock: CIFDUS_clean_linker_0, # of connection points: 2
#     Edge 47, Type (0, 1), BuildingBlock: CIFDUS_clean_linker_0, # of connection points: 2
#     Edge 48, Type (0, 1), BuildingBlock: CIFDUS_clean_linker_0, # of connection points: 2
#     Edge 49, Type (0, 1), BuildingBlock: CIFDUS_clean_linker_0, # of connection points: 2
#     Edge 50, Type (0, 1), BuildingBlock: CIFDUS_clean_linker_0, # of connection points: 2
#     Edge 51, Type (0, 1), BuildingBlock: CIFDUS_clean_linker_0, # of connection points: 2
#     Edge 52, Type (0, 1), BuildingBlock: CIFDUS_clean_linker_0, # of connection points: 2
#     Edge 53, Type (0, 1), BuildingBlock: CIFDUS_clean_linker_0, # of connection points: 2
#     Edge 54, Type (0, 1), BuildingBlock: CIFDUS_clean_linker_0, # of connection points: 2
#     Edge 55, Type (0, 1), BuildingBlock: CIFDUS_clean_linker_0, # of connection points: 2
#     Edge 56, Type (0, 1), BuildingBlock: CIFDUS_clean_linker_0, # of connection points: 2
#     Edge 57, Type (0, 1), BuildingBlock: CIFDUS_clean_linker_0, # of connection points: 2
#     Edge 58, Type (0, 1), BuildingBlock: CIFDUS_clean_linker_0, # of connection points: 2
#     Edge 59, Type (0, 1), BuildingBlock: CIFDUS_clean_linker_0, # of connection points: 2
#     Edge 60, Type (0, 1), BuildingBlock: CIFDUS_clean_linker_0, # of connection points: 2
#     Edge 61, Type (0, 1), BuildingBlock: CIFDUS_clean_linker_0, # of connection points: 2
#     Edge 62, Type (0, 1), BuildingBlock: CIFDUS_clean_linker_0, # of connection points: 2
#     Edge 63, Type (0, 1), BuildingBlock: CIFDUS_clean_linker_0, # of connection points: 2
#     Edge 64, Type (0, 1), BuildingBlock: CIFDUS_clean_linker_0, # of connection points: 2
#     Edge 65, Type (0, 1), BuildingBlock: CIFDUS_clean_linker_0, # of connection points: 2
#     Edge 66, Type (0, 1), BuildingBlock: CIFDUS_clean_linker_0, # of connection points: 2
#     Edge 67, Type (0, 1), BuildingBlock: CIFDUS_clean_linker_0, # of connection points: 2
#     Edge 68, Type (0, 1), BuildingBlock: CIFDUS_clean_linker_0, # of connection points: 2
#     Edge 69, Type (0, 1), BuildingBlock: CIFDUS_clean_linker_0, # of connection points: 2
#     Edge 70, Type (0, 1), BuildingBlock: CIFDUS_clean_linker_0, # of connection points: 2
#     Edge 71, Type (0, 1), BuildingBlock: CIFDUS_clean_linker_0, # of connection points: 2
#     Edge 72, Type (0, 1), BuildingBlock: CIFDUS_clean_linker_0, # of connection points: 2
#     Edge 73, Type (0, 1), BuildingBlock: CIFDUS_clean_linker_0, # of connection points: 2
#     Edge 74, Type (0, 1), BuildingBlock: CIFDUS_clean_linker_0, # of connection points: 2
#     Edge 75, Type (0, 1), BuildingBlock: CIFDUS_clean_linker_0, # of connection points: 2
# Relax obj value: 0.079
# Max RMSD: 0.211
# Mean RMSD: 0.130
data_MOF--net-ctn--node1-UXUYUI_clean_sbu_0--node2-CUQRIR_clean_linker_1--edge1-CIFDUS_clean_linker_0
_symmetry_space_group_name_H-M    P1
_symmetry_Int_Tables_number       1
_symmetry_cell_setting            triclinic
loop_
_symmetry_equiv_pos_as_xyz
'x, y, z'
_cell_length_a     58.424932
_cell_length_b     54.552043
_cell_length_c     55.936984
_cell_angle_alpha  96.370079
_cell_angle_beta   88.953746
_cell_angle_gamma 92.524906
loop_
_atom_site_label
_atom_site_type_symbol
_atom_site_fract_x
_atom_site_fract_y
_atom_site_fract_z
_atom_type_partial_charge
C0 C 0.05609 0.02942 0.08241 0.0
N1 N 0.06583 0.03717 0.06219 0.0
N2 N 0.03692 0.04183 0.08881 0.0
C3 C 0.06551 0.00999 0.0962 0.0
C4 C 0.03531 0.05738 0.07169 0.0
N5 N 0.05282 0.05458 0.05548 0.0
C6 C 0.01749 0.07649 0.07166 0.0
H7 H 0.0735 0.99527 0.08405 0.0
H8 H 0.0519 1.00137 0.10698 0.0
H9 H 0.07893 0.01875 0.10852 0.0
H10 H 0.02447 0.09305 0.0637 0.0
H11 H 0.01111 0.08217 0.09016 0.0
H12 H 1.00284 0.0685 0.06062 0.0
C13 C 0.28479 0.73053 0.22987 0.0
N14 N 0.29627 0.71841 0.24549 0.0
N15 N 0.29831 0.74865 0.22161 0.0
C16 C 0.26053 0.72412 0.22206 0.0
C17 C 0.31853 0.74704 0.23274 0.0
N18 N 0.3174 0.72857 0.24725 0.0
C19 C 0.33888 0.76458 0.23061 0.0
H20 H 0.2578 0.729 0.20362 0.0
H21 H 0.24871 0.73474 0.2346 0.0
H22 H 0.25614 0.7042 0.22255 0.0
H23 H 0.33348 0.78262 0.22575 0.0
H24 H 0.35056 0.75656 0.21626 0.0
H25 H 0.34843 0.76759 0.24772 0.0
C26 C 0.97828 0.49756 0.07576 0.0
N27 N 0.99263 0.4785 0.07494 0.0
N28 N 0.96351 0.49433 0.0571 0.0
C29 C 0.9799 0.52027 0.09364 0.0
C30 C 0.96937 0.47255 0.04495 0.0
N31 N 0.98706 0.46301 0.05563 0.0
C32 C 0.95767 0.46041 0.02266 0.0
H33 H 0.96905 0.51711 0.10959 0.0
H34 H 0.97371 0.53655 0.08583 0.0
H35 H 0.99779 0.52425 0.09968 0.0
H36 H 0.96726 0.46575 0.00661 0.0
H37 H 0.93978 0.46626 0.02186 0.0
H38 H 0.9575 0.44001 0.02197 0.0
C39 C 0.69517 0.77732 0.22745 0.0
N40 N 0.71517 0.78713 0.21926 0.0
N41 N 0.68907 0.78926 0.24902 0.0
C42 C 0.68245 0.75487 0.21531 0.0
C43 C 0.70623 0.80657 0.25378 0.0
N44 N 0.72227 0.80512 0.23585 0.0
C45 C 0.70622 0.8263 0.27485 0.0
H46 H 0.67053 0.76075 0.20203 0.0
H47 H 0.67234 0.74503 0.22856 0.0
H48 H 0.69451 0.74196 0.20562 0.0
H49 H 0.71626 0.82019 0.28958 0.0
H50 H 0.68855 0.82971 0.28162 0.0
H51 H 0.71425 0.84386 0.26985 0.0
C52 C 0.0358 0.96664 0.48037 0.0
N53 N 0.05481 0.9704 0.4941 0.0
N54 N 0.03681 0.98096 0.4621 0.0
C55 C 0.01587 0.94939 0.48519 0.0
C56 C 0.05713 0.99374 0.4652 0.0
N57 N 0.06809 0.98762 0.48485 0.0
C58 C 0.06589 0.01283 0.4494 0.0
H59 H 1.006 0.94376 0.46858 0.0
H60 H 1.00435 0.95898 0.49881 0.0
H61 H 0.02185 0.93272 0.49249 0.0
H62 H 0.05962 0.0311 0.45669 0.0
H63 H 0.05956 0.00859 0.43079 0.0
H64 H 0.0849 0.01398 0.44889 0.0
C65 C 0.21343 0.74373 0.8033 0.0
N66 N 0.23004 0.73262 0.81413 0.0
N67 N 0.20633 0.72969 0.78313 0.0
C68 C 0.20412 0.76838 0.81243 0.0
C69 C 0.21917 0.70948 0.78213 0.0
N70 N 0.23363 0.71118 0.80108 0.0
C71 C 0.21877 0.68911 0.76168 0.0
H72 H 0.20444 0.77152 0.83235 0.0
H73 H 0.18631 0.7698 0.80632 0.0
H74 H 0.21502 0.78314 0.80528 0.0
H75 H 0.21212 0.69552 0.74509 0.0
H76 H 0.20736 0.67365 0.76668 0.0
H77 H 0.23618 0.68212 0.75799 0.0
C78 C 0.96565 0.53769 0.45756 0.0
N79 N 0.98177 0.55649 0.46044 0.0
N80 N 0.95025 0.5393 0.47604 0.0
C81 C 0.966 0.51651 0.43788 0.0
C82 C 0.95764 0.55963 0.49038 0.0
N83 N 0.97692 0.5699 0.48112 0.0
C84 C 0.94509 0.57049 0.51255 0.0
H85 H 0.95691 0.52162 0.42204 0.0
H86 H 0.95724 0.49971 0.4438 0.0
H87 H 0.98385 0.51224 0.43235 0.0
H88 H 0.95223 0.56333 0.52853 0.0
H89 H 0.92653 0.56532 0.51167 0.0
H90 H 0.94731 0.59091 0.51489 0.0
C91 C 0.79209 0.80644 0.82573 0.0
N92 N 0.8104 0.79191 0.82217 0.0
N93 N 0.79183 0.82276 0.80917 0.0
C94 C 0.77441 0.80455 0.84542 0.0
C95 C 0.81074 0.8178 0.79546 0.0
N96 N 0.82209 0.79904 0.80323 0.0
C97 C 0.81878 0.83209 0.77514 0.0
H98 H 0.76346 0.82075 0.84773 0.0
H99 H 0.78294 0.80263 0.86264 0.0
H100 H 0.76327 0.78775 0.84088 0.0
H101 H 0.81084 0.85028 0.77618 0.0
H102 H 0.81401 0.8213 0.75783 0.0
H103 H 0.83771 0.83492 0.77528 0.0
C104 C 0.29004 0.30302 0.31925 0.0
N105 N 0.30815 0.28805 0.31708 0.0
N106 N 0.29036 0.31801 0.30144 0.0
C107 C 0.27103 0.30167 0.33765 0.0
C108 C 0.30932 0.31162 0.28831 0.0
N109 N 0.32011 0.2934 0.29765 0.0
C110 C 0.31732 0.32318 0.26623 0.0
H111 H 0.25487 0.30837 0.33113 0.0
H112 H 0.27606 0.31346 0.35433 0.0
H113 H 0.26796 0.28248 0.34213 0.0
H114 H 0.31081 0.34198 0.26628 0.0
H115 H 0.31085 0.31151 0.25005 0.0
H116 H 0.33629 0.32429 0.26495 0.0
C117 C 0.4722 0.99457 0.5799 0.0
N118 N 0.48759 0.97643 0.57719 0.0
N119 N 0.45716 0.99208 0.56149 0.0
C120 C 0.47291 0.01587 0.59946 0.0
C121 C 0.46397 0.9718 0.54743 0.0
N122 N 0.4825 0.9624 0.55679 0.0
C123 C 0.45205 0.9607 0.5249 0.0
H124 H 0.46512 0.03228 0.59343 0.0
H125 H 0.4908 0.02086 0.60503 0.0
H126 H 0.46306 0.01044 0.61533 0.0
H127 H 0.4598 0.96909 0.50931 0.0
H128 H 0.43352 0.96445 0.52584 0.0
H129 H 0.45405 0.94047 0.52177 0.0
C130 C 0.19791 0.27809 0.73093 0.0
N131 N 0.21733 0.28816 0.72164 0.0
N132 N 0.19061 0.29237 0.75074 0.0
C133 C 0.18497 0.25545 0.71952 0.0
C134 C 0.20622 0.31157 0.75312 0.0
N135 N 0.22231 0.30923 0.73529 0.0
C136 C 0.20673 0.33155 0.77398 0.0
H137 H 0.18701 0.25368 0.69965 0.0
H138 H 0.16646 0.25598 0.72423 0.0
H139 H 0.19189 0.23888 0.72617 0.0
H140 H 0.19796 0.32509 0.79004 0.0
H141 H 0.19776 0.34768 0.76891 0.0
H142 H 0.22462 0.33761 0.77869 0.0
C143 C 0.79304 0.22497 0.72164 0.0
N144 N 0.80141 0.21406 0.74014 0.0
N145 N 0.80616 0.24514 0.71744 0.0
C146 C 0.77214 0.21571 0.70744 0.0
C147 C 0.82284 0.24623 0.73411 0.0
N148 N 0.81979 0.22757 0.7483 0.0
C149 C 0.84252 0.26509 0.73597 0.0
H150 H 0.77707 0.20078 0.69344 0.0
H151 H 0.76471 0.23049 0.69835 0.0
H152 H 0.75889 0.208 0.71931 0.0
H153 H 0.84558 0.27323 0.71885 0.0
H154 H 0.85843 0.2567 0.74108 0.0
H155 H 0.83842 0.28025 0.75007 0.0
C156 C 0.54992 0.52783 0.57717 0.0
N157 N 0.56169 0.53717 0.55883 0.0
N158 N 0.53062 0.54032 0.5827 0.0
C159 C 0.55709 0.50605 0.58916 0.0
C160 C 0.53112 0.55764 0.56712 0.0
N161 N 0.54998 0.55585 0.55267 0.0
C162 C 0.51334 0.57667 0.56631 0.0
H163 H 0.54699 0.50353 0.60571 0.0
H164 H 0.57558 0.50825 0.59354 0.0
H165 H 0.55466 0.48904 0.5765 0.0
H166 H 0.50486 0.58073 0.58413 0.0
H167 H 0.50013 0.5694 0.55306 0.0
H168 H 0.52107 0.59404 0.56054 0.0
C169 C 0.53737 0.47028 0.98477 0.0
N170 N 0.55633 0.47226 0.99871 0.0
N171 N 0.5378 0.48814 0.96975 0.0
C172 C 0.5175 0.45212 0.9871 0.0
C173 C 0.55764 0.50121 0.97508 0.0
N174 N 0.56892 0.4917 0.9927 0.0
C175 C 0.56591 0.52346 0.96318 0.0
H176 H 0.52108 0.43457 0.97594 0.0
H177 H 0.5014 0.45915 0.98078 0.0
H178 H 0.51506 0.44821 0.00605 0.0
H179 H 0.56091 0.54035 0.97463 0.0
H180 H 0.55821 0.52341 0.94519 0.0
H181 H 0.58483 0.52425 0.9612 0.0
C182 C 0.70298 0.23579 0.31368 0.0
N183 N 0.72187 0.22653 0.32235 0.0
N184 N 0.69555 0.22161 0.29373 0.0
C185 C 0.69183 0.2588 0.32464 0.0
C186 C 0.71062 0.2033 0.29056 0.0
N187 N 0.72664 0.2062 0.30805 0.0
C188 C 0.70946 0.18232 0.27073 0.0
H189 H 0.6796 0.25383 0.33892 0.0
H190 H 0.68224 0.26733 0.31099 0.0
H191 H 0.70477 0.27244 0.33302 0.0
H192 H 0.69947 0.18696 0.2553 0.0
H193 H 0.70095 0.16596 0.27778 0.0
H194 H 0.72697 0.17734 0.26452 0.0
C195 C 0.46989 0.03523 0.95835 0.0
N196 N 0.48554 0.05447 0.96095 0.0
N197 N 0.45259 0.03867 0.97465 0.0
C198 C 0.47117 0.01337 0.93952 0.0
C199 C 0.45803 0.06078 0.98708 0.0
N200 N 0.47787 0.07062 0.97857 0.0
C201 C 0.44396 0.07275 0.00762 0.0
H202 H 0.4777 0.01932 0.92222 0.0
H203 H 0.45426 1.00356 0.93666 0.0
H204 H 0.48328 1.00025 0.94548 0.0
H205 H 0.43233 0.05918 0.0156 0.0
H206 H 0.43335 0.08681 1.00084 0.0
H207 H 0.45526 0.08219 0.02183 0.0
Li208 Li 0.27983 0.90545 0.02459 0.0
Li209 Li 0.26101 0.87502 0.04961 0.0
Li210 Li 0.25527 0.87051 0.00689 0.0
Li211 Li 0.23598 0.90344 0.03204 0.0
C212 C 0.29495 0.85069 0.01153 0.0
N213 N 0.31433 0.81119 0.98462 0.0
C214 C 0.29201 0.82698 0.01863 0.0
C215 C 0.30788 0.85438 0.99087 0.0
C216 C 0.30193 0.80723 1.00476 0.0
C217 C 0.31749 0.83414 0.97747 0.0
C218 C 0.26475 0.91498 0.07945 0.0
C219 C 0.24992 0.91387 0.11982 0.0
N220 N 0.27155 0.91788 0.12841 0.0
C221 C 0.28683 0.91917 0.08863 0.0
C222 C 0.24611 0.91238 0.0951 0.0
C223 C 0.28991 0.92056 0.11347 0.0
C224 C 0.3053 0.94888 0.01321 0.0
N225 N 0.30668 0.92599 0.02041 0.0
C226 C 0.34761 0.9301 0.02058 0.0
C227 C 0.32726 0.91651 0.02423 0.0
C228 C 0.34684 0.9537 0.01284 0.0
C229 C 0.32528 0.96308 0.00918 0.0
H230 H 0.2887 0.95599 0.01032 0.0
H231 H 0.32785 0.89823 0.02991 0.0
C232 C 0.25044 0.846 0.08923 0.0
N233 N 0.26723 0.8575 0.07686 0.0
C234 C 0.25605 0.83203 0.10776 0.0
C235 C 0.29602 0.84241 0.10075 0.0
C236 C 0.28966 0.85611 0.08243 0.0
C237 C 0.27917 0.82977 0.11354 0.0
H238 H 0.23272 0.84728 0.08442 0.0
H239 H 0.3027 0.86541 0.07233 0.0
C240 C 0.25532 0.91375 0.97949 0.0
N241 N 0.25773 0.93047 0.9346 0.0
C242 C 0.23553 0.92087 0.96889 0.0
C243 C 0.27636 0.91534 0.96732 0.0
C244 C 0.2371 0.9292 0.94615 0.0
C245 C 0.27722 0.92378 0.94463 0.0
C246 C 0.21082 0.859 0.02316 0.0
C247 C 0.20397 0.86722 1.00172 0.0
C248 C 0.19633 0.84283 0.0347 0.0
C249 C 0.18263 0.85925 0.99224 0.0
C250 C 0.17511 0.83528 0.02466 0.0
N251 N 0.16875 0.84358 1.00381 0.0
C252 C 0.24583 0.82226 0.98376 0.0
C253 C 0.25612 0.85103 0.95636 0.0
C254 C 0.24364 0.8032 0.96489 0.0
N255 N 0.25201 0.84567 0.97926 0.0
C256 C 0.25391 0.83264 0.93697 0.0
C257 C 0.24762 0.80824 0.941 0.0
H258 H 0.24277 0.81832 1.0021 0.0
H259 H 0.26107 0.86953 0.95294 0.0
C260 C 0.21084 0.94614 0.02655 0.0
N261 N 0.20932 0.92366 0.03504 0.0
C262 C 0.19156 0.96062 0.02666 0.0
C263 C 0.16953 0.92878 0.04459 0.0
C264 C 0.18926 0.91506 0.04438 0.0
C265 C 0.1704 0.95181 0.0354 0.0
H266 H 0.22697 0.95265 0.01923 0.0
H267 H 0.18843 0.89736 0.05139 0.0
O268 O 0.28486 0.87014 0.02449 0.0
O269 O 0.26147 0.91272 0.05519 0.0
O270 O 0.25418 0.90599 1.00194 0.0
O271 O 0.23163 0.86655 0.03285 0.0
H272 H 0.28194 0.82382 0.03452 0.0
H273 H 0.3103 0.87263 0.98515 0.0
H274 H 0.29969 0.78875 0.00994 0.0
H275 H 0.32742 0.83668 0.96135 0.0
H276 H 0.23568 0.91176 0.13216 0.0
H277 H 0.30143 0.92107 0.07668 0.0
H278 H 0.22894 0.90896 0.08818 0.0
H279 H 0.30691 0.92367 0.12085 0.0
H280 H 0.36381 0.92201 0.02338 0.0
H281 H 0.32385 0.98128 1.0035 0.0
H282 H 0.24246 0.82248 0.11691 0.0
H283 H 0.31401 0.84165 0.10475 0.0
H284 H 0.21912 0.92002 0.9781 0.0
H285 H 0.29183 0.9098 0.97514 0.0
H286 H 0.22191 0.93471 0.93772 0.0
H287 H 0.29337 0.92497 0.93497 0.0
H288 H 0.21502 0.87954 0.99245 0.0
H289 H 0.20142 0.83624 0.05128 0.0
H290 H 0.17711 0.8655 0.97566 0.0
H291 H 0.16369 0.82281 0.03343 0.0
H292 H 0.23902 0.7847 0.96906 0.0
H293 H 0.25672 0.8377 0.91894 0.0
H294 H 0.19305 0.9782 0.01934 0.0
H295 H 0.15372 0.92142 0.05193 0.0
Li296 Li 0.12957 0.52112 0.29375 0.0
Li297 Li 0.15702 0.49147 0.27733 0.0
Li298 Li 0.16174 0.53689 0.26966 0.0
Li299 Li 0.12994 0.50737 0.2504 0.0
C300 C 0.16552 0.53087 0.32385 0.0
N301 N 0.17068 0.54951 0.37152 0.0
C302 C 0.15775 0.51695 0.34214 0.0
C303 C 0.17596 0.55425 0.3298 0.0
C304 C 0.16048 0.52671 0.36613 0.0
C305 C 0.17841 0.56335 0.35401 0.0
C306 C 0.12065 0.46379 0.2828 0.0
C307 C 0.12213 0.42002 0.27084 0.0
N308 N 0.11726 0.41565 0.2939 0.0
C309 C 0.11563 0.45887 0.30637 0.0
C310 C 0.12387 0.44423 0.26486 0.0
C311 C 0.11398 0.4344 0.31162 0.0
C312 C 0.08732 0.51751 0.31834 0.0
N313 N 0.10786 0.53028 0.31997 0.0
C314 C 0.0946 0.55512 0.35529 0.0
C315 C 0.11166 0.54901 0.33792 0.0
C316 C 0.0732 0.54227 0.35388 0.0
C317 C 0.06977 0.52318 0.33509 0.0
H318 H 0.08439 0.50311 0.30369 0.0
H319 H 0.12767 0.55968 0.3385 0.0
C320 C 0.18973 0.45408 0.2655 0.0
N321 N 0.17523 0.4637 0.28307 0.0
C322 C 0.20424 0.43526 0.26973 0.0
C323 C 0.18853 0.43627 0.30999 0.0
C324 C 0.17437 0.45505 0.30498 0.0
C325 C 0.204 0.42625 0.29237 0.0
H326 H 0.19045 0.46141 0.24831 0.0
H327 H 0.16289 0.4629 0.31878 0.0
C328 C 0.11036 0.55608 0.27363 0.0
N329 N 0.07329 0.58303 0.29044 0.0
C330 C 0.08819 0.54811 0.26658 0.0
C331 C 0.11369 0.57778 0.28919 0.0
C332 C 0.06967 0.56199 0.27528 0.0
C333 C 0.09473 0.59114 0.29749 0.0
C334 C 0.16683 0.50208 0.22214 0.0
C335 C 0.17358 0.5218 0.2093 0.0
C336 C 0.1623 0.4787 0.20983 0.0
C337 C 0.17562 0.5178 0.18426 0.0
C338 C 0.16449 0.47546 0.18478 0.0
N339 N 0.17105 0.49491 0.17262 0.0
C340 C 0.20678 0.55572 0.26218 0.0
C341 C 0.17977 0.58704 0.26719 0.0
C342 C 0.22467 0.57327 0.25977 0.0
N343 N 0.18482 0.5628 0.26574 0.0
C344 C 0.1972 0.60526 0.26516 0.0
C345 C 0.22005 0.59848 0.26131 0.0
H346 H 0.2104 0.53636 0.26123 0.0
H347 H 0.16222 0.5923 0.26988 0.0
C348 C 0.09316 0.48172 0.22445 0.0
N349 N 0.11016 0.49929 0.22252 0.0
C350 C 0.07701 0.47619 0.20625 0.0
C351 C 0.09618 0.50655 0.18385 0.0
C352 C 0.11191 0.51168 0.20266 0.0
C353 C 0.07814 0.48885 0.18565 0.0
H354 H 0.09169 0.4724 0.24051 0.0
H355 H 0.12515 0.52602 0.20164 0.0
O356 O 0.16316 0.52163 0.30025 0.0
O357 O 0.12274 0.48762 0.27737 0.0
O358 O 0.1286 0.54228 0.26593 0.0
O359 O 0.16447 0.50569 0.24663 0.0
H360 H 0.14926 0.49905 0.33788 0.0
H361 H 0.1821 0.56526 0.3159 0.0
H362 H 0.1544 0.51622 0.38046 0.0
H363 H 0.18644 0.58142 0.35888 0.0
H364 H 0.12467 0.40472 0.25716 0.0
H365 H 0.11329 0.47377 0.32053 0.0
H366 H 0.12783 0.44773 0.24655 0.0
H367 H 0.11021 0.43032 0.3298 0.0
H368 H 0.09787 0.57023 0.36923 0.0
H369 H 0.05362 0.51266 0.33332 0.0
H370 H 0.21604 0.42841 0.25566 0.0
H371 H 0.18741 0.42976 0.32758 0.0
H372 H 0.08527 0.53124 0.25474 0.0
H373 H 0.13067 0.58393 0.29526 0.0
H374 H 0.05241 0.55598 0.27006 0.0
H375 H 0.09703 0.60786 0.30969 0.0
H376 H 0.17703 0.54005 0.21853 0.0
H377 H 0.15702 0.46325 0.2195 0.0
H378 H 0.18077 0.5329 0.17407 0.0
H379 H 0.16094 0.45749 0.175 0.0
H380 H 0.242 0.56716 0.25697 0.0
H381 H 0.19276 0.62441 0.26611 0.0
H382 H 0.06353 0.46232 0.20846 0.0
H383 H 0.09758 0.51706 0.16852 0.0
Li384 Li 0.75508 0.6188 1.00471 0.0
Li385 Li 0.77096 0.65635 0.02916 0.0
Li386 Li 0.78157 0.65023 0.98503 0.0
Li387 Li 0.79643 0.62489 0.01444 0.0
C388 C 0.73438 0.65734 0.98397 0.0
N389 N 0.70266 0.6634 0.94933 0.0
C390 C 0.72034 0.67756 0.9868 0.0
C391 C 0.7323 0.64017 0.96355 0.0
C392 C 0.70439 0.6803 0.96907 0.0
C393 C 0.71616 0.64357 0.94623 0.0
C394 C 0.76353 0.62405 0.05994 0.0
C395 C 0.77269 0.63499 0.10173 0.0
N396 N 0.75022 0.63142 0.10774 0.0
C397 C 0.74056 0.62031 0.06653 0.0
C398 C 0.77977 0.63129 0.07766 0.0
C399 C 0.73417 0.62418 0.0908 0.0
C400 C 0.7314 0.57129 0.99551 0.0
N401 N 0.72832 0.5958 1.00145 0.0
C402 C 0.68771 0.58772 1.00547 0.0
C403 C 0.70694 0.60418 0.00643 0.0
C404 C 0.69035 0.56224 0.99935 0.0
C405 C 0.71269 0.55421 0.99435 0.0
H406 H 0.74845 0.56487 0.9919 0.0
H407 H 0.70479 0.62368 0.0114 0.0
C408 C 0.7788 0.69572 0.06769 0.0
N409 N 0.76277 0.68064 0.05545 0.0
C410 C 0.77234 0.71258 0.08716 0.0
C411 C 0.73301 0.69824 0.08095 0.0
C412 C 0.7402 0.68177 0.06161 0.0
C413 C 0.74913 0.71405 0.09408 0.0
H414 H 0.79662 0.69472 0.06237 0.0
H415 H 0.72776 0.66959 0.05163 0.0
C416 C 0.79938 0.59883 0.97239 0.0
N417 N 0.83479 0.56992 0.95435 0.0
C418 C 0.81644 0.60845 0.95779 0.0
C419 C 0.80043 0.57453 0.97792 0.0
C420 C 0.83415 0.59352 0.94878 0.0
C421 C 0.81845 0.56022 0.96862 0.0
C422 C 0.82416 0.66568 0.01616 0.0
C423 C 0.83823 0.67002 0.99645 0.0
C424 C 0.83381 0.6658 0.03886 0.0
C425 C 0.86176 0.67434 0.99979 0.0
C426 C 0.85743 0.67014 0.04144 0.0
N427 N 0.8708 0.67428 0.02202 0.0
C428 C 0.79353 0.69203 0.95953 0.0
C429 C 0.78355 0.65579 0.93399 0.0
C430 C 0.79741 0.70532 0.93962 0.0
N431 N 0.7868 0.66767 0.95647 0.0
C432 C 0.78717 0.66839 0.91359 0.0
C433 C 0.79415 0.6936 0.91613 0.0
H434 H 0.79585 0.70122 0.97753 0.0
H435 H 0.77814 0.63646 0.93186 0.0
C436 C 0.8183 0.59017 0.03965 0.0
N437 N 0.82249 0.60636 0.0231 0.0
C438 C 0.83577 0.57598 0.04689 0.0
C439 C 0.8618 0.59506 0.01986 0.0
C440 C 0.84373 0.60867 0.01292 0.0
C441 C 0.85806 0.57839 0.03717 0.0
H442 H 0.80123 0.58805 0.04713 0.0
H443 H 0.84675 0.62102 0.9993 0.0
O444 O 0.75013 0.65449 1.00112 0.0
O445 O 0.77004 0.62104 0.03622 0.0
O446 O 0.78217 0.61337 0.98176 0.0
O447 O 0.80105 0.66158 0.01327 0.0
H448 H 0.72177 0.69099 1.00253 0.0
H449 H 0.74302 0.6244 0.96109 0.0
H450 H 0.6934 0.69587 0.97101 0.0
H451 H 0.71437 0.63045 0.93033 0.0
H452 H 0.78504 0.64075 0.11562 0.0
H453 H 0.72778 0.61473 0.05305 0.0
H454 H 0.79762 0.63415 0.07285 0.0
H455 H 0.71643 0.62151 0.09616 0.0
H456 H 0.67091 0.59498 0.00919 0.0
H457 H 0.71581 0.53481 0.98988 0.0
H458 H 0.78538 0.72453 0.09648 0.0
H459 H 0.71497 0.69829 0.08575 0.0
H460 H 0.81624 0.62735 0.95374 0.0
H461 H 0.78778 0.56695 0.98969 0.0
H462 H 0.84747 0.60077 0.93751 0.0
H463 H 0.81954 0.54145 0.97288 0.0
H464 H 0.83113 0.6698 0.97872 0.0
H465 H 0.82323 0.66234 0.05428 0.0
H466 H 0.87286 0.67763 0.98468 0.0
H467 H 0.86513 0.67015 0.05888 0.0
H468 H 0.80237 0.72476 0.94266 0.0
H469 H 0.78459 0.65838 0.89596 0.0
H470 H 0.83167 0.56298 0.05977 0.0
H471 H 0.87858 0.59785 0.01185 0.0
Li472 Li 0.8625 0.03124 0.28339 0.0
Li473 Li 0.89459 1.00705 0.29837 0.0
Li474 Li 0.89169 0.01373 0.25561 0.0
Li475 Li 0.86469 0.98553 0.27228 0.0
C476 C 0.90662 0.05863 0.27398 0.0
N477 N 0.92822 0.09668 0.25232 0.0
C478 C 0.93044 0.06217 0.27487 0.0
C479 C 0.89379 0.07447 0.26207 0.0
C480 C 0.94104 0.08149 0.26379 0.0
C481 C 0.90502 0.09361 0.25127 0.0
C482 C 0.85529 0.01434 0.32788 0.0
C483 C 0.83081 0.01654 0.36318 0.0
N484 N 0.84371 0.0363 0.37315 0.0
C485 C 0.86823 0.03476 0.33842 0.0
C486 C 0.83635 1.00523 0.34029 0.0
C487 C 0.86213 0.04555 0.36134 0.0
C488 C 0.81935 0.05244 0.28465 0.0
N489 N 0.84137 0.05726 0.29174 0.0
C490 C 0.83193 0.09777 0.30933 0.0
C491 C 0.84786 0.07934 0.30405 0.0
C492 C 0.80905 0.09342 0.302 0.0
C493 C 0.80294 0.07029 0.28947 0.0
H494 H 0.81459 0.03473 0.27495 0.0
H495 H 0.86543 0.08269 0.30972 0.0
C496 C 0.93873 1.00709 0.31751 0.0
N497 N 0.91629 1.00314 0.32334 0.0
C498 C 0.95594 1.00354 0.33368 0.0
C499 C 0.92677 0.99152 0.36169 0.0
C500 C 0.91007 0.99532 0.34492 0.0
C501 C 0.95015 0.9955 0.35614 0.0
H502 H 0.94332 0.01258 0.30002 0.0
H503 H 0.8922 0.9915 0.34899 0.0
C504 C 0.85434 0.01534 0.22838 0.0
N505 N 0.84785 0.02318 0.18105 0.0
C506 C 0.8617 0.99821 0.20968 0.0
C507 C 0.8437 0.03649 0.22299 0.0
C508 C 0.85827 1.00251 0.18587 0.0
C509 C 0.84056 0.0401 0.19895 0.0
C510 C 0.90012 0.95833 0.26629 0.0
C511 C 0.90208 0.94599 0.24313 0.0
C512 C 0.89895 0.94488 0.28616 0.0
C513 C 0.90274 0.92027 0.24023 0.0
C514 C 0.89965 0.91917 0.2825 0.0
N515 N 0.9015 0.9075 0.2598 0.0
C516 C 0.93052 1.00652 0.22505 0.0
C517 C 0.90615 0.03615 0.2127 0.0
C518 C 0.94548 0.00958 0.20568 0.0
N519 N 0.91112 0.01951 0.22808 0.0
C520 C 0.92043 0.0395 0.19289 0.0
C521 C 0.94036 0.02605 0.18913 0.0
H522 H 0.93438 0.99371 0.2377 0.0
H523 H 0.89106 0.04685 0.21567 0.0
C524 C 0.84347 0.94282 0.2444 0.0
N525 N 0.84639 0.95485 0.26687 0.0
C526 C 0.83002 0.92083 0.2409 0.0
C527 C 0.82273 0.92392 0.28369 0.0
C528 C 0.83645 0.94572 0.28637 0.0
C529 C 0.81928 0.91106 0.26069 0.0
H530 H 0.85165 0.95012 0.22913 0.0
H531 H 0.83911 0.95543 0.30407 0.0
O532 O 0.89593 0.0395 0.28427 0.0
O533 O 0.86063 1.00376 0.30524 0.0
O534 O 0.85747 0.01146 0.25182 0.0
O535 O 0.89873 0.98342 0.26947 0.0
H536 H 0.94067 0.0501 0.28392 0.0
H537 H 0.8754 0.07173 0.26074 0.0
H538 H 0.95947 0.08439 0.26429 0.0
H539 H 0.8953 0.1059 0.24188 0.0
H540 H 0.81622 0.00966 0.373 0.0
H541 H 0.88284 0.04222 0.32908 0.0
H542 H 0.82596 0.98966 0.3323 0.0
H543 H 0.87202 0.06132 0.36972 0.0
H544 H 0.83745 0.11513 0.31928 0.0
H545 H 0.78569 0.06608 0.28305 0.0
H546 H 0.97365 1.00706 0.32857 0.0
H547 H 0.92143 0.98488 0.37854 0.0
H548 H 0.87057 0.98214 0.21347 0.0
H549 H 0.83807 0.05006 0.23719 0.0
H550 H 0.86405 0.9895 0.17124 0.0
H551 H 0.83239 0.0564 0.19453 0.0
H552 H 0.90287 0.95617 0.22757 0.0
H553 H 0.89723 0.95418 0.30418 0.0
H554 H 0.90416 0.91044 0.22241 0.0
H555 H 0.89863 0.90849 0.29769 0.0
H556 H 0.96068 0.99883 0.20341 0.0
H557 H 0.91604 0.05267 0.18075 0.0
H558 H 0.82828 0.9115 0.22287 0.0
H559 H 0.81462 0.9175 0.29953 0.0
Li560 Li 0.2717 0.15755 0.52999 0.0
Li561 Li 0.24976 0.12431 0.50446 0.0
Li562 Li 0.29443 0.12329 0.51146 0.0
Li563 Li 0.27755 0.15424 0.48777 0.0
C564 C 0.26422 0.12113 0.55844 0.0
N565 N 0.25681 0.12175 0.60744 0.0
C566 C 0.24282 0.12694 0.56854 0.0
C567 C 0.28184 0.11555 0.57326 0.0
C568 C 0.23942 0.12721 0.59335 0.0
C569 C 0.27775 0.11595 0.59799 0.0
C570 C 0.23729 0.17461 0.49098 0.0
C571 C 0.21042 0.17813 0.45945 0.0
N572 N 0.21613 0.20266 0.46036 0.0
C573 C 0.24278 0.19987 0.49173 0.0
C574 C 0.22093 0.16362 0.4748 0.0
C575 C 0.23194 0.21373 0.47604 0.0
C576 C 0.28274 0.17774 0.57842 0.0
N577 N 0.26847 0.17954 0.55978 0.0
C578 C 0.24724 0.20998 0.58409 0.0
C579 C 0.25111 0.19553 0.56215 0.0
C580 C 0.26121 0.20777 0.60387 0.0
C581 C 0.27937 0.19162 0.60065 0.0
H582 H 0.29643 0.165 0.57629 0.0
H583 H 0.23984 0.19659 0.54721 0.0
C584 C 0.21945 0.08106 0.49082 0.0
N585 N 0.22116 0.10431 0.50256 0.0
C586 C 0.19863 0.06705 0.49089 0.0
C587 C 0.18189 0.1009 0.51553 0.0
C588 C 0.20282 0.11431 0.51468 0.0
C589 C 0.17931 0.0769 0.50336 0.0
H590 H 0.23425 0.07334 0.48136 0.0
H591 H 0.20449 0.13279 0.5239 0.0
C592 C 0.31357 0.17658 0.52716 0.0
N593 N 0.33707 0.21211 0.55745 0.0
C594 C 0.3084 0.20143 0.52776 0.0
C595 C 0.33079 0.16982 0.54185 0.0
C596 C 0.32044 0.2191 0.54324 0.0
C597 C 0.34246 0.18806 0.55706 0.0
C598 C 0.27887 0.11388 0.45667 0.0
C599 C 0.30092 0.11615 0.44686 0.0
C600 C 0.26009 0.10913 0.44149 0.0
C601 C 0.30381 0.11381 0.42187 0.0
C602 C 0.26371 0.10685 0.4166 0.0
N603 N 0.28531 0.10926 0.40739 0.0
C604 C 0.31651 0.08129 0.52579 0.0
C605 C 0.34075 0.1093 0.50666 0.0
C606 C 0.33511 0.06684 0.5295 0.0
N607 N 0.31966 0.10225 0.51481 0.0
C608 C 0.35979 0.09536 0.50988 0.0
C609 C 0.35721 0.07385 0.52161 0.0
H610 H 0.29955 0.07592 0.53195 0.0
H611 H 0.34285 0.12605 0.498 0.0
C612 C 0.27164 0.17267 0.44027 0.0
N613 N 0.28498 0.17323 0.46012 0.0
C614 C 0.27751 0.18752 0.42186 0.0
C615 C 0.31095 0.20297 0.44421 0.0
C616 C 0.30461 0.18768 0.46196 0.0
C617 C 0.29722 0.20335 0.42389 0.0
H618 H 0.2562 0.161 0.43879 0.0
H619 H 0.31539 0.1876 0.47741 0.0
O620 O 0.26802 0.12126 0.53423 0.0
O621 O 0.24787 0.1607 0.50601 0.0
O622 O 0.30181 0.15899 0.51227 0.0
O623 O 0.27565 0.11658 0.48105 0.0
H624 H 0.2291 0.1316 0.55741 0.0
H625 H 0.29863 0.11141 0.56585 0.0
H626 H 0.22299 0.13186 0.60142 0.0
H627 H 0.29127 0.11181 0.60968 0.0
H628 H 0.19781 0.16986 0.44675 0.0
H629 H 0.25534 0.20866 0.50422 0.0
H630 H 0.21656 0.14407 0.47391 0.0
H631 H 0.23611 0.23327 0.47632 0.0
H632 H 0.2329 0.222 0.58582 0.0
H633 H 0.2907 0.18945 0.61531 0.0
H634 H 0.19764 0.04887 0.48093 0.0
H635 H 0.16791 0.10936 0.52586 0.0
H636 H 0.29512 0.20696 0.51651 0.0
H637 H 0.33488 0.15068 0.54179 0.0
H638 H 0.31653 0.23837 0.54398 0.0
H639 H 0.35574 0.18308 0.56863 0.0
H640 H 0.3156 0.11992 0.45844 0.0
H641 H 0.24291 0.10745 0.44887 0.0
H642 H 0.32076 0.11567 0.414 0.0
H643 H 0.24934 0.10328 0.4046 0.0
H644 H 0.33218 0.05024 0.53828 0.0
H645 H 0.37646 0.10168 0.50368 0.0
H646 H 0.26631 0.18725 0.40661 0.0
H647 H 0.32646 0.21457 0.44646 0.0
Li648 Li 0.39571 0.50751 0.80421 0.0
Li649 Li 0.36728 0.53353 0.78772 0.0
Li650 Li 0.36665 0.48726 0.77522 0.0
Li651 Li 0.39714 0.5154 0.76063 0.0
C652 C 0.35571 0.49804 0.82971 0.0
N653 N 0.34359 0.48267 0.87383 0.0
C654 C 0.35087 0.51538 0.84928 0.0
C655 C 0.3541 0.47289 0.83252 0.0
C656 C 0.34485 0.50724 0.87145 0.0
C657 C 0.34803 0.46549 0.85498 0.0
C658 C 0.40291 0.56295 0.80171 0.0
C659 C 0.4105 0.60674 0.80136 0.0
N660 N 0.40509 0.61029 0.82522 0.0
C661 C 0.39738 0.56705 0.82618 0.0
C662 C 0.40947 0.58296 0.78914 0.0
C663 C 0.3986 0.59111 0.83776 0.0
C664 C 0.43591 0.49154 0.82337 0.0
N665 N 0.41595 0.50233 0.83037 0.0
C666 C 0.4272 0.5052 0.87171 0.0
C667 C 0.41146 0.50931 0.85408 0.0
C668 C 0.44775 0.49367 0.86496 0.0
C669 C 0.45197 0.48685 0.84037 0.0
H670 H 0.43946 0.4866 0.80445 0.0
H671 H 0.39582 0.51824 0.85947 0.0
C672 C 0.32801 0.55725 0.80809 0.0
N673 N 0.34694 0.56076 0.79416 0.0
C674 C 0.31182 0.57548 0.81209 0.0
C675 C 0.33465 0.60072 0.78715 0.0
C676 C 0.35046 0.58202 0.78371 0.0
C677 C 0.31481 0.59755 0.80133 0.0
H678 H 0.32514 0.53999 0.81568 0.0
H679 H 0.36522 0.58427 0.77216 0.0
C680 C 0.40567 0.45962 0.77218 0.0
N681 N 0.41628 0.41045 0.76712 0.0
C682 C 0.41421 0.44863 0.75026 0.0
C683 C 0.40281 0.44569 0.79161 0.0
C684 C 0.41939 0.42372 0.74803 0.0
C685 C 0.4082 0.42084 0.78868 0.0
C686 C 0.362 0.51894 0.73169 0.0
C687 C 0.35403 0.49999 0.71461 0.0
C688 C 0.36885 0.5419 0.7245 0.0
C689 C 0.35317 0.50432 0.6905 0.0
C690 C 0.36778 0.54547 0.7002 0.0
N691 N 0.36003 0.52677 0.68385 0.0
C692 C 0.3248 0.46054 0.77725 0.0
C693 C 0.35095 0.43997 0.75 0.0
C694 C 0.30777 0.44225 0.77115 0.0
N695 N 0.34591 0.45919 0.76667 0.0
C696 C 0.33438 0.42113 0.74341 0.0
C697 C 0.3123 0.4223 0.7538 0.0
H698 H 0.32107 0.47613 0.7902 0.0
H699 H 0.36758 0.43954 0.74127 0.0
C700 C 0.43556 0.5372 0.73835 0.0
N701 N 0.41812 0.52001 0.73432 0.0
C702 C 0.45184 0.54086 0.72033 0.0
C703 C 0.43225 0.50869 0.69429 0.0
C704 C 0.41625 0.50575 0.71282 0.0
C705 C 0.45049 0.52638 0.69792 0.0
H706 H 0.43709 0.54786 0.75575 0.0
H707 H 0.40256 0.49179 0.71017 0.0
O708 O 0.36148 0.50566 0.80781 0.0
O709 O 0.40137 0.53954 0.79004 0.0
O710 O 0.40046 0.48398 0.77466 0.0
O711 O 0.36326 0.51495 0.75531 0.0
H712 H 0.35207 0.53494 0.84748 0.0
H713 H 0.35733 0.45919 0.81748 0.0
H714 H 0.34123 0.52047 0.88679 0.0
H715 H 0.34678 0.44607 0.85741 0.0
H716 H 0.41547 0.6224 0.79185 0.0
H717 H 0.39191 0.55186 0.83605 0.0
H718 H 0.41333 0.58025 0.77008 0.0
H719 H 0.39431 0.59453 0.85669 0.0
H720 H 0.42317 0.51071 0.89046 0.0
H721 H 0.46772 0.4783 0.83425 0.0
H722 H 0.29697 0.57214 0.82332 0.0
H723 H 0.33756 0.61711 0.77804 0.0
H724 H 0.41668 0.45919 0.73508 0.0
H725 H 0.3967 0.45404 0.80884 0.0
H726 H 0.42589 0.41493 0.73112 0.0
H727 H 0.40603 0.40983 0.80356 0.0
H728 H 0.34867 0.48212 0.71991 0.0
H729 H 0.37532 0.55663 0.73747 0.0
H730 H 0.34711 0.48981 0.67705 0.0
H731 H 0.37319 0.56309 0.69434 0.0
H732 H 0.29112 0.44382 0.77989 0.0
H733 H 0.33856 0.40627 0.72976 0.0
H734 H 0.46536 0.55492 0.72399 0.0
H735 H 0.43066 0.49676 0.67755 0.0
Li736 Li 0.77742 0.4056 0.52654 0.0
Li737 Li 0.75967 0.37623 0.55255 0.0
Li738 Li 0.75352 0.37193 0.50862 0.0
Li739 Li 0.73518 0.407 0.53179 0.0
C740 C 0.79987 0.36196 0.51135 0.0
N741 N 0.83529 0.34606 0.48093 0.0
C742 C 0.81527 0.34537 0.51849 0.0
C743 C 0.80248 0.37046 0.48876 0.0
C744 C 0.83307 0.33755 0.50285 0.0
C745 C 0.82049 0.3622 0.47363 0.0
C746 C 0.77375 0.43167 0.56802 0.0
C747 C 0.78627 0.47456 0.57435 0.0
N748 N 0.80408 0.46843 0.58753 0.0
C749 C 0.79211 0.42577 0.58168 0.0
C750 C 0.77072 0.45623 0.56435 0.0
C751 C 0.80728 0.44464 0.59138 0.0
C752 C 0.80337 0.44686 0.5116 0.0
N753 N 0.80475 0.42586 0.52243 0.0
C754 C 0.84525 0.43296 0.52688 0.0
C755 C 0.82513 0.41882 0.53019 0.0
C756 C 0.84446 0.4546 0.51544 0.0
C757 C 0.8231 0.46151 0.50783 0.0
H758 H 0.78691 0.45225 0.50591 0.0
H759 H 0.82577 0.40216 0.53894 0.0
C760 C 0.77204 0.33557 0.57623 0.0
N761 N 0.76393 0.35869 0.58017 0.0
C762 C 0.77605 0.3221 0.59554 0.0
C763 C 0.76352 0.35652 0.62275 0.0
C764 C 0.75967 0.36931 0.60289 0.0
C765 C 0.77184 0.3325 0.61929 0.0
H766 H 0.77529 0.32751 0.558 0.0
H767 H 0.75346 0.38782 0.60561 0.0
C768 C 0.74682 0.41345 0.48071 0.0
N769 N 0.73251 0.42619 0.43708 0.0
C770 C 0.7235 0.41238 0.47533 0.0
C771 C 0.76285 0.42116 0.46393 0.0
C772 C 0.71661 0.41886 0.45317 0.0
C773 C 0.75527 0.42746 0.44196 0.0
C774 C 0.71586 0.35077 0.52722 0.0
C775 C 0.70031 0.35224 0.5088 0.0
C776 C 0.71726 0.32867 0.53748 0.0
C777 C 0.68671 0.3314 0.50061 0.0
C778 C 0.70335 0.30824 0.52882 0.0
N779 N 0.68852 0.31001 0.51068 0.0
C780 C 0.75189 0.32249 0.48677 0.0
C781 C 0.74782 0.35127 0.45861 0.0
C782 C 0.74954 0.30277 0.46859 0.0
N783 N 0.75051 0.34621 0.48166 0.0
C784 C 0.74581 0.33216 0.43982 0.0
C785 C 0.74641 0.30751 0.44472 0.0
H786 H 0.75473 0.31886 0.50507 0.0
H787 H 0.74721 0.37004 0.45457 0.0
C788 C 0.70992 0.45045 0.5273 0.0
N789 N 0.70863 0.4273 0.53433 0.0
C790 C 0.69025 0.46436 0.52736 0.0
C791 C 0.66836 0.4305 0.54214 0.0
C792 C 0.68839 0.4173 0.54184 0.0
C793 C 0.66896 0.45431 0.53455 0.0
H794 H 0.72614 0.4579 0.52107 0.0
H795 H 0.68773 0.39885 0.54727 0.0
O796 O 0.78236 0.36976 0.52647 0.0
O797 O 0.75922 0.41337 0.55768 0.0
O798 O 0.75396 0.40732 0.50236 0.0
O799 O 0.72967 0.37081 0.53518 0.0
H800 H 0.8135 0.33866 0.53596 0.0
H801 H 0.79071 0.38324 0.48294 0.0
H802 H 0.84513 0.32473 0.50814 0.0
H803 H 0.82269 0.36862 0.45608 0.0
H804 H 0.78423 0.49364 0.57156 0.0
H805 H 0.79479 0.4068 0.58446 0.0
H806 H 0.75667 0.46103 0.55369 0.0
H807 H 0.82165 0.44035 0.60187 0.0
H808 H 0.86132 0.42679 0.5329 0.0
H809 H 0.82158 0.47824 0.49931 0.0
H810 H 0.78209 0.30357 0.59181 0.0
H811 H 0.76031 0.36553 0.64066 0.0
H812 H 0.71083 0.40664 0.48808 0.0
H813 H 0.78097 0.42215 0.46775 0.0
H814 H 0.69862 0.41808 0.44878 0.0
H815 H 0.7675 0.43337 0.42879 0.0
H816 H 0.69885 0.36922 0.5008 0.0
H817 H 0.72907 0.32725 0.55187 0.0
H818 H 0.67473 0.33224 0.48623 0.0
H819 H 0.70436 0.29098 0.53649 0.0
H820 H 0.75031 0.28403 0.4731 0.0
H821 H 0.74328 0.33662 0.42169 0.0
H822 H 0.6916 0.48248 0.52115 0.0
H823 H 0.6525 0.42207 0.54824 0.0
Li824 Li 0.65941 0.99198 0.77157 0.0
Li825 Li 0.63153 0.02069 0.79334 0.0
Li826 Li 0.63041 0.00871 0.74714 0.0
Li827 Li 0.66203 0.03478 0.76631 0.0
C828 C 0.62318 0.96347 0.77721 0.0
N829 N 0.62171 0.91403 0.78384 0.0
C830 C 0.62135 0.9563 0.80041 0.0
C831 C 0.62417 0.94556 0.75737 0.0
C832 C 0.62064 0.93119 0.80338 0.0
C833 C 0.62343 0.92063 0.76111 0.0
C834 C 0.68382 0.0321 0.80669 0.0
C835 C 0.70101 0.06687 0.83133 0.0
N836 N 0.72215 0.05872 0.82484 0.0
C837 C 0.70568 0.02394 0.80039 0.0
C838 C 0.68141 0.05363 0.8224 0.0
C839 C 0.72486 0.0377 0.80972 0.0
C840 C 0.68563 0.95034 0.75513 0.0
N841 N 0.67682 0.96332 0.77508 0.0
C842 C 0.694 0.93667 0.80031 0.0
C843 C 0.68072 0.95688 0.79741 0.0
C844 C 0.70362 0.92298 0.78004 0.0
C845 C 0.69915 0.93013 0.7572 0.0
H846 H 0.68234 0.95583 0.73758 0.0
H847 H 0.67355 0.96753 0.81302 0.0
C848 C 0.59129 0.03577 0.81996 0.0
N849 N 0.61277 0.02757 0.82185 0.0
C850 C 0.57717 0.04001 0.8404 0.0
C851 C 0.60753 0.02734 0.86442 0.0
C852 C 0.62112 0.02353 0.84355 0.0
C853 C 0.58512 0.03551 0.86304 0.0
H854 H 0.585 0.03875 0.80248 0.0
H855 H 0.63826 0.01701 0.8446 0.0
C856 C 0.66832 0.01388 0.71838 0.0
N857 N 0.67676 0.02949 0.67358 0.0
C858 C 0.66005 0.03622 0.71291 0.0
C859 C 0.68094 0.9995 0.70106 0.0
C860 C 0.66449 0.0438 0.69018 0.0
C861 C 0.685 0.0077 0.67851 0.0
C862 C 0.62298 0.06596 0.76969 0.0
C863 C 0.61514 0.07712 0.75023 0.0
C864 C 0.62407 0.07939 0.79245 0.0
C865 C 0.60895 0.10172 0.75379 0.0
C866 C 0.6177 0.10393 0.79529 0.0
N867 N 0.61036 0.11451 0.77606 0.0
C868 C 0.58869 0.0133 0.72353 0.0
C869 C 0.61355 0.98637 0.70073 0.0
C870 C 0.57171 0.00844 0.70609 0.0
N871 N 0.60907 1.00216 0.72073 0.0
C872 C 0.59701 0.98102 0.68274 0.0
C873 C 0.57554 0.99183 0.68542 0.0
H874 H 0.58546 0.02573 0.73956 0.0
H875 H 0.62981 0.97754 0.69892 0.0
C876 C 0.70518 0.05391 0.75152 0.0
N877 N 0.68521 0.06126 0.76239 0.0
C878 C 0.72321 0.07102 0.74827 0.0
C879 C 0.70027 0.10319 0.76791 0.0
C880 C 0.68263 0.0854 0.7708 0.0
C881 C 0.7209 0.09616 0.75629 0.0
H882 H 0.70724 0.03459 0.74554 0.0
H883 H 0.66701 0.09102 0.77987 0.0
O884 O 0.62471 0.98794 0.77397 0.0
O885 O 0.66488 0.01929 0.79718 0.0
O886 O 0.66409 1.00595 0.74049 0.0
O887 O 0.6286 0.04171 0.76664 0.0
H888 H 0.62072 0.97001 0.81594 0.0
H889 H 0.62577 0.95088 0.73932 0.0
H890 H 0.61933 0.92534 0.82123 0.0
H891 H 0.62431 0.90655 0.74594 0.0
H892 H 0.69943 0.08366 0.84339 0.0
H893 H 0.7078 1.00735 0.78817 0.0
H894 H 0.66459 0.06012 0.8275 0.0
H895 H 0.7419 0.03173 0.80486 0.0
H896 H 0.69656 0.93176 0.81827 0.0
H897 H 0.70638 0.92055 0.74101 0.0
H898 H 0.55995 0.04598 0.83837 0.0
H899 H 0.61448 0.02381 0.88146 0.0
H900 H 0.65046 0.04767 0.72609 0.0
H901 H 0.6875 0.98216 0.70496 0.0
H902 H 0.65819 0.06107 0.68575 0.0
H903 H 0.69472 0.99673 0.66493 0.0
H904 H 0.61375 0.06687 0.73257 0.0
H905 H 0.63001 0.07106 0.80772 0.0
H906 H 0.60295 0.11061 0.73888 0.0
H907 H 0.61861 0.11458 0.81277 0.0
H908 H 0.55566 0.01761 0.70887 0.0
H909 H 0.60075 0.96798 0.66727 0.0
H910 H 0.73889 0.06452 0.73963 0.0
H911 H 0.69755 0.12232 0.77428 0.0
Li912 Li 0.02548 0.24106 0.88969 0.0
Li913 Li 1.00492 0.26169 0.92676 0.0
Li914 Li 0.01083 0.21502 0.91929 0.0
Li915 Li 0.98405 0.23413 0.8951 0.0
C916 C 0.05646 0.25131 0.92367 0.0
N917 N 0.10149 0.26868 0.92074 0.0
C918 C 0.06266 0.27552 0.93287 0.0
C919 C 0.07322 0.2359 0.91308 0.0
C920 C 0.08551 0.28395 0.93121 0.0
C921 C 0.09586 0.24504 0.91172 0.0
C922 C 0.9895 0.27647 0.87592 0.0
C923 C 0.9597 0.30268 0.86604 0.0
N924 N 0.96322 0.29529 0.84228 0.0
C925 C 0.99292 0.26921 0.85141 0.0
C926 C 0.97283 0.29339 0.88334 0.0
C927 C 0.97943 0.27891 0.83468 0.0
C928 C 0.05623 0.22775 0.85054 0.0
N929 N 0.0498 0.24669 0.8668 0.0
C930 C 0.07937 0.27334 0.85229 0.0
C931 C 0.06068 0.26934 0.86762 0.0
C932 C 0.08688 0.25389 0.83578 0.0
C933 C 0.07479 0.23093 0.83487 0.0
H934 H 0.04705 0.21007 0.84983 0.0
H935 H 0.05516 0.28417 0.8806 0.0
C936 C 1.0028 0.287 0.97418 0.0
N937 N 1.0042 0.29033 0.95044 0.0
C938 C 1.00188 0.30732 0.99179 0.0
C939 C 1.00451 0.33427 0.96033 0.0
C940 C 1.00528 0.31341 0.94331 0.0
C941 C 1.00259 0.33144 0.98501 0.0
H942 H 1.00217 0.26848 0.97943 0.0
H943 H 1.00663 0.31563 0.92436 0.0
C944 C 0.00766 0.18453 0.88139 0.0
N945 N 0.00887 0.13374 0.8792 0.0
C946 C 0.98728 0.17007 0.8806 0.0
C947 C 0.02866 0.17314 0.88095 0.0
C948 C 0.98825 0.14443 0.87951 0.0
C949 C 0.02891 0.14745 0.87988 0.0
C950 C 0.96008 0.23168 0.93664 0.0
C951 C 0.94702 0.2101 0.92956 0.0
C952 C 0.94963 0.2517 0.94957 0.0
C953 C 0.92369 0.20893 0.93543 0.0
C954 C 0.92626 0.24979 0.95514 0.0
N955 N 0.91387 0.22863 0.948 0.0
C956 C 0.03953 0.18171 0.94043 0.0
C957 C 0.99986 0.17202 0.94375 0.0
C958 C 0.0447 0.16141 0.9524 0.0
N959 N 0.0174 0.18661 0.93618 0.0
C960 C 1.00422 0.15165 0.95592 0.0
C961 C 0.02694 0.14594 0.9604 0.0
H962 H 0.05327 0.19351 0.93446 0.0
H963 H 0.9824 0.17623 0.94047 0.0
C964 C 0.95458 0.21794 0.85489 0.0
N965 N 0.95528 0.23142 0.8769 0.0
C966 C 0.93517 0.21763 0.84036 0.0
C967 C 0.91728 0.24474 0.87145 0.0
C968 C 0.93705 0.24474 0.88521 0.0
C969 C 0.91615 0.23142 0.8484 0.0
H970 H 0.96943 0.20802 0.8482 0.0
H971 H 0.93805 0.25611 0.90225 0.0
O972 O 0.03409 0.24287 0.92479 0.0
O973 O 1.00198 0.26651 0.89257 0.0
O974 O 1.00705 0.20972 0.88323 0.0
O975 O 0.98296 0.23324 0.93107 0.0
H976 H 0.04999 0.28773 0.94113 0.0
H977 H 0.06871 0.21728 0.90544 0.0
H978 H 0.09052 0.30267 0.9382 0.0
H979 H 0.10893 0.23339 0.90335 0.0
H980 H 0.94661 0.31566 0.87152 0.0
H981 H 1.00566 0.25598 0.84542 0.0
H982 H 0.96982 0.29898 0.90228 0.0
H983 H 0.98177 0.27335 0.81565 0.0
H984 H 0.0882 0.29131 0.85381 0.0
H985 H 0.0796 0.21553 0.82214 0.0
H986 H 1.00068 0.30416 0.01055 0.0
H987 H 1.00485 0.3524 0.95414 0.0
H988 H 0.97088 0.17854 0.88098 0.0
H989 H 0.0446 0.18404 0.88191 0.0
H990 H 0.97261 0.13303 0.87899 0.0
H991 H 0.04503 0.13841 0.87974 0.0
H992 H 0.95471 0.19454 0.91932 0.0
H993 H 0.9594 0.2686 0.95509 0.0
H994 H 0.91336 0.19239 0.92993 0.0
H995 H 0.91795 0.26516 0.96508 0.0
H996 H 0.06248 0.15779 0.95511 0.0
H997 H 0.98982 0.14076 0.9621 0.0
H998 H 0.93549 0.20744 0.82262 0.0
H999 H 0.90312 0.25548 0.87876 0.0
Li1000 Li 0.52354 0.74631 0.39049 0.0
Li1001 Li 0.50062 0.7621 0.42563 0.0
Li1002 Li 0.50825 0.7169 0.4186 0.0
Li1003 Li 0.48106 0.73597 0.39322 0.0
C1004 C 0.55184 0.73744 0.42814 0.0
N1005 N 0.59479 0.72014 0.4345 0.0
C1006 C 0.56524 0.74769 0.44746 0.0
C1007 C 0.56027 0.71838 0.41205 0.0
C1008 C 0.58692 0.73869 0.45036 0.0
C1009 C 0.58202 0.70989 0.41557 0.0
C1010 C 0.49346 0.79311 0.3947 0.0
C1011 C 0.46744 0.82633 0.40154 0.0
N1012 N 0.48561 0.84286 0.40356 0.0
C1013 C 0.51188 0.81041 0.39664 0.0
C1014 C 0.47105 0.80109 0.397 0.0
C1015 C 0.50755 0.83549 0.4012 0.0
C1016 C 0.5505 0.74394 0.34694 0.0
N1017 N 0.5493 0.75404 0.37025 0.0
C1018 C 0.58613 0.77446 0.36653 0.0
C1019 C 0.56651 0.76928 0.38009 0.0
C1020 C 0.58812 0.76396 0.3425 0.0
C1021 C 0.56981 0.74868 0.33267 0.0
H1022 H 0.53656 0.73199 0.33949 0.0
H1023 H 0.56511 0.77726 0.39862 0.0
C1024 C 0.47846 0.79571 0.46133 0.0
N1025 N 0.49873 0.79029 0.45007 0.0
C1026 C 0.47702 0.8161 0.47875 0.0
C1027 C 0.51738 0.8252 0.47291 0.0
C1028 C 0.51804 0.80455 0.45558 0.0
C1029 C 0.49665 0.83122 0.48488 0.0
H1030 H 0.46331 0.78428 0.45679 0.0
H1031 H 0.53401 0.79993 0.44643 0.0
C1032 C 0.49749 0.69145 0.37223 0.0
N1033 N 0.47819 0.64734 0.35112 0.0
C1034 C 0.48091 0.67841 0.38466 0.0
C1035 C 0.50426 0.68205 0.34905 0.0
C1036 C 0.47135 0.65616 0.3737 0.0
C1037 C 0.49431 0.65971 0.33869 0.0
C1038 C 0.45727 0.72769 0.43552 0.0
C1039 C 0.45188 0.70566 0.44538 0.0
C1040 C 0.43997 0.74394 0.43254 0.0
C1041 C 0.42921 0.70021 0.45199 0.0
C1042 C 0.41751 0.73783 0.43938 0.0
N1043 N 0.41263 0.71627 0.44887 0.0
C1044 C 0.51633 0.69098 0.45896 0.0
C1045 C 0.52298 0.66727 0.42161 0.0
C1046 C 0.52272 0.67148 0.47143 0.0
N1047 N 0.51634 0.68852 0.43447 0.0
C1048 C 0.52907 0.64717 0.43335 0.0
C1049 C 0.52897 0.64908 0.45861 0.0
H1050 H 0.51137 0.70816 0.46882 0.0
H1051 H 0.52372 0.66587 0.40221 0.0
C1052 C 0.45233 0.74338 0.35425 0.0
N1053 N 0.45328 0.73051 0.3737 0.0
C1054 C 0.43312 0.74081 0.33933 0.0
C1055 C 0.41595 0.71182 0.36461 0.0
C1056 C 0.43569 0.71453 0.37874 0.0
C1057 C 0.41444 0.72507 0.34458 0.0
H1058 H 0.46652 0.75579 0.35034 0.0
H1059 H 0.43682 0.70386 0.39378 0.0
O1060 O 0.53055 0.74601 0.42513 0.0
O1061 O 0.49738 0.76845 0.39104 0.0
O1062 O 0.50684 0.71346 0.38254 0.0
O1063 O 0.47939 0.73322 0.42889 0.0
H1064 H 0.55892 0.76243 0.46008 0.0
H1065 H 0.55013 0.71021 0.39699 0.0
H1066 H 0.59749 0.74645 0.46524 0.0
H1067 H 0.58876 0.69515 0.40327 0.0
H1068 H 0.45018 0.83278 0.40348 0.0
H1069 H 0.52933 0.8045 0.39497 0.0
H1070 H 0.45662 0.78792 0.39536 0.0
H1071 H 0.52164 0.84909 0.40295 0.0
H1072 H 0.59957 0.78665 0.3748 0.0
H1073 H 0.57062 0.74001 0.31432 0.0
H1074 H 0.46054 0.82014 0.48709 0.0
H1075 H 0.533 0.83613 0.47707 0.0
H1076 H 0.47554 0.68538 0.40261 0.0
H1077 H 0.51707 0.69188 0.33915 0.0
H1078 H 0.45849 0.6459 0.38314 0.0
H1079 H 0.49939 0.65221 0.32076 0.0
H1080 H 0.46507 0.69289 0.44786 0.0
H1081 H 0.44377 0.76089 0.42464 0.0
H1082 H 0.42478 0.68321 0.45959 0.0
H1083 H 0.40393 0.75017 0.43703 0.0
H1084 H 0.52226 0.6737 0.49092 0.0
H1085 H 0.53402 0.63034 0.42277 0.0
H1086 H 0.43267 0.75147 0.32414 0.0
H1087 H 0.40207 0.69928 0.36917 0.0
Li1088 Li 0.02159 0.80431 0.63199 0.0
Li1089 Li 0.99464 0.78355 0.66256 0.0
Li1090 Li 0.03601 0.77722 0.66119 0.0
Li1091 Li 0.01165 0.75831 0.62827 0.0
C1092 C 0.03273 0.82566 0.68398 0.0
N1093 N 0.05723 0.85904 0.7156 0.0
C1094 C 0.02753 0.82766 0.70859 0.0
C1095 C 0.05037 0.84067 0.67545 0.0
C1096 C 0.04015 0.84461 0.72429 0.0
C1097 C 0.06254 0.85745 0.69171 0.0
C1098 C 0.97747 0.77607 0.60823 0.0
C1099 C 0.94865 0.74625 0.59169 0.0
N1100 N 0.95284 0.75359 0.5695 0.0
C1101 C 0.98141 0.7834 0.58531 0.0
C1102 C 0.96089 0.75743 0.6115 0.0
C1103 C 0.9688 0.77179 0.56595 0.0
C1104 C 0.03714 0.8247 0.59021 0.0
N1105 N 0.02937 0.83157 0.61291 0.0
C1106 C 0.03566 0.87434 0.60681 0.0
C1107 C 0.02823 0.85592 0.62127 0.0
C1108 C 0.04393 0.86782 0.58318 0.0
C1109 C 0.04415 0.84241 0.57499 0.0
H1110 H 0.03788 0.80528 0.58384 0.0
H1111 H 0.02198 0.86112 0.63937 0.0
C1112 C 0.96952 0.78472 0.70786 0.0
N1113 N 0.96747 0.78646 0.68388 0.0
C1114 C 0.95006 0.78334 0.72283 0.0
C1115 C 0.92656 0.78721 0.68862 0.0
C1116 C 0.94646 0.78814 0.67425 0.0
C1117 C 0.92801 0.78421 0.71329 0.0
H1118 H 0.98627 0.78345 0.71534 0.0
H1119 H 0.94506 0.78977 0.65525 0.0
C1120 C 0.06413 0.77117 0.6229 0.0
N1121 N 0.10997 0.76087 0.61892 0.0
C1122 C 0.07067 0.74678 0.6179 0.0
C1123 C 0.08084 0.79034 0.62567 0.0
C1124 C 0.09396 0.74195 0.61601 0.0
C1125 C 0.10395 0.78475 0.62364 0.0
C1126 C 1.00033 0.74068 0.68041 0.0
C1127 C 0.01087 0.74138 0.70274 0.0
C1128 C 0.97882 0.72866 0.67691 0.0
C1129 C 0.99975 0.72994 0.72114 0.0
C1130 C 0.96823 0.71752 0.69578 0.0
N1131 N 0.97883 0.71837 0.71731 0.0
C1132 C 0.07617 0.78614 0.69269 0.0
C1133 C 0.06667 0.74488 0.67734 0.0
C1134 C 0.09444 0.77845 0.70546 0.0
N1135 N 0.06249 0.76937 0.67915 0.0
C1136 C 0.08479 0.73638 0.68971 0.0
C1137 C 0.0989 0.75321 0.70425 0.0
H1138 H 0.07298 0.80549 0.69389 0.0
H1139 H 0.05572 0.73183 0.66637 0.0
C1140 C 0.01545 0.73025 0.58175 0.0
N1141 N 0.00837 0.72945 0.605 0.0
C1142 C 0.01476 0.70874 0.56544 0.0
C1143 C 0.99919 0.68617 0.59718 0.0
C1144 C 1.00031 0.70797 0.61283 0.0
C1145 C 1.00682 0.68615 0.57316 0.0
H1146 H 0.02212 0.7475 0.57601 0.0
H1147 H 0.99513 0.70761 0.63138 0.0
O1148 O 0.02029 0.80949 0.66829 0.0
O1149 O 0.99016 0.78663 0.62727 0.0
O1150 O 0.04146 0.77621 0.62544 0.0
O1151 O 0.01089 0.75192 0.66218 0.0
H1152 H 0.01391 0.81628 0.71551 0.0
H1153 H 0.05487 0.83915 0.65655 0.0
H1154 H 0.03633 0.84631 0.74338 0.0
H1155 H 0.07628 0.86911 0.68536 0.0
H1156 H 0.93588 0.7317 0.59393 0.0
H1157 H 0.99413 0.79782 0.58246 0.0
H1158 H 0.95767 0.75148 0.62909 0.0
H1159 H 0.97174 0.77721 0.54808 0.0
H1160 H 0.03525 0.89344 0.61437 0.0
H1161 H 0.04951 0.83599 0.55685 0.0
H1162 H 0.95237 0.78082 0.74153 0.0
H1163 H 0.91018 0.78875 0.68032 0.0
H1164 H 0.05791 0.73173 0.61579 0.0
H1165 H 0.07601 0.80931 0.62946 0.0
H1166 H 0.0993 0.72316 0.6123 0.0
H1167 H 0.11709 0.79939 0.62586 0.0
H1168 H 0.02726 0.75098 0.70605 0.0
H1169 H 0.97019 0.72823 0.65993 0.0
H1170 H 0.00768 0.73043 0.73851 0.0
H1171 H 0.95153 0.70829 0.69333 0.0
H1172 H 0.10463 0.79215 0.71659 0.0
H1173 H 0.08771 0.7168 0.68782 0.0
H1174 H 0.02099 0.70969 0.5472 0.0
H1175 H 0.99247 0.66942 0.60397 0.0
Li1176 Li 0.51997 0.30309 0.13366 0.0
Li1177 Li 0.49397 0.28311 0.16143 0.0
Li1178 Li 0.53776 0.27675 0.15991 0.0
Li1179 Li 0.51191 0.25928 0.12496 0.0
C1180 C 0.52047 0.33184 0.17623 0.0
N1181 N 0.52035 0.38222 0.1887 0.0
C1182 C 0.50097 0.34476 0.17244 0.0
C1183 C 0.53984 0.34443 0.18651 0.0
C1184 C 0.50128 0.37027 0.17882 0.0
C1185 C 0.53945 0.36994 0.19266 0.0
C1186 C 0.46808 0.27711 0.11956 0.0
C1187 C 0.43922 0.24395 0.11637 0.0
N1188 N 0.42495 0.25853 0.1059 0.0
C1189 C 0.45318 0.29173 0.10869 0.0
C1190 C 0.4611 0.253 0.12338 0.0
C1191 C 0.43142 0.28202 0.10196 0.0
C1192 C 0.51493 0.33154 0.09507 0.0
N1193 N 0.5263 0.33196 0.11613 0.0
C1194 C 0.54909 0.36756 0.10669 0.0
C1195 C 0.54297 0.34974 0.12227 0.0
C1196 C 0.53824 0.36687 0.08437 0.0
C1197 C 0.52063 0.34878 0.07894 0.0
H1198 H 0.50205 0.31707 0.09028 0.0
H1199 H 0.55236 0.34942 0.13867 0.0
C1200 C 0.47437 0.28377 0.2082 0.0
N1201 N 0.46842 0.28426 0.18483 0.0
C1202 C 0.45759 0.28385 0.22649 0.0
C1203 C 0.42857 0.28448 0.19652 0.0
C1204 C 0.44594 0.28478 0.17883 0.0
C1205 C 0.43425 0.28411 0.2208 0.0
H1206 H 0.49228 0.28326 0.21266 0.0
H1207 H 0.4413 0.28551 0.16036 0.0
C1208 C 0.5577 0.28817 0.11079 0.0
N1209 N 0.58787 0.31313 0.08251 0.0
C1210 C 0.55426 0.28713 0.08604 0.0
C1211 C 0.57657 0.30171 0.12116 0.0
C1212 C 0.56967 0.29996 0.07205 0.0
C1213 C 0.59163 0.31421 0.10654 0.0
C1214 C 0.50825 0.22949 0.16705 0.0
C1215 C 0.52706 0.2147 0.16807 0.0
C1216 C 0.48662 0.22098 0.17444 0.0
C1217 C 0.52387 0.19147 0.17621 0.0
C1218 C 0.48414 0.19765 0.18246 0.0
N1219 N 0.50265 0.18349 0.18317 0.0
C1220 C 0.56402 0.27594 0.2025 0.0
C1221 C 0.58099 0.25753 0.16652 0.0
C1222 C 0.58267 0.27 0.21586 0.0
N1223 N 0.56354 0.26964 0.1783 0.0
C1224 C 0.59991 0.25122 0.17913 0.0
C1225 C 0.601 0.25744 0.20418 0.0
H1226 H 0.54988 0.28553 0.21144 0.0
H1227 H 0.58006 0.25251 0.14729 0.0
C1228 C 0.50085 0.23848 0.07794 0.0
N1229 N 0.50805 0.23251 0.09946 0.0
C1230 C 0.49758 0.22024 0.05852 0.0
C1231 C 0.50956 0.18995 0.08351 0.0
C1232 C 0.51264 0.20881 0.10246 0.0
C1233 C 0.50173 0.19548 0.06116 0.0
H1234 H 0.49755 0.25748 0.07588 0.0
H1235 H 0.51858 0.20444 0.11956 0.0
O1236 O 0.52055 0.30694 0.16995 0.0
O1237 O 0.48951 0.28635 0.12597 0.0
O1238 O 0.54244 0.27638 0.12491 0.0
O1239 O 0.51108 0.25242 0.15944 0.0
H1240 H 0.48584 0.33518 0.16452 0.0
H1241 H 0.55504 0.3346 0.18955 0.0
H1242 H 0.48636 0.38056 0.17591 0.0
H1243 H 0.55435 0.37999 0.20055 0.0
H1244 H 0.4336 0.22533 0.11924 0.0
H1245 H 0.45837 0.31041 0.10553 0.0
H1246 H 0.47243 0.24137 0.1316 0.0
H1247 H 0.41968 0.29315 0.09357 0.0
H1248 H 0.56291 0.38096 0.11155 0.0
H1249 H 0.51159 0.34763 0.0621 0.0
H1250 H 0.46284 0.28348 0.24491 0.0
H1251 H 0.41087 0.28511 0.19128 0.0
H1252 H 0.53968 0.27681 0.07778 0.0
H1253 H 0.57934 0.30286 0.14033 0.0
H1254 H 0.56711 0.29953 0.0529 0.0
H1255 H 0.60622 0.32491 0.11433 0.0
H1256 H 0.5439 0.22097 0.16241 0.0
H1257 H 0.4719 0.23227 0.17402 0.0
H1258 H 0.53826 0.17978 0.17697 0.0
H1259 H 0.46749 0.19081 0.18818 0.0
H1260 H 0.58283 0.27546 0.23506 0.0
H1261 H 0.61339 0.24122 0.16936 0.0
H1262 H 0.49184 0.22553 0.0416 0.0
H1263 H 0.51273 0.17115 0.08656 0.0
H1264 H 0.21411 0.72668 0.85813 0.0
H1265 H 0.26778 0.76232 0.81945 0.0
H1266 H 0.28006 0.78719 0.85657 0.0
H1267 H 0.27239 0.80217 0.89884 0.0
H1268 H 0.21537 0.76988 0.93637 0.0
H1269 H 0.20775 0.74014 0.90132 0.0
C1270 C 0.229 0.73927 0.85823 0.0
C1271 C 0.24062 0.74216 0.83645 0.0
C1272 C 0.23502 0.75445 0.87937 0.0
C1273 C 0.25926 0.75922 0.83627 0.0
C1274 C 0.26596 0.7737 0.85739 0.0
C1275 C 0.25826 0.78868 0.89942 0.0
C1276 C 0.24439 0.78858 0.92032 0.0
C1277 C 0.25346 0.77206 0.87887 0.0
C1278 C 0.22653 0.77042 0.92076 0.0
C1279 C 0.22202 0.75344 0.90059 0.0
H1280 H 0.98087 0.5592 0.41297 0.0
H1281 H 0.02645 0.56097 0.47267 0.0
H1282 H 0.0596 0.55893 0.44491 0.0
H1283 H 0.07506 0.55181 0.40313 0.0
H1284 H 0.02848 0.54786 0.34371 0.0
H1285 H 0.99633 0.55509 0.37166 0.0
C1286 C 0.99812 0.55943 0.41982 0.0
C1287 C 1.00129 0.56006 0.44474 0.0
C1288 C 0.01687 0.55734 0.40371 0.0
C1289 C 0.02367 0.56068 0.45355 0.0
C1290 C 0.04255 0.55921 0.43765 0.0
C1291 C 0.05791 0.55289 0.39633 0.0
C1292 C 0.05419 0.54893 0.3713 0.0
C1293 C 0.03932 0.55681 0.41261 0.0
C1294 C 0.03181 0.55032 0.36283 0.0
C1295 C 0.0134 0.5546 0.37881 0.0
H1296 H 0.78635 0.7492 0.82281 0.0
H1297 H 0.84351 0.79185 0.85519 0.0
H1298 H 0.84472 0.76406 0.88675 0.0
H1299 H 0.82657 0.73016 0.90758 0.0
H1300 H 0.76758 0.68934 0.87594 0.0
H1301 H 0.76999 0.71359 0.84189 0.0
C1302 C 0.79953 0.7518 0.83637 0.0
C1303 C 0.81522 0.77215 0.83632 0.0
C1304 C 0.79941 0.73633 0.85497 0.0
C1305 C 0.8318 0.77586 0.85435 0.0
C1306 C 0.83216 0.76021 0.87266 0.0
C1307 C 0.81425 0.7265 0.89323 0.0
C1308 C 0.79685 0.7078 0.89459 0.0
C1309 C 0.81557 0.74081 0.87359 0.0
C1310 C 0.78132 0.70326 0.87548 0.0
C1311 C 0.7826 0.71727 0.85595 0.0
H1312 H 0.03705 0.96987 0.41406 0.0
H1313 H 0.9961 1.00024 0.47385 0.0
H1314 H 0.96522 1.00724 0.44651 0.0
H1315 H 0.9503 1.00546 0.40534 0.0
H1316 H 0.99135 0.97444 0.34548 0.0
H1317 H 0.02178 0.96735 0.37284 0.0
C1318 C 0.02135 0.9781 0.42093 0.0
C1319 C 0.01877 0.98474 0.44579 0.0
C1320 C 1.00376 0.98208 0.40505 0.0
C1321 C 0.99832 0.99508 0.45472 0.0
C1322 C 0.98075 0.99909 0.43909 0.0
C1323 C 0.96579 0.99694 0.39827 0.0
C1324 C 0.96845 0.99071 0.37324 0.0
C1325 C 0.98329 0.99273 0.41418 0.0
C1326 C 0.98887 0.97991 0.36452 0.0
C1327 C 1.00629 0.97566 0.3802 0.0
H1328 H 0.23507 0.24372 0.71206 0.0
H1329 H 0.22477 0.31147 0.68195 0.0
H1330 H 0.23838 0.29298 0.64244 0.0
H1331 H 0.25031 0.25612 0.61582 0.0
H1332 H 0.26006 0.18829 0.64661 0.0
H1333 H 0.24958 0.20801 0.68633 0.0
C1334 C 0.23618 0.25443 0.69684 0.0
C1335 C 0.22895 0.27882 0.69973 0.0
C1336 C 0.24365 0.24352 0.67425 0.0
C1337 C 0.23047 0.29272 0.68007 0.0
C1338 C 0.23801 0.28205 0.65748 0.0
C1339 C 0.2502 0.24572 0.63126 0.0
C1340 C 0.25595 0.2207 0.62816 0.0
C1341 C 0.24414 0.25724 0.65422 0.0
C1342 C 0.25596 0.20758 0.64844 0.0
C1343 C 0.24985 0.21882 0.67119 0.0
H1344 H 0.53694 0.54324 0.63032 0.0
H1345 H 0.48578 0.52925 0.57564 0.0
H1346 H 0.45607 0.52383 0.60645 0.0
H1347 H 0.44478 0.52351 0.64909 0.0
H1348 H 0.49665 0.53574 0.70365 0.0
H1349 H 0.52586 0.54148 0.67291 0.0
C1350 C 0.5193 0.53872 0.62529 0.0
C1351 C 0.51345 0.53638 0.60088 0.0
C1352 C 0.50245 0.53547 0.64309 0.0
C1353 C 0.49054 0.53102 0.59439 0.0
C1354 C 0.47363 0.52792 0.61198 0.0
C1355 C 0.46249 0.52715 0.65428 0.0
C1356 C 0.46832 0.52936 0.67881 0.0
C1357 C 0.47938 0.53011 0.63642 0.0
C1358 C 0.49143 0.53443 0.68506 0.0
C1359 C 0.50826 0.53754 0.66744 0.0
H1360 H 0.77375 0.27793 0.71407 0.0
H1361 H 0.83291 0.24645 0.67798 0.0
H1362 H 0.82803 0.27117 0.64443 0.0
H1363 H 0.8064 0.30124 0.62517 0.0
H1364 H 0.74607 0.33153 0.66075 0.0
H1365 H 0.752 0.30815 0.69468 0.0
C1366 C 0.78555 0.2767 0.69884 0.0
C1367 C 0.80373 0.26061 0.69839 0.0
C1368 C 0.78239 0.29076 0.67956 0.0
C1369 C 0.81894 0.25892 0.67864 0.0
C1370 C 0.81607 0.27296 0.6595 0.0
C1371 C 0.7944 0.30263 0.64022 0.0
C1372 C 0.77579 0.31829 0.64021 0.0
C1373 C 0.79775 0.28884 0.65967 0.0
C1374 C 0.76074 0.32002 0.66024 0.0
C1375 C 0.76402 0.30648 0.67966 0.0
H1376 H 0.4847 0.97277 0.62452 0.0
H1377 H 0.53274 0.97533 0.56564 0.0
H1378 H 0.5648 0.97865 0.59379 0.0
H1379 H 0.57885 0.98511 0.63582 0.0
H1380 H 0.52993 0.98373 0.69448 0.0
H1381 H 0.49869 0.97622 0.66602 0.0
C1382 C 0.50225 0.97369 0.61792 0.0
C1383 C 0.50639 0.97374 0.59307 0.0
C1384 C 0.52044 0.97639 0.6343 0.0
C1385 C 0.52915 0.97487 0.58463 0.0
C1386 C 0.54745 0.97711 0.6008 0.0
C1387 C 0.5614 0.98284 0.64238 0.0
C1388 C 0.55687 0.98545 0.66743 0.0
C1389 C 0.54329 0.97852 0.62577 0.0
C1390 C 0.53402 0.98248 0.67544 0.0
C1391 C 0.51608 0.97798 0.65913 0.0
H1392 H 0.83322 0.2593 0.78609 0.0
H1393 H 0.84022 0.18483 0.75339 0.0
H1394 H 0.86998 0.17862 0.78238 0.0
H1395 H 0.8961 0.1957 0.81526 0.0
H1396 H 0.89063 0.27181 0.84503 0.0
H1397 H 0.85856 0.27606 0.81902 0.0
C1398 C 0.84126 0.24171 0.78539 0.0
C1399 C 0.83466 0.22262 0.76752 0.0
C1400 C 0.85887 0.23866 0.80152 0.0
C1401 C 0.84486 0.19973 0.76709 0.0
C1402 C 0.86206 0.19631 0.78351 0.0
C1403 C 0.88799 0.21326 0.81605 0.0
C1404 C 0.89595 0.23331 0.83247 0.0
C1405 C 0.86961 0.21586 0.80049 0.0
C1406 C 0.88481 0.25579 0.83318 0.0
C1407 C 0.86647 0.25836 0.81809 0.0
H1408 H 0.4714 0.91645 0.5663 0.0
H1409 H 0.51563 0.95902 0.523 0.0
H1410 H 0.52579 0.92138 0.49753 0.0
H1411 H 0.51788 0.87713 0.48456 0.0
H1412 H 0.47218 0.83477 0.52728 0.0
H1413 H 0.46657 0.8713 0.55575 0.0
C1414 C 0.48395 0.91716 0.55185 0.0
C1415 C 0.49328 0.94023 0.54681 0.0
C1416 C 0.48886 0.89554 0.53674 0.0
C1417 C 0.50883 0.9413 0.52751 0.0
C1418 C 0.51431 0.91984 0.51277 0.0
C1419 C 0.50706 0.87572 0.50033 0.0
C1420 C 0.49522 0.85316 0.50345 0.0
C1421 C 0.50382 0.89693 0.51672 0.0
C1422 C 0.4811 0.85192 0.524 0.0
C1423 C 0.478 0.87281 0.54045 0.0
H1424 H 0.17849 0.25224 0.77274 0.0
H1425 H 0.15732 0.32454 0.76134 0.0
H1426 H 0.12323 0.31925 0.78676 0.0
H1427 H 0.0994 0.2939 0.81218 0.0
H1428 H 0.12081 0.2215 0.82383 0.0
H1429 H 0.15447 0.22672 0.79812 0.0
C1430 C 0.16626 0.26668 0.77577 0.0
C1431 C 0.17034 0.28877 0.76532 0.0
C1432 C 0.1467 0.26343 0.79037 0.0
C1433 C 0.15456 0.30751 0.76944 0.0
C1434 C 0.13507 0.30443 0.78389 0.0
C1435 C 0.1115 0.27933 0.80926 0.0
C1436 C 0.10742 0.2573 0.81995 0.0
C1437 C 0.13098 0.2825 0.79453 0.0
C1438 C 0.12322 0.2385 0.8156 0.0
C1439 C 0.14261 0.24152 0.801 0.0
H1440 H 0.53168 0.55104 0.50899 0.0
H1441 H 0.57776 0.59652 0.5556 0.0
H1442 H 0.57652 0.62978 0.52953 0.0
H1443 H 0.55808 0.64769 0.49626 0.0
H1444 H 0.51157 0.60188 0.44983 0.0
H1445 H 0.51711 0.56704 0.47278 0.0
C1446 C 0.54218 0.56787 0.51272 0.0
C1447 C 0.55525 0.57121 0.53378 0.0
C1448 C 0.54074 0.58708 0.49801 0.0
C1449 C 0.5682 0.59335 0.53907 0.0
C1450 C 0.5671 0.61249 0.5244 0.0
C1451 C 0.54934 0.62999 0.49107 0.0
C1452 C 0.53424 0.62748 0.47148 0.0
C1453 C 0.55275 0.6099 0.5043 0.0
C1454 C 0.52329 0.60433 0.46478 0.0
C1455 C 0.52642 0.58439 0.47793 0.0
H1456 H 0.82882 0.77284 0.76061 0.0
H1457 H 0.86375 0.80924 0.82242 0.0
H1458 H 0.90042 0.80679 0.80044 0.0
H1459 H 0.92151 0.7993 0.7618 0.0
H1460 H 0.88611 0.76256 0.69979 0.0
H1461 H 0.8508 0.76073 0.72334 0.0
C1462 C 0.84467 0.77926 0.76947 0.0
C1463 C 0.84371 0.79051 0.79335 0.0
C1464 C 0.86552 0.77861 0.75633 0.0
C1465 C 0.86419 0.79963 0.80443 0.0
C1466 C 0.88508 0.79871 0.79163 0.0
C1467 C 0.90627 0.79043 0.75343 0.0
C1468 C 0.90672 0.78161 0.72864 0.0
C1469 C 0.88584 0.78897 0.76728 0.0
C1470 C 0.88644 0.77037 0.71844 0.0
C1471 C 0.86615 0.76899 0.73203 0.0
H1472 H 0.07875 0.93053 0.49926 0.0
H1473 H 0.03526 0.9838 0.53692 0.0
H1474 H 0.02858 0.95714 0.5691 0.0
H1475 H 0.0307 0.9161 0.58317 0.0
H1476 H 0.07641 0.86363 0.54653 0.0
H1477 H 0.08623 0.89221 0.5173 0.0
C1478 C 0.06874 0.93672 0.51512 0.0
C1479 C 0.05791 0.95933 0.51603 0.0
C1480 C 0.06462 0.92096 0.5333 0.0
C1481 C 0.04424 0.96678 0.53622 0.0
C1482 C 0.04011 0.95131 0.55437 0.0
C1483 C 0.04324 0.91093 0.56924 0.0
C1484 C 0.05205 0.887 0.56699 0.0
C1485 C 0.04953 0.9279 0.55265 0.0
C1486 C 0.06831 0.8812 0.54845 0.0
C1487 C 0.0743 0.89778 0.53174 0.0
H1488 H 0.16687 0.70474 0.77105 0.0
H1489 H 0.20883 0.76865 0.75768 0.0
H1490 H 0.17958 0.78137 0.73122 0.0
H1491 H 0.14152 0.7749 0.71302 0.0
H1492 H 0.09865 0.71172 0.72785 0.0
H1493 H 0.12878 0.69787 0.75214 0.0
C1494 C 0.16956 0.72125 0.76205 0.0
C1495 C 0.18981 0.73582 0.76617 0.0
C1496 C 0.15249 0.72856 0.74717 0.0
C1497 C 0.19325 0.75732 0.7547 0.0
C1498 C 0.17654 0.76454 0.73965 0.0
C1499 C 0.13866 0.75819 0.72167 0.0
C1500 C 0.11771 0.74446 0.71852 0.0
C1501 C 0.15596 0.75048 0.73599 0.0
C1502 C 0.11463 0.72256 0.72959 0.0
C1503 C 0.13182 0.71467 0.74367 0.0
H1504 H 0.99915 0.57673 0.52256 0.0
H1505 H 0.97863 0.61368 0.46304 0.0
H1506 H 0.98792 0.65402 0.48577 0.0
H1507 H 0.99669 0.67838 0.52489 0.0
H1508 H 0.01728 0.64045 0.58429 0.0
H1509 H 0.01297 0.601 0.55956 0.0
C1510 C 0.99752 0.59369 0.51441 0.0
C1511 C 0.98843 0.59246 0.49124 0.0
C1512 C 1.00227 0.61661 0.52786 0.0
C1513 C 0.98596 0.61437 0.48075 0.0
C1514 C 0.99095 0.63735 0.4939 0.0
C1515 C 1.00068 0.66156 0.53231 0.0
C1516 C 1.00672 0.66252 0.55674 0.0
C1517 C 0.99832 0.6387 0.51784 0.0
C1518 C 0.01183 0.64037 0.56589 0.0
C1519 C 0.00959 0.61773 0.55167 0.0
H1520 H 0.75625 0.81436 0.26748 0.0
H1521 H 0.73156 0.8341 0.20058 0.0
H1522 H 0.76056 0.8682 0.20139 0.0
H1523 H 0.79015 0.8949 0.22356 0.0
H1524 H 0.81496 0.87445 0.29057 0.0
H1525 H 0.78846 0.83855 0.28759 0.0
C1526 C 0.75759 0.82595 0.25293 0.0
C1527 C 0.74188 0.8219 0.23402 0.0
C1528 C 0.77396 0.84571 0.25385 0.0
C1529 C 0.74366 0.83684 0.21516 0.0
C1530 C 0.76006 0.85645 0.2158 0.0
C1531 C 0.79013 0.88239 0.23732 0.0
C1532 C 0.8044 0.88785 0.25751 0.0
C1533 C 0.77492 0.86147 0.2354 0.0
C1534 C 0.80382 0.87131 0.27517 0.0
C1535 C 0.78878 0.85056 0.27339 0.0
H1536 H 0.72205 0.15922 0.31737 0.0
H1537 H 0.772 0.21639 0.30379 0.0
H1538 H 0.80266 0.18681 0.3022 0.0
H1539 H 0.8145 0.14368 0.30102 0.0
H1540 H 0.76395 0.08659 0.31477 0.0
H1541 H 0.73433 0.11687 0.31959 0.0
C1542 C 0.73975 0.16514 0.31448 0.0
C1543 C 0.74492 0.18987 0.3109 0.0
C1544 C 0.75709 0.14791 0.31316 0.0
C1545 C 0.76779 0.19751 0.30702 0.0
C1546 C 0.78522 0.18053 0.30585 0.0
C1547 C 0.7971 0.13789 0.30548 0.0
C1548 C 0.79154 0.11266 0.30711 0.0
C1549 C 0.78001 0.15553 0.3084 0.0
C1550 C 0.76876 0.10566 0.31276 0.0
C1551 C 0.75176 0.12303 0.31571 0.0
H1552 H 0.44384 0.01048 0.01018 0.0
H1553 H 0.41617 0.03284 0.94572 0.0
H1554 H 0.38058 0.00836 0.95164 0.0
H1555 H 0.35727 0.98107 0.97574 0.0
H1556 H 0.38502 0.95924 0.04076 0.0
H1557 H 0.42062 0.98283 0.03414 0.0
C1558 C 0.42997 0.00973 0.99746 0.0
C1559 C 0.43238 0.02317 0.97752 0.0
C1560 C 0.40963 0.99581 1.00117 0.0
C1561 C 0.41449 0.02239 0.96107 0.0
C1562 C 0.39422 0.00852 0.96454 0.0
C1563 C 0.37104 0.98163 0.98855 0.0
C1564 C 0.36841 0.96837 0.00873 0.0
C1565 C 0.39152 0.99528 0.98464 0.0
C1566 C 0.38662 0.96902 0.02494 0.0
C1567 C 0.40698 0.98259 0.02123 0.0
H1568 H 0.2761 0.35665 0.33123 0.0
H1569 H 0.26691 0.31817 0.26045 0.0
H1570 H 0.23925 0.34818 0.25116 0.0
H1571 H 0.21778 0.38558 0.26321 0.0
H1572 H 0.22728 0.4243 0.33414 0.0
H1573 H 0.25422 0.39392 0.34348 0.0
C1574 C 0.26787 0.35487 0.31387 0.0
C1575 C 0.27357 0.3354 0.29647 0.0
C1576 C 0.25195 0.3722 0.30873 0.0
C1577 C 0.26293 0.33322 0.27397 0.0
C1578 C 0.24709 0.35032 0.26872 0.0
C1579 C 0.22584 0.3875 0.28066 0.0
C1580 C 0.22032 0.40729 0.29792 0.0
C1581 C 0.24154 0.36999 0.28591 0.0
C1582 C 0.2308 0.40913 0.32057 0.0
C1583 C 0.24639 0.39182 0.32591 0.0
H1584 H 0.07584 0.03581 0.49819 0.0
H1585 H 0.10801 0.96602 0.49171 0.0
H1586 H 0.14573 0.98735 0.49844 0.0
H1587 H 0.16982 0.02637 0.50203 0.0
H1588 H 0.13657 0.09579 0.50352 0.0
H1589 H 0.09937 0.07428 0.5027 0.0
C1590 C 0.09112 0.02532 0.49867 0.0
C1591 C 0.08917 0.9994 0.4945 0.0
C1592 C 0.11271 0.03777 0.5012 0.0
C1593 C 0.10904 0.98594 0.49522 0.0
C1594 C 0.13062 0.99821 0.49867 0.0
C1595 C 0.1545 0.03686 0.50208 0.0
C1596 C 0.15642 0.06294 0.50306 0.0
C1597 C 0.13277 0.0242 0.50091 0.0
C1598 C 0.13605 0.07593 0.50338 0.0
C1599 C 0.11457 0.06358 0.50272 0.0
H1600 H 0.79558 0.16925 0.71596 0.0
H1601 H 0.78357 0.2107 0.78459 0.0
H1602 H 0.75822 0.17689 0.79672 0.0
H1603 H 0.73629 0.13728 0.78575 0.0
H1604 H 0.74726 0.0975 0.71562 0.0
H1605 H 0.776 0.1287 0.7061 0.0
C1606 C 0.78772 0.17054 0.73374 0.0
C1607 C 0.79131 0.19231 0.74939 0.0
C1608 C 0.77264 0.15146 0.74011 0.0
C1609 C 0.78117 0.19396 0.7724 0.0
C1610 C 0.76646 0.17477 0.77915 0.0
C1611 C 0.74498 0.13542 0.76839 0.0
C1612 C 0.73943 0.11493 0.75144 0.0
C1613 C 0.76147 0.15374 0.76283 0.0
C1614 C 0.75123 0.11276 0.72918 0.0
C1615 C 0.76766 0.13072 0.72363 0.0
H1616 H 0.44822 0.01427 0.52223 0.0
H1617 H 0.42277 1.00318 0.59305 0.0
H1618 H 0.38944 0.02757 0.58717 0.0
H1619 H 0.3674 0.05183 0.56162 0.0
H1620 H 0.3927 0.06222 0.49032 0.0
H1621 H 0.42606 0.03839 0.49655 0.0
C1622 C 0.43527 0.01716 0.53626 0.0
C1623 C 0.43787 1.00698 0.55804 0.0
C1624 C 0.41612 0.03107 0.53263 0.0
C1625 C 0.42117 0.01105 0.57625 0.0
C1626 C 0.40209 0.02486 0.57282 0.0
C1627 C 0.3801 0.04871 0.54735 0.0
C1628 C 0.37743 0.05891 0.52551 0.0
C1629 C 0.39932 0.0349 0.55103 0.0
C1630 C 0.39434 0.05493 0.50741 0.0
C1631 C 0.41342 0.04117 0.51091 0.0
H1632 H 0.56841 0.4932 0.53427 0.0
H1633 H 0.60313 0.56088 0.56282 0.0
H1634 H 0.64034 0.54176 0.55603 0.0
H1635 H 0.6624 0.50388 0.54694 0.0
H1636 H 0.62672 0.43574 0.51989 0.0
H1637 H 0.59062 0.4566 0.52152 0.0
C1638 C 0.58424 0.50385 0.53832 0.0
C1639 C 0.58316 0.52843 0.54878 0.0
C1640 C 0.60537 0.49236 0.5353 0.0
C1641 C 0.60364 0.5421 0.55429 0.0
C1642 C 0.62486 0.531 0.55077 0.0
C1643 C 0.6468 0.49367 0.54103 0.0
C1644 C 0.64737 0.46806 0.53373 0.0
C1645 C 0.62588 0.50585 0.54205 0.0
C1646 C 0.62685 0.45524 0.52621 0.0
C1647 C 0.60615 0.46722 0.52693 0.0
H1648 H 0.71015 0.22171 0.36794 0.0
H1649 H 0.75906 0.25705 0.3233 0.0
H1650 H 0.77278 0.28457 0.35825 0.0
H1651 H 0.76708 0.30198 0.40047 0.0
H1652 H 0.71733 0.26708 0.44504 0.0
H1653 H 0.70774 0.23588 0.41147 0.0
C1654 C 0.72441 0.23483 0.36624 0.0
C1655 C 0.73404 0.23711 0.34338 0.0
C1656 C 0.73163 0.25099 0.38631 0.0
C1657 C 0.75199 0.2546 0.34095 0.0
C1658 C 0.75951 0.27056 0.36084 0.0
C1659 C 0.75432 0.28737 0.40286 0.0
C1660 C 0.74275 0.28699 0.42513 0.0
C1661 C 0.74888 0.26949 0.38344 0.0
C1662 C 0.7265 0.26775 0.4281 0.0
C1663 C 0.72094 0.24996 0.40888 0.0
H1664 H 0.52046 0.0242 0.95365 0.0
H1665 H 0.49466 0.0915 0.93359 0.0
H1666 H 0.52426 0.09261 0.90187 0.0
H1667 H 0.55527 0.07202 0.87747 0.0
H1668 H 0.58005 1.00385 0.89743 0.0
H1669 H 0.5532 1.00537 0.93139 0.0
C1670 C 0.52163 0.03925 0.94249 0.0
C1671 C 0.50545 0.05769 0.94575 0.0
C1672 C 0.53834 0.03938 0.92406 0.0
C1673 C 0.5071 0.07726 0.93144 0.0
C1674 C 0.52385 0.0777 0.91317 0.0
C1675 C 0.55483 0.05755 0.8893 0.0
C1676 C 0.56968 0.03778 0.88473 0.0
C1677 C 0.53918 0.05847 0.90888 0.0
C1678 C 0.56906 0.01939 0.90053 0.0
C1679 C 0.55359 0.02017 0.91994 0.0
H1680 H 0.31731 0.29442 0.36404 0.0
H1681 H 0.30544 0.23878 0.30448 0.0
H1682 H 0.30143 0.20682 0.33222 0.0
H1683 H 0.29755 0.19552 0.37418 0.0
H1684 H 0.30929 0.25213 0.43343 0.0
H1685 H 0.31695 0.28274 0.40536 0.0
C1686 C 0.31458 0.27514 0.35719 0.0
C1687 C 0.31204 0.26886 0.33226 0.0
C1688 C 0.31173 0.25711 0.37333 0.0
C1689 C 0.308 0.24394 0.32353 0.0
C1690 C 0.30533 0.22577 0.33946 0.0
C1691 C 0.30188 0.21454 0.38091 0.0
C1692 C 0.30275 0.22142 0.40601 0.0
C1693 C 0.3065 0.23223 0.36451 0.0
C1694 C 0.30864 0.24616 0.41431 0.0
C1695 C 0.31299 0.26376 0.39824 0.0
H1696 H 0.52245 0.45695 0.93242 0.0
H1697 H 0.51469 0.5297 0.96914 0.0
H1698 H 0.48562 0.53792 0.94024 0.0
H1699 H 0.46274 0.52442 0.90408 0.0
H1700 H 0.471 0.45161 0.86704 0.0
H1701 H 0.49943 0.44335 0.89629 0.0
C1702 C 0.51426 0.47451 0.93401 0.0
C1703 C 0.52063 0.49275 0.95273 0.0
C1704 C 0.49769 0.47907 0.91724 0.0
C1705 C 0.51009 0.51553 0.9547 0.0
C1706 C 0.49347 0.52016 0.93824 0.0
C1707 C 0.47062 0.50667 0.90254 0.0
C1708 C 0.46471 0.48869 0.88332 0.0
C1709 C 0.48714 0.50208 0.91938 0.0
C1710 C 0.47537 0.4659 0.88145 0.0
C1711 C 0.49159 0.46111 0.89824 0.0
H1712 H 0.69872 0.78359 0.17467 0.0
H1713 H 0.75791 0.77016 0.21504 0.0
H1714 H 0.77486 0.74742 0.17907 0.0
H1715 H 0.77051 0.72746 0.1373 0.0
H1716 H 0.71066 0.74111 0.09739 0.0
H1717 H 0.6961 0.76719 0.13199 0.0
C1718 C 0.71551 0.776 0.17535 0.0
C1719 C 0.72708 0.77835 0.19733 0.0
C1720 C 0.72475 0.76252 0.15481 0.0
C1721 C 0.74885 0.76866 0.19819 0.0
C1722 C 0.75837 0.75546 0.17771 0.0
C1723 C 0.75448 0.73647 0.13599 0.0
C1724 C 0.74156 0.73183 0.11474 0.0
C1725 C 0.74615 0.75166 0.15607 0.0
C1726 C 0.72074 0.74368 0.1136 0.0
C1727 C 0.71244 0.75882 0.13335 0.0
H1728 H 0.99112 0.03458 0.08913 0.0
H1729 H 0.04979 0.04486 0.13514 0.0
H1730 H 0.02519 0.04021 0.17044 0.0
H1731 H 0.9868 0.03331 0.18821 0.0
H1732 H 0.9278 0.02536 0.14237 0.0
H1733 H 0.95249 0.02945 0.10711 0.0
C1734 C 0.99839 0.03598 0.10695 0.0
C1735 C 0.02221 0.03975 0.10958 0.0
C1736 C 0.98405 0.0338 0.12716 0.0
C1737 C 0.03154 0.04149 0.1327 0.0
C1738 C 0.01746 0.03898 0.15285 0.0
C1739 C 0.9794 0.03238 0.17047 0.0
C1740 C 0.95552 0.02895 0.16788 0.0
C1741 C 0.99369 0.03504 0.1503 0.0
C1742 C 0.94612 0.02815 0.14484 0.0
C1743 C 0.96023 0.03039 0.12466 0.0
H1744 H 0.32011 0.75559 0.18 0.0
H1745 H 0.26317 0.77931 0.22526 0.0
H1746 H 0.25194 0.80665 0.1959 0.0
H1747 H 0.25831 0.82362 0.15706 0.0
H1748 H 0.31521 0.79917 0.11157 0.0
H1749 H 0.32665 0.77278 0.14128 0.0
C1750 C 0.30539 0.76696 0.18342 0.0
C1751 C 0.29243 0.76549 0.20467 0.0
C1752 C 0.29906 0.78256 0.1664 0.0
C1753 C 0.27325 0.78007 0.20891 0.0
C1754 C 0.26689 0.7957 0.19215 0.0
C1755 C 0.27313 0.81242 0.15355 0.0
C1756 C 0.28589 0.81363 0.13202 0.0
C1757 C 0.27959 0.79701 0.17073 0.0
C1758 C 0.30522 0.79908 0.12806 0.0
C1759 C 0.31174 0.78378 0.14501 0.0
H1760 H 0.98834 0.47645 0.12242 0.0
H1761 H 0.038 0.47682 0.06482 0.0
H1762 H 0.06929 0.47937 0.09383 0.0
H1763 H 0.08243 0.48424 0.1362 0.0
H1764 H 0.03205 0.48449 0.1936 0.0
H1765 H 1.00132 0.47908 0.16435 0.0
C1766 C 1.00606 0.47668 0.11631 0.0
C1767 C 0.01091 0.47614 0.09154 0.0
C1768 C 0.02386 0.4786 0.13317 0.0
C1769 C 0.03388 0.47665 0.08373 0.0
C1770 C 0.05174 0.47844 0.10038 0.0
C1771 C 0.06473 0.48308 0.14228 0.0
C1772 C 0.05968 0.48476 0.16719 0.0
C1773 C 0.04695 0.47989 0.12523 0.0
C1774 C 0.03657 0.48297 0.17465 0.0
C1775 C 0.01891 0.47998 0.15789 0.0
H1776 H 0.31745 0.72843 0.29556 0.0
H1777 H 0.35897 0.71445 0.23163 0.0
H1778 H 0.39289 0.71147 0.25604 0.0
H1779 H 0.41142 0.7164 0.29568 0.0
H1780 H 0.36995 0.72919 0.35996 0.0
H1781 H 0.33548 0.72891 0.33562 0.0
C1782 C 0.33382 0.72404 0.28711 0.0
C1783 C 0.33578 0.72171 0.26184 0.0
C1784 C 0.35335 0.72255 0.30138 0.0
C1785 C 0.35715 0.71636 0.25104 0.0
C1786 C 0.37654 0.71482 0.265 0.0
C1787 C 0.39481 0.719 0.30433 0.0
C1788 C 0.39333 0.72306 0.32962 0.0
C1789 C 0.375 0.71854 0.2902 0.0
C1790 C 0.3716 0.72601 0.34056 0.0
C1791 C 0.35186 0.72591 0.32662 0.0
H1792 H 0.97368 0.41728 0.06419 0.0
H1793 H 0.02258 0.45868 0.02475 0.0
H1794 H 0.03342 0.42079 1.00018 0.0
H1795 H 0.02541 0.37667 0.98677 0.0
H1796 H 0.97433 0.33577 0.02472 0.0
H1797 H 0.96802 0.37228 0.05301 0.0
C1798 C 0.98735 0.41767 0.05084 0.0
C1799 C 0.99785 0.4405 0.04666 0.0
C1800 C 0.99266 0.39592 0.03612 0.0
C1801 C 0.01489 0.44115 0.02872 0.0
C1802 C 0.02074 0.41955 0.01443 0.0
C1803 C 0.01295 0.37569 1.00127 0.0
C1804 C 1.00028 0.35339 1.00339 0.0
C1805 C 0.00916 0.39695 0.0174 0.0
C1806 C 0.9845 0.3525 0.02264 0.0
C1807 C 0.98077 0.37346 0.03882 0.0
H1808 H 0.68651 0.7814 0.29563 0.0
H1809 H 0.64557 0.78805 0.23371 0.0
H1810 H 0.61049 0.78054 0.25699 0.0
H1811 H 0.5915 0.7724 0.29517 0.0
H1812 H 0.63263 0.76577 0.35726 0.0
H1813 H 0.66745 0.77339 0.33398 0.0
C1814 C 0.66985 0.78133 0.2874 0.0
C1815 C 0.66853 0.78516 0.26303 0.0
C1816 C 0.6498 0.77713 0.30097 0.0
C1817 C 0.64692 0.78487 0.25239 0.0
C1818 C 0.62691 0.78068 0.26572 0.0
C1819 C 0.60807 0.77242 0.30358 0.0
C1820 C 0.60932 0.76856 0.32802 0.0
C1821 C 0.62813 0.77673 0.29003 0.0
C1822 C 0.63103 0.76903 0.33862 0.0
C1823 C 0.65102 0.77325 0.32527 0.0
H1824 H 0.02727 0.05091 0.01615 0.0
H1825 H 0.08436 0.09134 0.05108 0.0
H1826 H 0.08268 0.12291 0.02321 0.0
H1827 H 0.06135 0.14166 0.99261 0.0
H1828 H 1.00377 0.10087 0.95789 0.0
H1829 H 0.00893 0.06714 0.98211 0.0
C1830 C 0.03985 0.06619 0.01692 0.0
C1831 C 0.05627 0.06857 0.03519 0.0
C1832 C 0.03815 0.08464 1.00139 0.0
C1833 C 0.07209 0.08877 0.03667 0.0
C1834 C 0.0708 0.10703 0.02101 0.0
C1835 C 0.05019 0.12522 0.9899 0.0
C1836 C 0.03185 0.12427 0.97362 0.0
C1837 C 0.05338 0.10559 1.00382 0.0
C1838 C 0.01758 0.10267 0.97069 0.0
C1839 C 0.02065 0.08316 0.98441 0.0
H1840 H 0.36343 0.30942 0.30643 0.0
H1841 H 0.32202 0.25479 0.26374 0.0
H1842 H 0.35449 0.24573 0.23622 0.0
H1843 H 0.39322 0.25752 0.22141 0.0
H1844 H 0.43433 0.31319 0.26386 0.0
H1845 H 0.40376 0.31772 0.29423 0.0
C1846 C 0.36197 0.29475 0.29172 0.0
C1847 C 0.34057 0.2823 0.28743 0.0
C1848 C 0.38054 0.2904 0.27549 0.0
C1849 C 0.33852 0.26401 0.26776 0.0
C1850 C 0.35697 0.25922 0.25179 0.0
C1851 C 0.39554 0.27051 0.23739 0.0
C1852 C 0.41607 0.28515 0.24014 0.0
C1853 C 0.37782 0.27299 0.25494 0.0
C1854 C 0.41884 0.30162 0.26121 0.0
C1855 C 0.4013 0.30427 0.27861 0.0
H1856 H 0.56012 0.42334 0.99311 0.0
H1857 H 0.56 0.48636 0.04646 0.0
H1858 H 0.55648 0.45912 0.07857 0.0
H1859 H 0.54816 0.41711 0.09096 0.0
H1860 H 0.54583 0.35453 0.0365 0.0
H1861 H 0.55512 0.38157 1.00549 0.0
C1862 C 0.55998 0.43099 0.01184 0.0
C1863 C 0.56063 0.4568 0.01744 0.0
C1864 C 0.55679 0.41519 0.03001 0.0
C1865 C 0.56012 0.4666 0.04173 0.0
C1866 C 0.55766 0.45097 0.06005 0.0
C1867 C 0.55 0.40938 0.07235 0.0
C1868 C 0.54586 0.38377 0.06611 0.0
C1869 C 0.55517 0.4252 0.05437 0.0
C1870 C 0.54835 0.37416 0.04183 0.0
C1871 C 0.55384 0.38961 0.02405 0.0
H1872 H 0.69595 0.23491 0.24904 0.0
H1873 H 0.65144 0.21771 0.30743 0.0
H1874 H 0.61782 0.22706 0.28484 0.0
H1875 H 0.60133 0.2408 0.24861 0.0
H1876 H 0.64628 0.25949 0.19064 0.0
H1877 H 0.67938 0.24865 0.21262 0.0
C1878 C 0.6788 0.23297 0.25652 0.0
C1879 C 0.67592 0.22538 0.2796 0.0
C1880 C 0.6597 0.2387 0.24352 0.0
C1881 C 0.65381 0.22331 0.28955 0.0
C1882 C 0.6347 0.22874 0.27668 0.0
C1883 C 0.61837 0.24271 0.24084 0.0
C1884 C 0.62118 0.25095 0.21791 0.0
C1885 C 0.63744 0.23664 0.2537 0.0
C1886 C 0.64346 0.25289 0.20806 0.0
C1887 C 0.66247 0.24681 0.22068 0.0
H1888 H 0.4609 0.11547 0.98104 0.0
H1889 H 0.51933 0.07652 0.99925 0.0
H1890 H 0.53339 0.11303 0.02551 0.0
H1891 H 0.52613 0.1542 0.04708 0.0
H1892 H 0.46571 0.1915 0.03032 0.0
H1893 H 0.45534 0.15769 0.99982 0.0
C1894 C 0.47698 0.11532 0.99038 0.0
C1895 C 0.48909 0.09349 0.98841 0.0
C1896 C 0.48431 0.13595 0.00607 0.0
C1897 C 0.50992 0.09328 1.00043 0.0
C1898 C 0.51772 0.11401 0.01566 0.0
C1899 C 0.51073 0.15497 0.03671 0.0
C1900 C 0.4967 0.17546 0.04121 0.0
C1901 C 0.50458 0.13514 0.01932 0.0
C1902 C 0.47702 0.17623 0.02722 0.0
C1903 C 0.47096 0.15679 0.0098 0.0
H1904 H 0.22119 0.35756 0.73166 0.0
H1905 H 0.26704 0.29842 0.73395 0.0
H1906 H 0.29992 0.32829 0.73796 0.0
H1907 H 0.31479 0.3718 0.74558 0.0
H1908 H 0.26785 0.43061 0.74464 0.0
H1909 H 0.23625 0.40052 0.73578 0.0
C1910 C 0.23847 0.35131 0.73267 0.0
C1911 C 0.24181 0.32598 0.73267 0.0
C1912 C 0.25701 0.36861 0.73575 0.0
C1913 C 0.26419 0.31788 0.73377 0.0
C1914 C 0.28289 0.33498 0.73634 0.0
C1915 C 0.29771 0.37801 0.74309 0.0
C1916 C 0.2937 0.4035 0.74623 0.0
C1917 C 0.27942 0.36048 0.73809 0.0
C1918 C 0.2714 0.41116 0.74294 0.0
C1919 C 0.2533 0.39396 0.73769 0.0
H1920 H 0.22715 0.66269 0.80462 0.0
H1921 H 0.27916 0.72101 0.80512 0.0
H1922 H 0.30908 0.69128 0.80701 0.0
H1923 H 0.32052 0.64813 0.80567 0.0
H1924 H 0.26819 0.58946 0.8021 0.0
H1925 H 0.23852 0.61963 0.80424 0.0
C1926 C 0.24506 0.6688 0.80539 0.0
C1927 C 0.25096 0.69403 0.8051 0.0
C1928 C 0.26215 0.65143 0.80566 0.0
C1929 C 0.27418 0.70183 0.80604 0.0
C1930 C 0.29129 0.68474 0.80675 0.0
C1931 C 0.30264 0.64189 0.80529 0.0
C1932 C 0.29677 0.6164 0.80375 0.0
C1933 C 0.28551 0.65941 0.80612 0.0
C1934 C 0.2734 0.60886 0.80366 0.0
C1935 C 0.25632 0.62614 0.80471 0.0
H1936 H 0.93902 0.51642 0.51501 0.0
H1937 H 0.91634 0.52731 0.44436 0.0
H1938 H 0.88147 0.50179 0.45008 0.0
H1939 H 0.85726 0.4768 0.47552 0.0
H1940 H 0.8797 0.46669 0.54671 0.0
H1941 H 0.91474 0.49141 0.54054 0.0
C1942 C 0.92634 0.51319 0.50098 0.0
C1943 C 0.93013 0.52364 0.47931 0.0
C1944 C 0.90631 0.49868 0.50453 0.0
C1945 C 0.91379 0.51921 0.46108 0.0
C1946 C 0.89385 0.50476 0.46442 0.0
C1947 C 0.86972 0.48017 0.48977 0.0
C1948 C 0.86577 0.46985 0.51156 0.0
C1949 C 0.88986 0.49449 0.48613 0.0
C1950 C 0.88235 0.47411 0.52966 0.0
C1951 C 0.90237 0.48837 0.5262 0.0
H1952 H 0.76138 0.82619 0.7745 0.0
H1953 H 0.78823 0.86348 0.84045 0.0
H1954 H 0.76315 0.89799 0.83757 0.0
H1955 H 0.7343 0.91787 0.81561 0.0
H1956 H 0.7062 0.87957 0.75025 0.0
H1957 H 0.73112 0.84542 0.75333 0.0
C1958 C 0.76151 0.84188 0.78821 0.0
C1959 C 0.77638 0.84242 0.80774 0.0
C1960 C 0.74697 0.86152 0.78642 0.0
C1961 C 0.77669 0.86277 0.82543 0.0
C1962 C 0.76243 0.88244 0.82371 0.0
C1963 C 0.73332 0.90194 0.80219 0.0
C1964 C 0.71834 0.9016 0.78261 0.0
C1965 C 0.74752 0.88206 0.80424 0.0
C1966 C 0.71777 0.88078 0.76526 0.0
C1967 C 0.73195 0.86106 0.76709 0.0
H1968 H 0.60983 0.48224 0.97252 0.0
H1969 H 0.57664 0.52435 0.03161 0.0
H1970 H 0.61212 0.5493 0.04024 0.0
H1971 H 0.65136 0.56208 0.02793 0.0
H1972 H 0.68326 0.52165 0.96635 0.0
H1973 H 0.64989 0.49325 0.96178 0.0
C1974 C 0.61079 0.49625 0.98785 0.0
C1975 C 0.59094 0.50095 1.00194 0.0
C1976 C 0.63093 0.51129 0.99184 0.0
C1977 C 0.59195 0.51984 0.02114 0.0
C1978 C 0.61212 0.5344 0.02573 0.0
C1979 C 0.65106 0.54708 0.01349 0.0
C1980 C 0.67002 0.54425 0.9975 0.0
C1981 C 0.63152 0.53083 0.01069 0.0
C1982 C 0.66924 0.52432 0.97917 0.0
C1983 C 0.65003 0.50803 0.97643 0.0
H1984 H 0.2987 0.67117 0.2274 0.0
H1985 H 0.27132 0.71898 0.28614 0.0
H1986 H 0.24569 0.68521 0.29756 0.0
H1987 H 0.22785 0.64349 0.28751 0.0
H1988 H 0.25448 0.59611 0.22751 0.0
H1989 H 0.28356 0.62795 0.21988 0.0
C1990 C 0.28776 0.67372 0.24327 0.0
C1991 C 0.28717 0.69723 0.25633 0.0
C1992 C 0.27251 0.65442 0.24906 0.0
C1993 C 0.27239 0.7008 0.27633 0.0
C1994 C 0.25751 0.68161 0.28255 0.0
C1995 C 0.2401 0.6401 0.27285 0.0
C1996 C 0.23878 0.61744 0.25799 0.0
C1997 C 0.25683 0.65859 0.2685 0.0
C1998 C 0.25507 0.61326 0.2393 0.0
C1999 C 0.27172 0.63152 0.23487 0.0
H2000 H 0.92932 0.51404 0.08498 0.0
H2001 H 0.9599 0.51194 0.01425 0.0
H2002 H 0.92995 0.53753 1.00161 0.0
H2003 H 0.89434 0.55933 0.01027 0.0
H2004 H 0.86503 0.56392 0.082 0.0
H2005 H 0.89492 0.53849 0.0945 0.0
C2006 C 0.92948 0.51947 0.06692 0.0
C2007 C 0.9466 0.51088 0.05046 0.0
C2008 C 0.91229 0.53447 0.05987 0.0
C2009 C 0.94665 0.51797 0.02707 0.0
C2010 C 0.92957 0.53267 0.01988 0.0
C2011 C 0.89458 0.55518 0.02876 0.0
C2012 C 0.87708 0.56354 0.04499 0.0
C2013 C 0.91217 0.54088 0.03606 0.0
C2014 C 0.87778 0.55741 0.0688 0.0
C2015 C 0.89506 0.54299 0.0761 0.0
H2016 H 0.07104 0.99375 0.0361 0.0
H2017 H 0.10765 0.05978 0.06581 0.0
H2018 H 0.14427 0.03982 0.05778 0.0
H2019 H 0.16528 1.00146 0.04773 0.0
H2020 H 0.12775 0.93435 0.02126 0.0
H2021 H 0.09223 0.95644 0.02287 0.0
C2022 C 0.08717 1.00392 0.0399 0.0
C2023 C 0.08679 0.02831 0.05102 0.0
C2024 C 0.10795 0.99177 0.03655 0.0
C2025 C 0.10763 0.04124 0.05663 0.0
C2026 C 0.1285 0.02963 0.05245 0.0
C2027 C 0.14939 0.99177 0.04195 0.0
C2028 C 0.14922 0.96614 0.03467 0.0
C2029 C 0.12883 1.00458 0.04327 0.0
C2030 C 0.12838 0.95391 0.02739 0.0
C2031 C 0.10804 0.96658 0.02814 0.0
loop_
_geom_bond_atom_site_label_1
_geom_bond_atom_site_label_2
_geom_bond_distance
_geom_bond_site_symmetry_2
_ccdc_geom_bond_type
C0 N1 1.317 1_565 S
C0 N2 1.348 1_465 S
C0 C3 1.485 . S
N1 C0 1.317 1_545 S
N1 N5 1.370 . S
N2 C0 1.348 1_645 S
N2 C4 1.346 . S
C3 C0 1.485 . S
C3 H7 0.960 . S
C3 H8 0.961 . S
C3 H9 0.960 . S
C4 N2 1.346 . S
C4 N5 1.307 1_655 S
C4 C6 1.486 . S
N5 N1 1.370 . S
N5 C4 1.307 1_455 S
C6 C4 1.486 . S
C6 H10 0.960 . S
C6 H11 0.960 . S
C6 H12 0.959 . S
H7 C3 0.960 . S
H8 C3 0.961 . S
H9 C3 0.960 . S
H10 C6 0.960 . S
H11 C6 0.960 . S
H12 C6 0.959 . S
C13 N14 1.317 . S
C13 N15 1.348 . S
C13 C16 1.485 . S
N14 C13 1.317 . S
N14 N18 1.370 . S
N15 C13 1.348 . S
N15 C17 1.346 . S
C16 C13 1.485 . S
C16 H20 0.960 . S
C16 H21 0.961 . S
C16 H22 0.960 . S
C17 N15 1.346 . S
C17 N18 1.307 . S
C17 C19 1.486 . S
N18 N14 1.370 . S
N18 C17 1.307 . S
C19 C17 1.486 . S
C19 H23 0.960 . S
C19 H24 0.960 . S
C19 H25 0.959 . S
H20 C16 0.960 . S
H21 C16 0.961 . S
H22 C16 0.960 . S
H23 C19 0.960 . S
H24 C19 0.960 . S
H25 C19 0.959 . S
C26 N27 1.317 . S
C26 N28 1.348 . S
C26 C29 1.485 . S
N27 C26 1.317 . S
N27 N31 1.370 . S
N28 C26 1.348 . S
N28 C30 1.346 . S
C29 C26 1.485 . S
C29 H33 0.960 . S
C29 H34 0.961 . S
C29 H35 0.960 . S
C30 N28 1.346 . S
C30 N31 1.307 . S
C30 C32 1.486 . S
N31 N27 1.370 . S
N31 C30 1.307 . S
C32 C30 1.486 . S
C32 H36 0.964 . S
C32 H37 0.960 . S
C32 H38 0.959 . S
H33 C29 0.960 . S
H34 C29 0.961 . S
H35 C29 0.960 . S
H36 C32 0.964 . S
H37 C32 0.960 . S
H38 C32 0.959 . S
C39 N40 1.317 . S
C39 N41 1.348 . S
C39 C42 1.485 . S
N40 C39 1.317 . S
N40 N44 1.370 . S
N41 C39 1.348 . S
N41 C43 1.346 . S
C42 C39 1.485 . S
C42 H46 0.960 . S
C42 H47 0.961 . S
C42 H48 0.960 . S
C43 N41 1.346 . S
C43 N44 1.307 . S
C43 C45 1.486 . S
N44 N40 1.370 . S
N44 C43 1.307 . S
C45 C43 1.486 . S
C45 H49 0.960 . S
C45 H50 0.960 . S
C45 H51 0.959 . S
H46 C42 0.960 . S
H47 C42 0.961 . S
H48 C42 0.960 . S
H49 C45 0.960 . S
H50 C45 0.960 . S
H51 C45 0.959 . S
C52 N53 1.317 . S
C52 N54 1.348 . S
C52 C55 1.485 . S
N53 C52 1.317 . S
N53 N57 1.370 . S
N54 C52 1.348 . S
N54 C56 1.346 1_565 S
C55 C52 1.485 . S
C55 H59 0.960 . S
C55 H60 0.961 1_455 S
C55 H61 0.960 . S
C56 N54 1.346 1_545 S
C56 N57 1.307 1_545 S
C56 C58 1.486 . S
N57 N53 1.370 . S
N57 C56 1.307 1_565 S
C58 C56 1.486 . S
C58 H62 0.960 . S
C58 H63 0.960 . S
C58 H64 0.959 . S
H59 C55 0.960 . S
H60 C55 0.961 1_655 S
H61 C55 0.960 . S
H62 C58 0.960 . S
H63 C58 0.960 . S
H64 C58 0.959 . S
C65 N66 1.317 . S
C65 N67 1.348 . S
C65 C68 1.485 . S
N66 C65 1.317 . S
N66 N70 1.370 . S
N67 C65 1.348 . S
N67 C69 1.346 . S
C68 C65 1.485 . S
C68 H72 0.960 . S
C68 H73 0.961 . S
C68 H74 0.960 . S
C69 N67 1.346 . S
C69 N70 1.307 . S
C69 C71 1.486 . S
N70 N66 1.370 . S
N70 C69 1.307 . S
C71 C69 1.486 . S
C71 H75 0.960 . S
C71 H76 0.960 . S
C71 H77 0.959 . S
H72 C68 0.960 . S
H73 C68 0.961 . S
H74 C68 0.960 . S
H75 C71 0.960 . S
H76 C71 0.960 . S
H77 C71 0.959 . S
C78 N79 1.317 . S
C78 N80 1.348 . S
C78 C81 1.485 . S
N79 C78 1.317 . S
N79 N83 1.370 . S
N80 C78 1.348 . S
N80 C82 1.346 . S
C81 C78 1.485 . S
C81 H85 0.960 . S
C81 H86 0.961 . S
C81 H87 0.960 . S
C82 N80 1.346 . S
C82 N83 1.307 . S
C82 C84 1.486 . S
N83 N79 1.370 . S
N83 C82 1.307 . S
C84 C82 1.486 . S
C84 H88 0.960 . S
C84 H89 0.960 . S
C84 H90 0.959 . S
H85 C81 0.960 . S
H86 C81 0.961 . S
H87 C81 0.960 . S
H88 C84 0.960 . S
H89 C84 0.960 . S
H90 C84 0.959 . S
C91 N92 1.317 . S
C91 N93 1.348 . S
C91 C94 1.485 . S
N92 C91 1.317 . S
N92 N96 1.370 . S
N93 C91 1.348 . S
N93 C95 1.346 . S
C94 C91 1.485 . S
C94 H98 0.960 . S
C94 H99 0.961 . S
C94 H100 0.960 . S
C95 N93 1.346 . S
C95 N96 1.307 . S
C95 C97 1.486 . S
N96 N92 1.370 . S
N96 C95 1.307 . S
C97 C95 1.486 . S
C97 H101 0.960 . S
C97 H102 0.960 . S
C97 H103 0.959 . S
H98 C94 0.960 . S
H99 C94 0.961 . S
H100 C94 0.960 . S
H101 C97 0.960 . S
H102 C97 0.960 . S
H103 C97 0.959 . S
C104 N105 1.317 . S
C104 N106 1.348 . S
C104 C107 1.485 . S
N105 C104 1.317 . S
N105 N109 1.370 . S
N106 C104 1.348 . S
N106 C108 1.346 . S
C107 C104 1.485 . S
C107 H111 0.960 . S
C107 H112 0.961 . S
C107 H113 0.960 . S
C108 N106 1.346 . S
C108 N109 1.307 . S
C108 C110 1.486 . S
N109 N105 1.370 . S
N109 C108 1.307 . S
C110 C108 1.486 . S
C110 H114 0.960 . S
C110 H115 0.960 . S
C110 H116 0.959 . S
H111 C107 0.960 . S
H112 C107 0.961 . S
H113 C107 0.960 . S
H114 C110 0.960 . S
H115 C110 0.960 . S
H116 C110 0.959 . S
C117 N118 1.317 . S
C117 N119 1.348 . S
C117 C120 1.485 1_565 S
N118 C117 1.317 . S
N118 N122 1.370 . S
N119 C117 1.348 . S
N119 C121 1.346 . S
C120 C117 1.485 1_545 S
C120 H124 0.960 . S
C120 H125 0.961 . S
C120 H126 0.960 . S
C121 N119 1.346 . S
C121 N122 1.307 . S
C121 C123 1.486 . S
N122 N118 1.370 . S
N122 C121 1.307 . S
C123 C121 1.486 . S
C123 H127 0.960 . S
C123 H128 0.960 . S
C123 H129 0.959 . S
H124 C120 0.960 . S
H125 C120 0.961 . S
H126 C120 0.960 . S
H127 C123 0.960 . S
H128 C123 0.960 . S
H129 C123 0.959 . S
C130 N131 1.317 . S
C130 N132 1.348 . S
C130 C133 1.485 . S
N131 C130 1.317 . S
N131 N135 1.370 . S
N132 C130 1.348 . S
N132 C134 1.346 . S
C133 C130 1.485 . S
C133 H137 0.960 . S
C133 H138 0.961 . S
C133 H139 0.960 . S
C134 N132 1.346 . S
C134 N135 1.307 . S
C134 C136 1.486 . S
N135 N131 1.370 . S
N135 C134 1.307 . S
C136 C134 1.486 . S
C136 H140 0.960 . S
C136 H141 0.960 . S
C136 H142 0.959 . S
H137 C133 0.960 . S
H138 C133 0.961 . S
H139 C133 0.960 . S
H140 C136 0.960 . S
H141 C136 0.960 . S
H142 C136 0.959 . S
C143 N144 1.317 . S
C143 N145 1.348 . S
C143 C146 1.485 . S
N144 C143 1.317 . S
N144 N148 1.370 . S
N145 C143 1.348 . S
N145 C147 1.346 . S
C146 C143 1.485 . S
C146 H150 0.960 . S
C146 H151 0.961 . S
C146 H152 0.960 . S
C147 N145 1.346 . S
C147 N148 1.307 . S
C147 C149 1.486 . S
N148 N144 1.370 . S
N148 C147 1.307 . S
C149 C147 1.486 . S
C149 H153 0.960 . S
C149 H154 0.960 . S
C149 H155 0.959 . S
H150 C146 0.960 . S
H151 C146 0.961 . S
H152 C146 0.960 . S
H153 C149 0.960 . S
H154 C149 0.960 . S
H155 C149 0.959 . S
C156 N157 1.317 . S
C156 N158 1.348 . S
C156 C159 1.485 . S
N157 C156 1.317 . S
N157 N161 1.370 . S
N158 C156 1.348 . S
N158 C160 1.346 . S
C159 C156 1.485 . S
C159 H163 0.960 . S
C159 H164 0.961 . S
C159 H165 0.960 . S
C160 N158 1.346 . S
C160 N161 1.307 . S
C160 C162 1.486 . S
N161 N157 1.370 . S
N161 C160 1.307 . S
C162 C160 1.486 . S
C162 H166 0.960 . S
C162 H167 0.960 . S
C162 H168 0.959 . S
H163 C159 0.960 . S
H164 C159 0.961 . S
H165 C159 0.960 . S
H166 C162 0.960 . S
H167 C162 0.960 . S
H168 C162 0.959 . S
C169 N170 1.317 . S
C169 N171 1.348 . S
C169 C172 1.485 . S
N170 C169 1.317 . S
N170 N174 1.370 . S
N171 C169 1.348 . S
N171 C173 1.346 . S
C172 C169 1.485 . S
C172 H176 0.960 . S
C172 H177 0.961 . S
C172 H178 0.960 . S
C173 N171 1.346 . S
C173 N174 1.307 . S
C173 C175 1.486 . S
N174 N170 1.370 . S
N174 C173 1.307 . S
C175 C173 1.486 . S
C175 H179 0.960 . S
C175 H180 0.960 . S
C175 H181 0.959 . S
H176 C172 0.960 . S
H177 C172 0.961 . S
H178 C172 0.960 . S
H179 C175 0.960 . S
H180 C175 0.960 . S
H181 C175 0.959 . S
C182 N183 1.317 . S
C182 N184 1.348 . S
C182 C185 1.485 . S
N183 C182 1.317 . S
N183 N187 1.370 . S
N184 C182 1.348 . S
N184 C186 1.346 . S
C185 C182 1.485 . S
C185 H189 0.960 . S
C185 H190 0.961 . S
C185 H191 0.960 . S
C186 N184 1.346 . S
C186 N187 1.307 . S
C186 C188 1.486 . S
N187 N183 1.370 . S
N187 C186 1.307 . S
C188 C186 1.486 . S
C188 H192 0.960 . S
C188 H193 0.960 . S
C188 H194 0.959 . S
H189 C185 0.960 . S
H190 C185 0.961 . S
H191 C185 0.960 . S
H192 C188 0.960 . S
H193 C188 0.960 . S
H194 C188 0.959 . S
C195 N196 1.317 . S
C195 N197 1.348 . S
C195 C198 1.485 . S
N196 C195 1.317 . S
N196 N200 1.370 . S
N197 C195 1.348 . S
N197 C199 1.346 . S
C198 C195 1.485 . S
C198 H202 0.960 . S
C198 H203 0.961 1_545 S
C198 H204 0.964 . S
C199 N197 1.346 . S
C199 N200 1.307 . S
C199 C201 1.486 1_556 S
N200 N196 1.370 . S
N200 C199 1.307 . S
C201 C199 1.486 1_554 S
C201 H205 0.960 . S
C201 H206 0.960 . S
C201 H207 0.959 . S
H202 C198 0.960 . S
H203 C198 0.961 1_565 S
H204 C198 0.964 . S
H205 C201 0.960 . S
H206 C201 0.960 . S
H207 C201 0.959 . S
Li208 N225 1.990 . S
Li208 O268 1.956 . S
Li208 O269 1.970 . S
Li208 O270 1.961 1_554 S
Li209 N233 1.990 . S
Li209 O268 1.970 . S
Li209 O269 1.956 . S
Li209 O271 1.961 . S
Li210 N255 1.990 . S
Li210 O268 1.961 1_556 S
Li210 O270 1.956 . S
Li210 O271 1.970 1_556 S
Li211 N261 1.990 . S
Li211 O269 1.961 . S
Li211 O270 1.970 1_554 S
Li211 O271 1.956 . S
C212 C214 1.328 1_556 S
C212 C215 1.379 . S
C212 O268 1.322 1_556 S
N213 C216 1.314 1_556 S
N213 C217 1.279 . S
C214 C212 1.328 1_554 S
C214 C216 1.353 . S
C214 H272 0.929 . S
C215 C212 1.379 . S
C215 C217 1.358 . S
C215 H273 0.930 . S
C216 N213 1.314 1_554 S
C216 C214 1.353 . S
C216 H274 0.930 . S
C217 N213 1.279 . S
C217 C215 1.358 . S
C217 H275 0.930 . S
C218 C221 1.348 . S
C218 C222 1.356 . S
C218 O269 1.325 . S
C219 N220 1.279 . S
C219 C222 1.358 . S
C219 H276 0.930 . S
N220 C219 1.279 . S
N220 C223 1.314 . S
C221 C218 1.348 . S
C221 C223 1.353 . S
C221 H277 0.929 . S
C222 C218 1.356 . S
C222 C219 1.358 . S
C222 H278 0.930 . S
C223 N220 1.314 . S
C223 C221 1.353 . S
C223 H279 0.930 . S
C224 N225 1.314 1_556 S
C224 C229 1.353 . S
C224 H230 0.930 . S
N225 Li208 1.990 . S
N225 C224 1.314 1_554 S
N225 C227 1.279 . S
C226 C227 1.358 . S
C226 C228 1.350 1_554 S
C226 H280 0.930 . S
C227 N225 1.279 . S
C227 C226 1.358 . S
C227 H231 0.930 . S
C228 C226 1.350 1_556 S
C228 C229 1.353 . S
C229 C224 1.353 . S
C229 C228 1.353 . S
C229 H281 0.929 . S
H230 C224 0.930 . S
H231 C227 0.930 . S
C232 N233 1.314 . S
C232 C234 1.353 . S
C232 H238 0.930 . S
N233 Li209 1.990 . S
N233 C232 1.314 . S
N233 C236 1.279 . S
C234 C232 1.353 . S
C234 C237 1.348 . S
C234 H282 0.929 . S
C235 C236 1.358 . S
C235 C237 1.356 . S
C235 H283 0.930 . S
C236 N233 1.279 . S
C236 C235 1.358 . S
C236 H239 0.930 . S
C237 C234 1.348 . S
C237 C235 1.356 . S
H238 C232 0.930 . S
H239 C236 0.930 . S
C240 C242 1.348 . S
C240 C243 1.356 . S
C240 O270 1.325 . S
N241 C244 1.314 . S
N241 C245 1.279 . S
C242 C240 1.348 . S
C242 C244 1.353 . S
C242 H284 0.929 . S
C243 C240 1.356 . S
C243 C245 1.358 . S
C243 H285 0.930 . S
C244 N241 1.314 . S
C244 C242 1.353 . S
C244 H286 0.930 . S
C245 N241 1.279 . S
C245 C243 1.358 . S
C245 H287 0.930 . S
C246 C247 1.348 1_554 S
C246 C248 1.356 . S
C246 O271 1.325 . S
C247 C246 1.348 1_556 S
C247 C249 1.354 . S
C247 H288 0.929 . S
C248 C246 1.356 . S
C248 C250 1.358 . S
C248 H289 0.930 . S
C249 C247 1.354 . S
C249 N251 1.311 1_556 S
C249 H290 0.932 . S
C250 C248 1.358 . S
C250 N251 1.279 . S
C250 H291 0.930 . S
N251 C249 1.311 1_554 S
N251 C250 1.279 . S
C252 C254 1.353 . S
C252 N255 1.314 . S
C252 H258 0.930 . S
C253 N255 1.279 . S
C253 C256 1.358 . S
C253 H259 0.930 . S
C254 C252 1.353 . S
C254 C257 1.348 . S
C254 H292 0.929 . S
N255 Li210 1.990 . S
N255 C252 1.314 . S
N255 C253 1.279 . S
C256 C253 1.358 . S
C256 C257 1.356 . S
C256 H293 0.930 . S
C257 C254 1.348 . S
C257 C256 1.356 . S
H258 C252 0.930 . S
H259 C253 0.930 . S
C260 N261 1.314 . S
C260 C262 1.353 . S
C260 H266 0.930 . S
N261 Li211 1.990 . S
N261 C260 1.314 . S
N261 C264 1.279 . S
C262 C260 1.353 . S
C262 C265 1.348 . S
C262 H294 0.929 . S
C263 C264 1.358 . S
C263 C265 1.356 . S
C263 H295 0.930 . S
C264 N261 1.279 . S
C264 C263 1.358 . S
C264 H267 0.930 . S
C265 C262 1.348 . S
C265 C263 1.356 . S
H266 C260 0.930 . S
H267 C264 0.930 . S
O268 Li208 1.956 . S
O268 Li209 1.970 . S
O268 Li210 1.961 1_554 S
O268 C212 1.322 1_554 S
O269 Li208 1.970 . S
O269 Li209 1.956 . S
O269 Li211 1.961 . S
O269 C218 1.325 . S
O270 Li208 1.961 1_556 S
O270 Li210 1.956 . S
O270 Li211 1.970 1_556 S
O270 C240 1.325 . S
O271 Li209 1.961 . S
O271 Li210 1.970 1_554 S
O271 Li211 1.956 . S
O271 C246 1.325 . S
H272 C214 0.929 . S
H273 C215 0.930 . S
H274 C216 0.930 . S
H275 C217 0.930 . S
H276 C219 0.930 . S
H277 C221 0.929 . S
H278 C222 0.930 . S
H279 C223 0.930 . S
H280 C226 0.930 . S
H281 C229 0.929 . S
H282 C234 0.929 . S
H283 C235 0.930 . S
H284 C242 0.929 . S
H285 C243 0.930 . S
H286 C244 0.930 . S
H287 C245 0.930 . S
H288 C247 0.929 . S
H289 C248 0.930 . S
H290 C249 0.932 . S
H291 C250 0.930 . S
H292 C254 0.929 . S
H293 C256 0.930 . S
H294 C262 0.929 . S
H295 C263 0.930 . S
Li296 N313 1.990 . S
Li296 O356 1.956 . S
Li296 O357 1.970 . S
Li296 O358 1.961 . S
Li297 N321 1.990 . S
Li297 O356 1.970 . S
Li297 O357 1.956 . S
Li297 O359 1.961 . S
Li298 N343 1.990 . S
Li298 O356 1.961 . S
Li298 O358 1.956 . S
Li298 O359 1.970 . S
Li299 N349 1.990 . S
Li299 O357 1.961 . S
Li299 O358 1.970 . S
Li299 O359 1.956 . S
C300 C302 1.348 . S
C300 C303 1.356 . S
C300 O356 1.325 . S
N301 C304 1.314 . S
N301 C305 1.279 . S
C302 C300 1.348 . S
C302 C304 1.353 . S
C302 H360 0.929 . S
C303 C300 1.356 . S
C303 C305 1.358 . S
C303 H361 0.930 . S
C304 N301 1.314 . S
C304 C302 1.353 . S
C304 H362 0.930 . S
C305 N301 1.279 . S
C305 C303 1.358 . S
C305 H363 0.930 . S
C306 C309 1.348 . S
C306 C310 1.356 . S
C306 O357 1.325 . S
C307 N308 1.279 . S
C307 C310 1.358 . S
C307 H364 0.930 . S
N308 C307 1.279 . S
N308 C311 1.314 . S
C309 C306 1.348 . S
C309 C311 1.353 . S
C309 H365 0.929 . S
C310 C306 1.356 . S
C310 C307 1.358 . S
C310 H366 0.930 . S
C311 N308 1.314 . S
C311 C309 1.353 . S
C311 H367 0.930 . S
C312 N313 1.314 . S
C312 C317 1.353 . S
C312 H318 0.930 . S
N313 Li296 1.990 . S
N313 C312 1.314 . S
N313 C315 1.279 . S
C314 C315 1.358 . S
C314 C316 1.356 . S
C314 H368 0.930 . S
C315 N313 1.279 . S
C315 C314 1.358 . S
C315 H319 0.930 . S
C316 C314 1.356 . S
C316 C317 1.348 . S
C317 C312 1.353 . S
C317 C316 1.348 . S
C317 H369 0.929 . S
H318 C312 0.930 . S
H319 C315 0.930 . S
C320 N321 1.314 . S
C320 C322 1.353 . S
C320 H326 0.930 . S
N321 Li297 1.990 . S
N321 C320 1.314 . S
N321 C324 1.279 . S
C322 C320 1.353 . S
C322 C325 1.348 . S
C322 H370 0.929 . S
C323 C324 1.358 . S
C323 C325 1.356 . S
C323 H371 0.930 . S
C324 N321 1.279 . S
C324 C323 1.358 . S
C324 H327 0.930 . S
C325 C322 1.348 . S
C325 C323 1.356 . S
H326 C320 0.930 . S
H327 C324 0.930 . S
C328 C330 1.348 . S
C328 C331 1.356 . S
C328 O358 1.325 . S
N329 C332 1.314 . S
N329 C333 1.279 . S
C330 C328 1.348 . S
C330 C332 1.353 . S
C330 H372 0.929 . S
C331 C328 1.356 . S
C331 C333 1.358 . S
C331 H373 0.930 . S
C332 N329 1.314 . S
C332 C330 1.353 . S
C332 H374 0.930 . S
C333 N329 1.279 . S
C333 C331 1.358 . S
C333 H375 0.930 . S
C334 C335 1.348 . S
C334 C336 1.356 . S
C334 O359 1.325 . S
C335 C334 1.348 . S
C335 C337 1.353 . S
C335 H376 0.929 . S
C336 C334 1.356 . S
C336 C338 1.358 . S
C336 H377 0.930 . S
C337 C335 1.353 . S
C337 N339 1.314 . S
C337 H378 0.930 . S
C338 C336 1.358 . S
C338 N339 1.279 . S
C338 H379 0.930 . S
N339 C337 1.314 . S
N339 C338 1.279 . S
C340 C342 1.353 . S
C340 N343 1.314 . S
C340 H346 0.930 . S
C341 N343 1.279 . S
C341 C344 1.358 . S
C341 H347 0.930 . S
C342 C340 1.353 . S
C342 C345 1.348 . S
C342 H380 0.929 . S
N343 Li298 1.990 . S
N343 C340 1.314 . S
N343 C341 1.279 . S
C344 C341 1.358 . S
C344 C345 1.356 . S
C344 H381 0.930 . S
C345 C342 1.348 . S
C345 C344 1.356 . S
H346 C340 0.930 . S
H347 C341 0.930 . S
C348 N349 1.314 . S
C348 C350 1.353 . S
C348 H354 0.930 . S
N349 Li299 1.990 . S
N349 C348 1.314 . S
N349 C352 1.279 . S
C350 C348 1.353 . S
C350 C353 1.348 . S
C350 H382 0.929 . S
C351 C352 1.358 . S
C351 C353 1.356 . S
C351 H383 0.930 . S
C352 N349 1.279 . S
C352 C351 1.358 . S
C352 H355 0.930 . S
C353 C350 1.348 . S
C353 C351 1.356 . S
H354 C348 0.930 . S
H355 C352 0.930 . S
O356 Li296 1.956 . S
O356 Li297 1.970 . S
O356 Li298 1.961 . S
O356 C300 1.325 . S
O357 Li296 1.970 . S
O357 Li297 1.956 . S
O357 Li299 1.961 . S
O357 C306 1.325 . S
O358 Li296 1.961 . S
O358 Li298 1.956 . S
O358 Li299 1.970 . S
O358 C328 1.325 . S
O359 Li297 1.961 . S
O359 Li298 1.970 . S
O359 Li299 1.956 . S
O359 C334 1.325 . S
H360 C302 0.929 . S
H361 C303 0.930 . S
H362 C304 0.930 . S
H363 C305 0.930 . S
H364 C307 0.930 . S
H365 C309 0.929 . S
H366 C310 0.930 . S
H367 C311 0.930 . S
H368 C314 0.930 . S
H369 C317 0.929 . S
H370 C322 0.929 . S
H371 C323 0.930 . S
H372 C330 0.929 . S
H373 C331 0.930 . S
H374 C332 0.930 . S
H375 C333 0.930 . S
H376 C335 0.929 . S
H377 C336 0.930 . S
H378 C337 0.930 . S
H379 C338 0.930 . S
H380 C342 0.929 . S
H381 C344 0.930 . S
H382 C350 0.929 . S
H383 C351 0.930 . S
Li384 N401 1.990 1_554 S
Li384 O444 1.956 . S
Li384 O445 1.970 . S
Li384 O446 1.961 1_554 S
Li385 N409 1.990 . S
Li385 O444 1.970 . S
Li385 O445 1.956 . S
Li385 O447 1.961 . S
Li386 N431 1.990 . S
Li386 O444 1.961 1_556 S
Li386 O446 1.956 . S
Li386 O447 1.970 1_556 S
Li387 N437 1.990 . S
Li387 O445 1.961 . S
Li387 O446 1.970 1_554 S
Li387 O447 1.956 . S
C388 C390 1.348 . S
C388 C391 1.356 1_554 S
C388 O444 1.325 . S
N389 C392 1.319 . S
N389 C393 1.275 1_554 S
C390 C388 1.348 . S
C390 C392 1.353 . S
C390 H448 0.929 . S
C391 C388 1.356 1_556 S
C391 C393 1.358 . S
C391 H449 0.930 . S
C392 N389 1.319 . S
C392 C390 1.353 . S
C392 H450 0.930 . S
C393 N389 1.275 1_556 S
C393 C391 1.358 . S
C393 H451 0.930 . S
C394 C397 1.348 . S
C394 C398 1.356 . S
C394 O445 1.325 . S
C395 N396 1.279 . S
C395 C398 1.358 . S
C395 H452 0.930 . S
N396 C395 1.279 . S
N396 C399 1.314 . S
C397 C394 1.348 . S
C397 C399 1.353 . S
C397 H453 0.929 . S
C398 C394 1.356 . S
C398 C395 1.358 . S
C398 H454 0.930 . S
C399 N396 1.314 . S
C399 C397 1.353 . S
C399 H455 0.930 . S
C400 N401 1.314 . S
C400 C405 1.353 . S
C400 H406 0.930 . S
N401 Li384 1.990 1_556 S
N401 C400 1.314 . S
N401 C403 1.279 . S
C402 C403 1.358 . S
C402 C404 1.356 . S
C402 H456 0.930 . S
C403 N401 1.279 . S
C403 C402 1.358 . S
C403 H407 0.928 1_556 S
C404 C402 1.356 . S
C404 C405 1.348 . S
C405 C400 1.353 . S
C405 C404 1.348 . S
C405 H457 0.929 . S
H406 C400 0.930 . S
H407 C403 0.928 1_554 S
C408 N409 1.314 . S
C408 C410 1.353 . S
C408 H414 0.930 . S
N409 Li385 1.990 . S
N409 C408 1.314 . S
N409 C412 1.279 . S
C410 C408 1.353 . S
C410 C413 1.348 . S
C410 H458 0.929 . S
C411 C412 1.358 . S
C411 C413 1.356 . S
C411 H459 0.930 . S
C412 N409 1.279 . S
C412 C411 1.358 . S
C412 H415 0.930 . S
C413 C410 1.348 . S
C413 C411 1.356 . S
H414 C408 0.930 . S
H415 C412 0.930 . S
C416 C418 1.348 . S
C416 C419 1.356 . S
C416 O446 1.325 . S
N417 C420 1.314 . S
N417 C421 1.279 . S
C418 C416 1.348 . S
C418 C420 1.353 . S
C418 H460 0.929 . S
C419 C416 1.356 . S
C419 C421 1.358 . S
C419 H461 0.930 . S
C420 N417 1.314 . S
C420 C418 1.353 . S
C420 H462 0.930 . S
C421 N417 1.279 . S
C421 C419 1.358 . S
C421 H463 0.930 . S
C422 C423 1.348 . S
C422 C424 1.356 . S
C422 O447 1.325 . S
C423 C422 1.348 . S
C423 C425 1.353 . S
C423 H464 0.929 1_554 S
C424 C422 1.356 . S
C424 C426 1.358 . S
C424 H465 0.930 . S
C425 C423 1.353 . S
C425 N427 1.314 . S
C425 H466 0.914 1_554 S
C426 C424 1.358 . S
C426 N427 1.279 . S
C426 H467 0.930 . S
N427 C425 1.314 . S
N427 C426 1.279 . S
C428 C430 1.353 . S
C428 N431 1.314 . S
C428 H434 0.930 . S
C429 N431 1.279 . S
C429 C432 1.358 . S
C429 H435 0.930 . S
C430 C428 1.353 . S
C430 C433 1.348 . S
C430 H468 0.929 . S
N431 Li386 1.990 . S
N431 C428 1.314 . S
N431 C429 1.279 . S
C432 C429 1.358 . S
C432 C433 1.356 . S
C432 H469 0.930 . S
C433 C430 1.348 . S
C433 C432 1.356 . S
H434 C428 0.930 . S
H435 C429 0.930 . S
C436 N437 1.314 . S
C436 C438 1.353 . S
C436 H442 0.930 . S
N437 Li387 1.990 . S
N437 C436 1.314 . S
N437 C440 1.279 . S
C438 C436 1.353 . S
C438 C441 1.348 . S
C438 H470 0.929 . S
C439 C440 1.358 . S
C439 C441 1.356 . S
C439 H471 0.930 . S
C440 N437 1.279 . S
C440 C439 1.358 . S
C440 H443 0.930 . S
C441 C438 1.348 . S
C441 C439 1.356 . S
H442 C436 0.930 . S
H443 C440 0.930 . S
O444 Li384 1.956 . S
O444 Li385 1.970 . S
O444 Li386 1.961 1_554 S
O444 C388 1.325 . S
O445 Li384 1.970 . S
O445 Li385 1.956 . S
O445 Li387 1.961 . S
O445 C394 1.325 . S
O446 Li384 1.961 1_556 S
O446 Li386 1.956 . S
O446 Li387 1.970 1_556 S
O446 C416 1.325 . S
O447 Li385 1.961 . S
O447 Li386 1.970 1_554 S
O447 Li387 1.956 . S
O447 C422 1.325 . S
H448 C390 0.929 . S
H449 C391 0.930 . S
H450 C392 0.930 . S
H451 C393 0.930 . S
H452 C395 0.930 . S
H453 C397 0.929 . S
H454 C398 0.930 . S
H455 C399 0.930 . S
H456 C402 0.930 . S
H457 C405 0.929 . S
H458 C410 0.929 . S
H459 C411 0.930 . S
H460 C418 0.929 . S
H461 C419 0.930 . S
H462 C420 0.930 . S
H463 C421 0.930 . S
H464 C423 0.929 1_556 S
H465 C424 0.930 . S
H466 C425 0.914 1_556 S
H467 C426 0.930 . S
H468 C430 0.929 . S
H469 C432 0.930 . S
H470 C438 0.929 . S
H471 C439 0.930 . S
Li472 N489 1.990 . S
Li472 O532 1.956 . S
Li472 O533 1.970 . S
Li472 O534 1.985 . S
Li473 N497 1.997 . S
Li473 O532 1.970 . S
Li473 O533 1.956 . S
Li473 O535 1.961 1_545 S
Li474 N519 1.990 . S
Li474 O532 1.961 . S
Li474 O534 1.956 . S
Li474 O535 1.970 1_545 S
Li475 N525 1.990 . S
Li475 O533 1.961 1_565 S
Li475 O534 1.941 1_565 S
Li475 O535 1.956 . S
C476 C478 1.348 . S
C476 C479 1.356 . S
C476 O532 1.325 . S
N477 C480 1.314 . S
N477 C481 1.279 . S
C478 C476 1.348 . S
C478 C480 1.353 . S
C478 H536 0.929 . S
C479 C476 1.356 . S
C479 C481 1.358 . S
C479 H537 0.930 . S
C480 N477 1.314 . S
C480 C478 1.353 . S
C480 H538 0.930 . S
C481 N477 1.279 . S
C481 C479 1.358 . S
C481 H539 0.930 . S
C482 C485 1.348 . S
C482 C486 1.356 1_545 S
C482 O533 1.325 . S
C483 N484 1.295 . S
C483 C486 1.358 . S
C483 H540 0.930 . S
N484 C483 1.295 . S
N484 C487 1.296 1_565 S
C485 C482 1.348 . S
C485 C487 1.353 . S
C485 H541 0.929 . S
C486 C482 1.356 1_565 S
C486 C483 1.358 . S
C486 H542 0.930 . S
C487 N484 1.296 1_545 S
C487 C485 1.353 . S
C487 H543 0.930 . S
C488 N489 1.314 . S
C488 C493 1.353 . S
C488 H494 0.930 . S
N489 Li472 1.990 . S
N489 C488 1.314 . S
N489 C491 1.279 . S
C490 C491 1.358 . S
C490 C492 1.356 . S
C490 H544 0.930 . S
C491 N489 1.279 . S
C491 C490 1.358 . S
C491 H495 0.930 . S
C492 C490 1.356 . S
C492 C493 1.348 . S
C493 C488 1.353 . S
C493 C492 1.348 . S
C493 H545 0.929 . S
H494 C488 0.930 . S
H495 C491 0.930 . S
C496 N497 1.305 1_565 S
C496 C498 1.353 . S
C496 H502 0.930 . S
N497 Li473 1.997 . S
N497 C496 1.305 1_545 S
N497 C500 1.286 . S
C498 C496 1.353 . S
C498 C501 1.348 1_565 S
C498 H546 0.929 . S
C499 C500 1.358 . S
C499 C501 1.356 . S
C499 H547 0.930 . S
C500 N497 1.286 . S
C500 C499 1.358 . S
C500 H503 0.930 . S
C501 C498 1.348 1_545 S
C501 C499 1.356 . S
H502 C496 0.930 . S
H503 C500 0.930 . S
C504 C506 1.320 1_545 S
C504 C507 1.388 . S
C504 O534 1.325 . S
N505 C508 1.272 1_545 S
N505 C509 1.315 . S
C506 C504 1.320 1_565 S
C506 C508 1.353 . S
C506 H548 0.929 . S
C507 C504 1.388 . S
C507 C509 1.358 . S
C507 H549 0.930 . S
C508 N505 1.272 1_565 S
C508 C506 1.353 . S
C508 H550 0.930 . S
C509 N505 1.315 . S
C509 C507 1.358 . S
C509 H551 0.930 . S
C510 C511 1.348 . S
C510 C512 1.356 . S
C510 O535 1.325 . S
C511 C510 1.348 . S
C511 C513 1.353 . S
C511 H552 0.929 . S
C512 C510 1.356 . S
C512 C514 1.358 . S
C512 H553 0.930 . S
C513 C511 1.353 . S
C513 N515 1.314 . S
C513 H554 0.930 . S
C514 C512 1.358 . S
C514 N515 1.279 . S
C514 H555 0.930 . S
N515 C513 1.314 . S
N515 C514 1.279 . S
C516 C518 1.353 . S
C516 N519 1.314 . S
C516 H522 0.930 . S
C517 N519 1.279 1_565 S
C517 C520 1.358 . S
C517 H523 0.930 . S
C518 C516 1.353 . S
C518 C521 1.348 . S
C518 H556 0.929 . S
N519 Li474 1.990 . S
N519 C516 1.314 . S
N519 C517 1.279 1_545 S
C520 C517 1.358 . S
C520 C521 1.356 1_565 S
C520 H557 0.930 . S
C521 C518 1.348 . S
C521 C520 1.356 1_545 S
H522 C516 0.930 . S
H523 C517 0.930 . S
C524 N525 1.314 . S
C524 C526 1.353 . S
C524 H530 0.930 . S
N525 Li475 1.990 . S
N525 C524 1.314 . S
N525 C528 1.279 . S
C526 C524 1.353 . S
C526 C529 1.348 . S
C526 H558 0.929 . S
C527 C528 1.358 . S
C527 C529 1.356 . S
C527 H559 0.930 . S
C528 N525 1.279 . S
C528 C527 1.358 . S
C528 H531 0.930 . S
C529 C526 1.348 . S
C529 C527 1.356 . S
H530 C524 0.930 . S
H531 C528 0.930 . S
O532 Li472 1.956 . S
O532 Li473 1.970 . S
O532 Li474 1.961 . S
O532 C476 1.325 . S
O533 Li472 1.970 . S
O533 Li473 1.956 . S
O533 Li475 1.961 1_545 S
O533 C482 1.325 . S
O534 Li472 1.985 . S
O534 Li474 1.956 . S
O534 Li475 1.941 1_545 S
O534 C504 1.325 . S
O535 Li473 1.961 1_565 S
O535 Li474 1.970 1_565 S
O535 Li475 1.956 . S
O535 C510 1.325 . S
H536 C478 0.929 . S
H537 C479 0.930 . S
H538 C480 0.930 . S
H539 C481 0.930 . S
H540 C483 0.930 . S
H541 C485 0.929 . S
H542 C486 0.930 . S
H543 C487 0.930 . S
H544 C490 0.930 . S
H545 C493 0.929 . S
H546 C498 0.929 . S
H547 C499 0.930 . S
H548 C506 0.929 . S
H549 C507 0.930 . S
H550 C508 0.930 . S
H551 C509 0.930 . S
H552 C511 0.929 . S
H553 C512 0.930 . S
H554 C513 0.930 . S
H555 C514 0.930 . S
H556 C518 0.929 . S
H557 C520 0.930 . S
H558 C526 0.929 . S
H559 C527 0.930 . S
Li560 N577 1.990 . S
Li560 O620 1.956 . S
Li560 O621 1.970 . S
Li560 O622 1.961 . S
Li561 N585 1.990 . S
Li561 O620 1.970 . S
Li561 O621 1.956 . S
Li561 O623 1.961 . S
Li562 N607 1.990 . S
Li562 O620 1.961 . S
Li562 O622 1.956 . S
Li562 O623 1.970 . S
Li563 N613 1.990 . S
Li563 O621 1.961 . S
Li563 O622 1.970 . S
Li563 O623 1.956 . S
C564 C566 1.348 . S
C564 C567 1.356 . S
C564 O620 1.325 . S
N565 C568 1.314 . S
N565 C569 1.279 . S
C566 C564 1.348 . S
C566 C568 1.353 . S
C566 H624 0.929 . S
C567 C564 1.356 . S
C567 C569 1.358 . S
C567 H625 0.930 . S
C568 N565 1.314 . S
C568 C566 1.353 . S
C568 H626 0.930 . S
C569 N565 1.279 . S
C569 C567 1.358 . S
C569 H627 0.930 . S
C570 C573 1.348 . S
C570 C574 1.356 . S
C570 O621 1.325 . S
C571 N572 1.279 . S
C571 C574 1.358 . S
C571 H628 0.930 . S
N572 C571 1.279 . S
N572 C575 1.314 . S
C573 C570 1.348 . S
C573 C575 1.353 . S
C573 H629 0.929 . S
C574 C570 1.356 . S
C574 C571 1.358 . S
C574 H630 0.930 . S
C575 N572 1.314 . S
C575 C573 1.353 . S
C575 H631 0.930 . S
C576 N577 1.314 . S
C576 C581 1.353 . S
C576 H582 0.930 . S
N577 Li560 1.990 . S
N577 C576 1.314 . S
N577 C579 1.279 . S
C578 C579 1.358 . S
C578 C580 1.356 . S
C578 H632 0.930 . S
C579 N577 1.279 . S
C579 C578 1.358 . S
C579 H583 0.930 . S
C580 C578 1.356 . S
C580 C581 1.348 . S
C581 C576 1.353 . S
C581 C580 1.348 . S
C581 H633 0.929 . S
H582 C576 0.930 . S
H583 C579 0.930 . S
C584 N585 1.314 . S
C584 C586 1.353 . S
C584 H590 0.930 . S
N585 Li561 1.990 . S
N585 C584 1.314 . S
N585 C588 1.279 . S
C586 C584 1.353 . S
C586 C589 1.348 . S
C586 H634 0.929 . S
C587 C588 1.358 . S
C587 C589 1.356 . S
C587 H635 0.930 . S
C588 N585 1.279 . S
C588 C587 1.358 . S
C588 H591 0.930 . S
C589 C586 1.348 . S
C589 C587 1.356 . S
H590 C584 0.930 . S
H591 C588 0.930 . S
C592 C594 1.348 . S
C592 C595 1.356 . S
C592 O622 1.325 . S
N593 C596 1.314 . S
N593 C597 1.279 . S
C594 C592 1.348 . S
C594 C596 1.353 . S
C594 H636 0.929 . S
C595 C592 1.356 . S
C595 C597 1.358 . S
C595 H637 0.930 . S
C596 N593 1.314 . S
C596 C594 1.353 . S
C596 H638 0.930 . S
C597 N593 1.279 . S
C597 C595 1.358 . S
C597 H639 0.930 . S
C598 C599 1.348 . S
C598 C600 1.356 . S
C598 O623 1.325 . S
C599 C598 1.348 . S
C599 C601 1.353 . S
C599 H640 0.929 . S
C600 C598 1.356 . S
C600 C602 1.358 . S
C600 H641 0.930 . S
C601 C599 1.353 . S
C601 N603 1.314 . S
C601 H642 0.930 . S
C602 C600 1.358 . S
C602 N603 1.279 . S
C602 H643 0.930 . S
N603 C601 1.314 . S
N603 C602 1.279 . S
C604 C606 1.353 . S
C604 N607 1.314 . S
C604 H610 0.930 . S
C605 N607 1.279 . S
C605 C608 1.358 . S
C605 H611 0.930 . S
C606 C604 1.353 . S
C606 C609 1.348 . S
C606 H644 0.929 . S
N607 Li562 1.990 . S
N607 C604 1.314 . S
N607 C605 1.279 . S
C608 C605 1.358 . S
C608 C609 1.356 . S
C608 H645 0.930 . S
C609 C606 1.348 . S
C609 C608 1.356 . S
H610 C604 0.930 . S
H611 C605 0.930 . S
C612 N613 1.314 . S
C612 C614 1.353 . S
C612 H618 0.930 . S
N613 Li563 1.990 . S
N613 C612 1.314 . S
N613 C616 1.279 . S
C614 C612 1.353 . S
C614 C617 1.348 . S
C614 H646 0.929 . S
C615 C616 1.358 . S
C615 C617 1.356 . S
C615 H647 0.930 . S
C616 N613 1.279 . S
C616 C615 1.358 . S
C616 H619 0.930 . S
C617 C614 1.348 . S
C617 C615 1.356 . S
H618 C612 0.930 . S
H619 C616 0.930 . S
O620 Li560 1.956 . S
O620 Li561 1.970 . S
O620 Li562 1.961 . S
O620 C564 1.325 . S
O621 Li560 1.970 . S
O621 Li561 1.956 . S
O621 Li563 1.961 . S
O621 C570 1.325 . S
O622 Li560 1.961 . S
O622 Li562 1.956 . S
O622 Li563 1.970 . S
O622 C592 1.325 . S
O623 Li561 1.961 . S
O623 Li562 1.970 . S
O623 Li563 1.956 . S
O623 C598 1.325 . S
H624 C566 0.929 . S
H625 C567 0.930 . S
H626 C568 0.930 . S
H627 C569 0.930 . S
H628 C571 0.930 . S
H629 C573 0.929 . S
H630 C574 0.930 . S
H631 C575 0.930 . S
H632 C578 0.930 . S
H633 C581 0.929 . S
H634 C586 0.929 . S
H635 C587 0.930 . S
H636 C594 0.929 . S
H637 C595 0.930 . S
H638 C596 0.930 . S
H639 C597 0.930 . S
H640 C599 0.929 . S
H641 C600 0.930 . S
H642 C601 0.930 . S
H643 C602 0.930 . S
H644 C606 0.929 . S
H645 C608 0.930 . S
H646 C614 0.929 . S
H647 C615 0.930 . S
Li648 N665 1.990 . S
Li648 O708 1.956 . S
Li648 O709 1.970 . S
Li648 O710 1.961 . S
Li649 N673 1.990 . S
Li649 O708 1.970 . S
Li649 O709 1.956 . S
Li649 O711 1.961 . S
Li650 N695 1.990 . S
Li650 O708 1.961 . S
Li650 O710 1.956 . S
Li650 O711 1.970 . S
Li651 N701 1.990 . S
Li651 O709 1.961 . S
Li651 O710 1.970 . S
Li651 O711 1.956 . S
C652 C654 1.348 . S
C652 C655 1.356 . S
C652 O708 1.325 . S
N653 C656 1.314 . S
N653 C657 1.279 . S
C654 C652 1.348 . S
C654 C656 1.353 . S
C654 H712 0.929 . S
C655 C652 1.356 . S
C655 C657 1.358 . S
C655 H713 0.930 . S
C656 N653 1.314 . S
C656 C654 1.353 . S
C656 H714 0.930 . S
C657 N653 1.279 . S
C657 C655 1.358 . S
C657 H715 0.930 . S
C658 C661 1.348 . S
C658 C662 1.356 . S
C658 O709 1.325 . S
C659 N660 1.279 . S
C659 C662 1.358 . S
C659 H716 0.930 . S
N660 C659 1.279 . S
N660 C663 1.314 . S
C661 C658 1.348 . S
C661 C663 1.353 . S
C661 H717 0.929 . S
C662 C658 1.356 . S
C662 C659 1.358 . S
C662 H718 0.930 . S
C663 N660 1.314 . S
C663 C661 1.353 . S
C663 H719 0.930 . S
C664 N665 1.314 . S
C664 C669 1.353 . S
C664 H670 0.930 . S
N665 Li648 1.990 . S
N665 C664 1.314 . S
N665 C667 1.279 . S
C666 C667 1.358 . S
C666 C668 1.356 . S
C666 H720 0.930 . S
C667 N665 1.279 . S
C667 C666 1.358 . S
C667 H671 0.930 . S
C668 C666 1.356 . S
C668 C669 1.348 . S
C669 C664 1.353 . S
C669 C668 1.348 . S
C669 H721 0.929 . S
H670 C664 0.930 . S
H671 C667 0.930 . S
C672 N673 1.314 . S
C672 C674 1.353 . S
C672 H678 0.930 . S
N673 Li649 1.990 . S
N673 C672 1.314 . S
N673 C676 1.279 . S
C674 C672 1.353 . S
C674 C677 1.348 . S
C674 H722 0.929 . S
C675 C676 1.358 . S
C675 C677 1.356 . S
C675 H723 0.930 . S
C676 N673 1.279 . S
C676 C675 1.358 . S
C676 H679 0.930 . S
C677 C674 1.348 . S
C677 C675 1.356 . S
H678 C672 0.930 . S
H679 C676 0.930 . S
C680 C682 1.348 . S
C680 C683 1.356 . S
C680 O710 1.325 . S
N681 C684 1.314 . S
N681 C685 1.279 . S
C682 C680 1.348 . S
C682 C684 1.353 . S
C682 H724 0.929 . S
C683 C680 1.356 . S
C683 C685 1.358 . S
C683 H725 0.930 . S
C684 N681 1.314 . S
C684 C682 1.353 . S
C684 H726 0.930 . S
C685 N681 1.279 . S
C685 C683 1.358 . S
C685 H727 0.930 . S
C686 C687 1.348 . S
C686 C688 1.356 . S
C686 O711 1.325 . S
C687 C686 1.348 . S
C687 C689 1.353 . S
C687 H728 0.929 . S
C688 C686 1.356 . S
C688 C690 1.358 . S
C688 H729 0.930 . S
C689 C687 1.353 . S
C689 N691 1.314 . S
C689 H730 0.930 . S
C690 C688 1.358 . S
C690 N691 1.279 . S
C690 H731 0.930 . S
N691 C689 1.314 . S
N691 C690 1.279 . S
C692 C694 1.353 . S
C692 N695 1.314 . S
C692 H698 0.930 . S
C693 N695 1.279 . S
C693 C696 1.358 . S
C693 H699 0.930 . S
C694 C692 1.353 . S
C694 C697 1.348 . S
C694 H732 0.929 . S
N695 Li650 1.990 . S
N695 C692 1.314 . S
N695 C693 1.279 . S
C696 C693 1.358 . S
C696 C697 1.356 . S
C696 H733 0.930 . S
C697 C694 1.348 . S
C697 C696 1.356 . S
H698 C692 0.930 . S
H699 C693 0.930 . S
C700 N701 1.314 . S
C700 C702 1.353 . S
C700 H706 0.930 . S
N701 Li651 1.990 . S
N701 C700 1.314 . S
N701 C704 1.279 . S
C702 C700 1.353 . S
C702 C705 1.348 . S
C702 H734 0.929 . S
C703 C704 1.358 . S
C703 C705 1.356 . S
C703 H735 0.930 . S
C704 N701 1.279 . S
C704 C703 1.358 . S
C704 H707 0.930 . S
C705 C702 1.348 . S
C705 C703 1.356 . S
H706 C700 0.930 . S
H707 C704 0.930 . S
O708 Li648 1.956 . S
O708 Li649 1.970 . S
O708 Li650 1.961 . S
O708 C652 1.325 . S
O709 Li648 1.970 . S
O709 Li649 1.956 . S
O709 Li651 1.961 . S
O709 C658 1.325 . S
O710 Li648 1.961 . S
O710 Li650 1.956 . S
O710 Li651 1.970 . S
O710 C680 1.325 . S
O711 Li649 1.961 . S
O711 Li650 1.970 . S
O711 Li651 1.956 . S
O711 C686 1.325 . S
H712 C654 0.929 . S
H713 C655 0.930 . S
H714 C656 0.930 . S
H715 C657 0.930 . S
H716 C659 0.930 . S
H717 C661 0.929 . S
H718 C662 0.930 . S
H719 C663 0.930 . S
H720 C666 0.930 . S
H721 C669 0.929 . S
H722 C674 0.929 . S
H723 C675 0.930 . S
H724 C682 0.929 . S
H725 C683 0.930 . S
H726 C684 0.930 . S
H727 C685 0.930 . S
H728 C687 0.929 . S
H729 C688 0.930 . S
H730 C689 0.930 . S
H731 C690 0.930 . S
H732 C694 0.929 . S
H733 C696 0.930 . S
H734 C702 0.929 . S
H735 C703 0.930 . S
Li736 N753 1.990 . S
Li736 O796 1.956 . S
Li736 O797 1.970 . S
Li736 O798 1.961 . S
Li737 N761 1.990 . S
Li737 O796 1.970 . S
Li737 O797 1.956 . S
Li737 O799 1.961 . S
Li738 N783 1.990 . S
Li738 O796 1.961 . S
Li738 O798 1.956 . S
Li738 O799 1.970 . S
Li739 N789 1.990 . S
Li739 O797 1.961 . S
Li739 O798 1.970 . S
Li739 O799 1.956 . S
C740 C742 1.348 . S
C740 C743 1.356 . S
C740 O796 1.325 . S
N741 C744 1.314 . S
N741 C745 1.279 . S
C742 C740 1.348 . S
C742 C744 1.353 . S
C742 H800 0.929 . S
C743 C740 1.356 . S
C743 C745 1.358 . S
C743 H801 0.930 . S
C744 N741 1.314 . S
C744 C742 1.353 . S
C744 H802 0.930 . S
C745 N741 1.279 . S
C745 C743 1.358 . S
C745 H803 0.930 . S
C746 C749 1.348 . S
C746 C750 1.356 . S
C746 O797 1.325 . S
C747 N748 1.279 . S
C747 C750 1.358 . S
C747 H804 0.930 . S
N748 C747 1.279 . S
N748 C751 1.314 . S
C749 C746 1.348 . S
C749 C751 1.353 . S
C749 H805 0.929 . S
C750 C746 1.356 . S
C750 C747 1.358 . S
C750 H806 0.930 . S
C751 N748 1.314 . S
C751 C749 1.353 . S
C751 H807 0.930 . S
C752 N753 1.314 . S
C752 C757 1.353 . S
C752 H758 0.930 . S
N753 Li736 1.990 . S
N753 C752 1.314 . S
N753 C755 1.279 . S
C754 C755 1.358 . S
C754 C756 1.356 . S
C754 H808 0.930 . S
C755 N753 1.279 . S
C755 C754 1.358 . S
C755 H759 0.930 . S
C756 C754 1.356 . S
C756 C757 1.348 . S
C757 C752 1.353 . S
C757 C756 1.348 . S
C757 H809 0.929 . S
H758 C752 0.930 . S
H759 C755 0.930 . S
C760 N761 1.314 . S
C760 C762 1.353 . S
C760 H766 0.930 . S
N761 Li737 1.990 . S
N761 C760 1.314 . S
N761 C764 1.279 . S
C762 C760 1.353 . S
C762 C765 1.348 . S
C762 H810 0.929 . S
C763 C764 1.358 . S
C763 C765 1.356 . S
C763 H811 0.930 . S
C764 N761 1.279 . S
C764 C763 1.358 . S
C764 H767 0.930 . S
C765 C762 1.348 . S
C765 C763 1.356 . S
H766 C760 0.930 . S
H767 C764 0.930 . S
C768 C770 1.348 . S
C768 C771 1.356 . S
C768 O798 1.325 . S
N769 C772 1.314 . S
N769 C773 1.279 . S
C770 C768 1.348 . S
C770 C772 1.353 . S
C770 H812 0.929 . S
C771 C768 1.356 . S
C771 C773 1.358 . S
C771 H813 0.930 . S
C772 N769 1.314 . S
C772 C770 1.353 . S
C772 H814 0.930 . S
C773 N769 1.279 . S
C773 C771 1.358 . S
C773 H815 0.930 . S
C774 C775 1.348 . S
C774 C776 1.356 . S
C774 O799 1.325 . S
C775 C774 1.348 . S
C775 C777 1.353 . S
C775 H816 0.929 . S
C776 C774 1.356 . S
C776 C778 1.358 . S
C776 H817 0.930 . S
C777 C775 1.353 . S
C777 N779 1.314 . S
C777 H818 0.930 . S
C778 C776 1.358 . S
C778 N779 1.279 . S
C778 H819 0.930 . S
N779 C777 1.314 . S
N779 C778 1.279 . S
C780 C782 1.353 . S
C780 N783 1.314 . S
C780 H786 0.930 . S
C781 N783 1.279 . S
C781 C784 1.358 . S
C781 H787 0.930 . S
C782 C780 1.353 . S
C782 C785 1.348 . S
C782 H820 0.929 . S
N783 Li738 1.990 . S
N783 C780 1.314 . S
N783 C781 1.279 . S
C784 C781 1.358 . S
C784 C785 1.356 . S
C784 H821 0.930 . S
C785 C782 1.348 . S
C785 C784 1.356 . S
H786 C780 0.930 . S
H787 C781 0.930 . S
C788 N789 1.314 . S
C788 C790 1.353 . S
C788 H794 0.930 . S
N789 Li739 1.990 . S
N789 C788 1.314 . S
N789 C792 1.279 . S
C790 C788 1.353 . S
C790 C793 1.348 . S
C790 H822 0.929 . S
C791 C792 1.358 . S
C791 C793 1.356 . S
C791 H823 0.930 . S
C792 N789 1.279 . S
C792 C791 1.358 . S
C792 H795 0.930 . S
C793 C790 1.348 . S
C793 C791 1.356 . S
H794 C788 0.930 . S
H795 C792 0.930 . S
O796 Li736 1.956 . S
O796 Li737 1.970 . S
O796 Li738 1.961 . S
O796 C740 1.325 . S
O797 Li736 1.970 . S
O797 Li737 1.956 . S
O797 Li739 1.961 . S
O797 C746 1.325 . S
O798 Li736 1.961 . S
O798 Li738 1.956 . S
O798 Li739 1.970 . S
O798 C768 1.325 . S
O799 Li737 1.961 . S
O799 Li738 1.970 . S
O799 Li739 1.956 . S
O799 C774 1.325 . S
H800 C742 0.929 . S
H801 C743 0.930 . S
H802 C744 0.930 . S
H803 C745 0.930 . S
H804 C747 0.930 . S
H805 C749 0.929 . S
H806 C750 0.930 . S
H807 C751 0.930 . S
H808 C754 0.930 . S
H809 C757 0.929 . S
H810 C762 0.929 . S
H811 C763 0.930 . S
H812 C770 0.929 . S
H813 C771 0.930 . S
H814 C772 0.930 . S
H815 C773 0.930 . S
H816 C775 0.929 . S
H817 C776 0.930 . S
H818 C777 0.930 . S
H819 C778 0.930 . S
H820 C782 0.929 . S
H821 C784 0.930 . S
H822 C790 0.929 . S
H823 C791 0.930 . S
Li824 N841 1.990 . S
Li824 O884 1.956 . S
Li824 O885 1.970 1_565 S
Li824 O886 1.961 1_565 S
Li825 N849 1.990 . S
Li825 O884 1.970 1_545 S
Li825 O885 1.956 . S
Li825 O887 1.961 . S
Li826 N871 1.990 1_545 S
Li826 O884 1.961 1_545 S
Li826 O886 1.956 . S
Li826 O887 1.970 . S
Li827 N877 1.990 . S
Li827 O885 1.961 . S
Li827 O886 1.970 . S
Li827 O887 1.956 . S
C828 C830 1.348 . S
C828 C831 1.356 . S
C828 O884 1.325 . S
N829 C832 1.314 . S
N829 C833 1.279 . S
C830 C828 1.348 . S
C830 C832 1.353 . S
C830 H888 0.929 . S
C831 C828 1.356 . S
C831 C833 1.358 . S
C831 H889 0.930 . S
C832 N829 1.314 . S
C832 C830 1.353 . S
C832 H890 0.930 . S
C833 N829 1.279 . S
C833 C831 1.358 . S
C833 H891 0.930 . S
C834 C837 1.348 . S
C834 C838 1.356 . S
C834 O885 1.325 . S
C835 N836 1.279 . S
C835 C838 1.358 . S
C835 H892 0.930 . S
N836 C835 1.279 . S
N836 C839 1.314 . S
C837 C834 1.348 . S
C837 C839 1.353 . S
C837 H893 0.929 1_545 S
C838 C834 1.356 . S
C838 C835 1.358 . S
C838 H894 0.930 . S
C839 N836 1.314 . S
C839 C837 1.353 . S
C839 H895 0.930 . S
C840 N841 1.314 . S
C840 C845 1.353 . S
C840 H846 0.930 . S
N841 Li824 1.990 . S
N841 C840 1.314 . S
N841 C843 1.279 . S
C842 C843 1.358 . S
C842 C844 1.356 . S
C842 H896 0.930 . S
C843 N841 1.279 . S
C843 C842 1.358 . S
C843 H847 0.930 . S
C844 C842 1.356 . S
C844 C845 1.348 . S
C845 C840 1.353 . S
C845 C844 1.348 . S
C845 H897 0.929 . S
H846 C840 0.930 . S
H847 C843 0.930 . S
C848 N849 1.314 . S
C848 C850 1.353 . S
C848 H854 0.930 . S
N849 Li825 1.990 . S
N849 C848 1.314 . S
N849 C852 1.279 . S
C850 C848 1.353 . S
C850 C853 1.348 . S
C850 H898 0.929 . S
C851 C852 1.358 . S
C851 C853 1.356 . S
C851 H899 0.930 . S
C852 N849 1.279 . S
C852 C851 1.358 . S
C852 H855 0.930 . S
C853 C850 1.348 . S
C853 C851 1.356 . S
H854 C848 0.930 . S
H855 C852 0.930 . S
C856 C858 1.348 . S
C856 C859 1.356 1_545 S
C856 O886 1.325 . S
N857 C860 1.314 1_565 S
N857 C861 1.279 . S
C858 C856 1.348 . S
C858 C860 1.353 . S
C858 H900 0.929 . S
C859 C856 1.356 1_565 S
C859 C861 1.358 . S
C859 H901 0.930 . S
C860 N857 1.314 1_545 S
C860 C858 1.353 . S
C860 H902 0.930 . S
C861 N857 1.279 . S
C861 C859 1.358 . S
C861 H903 0.930 . S
C862 C863 1.348 . S
C862 C864 1.356 . S
C862 O887 1.325 . S
C863 C862 1.348 . S
C863 C865 1.353 . S
C863 H904 0.929 . S
C864 C862 1.356 . S
C864 C866 1.358 . S
C864 H905 0.930 . S
C865 C863 1.353 . S
C865 N867 1.314 . S
C865 H906 0.930 . S
C866 C864 1.358 . S
C866 N867 1.279 . S
C866 H907 0.930 . S
N867 C865 1.314 . S
N867 C866 1.279 . S
C868 C870 1.353 . S
C868 N871 1.314 . S
C868 H874 0.930 . S
C869 N871 1.279 . S
C869 C872 1.358 . S
C869 H875 0.930 1_565 S
C870 C868 1.353 . S
C870 C873 1.348 . S
C870 H908 0.929 . S
N871 Li826 1.990 1_565 S
N871 C868 1.314 . S
N871 C869 1.279 . S
C872 C869 1.358 . S
C872 C873 1.356 . S
C872 H909 0.930 . S
C873 C870 1.348 . S
C873 C872 1.356 . S
H874 C868 0.930 . S
H875 C869 0.930 1_545 S
C876 N877 1.314 . S
C876 C878 1.353 . S
C876 H882 0.930 . S
N877 Li827 1.990 . S
N877 C876 1.314 . S
N877 C880 1.279 . S
C878 C876 1.353 . S
C878 C881 1.348 . S
C878 H910 0.929 . S
C879 C880 1.358 . S
C879 C881 1.356 . S
C879 H911 0.930 . S
C880 N877 1.279 . S
C880 C879 1.358 . S
C880 H883 0.930 . S
C881 C878 1.348 . S
C881 C879 1.356 . S
H882 C876 0.930 . S
H883 C880 0.930 . S
O884 Li824 1.956 . S
O884 Li825 1.970 1_565 S
O884 Li826 1.961 1_565 S
O884 C828 1.325 . S
O885 Li824 1.970 1_545 S
O885 Li825 1.956 . S
O885 Li827 1.961 . S
O885 C834 1.325 . S
O886 Li824 1.961 1_545 S
O886 Li826 1.956 . S
O886 Li827 1.970 . S
O886 C856 1.325 . S
O887 Li825 1.961 . S
O887 Li826 1.970 . S
O887 Li827 1.956 . S
O887 C862 1.325 . S
H888 C830 0.929 . S
H889 C831 0.930 . S
H890 C832 0.930 . S
H891 C833 0.930 . S
H892 C835 0.930 . S
H893 C837 0.929 1_565 S
H894 C838 0.930 . S
H895 C839 0.930 . S
H896 C842 0.930 . S
H897 C845 0.929 . S
H898 C850 0.929 . S
H899 C851 0.930 . S
H900 C858 0.929 . S
H901 C859 0.930 . S
H902 C860 0.930 . S
H903 C861 0.930 . S
H904 C863 0.929 . S
H905 C864 0.930 . S
H906 C865 0.930 . S
H907 C866 0.930 . S
H908 C870 0.929 . S
H909 C872 0.930 . S
H910 C878 0.929 . S
H911 C879 0.930 . S
Li912 N929 1.990 . S
Li912 O972 1.956 . S
Li912 O973 1.970 . S
Li912 O974 1.961 . S
Li913 N937 1.988 1_455 S
Li913 O972 1.984 . S
Li913 O973 1.957 . S
Li913 O975 1.950 1_455 S
Li914 N959 1.990 . S
Li914 O972 1.961 . S
Li914 O974 1.956 . S
Li914 O975 1.970 1_455 S
Li915 N965 1.990 . S
Li915 O973 1.961 1_655 S
Li915 O974 1.970 1_655 S
Li915 O975 1.956 . S
C916 C918 1.348 . S
C916 C919 1.356 . S
C916 O972 1.325 . S
N917 C920 1.314 . S
N917 C921 1.279 . S
C918 C916 1.348 . S
C918 C920 1.353 . S
C918 H976 0.929 . S
C919 C916 1.356 . S
C919 C921 1.358 . S
C919 H977 0.930 . S
C920 N917 1.314 . S
C920 C918 1.353 . S
C920 H978 0.930 . S
C921 N917 1.279 . S
C921 C919 1.358 . S
C921 H979 0.930 . S
C922 C925 1.348 . S
C922 C926 1.356 1_455 S
C922 O973 1.325 . S
C923 N924 1.291 . S
C923 C926 1.358 . S
C923 H980 0.930 . S
N924 C923 1.291 . S
N924 C927 1.301 1_655 S
C925 C922 1.348 . S
C925 C927 1.353 . S
C925 H981 0.929 . S
C926 C922 1.356 1_655 S
C926 C923 1.358 . S
C926 H982 0.930 . S
C927 N924 1.301 1_455 S
C927 C925 1.353 . S
C927 H983 0.930 . S
C928 N929 1.314 . S
C928 C933 1.353 . S
C928 H934 0.930 . S
N929 Li912 1.990 . S
N929 C928 1.314 . S
N929 C931 1.279 . S
C930 C931 1.358 . S
C930 C932 1.356 . S
C930 H984 0.930 . S
C931 N929 1.279 . S
C931 C930 1.358 . S
C931 H935 0.930 . S
C932 C930 1.356 . S
C932 C933 1.348 . S
C933 C928 1.353 . S
C933 C932 1.348 . S
C933 H985 0.929 . S
H934 C928 0.930 . S
H935 C931 0.930 . S
C936 N937 1.314 . S
C936 C938 1.353 . S
C936 H942 0.930 . S
N937 Li913 1.988 1_655 S
N937 C936 1.314 . S
N937 C940 1.276 1_655 S
C938 C936 1.353 . S
C938 C941 1.348 . S
C938 H986 0.929 . S
C939 C940 1.355 1_655 S
C939 C941 1.366 . S
C939 H987 0.925 1_655 S
C940 N937 1.276 1_455 S
C940 C939 1.355 1_455 S
C940 H943 0.936 . S
C941 C938 1.348 . S
C941 C939 1.366 . S
H942 C936 0.930 . S
H943 C940 0.936 . S
C944 C946 1.348 1_455 S
C944 C947 1.356 . S
C944 O974 1.325 . S
N945 C948 1.314 1_455 S
N945 C949 1.279 . S
C946 C944 1.348 1_655 S
C946 C948 1.353 . S
C946 H988 0.929 . S
C947 C944 1.356 . S
C947 C949 1.358 . S
C947 H989 0.930 . S
C948 N945 1.314 1_655 S
C948 C946 1.353 . S
C948 H990 0.930 . S
C949 N945 1.279 . S
C949 C947 1.358 . S
C949 H991 0.930 . S
C950 C951 1.348 . S
C950 C952 1.356 . S
C950 O975 1.325 . S
C951 C950 1.348 . S
C951 C953 1.353 . S
C951 H992 0.929 . S
C952 C950 1.356 . S
C952 C954 1.358 . S
C952 H993 0.930 . S
C953 C951 1.353 . S
C953 N955 1.314 . S
C953 H994 0.930 . S
C954 C952 1.358 . S
C954 N955 1.279 . S
C954 H995 0.930 . S
N955 C953 1.314 . S
N955 C954 1.279 . S
C956 C958 1.353 . S
C956 N959 1.314 . S
C956 H962 0.930 . S
C957 N959 1.279 . S
C957 C960 1.358 . S
C957 H963 0.930 . S
C958 C956 1.353 . S
C958 C961 1.348 . S
C958 H996 0.929 . S
N959 Li914 1.990 . S
N959 C956 1.314 . S
N959 C957 1.279 . S
C960 C957 1.358 . S
C960 C961 1.356 . S
C960 H997 0.934 . S
C961 C958 1.348 . S
C961 C960 1.356 . S
H962 C956 0.930 . S
H963 C957 0.930 . S
C964 N965 1.314 . S
C964 C966 1.353 . S
C964 H970 0.930 . S
N965 Li915 1.990 . S
N965 C964 1.314 . S
N965 C968 1.279 . S
C966 C964 1.353 . S
C966 C969 1.348 . S
C966 H998 0.929 . S
C967 C968 1.358 . S
C967 C969 1.356 . S
C967 H999 0.930 . S
C968 N965 1.279 . S
C968 C967 1.358 . S
C968 H971 0.930 . S
C969 C966 1.348 . S
C969 C967 1.356 . S
H970 C964 0.930 . S
H971 C968 0.930 . S
O972 Li912 1.956 . S
O972 Li913 1.984 . S
O972 Li914 1.961 . S
O972 C916 1.325 . S
O973 Li912 1.970 . S
O973 Li913 1.957 . S
O973 Li915 1.961 1_455 S
O973 C922 1.325 . S
O974 Li912 1.961 . S
O974 Li914 1.956 . S
O974 Li915 1.970 1_455 S
O974 C944 1.325 . S
O975 Li913 1.950 1_655 S
O975 Li914 1.970 1_655 S
O975 Li915 1.956 . S
O975 C950 1.325 . S
H976 C918 0.929 . S
H977 C919 0.930 . S
H978 C920 0.930 . S
H979 C921 0.930 . S
H980 C923 0.930 . S
H981 C925 0.929 . S
H982 C926 0.930 . S
H983 C927 0.930 . S
H984 C930 0.930 . S
H985 C933 0.929 . S
H986 C938 0.929 . S
H987 C939 0.925 1_455 S
H988 C946 0.929 . S
H989 C947 0.930 . S
H990 C948 0.930 . S
H991 C949 0.930 . S
H992 C951 0.929 . S
H993 C952 0.930 . S
H994 C953 0.930 . S
H995 C954 0.930 . S
H996 C958 0.929 . S
H997 C960 0.934 . S
H998 C966 0.929 . S
H999 C967 0.930 . S
Li1000 N1017 1.990 . S
Li1000 O1060 1.956 . S
Li1000 O1061 1.970 . S
Li1000 O1062 1.961 . S
Li1001 N1025 1.990 . S
Li1001 O1060 1.970 . S
Li1001 O1061 1.956 . S
Li1001 O1063 1.961 . S
Li1002 N1047 1.990 . S
Li1002 O1060 1.961 . S
Li1002 O1062 1.956 . S
Li1002 O1063 1.970 . S
Li1003 N1053 1.990 . S
Li1003 O1061 1.961 . S
Li1003 O1062 1.970 . S
Li1003 O1063 1.956 . S
C1004 C1006 1.348 . S
C1004 C1007 1.356 . S
C1004 O1060 1.325 . S
N1005 C1008 1.314 . S
N1005 C1009 1.279 . S
C1006 C1004 1.348 . S
C1006 C1008 1.353 . S
C1006 H1064 0.929 . S
C1007 C1004 1.356 . S
C1007 C1009 1.358 . S
C1007 H1065 0.930 . S
C1008 N1005 1.314 . S
C1008 C1006 1.353 . S
C1008 H1066 0.930 . S
C1009 N1005 1.279 . S
C1009 C1007 1.358 . S
C1009 H1067 0.930 . S
C1010 C1013 1.348 . S
C1010 C1014 1.356 . S
C1010 O1061 1.325 . S
C1011 N1012 1.279 . S
C1011 C1014 1.358 . S
C1011 H1068 0.930 . S
N1012 C1011 1.279 . S
N1012 C1015 1.314 . S
C1013 C1010 1.348 . S
C1013 C1015 1.353 . S
C1013 H1069 0.929 . S
C1014 C1010 1.356 . S
C1014 C1011 1.358 . S
C1014 H1070 0.930 . S
C1015 N1012 1.314 . S
C1015 C1013 1.353 . S
C1015 H1071 0.930 . S
C1016 N1017 1.314 . S
C1016 C1021 1.353 . S
C1016 H1022 0.930 . S
N1017 Li1000 1.990 . S
N1017 C1016 1.314 . S
N1017 C1019 1.279 . S
C1018 C1019 1.358 . S
C1018 C1020 1.356 . S
C1018 H1072 0.930 . S
C1019 N1017 1.279 . S
C1019 C1018 1.358 . S
C1019 H1023 0.930 . S
C1020 C1018 1.356 . S
C1020 C1021 1.348 . S
C1021 C1016 1.353 . S
C1021 C1020 1.348 . S
C1021 H1073 0.929 . S
H1022 C1016 0.930 . S
H1023 C1019 0.930 . S
C1024 N1025 1.314 . S
C1024 C1026 1.353 . S
C1024 H1030 0.930 . S
N1025 Li1001 1.990 . S
N1025 C1024 1.314 . S
N1025 C1028 1.279 . S
C1026 C1024 1.353 . S
C1026 C1029 1.348 . S
C1026 H1074 0.929 . S
C1027 C1028 1.358 . S
C1027 C1029 1.356 . S
C1027 H1075 0.930 . S
C1028 N1025 1.279 . S
C1028 C1027 1.358 . S
C1028 H1031 0.930 . S
C1029 C1026 1.348 . S
C1029 C1027 1.356 . S
H1030 C1024 0.930 . S
H1031 C1028 0.930 . S
C1032 C1034 1.348 . S
C1032 C1035 1.356 . S
C1032 O1062 1.325 . S
N1033 C1036 1.314 . S
N1033 C1037 1.279 . S
C1034 C1032 1.348 . S
C1034 C1036 1.353 . S
C1034 H1076 0.929 . S
C1035 C1032 1.356 . S
C1035 C1037 1.358 . S
C1035 H1077 0.930 . S
C1036 N1033 1.314 . S
C1036 C1034 1.353 . S
C1036 H1078 0.930 . S
C1037 N1033 1.279 . S
C1037 C1035 1.358 . S
C1037 H1079 0.930 . S
C1038 C1039 1.348 . S
C1038 C1040 1.356 . S
C1038 O1063 1.325 . S
C1039 C1038 1.348 . S
C1039 C1041 1.353 . S
C1039 H1080 0.929 . S
C1040 C1038 1.356 . S
C1040 C1042 1.358 . S
C1040 H1081 0.930 . S
C1041 C1039 1.353 . S
C1041 N1043 1.314 . S
C1041 H1082 0.930 . S
C1042 C1040 1.358 . S
C1042 N1043 1.279 . S
C1042 H1083 0.930 . S
N1043 C1041 1.314 . S
N1043 C1042 1.279 . S
C1044 C1046 1.353 . S
C1044 N1047 1.314 . S
C1044 H1050 0.930 . S
C1045 N1047 1.279 . S
C1045 C1048 1.358 . S
C1045 H1051 0.930 . S
C1046 C1044 1.353 . S
C1046 C1049 1.348 . S
C1046 H1084 0.929 . S
N1047 Li1002 1.990 . S
N1047 C1044 1.314 . S
N1047 C1045 1.279 . S
C1048 C1045 1.358 . S
C1048 C1049 1.356 . S
C1048 H1085 0.930 . S
C1049 C1046 1.348 . S
C1049 C1048 1.356 . S
H1050 C1044 0.930 . S
H1051 C1045 0.930 . S
C1052 N1053 1.314 . S
C1052 C1054 1.353 . S
C1052 H1058 0.930 . S
N1053 Li1003 1.990 . S
N1053 C1052 1.314 . S
N1053 C1056 1.279 . S
C1054 C1052 1.353 . S
C1054 C1057 1.348 . S
C1054 H1086 0.929 . S
C1055 C1056 1.358 . S
C1055 C1057 1.356 . S
C1055 H1087 0.930 . S
C1056 N1053 1.279 . S
C1056 C1055 1.358 . S
C1056 H1059 0.930 . S
C1057 C1054 1.348 . S
C1057 C1055 1.356 . S
H1058 C1052 0.930 . S
H1059 C1056 0.930 . S
O1060 Li1000 1.956 . S
O1060 Li1001 1.970 . S
O1060 Li1002 1.961 . S
O1060 C1004 1.325 . S
O1061 Li1000 1.970 . S
O1061 Li1001 1.956 . S
O1061 Li1003 1.961 . S
O1061 C1010 1.325 . S
O1062 Li1000 1.961 . S
O1062 Li1002 1.956 . S
O1062 Li1003 1.970 . S
O1062 C1032 1.325 . S
O1063 Li1001 1.961 . S
O1063 Li1002 1.970 . S
O1063 Li1003 1.956 . S
O1063 C1038 1.325 . S
H1064 C1006 0.929 . S
H1065 C1007 0.930 . S
H1066 C1008 0.930 . S
H1067 C1009 0.930 . S
H1068 C1011 0.930 . S
H1069 C1013 0.929 . S
H1070 C1014 0.930 . S
H1071 C1015 0.930 . S
H1072 C1018 0.930 . S
H1073 C1021 0.929 . S
H1074 C1026 0.929 . S
H1075 C1027 0.930 . S
H1076 C1034 0.929 . S
H1077 C1035 0.930 . S
H1078 C1036 0.930 . S
H1079 C1037 0.930 . S
H1080 C1039 0.929 . S
H1081 C1040 0.930 . S
H1082 C1041 0.930 . S
H1083 C1042 0.930 . S
H1084 C1046 0.929 . S
H1085 C1048 0.930 . S
H1086 C1054 0.929 . S
H1087 C1055 0.930 . S
Li1088 N1105 1.990 . S
Li1088 O1148 1.956 . S
Li1088 O1149 1.970 1_455 S
Li1088 O1150 1.961 . S
Li1089 N1113 1.990 . S
Li1089 O1148 1.970 1_655 S
Li1089 O1149 1.956 . S
Li1089 O1151 1.961 1_655 S
Li1090 N1135 1.990 . S
Li1090 O1148 1.961 . S
Li1090 O1150 1.956 . S
Li1090 O1151 1.970 . S
Li1091 N1141 1.990 . S
Li1091 O1149 1.961 1_455 S
Li1091 O1150 1.970 . S
Li1091 O1151 1.956 . S
C1092 C1094 1.348 . S
C1092 C1095 1.356 . S
C1092 O1148 1.325 . S
N1093 C1096 1.314 . S
N1093 C1097 1.279 . S
C1094 C1092 1.348 . S
C1094 C1096 1.353 . S
C1094 H1152 0.890 1_455 S
C1095 C1092 1.356 . S
C1095 C1097 1.358 . S
C1095 H1153 0.930 . S
C1096 N1093 1.314 . S
C1096 C1094 1.353 . S
C1096 H1154 0.930 . S
C1097 N1093 1.279 . S
C1097 C1095 1.358 . S
C1097 H1155 0.930 . S
C1098 C1101 1.348 . S
C1098 C1102 1.356 . S
C1098 O1149 1.325 . S
C1099 N1100 1.279 . S
C1099 C1102 1.358 . S
C1099 H1156 0.930 . S
N1100 C1099 1.279 . S
N1100 C1103 1.314 . S
C1101 C1098 1.348 . S
C1101 C1103 1.353 . S
C1101 H1157 0.929 . S
C1102 C1098 1.356 . S
C1102 C1099 1.358 . S
C1102 H1158 0.930 . S
C1103 N1100 1.314 . S
C1103 C1101 1.353 . S
C1103 H1159 0.930 . S
C1104 N1105 1.314 . S
C1104 C1109 1.353 . S
C1104 H1110 0.930 . S
N1105 Li1088 1.990 . S
N1105 C1104 1.314 . S
N1105 C1107 1.279 . S
C1106 C1107 1.358 . S
C1106 C1108 1.356 . S
C1106 H1160 0.930 . S
C1107 N1105 1.279 . S
C1107 C1106 1.358 . S
C1107 H1111 0.930 . S
C1108 C1106 1.356 . S
C1108 C1109 1.348 . S
C1109 C1104 1.353 . S
C1109 C1108 1.348 . S
C1109 H1161 0.929 . S
H1110 C1104 0.930 . S
H1111 C1107 0.930 . S
C1112 N1113 1.314 . S
C1112 C1114 1.353 . S
C1112 H1118 0.930 . S
N1113 Li1089 1.990 . S
N1113 C1112 1.314 . S
N1113 C1116 1.279 . S
C1114 C1112 1.353 . S
C1114 C1117 1.348 . S
C1114 H1162 0.929 . S
C1115 C1116 1.358 . S
C1115 C1117 1.356 . S
C1115 H1163 0.930 . S
C1116 N1113 1.279 . S
C1116 C1115 1.358 . S
C1116 H1119 0.930 . S
C1117 C1114 1.348 . S
C1117 C1115 1.356 . S
H1118 C1112 0.930 . S
H1119 C1116 0.930 . S
C1120 C1122 1.348 . S
C1120 C1123 1.356 . S
C1120 O1150 1.325 . S
N1121 C1124 1.314 . S
N1121 C1125 1.279 . S
C1122 C1120 1.348 . S
C1122 C1124 1.353 . S
C1122 H1164 0.929 . S
C1123 C1120 1.356 . S
C1123 C1125 1.358 . S
C1123 H1165 0.930 . S
C1124 N1121 1.314 . S
C1124 C1122 1.353 . S
C1124 H1166 0.930 . S
C1125 N1121 1.279 . S
C1125 C1123 1.358 . S
C1125 H1167 0.930 . S
C1126 C1127 1.348 . S
C1126 C1128 1.356 1_455 S
C1126 O1151 1.325 . S
C1127 C1126 1.348 . S
C1127 C1129 1.353 . S
C1127 H1168 0.929 . S
C1128 C1126 1.356 1_655 S
C1128 C1130 1.358 . S
C1128 H1169 0.930 . S
C1129 C1127 1.353 . S
C1129 N1131 1.314 . S
C1129 H1170 0.930 . S
C1130 C1128 1.358 . S
C1130 N1131 1.279 1_655 S
C1130 H1171 0.930 . S
N1131 C1129 1.314 . S
N1131 C1130 1.279 1_455 S
C1132 C1134 1.353 . S
C1132 N1135 1.314 . S
C1132 H1138 0.930 . S
C1133 N1135 1.279 . S
C1133 C1136 1.358 . S
C1133 H1139 0.930 . S
C1134 C1132 1.353 . S
C1134 C1137 1.348 . S
C1134 H1172 0.929 . S
N1135 Li1090 1.990 . S
N1135 C1132 1.314 . S
N1135 C1133 1.279 . S
C1136 C1133 1.358 . S
C1136 C1137 1.356 . S
C1136 H1173 0.930 . S
C1137 C1134 1.348 . S
C1137 C1136 1.356 . S
H1138 C1132 0.930 . S
H1139 C1133 0.930 . S
C1140 N1141 1.323 . S
C1140 C1142 1.348 1_455 S
C1140 H1146 0.926 1_455 S
N1141 Li1091 1.990 . S
N1141 C1140 1.323 . S
N1141 C1144 1.279 . S
C1142 C1140 1.348 1_655 S
C1142 C1145 1.348 . S
C1142 H1174 0.929 . S
C1143 C1144 1.358 . S
C1143 C1145 1.356 1_455 S
C1143 H1175 0.930 . S
C1144 N1141 1.279 . S
C1144 C1143 1.358 . S
C1144 H1147 0.930 . S
C1145 C1142 1.348 . S
C1145 C1143 1.356 1_655 S
H1146 C1140 0.926 1_655 S
H1147 C1144 0.930 . S
O1148 Li1088 1.956 . S
O1148 Li1089 1.970 1_455 S
O1148 Li1090 1.961 . S
O1148 C1092 1.325 . S
O1149 Li1088 1.970 1_655 S
O1149 Li1089 1.956 . S
O1149 Li1091 1.961 1_655 S
O1149 C1098 1.325 . S
O1150 Li1088 1.961 . S
O1150 Li1090 1.956 . S
O1150 Li1091 1.970 . S
O1150 C1120 1.325 . S
O1151 Li1089 1.961 1_455 S
O1151 Li1090 1.970 . S
O1151 Li1091 1.956 . S
O1151 C1126 1.325 . S
H1152 C1094 0.890 1_655 S
H1153 C1095 0.930 . S
H1154 C1096 0.930 . S
H1155 C1097 0.930 . S
H1156 C1099 0.930 . S
H1157 C1101 0.929 . S
H1158 C1102 0.930 . S
H1159 C1103 0.930 . S
H1160 C1106 0.930 . S
H1161 C1109 0.929 . S
H1162 C1114 0.929 . S
H1163 C1115 0.930 . S
H1164 C1122 0.929 . S
H1165 C1123 0.930 . S
H1166 C1124 0.930 . S
H1167 C1125 0.930 . S
H1168 C1127 0.929 . S
H1169 C1128 0.930 . S
H1170 C1129 0.930 . S
H1171 C1130 0.930 . S
H1172 C1134 0.929 . S
H1173 C1136 0.930 . S
H1174 C1142 0.929 . S
H1175 C1143 0.930 . S
Li1176 N1193 1.990 . S
Li1176 O1236 1.956 . S
Li1176 O1237 1.970 . S
Li1176 O1238 1.961 . S
Li1177 N1201 1.990 . S
Li1177 O1236 1.970 . S
Li1177 O1237 1.956 . S
Li1177 O1239 1.961 . S
Li1178 N1223 1.990 . S
Li1178 O1236 1.961 . S
Li1178 O1238 1.956 . S
Li1178 O1239 1.970 . S
Li1179 N1229 1.990 . S
Li1179 O1237 1.961 . S
Li1179 O1238 1.970 . S
Li1179 O1239 1.956 . S
C1180 C1182 1.348 . S
C1180 C1183 1.356 . S
C1180 O1236 1.325 . S
N1181 C1184 1.314 . S
N1181 C1185 1.279 . S
C1182 C1180 1.348 . S
C1182 C1184 1.353 . S
C1182 H1240 0.929 . S
C1183 C1180 1.356 . S
C1183 C1185 1.358 . S
C1183 H1241 0.930 . S
C1184 N1181 1.314 . S
C1184 C1182 1.353 . S
C1184 H1242 0.930 . S
C1185 N1181 1.279 . S
C1185 C1183 1.358 . S
C1185 H1243 0.930 . S
C1186 C1189 1.348 . S
C1186 C1190 1.356 . S
C1186 O1237 1.325 . S
C1187 N1188 1.279 . S
C1187 C1190 1.358 . S
C1187 H1244 0.930 . S
N1188 C1187 1.279 . S
N1188 C1191 1.314 . S
C1189 C1186 1.348 . S
C1189 C1191 1.353 . S
C1189 H1245 0.929 . S
C1190 C1186 1.356 . S
C1190 C1187 1.358 . S
C1190 H1246 0.930 . S
C1191 N1188 1.314 . S
C1191 C1189 1.353 . S
C1191 H1247 0.930 . S
C1192 N1193 1.314 . S
C1192 C1197 1.353 . S
C1192 H1198 0.930 . S
N1193 Li1176 1.990 . S
N1193 C1192 1.314 . S
N1193 C1195 1.279 . S
C1194 C1195 1.358 . S
C1194 C1196 1.356 . S
C1194 H1248 0.930 . S
C1195 N1193 1.279 . S
C1195 C1194 1.358 . S
C1195 H1199 0.930 . S
C1196 C1194 1.356 . S
C1196 C1197 1.348 . S
C1197 C1192 1.353 . S
C1197 C1196 1.348 . S
C1197 H1249 0.929 . S
H1198 C1192 0.930 . S
H1199 C1195 0.930 . S
C1200 N1201 1.314 . S
C1200 C1202 1.353 . S
C1200 H1206 0.930 . S
N1201 Li1177 1.990 . S
N1201 C1200 1.314 . S
N1201 C1204 1.279 . S
C1202 C1200 1.353 . S
C1202 C1205 1.348 . S
C1202 H1250 0.929 . S
C1203 C1204 1.358 . S
C1203 C1205 1.356 . S
C1203 H1251 0.930 . S
C1204 N1201 1.279 . S
C1204 C1203 1.358 . S
C1204 H1207 0.930 . S
C1205 C1202 1.348 . S
C1205 C1203 1.356 . S
H1206 C1200 0.930 . S
H1207 C1204 0.930 . S
C1208 C1210 1.348 . S
C1208 C1211 1.356 . S
C1208 O1238 1.325 . S
N1209 C1212 1.314 . S
N1209 C1213 1.279 . S
C1210 C1208 1.348 . S
C1210 C1212 1.353 . S
C1210 H1252 0.929 . S
C1211 C1208 1.356 . S
C1211 C1213 1.358 . S
C1211 H1253 0.930 . S
C1212 N1209 1.314 . S
C1212 C1210 1.353 . S
C1212 H1254 0.930 . S
C1213 N1209 1.279 . S
C1213 C1211 1.358 . S
C1213 H1255 0.930 . S
C1214 C1215 1.348 . S
C1214 C1216 1.356 . S
C1214 O1239 1.325 . S
C1215 C1214 1.348 . S
C1215 C1217 1.353 . S
C1215 H1256 0.929 . S
C1216 C1214 1.356 . S
C1216 C1218 1.358 . S
C1216 H1257 0.930 . S
C1217 C1215 1.353 . S
C1217 N1219 1.314 . S
C1217 H1258 0.930 . S
C1218 C1216 1.358 . S
C1218 N1219 1.279 . S
C1218 H1259 0.930 . S
N1219 C1217 1.314 . S
N1219 C1218 1.279 . S
C1220 C1222 1.353 . S
C1220 N1223 1.314 . S
C1220 H1226 0.930 . S
C1221 N1223 1.279 . S
C1221 C1224 1.358 . S
C1221 H1227 0.930 . S
C1222 C1220 1.353 . S
C1222 C1225 1.348 . S
C1222 H1260 0.929 . S
N1223 Li1178 1.990 . S
N1223 C1220 1.314 . S
N1223 C1221 1.279 . S
C1224 C1221 1.358 . S
C1224 C1225 1.356 . S
C1224 H1261 0.930 . S
C1225 C1222 1.348 . S
C1225 C1224 1.356 . S
H1226 C1220 0.930 . S
H1227 C1221 0.930 . S
C1228 N1229 1.314 . S
C1228 C1230 1.353 . S
C1228 H1234 0.930 . S
N1229 Li1179 1.990 . S
N1229 C1228 1.314 . S
N1229 C1232 1.279 . S
C1230 C1228 1.353 . S
C1230 C1233 1.348 . S
C1230 H1262 0.929 . S
C1231 C1232 1.358 . S
C1231 C1233 1.356 . S
C1231 H1263 0.930 . S
C1232 N1229 1.279 . S
C1232 C1231 1.358 . S
C1232 H1235 0.930 . S
C1233 C1230 1.348 . S
C1233 C1231 1.356 . S
H1234 C1228 0.930 . S
H1235 C1232 0.930 . S
O1236 Li1176 1.956 . S
O1236 Li1177 1.970 . S
O1236 Li1178 1.961 . S
O1236 C1180 1.325 . S
O1237 Li1176 1.970 . S
O1237 Li1177 1.956 . S
O1237 Li1179 1.961 . S
O1237 C1186 1.325 . S
O1238 Li1176 1.961 . S
O1238 Li1178 1.956 . S
O1238 Li1179 1.970 . S
O1238 C1208 1.325 . S
O1239 Li1177 1.961 . S
O1239 Li1178 1.970 . S
O1239 Li1179 1.956 . S
O1239 C1214 1.325 . S
H1240 C1182 0.929 . S
H1241 C1183 0.930 . S
H1242 C1184 0.930 . S
H1243 C1185 0.930 . S
H1244 C1187 0.930 . S
H1245 C1189 0.929 . S
H1246 C1190 0.930 . S
H1247 C1191 0.930 . S
H1248 C1194 0.930 . S
H1249 C1197 0.929 . S
H1250 C1202 0.929 . S
H1251 C1203 0.930 . S
H1252 C1210 0.929 . S
H1253 C1211 0.930 . S
H1254 C1212 0.930 . S
H1255 C1213 0.930 . S
H1256 C1215 0.929 . S
H1257 C1216 0.930 . S
H1258 C1217 0.930 . S
H1259 C1218 0.930 . S
H1260 C1222 0.929 . S
H1261 C1224 0.930 . S
H1262 C1230 0.929 . S
H1263 C1231 0.930 . S
H1264 C1270 0.930 . S
H1265 C1273 0.930 . S
H1266 C1274 0.930 . S
H1267 C1275 0.930 . S
H1268 C1278 0.930 . S
H1269 C1279 0.930 . S
C1270 H1264 0.930 . S
C1270 C1271 1.355 . S
C1270 C1272 1.415 . S
C1271 C1270 1.355 . S
C1271 C1273 1.419 . S
C1272 C1270 1.415 . S
C1272 C1277 1.425 . S
C1272 C1279 1.409 . S
C1273 H1265 0.930 . S
C1273 C1271 1.419 . S
C1273 C1274 1.362 . S
C1274 H1266 0.930 . S
C1274 C1273 1.362 . S
C1274 C1277 1.409 . S
C1275 H1267 0.930 . S
C1275 C1276 1.355 . S
C1275 C1277 1.415 . S
C1276 C1275 1.355 . S
C1276 C1278 1.419 . S
C1277 C1272 1.425 . S
C1277 C1274 1.409 . S
C1277 C1275 1.415 . S
C1278 H1268 0.930 . S
C1278 C1276 1.419 . S
C1278 C1279 1.362 . S
C1279 H1269 0.930 . S
C1279 C1272 1.409 . S
C1279 C1278 1.362 . S
H1280 C1286 0.930 . S
H1281 C1289 0.930 . S
H1282 C1290 0.930 . S
H1283 C1291 0.930 . S
H1284 C1294 0.930 . S
H1285 C1295 0.950 . S
C1286 H1280 0.930 . S
C1286 C1287 1.355 . S
C1286 C1288 1.415 1_655 S
C1287 C1286 1.355 . S
C1287 C1289 1.419 1_655 S
C1288 C1286 1.415 1_455 S
C1288 C1293 1.425 . S
C1288 C1295 1.409 . S
C1289 H1281 0.930 . S
C1289 C1287 1.419 1_455 S
C1289 C1290 1.362 . S
C1290 H1282 0.930 . S
C1290 C1289 1.362 . S
C1290 C1293 1.409 . S
C1291 H1283 0.930 . S
C1291 C1292 1.355 . S
C1291 C1293 1.415 . S
C1292 C1291 1.355 . S
C1292 C1294 1.419 . S
C1293 C1288 1.425 . S
C1293 C1290 1.409 . S
C1293 C1291 1.415 . S
C1294 H1284 0.930 . S
C1294 C1292 1.419 . S
C1294 C1295 1.362 . S
C1295 H1285 0.950 . S
C1295 C1288 1.409 . S
C1295 C1294 1.362 . S
H1296 C1302 0.930 . S
H1297 C1305 0.930 . S
H1298 C1306 0.930 . S
H1299 C1307 0.930 . S
H1300 C1310 0.930 . S
H1301 C1311 0.930 . S
C1302 H1296 0.930 . S
C1302 C1303 1.355 . S
C1302 C1304 1.415 . S
C1303 C1302 1.355 . S
C1303 C1305 1.419 . S
C1304 C1302 1.415 . S
C1304 C1309 1.425 . S
C1304 C1311 1.409 . S
C1305 H1297 0.930 . S
C1305 C1303 1.419 . S
C1305 C1306 1.362 . S
C1306 H1298 0.930 . S
C1306 C1305 1.362 . S
C1306 C1309 1.409 . S
C1307 H1299 0.930 . S
C1307 C1308 1.355 . S
C1307 C1309 1.415 . S
C1308 C1307 1.355 . S
C1308 C1310 1.419 . S
C1309 C1304 1.425 . S
C1309 C1306 1.409 . S
C1309 C1307 1.415 . S
C1310 H1300 0.930 . S
C1310 C1308 1.419 . S
C1310 C1311 1.362 . S
C1311 H1301 0.930 . S
C1311 C1304 1.409 . S
C1311 C1310 1.362 . S
H1312 C1318 0.930 . S
H1313 C1321 0.930 . S
H1314 C1322 0.930 . S
H1315 C1323 0.930 . S
H1316 C1326 0.930 . S
H1317 C1327 0.930 . S
C1318 H1312 0.930 . S
C1318 C1319 1.355 . S
C1318 C1320 1.415 1_455 S
C1319 C1318 1.355 . S
C1319 C1321 1.419 1_465 S
C1320 C1318 1.415 1_655 S
C1320 C1325 1.425 1_565 S
C1320 C1327 1.409 . S
C1321 H1313 0.930 . S
C1321 C1319 1.419 1_645 S
C1321 C1322 1.362 . S
C1322 H1314 0.930 . S
C1322 C1321 1.362 . S
C1322 C1325 1.409 . S
C1323 H1315 0.930 . S
C1323 C1324 1.355 . S
C1323 C1325 1.415 . S
C1324 C1323 1.355 . S
C1324 C1326 1.419 1_545 S
C1325 C1320 1.425 1_545 S
C1325 C1322 1.409 . S
C1325 C1323 1.415 . S
C1326 H1316 0.930 . S
C1326 C1324 1.419 1_565 S
C1326 C1327 1.362 . S
C1327 H1317 0.930 . S
C1327 C1320 1.409 . S
C1327 C1326 1.362 . S
H1328 C1334 0.930 . S
H1329 C1337 0.930 . S
H1330 C1338 0.930 . S
H1331 C1339 0.930 . S
H1332 C1342 0.930 . S
H1333 C1343 0.930 . S
C1334 H1328 0.930 . S
C1334 C1335 1.355 . S
C1334 C1336 1.415 . S
C1335 C1334 1.355 . S
C1335 C1337 1.419 . S
C1336 C1334 1.415 . S
C1336 C1341 1.425 . S
C1336 C1343 1.409 . S
C1337 H1329 0.930 . S
C1337 C1335 1.419 . S
C1337 C1338 1.362 . S
C1338 H1330 0.930 . S
C1338 C1337 1.362 . S
C1338 C1341 1.409 . S
C1339 H1331 0.930 . S
C1339 C1340 1.355 . S
C1339 C1341 1.415 . S
C1340 C1339 1.355 . S
C1340 C1342 1.419 . S
C1341 C1336 1.425 . S
C1341 C1338 1.409 . S
C1341 C1339 1.415 . S
C1342 H1332 0.930 . S
C1342 C1340 1.419 . S
C1342 C1343 1.362 . S
C1343 H1333 0.930 . S
C1343 C1336 1.409 . S
C1343 C1342 1.362 . S
H1344 C1350 0.930 . S
H1345 C1353 0.930 . S
H1346 C1354 0.930 . S
H1347 C1355 0.930 . S
H1348 C1358 0.930 . S
H1349 C1359 0.930 . S
C1350 H1344 0.930 . S
C1350 C1351 1.355 . S
C1350 C1352 1.415 . S
C1351 C1350 1.355 . S
C1351 C1353 1.419 . S
C1352 C1350 1.415 . S
C1352 C1357 1.425 . S
C1352 C1359 1.409 . S
C1353 H1345 0.930 . S
C1353 C1351 1.419 . S
C1353 C1354 1.362 . S
C1354 H1346 0.930 . S
C1354 C1353 1.362 . S
C1354 C1357 1.409 . S
C1355 H1347 0.930 . S
C1355 C1356 1.355 . S
C1355 C1357 1.415 . S
C1356 C1355 1.355 . S
C1356 C1358 1.419 . S
C1357 C1352 1.425 . S
C1357 C1354 1.409 . S
C1357 C1355 1.415 . S
C1358 H1348 0.930 . S
C1358 C1356 1.419 . S
C1358 C1359 1.362 . S
C1359 H1349 0.930 . S
C1359 C1352 1.409 . S
C1359 C1358 1.362 . S
H1360 C1366 0.930 . S
H1361 C1369 0.930 . S
H1362 C1370 0.930 . S
H1363 C1371 0.930 . S
H1364 C1374 0.930 . S
H1365 C1375 0.930 . S
C1366 H1360 0.930 . S
C1366 C1367 1.355 . S
C1366 C1368 1.415 . S
C1367 C1366 1.355 . S
C1367 C1369 1.419 . S
C1368 C1366 1.415 . S
C1368 C1373 1.425 . S
C1368 C1375 1.409 . S
C1369 H1361 0.930 . S
C1369 C1367 1.419 . S
C1369 C1370 1.362 . S
C1370 H1362 0.930 . S
C1370 C1369 1.362 . S
C1370 C1373 1.409 . S
C1371 H1363 0.930 . S
C1371 C1372 1.355 . S
C1371 C1373 1.415 . S
C1372 C1371 1.355 . S
C1372 C1374 1.419 . S
C1373 C1368 1.425 . S
C1373 C1370 1.409 . S
C1373 C1371 1.415 . S
C1374 H1364 0.930 . S
C1374 C1372 1.419 . S
C1374 C1375 1.362 . S
C1375 H1365 0.930 . S
C1375 C1368 1.409 . S
C1375 C1374 1.362 . S
H1376 C1382 0.930 . S
H1377 C1385 0.930 1_545 S
H1378 C1386 0.930 . S
H1379 C1387 0.930 1_545 S
H1380 C1390 0.930 . S
H1381 C1391 0.930 . S
C1382 H1376 0.930 . S
C1382 C1383 1.355 . S
C1382 C1384 1.415 . S
C1383 C1382 1.355 . S
C1383 C1385 1.419 . S
C1384 C1382 1.415 . S
C1384 C1389 1.425 . S
C1384 C1391 1.409 . S
C1385 H1377 0.930 1_565 S
C1385 C1383 1.419 . S
C1385 C1386 1.362 1_565 S
C1386 H1378 0.930 . S
C1386 C1385 1.362 1_545 S
C1386 C1389 1.409 1_545 S
C1387 H1379 0.930 1_565 S
C1387 C1388 1.355 . S
C1387 C1389 1.415 . S
C1388 C1387 1.355 . S
C1388 C1390 1.419 . S
C1389 C1384 1.425 . S
C1389 C1386 1.409 1_565 S
C1389 C1387 1.415 . S
C1390 H1380 0.930 . S
C1390 C1388 1.419 . S
C1390 C1391 1.362 . S
C1391 H1381 0.930 . S
C1391 C1384 1.409 . S
C1391 C1390 1.362 . S
H1392 C1398 0.930 . S
H1393 C1401 0.930 . S
H1394 C1402 0.930 . S
H1395 C1403 0.930 . S
H1396 C1406 0.930 . S
H1397 C1407 0.930 . S
C1398 H1392 0.930 . S
C1398 C1399 1.355 . S
C1398 C1400 1.415 . S
C1399 C1398 1.355 . S
C1399 C1401 1.419 . S
C1400 C1398 1.415 . S
C1400 C1405 1.425 . S
C1400 C1407 1.409 . S
C1401 H1393 0.930 . S
C1401 C1399 1.419 . S
C1401 C1402 1.362 . S
C1402 H1394 0.930 . S
C1402 C1401 1.362 . S
C1402 C1405 1.409 . S
C1403 H1395 0.930 . S
C1403 C1404 1.355 . S
C1403 C1405 1.415 . S
C1404 C1403 1.355 . S
C1404 C1406 1.419 . S
C1405 C1400 1.425 . S
C1405 C1402 1.409 . S
C1405 C1403 1.415 . S
C1406 H1396 0.930 . S
C1406 C1404 1.419 . S
C1406 C1407 1.362 . S
C1407 H1397 0.930 . S
C1407 C1400 1.409 . S
C1407 C1406 1.362 . S
H1408 C1414 0.930 . S
H1409 C1417 0.930 . S
H1410 C1418 0.930 . S
H1411 C1419 0.930 . S
H1412 C1422 0.930 . S
H1413 C1423 0.930 . S
C1414 H1408 0.930 . S
C1414 C1415 1.355 . S
C1414 C1416 1.415 . S
C1415 C1414 1.355 . S
C1415 C1417 1.419 . S
C1416 C1414 1.415 . S
C1416 C1421 1.425 . S
C1416 C1423 1.409 . S
C1417 H1409 0.930 . S
C1417 C1415 1.419 . S
C1417 C1418 1.362 . S
C1418 H1410 0.930 . S
C1418 C1417 1.362 . S
C1418 C1421 1.409 . S
C1419 H1411 0.930 . S
C1419 C1420 1.355 . S
C1419 C1421 1.415 . S
C1420 C1419 1.355 . S
C1420 C1422 1.419 . S
C1421 C1416 1.425 . S
C1421 C1418 1.409 . S
C1421 C1419 1.415 . S
C1422 H1412 0.930 . S
C1422 C1420 1.419 . S
C1422 C1423 1.362 . S
C1423 H1413 0.930 . S
C1423 C1416 1.409 . S
C1423 C1422 1.362 . S
H1424 C1430 0.930 . S
H1425 C1433 0.930 . S
H1426 C1434 0.930 . S
H1427 C1435 0.930 . S
H1428 C1438 0.930 . S
H1429 C1439 0.930 . S
C1430 H1424 0.930 . S
C1430 C1431 1.355 . S
C1430 C1432 1.415 . S
C1431 C1430 1.355 . S
C1431 C1433 1.419 . S
C1432 C1430 1.415 . S
C1432 C1437 1.425 . S
C1432 C1439 1.409 . S
C1433 H1425 0.930 . S
C1433 C1431 1.419 . S
C1433 C1434 1.362 . S
C1434 H1426 0.930 . S
C1434 C1433 1.362 . S
C1434 C1437 1.409 . S
C1435 H1427 0.930 . S
C1435 C1436 1.355 . S
C1435 C1437 1.415 . S
C1436 C1435 1.355 . S
C1436 C1438 1.419 . S
C1437 C1432 1.425 . S
C1437 C1434 1.409 . S
C1437 C1435 1.415 . S
C1438 H1428 0.930 . S
C1438 C1436 1.419 . S
C1438 C1439 1.362 . S
C1439 H1429 0.930 . S
C1439 C1432 1.409 . S
C1439 C1438 1.362 . S
H1440 C1446 0.930 . S
H1441 C1449 0.930 . S
H1442 C1450 0.930 . S
H1443 C1451 0.930 . S
H1444 C1454 0.930 . S
H1445 C1455 0.930 . S
C1446 H1440 0.930 . S
C1446 C1447 1.355 . S
C1446 C1448 1.415 . S
C1447 C1446 1.355 . S
C1447 C1449 1.419 . S
C1448 C1446 1.415 . S
C1448 C1453 1.425 . S
C1448 C1455 1.409 . S
C1449 H1441 0.930 . S
C1449 C1447 1.419 . S
C1449 C1450 1.362 . S
C1450 H1442 0.930 . S
C1450 C1449 1.362 . S
C1450 C1453 1.409 . S
C1451 H1443 0.930 . S
C1451 C1452 1.355 . S
C1451 C1453 1.415 . S
C1452 C1451 1.355 . S
C1452 C1454 1.419 . S
C1453 C1448 1.425 . S
C1453 C1450 1.409 . S
C1453 C1451 1.415 . S
C1454 H1444 0.930 . S
C1454 C1452 1.419 . S
C1454 C1455 1.362 . S
C1455 H1445 0.930 . S
C1455 C1448 1.409 . S
C1455 C1454 1.362 . S
H1456 C1462 0.930 . S
H1457 C1465 0.930 . S
H1458 C1466 0.930 . S
H1459 C1467 0.930 . S
H1460 C1470 0.930 . S
H1461 C1471 0.930 . S
C1462 H1456 0.930 . S
C1462 C1463 1.355 . S
C1462 C1464 1.415 . S
C1463 C1462 1.355 . S
C1463 C1465 1.419 . S
C1464 C1462 1.415 . S
C1464 C1469 1.425 . S
C1464 C1471 1.409 . S
C1465 H1457 0.930 . S
C1465 C1463 1.419 . S
C1465 C1466 1.362 . S
C1466 H1458 0.930 . S
C1466 C1465 1.362 . S
C1466 C1469 1.409 . S
C1467 H1459 0.930 . S
C1467 C1468 1.355 . S
C1467 C1469 1.415 . S
C1468 C1467 1.355 . S
C1468 C1470 1.419 . S
C1469 C1464 1.425 . S
C1469 C1466 1.409 . S
C1469 C1467 1.415 . S
C1470 H1460 0.930 . S
C1470 C1468 1.419 . S
C1470 C1471 1.362 . S
C1471 H1461 0.930 . S
C1471 C1464 1.409 . S
C1471 C1470 1.362 . S
H1472 C1478 0.930 . S
H1473 C1481 0.930 . S
H1474 C1482 0.930 1_655 S
H1475 C1483 0.930 . S
H1476 C1486 0.930 . S
H1477 C1487 0.930 . S
C1478 H1472 0.930 . S
C1478 C1479 1.355 . S
C1478 C1480 1.415 . S
C1479 C1478 1.355 . S
C1479 C1481 1.419 . S
C1480 C1478 1.415 . S
C1480 C1485 1.425 . S
C1480 C1487 1.409 . S
C1481 H1473 0.930 . S
C1481 C1479 1.419 . S
C1481 C1482 1.362 . S
C1482 H1474 0.930 1_455 S
C1482 C1481 1.362 . S
C1482 C1485 1.409 . S
C1483 H1475 0.930 . S
C1483 C1484 1.355 . S
C1483 C1485 1.415 . S
C1484 C1483 1.355 . S
C1484 C1486 1.419 . S
C1485 C1480 1.425 . S
C1485 C1482 1.409 . S
C1485 C1483 1.415 . S
C1486 H1476 0.930 . S
C1486 C1484 1.419 . S
C1486 C1487 1.362 . S
C1487 H1477 0.930 . S
C1487 C1480 1.409 . S
C1487 C1486 1.362 . S
H1488 C1494 0.930 . S
H1489 C1497 0.930 . S
H1490 C1498 0.930 . S
H1491 C1499 0.930 . S
H1492 C1502 0.930 . S
H1493 C1503 0.930 . S
C1494 H1488 0.930 . S
C1494 C1495 1.355 . S
C1494 C1496 1.415 . S
C1495 C1494 1.355 . S
C1495 C1497 1.419 . S
C1496 C1494 1.415 . S
C1496 C1501 1.425 . S
C1496 C1503 1.409 . S
C1497 H1489 0.930 . S
C1497 C1495 1.419 . S
C1497 C1498 1.362 . S
C1498 H1490 0.930 . S
C1498 C1497 1.362 . S
C1498 C1501 1.409 . S
C1499 H1491 0.930 . S
C1499 C1500 1.355 . S
C1499 C1501 1.415 . S
C1500 C1499 1.355 . S
C1500 C1502 1.419 . S
C1501 C1496 1.425 . S
C1501 C1498 1.409 . S
C1501 C1499 1.415 . S
C1502 H1492 0.930 . S
C1502 C1500 1.419 . S
C1502 C1503 1.362 . S
C1503 H1493 0.930 . S
C1503 C1496 1.409 . S
C1503 C1502 1.362 . S
H1504 C1510 0.930 1_455 S
H1505 C1513 0.930 . S
H1506 C1514 0.930 . S
H1507 C1515 0.930 . S
H1508 C1518 0.930 . S
H1509 C1519 0.930 . S
C1510 H1504 0.930 1_655 S
C1510 C1511 1.355 . S
C1510 C1512 1.415 . S
C1511 C1510 1.355 . S
C1511 C1513 1.419 . S
C1512 C1510 1.415 . S
C1512 C1517 1.425 . S
C1512 C1519 1.409 1_655 S
C1513 H1505 0.930 . S
C1513 C1511 1.419 . S
C1513 C1514 1.362 . S
C1514 H1506 0.930 . S
C1514 C1513 1.362 . S
C1514 C1517 1.409 . S
C1515 H1507 0.930 . S
C1515 C1516 1.355 . S
C1515 C1517 1.415 . S
C1516 C1515 1.355 . S
C1516 C1518 1.419 1_655 S
C1517 C1512 1.425 . S
C1517 C1514 1.409 . S
C1517 C1515 1.415 . S
C1518 H1508 0.930 . S
C1518 C1516 1.419 1_455 S
C1518 C1519 1.362 . S
C1519 H1509 0.930 . S
C1519 C1512 1.409 1_455 S
C1519 C1518 1.362 . S
H1520 C1526 0.930 . S
H1521 C1529 0.930 . S
H1522 C1530 0.930 . S
H1523 C1531 0.930 . S
H1524 C1534 0.930 . S
H1525 C1535 0.930 . S
C1526 H1520 0.930 . S
C1526 C1527 1.355 . S
C1526 C1528 1.415 . S
C1527 C1526 1.355 . S
C1527 C1529 1.419 . S
C1528 C1526 1.415 . S
C1528 C1533 1.425 . S
C1528 C1535 1.409 . S
C1529 H1521 0.930 . S
C1529 C1527 1.419 . S
C1529 C1530 1.362 . S
C1530 H1522 0.930 . S
C1530 C1529 1.362 . S
C1530 C1533 1.409 . S
C1531 H1523 0.930 . S
C1531 C1532 1.355 . S
C1531 C1533 1.415 . S
C1532 C1531 1.355 . S
C1532 C1534 1.419 . S
C1533 C1528 1.425 . S
C1533 C1530 1.409 . S
C1533 C1531 1.415 . S
C1534 H1524 0.930 . S
C1534 C1532 1.419 . S
C1534 C1535 1.362 . S
C1535 H1525 0.930 . S
C1535 C1528 1.409 . S
C1535 C1534 1.362 . S
H1536 C1542 0.930 . S
H1537 C1545 0.930 . S
H1538 C1546 0.930 . S
H1539 C1547 0.930 . S
H1540 C1550 0.930 . S
H1541 C1551 0.930 . S
C1542 H1536 0.930 . S
C1542 C1543 1.355 . S
C1542 C1544 1.415 . S
C1543 C1542 1.355 . S
C1543 C1545 1.419 . S
C1544 C1542 1.415 . S
C1544 C1549 1.425 . S
C1544 C1551 1.409 . S
C1545 H1537 0.930 . S
C1545 C1543 1.419 . S
C1545 C1546 1.362 . S
C1546 H1538 0.930 . S
C1546 C1545 1.362 . S
C1546 C1549 1.409 . S
C1547 H1539 0.930 . S
C1547 C1548 1.355 . S
C1547 C1549 1.415 . S
C1548 C1547 1.355 . S
C1548 C1550 1.419 . S
C1549 C1544 1.425 . S
C1549 C1546 1.409 . S
C1549 C1547 1.415 . S
C1550 H1540 0.930 . S
C1550 C1548 1.419 . S
C1550 C1551 1.362 . S
C1551 H1541 0.930 . S
C1551 C1544 1.409 . S
C1551 C1550 1.362 . S
H1552 C1558 0.930 1_554 S
H1553 C1561 0.930 . S
H1554 C1562 0.930 . S
H1555 C1563 0.930 . S
H1556 C1566 0.930 . S
H1557 C1567 0.930 . S
C1558 H1552 0.930 1_556 S
C1558 C1559 1.355 1_565 S
C1558 C1560 1.415 . S
C1559 C1558 1.355 1_545 S
C1559 C1561 1.419 . S
C1560 C1558 1.415 . S
C1560 C1565 1.425 . S
C1560 C1567 1.409 1_556 S
C1561 H1553 0.930 . S
C1561 C1559 1.419 . S
C1561 C1562 1.362 . S
C1562 H1554 0.930 . S
C1562 C1561 1.362 . S
C1562 C1565 1.409 1_545 S
C1563 H1555 0.930 . S
C1563 C1564 1.376 . S
C1563 C1565 1.415 . S
C1564 C1563 1.376 . S
C1564 C1566 1.401 1_556 S
C1565 C1560 1.425 . S
C1565 C1562 1.409 1_565 S
C1565 C1563 1.415 . S
C1566 H1556 0.930 . S
C1566 C1564 1.401 1_554 S
C1566 C1567 1.362 . S
C1567 H1557 0.930 . S
C1567 C1560 1.409 1_554 S
C1567 C1566 1.362 . S
H1568 C1574 0.930 . S
H1569 C1577 0.930 . S
H1570 C1578 0.930 . S
H1571 C1579 0.930 . S
H1572 C1582 0.930 . S
H1573 C1583 0.930 . S
C1574 H1568 0.930 . S
C1574 C1575 1.355 . S
C1574 C1576 1.415 . S
C1575 C1574 1.355 . S
C1575 C1577 1.419 . S
C1576 C1574 1.415 . S
C1576 C1581 1.425 . S
C1576 C1583 1.409 . S
C1577 H1569 0.930 . S
C1577 C1575 1.419 . S
C1577 C1578 1.362 . S
C1578 H1570 0.930 . S
C1578 C1577 1.362 . S
C1578 C1581 1.409 . S
C1579 H1571 0.930 . S
C1579 C1580 1.355 . S
C1579 C1581 1.415 . S
C1580 C1579 1.355 . S
C1580 C1582 1.419 . S
C1581 C1576 1.425 . S
C1581 C1578 1.409 . S
C1581 C1579 1.415 . S
C1582 H1572 0.930 . S
C1582 C1580 1.419 . S
C1582 C1583 1.362 . S
C1583 H1573 0.930 . S
C1583 C1576 1.409 . S
C1583 C1582 1.362 . S
H1584 C1590 0.930 . S
H1585 C1593 0.930 . S
H1586 C1594 0.924 1_565 S
H1587 C1595 0.930 . S
H1588 C1598 0.930 . S
H1589 C1599 0.930 . S
C1590 H1584 0.930 . S
C1590 C1591 1.355 . S
C1590 C1592 1.415 . S
C1591 C1590 1.355 . S
C1591 C1593 1.419 1_545 S
C1592 C1590 1.415 . S
C1592 C1597 1.425 . S
C1592 C1599 1.409 . S
C1593 H1585 0.930 . S
C1593 C1591 1.419 1_565 S
C1593 C1594 1.360 1_565 S
C1594 H1586 0.924 1_545 S
C1594 C1593 1.360 1_545 S
C1594 C1597 1.417 . S
C1595 H1587 0.930 . S
C1595 C1596 1.355 . S
C1595 C1597 1.415 . S
C1596 C1595 1.355 . S
C1596 C1598 1.419 . S
C1597 C1592 1.425 . S
C1597 C1594 1.417 . S
C1597 C1595 1.415 . S
C1598 H1588 0.930 . S
C1598 C1596 1.419 . S
C1598 C1599 1.362 . S
C1599 H1589 0.930 . S
C1599 C1592 1.409 . S
C1599 C1598 1.362 . S
H1600 C1606 0.930 . S
H1601 C1609 0.930 . S
H1602 C1610 0.930 . S
H1603 C1611 0.930 . S
H1604 C1614 0.930 . S
H1605 C1615 0.930 . S
C1606 H1600 0.930 . S
C1606 C1607 1.355 . S
C1606 C1608 1.415 . S
C1607 C1606 1.355 . S
C1607 C1609 1.419 . S
C1608 C1606 1.415 . S
C1608 C1613 1.425 . S
C1608 C1615 1.409 . S
C1609 H1601 0.930 . S
C1609 C1607 1.419 . S
C1609 C1610 1.362 . S
C1610 H1602 0.930 . S
C1610 C1609 1.362 . S
C1610 C1613 1.409 . S
C1611 H1603 0.930 . S
C1611 C1612 1.355 . S
C1611 C1613 1.415 . S
C1612 C1611 1.355 . S
C1612 C1614 1.419 . S
C1613 C1608 1.425 . S
C1613 C1610 1.409 . S
C1613 C1611 1.415 . S
C1614 H1604 0.930 . S
C1614 C1612 1.419 . S
C1614 C1615 1.362 . S
C1615 H1605 0.930 . S
C1615 C1608 1.409 . S
C1615 C1614 1.362 . S
H1616 C1622 0.930 . S
H1617 C1625 0.930 . S
H1618 C1626 0.930 . S
H1619 C1627 0.930 . S
H1620 C1630 0.930 . S
H1621 C1631 0.930 . S
C1622 H1616 0.930 . S
C1622 C1623 1.355 . S
C1622 C1624 1.415 . S
C1623 C1622 1.355 . S
C1623 C1625 1.419 1_545 S
C1624 C1622 1.415 . S
C1624 C1629 1.425 . S
C1624 C1631 1.409 . S
C1625 H1617 0.930 . S
C1625 C1623 1.419 1_565 S
C1625 C1626 1.362 . S
C1626 H1618 0.930 . S
C1626 C1625 1.362 . S
C1626 C1629 1.409 1_565 S
C1627 H1619 0.930 . S
C1627 C1628 1.355 . S
C1627 C1629 1.415 . S
C1628 C1627 1.355 . S
C1628 C1630 1.419 . S
C1629 C1624 1.425 . S
C1629 C1626 1.409 1_545 S
C1629 C1627 1.415 . S
C1630 H1620 0.930 . S
C1630 C1628 1.419 . S
C1630 C1631 1.362 . S
C1631 H1621 0.930 . S
C1631 C1624 1.409 . S
C1631 C1630 1.362 . S
H1632 C1638 0.930 . S
H1633 C1641 0.930 . S
H1634 C1642 0.930 . S
H1635 C1643 0.930 . S
H1636 C1646 0.930 . S
H1637 C1647 0.930 . S
C1638 H1632 0.930 . S
C1638 C1639 1.355 . S
C1638 C1640 1.415 . S
C1639 C1638 1.355 . S
C1639 C1641 1.419 . S
C1640 C1638 1.415 . S
C1640 C1645 1.425 . S
C1640 C1647 1.409 . S
C1641 H1633 0.930 . S
C1641 C1639 1.419 . S
C1641 C1642 1.362 . S
C1642 H1634 0.930 . S
C1642 C1641 1.362 . S
C1642 C1645 1.409 . S
C1643 H1635 0.930 . S
C1643 C1644 1.355 . S
C1643 C1645 1.415 . S
C1644 C1643 1.355 . S
C1644 C1646 1.419 . S
C1645 C1640 1.425 . S
C1645 C1642 1.409 . S
C1645 C1643 1.415 . S
C1646 H1636 0.930 . S
C1646 C1644 1.419 . S
C1646 C1647 1.362 . S
C1647 H1637 0.930 . S
C1647 C1640 1.409 . S
C1647 C1646 1.362 . S
H1648 C1654 0.930 . S
H1649 C1657 0.930 . S
H1650 C1658 0.930 . S
H1651 C1659 0.930 . S
H1652 C1662 0.930 . S
H1653 C1663 0.930 . S
C1654 H1648 0.930 . S
C1654 C1655 1.355 . S
C1654 C1656 1.415 . S
C1655 C1654 1.355 . S
C1655 C1657 1.419 . S
C1656 C1654 1.415 . S
C1656 C1661 1.425 . S
C1656 C1663 1.409 . S
C1657 H1649 0.930 . S
C1657 C1655 1.419 . S
C1657 C1658 1.362 . S
C1658 H1650 0.930 . S
C1658 C1657 1.362 . S
C1658 C1661 1.409 . S
C1659 H1651 0.930 . S
C1659 C1660 1.355 . S
C1659 C1661 1.415 . S
C1660 C1659 1.355 . S
C1660 C1662 1.419 . S
C1661 C1656 1.425 . S
C1661 C1658 1.409 . S
C1661 C1659 1.415 . S
C1662 H1652 0.930 . S
C1662 C1660 1.419 . S
C1662 C1663 1.362 . S
C1663 H1653 0.930 . S
C1663 C1656 1.409 . S
C1663 C1662 1.362 . S
H1664 C1670 0.930 . S
H1665 C1673 0.930 . S
H1666 C1674 0.930 . S
H1667 C1675 0.930 . S
H1668 C1678 0.939 . S
H1669 C1679 0.930 1_565 S
C1670 H1664 0.930 . S
C1670 C1671 1.355 . S
C1670 C1672 1.415 . S
C1671 C1670 1.355 . S
C1671 C1673 1.419 . S
C1672 C1670 1.415 . S
C1672 C1677 1.425 . S
C1672 C1679 1.409 . S
C1673 H1665 0.930 . S
C1673 C1671 1.419 . S
C1673 C1674 1.362 . S
C1674 H1666 0.930 . S
C1674 C1673 1.362 . S
C1674 C1677 1.409 . S
C1675 H1667 0.930 . S
C1675 C1676 1.355 . S
C1675 C1677 1.415 . S
C1676 C1675 1.355 . S
C1676 C1678 1.419 . S
C1677 C1672 1.425 . S
C1677 C1674 1.409 . S
C1677 C1675 1.415 . S
C1678 H1668 0.939 . S
C1678 C1676 1.419 . S
C1678 C1679 1.362 . S
C1679 H1669 0.930 1_545 S
C1679 C1672 1.409 . S
C1679 C1678 1.362 . S
H1680 C1686 0.930 . S
H1681 C1689 0.930 . S
H1682 C1690 0.930 . S
H1683 C1691 0.930 . S
H1684 C1694 0.930 . S
H1685 C1695 0.930 . S
C1686 H1680 0.930 . S
C1686 C1687 1.355 . S
C1686 C1688 1.415 . S
C1687 C1686 1.355 . S
C1687 C1689 1.419 . S
C1688 C1686 1.415 . S
C1688 C1693 1.425 . S
C1688 C1695 1.409 . S
C1689 H1681 0.930 . S
C1689 C1687 1.419 . S
C1689 C1690 1.362 . S
C1690 H1682 0.930 . S
C1690 C1689 1.362 . S
C1690 C1693 1.409 . S
C1691 H1683 0.930 . S
C1691 C1692 1.355 . S
C1691 C1693 1.415 . S
C1692 C1691 1.355 . S
C1692 C1694 1.419 . S
C1693 C1688 1.425 . S
C1693 C1690 1.409 . S
C1693 C1691 1.415 . S
C1694 H1684 0.930 . S
C1694 C1692 1.419 . S
C1694 C1695 1.362 . S
C1695 H1685 0.930 . S
C1695 C1688 1.409 . S
C1695 C1694 1.362 . S
H1696 C1702 0.930 . S
H1697 C1705 0.930 . S
H1698 C1706 0.930 . S
H1699 C1707 0.930 . S
H1700 C1710 0.930 . S
H1701 C1711 0.930 . S
C1702 H1696 0.930 . S
C1702 C1703 1.355 . S
C1702 C1704 1.415 . S
C1703 C1702 1.355 . S
C1703 C1705 1.419 . S
C1704 C1702 1.415 . S
C1704 C1709 1.425 . S
C1704 C1711 1.409 . S
C1705 H1697 0.930 . S
C1705 C1703 1.419 . S
C1705 C1706 1.362 . S
C1706 H1698 0.930 . S
C1706 C1705 1.362 . S
C1706 C1709 1.409 . S
C1707 H1699 0.930 . S
C1707 C1708 1.355 . S
C1707 C1709 1.415 . S
C1708 C1707 1.355 . S
C1708 C1710 1.419 . S
C1709 C1704 1.425 . S
C1709 C1706 1.409 . S
C1709 C1707 1.415 . S
C1710 H1700 0.930 . S
C1710 C1708 1.419 . S
C1710 C1711 1.362 . S
C1711 H1701 0.930 . S
C1711 C1704 1.409 . S
C1711 C1710 1.362 . S
H1712 C1718 0.930 . S
H1713 C1721 0.930 . S
H1714 C1722 0.930 . S
H1715 C1723 0.930 . S
H1716 C1726 0.930 . S
H1717 C1727 0.930 . S
C1718 H1712 0.930 . S
C1718 C1719 1.355 . S
C1718 C1720 1.415 . S
C1719 C1718 1.355 . S
C1719 C1721 1.419 . S
C1720 C1718 1.415 . S
C1720 C1725 1.425 . S
C1720 C1727 1.409 . S
C1721 H1713 0.930 . S
C1721 C1719 1.419 . S
C1721 C1722 1.362 . S
C1722 H1714 0.930 . S
C1722 C1721 1.362 . S
C1722 C1725 1.409 . S
C1723 H1715 0.930 . S
C1723 C1724 1.355 . S
C1723 C1725 1.415 . S
C1724 C1723 1.355 . S
C1724 C1726 1.419 . S
C1725 C1720 1.425 . S
C1725 C1722 1.409 . S
C1725 C1723 1.415 . S
C1726 H1716 0.930 . S
C1726 C1724 1.419 . S
C1726 C1727 1.362 . S
C1727 H1717 0.930 . S
C1727 C1720 1.409 . S
C1727 C1726 1.362 . S
H1728 C1734 0.930 . S
H1729 C1737 0.930 1_455 S
H1730 C1738 0.930 . S
H1731 C1739 0.930 . S
H1732 C1742 0.930 . S
H1733 C1743 0.930 . S
C1734 H1728 0.930 . S
C1734 C1735 1.355 1_565 S
C1734 C1736 1.415 . S
C1735 C1734 1.355 1_545 S
C1735 C1737 1.419 . S
C1736 C1734 1.415 . S
C1736 C1741 1.425 1_565 S
C1736 C1743 1.409 . S
C1737 H1729 0.930 1_655 S
C1737 C1735 1.419 . S
C1737 C1738 1.362 . S
C1738 H1730 0.930 . S
C1738 C1737 1.362 . S
C1738 C1741 1.409 . S
C1739 H1731 0.930 . S
C1739 C1740 1.367 . S
C1739 C1741 1.415 . S
C1740 C1739 1.367 . S
C1740 C1742 1.408 1_545 S
C1741 C1736 1.425 1_545 S
C1741 C1738 1.409 . S
C1741 C1739 1.415 . S
C1742 H1732 0.930 . S
C1742 C1740 1.408 1_565 S
C1742 C1743 1.362 . S
C1743 H1733 0.930 . S
C1743 C1736 1.409 . S
C1743 C1742 1.362 . S
H1744 C1750 0.930 . S
H1745 C1753 0.930 . S
H1746 C1754 0.930 . S
H1747 C1755 0.930 . S
H1748 C1758 0.930 . S
H1749 C1759 0.930 . S
C1750 H1744 0.930 . S
C1750 C1751 1.355 . S
C1750 C1752 1.415 . S
C1751 C1750 1.355 . S
C1751 C1753 1.419 . S
C1752 C1750 1.415 . S
C1752 C1757 1.425 . S
C1752 C1759 1.409 . S
C1753 H1745 0.930 . S
C1753 C1751 1.419 . S
C1753 C1754 1.362 . S
C1754 H1746 0.930 . S
C1754 C1753 1.362 . S
C1754 C1757 1.409 . S
C1755 H1747 0.930 . S
C1755 C1756 1.355 . S
C1755 C1757 1.415 . S
C1756 C1755 1.355 . S
C1756 C1758 1.419 . S
C1757 C1752 1.425 . S
C1757 C1754 1.409 . S
C1757 C1755 1.415 . S
C1758 H1748 0.930 . S
C1758 C1756 1.419 . S
C1758 C1759 1.362 . S
C1759 H1749 0.930 . S
C1759 C1752 1.409 . S
C1759 C1758 1.362 . S
H1760 C1766 0.930 1_655 S
H1761 C1769 0.930 . S
H1762 C1770 0.930 . S
H1763 C1771 0.930 . S
H1764 C1774 0.930 . S
H1765 C1775 0.930 . S
C1766 H1760 0.930 1_455 S
C1766 C1767 1.355 . S
C1766 C1768 1.415 . S
C1767 C1766 1.355 . S
C1767 C1769 1.419 . S
C1768 C1766 1.415 . S
C1768 C1773 1.425 . S
C1768 C1775 1.409 . S
C1769 H1761 0.930 . S
C1769 C1767 1.419 . S
C1769 C1770 1.362 . S
C1770 H1762 0.930 . S
C1770 C1769 1.362 . S
C1770 C1773 1.409 . S
C1771 H1763 0.930 . S
C1771 C1772 1.355 . S
C1771 C1773 1.415 . S
C1772 C1771 1.355 . S
C1772 C1774 1.419 . S
C1773 C1768 1.425 . S
C1773 C1770 1.409 . S
C1773 C1771 1.415 . S
C1774 H1764 0.930 . S
C1774 C1772 1.419 . S
C1774 C1775 1.362 . S
C1775 H1765 0.930 . S
C1775 C1768 1.409 . S
C1775 C1774 1.362 . S
H1776 C1782 0.930 . S
H1777 C1785 0.930 . S
H1778 C1786 0.930 . S
H1779 C1787 0.930 . S
H1780 C1790 0.930 . S
H1781 C1791 0.930 . S
C1782 H1776 0.930 . S
C1782 C1783 1.355 . S
C1782 C1784 1.415 . S
C1783 C1782 1.355 . S
C1783 C1785 1.419 . S
C1784 C1782 1.415 . S
C1784 C1789 1.425 . S
C1784 C1791 1.409 . S
C1785 H1777 0.930 . S
C1785 C1783 1.419 . S
C1785 C1786 1.362 . S
C1786 H1778 0.930 . S
C1786 C1785 1.362 . S
C1786 C1789 1.409 . S
C1787 H1779 0.930 . S
C1787 C1788 1.355 . S
C1787 C1789 1.415 . S
C1788 C1787 1.355 . S
C1788 C1790 1.419 . S
C1789 C1784 1.425 . S
C1789 C1786 1.409 . S
C1789 C1787 1.415 . S
C1790 H1780 0.930 . S
C1790 C1788 1.419 . S
C1790 C1791 1.362 . S
C1791 H1781 0.930 . S
C1791 C1784 1.409 . S
C1791 C1790 1.362 . S
H1792 C1798 0.930 . S
H1793 C1801 0.930 . S
H1794 C1802 0.930 . S
H1795 C1803 0.930 . S
H1796 C1806 0.930 . S
H1797 C1807 0.930 . S
C1798 H1792 0.930 . S
C1798 C1799 1.355 . S
C1798 C1800 1.415 . S
C1799 C1798 1.355 . S
C1799 C1801 1.419 1_655 S
C1800 C1798 1.415 . S
C1800 C1805 1.409 1_655 S
C1800 C1807 1.409 . S
C1801 H1793 0.930 . S
C1801 C1799 1.419 1_455 S
C1801 C1802 1.362 . S
C1802 H1794 0.930 . S
C1802 C1801 1.362 . S
C1802 C1805 1.420 . S
C1803 H1795 0.930 . S
C1803 C1804 1.355 1_455 S
C1803 C1805 1.419 1_556 S
C1804 C1803 1.355 1_655 S
C1804 C1806 1.419 . S
C1805 C1800 1.409 1_455 S
C1805 C1802 1.420 . S
C1805 C1803 1.419 1_554 S
C1806 H1796 0.930 . S
C1806 C1804 1.419 . S
C1806 C1807 1.362 1_556 S
C1807 H1797 0.930 . S
C1807 C1800 1.409 . S
C1807 C1806 1.362 1_554 S
H1808 C1814 0.930 . S
H1809 C1817 0.930 . S
H1810 C1818 0.930 . S
H1811 C1819 0.930 . S
H1812 C1822 0.930 . S
H1813 C1823 0.930 . S
C1814 H1808 0.930 . S
C1814 C1815 1.355 . S
C1814 C1816 1.415 . S
C1815 C1814 1.355 . S
C1815 C1817 1.419 . S
C1816 C1814 1.415 . S
C1816 C1821 1.425 . S
C1816 C1823 1.409 . S
C1817 H1809 0.930 . S
C1817 C1815 1.419 . S
C1817 C1818 1.362 . S
C1818 H1810 0.930 . S
C1818 C1817 1.362 . S
C1818 C1821 1.409 . S
C1819 H1811 0.930 . S
C1819 C1820 1.355 . S
C1819 C1821 1.415 . S
C1820 C1819 1.355 . S
C1820 C1822 1.419 . S
C1821 C1816 1.425 . S
C1821 C1818 1.409 . S
C1821 C1819 1.415 . S
C1822 H1812 0.930 . S
C1822 C1820 1.419 . S
C1822 C1823 1.362 . S
C1823 H1813 0.930 . S
C1823 C1816 1.409 . S
C1823 C1822 1.362 . S
H1824 C1830 0.930 1_556 S
H1825 C1833 0.930 1_655 S
H1826 C1834 0.930 . S
H1827 C1835 0.925 1_654 S
H1828 C1838 0.930 . S
H1829 C1839 0.930 . S
C1830 H1824 0.930 1_554 S
C1830 C1831 1.355 . S
C1830 C1832 1.415 1_554 S
C1831 C1830 1.355 . S
C1831 C1833 1.419 . S
C1832 C1830 1.415 1_556 S
C1832 C1837 1.425 1_556 S
C1832 C1839 1.409 . S
C1833 H1825 0.930 1_455 S
C1833 C1831 1.419 . S
C1833 C1834 1.362 1_455 S
C1834 H1826 0.930 . S
C1834 C1833 1.362 1_655 S
C1834 C1837 1.409 1_655 S
C1835 H1827 0.925 1_456 S
C1835 C1836 1.357 . S
C1835 C1837 1.417 1_556 S
C1836 C1835 1.357 . S
C1836 C1838 1.419 . S
C1837 C1832 1.425 1_554 S
C1837 C1834 1.409 1_455 S
C1837 C1835 1.417 1_554 S
C1838 H1828 0.930 . S
C1838 C1836 1.419 . S
C1838 C1839 1.362 . S
C1839 H1829 0.930 . S
C1839 C1832 1.409 . S
C1839 C1838 1.362 . S
H1840 C1846 0.930 . S
H1841 C1849 0.930 . S
H1842 C1850 0.930 . S
H1843 C1851 0.930 . S
H1844 C1854 0.930 . S
H1845 C1855 0.930 . S
C1846 H1840 0.930 . S
C1846 C1847 1.355 . S
C1846 C1848 1.415 . S
C1847 C1846 1.355 . S
C1847 C1849 1.419 . S
C1848 C1846 1.415 . S
C1848 C1853 1.425 . S
C1848 C1855 1.409 . S
C1849 H1841 0.930 . S
C1849 C1847 1.419 . S
C1849 C1850 1.362 . S
C1850 H1842 0.930 . S
C1850 C1849 1.362 . S
C1850 C1853 1.409 . S
C1851 H1843 0.930 . S
C1851 C1852 1.355 . S
C1851 C1853 1.415 . S
C1852 C1851 1.355 . S
C1852 C1854 1.419 . S
C1853 C1848 1.425 . S
C1853 C1850 1.409 . S
C1853 C1851 1.415 . S
C1854 H1844 0.930 . S
C1854 C1852 1.419 . S
C1854 C1855 1.362 . S
C1855 H1845 0.930 . S
C1855 C1848 1.409 . S
C1855 C1854 1.362 . S
H1856 C1862 0.930 1_556 S
H1857 C1865 0.930 . S
H1858 C1866 0.930 . S
H1859 C1867 0.930 . S
H1860 C1870 0.930 . S
H1861 C1871 0.930 . S
C1862 H1856 0.930 1_554 S
C1862 C1863 1.355 . S
C1862 C1864 1.415 . S
C1863 C1862 1.355 . S
C1863 C1865 1.419 . S
C1864 C1862 1.415 . S
C1864 C1869 1.425 . S
C1864 C1871 1.409 . S
C1865 H1857 0.930 . S
C1865 C1863 1.419 . S
C1865 C1866 1.362 . S
C1866 H1858 0.930 . S
C1866 C1865 1.362 . S
C1866 C1869 1.409 . S
C1867 H1859 0.930 . S
C1867 C1868 1.355 . S
C1867 C1869 1.415 . S
C1868 C1867 1.355 . S
C1868 C1870 1.419 . S
C1869 C1864 1.425 . S
C1869 C1866 1.409 . S
C1869 C1867 1.415 . S
C1870 H1860 0.930 . S
C1870 C1868 1.419 . S
C1870 C1871 1.362 . S
C1871 H1861 0.930 . S
C1871 C1864 1.409 . S
C1871 C1870 1.362 . S
H1872 C1878 0.930 . S
H1873 C1881 0.930 . S
H1874 C1882 0.930 . S
H1875 C1883 0.930 . S
H1876 C1886 0.930 . S
H1877 C1887 0.930 . S
C1878 H1872 0.930 . S
C1878 C1879 1.355 . S
C1878 C1880 1.415 . S
C1879 C1878 1.355 . S
C1879 C1881 1.419 . S
C1880 C1878 1.415 . S
C1880 C1885 1.425 . S
C1880 C1887 1.409 . S
C1881 H1873 0.930 . S
C1881 C1879 1.419 . S
C1881 C1882 1.362 . S
C1882 H1874 0.930 . S
C1882 C1881 1.362 . S
C1882 C1885 1.409 . S
C1883 H1875 0.930 . S
C1883 C1884 1.355 . S
C1883 C1885 1.415 . S
C1884 C1883 1.355 . S
C1884 C1886 1.419 . S
C1885 C1880 1.425 . S
C1885 C1882 1.409 . S
C1885 C1883 1.415 . S
C1886 H1876 0.930 . S
C1886 C1884 1.419 . S
C1886 C1887 1.362 . S
C1887 H1877 0.930 . S
C1887 C1880 1.409 . S
C1887 C1886 1.362 . S
H1888 C1894 0.927 1_556 S
H1889 C1897 0.930 . S
H1890 C1898 0.930 . S
H1891 C1899 0.930 . S
H1892 C1902 0.930 . S
H1893 C1903 0.930 . S
C1894 H1888 0.927 1_554 S
C1894 C1895 1.355 1_554 S
C1894 C1896 1.417 . S
C1895 C1894 1.355 1_556 S
C1895 C1897 1.419 1_556 S
C1896 C1894 1.417 . S
C1896 C1901 1.425 . S
C1896 C1903 1.409 . S
C1897 H1889 0.930 . S
C1897 C1895 1.419 1_554 S
C1897 C1898 1.362 . S
C1898 H1890 0.930 . S
C1898 C1897 1.362 . S
C1898 C1901 1.409 . S
C1899 H1891 0.930 . S
C1899 C1900 1.355 . S
C1899 C1901 1.415 . S
C1900 C1899 1.355 . S
C1900 C1902 1.419 . S
C1901 C1896 1.425 . S
C1901 C1898 1.409 . S
C1901 C1899 1.415 . S
C1902 H1892 0.930 . S
C1902 C1900 1.419 . S
C1902 C1903 1.362 . S
C1903 H1893 0.930 . S
C1903 C1896 1.409 . S
C1903 C1902 1.362 . S
H1904 C1910 0.930 . S
H1905 C1913 0.930 . S
H1906 C1914 0.930 . S
H1907 C1915 0.930 . S
H1908 C1918 0.930 . S
H1909 C1919 0.930 . S
C1910 H1904 0.930 . S
C1910 C1911 1.355 . S
C1910 C1912 1.415 . S
C1911 C1910 1.355 . S
C1911 C1913 1.419 . S
C1912 C1910 1.415 . S
C1912 C1917 1.425 . S
C1912 C1919 1.409 . S
C1913 H1905 0.930 . S
C1913 C1911 1.419 . S
C1913 C1914 1.362 . S
C1914 H1906 0.930 . S
C1914 C1913 1.362 . S
C1914 C1917 1.409 . S
C1915 H1907 0.930 . S
C1915 C1916 1.355 . S
C1915 C1917 1.415 . S
C1916 C1915 1.355 . S
C1916 C1918 1.419 . S
C1917 C1912 1.425 . S
C1917 C1914 1.409 . S
C1917 C1915 1.415 . S
C1918 H1908 0.930 . S
C1918 C1916 1.419 . S
C1918 C1919 1.362 . S
C1919 H1909 0.930 . S
C1919 C1912 1.409 . S
C1919 C1918 1.362 . S
H1920 C1926 0.930 . S
H1921 C1929 0.930 . S
H1922 C1930 0.930 . S
H1923 C1931 0.930 . S
H1924 C1934 0.930 . S
H1925 C1935 0.930 . S
C1926 H1920 0.930 . S
C1926 C1927 1.355 . S
C1926 C1928 1.415 . S
C1927 C1926 1.355 . S
C1927 C1929 1.419 . S
C1928 C1926 1.415 . S
C1928 C1933 1.425 . S
C1928 C1935 1.409 . S
C1929 H1921 0.930 . S
C1929 C1927 1.419 . S
C1929 C1930 1.362 . S
C1930 H1922 0.930 . S
C1930 C1929 1.362 . S
C1930 C1933 1.409 . S
C1931 H1923 0.930 . S
C1931 C1932 1.355 . S
C1931 C1933 1.415 . S
C1932 C1931 1.355 . S
C1932 C1934 1.419 . S
C1933 C1928 1.425 . S
C1933 C1930 1.409 . S
C1933 C1931 1.415 . S
C1934 H1924 0.930 . S
C1934 C1932 1.419 . S
C1934 C1935 1.362 . S
C1935 H1925 0.930 . S
C1935 C1928 1.409 . S
C1935 C1934 1.362 . S
H1936 C1942 0.930 . S
H1937 C1945 0.930 . S
H1938 C1946 0.930 . S
H1939 C1947 0.930 . S
H1940 C1950 0.930 . S
H1941 C1951 0.930 . S
C1942 H1936 0.930 . S
C1942 C1943 1.355 . S
C1942 C1944 1.415 . S
C1943 C1942 1.355 . S
C1943 C1945 1.419 . S
C1944 C1942 1.415 . S
C1944 C1949 1.425 . S
C1944 C1951 1.409 . S
C1945 H1937 0.930 . S
C1945 C1943 1.419 . S
C1945 C1946 1.362 . S
C1946 H1938 0.930 . S
C1946 C1945 1.362 . S
C1946 C1949 1.409 . S
C1947 H1939 0.930 . S
C1947 C1948 1.355 . S
C1947 C1949 1.415 . S
C1948 C1947 1.355 . S
C1948 C1950 1.419 . S
C1949 C1944 1.425 . S
C1949 C1946 1.409 . S
C1949 C1947 1.415 . S
C1950 H1940 0.930 . S
C1950 C1948 1.419 . S
C1950 C1951 1.362 . S
C1951 H1941 0.930 . S
C1951 C1944 1.409 . S
C1951 C1950 1.362 . S
H1952 C1958 0.930 . S
H1953 C1961 0.930 . S
H1954 C1962 0.930 . S
H1955 C1963 0.930 . S
H1956 C1966 0.930 . S
H1957 C1967 0.930 . S
C1958 H1952 0.930 . S
C1958 C1959 1.355 . S
C1958 C1960 1.415 . S
C1959 C1958 1.355 . S
C1959 C1961 1.419 . S
C1960 C1958 1.415 . S
C1960 C1965 1.425 . S
C1960 C1967 1.409 . S
C1961 H1953 0.930 . S
C1961 C1959 1.419 . S
C1961 C1962 1.362 . S
C1962 H1954 0.930 . S
C1962 C1961 1.362 . S
C1962 C1965 1.409 . S
C1963 H1955 0.930 . S
C1963 C1964 1.355 . S
C1963 C1965 1.415 . S
C1964 C1963 1.355 . S
C1964 C1966 1.419 . S
C1965 C1960 1.425 . S
C1965 C1962 1.409 . S
C1965 C1963 1.415 . S
C1966 H1956 0.930 . S
C1966 C1964 1.419 . S
C1966 C1967 1.362 . S
C1967 H1957 0.930 . S
C1967 C1960 1.409 . S
C1967 C1966 1.362 . S
H1968 C1974 0.930 . S
H1969 C1977 0.930 . S
H1970 C1978 0.930 . S
H1971 C1979 0.930 1_554 S
H1972 C1982 0.930 . S
H1973 C1983 0.930 . S
C1974 H1968 0.930 . S
C1974 C1975 1.355 . S
C1974 C1976 1.415 . S
C1975 C1974 1.355 . S
C1975 C1977 1.419 1_556 S
C1976 C1974 1.415 . S
C1976 C1981 1.425 . S
C1976 C1983 1.409 . S
C1977 H1969 0.930 . S
C1977 C1975 1.419 1_554 S
C1977 C1978 1.362 . S
C1978 H1970 0.930 . S
C1978 C1977 1.362 . S
C1978 C1981 1.409 1_554 S
C1979 H1971 0.930 1_556 S
C1979 C1980 1.355 . S
C1979 C1981 1.415 . S
C1980 C1979 1.355 . S
C1980 C1982 1.419 . S
C1981 C1976 1.425 . S
C1981 C1978 1.409 1_556 S
C1981 C1979 1.415 . S
C1982 H1972 0.930 . S
C1982 C1980 1.419 . S
C1982 C1983 1.362 . S
C1983 H1973 0.930 . S
C1983 C1976 1.409 . S
C1983 C1982 1.362 . S
H1984 C1990 0.930 . S
H1985 C1993 0.930 . S
H1986 C1994 0.930 . S
H1987 C1995 0.930 . S
H1988 C1998 0.930 . S
H1989 C1999 0.930 . S
C1990 H1984 0.930 . S
C1990 C1991 1.355 . S
C1990 C1992 1.415 . S
C1991 C1990 1.355 . S
C1991 C1993 1.419 . S
C1992 C1990 1.415 . S
C1992 C1997 1.425 . S
C1992 C1999 1.409 . S
C1993 H1985 0.930 . S
C1993 C1991 1.419 . S
C1993 C1994 1.362 . S
C1994 H1986 0.930 . S
C1994 C1993 1.362 . S
C1994 C1997 1.409 . S
C1995 H1987 0.930 . S
C1995 C1996 1.355 . S
C1995 C1997 1.415 . S
C1996 C1995 1.355 . S
C1996 C1998 1.419 . S
C1997 C1992 1.425 . S
C1997 C1994 1.409 . S
C1997 C1995 1.415 . S
C1998 H1988 0.930 . S
C1998 C1996 1.419 . S
C1998 C1999 1.362 . S
C1999 H1989 0.930 . S
C1999 C1992 1.409 . S
C1999 C1998 1.362 . S
H2000 C2006 0.930 . S
H2001 C2009 0.930 . S
H2002 C2010 0.930 1_556 S
H2003 C2011 0.930 1_556 S
H2004 C2014 0.930 . S
H2005 C2015 0.930 . S
C2006 H2000 0.930 . S
C2006 C2007 1.355 . S
C2006 C2008 1.415 . S
C2007 C2006 1.355 . S
C2007 C2009 1.419 . S
C2008 C2006 1.415 . S
C2008 C2013 1.425 . S
C2008 C2015 1.409 . S
C2009 H2001 0.930 . S
C2009 C2007 1.419 . S
C2009 C2010 1.362 . S
C2010 H2002 0.930 1_554 S
C2010 C2009 1.362 . S
C2010 C2013 1.409 . S
C2011 H2003 0.930 1_554 S
C2011 C2012 1.355 . S
C2011 C2013 1.415 . S
C2012 C2011 1.355 . S
C2012 C2014 1.419 . S
C2013 C2008 1.425 . S
C2013 C2010 1.409 . S
C2013 C2011 1.415 . S
C2014 H2004 0.930 . S
C2014 C2012 1.419 . S
C2014 C2015 1.362 . S
C2015 H2005 0.930 . S
C2015 C2008 1.409 . S
C2015 C2014 1.362 . S
H2016 C2022 0.930 . S
H2017 C2025 0.930 . S
H2018 C2026 0.930 . S
H2019 C2027 0.930 . S
H2020 C2030 0.930 . S
H2021 C2031 0.930 . S
C2022 H2016 0.930 . S
C2022 C2023 1.355 . S
C2022 C2024 1.415 . S
C2023 C2022 1.355 . S
C2023 C2025 1.419 1_565 S
C2024 C2022 1.415 . S
C2024 C2029 1.425 . S
C2024 C2031 1.409 . S
C2025 H2017 0.930 . S
C2025 C2023 1.419 1_545 S
C2025 C2026 1.362 . S
C2026 H2018 0.930 . S
C2026 C2025 1.362 . S
C2026 C2029 1.409 1_545 S
C2027 H2019 0.930 . S
C2027 C2028 1.355 . S
C2027 C2029 1.415 . S
C2028 C2027 1.355 . S
C2028 C2030 1.419 . S
C2029 C2024 1.425 . S
C2029 C2026 1.409 1_565 S
C2029 C2027 1.415 . S
C2030 H2020 0.930 . S
C2030 C2028 1.419 . S
C2030 C2031 1.362 . S
C2031 H2021 0.930 . S
C2031 C2024 1.409 . S
C2031 C2030 1.362 . S
C1276 C257 1.276 . S
C1271 N66 1.268 . S
C1292 C316 1.569 . S
C1287 N79 1.555 . S
C1303 N92 1.778 . S
C1308 C433 1.825 . S
C1324 C501 1.346 . S
C1319 N54 1.360 . S
C1340 C580 1.555 . S
C1335 N131 1.540 . S
C1356 C705 1.183 . S
C1351 N158 1.186 . S
C1367 N145 1.532 . S
C1372 C765 1.534 . S
C1388 C873 1.805 . S
C1383 N118 1.769 . S
C1399 N148 1.985 . S
C1404 C969 1.987 . S
C1420 C1029 1.631 . S
C1415 N122 1.595 . S
C1431 N132 1.262 . S
C1436 C932 1.267 . S
C1452 C1049 1.510 . S
C1447 N161 1.485 . S
C1463 N96 1.896 . S
C1468 C1117 1.918 . S
C1479 N53 1.731 . S
C1484 C1108 1.773 . S
C1495 N67 1.044 . S
C1500 C1137 1.043 . S
C1511 N83 1.301 . S
C1516 C1145 1.342 . S
C1527 N44 1.418 . S
C1532 C529 1.458 . S
C1543 N187 1.540 . S
C1548 C492 1.538 . S
C1564 C228 1.173 . S
C1559 N197 1.180 . S
C1580 C325 1.274 . S
C1575 N106 1.279 . S
C1591 N57 1.855 1_545 S
C1596 C589 1.859 . S
C1612 C881 1.441 . S
C1607 N144 1.396 . S
C1628 C609 1.386 . S
C1623 N119 1.390 1_545 S
C1644 C793 1.820 . S
C1639 N157 1.766 . S
C1660 C785 1.276 . S
C1655 N183 1.224 . S
C1671 N196 1.582 . S
C1676 C853 1.574 . S
C1687 N105 1.783 . S
C1692 C617 1.831 . S
C1708 C668 1.363 . S
C1703 N171 1.375 . S
C1719 N40 1.558 . S
C1724 C413 1.549 . S
C1740 C521 1.188 . S
C1735 N2 1.164 . S
C1756 C237 1.540 . S
C1751 N15 1.531 . S
C1772 C353 1.800 . S
C1767 N27 1.785 1_455 S
C1783 N18 1.986 . S
C1788 C1057 1.994 . S
C1799 N31 1.626 . S
C1804 C941 1.611 . S
C1815 N41 1.251 . S
C1820 C1020 1.252 . S
C1831 N5 1.441 . S
C1836 C961 1.499 . S
C1852 C1205 1.925 . S
C1847 N109 1.872 . S
C1868 C1196 1.773 . S
C1863 N170 1.733 1_554 S
C1884 C1225 1.048 . S
C1879 N184 1.038 . S
C1895 N200 1.336 . S
C1900 C1233 1.330 . S
C1911 N135 1.440 . S
C1916 C697 1.469 . S
C1932 C677 1.520 . S
C1927 N70 1.540 . S
C1948 C756 1.191 . S
C1943 N80 1.185 . S
C1964 C844 1.272 . S
C1959 N93 1.272 . S
C1975 N174 1.862 . S
C1980 C404 1.879 . S
C1996 C345 1.442 . S
C1991 N14 1.397 . S
C2007 N28 1.380 . S
C2012 C441 1.362 . S
C2028 C265 1.820 . S
C2023 N1 1.766 1_565 S
