# Generated by pormake.
# Topology anh, (6,3)-cn, num edge types: 1
# Building blocks:
#     Node 0, Type 0, BuildingBlock: PAMTOO_clean_sbu_0, # of connection points: 6
#     Node 1, Type 0, BuildingBlock: PAMTOO_clean_sbu_0, # of connection points: 6
#     Node 2, Type 0, BuildingBlock: PAMTOO_clean_sbu_0, # of connection points: 6
#     Node 3, Type 1, BuildingBlock: MIDCAF_clean_linker_0, # of connection points: 3
#     Node 4, Type 1, BuildingBlock: MIDCAF_clean_linker_0, # of connection points: 3
#     Node 5, Type 1, BuildingBlock: MIDCAF_clean_linker_0, # of connection points: 3
#     Node 6, Type 1, BuildingBlock: MIDCAF_clean_linker_0, # of connection points: 3
#     Node 7, Type 1, BuildingBlock: MIDCAF_clean_linker_0, # of connection points: 3
#     Node 8, Type 1, BuildingBlock: MIDCAF_clean_linker_0, # of connection points: 3
#     Edge 9, Type (0, 1), None
#     Edge 10, Type (0, 1), None
#     Edge 11, Type (0, 1), None
#     Edge 12, Type (0, 1), None
#     Edge 13, Type (0, 1), None
#     Edge 14, Type (0, 1), None
#     Edge 15, Type (0, 1), None
#     Edge 16, Type (0, 1), None
#     Edge 17, Type (0, 1), None
#     Edge 18, Type (0, 1), None
#     Edge 19, Type (0, 1), None
#     Edge 20, Type (0, 1), None
#     Edge 21, Type (0, 1), None
#     Edge 22, Type (0, 1), None
#     Edge 23, Type (0, 1), None
#     Edge 24, Type (0, 1), None
#     Edge 25, Type (0, 1), None
#     Edge 26, Type (0, 1), None
# Relax obj value: 0.294
# Max RMSD: 0.242
# Mean RMSD: 0.182
data_MOF--net-anh--node1-PAMTOO_clean_sbu_0--node2-MIDCAF_clean_linker_0--edge1-none
_symmetry_space_group_name_H-M    P1
_symmetry_Int_Tables_number       1
_symmetry_cell_setting            triclinic
loop_
_symmetry_equiv_pos_as_xyz
'x, y, z'
_cell_length_a     19.32293
_cell_length_b     18.925472
_cell_length_c     37.6161
_cell_angle_alpha  91.05306
_cell_angle_beta   93.819172
_cell_angle_gamma 93.108373
loop_
_atom_site_label
_atom_site_type_symbol
_atom_site_fract_x
_atom_site_fract_y
_atom_site_fract_z
_atom_type_partial_charge
Dy0 Dy 0.15019 0.64018 0.13601 0.0
Dy1 Dy 0.14315 0.46616 0.13374 0.0
C2 C 0.1408 0.55382 0.06396 0.0
O3 O 1.03792 0.61223 0.14522 0.0
O4 O 1.03218 0.49632 0.12521 0.0
O5 O 0.16702 0.73673 0.10756 0.0
O6 O 0.14482 0.74143 0.16322 0.0
O7 O 1.1208 0.50058 0.18843 0.0
O8 O 0.18592 0.60472 0.18998 0.0
O9 O 0.25803 0.4944 0.14266 0.0
O10 O 0.25922 0.6112 0.12653 0.0
O11 O 0.16756 0.36535 0.15582 0.0
O12 O 1.10384 0.36942 0.10627 0.0
C13 C 1.00162 0.55326 0.13536 0.0
O14 O 1.11096 0.60248 0.08169 0.0
O15 O 0.17161 0.50291 0.08064 0.0
C16 C 0.22865 0.82455 0.14399 0.0
C17 C 0.34968 0.90815 0.16603 0.0
C18 C 0.35393 0.84656 0.14505 0.0
C19 C 0.29403 0.80518 0.13419 0.0
C20 C 0.22375 0.88753 0.16357 0.0
C21 C 0.28375 0.92912 0.17445 0.0
C22 C 0.16673 0.77655 0.13622 0.0
C23 C 0.15538 0.55248 0.20641 0.0
C24 C 0.29204 0.55362 0.13451 0.0
C25 C 1.07037 0.28467 0.14728 0.0
C26 C 0.95933 0.20324 0.17348 0.0
C27 C 0.98458 0.26663 0.19093 0.0
C28 C 1.0392 0.30713 0.17786 0.0
C29 C 1.04519 0.22159 0.12957 0.0
C30 C 0.98973 0.18116 0.14252 0.0
C31 C 1.12505 0.33016 0.13253 0.0
H32 H 0.40381 0.82832 0.13849 0.0
H33 H 0.2991 0.75677 0.11908 0.0
H34 H 0.17379 0.90343 0.17134 0.0
H35 H 0.27872 0.97674 0.19027 0.0
H36 H 0.9613 0.2855 0.2145 0.0
H37 H 1.05655 0.35651 0.19149 0.0
H38 H 1.06793 0.20407 0.1056 0.0
H39 H 0.97112 0.13245 0.12864 0.0
Dy40 Dy 0.60392 0.05527 0.51325 0.0
Dy41 Dy 0.77525 0.05536 0.51784 0.0
C42 C 0.69172 0.06108 0.58625 0.0
O43 O 0.63609 0.16632 0.50004 0.0
O44 O 0.74824 0.16797 0.52474 0.0
O45 O 0.50963 0.04006 0.54044 0.0
O46 O 0.5042 0.06479 0.48439 0.0
O47 O 0.73877 0.08017 0.46235 0.0
O48 O 0.63597 1.01509 0.46123 0.0
O49 O 0.74202 0.94056 0.50946 0.0
O50 O 0.63057 0.9456 0.52709 0.0
O51 O 0.87225 0.02876 0.49704 0.0
O52 O 0.87248 0.0921 0.54566 0.0
C53 C 0.69447 0.20084 0.51143 0.0
O54 O 0.64595 0.09508 0.56693 0.0
O55 O 0.73933 0.02662 0.5711 0.0
C56 C 0.42086 0.98125 0.50354 0.0
C57 C 0.33163 0.8623 0.4834 0.0
C58 C 0.39849 0.85363 0.49921 0.0
C59 C 0.4427 0.91251 0.50902 0.0
C60 C 0.35346 0.99036 0.48888 0.0
C61 C 0.30913 0.93134 0.47887 0.0
C62 C 0.46981 0.04281 0.51116 0.0
C63 C 0.68663 0.04547 0.44458 0.0
C64 C 0.68366 0.90943 0.51886 0.0
C65 C 0.9525 0.12737 0.50437 0.0
C66 C 1.02889 0.24333 0.47733 0.0
C67 C 0.96744 0.21542 0.45897 0.0
C68 C 0.92952 0.15841 0.47241 0.0
C69 C 1.01386 0.15488 0.52287 0.0
C70 C 1.05175 0.21269 0.5095 0.0
C71 C 0.90878 0.07119 0.5198 0.0
H72 H 0.41791 0.80136 0.50252 0.0
H73 H 0.4947 0.9043 0.52001 0.0
H74 H 0.33573 0.043 0.48441 0.0
H75 H 0.25773 0.9397 0.46694 0.0
H76 H 0.94778 0.23874 0.43448 0.0
H77 H 0.88143 0.13942 0.45806 0.0
H78 H 1.03181 0.13239 0.54788 0.0
H79 H 1.09897 0.23316 0.52416 0.0
Dy80 Dy 0.7054 0.5223 0.82562 0.0
Dy81 Dy 0.5404 0.53755 0.82001 0.0
C82 C 0.62359 0.5257 0.75314 0.0
O83 O 0.69238 0.63808 0.81611 0.0
O84 O 0.58102 0.64874 0.8323 0.0
O85 O 0.80038 0.54404 0.79999 0.0
O86 O 0.80133 0.48564 0.8493 0.0
O87 O 0.56832 0.51398 0.87705 0.0
O88 O 0.68066 0.56022 0.87934 0.0
O89 O 0.55378 0.42069 0.81328 0.0
O90 O 0.66344 0.41502 0.83973 0.0
O91 O 0.44291 0.56646 0.83889 0.0
O92 O 0.44664 0.52069 0.78563 0.0
C93 C 0.64117 0.67737 0.8242 0.0
O94 O 0.661 0.48357 0.77238 0.0
O95 O 0.58487 0.56895 0.76913 0.0
C96 C 0.87745 0.45169 0.8055 0.0
C97 C 0.98483 0.3671 0.78608 0.0
C98 C 0.9699 0.42906 0.76717 0.0
C99 C 0.91807 0.47181 0.77757 0.0
C100 C 0.88179 0.38308 0.81877 0.0
C101 C 0.93404 0.34029 0.80841 0.0
C102 C 0.8356 0.50472 0.82193 0.0
C103 C 0.62507 0.53902 0.89533 0.0
C104 C 0.60434 0.38383 0.82721 0.0
C105 C 0.37016 0.61152 0.79293 0.0
C106 C 0.27716 0.7184 0.77923 0.0
C107 C 0.34614 0.7361 0.79235 0.0
C108 C 0.39202 0.68277 0.79973 0.0
C109 C 0.30707 0.59521 0.7736 0.0
C110 C 0.26142 0.64826 0.76608 0.0
C111 C 0.40993 0.5538 0.80779 0.0
H112 H 1.0035 0.45037 0.74767 0.0
H113 H 0.91354 0.52318 0.76563 0.0
H114 H 0.84833 0.36433 0.839 0.0
H115 H 0.9394 0.29019 0.82141 0.0
H116 H 0.36199 0.7898 0.80095 0.0
H117 H 0.44238 0.69676 0.81314 0.0
H118 H 0.29078 0.54072 0.76668 0.0
H119 H 0.21063 0.63149 0.75409 0.0
C120 C 0.41785 0.96624 0.2183 0.0
C121 C 0.41403 0.94564 0.18217 0.0
C122 C 0.47363 0.95571 0.16285 0.0
C123 C 0.53631 0.98362 0.17972 0.0
H124 H 0.73844 0.09024 0.16549 0.0
H125 H 0.83851 0.14787 0.13859 0.0
H126 H 0.95056 0.16371 0.2418 0.0
H127 H 0.85239 0.10683 0.26863 0.0
H128 H 0.78059 0.092 0.33677 0.0
H129 H 0.78635 0.09356 0.4015 0.0
H130 H 0.58069 0.99067 0.39886 0.0
H131 H 0.57469 0.98917 0.33408 0.0
H132 H 0.48117 1.00727 0.26325 0.0
H133 H 0.37336 0.95836 0.23413 0.0
H134 H 0.47209 0.94084 0.13486 0.0
H135 H 0.58177 0.9891 0.16443 0.0
N136 N 0.6641 0.04644 0.21825 0.0
N137 N 0.72837 0.06413 0.2732 0.0
N138 N 0.61257 1.02194 0.27184 0.0
C139 C 0.72493 0.06667 0.23708 0.0
C140 C 0.67269 0.04175 0.29077 0.0
C141 C 0.60755 0.02404 0.23571 0.0
C142 C 0.7867 0.09473 0.21933 0.0
C143 C 0.78472 0.1053 0.18234 0.0
C144 C 0.84199 0.13796 0.1669 0.0
C145 C 0.90175 0.16091 0.18827 0.0
C146 C 0.90471 0.14751 0.22483 0.0
C147 C 0.84815 0.11473 0.24014 0.0
C148 C 0.67705 0.04068 0.33016 0.0
C149 C 0.73663 0.06943 0.34992 0.0
C150 C 0.73993 0.07045 0.38709 0.0
C151 C 0.6839 0.04243 0.4053 0.0
C152 C 0.62476 1.01271 0.3856 0.0
C153 C 0.62129 1.01199 0.34842 0.0
C154 C 0.54058 1.00129 0.21629 0.0
C155 C 0.48019 0.99362 0.23512 0.0
C156 C 0.64018 0.31767 0.50187 0.0
C157 C 0.69788 0.27943 0.51314 0.0
C158 C 0.75708 0.31669 0.52937 0.0
C159 C 0.75603 0.38898 0.53732 0.0
H160 H 0.57482 0.70816 0.56199 0.0
H161 H 0.58137 0.83313 0.54956 0.0
H162 H 0.77207 0.80877 0.49769 0.0
H163 H 0.76485 0.68152 0.51048 0.0
H164 H 0.5977 0.63666 0.64477 0.0
H165 H 0.58111 0.62851 0.70823 0.0
H166 H 0.68101 0.42963 0.71081 0.0
H167 H 0.697 0.43726 0.64726 0.0
H168 H 0.59241 0.41748 0.50336 0.0
H169 H 0.59393 0.29082 0.48908 0.0
H170 H 0.80276 0.28932 0.53812 0.0
H171 H 0.79992 0.41503 0.55267 0.0
N172 N 0.68468 0.55573 0.5324 0.0
N173 N 0.65882 0.6073 0.58703 0.0
N174 N 0.67508 0.48627 0.58337 0.0
C175 C 0.67105 0.614 0.55212 0.0
C176 C 0.66111 0.54385 0.60288 0.0
C177 C 0.68631 0.49155 0.5483 0.0
C178 C 0.66915 0.68531 0.53707 0.0
C179 C 0.61732 0.72912 0.54719 0.0
C180 C 0.6213 0.80103 0.54007 0.0
C181 C 0.67771 0.83149 0.5229 0.0
C182 C 0.72823 0.78705 0.51121 0.0
C183 C 0.72374 0.71422 0.51809 0.0
C184 C 0.64895 0.53775 0.64104 0.0
C185 C 0.61593 0.59108 0.65884 0.0
C186 C 0.60609 0.58626 0.69514 0.0
C187 C 0.62995 0.52854 0.71441 0.0
C188 C 0.66228 0.47485 0.6966 0.0
C189 C 0.67126 0.47915 0.66019 0.0
C190 C 0.69649 0.42578 0.52854 0.0
C191 C 0.63954 0.39036 0.50955 0.0
C192 C 1.07903 0.32907 0.82779 0.0
C193 C 1.05943 0.34828 0.79262 0.0
C194 C 1.10974 0.39088 0.77624 0.0
C195 C 0.14837 0.44248 0.79746 0.0
H196 H 1.06987 0.66344 0.79321 0.0
H197 H 1.13797 0.72775 0.75093 0.0
H198 H 0.27418 0.81581 0.83677 0.0
H199 H 0.20602 0.75474 0.87952 0.0
H200 H 1.10589 0.66955 0.95731 0.0
H201 H 1.10354 0.6632 0.02181 0.0
H202 H 0.17956 0.45269 0.01802 0.0
H203 H 0.18172 0.45875 0.95368 0.0
H204 H 1.11992 0.37255 0.8783 0.0
H205 H 1.05106 0.28666 0.84059 0.0
H206 H 1.10565 0.39778 0.74768 0.0
H207 H 0.17302 0.48722 0.78478 0.0
N208 N 0.14055 0.5703 0.83912 0.0
N209 N 1.13681 0.62972 0.89416 0.0
N210 N 0.14992 0.50704 0.89183 0.0
C211 C 1.13404 0.63114 0.85804 0.0
C212 C 0.14401 0.56746 0.91118 0.0
C213 C 0.14909 0.50813 0.8558 0.0
C214 C 1.13732 0.69863 0.83927 0.0
C215 C 1.11212 0.69986 0.80333 0.0
C216 C 0.15133 0.7372 0.77911 0.0
C217 C 0.2193 0.76153 0.79089 0.0
C218 C 0.22748 0.78579 0.82672 0.0
C219 C 0.18818 0.75068 0.8516 0.0
C220 C 0.14402 0.56471 0.95035 0.0
C221 C 1.12229 0.62201 0.97024 0.0
C222 C 1.12055 0.61821 0.00718 0.0
C223 C 0.14114 0.55734 0.02492 0.0
C224 C 0.16334 0.5003 0.00509 0.0
C225 C 0.16449 0.50382 0.96817 0.0
C226 C 0.14474 0.44129 0.83468 0.0
C227 C 1.11871 0.37862 0.84969 0.0
C228 C 0.25633 0.80218 0.43408 0.0
C229 C 0.2888 0.79977 0.4685 0.0
C230 C 0.28506 0.73567 0.48689 0.0
C231 C 0.25193 0.67458 0.47055 0.0
H232 H 1.13456 0.47098 0.48535 0.0
H233 H 1.08242 0.36534 0.51211 0.0
H234 H 1.06287 0.25941 0.40905 0.0
H235 H 1.11402 0.36346 0.38236 0.0
H236 H 1.11409 0.44734 0.31387 0.0
H237 H 1.10825 0.44778 0.24915 0.0
H238 H 0.21163 0.65644 0.25265 0.0
H239 H 0.2174 0.65623 0.31743 0.0
H240 H 0.2013 0.74494 0.39071 0.0
H241 H 0.25882 0.85038 0.41901 0.0
H242 H 0.30913 0.73239 0.5136 0.0
H243 H 0.25177 0.62547 0.48489 0.0
N244 N 0.1759 0.55126 0.43298 0.0
N245 N 0.14955 0.49272 0.37775 0.0
N246 N 0.19233 0.61048 0.37957 0.0
C247 C 0.15246 0.49171 0.41391 0.0
C248 C 0.16947 0.55164 0.36037 0.0
C249 C 0.19575 0.61104 0.41574 0.0
C250 C 1.12762 0.4264 0.43158 0.0
C251 C 1.11983 0.42488 0.4685 0.0
C252 C 1.09027 0.36434 0.48387 0.0
C253 C 1.06782 0.30455 0.46254 0.0
C254 C 1.07854 0.30513 0.42604 0.0
C255 C 1.10806 0.36506 0.41078 0.0
C256 C 0.16616 0.55178 0.32094 0.0
C257 C 1.13568 0.49334 0.30091 0.0
C258 C 1.13222 0.49362 0.26374 0.0
C259 C 0.15946 0.55217 0.24575 0.0
C260 C 0.19023 0.61046 0.26571 0.0
C261 C 0.1934 0.61035 0.3029 0.0
C262 C 0.22274 0.67644 0.43538 0.0
C263 C 0.2239 0.74134 0.41772 0.0
C264 C 0.54729 0.27004 0.80149 0.0
C265 C 0.59865 0.30502 0.82467 0.0
C266 C 0.64939 0.26445 0.842 0.0
C267 C 0.652 0.19187 0.83405 0.0
H268 H 0.56053 0.90523 0.83251 0.0
H269 H 0.55578 0.77905 0.84668 0.0
H270 H 0.74361 0.75353 0.79268 0.0
H271 H 0.74724 0.87844 0.77813 0.0
H272 H 0.7285 0.95522 0.69569 0.0
H273 H 0.74516 0.96453 0.6321 0.0
H274 H 0.62509 0.15061 0.62793 0.0
H275 H 0.60909 0.142 0.6913 0.0
H276 H 0.51399 0.17391 0.77282 0.0
H277 H 0.50744 0.2993 0.78768 0.0
H278 H 0.68958 0.28952 0.86018 0.0
H279 H 0.69487 0.16335 0.84554 0.0
N280 N 0.6291 0.03014 0.80697 0.0
N281 N 0.66277 0.97931 0.75353 0.0
N282 N 0.63405 0.09747 0.75511 0.0
C283 C 0.64948 0.97277 0.7884 0.0
C284 C 0.65488 0.04131 0.73671 0.0
C285 C 0.62169 0.09294 0.79004 0.0
C286 C 0.65422 0.90172 0.80422 0.0
C287 C 0.60171 0.87291 0.8246 0.0
C288 C 0.59876 0.80044 0.83241 0.0
C289 C 0.64896 0.7557 0.82051 0.0
C290 C 0.70396 0.78598 0.80224 0.0
C291 C 0.70614 0.85777 0.79393 0.0
C292 C 0.66722 0.04765 0.69851 0.0
C293 C 0.70596 0.99827 0.68121 0.0
C294 C 0.7159 1.00386 0.64487 0.0
C295 C 0.68633 0.05825 0.62511 0.0
C296 C 0.64832 0.10801 0.64248 0.0
C297 C 0.6393 0.10309 0.67884 0.0
C298 C 0.60436 0.15874 0.8084 0.0
C299 C 0.55063 0.19794 0.79317 0.0
C300 C 0.88461 0.48728 0.12422 0.0
C301 C 0.92346 0.55089 0.13361 0.0
C302 C 0.88653 0.61205 0.13917 0.0
C303 C 0.8135 0.61036 0.13329 0.0
H304 H 0.50233 0.66552 0.1065 0.0
H305 H 0.37959 0.66553 0.1177 0.0
H306 H 0.38178 0.44532 0.14556 0.0
H307 H 0.5057 0.4461 0.13431 0.0
H308 H 0.52188 0.52417 0.00333 0.0
H309 H 0.51684 0.51995 0.93834 0.0
H310 H 0.73886 0.56517 0.94146 0.0
H311 H 0.74407 0.56901 0.00611 0.0
H312 H 0.78461 0.43694 0.1087 0.0
H313 H 0.9105 0.43882 0.11987 0.0
H314 H 0.91422 0.66206 0.1464 0.0
H315 H 0.78726 0.6593 0.13523 0.0
N316 N 0.64499 0.55186 0.12238 0.0
N317 N 0.5787 0.55101 0.06734 0.0
N318 N 0.69947 0.5477 0.06821 0.0
C319 C 0.58159 0.55249 0.10351 0.0
C320 C 0.63718 0.54853 0.0495 0.0
C321 C 0.70441 0.54952 0.10434 0.0
C322 C 0.51441 0.55646 0.12052 0.0
C323 C 0.47724 0.61787 0.11634 0.0
C324 C 0.40628 0.61748 0.12237 0.0
C325 C 0.36965 0.55523 0.13226 0.0
C326 C 0.40771 0.49435 0.13797 0.0
C327 C 0.47913 0.49493 0.13202 0.0
C328 C 0.63341 0.54679 0.01001 0.0
C329 C 0.5696 0.53337 -0.00985 0.0
C330 C 0.56669 0.53074 0.95288 0.0
C331 C 0.62742 0.54219 0.93472 0.0
C332 C 0.69102 0.55626 0.95458 0.0
C333 C 0.69404 0.55822 -0.00825 0.0
C334 C 0.77551 0.54741 0.1221 0.0
C335 C 0.81201 0.48577 0.11832 0.0
loop_
_geom_bond_atom_site_label_1
_geom_bond_atom_site_label_2
_geom_bond_distance
_geom_bond_site_symmetry_2
_ccdc_geom_bond_type
Dy0 O3 2.307 1_455 S
Dy0 O5 2.395 . S
Dy0 O6 2.379 . S
Dy0 O8 2.339 . S
Dy0 O10 2.298 . S
Dy0 O14 2.275 . S
Dy0 C22 2.738 . S
Dy1 O4 2.298 . S
Dy1 O7 2.276 . S
Dy1 O9 2.307 1_655 S
Dy1 O11 2.395 . S
Dy1 O12 2.379 . S
Dy1 O15 2.339 . S
Dy1 C31 2.738 . S
C2 O14 1.254 . S
C2 O15 1.257 1_455 S
O3 Dy0 2.307 1_655 S
O3 C13 1.266 . S
O4 Dy1 2.298 . S
O4 C13 1.236 . S
O5 Dy0 2.395 . S
O5 C22 1.255 . S
O6 Dy0 2.379 . S
O6 C22 1.249 . S
O7 Dy1 2.276 . S
O7 C23 1.254 1_655 S
O8 Dy0 2.339 . S
O8 C23 1.257 . S
O9 Dy1 2.307 1_455 S
O9 C24 1.266 . S
O10 Dy0 2.298 . S
O10 C24 1.236 . S
O11 Dy1 2.395 . S
O11 C31 1.255 . S
O12 Dy1 2.379 . S
O12 C31 1.249 . S
C13 O3 1.266 . S
C13 O4 1.236 . S
O14 Dy0 2.275 . S
O14 C2 1.254 . S
O15 Dy1 2.339 . S
O15 C2 1.257 1_655 S
C16 C19 1.344 . S
C16 C20 1.328 . S
C16 C22 1.516 . S
C17 C18 1.304 . S
C17 C21 1.323 . S
C18 C17 1.304 . S
C18 C19 1.371 . S
C18 H32 0.930 . S
C19 C16 1.344 . S
C19 C18 1.371 . S
C19 H33 0.931 . S
C20 C16 1.328 . S
C20 C21 1.433 . S
C20 H34 0.931 . S
C21 C17 1.323 . S
C21 C20 1.433 . S
C21 H35 0.933 . S
C22 Dy0 2.738 . S
C22 O5 1.255 . S
C22 O6 1.249 . S
C22 C16 1.516 . S
C23 O7 1.254 1_455 S
C23 O8 1.257 . S
C24 O9 1.266 . S
C24 O10 1.236 . S
C25 C28 1.344 . S
C25 C29 1.328 . S
C25 C31 1.516 . S
C26 C27 1.304 . S
C26 C30 1.323 . S
C27 C26 1.304 . S
C27 C28 1.371 . S
C27 H36 0.930 . S
C28 C25 1.344 . S
C28 C27 1.371 . S
C28 H37 0.931 . S
C29 C25 1.328 . S
C29 C30 1.433 . S
C29 H38 0.931 . S
C30 C26 1.323 . S
C30 C29 1.433 . S
C30 H39 0.933 . S
C31 Dy1 2.738 . S
C31 O11 1.255 . S
C31 O12 1.249 . S
C31 C25 1.516 . S
H32 C18 0.930 . S
H33 C19 0.931 . S
H34 C20 0.931 . S
H35 C21 0.933 . S
H36 C27 0.930 . S
H37 C28 0.931 . S
H38 C29 0.931 . S
H39 C30 0.933 . S
Dy40 O43 2.307 1_565 S
Dy40 O45 2.395 . S
Dy40 O46 2.379 . S
Dy40 O48 2.339 . S
Dy40 O50 2.298 . S
Dy40 O54 2.275 1_565 S
Dy40 C62 2.738 . S
Dy41 O44 2.298 . S
Dy41 O47 2.275 . S
Dy41 O49 2.307 1_545 S
Dy41 O51 2.395 . S
Dy41 O52 2.379 . S
Dy41 O55 2.339 . S
Dy41 C71 2.738 . S
C42 O54 1.254 . S
C42 O55 1.257 . S
O43 Dy40 2.307 1_545 S
O43 C53 1.266 . S
O44 Dy41 2.298 . S
O44 C53 1.236 . S
O45 Dy40 2.395 . S
O45 C62 1.255 . S
O46 Dy40 2.379 . S
O46 C62 1.249 . S
O47 Dy41 2.275 . S
O47 C63 1.254 . S
O48 Dy40 2.339 . S
O48 C63 1.257 1_565 S
O49 Dy41 2.307 1_565 S
O49 C64 1.266 . S
O50 Dy40 2.298 . S
O50 C64 1.236 . S
O51 Dy41 2.395 . S
O51 C71 1.255 . S
O52 Dy41 2.379 . S
O52 C71 1.249 . S
C53 O43 1.266 . S
C53 O44 1.236 . S
O54 Dy40 2.275 1_545 S
O54 C42 1.254 . S
O55 Dy41 2.339 . S
O55 C42 1.257 . S
C56 C59 1.344 . S
C56 C60 1.328 . S
C56 C62 1.516 . S
C57 C58 1.304 . S
C57 C61 1.323 . S
C58 C57 1.304 . S
C58 C59 1.371 . S
C58 H72 0.930 . S
C59 C56 1.344 . S
C59 C58 1.371 . S
C59 H73 0.931 . S
C60 C56 1.328 . S
C60 C61 1.433 . S
C60 H74 0.931 . S
C61 C57 1.323 . S
C61 C60 1.433 . S
C61 H75 0.933 . S
C62 Dy40 2.738 . S
C62 O45 1.255 . S
C62 O46 1.249 . S
C62 C56 1.516 . S
C63 O47 1.254 . S
C63 O48 1.257 1_545 S
C64 O49 1.266 . S
C64 O50 1.236 . S
C65 C68 1.344 . S
C65 C69 1.328 . S
C65 C71 1.516 . S
C66 C67 1.304 . S
C66 C70 1.323 . S
C67 C66 1.304 . S
C67 C68 1.371 . S
C67 H76 0.930 . S
C68 C65 1.344 . S
C68 C67 1.371 . S
C68 H77 0.931 . S
C69 C65 1.328 . S
C69 C70 1.433 . S
C69 H78 0.931 . S
C70 C66 1.323 . S
C70 C69 1.433 . S
C70 H79 0.933 . S
C71 Dy41 2.738 . S
C71 O51 1.255 . S
C71 O52 1.249 . S
C71 C65 1.516 . S
H72 C58 0.930 . S
H73 C59 0.931 . S
H74 C60 0.931 . S
H75 C61 0.933 . S
H76 C67 0.930 . S
H77 C68 0.931 . S
H78 C69 0.931 . S
H79 C70 0.933 . S
Dy80 O83 2.307 . S
Dy80 O85 2.395 . S
Dy80 O86 2.379 . S
Dy80 O88 2.339 . S
Dy80 O90 2.298 . S
Dy80 O94 2.275 . S
Dy80 C102 2.738 . S
Dy81 O84 2.298 . S
Dy81 O87 2.275 . S
Dy81 O89 2.307 . S
Dy81 O91 2.395 . S
Dy81 O92 2.379 . S
Dy81 O95 2.339 . S
Dy81 C111 2.738 . S
C82 O94 1.254 . S
C82 O95 1.257 . S
O83 Dy80 2.307 . S
O83 C93 1.266 . S
O84 Dy81 2.298 . S
O84 C93 1.236 . S
O85 Dy80 2.395 . S
O85 C102 1.255 . S
O86 Dy80 2.379 . S
O86 C102 1.249 . S
O87 Dy81 2.275 . S
O87 C103 1.254 . S
O88 Dy80 2.339 . S
O88 C103 1.257 . S
O89 Dy81 2.307 . S
O89 C104 1.266 . S
O90 Dy80 2.298 . S
O90 C104 1.236 . S
O91 Dy81 2.395 . S
O91 C111 1.255 . S
O92 Dy81 2.379 . S
O92 C111 1.249 . S
C93 O83 1.266 . S
C93 O84 1.236 . S
O94 Dy80 2.275 . S
O94 C82 1.254 . S
O95 Dy81 2.339 . S
O95 C82 1.257 . S
C96 C99 1.344 . S
C96 C100 1.328 . S
C96 C102 1.516 . S
C97 C98 1.304 . S
C97 C101 1.323 . S
C98 C97 1.304 . S
C98 C99 1.371 . S
C98 H112 0.930 . S
C99 C96 1.344 . S
C99 C98 1.371 . S
C99 H113 0.931 . S
C100 C96 1.328 . S
C100 C101 1.433 . S
C100 H114 0.931 . S
C101 C97 1.323 . S
C101 C100 1.433 . S
C101 H115 0.933 . S
C102 Dy80 2.738 . S
C102 O85 1.255 . S
C102 O86 1.249 . S
C102 C96 1.516 . S
C103 O87 1.254 . S
C103 O88 1.257 . S
C104 O89 1.266 . S
C104 O90 1.236 . S
C105 C108 1.344 . S
C105 C109 1.328 . S
C105 C111 1.516 . S
C106 C107 1.304 . S
C106 C110 1.323 . S
C107 C106 1.304 . S
C107 C108 1.371 . S
C107 H116 0.930 . S
C108 C105 1.344 . S
C108 C107 1.371 . S
C108 H117 0.931 . S
C109 C105 1.328 . S
C109 C110 1.433 . S
C109 H118 0.931 . S
C110 C106 1.323 . S
C110 C109 1.433 . S
C110 H119 0.933 . S
C111 Dy81 2.738 . S
C111 O91 1.255 . S
C111 O92 1.249 . S
C111 C105 1.516 . S
H112 C98 0.930 . S
H113 C99 0.931 . S
H114 C100 0.931 . S
H115 C101 0.933 . S
H116 C107 0.930 . S
H117 C108 0.931 . S
H118 C109 0.931 . S
H119 C110 0.933 . S
C120 C121 1.384 . S
C120 H133 0.947 . S
C120 C155 1.382 . S
C121 C120 1.384 . S
C121 C122 1.378 . S
C122 C121 1.378 . S
C122 C123 1.378 . S
C122 H134 0.952 . S
C123 C122 1.378 . S
C123 H135 0.950 . S
C123 C154 1.383 . S
H124 C143 0.947 . S
H125 C144 0.946 . S
H126 C146 0.953 . S
H127 C147 0.945 . S
H128 C149 0.952 . S
H129 C150 0.949 . S
H130 C152 0.950 . S
H131 C153 0.948 . S
H132 C155 0.951 . S
H133 C120 0.947 . S
H134 C122 0.952 . S
H135 C123 0.950 . S
N136 C139 1.382 . S
N136 C141 1.363 1_545 S
N137 C139 1.371 . S
N137 C140 1.372 . S
N138 C140 1.361 1_565 S
N138 C141 1.377 . S
C139 N136 1.382 . S
C139 N137 1.371 . S
C139 C142 1.480 . S
C140 N137 1.372 . S
C140 N138 1.361 1_545 S
C140 C148 1.457 . S
C141 N136 1.363 1_565 S
C141 N138 1.377 . S
C141 C154 1.479 . S
C142 C139 1.480 . S
C142 C143 1.383 . S
C142 C147 1.385 . S
C143 H124 0.947 . S
C143 C142 1.383 . S
C143 C144 1.388 . S
C144 H125 0.946 . S
C144 C143 1.388 . S
C144 C145 1.384 . S
C145 C144 1.384 . S
C145 C146 1.377 . S
C146 H126 0.953 . S
C146 C145 1.377 . S
C146 C147 1.369 . S
C147 H127 0.945 . S
C147 C142 1.385 . S
C147 C146 1.369 . S
C148 C140 1.457 . S
C148 C149 1.372 . S
C148 C153 1.364 1_545 S
C149 H128 0.952 . S
C149 C148 1.372 . S
C149 C150 1.389 . S
C150 H129 0.949 . S
C150 C149 1.389 . S
C150 C151 1.387 . S
C151 C150 1.387 . S
C151 C152 1.372 1_545 S
C152 H130 0.950 . S
C152 C151 1.372 1_565 S
C152 C153 1.379 . S
C153 H131 0.948 . S
C153 C148 1.364 1_565 S
C153 C152 1.379 . S
C154 C123 1.383 . S
C154 C141 1.479 . S
C154 C155 1.398 . S
C155 C120 1.382 . S
C155 H132 0.951 . S
C155 C154 1.398 . S
C156 C157 1.384 . S
C156 H169 0.947 . S
C156 C191 1.382 . S
C157 C156 1.384 . S
C157 C158 1.378 . S
C158 C157 1.378 . S
C158 C159 1.378 . S
C158 H170 0.952 . S
C159 C158 1.378 . S
C159 H171 0.950 . S
C159 C190 1.383 . S
H160 C179 0.947 . S
H161 C180 0.946 . S
H162 C182 0.953 . S
H163 C183 0.945 . S
H164 C185 0.952 . S
H165 C186 0.949 . S
H166 C188 0.950 . S
H167 C189 0.948 . S
H168 C191 0.951 . S
H169 C156 0.947 . S
H170 C158 0.952 . S
H171 C159 0.950 . S
N172 C175 1.382 . S
N172 C177 1.363 . S
N173 C175 1.371 . S
N173 C176 1.372 . S
N174 C176 1.361 . S
N174 C177 1.377 . S
C175 N172 1.382 . S
C175 N173 1.371 . S
C175 C178 1.480 . S
C176 N173 1.372 . S
C176 N174 1.361 . S
C176 C184 1.457 . S
C177 N172 1.363 . S
C177 N174 1.377 . S
C177 C190 1.479 . S
C178 C175 1.480 . S
C178 C179 1.383 . S
C178 C183 1.385 . S
C179 H160 0.947 . S
C179 C178 1.383 . S
C179 C180 1.388 . S
C180 H161 0.946 . S
C180 C179 1.388 . S
C180 C181 1.384 . S
C181 C180 1.384 . S
C181 C182 1.377 . S
C182 H162 0.953 . S
C182 C181 1.377 . S
C182 C183 1.369 . S
C183 H163 0.945 . S
C183 C178 1.385 . S
C183 C182 1.369 . S
C184 C176 1.457 . S
C184 C185 1.372 . S
C184 C189 1.364 . S
C185 H164 0.952 . S
C185 C184 1.372 . S
C185 C186 1.389 . S
C186 H165 0.949 . S
C186 C185 1.389 . S
C186 C187 1.387 . S
C187 C186 1.387 . S
C187 C188 1.372 . S
C188 H166 0.950 . S
C188 C187 1.372 . S
C188 C189 1.379 . S
C189 H167 0.948 . S
C189 C184 1.364 . S
C189 C188 1.379 . S
C190 C159 1.383 . S
C190 C177 1.479 . S
C190 C191 1.398 . S
C191 C156 1.382 . S
C191 H168 0.951 . S
C191 C190 1.398 . S
C192 C193 1.384 . S
C192 H205 0.947 . S
C192 C227 1.382 . S
C193 C192 1.384 . S
C193 C194 1.378 . S
C194 C193 1.378 . S
C194 C195 1.378 . S
C194 H206 0.952 . S
C195 C194 1.378 . S
C195 H207 0.950 . S
C195 C226 1.383 . S
H196 C215 0.947 . S
H197 C216 0.946 . S
H198 C218 0.953 . S
H199 C219 0.945 . S
H200 C221 0.952 . S
H201 C222 0.949 . S
H202 C224 0.950 . S
H203 C225 0.948 . S
H204 C227 0.951 . S
H205 C192 0.947 . S
H206 C194 0.952 . S
H207 C195 0.950 . S
N208 C211 1.382 . S
N208 C213 1.363 1_455 S
N209 C211 1.371 . S
N209 C212 1.372 . S
N210 C212 1.361 1_655 S
N210 C213 1.377 . S
C211 N208 1.382 . S
C211 N209 1.371 . S
C211 C214 1.480 . S
C212 N209 1.372 . S
C212 N210 1.361 1_455 S
C212 C220 1.457 1_556 S
C213 N208 1.363 1_655 S
C213 N210 1.377 . S
C213 C226 1.479 . S
C214 C211 1.480 . S
C214 C215 1.383 . S
C214 C219 1.385 . S
C215 H196 0.947 . S
C215 C214 1.383 . S
C215 C216 1.388 . S
C216 H197 0.946 . S
C216 C215 1.388 . S
C216 C217 1.384 . S
C217 C216 1.384 . S
C217 C218 1.377 . S
C218 H198 0.953 . S
C218 C217 1.377 . S
C218 C219 1.369 . S
C219 H199 0.945 . S
C219 C214 1.385 . S
C219 C218 1.369 . S
C220 C212 1.457 1_554 S
C220 C221 1.372 . S
C220 C225 1.364 1_455 S
C221 H200 0.952 . S
C221 C220 1.372 . S
C221 C222 1.389 . S
C222 H201 0.949 . S
C222 C221 1.389 . S
C222 C223 1.387 . S
C223 C222 1.387 . S
C223 C224 1.372 1_455 S
C224 H202 0.950 . S
C224 C223 1.372 1_655 S
C224 C225 1.379 . S
C225 H203 0.948 . S
C225 C220 1.364 1_655 S
C225 C224 1.379 . S
C226 C195 1.383 . S
C226 C213 1.479 . S
C226 C227 1.398 . S
C227 C192 1.382 . S
C227 H204 0.951 . S
C227 C226 1.398 . S
C228 C229 1.384 . S
C228 H241 0.947 . S
C228 C263 1.382 . S
C229 C228 1.384 . S
C229 C230 1.378 . S
C230 C229 1.378 . S
C230 C231 1.378 . S
C230 H242 0.952 . S
C231 C230 1.378 . S
C231 H243 0.950 . S
C231 C262 1.383 . S
H232 C251 0.947 . S
H233 C252 0.946 . S
H234 C254 0.953 . S
H235 C255 0.945 . S
H236 C257 0.952 . S
H237 C258 0.949 . S
H238 C260 0.950 . S
H239 C261 0.948 . S
H240 C263 0.951 . S
H241 C228 0.947 . S
H242 C230 0.952 . S
H243 C231 0.950 . S
N244 C247 1.382 1_455 S
N244 C249 1.363 . S
N245 C247 1.371 . S
N245 C248 1.372 1_655 S
N246 C248 1.361 . S
N246 C249 1.377 . S
C247 N244 1.382 1_655 S
C247 N245 1.371 . S
C247 C250 1.480 . S
C248 N245 1.372 1_455 S
C248 N246 1.361 . S
C248 C256 1.457 . S
C249 N244 1.363 . S
C249 N246 1.377 . S
C249 C262 1.479 . S
C250 C247 1.480 . S
C250 C251 1.383 . S
C250 C255 1.385 . S
C251 H232 0.947 . S
C251 C250 1.383 . S
C251 C252 1.388 . S
C252 H233 0.946 . S
C252 C251 1.388 . S
C252 C253 1.384 . S
C253 C252 1.384 . S
C253 C254 1.377 . S
C254 H234 0.953 . S
C254 C253 1.377 . S
C254 C255 1.369 . S
C255 H235 0.945 . S
C255 C250 1.385 . S
C255 C254 1.369 . S
C256 C248 1.457 . S
C256 C257 1.372 1_455 S
C256 C261 1.364 . S
C257 H236 0.952 . S
C257 C256 1.372 1_655 S
C257 C258 1.389 . S
C258 H237 0.949 . S
C258 C257 1.389 . S
C258 C259 1.387 . S
C259 C258 1.387 . S
C259 C260 1.372 1_655 S
C260 H238 0.950 . S
C260 C259 1.372 1_455 S
C260 C261 1.379 . S
C261 H239 0.948 . S
C261 C256 1.364 . S
C261 C260 1.379 . S
C262 C231 1.383 . S
C262 C249 1.479 . S
C262 C263 1.398 . S
C263 C228 1.382 . S
C263 H240 0.951 . S
C263 C262 1.398 . S
C264 C265 1.384 . S
C264 H277 0.947 . S
C264 C299 1.382 . S
C265 C264 1.384 . S
C265 C266 1.378 . S
C266 C265 1.378 . S
C266 C267 1.378 . S
C266 H278 0.952 . S
C267 C266 1.378 . S
C267 H279 0.950 . S
C267 C298 1.383 . S
H268 C287 0.947 . S
H269 C288 0.946 . S
H270 C290 0.953 . S
H271 C291 0.945 . S
H272 C293 0.952 . S
H273 C294 0.949 . S
H274 C296 0.950 . S
H275 C297 0.948 . S
H276 C299 0.951 . S
H277 C264 0.947 . S
H278 C266 0.952 . S
H279 C267 0.950 . S
N280 C283 1.382 1_545 S
N280 C285 1.363 . S
N281 C283 1.371 . S
N281 C284 1.372 1_565 S
N282 C284 1.361 . S
N282 C285 1.377 . S
C283 N280 1.382 1_565 S
C283 N281 1.371 . S
C283 C286 1.480 . S
C284 N281 1.372 1_545 S
C284 N282 1.361 . S
C284 C292 1.457 . S
C285 N280 1.363 . S
C285 N282 1.377 . S
C285 C298 1.479 . S
C286 C283 1.480 . S
C286 C287 1.383 . S
C286 C291 1.385 . S
C287 H268 0.947 . S
C287 C286 1.383 . S
C287 C288 1.388 . S
C288 H269 0.946 . S
C288 C287 1.388 . S
C288 C289 1.384 . S
C289 C288 1.384 . S
C289 C290 1.377 . S
C290 H270 0.953 . S
C290 C289 1.377 . S
C290 C291 1.369 . S
C291 H271 0.945 . S
C291 C286 1.385 . S
C291 C290 1.369 . S
C292 C284 1.457 . S
C292 C293 1.372 1_545 S
C292 C297 1.364 . S
C293 H272 0.952 . S
C293 C292 1.372 1_565 S
C293 C294 1.389 . S
C294 H273 0.949 . S
C294 C293 1.389 . S
C294 C295 1.387 1_565 S
C295 C294 1.387 1_545 S
C295 C296 1.372 . S
C296 H274 0.950 . S
C296 C295 1.372 . S
C296 C297 1.379 . S
C297 H275 0.948 . S
C297 C292 1.364 . S
C297 C296 1.379 . S
C298 C267 1.383 . S
C298 C285 1.479 . S
C298 C299 1.398 . S
C299 C264 1.382 . S
C299 H276 0.951 . S
C299 C298 1.398 . S
C300 C301 1.384 . S
C300 H313 0.947 . S
C300 C335 1.382 . S
C301 C300 1.384 . S
C301 C302 1.378 . S
C302 C301 1.378 . S
C302 C303 1.378 . S
C302 H314 0.952 . S
C303 C302 1.378 . S
C303 H315 0.950 . S
C303 C334 1.383 . S
H304 C323 0.947 . S
H305 C324 0.946 . S
H306 C326 0.953 . S
H307 C327 0.945 . S
H308 C329 0.952 1_554 S
H309 C330 0.949 . S
H310 C332 0.950 . S
H311 C333 0.948 1_554 S
H312 C335 0.951 . S
H313 C300 0.947 . S
H314 C302 0.952 . S
H315 C303 0.950 . S
N316 C319 1.382 . S
N316 C321 1.363 . S
N317 C319 1.371 . S
N317 C320 1.372 . S
N318 C320 1.361 . S
N318 C321 1.377 . S
C319 N316 1.382 . S
C319 N317 1.371 . S
C319 C322 1.480 . S
C320 N317 1.372 . S
C320 N318 1.361 . S
C320 C328 1.457 . S
C321 N316 1.363 . S
C321 N318 1.377 . S
C321 C334 1.479 . S
C322 C319 1.480 . S
C322 C323 1.383 . S
C322 C327 1.385 . S
C323 H304 0.947 . S
C323 C322 1.383 . S
C323 C324 1.388 . S
C324 H305 0.946 . S
C324 C323 1.388 . S
C324 C325 1.384 . S
C325 C324 1.384 . S
C325 C326 1.377 . S
C326 H306 0.953 . S
C326 C325 1.377 . S
C326 C327 1.369 . S
C327 H307 0.945 . S
C327 C322 1.385 . S
C327 C326 1.369 . S
C328 C320 1.457 . S
C328 C329 1.372 1_554 S
C328 C333 1.364 1_554 S
C329 H308 0.952 1_556 S
C329 C328 1.372 1_556 S
C329 C330 1.389 . S
C330 H309 0.949 . S
C330 C329 1.389 . S
C330 C331 1.387 . S
C331 C330 1.387 . S
C331 C332 1.372 . S
C332 H310 0.950 . S
C332 C331 1.372 . S
C332 C333 1.379 . S
C333 H311 0.948 1_556 S
C333 C328 1.364 1_556 S
C333 C332 1.379 . S
C334 C303 1.383 . S
C334 C321 1.479 . S
C334 C335 1.398 . S
C335 C300 1.382 . S
C335 H312 0.951 . S
C335 C334 1.398 . S
C24 C325 4.782 . S
C66 C253 1.960 . S
C93 C289 2.840 . S
C13 C301 5.101 . S
C229 C57 1.692 . S
C265 C104 3.139 . S
C64 C181 2.904 . S
C97 C193 2.901 . S
C17 C121 2.237 . S
C157 C53 2.955 . S
C217 C106 2.017 . S
C26 C145 2.166 . S
C223 C2 1.252 . S
C63 C151 1.400 . S
C82 C187 1.353 . S
C295 C42 1.299 . S
C331 C103 2.088 . S
C23 C259 1.466 1_455 S
