# Generated by pormake.
# Topology apo, (3,6)-cn, num edge types: 1
# Building blocks:
#     Node 0, Type 0, BuildingBlock: BETDIP_clean_linker_0, # of connection points: 3
#     Node 1, Type 0, BuildingBlock: BETDIP_clean_linker_0, # of connection points: 3
#     Node 2, Type 0, BuildingBlock: BETDIP_clean_linker_0, # of connection points: 3
#     Node 3, Type 0, BuildingBlock: BETDIP_clean_linker_0, # of connection points: 3
#     Node 4, Type 0, BuildingBlock: BETDIP_clean_linker_0, # of connection points: 3
#     Node 5, Type 0, BuildingBlock: BETDIP_clean_linker_0, # of connection points: 3
#     Node 6, Type 0, BuildingBlock: BETDIP_clean_linker_0, # of connection points: 3
#     Node 7, Type 0, BuildingBlock: BETDIP_clean_linker_0, # of connection points: 3
#     Node 8, Type 1, BuildingBlock: KUMJIN_clean_sbu_1, # of connection points: 6
#     Node 9, Type 1, BuildingBlock: KUMJIN_clean_sbu_1, # of connection points: 6
#     Node 10, Type 1, BuildingBlock: KUMJIN_clean_sbu_1, # of connection points: 6
#     Node 11, Type 1, BuildingBlock: KUMJIN_clean_sbu_1, # of connection points: 6
#     Edge 12, Type (0, 1), BuildingBlock: CIFDUS_clean_linker_0, # of connection points: 2
#     Edge 13, Type (0, 1), BuildingBlock: CIFDUS_clean_linker_0, # of connection points: 2
#     Edge 14, Type (0, 1), BuildingBlock: CIFDUS_clean_linker_0, # of connection points: 2
#     Edge 15, Type (0, 1), BuildingBlock: CIFDUS_clean_linker_0, # of connection points: 2
#     Edge 16, Type (0, 1), BuildingBlock: CIFDUS_clean_linker_0, # of connection points: 2
#     Edge 17, Type (0, 1), BuildingBlock: CIFDUS_clean_linker_0, # of connection points: 2
#     Edge 18, Type (0, 1), BuildingBlock: CIFDUS_clean_linker_0, # of connection points: 2
#     Edge 19, Type (0, 1), BuildingBlock: CIFDUS_clean_linker_0, # of connection points: 2
#     Edge 20, Type (0, 1), BuildingBlock: CIFDUS_clean_linker_0, # of connection points: 2
#     Edge 21, Type (0, 1), BuildingBlock: CIFDUS_clean_linker_0, # of connection points: 2
#     Edge 22, Type (0, 1), BuildingBlock: CIFDUS_clean_linker_0, # of connection points: 2
#     Edge 23, Type (0, 1), BuildingBlock: CIFDUS_clean_linker_0, # of connection points: 2
#     Edge 24, Type (0, 1), BuildingBlock: CIFDUS_clean_linker_0, # of connection points: 2
#     Edge 25, Type (0, 1), BuildingBlock: CIFDUS_clean_linker_0, # of connection points: 2
#     Edge 26, Type (0, 1), BuildingBlock: CIFDUS_clean_linker_0, # of connection points: 2
#     Edge 27, Type (0, 1), BuildingBlock: CIFDUS_clean_linker_0, # of connection points: 2
#     Edge 28, Type (0, 1), BuildingBlock: CIFDUS_clean_linker_0, # of connection points: 2
#     Edge 29, Type (0, 1), BuildingBlock: CIFDUS_clean_linker_0, # of connection points: 2
#     Edge 30, Type (0, 1), BuildingBlock: CIFDUS_clean_linker_0, # of connection points: 2
#     Edge 31, Type (0, 1), BuildingBlock: CIFDUS_clean_linker_0, # of connection points: 2
#     Edge 32, Type (0, 1), BuildingBlock: CIFDUS_clean_linker_0, # of connection points: 2
#     Edge 33, Type (0, 1), BuildingBlock: CIFDUS_clean_linker_0, # of connection points: 2
#     Edge 34, Type (0, 1), BuildingBlock: CIFDUS_clean_linker_0, # of connection points: 2
#     Edge 35, Type (0, 1), BuildingBlock: CIFDUS_clean_linker_0, # of connection points: 2
# Relax obj value: 0.037
# Max RMSD: 0.205
# Mean RMSD: 0.161
data_MOF--net-apo--node1-KUMJIN_clean_sbu_1--node2-BETDIP_clean_linker_0--edge1-CIFDUS_clean_linker_0
_symmetry_space_group_name_H-M    P1
_symmetry_Int_Tables_number       1
_symmetry_cell_setting            triclinic
loop_
_symmetry_equiv_pos_as_xyz
'x, y, z'
_cell_length_a     24.36718
_cell_length_b     36.71065
_cell_length_c     45.787182
_cell_angle_alpha  90.179664
_cell_angle_beta   89.877007
_cell_angle_gamma 90.559859
loop_
_atom_site_label
_atom_site_type_symbol
_atom_site_fract_x
_atom_site_fract_y
_atom_site_fract_z
_atom_type_partial_charge
H0 H 0.27068 0.34996 0.45109 0.0
H1 H 0.27511 0.39346 0.36412 0.0
H2 H 0.34289 0.45576 0.43507 0.0
H3 H 0.19309 0.35914 0.36169 0.0
C4 C 0.20706 0.33418 0.37183 0.0
C5 C 0.28129 0.37204 0.43641 0.0
C6 C 0.30818 0.40348 0.44712 0.0
C7 C 0.26781 0.36864 0.40676 0.0
C8 C 0.28296 0.39656 0.38727 0.0
C9 C 0.31117 0.42767 0.39735 0.0
C10 C 0.32282 0.43113 0.42727 0.0
N11 N 0.24119 0.33617 0.39696 0.0
H12 H 0.2237 0.16782 0.95821 0.0
H13 H 0.22461 0.12922 0.86936 0.0
H14 H 0.12397 0.07541 0.93343 0.0
H15 H 0.30924 0.15457 0.86972 0.0
C16 C 0.30221 0.18004 0.8812 0.0
C17 C 0.20973 0.1485 0.94183 0.0
C18 C 0.17163 0.12103 0.94941 0.0
C19 C 0.22949 0.15154 0.91308 0.0
C20 C 0.21039 0.12684 0.89166 0.0
C21 C 0.17262 0.09902 0.89876 0.0
C22 C 0.15346 0.0965 0.92771 0.0
N23 N 0.26677 0.18044 0.90599 0.0
H24 H 0.75372 0.16627 0.5892 0.0
H25 H 0.81128 0.13268 0.67329 0.0
H26 H 0.86439 0.07607 0.59626 0.0
H27 H 0.72725 0.14925 0.68694 0.0
C28 C 0.72137 0.1744 0.67496 0.0
C29 C 0.77858 0.1483 0.60231 0.0
C30 C 0.81069 0.12133 0.58883 0.0
C31 C 0.77661 0.15143 0.63281 0.0
C32 C 0.80934 0.12854 0.64994 0.0
C33 C 0.84042 0.10071 0.63716 0.0
C34 C 0.84071 0.09738 0.60651 0.0
N35 N 0.74139 0.17762 0.64585 0.0
H36 H 0.7547 0.33203 0.07736 0.0
H37 H 0.72188 0.37782 0.16185 0.0
H38 H 0.64647 0.42321 0.08549 0.0
H39 H 0.79433 0.34863 0.17608 0.0
C40 C 0.80086 0.32576 0.16148 0.0
C41 C 0.735 0.35257 0.0907 0.0
C42 C 0.6988 0.37733 0.07791 0.0
C43 C 0.74477 0.35304 0.12076 0.0
C44 C 0.71739 0.37859 0.13842 0.0
C45 C 0.68202 0.40442 0.12606 0.0
C46 C 0.67308 0.40347 0.09562 0.0
N47 N 0.78036 0.32626 0.13245 0.0
H48 H 0.78365 0.65264 0.59062 0.0
H49 H 0.73023 0.61421 0.67453 0.0
H50 H 0.68118 0.55668 0.59647 0.0
H51 H 0.73421 0.68496 0.67923 0.0
C52 C 0.77647 0.68592 0.67161 0.0
C53 C 0.76043 0.63313 0.60352 0.0
C54 C 0.73123 0.6048 0.58966 0.0
C55 C 0.75925 0.63723 0.63389 0.0
C56 C 0.72947 0.61206 0.65093 0.0
C57 C 0.70202 0.58254 0.63752 0.0
C58 C 0.70228 0.5794 0.60685 0.0
N59 N 0.79188 0.66529 0.64668 0.0
H60 H 0.74995 0.85863 0.07899 0.0
H61 H 0.78561 0.88776 0.16762 0.0
H62 H 0.86175 0.94743 0.09702 0.0
H63 H 0.78775 0.81365 0.16124 0.0
C64 C 0.74465 0.81608 0.15553 0.0
C65 C 0.77173 0.87592 0.09441 0.0
C66 C 0.80713 0.90362 0.0843 0.0
C67 C 0.76486 0.86981 0.12432 0.0
C68 C 0.79252 0.89212 0.14451 0.0
C69 C 0.82699 0.92077 0.13502 0.0
C70 C 0.83407 0.92626 0.10473 0.0
N71 N 0.72909 0.84149 0.13383 0.0
H72 H 0.23755 0.82939 0.44594 0.0
H73 H 0.22405 0.87149 0.35888 0.0
H74 H 0.13636 0.92259 0.42926 0.0
H75 H 0.30443 0.84438 0.3526 0.0
C76 C 0.30206 0.81969 0.36554 0.0
C77 C 0.22128 0.84942 0.43101 0.0
C78 C 0.18547 0.8764 0.44136 0.0
C79 C 0.23606 0.84762 0.40149 0.0
C80 C 0.21387 0.87291 0.38184 0.0
C81 C 0.17815 0.90027 0.39161 0.0
C82 C 0.16407 0.90177 0.42148 0.0
N83 N 0.27193 0.8194 0.39219 0.0
H84 H 0.26643 0.66686 0.94812 0.0
H85 H 0.27479 0.62432 0.86078 0.0
H86 H 0.37042 0.57559 0.92867 0.0
H87 H 0.19268 0.65012 0.85632 0.0
C88 C 0.19694 0.67514 0.86886 0.0
C89 C 0.2822 0.64693 0.93281 0.0
C90 C 0.3203 0.62092 0.94212 0.0
C91 C 0.26491 0.64808 0.90372 0.0
C92 C 0.2867 0.62325 0.8835 0.0
C93 C 0.32445 0.59689 0.89233 0.0
C94 C 0.34106 0.59579 0.92173 0.0
N95 N 0.22765 0.67563 0.89523 0.0
Eu96 Eu 0.069 0.12371 0.24458 0.0
C97 C 0.83627 0.07288 0.2673 0.0
N98 N 0.85801 0.10639 0.27326 0.0
C99 C 0.78288 0.13461 0.24855 0.0
C100 C 0.78801 0.06901 0.25057 0.0
C101 C 0.83048 0.13707 0.26547 0.0
C102 C 0.76202 0.10044 0.24065 0.0
C103 C 0.83878 0.00726 0.27402 0.0
C104 C 0.86124 0.04228 0.27883 0.0
C105 C 0.79176 1.00327 0.25659 0.0
C106 C 0.76653 0.03405 0.24484 0.0
Eu107 Eu 0.94075 0.10695 0.30055 0.0
N108 N 0.90779 0.04682 0.29477 0.0
C109 C 0.86433 0.97732 0.28691 0.0
C110 C 0.93161 0.01805 0.30843 0.0
C111 C 0.9106 0.9828 0.30445 0.0
H112 H 0.84418 0.16358 0.27272 0.0
H113 H 0.9301 0.9599 0.31486 0.0
H114 H 0.1729 0.08896 0.28247 0.0
H115 H 0.04937 0.2603 0.19796 0.0
H116 H 0.96714 0.02239 0.32213 0.0
H117 H 0.84835 0.94996 0.2837 0.0
H118 H 0.03029 0.19451 0.202 0.0
H119 H 0.76185 0.15909 0.24199 0.0
H120 H 0.77428 0.97653 0.25231 0.0
H121 H 0.72979 0.03058 0.23179 0.0
H122 H 0.25591 0.11061 0.30865 0.0
H123 H 0.72489 0.09864 0.22773 0.0
H124 H 0.1239 0.28851 0.22717 0.0
N125 N 0.15086 0.14181 0.2682 0.0
C126 C 0.1651 0.17758 0.26654 0.0
C127 C 0.23055 0.12976 0.29702 0.0
C128 C 0.2119 0.19119 0.28115 0.0
C129 C 0.18359 0.11758 0.28227 0.0
C130 C 0.24444 0.1668 0.29675 0.0
N131 N 0.08892 0.18612 0.23561 0.0
C132 C 0.06101 0.20673 0.21593 0.0
C133 C 0.14636 0.23782 0.24781 0.0
C134 C 0.13263 0.20053 0.25016 0.0
C135 C 0.11479 0.25973 0.22953 0.0
C136 C 0.07258 0.24394 0.2131 0.0
H137 H 0.28064 0.17619 0.30834 0.0
H138 H 0.25988 0.23964 0.29118 0.0
H139 H 0.20251 0.2805 0.26194 0.0
O140 O 0.11121 0.13091 0.20258 0.0
O141 O 0.07516 0.14106 0.29216 0.0
O142 O 0.98911 0.16014 0.30475 0.0
O143 O 0.10836 0.07795 0.22265 0.0
O144 O 0.98672 0.14993 0.23302 0.0
O145 O 0.94221 0.16123 0.27693 0.0
O146 O 0.94413 0.09652 0.34764 0.0
O147 O 0.96421 0.06673 0.26443 0.0
O148 O 0.98713 0.10473 0.22736 0.0
O149 O 0.87334 0.12256 0.32928 0.0
O150 O 0.02317 0.08657 0.31517 0.0
O151 O 0.0707 0.07165 0.27262 0.0
C152 C 0.04271 0.16486 0.30444 0.0
C153 C 0.10101 0.08025 0.17088 0.0
C154 C 0.10226 0.07928 0.11722 0.0
C155 C 0.06263 0.05111 0.11781 0.0
C156 C 0.06137 0.05217 0.1706 0.0
C157 C 0.0424 0.0378 0.14425 0.0
C158 C 0.12148 0.09366 0.14406 0.0
C159 C 0.95313 0.16928 0.24947 0.0
C160 C 0.1197 0.09627 0.199 0.0
C161 C 0.22457 0.22855 0.27975 0.0
C162 C 0.19178 0.25183 0.26318 0.0
C163 C 0.96317 0.07498 0.23659 0.0
C164 C 0.85867 0.08567 0.37074 0.0
C165 C 0.82373 0.06822 0.41888 0.0
C166 C 0.78906 0.04237 0.40534 0.0
C167 C 0.82347 0.05986 0.35778 0.0
C168 C 0.85861 0.08984 0.40128 0.0
C169 C 0.78904 0.03829 0.37503 0.0
C170 C 0.05963 0.06726 0.30078 0.0
C171 C 0.89499 0.10868 0.35263 0.0
H172 H 0.04772 0.03884 0.09777 0.0
H173 H 0.04485 0.04124 0.19074 0.0
H174 H 0.01192 0.01614 0.14434 0.0
H175 H 0.15158 0.11558 0.14414 0.0
H176 H 0.76124 0.02565 0.41816 0.0
H177 H 0.82216 0.05659 0.33434 0.0
H178 H 0.88598 0.10968 0.41131 0.0
H179 H 0.76191 0.0185 0.36485 0.0
Eu180 Eu 0.43753 0.38772 0.73571 0.0
C181 C 0.64244 0.45942 0.78331 0.0
N182 N 0.63633 0.42318 0.77807 0.0
C183 C 0.72054 0.42264 0.751 0.0
C184 C 0.68693 0.47915 0.77134 0.0
C185 C 0.67549 0.40426 0.7632 0.0
C186 C 0.72588 0.46033 0.75472 0.0
C187 C 0.61024 0.51392 0.8076 0.0
C188 C 0.60424 0.47656 0.80098 0.0
C189 C 0.65314 0.53412 0.79471 0.0
C190 C 0.69138 0.51677 0.7766 0.0
Eu191 Eu 0.5568 0.39481 0.79721 0.0
N192 N 0.56326 0.45624 0.81312 0.0
C193 C 0.57411 0.52954 0.82777 0.0
C194 C 0.53163 0.47047 0.83488 0.0
C195 C 0.53546 0.5075 0.84198 0.0
H196 H 0.67085 0.37518 0.76008 0.0
H197 H 0.50903 0.51889 0.85863 0.0
H198 H 0.33957 0.44607 0.75982 0.0
H199 H 0.40983 0.24477 0.7065 0.0
H200 H 0.50368 0.45327 0.84702 0.0
H201 H 0.57728 0.55815 0.83346 0.0
H202 H 0.45415 0.30593 0.70552 0.0
H203 H 0.75089 0.40779 0.73858 0.0
H204 H 0.65796 0.56296 0.79924 0.0
H205 H 0.72489 0.53254 0.76729 0.0
H206 H 0.25188 0.44289 0.7866 0.0
H207 H 0.76061 0.47453 0.74509 0.0
H208 H 0.32555 0.23478 0.73585 0.0
N209 N 0.34919 0.38847 0.75784 0.0
C210 C 0.32417 0.35556 0.76151 0.0
C211 C 0.27215 0.41806 0.78005 0.0
C212 C 0.27317 0.35247 0.77596 0.0
C213 C 0.32239 0.4197 0.76525 0.0
C214 C 0.24794 0.38424 0.78597 0.0
N215 N 0.3957 0.32947 0.7342 0.0
C216 C 0.41699 0.30161 0.71805 0.0
C217 C 0.32132 0.29092 0.75034 0.0
C218 C 0.34772 0.32519 0.74889 0.0
C219 C 0.34459 0.26157 0.73529 0.0
C220 C 0.39213 0.2671 0.71866 0.0
H221 H 0.20878 0.38305 0.79719 0.0
H222 H 0.20928 0.31505 0.79032 0.0
H223 H 0.25157 0.26109 0.7679 0.0
O224 O 0.45678 0.38672 0.68916 0.0
O225 O 0.4583 0.33932 0.7645 0.0
O226 O 0.47772 0.36472 0.80889 0.0
O227 O 0.37737 0.40505 0.70323 0.0
O228 O 0.52083 0.36467 0.72263 0.0
O229 O 0.56643 0.34798 0.76531 0.0
O230 O 0.59481 0.39827 0.8404 0.0
O231 O 0.56739 0.4185 0.75136 0.0
O232 O 0.48291 0.44124 0.7416 0.0
O233 O 0.60355 0.34938 0.81477 0.0
O234 O 0.46982 0.40972 0.80985 0.0
O235 O 0.43591 0.43541 0.76793 0.0
C236 C 0.45643 0.33829 0.7931 0.0
C237 C 0.41427 0.43047 0.65999 0.0
C238 C 0.41023 0.45112 0.60938 0.0
C239 C 0.42835 0.48583 0.61855 0.0
C240 C 0.43206 0.46527 0.66872 0.0
C241 C 0.43898 0.4928 0.64804 0.0
C242 C 0.40309 0.42354 0.63039 0.0
C243 C 0.55711 0.34503 0.73697 0.0
C244 C 0.41036 0.4006 0.68117 0.0
C245 C 0.2481 0.31803 0.77895 0.0
C246 C 0.27211 0.28731 0.76614 0.0
C247 C 0.53642 0.44378 0.73996 0.0
C248 C 0.58939 0.34282 0.86578 0.0
C249 C 0.58064 0.33588 0.91869 0.0
C250 C 0.54352 0.30684 0.9142 0.0
C251 C 0.55232 0.31359 0.86187 0.0
C252 C 0.60388 0.35357 0.8943 0.0
C253 C 0.52976 0.29571 0.88596 0.0
C254 C 0.43748 0.43275 0.79658 0.0
C255 C 0.60903 0.36425 0.84049 0.0
H256 H 0.43389 0.50766 0.60292 0.0
H257 H 0.441 0.47099 0.69143 0.0
H258 H 0.45293 0.51959 0.65487 0.0
H259 H 0.39025 0.39644 0.62365 0.0
H260 H 0.52537 0.29259 0.93257 0.0
H261 H 0.54002 0.30487 0.84022 0.0
H262 H 0.63169 0.37647 0.89749 0.0
H263 H 0.50102 0.27339 0.88273 0.0
Eu264 Eu 0.06086 0.89634 0.73538 0.0
C265 C 0.83921 0.84794 0.79794 0.0
N266 N 0.85809 0.88219 0.79277 0.0
C267 C 0.76893 0.90024 0.77667 0.0
C268 C 0.78449 0.83802 0.79153 0.0
C269 C 0.82372 0.90862 0.78312 0.0
C270 C 0.74938 0.86464 0.78053 0.0
C271 C 0.85542 0.78782 0.81751 0.0
C272 C 0.87418 0.8233 0.81079 0.0
C273 C 0.80195 0.77707 0.80964 0.0
C274 C 0.76647 0.80217 0.79676 0.0
Eu275 Eu 0.95084 0.89454 0.80388 0.0
N276 N 0.92509 0.83488 0.81874 0.0
C277 C 0.89016 0.76477 0.83305 0.0
C278 C 0.95675 0.81378 0.83634 0.0
C279 C 0.94063 0.7781 0.84303 0.0
H280 H 0.83895 0.936 0.78009 0.0
H281 H 0.96672 0.76114 0.85628 0.0
H282 H 0.13526 0.8193 0.74507 0.0
H283 H 0.14269 0.03488 0.72708 0.0
H284 H 0.99427 0.82452 0.84556 0.0
H285 H 0.87737 0.7373 0.8386 0.0
H286 H 0.07678 0.98421 0.71801 0.0
H287 H 0.74193 0.92115 0.76861 0.0
H288 H 0.78704 0.74979 0.81431 0.0
H289 H 0.72484 0.79384 0.79157 0.0
H290 H 0.22129 0.8014 0.76894 0.0
H291 H 0.70701 0.85814 0.77539 0.0
H292 H 0.22748 0.02361 0.75522 0.0
N293 N 0.14637 0.87593 0.75384 0.0
C294 C 0.18291 0.90231 0.76183 0.0
C295 C 0.21063 0.82989 0.76755 0.0
C296 C 0.2337 0.89341 0.77457 0.0
C297 C 0.16127 0.84015 0.75456 0.0
C298 C 0.24649 0.85663 0.77823 0.0
N299 N 0.12357 0.94546 0.74127 0.0
C300 C 0.11408 0.97924 0.72998 0.0
C301 C 0.21014 0.96605 0.76075 0.0
C302 C 0.17155 0.93813 0.75493 0.0
C303 C 0.19888 1.0014 0.75116 0.0
C304 C 0.15112 0.00786 0.7352 0.0
H305 H 0.28502 0.84864 0.78796 0.0
H306 H 0.30991 0.91505 0.79216 0.0
H307 H 0.28917 0.97874 0.78011 0.0
O308 O 0.04494 0.91425 0.69073 0.0
O309 O 0.06077 0.94066 0.77083 0.0
O310 O 0.04153 0.90365 0.80855 0.0
O311 O 0.10841 0.87545 0.6983 0.0
O312 O 0.98376 0.92892 0.72968 0.0
O313 O 0.9475 0.94551 0.77506 0.0
O314 O 0.92701 0.89389 0.85002 0.0
O315 O 0.92047 0.87997 0.75819 0.0
O316 O 0.99403 0.85234 0.73562 0.0
O317 O 0.9391 0.94527 0.82811 0.0
O318 O 0.02958 0.86145 0.80539 0.0
O319 O 0.0463 0.84207 0.75842 0.0
C320 C 0.06267 0.93398 0.79889 0.0
C321 C 0.05983 0.87096 0.6538 0.0
C322 C 0.05422 0.85987 0.60115 0.0
C323 C 0.01522 0.83215 0.60647 0.0
C324 C 0.02115 0.84304 0.6585 0.0
C325 C 0.99909 0.82373 0.63495 0.0
C326 C 0.07677 0.87911 0.62508 0.0
C327 C 0.95667 0.95133 0.74688 0.0
C328 C 0.08035 0.89266 0.67869 0.0
C329 C 0.27101 0.92134 0.78201 0.0
C330 C 0.25926 0.95761 0.77509 0.0
C331 C 0.94085 0.85495 0.74071 0.0
C332 C 0.87665 0.94382 0.86817 0.0
C333 C 0.83047 0.95531 0.91479 0.0
C334 C 0.78906 0.97386 0.89972 0.0
C335 C 0.83469 0.96227 0.85358 0.0
C336 C 0.87409 0.94013 0.89875 0.0
C337 C 0.79112 0.9771 0.86933 0.0
C338 C 0.04502 0.83612 0.78676 0.0
C339 C 0.92421 0.92911 0.8522 0.0
H340 H 0.99757 0.81672 0.58854 0.0
H341 H 0.00769 0.8364 0.68037 0.0
H342 H 0.96916 0.80227 0.63878 0.0
H343 H 0.10634 0.90086 0.62134 0.0
H344 H 0.75475 0.98552 0.91143 0.0
H345 H 0.83577 0.96549 0.83009 0.0
H346 H 0.90667 0.92613 0.9101 0.0
H347 H 0.75889 0.99132 0.85796 0.0
Eu348 Eu 0.46152 0.61077 0.23125 0.0
C349 C 0.6824 0.66951 0.27751 0.0
N350 N 0.67054 0.63332 0.2775 0.0
C351 C 0.75956 0.62026 0.25794 0.0
C352 C 0.73327 0.68265 0.26699 0.0
C353 C 0.70844 0.60857 0.26846 0.0
C354 C 0.77185 0.6575 0.25692 0.0
C355 C 0.65677 0.73074 0.29126 0.0
C356 C 0.64428 0.6932 0.28917 0.0
C357 C 0.70591 0.7443 0.27919 0.0
C358 C 0.74414 0.72027 0.26711 0.0
Eu359 Eu 0.58209 0.61553 0.2936 0.0
N360 N 0.5975 0.67912 0.30102 0.0
C361 C 0.62107 0.75316 0.30692 0.0
C362 C 0.56721 0.7 0.31969 0.0
C363 C 0.57699 0.7375 0.32197 0.0
H364 H 0.69885 0.57984 0.26913 0.0
H365 H 0.55123 0.75412 0.33581 0.0
H366 H 0.38684 0.68685 0.23708 0.0
H367 H 0.39871 0.46788 0.23775 0.0
H368 H 0.53556 0.68788 0.33313 0.0
H369 H 0.62914 0.78213 0.30906 0.0
H370 H 0.46396 0.51923 0.2318 0.0
H371 H 0.78929 0.60058 0.25048 0.0
H372 H 0.71572 0.77313 0.28016 0.0
H373 H 0.78257 0.73096 0.25862 0.0
H374 H 0.29104 0.70393 0.24792 0.0
H375 H 0.81138 0.6665 0.24863 0.0
H376 H 0.30051 0.47991 0.24717 0.0
N377 N 0.37125 0.63004 0.24072 0.0
C378 C 0.33307 0.60318 0.24437 0.0
C379 C 0.30238 0.67551 0.24716 0.0
C380 C 0.27768 0.61163 0.2499 0.0
C381 C 0.35671 0.66581 0.24147 0.0
C382 C 0.2627 0.64832 0.2515 0.0
N383 N 0.40342 0.55976 0.23817 0.0
C384 C 0.42124 0.52475 0.23586 0.0
C385 C 0.31072 0.53857 0.2461 0.0
C386 C 0.34938 0.56705 0.24252 0.0
C387 C 0.3289 0.50254 0.24443 0.0
C388 C 0.38435 0.49563 0.2392 0.0
H389 H 0.22058 0.65592 0.25578 0.0
H390 H 0.19636 0.58929 0.25788 0.0
H391 H 0.2253 0.52539 0.25458 0.0
O392 O 0.47864 0.59088 0.18721 0.0
O393 O 0.44103 0.58551 0.27583 0.0
O394 O 0.52576 0.56702 0.29046 0.0
O395 O 0.41681 0.63181 0.19359 0.0
O396 O 0.5312 0.57103 0.2254 0.0
O397 O 0.59214 0.56508 0.26466 0.0
O398 O 0.57383 0.61393 0.34128 0.0
O399 O 0.60298 0.62855 0.24636 0.0
O400 O 0.52531 0.65657 0.23012 0.0
O401 O 0.64232 0.58783 0.3209 0.0
O402 O 0.49812 0.64242 0.30062 0.0
O403 O 0.4781 0.66339 0.25489 0.0
C404 C 0.47265 0.56756 0.29399 0.0
C405 C 0.46605 0.63293 0.14919 0.0
C406 C 0.46962 0.64237 0.09643 0.0
C407 C 0.51025 0.66936 0.10069 0.0
C408 C 0.50607 0.66019 0.15291 0.0
C409 C 0.52813 0.67825 0.12878 0.0
C410 C 0.44755 0.62423 0.12094 0.0
C411 C 0.57303 0.55549 0.23854 0.0
C412 C 0.44449 0.61293 0.1746 0.0
C413 C 0.23908 0.58332 0.25358 0.0
C414 C 0.25554 0.54691 0.25164 0.0
C415 C 0.57882 0.65233 0.22955 0.0
C416 C 0.65731 0.61497 0.36707 0.0
C417 C 0.68991 0.62165 0.41741 0.0
C418 C 0.72661 0.64904 0.40788 0.0
C419 C 0.69445 0.64223 0.35827 0.0
C420 C 0.65493 0.6048 0.39671 0.0
C421 C 0.72881 0.65913 0.37857 0.0
C422 C 0.47376 0.6659 0.28332 0.0
C423 C 0.62032 0.59778 0.34548 0.0
H424 H 0.52754 0.68403 0.08229 0.0
H425 H 0.52023 0.66742 0.17446 0.0
H426 H 0.55911 0.69925 0.13188 0.0
H427 H 0.41668 0.60307 0.11802 0.0
H428 H 0.75315 0.66318 0.4232 0.0
H429 H 0.69686 0.65056 0.33571 0.0
H430 H 0.62633 0.58367 0.40352 0.0
H431 H 0.7571 0.6803 0.37158 0.0
H432 H 0.17085 0.97373 0.39859 0.0
H433 H 0.13658 0.88752 0.3369 0.0
H434 H 0.10224 0.93186 0.30182 0.0
H435 H 0.07793 0.9954 0.28939 0.0
H436 H 0.10902 0.08068 0.35224 0.0
H437 H 0.14895 0.03679 0.38588 0.0
C438 C 0.15552 0.96462 0.37755 0.0
C439 C 0.15619 0.92732 0.37049 0.0
C440 C 0.13566 0.99025 0.35751 0.0
C441 C 0.13697 0.91609 0.34287 0.0
C442 C 0.11721 0.94144 0.32278 0.0
C443 C 0.09461 1.00429 0.3102 0.0
C444 C 0.09113 0.04113 0.31831 0.0
C445 C 0.11618 0.97864 0.32985 0.0
C446 C 0.11157 0.05238 0.34558 0.0
C447 C 0.13411 0.0273 0.36487 0.0
H448 H 0.33042 0.52352 0.89776 0.0
H449 H 0.36568 0.61132 0.83807 0.0
H450 H 0.39831 0.56779 0.80155 0.0
H451 H 0.42031 0.5047 0.78735 0.0
H452 H 0.38751 0.4174 0.84784 0.0
H453 H 0.34953 0.46055 0.88305 0.0
C454 C 0.34559 0.53307 0.87682 0.0
C455 C 0.34588 0.5705 0.87064 0.0
C456 C 0.36406 0.50792 0.85593 0.0
C457 C 0.36485 0.58255 0.84325 0.0
C458 C 0.38346 0.5577 0.82237 0.0
C459 C 0.40364 0.4952 0.80799 0.0
C460 C 0.40639 0.45811 0.81509 0.0
C461 C 0.38331 0.52031 0.82847 0.0
C462 C 0.38569 0.44596 0.84204 0.0
C463 C 0.36435 0.4706 0.86222 0.0
H464 H 0.61232 0.58627 0.67296 0.0
H465 H 0.7374 0.51328 0.64238 0.0
H466 H 0.69901 0.46415 0.67248 0.0
H467 H 0.62854 0.44157 0.70666 0.0
H468 H 0.49979 0.51319 0.73503 0.0
H469 H 0.54025 0.5631 0.70656 0.0
C470 C 0.63091 0.55955 0.67297 0.0
C471 C 0.67745 0.55319 0.65558 0.0
C472 C 0.60781 0.53122 0.68983 0.0
C473 C 0.70132 0.51855 0.65555 0.0
C474 C 0.67947 0.49054 0.67276 0.0
C475 C 0.60967 0.46821 0.70674 0.0
C476 C 0.56152 0.47384 0.72299 0.0
C477 C 0.63259 0.4965 0.68989 0.0
C478 C 0.53686 0.50826 0.72258 0.0
C479 C 0.56003 0.53679 0.70637 0.0
H480 H 0.84287 0.99448 0.1325 0.0
H481 H 0.87439 0.90117 0.18687 0.0
H482 H 0.91749 0.94053 0.22343 0.0
H483 H 0.94813 1.00147 0.23968 0.0
H484 H 0.91783 0.09443 0.18494 0.0
H485 H 0.87386 0.05514 0.14856 0.0
C486 C 0.85976 0.98263 0.15215 0.0
C487 C 0.85514 0.94482 0.15682 0.0
C488 C 0.88501 0.00538 0.17304 0.0
C489 C 0.87655 0.93018 0.18277 0.0
C490 C 0.90156 0.95266 0.20367 0.0
C491 C 0.93126 0.01309 0.21994 0.0
C492 C 0.93565 0.05079 0.21515 0.0
C493 C 0.906 0.9903 0.19906 0.0
C494 C 0.91485 0.06545 0.18916 0.0
C495 C 0.88961 0.04302 0.16836 0.0
H496 H 0.81275 0.07503 0.69165 0.0
H497 H 0.93888 0.06776 0.62528 0.0
H498 H 0.98523 0.0215 0.65363 0.0
H499 H 0.98814 0.98151 0.6958 0.0
H500 H 0.86957 0.99327 0.76526 0.0
H501 H 0.8229 0.04049 0.73731 0.0
C502 C 0.85102 0.0641 0.68352 0.0
C503 C 0.87137 0.07468 0.65585 0.0
C504 C 0.87883 0.03832 0.70046 0.0
C505 C 0.92084 0.0595 0.64587 0.0
C506 C 0.94788 0.03325 0.66225 0.0
C507 C 0.95238 0.99452 0.7051 0.0
C508 C 0.93158 0.98307 0.73232 0.0
C509 C 0.92678 0.02212 0.68931 0.0
C510 C 0.88581 1.00088 0.74412 0.0
C511 C 0.85917 0.02795 0.72814 0.0
H512 H 0.721 0.43828 0.17561 0.0
H513 H 0.57835 0.43204 0.11974 0.0
H514 H 0.53294 0.47766 0.14958 0.0
H515 H 0.53354 0.51959 0.19089 0.0
H516 H 0.6722 0.52279 0.24945 0.0
H517 H 0.71848 0.47706 0.21957 0.0
C518 C 0.67963 0.44632 0.17011 0.0
C519 C 0.65371 0.43174 0.14503 0.0
C520 C 0.6528 0.47191 0.18794 0.0
C521 C 0.60028 0.44325 0.13829 0.0
C522 C 0.57387 0.46914 0.15557 0.0
C523 C 0.57381 0.51032 0.19737 0.0
C524 C 0.59958 0.52523 0.2223 0.0
C525 C 0.59984 0.48376 0.18032 0.0
C526 C 0.65148 0.51224 0.23031 0.0
C527 C 0.67803 0.48605 0.21317 0.0
H528 H 0.41347 0.45622 0.39406 0.0
H529 H 0.25417 0.4614 0.35366 0.0
H530 H 0.28886 0.50701 0.31896 0.0
H531 H 0.36532 0.54499 0.30014 0.0
H532 H 0.52571 0.53568 0.33905 0.0
H533 H 0.48936 0.49308 0.3749 0.0
C534 C 0.38622 0.46762 0.37783 0.0
C535 C 0.33132 0.45572 0.37652 0.0
C536 C 0.40661 0.49322 0.3578 0.0
C537 C 0.29668 0.47014 0.35502 0.0
C538 C 0.31644 0.49626 0.33529 0.0
C539 C 0.39237 0.5334 0.31621 0.0
C540 C 0.44839 0.54313 0.3164 0.0
C541 C 0.37149 0.50791 0.33639 0.0
C542 C 0.48256 0.52841 0.33802 0.0
C543 C 0.46185 0.50398 0.35861 0.0
H544 H 0.15551 0.02592 0.90474 0.0
H545 H 0.14614 0.11244 0.84141 0.0
H546 H 0.11404 0.06905 0.80448 0.0
H547 H 0.08507 0.00658 0.7906 0.0
H548 H 0.09162 0.92117 0.85502 0.0
H549 H 0.12704 0.96418 0.89108 0.0
C550 C 0.14589 0.03548 0.88298 0.0
C551 C 0.1532 0.07255 0.87605 0.0
C552 C 0.12655 0.01053 0.86197 0.0
C553 C 0.14161 0.08407 0.84742 0.0
C554 C 0.12284 0.05928 0.82627 0.0
C555 C 0.09476 0.99737 0.81244 0.0
C556 C 0.08572 0.96067 0.82002 0.0
C557 C 0.11485 0.02243 0.83332 0.0
C558 C 0.09786 0.94928 0.84857 0.0
C559 C 0.11825 0.97385 0.86926 0.0
H560 H 0.22928 0.12169 1.00076 0.0
H561 H 0.06509 0.1126 0.96628 0.0
H562 H 0.029 0.10153 1.01524 0.0
H563 H 0.04423 0.09122 0.06736 0.0
H564 H 0.20837 0.09763 0.10225 0.0
H565 H 0.24396 0.11398 0.05397 0.0
C566 C 0.18554 0.11777 1.00408 0.0
C567 C 0.15001 0.11766 0.97981 0.0
C568 C 0.165 0.11095 0.03241 0.0
C569 C 0.09344 0.1123 0.98447 0.0
C570 C 0.07273 0.10607 1.0125 0.0
C571 C 0.08787 0.09606 0.06446 0.0
C572 C 0.12353 0.09275 0.0885 0.0
C573 C 0.10819 0.10467 0.03654 0.0
C574 C 0.17978 0.10013 0.08431 0.0
C575 C 0.20027 0.10922 0.05659 0.0
H576 H 0.39957 0.43404 0.47212 0.0
H577 H 0.24478 0.38258 0.49391 0.0
H578 H 0.26375 0.3912 0.54579 0.0
H579 H 0.32256 0.41568 0.58512 0.0
H580 H 0.47496 0.46973 0.563 0.0
H581 H 0.45788 0.45864 0.51115 0.0
C582 C 0.36959 0.42502 0.48813 0.0
C583 C 0.32068 0.40773 0.47889 0.0
C584 C 0.38012 0.43082 0.51796 0.0
C585 C 0.28311 0.39551 0.5002 0.0
C586 C 0.29371 0.4007 0.52995 0.0
C587 C 0.35218 0.42477 0.56893 0.0
C588 C 0.39988 0.4436 0.57791 0.0
C589 C 0.34188 0.41856 0.53909 0.0
C590 C 0.43762 0.45556 0.55665 0.0
C591 C 0.42801 0.44908 0.52701 0.0
H592 H 0.59819 0.37543 0.05271 0.0
H593 H 0.77085 0.37162 0.03237 0.0
H594 H 0.74966 0.36074 0.98082 0.0
H595 H 0.68176 0.34854 0.94203 0.0
H596 H 0.50921 0.34982 0.96304 0.0
H597 H 0.53046 0.36562 1.01369 0.0
C598 C 0.63111 0.37281 0.03688 0.0
C599 C 0.68597 0.37435 0.04628 0.0
C600 C 0.61859 0.36581 1.00742 0.0
C601 C 0.72828 0.37033 0.02564 0.0
C602 C 0.71618 0.36412 0.99619 0.0
C603 C 0.6489 0.35273 0.95766 0.0
C604 C 0.59404 0.34785 0.94888 0.0
C605 C 0.66147 0.36123 0.9869 0.0
C606 C 0.5518 0.35302 0.96939 0.0
C607 C 0.5639 0.36215 0.99832 0.0
H608 H 0.80945 0.05882 0.55644 0.0
H609 H 0.81634 0.17584 0.54808 0.0
H610 H 0.82163 0.16991 0.49496 0.0
H611 H 0.82458 0.13133 0.45075 0.0
H612 H 0.8209 0.01435 0.45979 0.0
H613 H 0.815 0.0205 0.51275 0.0
C614 C 0.81278 0.08309 0.54309 0.0
C615 C 0.81265 0.11774 0.55638 0.0
C616 C 0.81656 0.07949 0.51261 0.0
C617 C 0.81568 0.14882 0.53852 0.0
C618 C 0.81915 0.14546 0.50811 0.0
C619 C 0.82312 0.1072 0.46434 0.0
C620 C 0.82296 0.07243 0.45124 0.0
C621 C 0.81976 0.11091 0.4949 0.0
C622 C 0.82032 0.04144 0.46921 0.0
C623 C 0.81713 0.04492 0.49953 0.0
H624 H 0.8028 0.96603 0.0522 0.0
H625 H 0.83251 0.85079 0.04482 0.0
H626 H 0.84477 0.85671 0.99205 0.0
H627 H 0.84403 0.8943 0.9476 0.0
H628 H 0.8108 0.00913 0.95459 0.0
H629 H 0.80305 1.00382 1.00768 0.0
C630 C 0.81243 0.94233 0.03901 0.0
C631 C 0.81662 0.90802 0.05238 0.0
C632 C 0.81857 0.94584 1.00854 0.0
C633 C 0.82855 0.87744 0.035 0.0
C634 C 0.83572 0.88082 1.00483 0.0
C635 C 0.83562 0.91819 0.96081 0.0
C636 C 0.82798 0.95205 0.94717 0.0
C637 C 0.83037 0.91482 0.99131 0.0
C638 C 0.81638 0.9827 0.96454 0.0
C639 C 0.8121 0.9797 0.99491 0.0
H640 H 0.64432 0.59766 0.55238 0.0
H641 H 0.82091 0.6061 0.55433 0.0
H642 H 0.82375 0.60879 0.50107 0.0
H643 H 0.77614 0.61321 0.4543 0.0
H644 H 0.59929 0.60803 0.45172 0.0
H645 H 0.59647 0.59862 0.50461 0.0
C646 C 0.68337 0.59949 0.54104 0.0
C647 C 0.73234 0.60196 0.55726 0.0
C648 C 0.68464 0.60171 0.5103 0.0
C649 C 0.78267 0.60458 0.54233 0.0
C650 C 0.78432 0.60609 0.51189 0.0
C651 C 0.73689 0.61005 0.46527 0.0
C652 C 0.688 0.6118 0.44901 0.0
C653 C 0.73555 0.60552 0.4957 0.0
C654 C 0.63762 0.60668 0.46358 0.0
C655 C 0.63596 0.60157 0.4939 0.0
H656 H 0.42531 0.61758 0.96187 0.0
H657 H 0.25769 0.62503 0.99149 0.0
H658 H 0.28885 0.63004 0.04209 0.0
H659 H 0.36409 0.63578 0.07769 0.0
H660 H 0.53176 0.63021 0.04783 0.0
H661 H 0.50038 0.62075 0.99767 0.0
C662 C 0.39564 0.61975 0.97947 0.0
C663 C 0.33931 0.62101 0.97295 0.0
C664 C 0.4139 0.62317 1.00847 0.0
C665 C 0.30132 0.62435 0.99594 0.0
C666 C 0.3191 0.62714 0.02487 0.0
C667 C 0.39367 0.63197 0.06024 0.0
C668 C 0.45014 0.6338 0.06644 0.0
C669 C 0.37532 0.6271 0.03137 0.0
C670 C 0.48806 0.62928 0.04355 0.0
C671 C 0.47015 0.6238 1.01489 0.0
H672 H 0.08313 0.88208 0.46504 0.0
H673 H 0.25361 0.87236 0.48847 0.0
H674 H 0.22864 0.86917 0.54017 0.0
H675 H 0.15771 0.86545 0.57869 0.0
H676 H 0.98711 0.87253 0.5549 0.0
H677 H 0.01257 0.88081 0.50365 0.0
C678 C 0.11481 0.87979 0.48152 0.0
C679 C 0.17012 0.87736 0.47289 0.0
C680 C 0.10006 0.87733 0.51121 0.0
C681 C 0.21068 0.87393 0.4945 0.0
C682 C 0.19644 0.87218 0.52409 0.0
C683 C 0.12626 0.86934 0.56229 0.0
C684 C 0.07063 0.8683 0.57056 0.0
C685 C 0.1412 0.87331 0.5327 0.0
C686 C 0.03021 0.87294 0.54904 0.0
C687 C 0.04474 0.87769 0.51973 0.0
H688 H 0.1181 0.32429 0.33791 0.0
H689 H 0.24442 0.26527 0.38279 0.0
H690 H 0.20505 0.20745 0.36556 0.0
H691 H 0.13363 0.17359 0.338 0.0
H692 H 0.00538 0.23293 0.29518 0.0
H693 H 0.04597 0.29064 0.31142 0.0
C694 C 0.13686 0.29872 0.34393 0.0
C695 C 0.1838 0.29896 0.36165 0.0
C696 C 0.11332 0.26566 0.33449 0.0
C697 C 0.20789 0.26574 0.36937 0.0
C698 C 0.18544 0.23269 0.35951 0.0
C699 C 0.11456 0.19924 0.33249 0.0
C700 C 0.06638 0.19921 0.31568 0.0
C701 C 0.13793 0.2323 0.34221 0.0
C702 C 0.04191 0.23242 0.30852 0.0
C703 C 0.06537 0.26538 0.31761 0.0
H704 H 0.36345 0.18544 0.83269 0.0
H705 H 0.30275 0.24949 0.90467 0.0
H706 H 0.34744 0.30404 0.88447 0.0
H707 H 0.40185 0.3339 0.84516 0.0
H708 H 0.46046 0.26895 0.77316 0.0
H709 H 0.41849 0.21455 0.79436 0.0
C710 C 0.36019 0.21135 0.84401 0.0
C711 C 0.3299 0.21343 0.87008 0.0
C712 C 0.38544 0.2425 0.83213 0.0
C713 C 0.32581 0.24715 0.88452 0.0
C714 C 0.35137 0.27835 0.87297 0.0
C715 C 0.40568 0.30772 0.83433 0.0
C716 C 0.4336 0.30545 0.80745 0.0
C717 C 0.38105 0.27641 0.84666 0.0
C718 C 0.43828 0.27147 0.79357 0.0
C719 C 0.41453 0.24031 0.80576 0.0
H720 H 0.67819 0.23652 0.65133 0.0
H721 H 0.70011 0.17889 0.73238 0.0
H722 H 0.65286 0.22713 0.75891 0.0
H723 H 0.60444 0.28492 0.75911 0.0
H724 H 0.57754 0.34184 0.67817 0.0
H725 H 0.62747 0.29461 0.65151 0.0
C726 C 0.67273 0.23469 0.67479 0.0
C727 C 0.69276 0.20438 0.68999 0.0
C728 C 0.6446 0.26229 0.68988 0.0
C729 C 0.68497 0.20206 0.72031 0.0
C730 C 0.65804 0.22959 0.73547 0.0
C731 C 0.60981 0.28719 0.73565 0.0
C732 C 0.58771 0.31696 0.72067 0.0
C733 C 0.63762 0.25976 0.72049 0.0
C734 C 0.5942 0.31914 0.69021 0.0
C735 C 0.62279 0.29219 0.67496 0.0
H736 H 0.82891 0.3134 0.21711 0.0
H737 H 0.84033 0.267 0.13072 0.0
H738 H 0.88972 0.21471 0.15021 0.0
H739 H 0.92858 0.18172 0.19221 0.0
H740 H 0.91263 0.22758 0.27868 0.0
H741 H 0.86612 0.28032 0.25883 0.0
C742 C 0.84239 0.29184 0.20258 0.0
C743 C 0.83116 0.29403 0.17262 0.0
C744 C 0.87 0.26174 0.21396 0.0
C745 C 0.84843 0.2659 0.15394 0.0
C746 C 0.8767 0.236 0.16506 0.0
C747 C 0.91534 0.20346 0.20661 0.0
C748 C 0.925 0.20103 0.23681 0.0
C749 C 0.88762 0.23359 0.19508 0.0
C750 C 0.90644 0.22897 0.25531 0.0
C751 C 0.87966 0.25915 0.244 0.0
H752 H 0.7502 0.75115 0.69523 0.0
H753 H 0.88814 0.68338 0.67398 0.0
H754 H 0.95134 0.72962 0.69348 0.0
H755 H 0.96716 0.789 0.71723 0.0
H756 H 0.83014 0.85989 0.73278 0.0
H757 H 0.76676 0.81284 0.71527 0.0
C758 C 0.79412 0.7466 0.69498 0.0
C759 C 0.81458 0.71392 0.68343 0.0
C760 C 0.83027 0.77379 0.70537 0.0
C761 C 0.87152 0.7084 0.68277 0.0
C762 C 0.90763 0.7348 0.69392 0.0
C763 C 0.92349 0.79433 0.71656 0.0
C764 C 0.90322 0.82757 0.72735 0.0
C765 C 0.88748 0.76762 0.70528 0.0
C766 C 0.84658 0.83403 0.72587 0.0
C767 C 0.81035 0.80724 0.71551 0.0
H768 H 0.76544 0.74685 0.17057 0.0
H769 H 0.63518 0.8251 0.16617 0.0
H770 H 0.5712 0.78099 0.18818 0.0
H771 H 0.5539 0.72083 0.21076 0.0
H772 H 0.68232 0.6408 0.20988 0.0
H773 H 0.74541 0.68474 0.18776 0.0
C774 C 0.72292 0.75406 0.17431 0.0
C775 C 0.70494 0.78906 0.16706 0.0
C776 C 0.68621 0.72829 0.1861 0.0
C777 C 0.64974 0.79817 0.1716 0.0
C778 C 0.61327 0.77302 0.18422 0.0
C779 C 0.59548 0.7129 0.20536 0.0
C780 C 0.61393 0.67791 0.21272 0.0
C781 C 0.63119 0.73807 0.1918 0.0
C782 C 0.66763 0.6679 0.2052 0.0
C783 C 0.70368 0.69295 0.19242 0.0
H784 H 0.35892 0.81386 0.31559 0.0
H785 H 0.31332 0.75303 0.39243 0.0
H786 H 0.36347 0.70012 0.37411 0.0
H787 H 0.41965 0.67082 0.33556 0.0
H788 H 0.46344 0.73242 0.25873 0.0
H789 H 0.41479 0.78516 0.27764 0.0
C790 C 0.36009 0.78901 0.32833 0.0
C791 C 0.33256 0.78736 0.35525 0.0
C792 C 0.38862 0.75875 0.3176 0.0
C793 C 0.3342 0.75502 0.37158 0.0
C794 C 0.36288 0.72474 0.36112 0.0
C795 C 0.41856 0.69587 0.32309 0.0
C796 C 0.44471 0.69764 0.29571 0.0
C797 C 0.39017 0.72625 0.33409 0.0
C798 C 0.44303 0.73022 0.27971 0.0
C799 C 0.41539 0.76046 0.29054 0.0
H800 H 0.1413 0.68241 0.81853 0.0
H801 H 0.19358 0.74249 0.89487 0.0
H802 H 0.15104 0.79747 0.87594 0.0
H803 H 0.09997 0.82864 0.83755 0.0
H804 H 0.04748 0.7692 0.76102 0.0
H805 H 0.08964 0.71378 0.77997 0.0
C806 C 0.14313 0.70757 0.831 0.0
C807 C 0.17033 0.70841 0.85801 0.0
C808 C 0.11882 0.73913 0.81991 0.0
C809 C 0.1728 0.7411 0.87401 0.0
C810 C 0.14854 0.77258 0.8632 0.0
C811 C 0.09741 0.80345 0.82515 0.0
C812 C 0.07038 0.80276 0.79809 0.0
C813 C 0.12155 0.7719 0.83618 0.0
C814 C 0.06815 0.77023 0.78194 0.0
C815 C 0.09207 0.73861 0.79279 0.0
loop_
_geom_bond_atom_site_label_1
_geom_bond_atom_site_label_2
_geom_bond_distance
_geom_bond_site_symmetry_2
_ccdc_geom_bond_type
H0 C5 0.930 . S
H1 C8 0.930 . S
H2 C10 0.930 . S
H3 C4 1.016 . S
C4 H3 1.016 . S
C4 N11 1.286 . S
C5 H0 0.930 . S
C5 C6 1.397 . S
C5 C7 1.361 . S
C6 C5 1.397 . S
C6 C10 1.390 . S
C7 C5 1.361 . S
C7 C8 1.393 . S
C7 N11 1.413 . S
C8 H1 0.930 . S
C8 C7 1.393 . S
C8 C9 1.399 . S
C9 C8 1.399 . S
C9 C10 1.381 . S
C10 H2 0.930 . S
C10 C6 1.390 . S
C10 C9 1.381 . S
N11 C4 1.286 . S
N11 C7 1.413 . S
H12 C17 0.930 . S
H13 C20 0.930 . S
H14 C22 0.930 . S
H15 C16 1.016 . S
C16 H15 1.016 . S
C16 N23 1.286 . S
C17 H12 0.930 . S
C17 C18 1.397 . S
C17 C19 1.361 . S
C18 C17 1.397 . S
C18 C22 1.390 . S
C19 C17 1.361 . S
C19 C20 1.393 . S
C19 N23 1.413 . S
C20 H13 0.930 . S
C20 C19 1.393 . S
C20 C21 1.399 . S
C21 C20 1.399 . S
C21 C22 1.381 . S
C22 H14 0.930 . S
C22 C18 1.390 . S
C22 C21 1.381 . S
N23 C16 1.286 . S
N23 C19 1.413 . S
H24 C29 0.930 . S
H25 C32 0.930 . S
H26 C34 0.930 . S
H27 C28 1.016 . S
C28 H27 1.016 . S
C28 N35 1.286 . S
C29 H24 0.930 . S
C29 C30 1.397 . S
C29 C31 1.361 . S
C30 C29 1.397 . S
C30 C34 1.390 . S
C31 C29 1.361 . S
C31 C32 1.393 . S
C31 N35 1.413 . S
C32 H25 0.930 . S
C32 C31 1.393 . S
C32 C33 1.399 . S
C33 C32 1.399 . S
C33 C34 1.381 . S
C34 H26 0.930 . S
C34 C30 1.390 . S
C34 C33 1.381 . S
N35 C28 1.286 . S
N35 C31 1.413 . S
H36 C41 0.930 . S
H37 C44 0.930 . S
H38 C46 0.930 . S
H39 C40 1.016 . S
C40 H39 1.016 . S
C40 N47 1.286 . S
C41 H36 0.930 . S
C41 C42 1.397 . S
C41 C43 1.361 . S
C42 C41 1.397 . S
C42 C46 1.390 . S
C43 C41 1.361 . S
C43 C44 1.393 . S
C43 N47 1.413 . S
C44 H37 0.930 . S
C44 C43 1.393 . S
C44 C45 1.399 . S
C45 C44 1.399 . S
C45 C46 1.381 . S
C46 H38 0.930 . S
C46 C42 1.390 . S
C46 C45 1.381 . S
N47 C40 1.286 . S
N47 C43 1.413 . S
H48 C53 0.930 . S
H49 C56 0.930 . S
H50 C58 0.930 . S
H51 C52 1.016 . S
C52 H51 1.016 . S
C52 N59 1.286 . S
C53 H48 0.930 . S
C53 C54 1.397 . S
C53 C55 1.361 . S
C54 C53 1.397 . S
C54 C58 1.390 . S
C55 C53 1.361 . S
C55 C56 1.393 . S
C55 N59 1.413 . S
C56 H49 0.930 . S
C56 C55 1.393 . S
C56 C57 1.399 . S
C57 C56 1.399 . S
C57 C58 1.381 . S
C58 H50 0.930 . S
C58 C54 1.390 . S
C58 C57 1.381 . S
N59 C52 1.286 . S
N59 C55 1.413 . S
H60 C65 0.930 . S
H61 C68 0.930 . S
H62 C70 0.930 . S
H63 C64 1.016 . S
C64 H63 1.016 . S
C64 N71 1.286 . S
C65 H60 0.930 . S
C65 C66 1.397 . S
C65 C67 1.361 . S
C66 C65 1.397 . S
C66 C70 1.390 . S
C67 C65 1.361 . S
C67 C68 1.393 . S
C67 N71 1.413 . S
C68 H61 0.930 . S
C68 C67 1.393 . S
C68 C69 1.399 . S
C69 C68 1.399 . S
C69 C70 1.381 . S
C70 H62 0.930 . S
C70 C66 1.390 . S
C70 C69 1.381 . S
N71 C64 1.286 . S
N71 C67 1.413 . S
H72 C77 0.930 . S
H73 C80 0.930 . S
H74 C82 0.930 . S
H75 C76 1.016 . S
C76 H75 1.016 . S
C76 N83 1.286 . S
C77 H72 0.930 . S
C77 C78 1.397 . S
C77 C79 1.361 . S
C78 C77 1.397 . S
C78 C82 1.390 . S
C79 C77 1.361 . S
C79 C80 1.393 . S
C79 N83 1.413 . S
C80 H73 0.930 . S
C80 C79 1.393 . S
C80 C81 1.399 . S
C81 C80 1.399 . S
C81 C82 1.381 . S
C82 H74 0.930 . S
C82 C78 1.390 . S
C82 C81 1.381 . S
N83 C76 1.286 . S
N83 C79 1.413 . S
H84 C89 0.930 . S
H85 C92 0.930 . S
H86 C94 0.930 . S
H87 C88 1.016 . S
C88 H87 1.016 . S
C88 N95 1.286 . S
C89 H84 0.930 . S
C89 C90 1.397 . S
C89 C91 1.361 . S
C90 C89 1.397 . S
C90 C94 1.390 . S
C91 C89 1.361 . S
C91 C92 1.393 . S
C91 N95 1.413 . S
C92 H85 0.930 . S
C92 C91 1.393 . S
C92 C93 1.399 . S
C93 C92 1.399 . S
C93 C94 1.381 . S
C94 H86 0.930 . S
C94 C90 1.390 . S
C94 C93 1.381 . S
N95 C88 1.286 . S
N95 C91 1.413 . S
Eu96 N125 2.600 . S
Eu96 N131 2.562 . S
Eu96 O140 2.462 . S
Eu96 O141 2.373 . S
Eu96 O143 2.432 . S
Eu96 O144 2.291 1_455 S
Eu96 O148 2.322 1_455 S
Eu96 O151 2.372 . S
Eu96 C160 2.787 . S
C97 N98 1.365 . S
C97 C100 1.405 . S
C97 C104 1.448 . S
N98 C97 1.365 . S
N98 C101 1.319 . S
N98 Eu107 2.600 . S
C99 C101 1.397 . S
C99 C102 1.367 . S
C99 H119 0.931 . S
C100 C97 1.405 . S
C100 C102 1.403 . S
C100 C106 1.439 . S
C101 N98 1.319 . S
C101 C99 1.397 . S
C101 H112 0.930 . S
C102 C99 1.367 . S
C102 C100 1.403 . S
C102 H123 0.929 . S
C103 C104 1.430 . S
C103 C105 1.387 . S
C103 C109 1.404 1_545 S
C104 C97 1.448 . S
C104 C103 1.430 . S
C104 N108 1.351 . S
C105 C103 1.387 . S
C105 C106 1.374 . S
C105 H120 0.931 1_545 S
C106 C100 1.439 . S
C106 C105 1.374 . S
C106 H121 0.931 . S
Eu107 N98 2.600 . S
Eu107 N108 2.562 . S
Eu107 O142 2.335 1_655 S
Eu107 O145 2.372 . S
Eu107 O146 2.462 . S
Eu107 O147 2.373 . S
Eu107 O149 2.432 . S
Eu107 O150 2.291 1_655 S
Eu107 C171 2.787 . S
N108 C104 1.351 . S
N108 Eu107 2.562 . S
N108 C110 1.325 . S
C109 C103 1.404 1_565 S
C109 C111 1.366 . S
C109 H117 0.930 . S
C110 N108 1.325 . S
C110 C111 1.416 1_545 S
C110 H116 0.929 . S
C111 C109 1.366 . S
C111 C110 1.416 1_565 S
C111 H113 0.930 . S
H112 C101 0.930 . S
H113 C111 0.930 . S
H114 C129 0.930 . S
H115 C136 0.930 . S
H116 C110 0.929 . S
H117 C109 0.930 . S
H118 C132 0.929 . S
H119 C99 0.931 . S
H120 C105 0.931 1_565 S
H121 C106 0.931 . S
H122 C127 0.931 . S
H123 C102 0.929 . S
H124 C135 0.930 . S
N125 Eu96 2.600 . S
N125 C126 1.365 . S
N125 C129 1.319 . S
C126 N125 1.365 . S
C126 C128 1.405 . S
C126 C134 1.448 . S
C127 H122 0.931 . S
C127 C129 1.397 . S
C127 C130 1.367 . S
C128 C126 1.405 . S
C128 C130 1.403 . S
C128 C161 1.439 . S
C129 H114 0.930 . S
C129 N125 1.319 . S
C129 C127 1.397 . S
C130 C127 1.367 . S
C130 C128 1.403 . S
C130 H137 0.929 . S
N131 Eu96 2.562 . S
N131 C132 1.325 . S
N131 C134 1.351 . S
C132 H118 0.929 . S
C132 N131 1.325 . S
C132 C136 1.416 . S
C133 C134 1.430 . S
C133 C135 1.404 . S
C133 C162 1.387 . S
C134 C126 1.448 . S
C134 N131 1.351 . S
C134 C133 1.430 . S
C135 H124 0.930 . S
C135 C133 1.404 . S
C135 C136 1.366 . S
C136 H115 0.930 . S
C136 C132 1.416 . S
C136 C135 1.366 . S
H137 C130 0.929 . S
H138 C161 0.931 . S
H139 C162 0.931 . S
O140 Eu96 2.462 . S
O140 C160 1.252 . S
O141 Eu96 2.373 . S
O141 C152 1.249 . S
O142 Eu107 2.335 1_455 S
O142 C152 1.264 . S
O143 Eu96 2.432 . S
O143 C160 1.268 . S
O144 Eu96 2.291 1_655 S
O144 C159 1.255 . S
O145 Eu107 2.372 . S
O145 C159 1.257 . S
O146 Eu107 2.462 . S
O146 C171 1.252 . S
O147 Eu107 2.373 . S
O147 C163 1.249 . S
O148 Eu96 2.322 1_655 S
O148 C163 1.280 . S
O149 Eu107 2.432 . S
O149 C171 1.268 . S
O150 Eu107 2.291 1_455 S
O150 C170 1.255 . S
O151 Eu96 2.372 . S
O151 C170 1.257 . S
C152 O141 1.249 . S
C152 O142 1.264 . S
C153 C156 1.382 . S
C153 C158 1.390 . S
C153 C160 1.506 . S
C154 C155 1.398 . S
C154 C158 1.392 . S
C155 C154 1.398 . S
C155 C157 1.372 . S
C155 H172 0.931 . S
C156 C153 1.382 . S
C156 C157 1.390 . S
C156 H173 0.931 . S
C157 C155 1.372 . S
C157 C156 1.390 . S
C157 H174 0.929 . S
C158 C153 1.390 . S
C158 C154 1.392 . S
C158 H175 0.930 . S
C159 O144 1.255 . S
C159 O145 1.257 . S
C160 Eu96 2.787 . S
C160 O140 1.252 . S
C160 O143 1.268 . S
C160 C153 1.506 . S
C161 C128 1.439 . S
C161 H138 0.931 . S
C161 C162 1.374 . S
C162 C133 1.387 . S
C162 H139 0.931 . S
C162 C161 1.374 . S
C163 O147 1.249 . S
C163 O148 1.280 . S
C164 C167 1.382 . S
C164 C168 1.390 . S
C164 C171 1.506 . S
C165 C166 1.398 . S
C165 C168 1.392 . S
C166 C165 1.398 . S
C166 C169 1.372 . S
C166 H176 0.931 . S
C167 C164 1.382 . S
C167 C169 1.390 . S
C167 H177 0.931 . S
C168 C164 1.390 . S
C168 C165 1.392 . S
C168 H178 0.930 . S
C169 C166 1.372 . S
C169 C167 1.390 . S
C169 H179 0.929 . S
C170 O150 1.255 . S
C170 O151 1.257 . S
C171 Eu107 2.787 . S
C171 O146 1.252 . S
C171 O149 1.268 . S
C171 C164 1.506 . S
H172 C155 0.931 . S
H173 C156 0.931 . S
H174 C157 0.929 . S
H175 C158 0.930 . S
H176 C166 0.931 . S
H177 C167 0.931 . S
H178 C168 0.930 . S
H179 C169 0.929 . S
Eu180 N209 2.600 . S
Eu180 N215 2.562 . S
Eu180 O224 2.462 . S
Eu180 O225 2.373 . S
Eu180 O227 2.432 . S
Eu180 O228 2.291 . S
Eu180 O232 2.335 . S
Eu180 O235 2.372 . S
Eu180 C244 2.787 . S
C181 N182 1.365 . S
C181 C184 1.405 . S
C181 C188 1.448 . S
N182 C181 1.365 . S
N182 C185 1.319 . S
N182 Eu191 2.600 . S
C183 C185 1.397 . S
C183 C186 1.367 . S
C183 H203 0.931 . S
C184 C181 1.405 . S
C184 C186 1.403 . S
C184 C190 1.439 . S
C185 N182 1.319 . S
C185 C183 1.397 . S
C185 H196 0.930 . S
C186 C183 1.367 . S
C186 C184 1.403 . S
C186 H207 0.929 . S
C187 C188 1.430 . S
C187 C189 1.387 . S
C187 C193 1.404 . S
C188 C181 1.448 . S
C188 C187 1.430 . S
C188 N192 1.351 . S
C189 C187 1.387 . S
C189 C190 1.374 . S
C189 H204 0.931 . S
C190 C184 1.439 . S
C190 C189 1.374 . S
C190 H205 0.931 . S
Eu191 N182 2.600 . S
Eu191 N192 2.562 . S
Eu191 O226 2.335 . S
Eu191 O229 2.372 . S
Eu191 O230 2.462 . S
Eu191 O231 2.373 . S
Eu191 O233 2.432 . S
Eu191 O234 2.291 . S
Eu191 C255 2.787 . S
N192 C188 1.351 . S
N192 Eu191 2.562 . S
N192 C194 1.325 . S
C193 C187 1.404 . S
C193 C195 1.366 . S
C193 H201 0.930 . S
C194 N192 1.325 . S
C194 C195 1.416 . S
C194 H200 0.929 . S
C195 C193 1.366 . S
C195 C194 1.416 . S
C195 H197 0.930 . S
H196 C185 0.930 . S
H197 C195 0.930 . S
H198 C213 0.930 . S
H199 C220 0.930 . S
H200 C194 0.929 . S
H201 C193 0.930 . S
H202 C216 0.929 . S
H203 C183 0.931 . S
H204 C189 0.931 . S
H205 C190 0.931 . S
H206 C211 0.931 . S
H207 C186 0.929 . S
H208 C219 0.930 . S
N209 Eu180 2.600 . S
N209 C210 1.365 . S
N209 C213 1.319 . S
C210 N209 1.365 . S
C210 C212 1.405 . S
C210 C218 1.448 . S
C211 H206 0.931 . S
C211 C213 1.397 . S
C211 C214 1.367 . S
C212 C210 1.405 . S
C212 C214 1.403 . S
C212 C245 1.439 . S
C213 H198 0.930 . S
C213 N209 1.319 . S
C213 C211 1.397 . S
C214 C211 1.367 . S
C214 C212 1.403 . S
C214 H221 0.929 . S
N215 Eu180 2.562 . S
N215 C216 1.325 . S
N215 C218 1.351 . S
C216 H202 0.929 . S
C216 N215 1.325 . S
C216 C220 1.416 . S
C217 C218 1.430 . S
C217 C219 1.404 . S
C217 C246 1.387 . S
C218 C210 1.448 . S
C218 N215 1.351 . S
C218 C217 1.430 . S
C219 H208 0.930 . S
C219 C217 1.404 . S
C219 C220 1.366 . S
C220 H199 0.930 . S
C220 C216 1.416 . S
C220 C219 1.366 . S
H221 C214 0.929 . S
H222 C245 0.931 . S
H223 C246 0.931 . S
O224 Eu180 2.462 . S
O224 C244 1.252 . S
O225 Eu180 2.373 . S
O225 C236 1.249 . S
O226 Eu191 2.335 . S
O226 C236 1.264 . S
O227 Eu180 2.432 . S
O227 C244 1.268 . S
O228 Eu180 2.291 . S
O228 C243 1.255 . S
O229 Eu191 2.372 . S
O229 C243 1.257 . S
O230 Eu191 2.462 . S
O230 C255 1.252 . S
O231 Eu191 2.373 . S
O231 C247 1.249 . S
O232 Eu180 2.335 . S
O232 C247 1.264 . S
O233 Eu191 2.432 . S
O233 C255 1.268 . S
O234 Eu191 2.291 . S
O234 C254 1.255 . S
O235 Eu180 2.372 . S
O235 C254 1.257 . S
C236 O225 1.249 . S
C236 O226 1.264 . S
C237 C240 1.382 . S
C237 C242 1.390 . S
C237 C244 1.506 . S
C238 C239 1.398 . S
C238 C242 1.392 . S
C239 C238 1.398 . S
C239 C241 1.372 . S
C239 H256 0.931 . S
C240 C237 1.382 . S
C240 C241 1.390 . S
C240 H257 0.931 . S
C241 C239 1.372 . S
C241 C240 1.390 . S
C241 H258 0.929 . S
C242 C237 1.390 . S
C242 C238 1.392 . S
C242 H259 0.930 . S
C243 O228 1.255 . S
C243 O229 1.257 . S
C244 Eu180 2.787 . S
C244 O224 1.252 . S
C244 O227 1.268 . S
C244 C237 1.506 . S
C245 C212 1.439 . S
C245 H222 0.931 . S
C245 C246 1.374 . S
C246 C217 1.387 . S
C246 H223 0.931 . S
C246 C245 1.374 . S
C247 O231 1.249 . S
C247 O232 1.264 . S
C248 C251 1.382 . S
C248 C252 1.390 . S
C248 C255 1.506 . S
C249 C250 1.398 . S
C249 C252 1.392 . S
C250 C249 1.398 . S
C250 C253 1.372 . S
C250 H260 0.931 . S
C251 C248 1.382 . S
C251 C253 1.390 . S
C251 H261 0.931 . S
C252 C248 1.390 . S
C252 C249 1.392 . S
C252 H262 0.930 . S
C253 C250 1.372 . S
C253 C251 1.390 . S
C253 H263 0.929 . S
C254 O234 1.255 . S
C254 O235 1.257 . S
C255 Eu191 2.787 . S
C255 O230 1.252 . S
C255 O233 1.268 . S
C255 C248 1.506 . S
H256 C239 0.931 . S
H257 C240 0.931 . S
H258 C241 0.929 . S
H259 C242 0.930 . S
H260 C250 0.931 . S
H261 C251 0.931 . S
H262 C252 0.930 . S
H263 C253 0.929 . S
Eu264 N293 2.600 . S
Eu264 N299 2.562 . S
Eu264 O308 2.462 . S
Eu264 O309 2.373 . S
Eu264 O311 2.432 . S
Eu264 O312 2.303 . S
Eu264 O316 2.335 . S
Eu264 O319 2.372 . S
Eu264 C328 2.787 . S
C265 N266 1.365 . S
C265 C268 1.405 . S
C265 C272 1.448 . S
N266 C265 1.365 . S
N266 C269 1.319 . S
N266 Eu275 2.600 . S
C267 C269 1.397 . S
C267 C270 1.367 . S
C267 H287 0.931 . S
C268 C265 1.405 . S
C268 C270 1.403 . S
C268 C274 1.439 . S
C269 N266 1.319 . S
C269 C267 1.397 . S
C269 H280 0.930 . S
C270 C267 1.367 . S
C270 C268 1.403 . S
C270 H291 0.929 . S
C271 C272 1.430 . S
C271 C273 1.387 . S
C271 C277 1.404 . S
C272 C265 1.448 . S
C272 C271 1.430 . S
C272 N276 1.351 . S
C273 C271 1.387 . S
C273 C274 1.374 . S
C273 H288 0.931 . S
C274 C268 1.439 . S
C274 C273 1.374 . S
C274 H289 0.931 . S
Eu275 N266 2.600 . S
Eu275 N276 2.562 . S
Eu275 O310 2.335 1_655 S
Eu275 O313 2.372 . S
Eu275 O314 2.462 . S
Eu275 O315 2.373 . S
Eu275 O317 2.432 . S
Eu275 O318 2.291 1_655 S
Eu275 C339 2.787 . S
N276 C272 1.351 . S
N276 Eu275 2.562 . S
N276 C278 1.325 . S
C277 C271 1.404 . S
C277 C279 1.366 . S
C277 H285 0.930 . S
C278 N276 1.325 . S
C278 C279 1.416 . S
C278 H284 0.929 . S
C279 C277 1.366 . S
C279 C278 1.416 . S
C279 H281 0.930 . S
H280 C269 0.930 . S
H281 C279 0.930 . S
H282 C297 0.930 . S
H283 C304 0.930 . S
H284 C278 0.929 . S
H285 C277 0.930 . S
H286 C300 0.929 . S
H287 C267 0.931 . S
H288 C273 0.931 . S
H289 C274 0.931 . S
H290 C295 0.931 . S
H291 C270 0.929 . S
H292 C303 0.930 . S
N293 Eu264 2.600 . S
N293 C294 1.365 . S
N293 C297 1.319 . S
C294 N293 1.365 . S
C294 C296 1.405 . S
C294 C302 1.448 . S
C295 H290 0.931 . S
C295 C297 1.397 . S
C295 C298 1.367 . S
C296 C294 1.405 . S
C296 C298 1.403 . S
C296 C329 1.439 . S
C297 H282 0.930 . S
C297 N293 1.319 . S
C297 C295 1.397 . S
C298 C295 1.367 . S
C298 C296 1.403 . S
C298 H305 0.929 . S
N299 Eu264 2.562 . S
N299 C300 1.325 . S
N299 C302 1.351 . S
C300 H286 0.929 . S
C300 N299 1.325 . S
C300 C304 1.416 1_565 S
C301 C302 1.430 . S
C301 C303 1.404 1_565 S
C301 C330 1.387 . S
C302 C294 1.448 . S
C302 N299 1.351 . S
C302 C301 1.430 . S
C303 H292 0.930 . S
C303 C301 1.404 1_545 S
C303 C304 1.366 . S
C304 H283 0.930 . S
C304 C300 1.416 1_545 S
C304 C303 1.366 . S
H305 C298 0.929 . S
H306 C329 0.931 . S
H307 C330 0.931 1_545 S
O308 Eu264 2.462 . S
O308 C328 1.252 . S
O309 Eu264 2.373 . S
O309 C320 1.249 . S
O310 Eu275 2.335 1_455 S
O310 C320 1.264 . S
O311 Eu264 2.432 . S
O311 C328 1.268 . S
O312 Eu264 2.303 . S
O312 C327 1.242 1_455 S
O313 Eu275 2.372 . S
O313 C327 1.257 . S
O314 Eu275 2.462 . S
O314 C339 1.252 . S
O315 Eu275 2.373 . S
O315 C331 1.249 . S
O316 Eu264 2.335 . S
O316 C331 1.264 1_455 S
O317 Eu275 2.432 . S
O317 C339 1.268 . S
O318 Eu275 2.291 1_455 S
O318 C338 1.255 . S
O319 Eu264 2.372 . S
O319 C338 1.257 . S
C320 O309 1.249 . S
C320 O310 1.264 . S
C321 C324 1.382 . S
C321 C326 1.390 . S
C321 C328 1.506 . S
C322 C323 1.398 . S
C322 C326 1.392 . S
C323 C322 1.398 . S
C323 C325 1.372 . S
C323 H340 0.931 . S
C324 C321 1.382 . S
C324 C325 1.390 . S
C324 H341 0.931 . S
C325 C323 1.372 . S
C325 C324 1.390 . S
C325 H342 0.929 . S
C326 C321 1.390 . S
C326 C322 1.392 . S
C326 H343 0.930 . S
C327 O312 1.242 1_655 S
C327 O313 1.257 . S
C328 Eu264 2.787 . S
C328 O308 1.252 . S
C328 O311 1.268 . S
C328 C321 1.506 . S
C329 C296 1.439 . S
C329 H306 0.931 . S
C329 C330 1.374 . S
C330 C301 1.387 . S
C330 H307 0.931 1_565 S
C330 C329 1.374 . S
C331 O315 1.249 . S
C331 O316 1.264 1_655 S
C332 C335 1.382 . S
C332 C336 1.390 . S
C332 C339 1.506 . S
C333 C334 1.398 . S
C333 C336 1.392 . S
C334 C333 1.398 . S
C334 C337 1.372 . S
C334 H344 0.931 . S
C335 C332 1.382 . S
C335 C337 1.390 . S
C335 H345 0.931 . S
C336 C332 1.390 . S
C336 C333 1.392 . S
C336 H346 0.930 . S
C337 C334 1.372 . S
C337 C335 1.390 . S
C337 H347 0.929 . S
C338 O318 1.255 . S
C338 O319 1.257 . S
C339 Eu275 2.787 . S
C339 O314 1.252 . S
C339 O317 1.268 . S
C339 C332 1.506 . S
H340 C323 0.931 . S
H341 C324 0.931 . S
H342 C325 0.929 . S
H343 C326 0.930 . S
H344 C334 0.931 . S
H345 C335 0.931 . S
H346 C336 0.930 . S
H347 C337 0.929 . S
Eu348 N377 2.600 . S
Eu348 N383 2.562 . S
Eu348 O392 2.462 . S
Eu348 O393 2.373 . S
Eu348 O395 2.432 . S
Eu348 O396 2.291 . S
Eu348 O400 2.335 . S
Eu348 O403 2.372 . S
Eu348 C412 2.787 . S
C349 N350 1.365 . S
C349 C352 1.405 . S
C349 C356 1.448 . S
N350 C349 1.365 . S
N350 C353 1.319 . S
N350 Eu359 2.600 . S
C351 C353 1.397 . S
C351 C354 1.367 . S
C351 H371 0.931 . S
C352 C349 1.405 . S
C352 C354 1.403 . S
C352 C358 1.439 . S
C353 N350 1.319 . S
C353 C351 1.397 . S
C353 H364 0.930 . S
C354 C351 1.367 . S
C354 C352 1.403 . S
C354 H375 0.929 . S
C355 C356 1.430 . S
C355 C357 1.387 . S
C355 C361 1.404 . S
C356 C349 1.448 . S
C356 C355 1.430 . S
C356 N360 1.351 . S
C357 C355 1.387 . S
C357 C358 1.374 . S
C357 H372 0.931 . S
C358 C352 1.439 . S
C358 C357 1.374 . S
C358 H373 0.931 . S
Eu359 N350 2.600 . S
Eu359 N360 2.562 . S
Eu359 O394 2.335 . S
Eu359 O397 2.372 . S
Eu359 O398 2.462 . S
Eu359 O399 2.373 . S
Eu359 O401 2.432 . S
Eu359 O402 2.291 . S
Eu359 C423 2.787 . S
N360 C356 1.351 . S
N360 Eu359 2.562 . S
N360 C362 1.325 . S
C361 C355 1.404 . S
C361 C363 1.366 . S
C361 H369 0.930 . S
C362 N360 1.325 . S
C362 C363 1.416 . S
C362 H368 0.929 . S
C363 C361 1.366 . S
C363 C362 1.416 . S
C363 H365 0.930 . S
H364 C353 0.930 . S
H365 C363 0.930 . S
H366 C381 0.930 . S
H367 C388 0.930 . S
H368 C362 0.929 . S
H369 C361 0.930 . S
H370 C384 0.929 . S
H371 C351 0.931 . S
H372 C357 0.931 . S
H373 C358 0.931 . S
H374 C379 0.931 . S
H375 C354 0.929 . S
H376 C387 0.930 . S
N377 Eu348 2.600 . S
N377 C378 1.365 . S
N377 C381 1.319 . S
C378 N377 1.365 . S
C378 C380 1.405 . S
C378 C386 1.448 . S
C379 H374 0.931 . S
C379 C381 1.397 . S
C379 C382 1.367 . S
C380 C378 1.405 . S
C380 C382 1.403 . S
C380 C413 1.439 . S
C381 H366 0.930 . S
C381 N377 1.319 . S
C381 C379 1.397 . S
C382 C379 1.367 . S
C382 C380 1.403 . S
C382 H389 0.929 . S
N383 Eu348 2.562 . S
N383 C384 1.325 . S
N383 C386 1.351 . S
C384 H370 0.929 . S
C384 N383 1.325 . S
C384 C388 1.416 . S
C385 C386 1.430 . S
C385 C387 1.404 . S
C385 C414 1.387 . S
C386 C378 1.448 . S
C386 N383 1.351 . S
C386 C385 1.430 . S
C387 H376 0.930 . S
C387 C385 1.404 . S
C387 C388 1.366 . S
C388 H367 0.930 . S
C388 C384 1.416 . S
C388 C387 1.366 . S
H389 C382 0.929 . S
H390 C413 0.931 . S
H391 C414 0.931 . S
O392 Eu348 2.462 . S
O392 C412 1.252 . S
O393 Eu348 2.373 . S
O393 C404 1.249 . S
O394 Eu359 2.335 . S
O394 C404 1.264 . S
O395 Eu348 2.432 . S
O395 C412 1.268 . S
O396 Eu348 2.291 . S
O396 C411 1.255 . S
O397 Eu359 2.372 . S
O397 C411 1.257 . S
O398 Eu359 2.462 . S
O398 C423 1.252 . S
O399 Eu359 2.373 . S
O399 C415 1.249 . S
O400 Eu348 2.335 . S
O400 C415 1.264 . S
O401 Eu359 2.432 . S
O401 C423 1.268 . S
O402 Eu359 2.291 . S
O402 C422 1.255 . S
O403 Eu348 2.372 . S
O403 C422 1.257 . S
C404 O393 1.249 . S
C404 O394 1.264 . S
C405 C408 1.382 . S
C405 C410 1.390 . S
C405 C412 1.506 . S
C406 C407 1.398 . S
C406 C410 1.392 . S
C407 C406 1.398 . S
C407 C409 1.372 . S
C407 H424 0.931 . S
C408 C405 1.382 . S
C408 C409 1.390 . S
C408 H425 0.931 . S
C409 C407 1.372 . S
C409 C408 1.390 . S
C409 H426 0.929 . S
C410 C405 1.390 . S
C410 C406 1.392 . S
C410 H427 0.930 . S
C411 O396 1.255 . S
C411 O397 1.257 . S
C412 Eu348 2.787 . S
C412 O392 1.252 . S
C412 O395 1.268 . S
C412 C405 1.506 . S
C413 C380 1.439 . S
C413 H390 0.931 . S
C413 C414 1.374 . S
C414 C385 1.387 . S
C414 H391 0.931 . S
C414 C413 1.374 . S
C415 O399 1.249 . S
C415 O400 1.264 . S
C416 C419 1.382 . S
C416 C420 1.390 . S
C416 C423 1.506 . S
C417 C418 1.398 . S
C417 C420 1.392 . S
C418 C417 1.398 . S
C418 C421 1.372 . S
C418 H428 0.931 . S
C419 C416 1.382 . S
C419 C421 1.390 . S
C419 H429 0.931 . S
C420 C416 1.390 . S
C420 C417 1.392 . S
C420 H430 0.930 . S
C421 C418 1.372 . S
C421 C419 1.390 . S
C421 H431 0.929 . S
C422 O402 1.255 . S
C422 O403 1.257 . S
C423 Eu359 2.787 . S
C423 O398 1.252 . S
C423 O401 1.268 . S
C423 C416 1.506 . S
H424 C407 0.931 . S
H425 C408 0.931 . S
H426 C409 0.929 . S
H427 C410 0.930 . S
H428 C418 0.931 . S
H429 C419 0.931 . S
H430 C420 0.930 . S
H431 C421 0.929 . S
H432 C438 0.930 . S
H433 C441 0.930 . S
H434 C442 0.930 . S
H435 C443 0.930 . S
H436 C446 0.930 . S
H437 C447 0.930 . S
C438 H432 0.930 . S
C438 C439 1.355 . S
C438 C440 1.415 . S
C439 C438 1.355 . S
C439 C441 1.419 . S
C440 C438 1.415 . S
C440 C445 1.425 . S
C440 C447 1.409 1_565 S
C441 H433 0.930 . S
C441 C439 1.419 . S
C441 C442 1.362 . S
C442 H434 0.930 . S
C442 C441 1.362 . S
C442 C445 1.409 . S
C443 H435 0.930 . S
C443 C444 1.355 1_565 S
C443 C445 1.415 . S
C444 C443 1.355 1_545 S
C444 C446 1.419 . S
C445 C440 1.425 . S
C445 C442 1.409 . S
C445 C443 1.415 . S
C446 H436 0.930 . S
C446 C444 1.419 . S
C446 C447 1.362 . S
C447 H437 0.930 . S
C447 C440 1.409 1_545 S
C447 C446 1.362 . S
H448 C454 0.930 . S
H449 C457 0.930 . S
H450 C458 0.930 . S
H451 C459 0.930 . S
H452 C462 0.930 . S
H453 C463 0.930 . S
C454 H448 0.930 . S
C454 C455 1.355 . S
C454 C456 1.415 . S
C455 C454 1.355 . S
C455 C457 1.419 . S
C456 C454 1.415 . S
C456 C461 1.425 . S
C456 C463 1.409 . S
C457 H449 0.930 . S
C457 C455 1.419 . S
C457 C458 1.362 . S
C458 H450 0.930 . S
C458 C457 1.362 . S
C458 C461 1.409 . S
C459 H451 0.930 . S
C459 C460 1.355 . S
C459 C461 1.415 . S
C460 C459 1.355 . S
C460 C462 1.419 . S
C461 C456 1.425 . S
C461 C458 1.409 . S
C461 C459 1.415 . S
C462 H452 0.930 . S
C462 C460 1.419 . S
C462 C463 1.362 . S
C463 H453 0.930 . S
C463 C456 1.409 . S
C463 C462 1.362 . S
H464 C470 0.930 . S
H465 C473 0.930 . S
H466 C474 0.930 . S
H467 C475 0.930 . S
H468 C478 0.930 . S
H469 C479 0.930 . S
C470 H464 0.930 . S
C470 C471 1.355 . S
C470 C472 1.415 . S
C471 C470 1.355 . S
C471 C473 1.419 . S
C472 C470 1.415 . S
C472 C477 1.425 . S
C472 C479 1.409 . S
C473 H465 0.930 . S
C473 C471 1.419 . S
C473 C474 1.362 . S
C474 H466 0.930 . S
C474 C473 1.362 . S
C474 C477 1.409 . S
C475 H467 0.930 . S
C475 C476 1.355 . S
C475 C477 1.415 . S
C476 C475 1.355 . S
C476 C478 1.419 . S
C477 C472 1.425 . S
C477 C474 1.409 . S
C477 C475 1.415 . S
C478 H468 0.930 . S
C478 C476 1.419 . S
C478 C479 1.362 . S
C479 H469 0.930 . S
C479 C472 1.409 . S
C479 C478 1.362 . S
H480 C486 0.930 . S
H481 C489 0.930 . S
H482 C490 0.930 . S
H483 C491 0.930 . S
H484 C494 0.930 . S
H485 C495 0.930 . S
C486 H480 0.930 . S
C486 C487 1.355 . S
C486 C488 1.415 . S
C487 C486 1.355 . S
C487 C489 1.419 . S
C488 C486 1.415 . S
C488 C493 1.425 . S
C488 C495 1.409 1_565 S
C489 H481 0.930 . S
C489 C487 1.419 . S
C489 C490 1.362 . S
C490 H482 0.930 . S
C490 C489 1.362 . S
C490 C493 1.409 . S
C491 H483 0.930 . S
C491 C492 1.355 1_565 S
C491 C493 1.415 . S
C492 C491 1.355 1_545 S
C492 C494 1.419 . S
C493 C488 1.425 . S
C493 C490 1.409 . S
C493 C491 1.415 . S
C494 H484 0.930 . S
C494 C492 1.419 . S
C494 C495 1.362 . S
C495 H485 0.930 . S
C495 C488 1.409 1_545 S
C495 C494 1.362 . S
H496 C502 0.930 . S
H497 C505 0.930 . S
H498 C506 0.930 . S
H499 C507 0.930 . S
H500 C510 0.930 . S
H501 C511 0.930 . S
C502 H496 0.930 . S
C502 C503 1.355 . S
C502 C504 1.415 . S
C503 C502 1.355 . S
C503 C505 1.419 . S
C504 C502 1.415 . S
C504 C509 1.425 . S
C504 C511 1.409 1_545 S
C505 H497 0.930 . S
C505 C503 1.419 . S
C505 C506 1.362 . S
C506 H498 0.930 . S
C506 C505 1.362 . S
C506 C509 1.409 . S
C507 H499 0.930 . S
C507 C508 1.355 1_545 S
C507 C509 1.415 . S
C508 C507 1.355 1_565 S
C508 C510 1.419 . S
C509 C504 1.425 . S
C509 C506 1.409 . S
C509 C507 1.415 . S
C510 H500 0.930 . S
C510 C508 1.419 . S
C510 C511 1.362 . S
C511 H501 0.930 . S
C511 C504 1.409 1_565 S
C511 C510 1.362 . S
H512 C518 0.930 . S
H513 C521 0.930 . S
H514 C522 0.930 . S
H515 C523 0.930 . S
H516 C526 0.930 . S
H517 C527 0.930 . S
C518 H512 0.930 . S
C518 C519 1.355 . S
C518 C520 1.415 . S
C519 C518 1.355 . S
C519 C521 1.419 . S
C520 C518 1.415 . S
C520 C525 1.425 . S
C520 C527 1.409 . S
C521 H513 0.930 . S
C521 C519 1.419 . S
C521 C522 1.362 . S
C522 H514 0.930 . S
C522 C521 1.362 . S
C522 C525 1.409 . S
C523 H515 0.930 . S
C523 C524 1.355 . S
C523 C525 1.415 . S
C524 C523 1.355 . S
C524 C526 1.419 . S
C525 C520 1.425 . S
C525 C522 1.409 . S
C525 C523 1.415 . S
C526 H516 0.930 . S
C526 C524 1.419 . S
C526 C527 1.362 . S
C527 H517 0.930 . S
C527 C520 1.409 . S
C527 C526 1.362 . S
H528 C534 0.930 . S
H529 C537 0.930 . S
H530 C538 0.930 . S
H531 C539 0.930 . S
H532 C542 0.930 . S
H533 C543 0.930 . S
C534 H528 0.930 . S
C534 C535 1.355 . S
C534 C536 1.415 . S
C535 C534 1.355 . S
C535 C537 1.419 . S
C536 C534 1.415 . S
C536 C541 1.425 . S
C536 C543 1.409 . S
C537 H529 0.930 . S
C537 C535 1.419 . S
C537 C538 1.362 . S
C538 H530 0.930 . S
C538 C537 1.362 . S
C538 C541 1.409 . S
C539 H531 0.930 . S
C539 C540 1.355 . S
C539 C541 1.415 . S
C540 C539 1.355 . S
C540 C542 1.419 . S
C541 C536 1.425 . S
C541 C538 1.409 . S
C541 C539 1.415 . S
C542 H532 0.930 . S
C542 C540 1.419 . S
C542 C543 1.362 . S
C543 H533 0.930 . S
C543 C536 1.409 . S
C543 C542 1.362 . S
H544 C550 0.930 . S
H545 C553 0.930 . S
H546 C554 0.930 . S
H547 C555 0.930 . S
H548 C558 0.930 . S
H549 C559 0.930 . S
C550 H544 0.930 . S
C550 C551 1.355 . S
C550 C552 1.415 . S
C551 C550 1.355 . S
C551 C553 1.419 . S
C552 C550 1.415 . S
C552 C557 1.425 . S
C552 C559 1.409 1_545 S
C553 H545 0.930 . S
C553 C551 1.419 . S
C553 C554 1.362 . S
C554 H546 0.930 . S
C554 C553 1.362 . S
C554 C557 1.409 . S
C555 H547 0.930 . S
C555 C556 1.355 1_545 S
C555 C557 1.415 . S
C556 C555 1.355 1_565 S
C556 C558 1.419 . S
C557 C552 1.425 . S
C557 C554 1.409 . S
C557 C555 1.415 . S
C558 H548 0.930 . S
C558 C556 1.419 . S
C558 C559 1.362 . S
C559 H549 0.930 . S
C559 C552 1.409 1_565 S
C559 C558 1.362 . S
H560 C566 0.930 . S
H561 C569 0.930 . S
H562 C570 0.930 . S
H563 C571 0.930 . S
H564 C574 0.930 . S
H565 C575 0.930 . S
C566 H560 0.930 . S
C566 C567 1.355 . S
C566 C568 1.415 1_556 S
C567 C566 1.355 . S
C567 C569 1.419 . S
C568 C566 1.415 1_554 S
C568 C573 1.425 . S
C568 C575 1.409 . S
C569 H561 0.930 . S
C569 C567 1.419 . S
C569 C570 1.362 . S
C570 H562 0.930 . S
C570 C569 1.362 . S
C570 C573 1.409 1_556 S
C571 H563 0.930 . S
C571 C572 1.355 . S
C571 C573 1.415 . S
C572 C571 1.355 . S
C572 C574 1.419 . S
C573 C568 1.425 . S
C573 C570 1.409 1_554 S
C573 C571 1.415 . S
C574 H564 0.930 . S
C574 C572 1.419 . S
C574 C575 1.362 . S
C575 H565 0.930 . S
C575 C568 1.409 . S
C575 C574 1.362 . S
H576 C582 0.930 . S
H577 C585 0.930 . S
H578 C586 0.930 . S
H579 C587 0.930 . S
H580 C590 0.930 . S
H581 C591 0.930 . S
C582 H576 0.930 . S
C582 C583 1.355 . S
C582 C584 1.415 . S
C583 C582 1.355 . S
C583 C585 1.419 . S
C584 C582 1.415 . S
C584 C589 1.425 . S
C584 C591 1.409 . S
C585 H577 0.930 . S
C585 C583 1.419 . S
C585 C586 1.362 . S
C586 H578 0.930 . S
C586 C585 1.362 . S
C586 C589 1.409 . S
C587 H579 0.930 . S
C587 C588 1.355 . S
C587 C589 1.415 . S
C588 C587 1.355 . S
C588 C590 1.419 . S
C589 C584 1.425 . S
C589 C586 1.409 . S
C589 C587 1.415 . S
C590 H580 0.930 . S
C590 C588 1.419 . S
C590 C591 1.362 . S
C591 H581 0.930 . S
C591 C584 1.409 . S
C591 C590 1.362 . S
H592 C598 0.930 . S
H593 C601 0.930 . S
H594 C602 0.930 . S
H595 C603 0.930 . S
H596 C606 0.930 . S
H597 C607 0.930 1_554 S
C598 H592 0.930 . S
C598 C599 1.355 . S
C598 C600 1.442 . S
C599 C598 1.355 . S
C599 C601 1.419 . S
C600 C598 1.442 . S
C600 C605 1.405 1_554 S
C600 C607 1.401 1_554 S
C601 H593 0.930 . S
C601 C599 1.419 . S
C601 C602 1.362 1_554 S
C602 H594 0.930 . S
C602 C601 1.362 1_556 S
C602 C605 1.409 . S
C603 H595 0.930 . S
C603 C604 1.355 . S
C603 C605 1.415 . S
C604 C603 1.355 . S
C604 C606 1.419 . S
C605 C600 1.405 1_556 S
C605 C602 1.409 . S
C605 C603 1.415 . S
C606 H596 0.930 . S
C606 C604 1.419 . S
C606 C607 1.362 . S
C607 H597 0.930 1_556 S
C607 C600 1.401 1_556 S
C607 C606 1.362 . S
H608 C614 0.930 . S
H609 C617 0.930 . S
H610 C618 0.930 . S
H611 C619 0.930 . S
H612 C622 0.930 . S
H613 C623 0.930 . S
C614 H608 0.930 . S
C614 C615 1.355 . S
C614 C616 1.415 . S
C615 C614 1.355 . S
C615 C617 1.419 . S
C616 C614 1.415 . S
C616 C621 1.425 . S
C616 C623 1.409 . S
C617 H609 0.930 . S
C617 C615 1.419 . S
C617 C618 1.362 . S
C618 H610 0.930 . S
C618 C617 1.362 . S
C618 C621 1.409 . S
C619 H611 0.930 . S
C619 C620 1.355 . S
C619 C621 1.415 . S
C620 C619 1.355 . S
C620 C622 1.419 . S
C621 C616 1.425 . S
C621 C618 1.409 . S
C621 C619 1.415 . S
C622 H612 0.930 . S
C622 C620 1.419 . S
C622 C623 1.362 . S
C623 H613 0.930 . S
C623 C616 1.409 . S
C623 C622 1.362 . S
H624 C630 0.930 . S
H625 C633 0.930 . S
H626 C634 0.930 . S
H627 C635 0.930 . S
H628 C638 0.930 . S
H629 C639 0.938 . S
C630 H624 0.930 . S
C630 C631 1.355 . S
C630 C632 1.415 1_554 S
C631 C630 1.355 . S
C631 C633 1.419 . S
C632 C630 1.415 1_556 S
C632 C637 1.425 . S
C632 C639 1.409 . S
C633 H625 0.930 . S
C633 C631 1.419 . S
C633 C634 1.362 1_554 S
C634 H626 0.930 . S
C634 C633 1.362 1_556 S
C634 C637 1.409 . S
C635 H627 0.930 . S
C635 C636 1.355 . S
C635 C637 1.415 . S
C636 C635 1.355 . S
C636 C638 1.419 . S
C637 C632 1.425 . S
C637 C634 1.409 . S
C637 C635 1.415 . S
C638 H628 0.930 . S
C638 C636 1.419 . S
C638 C639 1.362 . S
C639 H629 0.938 . S
C639 C632 1.409 . S
C639 C638 1.362 . S
H640 C646 0.930 . S
H641 C649 0.930 . S
H642 C650 0.930 . S
H643 C651 0.930 . S
H644 C654 0.930 . S
H645 C655 0.930 . S
C646 H640 0.930 . S
C646 C647 1.355 . S
C646 C648 1.415 . S
C647 C646 1.355 . S
C647 C649 1.419 . S
C648 C646 1.415 . S
C648 C653 1.425 . S
C648 C655 1.409 . S
C649 H641 0.930 . S
C649 C647 1.419 . S
C649 C650 1.362 . S
C650 H642 0.930 . S
C650 C649 1.362 . S
C650 C653 1.409 . S
C651 H643 0.930 . S
C651 C652 1.355 . S
C651 C653 1.415 . S
C652 C651 1.355 . S
C652 C654 1.419 . S
C653 C648 1.425 . S
C653 C650 1.409 . S
C653 C651 1.415 . S
C654 H644 0.930 . S
C654 C652 1.419 . S
C654 C655 1.362 . S
C655 H645 0.930 . S
C655 C648 1.409 . S
C655 C654 1.362 . S
H656 C662 0.930 . S
H657 C665 0.930 . S
H658 C666 0.930 . S
H659 C667 0.930 . S
H660 C670 0.930 . S
H661 C671 0.930 1_556 S
C662 H656 0.930 . S
C662 C663 1.355 . S
C662 C664 1.412 . S
C663 C662 1.355 . S
C663 C665 1.419 . S
C664 C662 1.412 . S
C664 C669 1.427 1_556 S
C664 C671 1.410 1_556 S
C665 H657 0.930 . S
C665 C663 1.419 . S
C665 C666 1.362 1_556 S
C666 H658 0.930 . S
C666 C665 1.362 1_554 S
C666 C669 1.409 . S
C667 H659 0.930 . S
C667 C668 1.355 . S
C667 C669 1.415 . S
C668 C667 1.355 . S
C668 C670 1.419 . S
C669 C664 1.427 1_554 S
C669 C666 1.409 . S
C669 C667 1.415 . S
C670 H660 0.930 . S
C670 C668 1.419 . S
C670 C671 1.362 . S
C671 H661 0.930 1_554 S
C671 C664 1.410 1_554 S
C671 C670 1.362 . S
H672 C678 0.930 . S
H673 C681 0.930 . S
H674 C682 0.930 . S
H675 C683 0.930 . S
H676 C686 0.930 . S
H677 C687 0.930 . S
C678 H672 0.930 . S
C678 C679 1.355 . S
C678 C680 1.415 . S
C679 C678 1.355 . S
C679 C681 1.419 . S
C680 C678 1.415 . S
C680 C685 1.425 . S
C680 C687 1.409 . S
C681 H673 0.930 . S
C681 C679 1.419 . S
C681 C682 1.362 . S
C682 H674 0.930 . S
C682 C681 1.362 . S
C682 C685 1.409 . S
C683 H675 0.930 . S
C683 C684 1.355 . S
C683 C685 1.415 . S
C684 C683 1.355 . S
C684 C686 1.419 . S
C685 C680 1.425 . S
C685 C682 1.409 . S
C685 C683 1.415 . S
C686 H676 0.930 . S
C686 C684 1.419 . S
C686 C687 1.362 . S
C687 H677 0.930 . S
C687 C680 1.409 . S
C687 C686 1.362 . S
H688 C694 0.930 . S
H689 C697 0.930 . S
H690 C698 0.930 . S
H691 C699 0.930 . S
H692 C702 0.930 1_655 S
H693 C703 0.930 . S
C694 H688 0.930 . S
C694 C695 1.355 . S
C694 C696 1.415 . S
C695 C694 1.355 . S
C695 C697 1.419 . S
C696 C694 1.415 . S
C696 C701 1.425 . S
C696 C703 1.409 . S
C697 H689 0.930 . S
C697 C695 1.419 . S
C697 C698 1.362 . S
C698 H690 0.930 . S
C698 C697 1.362 . S
C698 C701 1.409 . S
C699 H691 0.930 . S
C699 C700 1.355 . S
C699 C701 1.415 . S
C700 C699 1.355 . S
C700 C702 1.419 . S
C701 C696 1.425 . S
C701 C698 1.409 . S
C701 C699 1.415 . S
C702 H692 0.930 1_455 S
C702 C700 1.419 . S
C702 C703 1.362 . S
C703 H693 0.930 . S
C703 C696 1.409 . S
C703 C702 1.362 . S
H704 C710 0.930 . S
H705 C713 0.930 . S
H706 C714 0.930 . S
H707 C715 0.930 . S
H708 C718 0.930 . S
H709 C719 0.930 . S
C710 H704 0.930 . S
C710 C711 1.355 . S
C710 C712 1.415 . S
C711 C710 1.355 . S
C711 C713 1.419 . S
C712 C710 1.415 . S
C712 C717 1.425 . S
C712 C719 1.409 . S
C713 H705 0.930 . S
C713 C711 1.419 . S
C713 C714 1.362 . S
C714 H706 0.930 . S
C714 C713 1.362 . S
C714 C717 1.409 . S
C715 H707 0.930 . S
C715 C716 1.355 . S
C715 C717 1.415 . S
C716 C715 1.355 . S
C716 C718 1.419 . S
C717 C712 1.425 . S
C717 C714 1.409 . S
C717 C715 1.415 . S
C718 H708 0.930 . S
C718 C716 1.419 . S
C718 C719 1.362 . S
C719 H709 0.930 . S
C719 C712 1.409 . S
C719 C718 1.362 . S
H720 C726 0.930 . S
H721 C729 0.930 . S
H722 C730 0.930 . S
H723 C731 0.930 . S
H724 C734 0.930 . S
H725 C735 0.930 . S
C726 H720 0.930 . S
C726 C727 1.355 . S
C726 C728 1.415 . S
C727 C726 1.355 . S
C727 C729 1.419 . S
C728 C726 1.415 . S
C728 C733 1.425 . S
C728 C735 1.409 . S
C729 H721 0.930 . S
C729 C727 1.419 . S
C729 C730 1.362 . S
C730 H722 0.930 . S
C730 C729 1.362 . S
C730 C733 1.409 . S
C731 H723 0.930 . S
C731 C732 1.355 . S
C731 C733 1.415 . S
C732 C731 1.355 . S
C732 C734 1.419 . S
C733 C728 1.425 . S
C733 C730 1.409 . S
C733 C731 1.415 . S
C734 H724 0.930 . S
C734 C732 1.419 . S
C734 C735 1.362 . S
C735 H725 0.930 . S
C735 C728 1.409 . S
C735 C734 1.362 . S
H736 C742 0.930 . S
H737 C745 0.930 . S
H738 C746 0.930 . S
H739 C747 0.930 . S
H740 C750 0.930 . S
H741 C751 0.930 . S
C742 H736 0.930 . S
C742 C743 1.355 . S
C742 C744 1.415 . S
C743 C742 1.355 . S
C743 C745 1.419 . S
C744 C742 1.415 . S
C744 C749 1.425 . S
C744 C751 1.409 . S
C745 H737 0.930 . S
C745 C743 1.419 . S
C745 C746 1.362 . S
C746 H738 0.930 . S
C746 C745 1.362 . S
C746 C749 1.409 . S
C747 H739 0.930 . S
C747 C748 1.355 . S
C747 C749 1.415 . S
C748 C747 1.355 . S
C748 C750 1.419 . S
C749 C744 1.425 . S
C749 C746 1.409 . S
C749 C747 1.415 . S
C750 H740 0.930 . S
C750 C748 1.419 . S
C750 C751 1.362 . S
C751 H741 0.930 . S
C751 C744 1.409 . S
C751 C750 1.362 . S
H752 C758 0.930 . S
H753 C761 0.930 . S
H754 C762 0.930 . S
H755 C763 0.930 . S
H756 C766 0.930 . S
H757 C767 0.930 . S
C758 H752 0.930 . S
C758 C759 1.355 . S
C758 C760 1.415 . S
C759 C758 1.355 . S
C759 C761 1.419 . S
C760 C758 1.415 . S
C760 C765 1.425 . S
C760 C767 1.409 . S
C761 H753 0.930 . S
C761 C759 1.419 . S
C761 C762 1.362 . S
C762 H754 0.930 . S
C762 C761 1.362 . S
C762 C765 1.409 . S
C763 H755 0.930 . S
C763 C764 1.355 . S
C763 C765 1.415 . S
C764 C763 1.355 . S
C764 C766 1.419 . S
C765 C760 1.425 . S
C765 C762 1.409 . S
C765 C763 1.415 . S
C766 H756 0.930 . S
C766 C764 1.419 . S
C766 C767 1.362 . S
C767 H757 0.930 . S
C767 C760 1.409 . S
C767 C766 1.362 . S
H768 C774 0.930 . S
H769 C777 0.930 . S
H770 C778 0.930 . S
H771 C779 0.930 . S
H772 C782 0.930 . S
H773 C783 0.930 . S
C774 H768 0.930 . S
C774 C775 1.355 . S
C774 C776 1.415 . S
C775 C774 1.355 . S
C775 C777 1.419 . S
C776 C774 1.415 . S
C776 C781 1.425 . S
C776 C783 1.409 . S
C777 H769 0.930 . S
C777 C775 1.419 . S
C777 C778 1.362 . S
C778 H770 0.930 . S
C778 C777 1.362 . S
C778 C781 1.409 . S
C779 H771 0.930 . S
C779 C780 1.355 . S
C779 C781 1.415 . S
C780 C779 1.355 . S
C780 C782 1.419 . S
C781 C776 1.425 . S
C781 C778 1.409 . S
C781 C779 1.415 . S
C782 H772 0.930 . S
C782 C780 1.419 . S
C782 C783 1.362 . S
C783 H773 0.930 . S
C783 C776 1.409 . S
C783 C782 1.362 . S
H784 C790 0.930 . S
H785 C793 0.930 . S
H786 C794 0.930 . S
H787 C795 0.930 . S
H788 C798 0.930 . S
H789 C799 0.930 . S
C790 H784 0.930 . S
C790 C791 1.355 . S
C790 C792 1.415 . S
C791 C790 1.355 . S
C791 C793 1.419 . S
C792 C790 1.415 . S
C792 C797 1.425 . S
C792 C799 1.409 . S
C793 H785 0.930 . S
C793 C791 1.419 . S
C793 C794 1.362 . S
C794 H786 0.930 . S
C794 C793 1.362 . S
C794 C797 1.409 . S
C795 H787 0.930 . S
C795 C796 1.355 . S
C795 C797 1.415 . S
C796 C795 1.355 . S
C796 C798 1.419 . S
C797 C792 1.425 . S
C797 C794 1.409 . S
C797 C795 1.415 . S
C798 H788 0.930 . S
C798 C796 1.419 . S
C798 C799 1.362 . S
C799 H789 0.930 . S
C799 C792 1.409 . S
C799 C798 1.362 . S
H800 C806 0.930 . S
H801 C809 0.930 . S
H802 C810 0.930 . S
H803 C811 0.930 . S
H804 C814 0.931 1_655 S
H805 C815 0.930 . S
C806 H800 0.930 . S
C806 C807 1.355 . S
C806 C808 1.415 . S
C807 C806 1.355 . S
C807 C809 1.419 . S
C808 C806 1.415 . S
C808 C813 1.425 . S
C808 C815 1.409 . S
C809 H801 0.930 . S
C809 C807 1.419 . S
C809 C810 1.362 . S
C810 H802 0.930 . S
C810 C809 1.362 . S
C810 C813 1.409 . S
C811 H803 0.930 . S
C811 C812 1.355 . S
C811 C813 1.415 . S
C812 C811 1.355 . S
C812 C814 1.419 . S
C813 C808 1.425 . S
C813 C810 1.409 . S
C813 C811 1.415 . S
C814 H804 0.931 1_455 S
C814 C812 1.419 . S
C814 C815 1.362 . S
C815 H805 0.930 . S
C815 C808 1.409 . S
C815 C814 1.362 . S
C439 C81 1.672 . S
C444 C170 1.668 . S
C460 C254 1.671 . S
C455 C93 1.674 . S
C476 C247 1.672 . S
C471 C57 1.678 . S
C487 C69 1.666 . S
C492 C163 1.647 . S
C508 C327 1.677 . S
C503 C33 1.677 . S
C524 C411 1.653 . S
C519 C45 1.656 . S
C535 C9 1.677 . S
C540 C404 1.672 . S
C551 C21 1.672 . S
C556 C320 1.658 . S
C572 C154 1.418 . S
C567 C18 1.584 . S
C588 C238 1.430 . S
C583 C6 1.604 . S
C604 C249 1.448 . S
C599 C42 1.614 . S
C620 C165 1.432 . S
C615 C30 1.605 . S
C636 C333 1.464 . S
C631 C66 1.617 . S
C647 C54 1.598 . S
C652 C417 1.464 . S
C668 C406 1.408 . S
C663 C90 1.612 . S
C679 C78 1.616 . S
C684 C322 1.438 . S
C700 C152 1.530 . S
C695 C4 1.511 . S
C716 C236 1.524 . S
C711 C16 1.527 . S
C727 C28 1.494 . S
C732 C243 1.511 . S
C748 C159 1.486 . S
C743 C40 1.515 . S
C764 C331 1.517 . S
C759 C52 1.514 . S
C775 C64 1.509 . S
C780 C415 1.516 . S
C791 C76 1.514 . S
C796 C422 1.471 . S
C807 C88 1.486 . S
C812 C338 1.497 . S
