# Generated by pormake.
# Topology zzz, (3,6)-cn, num edge types: 1
# Building blocks:
#     Node 0, Type 0, BuildingBlock: ESEHIV_clean_linker_0, # of connection points: 3
#     Node 1, Type 0, BuildingBlock: ESEHIV_clean_linker_0, # of connection points: 3
#     Node 2, Type 0, BuildingBlock: ESEHIV_clean_linker_0, # of connection points: 3
#     Node 3, Type 0, BuildingBlock: ESEHIV_clean_linker_0, # of connection points: 3
#     Node 4, Type 0, BuildingBlock: ESEHIV_clean_linker_0, # of connection points: 3
#     Node 5, Type 0, BuildingBlock: ESEHIV_clean_linker_0, # of connection points: 3
#     Node 6, Type 0, BuildingBlock: ESEHIV_clean_linker_0, # of connection points: 3
#     Node 7, Type 0, BuildingBlock: ESEHIV_clean_linker_0, # of connection points: 3
#     Node 8, Type 1, BuildingBlock: BETFEN_clean_sbu_0, # of connection points: 6
#     Node 9, Type 1, BuildingBlock: BETFEN_clean_sbu_0, # of connection points: 6
#     Node 10, Type 1, BuildingBlock: BETFEN_clean_sbu_0, # of connection points: 6
#     Node 11, Type 1, BuildingBlock: BETFEN_clean_sbu_0, # of connection points: 6
#     Edge 12, Type (0, 1), BuildingBlock: OJICUG_clean_linker_0, # of connection points: 2
#     Edge 13, Type (0, 1), BuildingBlock: OJICUG_clean_linker_0, # of connection points: 2
#     Edge 14, Type (0, 1), BuildingBlock: OJICUG_clean_linker_0, # of connection points: 2
#     Edge 15, Type (0, 1), BuildingBlock: OJICUG_clean_linker_0, # of connection points: 2
#     Edge 16, Type (0, 1), BuildingBlock: OJICUG_clean_linker_0, # of connection points: 2
#     Edge 17, Type (0, 1), BuildingBlock: OJICUG_clean_linker_0, # of connection points: 2
#     Edge 18, Type (0, 1), BuildingBlock: OJICUG_clean_linker_0, # of connection points: 2
#     Edge 19, Type (0, 1), BuildingBlock: OJICUG_clean_linker_0, # of connection points: 2
#     Edge 20, Type (0, 1), BuildingBlock: OJICUG_clean_linker_0, # of connection points: 2
#     Edge 21, Type (0, 1), BuildingBlock: OJICUG_clean_linker_0, # of connection points: 2
#     Edge 22, Type (0, 1), BuildingBlock: OJICUG_clean_linker_0, # of connection points: 2
#     Edge 23, Type (0, 1), BuildingBlock: OJICUG_clean_linker_0, # of connection points: 2
#     Edge 24, Type (0, 1), BuildingBlock: OJICUG_clean_linker_0, # of connection points: 2
#     Edge 25, Type (0, 1), BuildingBlock: OJICUG_clean_linker_0, # of connection points: 2
#     Edge 26, Type (0, 1), BuildingBlock: OJICUG_clean_linker_0, # of connection points: 2
#     Edge 27, Type (0, 1), BuildingBlock: OJICUG_clean_linker_0, # of connection points: 2
#     Edge 28, Type (0, 1), BuildingBlock: OJICUG_clean_linker_0, # of connection points: 2
#     Edge 29, Type (0, 1), BuildingBlock: OJICUG_clean_linker_0, # of connection points: 2
#     Edge 30, Type (0, 1), BuildingBlock: OJICUG_clean_linker_0, # of connection points: 2
#     Edge 31, Type (0, 1), BuildingBlock: OJICUG_clean_linker_0, # of connection points: 2
#     Edge 32, Type (0, 1), BuildingBlock: OJICUG_clean_linker_0, # of connection points: 2
#     Edge 33, Type (0, 1), BuildingBlock: OJICUG_clean_linker_0, # of connection points: 2
#     Edge 34, Type (0, 1), BuildingBlock: OJICUG_clean_linker_0, # of connection points: 2
#     Edge 35, Type (0, 1), BuildingBlock: OJICUG_clean_linker_0, # of connection points: 2
# Relax obj value: 0.641
# Max RMSD: 0.272
# Mean RMSD: 0.252
data_MOF--net-zzz--node1-BETFEN_clean_sbu_0--node2-ESEHIV_clean_linker_0--edge1-OJICUG_clean_linker_0
_symmetry_space_group_name_H-M    P1
_symmetry_Int_Tables_number       1
_symmetry_cell_setting            triclinic
loop_
_symmetry_equiv_pos_as_xyz
'x, y, z'
_cell_length_a     31.612726
_cell_length_b     31.571258
_cell_length_c     10.370087
_cell_angle_alpha  89.156832
_cell_angle_beta   90.550136
_cell_angle_gamma 90.252386
loop_
_atom_site_label
_atom_site_type_symbol
_atom_site_fract_x
_atom_site_fract_y
_atom_site_fract_z
_atom_type_partial_charge
H0 H 0.8197 0.45001 0.43032 0.0
H1 H 0.69929 0.45053 0.23623 0.0
H2 H 0.7417 0.56075 0.44338 0.0
C3 C 0.78974 0.46517 0.40836 0.0
C4 C 0.78333 0.50628 0.45292 0.0
C5 C 0.76014 0.44513 0.3277 0.0
C6 C 0.72226 0.46596 0.29817 0.0
C7 C 0.71504 0.5077 0.33794 0.0
C8 C 0.74628 0.52832 0.41416 0.0
H9 H 0.11204 0.82898 0.39921 0.0
H10 H 0.11228 0.70868 0.21184 0.0
H11 H 1.00281 0.74802 0.42441 0.0
C12 C 0.09713 0.79876 0.37926 0.0
C13 C 0.0565 0.79122 0.42726 0.0
C14 C 0.1172 0.76969 0.29916 0.0
C15 C 0.09677 0.73137 0.2727 0.0
C16 C 0.05548 0.72299 0.31581 0.0
C17 C 0.03486 0.75359 0.39207 0.0
H18 H 0.73658 0.10819 0.37423 0.0
H19 H 0.85913 0.10675 0.19972 0.0
H20 H 0.81548 0.99846 0.42105 0.0
C21 C 0.7667 0.09286 0.35877 0.0
C22 C 0.773 0.05237 0.41239 0.0
C23 C 0.79718 0.11246 0.27991 0.0
C24 C 0.83543 0.09165 0.25994 0.0
C25 C 0.84259 0.05053 0.30901 0.0
C26 C 0.81069 1.03032 0.38382 0.0
H27 H 0.45264 0.7459 0.40584 0.0
H28 H 0.56463 0.8224 0.44459 0.0
H29 H 0.45675 0.86939 0.22837 0.0
C30 C 0.46865 0.77593 0.3896 0.0
C31 C 0.44963 0.80726 0.3112 0.0
C32 C 0.50954 0.78111 0.44047 0.0
C33 C 0.53243 0.81856 0.40998 0.0
C34 C 0.5128 0.85135 0.33609 0.0
C35 C 0.4713 0.84531 0.28962 0.0
H36 H 0.24426 0.61649 0.17124 0.0
H37 H 0.36475 0.61507 0.36476 0.0
H38 H 0.32173 0.5054 0.15602 0.0
C39 C 0.27418 0.60115 0.19269 0.0
C40 C 0.28036 0.56009 0.14748 0.0
C41 C 0.30389 0.62088 0.27365 0.0
C42 C 0.34171 0.59987 0.30252 0.0
C43 C 0.34873 0.55818 0.26195 0.0
C44 C 0.31734 0.53782 0.18568 0.0
H45 H 0.95185 0.23729 0.21022 0.0
H46 H 0.95138 0.3578 0.39631 0.0
H47 H 0.06068 0.31871 0.18256 0.0
C48 C 0.96667 0.26759 0.22966 0.0
C49 C 1.0072 0.27525 0.18099 0.0
C50 C 0.94659 0.29667 0.30969 0.0
C51 C 0.96689 0.33511 0.33544 0.0
C52 C 1.00806 0.34363 0.29157 0.0
C53 C 1.02872 0.31302 0.21544 0.0
H54 H 0.32779 0.95742 0.2332 0.0
H55 H 0.20581 0.95964 0.41122 0.0
H56 H 0.24907 0.06732 0.18646 0.0
C57 C 0.2978 0.97291 0.24935 0.0
C58 C 0.29144 1.01331 0.19503 0.0
C59 C 0.2675 0.95357 0.32944 0.0
C60 C 0.2294 0.97455 0.35021 0.0
C61 C 0.22219 1.01558 0.30046 0.0
C62 C 0.25392 0.03555 0.22439 0.0
H63 H 0.61071 0.31948 0.19305 0.0
H64 H 0.49886 0.24273 0.15507 0.0
H65 H 0.60677 0.19624 0.37213 0.0
C66 C 0.59475 0.28945 0.20965 0.0
C67 C 0.6138 0.25827 0.28852 0.0
C68 C 0.55389 0.28412 0.15868 0.0
C69 C 0.53105 0.24667 0.18968 0.0
C70 C 0.5507 0.21404 0.2642 0.0
C71 C 0.59219 0.22021 0.31061 0.0
Pr72 Pr 0.0694 1.02525 0.86254 0.0
Pr73 Pr 0.99482 0.04125 0.74605 0.0
C74 C 0.14136 0.99482 0.97073 0.0
C75 C 0.16697 0.95686 0.95071 0.0
C76 C 0.20634 0.95235 1.01157 0.0
C77 C 0.22406 0.91209 1.02812 0.0
C78 C 0.20149 0.87605 0.98723 0.0
C79 C 0.16679 0.88228 0.90243 0.0
C80 C 0.14961 0.92249 0.88506 0.0
C81 C 0.08476 0.05923 0.61572 0.0
C82 C 1.02583 0.94744 0.69191 0.0
C83 C 0.9226 0.07148 0.63885 0.0
C84 C 0.89693 0.10937 0.65925 0.0
C85 C 0.8576 0.11393 0.59818 0.0
C86 C 0.83991 0.15421 0.58177 0.0
C87 C 0.8625 0.19022 0.62288 0.0
C88 C 0.89711 0.18391 0.70802 0.0
C89 C 0.91424 0.14368 0.72533 0.0
C90 C 0.97987 1.0072 0.99308 0.0
C91 C 0.03834 0.11915 0.91609 0.0
O92 O 0.10378 0.98793 1.01841 0.0
O93 O 0.14106 1.02277 0.87739 0.0
O94 O 0.05815 1.0301 0.64033 0.0
O95 O 0.09797 0.0761 0.7219 0.0
O96 O 1.00484 0.97831 0.63493 0.0
O97 O 0.04807 0.95607 0.79684 0.0
O98 O 0.96009 0.07848 0.59066 0.0
O99 O 0.92313 0.04353 0.7322 0.0
O100 O 1.00615 0.03656 0.96794 0.0
O101 O 0.96668 0.9902 0.88707 0.0
O102 O 0.05935 0.0883 0.9732 0.0
O103 O 1.01612 0.11047 0.81117 0.0
H104 H 0.22154 0.9793 0.05464 0.0
H105 H 0.25249 0.90878 0.08625 0.0
H106 H 0.14894 0.85598 0.86371 0.0
H107 H 0.12047 0.92588 0.831 0.0
H108 H 0.84242 0.08701 0.55477 0.0
H109 H 0.81152 0.15756 0.52351 0.0
H110 H 0.91493 0.21017 0.74704 0.0
H111 H 0.94333 0.14023 0.77964 0.0
Pr112 Pr 0.54054 0.07124 0.84984 0.0
Pr113 Pr 0.52315 0.99408 0.75197 0.0
C114 C 0.57288 0.14485 0.93798 0.0
C115 C 0.61236 0.16833 0.91571 0.0
C116 C 0.61903 0.20763 0.97265 0.0
C117 C 0.66021 0.22307 0.98973 0.0
C118 C 0.69496 0.19827 0.95345 0.0
C119 C 0.68711 0.16355 0.87229 0.0
C120 C 0.64598 0.1487 0.85409 0.0
C121 C 0.50451 0.08166 0.60337 0.0
C122 C 0.61674 1.02428 0.68505 0.0
C123 C 0.49125 0.92024 0.66431 0.0
C124 C 0.45221 0.89624 0.68871 0.0
C125 C 0.44543 0.8572 0.63029 0.0
C126 C 0.40424 0.84162 0.61473 0.0
C127 C 0.36959 0.86614 0.65355 0.0
C128 C 0.37775 0.90032 0.73663 0.0
C129 C 0.4189 0.91527 0.75351 0.0
C130 C 0.55919 0.98395 0.9985 0.0
C131 C 0.44688 0.04103 0.91715 0.0
O132 O 0.57712 0.10848 0.99838 0.0
O133 O 0.54655 0.14295 0.84108 0.0
O134 O 0.5337 0.05565 0.63192 0.0
O135 O 0.48865 0.09698 0.7075 0.0
O136 O 0.58553 1.00229 0.63466 0.0
O137 O 0.60882 0.04806 0.78561 0.0
O138 O 0.48613 0.95667 0.60484 0.0
O139 O 0.5182 0.92229 0.75957 0.0
O140 O 0.52982 1.0097 0.96958 0.0
O141 O 0.57517 0.96868 0.89451 0.0
O142 O 0.47801 0.06337 0.96654 0.0
O143 O 0.45482 1.01689 0.81733 0.0
H144 H 0.59284 0.22445 1.01289 0.0
H145 H 0.66492 0.2515 0.04509 0.0
H146 H 0.71248 0.14403 0.83742 0.0
H147 H 0.64106 0.11958 0.80294 0.0
H148 H 0.47144 0.8408 0.58761 0.0
H149 H 0.39939 0.81345 0.55822 0.0
H150 H 0.35251 0.9195 0.77398 0.0
H151 H 0.424 0.94412 0.80599 0.0
Pr152 Pr 0.49354 0.54 0.85765 0.0
Pr153 Pr 0.57024 0.52523 0.74174 0.0
C154 C 0.42431 0.57194 0.96993 0.0
C155 C 0.40875 0.61554 0.97703 0.0
C156 C 0.36538 0.62436 0.98466 0.0
C157 C 0.35175 0.66608 1.0028 0.0
C158 C 0.38145 0.69928 1.00794 0.0
C159 C 0.42445 0.69032 0.98933 0.0
C160 C 0.43793 0.64895 0.976 0.0
C161 C 0.47923 0.50854 0.60984 0.0
C162 C 0.53953 0.62066 0.69776 0.0
C163 C 0.63966 0.49347 0.62998 0.0
C164 C 0.65522 0.44989 0.62258 0.0
C165 C 0.69858 0.44107 0.61488 0.0
C166 C 0.7122 0.39936 0.5965 0.0
C167 C 0.68249 0.36617 0.59119 0.0
C168 C 0.63949 0.37514 0.60985 0.0
C169 C 0.62603 0.41649 0.62343 0.0
C170 C 0.5843 0.55674 0.98957 0.0
C171 C 0.52411 0.44451 0.90106 0.0
O172 O 0.45968 0.56422 1.03202 0.0
O173 O 0.42346 0.55554 0.85556 0.0
O174 O 0.50608 0.53698 0.63799 0.0
O175 O 0.46391 0.49149 0.71407 0.0
O176 O 0.56255 0.59161 0.64304 0.0
O177 O 0.51542 0.60974 0.79631 0.0
O178 O 0.60437 0.50126 0.56752 0.0
O179 O 0.64033 0.50971 0.74459 0.0
O180 O 0.55768 0.52812 0.96111 0.0
O181 O 0.59953 0.57394 0.88542 0.0
O182 O 0.50113 0.47356 0.95594 0.0
O183 O 0.54827 0.45546 0.80262 0.0
H184 H 0.34239 0.59892 0.98171 0.0
H185 H 0.31853 0.67216 1.0188 0.0
H186 H 0.44835 0.71491 0.99641 0.0
H187 H 0.47152 0.64301 0.97086 0.0
H188 H 0.72158 0.4665 0.61794 0.0
H189 H 0.74541 0.39328 0.58047 0.0
H190 H 0.61558 0.35055 0.60263 0.0
H191 H 0.59244 0.42243 0.6286 0.0
Pr192 Pr 1.02438 0.49622 0.86698 0.0
Pr193 Pr 0.03857 0.57124 0.73815 0.0
C194 C 0.99414 0.42726 0.99246 0.0
C195 C 0.95153 0.40889 0.99883 0.0
C196 C 0.94516 0.3652 1.01717 0.0
C197 C 0.90424 0.3492 0.03722 0.0
C198 C 0.86945 0.37675 0.03395 0.0
C199 C 0.87603 0.41979 1.00313 0.0
C200 C 0.91658 0.43568 0.98778 0.0
C201 C 0.0545 0.47906 0.61985 0.0
C202 C 0.94315 0.5396 0.70318 0.0
C203 C 0.06899 0.64032 0.61366 0.0
C204 C 0.11189 0.65787 0.60513 0.0
C205 C 0.11902 0.70153 0.5892 0.0
C206 C 0.16014 0.71689 0.56843 0.0
C207 C 0.1944 0.68868 0.56866 0.0
C208 C 0.1871 0.64555 0.59626 0.0
C209 C 0.14634 0.63031 0.6124 0.0
C210 C 1.00854 0.58808 0.98562 0.0
C211 C 0.11987 0.5277 0.90042 0.0
O212 O 0.9989 0.46418 0.04632 0.0
O213 O 1.01228 0.42538 0.88064 0.0
O214 O 1.02613 0.50598 0.64456 0.0
O215 O 0.07224 0.46549 0.72581 0.0
O216 O 0.97209 0.56215 0.64348 0.0
O217 O 0.95432 0.51642 0.80498 0.0
O218 O 0.06305 0.6038 0.55835 0.0
O219 O 0.05182 0.64192 0.72696 0.0
O220 O 0.03705 0.56139 0.96024 0.0
O221 O 0.9906 0.60163 0.87993 0.0
O222 O 0.09088 0.50554 0.96127 0.0
O223 O 0.10865 0.55062 0.79816 0.0
H224 H 0.97185 0.34392 1.02134 0.0
H225 H 0.89996 0.31601 0.06172 0.0
H226 H 0.85017 0.44221 1.00291 0.0
H227 H 0.92062 0.46945 0.9742 0.0
H228 H 0.09275 0.72335 0.58769 0.0
H229 H 0.16499 0.75017 0.54617 0.0
H230 H 0.21254 0.62268 0.59387 0.0
H231 H 0.14171 0.59654 0.62412 0.0
C232 C 0.14371 1.01501 0.33253 0.0
C233 C 0.1826 0.03687 0.3419 0.0
H234 H 0.08174 1.00527 0.41054 0.0
C235 C 0.18497 0.07236 0.42161 0.0
H236 H 0.141 0.98734 0.27238 0.0
C237 C 0.15096 0.08256 0.50158 0.0
C238 C 0.11397 0.05739 0.50367 0.0
H239 H 0.21451 0.08955 0.43204 0.0
H240 H 0.15518 0.10789 0.5699 0.0
C241 C 0.10976 1.02515 0.41238 0.0
C242 C 0.49271 0.17907 0.39031 0.0
C243 C 0.52819 0.17522 0.31103 0.0
H244 H 0.45667 0.15163 0.54461 0.0
C245 C 0.54886 0.13578 0.30755 0.0
H246 H 0.47635 0.20905 0.39603 0.0
C247 C 0.53788 0.10291 0.39329 0.0
C248 C 0.50606 0.10887 0.48482 0.0
H249 H 0.57649 0.13195 0.24797 0.0
H250 H 0.55707 0.07455 0.39613 0.0
C251 C 0.48171 0.14616 0.47637 0.0
C252 C 0.38245 0.49964 0.39331 0.0
C253 C 0.3869 0.53625 0.3159 0.0
H254 H 0.40878 0.46161 0.54722 0.0
C255 C 0.42607 0.55773 0.31757 0.0
H256 H 0.3526 0.48268 0.39554 0.0
C257 C 0.45832 0.54565 0.40372 0.0
C258 C 0.45193 0.51217 0.49221 0.0
H259 H 0.43034 0.58642 0.26054 0.0
H260 H 0.48662 0.56505 0.40897 0.0
C261 C 0.41464 0.48777 0.48096 0.0
C262 C 1.0065 0.42151 0.33635 0.0
C263 C 1.02891 0.38298 0.34016 0.0
H264 H 0.99753 0.48257 0.41927 0.0
C265 C 0.06533 0.3803 0.41852 0.0
H266 H 0.97798 0.42445 0.27829 0.0
C267 C 0.07624 0.41358 0.5014 0.0
C268 C 0.05105 0.45028 0.50719 0.0
H269 H 0.08296 0.35099 0.42507 0.0
H270 H 0.10244 0.40909 0.5682 0.0
C271 C 1.01755 0.45482 0.41812 0.0
C272 C 0.92108 0.0512 0.27678 0.0
C273 C 0.88221 1.0293 0.26749 0.0
H274 H 0.98297 0.06105 0.19845 0.0
C275 C 0.87986 0.9938 0.18781 0.0
H276 H 0.92378 0.07886 0.33696 0.0
C277 C 0.91383 0.98366 0.10766 0.0
C278 C 0.95077 1.00891 0.10538 0.0
H279 H 0.85034 0.97656 0.1775 0.0
H280 H 0.90961 0.95833 0.03932 0.0
C281 C 0.95499 0.04112 0.19673 0.0
C282 C 0.5709 0.88641 0.21079 0.0
C283 C 0.53538 0.8902 0.28989 0.0
H284 H 0.60706 0.91399 0.057 0.0
C285 C 0.51476 0.92966 0.29382 0.0
H286 H 0.58724 0.85643 0.20481 0.0
C287 C 0.52579 0.9626 0.20843 0.0
C288 C 0.55764 0.95671 0.11695 0.0
H289 H 0.48713 0.93346 0.35344 0.0
H290 H 0.50663 0.99098 0.20577 0.0
C291 C 0.58198 0.91941 0.12518 0.0
C292 C 0.68106 0.56602 0.20612 0.0
C293 C 0.67678 0.52937 0.28351 0.0
H294 H 0.65456 0.60396 0.05227 0.0
C295 C 0.63771 0.50769 0.2817 0.0
H296 H 0.71082 0.58313 0.20399 0.0
C297 C 0.60542 0.51963 0.19551 0.0
C298 C 0.61164 0.55317 0.10714 0.0
H299 H 0.63356 0.479 0.33876 0.0
H300 H 0.57721 0.5001 0.19021 0.0
C301 C 0.64883 0.57774 0.11846 0.0
C302 C 0.05679 0.6452 0.26957 0.0
C303 C 0.03451 0.68381 0.26632 0.0
H304 H 0.0655 0.5842 0.18603 0.0
C305 C 0.99812 0.68674 0.1879 0.0
H306 H 0.08531 0.64207 0.32753 0.0
C307 C 0.98708 0.6536 0.10459 0.0
C308 C 1.01211 0.6168 0.09843 0.0
H309 H 0.9806 0.71612 0.18173 0.0
H310 H 0.9609 0.65828 0.03781 0.0
C311 C 0.04559 0.61203 0.18744 0.0
C312 C 0.87976 0.25398 0.32918 0.0
C313 C 0.90821 0.28338 0.38233 0.0
H314 H 0.84057 0.20077 0.36633 0.0
C315 C 0.90445 0.29296 0.51395 0.0
H316 H 0.87949 0.24788 0.22665 0.0
C317 C 0.8797 0.26729 0.59429 0.0
C318 C 0.8609 0.23036 0.54507 0.0
H319 H 0.92443 0.31656 0.55877 0.0
H320 H 0.88127 0.27241 0.69729 0.0
C321 C 0.85634 0.22743 0.41012 0.0
C322 C 0.30744 0.88559 0.35662 0.0
C323 C 0.27893 0.915 0.40623 0.0
H324 H 0.35906 0.84517 0.39848 0.0
C325 C 0.26907 0.91225 0.53829 0.0
H326 H 0.31389 0.88486 0.25426 0.0
C327 C 0.29372 0.88723 0.62174 0.0
C328 C 0.32979 0.86678 0.57479 0.0
H329 H 0.24616 0.93318 0.58044 0.0
H330 H 0.28847 0.88944 0.72449 0.0
C331 C 0.33291 0.86178 0.44035 0.0
C332 C 0.65165 0.26117 0.50087 0.0
C333 C 0.65174 0.26946 0.36698 0.0
H334 H 0.66632 0.28624 0.68629 0.0
C335 C 0.68147 0.29855 0.31786 0.0
H336 H 0.63015 0.23817 0.54295 0.0
C337 C 0.70184 0.32638 0.40117 0.0
C338 C 0.69245 0.3251 0.53298 0.0
H339 H 0.68395 0.30428 0.21496 0.0
H340 H 0.7173 0.35372 0.3594 0.0
C341 C 0.67285 0.28862 0.584 0.0
C342 C 0.29948 0.66028 0.48097 0.0
C343 C 0.2911 0.65875 0.3474 0.0
H344 H 0.27463 0.67659 0.66428 0.0
C345 C 0.26158 0.68739 0.29404 0.0
H346 H 0.32285 0.63988 0.52638 0.0
C347 C 0.23342 0.70786 0.37456 0.0
C348 C 0.23502 0.69978 0.50783 0.0
H349 H 0.25612 0.68911 0.19081 0.0
H350 H 0.20585 0.72235 0.33089 0.0
C351 C 0.27197 0.6819 0.56101 0.0
C352 C 0.18412 0.81231 0.2806 0.0
C353 C 0.15573 0.78293 0.22711 0.0
H354 H 0.22332 0.86556 0.24383 0.0
C355 C 0.15971 0.77329 0.09558 0.0
H356 H 0.18426 0.81842 0.38313 0.0
C357 C 0.18459 0.79894 1.01556 0.0
C358 C 0.20324 0.83591 0.06495 0.0
H359 H 0.13981 0.74969 0.05048 0.0
H360 H 0.18316 0.79382 0.91255 0.0
C361 C 0.20765 0.83886 0.19993 0.0
C362 C 0.79583 0.15364 0.07091 0.0
C363 C 0.78573 0.15096 0.20281 0.0
H364 H 0.7764 0.17578 0.88402 0.0
C365 C 0.75678 0.18011 0.2515 0.0
H366 H 0.81904 0.13288 1.02946 0.0
C367 C 0.73114 0.20343 0.16697 0.0
C368 C 0.73462 0.19827 0.03272 0.0
H369 H 0.75009 0.18088 0.35371 0.0
H370 H 0.70463 0.2197 0.20796 0.0
C371 C 0.77102 0.17819 0.98667 0.0
C372 C 0.41207 0.80442 0.09847 0.0
C373 C 0.41174 0.79621 0.23239 0.0
H374 H 0.39784 0.7792 0.91293 0.0
C375 C 0.38194 0.76711 0.28113 0.0
H376 H 0.43363 0.82743 0.05668 0.0
C377 C 0.36182 0.73916 0.19761 0.0
C378 C 0.37146 0.74039 0.06597 0.0
H379 H 0.37931 0.76143 0.38401 0.0
H380 H 0.34635 0.71181 0.23924 0.0
C381 C 0.39111 0.77687 1.0151 0.0
C382 C 0.80273 0.37869 0.30935 0.0
C383 C 0.77303 0.407 0.25525 0.0
H384 H 0.85853 0.34376 0.27318 0.0
C385 C 0.76439 0.40475 0.12193 0.0
H386 H 0.80835 0.37743 0.41255 0.0
C387 C 0.79181 0.38281 0.04242 0.0
C388 C 0.82899 0.36547 0.09573 0.0
H389 H 0.74085 0.42482 0.07596 0.0
H390 H 0.7889 0.38755 0.93898 0.0
C391 C 0.83082 0.35795 0.22928 0.0
C392 C 1.00872 0.23446 0.97586 0.0
C393 C 1.02555 0.24129 0.10001 0.0
H394 H 1.00017 0.19138 0.81954 0.0
C395 C 0.05017 0.20909 0.15762 0.0
H396 H 0.98862 0.25818 0.93048 0.0
C397 C 0.05607 0.17025 0.09529 0.0
C398 C 0.03724 0.16247 0.97394 0.0
H399 H 0.06239 0.21283 0.25476 0.0
H400 H 0.07363 0.14553 0.1454 0.0
C401 C 1.01476 0.19577 0.91325 0.0
C402 C 0.33172 1.01254 0.98846 0.0
C403 C 0.32575 1.03034 0.11053 0.0
H404 H 0.3738 1.00261 0.83078 0.0
C405 C 0.35858 0.05509 0.16292 0.0
H406 H 0.30748 0.99235 0.94717 0.0
C407 C 0.39713 0.06034 0.09737 0.0
C408 C 0.40397 0.04063 0.97813 0.0
H409 H 0.35546 0.06807 0.25846 0.0
H410 H 0.42232 0.07807 0.14346 0.0
C411 C 0.37012 1.01787 0.92275 0.0
C412 C 0.50888 0.34914 0.12831 0.0
C413 C 0.5369 0.31952 0.07683 0.0
H414 H 0.48269 0.41173 0.11353 0.0
C415 C 0.5571 0.32974 0.96007 0.0
H416 H 0.49379 0.34265 0.2199 0.0
C417 C 0.55114 0.36935 0.89959 0.0
C418 C 0.52516 0.40016 0.95479 0.0
H419 H 0.57963 0.30795 0.91964 0.0
H420 H 0.5686 0.37646 0.81277 0.0
C421 C 0.50299 0.38896 0.06788 0.0
C422 C 0.21578 0.51403 0.12468 0.0
C423 C 0.24538 0.54177 0.06809 0.0
H424 H 0.15305 0.48774 0.1166 0.0
C425 C 0.235 0.56104 0.94878 0.0
H426 H 0.22236 0.49971 0.21826 0.0
C427 C 0.1952 0.55464 0.89094 0.0
C428 C 0.16439 0.52912 0.95143 0.0
H429 H 0.25676 0.58338 0.90439 0.0
H430 H 0.18794 0.57147 0.802 0.0
C431 C 0.17579 0.50771 0.06696 0.0
C432 C 1.01373 0.85751 0.45046 0.0
C433 C 0.03818 0.8252 0.50823 0.0
H434 H 0.99056 0.92118 0.46246 0.0
C435 C 0.05497 0.83199 0.63246 0.0
H436 H 1.00155 0.85381 0.35325 0.0
C437 C 0.04909 0.87072 0.69496 0.0
C438 C 1.02679 0.90411 0.6341 0.0
H439 H 0.07495 0.80818 0.67798 0.0
H440 H 0.06365 0.87505 0.78875 0.0
C441 C 1.00798 0.89639 0.5127 0.0
C442 C 0.73248 0.05156 0.61853 0.0
C443 C 0.73838 0.03496 0.49487 0.0
H444 H 0.69026 0.06055 0.77641 0.0
C445 C 0.70524 1.01134 0.43949 0.0
H446 H 0.75697 0.07092 0.66216 0.0
C447 C 0.66649 1.00604 0.50386 0.0
C448 C 0.65975 1.0246 0.62484 0.0
H449 H 0.70831 0.99935 0.34271 0.0
H450 H 0.64108 0.98924 0.4556 0.0
C451 C 0.69386 0.04621 0.68302 0.0
C452 C 0.55445 0.71597 0.47006 0.0
C453 C 0.52651 0.7456 0.5219 0.0
H454 H 0.58065 0.65337 0.48459 0.0
C455 C 0.50644 0.73539 0.63885 0.0
H456 H 0.56943 0.72246 0.37832 0.0
C457 C 0.51246 0.69579 0.69928 0.0
C458 C 0.53839 0.66498 0.64384 0.0
H459 H 0.48397 0.75719 0.67955 0.0
H460 H 0.49512 0.68869 0.78633 0.0
C461 C 0.56041 0.67615 0.53046 0.0
C462 C 0.84773 0.55259 0.47648 0.0
C463 C 0.81809 0.52483 0.53276 0.0
H464 H 0.91034 0.57914 0.4857 0.0
C465 C 0.82824 0.50578 0.65257 0.0
H466 H 0.84134 0.56675 0.38255 0.0
C467 C 0.86786 0.51242 0.71126 0.0
C468 C 0.89874 0.53796 0.65118 0.0
H469 H 0.80645 0.48344 0.69678 0.0
H470 H 0.87495 0.49577 0.80062 0.0
C471 C 0.88755 0.55916 0.53508 0.0
loop_
_geom_bond_atom_site_label_1
_geom_bond_atom_site_label_2
_geom_bond_distance
_geom_bond_site_symmetry_2
_ccdc_geom_bond_type
H0 C3 0.931 . S
H1 C6 0.928 . S
H2 C8 0.930 . S
C3 H0 0.931 . S
C3 C4 1.413 . S
C3 C5 1.360 . S
C4 C3 1.413 . S
C4 C8 1.429 . S
C5 C3 1.360 . S
C5 C6 1.372 . S
C6 H1 0.928 . S
C6 C5 1.372 . S
C6 C7 1.404 . S
C7 C6 1.404 . S
C7 C8 1.391 . S
C8 H2 0.930 . S
C8 C4 1.429 . S
C8 C7 1.391 . S
H9 C12 0.931 . S
H10 C15 0.928 . S
H11 C17 0.930 . S
C12 H9 0.931 . S
C12 C13 1.413 . S
C12 C14 1.360 . S
C13 C12 1.413 . S
C13 C17 1.429 1_655 S
C14 C12 1.360 . S
C14 C15 1.372 . S
C15 H10 0.928 . S
C15 C14 1.372 . S
C15 C16 1.404 . S
C16 C15 1.404 . S
C16 C17 1.390 1_655 S
C17 H11 0.930 . S
C17 C13 1.429 1_455 S
C17 C16 1.390 1_455 S
H18 C21 0.931 . S
H19 C24 0.928 . S
H20 C26 0.929 . S
C21 H18 0.931 . S
C21 C22 1.413 . S
C21 C23 1.360 . S
C22 C21 1.413 . S
C22 C26 1.429 1_565 S
C23 C21 1.360 . S
C23 C24 1.372 . S
C24 H19 0.928 . S
C24 C23 1.372 . S
C24 C25 1.405 . S
C25 C24 1.405 . S
C25 C26 1.390 1_565 S
C26 H20 0.929 . S
C26 C22 1.429 1_545 S
C26 C25 1.390 1_545 S
H27 C30 0.931 . S
H28 C33 0.928 . S
H29 C35 0.930 . S
C30 H27 0.931 . S
C30 C31 1.413 . S
C30 C32 1.360 . S
C31 C30 1.413 . S
C31 C35 1.429 . S
C32 C30 1.360 . S
C32 C33 1.372 . S
C33 H28 0.928 . S
C33 C32 1.372 . S
C33 C34 1.404 . S
C34 C33 1.404 . S
C34 C35 1.391 . S
C35 H29 0.930 . S
C35 C31 1.429 . S
C35 C34 1.391 . S
H36 C39 0.931 1_556 S
H37 C42 0.928 . S
H38 C44 0.930 . S
C39 H36 0.931 1_554 S
C39 C40 1.413 1_554 S
C39 C41 1.360 . S
C40 C39 1.413 1_556 S
C40 C44 1.429 . S
C41 C39 1.360 . S
C41 C42 1.372 . S
C42 H37 0.928 . S
C42 C41 1.372 . S
C42 C43 1.404 . S
C43 C42 1.404 . S
C43 C44 1.391 1_554 S
C44 H38 0.930 . S
C44 C40 1.429 . S
C44 C43 1.391 1_556 S
H45 C48 0.930 1_556 S
H46 C51 0.928 . S
H47 C53 0.930 . S
C48 H45 0.930 1_554 S
C48 C49 1.413 1_554 S
C48 C50 1.360 . S
C49 C48 1.413 1_556 S
C49 C53 1.429 1_655 S
C50 C48 1.360 . S
C50 C51 1.372 . S
C51 H46 0.928 . S
C51 C50 1.372 . S
C51 C52 1.404 . S
C52 C51 1.404 . S
C52 C53 1.391 1_654 S
C53 H47 0.930 . S
C53 C49 1.429 1_455 S
C53 C52 1.391 1_456 S
H54 C57 0.931 1_556 S
H55 C60 0.928 . S
H56 C62 0.930 . S
C57 H54 0.931 1_554 S
C57 C58 1.413 1_554 S
C57 C59 1.360 . S
C58 C57 1.413 1_556 S
C58 C62 1.429 1_565 S
C59 C57 1.360 . S
C59 C60 1.372 . S
C60 H55 0.928 . S
C60 C59 1.372 . S
C60 C61 1.404 . S
C61 C60 1.404 . S
C61 C62 1.391 1_564 S
C62 H56 0.930 . S
C62 C58 1.429 1_545 S
C62 C61 1.391 1_546 S
H63 C66 0.931 1_556 S
H64 C69 0.928 . S
H65 C71 0.930 . S
C66 H63 0.931 1_554 S
C66 C67 1.413 . S
C66 C68 1.360 1_554 S
C67 C66 1.413 . S
C67 C71 1.429 . S
C68 C66 1.360 1_556 S
C68 C69 1.372 . S
C69 H64 0.928 . S
C69 C68 1.372 . S
C69 C70 1.404 1_556 S
C70 C69 1.404 1_554 S
C70 C71 1.391 . S
C71 H65 0.930 . S
C71 C67 1.429 . S
C71 C70 1.391 . S
Pr72 C74 2.880 1_556 S
Pr72 O92 2.562 1_556 S
Pr72 O93 2.490 . S
Pr72 O94 2.695 1_565 S
Pr72 O95 2.512 . S
Pr72 O97 2.437 . S
Pr72 O100 2.436 1_455 S
Pr72 O102 2.438 1_565 S
Pr73 C83 2.880 . S
Pr73 O94 2.436 1_655 S
Pr73 O96 2.438 1_545 S
Pr73 O98 2.562 . S
Pr73 O99 2.490 . S
Pr73 O100 2.695 1_545 S
Pr73 O101 2.512 . S
Pr73 O103 2.437 . S
C74 Pr72 2.880 1_554 S
C74 C75 1.491 . S
C74 O92 1.254 . S
C74 O93 1.225 1_554 S
C75 C74 1.491 . S
C75 C76 1.392 . S
C75 C80 1.356 . S
C76 C75 1.392 . S
C76 C77 1.368 . S
C76 H104 0.929 . S
C77 C76 1.368 . S
C77 C78 1.386 . S
C77 H105 0.929 . S
C78 C77 1.386 . S
C78 C79 1.373 . S
C79 C78 1.373 . S
C79 C80 1.409 . S
C79 H106 0.931 . S
C80 C75 1.356 . S
C80 C79 1.409 . S
C80 H107 0.930 . S
C81 O94 1.270 1_565 S
C81 O95 1.248 . S
C82 O96 1.267 . S
C82 O97 1.278 1_655 S
C83 Pr73 2.880 . S
C83 C84 1.491 . S
C83 O98 1.254 . S
C83 O99 1.225 . S
C84 C83 1.491 . S
C84 C85 1.392 . S
C84 C89 1.356 . S
C85 C84 1.392 . S
C85 C86 1.368 . S
C85 H108 0.929 . S
C86 C85 1.368 . S
C86 C87 1.386 . S
C86 H109 0.929 . S
C87 C86 1.386 . S
C87 C88 1.373 . S
C88 C87 1.373 . S
C88 C89 1.409 . S
C88 H110 0.931 . S
C89 C84 1.356 . S
C89 C88 1.409 . S
C89 H111 0.930 . S
C90 O100 1.270 1_545 S
C90 O101 1.248 . S
C91 O102 1.267 . S
C91 O103 1.278 1_455 S
O92 Pr72 2.562 1_554 S
O92 C74 1.254 . S
O93 Pr72 2.490 . S
O93 C74 1.225 1_556 S
O94 Pr72 2.695 1_545 S
O94 Pr73 2.436 1_455 S
O94 C81 1.270 1_545 S
O95 Pr72 2.512 . S
O95 C81 1.248 . S
O96 Pr73 2.438 1_565 S
O96 C82 1.267 . S
O97 Pr72 2.437 . S
O97 C82 1.278 1_455 S
O98 Pr73 2.562 . S
O98 C83 1.254 . S
O99 Pr73 2.490 . S
O99 C83 1.225 . S
O100 Pr72 2.436 1_655 S
O100 Pr73 2.695 1_565 S
O100 C90 1.270 1_565 S
O101 Pr73 2.512 . S
O101 C90 1.248 . S
O102 Pr72 2.438 1_545 S
O102 C91 1.267 . S
O103 Pr73 2.437 . S
O103 C91 1.278 1_655 S
H104 C76 0.929 . S
H105 C77 0.929 . S
H106 C79 0.931 . S
H107 C80 0.930 . S
H108 C85 0.929 . S
H109 C86 0.929 . S
H110 C88 0.931 . S
H111 C89 0.930 . S
Pr112 C114 2.880 1_556 S
Pr112 O132 2.562 1_556 S
Pr112 O133 2.490 . S
Pr112 O134 2.695 . S
Pr112 O135 2.512 . S
Pr112 O137 2.437 . S
Pr112 O140 2.436 1_545 S
Pr112 O142 2.438 . S
Pr113 C123 2.880 . S
Pr113 O134 2.436 1_565 S
Pr113 O136 2.438 . S
Pr113 O138 2.562 . S
Pr113 O139 2.490 . S
Pr113 O140 2.695 . S
Pr113 O141 2.512 . S
Pr113 O143 2.437 . S
C114 Pr112 2.880 1_554 S
C114 C115 1.491 . S
C114 O132 1.254 . S
C114 O133 1.225 1_554 S
C115 C114 1.491 . S
C115 C116 1.392 . S
C115 C120 1.356 . S
C116 C115 1.392 . S
C116 C117 1.368 . S
C116 H144 0.929 . S
C117 C116 1.368 . S
C117 C118 1.386 . S
C117 H145 0.929 . S
C118 C117 1.386 . S
C118 C119 1.373 . S
C119 C118 1.373 . S
C119 C120 1.409 . S
C119 H146 0.931 . S
C120 C115 1.356 . S
C120 C119 1.409 . S
C120 H147 0.943 . S
C121 O134 1.270 . S
C121 O135 1.248 . S
C122 O136 1.267 . S
C122 O137 1.278 1_565 S
C123 Pr113 2.880 . S
C123 C124 1.491 . S
C123 O138 1.254 . S
C123 O139 1.225 . S
C124 C123 1.491 . S
C124 C125 1.392 . S
C124 C129 1.356 . S
C125 C124 1.392 . S
C125 C126 1.368 . S
C125 H148 0.929 . S
C126 C125 1.368 . S
C126 C127 1.386 . S
C126 H149 0.929 . S
C127 C126 1.386 . S
C127 C128 1.373 . S
C128 C127 1.373 . S
C128 C129 1.409 . S
C128 H150 0.931 . S
C129 C124 1.356 . S
C129 C128 1.409 . S
C129 H151 0.937 . S
C130 O140 1.270 . S
C130 O141 1.248 . S
C131 O142 1.267 . S
C131 O143 1.278 1_545 S
O132 Pr112 2.562 1_554 S
O132 C114 1.254 . S
O133 Pr112 2.490 . S
O133 C114 1.225 1_556 S
O134 Pr112 2.695 . S
O134 Pr113 2.436 1_545 S
O134 C121 1.270 . S
O135 Pr112 2.512 . S
O135 C121 1.248 . S
O136 Pr113 2.438 . S
O136 C122 1.267 . S
O137 Pr112 2.437 . S
O137 C122 1.278 1_545 S
O138 Pr113 2.562 . S
O138 C123 1.254 . S
O139 Pr113 2.490 . S
O139 C123 1.225 . S
O140 Pr112 2.436 1_565 S
O140 Pr113 2.695 . S
O140 C130 1.270 . S
O141 Pr113 2.512 . S
O141 C130 1.248 . S
O142 Pr112 2.438 . S
O142 C131 1.267 . S
O143 Pr113 2.437 . S
O143 C131 1.278 1_565 S
H144 C116 0.929 . S
H145 C117 0.929 . S
H146 C119 0.931 . S
H147 C120 0.943 . S
H148 C125 0.929 . S
H149 C126 0.929 . S
H150 C128 0.931 . S
H151 C129 0.937 . S
Pr152 C154 2.880 1_556 S
Pr152 O172 2.562 1_556 S
Pr152 O173 2.490 . S
Pr152 O174 2.695 . S
Pr152 O175 2.512 . S
Pr152 O177 2.437 . S
Pr152 O180 2.436 . S
Pr152 O182 2.438 . S
Pr153 C163 2.880 . S
Pr153 O174 2.436 . S
Pr153 O176 2.438 . S
Pr153 O178 2.562 . S
Pr153 O179 2.490 . S
Pr153 O180 2.695 . S
Pr153 O181 2.512 . S
Pr153 O183 2.437 . S
C154 Pr152 2.880 1_554 S
C154 C155 1.491 . S
C154 O172 1.254 . S
C154 O173 1.225 1_554 S
C155 C154 1.491 . S
C155 C156 1.392 . S
C155 C160 1.356 . S
C156 C155 1.392 . S
C156 C157 1.368 . S
C156 H184 0.929 . S
C157 C156 1.368 . S
C157 C158 1.386 . S
C157 H185 0.929 . S
C158 C157 1.386 . S
C158 C159 1.373 . S
C159 C158 1.373 . S
C159 C160 1.409 . S
C159 H186 0.931 . S
C160 C155 1.356 . S
C160 C159 1.409 . S
C160 H187 0.930 . S
C161 O174 1.270 . S
C161 O175 1.248 . S
C162 O176 1.267 . S
C162 O177 1.278 . S
C163 Pr153 2.880 . S
C163 C164 1.491 . S
C163 O178 1.254 . S
C163 O179 1.225 . S
C164 C163 1.491 . S
C164 C165 1.392 . S
C164 C169 1.356 . S
C165 C164 1.392 . S
C165 C166 1.368 . S
C165 H188 0.929 . S
C166 C165 1.368 . S
C166 C167 1.386 . S
C166 H189 0.929 . S
C167 C166 1.386 . S
C167 C168 1.373 . S
C168 C167 1.373 . S
C168 C169 1.409 . S
C168 H190 0.931 . S
C169 C164 1.356 . S
C169 C168 1.409 . S
C169 H191 0.930 . S
C170 O180 1.270 . S
C170 O181 1.248 . S
C171 O182 1.267 . S
C171 O183 1.278 . S
O172 Pr152 2.562 1_554 S
O172 C154 1.254 . S
O173 Pr152 2.490 . S
O173 C154 1.225 1_556 S
O174 Pr152 2.695 . S
O174 Pr153 2.436 . S
O174 C161 1.270 . S
O175 Pr152 2.512 . S
O175 C161 1.248 . S
O176 Pr153 2.438 . S
O176 C162 1.267 . S
O177 Pr152 2.437 . S
O177 C162 1.278 . S
O178 Pr153 2.562 . S
O178 C163 1.254 . S
O179 Pr153 2.490 . S
O179 C163 1.225 . S
O180 Pr152 2.436 . S
O180 Pr153 2.695 . S
O180 C170 1.270 . S
O181 Pr153 2.512 . S
O181 C170 1.248 . S
O182 Pr152 2.438 . S
O182 C171 1.267 . S
O183 Pr153 2.437 . S
O183 C171 1.278 . S
H184 C156 0.929 . S
H185 C157 0.929 . S
H186 C159 0.931 . S
H187 C160 0.930 . S
H188 C165 0.929 . S
H189 C166 0.929 . S
H190 C168 0.931 . S
H191 C169 0.930 . S
Pr192 C194 2.880 1_556 S
Pr192 O212 2.562 1_556 S
Pr192 O213 2.490 . S
Pr192 O214 2.695 1_655 S
Pr192 O215 2.512 . S
Pr192 O217 2.437 . S
Pr192 O220 2.436 . S
Pr192 O222 2.438 1_655 S
Pr193 C203 2.880 . S
Pr193 O214 2.436 . S
Pr193 O216 2.438 1_455 S
Pr193 O218 2.562 . S
Pr193 O219 2.490 . S
Pr193 O220 2.695 1_455 S
Pr193 O221 2.512 . S
Pr193 O223 2.437 . S
C194 Pr192 2.880 1_554 S
C194 C195 1.491 . S
C194 O212 1.254 . S
C194 O213 1.225 1_554 S
C195 C194 1.491 . S
C195 C196 1.392 . S
C195 C200 1.356 . S
C196 C195 1.392 . S
C196 C197 1.368 . S
C196 H224 0.929 . S
C197 C196 1.368 . S
C197 C198 1.386 . S
C197 H225 0.929 . S
C198 C197 1.386 . S
C198 C199 1.373 . S
C199 C198 1.373 . S
C199 C200 1.409 . S
C199 H226 0.931 . S
C200 C195 1.356 . S
C200 C199 1.409 . S
C200 H227 0.930 . S
C201 O214 1.270 1_655 S
C201 O215 1.249 . S
C202 O216 1.267 . S
C202 O217 1.278 . S
C203 Pr193 2.880 . S
C203 C204 1.491 . S
C203 O218 1.254 . S
C203 O219 1.225 . S
C204 C203 1.491 . S
C204 C205 1.392 . S
C204 C209 1.356 . S
C205 C204 1.392 . S
C205 C206 1.368 . S
C205 H228 0.929 . S
C206 C205 1.368 . S
C206 C207 1.386 . S
C206 H229 0.929 . S
C207 C206 1.386 . S
C207 C208 1.373 . S
C208 C207 1.373 . S
C208 C209 1.409 . S
C208 H230 0.931 . S
C209 C204 1.356 . S
C209 C208 1.409 . S
C209 H231 0.930 . S
C210 O220 1.268 1_455 S
C210 O221 1.252 . S
C211 O222 1.267 . S
C211 O223 1.278 . S
O212 Pr192 2.562 1_554 S
O212 C194 1.254 . S
O213 Pr192 2.490 . S
O213 C194 1.225 1_556 S
O214 Pr192 2.695 1_455 S
O214 Pr193 2.436 . S
O214 C201 1.270 1_455 S
O215 Pr192 2.512 . S
O215 C201 1.249 . S
O216 Pr193 2.438 1_655 S
O216 C202 1.267 . S
O217 Pr192 2.437 . S
O217 C202 1.278 . S
O218 Pr193 2.562 . S
O218 C203 1.254 . S
O219 Pr193 2.490 . S
O219 C203 1.225 . S
O220 Pr192 2.436 . S
O220 Pr193 2.695 1_655 S
O220 C210 1.268 1_655 S
O221 Pr193 2.512 . S
O221 C210 1.252 . S
O222 Pr192 2.438 1_455 S
O222 C211 1.267 . S
O223 Pr193 2.437 . S
O223 C211 1.278 . S
H224 C196 0.929 . S
H225 C197 0.929 . S
H226 C199 0.931 . S
H227 C200 0.930 . S
H228 C205 0.929 . S
H229 C206 0.929 . S
H230 C208 0.931 . S
H231 C209 0.930 . S
C232 C233 1.387 1_565 S
C232 H236 0.950 . S
C232 C241 1.390 . S
C233 C232 1.387 1_545 S
C233 C235 1.388 . S
H234 C241 0.950 . S
C235 C233 1.388 . S
C235 C237 1.390 . S
C235 H239 0.950 . S
H236 C232 0.950 . S
C237 C235 1.390 . S
C237 C238 1.388 . S
C237 H240 0.950 . S
C238 C237 1.388 . S
C238 C241 1.387 1_545 S
H239 C235 0.950 . S
H240 C237 0.950 . S
C241 C232 1.390 . S
C241 H234 0.950 . S
C241 C238 1.387 1_565 S
C242 C243 1.387 . S
C242 H246 0.950 . S
C242 C251 1.390 . S
C243 C242 1.387 . S
C243 C245 1.387 . S
H244 C251 0.950 . S
C245 C243 1.387 . S
C245 C247 1.390 . S
C245 H249 0.950 . S
H246 C242 0.950 . S
C247 C245 1.390 . S
C247 C248 1.387 . S
C247 H250 0.950 . S
C248 C247 1.387 . S
C248 C251 1.387 . S
H249 C245 0.950 . S
H250 C247 0.950 . S
C251 C242 1.390 . S
C251 H244 0.950 . S
C251 C248 1.387 . S
C252 C253 1.387 . S
C252 H256 0.950 . S
C252 C261 1.390 . S
C253 C252 1.387 . S
C253 C255 1.387 . S
H254 C261 0.950 . S
C255 C253 1.387 . S
C255 C257 1.390 . S
C255 H259 0.950 . S
H256 C252 0.950 . S
C257 C255 1.390 . S
C257 C258 1.387 . S
C257 H260 0.950 . S
C258 C257 1.387 . S
C258 C261 1.387 . S
H259 C255 0.950 . S
H260 C257 0.950 . S
C261 C252 1.390 . S
C261 H254 0.950 . S
C261 C258 1.387 . S
C262 C263 1.369 1_655 S
C262 H266 0.950 . S
C262 C271 1.390 . S
C263 C262 1.369 1_455 S
C263 C265 1.407 . S
H264 C271 0.950 . S
C265 C263 1.407 . S
C265 C267 1.390 . S
C265 H269 0.950 . S
H266 C262 0.950 . S
C267 C265 1.390 . S
C267 C268 1.387 . S
C267 H270 0.950 . S
C268 C267 1.387 . S
C268 C271 1.387 1_455 S
H269 C265 0.950 . S
H270 C267 0.950 . S
C271 C262 1.390 . S
C271 H264 0.950 . S
C271 C268 1.387 1_655 S
C272 C273 1.387 . S
C272 H276 0.950 . S
C272 C281 1.390 . S
C273 C272 1.387 . S
C273 C275 1.388 1_545 S
H274 C281 0.950 . S
C275 C273 1.388 1_565 S
C275 C277 1.390 . S
C275 H279 0.950 . S
H276 C272 0.950 . S
C277 C275 1.390 . S
C277 C278 1.388 1_565 S
C277 H280 0.950 . S
C278 C277 1.388 1_545 S
C278 C281 1.387 . S
H279 C275 0.950 . S
H280 C277 0.950 . S
C281 C272 1.390 . S
C281 H274 0.950 . S
C281 C278 1.387 . S
C282 C283 1.387 . S
C282 H286 0.950 . S
C282 C291 1.390 . S
C283 C282 1.387 . S
C283 C285 1.387 . S
H284 C291 0.950 . S
C285 C283 1.387 . S
C285 C287 1.390 . S
C285 H289 0.950 . S
H286 C282 0.950 . S
C287 C285 1.390 . S
C287 C288 1.387 . S
C287 H290 0.950 . S
C288 C287 1.387 . S
C288 C291 1.387 . S
H289 C285 0.950 . S
H290 C287 0.950 . S
C291 C282 1.390 . S
C291 H284 0.950 . S
C291 C288 1.387 . S
C292 C293 1.387 . S
C292 H296 0.950 . S
C292 C301 1.390 . S
C293 C292 1.387 . S
C293 C295 1.387 . S
H294 C301 0.950 . S
C295 C293 1.387 . S
C295 C297 1.390 . S
C295 H299 0.950 . S
H296 C292 0.950 . S
C297 C295 1.390 . S
C297 C298 1.387 . S
C297 H300 0.950 . S
C298 C297 1.387 . S
C298 C301 1.387 . S
H299 C295 0.950 . S
H300 C297 0.950 . S
C301 C292 1.390 . S
C301 H294 0.950 . S
C301 C298 1.387 . S
C302 C303 1.387 1_455 S
C302 H306 0.950 . S
C302 C311 1.390 . S
C303 C302 1.387 1_655 S
C303 C305 1.387 . S
H304 C311 0.950 . S
C305 C303 1.387 . S
C305 C307 1.390 . S
C305 H309 0.950 . S
H306 C302 0.950 . S
C307 C305 1.390 . S
C307 C308 1.387 . S
C307 H310 0.950 . S
C308 C307 1.387 . S
C308 C311 1.387 1_655 S
H309 C305 0.950 . S
H310 C307 0.950 . S
C311 C302 1.390 . S
C311 H304 0.950 . S
C311 C308 1.387 1_455 S
C312 C313 1.387 . S
C312 H316 0.950 1_655 S
C312 C321 1.390 . S
C313 C312 1.387 . S
C313 C315 1.387 . S
H314 C321 0.950 . S
C315 C313 1.387 . S
C315 C317 1.390 . S
C315 H319 0.950 . S
H316 C312 0.950 1_455 S
C317 C315 1.390 . S
C317 C318 1.387 . S
C317 H320 0.950 . S
C318 C317 1.387 . S
C318 C321 1.387 . S
H319 C315 0.950 . S
H320 C317 0.950 . S
C321 C312 1.390 . S
C321 H314 0.950 . S
C321 C318 1.387 . S
C322 C323 1.387 . S
C322 H326 0.950 . S
C322 C331 1.390 . S
C323 C322 1.387 . S
C323 C325 1.387 . S
H324 C331 0.950 . S
C325 C323 1.387 . S
C325 C327 1.390 . S
C325 H329 0.950 1_565 S
H326 C322 0.950 . S
C327 C325 1.390 . S
C327 C328 1.387 . S
C327 H330 0.950 . S
C328 C327 1.387 . S
C328 C331 1.387 . S
H329 C325 0.950 1_545 S
H330 C327 0.950 . S
C331 C322 1.390 . S
C331 H324 0.950 . S
C331 C328 1.387 . S
C332 C333 1.387 . S
C332 H336 0.950 . S
C332 C341 1.390 . S
C333 C332 1.387 . S
C333 C335 1.387 . S
H334 C341 0.950 . S
C335 C333 1.387 . S
C335 C337 1.390 . S
C335 H339 0.950 . S
H336 C332 0.950 . S
C337 C335 1.390 . S
C337 C338 1.387 . S
C337 H340 0.950 . S
C338 C337 1.387 . S
C338 C341 1.387 . S
H339 C335 0.950 . S
H340 C337 0.950 . S
C341 C332 1.390 . S
C341 H334 0.950 . S
C341 C338 1.387 . S
C342 C343 1.387 . S
C342 H346 0.950 . S
C342 C351 1.390 . S
C343 C342 1.387 . S
C343 C345 1.387 . S
H344 C351 0.950 . S
C345 C343 1.387 . S
C345 C347 1.390 . S
C345 H349 0.950 . S
H346 C342 0.950 . S
C347 C345 1.390 . S
C347 C348 1.387 . S
C347 H350 0.950 . S
C348 C347 1.387 . S
C348 C351 1.387 . S
H349 C345 0.950 . S
H350 C347 0.950 . S
C351 C342 1.390 . S
C351 H344 0.950 . S
C351 C348 1.387 . S
C352 C353 1.387 . S
C352 H356 0.950 . S
C352 C361 1.390 . S
C353 C352 1.387 . S
C353 C355 1.387 . S
H354 C361 0.950 . S
C355 C353 1.387 . S
C355 C357 1.390 . S
C355 H359 0.950 1_455 S
H356 C352 0.950 . S
C357 C355 1.390 . S
C357 C358 1.387 . S
C357 H360 0.950 . S
C358 C357 1.387 . S
C358 C361 1.387 . S
H359 C355 0.950 1_655 S
H360 C357 0.950 . S
C361 C352 1.390 . S
C361 H354 0.950 . S
C361 C358 1.387 . S
C362 C363 1.387 . S
C362 H366 0.950 1_545 S
C362 C371 1.390 . S
C363 C362 1.387 . S
C363 C365 1.387 . S
H364 C371 0.950 . S
C365 C363 1.387 . S
C365 C367 1.390 . S
C365 H369 0.950 . S
H366 C362 0.950 1_565 S
C367 C365 1.390 . S
C367 C368 1.387 . S
C367 H370 0.950 . S
C368 C367 1.387 . S
C368 C371 1.387 . S
H369 C365 0.950 . S
H370 C367 0.950 . S
C371 C362 1.390 . S
C371 H364 0.950 . S
C371 C368 1.387 . S
C372 C373 1.387 . S
C372 H376 0.950 . S
C372 C381 1.390 . S
C373 C372 1.387 . S
C373 C375 1.387 . S
H374 C381 0.950 . S
C375 C373 1.387 . S
C375 C377 1.390 . S
C375 H379 0.950 . S
H376 C372 0.950 . S
C377 C375 1.390 . S
C377 C378 1.387 . S
C377 H380 0.950 . S
C378 C377 1.387 . S
C378 C381 1.387 . S
H379 C375 0.950 . S
H380 C377 0.950 . S
C381 C372 1.390 . S
C381 H374 0.950 . S
C381 C378 1.387 . S
C382 C383 1.387 . S
C382 H386 0.950 . S
C382 C391 1.390 . S
C383 C382 1.387 . S
C383 C385 1.387 . S
H384 C391 0.950 . S
C385 C383 1.387 . S
C385 C387 1.390 . S
C385 H389 0.950 . S
H386 C382 0.950 . S
C387 C385 1.390 . S
C387 C388 1.387 . S
C387 H390 0.950 . S
C388 C387 1.387 . S
C388 C391 1.387 . S
H389 C385 0.950 . S
H390 C387 0.950 . S
C391 C382 1.390 . S
C391 H384 0.950 . S
C391 C388 1.387 . S
C392 C393 1.387 . S
C392 H396 0.950 1_456 S
C392 C401 1.390 . S
C393 C392 1.387 . S
C393 C395 1.387 . S
H394 C401 0.950 1_554 S
C395 C393 1.387 . S
C395 C397 1.390 . S
C395 H399 0.950 . S
H396 C392 0.950 1_654 S
C397 C395 1.390 . S
C397 C398 1.387 . S
C397 H400 0.950 . S
C398 C397 1.387 . S
C398 C401 1.387 . S
H399 C395 0.950 . S
H400 C397 0.950 . S
C401 C392 1.390 . S
C401 H394 0.950 1_556 S
C401 C398 1.387 . S
C402 C403 1.387 . S
C402 H406 0.950 1_545 S
C402 C411 1.390 . S
C403 C402 1.387 . S
C403 C405 1.387 . S
H404 C411 0.950 . S
C405 C403 1.387 . S
C405 C407 1.390 . S
C405 H409 0.950 1_556 S
H406 C402 0.950 1_565 S
C407 C405 1.390 . S
C407 C408 1.387 . S
C407 H410 0.950 1_556 S
C408 C407 1.387 . S
C408 C411 1.387 . S
H409 C405 0.950 1_554 S
H410 C407 0.950 1_554 S
C411 C402 1.390 . S
C411 H404 0.950 . S
C411 C408 1.387 . S
C412 C413 1.387 . S
C412 H416 0.950 1_556 S
C412 C421 1.390 . S
C413 C412 1.387 . S
C413 C415 1.387 . S
H414 C421 0.950 1_554 S
C415 C413 1.387 . S
C415 C417 1.390 . S
C415 H419 0.950 . S
H416 C412 0.950 1_554 S
C417 C415 1.390 . S
C417 C418 1.387 . S
C417 H420 0.950 . S
C418 C417 1.387 . S
C418 C421 1.387 . S
H419 C415 0.950 . S
H420 C417 0.950 . S
C421 C412 1.390 . S
C421 H414 0.950 1_556 S
C421 C418 1.387 . S
C422 C423 1.387 . S
C422 H426 0.950 1_556 S
C422 C431 1.390 . S
C423 C422 1.387 . S
C423 C425 1.387 . S
H424 C431 0.950 1_554 S
C425 C423 1.387 . S
C425 C427 1.390 . S
C425 H429 0.950 . S
H426 C422 0.950 1_554 S
C427 C425 1.390 . S
C427 C428 1.387 . S
C427 H430 0.950 . S
C428 C427 1.387 . S
C428 C431 1.387 . S
H429 C425 0.950 . S
H430 C427 0.950 . S
C431 C422 1.390 . S
C431 H424 0.950 1_556 S
C431 C428 1.387 . S
C432 C433 1.387 . S
C432 H436 0.950 . S
C432 C441 1.390 . S
C433 C432 1.387 . S
C433 C435 1.387 1_655 S
H434 C441 0.950 . S
C435 C433 1.387 1_455 S
C435 C437 1.390 . S
C435 H439 0.950 . S
H436 C432 0.950 . S
C437 C435 1.390 . S
C437 C438 1.387 1_455 S
C437 H440 0.950 . S
C438 C437 1.387 1_655 S
C438 C441 1.387 . S
H439 C435 0.950 . S
H440 C437 0.950 . S
C441 C432 1.390 . S
C441 H434 0.950 . S
C441 C438 1.387 . S
C442 C443 1.387 . S
C442 H446 0.950 . S
C442 C451 1.390 . S
C443 C442 1.387 . S
C443 C445 1.387 . S
H444 C451 0.950 . S
C445 C443 1.387 . S
C445 C447 1.390 . S
C445 H449 0.950 . S
H446 C442 0.950 . S
C447 C445 1.390 . S
C447 C448 1.387 . S
C447 H450 0.950 . S
C448 C447 1.387 . S
C448 C451 1.387 . S
H449 C445 0.950 . S
H450 C447 0.950 . S
C451 C442 1.390 . S
C451 H444 0.950 . S
C451 C448 1.387 . S
C452 C453 1.387 . S
C452 H456 0.950 . S
C452 C461 1.390 . S
C453 C452 1.387 . S
C453 C455 1.387 . S
H454 C461 0.950 . S
C455 C453 1.387 . S
C455 C457 1.390 . S
C455 H459 0.950 . S
H456 C452 0.950 . S
C457 C455 1.390 . S
C457 C458 1.387 . S
C457 H460 0.950 . S
C458 C457 1.387 . S
C458 C461 1.387 . S
H459 C455 0.950 . S
H460 C457 0.950 . S
C461 C452 1.390 . S
C461 H454 0.950 . S
C461 C458 1.387 . S
C462 C463 1.387 . S
C462 H466 0.950 . S
C462 C471 1.390 . S
C463 C462 1.387 . S
C463 C465 1.387 . S
H464 C471 0.950 . S
C465 C463 1.387 . S
C465 C467 1.390 . S
C465 H469 0.950 . S
H466 C462 0.950 . S
C467 C465 1.390 . S
C467 C468 1.387 . S
C467 H470 0.950 . S
C468 C467 1.387 . S
C468 C471 1.387 . S
H469 C465 0.950 . S
H470 C467 0.950 . S
C471 C462 1.390 . S
C471 H464 0.950 . S
C471 C468 1.387 . S
C233 C61 1.991 1_545 S
C238 C81 2.262 1_545 S
C248 C121 2.287 . S
C243 C70 2.032 . S
C258 C161 2.298 . S
C253 C43 2.033 . S
C268 C201 2.279 1_455 S
C263 C52 2.011 1_455 S
C278 C90 2.262 1_554 S
C273 C25 1.988 1_545 S
C283 C34 2.039 . S
C288 C130 2.289 1_554 S
C293 C7 2.034 . S
C298 C170 2.299 1_554 S
C303 C16 2.007 . S
C308 C210 2.278 1_654 S
C318 C87 0.910 . S
C313 C50 0.962 . S
C328 C127 0.893 . S
C323 C59 0.936 . S
C338 C167 0.884 . S
C333 C67 0.928 . S
C343 C41 0.945 . S
C348 C207 0.893 . S
C353 C14 0.970 1_455 S
C358 C78 0.919 . S
C368 C118 0.894 . S
C363 C23 0.939 1_545 S
C378 C158 0.876 . S
C373 C31 0.918 . S
C383 C5 0.952 . S
C388 C198 0.896 . S
C393 C49 2.306 1_455 S
C398 C91 2.613 . S
C403 C58 2.251 1_545 S
C408 C131 2.558 . S
C418 C171 2.542 . S
C413 C68 2.236 . S
C428 C211 2.598 . S
C423 C40 2.289 . S
C433 C13 2.305 . S
C438 C82 2.621 . S
C448 C122 2.557 . S
C443 C22 2.251 . S
C458 C162 2.544 . S
C453 C32 2.244 . S
C463 C4 2.289 . S
C468 C202 2.603 . S
