# Generated by pormake.
# Topology ctn, (3,4)-cn, num edge types: 1
# Building blocks:
#     Node 0, Type 0, BuildingBlock: CUQRIR_clean_linker_1, # of connection points: 3
#     Node 1, Type 0, BuildingBlock: CUQRIR_clean_linker_1, # of connection points: 3
#     Node 2, Type 0, BuildingBlock: CUQRIR_clean_linker_1, # of connection points: 3
#     Node 3, Type 0, BuildingBlock: CUQRIR_clean_linker_1, # of connection points: 3
#     Node 4, Type 0, BuildingBlock: CUQRIR_clean_linker_1, # of connection points: 3
#     Node 5, Type 0, BuildingBlock: CUQRIR_clean_linker_1, # of connection points: 3
#     Node 6, Type 0, BuildingBlock: CUQRIR_clean_linker_1, # of connection points: 3
#     Node 7, Type 0, BuildingBlock: CUQRIR_clean_linker_1, # of connection points: 3
#     Node 8, Type 0, BuildingBlock: CUQRIR_clean_linker_1, # of connection points: 3
#     Node 9, Type 0, BuildingBlock: CUQRIR_clean_linker_1, # of connection points: 3
#     Node 10, Type 0, BuildingBlock: CUQRIR_clean_linker_1, # of connection points: 3
#     Node 11, Type 0, BuildingBlock: CUQRIR_clean_linker_1, # of connection points: 3
#     Node 12, Type 0, BuildingBlock: CUQRIR_clean_linker_1, # of connection points: 3
#     Node 13, Type 0, BuildingBlock: CUQRIR_clean_linker_1, # of connection points: 3
#     Node 14, Type 0, BuildingBlock: CUQRIR_clean_linker_1, # of connection points: 3
#     Node 15, Type 0, BuildingBlock: CUQRIR_clean_linker_1, # of connection points: 3
#     Node 16, Type 1, BuildingBlock: AZAVOO_clean_sbu_0, # of connection points: 4
#     Node 17, Type 1, BuildingBlock: AZAVOO_clean_sbu_0, # of connection points: 4
#     Node 18, Type 1, BuildingBlock: AZAVOO_clean_sbu_0, # of connection points: 4
#     Node 19, Type 1, BuildingBlock: AZAVOO_clean_sbu_0, # of connection points: 4
#     Node 20, Type 1, BuildingBlock: AZAVOO_clean_sbu_0, # of connection points: 4
#     Node 21, Type 1, BuildingBlock: AZAVOO_clean_sbu_0, # of connection points: 4
#     Node 22, Type 1, BuildingBlock: AZAVOO_clean_sbu_0, # of connection points: 4
#     Node 23, Type 1, BuildingBlock: AZAVOO_clean_sbu_0, # of connection points: 4
#     Node 24, Type 1, BuildingBlock: AZAVOO_clean_sbu_0, # of connection points: 4
#     Node 25, Type 1, BuildingBlock: AZAVOO_clean_sbu_0, # of connection points: 4
#     Node 26, Type 1, BuildingBlock: AZAVOO_clean_sbu_0, # of connection points: 4
#     Node 27, Type 1, BuildingBlock: AZAVOO_clean_sbu_0, # of connection points: 4
#     Edge 28, Type (0, 1), BuildingBlock: OJICUG_clean_linker_0, # of connection points: 2
#     Edge 29, Type (0, 1), BuildingBlock: OJICUG_clean_linker_0, # of connection points: 2
#     Edge 30, Type (0, 1), BuildingBlock: OJICUG_clean_linker_0, # of connection points: 2
#     Edge 31, Type (0, 1), BuildingBlock: OJICUG_clean_linker_0, # of connection points: 2
#     Edge 32, Type (0, 1), BuildingBlock: OJICUG_clean_linker_0, # of connection points: 2
#     Edge 33, Type (0, 1), BuildingBlock: OJICUG_clean_linker_0, # of connection points: 2
#     Edge 34, Type (0, 1), BuildingBlock: OJICUG_clean_linker_0, # of connection points: 2
#     Edge 35, Type (0, 1), BuildingBlock: OJICUG_clean_linker_0, # of connection points: 2
#     Edge 36, Type (0, 1), BuildingBlock: OJICUG_clean_linker_0, # of connection points: 2
#     Edge 37, Type (0, 1), BuildingBlock: OJICUG_clean_linker_0, # of connection points: 2
#     Edge 38, Type (0, 1), BuildingBlock: OJICUG_clean_linker_0, # of connection points: 2
#     Edge 39, Type (0, 1), BuildingBlock: OJICUG_clean_linker_0, # of connection points: 2
#     Edge 40, Type (0, 1), BuildingBlock: OJICUG_clean_linker_0, # of connection points: 2
#     Edge 41, Type (0, 1), BuildingBlock: OJICUG_clean_linker_0, # of connection points: 2
#     Edge 42, Type (0, 1), BuildingBlock: OJICUG_clean_linker_0, # of connection points: 2
#     Edge 43, Type (0, 1), BuildingBlock: OJICUG_clean_linker_0, # of connection points: 2
#     Edge 44, Type (0, 1), BuildingBlock: OJICUG_clean_linker_0, # of connection points: 2
#     Edge 45, Type (0, 1), BuildingBlock: OJICUG_clean_linker_0, # of connection points: 2
#     Edge 46, Type (0, 1), BuildingBlock: OJICUG_clean_linker_0, # of connection points: 2
#     Edge 47, Type (0, 1), BuildingBlock: OJICUG_clean_linker_0, # of connection points: 2
#     Edge 48, Type (0, 1), BuildingBlock: OJICUG_clean_linker_0, # of connection points: 2
#     Edge 49, Type (0, 1), BuildingBlock: OJICUG_clean_linker_0, # of connection points: 2
#     Edge 50, Type (0, 1), BuildingBlock: OJICUG_clean_linker_0, # of connection points: 2
#     Edge 51, Type (0, 1), BuildingBlock: OJICUG_clean_linker_0, # of connection points: 2
#     Edge 52, Type (0, 1), BuildingBlock: OJICUG_clean_linker_0, # of connection points: 2
#     Edge 53, Type (0, 1), BuildingBlock: OJICUG_clean_linker_0, # of connection points: 2
#     Edge 54, Type (0, 1), BuildingBlock: OJICUG_clean_linker_0, # of connection points: 2
#     Edge 55, Type (0, 1), BuildingBlock: OJICUG_clean_linker_0, # of connection points: 2
#     Edge 56, Type (0, 1), BuildingBlock: OJICUG_clean_linker_0, # of connection points: 2
#     Edge 57, Type (0, 1), BuildingBlock: OJICUG_clean_linker_0, # of connection points: 2
#     Edge 58, Type (0, 1), BuildingBlock: OJICUG_clean_linker_0, # of connection points: 2
#     Edge 59, Type (0, 1), BuildingBlock: OJICUG_clean_linker_0, # of connection points: 2
#     Edge 60, Type (0, 1), BuildingBlock: OJICUG_clean_linker_0, # of connection points: 2
#     Edge 61, Type (0, 1), BuildingBlock: OJICUG_clean_linker_0, # of connection points: 2
#     Edge 62, Type (0, 1), BuildingBlock: OJICUG_clean_linker_0, # of connection points: 2
#     Edge 63, Type (0, 1), BuildingBlock: OJICUG_clean_linker_0, # of connection points: 2
#     Edge 64, Type (0, 1), BuildingBlock: OJICUG_clean_linker_0, # of connection points: 2
#     Edge 65, Type (0, 1), BuildingBlock: OJICUG_clean_linker_0, # of connection points: 2
#     Edge 66, Type (0, 1), BuildingBlock: OJICUG_clean_linker_0, # of connection points: 2
#     Edge 67, Type (0, 1), BuildingBlock: OJICUG_clean_linker_0, # of connection points: 2
#     Edge 68, Type (0, 1), BuildingBlock: OJICUG_clean_linker_0, # of connection points: 2
#     Edge 69, Type (0, 1), BuildingBlock: OJICUG_clean_linker_0, # of connection points: 2
#     Edge 70, Type (0, 1), BuildingBlock: OJICUG_clean_linker_0, # of connection points: 2
#     Edge 71, Type (0, 1), BuildingBlock: OJICUG_clean_linker_0, # of connection points: 2
#     Edge 72, Type (0, 1), BuildingBlock: OJICUG_clean_linker_0, # of connection points: 2
#     Edge 73, Type (0, 1), BuildingBlock: OJICUG_clean_linker_0, # of connection points: 2
#     Edge 74, Type (0, 1), BuildingBlock: OJICUG_clean_linker_0, # of connection points: 2
#     Edge 75, Type (0, 1), BuildingBlock: OJICUG_clean_linker_0, # of connection points: 2
# Relax obj value: 0.084
# Max RMSD: 0.206
# Mean RMSD: 0.131
data_MOF--net-ctn--node1-AZAVOO_clean_sbu_0--node2-CUQRIR_clean_linker_1--edge1-OJICUG_clean_linker_0
_symmetry_space_group_name_H-M    P1
_symmetry_Int_Tables_number       1
_symmetry_cell_setting            triclinic
loop_
_symmetry_equiv_pos_as_xyz
'x, y, z'
_cell_length_a     35.888672
_cell_length_b     33.91907
_cell_length_c     34.884203
_cell_angle_alpha  97.574687
_cell_angle_beta   92.138301
_cell_angle_gamma 96.935424
loop_
_atom_site_label
_atom_site_type_symbol
_atom_site_fract_x
_atom_site_fract_y
_atom_site_fract_z
_atom_type_partial_charge
C0 C 0.02935 0.98202 0.05844 0.0
N1 N 0.04872 0.99387 0.0285 0.0
N2 N 0.99326 0.98948 0.05533 0.0
C3 C 0.04625 0.9658 0.09239 0.0
C4 C 0.99127 0.00485 0.02152 0.0
N5 N 0.02512 0.00858 0.00538 0.0
C6 C 0.9568 0.02003 0.00585 0.0
H7 H 0.03308 0.93457 0.09282 0.0
H8 H 0.04019 0.98386 0.11983 0.0
H9 H 0.07704 0.9658 0.09125 0.0
H10 H 0.96009 0.05326 0.01173 0.0
H11 H 0.93111 0.00769 0.01918 0.0
H12 H 0.95352 0.01139 0.97399 0.0
C13 C 0.28103 0.75181 0.25283 0.0
N14 N 0.29541 0.73084 0.27899 0.0
N15 N 0.30718 0.78086 0.24411 0.0
C16 C 0.24233 0.74142 0.23295 0.0
C17 C 0.33845 0.77629 0.26527 0.0
N18 N 0.33142 0.74562 0.28669 0.0
C19 C 0.3751 0.80301 0.26597 0.0
H20 H 0.23369 0.70855 0.22868 0.0
H21 H 0.24098 0.75221 0.20434 0.0
H22 H 0.22187 0.75574 0.25146 0.0
H23 H 0.38929 0.80796 0.29532 0.0
H24 H 0.37058 0.83235 0.25701 0.0
H25 H 0.39373 0.78853 0.24529 0.0
C26 C 0.98276 0.503 0.09842 0.0
N27 N 0.00669 0.47485 0.09715 0.0
N28 N 0.9581 0.49557 0.06725 0.0
C29 C 0.98488 0.53929 0.12872 0.0
C30 C 0.96796 0.46219 0.04667 0.0
N31 N 0.99781 0.4498 0.06445 0.0
C32 C 0.94658 0.43983 0.01075 0.0
H33 H 0.96944 0.53098 0.15403 0.0
H34 H 0.97194 0.56386 0.11743 0.0
H35 H 0.0145 0.55031 0.1386 0.0
H36 H 0.9618 0.44728 0.98501 0.0
H37 H 0.91771 0.44805 0.00807 0.0
H38 H 0.9448 0.40696 0.01085 0.0
C39 C 0.68371 0.77278 0.21524 0.0
N40 N 0.71365 0.79139 0.19951 0.0
N41 N 0.67356 0.79619 0.24653 0.0
C42 C 0.6653 0.73087 0.20117 0.0
C43 C 0.69847 0.82988 0.24936 0.0
N44 N 0.72271 0.82718 0.22051 0.0
C45 C 0.70262 0.86277 0.28338 0.0
H46 H 0.63564 0.72698 0.20941 0.0
H47 H 0.68059 0.70923 0.21466 0.0
H48 H 0.66635 0.72406 0.16925 0.0
H49 H 0.68677 0.85396 0.30823 0.0
H50 H 0.69186 0.88963 0.27433 0.0
H51 H 0.73269 0.8712 0.29299 0.0
C52 C 0.02306 0.98559 0.49819 0.0
N53 N 0.05627 0.99329 0.51959 0.0
N54 N 0.02337 0.00766 0.46861 0.0
C55 C 0.99138 0.95384 0.50407 0.0
C56 C 0.05816 0.02845 0.47195 0.0
N57 N 0.07844 0.01953 0.50249 0.0
C58 C 0.07321 0.05639 0.4444 0.0
H59 H 1.00222 0.92457 0.50429 0.0
H60 H 0.96836 0.95063 0.48137 0.0
H61 H 0.97945 0.96189 0.53249 0.0
H62 H 0.05401 0.055 0.4185 0.0
H63 H 0.10102 0.04892 0.43501 0.0
H64 H 0.07739 0.08755 0.45969 0.0
C65 C 0.18342 0.73447 0.7933 0.0
N66 N 0.21051 0.72028 0.81375 0.0
N67 N 0.18018 0.7163 0.75618 0.0
C68 C 0.16325 0.76941 0.80822 0.0
C69 C 0.20657 0.69085 0.7546 0.0
N70 N 0.22506 0.69326 0.78953 0.0
C71 C 0.21437 0.66355 0.71902 0.0
H72 H 0.13652 0.75799 0.82027 0.0
H73 H 0.15651 0.78672 0.78457 0.0
H74 H 0.18053 0.78988 0.8314 0.0
H75 H 0.23706 0.6791 0.70369 0.0
H76 H 0.18896 0.65567 0.6991 0.0
H77 H 0.22402 0.63568 0.72695 0.0
C78 C 0.94592 0.49914 0.44869 0.0
N79 N 0.97203 0.53209 0.45243 0.0
N80 N 0.91883 0.50416 0.47428 0.0
C81 C 0.9484 0.46085 0.42212 0.0
C82 C 0.92954 0.541 0.49406 0.0
N83 N 0.96205 0.55786 0.48122 0.0
C84 C 0.90954 0.55929 0.52787 0.0
H85 H 0.94091 0.46519 0.39197 0.0
H86 H 0.92885 0.43542 0.42947 0.0
H87 H 0.97758 0.45315 0.42315 0.0
H88 H 0.92072 0.54978 0.55481 0.0
H89 H 0.87893 0.54908 0.52466 0.0
H90 H 0.91408 0.59252 0.53079 0.0
C91 C 0.77437 0.77885 0.80217 0.0
N92 N 0.80703 0.76232 0.80152 0.0
N93 N 0.77618 0.80979 0.78132 0.0
C94 C 0.74138 0.76627 0.82529 0.0
C95 C 0.81129 0.81209 0.76818 0.0
N96 N 0.83053 0.78377 0.78101 0.0
C97 C 0.8271 0.84258 0.74327 0.0
H98 H 0.73133 0.73404 0.81633 0.0
H99 H 0.71754 0.78349 0.82111 0.0
H100 H 0.75034 0.7703 0.8565 0.0
H101 H 0.8465 0.86627 0.76143 0.0
H102 H 0.80513 0.85733 0.72984 0.0
H103 H 0.8431 0.82821 0.71987 0.0
C104 C 0.27255 0.27821 0.2997 0.0
N105 N 0.30554 0.26235 0.29987 0.0
N106 N 0.27413 0.30881 0.27844 0.0
C107 C 0.23952 0.26559 0.32275 0.0
C108 C 0.30944 0.31152 0.26577 0.0
N109 N 0.32899 0.28385 0.27936 0.0
C110 C 0.32518 0.34194 0.24076 0.0
H111 H 0.23125 0.23277 0.31599 0.0
H112 H 0.2148 0.28078 0.31633 0.0
H113 H 0.24771 0.27253 0.35413 0.0
H114 H 0.34387 0.3662 0.25904 0.0
H115 H 0.30312 0.35592 0.22656 0.0
H116 H 0.34191 0.32775 0.21793 0.0
C117 C 0.48552 1.00426 0.59955 0.0
N118 N 0.50847 0.9752 0.59852 0.0
N119 N 0.46001 0.99665 0.56906 0.0
C120 C 0.48969 0.04163 0.62872 0.0
C121 C 0.46841 0.96219 0.54914 0.0
N122 N 0.49818 0.94937 0.56663 0.0
C123 C 0.44579 0.93945 0.51414 0.0
H124 H 0.47798 0.06649 0.61666 0.0
H125 H 0.51968 0.05131 0.63797 0.0
H126 H 0.47423 0.03524 0.65462 0.0
H127 H 0.41651 0.94681 0.51339 0.0
H128 H 0.44508 0.90661 0.51372 0.0
H129 H 0.45915 0.94771 0.48766 0.0
C130 C 0.18765 0.27083 0.71803 0.0
N131 N 0.21741 0.28941 0.70199 0.0
N132 N 0.17724 0.29469 0.74885 0.0
C133 C 0.16939 0.22875 0.7045 0.0
C134 C 0.20177 0.3286 0.7511 0.0
N135 N 0.22604 0.32563 0.72229 0.0
C136 C 0.20545 0.36213 0.78453 0.0
H137 H 0.13973 0.22488 0.71272 0.0
H138 H 0.18476 0.20743 0.71839 0.0
H139 H 0.17046 0.22145 0.67262 0.0
H140 H 0.23546 0.37136 0.79399 0.0
H141 H 0.18985 0.35354 0.80961 0.0
H142 H 0.19404 0.38839 0.77491 0.0
C143 C 0.78153 0.25225 0.75297 0.0
N144 N 0.79594 0.23128 0.77912 0.0
N145 N 0.80771 0.28121 0.74412 0.0
C146 C 0.74278 0.24191 0.73319 0.0
C147 C 0.83902 0.27657 0.76519 0.0
N148 N 0.83199 0.24596 0.78667 0.0
C149 C 0.87571 0.30319 0.76574 0.0
H150 H 0.73409 0.20905 0.72898 0.0
H151 H 0.74139 0.25265 0.70456 0.0
H152 H 0.72239 0.25632 0.75173 0.0
H153 H 0.88999 0.30814 0.79505 0.0
H154 H 0.87124 0.33254 0.75676 0.0
H155 H 0.89425 0.28862 0.74501 0.0
C156 C 0.52959 0.48229 0.55804 0.0
N157 N 0.54893 0.49413 0.52808 0.0
N158 N 0.49349 0.48973 0.55496 0.0
C159 C 0.54655 0.46612 0.592 0.0
C160 C 0.49146 0.50507 0.52114 0.0
N161 N 0.5253 0.50881 0.50497 0.0
C162 C 0.45697 0.52024 0.50552 0.0
H163 H 0.53337 0.4349 0.59251 0.0
H164 H 0.54055 0.48423 0.61943 0.0
H165 H 0.57733 0.46609 0.59081 0.0
H166 H 0.46028 0.55347 0.51134 0.0
H167 H 0.4313 0.50794 0.51892 0.0
H168 H 0.45363 0.51155 0.47367 0.0
C169 C 0.52435 0.48679 0.99849 0.0
N170 N 0.55756 0.49368 0.0199 0.0
N171 N 0.52531 0.50872 0.96878 0.0
C172 C 0.49212 0.45558 0.0042 0.0
C173 C 0.56049 0.52857 0.97206 0.0
N174 N 0.58037 0.5192 1.00264 0.0
C175 C 0.57649 0.55539 0.94398 0.0
H176 H 0.50241 0.42605 0.00455 0.0
H177 H 0.46932 0.45274 0.98131 0.0
H178 H 0.4801 0.46393 0.03251 0.0
H179 H 0.55504 0.56013 0.92193 0.0
H180 H 0.59962 0.5418 0.92915 0.0
H181 H 0.58868 0.58487 0.95997 0.0
C182 C 0.68282 0.23478 0.29353 0.0
N183 N 0.70995 0.22062 0.31395 0.0
N184 N 0.67949 0.21653 0.25644 0.0
C185 C 0.66271 0.26978 0.30844 0.0
C186 C 0.70585 0.19106 0.25484 0.0
N187 N 0.72441 0.19353 0.28974 0.0
C188 C 0.71353 0.16365 0.21929 0.0
H189 H 0.63599 0.25841 0.32055 0.0
H190 H 0.65595 0.28705 0.28477 0.0
H191 H 0.68004 0.29026 0.33157 0.0
H192 H 0.73622 0.1791 0.20388 0.0
H193 H 0.68808 0.15578 0.19943 0.0
H194 H 0.72314 0.13578 0.22726 0.0
C195 C 0.44623 0.99888 0.94921 0.0
N196 N 0.47224 0.03191 0.95305 0.0
N197 N 0.41894 1.00385 0.97458 0.0
C198 C 0.44896 0.96058 0.92275 0.0
C199 C 0.42944 0.04074 0.99433 0.0
N200 N 0.46201 0.05768 0.98169 0.0
C201 C 0.40915 0.05902 0.02794 0.0
H202 H 0.44154 0.96482 0.89256 0.0
H203 H 0.42947 0.93509 0.93009 0.0
H204 H 0.47819 0.95304 0.92394 0.0
H205 H 0.42016 0.04959 0.05499 0.0
H206 H 0.37857 0.04874 0.0245 0.0
H207 H 0.41362 0.09225 0.03081 0.0
Mg208 Mg 0.2264 0.84993 0.04585 0.0
O209 O 0.27949 0.88843 0.02939 0.0
O210 O 0.32688 0.85143 0.03312 0.0
Mg211 Mg 0.3058 0.7906 0.05008 0.0
C212 C 0.31415 0.88356 0.02637 0.0
C213 C 0.18649 0.929 0.03474 0.0
O214 O 0.21388 0.94747 0.05904 0.0
O215 O 0.22438 0.81171 0.98645 0.0
O216 O 0.27296 0.77645 0.99118 0.0
O217 O 0.23859 0.87124 0.10978 0.0
O218 O 0.26033 0.81901 0.07828 0.0
C219 C 0.24499 0.7858 0.97219 0.0
C220 C 0.25912 0.84241 0.11024 0.0
O221 O 0.18573 0.89152 0.02365 0.0
Mg222 Mg 0.16071 0.52317 0.30397 0.0
O223 O 0.12576 0.51228 0.2452 0.0
O224 O 0.16527 0.51106 0.19739 0.0
Mg225 Mg 0.22525 0.5244 0.22507 0.0
C226 C 0.13193 0.5074 0.20909 0.0
C227 C 0.10768 0.52892 0.37062 0.0
O228 O 0.13943 0.549 0.3862 0.0
O229 O 0.17421 0.45833 0.29383 0.0
O230 O 0.21556 0.46352 0.24741 0.0
O231 O 0.16704 0.58972 0.30854 0.0
O232 O 0.20774 0.55271 0.28104 0.0
C233 C 0.1972 0.44331 0.27059 0.0
C234 C 0.1987 0.58783 0.29224 0.0
O235 O 0.10704 0.51077 0.33615 0.0
Mg236 Mg 0.80624 0.66188 0.01858 0.0
O237 O 0.74835 0.62064 0.01362 0.0
O238 O 0.70551 0.66261 0.00873 0.0
Mg239 Mg 0.734 0.72676 0.0062 0.0
C240 C 0.71408 0.62762 0.01177 0.0
C241 C 0.83797 0.58704 0.04024 0.0
O242 O 0.81476 0.59425 0.0678 0.0
O243 O 0.80723 0.66778 0.9535 0.0
O244 O 0.76648 0.71236 0.95056 0.0
O245 O 0.8013 0.67501 0.08239 0.0
O246 O 0.78135 0.71271 0.04115 0.0
C247 C 0.79075 0.69147 0.93505 0.0
C248 C 0.78444 0.70538 0.07632 0.0
O249 O 0.83883 0.60787 0.01245 0.0
Mg250 Mg 0.89362 0.03544 0.26078 0.0
O251 O 0.85362 0.97633 0.24693 0.0
O252 O 0.88848 0.92679 0.23099 0.0
Mg253 Mg 0.95014 0.95353 0.23298 0.0
C254 C 0.85668 0.93934 0.23628 0.0
C255 C 0.85072 0.10627 0.28569 0.0
O256 O 0.8821 0.12245 0.27275 0.0
O257 O 0.91423 0.01893 0.31897 0.0
O258 O 0.95063 0.97208 0.29864 0.0
O259 O 0.88991 0.04445 0.19849 0.0
O260 O 0.93148 0.0108 0.22383 0.0
C261 C 0.93734 0.99445 0.32581 0.0
C262 C 0.91682 0.02238 0.19373 0.0
O263 O 0.84643 0.06868 0.28695 0.0
Mg264 Mg 0.30454 0.16079 0.51697 0.0
O265 O 0.24599 0.12105 0.51239 0.0
O266 O 0.20422 0.16442 0.50925 0.0
Mg267 Mg 0.23418 0.22837 0.50811 0.0
C268 C 0.21199 0.12894 0.51133 0.0
C269 C 0.34305 0.09136 0.54049 0.0
O270 O 0.33662 0.10328 0.50692 0.0
O271 O 0.30466 0.16816 0.45216 0.0
O272 O 0.26587 0.21499 0.45179 0.0
O273 O 0.30079 0.17222 0.58105 0.0
O274 O 0.28148 0.21196 0.54141 0.0
C275 C 0.28912 0.19352 0.43507 0.0
C276 C 0.28483 0.20355 0.57619 0.0
O277 O 0.33609 0.10412 0.50855 0.0
Mg278 Mg 0.39482 0.53578 0.76088 0.0
O279 O 0.35536 0.47624 0.74727 0.0
O280 O 0.39078 0.42723 0.73114 0.0
Mg281 Mg 0.4522 0.45468 0.73277 0.0
C282 C 0.35882 0.43935 0.7366 0.0
C283 C 0.35155 0.60621 0.78581 0.0
O284 O 0.38287 0.62245 0.77279 0.0
O285 O 0.41603 0.51955 0.81903 0.0
O286 O 0.45287 0.47323 0.79842 0.0
O287 O 0.39058 0.54465 0.69857 0.0
O288 O 0.43272 0.51156 0.72373 0.0
C289 C 0.4395 0.49538 0.82571 0.0
C290 C 0.4177 0.52289 0.69368 0.0
O291 O 0.34741 0.56864 0.78719 0.0
Mg292 Mg 0.72654 0.35029 0.54603 0.0
O293 O 0.77958 0.38876 0.52946 0.0
O294 O 0.82698 0.35175 0.53304 0.0
Mg295 Mg 0.80593 0.29093 0.55004 0.0
C296 C 0.81423 0.38389 0.52635 0.0
C297 C 0.68671 0.42941 0.53464 0.0
O298 O 0.71421 0.44803 0.55872 0.0
O299 O 0.72438 0.31206 0.48665 0.0
O300 O 0.77295 0.27677 0.49121 0.0
O301 O 0.73889 0.37161 0.60995 0.0
O302 O 0.76053 0.31936 0.57838 0.0
C303 C 0.74494 0.28614 0.47232 0.0
C304 C 0.75941 0.34276 0.61035 0.0
O305 O 0.68586 0.39186 0.52385 0.0
Mg306 Mg 0.66182 0.02364 0.80558 0.0
O307 O 0.62711 0.01223 0.74667 0.0
O308 O 0.66676 0.01088 0.69898 0.0
Mg309 Mg 0.72664 0.02466 0.72687 0.0
C310 C 0.63339 0.00715 0.71059 0.0
C311 C 0.60843 0.02939 0.87204 0.0
O312 O 0.64005 0.04965 0.88776 0.0
O313 O 0.67566 0.9589 0.79595 0.0
O314 O 0.71713 0.96402 0.74962 0.0
O315 O 0.6679 0.09017 0.80969 0.0
O316 O 0.70879 0.05317 0.78259 0.0
C317 C 0.6988 0.94389 0.77288 0.0
C318 C 0.6996 0.08828 0.79347 0.0
O319 O 0.60804 0.01118 0.83761 0.0
Mg320 Mg 0.03291 0.22485 0.92692 0.0
O321 O 0.97527 0.22023 0.89407 0.0
O322 O 0.931 0.20648 0.93494 0.0
Mg323 Mg 0.96211 0.19572 0.99165 0.0
C324 C 0.94069 0.21432 0.90162 0.0
C325 C 0.09099 0.24359 0.87182 0.0
O326 O 0.10313 0.21711 0.89195 0.0
O327 O 0.02433 0.28417 0.96332 0.0
O328 O 0.9851 0.26322 0.00685 0.0
O329 O 0.03746 0.16003 0.90803 0.0
O330 O 0.01505 0.18331 0.96356 0.0
C331 C 0.00652 0.29103 0.99409 0.0
C332 C 0.02446 0.15324 0.94095 0.0
O333 O 0.05977 0.25594 0.87962 0.0
Mg334 Mg 0.53244 0.72526 0.42698 0.0
O335 O 0.47471 0.72051 0.39431 0.0
O336 O 0.43048 0.70638 0.43511 0.0
Mg337 Mg 0.4618 0.69552 0.49168 0.0
C338 C 0.44014 0.7144 0.40183 0.0
C339 C 0.58942 0.74355 0.37033 0.0
O340 O 0.60155 0.71622 0.38935 0.0
O341 O 0.5238 0.78439 0.4638 0.0
O342 O 0.48468 0.763 0.50723 0.0
O343 O 0.53708 0.66047 0.40785 0.0
O344 O 0.51482 0.6835 0.46354 0.0
C345 C 0.50604 0.79097 0.49465 0.0
C346 C 0.52424 0.65354 0.44079 0.0
O347 O 0.55884 0.75662 0.37955 0.0
Mg348 Mg 0.99699 0.77611 0.61199 0.0
O349 O 0.04918 0.76118 0.64419 0.0
O350 O 0.09282 0.75025 0.60129 0.0
Mg351 Mg 0.06946 0.75791 0.54127 0.0
C352 C 0.08175 0.75227 0.63575 0.0
C353 C 0.95498 0.76154 0.68761 0.0
O354 O 0.96208 0.72553 0.6736 0.0
O355 O 0.02646 0.84096 0.60658 0.0
O356 O 0.06664 0.82462 0.56137 0.0
O357 O 0.97722 0.71068 0.59827 0.0
O358 O 0.01211 0.74353 0.55931 0.0
C359 C 0.05211 0.85102 0.58358 0.0
C360 C 0.99576 0.70996 0.56728 0.0
O361 O 0.96812 0.7913 0.67083 0.0
Mg362 Mg 0.49648 0.27633 0.11198 0.0
O363 O 0.54856 0.26132 0.1443 0.0
O364 O 0.59217 0.25009 0.10142 0.0
Mg365 Mg 0.56892 0.25766 0.04135 0.0
C366 C 0.58109 0.25227 0.13589 0.0
C367 C 0.45475 0.26221 0.18781 0.0
O368 O 0.46229 0.22624 0.17424 0.0
O369 O 0.5262 0.34102 0.10649 0.0
O370 O 0.56638 0.32443 0.06135 0.0
O371 O 0.47651 0.21094 0.09845 0.0
O372 O 0.51156 0.24355 0.05943 0.0
C373 C 0.55193 0.35092 0.08352 0.0
C374 C 0.49511 0.21006 0.06749 0.0
O375 O 0.46758 0.29184 0.17072 0.0
C376 C 0.25754 0.74655 0.86758 0.0
C377 C 0.22043 0.73178 0.85444 0.0
H378 H 0.29446 0.77492 0.91578 0.0
C379 C 0.19187 0.73287 0.88093 0.0
H380 H 0.27989 0.74718 0.84769 0.0
C381 C 0.19979 0.75061 0.91924 0.0
C382 C 0.23671 0.76614 0.93212 0.0
H383 H 0.1631 0.72128 0.87146 0.0
H384 H 0.17709 0.7522 0.93879 0.0
C385 C 0.26572 0.763 0.90635 0.0
C386 C 1.00473 0.52785 0.39145 0.0
C387 C 0.00624 0.53588 0.43207 0.0
H388 H 0.03539 0.51817 0.34023 0.0
C389 C 0.04141 0.54275 0.45237 0.0
H390 H 0.97792 0.52307 0.37519 0.0
C391 C 0.07442 0.54065 0.43238 0.0
C392 C 0.07277 0.53086 0.39179 0.0
H393 H 0.04326 0.54829 0.48369 0.0
H394 H 0.10119 0.54572 0.44878 0.0
C395 C 0.03757 0.52486 0.37153 0.0
C396 C 0.83618 0.75377 0.86381 0.0
C397 C 0.81656 0.73631 0.829 0.0
H398 H 0.84299 0.75285 0.92505 0.0
C399 C 0.79496 0.69858 0.82799 0.0
H400 H 0.85231 0.78314 0.86558 0.0
C401 C 0.78877 0.68158 0.86221 0.0
C402 C 0.80496 0.70164 0.89776 0.0
H403 H 0.77911 0.68483 0.8016 0.0
H404 H 0.76896 0.65469 0.86133 0.0
C405 C 0.83029 0.73671 0.89792 0.0
C406 C 0.99472 0.96724 0.40901 0.0
C407 C 0.99725 1.00232 0.43557 0.0
H408 H 0.97291 0.9368 0.35376 0.0
C409 C 0.97637 0.03308 0.42805 0.0
H410 H 0.01081 0.94333 0.4145 0.0
C411 C 0.9544 0.02948 0.39339 0.0
C412 C 0.9535 0.99519 0.36565 0.0
H413 H 0.97823 0.06037 0.44837 0.0
H414 H 0.93995 0.05442 0.38741 0.0
C415 C 0.97305 0.96365 0.3744 0.0
C416 C 0.23903 0.28486 0.63554 0.0
C417 C 0.23833 0.27115 0.67168 0.0
H418 H 0.25408 0.27392 0.57652 0.0
C419 C 0.25465 0.23657 0.67684 0.0
H420 H 0.22633 0.31141 0.63116 0.0
C421 C 0.27023 0.21501 0.64594 0.0
C422 C 0.26964 0.22758 0.60915 0.0
H423 H 0.25441 0.22578 0.70471 0.0
H424 H 0.282 0.18802 0.65075 0.0
C425 C 0.2545 0.26316 0.60438 0.0
C426 C 0.4593 0.46538 0.60919 0.0
C427 C 0.4694 0.49597 0.58672 0.0
H428 H 0.43479 0.45001 0.66125 0.0
C429 C 0.45919 0.53437 0.59811 0.0
H430 H 0.46662 0.43554 0.6008 0.0
C431 C 0.43999 0.54229 0.63171 0.0
C432 C 0.43196 0.51236 0.6553 0.0
H433 H 0.46766 0.55884 0.58202 0.0
H434 H 0.43357 0.57246 0.64051 0.0
C435 C 0.44115 0.47365 0.64359 0.0
C436 C 0.81993 0.29564 0.67836 0.0
C437 C 0.80369 0.30541 0.71368 0.0
H438 H 0.81901 0.30014 0.61789 0.0
C439 C 0.77707 0.33264 0.71597 0.0
H440 H 0.84015 0.2743 0.67599 0.0
C441 C 0.76479 0.34753 0.68273 0.0
C442 C 0.77849 0.3348 0.64653 0.0
H443 H 0.7639 0.34004 0.74296 0.0
H444 H 0.74255 0.36652 0.68492 0.0
C445 C 0.80735 0.31006 0.64504 0.0
C446 C 0.53387 0.97799 0.66552 0.0
C447 C 0.53974 0.97489 0.62569 0.0
H448 H 0.55837 0.99107 0.72342 0.0
C449 C 0.57668 0.97979 0.61377 0.0
H450 H 0.50553 0.9746 0.67531 0.0
C451 C 0.60712 0.9897 0.64125 0.0
C452 C 0.60119 0.99498 0.6813 0.0
H453 H 0.58179 0.97821 0.58324 0.0
H454 H 0.63522 0.99435 0.63103 0.0
C455 C 0.56415 0.98795 0.693 0.0
C456 C 0.84751 0.22984 0.85238 0.0
C457 C 0.85773 0.23333 0.81434 0.0
H458 H 0.8654 0.22106 0.90977 0.0
C459 C 0.89445 0.22728 0.80459 0.0
H460 H 0.81947 0.23451 0.86076 0.0
C461 C 0.92097 0.22025 0.83264 0.0
C462 C 0.91136 0.21842 0.87121 0.0
H463 H 0.90289 0.22881 0.77531 0.0
H464 H 0.94924 0.21681 0.82413 0.0
C465 C 0.87396 0.22235 0.88047 0.0
C466 C 0.52769 0.90428 0.51976 0.0
C467 C 0.51088 0.91112 0.55533 0.0
H468 H 0.53928 0.86116 0.47251 0.0
C469 C 0.49622 0.87814 0.57282 0.0
H470 H 0.53821 0.92943 0.50535 0.0
C471 C 0.49575 0.83904 0.55371 0.0
C472 C 0.51018 0.83216 0.51671 0.0
H473 H 0.48221 0.88285 0.59971 0.0
H474 H 0.48262 0.81434 0.56726 0.0
C475 C 0.52759 0.86522 0.50072 0.0
C476 C 0.12257 0.29935 0.78903 0.0
C477 C 0.15489 0.2818 0.77912 0.0
H478 H 0.07654 0.30088 0.82644 0.0
C479 C 0.16625 0.25225 0.79979 0.0
H480 H 0.11379 0.32245 0.77334 0.0
C481 C 0.14548 0.2401 0.83001 0.0
C482 C 0.11288 0.2573 0.84006 0.0
H483 H 0.19149 0.23892 0.79267 0.0
H484 H 0.15503 0.21714 0.84541 0.0
C485 C 0.10153 0.28706 0.81928 0.0
C486 C 0.546 0.58016 0.50839 0.0
C487 C 0.53572 0.54296 0.48542 0.0
H488 H 0.54845 0.64395 0.51276 0.0
C489 C 0.5242 0.54223 0.44635 0.0
H490 H 0.55394 0.58137 0.53883 0.0
C491 C 0.52122 0.57818 0.43117 0.0
C492 C 0.52836 0.61517 0.45533 0.0
H493 H 0.51514 0.51386 0.42847 0.0
H494 H 0.5115 0.57699 0.40122 0.0
C495 C 0.54176 0.61581 0.49375 0.0
C496 C 0.8693 0.73758 0.7455 0.0
C497 C 0.86671 0.77458 0.76776 0.0
H498 H 0.89923 0.70455 0.70293 0.0
C499 C 0.8968 0.80555 0.76813 0.0
H500 H 0.84652 0.71334 0.74439 0.0
C501 C 0.92618 0.80141 0.74292 0.0
C502 C 0.92706 0.76543 0.71817 0.0
H503 H 0.89594 0.83418 0.78568 0.0
H504 H 0.94748 0.82671 0.74195 0.0
C505 C 0.8993 0.73292 0.72128 0.0
C506 C 0.09164 0.93963 0.53528 0.0
C507 C 0.06736 0.96775 0.54693 0.0
H508 H 0.10646 0.88101 0.53829 0.0
C509 C 0.04464 0.96113 0.57817 0.0
H510 H 0.10913 0.94364 0.51112 0.0
C511 C 0.04173 0.92432 0.59299 0.0
C512 C 0.0623 0.89383 0.57744 0.0
H513 H 0.02571 0.98251 0.5878 0.0
H514 H 0.02108 0.91864 0.6141 0.0
C515 C 0.08934 0.90323 0.55048 0.0
C516 C 0.16975 0.73367 0.69048 0.0
C517 C 0.15545 0.72407 0.72542 0.0
H518 H 0.15767 0.75012 0.63461 0.0
C519 C 0.11687 0.72372 0.73076 0.0
H520 H 0.19954 0.73481 0.68609 0.0
C521 C 0.09297 0.7333 0.70182 0.0
C522 C 0.10718 0.74288 0.66672 0.0
H523 H 0.10531 0.7161 0.75745 0.0
H524 H 0.06331 0.73276 0.70681 0.0
C525 C 0.14581 0.74271 0.66126 0.0
C526 C 0.9944 0.59925 0.53823 0.0
C527 C 0.98297 0.5951 0.49884 0.0
H528 H 0.00678 0.63937 0.59112 0.0
C529 C 0.98326 0.62954 0.48051 0.0
H530 H 0.99423 0.57293 0.55278 0.0
C531 C 0.99115 0.66774 0.50229 0.0
C532 C 0.99798 0.67158 0.54265 0.0
H533 H 0.97411 0.62686 0.45025 0.0
H534 H 0.98846 0.69398 0.48825 0.0
C535 C 1.00123 0.63713 0.56011 0.0
C536 C 0.7918 0.84107 0.2227 0.0
C537 C 0.7565 0.85424 0.21862 0.0
H538 H 0.85125 0.85766 0.23152 0.0
C539 C 0.75437 0.89524 0.21846 0.0
H540 H 0.79401 0.80974 0.22398 0.0
C541 C 0.78689 0.92292 0.22394 0.0
C542 C 0.82227 0.90999 0.22918 0.0
H543 H 0.7273 0.90588 0.21546 0.0
H544 H 0.78426 0.95447 0.22447 0.0
C545 C 0.82444 0.86864 0.2276 0.0
C546 C 0.75386 0.13586 0.30719 0.0
C547 C 0.7573 0.17466 0.29686 0.0
H548 H 0.7809 0.08344 0.31198 0.0
C549 C 0.79214 0.19187 0.28619 0.0
H550 H 0.72683 0.12185 0.31456 0.0
C551 C 0.82298 0.17037 0.28485 0.0
C552 C 0.81937 0.13067 0.29323 0.0
H553 H 0.79491 0.2214 0.27719 0.0
H554 H 0.84915 0.18427 0.27531 0.0
C555 C 0.78468 0.11395 0.3054 0.0
C556 C 0.40517 0.94294 0.00481 0.0
C557 C 0.39231 0.9734 0.98647 0.0
H558 H 0.39063 0.8908 0.0319 0.0
C559 C 0.35358 0.97511 0.98196 0.0
H560 H 0.43505 0.94175 0.00902 0.0
C561 C 0.3279 0.94638 0.99554 0.0
C562 C 0.34075 0.91539 0.01352 0.0
H563 H 0.34338 0.99879 0.9681 0.0
H564 H 0.29811 0.94813 0.99151 0.0
C565 C 0.3797 0.91407 0.01799 0.0
C566 C 0.24059 0.36169 0.31128 0.0
C567 C 0.24798 0.33764 0.27716 0.0
H568 H 0.21693 0.41379 0.33594 0.0
C569 C 0.23226 0.34444 0.24162 0.0
H570 H 0.2525 0.35674 0.33896 0.0
C571 C 0.2128 0.37746 0.23971 0.0
C572 C 0.2076 0.40317 0.27356 0.0
H573 H 0.23722 0.32571 0.21515 0.0
H574 H 0.20352 0.38414 0.21163 0.0
C575 C 0.22012 0.39402 0.30954 0.0
C576 C 0.14736 0.02929 0.49797 0.0
C577 C 0.11498 0.04056 0.51584 0.0
H578 H 0.20379 0.04811 0.48271 0.0
C579 C 0.1167 0.07949 0.53582 0.0
H580 H 0.14633 0.99997 0.4811 0.0
C581 C 0.14868 0.1075 0.53526 0.0
C582 C 0.18025 0.09715 0.5153 0.0
H583 H 0.09183 0.08933 0.54871 0.0
H584 H 0.14811 0.13788 0.54926 0.0
C585 C 0.17994 0.05712 0.49821 0.0
C586 C 0.74273 0.19704 0.80859 0.0
C587 C 0.77666 0.19522 0.79017 0.0
H588 H 0.69134 0.16501 0.82308 0.0
C589 C 0.78608 0.15784 0.77416 0.0
H590 H 0.73476 0.2258 0.82038 0.0
C591 C 0.76104 0.12292 0.77503 0.0
C592 C 0.72609 0.12499 0.79174 0.0
H593 H 0.81173 0.15606 0.75899 0.0
H594 H 0.7687 0.09451 0.76184 0.0
C595 C 0.71765 0.16236 0.80931 0.0
C596 C 0.42535 0.0316 0.52431 0.0
C597 C 0.42975 0.01896 0.56076 0.0
H598 H 0.39414 0.0642 0.48854 0.0
C599 C 0.40437 0.02837 0.58913 0.0
H600 H 0.44482 0.02473 0.50215 0.0
C601 C 0.37555 0.05094 0.58155 0.0
C602 C 0.37146 0.06423 0.54543 0.0
H603 H 0.40706 0.01841 0.61723 0.0
H604 H 0.35678 0.05861 0.60423 0.0
C605 C 0.39638 0.05403 0.5166 0.0
C606 C 0.58946 0.44671 0.49881 0.0
C607 C 0.58595 0.48442 0.51931 0.0
H608 H 0.624 0.39964 0.48732 0.0
C609 C 0.61768 0.50654 0.53997 0.0
H610 H 0.56507 0.42886 0.48339 0.0
C611 C 0.65144 0.48978 0.54274 0.0
C612 C 0.65399 0.4504 0.52508 0.0
H613 H 0.61528 0.5353 0.55667 0.0
H614 H 0.67465 0.50668 0.56088 0.0
C615 C 0.62309 0.42984 0.50159 0.0
C616 C 0.6915 0.23336 0.38118 0.0
C617 C 0.71998 0.23218 0.35461 0.0
H618 H 0.67691 0.25273 0.4391 0.0
C619 C 0.75714 0.24685 0.36765 0.0
H620 H 0.66269 0.22184 0.37179 0.0
C621 C 0.76545 0.26328 0.4064 0.0
C622 C 0.73653 0.26649 0.43226 0.0
H623 H 0.77943 0.2474 0.34769 0.0
H624 H 0.79422 0.27511 0.41576 0.0
C625 C 0.69954 0.25107 0.41948 0.0
C626 C 0.50529 0.0277 0.89227 0.0
C627 C 0.50658 0.03582 0.93288 0.0
H628 H 0.53627 0.01812 0.84126 0.0
C629 C 0.54165 0.04295 0.95337 0.0
H630 H 0.47856 0.02273 0.87586 0.0
C631 C 0.5748 0.04102 0.93358 0.0
C632 C 0.57338 0.03115 0.89301 0.0
H633 H 0.54333 0.04856 0.98469 0.0
H634 H 0.60149 0.04629 0.95013 0.0
C635 C 0.53827 0.02488 0.87255 0.0
C636 C 0.29581 0.19921 0.32778 0.0
C637 C 0.3154 0.23796 0.32868 0.0
H638 H 0.27146 0.15448 0.36119 0.0
C639 C 0.3327 0.25743 0.36398 0.0
H640 H 0.28159 0.18398 0.30102 0.0
C641 C 0.3264 0.241 0.39834 0.0
C642 C 0.30323 0.20443 0.39799 0.0
H643 H 0.34715 0.28759 0.36563 0.0
H644 H 0.33726 0.25842 0.4256 0.0
C645 C 0.28954 0.18262 0.36223 0.0
C646 C 0.49777 0.46866 0.90856 0.0
C647 C 0.49955 0.50338 0.93546 0.0
H648 H 0.47653 0.43843 0.85305 0.0
C649 C 0.47797 0.5337 0.92826 0.0
H650 H 0.51432 0.44507 0.91387 0.0
C651 C 0.45607 0.53004 0.89355 0.0
C652 C 0.45586 0.49613 0.86548 0.0
H653 H 0.47921 0.56068 0.9489 0.0
H654 H 0.44103 0.55466 0.88784 0.0
C655 C 0.47614 0.46501 0.87392 0.0
C656 C 0.73596 0.78611 0.13328 0.0
C657 C 0.73501 0.77299 0.16969 0.0
H658 H 0.75214 0.77466 0.07465 0.0
C659 C 0.75173 0.7389 0.17572 0.0
H660 H 0.72292 0.81227 0.12824 0.0
C661 C 0.76818 0.71735 0.14548 0.0
C662 C 0.76804 0.72938 0.10845 0.0
H663 H 0.75123 0.72854 0.20379 0.0
H664 H 0.78035 0.6908 0.15099 0.0
C665 C 0.75228 0.76437 0.10274 0.0
C666 C 0.95882 0.03405 0.09841 0.0
C667 C 0.96909 0.99568 0.08704 0.0
H668 H 0.93298 0.07205 0.14069 0.0
C669 C 0.95893 0.96504 0.10945 0.0
H670 H 0.96734 0.05854 0.08238 0.0
C671 C 0.94062 0.97325 0.14376 0.0
C672 C 0.93133 0.01192 0.15544 0.0
H673 H 0.9663 0.93522 0.10107 0.0
H674 H 0.93418 0.94957 0.16136 0.0
C675 C 0.93947 0.04189 0.13192 0.0
C676 C 0.27652 0.83224 0.21589 0.0
C677 C 0.3032 0.80508 0.21367 0.0
H678 H 0.24202 0.86606 0.18476 0.0
C679 C 0.31956 0.79538 0.17841 0.0
H680 H 0.26326 0.83958 0.24284 0.0
C681 C 0.30705 0.8098 0.14506 0.0
C682 C 0.27813 0.83446 0.14647 0.0
H683 H 0.33983 0.77409 0.17609 0.0
H684 H 0.3188 0.79993 0.11795 0.0
C685 C 0.2643 0.84712 0.18263 0.0
C686 C 0.075 0.48055 0.11238 0.0
C687 C 0.0381 0.47518 0.12436 0.0
H688 H 0.13353 0.49549 0.12952 0.0
C689 C 0.03234 0.47789 0.1642 0.0
H690 H 0.08004 0.4792 0.08185 0.0
C691 C 0.06267 0.48794 0.19163 0.0
C692 C 0.09966 0.49539 0.17986 0.0
H693 H 1.00405 0.47396 0.17407 0.0
H694 H 0.05698 0.49069 0.22207 0.0
C695 C 0.10548 0.49052 0.1398 0.0
C696 C 0.34688 0.7295 0.35242 0.0
C697 C 0.35714 0.73301 0.31439 0.0
H698 H 0.36476 0.72084 0.40986 0.0
C699 C 0.39391 0.7271 0.30472 0.0
H700 H 0.3188 0.73407 0.36074 0.0
C701 C 0.42043 0.7202 0.33282 0.0
C702 C 0.41079 0.71837 0.37139 0.0
H703 H 0.40239 0.72866 0.27546 0.0
H704 H 0.44873 0.71687 0.32436 0.0
C705 C 0.37334 0.72214 0.38058 0.0
C706 C 0.02742 0.40448 0.01781 0.0
C707 C 0.01074 0.41161 0.05341 0.0
H708 H 0.03911 0.36097 0.97095 0.0
C709 C 0.99655 0.37883 0.07144 0.0
H710 H 0.03764 0.42946 1.00302 0.0
C711 C 0.99632 0.33959 0.05278 0.0
C712 C 0.01055 0.33238 0.01573 0.0
H713 H 0.9827 0.38375 0.0984 0.0
H714 H 0.9835 0.31502 0.0667 0.0
C715 C 0.02757 0.36528 0.99923 0.0
C716 C 0.61964 0.80049 0.28785 0.0
C717 C 0.65154 0.7827 0.2768 0.0
H718 H 0.57453 0.80194 0.32642 0.0
C719 C 0.66298 0.75249 0.29653 0.0
H720 H 0.61081 0.82411 0.27291 0.0
C721 C 0.64275 0.73997 0.32695 0.0
C722 C 0.61063 0.7575 0.33821 0.0
H723 H 0.68794 0.73899 0.28858 0.0
H724 H 0.65238 0.71654 0.34162 0.0
C725 C 0.59915 0.78787 0.31834 0.0
C726 C 0.02422 0.04196 0.94673 0.0
C727 C 0.03557 0.04273 0.98585 0.0
H728 H 0.01175 0.07665 0.90148 0.0
C729 C 0.04578 0.07996 0.00881 0.0
H730 H 0.01521 0.01357 0.92885 0.0
C731 C 0.04162 0.11558 0.9941 0.0
C732 C 0.02839 0.1149 0.95561 0.0
H733 H 0.05359 0.08119 0.03928 0.0
H734 H 0.04826 0.14374 0.01308 0.0
C735 C 0.02133 0.07789 0.93148 0.0
C736 C 0.39525 0.30642 0.26701 0.0
C737 C 0.36552 0.27508 0.26679 0.0
H738 H 0.44595 0.32787 0.24104 0.0
C739 C 0.36886 0.23789 0.24528 0.0
H740 H 0.39382 0.33522 0.28402 0.0
C741 C 0.39921 0.23332 0.22151 0.0
C742 C 0.42658 0.26609 0.21812 0.0
H743 H 0.34639 0.21335 0.24433 0.0
H744 H 0.39969 0.20474 0.20367 0.0
C745 C 0.42497 0.30234 0.24224 0.0
C746 C 0.54511 0.46115 0.07813 0.0
C747 C 0.56807 0.46769 0.04706 0.0
H748 H 0.5211 0.41872 0.11389 0.0
C749 C 0.59224 0.43943 0.0355 0.0
H750 H 0.52631 0.48269 0.08774 0.0
C751 C 0.58961 0.40297 0.05062 0.0
C752 C 0.56237 0.3937 0.07742 0.0
H753 H 0.60996 0.44343 0.01151 0.0
H754 H 0.60667 0.38066 0.03852 0.0
C755 C 0.54189 0.42431 0.09289 0.0
C756 C 0.61619 0.22403 0.23104 0.0
C757 C 0.65476 0.2243 0.22568 0.0
H758 H 0.56263 0.23304 0.20704 0.0
C759 C 0.66906 0.23378 0.19071 0.0
H760 H 0.60463 0.2165 0.25776 0.0
C761 C 0.64512 0.24274 0.16144 0.0
C762 C 0.6065 0.24296 0.16691 0.0
H763 H 0.69884 0.23486 0.18631 0.0
H764 H 0.65698 0.25005 0.13477 0.0
C765 C 0.59229 0.23352 0.20205 0.0
C766 C 0.49387 0.09928 0.03885 0.0
C767 C 0.48274 0.09501 0.99937 0.0
H768 H 0.50584 0.13956 0.0917 0.0
C769 C 0.48315 0.12937 0.98091 0.0
H770 H 0.49362 0.07302 0.0535 0.0
C771 C 0.49085 0.16763 1.00262 0.0
C772 C 0.49738 0.17159 0.04303 0.0
H773 H 0.47423 0.12659 0.95058 0.0
H774 H 0.48828 0.19381 0.98846 0.0
C775 C 0.5005 0.13722 0.06065 0.0
C776 C 0.29503 0.34037 0.72378 0.0
C777 C 0.25948 0.35301 0.71985 0.0
H778 H 0.3544 0.35776 0.73223 0.0
C779 C 0.25685 0.39387 0.71934 0.0
H780 H 0.29764 0.30914 0.72523 0.0
C781 C 0.28909 0.42195 0.7245 0.0
C782 C 0.3247 0.40956 0.72972 0.0
H783 H 0.22959 0.40412 0.71635 0.0
H784 H 0.28606 0.45338 0.72482 0.0
C785 C 0.32739 0.36833 0.72835 0.0
C786 C 0.29282 0.69169 0.7862 0.0
C787 C 0.25794 0.6744 0.79671 0.0
H788 H 0.34989 0.68423 0.77554 0.0
C789 C 0.25451 0.63556 0.80696 0.0
H790 H 0.29559 0.72125 0.77727 0.0
C791 C 0.28538 0.6137 0.80526 0.0
C792 C 0.32011 0.63052 0.79326 0.0
H793 H 0.22746 0.62148 0.8142 0.0
H794 H 0.28161 0.58317 0.81177 0.0
C795 C 0.3237 0.67025 0.78495 0.0
C796 C 0.85351 0.47555 0.48202 0.0
C797 C 0.89224 0.47375 0.48629 0.0
H798 H 0.79808 0.44862 0.49179 0.0
C799 C 0.90516 0.4432 0.50445 0.0
H800 H 0.84327 0.49929 0.46829 0.0
C801 C 0.87974 0.41433 0.51769 0.0
C802 C 0.84079 0.41573 0.51345 0.0
H803 H 0.93505 0.44194 0.50847 0.0
H804 H 0.89071 0.39099 0.53145 0.0
C805 C 0.82789 0.44681 0.49564 0.0
C806 C 0.73408 0.84507 0.74445 0.0
C807 C 0.75007 0.83864 0.78 0.0
H808 H 0.70493 0.88432 0.71429 0.0
C809 C 0.7429 0.86297 0.81401 0.0
H810 H 0.73893 0.82615 0.71806 0.0
C811 C 0.72227 0.89517 0.81215 0.0
C812 C 0.70939 0.90389 0.77612 0.0
H813 H 0.75504 0.8583 0.84169 0.0
H814 H 0.71922 0.91516 0.83844 0.0
C815 C 0.71445 0.87794 0.7424 0.0
C816 C 0.62002 0.57709 0.03799 0.0
C817 C 0.61735 0.53912 0.01584 0.0
H818 H 0.65222 0.63488 0.05328 0.0
C819 C 0.64901 0.52847 0.99615 0.0
H820 H 0.59569 0.5865 0.05234 0.0
C821 C 0.68172 0.55615 0.99669 0.0
C822 C 0.68284 0.59544 0.01595 0.0
H823 H 0.6472 0.49993 0.97773 0.0
H824 H 0.70491 0.54781 0.9797 0.0
C825 C 0.65211 0.60503 0.03772 0.0
C826 C 0.24226 0.69645 0.30839 0.0
C827 C 0.27615 0.6947 0.2899 0.0
H828 H 0.19078 0.66441 0.32264 0.0
C829 C 0.28542 0.65737 0.27351 0.0
H830 H 0.23439 0.72517 0.32044 0.0
C831 C 0.26027 0.62248 0.27407 0.0
C832 C 0.22534 0.62451 0.29085 0.0
H833 H 0.31103 0.65565 0.25826 0.0
H834 H 0.2678 0.59412 0.26058 0.0
C835 C 0.21706 0.6618 0.30881 0.0
C836 C 0.92379 0.53292 0.02457 0.0
C837 C 0.92687 0.5166 0.05929 0.0
H838 H 0.8929 0.56782 0.99096 0.0
C839 C 0.89929 0.52108 0.08633 0.0
H840 H 0.94488 0.52956 0.00339 0.0
C841 C 0.86948 0.54252 0.0793 0.0
C842 C 0.86686 0.56014 0.04512 0.0
H843 H 0.90109 0.5082 0.11304 0.0
H844 H 0.84907 0.54616 0.10117 0.0
C845 C 0.89405 0.5546 0.01753 0.0
C846 C 0.08922 0.94647 0.99909 0.0
C847 C 0.08573 0.98413 0.01973 0.0
H848 H 0.12374 0.89941 0.98739 0.0
C849 C 0.11747 0.00616 0.04044 0.0
H850 H 0.06483 0.92868 0.98363 0.0
C851 C 0.15123 0.98937 0.0431 0.0
C852 C 0.15376 0.95004 0.0253 0.0
H853 H 0.1151 0.03488 0.05723 0.0
H854 H 0.17445 0.0062 0.06128 0.0
C855 C 0.12285 0.92957 1.00177 0.0
loop_
_geom_bond_atom_site_label_1
_geom_bond_atom_site_label_2
_geom_bond_distance
_geom_bond_site_symmetry_2
_ccdc_geom_bond_type
C0 N1 1.317 . S
C0 N2 1.332 1_465 S
C0 C3 1.485 . S
N1 C0 1.317 . S
N1 N5 1.370 1_565 S
N2 C0 1.332 1_645 S
N2 C4 1.368 . S
C3 C0 1.485 . S
C3 H7 0.960 . S
C3 H8 0.961 . S
C3 H9 0.960 . S
C4 N2 1.368 . S
C4 N5 1.307 1_655 S
C4 C6 1.486 . S
N5 N1 1.370 1_545 S
N5 C4 1.307 1_455 S
C6 C4 1.486 . S
C6 H10 0.960 . S
C6 H11 0.960 . S
C6 H12 0.959 . S
H7 C3 0.960 . S
H8 C3 0.961 . S
H9 C3 0.960 . S
H10 C6 0.960 . S
H11 C6 0.960 . S
H12 C6 0.959 . S
C13 N14 1.317 . S
C13 N15 1.348 . S
C13 C16 1.485 . S
N14 C13 1.317 . S
N14 N18 1.370 . S
N15 C13 1.348 . S
N15 C17 1.346 . S
C16 C13 1.485 . S
C16 H20 0.960 . S
C16 H21 0.961 . S
C16 H22 0.960 . S
C17 N15 1.346 . S
C17 N18 1.307 . S
C17 C19 1.486 . S
N18 N14 1.370 . S
N18 C17 1.307 . S
C19 C17 1.486 . S
C19 H23 0.960 . S
C19 H24 0.960 . S
C19 H25 0.959 . S
H20 C16 0.960 . S
H21 C16 0.961 . S
H22 C16 0.960 . S
H23 C19 0.960 . S
H24 C19 0.960 . S
H25 C19 0.959 . S
C26 N27 1.317 1_655 S
C26 N28 1.348 . S
C26 C29 1.485 . S
N27 C26 1.317 1_455 S
N27 N31 1.370 1_455 S
N28 C26 1.348 . S
N28 C30 1.346 . S
C29 C26 1.485 . S
C29 H33 0.960 . S
C29 H34 0.961 . S
C29 H35 0.960 1_655 S
C30 N28 1.346 . S
C30 N31 1.307 . S
C30 C32 1.486 . S
N31 N27 1.370 1_655 S
N31 C30 1.307 . S
C32 C30 1.486 . S
C32 H36 0.960 1_554 S
C32 H37 0.960 . S
C32 H38 0.959 1_554 S
H33 C29 0.960 . S
H34 C29 0.961 . S
H35 C29 0.960 1_455 S
H36 C32 0.960 1_556 S
H37 C32 0.960 . S
H38 C32 0.959 1_556 S
C39 N40 1.317 . S
C39 N41 1.348 . S
C39 C42 1.485 . S
N40 C39 1.317 . S
N40 N44 1.370 . S
N41 C39 1.348 . S
N41 C43 1.346 . S
C42 C39 1.485 . S
C42 H46 0.960 . S
C42 H47 0.961 . S
C42 H48 0.960 . S
C43 N41 1.346 . S
C43 N44 1.307 . S
C43 C45 1.486 . S
N44 N40 1.370 . S
N44 C43 1.307 . S
C45 C43 1.486 . S
C45 H49 0.960 . S
C45 H50 0.960 . S
C45 H51 0.959 . S
H46 C42 0.960 . S
H47 C42 0.961 . S
H48 C42 0.960 . S
H49 C45 0.960 . S
H50 C45 0.960 . S
H51 C45 0.959 . S
C52 N53 1.317 . S
C52 N54 1.348 . S
C52 C55 1.485 1_455 S
N53 C52 1.317 . S
N53 N57 1.370 . S
N54 C52 1.348 . S
N54 C56 1.346 1_565 S
C55 C52 1.485 1_655 S
C55 H59 0.960 . S
C55 H60 0.961 . S
C55 H61 0.960 . S
C56 N54 1.346 1_545 S
C56 N57 1.307 1_545 S
C56 C58 1.486 . S
N57 N53 1.370 . S
N57 C56 1.307 1_565 S
C58 C56 1.486 . S
C58 H62 0.960 . S
C58 H63 0.960 . S
C58 H64 0.959 . S
H59 C55 0.960 . S
H60 C55 0.961 . S
H61 C55 0.960 . S
H62 C58 0.960 . S
H63 C58 0.960 . S
H64 C58 0.959 . S
C65 N66 1.317 . S
C65 N67 1.348 . S
C65 C68 1.485 . S
N66 C65 1.317 . S
N66 N70 1.370 . S
N67 C65 1.348 . S
N67 C69 1.346 . S
C68 C65 1.485 . S
C68 H72 0.960 . S
C68 H73 0.961 . S
C68 H74 0.960 . S
C69 N67 1.346 . S
C69 N70 1.307 . S
C69 C71 1.486 . S
N70 N66 1.370 . S
N70 C69 1.307 . S
C71 C69 1.486 . S
C71 H75 0.960 . S
C71 H76 0.960 . S
C71 H77 0.959 . S
H72 C68 0.960 . S
H73 C68 0.961 . S
H74 C68 0.960 . S
H75 C71 0.960 . S
H76 C71 0.960 . S
H77 C71 0.959 . S
C78 N79 1.317 . S
C78 N80 1.348 . S
C78 C81 1.485 . S
N79 C78 1.317 . S
N79 N83 1.370 . S
N80 C78 1.348 . S
N80 C82 1.346 . S
C81 C78 1.485 . S
C81 H85 0.960 . S
C81 H86 0.961 . S
C81 H87 0.960 . S
C82 N80 1.346 . S
C82 N83 1.307 . S
C82 C84 1.486 . S
N83 N79 1.370 . S
N83 C82 1.307 . S
C84 C82 1.486 . S
C84 H88 0.960 . S
C84 H89 0.960 . S
C84 H90 0.959 . S
H85 C81 0.960 . S
H86 C81 0.961 . S
H87 C81 0.960 . S
H88 C84 0.960 . S
H89 C84 0.960 . S
H90 C84 0.959 . S
C91 N92 1.317 . S
C91 N93 1.348 . S
C91 C94 1.485 . S
N92 C91 1.317 . S
N92 N96 1.370 . S
N93 C91 1.348 . S
N93 C95 1.346 . S
C94 C91 1.485 . S
C94 H98 0.960 . S
C94 H99 0.961 . S
C94 H100 0.960 . S
C95 N93 1.346 . S
C95 N96 1.307 . S
C95 C97 1.486 . S
N96 N92 1.370 . S
N96 C95 1.307 . S
C97 C95 1.486 . S
C97 H101 0.960 . S
C97 H102 0.960 . S
C97 H103 0.959 . S
H98 C94 0.960 . S
H99 C94 0.961 . S
H100 C94 0.960 . S
H101 C97 0.960 . S
H102 C97 0.960 . S
H103 C97 0.959 . S
C104 N105 1.317 . S
C104 N106 1.348 . S
C104 C107 1.485 . S
N105 C104 1.317 . S
N105 N109 1.370 . S
N106 C104 1.348 . S
N106 C108 1.346 . S
C107 C104 1.485 . S
C107 H111 0.960 . S
C107 H112 0.961 . S
C107 H113 0.960 . S
C108 N106 1.346 . S
C108 N109 1.307 . S
C108 C110 1.486 . S
N109 N105 1.370 . S
N109 C108 1.307 . S
C110 C108 1.486 . S
C110 H114 0.960 . S
C110 H115 0.960 . S
C110 H116 0.959 . S
H111 C107 0.960 . S
H112 C107 0.961 . S
H113 C107 0.960 . S
H114 C110 0.960 . S
H115 C110 0.960 . S
H116 C110 0.959 . S
C117 N118 1.317 . S
C117 N119 1.348 . S
C117 C120 1.485 1_565 S
N118 C117 1.317 . S
N118 N122 1.370 . S
N119 C117 1.348 . S
N119 C121 1.346 . S
C120 C117 1.485 1_545 S
C120 H124 0.960 . S
C120 H125 0.961 . S
C120 H126 0.960 . S
C121 N119 1.346 . S
C121 N122 1.307 . S
C121 C123 1.486 . S
N122 N118 1.370 . S
N122 C121 1.307 . S
C123 C121 1.486 . S
C123 H127 0.960 . S
C123 H128 0.960 . S
C123 H129 0.959 . S
H124 C120 0.960 . S
H125 C120 0.961 . S
H126 C120 0.960 . S
H127 C123 0.960 . S
H128 C123 0.960 . S
H129 C123 0.959 . S
C130 N131 1.317 . S
C130 N132 1.348 . S
C130 C133 1.485 . S
N131 C130 1.317 . S
N131 N135 1.370 . S
N132 C130 1.348 . S
N132 C134 1.346 . S
C133 C130 1.485 . S
C133 H137 0.960 . S
C133 H138 0.961 . S
C133 H139 0.960 . S
C134 N132 1.346 . S
C134 N135 1.307 . S
C134 C136 1.486 . S
N135 N131 1.370 . S
N135 C134 1.307 . S
C136 C134 1.486 . S
C136 H140 0.960 . S
C136 H141 0.960 . S
C136 H142 0.959 . S
H137 C133 0.960 . S
H138 C133 0.961 . S
H139 C133 0.960 . S
H140 C136 0.960 . S
H141 C136 0.960 . S
H142 C136 0.959 . S
C143 N144 1.317 . S
C143 N145 1.348 . S
C143 C146 1.485 . S
N144 C143 1.317 . S
N144 N148 1.370 . S
N145 C143 1.348 . S
N145 C147 1.346 . S
C146 C143 1.485 . S
C146 H150 0.960 . S
C146 H151 0.961 . S
C146 H152 0.960 . S
C147 N145 1.346 . S
C147 N148 1.307 . S
C147 C149 1.486 . S
N148 N144 1.370 . S
N148 C147 1.307 . S
C149 C147 1.486 . S
C149 H153 0.960 . S
C149 H154 0.960 . S
C149 H155 0.959 . S
H150 C146 0.960 . S
H151 C146 0.961 . S
H152 C146 0.960 . S
H153 C149 0.960 . S
H154 C149 0.960 . S
H155 C149 0.959 . S
C156 N157 1.317 . S
C156 N158 1.348 . S
C156 C159 1.485 . S
N157 C156 1.317 . S
N157 N161 1.370 . S
N158 C156 1.348 . S
N158 C160 1.346 . S
C159 C156 1.485 . S
C159 H163 0.960 . S
C159 H164 0.961 . S
C159 H165 0.960 . S
C160 N158 1.346 . S
C160 N161 1.307 . S
C160 C162 1.486 . S
N161 N157 1.370 . S
N161 C160 1.307 . S
C162 C160 1.486 . S
C162 H166 0.960 . S
C162 H167 0.960 . S
C162 H168 0.959 . S
H163 C159 0.960 . S
H164 C159 0.961 . S
H165 C159 0.960 . S
H166 C162 0.960 . S
H167 C162 0.960 . S
H168 C162 0.959 . S
C169 N170 1.317 . S
C169 N171 1.348 . S
C169 C172 1.485 . S
N170 C169 1.317 . S
N170 N174 1.370 . S
N171 C169 1.348 . S
N171 C173 1.346 . S
C172 C169 1.485 . S
C172 H176 0.960 . S
C172 H177 0.961 . S
C172 H178 0.960 . S
C173 N171 1.346 . S
C173 N174 1.307 . S
C173 C175 1.486 . S
N174 N170 1.370 . S
N174 C173 1.307 . S
C175 C173 1.486 . S
C175 H179 0.960 . S
C175 H180 0.960 . S
C175 H181 0.959 . S
H176 C172 0.960 . S
H177 C172 0.961 . S
H178 C172 0.960 . S
H179 C175 0.960 . S
H180 C175 0.960 . S
H181 C175 0.959 . S
C182 N183 1.317 . S
C182 N184 1.348 . S
C182 C185 1.485 . S
N183 C182 1.317 . S
N183 N187 1.370 . S
N184 C182 1.348 . S
N184 C186 1.346 . S
C185 C182 1.485 . S
C185 H189 0.960 . S
C185 H190 0.961 . S
C185 H191 0.960 . S
C186 N184 1.346 . S
C186 N187 1.307 . S
C186 C188 1.486 . S
N187 N183 1.370 . S
N187 C186 1.307 . S
C188 C186 1.486 . S
C188 H192 0.960 . S
C188 H193 0.960 . S
C188 H194 0.959 . S
H189 C185 0.960 . S
H190 C185 0.961 . S
H191 C185 0.960 . S
H192 C188 0.960 . S
H193 C188 0.960 . S
H194 C188 0.959 . S
C195 N196 1.317 . S
C195 N197 1.348 . S
C195 C198 1.485 1_545 S
N196 C195 1.317 . S
N196 N200 1.370 . S
N197 C195 1.348 . S
N197 C199 1.346 1_556 S
C198 C195 1.485 1_565 S
C198 H202 0.960 . S
C198 H203 0.961 . S
C198 H204 0.960 . S
C199 N197 1.346 1_554 S
C199 N200 1.307 1_554 S
C199 C201 1.486 . S
N200 N196 1.370 . S
N200 C199 1.307 1_556 S
C201 C199 1.486 . S
C201 H205 0.960 . S
C201 H206 0.960 . S
C201 H207 0.959 . S
H202 C198 0.960 . S
H203 C198 0.961 . S
H204 C198 0.960 . S
H205 C201 0.960 . S
H206 C201 0.960 . S
H207 C201 0.959 . S
Mg208 O209 2.028 . S
Mg208 O215 1.986 1_554 S
Mg208 O217 2.114 . S
Mg208 O218 2.251 . S
Mg208 O221 2.010 . S
O209 Mg208 2.028 . S
O209 C212 1.250 . S
O210 Mg211 2.029 1_554 S
O210 C212 1.250 . S
Mg211 O210 2.029 1_556 S
Mg211 O216 2.032 . S
Mg211 O218 2.079 1_556 S
C212 O209 1.250 . S
C212 O210 1.250 . S
C213 O214 1.264 . S
C213 O221 1.249 . S
O214 C213 1.264 . S
O215 Mg208 1.986 1_556 S
O215 C219 1.246 . S
O216 Mg211 2.032 . S
O216 C219 1.259 . S
O217 Mg208 2.114 . S
O217 C220 1.252 . S
O218 Mg208 2.251 . S
O218 Mg211 2.079 1_554 S
O218 C220 1.273 . S
C219 O215 1.246 . S
C219 O216 1.259 . S
C220 O217 1.252 . S
C220 O218 1.273 . S
O221 Mg208 2.010 . S
O221 C213 1.249 . S
Mg222 O223 2.028 . S
Mg222 O229 1.986 . S
Mg222 O231 2.114 . S
Mg222 O232 2.251 . S
Mg222 O235 2.010 . S
O223 Mg222 2.028 . S
O223 C226 1.250 . S
O224 Mg225 2.028 . S
O224 C226 1.248 . S
Mg225 O224 2.028 . S
Mg225 O230 2.032 . S
Mg225 O232 2.079 . S
C226 O223 1.250 . S
C226 O224 1.248 . S
C227 O228 1.264 . S
C227 O235 1.249 . S
O228 C227 1.264 . S
O229 Mg222 1.986 . S
O229 C233 1.246 . S
O230 Mg225 2.032 . S
O230 C233 1.259 . S
O231 Mg222 2.114 . S
O231 C234 1.252 . S
O232 Mg222 2.251 . S
O232 Mg225 2.079 . S
O232 C234 1.273 . S
C233 O229 1.246 . S
C233 O230 1.259 . S
C234 O231 1.252 . S
C234 O232 1.273 . S
O235 Mg222 2.010 . S
O235 C227 1.249 . S
Mg236 O237 2.028 . S
Mg236 O243 1.986 1_554 S
Mg236 O245 2.114 . S
Mg236 O246 2.251 . S
Mg236 O249 2.010 . S
O237 Mg236 2.028 . S
O237 C240 1.250 1_554 S
O238 Mg239 2.028 1_556 S
O238 C240 1.248 . S
Mg239 O238 2.028 1_554 S
Mg239 O244 2.032 1_554 S
Mg239 O246 2.079 . S
C240 O237 1.250 1_556 S
C240 O238 1.248 . S
C241 O242 1.264 . S
C241 O249 1.249 . S
O242 C241 1.264 . S
O243 Mg236 1.986 1_556 S
O243 C247 1.246 . S
O244 Mg239 2.032 1_556 S
O244 C247 1.259 . S
O245 Mg236 2.114 . S
O245 C248 1.252 . S
O246 Mg236 2.251 . S
O246 Mg239 2.079 . S
O246 C248 1.273 . S
C247 O243 1.246 . S
C247 O244 1.259 . S
C248 O245 1.252 . S
C248 O246 1.273 . S
O249 Mg236 2.010 . S
O249 C241 1.249 . S
Mg250 O251 2.028 1_545 S
Mg250 O257 1.986 . S
Mg250 O259 2.114 . S
Mg250 O260 2.251 1_545 S
Mg250 O263 2.010 . S
O251 Mg250 2.028 1_565 S
O251 C254 1.250 . S
O252 Mg253 2.028 . S
O252 C254 1.248 . S
Mg253 O252 2.028 . S
Mg253 O258 2.032 . S
Mg253 O260 2.079 . S
C254 O251 1.250 . S
C254 O252 1.248 . S
C255 O256 1.264 . S
C255 O263 1.249 . S
O256 C255 1.264 . S
O257 Mg250 1.986 . S
O257 C261 1.246 . S
O258 Mg253 2.032 . S
O258 C261 1.259 1_565 S
O259 Mg250 2.114 . S
O259 C262 1.252 . S
O260 Mg250 2.251 1_565 S
O260 Mg253 2.079 . S
O260 C262 1.273 1_565 S
C261 O257 1.246 . S
C261 O258 1.259 1_545 S
C262 O259 1.252 . S
C262 O260 1.273 1_545 S
O263 Mg250 2.010 . S
O263 C255 1.249 . S
Mg264 O265 2.028 . S
Mg264 O271 1.986 . S
Mg264 O273 2.114 . S
Mg264 O274 2.251 . S
Mg264 O277 2.010 . S
O265 Mg264 2.028 . S
O265 C268 1.250 . S
O266 Mg267 2.028 . S
O266 C268 1.248 . S
Mg267 O266 2.028 . S
Mg267 O272 2.032 . S
Mg267 O274 2.079 . S
C268 O265 1.250 . S
C268 O266 1.248 . S
C269 O270 1.264 . S
C269 O277 1.249 . S
O270 C269 1.264 . S
O271 Mg264 1.986 . S
O271 C275 1.246 . S
O272 Mg267 2.032 . S
O272 C275 1.259 . S
O273 Mg264 2.114 . S
O273 C276 1.252 . S
O274 Mg264 2.251 . S
O274 Mg267 2.079 . S
O274 C276 1.273 . S
C275 O271 1.246 . S
C275 O272 1.259 . S
C276 O273 1.252 . S
C276 O274 1.273 . S
O277 Mg264 2.010 . S
O277 C269 1.249 . S
Mg278 O279 2.028 . S
Mg278 O285 1.986 . S
Mg278 O287 2.114 . S
Mg278 O288 2.251 . S
Mg278 O291 2.010 . S
O279 Mg278 2.028 . S
O279 C282 1.250 . S
O280 Mg281 2.028 . S
O280 C282 1.248 . S
Mg281 O280 2.028 . S
Mg281 O286 2.032 . S
Mg281 O288 2.079 . S
C282 O279 1.250 . S
C282 O280 1.248 . S
C283 O284 1.264 . S
C283 O291 1.249 . S
O284 C283 1.264 . S
O285 Mg278 1.986 . S
O285 C289 1.246 . S
O286 Mg281 2.032 . S
O286 C289 1.259 . S
O287 Mg278 2.114 . S
O287 C290 1.252 . S
O288 Mg278 2.251 . S
O288 Mg281 2.079 . S
O288 C290 1.273 . S
C289 O285 1.246 . S
C289 O286 1.259 . S
C290 O287 1.252 . S
C290 O288 1.273 . S
O291 Mg278 2.010 . S
O291 C283 1.249 . S
Mg292 O293 2.028 . S
Mg292 O299 1.986 . S
Mg292 O301 2.114 . S
Mg292 O302 2.251 . S
Mg292 O305 2.010 . S
O293 Mg292 2.028 . S
O293 C296 1.250 . S
O294 Mg295 2.028 . S
O294 C296 1.248 . S
Mg295 O294 2.028 . S
Mg295 O300 2.032 . S
Mg295 O302 2.079 . S
C296 O293 1.250 . S
C296 O294 1.248 . S
C297 O298 1.264 . S
C297 O305 1.249 . S
O298 C297 1.264 . S
O299 Mg292 1.986 . S
O299 C303 1.246 . S
O300 Mg295 2.032 . S
O300 C303 1.259 . S
O301 Mg292 2.114 . S
O301 C304 1.252 . S
O302 Mg292 2.251 . S
O302 Mg295 2.079 . S
O302 C304 1.273 . S
C303 O299 1.246 . S
C303 O300 1.259 . S
C304 O301 1.252 . S
C304 O302 1.273 . S
O305 Mg292 2.010 . S
O305 C297 1.249 . S
Mg306 O307 2.028 . S
Mg306 O313 1.986 1_545 S
Mg306 O315 2.114 . S
Mg306 O316 2.251 . S
Mg306 O319 2.010 . S
O307 Mg306 2.028 . S
O307 C310 1.250 1_545 S
O308 Mg309 2.028 . S
O308 C310 1.248 . S
Mg309 O308 2.028 . S
Mg309 O314 2.032 . S
Mg309 O316 2.079 1_565 S
C310 O307 1.250 1_565 S
C310 O308 1.248 . S
C311 O312 1.264 . S
C311 O319 1.249 . S
O312 C311 1.264 . S
O313 Mg306 1.986 1_565 S
O313 C317 1.246 . S
O314 Mg309 2.032 . S
O314 C317 1.259 . S
O315 Mg306 2.114 . S
O315 C318 1.252 . S
O316 Mg306 2.251 . S
O316 Mg309 2.079 1_545 S
O316 C318 1.273 . S
C317 O313 1.246 . S
C317 O314 1.259 . S
C318 O315 1.252 . S
C318 O316 1.273 . S
O319 Mg306 2.010 . S
O319 C311 1.249 . S
Mg320 O321 2.028 1_455 S
Mg320 O327 1.986 . S
Mg320 O329 2.114 . S
Mg320 O330 2.251 1_455 S
Mg320 O333 2.010 . S
O321 Mg320 2.028 1_655 S
O321 C324 1.250 . S
O322 Mg323 2.028 . S
O322 C324 1.248 . S
Mg323 O322 2.028 . S
Mg323 O328 2.032 . S
Mg323 O330 2.079 . S
C324 O321 1.250 . S
C324 O322 1.248 . S
C325 O326 1.264 . S
C325 O333 1.249 . S
O326 C325 1.264 . S
O327 Mg320 1.986 . S
O327 C331 1.246 1_455 S
O328 Mg323 2.032 . S
O328 C331 1.259 . S
O329 Mg320 2.114 . S
O329 C332 1.252 . S
O330 Mg320 2.251 1_655 S
O330 Mg323 2.079 . S
O330 C332 1.273 1_655 S
C331 O327 1.246 1_655 S
C331 O328 1.259 . S
C332 O329 1.252 . S
C332 O330 1.273 1_455 S
O333 Mg320 2.010 . S
O333 C325 1.249 . S
Mg334 O335 2.028 . S
Mg334 O341 1.986 . S
Mg334 O343 2.114 . S
Mg334 O344 2.251 . S
Mg334 O347 2.010 . S
O335 Mg334 2.028 . S
O335 C338 1.250 . S
O336 Mg337 2.028 . S
O336 C338 1.248 . S
Mg337 O336 2.028 . S
Mg337 O342 2.032 . S
Mg337 O344 2.079 . S
C338 O335 1.250 . S
C338 O336 1.248 . S
C339 O340 1.264 . S
C339 O347 1.249 . S
O340 C339 1.264 . S
O341 Mg334 1.986 . S
O341 C345 1.246 . S
O342 Mg337 2.032 . S
O342 C345 1.259 . S
O343 Mg334 2.114 . S
O343 C346 1.252 . S
O344 Mg334 2.251 . S
O344 Mg337 2.079 . S
O344 C346 1.273 . S
C345 O341 1.246 . S
C345 O342 1.259 . S
C346 O343 1.252 . S
C346 O344 1.273 . S
O347 Mg334 2.010 . S
O347 C339 1.249 . S
Mg348 O349 2.028 . S
Mg348 O355 1.986 . S
Mg348 O357 2.114 1_455 S
Mg348 O358 2.251 . S
Mg348 O361 2.010 1_455 S
O349 Mg348 2.028 . S
O349 C352 1.250 . S
O350 Mg351 2.028 . S
O350 C352 1.248 . S
Mg351 O350 2.028 . S
Mg351 O356 2.032 . S
Mg351 O358 2.079 . S
C352 O349 1.250 . S
C352 O350 1.248 . S
C353 O354 1.264 . S
C353 O361 1.249 . S
O354 C353 1.264 . S
O355 Mg348 1.986 . S
O355 C359 1.246 . S
O356 Mg351 2.032 . S
O356 C359 1.259 . S
O357 Mg348 2.114 1_655 S
O357 C360 1.252 1_655 S
O358 Mg348 2.251 . S
O358 Mg351 2.079 . S
O358 C360 1.273 . S
C359 O355 1.246 . S
C359 O356 1.259 . S
C360 O357 1.252 1_455 S
C360 O358 1.273 . S
O361 Mg348 2.010 1_655 S
O361 C353 1.249 . S
Mg362 O363 2.028 . S
Mg362 O369 1.986 . S
Mg362 O371 2.114 . S
Mg362 O372 2.251 . S
Mg362 O375 2.010 . S
O363 Mg362 2.028 . S
O363 C366 1.250 . S
O364 Mg365 2.028 . S
O364 C366 1.248 . S
Mg365 O364 2.028 . S
Mg365 O370 2.032 . S
Mg365 O372 2.079 . S
C366 O363 1.250 . S
C366 O364 1.248 . S
C367 O368 1.264 . S
C367 O375 1.249 . S
O368 C367 1.264 . S
O369 Mg362 1.986 . S
O369 C373 1.246 . S
O370 Mg365 2.032 . S
O370 C373 1.259 . S
O371 Mg362 2.114 . S
O371 C374 1.252 . S
O372 Mg362 2.251 . S
O372 Mg365 2.079 . S
O372 C374 1.273 . S
C373 O369 1.246 . S
C373 O370 1.259 . S
C374 O371 1.252 . S
C374 O372 1.273 . S
O375 Mg362 2.010 . S
O375 C367 1.249 . S
C376 C377 1.387 . S
C376 H380 0.950 . S
C376 C385 1.390 . S
C377 C376 1.387 . S
C377 C379 1.387 . S
H378 C385 0.950 . S
C379 C377 1.387 . S
C379 C381 1.390 . S
C379 H383 0.950 . S
H380 C376 0.950 . S
C381 C379 1.390 . S
C381 C382 1.387 . S
C381 H384 0.950 . S
C382 C381 1.387 . S
C382 C385 1.387 . S
H383 C379 0.950 . S
H384 C381 0.950 . S
C385 C376 1.390 . S
C385 H378 0.950 . S
C385 C382 1.387 . S
C386 C387 1.387 . S
C386 H390 0.950 . S
C386 C395 1.390 . S
C387 C386 1.387 . S
C387 C389 1.387 . S
H388 C395 0.950 . S
C389 C387 1.387 . S
C389 C391 1.390 . S
C389 H393 0.950 1_455 S
H390 C386 0.950 . S
C391 C389 1.390 . S
C391 C392 1.387 . S
C391 H394 0.950 . S
C392 C391 1.387 . S
C392 C395 1.387 . S
H393 C389 0.950 1_655 S
H394 C391 0.950 . S
C395 C386 1.390 . S
C395 H388 0.950 . S
C395 C392 1.387 . S
C396 C397 1.387 . S
C396 H400 0.950 . S
C396 C405 1.390 . S
C397 C396 1.387 . S
C397 C399 1.387 . S
H398 C405 0.950 . S
C399 C397 1.387 . S
C399 C401 1.390 . S
C399 H403 0.950 . S
H400 C396 0.950 . S
C401 C399 1.390 . S
C401 C402 1.387 . S
C401 H404 0.950 . S
C402 C401 1.387 . S
C402 C405 1.387 . S
H403 C399 0.950 . S
H404 C401 0.950 . S
C405 C396 1.390 . S
C405 H398 0.950 . S
C405 C402 1.387 . S
C406 C407 1.380 1_655 S
C406 H410 0.950 . S
C406 C415 1.390 . S
C407 C406 1.380 1_455 S
C407 C409 1.374 1_465 S
H408 C415 0.950 . S
C409 C407 1.374 1_645 S
C409 C411 1.390 . S
C409 H413 0.950 . S
H410 C406 0.950 . S
C411 C409 1.390 . S
C411 C412 1.387 . S
C411 H414 0.950 . S
C412 C411 1.387 . S
C412 C415 1.387 1_545 S
H413 C409 0.950 . S
H414 C411 0.950 . S
C415 C406 1.390 . S
C415 H408 0.950 . S
C415 C412 1.387 1_565 S
C416 C417 1.387 . S
C416 H420 0.950 . S
C416 C425 1.390 . S
C417 C416 1.387 . S
C417 C419 1.387 . S
H418 C425 0.950 . S
C419 C417 1.387 . S
C419 C421 1.390 . S
C419 H423 0.950 . S
H420 C416 0.950 . S
C421 C419 1.390 . S
C421 C422 1.387 . S
C421 H424 0.950 . S
C422 C421 1.387 . S
C422 C425 1.387 . S
H423 C419 0.950 . S
H424 C421 0.950 . S
C425 C416 1.390 . S
C425 H418 0.950 . S
C425 C422 1.387 . S
C426 C427 1.387 . S
C426 H430 0.950 . S
C426 C435 1.390 . S
C427 C426 1.387 . S
C427 C429 1.387 . S
H428 C435 0.950 . S
C429 C427 1.387 . S
C429 C431 1.390 . S
C429 H433 0.950 . S
H430 C426 0.950 . S
C431 C429 1.390 . S
C431 C432 1.387 . S
C431 H434 0.950 . S
C432 C431 1.387 . S
C432 C435 1.387 . S
H433 C429 0.950 . S
H434 C431 0.950 . S
C435 C426 1.390 . S
C435 H428 0.950 . S
C435 C432 1.387 . S
C436 C437 1.387 . S
C436 H440 0.950 . S
C436 C445 1.390 . S
C437 C436 1.387 . S
C437 C439 1.387 . S
H438 C445 0.950 . S
C439 C437 1.387 . S
C439 C441 1.390 . S
C439 H443 0.950 . S
H440 C436 0.950 . S
C441 C439 1.390 . S
C441 C442 1.387 . S
C441 H444 0.950 . S
C442 C441 1.387 . S
C442 C445 1.387 . S
H443 C439 0.950 . S
H444 C441 0.950 . S
C445 C436 1.390 . S
C445 H438 0.950 . S
C445 C442 1.387 . S
C446 C447 1.387 . S
C446 H450 0.950 . S
C446 C455 1.390 . S
C447 C446 1.387 . S
C447 C449 1.387 1_565 S
H448 C455 0.950 . S
C449 C447 1.387 1_545 S
C449 C451 1.390 . S
C449 H453 0.950 . S
H450 C446 0.950 . S
C451 C449 1.390 . S
C451 C452 1.387 1_545 S
C451 H454 0.950 . S
C452 C451 1.387 1_565 S
C452 C455 1.387 . S
H453 C449 0.950 . S
H454 C451 0.950 . S
C455 C446 1.390 . S
C455 H448 0.950 . S
C455 C452 1.387 . S
C456 C457 1.387 . S
C456 H460 0.950 . S
C456 C465 1.390 . S
C457 C456 1.387 . S
C457 C459 1.387 . S
H458 C465 0.950 . S
C459 C457 1.387 . S
C459 C461 1.390 . S
C459 H463 0.950 . S
H460 C456 0.950 . S
C461 C459 1.390 . S
C461 C462 1.387 . S
C461 H464 0.950 . S
C462 C461 1.387 . S
C462 C465 1.387 . S
H463 C459 0.950 . S
H464 C461 0.950 . S
C465 C456 1.390 . S
C465 H458 0.950 . S
C465 C462 1.387 . S
C466 C467 1.387 . S
C466 H470 0.950 . S
C466 C475 1.390 . S
C467 C466 1.387 . S
C467 C469 1.387 . S
H468 C475 0.950 . S
C469 C467 1.387 . S
C469 C471 1.390 . S
C469 H473 0.950 . S
H470 C466 0.950 . S
C471 C469 1.390 . S
C471 C472 1.387 . S
C471 H474 0.950 . S
C472 C471 1.387 . S
C472 C475 1.387 . S
H473 C469 0.950 . S
H474 C471 0.950 . S
C475 C466 1.390 . S
C475 H468 0.950 . S
C475 C472 1.387 . S
C476 C477 1.387 . S
C476 H480 0.950 . S
C476 C485 1.390 . S
C477 C476 1.387 . S
C477 C479 1.387 . S
H478 C485 0.950 . S
C479 C477 1.387 . S
C479 C481 1.390 . S
C479 H483 0.950 . S
H480 C476 0.950 . S
C481 C479 1.390 . S
C481 C482 1.387 . S
C481 H484 0.950 . S
C482 C481 1.387 . S
C482 C485 1.387 . S
H483 C479 0.950 . S
H484 C481 0.950 . S
C485 C476 1.390 . S
C485 H478 0.950 . S
C485 C482 1.387 . S
C486 C487 1.387 . S
C486 H490 0.950 . S
C486 C495 1.390 . S
C487 C486 1.387 . S
C487 C489 1.387 . S
H488 C495 0.950 . S
C489 C487 1.387 . S
C489 C491 1.390 . S
C489 H493 0.950 . S
H490 C486 0.950 . S
C491 C489 1.390 . S
C491 C492 1.387 . S
C491 H494 0.950 . S
C492 C491 1.387 . S
C492 C495 1.387 . S
H493 C489 0.950 . S
H494 C491 0.950 . S
C495 C486 1.390 . S
C495 H488 0.950 . S
C495 C492 1.387 . S
C496 C497 1.387 . S
C496 H500 0.950 . S
C496 C505 1.390 . S
C497 C496 1.387 . S
C497 C499 1.387 . S
H498 C505 0.950 . S
C499 C497 1.387 . S
C499 C501 1.390 . S
C499 H503 0.950 . S
H500 C496 0.950 . S
C501 C499 1.390 . S
C501 C502 1.387 . S
C501 H504 0.950 . S
C502 C501 1.387 . S
C502 C505 1.387 . S
H503 C499 0.950 . S
H504 C501 0.950 . S
C505 C496 1.390 . S
C505 H498 0.950 . S
C505 C502 1.387 . S
C506 C507 1.387 . S
C506 H510 0.950 . S
C506 C515 1.390 . S
C507 C506 1.387 . S
C507 C509 1.387 . S
H508 C515 0.950 . S
C509 C507 1.387 . S
C509 C511 1.390 . S
C509 H513 0.950 . S
H510 C506 0.950 . S
C511 C509 1.390 . S
C511 C512 1.387 . S
C511 H514 0.950 . S
C512 C511 1.387 . S
C512 C515 1.387 . S
H513 C509 0.950 . S
H514 C511 0.950 . S
C515 C506 1.390 . S
C515 H508 0.950 . S
C515 C512 1.387 . S
C516 C517 1.387 . S
C516 H520 0.950 . S
C516 C525 1.390 . S
C517 C516 1.387 . S
C517 C519 1.387 . S
H518 C525 0.950 . S
C519 C517 1.387 . S
C519 C521 1.390 . S
C519 H523 0.950 . S
H520 C516 0.950 . S
C521 C519 1.390 . S
C521 C522 1.387 . S
C521 H524 0.950 . S
C522 C521 1.387 . S
C522 C525 1.387 . S
H523 C519 0.950 . S
H524 C521 0.950 . S
C525 C516 1.390 . S
C525 H518 0.950 . S
C525 C522 1.387 . S
C526 C527 1.387 . S
C526 H530 0.950 . S
C526 C535 1.390 . S
C527 C526 1.387 . S
C527 C529 1.387 . S
H528 C535 0.950 . S
C529 C527 1.387 . S
C529 C531 1.390 1_655 S
C529 H533 0.950 1_655 S
H530 C526 0.950 . S
C531 C529 1.390 1_455 S
C531 C532 1.387 1_455 S
C531 H534 0.950 . S
C532 C531 1.387 1_655 S
C532 C535 1.387 . S
H533 C529 0.950 1_455 S
H534 C531 0.950 . S
C535 C526 1.390 . S
C535 H528 0.950 . S
C535 C532 1.387 . S
C536 C537 1.387 . S
C536 H540 0.950 . S
C536 C545 1.390 . S
C537 C536 1.387 . S
C537 C539 1.387 . S
H538 C545 0.950 . S
C539 C537 1.387 . S
C539 C541 1.390 . S
C539 H543 0.950 . S
H540 C536 0.950 . S
C541 C539 1.390 . S
C541 C542 1.387 . S
C541 H544 0.950 . S
C542 C541 1.387 . S
C542 C545 1.387 . S
H543 C539 0.950 . S
H544 C541 0.950 . S
C545 C536 1.390 . S
C545 H538 0.950 . S
C545 C542 1.387 . S
C546 C547 1.387 . S
C546 H550 0.950 . S
C546 C555 1.390 . S
C547 C546 1.387 . S
C547 C549 1.387 . S
H548 C555 0.950 . S
C549 C547 1.387 . S
C549 C551 1.390 . S
C549 H553 0.950 . S
H550 C546 0.950 . S
C551 C549 1.390 . S
C551 C552 1.387 . S
C551 H554 0.950 . S
C552 C551 1.387 . S
C552 C555 1.387 . S
H553 C549 0.950 . S
H554 C551 0.950 . S
C555 C546 1.390 . S
C555 H548 0.950 . S
C555 C552 1.387 . S
C556 C557 1.387 1_554 S
C556 H560 0.950 1_565 S
C556 C565 1.390 . S
C557 C556 1.387 1_556 S
C557 C559 1.387 . S
H558 C565 0.950 . S
C559 C557 1.387 . S
C559 C561 1.390 . S
C559 H563 0.950 . S
H560 C556 0.950 1_545 S
C561 C559 1.390 . S
C561 C562 1.387 1_556 S
C561 H564 0.950 . S
C562 C561 1.387 1_554 S
C562 C565 1.387 . S
H563 C559 0.950 . S
H564 C561 0.950 . S
C565 C556 1.390 . S
C565 H558 0.950 . S
C565 C562 1.387 . S
C566 C567 1.387 . S
C566 H570 0.950 . S
C566 C575 1.390 . S
C567 C566 1.387 . S
C567 C569 1.387 . S
H568 C575 0.950 . S
C569 C567 1.387 . S
C569 C571 1.390 . S
C569 H573 0.950 . S
H570 C566 0.950 . S
C571 C569 1.390 . S
C571 C572 1.387 . S
C571 H574 0.950 . S
C572 C571 1.387 . S
C572 C575 1.387 . S
H573 C569 0.950 . S
H574 C571 0.950 . S
C575 C566 1.390 . S
C575 H568 0.950 . S
C575 C572 1.387 . S
C576 C577 1.387 . S
C576 H580 0.950 . S
C576 C585 1.390 . S
C577 C576 1.387 . S
C577 C579 1.387 . S
H578 C585 0.950 . S
C579 C577 1.387 . S
C579 C581 1.390 . S
C579 H583 0.950 . S
H580 C576 0.950 . S
C581 C579 1.390 . S
C581 C582 1.387 . S
C581 H584 0.950 . S
C582 C581 1.387 . S
C582 C585 1.387 . S
H583 C579 0.950 . S
H584 C581 0.950 . S
C585 C576 1.390 . S
C585 H578 0.950 . S
C585 C582 1.387 . S
C586 C587 1.387 . S
C586 H590 0.950 . S
C586 C595 1.390 . S
C587 C586 1.387 . S
C587 C589 1.387 . S
H588 C595 0.950 . S
C589 C587 1.387 . S
C589 C591 1.390 . S
C589 H593 0.950 . S
H590 C586 0.950 . S
C591 C589 1.390 . S
C591 C592 1.387 . S
C591 H594 0.950 . S
C592 C591 1.387 . S
C592 C595 1.387 . S
H593 C589 0.950 . S
H594 C591 0.950 . S
C595 C586 1.390 . S
C595 H588 0.950 . S
C595 C592 1.387 . S
C596 C597 1.387 . S
C596 H600 0.950 . S
C596 C605 1.390 . S
C597 C596 1.387 . S
C597 C599 1.387 1_545 S
H598 C605 0.950 . S
C599 C597 1.387 1_565 S
C599 C601 1.390 1_565 S
C599 H603 0.950 . S
H600 C596 0.950 . S
C601 C599 1.390 1_545 S
C601 C602 1.387 . S
C601 H604 0.950 . S
C602 C601 1.387 . S
C602 C605 1.387 . S
H603 C599 0.950 . S
H604 C601 0.950 . S
C605 C596 1.390 . S
C605 H598 0.950 . S
C605 C602 1.387 . S
C606 C607 1.387 . S
C606 H610 0.950 . S
C606 C615 1.390 . S
C607 C606 1.387 . S
C607 C609 1.387 . S
H608 C615 0.950 . S
C609 C607 1.387 . S
C609 C611 1.390 . S
C609 H613 0.950 . S
H610 C606 0.950 . S
C611 C609 1.390 . S
C611 C612 1.387 . S
C611 H614 0.950 . S
C612 C611 1.387 . S
C612 C615 1.387 . S
H613 C609 0.950 . S
H614 C611 0.950 . S
C615 C606 1.390 . S
C615 H608 0.950 . S
C615 C612 1.387 . S
C616 C617 1.387 . S
C616 H620 0.950 . S
C616 C625 1.390 . S
C617 C616 1.387 . S
C617 C619 1.387 . S
H618 C625 0.950 . S
C619 C617 1.387 . S
C619 C621 1.390 . S
C619 H623 0.950 . S
H620 C616 0.950 . S
C621 C619 1.390 . S
C621 C622 1.387 . S
C621 H624 0.950 . S
C622 C621 1.387 . S
C622 C625 1.387 . S
H623 C619 0.950 . S
H624 C621 0.950 . S
C625 C616 1.390 . S
C625 H618 0.950 . S
C625 C622 1.387 . S
C626 C627 1.387 . S
C626 H630 0.950 . S
C626 C635 1.390 . S
C627 C626 1.387 . S
C627 C629 1.369 1_545 S
H628 C635 0.950 . S
C629 C627 1.369 1_565 S
C629 C631 1.392 . S
C629 H633 0.966 . S
H630 C626 0.950 . S
C631 C629 1.392 . S
C631 C632 1.387 1_565 S
C631 H634 0.950 . S
C632 C631 1.387 1_545 S
C632 C635 1.387 . S
H633 C629 0.966 . S
H634 C631 0.950 . S
C635 C626 1.390 . S
C635 H628 0.950 . S
C635 C632 1.387 . S
C636 C637 1.387 . S
C636 H640 0.950 . S
C636 C645 1.390 . S
C637 C636 1.387 . S
C637 C639 1.387 . S
H638 C645 0.950 . S
C639 C637 1.387 . S
C639 C641 1.390 . S
C639 H643 0.950 . S
H640 C636 0.950 . S
C641 C639 1.390 . S
C641 C642 1.387 . S
C641 H644 0.950 . S
C642 C641 1.387 . S
C642 C645 1.387 . S
H643 C639 0.950 . S
H644 C641 0.950 . S
C645 C636 1.390 . S
C645 H638 0.950 . S
C645 C642 1.387 . S
C646 C647 1.387 . S
C646 H650 0.950 . S
C646 C655 1.390 . S
C647 C646 1.387 . S
C647 C649 1.387 . S
H648 C655 0.950 . S
C649 C647 1.387 . S
C649 C651 1.390 . S
C649 H653 0.950 . S
H650 C646 0.950 . S
C651 C649 1.390 . S
C651 C652 1.387 . S
C651 H654 0.950 . S
C652 C651 1.387 . S
C652 C655 1.387 . S
H653 C649 0.950 . S
H654 C651 0.950 . S
C655 C646 1.390 . S
C655 H648 0.950 . S
C655 C652 1.387 . S
C656 C657 1.387 . S
C656 H660 0.950 . S
C656 C665 1.390 . S
C657 C656 1.387 . S
C657 C659 1.387 . S
H658 C665 0.950 . S
C659 C657 1.387 . S
C659 C661 1.390 . S
C659 H663 0.950 . S
H660 C656 0.950 . S
C661 C659 1.390 . S
C661 C662 1.387 . S
C661 H664 0.950 . S
C662 C661 1.387 . S
C662 C665 1.387 . S
H663 C659 0.950 . S
H664 C661 0.950 . S
C665 C656 1.390 . S
C665 H658 0.950 . S
C665 C662 1.387 . S
C666 C667 1.366 1_545 S
C666 H670 0.950 . S
C666 C675 1.390 . S
C667 C666 1.366 1_565 S
C667 C669 1.409 . S
H668 C675 0.950 . S
C669 C667 1.409 . S
C669 C671 1.390 . S
C669 H673 0.950 . S
H670 C666 0.950 . S
C671 C669 1.390 . S
C671 C672 1.387 1_565 S
C671 H674 0.950 . S
C672 C671 1.387 1_545 S
C672 C675 1.387 . S
H673 C669 0.950 . S
H674 C671 0.950 . S
C675 C666 1.390 . S
C675 H668 0.950 . S
C675 C672 1.387 . S
C676 C677 1.387 . S
C676 H680 0.950 . S
C676 C685 1.390 . S
C677 C676 1.387 . S
C677 C679 1.387 . S
H678 C685 0.950 . S
C679 C677 1.387 . S
C679 C681 1.390 . S
C679 H683 0.950 . S
H680 C676 0.950 . S
C681 C679 1.390 . S
C681 C682 1.387 . S
C681 H684 0.950 . S
C682 C681 1.387 . S
C682 C685 1.387 . S
H683 C679 0.950 . S
H684 C681 0.950 . S
C685 C676 1.390 . S
C685 H678 0.950 . S
C685 C682 1.387 . S
C686 C687 1.387 . S
C686 H690 0.950 . S
C686 C695 1.390 . S
C687 C686 1.387 . S
C687 C689 1.387 . S
H688 C695 0.950 . S
C689 C687 1.387 . S
C689 C691 1.390 . S
C689 H693 0.950 . S
H690 C686 0.950 . S
C691 C689 1.390 . S
C691 C692 1.387 . S
C691 H694 0.950 . S
C692 C691 1.387 . S
C692 C695 1.387 . S
H693 C689 0.950 . S
H694 C691 0.950 . S
C695 C686 1.390 . S
C695 H688 0.950 . S
C695 C692 1.387 . S
C696 C697 1.387 . S
C696 H700 0.950 . S
C696 C705 1.390 . S
C697 C696 1.387 . S
C697 C699 1.387 . S
H698 C705 0.950 . S
C699 C697 1.387 . S
C699 C701 1.390 . S
C699 H703 0.950 . S
H700 C696 0.950 . S
C701 C699 1.390 . S
C701 C702 1.387 . S
C701 H704 0.950 . S
C702 C701 1.387 . S
C702 C705 1.387 . S
H703 C699 0.950 . S
H704 C701 0.950 . S
C705 C696 1.390 . S
C705 H698 0.950 . S
C705 C702 1.387 . S
C706 C707 1.387 1_455 S
C706 H710 0.950 . S
C706 C715 1.390 1_554 S
C707 C706 1.387 1_655 S
C707 C709 1.387 . S
H708 C715 0.950 . S
C709 C707 1.387 . S
C709 C711 1.390 . S
C709 H713 0.950 . S
H710 C706 0.950 . S
C711 C709 1.390 . S
C711 C712 1.387 1_654 S
C711 H714 0.950 . S
C712 C711 1.387 1_456 S
C712 C715 1.387 . S
H713 C709 0.950 . S
H714 C711 0.950 . S
C715 C706 1.390 1_556 S
C715 H708 0.950 . S
C715 C712 1.387 . S
C716 C717 1.387 . S
C716 H720 0.950 . S
C716 C725 1.390 . S
C717 C716 1.387 . S
C717 C719 1.387 . S
H718 C725 0.950 . S
C719 C717 1.387 . S
C719 C721 1.390 . S
C719 H723 0.950 . S
H720 C716 0.950 . S
C721 C719 1.390 . S
C721 C722 1.387 . S
C721 H724 0.950 . S
C722 C721 1.387 . S
C722 C725 1.387 . S
H723 C719 0.950 . S
H724 C721 0.950 . S
C725 C716 1.390 . S
C725 H718 0.950 . S
C725 C722 1.387 . S
C726 C727 1.390 1_655 S
C726 H730 0.950 . S
C726 C735 1.390 . S
C727 C726 1.390 1_455 S
C727 C729 1.388 1_556 S
H728 C735 0.950 . S
C729 C727 1.388 1_554 S
C729 C731 1.390 1_554 S
C729 H733 0.950 . S
H730 C726 0.950 . S
C731 C729 1.390 1_556 S
C731 C732 1.387 . S
C731 H734 0.950 . S
C732 C731 1.387 . S
C732 C735 1.387 1_455 S
H733 C729 0.950 . S
H734 C731 0.950 . S
C735 C726 1.390 . S
C735 H728 0.950 . S
C735 C732 1.387 1_655 S
C736 C737 1.387 . S
C736 H740 0.950 . S
C736 C745 1.390 . S
C737 C736 1.387 . S
C737 C739 1.387 . S
H738 C745 0.950 . S
C739 C737 1.387 . S
C739 C741 1.390 . S
C739 H743 0.950 . S
H740 C736 0.950 . S
C741 C739 1.390 . S
C741 C742 1.387 . S
C741 H744 0.950 . S
C742 C741 1.387 . S
C742 C745 1.387 . S
H743 C739 0.950 . S
H744 C741 0.950 . S
C745 C736 1.390 . S
C745 H738 0.950 . S
C745 C742 1.387 . S
C746 C747 1.387 . S
C746 H750 0.950 . S
C746 C755 1.390 . S
C747 C746 1.387 . S
C747 C749 1.387 . S
H748 C755 0.950 . S
C749 C747 1.387 . S
C749 C751 1.390 . S
C749 H753 0.950 . S
H750 C746 0.950 . S
C751 C749 1.390 . S
C751 C752 1.387 . S
C751 H754 0.950 . S
C752 C751 1.387 . S
C752 C755 1.387 . S
H753 C749 0.950 . S
H754 C751 0.950 . S
C755 C746 1.390 . S
C755 H748 0.950 . S
C755 C752 1.387 . S
C756 C757 1.387 . S
C756 H760 0.950 . S
C756 C765 1.390 . S
C757 C756 1.387 . S
C757 C759 1.387 . S
H758 C765 0.950 . S
C759 C757 1.387 . S
C759 C761 1.390 . S
C759 H763 0.950 . S
H760 C756 0.950 . S
C761 C759 1.390 . S
C761 C762 1.387 . S
C761 H764 0.950 . S
C762 C761 1.387 . S
C762 C765 1.387 . S
H763 C759 0.950 . S
H764 C761 0.950 . S
C765 C756 1.390 . S
C765 H758 0.950 . S
C765 C762 1.387 . S
C766 C767 1.387 . S
C766 H770 0.950 . S
C766 C775 1.390 . S
C767 C766 1.387 . S
C767 C769 1.387 1_554 S
H768 C775 0.950 . S
C769 C767 1.387 1_556 S
C769 C771 1.390 1_556 S
C769 H773 0.950 . S
H770 C766 0.950 . S
C771 C769 1.390 1_554 S
C771 C772 1.387 . S
C771 H774 0.950 . S
C772 C771 1.387 . S
C772 C775 1.387 . S
H773 C769 0.950 . S
H774 C771 0.950 . S
C775 C766 1.390 . S
C775 H768 0.950 . S
C775 C772 1.387 . S
C776 C777 1.387 . S
C776 H780 0.950 . S
C776 C785 1.390 . S
C777 C776 1.387 . S
C777 C779 1.387 . S
H778 C785 0.950 . S
C779 C777 1.387 . S
C779 C781 1.390 . S
C779 H783 0.950 . S
H780 C776 0.950 . S
C781 C779 1.390 . S
C781 C782 1.387 . S
C781 H784 0.950 . S
C782 C781 1.387 . S
C782 C785 1.387 . S
H783 C779 0.950 . S
H784 C781 0.950 . S
C785 C776 1.390 . S
C785 H778 0.950 . S
C785 C782 1.387 . S
C786 C787 1.387 . S
C786 H790 0.950 . S
C786 C795 1.390 . S
C787 C786 1.387 . S
C787 C789 1.387 . S
H788 C795 0.950 . S
C789 C787 1.387 . S
C789 C791 1.390 . S
C789 H793 0.950 . S
H790 C786 0.950 . S
C791 C789 1.390 . S
C791 C792 1.387 . S
C791 H794 0.950 . S
C792 C791 1.387 . S
C792 C795 1.387 . S
H793 C789 0.950 . S
H794 C791 0.950 . S
C795 C786 1.390 . S
C795 H788 0.950 . S
C795 C792 1.387 . S
C796 C797 1.387 . S
C796 H800 0.950 . S
C796 C805 1.390 . S
C797 C796 1.387 . S
C797 C799 1.387 . S
H798 C805 0.950 . S
C799 C797 1.387 . S
C799 C801 1.390 . S
C799 H803 0.950 . S
H800 C796 0.950 . S
C801 C799 1.390 . S
C801 C802 1.387 . S
C801 H804 0.950 . S
C802 C801 1.387 . S
C802 C805 1.387 . S
H803 C799 0.950 . S
H804 C801 0.950 . S
C805 C796 1.390 . S
C805 H798 0.950 . S
C805 C802 1.387 . S
C806 C807 1.387 . S
C806 H810 0.950 . S
C806 C815 1.390 . S
C807 C806 1.387 . S
C807 C809 1.387 . S
H808 C815 0.950 . S
C809 C807 1.387 . S
C809 C811 1.390 . S
C809 H813 0.950 . S
H810 C806 0.950 . S
C811 C809 1.390 . S
C811 C812 1.387 . S
C811 H814 0.950 . S
C812 C811 1.387 . S
C812 C815 1.387 . S
H813 C809 0.950 . S
H814 C811 0.950 . S
C815 C806 1.390 . S
C815 H808 0.950 . S
C815 C812 1.387 . S
C816 C817 1.387 1_554 S
C816 H820 0.950 . S
C816 C825 1.390 . S
C817 C816 1.387 1_556 S
C817 C819 1.387 . S
H818 C825 0.950 . S
C819 C817 1.387 . S
C819 C821 1.390 . S
C819 H823 0.950 . S
H820 C816 0.950 . S
C821 C819 1.390 . S
C821 C822 1.387 . S
C821 H824 0.950 . S
C822 C821 1.387 . S
C822 C825 1.387 1_556 S
H823 C819 0.950 . S
H824 C821 0.950 . S
C825 C816 1.390 . S
C825 H818 0.950 . S
C825 C822 1.387 1_554 S
C826 C827 1.387 . S
C826 H830 0.950 . S
C826 C835 1.390 . S
C827 C826 1.387 . S
C827 C829 1.387 . S
H828 C835 0.950 . S
C829 C827 1.387 . S
C829 C831 1.390 . S
C829 H833 0.950 . S
H830 C826 0.950 . S
C831 C829 1.390 . S
C831 C832 1.387 . S
C831 H834 0.950 . S
C832 C831 1.387 . S
C832 C835 1.387 . S
H833 C829 0.950 . S
H834 C831 0.950 . S
C835 C826 1.390 . S
C835 H828 0.950 . S
C835 C832 1.387 . S
C836 C837 1.387 . S
C836 H840 0.950 1_554 S
C836 C845 1.390 . S
C837 C836 1.387 . S
C837 C839 1.387 . S
H838 C845 0.950 1_556 S
C839 C837 1.387 . S
C839 C841 1.390 . S
C839 H843 0.950 . S
H840 C836 0.950 1_556 S
C841 C839 1.390 . S
C841 C842 1.387 . S
C841 H844 0.950 . S
C842 C841 1.387 . S
C842 C845 1.387 . S
H843 C839 0.950 . S
H844 C841 0.950 . S
C845 C836 1.390 . S
C845 H838 0.950 1_554 S
C845 C842 1.387 . S
C846 C847 1.387 1_556 S
C846 H850 0.950 . S
C846 C855 1.390 . S
C847 C846 1.387 1_554 S
C847 C849 1.387 . S
H848 C855 0.950 . S
C849 C847 1.387 . S
C849 C851 1.390 . S
C849 H853 0.950 . S
H850 C846 0.950 . S
C851 C849 1.390 . S
C851 C852 1.387 . S
C851 H854 0.950 . S
C852 C851 1.387 . S
C852 C855 1.387 1_554 S
H853 C849 0.950 . S
H854 C851 0.950 . S
C855 C846 1.390 . S
C855 H848 0.950 . S
C855 C852 1.387 1_556 S
C382 C219 1.322 . S
C377 N66 1.315 . S
C392 C227 1.367 . S
C387 N79 1.553 1_455 S
C397 N92 1.631 . S
C402 C247 1.632 . S
C412 C261 1.365 . S
C407 N54 1.433 . S
C422 C276 1.519 . S
C417 N131 1.505 . S
C432 C290 1.317 . S
C427 N158 1.308 . S
C437 N145 1.571 . S
C442 C304 1.574 . S
C452 C310 1.661 . S
C447 N118 1.666 . S
C457 N148 1.857 . S
C462 C324 1.813 . S
C472 C345 1.583 . S
C467 N122 1.567 . S
C477 N132 1.320 . S
C482 C325 1.119 . S
C492 C346 1.538 . S
C487 N161 1.493 . S
C497 N96 1.733 . S
C502 C353 1.464 . S
C507 N53 1.653 . S
C512 C359 1.666 . S
C517 N67 1.190 . S
C522 C352 1.161 . S
C527 N83 1.384 . S
C532 C360 1.401 1_655 S
C537 N44 1.454 . S
C542 C254 1.421 . S
C547 N187 1.491 . S
C552 C255 1.252 . S
C562 C212 1.252 . S
C557 N197 1.306 1_565 S
C572 C233 1.317 . S
C567 N106 1.347 . S
C577 N57 1.710 1_545 S
C582 C268 1.679 . S
C592 C318 1.477 . S
C587 N144 1.452 . S
C602 C269 1.157 . S
C597 N119 1.386 1_545 S
C612 C297 1.424 . S
C607 N157 1.711 . S
C622 C303 1.321 . S
C617 N183 1.313 . S
C627 N196 1.553 . S
C632 C311 1.367 . S
C637 N105 1.629 . S
C642 C275 1.633 . S
C652 C289 1.365 . S
C647 N171 1.413 . S
C657 N40 1.505 . S
C662 C248 1.519 . S
C672 C262 1.317 . S
C667 N2 1.304 1_565 S
C682 C220 1.575 . S
C677 N15 1.571 . S
C692 C226 1.663 . S
C687 N27 1.668 . S
C697 N18 1.857 . S
C702 C338 1.813 . S
C707 N31 1.567 . S
C712 C331 1.583 1_455 S
C717 N41 1.319 . S
C722 C339 1.125 . S
C727 N5 1.492 1_556 S
C732 C332 1.538 . S
C742 C367 1.469 . S
C737 N109 1.733 . S
C752 C373 1.666 . S
C747 N170 1.654 1_554 S
C762 C366 1.161 . S
C757 N184 1.190 . S
C767 N200 1.383 1_554 S
C772 C374 1.402 . S
C777 N135 1.454 . S
C782 C282 1.422 . S
C792 C283 1.245 . S
C787 N70 1.490 . S
C802 C296 1.249 . S
C797 N80 1.307 . S
C812 C317 1.320 . S
C807 N93 1.348 . S
C817 N174 1.708 . S
C822 C240 1.682 . S
C832 C234 1.477 . S
C827 N14 1.452 . S
C837 N28 1.385 . S
C842 C241 1.160 . S
C852 C213 1.424 . S
C847 N1 1.711 . S
