# Generated by pormake.
# Topology tsx, (6,3)-cn, num edge types: 1
# Building blocks:
#     Node 0, Type 0, BuildingBlock: VOLQOD_clean_sbu_1, # of connection points: 6
#     Node 1, Type 0, BuildingBlock: VOLQOD_clean_sbu_1, # of connection points: 6
#     Node 2, Type 1, BuildingBlock: INOVEN_clean_linker_0, # of connection points: 3
#     Node 3, Type 1, BuildingBlock: INOVEN_clean_linker_0, # of connection points: 3
#     Node 4, Type 1, BuildingBlock: INOVEN_clean_linker_0, # of connection points: 3
#     Node 5, Type 1, BuildingBlock: INOVEN_clean_linker_0, # of connection points: 3
#     Edge 6, Type (0, 1), BuildingBlock: ZUJKAS_clean_linker_0, # of connection points: 2
#     Edge 7, Type (0, 1), BuildingBlock: ZUJKAS_clean_linker_0, # of connection points: 2
#     Edge 8, Type (0, 1), BuildingBlock: ZUJKAS_clean_linker_0, # of connection points: 2
#     Edge 9, Type (0, 1), BuildingBlock: ZUJKAS_clean_linker_0, # of connection points: 2
#     Edge 10, Type (0, 1), BuildingBlock: ZUJKAS_clean_linker_0, # of connection points: 2
#     Edge 11, Type (0, 1), BuildingBlock: ZUJKAS_clean_linker_0, # of connection points: 2
#     Edge 12, Type (0, 1), BuildingBlock: ZUJKAS_clean_linker_0, # of connection points: 2
#     Edge 13, Type (0, 1), BuildingBlock: ZUJKAS_clean_linker_0, # of connection points: 2
#     Edge 14, Type (0, 1), BuildingBlock: ZUJKAS_clean_linker_0, # of connection points: 2
#     Edge 15, Type (0, 1), BuildingBlock: ZUJKAS_clean_linker_0, # of connection points: 2
#     Edge 16, Type (0, 1), BuildingBlock: ZUJKAS_clean_linker_0, # of connection points: 2
#     Edge 17, Type (0, 1), BuildingBlock: ZUJKAS_clean_linker_0, # of connection points: 2
# Relax obj value: 0.049
# Max RMSD: 0.108
# Mean RMSD: 0.097
data_MOF--net-tsx--node1-VOLQOD_clean_sbu_1--node2-INOVEN_clean_linker_0--edge1-ZUJKAS_clean_linker_0
_symmetry_space_group_name_H-M    P1
_symmetry_Int_Tables_number       1
_symmetry_cell_setting            triclinic
loop_
_symmetry_equiv_pos_as_xyz
'x, y, z'
_cell_length_a     27.256192
_cell_length_b     28.270601
_cell_length_c     48.608731
_cell_angle_alpha  90.282064
_cell_angle_beta   97.954508
_cell_angle_gamma 90.108205
loop_
_atom_site_label
_atom_site_type_symbol
_atom_site_fract_x
_atom_site_fract_y
_atom_site_fract_z
_atom_type_partial_charge
O0 O 0.04919 0.00533 0.07239 0.0
Zn1 Zn 0.06291 0.00426 0.03267 0.0
O2 O 0.00141 0.00646 0.0066 0.0
Zn3 Zn 0.99515 0.94912 0.98361 0.0
Zn4 Zn 0.94495 0.01086 0.02725 0.0
Zn5 Zn 0.00249 0.06191 0.98285 0.0
O6 O 0.99066 0.96502 0.9429 0.0
O7 O -0.00288 0.04327 0.94259 0.0
O8 O 0.10274 0.94625 0.02635 0.0
O9 O 0.05499 0.90768 0.9928 0.0
O10 O 0.93485 0.91097 0.9894 0.0
O11 O 0.90007 0.95463 0.01945 0.0
O12 O 0.90444 0.06925 0.01713 0.0
O13 O 0.10631 0.06026 0.02768 0.0
O14 O 0.94603 0.10554 0.98716 0.0
O15 O 0.06529 0.09932 0.9923 0.0
C16 C 0.0096 0.00967 0.08337 0.0
C17 C 0.99249 0.00376 0.9298 0.0
C18 C 0.90046 0.9179 0.00423 0.0
C19 C 0.09475 0.91107 0.00987 0.0
C20 C 0.90994 0.10386 0.00118 0.0
C21 C 0.10291 0.09465 0.01072 0.0
O22 O 0.96746 0.01278 0.06847 0.0
O23 O 0.54452 0.50514 0.57268 0.0
Zn24 Zn 0.55953 0.50396 0.5331 0.0
O25 O 0.49859 0.50728 0.50651 0.0
Zn26 Zn 0.49156 0.44969 0.48378 0.0
Zn27 Zn 0.44151 0.51363 0.52654 0.0
Zn28 Zn 0.50145 0.56213 0.4825 0.0
O29 O 0.48951 0.46466 0.44306 0.0
O30 O 0.49837 0.54268 0.4425 0.0
O31 O 0.59837 0.44503 0.52714 0.0
O32 O 0.54972 0.40653 0.49394 0.0
O33 O 0.42976 0.41362 0.48896 0.0
O34 O 0.39532 0.45809 0.51879 0.0
O35 O 0.40259 0.57276 0.51583 0.0
O36 O 0.60422 0.55936 0.52844 0.0
O37 O 0.44474 0.60637 0.48522 0.0
O38 O 0.56434 0.59901 0.49292 0.0
C39 C 0.50462 0.51153 0.58311 0.0
C40 C 0.49329 0.50304 0.42988 0.0
C41 C 0.39519 0.4213 0.50355 0.0
C42 C 0.58945 0.40943 0.51106 0.0
C43 C 0.40853 0.60625 0.49919 0.0
C44 C 0.60156 0.59389 0.51158 0.0
O45 O 0.46313 0.51631 0.56776 0.0
H46 H 0.04374 0.00776 0.46064 0.0
H47 H 0.09269 0.96836 0.38324 0.0
H48 H 0.98613 0.07953 0.38524 0.0
N49 N 0.98171 0.07467 0.4402 0.0
N50 N 0.96426 0.11312 0.43103 0.0
C51 C 0.04265 0.01233 0.43844 0.0
C52 C 0.07306 0.98472 0.42367 0.0
C53 C 0.01178 0.04695 0.42478 0.0
C54 C 0.0103 0.0531 0.39594 0.0
C55 C 0.03949 0.02492 0.3808 0.0
C56 C 0.07091 0.99105 0.39488 0.0
H57 H 0.98681 0.97927 0.55372 0.0
H58 H 0.94324 0.92935 0.63032 0.0
H59 H 0.04357 0.04674 0.63112 0.0
N60 N 0.04467 0.04836 0.57556 0.0
N61 N 0.07318 0.07871 0.58771 0.0
C62 C 0.98838 0.98177 0.57608 0.0
C63 C 0.96204 0.94943 0.59033 0.0
C64 C 0.01773 0.01693 0.5906 0.0
C65 C 0.02048 0.01999 0.61971 0.0
C66 C 0.99411 0.98814 0.63423 0.0
C67 C 0.96491 0.95313 0.61934 0.0
H68 H 0.5303 0.49274 0.96074 0.0
H69 H 0.56864 0.44259 0.88285 0.0
H70 H 0.4752 0.5646 0.88506 0.0
N71 N 0.47543 0.5647 0.9404 0.0
N72 N 0.46269 0.60462 0.93128 0.0
C73 C 0.52809 0.49591 0.93839 0.0
C74 C 0.55227 0.46305 0.92328 0.0
C75 C 0.50092 0.53292 0.92475 0.0
C76 C 0.49755 0.53682 0.89568 0.0
C77 C 0.52119 0.5039 0.88022 0.0
C78 C 0.54874 0.46731 0.89432 0.0
H79 H 0.48918 0.47804 0.05375 0.0
H80 H 0.44425 0.42705 0.12975 0.0
H81 H 0.54439 0.54487 0.13155 0.0
N82 N 0.5465 0.54699 0.07608 0.0
N83 N 0.57298 0.57876 0.0883 0.0
C84 C 0.49034 0.48032 0.0761 0.0
C85 C 0.46374 0.4478 0.09004 0.0
C86 C 0.5193 0.51542 0.09087 0.0
C87 C 0.52148 0.5182 0.11995 0.0
C88 C 0.49488 0.48611 0.13421 0.0
C89 C 0.46606 0.45111 0.11904 0.0
H90 H 0.18735 0.09793 0.04833 0.0
H91 H 0.25137 0.15908 0.05326 0.0
H92 H 0.17428 0.2329 0.98281 0.0
H93 H 0.10953 0.17222 0.97783 0.0
H94 H 0.31343 0.19264 0.01461 0.0
H95 H 0.18764 0.33184 0.0461 0.0
H96 H 0.17189 0.26979 0.04568 0.0
H97 H 0.16752 0.30209 0.01373 0.0
C98 C 0.18396 0.12705 0.0338 0.0
C99 C 0.14301 0.1304 0.01285 0.0
C100 C 0.2207 0.16187 0.03661 0.0
C101 C 0.21714 0.20068 0.01861 0.0
C102 C 0.1772 0.20352 0.99716 0.0
H103 H 0.39919 0.45725 0.04201 0.0
H104 H 0.34246 0.39706 0.01916 0.0
C105 C 0.14033 0.16874 0.99434 0.0
C106 C 0.25454 0.23883 0.02309 0.0
H107 H 0.27054 0.35333 0.04499 0.0
C108 C 0.30408 0.22794 0.02099 0.0
C109 C 0.24202 0.28484 0.03126 0.0
C110 C 0.18949 0.29801 0.03456 0.0
C111 C 0.34177 0.26165 0.02752 0.0
C112 C 0.32951 0.30703 0.03679 0.0
C113 C 0.27972 0.31849 0.03779 0.0
C114 C 0.36783 0.34162 0.0482 0.0
C115 C 0.3944 0.24824 0.02472 0.0
C116 C 0.40097 0.33018 0.07192 0.0
C117 C 0.43329 0.3643 0.08492 0.0
C118 C 0.43281 0.41064 0.07456 0.0
C119 C 0.40064 0.4217 0.0503 0.0
C120 C 0.36816 0.38748 0.03731 0.0
H121 H 0.39562 0.21935 0.00925 0.0
H122 H 0.41556 0.27904 0.01844 0.0
H123 H 0.41304 0.23536 0.04503 0.0
H124 H 0.4006 0.29529 0.08101 0.0
H125 H 0.45802 0.35468 0.10344 0.0
H126 H 0.19311 0.91889 0.03035 0.0
H127 H 0.25963 0.86484 0.02219 0.0
H128 H 0.15198 0.76828 0.97945 0.0
H129 H 0.0854 0.82273 0.98672 0.0
H130 H 0.28379 0.77227 0.03393 0.0
H131 H 0.23808 0.79844 0.9203 0.0
H132 H 0.21118 0.83395 0.94522 0.0
H133 H 0.18696 0.77589 0.9359 0.0
C134 C 0.18352 0.88587 0.01951 0.0
C135 C 0.13407 0.87543 0.00875 0.0
C136 C 0.22159 0.85502 0.01489 0.0
C137 C 0.21079 0.81316 -0.00038 0.0
C138 C 0.16119 0.80106 0.99062 0.0
H139 H 0.41005 0.58312 0.97327 0.0
H140 H 0.35225 0.63594 0.9925 0.0
C141 C 0.12318 0.83212 0.99489 0.0
C142 C 0.25143 0.78376 0.99152 0.0
H143 H 0.29702 0.73911 0.93493 0.0
C144 C 0.28691 0.76508 0.0123 0.0
C145 C 0.256 0.77538 0.96326 0.0
C146 C 0.22135 0.79735 0.93988 0.0
C147 C 0.32637 0.73737 0.00556 0.0
C148 C 0.32959 0.7273 0.97731 0.0
C149 C 0.29444 0.74661 0.9566 0.0
C150 C 0.36873 0.69675 0.96837 0.0
C151 C 0.36462 0.72003 0.02871 0.0
C152 C 0.39694 0.71312 0.94825 0.0
C153 C 0.42904 0.68269 0.93683 0.0
C154 C 0.43403 0.63568 0.94553 0.0
C155 C 0.40733 0.61954 0.96645 0.0
C156 C 0.37454 0.6498 0.97759 0.0
H157 H 0.36587 0.74265 0.04755 0.0
H158 H 0.35481 0.68362 0.03444 0.0
H159 H 0.40212 0.71925 0.02225 0.0
H160 H 0.39297 0.74913 0.94074 0.0
H161 H 0.44921 0.69547 0.92064 0.0
H162 H 0.81916 0.92293 0.03124 0.0
H163 H 0.75942 0.86041 0.03641 0.0
H164 H 0.83261 0.76837 0.98405 0.0
H165 H 0.89317 0.83069 0.97887 0.0
H166 H 0.69388 0.80511 0.99658 0.0
H167 H 0.83999 0.69872 0.05969 0.0
H168 H 0.84874 0.76035 0.05215 0.0
H169 H 0.85174 0.71635 0.0257 0.0
C170 C 0.82245 0.88959 0.02058 0.0
C171 C 0.86141 0.88163 0.00494 0.0
C172 C 0.78807 0.85399 0.02346 0.0
C173 C 0.79202 0.80973 0.01086 0.0
C174 C 0.82938 0.80221 0.99418 0.0
H175 H 0.5777 0.58264 0.03253 0.0
H176 H 0.62987 0.63693 0.00984 0.0
C177 C 0.86385 0.83789 0.99123 0.0
C178 C 0.75918 0.77077 0.01715 0.0
H179 H 0.75855 0.67003 0.05546 0.0
C180 C 0.70792 0.77512 0.00908 0.0
C181 C 0.77785 0.73203 0.03365 0.0
C182 C 0.83252 0.72644 0.04353 0.0
C183 C 0.6746 0.74234 0.01783 0.0
C184 C 0.69328 0.70442 0.03497 0.0
C185 C 0.74458 0.69919 0.04222 0.0
C186 C 0.66034 0.67246 0.04795 0.0
C187 C 0.61967 0.74961 0.00988 0.0
C188 C 0.66056 0.6745 0.0768 0.0
C189 C 0.63102 0.6437 0.08971 0.0
C190 C 0.60109 0.61027 0.07409 0.0
C191 C 0.60051 0.60827 0.04508 0.0
C192 C 0.63007 0.63927 0.0321 0.0
H193 H 0.61112 0.78392 -0.00074 0.0
H194 H 0.60436 0.72071 0.99567 0.0
H195 H 0.60055 0.74823 0.02861 0.0
H196 H 0.68377 0.69989 0.08934 0.0
H197 H 0.63181 0.64556 0.11203 0.0
H198 H 0.9205 0.19199 0.98021 0.0
H199 H 0.85852 0.25452 0.97315 0.0
H200 H 0.75387 0.16532 0.00751 0.0
H201 H 0.81631 0.10307 0.01552 0.0
H202 H 0.77359 0.2499 0.93988 0.0
H203 H 0.73512 0.28835 0.04672 0.0
H204 H 0.78777 0.25388 0.03979 0.0
H205 H 0.72742 0.22701 0.03747 0.0
C206 C 0.88449 0.18585 0.98658 0.0
C207 C 0.87324 0.14255 0.99837 0.0
C208 C 0.84914 0.22167 0.98258 0.0
C209 C 0.80175 0.21484 0.9901 0.0
C210 C 0.79057 0.17186 0.0022 0.0
H211 H 0.5472 0.36914 0.91095 0.0
H212 H 0.60506 0.30744 0.92976 0.0
C213 C 0.82618 0.13617 0.00656 0.0
C214 C 0.76304 0.25118 0.98299 0.0
H215 H 0.67839 0.3206 0.00964 0.0
C216 C 0.75301 0.26552 0.9552 0.0
C217 C 0.73651 0.27185 0.00303 0.0
C218 C 0.74755 0.25986 0.03347 0.0
C219 C 0.71699 0.29964 0.94679 0.0
C220 C 0.68902 0.31889 0.96657 0.0
C221 C 0.6994 0.30516 0.99447 0.0
C222 C 0.64973 0.35418 0.95851 0.0
C223 C 0.71 0.3154 0.91685 0.0
C224 C 0.65401 0.40012 0.96969 0.0
C225 C 0.62054 0.43523 0.95926 0.0
C226 C 0.58262 0.42478 0.93744 0.0
C227 C 0.57665 0.37811 0.9275 0.0
C228 C 0.60968 0.34299 0.93815 0.0
H229 H 0.74294 0.30721 0.90655 0.0
H230 H 0.67777 0.2965 0.9053 0.0
H231 H 0.70283 0.354 0.91523 0.0
H232 H 0.68455 0.40933 0.98554 0.0
H233 H 0.62585 0.47101 0.96721 0.0
H234 H 0.60713 0.67403 0.48072 0.0
H235 H 0.67266 0.73388 0.48602 0.0
H236 H 0.75271 0.65429 0.55316 0.0
H237 H 0.68777 0.59402 0.54793 0.0
H238 H 0.70138 0.78687 0.53399 0.0
H239 H 0.85992 0.68522 0.50452 0.0
H240 H 0.79646 0.66574 0.49589 0.0
H241 H 0.82917 0.65623 0.53016 0.0
C242 C 0.6389 0.66894 0.49644 0.0
C243 C 0.64215 0.6292 0.51394 0.0
C244 C 0.67632 0.70317 0.49939 0.0
C245 C 0.71781 0.6981 0.51967 0.0
C246 C 0.72148 0.65831 0.53695 0.0
H247 H 0.95549 0.8568 0.60475 0.0
H248 H 0.89704 0.7974 0.58324 0.0
C249 C 0.68409 0.62409 0.53408 0.0
C250 C 0.75537 0.73616 0.52436 0.0
H251 H 0.87955 0.75769 0.52953 0.0
C252 C 0.74025 0.78084 0.53258 0.0
C253 C 0.80595 0.72801 0.52247 0.0
C254 C 0.82387 0.68133 0.51252 0.0
C255 C 0.77476 0.81696 0.54039 0.0
C256 C 0.8256 0.80831 0.5394 0.0
C257 C 0.84052 0.76416 0.53022 0.0
C258 C 0.86405 0.84318 0.55025 0.0
C259 C 0.75681 0.86318 0.55103 0.0
C260 C 0.86579 0.88815 0.5383 0.0
C261 C 0.89887 0.9224 0.55074 0.0
C262 C 0.93077 0.91202 0.57524 0.0
C263 C 0.93065 0.86611 0.58622 0.0
C264 C 0.8976 0.83204 0.57383 0.0
H265 H 0.71804 0.86069 0.55556 0.0
H266 H 0.78087 0.87466 0.57023 0.0
H267 H 0.75825 0.89091 0.53509 0.0
H268 H 0.84069 0.89712 0.51981 0.0
H269 H 0.89811 0.95746 0.54181 0.0
H270 H 0.68863 0.41657 0.52932 0.0
H271 H 0.75318 0.36027 0.52121 0.0
H272 H 0.64145 0.26227 0.48407 0.0
H273 H 0.57678 0.31911 0.49112 0.0
H274 H 0.77795 0.26915 0.5348 0.0
H275 H 0.72048 0.28497 0.42113 0.0
H276 H 0.69616 0.32283 0.44591 0.0
H277 H 0.67209 0.26387 0.43946 0.0
C278 C 0.67775 0.38277 0.51976 0.0
C279 C 0.62769 0.37259 0.51039 0.0
C280 C 0.71469 0.35061 0.51518 0.0
C281 C 0.70215 0.30762 0.50139 0.0
C282 C 0.65199 0.29584 0.49401 0.0
H283 H 0.91473 0.08587 0.47341 0.0
H284 H 0.85207 0.13271 0.49291 0.0
C285 C 0.61509 0.32826 0.49816 0.0
C286 C 0.74154 0.277 0.49285 0.0
H287 H 0.78323 0.22972 0.43573 0.0
C288 C 0.7792 0.26043 0.51316 0.0
C289 C 0.7435 0.26641 0.46453 0.0
C290 C 0.70622 0.2858 0.44147 0.0
C291 C 0.81882 0.2335 0.50588 0.0
C292 C 0.82004 0.22204 0.47761 0.0
C293 C 0.78216 0.23838 0.4574 0.0
C294 C 0.86094 0.19471 0.46802 0.0
C295 C 0.85963 0.21889 0.5284 0.0
C296 C 0.88638 0.21371 0.44737 0.0
C297 C 0.92127 0.18671 0.43589 0.0
C298 C 0.93185 0.14056 0.445 0.0
C299 C 0.90761 0.12174 0.46626 0.0
C300 C 0.87205 0.14857 0.47752 0.0
H301 H 0.86028 0.24121 0.54733 0.0
H302 H 0.85342 0.18171 0.5343 0.0
H303 H 0.89642 0.22113 0.52113 0.0
H304 H 0.87838 0.24916 0.43966 0.0
H305 H 0.9395 0.20151 0.41945 0.0
H306 H 0.38579 0.33533 0.47696 0.0
H307 H 0.32407 0.27386 0.48126 0.0
H308 H 0.25366 0.36456 0.53562 0.0
H309 H 0.31461 0.42631 0.53127 0.0
H310 H 0.31214 0.23175 0.53055 0.0
H311 H 0.13536 0.31218 0.48383 0.0
H312 H 0.19496 0.3346 0.47761 0.0
H313 H 0.17021 0.35053 0.50884 0.0
C314 C 0.35669 0.34255 0.48947 0.0
C315 C 0.35532 0.38571 0.50389 0.0
C316 C 0.32143 0.30738 0.49184 0.0
C317 C 0.28393 0.3149 0.50844 0.0
C318 C 0.2816 0.35841 0.52219 0.0
H319 H 0.13875 0.14006 0.61137 0.0
H320 H 0.18966 0.19469 0.5882 0.0
C321 C 0.31682 0.39354 0.51987 0.0
C322 C 0.25065 0.27573 0.51403 0.0
H323 H 0.12916 0.24822 0.51603 0.0
C324 C 0.27212 0.23496 0.52688 0.0
C325 C 0.19845 0.27973 0.50897 0.0
C326 C 0.17336 0.32143 0.49379 0.0
C327 C 0.24282 0.19941 0.53634 0.0
C328 C 0.19087 0.20509 0.53311 0.0
C329 C 0.16912 0.24435 0.51874 0.0
C330 C 0.15921 0.17261 0.54663 0.0
C331 C 0.26772 0.15663 0.55046 0.0
C332 C 0.12466 0.14298 0.53083 0.0
C333 C 0.09575 0.11172 0.54408 0.0
C334 C 0.10088 0.1103 0.5733 0.0
C335 C 0.13464 0.14065 0.58889 0.0
C336 C 0.16364 0.17157 0.57571 0.0
H337 H 0.3056 0.15156 0.54495 0.0
H338 H 0.2709 0.16145 0.57331 0.0
H339 H 0.24562 0.12411 0.54478 0.0
H340 H 0.12061 0.14362 0.50835 0.0
H341 H 0.06968 0.08875 0.53154 0.0
H342 H 0.40983 0.68359 0.46583 0.0
H343 H 0.34913 0.74718 0.45883 0.0
H344 H 0.26437 0.68182 0.517 0.0
H345 H 0.32526 0.61796 0.52444 0.0
H346 H 0.24699 0.73408 0.43919 0.0
H347 H 0.27746 0.82194 0.54298 0.0
H348 H 0.32242 0.78247 0.53125 0.0
H349 H 0.26737 0.75901 0.54253 0.0
C350 C 0.37853 0.68276 0.47733 0.0
C351 C 0.37242 0.64557 0.49568 0.0
C352 C 0.3439 0.71918 0.4733 0.0
C353 C 0.30262 0.71936 0.4876 0.0
C354 C 0.29646 0.68266 0.50612 0.0
H355 H 0.05327 0.91875 0.46192 0.0
H356 H 0.10694 0.85323 0.48047 0.0
C357 C 0.33115 0.64608 0.5102 0.0
C358 C 0.26491 0.75681 0.48174 0.0
H359 H 0.21527 0.85387 0.50958 0.0
C360 C 0.23982 0.76008 0.45462 0.0
C361 C 0.25547 0.79038 0.50203 0.0
C362 C 0.28222 0.78873 0.53132 0.0
C363 C 0.2063 0.79673 0.44703 0.0
C364 C 0.19819 0.83128 0.467 0.0
C365 C 0.22183 0.82722 0.49439 0.0
C366 C 0.16798 0.87351 0.45893 0.0
C367 C 0.1803 0.79875 0.41755 0.0
C368 C 0.18543 0.90711 0.44153 0.0
C369 C 0.15518 0.94434 0.43104 0.0
C370 C 0.10687 0.94863 0.43778 0.0
C371 C 0.09038 0.91633 0.45645 0.0
C372 C 0.12084 0.87892 0.46698 0.0
H373 H 0.18176 0.76425 0.40664 0.0
H374 H 0.14093 0.80915 0.41712 0.0
H375 H 0.19861 0.82572 0.40591 0.0
H376 H 0.22202 0.90369 0.43541 0.0
H377 H 0.1692 0.96923 0.41713 0.0
H378 H 0.09284 0.00707 0.12204 0.0
H379 H 0.09755 0.01193 0.17254 0.0
H380 H 0.9384 0.0219 0.1648 0.0
H381 H 0.93319 0.01768 0.11424 0.0
H382 H 0.98835 0.08881 0.2014 0.0
H383 H 0.06036 0.90754 0.22415 0.0
H384 H 0.096 0.94189 0.20301 0.0
H385 H 0.03335 0.92559 0.1898 0.0
C386 C 0.05876 0.01009 0.13103 0.0
C387 C 0.0126 0.01178 0.11404 0.0
C388 C 0.06155 0.01265 0.15992 0.0
C389 C 0.01828 0.0166 0.17238 0.0
C390 C 0.97221 0.01865 0.15555 0.0
H391 H 0.95608 0.03407 0.3428 0.0
H392 H 0.95062 0.03521 0.29213 0.0
C393 C 0.96934 0.01614 0.12665 0.0
C394 C 0.02112 0.01946 0.20299 0.0
H395 H 0.05909 0.959 0.26271 0.0
C396 C 0.0036 0.06039 0.21484 0.0
C397 C 0.04102 0.98228 0.2204 0.0
C398 C 0.05836 0.93663 0.20875 0.0
C399 C 0.00637 0.06553 0.24376 0.0
C400 C 0.02653 0.02844 0.26116 0.0
C401 C 0.04387 0.98746 0.24929 0.0
C402 C 0.02982 0.0311 0.29179 0.0
C403 C 0.9887 0.11096 0.25547 0.0
C404 C 0.0761 0.02812 0.30835 0.0
C405 C 0.07933 0.02745 0.33727 0.0
C406 C 0.03626 0.02944 0.35017 0.0
C407 C 0.98996 0.03324 0.33351 0.0
C408 C 0.98678 0.03388 0.30456 0.0
H409 H 0.98605 0.14003 0.24004 0.0
H410 H 0.95132 0.10524 0.26147 0.0
H411 H 0.0139 0.12225 0.2743 0.0
H412 H 0.10974 0.02589 0.29887 0.0
H413 H 0.11556 0.02502 0.34954 0.0
H414 H 0.99059 0.07931 0.89465 0.0
H415 H 0.98954 0.07775 0.84431 0.0
H416 H 0.99036 0.92524 0.84531 0.0
H417 H 0.99058 0.92629 0.89558 0.0
H418 H 0.05902 0.03898 0.81444 0.0
H419 H 0.87541 0.9542 0.78491 0.0
H420 H 0.89466 0.97874 0.81906 0.0
H421 H 0.91608 0.92134 0.81001 0.0
C422 C 0.99017 0.04537 0.88418 0.0
C423 C 0.99044 0.00289 0.89918 0.0
C424 C 0.98964 0.0446 0.8554 0.0
C425 C 0.98918 0.00141 0.84105 0.0
C426 C 0.98962 0.95896 0.85591 0.0
H427 H 0.00233 0.9156 0.67156 0.0
H428 H 0.00237 0.92048 0.7218 0.0
C429 C 0.98999 0.95966 0.88469 0.0
C430 C 0.98993 0.00081 0.81064 0.0
H431 H 0.92673 0.96107 0.74932 0.0
C432 C 0.02995 0.02225 0.80015 0.0
C433 C 0.95191 0.97897 0.7921 0.0
C434 C 0.90683 0.95739 0.80201 0.0
C435 C 0.03357 0.02145 0.77163 0.0
C436 C 0.99585 -0.00088 0.75317 0.0
C437 C 0.95567 0.978 0.76361 0.0
C438 C -0.0025 -0.0032 0.7229 0.0
C439 C 0.07826 0.04346 0.76154 0.0
C440 C 0.99462 0.03816 0.70692 0.0
C441 C 0.99429 0.03549 0.67817 0.0
C442 C -0.00343 0.99136 0.66491 0.0
C443 C -0.00013 0.95007 0.68109 0.0
C444 C 0.00013 0.95278 0.70979 0.0
H445 H 0.1089 0.04958 0.77878 0.0
H446 H 0.09205 0.02066 0.7456 0.0
H447 H 0.06769 0.0781 0.75186 0.0
H448 H 0.99165 0.07242 0.71662 0.0
H449 H 0.99099 0.06787 0.66624 0.0
H450 H 0.43293 0.5443 0.61234 0.0
H451 H 0.43534 0.54804 0.66269 0.0
H452 H 0.58115 0.48592 0.6734 0.0
H453 H 0.57975 0.48354 0.62301 0.0
H454 H 0.44084 0.47941 0.69947 0.0
H455 H 0.60368 0.59668 0.72547 0.0
H456 H 0.5741 0.58779 0.69027 0.0
H457 H 0.61787 0.5452 0.7064 0.0
C458 C 0.46569 0.53168 0.62539 0.0
C459 C 0.50627 0.51379 0.61366 0.0
C460 C 0.46699 0.53388 0.65419 0.0
C461 C 0.50875 0.51804 0.67187 0.0
C462 C 0.5491 0.49961 0.66022 0.0
H463 H 0.51148 0.43145 0.8422 0.0
H464 H 0.50786 0.4366 0.79194 0.0
C465 C 0.5481 0.49795 0.63139 0.0
C466 C 0.50904 0.51898 0.70242 0.0
H467 H 0.57571 0.55595 0.76341 0.0
C468 C 0.47016 0.49647 0.71343 0.0
C469 C 0.54679 0.54195 0.72063 0.0
C470 C 0.58766 0.5697 0.71008 0.0
C471 C 0.46856 0.49535 0.74214 0.0
C472 C 0.50775 0.51605 0.76042 0.0
C473 C 0.546 0.53958 0.7494 0.0
C474 C 0.51017 0.51312 0.79104 0.0
C475 C 0.42448 0.47259 0.75249 0.0
C476 C 0.51438 0.55436 0.80741 0.0
C477 C 0.51774 0.5515 0.83632 0.0
C478 C 0.51697 0.50729 0.84943 0.0
C479 C 0.51277 0.46608 0.8329 0.0
C480 C 0.5099 0.46897 0.80406 0.0
H481 H 0.39145 0.47261 0.73629 0.0
H482 H 0.43337 0.43522 0.75795 0.0
H483 H 0.41484 0.49102 0.77124 0.0
H484 H 0.51509 0.58881 0.7978 0.0
H485 H 0.52174 0.58391 0.8484 0.0
H486 H 0.49155 0.42496 0.3961 0.0
H487 H 0.49305 0.42307 0.34591 0.0
H488 H 0.49593 0.5755 0.34436 0.0
H489 H 0.4942 0.57794 0.39448 0.0
H490 H 0.42549 0.53157 0.30249 0.0
H491 H 0.61448 0.45608 0.30653 0.0
H492 H 0.57339 0.42409 0.32568 0.0
H493 H 0.59268 0.48292 0.33637 0.0
C494 C 0.49246 0.45812 0.38513 0.0
C495 C 0.49294 0.50161 0.39937 0.0
C496 C 0.49361 0.45693 0.35647 0.0
C497 C 0.49531 0.49913 0.34158 0.0
C498 C 0.49493 0.54256 0.35558 0.0
H499 H 0.49224 0.56565 0.16645 0.0
H500 H 0.49355 0.56994 0.21684 0.0
C501 C 0.49397 0.54383 0.38423 0.0
C502 C 0.49671 0.49804 0.31127 0.0
H503 H 0.56712 0.46295 0.26205 0.0
C504 C 0.4565 0.51679 0.29359 0.0
C505 C 0.53726 0.47868 0.29986 0.0
C506 C 0.58216 0.45961 0.31803 0.0
C507 C 0.45522 0.51575 0.26464 0.0
C508 C 0.49578 0.49635 0.25318 0.0
C509 C 0.53611 0.47781 0.27091 0.0
C510 C 0.49669 0.49413 0.22282 0.0
C511 C 0.40992 0.53427 0.24656 0.0
C512 C 0.49973 0.4502 0.20964 0.0
C513 C 0.49971 0.44767 0.18094 0.0
C514 C 0.49677 0.48907 0.16487 0.0
C515 C 0.49479 0.53313 0.17824 0.0
C516 C 0.49493 0.53562 0.20698 0.0
H517 H 0.37748 0.53655 0.25805 0.0
H518 H 0.41777 0.57034 0.23936 0.0
H519 H 0.39997 0.5114 0.22798 0.0
H520 H 0.50157 0.4178 0.22154 0.0
H521 H 0.50215 0.41325 0.17135 0.0
loop_
_geom_bond_atom_site_label_1
_geom_bond_atom_site_label_2
_geom_bond_distance
_geom_bond_site_symmetry_2
_ccdc_geom_bond_type
O0 Zn1 1.953 1_565 S
O0 C16 1.225 1_565 S
Zn1 O0 1.953 1_545 S
Zn1 O2 1.949 . S
Zn1 O8 1.919 1_545 S
Zn1 O13 1.924 . S
O2 Zn1 1.949 . S
O2 Zn3 1.923 1_444 S
O2 Zn4 1.950 1_455 S
O2 Zn5 1.945 1_554 S
Zn3 O2 1.923 1_666 S
Zn3 O6 1.933 . S
Zn3 O9 1.941 1_655 S
Zn3 O10 1.965 . S
Zn4 O2 1.950 1_655 S
Zn4 O11 1.938 1_545 S
Zn4 O12 1.906 . S
Zn4 O22 1.953 . S
Zn5 O2 1.945 1_556 S
Zn5 O7 1.932 . S
Zn5 O14 1.977 1_455 S
Zn5 O15 1.910 . S
O6 Zn3 1.933 . S
O6 C17 1.226 1_665 S
O7 Zn5 1.932 . S
O7 C17 1.307 . S
O8 Zn1 1.919 1_565 S
O8 C19 1.253 . S
O9 Zn3 1.941 1_455 S
O9 C19 1.283 1_556 S
O10 Zn3 1.965 . S
O10 C18 1.303 1_556 S
O11 Zn4 1.938 1_565 S
O11 C18 1.247 . S
O12 Zn4 1.906 . S
O12 C20 1.304 1_554 S
O13 Zn1 1.924 . S
O13 C21 1.311 . S
O14 Zn5 1.977 1_655 S
O14 C20 1.272 . S
O15 Zn5 1.910 . S
O15 C21 1.231 1_556 S
C16 O0 1.225 1_545 S
C16 O22 1.298 1_455 S
C17 O6 1.226 1_445 S
C17 O7 1.307 . S
C18 O10 1.303 1_554 S
C18 O11 1.247 . S
C19 O8 1.253 . S
C19 O9 1.283 1_554 S
C20 O12 1.304 1_556 S
C20 O14 1.272 . S
C21 O13 1.311 . S
C21 O15 1.231 1_554 S
O22 Zn4 1.953 . S
O22 C16 1.298 1_655 S
O23 Zn24 1.953 . S
O23 C39 1.225 . S
Zn24 O23 1.953 . S
Zn24 O25 1.949 . S
Zn24 O31 1.919 . S
Zn24 O36 1.924 . S
O25 Zn24 1.949 . S
O25 Zn26 1.923 . S
O25 Zn27 1.950 . S
O25 Zn28 1.945 . S
Zn26 O25 1.923 . S
Zn26 O29 1.933 . S
Zn26 O32 1.941 . S
Zn26 O33 1.965 . S
Zn27 O25 1.950 . S
Zn27 O34 1.938 . S
Zn27 O35 1.906 . S
Zn27 O45 1.953 . S
Zn28 O25 1.945 . S
Zn28 O30 1.932 . S
Zn28 O37 1.977 . S
Zn28 O38 1.910 . S
O29 Zn26 1.933 . S
O29 C40 1.226 . S
O30 Zn28 1.932 . S
O30 C40 1.307 . S
O31 Zn24 1.919 . S
O31 C42 1.253 . S
O32 Zn26 1.941 . S
O32 C42 1.283 . S
O33 Zn26 1.965 . S
O33 C41 1.303 . S
O34 Zn27 1.938 . S
O34 C41 1.247 . S
O35 Zn27 1.906 . S
O35 C43 1.304 . S
O36 Zn24 1.924 . S
O36 C44 1.311 . S
O37 Zn28 1.977 . S
O37 C43 1.272 . S
O38 Zn28 1.910 . S
O38 C44 1.231 . S
C39 O23 1.225 . S
C39 O45 1.298 . S
C40 O29 1.226 . S
C40 O30 1.307 . S
C41 O33 1.303 . S
C41 O34 1.247 . S
C42 O31 1.253 . S
C42 O32 1.283 . S
C43 O35 1.304 . S
C43 O37 1.272 . S
C44 O36 1.311 . S
C44 O38 1.231 . S
O45 Zn27 1.953 . S
O45 C39 1.298 . S
H46 C51 0.929 . S
H47 C56 0.931 . S
H48 C54 0.930 . S
N49 N50 1.234 . S
N49 C53 1.453 . S
N50 N49 1.234 . S
C51 H46 0.929 . S
C51 C52 1.373 . S
C51 C53 1.368 1_465 S
C52 C51 1.373 . S
C52 C56 1.397 . S
C53 N49 1.453 . S
C53 C51 1.368 1_645 S
C53 C54 1.373 . S
C54 H48 0.930 . S
C54 C53 1.373 . S
C54 C55 1.371 1_655 S
C55 C54 1.371 1_455 S
C55 C56 1.383 1_545 S
C56 H47 0.931 . S
C56 C52 1.397 . S
C56 C55 1.383 1_565 S
H57 C62 0.929 . S
H58 C67 0.931 . S
H59 C65 0.930 . S
N60 N61 1.234 . S
N60 C64 1.453 . S
N61 N60 1.234 . S
C62 H57 0.929 . S
C62 C63 1.373 . S
C62 C64 1.368 1_665 S
C63 C62 1.373 . S
C63 C67 1.397 . S
C64 N60 1.453 . S
C64 C62 1.368 1_445 S
C64 C65 1.373 . S
C65 H59 0.930 . S
C65 C64 1.373 . S
C65 C66 1.371 . S
C66 C65 1.371 . S
C66 C67 1.383 1_445 S
C67 H58 0.931 . S
C67 C63 1.397 . S
C67 C66 1.383 1_665 S
H68 C73 0.929 . S
H69 C78 0.931 . S
H70 C76 0.930 . S
N71 N72 1.234 . S
N71 C75 1.453 . S
N72 N71 1.234 . S
C73 H68 0.929 . S
C73 C74 1.373 . S
C73 C75 1.368 . S
C74 C73 1.373 . S
C74 C78 1.397 . S
C75 N71 1.453 . S
C75 C73 1.368 . S
C75 C76 1.373 . S
C76 H70 0.930 . S
C76 C75 1.373 . S
C76 C77 1.371 . S
C77 C76 1.371 . S
C77 C78 1.383 . S
C78 H69 0.931 . S
C78 C74 1.397 . S
C78 C77 1.383 . S
H79 C84 0.929 . S
H80 C89 0.931 . S
H81 C87 0.930 . S
N82 N83 1.234 . S
N82 C86 1.453 . S
N83 N82 1.234 . S
C84 H79 0.929 . S
C84 C85 1.373 . S
C84 C86 1.368 . S
C85 C84 1.373 . S
C85 C89 1.397 . S
C86 N82 1.453 . S
C86 C84 1.368 . S
C86 C87 1.373 . S
C87 H81 0.930 . S
C87 C86 1.373 . S
C87 C88 1.371 . S
C88 C87 1.371 . S
C88 C89 1.383 . S
C89 H80 0.931 . S
C89 C85 1.397 . S
C89 C88 1.383 . S
H90 C98 0.929 . S
H91 C100 0.930 . S
H92 C102 0.930 . S
H93 C105 0.929 1_556 S
H94 C108 0.930 . S
H95 C110 0.960 . S
H96 C110 0.960 . S
H97 C110 0.960 . S
C98 H90 0.929 . S
C98 C99 1.377 . S
C98 C100 1.384 . S
C99 C98 1.377 . S
C99 C105 1.390 . S
C100 H91 0.930 . S
C100 C98 1.384 . S
C100 C101 1.372 . S
C101 C100 1.372 . S
C101 C102 1.400 . S
C101 C106 1.490 . S
C102 H92 0.930 . S
C102 C101 1.400 . S
C102 C105 1.386 . S
H103 C119 0.930 . S
H104 C120 0.931 . S
C105 H93 0.929 1_554 S
C105 C99 1.390 . S
C105 C102 1.386 . S
C106 C101 1.490 . S
C106 C108 1.395 . S
C106 C109 1.403 . S
H107 C113 0.930 . S
C108 H94 0.930 . S
C108 C106 1.395 . S
C108 C111 1.403 . S
C109 C106 1.403 . S
C109 C110 1.524 . S
C109 C113 1.400 . S
C110 H95 0.960 . S
C110 H96 0.960 . S
C110 H97 0.960 . S
C110 C109 1.524 . S
C111 C108 1.403 . S
C111 C112 1.392 . S
C111 C115 1.495 . S
C112 C111 1.392 . S
C112 C113 1.385 . S
C112 C114 1.478 . S
C113 H107 0.930 . S
C113 C109 1.400 . S
C113 C112 1.385 . S
C114 C112 1.478 . S
C114 C116 1.381 . S
C114 C120 1.383 . S
C115 C111 1.495 . S
C115 H121 0.959 . S
C115 H122 0.961 . S
C115 H123 0.960 . S
C116 C114 1.381 . S
C116 C117 1.394 . S
C116 H124 0.930 . S
C117 C116 1.394 . S
C117 C118 1.383 . S
C117 H125 0.929 . S
C118 C117 1.383 . S
C118 C119 1.377 . S
C119 H103 0.930 . S
C119 C118 1.377 . S
C119 C120 1.379 . S
C120 H104 0.931 . S
C120 C114 1.383 . S
C120 C119 1.379 . S
H121 C115 0.959 . S
H122 C115 0.961 . S
H123 C115 0.960 . S
H124 C116 0.930 . S
H125 C117 0.929 . S
H126 C134 0.929 1_554 S
H127 C136 0.930 . S
H128 C138 0.930 . S
H129 C141 0.929 . S
H130 C144 0.930 1_554 S
H131 C146 0.960 . S
H132 C146 0.960 . S
H133 C146 0.960 . S
C134 H126 0.929 1_556 S
C134 C135 1.377 . S
C134 C136 1.384 . S
C135 C134 1.377 . S
C135 C141 1.390 . S
C136 H127 0.930 . S
C136 C134 1.384 . S
C136 C137 1.372 . S
C137 C136 1.372 . S
C137 C138 1.400 . S
C137 C142 1.490 . S
C138 H128 0.930 . S
C138 C137 1.400 . S
C138 C141 1.386 . S
H139 C155 0.930 . S
H140 C156 0.931 . S
C141 H129 0.929 . S
C141 C135 1.390 . S
C141 C138 1.386 . S
C142 C137 1.490 . S
C142 C144 1.395 . S
C142 C145 1.403 . S
H143 C149 0.930 . S
C144 H130 0.930 1_556 S
C144 C142 1.395 . S
C144 C147 1.403 . S
C145 C142 1.403 . S
C145 C146 1.524 . S
C145 C149 1.400 . S
C146 H131 0.960 . S
C146 H132 0.960 . S
C146 H133 0.960 . S
C146 C145 1.524 . S
C147 C144 1.403 . S
C147 C148 1.392 . S
C147 C151 1.495 1_556 S
C148 C147 1.392 . S
C148 C149 1.385 . S
C148 C150 1.478 . S
C149 H143 0.930 . S
C149 C145 1.400 . S
C149 C148 1.385 . S
C150 C148 1.478 . S
C150 C152 1.381 . S
C150 C156 1.383 . S
C151 C147 1.495 1_554 S
C151 H157 0.959 . S
C151 H158 0.961 . S
C151 H159 0.960 . S
C152 C150 1.381 . S
C152 C153 1.394 . S
C152 H160 0.930 . S
C153 C152 1.394 . S
C153 C154 1.383 . S
C153 H161 0.929 . S
C154 C153 1.383 . S
C154 C155 1.377 . S
C155 H139 0.930 . S
C155 C154 1.377 . S
C155 C156 1.379 . S
C156 H140 0.931 . S
C156 C150 1.383 . S
C156 C155 1.379 . S
H157 C151 0.959 . S
H158 C151 0.961 . S
H159 C151 0.960 . S
H160 C152 0.930 . S
H161 C153 0.929 . S
H162 C170 0.929 . S
H163 C172 0.930 . S
H164 C174 0.930 . S
H165 C177 0.929 . S
H166 C180 0.930 . S
H167 C182 0.960 . S
H168 C182 0.960 . S
H169 C182 0.960 . S
C170 H162 0.929 . S
C170 C171 1.377 . S
C170 C172 1.384 . S
C171 C170 1.377 . S
C171 C177 1.390 . S
C172 H163 0.930 . S
C172 C170 1.384 . S
C172 C173 1.372 . S
C173 C172 1.372 . S
C173 C174 1.400 . S
C173 C178 1.490 . S
C174 H164 0.930 . S
C174 C173 1.400 . S
C174 C177 1.386 . S
H175 C191 0.930 . S
H176 C192 0.931 . S
C177 H165 0.929 . S
C177 C171 1.390 . S
C177 C174 1.386 . S
C178 C173 1.490 . S
C178 C180 1.395 . S
C178 C181 1.403 . S
H179 C185 0.930 . S
C180 H166 0.930 . S
C180 C178 1.395 . S
C180 C183 1.403 . S
C181 C178 1.403 . S
C181 C182 1.524 . S
C181 C185 1.400 . S
C182 H167 0.960 . S
C182 H168 0.960 . S
C182 H169 0.960 . S
C182 C181 1.524 . S
C183 C180 1.403 . S
C183 C184 1.392 . S
C183 C187 1.495 . S
C184 C183 1.392 . S
C184 C185 1.385 . S
C184 C186 1.478 . S
C185 H179 0.930 . S
C185 C181 1.400 . S
C185 C184 1.385 . S
C186 C184 1.478 . S
C186 C188 1.381 . S
C186 C192 1.383 . S
C187 C183 1.495 . S
C187 H193 0.959 . S
C187 H194 0.961 . S
C187 H195 0.960 . S
C188 C186 1.381 . S
C188 C189 1.394 . S
C188 H196 0.930 . S
C189 C188 1.394 . S
C189 C190 1.383 . S
C189 H197 0.929 . S
C190 C189 1.383 . S
C190 C191 1.377 . S
C191 H175 0.930 . S
C191 C190 1.377 . S
C191 C192 1.379 . S
C192 H176 0.931 . S
C192 C186 1.383 . S
C192 C191 1.379 . S
H193 C187 0.959 . S
H194 C187 0.961 . S
H195 C187 0.960 . S
H196 C188 0.930 . S
H197 C189 0.929 . S
H198 C206 0.929 1_554 S
H199 C208 0.930 . S
H200 C210 0.930 . S
H201 C213 0.929 . S
H202 C216 0.930 . S
H203 C218 0.960 . S
H204 C218 0.960 1_554 S
H205 C218 0.960 . S
C206 H198 0.929 1_556 S
C206 C207 1.377 . S
C206 C208 1.384 . S
C207 C206 1.377 . S
C207 C213 1.390 . S
C208 H199 0.930 . S
C208 C206 1.384 . S
C208 C209 1.372 . S
C209 C208 1.372 . S
C209 C210 1.400 . S
C209 C214 1.490 . S
C210 H200 0.930 . S
C210 C209 1.400 . S
C210 C213 1.386 . S
H211 C227 0.930 . S
H212 C228 0.931 . S
C213 H201 0.929 . S
C213 C207 1.390 . S
C213 C210 1.386 . S
C214 C209 1.490 . S
C214 C216 1.395 . S
C214 C217 1.403 . S
H215 C221 0.930 . S
C216 H202 0.930 . S
C216 C214 1.395 . S
C216 C219 1.403 . S
C217 C214 1.403 . S
C217 C218 1.524 . S
C217 C221 1.400 . S
C218 H203 0.960 . S
C218 H204 0.960 1_556 S
C218 H205 0.960 . S
C218 C217 1.524 . S
C219 C216 1.403 . S
C219 C220 1.392 . S
C219 C223 1.495 . S
C220 C219 1.392 . S
C220 C221 1.385 . S
C220 C222 1.478 . S
C221 H215 0.930 . S
C221 C217 1.400 . S
C221 C220 1.385 . S
C222 C220 1.478 . S
C222 C224 1.381 . S
C222 C228 1.383 . S
C223 C219 1.495 . S
C223 H229 0.959 . S
C223 H230 0.961 . S
C223 H231 0.960 . S
C224 C222 1.381 . S
C224 C225 1.394 . S
C224 H232 0.930 . S
C225 C224 1.394 . S
C225 C226 1.383 . S
C225 H233 0.929 . S
C226 C225 1.383 . S
C226 C227 1.377 . S
C227 H211 0.930 . S
C227 C226 1.377 . S
C227 C228 1.379 . S
C228 H212 0.931 . S
C228 C222 1.383 . S
C228 C227 1.379 . S
H229 C223 0.959 . S
H230 C223 0.961 . S
H231 C223 0.960 . S
H232 C224 0.930 . S
H233 C225 0.929 . S
H234 C242 0.929 . S
H235 C244 0.930 . S
H236 C246 0.930 . S
H237 C249 0.929 . S
H238 C252 0.930 . S
H239 C254 0.960 . S
H240 C254 0.960 . S
H241 C254 0.960 . S
C242 H234 0.929 . S
C242 C243 1.377 . S
C242 C244 1.384 . S
C243 C242 1.377 . S
C243 C249 1.390 . S
C244 H235 0.930 . S
C244 C242 1.384 . S
C244 C245 1.372 . S
C245 C244 1.372 . S
C245 C246 1.400 . S
C245 C250 1.490 . S
C246 H236 0.930 . S
C246 C245 1.400 . S
C246 C249 1.386 . S
H247 C263 0.930 . S
H248 C264 0.931 . S
C249 H237 0.929 . S
C249 C243 1.390 . S
C249 C246 1.386 . S
C250 C245 1.490 . S
C250 C252 1.395 . S
C250 C253 1.403 . S
H251 C257 0.930 . S
C252 H238 0.930 . S
C252 C250 1.395 . S
C252 C255 1.403 . S
C253 C250 1.403 . S
C253 C254 1.524 . S
C253 C257 1.400 . S
C254 H239 0.960 . S
C254 H240 0.960 . S
C254 H241 0.960 . S
C254 C253 1.524 . S
C255 C252 1.403 . S
C255 C256 1.392 . S
C255 C259 1.495 . S
C256 C255 1.392 . S
C256 C257 1.385 . S
C256 C258 1.478 . S
C257 H251 0.930 . S
C257 C253 1.400 . S
C257 C256 1.385 . S
C258 C256 1.478 . S
C258 C260 1.381 . S
C258 C264 1.383 . S
C259 C255 1.495 . S
C259 H265 0.959 . S
C259 H266 0.961 . S
C259 H267 0.960 . S
C260 C258 1.381 . S
C260 C261 1.394 . S
C260 H268 0.930 . S
C261 C260 1.394 . S
C261 C262 1.383 . S
C261 H269 0.929 . S
C262 C261 1.383 . S
C262 C263 1.377 . S
C263 H247 0.930 . S
C263 C262 1.377 . S
C263 C264 1.379 . S
C264 H248 0.931 . S
C264 C258 1.383 . S
C264 C263 1.379 . S
H265 C259 0.959 . S
H266 C259 0.961 . S
H267 C259 0.960 . S
H268 C260 0.930 . S
H269 C261 0.929 . S
H270 C278 0.929 . S
H271 C280 0.930 . S
H272 C282 0.930 . S
H273 C285 0.929 . S
H274 C288 0.930 . S
H275 C290 0.960 . S
H276 C290 0.960 . S
H277 C290 0.960 . S
C278 H270 0.929 . S
C278 C279 1.377 . S
C278 C280 1.384 . S
C279 C278 1.377 . S
C279 C285 1.390 . S
C280 H271 0.930 . S
C280 C278 1.384 . S
C280 C281 1.372 . S
C281 C280 1.372 . S
C281 C282 1.400 . S
C281 C286 1.490 . S
C282 H272 0.930 . S
C282 C281 1.400 . S
C282 C285 1.386 . S
H283 C299 0.930 . S
H284 C300 0.931 . S
C285 H273 0.929 . S
C285 C279 1.390 . S
C285 C282 1.386 . S
C286 C281 1.490 . S
C286 C288 1.395 . S
C286 C289 1.403 . S
H287 C293 0.930 . S
C288 H274 0.930 . S
C288 C286 1.395 . S
C288 C291 1.403 . S
C289 C286 1.403 . S
C289 C290 1.524 . S
C289 C293 1.400 . S
C290 H275 0.960 . S
C290 H276 0.960 . S
C290 H277 0.960 . S
C290 C289 1.524 . S
C291 C288 1.403 . S
C291 C292 1.392 . S
C291 C295 1.495 . S
C292 C291 1.392 . S
C292 C293 1.385 . S
C292 C294 1.478 . S
C293 H287 0.930 . S
C293 C289 1.400 . S
C293 C292 1.385 . S
C294 C292 1.478 . S
C294 C296 1.381 . S
C294 C300 1.383 . S
C295 C291 1.495 . S
C295 H301 0.959 . S
C295 H302 0.961 . S
C295 H303 0.960 . S
C296 C294 1.381 . S
C296 C297 1.394 . S
C296 H304 0.930 . S
C297 C296 1.394 . S
C297 C298 1.383 . S
C297 H305 0.929 . S
C298 C297 1.383 . S
C298 C299 1.377 . S
C299 H283 0.930 . S
C299 C298 1.377 . S
C299 C300 1.379 . S
C300 H284 0.931 . S
C300 C294 1.383 . S
C300 C299 1.379 . S
H301 C295 0.959 . S
H302 C295 0.961 . S
H303 C295 0.960 . S
H304 C296 0.930 . S
H305 C297 0.929 . S
H306 C314 0.929 . S
H307 C316 0.930 . S
H308 C318 0.930 . S
H309 C321 0.929 . S
H310 C324 0.930 . S
H311 C326 0.960 . S
H312 C326 0.960 . S
H313 C326 0.960 . S
C314 H306 0.929 . S
C314 C315 1.377 . S
C314 C316 1.384 . S
C315 C314 1.377 . S
C315 C321 1.390 . S
C316 H307 0.930 . S
C316 C314 1.384 . S
C316 C317 1.372 . S
C317 C316 1.372 . S
C317 C318 1.400 . S
C317 C322 1.490 . S
C318 H308 0.930 . S
C318 C317 1.400 . S
C318 C321 1.386 . S
H319 C335 0.930 . S
H320 C336 0.931 . S
C321 H309 0.929 . S
C321 C315 1.390 . S
C321 C318 1.386 . S
C322 C317 1.490 . S
C322 C324 1.395 . S
C322 C325 1.403 . S
H323 C329 0.930 . S
C324 H310 0.930 . S
C324 C322 1.395 . S
C324 C327 1.403 . S
C325 C322 1.403 . S
C325 C326 1.524 . S
C325 C329 1.400 . S
C326 H311 0.960 . S
C326 H312 0.960 . S
C326 H313 0.960 . S
C326 C325 1.524 . S
C327 C324 1.403 . S
C327 C328 1.392 . S
C327 C331 1.495 . S
C328 C327 1.392 . S
C328 C329 1.385 . S
C328 C330 1.478 . S
C329 H323 0.930 . S
C329 C325 1.400 . S
C329 C328 1.385 . S
C330 C328 1.478 . S
C330 C332 1.381 . S
C330 C336 1.383 . S
C331 C327 1.495 . S
C331 H337 0.959 . S
C331 H338 0.961 . S
C331 H339 0.960 . S
C332 C330 1.381 . S
C332 C333 1.394 . S
C332 H340 0.930 . S
C333 C332 1.394 . S
C333 C334 1.383 . S
C333 H341 0.929 . S
C334 C333 1.383 . S
C334 C335 1.377 . S
C335 H319 0.930 . S
C335 C334 1.377 . S
C335 C336 1.379 . S
C336 H320 0.931 . S
C336 C330 1.383 . S
C336 C335 1.379 . S
H337 C331 0.959 . S
H338 C331 0.961 . S
H339 C331 0.960 . S
H340 C332 0.930 . S
H341 C333 0.929 . S
H342 C350 0.929 . S
H343 C352 0.930 . S
H344 C354 0.930 . S
H345 C357 0.929 . S
H346 C360 0.930 . S
H347 C362 0.960 . S
H348 C362 0.960 . S
H349 C362 0.960 . S
C350 H342 0.929 . S
C350 C351 1.377 . S
C350 C352 1.384 . S
C351 C350 1.377 . S
C351 C357 1.390 . S
C352 H343 0.930 . S
C352 C350 1.384 . S
C352 C353 1.372 . S
C353 C352 1.372 . S
C353 C354 1.400 . S
C353 C358 1.490 . S
C354 H344 0.930 . S
C354 C353 1.400 . S
C354 C357 1.386 . S
H355 C371 0.930 . S
H356 C372 0.931 . S
C357 H345 0.929 . S
C357 C351 1.390 . S
C357 C354 1.386 . S
C358 C353 1.490 . S
C358 C360 1.395 . S
C358 C361 1.403 . S
H359 C365 0.930 . S
C360 H346 0.930 . S
C360 C358 1.395 . S
C360 C363 1.403 . S
C361 C358 1.403 . S
C361 C362 1.524 . S
C361 C365 1.400 . S
C362 H347 0.960 . S
C362 H348 0.960 . S
C362 H349 0.960 . S
C362 C361 1.524 . S
C363 C360 1.403 . S
C363 C364 1.392 . S
C363 C367 1.495 . S
C364 C363 1.392 . S
C364 C365 1.385 . S
C364 C366 1.478 . S
C365 H359 0.930 . S
C365 C361 1.400 . S
C365 C364 1.385 . S
C366 C364 1.478 . S
C366 C368 1.381 . S
C366 C372 1.383 . S
C367 C363 1.495 . S
C367 H373 0.959 . S
C367 H374 0.961 . S
C367 H375 0.960 . S
C368 C366 1.381 . S
C368 C369 1.394 . S
C368 H376 0.930 . S
C369 C368 1.394 . S
C369 C370 1.383 . S
C369 H377 0.929 . S
C370 C369 1.383 . S
C370 C371 1.377 . S
C371 H355 0.930 . S
C371 C370 1.377 . S
C371 C372 1.379 . S
C372 H356 0.931 . S
C372 C366 1.383 . S
C372 C371 1.379 . S
H373 C367 0.959 . S
H374 C367 0.961 . S
H375 C367 0.960 . S
H376 C368 0.930 . S
H377 C369 0.929 . S
H378 C386 0.929 . S
H379 C388 0.930 . S
H380 C390 0.930 . S
H381 C393 0.929 . S
H382 C396 0.930 . S
H383 C398 0.960 . S
H384 C398 0.960 . S
H385 C398 0.960 . S
C386 H378 0.929 . S
C386 C387 1.377 . S
C386 C388 1.384 . S
C387 C386 1.377 . S
C387 C393 1.390 1_445 S
C388 H379 0.930 . S
C388 C386 1.384 . S
C388 C389 1.372 . S
C389 C388 1.372 . S
C389 C390 1.400 1_445 S
C389 C394 1.490 . S
C390 H380 0.930 . S
C390 C389 1.400 1_665 S
C390 C393 1.386 . S
H391 C407 0.930 . S
H392 C408 0.931 . S
C393 H381 0.929 . S
C393 C387 1.390 1_665 S
C393 C390 1.386 . S
C394 C389 1.490 . S
C394 C396 1.395 . S
C394 C397 1.403 1_545 S
H395 C401 0.930 . S
C396 H382 0.930 . S
C396 C394 1.395 . S
C396 C399 1.403 . S
C397 C394 1.403 1_565 S
C397 C398 1.524 . S
C397 C401 1.400 . S
C398 H383 0.960 . S
C398 H384 0.960 . S
C398 H385 0.960 . S
C398 C397 1.524 . S
C399 C396 1.403 . S
C399 C400 1.392 . S
C399 C403 1.495 1_455 S
C400 C399 1.392 . S
C400 C401 1.385 1_545 S
C400 C402 1.478 . S
C401 H395 0.930 . S
C401 C397 1.400 . S
C401 C400 1.385 1_565 S
C402 C400 1.478 . S
C402 C404 1.381 . S
C402 C408 1.383 1_445 S
C403 C399 1.495 1_655 S
C403 H409 0.959 . S
C403 H410 0.961 . S
C403 H411 0.960 1_655 S
C404 C402 1.381 . S
C404 C405 1.394 . S
C404 H412 0.930 . S
C405 C404 1.394 . S
C405 C406 1.383 . S
C405 H413 0.929 . S
C406 C405 1.383 . S
C406 C407 1.377 1_445 S
C407 H391 0.930 . S
C407 C406 1.377 1_665 S
C407 C408 1.379 . S
C408 H392 0.931 . S
C408 C402 1.383 1_665 S
C408 C407 1.379 . S
H409 C403 0.959 . S
H410 C403 0.961 . S
H411 C403 0.960 1_455 S
H412 C404 0.930 . S
H413 C405 0.929 . S
H414 C422 0.929 . S
H415 C424 0.930 . S
H416 C426 0.930 . S
H417 C429 0.929 . S
H418 C432 0.930 . S
H419 C434 0.960 . S
H420 C434 0.960 . S
H421 C434 0.960 . S
C422 H414 0.929 . S
C422 C423 1.377 1_655 S
C422 C424 1.384 . S
C423 C422 1.377 1_455 S
C423 C429 1.390 1_545 S
C424 H415 0.930 . S
C424 C422 1.384 . S
C424 C425 1.372 1_655 S
C425 C424 1.372 1_455 S
C425 C426 1.400 1_545 S
C425 C430 1.490 . S
C426 H416 0.930 . S
C426 C425 1.400 1_565 S
C426 C429 1.386 . S
H427 C443 0.930 . S
H428 C444 0.931 . S
C429 H417 0.929 . S
C429 C423 1.390 1_565 S
C429 C426 1.386 . S
C430 C425 1.490 . S
C430 C432 1.395 . S
C430 C433 1.403 1_445 S
H431 C437 0.930 . S
C432 H418 0.930 . S
C432 C430 1.395 . S
C432 C435 1.403 . S
C433 C430 1.403 1_665 S
C433 C434 1.524 . S
C433 C437 1.400 . S
C434 H419 0.960 . S
C434 H420 0.960 . S
C434 H421 0.960 . S
C434 C433 1.524 . S
C435 C432 1.403 . S
C435 C436 1.392 . S
C435 C439 1.495 . S
C436 C435 1.392 . S
C436 C437 1.385 1_445 S
C436 C438 1.478 . S
C437 H431 0.930 . S
C437 C433 1.400 . S
C437 C436 1.385 1_665 S
C438 C436 1.478 . S
C438 C440 1.381 1_455 S
C438 C444 1.383 1_545 S
C439 C435 1.495 . S
C439 H445 0.959 . S
C439 H446 0.961 . S
C439 H447 0.960 . S
C440 C438 1.381 1_655 S
C440 C441 1.394 . S
C440 H448 0.930 . S
C441 C440 1.394 . S
C441 C442 1.383 1_655 S
C441 H449 0.929 . S
C442 C441 1.383 1_455 S
C442 C443 1.377 1_545 S
C443 H427 0.930 . S
C443 C442 1.377 1_565 S
C443 C444 1.379 . S
C444 H428 0.931 . S
C444 C438 1.383 1_565 S
C444 C443 1.379 . S
H445 C439 0.959 . S
H446 C439 0.961 . S
H447 C439 0.960 . S
H448 C440 0.930 . S
H449 C441 0.929 . S
H450 C458 0.929 . S
H451 C460 0.930 . S
H452 C462 0.930 . S
H453 C465 0.929 . S
H454 C468 0.930 . S
H455 C470 0.960 . S
H456 C470 0.960 . S
H457 C470 0.960 . S
C458 H450 0.929 . S
C458 C459 1.377 . S
C458 C460 1.384 . S
C459 C458 1.377 . S
C459 C465 1.390 . S
C460 H451 0.930 . S
C460 C458 1.384 . S
C460 C461 1.372 . S
C461 C460 1.372 . S
C461 C462 1.400 . S
C461 C466 1.490 . S
C462 H452 0.930 . S
C462 C461 1.400 . S
C462 C465 1.386 . S
H463 C479 0.930 . S
H464 C480 0.931 . S
C465 H453 0.929 . S
C465 C459 1.390 . S
C465 C462 1.386 . S
C466 C461 1.490 . S
C466 C468 1.395 . S
C466 C469 1.403 . S
H467 C473 0.930 . S
C468 H454 0.930 . S
C468 C466 1.395 . S
C468 C471 1.403 . S
C469 C466 1.403 . S
C469 C470 1.524 . S
C469 C473 1.400 . S
C470 H455 0.960 . S
C470 H456 0.960 . S
C470 H457 0.960 . S
C470 C469 1.524 . S
C471 C468 1.403 . S
C471 C472 1.392 . S
C471 C475 1.495 . S
C472 C471 1.392 . S
C472 C473 1.385 . S
C472 C474 1.478 . S
C473 H467 0.930 . S
C473 C469 1.400 . S
C473 C472 1.385 . S
C474 C472 1.478 . S
C474 C476 1.381 . S
C474 C480 1.383 . S
C475 C471 1.495 . S
C475 H481 0.959 . S
C475 H482 0.961 . S
C475 H483 0.960 . S
C476 C474 1.381 . S
C476 C477 1.394 . S
C476 H484 0.930 . S
C477 C476 1.394 . S
C477 C478 1.383 . S
C477 H485 0.929 . S
C478 C477 1.383 . S
C478 C479 1.377 . S
C479 H463 0.930 . S
C479 C478 1.377 . S
C479 C480 1.379 . S
C480 H464 0.931 . S
C480 C474 1.383 . S
C480 C479 1.379 . S
H481 C475 0.959 . S
H482 C475 0.961 . S
H483 C475 0.960 . S
H484 C476 0.930 . S
H485 C477 0.929 . S
H486 C494 0.929 . S
H487 C496 0.930 . S
H488 C498 0.930 . S
H489 C501 0.929 . S
H490 C504 0.930 . S
H491 C506 0.960 . S
H492 C506 0.960 . S
H493 C506 0.960 . S
C494 H486 0.929 . S
C494 C495 1.377 . S
C494 C496 1.384 . S
C495 C494 1.377 . S
C495 C501 1.390 . S
C496 H487 0.930 . S
C496 C494 1.384 . S
C496 C497 1.372 . S
C497 C496 1.372 . S
C497 C498 1.400 . S
C497 C502 1.490 . S
C498 H488 0.930 . S
C498 C497 1.400 . S
C498 C501 1.386 . S
H499 C515 0.930 . S
H500 C516 0.931 . S
C501 H489 0.929 . S
C501 C495 1.390 . S
C501 C498 1.386 . S
C502 C497 1.490 . S
C502 C504 1.395 . S
C502 C505 1.403 . S
H503 C509 0.930 . S
C504 H490 0.930 . S
C504 C502 1.395 . S
C504 C507 1.403 . S
C505 C502 1.403 . S
C505 C506 1.524 . S
C505 C509 1.400 . S
C506 H491 0.960 . S
C506 H492 0.960 . S
C506 H493 0.960 . S
C506 C505 1.524 . S
C507 C504 1.403 . S
C507 C508 1.392 . S
C507 C511 1.495 . S
C508 C507 1.392 . S
C508 C509 1.385 . S
C508 C510 1.478 . S
C509 H503 0.930 . S
C509 C505 1.400 . S
C509 C508 1.385 . S
C510 C508 1.478 . S
C510 C512 1.381 . S
C510 C516 1.383 . S
C511 C507 1.495 . S
C511 H517 0.959 . S
C511 H518 0.961 . S
C511 H519 0.960 . S
C512 C510 1.381 . S
C512 C513 1.394 . S
C512 H520 0.930 . S
C513 C512 1.394 . S
C513 C514 1.383 . S
C513 H521 0.929 . S
C514 C513 1.383 . S
C514 C515 1.377 . S
C515 H499 0.930 . S
C515 C514 1.377 . S
C515 C516 1.379 . S
C516 H500 0.931 . S
C516 C510 1.383 . S
C516 C515 1.379 . S
H517 C511 0.959 . S
H518 C511 0.961 . S
H519 C511 0.960 . S
H520 C512 0.930 . S
H521 C513 0.929 . S
C118 C85 1.515 . S
C99 C21 1.521 . S
C135 C19 1.381 1_556 S
C154 N72 1.377 . S
C171 C18 1.345 . S
C190 N83 1.346 . S
C207 C20 1.498 . S
C226 C74 1.498 . S
C243 C44 1.516 . S
C262 C63 1.515 . S
C279 C42 1.381 . S
C298 N50 1.369 . S
C334 N61 1.324 . S
C315 C41 1.344 . S
C370 C52 1.492 . S
C351 C43 1.497 . S
C387 C16 1.527 . S
C406 C55 1.526 . S
C423 C17 1.486 . S
C442 C66 1.485 . S
C478 C77 1.524 . S
C459 C39 1.527 . S
C495 C40 1.486 . S
C514 C88 1.475 . S
