# Generated by pormake.
# Topology hwx, (6,3)-cn, num edge types: 1
# Building blocks:
#     Node 0, Type 0, BuildingBlock: OJICUG_clean_sbu_0, # of connection points: 6
#     Node 1, Type 0, BuildingBlock: OJICUG_clean_sbu_0, # of connection points: 6
#     Node 2, Type 0, BuildingBlock: OJICUG_clean_sbu_0, # of connection points: 6
#     Node 3, Type 0, BuildingBlock: OJICUG_clean_sbu_0, # of connection points: 6
#     Node 4, Type 1, BuildingBlock: BETDAH_clean_linker_0, # of connection points: 3
#     Node 5, Type 1, BuildingBlock: BETDAH_clean_linker_0, # of connection points: 3
#     Node 6, Type 1, BuildingBlock: BETDAH_clean_linker_0, # of connection points: 3
#     Node 7, Type 1, BuildingBlock: BETDAH_clean_linker_0, # of connection points: 3
#     Node 8, Type 1, BuildingBlock: BETDAH_clean_linker_0, # of connection points: 3
#     Node 9, Type 1, BuildingBlock: BETDAH_clean_linker_0, # of connection points: 3
#     Node 10, Type 1, BuildingBlock: BETDAH_clean_linker_0, # of connection points: 3
#     Node 11, Type 1, BuildingBlock: BETDAH_clean_linker_0, # of connection points: 3
#     Edge 12, Type (0, 1), BuildingBlock: MIFKUJ_clean_linker_0, # of connection points: 2
#     Edge 13, Type (0, 1), BuildingBlock: MIFKUJ_clean_linker_0, # of connection points: 2
#     Edge 14, Type (0, 1), BuildingBlock: MIFKUJ_clean_linker_0, # of connection points: 2
#     Edge 15, Type (0, 1), BuildingBlock: MIFKUJ_clean_linker_0, # of connection points: 2
#     Edge 16, Type (0, 1), BuildingBlock: MIFKUJ_clean_linker_0, # of connection points: 2
#     Edge 17, Type (0, 1), BuildingBlock: MIFKUJ_clean_linker_0, # of connection points: 2
#     Edge 18, Type (0, 1), BuildingBlock: MIFKUJ_clean_linker_0, # of connection points: 2
#     Edge 19, Type (0, 1), BuildingBlock: MIFKUJ_clean_linker_0, # of connection points: 2
#     Edge 20, Type (0, 1), BuildingBlock: MIFKUJ_clean_linker_0, # of connection points: 2
#     Edge 21, Type (0, 1), BuildingBlock: MIFKUJ_clean_linker_0, # of connection points: 2
#     Edge 22, Type (0, 1), BuildingBlock: MIFKUJ_clean_linker_0, # of connection points: 2
#     Edge 23, Type (0, 1), BuildingBlock: MIFKUJ_clean_linker_0, # of connection points: 2
#     Edge 24, Type (0, 1), BuildingBlock: MIFKUJ_clean_linker_0, # of connection points: 2
#     Edge 25, Type (0, 1), BuildingBlock: MIFKUJ_clean_linker_0, # of connection points: 2
#     Edge 26, Type (0, 1), BuildingBlock: MIFKUJ_clean_linker_0, # of connection points: 2
#     Edge 27, Type (0, 1), BuildingBlock: MIFKUJ_clean_linker_0, # of connection points: 2
#     Edge 28, Type (0, 1), BuildingBlock: MIFKUJ_clean_linker_0, # of connection points: 2
#     Edge 29, Type (0, 1), BuildingBlock: MIFKUJ_clean_linker_0, # of connection points: 2
#     Edge 30, Type (0, 1), BuildingBlock: MIFKUJ_clean_linker_0, # of connection points: 2
#     Edge 31, Type (0, 1), BuildingBlock: MIFKUJ_clean_linker_0, # of connection points: 2
#     Edge 32, Type (0, 1), BuildingBlock: MIFKUJ_clean_linker_0, # of connection points: 2
#     Edge 33, Type (0, 1), BuildingBlock: MIFKUJ_clean_linker_0, # of connection points: 2
#     Edge 34, Type (0, 1), BuildingBlock: MIFKUJ_clean_linker_0, # of connection points: 2
#     Edge 35, Type (0, 1), BuildingBlock: MIFKUJ_clean_linker_0, # of connection points: 2
# Relax obj value: 0.008
# Max RMSD: 0.047
# Mean RMSD: 0.043
data_MOF--net-hwx--node1-OJICUG_clean_sbu_0--node2-BETDAH_clean_linker_0--edge1-MIFKUJ_clean_linker_0
_symmetry_space_group_name_H-M    P1
_symmetry_Int_Tables_number       1
_symmetry_cell_setting            triclinic
loop_
_symmetry_equiv_pos_as_xyz
'x, y, z'
_cell_length_a     68.112025
_cell_length_b     68.101684
_cell_length_c     26.334963
_cell_angle_alpha  91.696502
_cell_angle_beta   91.659473
_cell_angle_gamma 89.994459
loop_
_atom_site_label
_atom_site_type_symbol
_atom_site_fract_x
_atom_site_fract_y
_atom_site_fract_z
_atom_type_partial_charge
Sc0 Sc 0.23067 0.2281 0.03075 0.0
Sc1 Sc 0.19433 0.196 0.97823 0.0
Sc2 Sc 0.22286 0.22413 0.8977 0.0
O3 O 0.21598 0.21607 0.96892 0.0
C4 C 0.22463 0.26518 0.95972 0.0
C5 C 0.18655 0.22693 0.06902 0.0
C6 C 0.17599 0.22119 0.8885 0.0
C7 C 0.22643 0.1834 0.06202 0.0
C8 C 0.26535 0.22235 0.95229 0.0
C9 C 0.21662 0.1777 0.8828 0.0
O10 O 0.22797 0.25742 0.00248 0.0
O11 O 0.181 0.21341 0.03748 0.0
O12 O 0.19252 0.22723 0.87407 0.0
O13 O 0.23478 0.20011 0.06615 0.0
O14 O 0.25405 0.22231 0.91301 0.0
O15 O 0.20545 0.17639 0.92039 0.0
O16 O 0.259 0.22408 0.99718 0.0
O17 O 0.2118 0.17992 0.03207 0.0
O18 O 0.22396 0.19393 0.8697 0.0
O19 O 0.20402 0.23358 0.07128 0.0
O20 O 0.22243 0.25508 0.9185 0.0
O21 O 0.1743 0.20976 0.92537 0.0
Sc22 Sc 0.27578 0.72496 0.47261 0.0
Sc23 Sc 0.30955 0.69356 0.53368 0.0
Sc24 Sc 0.2779 0.72363 0.60629 0.0
O25 O 0.28774 0.71404 0.53755 0.0
C26 C 0.27862 0.76348 0.54467 0.0
C27 C 0.32125 0.72216 0.4458 0.0
C28 C 0.32436 0.72085 0.628 0.0
C29 C 0.28065 0.67959 0.44161 0.0
C30 C 0.23785 0.7208 0.54042 0.0
C31 C 0.28378 0.67755 0.62297 0.0
O32 O 0.27829 0.75487 0.50113 0.0
O33 O 0.32562 0.70968 0.47923 0.0
O34 O 0.30746 0.72784 0.6375 0.0
O35 O 0.27212 0.69611 0.43744 0.0
O36 O 0.24739 0.72047 0.58265 0.0
O37 O 0.29608 0.67506 0.58792 0.0
O38 O 0.24614 0.72271 0.49823 0.0
O39 O 0.29453 0.67664 0.47385 0.0
O40 O 0.27618 0.69414 0.634 0.0
O41 O 0.30391 0.72864 0.43882 0.0
O42 O 0.27813 0.75422 0.58592 0.0
O43 O 0.32713 0.70822 0.59242 0.0
Sc44 Sc 0.77987 0.77533 0.94284 0.0
Sc45 Sc 0.80984 0.80858 0.01546 0.0
Sc46 Sc 0.7774 0.77702 0.0762 0.0
O47 O 0.78906 0.78696 0.01151 0.0
C48 C 0.73953 0.77886 0.00196 0.0
C49 C 0.78364 0.82087 0.91902 0.0
C50 C 0.78063 0.82333 0.10094 0.0
C51 C 0.82609 0.77991 0.92799 0.0
C52 C 0.78097 0.73708 0.00987 0.0
C53 C 0.82278 0.78176 0.10836 0.0
O54 O 0.74925 0.77728 0.9615 0.0
O55 O 0.79575 0.82488 0.9555 0.0
O56 O 0.77382 0.8063 0.10843 0.0
O57 O 0.80943 0.77224 0.91667 0.0
O58 O 0.77929 0.74655 0.05187 0.0
O59 O 0.82617 0.79484 0.07624 0.0
O60 O 0.78169 0.74552 0.96756 0.0
O61 O 0.82849 0.79314 0.96273 0.0
O62 O 0.80602 0.77377 0.11233 0.0
O63 O 0.77685 0.8037 0.91004 0.0
O64 O 0.74767 0.77914 0.04611 0.0
O65 O 0.79359 0.82644 0.06838 0.0
Sc66 Sc 0.73028 0.27216 0.60412 0.0
Sc67 Sc 0.6999 0.30474 0.53583 0.0
Sc68 Sc 0.73116 0.27238 0.47005 0.0
O69 O 0.72046 0.28308 0.5367 0.0
C70 C 0.76985 0.27436 0.54179 0.0
C71 C 0.7271 0.31816 0.6313 0.0
C72 C 0.72824 0.31829 0.44937 0.0
C73 C 0.68412 0.27718 0.62169 0.0
C74 C 0.72749 0.23325 0.53332 0.0
C75 C 0.68578 0.27747 0.44082 0.0
O76 O 0.76075 0.27355 0.58326 0.0
O77 O 0.71448 0.32146 0.59614 0.0
O78 O 0.73481 0.30116 0.43961 0.0
O79 O 0.70075 0.26948 0.63214 0.0
O80 O 0.72863 0.24236 0.49209 0.0
O81 O 0.68283 0.29054 0.47521 0.0
O82 O 0.72784 0.24197 0.57676 0.0
O83 O 0.68177 0.29005 0.58809 0.0
O84 O 0.70241 0.26944 0.43458 0.0
O85 O 0.73417 0.30116 0.63894 0.0
O86 O 0.76106 0.27417 0.4985 0.0
O87 O 0.71584 0.32188 0.48353 0.0
H88 H 0.24573 0.55297 0.00373 0.0
H89 H 0.20834 0.51653 0.08985 0.0
H90 H 0.21292 0.5058 0.92886 0.0
C91 C 0.2361 0.54033 0.00556 0.0
C92 C 0.23044 0.52989 0.96073 0.0
C93 C 0.22815 0.53565 0.05214 0.0
C94 C 0.21479 0.52006 0.05408 0.0
C95 C 0.20992 0.50875 0.01017 0.0
C96 C 0.21756 0.51383 0.96329 0.0
N97 N 0.19614 0.49331 0.01334 0.0
C98 C 0.20018 0.47413 0.99749 0.0
H99 H 0.94768 0.74034 0.51753 0.0
H100 H 0.99167 0.70676 0.4398 0.0
H101 H 0.99039 0.70722 0.60295 0.0
C102 C 0.9607 0.73117 0.51884 0.0
C103 C 0.96808 0.72475 0.56579 0.0
C104 C 0.96914 0.72486 0.47331 0.0
C105 C 0.98547 0.71231 0.47485 0.0
C106 C 0.99352 0.70648 0.52169 0.0
C107 C 0.9848 0.71268 0.5671 0.0
N108 N 0.00867 0.6923 0.52279 0.0
C109 C 0.02834 0.69757 0.52685 0.0
H110 H 0.76862 0.44417 0.03264 0.0
H111 H 0.75087 0.49848 0.96556 0.0
H112 H 0.74028 0.48898 0.12266 0.0
C113 C 0.76241 0.45876 0.03642 0.0
C114 C 0.75509 0.46515 0.08339 0.0
C115 C 0.76059 0.4704 0.99334 0.0
C116 C 0.75261 0.48938 0.99846 0.0
C117 C 0.74575 0.49616 0.04564 0.0
C118 C 0.74663 0.48391 0.08738 0.0
N119 N 0.73611 0.51446 0.05088 0.0
C120 C 0.74447 0.532 0.0369 0.0
H121 H 0.06664 0.27915 0.49642 0.0
H122 H 0.00773 0.28793 0.54722 0.0
H123 H 0.0199 0.29027 0.38808 0.0
C124 C 0.05135 0.28252 0.48807 0.0
C125 C 0.045 0.28464 0.43744 0.0
C126 C 0.03811 0.28386 0.52798 0.0
C127 C 0.01804 0.28694 0.51671 0.0
C128 C 0.01152 0.28931 0.46598 0.0
C129 C 0.02505 0.2883 0.42693 0.0
N130 N 0.99159 0.29303 0.45241 0.0
C131 C 0.97571 0.29004 0.48321 0.0
H132 H 0.72571 0.9376 0.5063 0.0
H133 H 0.70233 0.9895 0.4377 0.0
H134 H 0.70196 0.98409 0.60003 0.0
C135 C 0.71888 0.95194 0.51011 0.0
C136 C 0.71465 0.95961 0.55854 0.0
C137 C 0.7145 0.96252 0.46636 0.0
C138 C 0.7062 0.98135 0.47127 0.0
C139 C 0.70169 0.98908 0.51964 0.0
C140 C 0.70591 0.97821 0.56301 0.0
N141 N 0.69075 0.00662 0.52473 0.0
C142 C 0.69881 0.02499 0.51744 0.0
H143 H 0.56308 0.23353 0.99474 0.0
H144 H 0.51413 0.2374 0.09368 0.0
H145 H 0.50403 0.23218 0.93181 0.0
C146 C 0.54736 0.23363 0.00015 0.0
C147 C 0.53448 0.23242 0.95753 0.0
C148 C 0.54026 0.2356 0.04941 0.0
C149 C 0.51993 0.23568 0.05591 0.0
C150 C 0.50678 0.23426 0.01412 0.0
C151 C 0.51405 0.23288 0.96451 0.0
N152 N 0.48646 0.23472 0.02443 0.0
C153 C 0.47097 0.23324 0.98909 0.0
H154 H 0.25647 0.05868 0.48851 0.0
H155 H 0.27116 0.00167 0.54474 0.0
H156 H 0.27851 0.01388 0.38709 0.0
C157 C 0.26139 0.04374 0.48147 0.0
C158 C 0.26685 0.03787 0.43243 0.0
C159 C 0.26258 0.0308 0.52205 0.0
C160 C 0.26997 0.01169 0.51362 0.0
C161 C 0.27588 0.00574 0.46464 0.0
C162 C 0.27429 0.01884 0.42469 0.0
N163 N 0.2839 0.98693 0.4535 0.0
C164 C 0.28229 0.97026 0.48231 0.0
H165 H 0.44165 0.77258 0.02875 0.0
H166 H 0.49932 0.7838 0.9736 0.0
H167 H 0.48978 0.78373 0.13459 0.0
C168 C 0.457 0.77617 0.03631 0.0
C169 C 0.46414 0.77783 0.08663 0.0
C170 C 0.46946 0.77845 0.99537 0.0
C171 C 0.48962 0.78205 0.00501 0.0
C172 C 0.49688 0.78409 0.05564 0.0
C173 C 0.48408 0.78203 0.09585 0.0
N174 N 0.51674 0.78881 0.0684 0.0
C175 C 0.53251 0.78726 0.03626 0.0
H176 H 0.19288 0.25386 0.14743 0.0
H177 H 0.16897 0.26666 0.20743 0.0
H178 H 0.12351 0.23165 0.13183 0.0
H179 H 0.14719 0.21886 0.07145 0.0
H180 H 0.11092 0.26903 0.15534 0.0
H181 H 0.14457 0.21634 0.23954 0.0
H182 H 0.17352 0.1985 0.27251 0.0
H183 H 0.18942 0.24827 0.36893 0.0
H184 H 0.16069 0.26652 0.33596 0.0
H185 H 0.03963 0.26455 0.34658 0.0
H186 H 0.06383 0.25828 0.28135 0.0
H187 H 0.10669 0.29255 0.36921 0.0
H188 H 0.0825 0.29899 0.43451 0.0
H189 H 0.12155 0.25787 0.33942 0.0
H190 H 0.08649 0.30984 0.2596 0.0
H191 H 0.05741 0.32753 0.22694 0.0
H192 H 0.044 0.2794 0.12268 0.0
H193 H 0.07286 0.26128 0.15524 0.0
C194 C 0.17779 0.2489 0.14338 0.0
C195 C 0.17203 0.23518 0.10477 0.0
C196 C 0.16415 0.25622 0.1778 0.0
C197 C 0.14451 0.24996 0.17434 0.0
C198 C 0.1386 0.23667 0.13517 0.0
C199 C 0.15221 0.22929 0.10084 0.0
C200 C 0.1302 0.25679 0.21237 0.0
C201 C 0.11313 0.26645 0.19556 0.0
C202 C 0.13336 0.25383 0.26493 0.0
C203 C 0.15062 0.24287 0.28485 0.0
C204 C 0.15434 0.22355 0.26744 0.0
C205 C 0.17069 0.21335 0.28619 0.0
C206 C 0.18334 0.22227 0.32267 0.0
C207 C 0.17963 0.24139 0.34059 0.0
C208 C 0.16331 0.25167 0.32191 0.0
C209 C 0.05408 0.27108 0.35155 0.0
C210 C 0.05915 0.28223 0.39579 0.0
C211 C 0.06791 0.26746 0.31426 0.0
C212 C 0.08704 0.27504 0.32026 0.0
C213 C 0.09203 0.28651 0.36386 0.0
C214 C 0.07821 0.29013 0.40118 0.0
C215 C 0.10214 0.27004 0.28246 0.0
C216 C 0.11938 0.26065 0.29929 0.0
C217 C 0.09911 0.27327 0.22996 0.0
C218 C 0.08175 0.28413 0.2102 0.0
C219 C 0.07726 0.30295 0.23 0.0
C220 C 0.06083 0.31307 0.21145 0.0
C221 C 0.04884 0.30458 0.17284 0.0
C222 C 0.05329 0.28596 0.15262 0.0
C223 C 0.06969 0.27576 0.17108 0.0
H224 H 0.03613 0.31244 0.15852 0.0
H225 H 0.19598 0.21435 0.33716 0.0
H226 H 0.30582 0.64534 0.64593 0.0
H227 H 0.29618 0.61716 0.69486 0.0
H228 H 0.23832 0.64208 0.71122 0.0
H229 H 0.24836 0.67084 0.66499 0.0
H230 H 0.24804 0.62861 0.79488 0.0
H231 H 0.24962 0.60081 0.62738 0.0
H232 H 0.26316 0.59257 0.54358 0.0
H233 H 0.30966 0.55986 0.615 0.0
H234 H 0.29657 0.56813 0.69934 0.0
H235 H 0.20592 0.54243 0.88558 0.0
H236 H 0.21458 0.56379 0.81628 0.0
H237 H 0.27596 0.55737 0.85681 0.0
H238 H 0.26732 0.53643 0.92713 0.0
H239 H 0.26282 0.55986 0.74098 0.0
H240 H 0.2587 0.591 0.91135 0.0
H241 H 0.24045 0.59695 0.98981 0.0
H242 H 0.19324 0.62291 0.90365 0.0
H243 H 0.21083 0.61631 0.82433 0.0
C244 C 0.29104 0.64476 0.65995 0.0
C245 C 0.27785 0.66029 0.65175 0.0
C246 C 0.28546 0.62855 0.68758 0.0
C247 C 0.26635 0.62719 0.7061 0.0
C248 C 0.25315 0.6427 0.69754 0.0
C249 C 0.25889 0.65915 0.67106 0.0
C250 C 0.26037 0.61003 0.73608 0.0
C251 C 0.25107 0.61363 0.78241 0.0
C252 C 0.2643 0.59032 0.72041 0.0
C253 C 0.27221 0.58525 0.66974 0.0
C254 C 0.26281 0.59197 0.62526 0.0
C255 C 0.27039 0.58728 0.57765 0.0
C256 C 0.28728 0.57573 0.57398 0.0
C257 C 0.29659 0.56882 0.61791 0.0
C258 C 0.28909 0.57349 0.66563 0.0
C259 C 0.22128 0.54497 0.87842 0.0
C260 C 0.23598 0.53783 0.91149 0.0
C261 C 0.2262 0.55719 0.83897 0.0
C262 C 0.24589 0.56216 0.83168 0.0
C263 C 0.26071 0.55357 0.86172 0.0
C264 C 0.25577 0.54167 0.90183 0.0
C265 C 0.25073 0.5787 0.79903 0.0
C266 C 0.2598 0.57494 0.75268 0.0
C267 C 0.24612 0.59824 0.81383 0.0
C268 C 0.23598 0.60293 0.86182 0.0
C269 C 0.24435 0.5978 0.90905 0.0
C270 C 0.23413 0.6013 0.9537 0.0
C271 C 0.21573 0.61034 0.95174 0.0
C272 C 0.20749 0.61589 0.90511 0.0
C273 C 0.21755 0.61221 0.86028 0.0
H274 H 0.20786 0.61306 0.98636 0.0
H275 H 0.29312 0.57212 0.53708 0.0
H276 H 0.82713 0.74638 0.15343 0.0
H277 H 0.85434 0.73563 0.20824 0.0
H278 H 0.88232 0.7921 0.19595 0.0
H279 H 0.85559 0.80255 0.13895 0.0
H280 H 0.90906 0.76597 0.19286 0.0
H281 H 0.85608 0.77819 0.30416 0.0
H282 H 0.82253 0.77561 0.33614 0.0
H283 H 0.83015 0.71354 0.35307 0.0
H284 H 0.86368 0.7157 0.32056 0.0
H285 H 0.96309 0.76114 0.4353 0.0
H286 H 0.94094 0.76954 0.36389 0.0
H287 H 0.92908 0.70802 0.33409 0.0
H288 H 0.95167 0.69956 0.40452 0.0
H289 H 0.89522 0.73571 0.3571 0.0
H290 H 0.9507 0.72614 0.24911 0.0
H291 H 0.98467 0.73177 0.22305 0.0
H292 H 0.97246 0.79321 0.20794 0.0
H293 H 0.93848 0.78799 0.23468 0.0
C294 C 0.83907 0.75652 0.16251 0.0
C295 C 0.83914 0.77537 0.14221 0.0
C296 C 0.85461 0.75038 0.19402 0.0
C297 C 0.87027 0.76316 0.2072 0.0
C298 C 0.87045 0.78194 0.18646 0.0
C299 C 0.85511 0.78793 0.15403 0.0
C300 C 0.88636 0.75701 0.24279 0.0
C301 C 0.90597 0.75954 0.22897 0.0
C302 C 0.88247 0.74844 0.28988 0.0
C303 C 0.86231 0.74707 0.30941 0.0
C304 C 0.85054 0.76396 0.31434 0.0
C305 C 0.83154 0.76258 0.33262 0.0
C306 C 0.82419 0.74441 0.34649 0.0
C307 C 0.83585 0.72759 0.34223 0.0
C308 C 0.85486 0.72889 0.32391 0.0
C309 C 0.95621 0.74944 0.41236 0.0
C310 C 0.95914 0.72973 0.42482 0.0
C311 C 0.94357 0.75423 0.37182 0.0
C312 C 0.93343 0.73938 0.3439 0.0
C313 C 0.93689 0.71964 0.35512 0.0
C314 C 0.94985 0.71483 0.395 0.0
C315 C 0.91769 0.74459 0.30685 0.0
C316 C 0.89818 0.742 0.32071 0.0
C317 C 0.9217 0.75355 0.2606 0.0
C318 C 0.9421 0.7567 0.24442 0.0
C319 C 0.95531 0.74088 0.24075 0.0
C320 C 0.97456 0.74399 0.22572 0.0
C321 C 0.98074 0.76285 0.21398 0.0
C322 C 0.96766 0.77862 0.21711 0.0
C323 C 0.94841 0.77559 0.23215 0.0
H324 H 0.99564 0.76522 0.20234 0.0
H325 H 0.80948 0.74337 0.36065 0.0
H326 H 0.75992 0.32045 0.69416 0.0
H327 H 0.77128 0.3487 0.74661 0.0
H328 H 0.72102 0.3821 0.69537 0.0
H329 H 0.70995 0.35424 0.6418 0.0
H330 H 0.75203 0.40477 0.6985 0.0
H331 H 0.72333 0.35973 0.81311 0.0
H332 H 0.71918 0.32798 0.85424 0.0
H333 H 0.77908 0.33033 0.90966 0.0
H334 H 0.78364 0.362 0.86829 0.0
H335 H 0.73664 0.47098 0.90864 0.0
H336 H 0.73735 0.44791 0.836 0.0
H337 H 0.79246 0.42464 0.89215 0.0
H338 H 0.79195 0.4479 0.96471 0.0
H339 H 0.76387 0.39693 0.88345 0.0
H340 H 0.78995 0.44569 0.77783 0.0
H341 H 0.79205 0.47807 0.73893 0.0
H342 H 0.73481 0.46966 0.66906 0.0
H343 H 0.73223 0.43734 0.70814 0.0
C344 C 0.75128 0.3338 0.69415 0.0
C345 C 0.73395 0.33502 0.66404 0.0
C346 C 0.75779 0.34995 0.72414 0.0
C347 C 0.7469 0.36749 0.7254 0.0
C348 C 0.72973 0.36878 0.69494 0.0
C349 C 0.72335 0.35276 0.66451 0.0
C350 C 0.75293 0.38434 0.7595 0.0
C351 C 0.75452 0.40309 0.73901 0.0
C352 C 0.75661 0.38212 0.81219 0.0
C353 C 0.75389 0.3631 0.8371 0.0
C354 C 0.73565 0.35339 0.83374 0.0
C355 C 0.73322 0.33543 0.85715 0.0
C356 C 0.74888 0.32711 0.8844 0.0
C357 C 0.76698 0.33677 0.88844 0.0
C358 C 0.7695 0.35473 0.86504 0.0
C359 C 0.74936 0.46158 0.90436 0.0
C360 C 0.76413 0.46109 0.94271 0.0
C361 C 0.7497 0.44831 0.86285 0.0
C362 C 0.76487 0.43443 0.8589 0.0
C363 C 0.78055 0.43515 0.89465 0.0
C364 C 0.78025 0.44845 0.93603 0.0
C365 C 0.76274 0.41742 0.82263 0.0
C366 C 0.76177 0.3986 0.8428 0.0
C367 C 0.75935 0.41968 0.76991 0.0
C368 C 0.76084 0.43912 0.74625 0.0
C369 C 0.77773 0.4508 0.75451 0.0
C370 C 0.77903 0.46914 0.73235 0.0
C371 C 0.76356 0.47594 0.70162 0.0
C372 C 0.74678 0.46439 0.69289 0.0
C373 C 0.74541 0.44604 0.71498 0.0
H374 H 0.76459 0.49014 0.68449 0.0
H375 H 0.74696 0.31321 0.90251 0.0
H376 H 0.64733 0.28903 0.4455 0.0
H377 H 0.62023 0.28003 0.38671 0.0
H378 H 0.65944 0.24395 0.29828 0.0
H379 H 0.68655 0.25254 0.35729 0.0
H380 H 0.61555 0.28735 0.29008 0.0
H381 H 0.63466 0.20568 0.2421 0.0
H382 H 0.64941 0.17724 0.28476 0.0
H383 H 0.63276 0.20137 0.4297 0.0
H384 H 0.61766 0.22979 0.38789 0.0
H385 H 0.57341 0.25824 0.05498 0.0
H386 H 0.59599 0.26358 0.12744 0.0
H387 H 0.56065 0.22611 0.21745 0.0
H388 H 0.53838 0.21989 0.14401 0.0
H389 H 0.59865 0.21899 0.23461 0.0
H390 H 0.55798 0.27594 0.23234 0.0
H391 H 0.54123 0.30438 0.19472 0.0
H392 H 0.59697 0.32965 0.16126 0.0
H393 H 0.61406 0.30122 0.19804 0.0
C394 C 0.6502 0.27907 0.41375 0.0
C395 C 0.66917 0.27155 0.40612 0.0
C396 C 0.63467 0.27396 0.38017 0.0
C397 C 0.63777 0.26119 0.33838 0.0
C398 C 0.65663 0.25355 0.3308 0.0
C399 C 0.67215 0.25858 0.36447 0.0
C400 C 0.62153 0.25668 0.30117 0.0
C401 C 0.61179 0.2724 0.27816 0.0
C402 C 0.61635 0.23716 0.28637 0.0
C403 C 0.62517 0.21996 0.31182 0.0
C404 C 0.63406 0.20487 0.28304 0.0
C405 C 0.6425 0.18876 0.30709 0.0
C406 C 0.64208 0.18752 0.35991 0.0
C407 C 0.63315 0.20237 0.3888 0.0
C408 C 0.62467 0.2185 0.36494 0.0
C409 C 0.57057 0.25086 0.08988 0.0
C410 C 0.55409 0.23859 0.09364 0.0
C411 C 0.58337 0.25413 0.1315 0.0
C412 C 0.57983 0.2455 0.17808 0.0
C413 C 0.56359 0.233 0.1819 0.0
C414 C 0.5508 0.2296 0.14006 0.0
C415 C 0.59311 0.24968 0.22265 0.0
C416 C 0.60231 0.23392 0.24693 0.0
C417 C 0.59751 0.26916 0.23948 0.0
C418 C 0.58729 0.28638 0.21766 0.0
C419 C 0.56666 0.2875 0.21667 0.0
C420 C 0.55711 0.30363 0.19553 0.0
C421 C 0.56803 0.31879 0.17554 0.0
C422 C 0.58853 0.31789 0.17675 0.0
C423 C 0.59816 0.30178 0.1978 0.0
H424 H 0.56061 0.33126 0.15917 0.0
H425 H 0.64863 0.17505 0.37845 0.0
H426 H 0.20909 0.13977 0.90821 0.0
H427 H 0.21809 0.10957 0.86248 0.0
H428 H 0.24427 0.14365 0.74659 0.0
H429 H 0.23577 0.17395 0.79274 0.0
H430 H 0.20784 0.09442 0.77558 0.0
H431 H 0.28271 0.1208 0.69647 0.0
H432 H 0.31044 0.14201 0.72538 0.0
H433 H 0.29583 0.13371 0.88081 0.0
H434 H 0.26827 0.11221 0.85294 0.0
H435 H 0.22879 0.04992 0.54369 0.0
H436 H 0.2217 0.06889 0.62046 0.0
H437 H 0.27482 0.04727 0.69271 0.0
H438 H 0.28249 0.02888 0.61404 0.0
H439 H 0.27416 0.08435 0.70628 0.0
H440 H 0.2273 0.0359 0.7361 0.0
H441 H 0.20055 0.01211 0.71796 0.0
H442 H 0.1613 0.05918 0.68044 0.0
H443 H 0.18787 0.08325 0.6976 0.0
C444 C 0.21678 0.14089 0.87298 0.0
C445 C 0.22171 0.15936 0.8542 0.0
C446 C 0.22192 0.12356 0.84689 0.0
C447 C 0.2321 0.12427 0.80141 0.0
C448 C 0.23682 0.14268 0.7822 0.0
C449 C 0.23182 0.16002 0.80848 0.0
C450 C 0.23726 0.10585 0.77302 0.0
C451 C 0.22237 0.09213 0.76069 0.0
C452 C 0.25644 0.10234 0.75557 0.0
C453 C 0.2733 0.11499 0.77252 0.0
C454 C 0.28549 0.12339 0.73682 0.0
C455 C 0.30118 0.13549 0.75304 0.0
C456 C 0.30488 0.13925 0.8049 0.0
C457 C 0.29295 0.13085 0.84065 0.0
C458 C 0.27727 0.11871 0.82465 0.0
C459 C 0.23879 0.04889 0.57627 0.0
C460 C 0.2563 0.03809 0.57272 0.0
C461 C 0.23462 0.05962 0.62049 0.0
C462 C 0.24763 0.05949 0.66283 0.0
C463 C 0.26455 0.04765 0.66058 0.0
C464 C 0.26884 0.03698 0.61586 0.0
C465 C 0.24443 0.07344 0.70648 0.0
C466 C 0.2597 0.08638 0.72184 0.0
C467 C 0.22577 0.07579 0.72834 0.0
C468 C 0.20964 0.06139 0.71801 0.0
C469 C 0.213 0.04118 0.72369 0.0
C470 C 0.19786 0.02764 0.71361 0.0
C471 C 0.17924 0.03413 0.69802 0.0
C472 C 0.17572 0.05418 0.69256 0.0
C473 C 0.19082 0.06778 0.70256 0.0
H474 H 0.16754 0.02362 0.69023 0.0
H475 H 0.317 0.14865 0.81739 0.0
H476 H 0.31772 0.7482 0.36881 0.0
H477 H 0.34314 0.75876 0.31229 0.0
H478 H 0.38564 0.7228 0.3907 0.0
H479 H 0.36034 0.71222 0.448 0.0
H480 H 0.40068 0.75889 0.36937 0.0
H481 H 0.36612 0.70671 0.2798 0.0
H482 H 0.33708 0.68893 0.24427 0.0
H483 H 0.32281 0.73766 0.15024 0.0
H484 H 0.35162 0.75586 0.18578 0.0
H485 H 0.47121 0.75672 0.17212 0.0
H486 H 0.44799 0.74901 0.2379 0.0
H487 H 0.40353 0.78362 0.16236 0.0
H488 H 0.42668 0.79151 0.09676 0.0
H489 H 0.39009 0.74765 0.18358 0.0
H490 H 0.42517 0.79975 0.27345 0.0
H491 H 0.4545 0.81705 0.30891 0.0
H492 H 0.46829 0.76789 0.40187 0.0
H493 H 0.43917 0.75016 0.36642 0.0
C494 C 0.33247 0.74255 0.37432 0.0
C495 C 0.33691 0.7292 0.4128 0.0
C496 C 0.34698 0.74859 0.34184 0.0
C497 C 0.3662 0.74136 0.34691 0.0
C498 C 0.37087 0.7285 0.3861 0.0
C499 C 0.35635 0.72242 0.41867 0.0
C500 C 0.38125 0.74688 0.31038 0.0
C501 C 0.39851 0.75622 0.32878 0.0
C502 C 0.37824 0.74365 0.25741 0.0
C503 C 0.36092 0.73273 0.23584 0.0
C504 C 0.3567 0.7137 0.25186 0.0
C505 C 0.3403 0.70354 0.23166 0.0
C506 C 0.32808 0.71218 0.19512 0.0
C507 C 0.33227 0.731 0.1786 0.0
C508 C 0.34864 0.74124 0.19873 0.0
C509 C 0.45661 0.763 0.17009 0.0
C510 C 0.45074 0.77464 0.12911 0.0
C511 C 0.44335 0.75855 0.20764 0.0
C512 C 0.42404 0.76577 0.20504 0.0
C513 C 0.41833 0.77781 0.16492 0.0
C514 C 0.43155 0.78226 0.12743 0.0
C515 C 0.40944 0.7599 0.24242 0.0
C516 C 0.39228 0.75038 0.22415 0.0
C517 C 0.41261 0.7629 0.29543 0.0
C518 C 0.4301 0.77355 0.31689 0.0
C519 C 0.43455 0.79255 0.30113 0.0
C520 C 0.45112 0.80245 0.32129 0.0
C521 C 0.46328 0.79355 0.35752 0.0
C522 C 0.45887 0.77475 0.37376 0.0
C523 C 0.44233 0.76478 0.35368 0.0
H524 H 0.4761 0.80124 0.37309 0.0
H525 H 0.31539 0.70428 0.17951 0.0
H526 H 0.78999 0.8606 0.93181 0.0
H527 H 0.77822 0.88668 0.87652 0.0
H528 H 0.75014 0.84336 0.77611 0.0
H529 H 0.76182 0.81728 0.8306 0.0
H530 H 0.77123 0.86985 0.72478 0.0
H531 H 0.72335 0.8704 0.85616 0.0
H532 H 0.71247 0.87271 0.94464 0.0
H533 H 0.73702 0.93069 0.96173 0.0
H534 H 0.74829 0.92861 0.87348 0.0
H535 H 0.70629 0.92104 0.57092 0.0
H536 H 0.71786 0.90021 0.63944 0.0
H537 H 0.74484 0.95043 0.71686 0.0
H538 H 0.73324 0.97149 0.64793 0.0
H539 H 0.72705 0.92339 0.78324 0.0
H540 H 0.77298 0.92324 0.64858 0.0
H541 H 0.78285 0.92059 0.5593 0.0
H542 H 0.76155 0.86123 0.54839 0.0
H543 H 0.75124 0.86364 0.6374 0.0
C544 C 0.78135 0.85661 0.89789 0.0
C545 C 0.77687 0.83682 0.88566 0.0
C546 C 0.77456 0.87155 0.86653 0.0
C547 C 0.76322 0.86693 0.82243 0.0
C548 C 0.75888 0.84722 0.80998 0.0
C549 C 0.76555 0.83233 0.84131 0.0
C550 C 0.75603 0.88248 0.78846 0.0
C551 C 0.76148 0.88148 0.73752 0.0
C552 C 0.74373 0.89794 0.80549 0.0
C553 C 0.73687 0.89926 0.85842 0.0
C554 C 0.72658 0.88358 0.87892 0.0
C555 C 0.72031 0.88486 0.929 0.0
C556 C 0.72411 0.90181 0.95884 0.0
C557 C 0.73413 0.91755 0.93859 0.0
C558 C 0.74044 0.91633 0.88854 0.0
C559 C 0.71453 0.92769 0.60277 0.0
C560 C 0.71918 0.9478 0.60375 0.0
C561 C 0.72107 0.9158 0.64191 0.0
C562 C 0.73249 0.92375 0.68266 0.0
C563 C 0.73609 0.94405 0.68558 0.0
C564 C 0.72947 0.95603 0.64629 0.0
C565 C 0.74193 0.91043 0.71946 0.0
C566 C 0.73699 0.91189 0.77078 0.0
C567 C 0.7547 0.89531 0.70288 0.0
C568 C 0.76121 0.89368 0.64958 0.0
C569 C 0.77028 0.90966 0.62706 0.0
C570 C 0.77597 0.9082 0.5765 0.0
C571 C 0.7728 0.89076 0.54816 0.0
C572 C 0.76399 0.87473 0.57038 0.0
C573 C 0.75824 0.87613 0.6209 0.0
H574 H 0.77719 0.88966 0.50902 0.0
H575 H 0.71925 0.90277 0.99761 0.0
H576 H 0.86497 0.78922 0.94623 0.0
H577 H 0.89313 0.77862 0.89676 0.0
H578 H 0.85444 0.74533 0.79415 0.0
H579 H 0.82636 0.75543 0.84378 0.0
H580 H 0.88632 0.72474 0.81497 0.0
H581 H 0.87257 0.79155 0.76602 0.0
H582 H 0.86824 0.82716 0.78165 0.0
H583 H 0.92715 0.83152 0.84354 0.0
H584 H 0.93174 0.79587 0.82884 0.0
H585 H 0.92924 0.71869 0.57768 0.0
H586 H 0.90976 0.72671 0.6517 0.0
H587 H 0.96169 0.74825 0.73288 0.0
H588 H 0.98145 0.74012 0.65811 0.0
H589 H 0.92876 0.77409 0.73697 0.0
H590 H 0.94361 0.70733 0.77013 0.0
H591 H 0.94723 0.67197 0.74983 0.0
H592 H 0.88547 0.66759 0.71381 0.0
H593 H 0.88151 0.70299 0.73314 0.0
C594 C 0.86245 0.7796 0.91319 0.0
C595 C 0.84334 0.77327 0.89889 0.0
C596 C 0.87858 0.7736 0.88489 0.0
C597 C 0.87589 0.76134 0.84141 0.0
C598 C 0.8569 0.75475 0.82761 0.0
C599 C 0.84082 0.76062 0.856 0.0
C600 C 0.89265 0.75558 0.8093 0.0
C601 C 0.89556 0.73554 0.79783 0.0
C602 C 0.90516 0.76961 0.78819 0.0
C603 C 0.90241 0.79103 0.79694 0.0
C604 C 0.88454 0.80008 0.78334 0.0
C605 C 0.88205 0.82027 0.79196 0.0
C606 C 0.89739 0.83158 0.81374 0.0
C607 C 0.91527 0.82274 0.82679 0.0
C608 C 0.91783 0.80254 0.81831 0.0
C609 C 0.93654 0.72511 0.61131 0.0
C610 C 0.95681 0.72894 0.61215 0.0
C611 C 0.92542 0.72956 0.65367 0.0
C612 C 0.93431 0.73794 0.69785 0.0
C613 C 0.9546 0.74171 0.69912 0.0
C614 C 0.96585 0.73703 0.65665 0.0
C615 C 0.92192 0.74334 0.74145 0.0
C616 C 0.91982 0.76327 0.75507 0.0
C617 C 0.91003 0.72923 0.76421 0.0
C618 C 0.91229 0.70787 0.75288 0.0
C619 C 0.93082 0.69886 0.75755 0.0
C620 C 0.93293 0.6788 0.74627 0.0
C621 C 0.9166 0.66754 0.73049 0.0
C622 C 0.89811 0.67632 0.72606 0.0
C623 C 0.89592 0.69639 0.73726 0.0
H624 H 0.91826 0.65201 0.72176 0.0
H625 H 0.89543 0.84721 0.82037 0.0
H626 H 0.72923 0.35738 0.4757 0.0
H627 H 0.73782 0.38462 0.42213 0.0
H628 H 0.74935 0.34349 0.29867 0.0
H629 H 0.74171 0.31621 0.35284 0.0
H630 H 0.77486 0.37106 0.29751 0.0
H631 H 0.7045 0.36974 0.31036 0.0
H632 H 0.67305 0.3702 0.35453 0.0
H633 H 0.68709 0.42697 0.42113 0.0
H634 H 0.71875 0.42673 0.3778 0.0
H635 H 0.74873 0.42538 0.08028 0.0
H636 H 0.74871 0.40318 0.15097 0.0
H637 H 0.75953 0.45183 0.2564 0.0
H638 H 0.76078 0.47426 0.18539 0.0
H639 H 0.72569 0.4241 0.27493 0.0
H640 H 0.79513 0.42559 0.24718 0.0
H641 H 0.82452 0.4238 0.19476 0.0
H642 H 0.80959 0.36472 0.14693 0.0
H643 H 0.77993 0.36625 0.19847 0.0
C644 C 0.73375 0.35417 0.43724 0.0
C645 C 0.73464 0.33468 0.41828 0.0
C646 C 0.73858 0.36974 0.40659 0.0
C647 C 0.74382 0.36616 0.35596 0.0
C648 C 0.74533 0.34666 0.33757 0.0
C649 C 0.74091 0.33106 0.36852 0.0
C650 C 0.74701 0.38262 0.32135 0.0
C651 C 0.76405 0.38259 0.29253 0.0
C652 C 0.7331 0.39793 0.31533 0.0
C653 C 0.71408 0.39811 0.34136 0.0
C654 C 0.70094 0.38225 0.33473 0.0
C655 C 0.68307 0.38249 0.35956 0.0
C656 C 0.67811 0.39858 0.39075 0.0
C657 C 0.69098 0.4145 0.39705 0.0
C658 C 0.70888 0.41433 0.37236 0.0
C659 C 0.75163 0.43142 0.11823 0.0
C660 C 0.75503 0.45166 0.12689 0.0
C661 C 0.75142 0.41868 0.15864 0.0
C662 C 0.75426 0.4259 0.20863 0.0
C663 C 0.75736 0.44605 0.21788 0.0
C664 C 0.75794 0.45882 0.17728 0.0
C665 C 0.75328 0.41223 0.2509 0.0
C666 C 0.73663 0.41275 0.28088 0.0
C667 C 0.7673 0.39714 0.25712 0.0
C668 C 0.78522 0.3961 0.22643 0.0
C669 C 0.79802 0.41227 0.22517 0.0
C670 C 0.81475 0.41129 0.19567 0.0
C671 C 0.8189 0.39417 0.16746 0.0
C672 C 0.80636 0.37797 0.16879 0.0
C673 C 0.7896 0.37888 0.19819 0.0
H674 H 0.83186 0.39344 0.14463 0.0
H675 H 0.66426 0.39873 0.40993 0.0
H676 H 0.1729 0.25076 0.82086 0.0
H677 H 0.14334 0.2626 0.77737 0.0
H678 H 0.10857 0.21981 0.85221 0.0
H679 H 0.13819 0.20776 0.89619 0.0
H680 H 0.10091 0.22076 0.74824 0.0
H681 H 0.10415 0.26631 0.88866 0.0
H682 H 0.12037 0.28974 0.9495 0.0
H683 H 0.13327 0.32779 0.82771 0.0
H684 H 0.11741 0.30445 0.76597 0.0
H685 H 0.02329 0.26082 0.60168 0.0
H686 H 0.03988 0.25208 0.68187 0.0
H687 H 0.08707 0.292 0.65178 0.0
H688 H 0.07027 0.30125 0.57319 0.0
H689 H 0.0821 0.29118 0.75065 0.0
H690 H 0.08764 0.24272 0.61165 0.0
H691 H 0.07428 0.21899 0.54699 0.0
H692 H 0.04723 0.18651 0.66356 0.0
H693 H 0.06025 0.21022 0.72886 0.0
C694 C 0.159 0.24382 0.82823 0.0
C695 C 0.15796 0.22825 0.86197 0.0
C696 C 0.14208 0.25074 0.80362 0.0
C697 C 0.12374 0.24226 0.81214 0.0
C698 C 0.12258 0.22664 0.84546 0.0
C699 C 0.13953 0.21978 0.8705 0.0
C700 C 0.10607 0.24922 0.78389 0.0
C701 C 0.09641 0.23605 0.74975 0.0
C702 C 0.10044 0.26922 0.78545 0.0
C703 C 0.10963 0.28356 0.8226 0.0
C704 C 0.11053 0.27962 0.87478 0.0
C705 C 0.11966 0.29289 0.90945 0.0
C706 C 0.12787 0.31023 0.89248 0.0
C707 C 0.1269 0.31436 0.84081 0.0
C708 C 0.1178 0.30113 0.80596 0.0
C709 C 0.03688 0.26815 0.6131 0.0
C710 C 0.0457 0.28141 0.58079 0.0
C711 C 0.04642 0.26306 0.6587 0.0
C712 C 0.06496 0.27104 0.67227 0.0
C713 C 0.07287 0.28554 0.6421 0.0
C714 C 0.06333 0.29069 0.59691 0.0
C715 C 0.0774 0.26284 0.71377 0.0
C716 C 0.08615 0.27577 0.75034 0.0
C717 C 0.08241 0.24264 0.7141 0.0
C718 C 0.07469 0.22835 0.67498 0.0
C719 C 0.07874 0.23058 0.62341 0.0
C720 C 0.07124 0.21714 0.58667 0.0
C721 C 0.05986 0.20129 0.60114 0.0
C722 C 0.056 0.19882 0.65241 0.0
C723 C 0.06343 0.21225 0.68928 0.0
H724 H 0.05406 0.19089 0.57265 0.0
H725 H 0.13495 0.32047 0.91936 0.0
H726 H 0.24593 0.67538 0.38727 0.0
H727 H 0.23663 0.64891 0.32626 0.0
H728 H 0.29237 0.62062 0.35411 0.0
H729 H 0.30171 0.64682 0.41569 0.0
H730 H 0.28151 0.62632 0.24838 0.0
H731 H 0.25528 0.60032 0.401 0.0
H732 H 0.23547 0.60229 0.47788 0.0
H733 H 0.1834 0.61166 0.38601 0.0
H734 H 0.20296 0.61 0.30854 0.0
H735 H 0.26389 0.54061 0.09923 0.0
H736 H 0.27245 0.56299 0.17098 0.0
H737 H 0.21201 0.58191 0.17667 0.0
H738 H 0.20333 0.55861 0.10683 0.0
H739 H 0.22548 0.58086 0.26785 0.0
H740 H 0.24983 0.60932 0.11726 0.0
H741 H 0.2685 0.61082 0.03852 0.0
H742 H 0.32214 0.60009 0.12266 0.0
H743 H 0.30382 0.59854 0.20194 0.0
C744 C 0.25617 0.66347 0.38063 0.0
C745 C 0.27457 0.66322 0.4063 0.0
C746 C 0.2508 0.64834 0.34593 0.0
C747 C 0.26381 0.63283 0.33587 0.0
C748 C 0.28214 0.63247 0.36148 0.0
C749 C 0.2874 0.64742 0.39677 0.0
C750 C 0.25859 0.61735 0.29718 0.0
C751 C 0.26946 0.61615 0.25284 0.0
C752 C 0.24245 0.60461 0.30253 0.0
C753 C 0.23061 0.6052 0.34899 0.0
C754 C 0.23963 0.60293 0.39719 0.0
C755 C 0.22844 0.60396 0.44088 0.0
C756 C 0.2082 0.60713 0.43684 0.0
C757 C 0.19909 0.60921 0.38907 0.0
C758 C 0.21021 0.60819 0.34525 0.0
C759 C 0.25246 0.5494 0.11643 0.0
C760 C 0.23299 0.54798 0.09783 0.0
C761 C 0.25735 0.56231 0.15705 0.0
C762 C 0.24298 0.57457 0.17856 0.0
C763 C 0.22339 0.5727 0.16077 0.0
C764 C 0.21842 0.55942 0.12091 0.0
C765 C 0.24846 0.58968 0.21857 0.0
C766 C 0.2376 0.59091 0.2632 0.0
C767 C 0.2644 0.60277 0.21309 0.0
C768 C 0.27543 0.60362 0.16543 0.0
C769 C 0.26559 0.60715 0.1189 0.0
C770 C 0.2761 0.60802 0.0742 0.0
C771 C 0.29645 0.60542 0.07554 0.0
C772 C 0.30636 0.60206 0.12166 0.0
C773 C 0.29594 0.60123 0.16651 0.0
H774 H 0.30455 0.60609 0.04087 0.0
H775 H 0.19957 0.60795 0.4707 0.0
H776 H 0.36198 0.70664 0.6261 0.0
H777 H 0.39053 0.71794 0.67692 0.0
H778 H 0.35499 0.76199 0.75097 0.0
H779 H 0.32624 0.75086 0.70009 0.0
H780 H 0.39134 0.77639 0.72272 0.0
H781 H 0.36591 0.72067 0.81019 0.0
H782 H 0.35527 0.68624 0.81661 0.0
H783 H 0.41254 0.66632 0.77463 0.0
H784 H 0.42344 0.70066 0.76729 0.0
H785 H 0.43856 0.79886 0.95747 0.0
H786 H 0.41871 0.79066 0.88143 0.0
H787 H 0.46017 0.74544 0.83986 0.0
H788 H 0.47994 0.75343 0.91737 0.0
H789 H 0.42469 0.73074 0.8405 0.0
H790 H 0.45181 0.78634 0.76478 0.0
H791 H 0.46279 0.82062 0.75785 0.0
H792 H 0.4036 0.84084 0.77552 0.0
H793 H 0.39229 0.8067 0.78332 0.0
C794 C 0.36015 0.71876 0.65312 0.0
C795 C 0.3417 0.72776 0.65914 0.0
C796 C 0.37654 0.72518 0.68218 0.0
C797 C 0.37486 0.74072 0.71792 0.0
C798 C 0.3566 0.74998 0.72352 0.0
C799 C 0.34015 0.7435 0.69462 0.0
C800 C 0.39202 0.747 0.75051 0.0
C801 C 0.39859 0.76649 0.74879 0.0
C802 C 0.40193 0.73385 0.78299 0.0
C803 C 0.39541 0.71322 0.78761 0.0
C804 C 0.37618 0.70894 0.80191 0.0
C805 C 0.37011 0.68945 0.8058 0.0
C806 C 0.3832 0.6741 0.79588 0.0
C807 C 0.40241 0.67822 0.7822 0.0
C808 C 0.40854 0.6977 0.7782 0.0
C809 C 0.44373 0.78755 0.93131 0.0
C810 C 0.46072 0.77672 0.94325 0.0
C811 C 0.43242 0.78291 0.88764 0.0
C812 C 0.43793 0.76746 0.85459 0.0
C813 C 0.45563 0.75744 0.86474 0.0
C814 C 0.46701 0.7621 0.9087 0.0
C815 C 0.42389 0.76035 0.81373 0.0
C816 C 0.4178 0.74065 0.81386 0.0
C817 C 0.41451 0.77332 0.7796 0.0
C818 C 0.42122 0.79392 0.77493 0.0
C819 C 0.44115 0.7981 0.76757 0.0
C820 C 0.44743 0.81751 0.76342 0.0
C821 C 0.4339 0.8329 0.76632 0.0
C822 C 0.41406 0.8289 0.77328 0.0
C823 C 0.4077 0.80951 0.77749 0.0
H824 H 0.43879 0.84792 0.76309 0.0
H825 H 0.37848 0.65902 0.79891 0.0
H826 H 0.7928 0.86176 0.10086 0.0
H827 H 0.78027 0.88955 0.15106 0.0
H828 H 0.7387 0.85133 0.21931 0.0
H829 H 0.75096 0.82349 0.16908 0.0
H830 H 0.72188 0.88595 0.19245 0.0
H831 H 0.78075 0.86479 0.28231 0.0
H832 H 0.81602 0.85697 0.29108 0.0
H833 H 0.8307 0.91594 0.25279 0.0
H834 H 0.79548 0.92402 0.24313 0.0
H835 H 0.70013 0.92755 0.43124 0.0
H836 H 0.70971 0.90883 0.35551 0.0
H837 H 0.74658 0.95684 0.31309 0.0
H838 H 0.73694 0.9757 0.38965 0.0
H839 H 0.76633 0.9222 0.31483 0.0
H840 H 0.70659 0.94459 0.24027 0.0
H841 H 0.6712 0.95196 0.23359 0.0
H842 H 0.65772 0.89065 0.24412 0.0
H843 H 0.69301 0.88292 0.25177 0.0
C844 C 0.78097 0.85923 0.12648 0.0
C845 C 0.773 0.8403 0.13112 0.0
C846 C 0.77385 0.87515 0.15519 0.0
C847 C 0.75865 0.87248 0.18919 0.0
C848 C 0.75042 0.85372 0.19325 0.0
C849 C 0.75755 0.83779 0.16468 0.0
C850 C 0.75158 0.88905 0.22168 0.0
C851 C 0.73154 0.89384 0.21942 0.0
C852 C 0.76435 0.89978 0.25557 0.0
C853 C 0.78551 0.89493 0.26135 0.0
C854 C 0.79151 0.87603 0.27531 0.0
C855 C 0.81148 0.87157 0.28053 0.0
C856 C 0.8256 0.88593 0.27232 0.0
C857 C 0.81975 0.90481 0.25901 0.0
C858 C 0.79979 0.90935 0.25368 0.0
C859 C 0.70995 0.93426 0.40514 0.0
C860 C 0.71785 0.95301 0.41613 0.0
C861 C 0.71535 0.92361 0.36176 0.0
C862 C 0.72877 0.93147 0.3284 0.0
C863 C 0.73613 0.95055 0.33823 0.0
C864 C 0.73056 0.96133 0.38166 0.0
C865 C 0.73647 0.9188 0.28666 0.0
C866 C 0.75667 0.91467 0.28716 0.0
C867 C 0.72381 0.90863 0.25133 0.0
C868 C 0.7025 0.91319 0.24695 0.0
C869 C 0.69609 0.93268 0.24163 0.0
C870 C 0.67604 0.93693 0.23759 0.0
C871 C 0.66222 0.92179 0.23852 0.0
C872 C 0.66844 0.90237 0.24343 0.0
C873 C 0.68847 0.89805 0.24757 0.0
H874 H 0.6467 0.9251 0.23536 0.0
H875 H 0.84105 0.88245 0.2764 0.0
H876 H 0.64737 0.29333 0.61763 0.0
H877 H 0.61844 0.28353 0.66296 0.0
H878 H 0.65162 0.23723 0.73335 0.0
H879 H 0.68083 0.2469 0.68788 0.0
H880 H 0.6136 0.22547 0.69812 0.0
H881 H 0.64411 0.27793 0.79954 0.0
H882 H 0.65804 0.3111 0.81433 0.0
H883 H 0.60285 0.33675 0.76949 0.0
H884 H 0.58867 0.3037 0.75373 0.0
H885 H 0.5624 0.20765 0.92143 0.0
H886 H 0.58342 0.21318 0.84989 0.0
H887 H 0.54769 0.26275 0.80745 0.0
H888 H 0.52687 0.25749 0.88034 0.0
H889 H 0.58439 0.27347 0.81948 0.0
H890 H 0.55241 0.2212 0.7275 0.0
H891 H 0.53823 0.18819 0.71196 0.0
H892 H 0.59499 0.16221 0.73706 0.0
H893 H 0.60948 0.19505 0.75349 0.0
C894 C 0.6486 0.28102 0.64262 0.0
C895 C 0.66655 0.27099 0.64932 0.0
C896 C 0.632 0.27545 0.66851 0.0
C897 C 0.63291 0.25974 0.70171 0.0
C898 C 0.65062 0.2494 0.70781 0.0
C899 C 0.66733 0.25503 0.68207 0.0
C900 C 0.61556 0.25465 0.73147 0.0
C901 C 0.60727 0.23585 0.72504 0.0
C902 C 0.60693 0.26848 0.76517 0.0
C903 C 0.6154 0.28835 0.77492 0.0
C904 C 0.63499 0.29064 0.79243 0.0
C905 C 0.64292 0.30942 0.80106 0.0
C906 C 0.63135 0.32602 0.79271 0.0
C907 C 0.6118 0.32388 0.77585 0.0
C908 C 0.60381 0.30513 0.7671 0.0
C909 C 0.55867 0.21934 0.89583 0.0
C910 C 0.5431 0.23222 0.9065 0.0
C911 C 0.57065 0.22245 0.85475 0.0
C912 C 0.56719 0.23841 0.82314 0.0
C913 C 0.55067 0.25036 0.83135 0.0
C914 C 0.53865 0.24724 0.87266 0.0
C915 C 0.58236 0.24411 0.78678 0.0
C916 C 0.5904 0.26308 0.79205 0.0
C917 C 0.59065 0.23043 0.7519 0.0
C918 C 0.58201 0.21062 0.74208 0.0
C919 C 0.56185 0.20845 0.73011 0.0
C920 C 0.55376 0.18976 0.72107 0.0
C921 C 0.56569 0.17311 0.72361 0.0
C922 C 0.58576 0.17512 0.73512 0.0
C923 C 0.59393 0.19377 0.74422 0.0
H924 H 0.5594 0.15866 0.71659 0.0
H925 H 0.63751 0.34055 0.79941 0.0
H926 H 0.24713 0.18632 0.15261 0.0
H927 H 0.25669 0.15963 0.20821 0.0
H928 H 0.23223 0.11737 0.09847 0.0
H929 H 0.22195 0.14402 0.04381 0.0
H930 H 0.2207 0.1084 0.18467 0.0
H931 H 0.28295 0.12341 0.12155 0.0
H932 H 0.31083 0.14412 0.09895 0.0
H933 H 0.32135 0.16013 0.25627 0.0
H934 H 0.29322 0.13985 0.27981 0.0
H935 H 0.29088 0.04264 0.35117 0.0
H936 H 0.28613 0.06486 0.28056 0.0
H937 H 0.23342 0.08736 0.34817 0.0
H938 H 0.23718 0.0643 0.41631 0.0
H939 H 0.28573 0.10252 0.27263 0.0
H940 H 0.20005 0.10073 0.26339 0.0
H941 H 0.17332 0.07717 0.2768 0.0
H942 H 0.21238 0.02904 0.24627 0.0
H943 H 0.23927 0.05229 0.23198 0.0
C944 C 0.24397 0.17133 0.14015 0.0
C945 C 0.23369 0.16729 0.09399 0.0
C946 C 0.24954 0.15605 0.17185 0.0
C947 C 0.24535 0.13641 0.15743 0.0
C948 C 0.23556 0.13237 0.11063 0.0
C949 C 0.2297 0.14763 0.07938 0.0
C950 C 0.25003 0.1202 0.19242 0.0
C951 C 0.23497 0.10708 0.20363 0.0
C952 C 0.2688 0.11806 0.21624 0.0
C953 C 0.28584 0.13021 0.20241 0.0
C954 C 0.2911 0.13146 0.15133 0.0
C955 C 0.30698 0.14311 0.13834 0.0
C956 C 0.31787 0.15344 0.17612 0.0
C957 C 0.3129 0.15212 0.22703 0.0
C958 C 0.29698 0.14054 0.24023 0.0
C959 C 0.27808 0.05205 0.35054 0.0
C960 C 0.26439 0.05157 0.38956 0.0
C961 C 0.27551 0.06493 0.3104 0.0
C962 C 0.25927 0.07762 0.30857 0.0
C963 C 0.24585 0.07744 0.34802 0.0
C964 C 0.24821 0.0644 0.38755 0.0
C965 C 0.25622 0.09115 0.26577 0.0
C966 C 0.27155 0.10376 0.25319 0.0
C967 C 0.23791 0.09237 0.23917 0.0
C968 C 0.22172 0.07827 0.247 0.0
C969 C 0.20291 0.08512 0.25926 0.0
C970 C 0.18774 0.07182 0.26708 0.0
C971 C 0.19116 0.05162 0.26251 0.0
C972 C 0.20976 0.04468 0.24995 0.0
C973 C 0.22498 0.05792 0.24204 0.0
H974 H 0.1794 0.04135 0.26863 0.0
H975 H 0.33016 0.16244 0.16595 0.0
H976 H 0.22913 0.29188 0.03899 0.0
H977 H 0.22427 0.3273 0.03801 0.0
H978 H 0.21028 0.32344 0.87728 0.0
H979 H 0.21534 0.28784 0.87761 0.0
H980 H 0.23403 0.35473 0.90122 0.0
H981 H 0.17376 0.32948 0.9586 0.0
H982 H 0.15257 0.30921 0.01043 0.0
H983 H 0.17367 0.33998 0.14587 0.0
H984 H 0.1952 0.36028 0.09489 0.0
H985 H 0.19574 0.45372 0.90784 0.0
H986 H 0.19935 0.41797 0.89447 0.0
H987 H 0.21526 0.41251 0.05329 0.0
H988 H 0.21149 0.44808 0.06649 0.0
H989 H 0.18784 0.38557 0.02208 0.0
H990 H 0.24971 0.40954 0.96142 0.0
H991 H 0.27035 0.42937 0.90702 0.0
H992 H 0.24458 0.40073 0.77375 0.0
H993 H 0.2236 0.38091 0.82739 0.0
C994 C 0.22509 0.29848 0.00326 0.0
C995 C 0.22255 0.2869 0.9584 0.0
C996 C 0.22223 0.31878 0.00285 0.0
C997 C 0.21662 0.328 0.95772 0.0
C998 C 0.21455 0.31662 0.91256 0.0
C999 C 0.21742 0.29626 0.91289 0.0
C1000 C 0.21278 0.34949 0.95828 0.0
C1001 C 0.22369 0.36146 0.92701 0.0
C1002 C 0.19935 0.35829 0.99211 0.0
C1003 C 0.18621 0.34631 0.02293 0.0
C1004 C 0.17398 0.33185 -0.00053 0.0
C1005 C 0.16189 0.32036 0.02869 0.0
C1006 C 0.16181 0.32327 0.08143 0.0
C1007 C 0.17376 0.33773 0.10502 0.0
C1008 C 0.18588 0.34926 0.07597 0.0
C1009 C 0.20018 0.4448 0.93957 0.0
C1010 C 0.20348 0.45343 0.98805 0.0
C1011 C 0.20225 0.42445 0.93199 0.0
C1012 C 0.20766 0.41255 0.97287 0.0
C1013 C 0.21104 0.42136 0.02124 0.0
C1014 C 0.209 0.44164 0.02872 0.0
C1015 C 0.20947 0.39088 0.96599 0.0
C1016 C 0.19807 0.37885 0.99598 0.0
C1017 C 0.22227 0.38205 0.93056 0.0
C1018 C 0.23494 0.3939 0.89838 0.0
C1019 C 0.24834 0.40759 0.9205 0.0
C1020 C 0.26012 0.4188 0.88981 0.0
C1021 C 0.25874 0.41635 0.83696 0.0
C1022 C 0.24562 0.40263 0.81469 0.0
C1023 C 0.23379 0.3914 0.84521 0.0
H1024 H 0.26787 0.42505 0.81326 0.0
H1025 H 0.15246 0.31434 0.104 0.0
H1026 H 0.21489 0.70741 0.61596 0.0
H1027 H 0.1791 0.70383 0.61422 0.0
H1028 H 0.17593 0.72619 0.46274 0.0
H1029 H 0.21165 0.72973 0.46391 0.0
H1030 H 0.14839 0.74321 0.52715 0.0
H1031 H 0.17053 0.67917 0.47473 0.0
H1032 H 0.19013 0.64886 0.4813 0.0
H1033 H 0.16362 0.63662 0.62291 0.0
H1034 H 0.14401 0.66701 0.61747 0.0
H1035 H 0.05019 0.71526 0.45776 0.0
H1036 H 0.08598 0.7199 0.46157 0.0
H1037 H 0.08893 0.69281 0.60775 0.0
H1038 H 0.05317 0.68798 0.60343 0.0
H1039 H 0.11678 0.67834 0.54687 0.0
H1040 H 0.09406 0.74247 0.59783 0.0
H1041 H 0.07466 0.77287 0.59022 0.0
H1042 H 0.10249 0.78507 0.45034 0.0
H1043 H 0.12187 0.75459 0.45676 0.0
C1044 C 0.20658 0.71162 0.58231 0.0
C1045 C 0.21616 0.71883 0.54005 0.0
C1046 C 0.18615 0.70948 0.58131 0.0
C1047 C 0.1749 0.71466 0.53824 0.0
C1048 C 0.18436 0.72212 0.49633 0.0
C1049 C 0.20479 0.72404 0.49703 0.0
C1050 C 0.15324 0.71229 0.53683 0.0
C1051 C 0.14145 0.729 0.53087 0.0
C1052 C 0.14425 0.6938 0.54265 0.0
C1053 C 0.15596 0.67548 0.54597 0.0
C1054 C 0.169 0.6701 0.50749 0.0
C1055 C 0.18009 0.65289 0.51095 0.0
C1056 C 0.17817 0.64085 0.55258 0.0
C1057 C 0.16511 0.64597 0.59073 0.0
C1058 C 0.15399 0.66318 0.58745 0.0
C1059 C 0.05855 0.7105 0.4908 0.0
C1060 C 0.04915 0.70143 0.5305 0.0
C1061 C 0.07893 0.71316 0.49305 0.0
C1062 C 0.09014 0.70685 0.53519 0.0
C1063 C 0.0806 0.6978 0.57493 0.0
C1064 C 0.06023 0.69514 0.57261 0.0
C1065 C 0.11184 0.7093 0.53733 0.0
C1066 C 0.12368 0.69258 0.54334 0.0
C1067 C 0.12088 0.72779 0.53143 0.0
C1068 C 0.10927 0.74615 0.52753 0.0
C1069 C 0.09593 0.75156 0.56524 0.0
C1070 C 0.08496 0.76882 0.56118 0.0
C1071 C 0.0873 0.78087 0.51976 0.0
C1072 C 0.10066 0.77571 0.48237 0.0
C1073 C 0.11166 0.75845 0.48622 0.0
H1074 H 0.0788 0.79423 0.51669 0.0
H1075 H 0.18677 0.62754 0.55522 0.0
H1076 H 0.78473 0.71141 0.92847 0.0
H1077 H 0.78274 0.6756 0.92796 0.0
H1078 H 0.77554 0.67745 0.0902 0.0
H1079 H 0.7778 0.71324 0.09135 0.0
H1080 H 0.79968 0.64782 0.06163 0.0
H1081 H 0.73604 0.67255 0.00859 0.0
H1082 H 0.71321 0.69158 0.95486 0.0
H1083 H 0.73037 0.65793 0.82301 0.0
H1084 H 0.75351 0.63886 0.87591 0.0
H1085 H 0.75114 0.55933 0.11 0.0
H1086 H 0.7617 0.59327 0.09961 0.0
H1087 H 0.76523 0.58239 0.93776 0.0
H1088 H 0.75423 0.54832 0.94836 0.0
H1089 H 0.74613 0.61574 0.9578 0.0
H1090 H 0.80711 0.58827 0.01356 0.0
H1091 H 0.82947 0.56915 0.06832 0.0
H1092 H 0.81726 0.60764 0.19558 0.0
H1093 H 0.7946 0.62684 0.14176 0.0
C1094 C 0.78287 0.70424 0.96418 0.0
C1095 C 0.78124 0.71528 0.00992 0.0
C1096 C 0.78169 0.68374 0.96375 0.0
C1097 C 0.7787 0.67388 0.00892 0.0
C1098 C 0.77781 0.68477 0.05487 0.0
C1099 C 0.77904 0.70526 0.05539 0.0
C1100 C 0.77567 0.65228 0.00825 0.0
C1101 C 0.7879 0.6408 0.03919 0.0
C1102 C 0.76065 0.64306 0.97787 0.0
C1103 C 0.74666 0.65444 0.9461 0.0
C1104 C 0.73505 0.66931 0.96808 0.0
C1105 C 0.72204 0.68009 0.93779 0.0
C1106 C 0.72038 0.67601 0.88553 0.0
C1107 C 0.73169 0.6611 0.86348 0.0
C1108 C 0.74475 0.65029 0.89359 0.0
C1109 C 0.75441 0.56419 0.07235 0.0
C1110 C 0.75205 0.55143 0.02996 0.0
C1111 C 0.76053 0.58351 0.06642 0.0
C1112 C 0.76456 0.59033 0.01798 0.0
C1113 C 0.76232 0.57742 0.9755 0.0
C1114 C 0.75611 0.55803 0.98149 0.0
C1115 C 0.76995 0.61124 0.01183 0.0
C1116 C 0.75812 0.62265 0.97965 0.0
C1117 C 0.78533 0.62037 0.04116 0.0
C1118 C 0.79905 0.60893 0.07364 0.0
C1119 C 0.80908 0.59259 0.0533 0.0
C1120 C 0.82183 0.58174 0.08417 0.0
C1121 C 0.82476 0.58716 0.13541 0.0
C1122 C 0.81498 0.60346 0.15587 0.0
C1123 C 0.8022 0.61435 0.12518 0.0
H1124 H 0.83463 0.57874 0.15925 0.0
H1125 H 0.71029 0.68437 0.86214 0.0
H1126 H 0.79427 0.27701 0.4617 0.0
H1127 H 0.82994 0.27936 0.46392 0.0
H1128 H 0.83079 0.27747 0.62752 0.0
H1129 H 0.79491 0.27489 0.62579 0.0
H1130 H 0.85377 0.30681 0.50454 0.0
H1131 H 0.87399 0.25379 0.6647 0.0
H1132 H 0.86052 0.22452 0.70448 0.0
H1133 H 0.82918 0.2087 0.56543 0.0
H1134 H 0.84267 0.23772 0.52467 0.0
H1135 H 0.95607 0.31597 0.54232 0.0
H1136 H 0.92174 0.313 0.56741 0.0
H1137 H 0.91896 0.25481 0.49791 0.0
H1138 H 0.95332 0.2577 0.47385 0.0
H1139 H 0.89714 0.25648 0.58134 0.0
H1140 H 0.90491 0.29461 0.4314 0.0
H1141 H 0.91794 0.32176 0.38232 0.0
H1142 H 0.89234 0.36378 0.48561 0.0
H1143 H 0.87937 0.33684 0.53569 0.0
C1144 C 0.80195 0.27704 0.49829 0.0
C1145 C 0.79163 0.27571 0.54359 0.0
C1146 C 0.82239 0.27847 0.49945 0.0
C1147 C 0.83305 0.27852 0.54583 0.0
C1148 C 0.82287 0.27725 0.59124 0.0
C1149 C 0.80235 0.27583 0.59015 0.0
C1150 C 0.8548 0.28003 0.54604 0.0
C1151 C 0.86324 0.29589 0.52178 0.0
C1152 C 0.86717 0.26568 0.568 0.0
C1153 C 0.85915 0.24806 0.5919 0.0
C1154 C 0.86426 0.24404 0.64262 0.0
C1155 C 0.85663 0.22749 0.66532 0.0
C1156 C 0.84394 0.2148 0.63756 0.0
C1157 C 0.83894 0.21859 0.58696 0.0
C1158 C 0.84655 0.2351 0.56407 0.0
C1159 C 0.94821 0.30237 0.53386 0.0
C1160 C 0.95712 0.28702 0.50647 0.0
C1161 C 0.92863 0.30071 0.54788 0.0
C1162 C 0.91769 0.28378 0.53389 0.0
C1163 C 0.92709 0.26798 0.50921 0.0
C1164 C 0.94667 0.26963 0.49544 0.0
C1165 C 0.89607 0.28326 0.53978 0.0
C1166 C 0.88766 0.2676 0.56507 0.0
C1167 C 0.88364 0.29754 0.51768 0.0
C1168 C 0.89139 0.31374 0.4876 0.0
C1169 C 0.90219 0.30964 0.44384 0.0
C1170 C 0.90955 0.32499 0.41582 0.0
C1171 C 0.90603 0.34448 0.43093 0.0
C1172 C 0.8951 0.34867 0.47402 0.0
C1173 C 0.88774 0.33338 0.50223 0.0
H1174 H 0.91172 0.35634 0.40917 0.0
H1175 H 0.83804 0.20201 0.65521 0.0
H1176 H 0.73182 0.2072 0.61045 0.0
H1177 H 0.72906 0.17136 0.60429 0.0
H1178 H 0.71628 0.17431 0.44337 0.0
H1179 H 0.71899 0.21006 0.449 0.0
H1180 H 0.69097 0.14995 0.49114 0.0
H1181 H 0.76041 0.15996 0.48254 0.0
H1182 H 0.79263 0.17332 0.51123 0.0
H1183 H 0.78905 0.14259 0.6507 0.0
H1184 H 0.75664 0.12928 0.62316 0.0
H1185 H 0.69709 0.04791 0.43552 0.0
H1186 H 0.70437 0.08325 0.43452 0.0
H1187 H 0.72135 0.08253 0.59369 0.0
H1188 H 0.71438 0.04718 0.59425 0.0
H1189 H 0.74541 0.10588 0.54382 0.0
H1190 H 0.67564 0.09721 0.55505 0.0
H1191 H 0.64284 0.08464 0.5287 0.0
H1192 H 0.64657 0.11351 0.38653 0.0
H1193 H 0.67954 0.12602 0.41175 0.0
C1194 C 0.72841 0.20024 0.57374 0.0
C1195 C 0.72569 0.21153 0.53021 0.0
C1196 C 0.72694 0.17975 0.57025 0.0
C1197 C 0.72264 0.17019 0.52327 0.0
C1198 C 0.71967 0.18141 0.47994 0.0
C1199 C 0.7213 0.20185 0.48327 0.0
C1200 C 0.72089 0.14849 0.51938 0.0
C1201 C 0.70296 0.1403 0.5019 0.0
C1202 C 0.73642 0.13595 0.5345 0.0
C1203 C 0.756 0.14377 0.55098 0.0
C1204 C 0.76642 0.15617 0.5195 0.0
C1205 C 0.78473 0.16371 0.53553 0.0
C1206 C 0.79286 0.15885 0.58282 0.0
C1207 C 0.78272 0.14637 0.6141 0.0
C1208 C 0.76438 0.1388 0.59829 0.0
C1209 C 0.70271 0.05533 0.4699 0.0
C1210 C 0.70528 0.04507 0.51492 0.0
C1211 C 0.70674 0.07547 0.46946 0.0
C1212 C 0.71314 0.0856 0.51425 0.0
C1213 C 0.71643 0.07505 0.55873 0.0
C1214 C 0.71245 0.05492 0.55907 0.0
C1215 C 0.71544 0.10731 0.5156 0.0
C1216 C 0.73345 0.11552 0.53273 0.0
C1217 C 0.69994 0.11991 0.50036 0.0
C1218 C 0.68016 0.11234 0.48504 0.0
C1219 C 0.66954 0.10073 0.51798 0.0
C1220 C 0.65091 0.09364 0.50328 0.0
C1221 C 0.64266 0.09822 0.4559 0.0
C1222 C 0.653 0.10994 0.42316 0.0
C1223 C 0.67166 0.11703 0.43764 0.0
H1224 H 0.62822 0.09273 0.4446 0.0
H1225 H 0.80703 0.16472 0.59517 0.0
H1226 H 0.28515 0.22208 0.86297 0.0
H1227 H 0.32065 0.22086 0.85208 0.0
H1228 H 0.32983 0.21815 0.01443 0.0
H1229 H 0.29443 0.2192 0.0258 0.0
H1230 H 0.34847 0.24627 0.88468 0.0
H1231 H 0.36899 0.1907 0.04172 0.0
H1232 H 0.35553 0.16052 0.07702 0.0
H1233 H 0.32316 0.14842 0.93729 0.0
H1234 H 0.33649 0.17842 0.90105 0.0
H1235 H 0.44321 0.2609 0.99153 0.0
H1236 H 0.40865 0.25674 0.96614 0.0
H1237 H 0.42108 0.19845 0.90643 0.0
H1238 H 0.45574 0.20253 0.93352 0.0
H1239 H 0.39165 0.19665 0.96498 0.0
H1240 H 0.40601 0.23685 0.82739 0.0
H1241 H 0.4196 0.26503 0.78335 0.0
H1242 H 0.38261 0.30439 0.86767 0.0
H1243 H 0.36899 0.2765 0.91277 0.0
C1244 C 0.29469 0.22107 0.89642 0.0
C1245 C 0.28687 0.22078 0.94534 0.0
C1246 C 0.315 0.22043 0.89005 0.0
C1247 C 0.32789 0.21927 0.93236 0.0
C1248 C 0.32015 0.21876 0.98115 0.0
C1249 C 0.29987 0.21947 0.98759 0.0
C1250 C 0.34949 0.21949 0.92608 0.0
C1251 C 0.35795 0.23537 0.90189 0.0
C1252 C 0.36181 0.20492 0.94708 0.0
C1253 C 0.35368 0.18688 0.9688 0.0
C1254 C 0.35905 0.18157 0.01849 0.0
C1255 C 0.35141 0.1645 0.03868 0.0
C1256 C 0.3385 0.15257 0.0094 0.0
C1257 C 0.33312 0.15771 0.95996 0.0
C1258 C 0.34067 0.17477 0.93963 0.0
C1259 C 0.43861 0.24746 0.97154 0.0
C1260 C 0.45197 0.23212 0.96371 0.0
C1261 C 0.41887 0.24507 0.95694 0.0
C1262 C 0.4122 0.22733 0.93384 0.0
C1263 C 0.42585 0.21228 0.92402 0.0
C1264 C 0.44563 0.21465 0.93903 0.0
C1265 C 0.39076 0.2239 0.9253 0.0
C1266 C 0.38227 0.20742 0.94693 0.0
C1267 C 0.37843 0.23768 0.90076 0.0
C1268 C 0.38655 0.25455 0.87367 0.0
C1269 C 0.40086 0.25153 0.83681 0.0
C1270 C 0.40856 0.26745 0.81161 0.0
C1271 C 0.40199 0.28649 0.82275 0.0
C1272 C 0.38768 0.28964 0.85906 0.0
C1273 C 0.37994 0.27376 0.8844 0.0
H1274 H 0.40797 0.2988 0.8032 0.0
H1275 H 0.33271 0.1393 0.02493 0.0
H1276 H 0.2687 0.78851 0.62355 0.0
H1277 H 0.26966 0.82456 0.6258 0.0
H1278 H 0.29188 0.82367 0.47413 0.0
H1279 H 0.29076 0.7878 0.47122 0.0
H1280 H 0.31254 0.84933 0.54461 0.0
H1281 H 0.24575 0.83324 0.48798 0.0
H1282 H 0.21333 0.81779 0.49666 0.0
H1283 H 0.20509 0.85074 0.63596 0.0
H1284 H 0.23762 0.86619 0.62844 0.0
H1285 H 0.2978 0.93963 0.43362 0.0
H1286 H 0.29777 0.90536 0.45819 0.0
H1287 H 0.26726 0.92158 0.59461 0.0
H1288 H 0.26699 0.9562 0.56903 0.0
H1289 H 0.25147 0.889 0.54991 0.0
H1290 H 0.31583 0.90864 0.60164 0.0
H1291 H 0.34832 0.92416 0.59509 0.0
H1292 H 0.36175 0.88477 0.47057 0.0
H1293 H 0.32922 0.86919 0.47585 0.0
C1294 C 0.27385 0.796 0.59075 0.0
C1295 C 0.27959 0.78527 0.54712 0.0
C1296 C 0.27433 0.81658 0.59207 0.0
C1297 C 0.28079 0.82675 0.55008 0.0
C1298 C 0.28686 0.81608 0.50694 0.0
C1299 C 0.28612 0.79558 0.50528 0.0
C1300 C 0.28112 0.84854 0.55033 0.0
C1301 C 0.2992 0.85804 0.54559 0.0
C1302 C 0.26378 0.8599 0.5536 0.0
C1303 C 0.24422 0.85067 0.558 0.0
C1304 C 0.23711 0.83705 0.52071 0.0
C1305 C 0.2187 0.82832 0.52537 0.0
C1306 C 0.20719 0.83323 0.56693 0.0
C1307 C 0.21404 0.84692 0.60385 0.0
C1308 C 0.23246 0.85567 0.5994 0.0
C1309 C 0.29123 0.93587 0.46905 0.0
C1310 C 0.28256 0.95037 0.49976 0.0
C1311 C 0.29129 0.91631 0.48322 0.0
C1312 C 0.28285 0.91088 0.52877 0.0
C1313 C 0.27399 0.92544 0.5595 0.0
C1314 C 0.27389 0.94515 0.54509 0.0
C1315 C 0.28289 0.88984 0.54256 0.0
C1316 C 0.26489 0.88043 0.54998 0.0
C1317 C 0.30037 0.87854 0.54229 0.0
C1318 C 0.32001 0.88781 0.53899 0.0
C1319 C 0.32565 0.90337 0.57262 0.0
C1320 C 0.34409 0.91216 0.56917 0.0
C1321 C 0.35708 0.90547 0.53239 0.0
C1322 C 0.35167 0.88994 0.49904 0.0
C1323 C 0.33324 0.8811 0.50231 0.0
H1324 H 0.37134 0.91231 0.52978 0.0
H1325 H 0.19293 0.82646 0.57046 0.0
H1326 H 0.71641 0.77943 0.91485 0.0
H1327 H 0.6807 0.78259 0.90773 0.0
H1328 H 0.6776 0.78495 0.07113 0.0
H1329 H 0.71325 0.7821 0.07875 0.0
H1330 H 0.65171 0.75993 0.93719 0.0
H1331 H 0.64099 0.81506 0.10727 0.0
H1332 H 0.6589 0.84252 0.15073 0.0
H1333 H 0.68995 0.85311 0.01462 0.0
H1334 H 0.67203 0.82592 0.97013 0.0
H1335 H 0.55671 0.75624 0.03758 0.0
H1336 H 0.59149 0.75609 0.01673 0.0
H1337 H 0.58631 0.81569 0.9665 0.0
H1338 H 0.55149 0.8159 0.98861 0.0
H1339 H 0.61632 0.81312 0.02914 0.0
H1340 H 0.59494 0.7766 0.88166 0.0
H1341 H 0.57722 0.75075 0.8314 0.0
H1342 H 0.61023 0.70636 0.90868 0.0
H1343 H 0.62798 0.73193 0.95994 0.0
C1344 C 0.70817 0.78066 0.94935 0.0
C1345 C 0.71779 0.78056 0.99742 0.0
C1346 C 0.68773 0.78242 0.94515 0.0
C1347 C 0.67648 0.78423 0.98884 0.0
C1348 C 0.68599 0.78392 0.03684 0.0
C1349 C 0.70642 0.78219 0.04111 0.0
C1350 C 0.65475 0.78616 0.9845 0.0
C1351 C 0.64396 0.7716 0.95709 0.0
C1352 C 0.64464 0.8017 0.00925 0.0
C1353 C 0.65526 0.81832 0.0355 0.0
C1354 C 0.65156 0.82331 0.08653 0.0
C1355 C 0.66173 0.83882 0.11136 0.0
C1356 C 0.6756 0.84951 0.0855 0.0
C1357 C 0.67926 0.84477 0.03467 0.0
C1358 C 0.66911 0.8293 0.00964 0.0
C1359 C 0.56292 0.76907 0.02066 0.0
C1360 C 0.55155 0.78598 0.0139 0.0
C1361 C 0.58278 0.769 0.00874 0.0
C1362 C 0.59156 0.78584 0.98963 0.0
C1363 C 0.57989 0.80252 0.98108 0.0
C1364 C 0.56001 0.8026 0.99323 0.0
C1365 C 0.61319 0.78651 0.98316 0.0
C1366 C 0.62402 0.80155 0.00868 0.0
C1367 C 0.62331 0.77167 0.9557 0.0
C1368 C 0.61271 0.7562 0.92489 0.0
C1369 C 0.59833 0.76132 0.88821 0.0
C1370 C 0.58829 0.74672 0.85949 0.0
C1371 C 0.59257 0.72692 0.8669 0.0
C1372 C 0.60693 0.7217 0.90299 0.0
C1373 C 0.617 0.73624 0.93183 0.0
H1374 H 0.58478 0.71564 0.84463 0.0
H1375 H 0.68348 0.86149 0.10483 0.0
loop_
_geom_bond_atom_site_label_1
_geom_bond_atom_site_label_2
_geom_bond_distance
_geom_bond_site_symmetry_2
_ccdc_geom_bond_type
Sc0 O3 2.025 . S
Sc0 O10 2.105 . S
Sc0 O13 2.105 . S
Sc0 O16 2.105 . S
Sc0 O19 2.105 . S
Sc1 O3 2.025 . S
Sc1 O11 2.105 . S
Sc1 O15 2.105 1_554 S
Sc1 O17 2.105 . S
Sc1 O21 2.105 1_554 S
Sc2 O3 2.025 1_556 S
Sc2 O12 2.105 . S
Sc2 O14 2.105 . S
Sc2 O18 2.105 . S
Sc2 O20 2.105 . S
O3 Sc0 2.025 . S
O3 Sc1 2.025 . S
O3 Sc2 2.025 1_554 S
C4 O10 1.268 . S
C4 O20 1.268 1_554 S
C5 O11 1.268 . S
C5 O19 1.268 . S
C6 O12 1.268 . S
C6 O21 1.268 . S
C7 O13 1.268 . S
C7 O17 1.268 . S
C8 O14 1.268 1_554 S
C8 O16 1.268 . S
C9 O15 1.268 . S
C9 O18 1.268 . S
O10 Sc0 2.105 . S
O10 C4 1.268 . S
O11 Sc1 2.105 . S
O11 C5 1.268 . S
O12 Sc2 2.105 . S
O12 C6 1.268 . S
O13 Sc0 2.105 . S
O13 C7 1.268 . S
O14 Sc2 2.105 . S
O14 C8 1.268 1_556 S
O15 Sc1 2.105 1_556 S
O15 C9 1.268 . S
O16 Sc0 2.105 . S
O16 C8 1.268 . S
O17 Sc1 2.105 . S
O17 C7 1.268 . S
O18 Sc2 2.105 . S
O18 C9 1.268 . S
O19 Sc0 2.105 . S
O19 C5 1.268 . S
O20 Sc2 2.105 . S
O20 C4 1.268 1_556 S
O21 Sc1 2.105 1_556 S
O21 C6 1.268 . S
Sc22 O25 2.025 . S
Sc22 O32 2.105 . S
Sc22 O35 2.105 . S
Sc22 O38 2.105 . S
Sc22 O41 2.105 . S
Sc23 O25 2.025 . S
Sc23 O33 2.105 . S
Sc23 O37 2.105 . S
Sc23 O39 2.105 . S
Sc23 O43 2.105 . S
Sc24 O25 2.025 . S
Sc24 O34 2.105 . S
Sc24 O36 2.105 . S
Sc24 O40 2.105 . S
Sc24 O42 2.105 . S
O25 Sc22 2.025 . S
O25 Sc23 2.025 . S
O25 Sc24 2.025 . S
C26 O32 1.268 . S
C26 O42 1.268 . S
C27 O33 1.268 . S
C27 O41 1.268 . S
C28 O34 1.268 . S
C28 O43 1.268 . S
C29 O35 1.268 . S
C29 O39 1.268 . S
C30 O36 1.268 . S
C30 O38 1.268 . S
C31 O37 1.268 . S
C31 O40 1.268 . S
O32 Sc22 2.105 . S
O32 C26 1.268 . S
O33 Sc23 2.105 . S
O33 C27 1.268 . S
O34 Sc24 2.105 . S
O34 C28 1.268 . S
O35 Sc22 2.105 . S
O35 C29 1.268 . S
O36 Sc24 2.105 . S
O36 C30 1.268 . S
O37 Sc23 2.105 . S
O37 C31 1.268 . S
O38 Sc22 2.105 . S
O38 C30 1.268 . S
O39 Sc23 2.105 . S
O39 C29 1.268 . S
O40 Sc24 2.105 . S
O40 C31 1.268 . S
O41 Sc22 2.105 . S
O41 C27 1.268 . S
O42 Sc24 2.105 . S
O42 C26 1.268 . S
O43 Sc23 2.105 . S
O43 C28 1.268 . S
Sc44 O47 2.025 1_556 S
Sc44 O54 2.105 . S
Sc44 O57 2.105 . S
Sc44 O60 2.105 . S
Sc44 O63 2.105 . S
Sc45 O47 2.025 . S
Sc45 O55 2.105 1_554 S
Sc45 O59 2.105 . S
Sc45 O61 2.105 1_554 S
Sc45 O65 2.105 . S
Sc46 O47 2.025 . S
Sc46 O56 2.105 . S
Sc46 O58 2.105 . S
Sc46 O62 2.105 . S
Sc46 O64 2.105 . S
O47 Sc44 2.025 1_554 S
O47 Sc45 2.025 . S
O47 Sc46 2.025 . S
C48 O54 1.268 1_554 S
C48 O64 1.268 . S
C49 O55 1.268 . S
C49 O63 1.268 . S
C50 O56 1.268 . S
C50 O65 1.268 . S
C51 O57 1.268 . S
C51 O61 1.268 . S
C52 O58 1.268 . S
C52 O60 1.268 1_554 S
C53 O59 1.268 . S
C53 O62 1.268 . S
O54 Sc44 2.105 . S
O54 C48 1.268 1_556 S
O55 Sc45 2.105 1_556 S
O55 C49 1.268 . S
O56 Sc46 2.105 . S
O56 C50 1.268 . S
O57 Sc44 2.105 . S
O57 C51 1.268 . S
O58 Sc46 2.105 . S
O58 C52 1.268 . S
O59 Sc45 2.105 . S
O59 C53 1.268 . S
O60 Sc44 2.105 . S
O60 C52 1.268 1_556 S
O61 Sc45 2.105 1_556 S
O61 C51 1.268 . S
O62 Sc46 2.105 . S
O62 C53 1.268 . S
O63 Sc44 2.105 . S
O63 C49 1.268 . S
O64 Sc46 2.105 . S
O64 C48 1.268 . S
O65 Sc45 2.105 . S
O65 C50 1.268 . S
Sc66 O69 2.025 . S
Sc66 O76 2.105 . S
Sc66 O79 2.105 . S
Sc66 O82 2.105 . S
Sc66 O85 2.105 . S
Sc67 O69 2.025 . S
Sc67 O77 2.105 . S
Sc67 O81 2.105 . S
Sc67 O83 2.105 . S
Sc67 O87 2.105 . S
Sc68 O69 2.025 . S
Sc68 O78 2.105 . S
Sc68 O80 2.105 . S
Sc68 O84 2.105 . S
Sc68 O86 2.105 . S
O69 Sc66 2.025 . S
O69 Sc67 2.025 . S
O69 Sc68 2.025 . S
C70 O76 1.268 . S
C70 O86 1.268 . S
C71 O77 1.268 . S
C71 O85 1.268 . S
C72 O78 1.268 . S
C72 O87 1.268 . S
C73 O79 1.268 . S
C73 O83 1.268 . S
C74 O80 1.268 . S
C74 O82 1.268 . S
C75 O81 1.268 . S
C75 O84 1.268 . S
O76 Sc66 2.105 . S
O76 C70 1.268 . S
O77 Sc67 2.105 . S
O77 C71 1.268 . S
O78 Sc68 2.105 . S
O78 C72 1.268 . S
O79 Sc66 2.105 . S
O79 C73 1.268 . S
O80 Sc68 2.105 . S
O80 C74 1.268 . S
O81 Sc67 2.105 . S
O81 C75 1.268 . S
O82 Sc66 2.105 . S
O82 C74 1.268 . S
O83 Sc67 2.105 . S
O83 C73 1.268 . S
O84 Sc68 2.105 . S
O84 C75 1.268 . S
O85 Sc66 2.105 . S
O85 C71 1.268 . S
O86 Sc68 2.105 . S
O86 C70 1.268 . S
O87 Sc67 2.105 . S
O87 C72 1.268 . S
H88 C91 0.931 . S
H89 C94 0.929 . S
H90 C96 0.930 . S
C91 H88 0.931 . S
C91 C92 1.382 1_554 S
C91 C93 1.411 . S
C92 C91 1.382 1_556 S
C92 C96 1.407 . S
C93 C91 1.411 . S
C93 C94 1.394 . S
C94 H89 0.929 . S
C94 C93 1.394 . S
C94 C95 1.382 1_554 S
C95 C94 1.382 1_556 S
C95 C96 1.392 . S
C95 N97 1.420 . S
C96 H90 0.930 . S
C96 C92 1.407 . S
C96 C95 1.392 . S
N97 C95 1.420 . S
N97 C98 1.244 1_556 S
C98 N97 1.244 1_554 S
H99 C102 0.929 . S
H100 C105 0.929 . S
H101 C107 0.930 . S
C102 H99 0.929 . S
C102 C103 1.398 . S
C102 C104 1.396 . S
C103 C102 1.398 . S
C103 C107 1.407 . S
C104 C102 1.396 . S
C104 C105 1.394 . S
C105 H100 0.929 . S
C105 C104 1.394 . S
C105 C106 1.382 . S
C106 C105 1.382 . S
C106 C107 1.392 . S
C106 N108 1.420 1_655 S
C107 H101 0.930 . S
C107 C103 1.407 . S
C107 C106 1.392 . S
N108 C106 1.420 1_455 S
N108 C109 1.244 . S
C109 N108 1.244 . S
H110 C113 0.929 . S
H111 C116 0.929 . S
H112 C118 0.930 . S
C113 H110 0.929 . S
C113 C114 1.398 . S
C113 C115 1.396 1_554 S
C114 C113 1.398 . S
C114 C118 1.407 . S
C115 C113 1.396 1_556 S
C115 C116 1.394 . S
C116 H111 0.929 . S
C116 C115 1.394 . S
C116 C117 1.382 1_556 S
C117 C116 1.382 1_554 S
C117 C118 1.392 . S
C117 N119 1.420 . S
C118 H112 0.930 . S
C118 C114 1.407 . S
C118 C117 1.392 . S
N119 C117 1.420 . S
N119 C120 1.244 . S
C120 N119 1.244 . S
H121 C124 0.929 . S
H122 C127 0.929 . S
H123 C129 0.930 . S
C124 H121 0.929 . S
C124 C125 1.398 . S
C124 C126 1.396 . S
C125 C124 1.398 . S
C125 C129 1.407 . S
C126 C124 1.396 . S
C126 C127 1.394 . S
C127 H122 0.929 . S
C127 C126 1.394 . S
C127 C128 1.382 . S
C128 C127 1.382 . S
C128 C129 1.392 . S
C128 N130 1.420 1_455 S
C129 H123 0.930 . S
C129 C125 1.407 . S
C129 C128 1.392 . S
N130 C128 1.420 1_655 S
N130 C131 1.244 . S
C131 N130 1.244 . S
H132 C135 0.929 . S
H133 C138 0.929 . S
H134 C140 0.930 . S
C135 H132 0.929 . S
C135 C136 1.398 . S
C135 C137 1.396 . S
C136 C135 1.398 . S
C136 C140 1.407 . S
C137 C135 1.396 . S
C137 C138 1.394 . S
C138 H133 0.929 . S
C138 C137 1.394 . S
C138 C139 1.382 . S
C139 C138 1.382 . S
C139 C140 1.392 . S
C139 N141 1.420 1_565 S
C140 H134 0.930 . S
C140 C136 1.407 . S
C140 C139 1.392 . S
N141 C139 1.420 1_545 S
N141 C142 1.244 . S
C142 N141 1.244 . S
H143 C146 0.931 . S
H144 C149 0.929 . S
H145 C151 0.930 . S
C146 H143 0.931 . S
C146 C147 1.386 1_554 S
C146 C148 1.407 . S
C147 C146 1.386 1_556 S
C147 C151 1.407 . S
C148 C146 1.407 . S
C148 C149 1.394 . S
C149 H144 0.929 . S
C149 C148 1.394 . S
C149 C150 1.382 1_554 S
C150 C149 1.382 1_556 S
C150 C151 1.392 . S
C150 N152 1.420 . S
C151 H145 0.930 . S
C151 C147 1.407 . S
C151 C150 1.392 . S
N152 C150 1.420 . S
N152 C153 1.244 1_556 S
C153 N152 1.244 1_554 S
H154 C157 0.929 . S
H155 C160 0.929 . S
H156 C162 0.930 . S
C157 H154 0.929 . S
C157 C158 1.398 . S
C157 C159 1.396 . S
C158 C157 1.398 . S
C158 C162 1.407 . S
C159 C157 1.396 . S
C159 C160 1.394 . S
C160 H155 0.929 . S
C160 C159 1.394 . S
C160 C161 1.382 . S
C161 C160 1.382 . S
C161 C162 1.392 . S
C161 N163 1.420 1_545 S
C162 H156 0.930 . S
C162 C158 1.407 . S
C162 C161 1.392 . S
N163 C161 1.420 1_565 S
N163 C164 1.244 . S
C164 N163 1.244 . S
H165 C168 0.929 . S
H166 C171 0.929 . S
H167 C173 0.930 . S
C168 H165 0.929 . S
C168 C169 1.398 . S
C168 C170 1.396 1_554 S
C169 C168 1.398 . S
C169 C173 1.407 . S
C170 C168 1.396 1_556 S
C170 C171 1.394 . S
C171 H166 0.929 . S
C171 C170 1.394 . S
C171 C172 1.382 1_556 S
C172 C171 1.382 1_554 S
C172 C173 1.392 . S
C172 N174 1.420 . S
C173 H167 0.930 . S
C173 C169 1.407 . S
C173 C172 1.392 . S
N174 C172 1.420 . S
N174 C175 1.244 . S
C175 N174 1.244 . S
H176 C194 0.951 . S
H177 C196 0.951 . S
H178 C198 0.950 . S
H179 C199 0.950 . S
H180 C201 0.950 . S
H181 C204 0.950 . S
H182 C205 0.950 . S
H183 C207 0.950 . S
H184 C208 0.950 . S
H185 C209 0.951 . S
H186 C211 0.951 . S
H187 C213 0.950 . S
H188 C214 0.950 . S
H189 C216 0.950 . S
H190 C219 0.950 . S
H191 C220 0.950 . S
H192 C222 0.950 . S
H193 C223 0.950 . S
C194 H176 0.951 . S
C194 C195 1.366 . S
C194 C196 1.388 . S
C195 C194 1.366 . S
C195 C199 1.385 . S
C196 H177 0.951 . S
C196 C194 1.388 . S
C196 C197 1.366 . S
C197 C196 1.366 . S
C197 C198 1.414 . S
C197 C200 1.499 . S
C198 H178 0.950 . S
C198 C197 1.414 . S
C198 C199 1.374 . S
C199 H179 0.950 . S
C199 C195 1.385 . S
C199 C198 1.374 . S
C200 C197 1.499 . S
C200 C201 1.373 . S
C200 C202 1.389 . S
C201 H180 0.950 . S
C201 C200 1.373 . S
C201 C217 1.377 . S
C202 C200 1.389 . S
C202 C203 1.524 . S
C202 C216 1.377 . S
C203 C202 1.524 . S
C203 C204 1.397 . S
C203 C208 1.363 . S
C204 H181 0.950 . S
C204 C203 1.397 . S
C204 C205 1.334 . S
C205 H182 0.950 . S
C205 C204 1.334 . S
C205 C206 1.287 . S
C206 C205 1.287 . S
C206 C207 1.524 . S
C206 H225 0.913 . S
C207 H183 0.950 . S
C207 C206 1.524 . S
C207 C208 1.415 . S
C208 H184 0.950 . S
C208 C203 1.363 . S
C208 C207 1.415 . S
C209 H185 0.951 . S
C209 C210 1.366 . S
C209 C211 1.388 . S
C210 C209 1.366 . S
C210 C214 1.385 . S
C211 H186 0.951 . S
C211 C209 1.388 . S
C211 C212 1.366 . S
C212 C211 1.366 . S
C212 C213 1.414 . S
C212 C215 1.499 . S
C213 H187 0.950 . S
C213 C212 1.414 . S
C213 C214 1.374 . S
C214 H188 0.950 . S
C214 C210 1.385 . S
C214 C213 1.374 . S
C215 C212 1.499 . S
C215 C216 1.373 . S
C215 C217 1.389 . S
C216 H189 0.950 . S
C216 C202 1.377 . S
C216 C215 1.373 . S
C217 C201 1.377 . S
C217 C215 1.389 . S
C217 C218 1.524 . S
C218 C217 1.524 . S
C218 C219 1.397 . S
C218 C223 1.363 . S
C219 H190 0.950 . S
C219 C218 1.397 . S
C219 C220 1.334 . S
C220 H191 0.950 . S
C220 C219 1.334 . S
C220 C221 1.287 . S
C221 C220 1.287 . S
C221 C222 1.524 . S
C221 H224 0.999 . S
C222 H192 0.950 . S
C222 C221 1.524 . S
C222 C223 1.415 . S
C223 H193 0.950 . S
C223 C218 1.363 . S
C223 C222 1.415 . S
H224 C221 0.999 . S
H225 C206 0.913 . S
H226 C244 0.951 . S
H227 C246 0.951 . S
H228 C248 0.950 . S
H229 C249 0.950 . S
H230 C251 0.950 . S
H231 C254 0.950 . S
H232 C255 0.950 . S
H233 C257 0.950 . S
H234 C258 0.950 . S
H235 C259 0.951 . S
H236 C261 0.951 . S
H237 C263 0.950 . S
H238 C264 0.950 . S
H239 C266 0.950 . S
H240 C269 0.950 . S
H241 C270 0.950 . S
H242 C272 0.950 . S
H243 C273 0.950 . S
C244 H226 0.951 . S
C244 C245 1.366 . S
C244 C246 1.388 . S
C245 C244 1.366 . S
C245 C249 1.385 . S
C246 H227 0.951 . S
C246 C244 1.388 . S
C246 C247 1.366 . S
C247 C246 1.366 . S
C247 C248 1.414 . S
C247 C250 1.499 . S
C248 H228 0.950 . S
C248 C247 1.414 . S
C248 C249 1.374 . S
C249 H229 0.950 . S
C249 C245 1.385 . S
C249 C248 1.374 . S
C250 C247 1.499 . S
C250 C251 1.373 . S
C250 C252 1.389 . S
C251 H230 0.950 . S
C251 C250 1.373 . S
C251 C267 1.377 . S
C252 C250 1.389 . S
C252 C253 1.524 . S
C252 C266 1.377 . S
C253 C252 1.524 . S
C253 C254 1.397 . S
C253 C258 1.363 . S
C254 H231 0.950 . S
C254 C253 1.397 . S
C254 C255 1.334 . S
C255 H232 0.950 . S
C255 C254 1.334 . S
C255 C256 1.287 . S
C256 C255 1.287 . S
C256 C257 1.524 . S
C256 H275 0.913 . S
C257 H233 0.950 . S
C257 C256 1.524 . S
C257 C258 1.415 . S
C258 H234 0.950 . S
C258 C253 1.363 . S
C258 C257 1.415 . S
C259 H235 0.951 . S
C259 C260 1.366 . S
C259 C261 1.388 . S
C260 C259 1.366 . S
C260 C264 1.385 . S
C261 H236 0.951 . S
C261 C259 1.388 . S
C261 C262 1.366 . S
C262 C261 1.366 . S
C262 C263 1.414 . S
C262 C265 1.499 . S
C263 H237 0.950 . S
C263 C262 1.414 . S
C263 C264 1.374 . S
C264 H238 0.950 . S
C264 C260 1.385 . S
C264 C263 1.374 . S
C265 C262 1.499 . S
C265 C266 1.373 . S
C265 C267 1.389 . S
C266 H239 0.950 . S
C266 C252 1.377 . S
C266 C265 1.373 . S
C267 C251 1.377 . S
C267 C265 1.389 . S
C267 C268 1.524 . S
C268 C267 1.524 . S
C268 C269 1.397 . S
C268 C273 1.363 . S
C269 H240 0.950 . S
C269 C268 1.397 . S
C269 C270 1.334 . S
C270 H241 0.950 . S
C270 C269 1.334 . S
C270 C271 1.287 . S
C271 C270 1.287 . S
C271 C272 1.524 . S
C271 H274 0.999 . S
C272 H242 0.950 . S
C272 C271 1.524 . S
C272 C273 1.415 . S
C273 H243 0.950 . S
C273 C268 1.363 . S
C273 C272 1.415 . S
H274 C271 0.999 . S
H275 C256 0.913 . S
H276 C294 0.951 . S
H277 C296 0.951 . S
H278 C298 0.950 . S
H279 C299 0.950 . S
H280 C301 0.950 . S
H281 C304 0.950 . S
H282 C305 0.950 . S
H283 C307 0.950 . S
H284 C308 0.950 . S
H285 C309 0.951 . S
H286 C311 0.951 . S
H287 C313 0.950 . S
H288 C314 0.950 . S
H289 C316 0.950 . S
H290 C319 0.950 . S
H291 C320 0.950 . S
H292 C322 0.950 . S
H293 C323 0.950 . S
C294 H276 0.951 . S
C294 C295 1.366 . S
C294 C296 1.388 . S
C295 C294 1.366 . S
C295 C299 1.385 . S
C296 H277 0.951 . S
C296 C294 1.388 . S
C296 C297 1.366 . S
C297 C296 1.366 . S
C297 C298 1.414 . S
C297 C300 1.499 . S
C298 H278 0.950 . S
C298 C297 1.414 . S
C298 C299 1.374 . S
C299 H279 0.950 . S
C299 C295 1.385 . S
C299 C298 1.374 . S
C300 C297 1.499 . S
C300 C301 1.373 . S
C300 C302 1.389 . S
C301 H280 0.950 . S
C301 C300 1.373 . S
C301 C317 1.377 . S
C302 C300 1.389 . S
C302 C303 1.524 . S
C302 C316 1.377 . S
C303 C302 1.524 . S
C303 C304 1.397 . S
C303 C308 1.363 . S
C304 H281 0.950 . S
C304 C303 1.397 . S
C304 C305 1.334 . S
C305 H282 0.950 . S
C305 C304 1.334 . S
C305 C306 1.287 . S
C306 C305 1.287 . S
C306 C307 1.524 . S
C306 H325 0.913 . S
C307 H283 0.950 . S
C307 C306 1.524 . S
C307 C308 1.415 . S
C308 H284 0.950 . S
C308 C303 1.363 . S
C308 C307 1.415 . S
C309 H285 0.951 . S
C309 C310 1.366 . S
C309 C311 1.388 . S
C310 C309 1.366 . S
C310 C314 1.385 . S
C311 H286 0.951 . S
C311 C309 1.388 . S
C311 C312 1.366 . S
C312 C311 1.366 . S
C312 C313 1.414 . S
C312 C315 1.499 . S
C313 H287 0.950 . S
C313 C312 1.414 . S
C313 C314 1.374 . S
C314 H288 0.950 . S
C314 C310 1.385 . S
C314 C313 1.374 . S
C315 C312 1.499 . S
C315 C316 1.373 . S
C315 C317 1.389 . S
C316 H289 0.950 . S
C316 C302 1.377 . S
C316 C315 1.373 . S
C317 C301 1.377 . S
C317 C315 1.389 . S
C317 C318 1.524 . S
C318 C317 1.524 . S
C318 C319 1.397 . S
C318 C323 1.363 . S
C319 H290 0.950 . S
C319 C318 1.397 . S
C319 C320 1.334 . S
C320 H291 0.950 . S
C320 C319 1.334 . S
C320 C321 1.287 . S
C321 C320 1.287 . S
C321 C322 1.524 . S
C321 H324 0.999 . S
C322 H292 0.950 . S
C322 C321 1.524 . S
C322 C323 1.415 . S
C323 H293 0.950 . S
C323 C318 1.363 . S
C323 C322 1.415 . S
H324 C321 0.999 . S
H325 C306 0.913 . S
H326 C344 0.951 . S
H327 C346 0.951 . S
H328 C348 0.950 . S
H329 C349 0.950 . S
H330 C351 0.950 . S
H331 C354 0.950 . S
H332 C355 0.950 . S
H333 C357 0.950 . S
H334 C358 0.950 . S
H335 C359 0.951 . S
H336 C361 0.951 . S
H337 C363 0.950 . S
H338 C364 0.950 . S
H339 C366 0.950 . S
H340 C369 0.950 . S
H341 C370 0.950 . S
H342 C372 0.950 . S
H343 C373 0.950 . S
C344 H326 0.951 . S
C344 C345 1.366 . S
C344 C346 1.388 . S
C345 C344 1.366 . S
C345 C349 1.385 . S
C346 H327 0.951 . S
C346 C344 1.388 . S
C346 C347 1.366 . S
C347 C346 1.366 . S
C347 C348 1.414 . S
C347 C350 1.499 . S
C348 H328 0.950 . S
C348 C347 1.414 . S
C348 C349 1.374 . S
C349 H329 0.950 . S
C349 C345 1.385 . S
C349 C348 1.374 . S
C350 C347 1.499 . S
C350 C351 1.373 . S
C350 C352 1.389 . S
C351 H330 0.950 . S
C351 C350 1.373 . S
C351 C367 1.377 . S
C352 C350 1.389 . S
C352 C353 1.524 . S
C352 C366 1.377 . S
C353 C352 1.524 . S
C353 C354 1.397 . S
C353 C358 1.363 . S
C354 H331 0.950 . S
C354 C353 1.397 . S
C354 C355 1.334 . S
C355 H332 0.950 . S
C355 C354 1.334 . S
C355 C356 1.287 . S
C356 C355 1.287 . S
C356 C357 1.524 . S
C356 H375 0.913 . S
C357 H333 0.950 . S
C357 C356 1.524 . S
C357 C358 1.415 . S
C358 H334 0.950 . S
C358 C353 1.363 . S
C358 C357 1.415 . S
C359 H335 0.951 . S
C359 C360 1.366 . S
C359 C361 1.388 . S
C360 C359 1.366 . S
C360 C364 1.385 . S
C361 H336 0.951 . S
C361 C359 1.388 . S
C361 C362 1.366 . S
C362 C361 1.366 . S
C362 C363 1.414 . S
C362 C365 1.499 . S
C363 H337 0.950 . S
C363 C362 1.414 . S
C363 C364 1.374 . S
C364 H338 0.950 . S
C364 C360 1.385 . S
C364 C363 1.374 . S
C365 C362 1.499 . S
C365 C366 1.373 . S
C365 C367 1.389 . S
C366 H339 0.950 . S
C366 C352 1.377 . S
C366 C365 1.373 . S
C367 C351 1.377 . S
C367 C365 1.389 . S
C367 C368 1.524 . S
C368 C367 1.524 . S
C368 C369 1.397 . S
C368 C373 1.363 . S
C369 H340 0.950 . S
C369 C368 1.397 . S
C369 C370 1.334 . S
C370 H341 0.950 . S
C370 C369 1.334 . S
C370 C371 1.287 . S
C371 C370 1.287 . S
C371 C372 1.524 . S
C371 H374 0.999 . S
C372 H342 0.950 . S
C372 C371 1.524 . S
C372 C373 1.415 . S
C373 H343 0.950 . S
C373 C368 1.363 . S
C373 C372 1.415 . S
H374 C371 0.999 . S
H375 C356 0.913 . S
H376 C394 0.951 . S
H377 C396 0.951 . S
H378 C398 0.950 . S
H379 C399 0.950 . S
H380 C401 0.950 . S
H381 C404 0.950 . S
H382 C405 0.950 . S
H383 C407 0.950 . S
H384 C408 0.950 . S
H385 C409 0.951 . S
H386 C411 0.951 . S
H387 C413 0.950 . S
H388 C414 0.950 . S
H389 C416 0.950 . S
H390 C419 0.950 . S
H391 C420 0.950 . S
H392 C422 0.950 . S
H393 C423 0.950 . S
C394 H376 0.951 . S
C394 C395 1.366 . S
C394 C396 1.388 . S
C395 C394 1.366 . S
C395 C399 1.385 . S
C396 H377 0.951 . S
C396 C394 1.388 . S
C396 C397 1.366 . S
C397 C396 1.366 . S
C397 C398 1.414 . S
C397 C400 1.499 . S
C398 H378 0.950 . S
C398 C397 1.414 . S
C398 C399 1.374 . S
C399 H379 0.950 . S
C399 C395 1.385 . S
C399 C398 1.374 . S
C400 C397 1.499 . S
C400 C401 1.373 . S
C400 C402 1.389 . S
C401 H380 0.950 . S
C401 C400 1.373 . S
C401 C417 1.377 . S
C402 C400 1.389 . S
C402 C403 1.524 . S
C402 C416 1.377 . S
C403 C402 1.524 . S
C403 C404 1.397 . S
C403 C408 1.363 . S
C404 H381 0.950 . S
C404 C403 1.397 . S
C404 C405 1.334 . S
C405 H382 0.950 . S
C405 C404 1.334 . S
C405 C406 1.287 . S
C406 C405 1.287 . S
C406 C407 1.524 . S
C406 H425 0.913 . S
C407 H383 0.950 . S
C407 C406 1.524 . S
C407 C408 1.415 . S
C408 H384 0.950 . S
C408 C403 1.363 . S
C408 C407 1.415 . S
C409 H385 0.951 . S
C409 C410 1.366 . S
C409 C411 1.388 . S
C410 C409 1.366 . S
C410 C414 1.385 . S
C411 H386 0.951 . S
C411 C409 1.388 . S
C411 C412 1.366 . S
C412 C411 1.366 . S
C412 C413 1.414 . S
C412 C415 1.499 . S
C413 H387 0.950 . S
C413 C412 1.414 . S
C413 C414 1.374 . S
C414 H388 0.950 . S
C414 C410 1.385 . S
C414 C413 1.374 . S
C415 C412 1.499 . S
C415 C416 1.373 . S
C415 C417 1.389 . S
C416 H389 0.950 . S
C416 C402 1.377 . S
C416 C415 1.373 . S
C417 C401 1.377 . S
C417 C415 1.389 . S
C417 C418 1.524 . S
C418 C417 1.524 . S
C418 C419 1.397 . S
C418 C423 1.363 . S
C419 H390 0.950 . S
C419 C418 1.397 . S
C419 C420 1.334 . S
C420 H391 0.950 . S
C420 C419 1.334 . S
C420 C421 1.287 . S
C421 C420 1.287 . S
C421 C422 1.524 . S
C421 H424 0.999 . S
C422 H392 0.950 . S
C422 C421 1.524 . S
C422 C423 1.415 . S
C423 H393 0.950 . S
C423 C418 1.363 . S
C423 C422 1.415 . S
H424 C421 0.999 . S
H425 C406 0.913 . S
H426 C444 0.951 . S
H427 C446 0.951 . S
H428 C448 0.950 . S
H429 C449 0.950 . S
H430 C451 0.950 . S
H431 C454 0.950 . S
H432 C455 0.950 . S
H433 C457 0.950 . S
H434 C458 0.950 . S
H435 C459 0.951 . S
H436 C461 0.951 . S
H437 C463 0.950 . S
H438 C464 0.950 . S
H439 C466 0.950 . S
H440 C469 0.950 . S
H441 C470 0.950 . S
H442 C472 0.950 . S
H443 C473 0.950 . S
C444 H426 0.951 . S
C444 C445 1.366 . S
C444 C446 1.388 . S
C445 C444 1.366 . S
C445 C449 1.385 . S
C446 H427 0.951 . S
C446 C444 1.388 . S
C446 C447 1.366 . S
C447 C446 1.366 . S
C447 C448 1.414 . S
C447 C450 1.499 . S
C448 H428 0.950 . S
C448 C447 1.414 . S
C448 C449 1.374 . S
C449 H429 0.950 . S
C449 C445 1.385 . S
C449 C448 1.374 . S
C450 C447 1.499 . S
C450 C451 1.373 . S
C450 C452 1.389 . S
C451 H430 0.950 . S
C451 C450 1.373 . S
C451 C467 1.377 . S
C452 C450 1.389 . S
C452 C453 1.524 . S
C452 C466 1.377 . S
C453 C452 1.524 . S
C453 C454 1.397 . S
C453 C458 1.363 . S
C454 H431 0.950 . S
C454 C453 1.397 . S
C454 C455 1.334 . S
C455 H432 0.950 . S
C455 C454 1.334 . S
C455 C456 1.287 . S
C456 C455 1.287 . S
C456 C457 1.524 . S
C456 H475 0.913 . S
C457 H433 0.950 . S
C457 C456 1.524 . S
C457 C458 1.415 . S
C458 H434 0.950 . S
C458 C453 1.363 . S
C458 C457 1.415 . S
C459 H435 0.951 . S
C459 C460 1.366 . S
C459 C461 1.388 . S
C460 C459 1.366 . S
C460 C464 1.385 . S
C461 H436 0.951 . S
C461 C459 1.388 . S
C461 C462 1.366 . S
C462 C461 1.366 . S
C462 C463 1.414 . S
C462 C465 1.499 . S
C463 H437 0.950 . S
C463 C462 1.414 . S
C463 C464 1.374 . S
C464 H438 0.950 . S
C464 C460 1.385 . S
C464 C463 1.374 . S
C465 C462 1.499 . S
C465 C466 1.373 . S
C465 C467 1.389 . S
C466 H439 0.950 . S
C466 C452 1.377 . S
C466 C465 1.373 . S
C467 C451 1.377 . S
C467 C465 1.389 . S
C467 C468 1.524 . S
C468 C467 1.524 . S
C468 C469 1.397 . S
C468 C473 1.363 . S
C469 H440 0.950 . S
C469 C468 1.397 . S
C469 C470 1.334 . S
C470 H441 0.950 . S
C470 C469 1.334 . S
C470 C471 1.287 . S
C471 C470 1.287 . S
C471 C472 1.524 . S
C471 H474 0.999 . S
C472 H442 0.950 . S
C472 C471 1.524 . S
C472 C473 1.415 . S
C473 H443 0.950 . S
C473 C468 1.363 . S
C473 C472 1.415 . S
H474 C471 0.999 . S
H475 C456 0.913 . S
H476 C494 0.951 . S
H477 C496 0.951 . S
H478 C498 0.950 . S
H479 C499 0.950 . S
H480 C501 0.950 . S
H481 C504 0.950 . S
H482 C505 0.950 . S
H483 C507 0.950 . S
H484 C508 0.950 . S
H485 C509 0.951 . S
H486 C511 0.951 . S
H487 C513 0.950 . S
H488 C514 0.950 . S
H489 C516 0.950 . S
H490 C519 0.950 . S
H491 C520 0.950 . S
H492 C522 0.950 . S
H493 C523 0.950 . S
C494 H476 0.951 . S
C494 C495 1.366 . S
C494 C496 1.388 . S
C495 C494 1.366 . S
C495 C499 1.385 . S
C496 H477 0.951 . S
C496 C494 1.388 . S
C496 C497 1.366 . S
C497 C496 1.366 . S
C497 C498 1.414 . S
C497 C500 1.499 . S
C498 H478 0.950 . S
C498 C497 1.414 . S
C498 C499 1.374 . S
C499 H479 0.950 . S
C499 C495 1.385 . S
C499 C498 1.374 . S
C500 C497 1.499 . S
C500 C501 1.373 . S
C500 C502 1.389 . S
C501 H480 0.950 . S
C501 C500 1.373 . S
C501 C517 1.377 . S
C502 C500 1.389 . S
C502 C503 1.524 . S
C502 C516 1.377 . S
C503 C502 1.524 . S
C503 C504 1.397 . S
C503 C508 1.363 . S
C504 H481 0.950 . S
C504 C503 1.397 . S
C504 C505 1.334 . S
C505 H482 0.950 . S
C505 C504 1.334 . S
C505 C506 1.287 . S
C506 C505 1.287 . S
C506 C507 1.524 . S
C506 H525 0.913 . S
C507 H483 0.950 . S
C507 C506 1.524 . S
C507 C508 1.415 . S
C508 H484 0.950 . S
C508 C503 1.363 . S
C508 C507 1.415 . S
C509 H485 0.951 . S
C509 C510 1.366 . S
C509 C511 1.388 . S
C510 C509 1.366 . S
C510 C514 1.385 . S
C511 H486 0.951 . S
C511 C509 1.388 . S
C511 C512 1.366 . S
C512 C511 1.366 . S
C512 C513 1.414 . S
C512 C515 1.499 . S
C513 H487 0.950 . S
C513 C512 1.414 . S
C513 C514 1.374 . S
C514 H488 0.950 . S
C514 C510 1.385 . S
C514 C513 1.374 . S
C515 C512 1.499 . S
C515 C516 1.373 . S
C515 C517 1.389 . S
C516 H489 0.950 . S
C516 C502 1.377 . S
C516 C515 1.373 . S
C517 C501 1.377 . S
C517 C515 1.389 . S
C517 C518 1.524 . S
C518 C517 1.524 . S
C518 C519 1.397 . S
C518 C523 1.363 . S
C519 H490 0.950 . S
C519 C518 1.397 . S
C519 C520 1.334 . S
C520 H491 0.950 . S
C520 C519 1.334 . S
C520 C521 1.287 . S
C521 C520 1.287 . S
C521 C522 1.524 . S
C521 H524 0.999 . S
C522 H492 0.950 . S
C522 C521 1.524 . S
C522 C523 1.415 . S
C523 H493 0.950 . S
C523 C518 1.363 . S
C523 C522 1.415 . S
H524 C521 0.999 . S
H525 C506 0.913 . S
H526 C544 0.951 . S
H527 C546 0.951 . S
H528 C548 0.950 . S
H529 C549 0.950 . S
H530 C551 0.950 . S
H531 C554 0.950 . S
H532 C555 0.950 . S
H533 C557 0.950 . S
H534 C558 0.950 . S
H535 C559 0.951 . S
H536 C561 0.951 . S
H537 C563 0.950 . S
H538 C564 0.950 . S
H539 C566 0.950 . S
H540 C569 0.950 . S
H541 C570 0.950 . S
H542 C572 0.950 . S
H543 C573 0.950 . S
C544 H526 0.951 . S
C544 C545 1.366 . S
C544 C546 1.388 . S
C545 C544 1.366 . S
C545 C549 1.385 . S
C546 H527 0.951 . S
C546 C544 1.388 . S
C546 C547 1.366 . S
C547 C546 1.366 . S
C547 C548 1.414 . S
C547 C550 1.499 . S
C548 H528 0.950 . S
C548 C547 1.414 . S
C548 C549 1.374 . S
C549 H529 0.950 . S
C549 C545 1.385 . S
C549 C548 1.374 . S
C550 C547 1.499 . S
C550 C551 1.373 . S
C550 C552 1.389 . S
C551 H530 0.950 . S
C551 C550 1.373 . S
C551 C567 1.377 . S
C552 C550 1.389 . S
C552 C553 1.524 . S
C552 C566 1.377 . S
C553 C552 1.524 . S
C553 C554 1.397 . S
C553 C558 1.363 . S
C554 H531 0.950 . S
C554 C553 1.397 . S
C554 C555 1.334 . S
C555 H532 0.950 . S
C555 C554 1.334 . S
C555 C556 1.287 . S
C556 C555 1.287 . S
C556 C557 1.524 . S
C556 H575 0.913 . S
C557 H533 0.950 . S
C557 C556 1.524 . S
C557 C558 1.415 . S
C558 H534 0.950 . S
C558 C553 1.363 . S
C558 C557 1.415 . S
C559 H535 0.951 . S
C559 C560 1.366 . S
C559 C561 1.388 . S
C560 C559 1.366 . S
C560 C564 1.385 . S
C561 H536 0.951 . S
C561 C559 1.388 . S
C561 C562 1.366 . S
C562 C561 1.366 . S
C562 C563 1.414 . S
C562 C565 1.499 . S
C563 H537 0.950 . S
C563 C562 1.414 . S
C563 C564 1.374 . S
C564 H538 0.950 . S
C564 C560 1.385 . S
C564 C563 1.374 . S
C565 C562 1.499 . S
C565 C566 1.373 . S
C565 C567 1.389 . S
C566 H539 0.950 . S
C566 C552 1.377 . S
C566 C565 1.373 . S
C567 C551 1.377 . S
C567 C565 1.389 . S
C567 C568 1.524 . S
C568 C567 1.524 . S
C568 C569 1.397 . S
C568 C573 1.363 . S
C569 H540 0.950 . S
C569 C568 1.397 . S
C569 C570 1.334 . S
C570 H541 0.950 . S
C570 C569 1.334 . S
C570 C571 1.287 . S
C571 C570 1.287 . S
C571 C572 1.524 . S
C571 H574 0.999 . S
C572 H542 0.950 . S
C572 C571 1.524 . S
C572 C573 1.415 . S
C573 H543 0.950 . S
C573 C568 1.363 . S
C573 C572 1.415 . S
H574 C571 0.999 . S
H575 C556 0.913 . S
H576 C594 0.951 . S
H577 C596 0.951 . S
H578 C598 0.950 . S
H579 C599 0.950 . S
H580 C601 0.950 . S
H581 C604 0.950 . S
H582 C605 0.950 . S
H583 C607 0.950 . S
H584 C608 0.950 . S
H585 C609 0.951 . S
H586 C611 0.951 . S
H587 C613 0.950 . S
H588 C614 0.950 . S
H589 C616 0.950 . S
H590 C619 0.950 . S
H591 C620 0.950 . S
H592 C622 0.950 . S
H593 C623 0.950 . S
C594 H576 0.951 . S
C594 C595 1.366 . S
C594 C596 1.388 . S
C595 C594 1.366 . S
C595 C599 1.385 . S
C596 H577 0.951 . S
C596 C594 1.388 . S
C596 C597 1.366 . S
C597 C596 1.366 . S
C597 C598 1.414 . S
C597 C600 1.499 . S
C598 H578 0.950 . S
C598 C597 1.414 . S
C598 C599 1.374 . S
C599 H579 0.950 . S
C599 C595 1.385 . S
C599 C598 1.374 . S
C600 C597 1.499 . S
C600 C601 1.373 . S
C600 C602 1.389 . S
C601 H580 0.950 . S
C601 C600 1.373 . S
C601 C617 1.377 . S
C602 C600 1.389 . S
C602 C603 1.524 . S
C602 C616 1.377 . S
C603 C602 1.524 . S
C603 C604 1.397 . S
C603 C608 1.363 . S
C604 H581 0.950 . S
C604 C603 1.397 . S
C604 C605 1.334 . S
C605 H582 0.950 . S
C605 C604 1.334 . S
C605 C606 1.287 . S
C606 C605 1.287 . S
C606 C607 1.524 . S
C606 H625 0.913 . S
C607 H583 0.950 . S
C607 C606 1.524 . S
C607 C608 1.415 . S
C608 H584 0.950 . S
C608 C603 1.363 . S
C608 C607 1.415 . S
C609 H585 0.951 . S
C609 C610 1.366 . S
C609 C611 1.388 . S
C610 C609 1.366 . S
C610 C614 1.385 . S
C611 H586 0.951 . S
C611 C609 1.388 . S
C611 C612 1.366 . S
C612 C611 1.366 . S
C612 C613 1.414 . S
C612 C615 1.499 . S
C613 H587 0.950 . S
C613 C612 1.414 . S
C613 C614 1.374 . S
C614 H588 0.950 . S
C614 C610 1.385 . S
C614 C613 1.374 . S
C615 C612 1.499 . S
C615 C616 1.373 . S
C615 C617 1.389 . S
C616 H589 0.950 . S
C616 C602 1.377 . S
C616 C615 1.373 . S
C617 C601 1.377 . S
C617 C615 1.389 . S
C617 C618 1.524 . S
C618 C617 1.524 . S
C618 C619 1.397 . S
C618 C623 1.363 . S
C619 H590 0.950 . S
C619 C618 1.397 . S
C619 C620 1.334 . S
C620 H591 0.950 . S
C620 C619 1.334 . S
C620 C621 1.287 . S
C621 C620 1.287 . S
C621 C622 1.524 . S
C621 H624 0.999 . S
C622 H592 0.950 . S
C622 C621 1.524 . S
C622 C623 1.415 . S
C623 H593 0.950 . S
C623 C618 1.363 . S
C623 C622 1.415 . S
H624 C621 0.999 . S
H625 C606 0.913 . S
H626 C644 0.951 . S
H627 C646 0.951 . S
H628 C648 0.950 . S
H629 C649 0.950 . S
H630 C651 0.950 . S
H631 C654 0.950 . S
H632 C655 0.950 . S
H633 C657 0.950 . S
H634 C658 0.950 . S
H635 C659 0.951 . S
H636 C661 0.951 . S
H637 C663 0.950 . S
H638 C664 0.950 . S
H639 C666 0.950 . S
H640 C669 0.950 . S
H641 C670 0.950 . S
H642 C672 0.950 . S
H643 C673 0.950 . S
C644 H626 0.951 . S
C644 C645 1.366 . S
C644 C646 1.388 . S
C645 C644 1.366 . S
C645 C649 1.385 . S
C646 H627 0.951 . S
C646 C644 1.388 . S
C646 C647 1.366 . S
C647 C646 1.366 . S
C647 C648 1.414 . S
C647 C650 1.499 . S
C648 H628 0.950 . S
C648 C647 1.414 . S
C648 C649 1.374 . S
C649 H629 0.950 . S
C649 C645 1.385 . S
C649 C648 1.374 . S
C650 C647 1.499 . S
C650 C651 1.373 . S
C650 C652 1.389 . S
C651 H630 0.950 . S
C651 C650 1.373 . S
C651 C667 1.377 . S
C652 C650 1.389 . S
C652 C653 1.524 . S
C652 C666 1.377 . S
C653 C652 1.524 . S
C653 C654 1.397 . S
C653 C658 1.363 . S
C654 H631 0.950 . S
C654 C653 1.397 . S
C654 C655 1.334 . S
C655 H632 0.950 . S
C655 C654 1.334 . S
C655 C656 1.287 . S
C656 C655 1.287 . S
C656 C657 1.524 . S
C656 H675 0.913 . S
C657 H633 0.950 . S
C657 C656 1.524 . S
C657 C658 1.415 . S
C658 H634 0.950 . S
C658 C653 1.363 . S
C658 C657 1.415 . S
C659 H635 0.951 . S
C659 C660 1.366 . S
C659 C661 1.388 . S
C660 C659 1.366 . S
C660 C664 1.385 . S
C661 H636 0.951 . S
C661 C659 1.388 . S
C661 C662 1.366 . S
C662 C661 1.366 . S
C662 C663 1.414 . S
C662 C665 1.499 . S
C663 H637 0.950 . S
C663 C662 1.414 . S
C663 C664 1.374 . S
C664 H638 0.950 . S
C664 C660 1.385 . S
C664 C663 1.374 . S
C665 C662 1.499 . S
C665 C666 1.373 . S
C665 C667 1.389 . S
C666 H639 0.950 . S
C666 C652 1.377 . S
C666 C665 1.373 . S
C667 C651 1.377 . S
C667 C665 1.389 . S
C667 C668 1.524 . S
C668 C667 1.524 . S
C668 C669 1.397 . S
C668 C673 1.363 . S
C669 H640 0.950 . S
C669 C668 1.397 . S
C669 C670 1.334 . S
C670 H641 0.950 . S
C670 C669 1.334 . S
C670 C671 1.287 . S
C671 C670 1.287 . S
C671 C672 1.524 . S
C671 H674 0.999 . S
C672 H642 0.950 . S
C672 C671 1.524 . S
C672 C673 1.415 . S
C673 H643 0.950 . S
C673 C668 1.363 . S
C673 C672 1.415 . S
H674 C671 0.999 . S
H675 C656 0.913 . S
H676 C694 0.951 . S
H677 C696 0.951 . S
H678 C698 0.950 . S
H679 C699 0.950 . S
H680 C701 0.950 . S
H681 C704 0.950 . S
H682 C705 0.950 . S
H683 C707 0.950 . S
H684 C708 0.950 . S
H685 C709 0.951 . S
H686 C711 0.951 . S
H687 C713 0.950 . S
H688 C714 0.950 . S
H689 C716 0.950 . S
H690 C719 0.950 . S
H691 C720 0.950 . S
H692 C722 0.950 . S
H693 C723 0.950 . S
C694 H676 0.951 . S
C694 C695 1.366 . S
C694 C696 1.388 . S
C695 C694 1.366 . S
C695 C699 1.385 . S
C696 H677 0.951 . S
C696 C694 1.388 . S
C696 C697 1.366 . S
C697 C696 1.366 . S
C697 C698 1.414 . S
C697 C700 1.499 . S
C698 H678 0.950 . S
C698 C697 1.414 . S
C698 C699 1.374 . S
C699 H679 0.950 . S
C699 C695 1.385 . S
C699 C698 1.374 . S
C700 C697 1.499 . S
C700 C701 1.373 . S
C700 C702 1.389 . S
C701 H680 0.950 . S
C701 C700 1.373 . S
C701 C717 1.377 . S
C702 C700 1.389 . S
C702 C703 1.524 . S
C702 C716 1.377 . S
C703 C702 1.524 . S
C703 C704 1.397 . S
C703 C708 1.363 . S
C704 H681 0.950 . S
C704 C703 1.397 . S
C704 C705 1.334 . S
C705 H682 0.950 . S
C705 C704 1.334 . S
C705 C706 1.287 . S
C706 C705 1.287 . S
C706 C707 1.524 . S
C706 H725 0.913 . S
C707 H683 0.950 . S
C707 C706 1.524 . S
C707 C708 1.415 . S
C708 H684 0.950 . S
C708 C703 1.363 . S
C708 C707 1.415 . S
C709 H685 0.951 . S
C709 C710 1.366 . S
C709 C711 1.388 . S
C710 C709 1.366 . S
C710 C714 1.385 . S
C711 H686 0.951 . S
C711 C709 1.388 . S
C711 C712 1.366 . S
C712 C711 1.366 . S
C712 C713 1.414 . S
C712 C715 1.499 . S
C713 H687 0.950 . S
C713 C712 1.414 . S
C713 C714 1.374 . S
C714 H688 0.950 . S
C714 C710 1.385 . S
C714 C713 1.374 . S
C715 C712 1.499 . S
C715 C716 1.373 . S
C715 C717 1.389 . S
C716 H689 0.950 . S
C716 C702 1.377 . S
C716 C715 1.373 . S
C717 C701 1.377 . S
C717 C715 1.389 . S
C717 C718 1.524 . S
C718 C717 1.524 . S
C718 C719 1.397 . S
C718 C723 1.363 . S
C719 H690 0.950 . S
C719 C718 1.397 . S
C719 C720 1.334 . S
C720 H691 0.950 . S
C720 C719 1.334 . S
C720 C721 1.287 . S
C721 C720 1.287 . S
C721 C722 1.524 . S
C721 H724 0.999 . S
C722 H692 0.950 . S
C722 C721 1.524 . S
C722 C723 1.415 . S
C723 H693 0.950 . S
C723 C718 1.363 . S
C723 C722 1.415 . S
H724 C721 0.999 . S
H725 C706 0.913 . S
H726 C744 0.951 . S
H727 C746 0.951 . S
H728 C748 0.950 . S
H729 C749 0.950 . S
H730 C751 0.950 . S
H731 C754 0.950 . S
H732 C755 0.950 . S
H733 C757 0.950 . S
H734 C758 0.950 . S
H735 C759 0.951 . S
H736 C761 0.951 . S
H737 C763 0.950 . S
H738 C764 0.950 . S
H739 C766 0.950 . S
H740 C769 0.950 . S
H741 C770 0.950 . S
H742 C772 0.950 . S
H743 C773 0.950 . S
C744 H726 0.951 . S
C744 C745 1.366 . S
C744 C746 1.388 . S
C745 C744 1.366 . S
C745 C749 1.385 . S
C746 H727 0.951 . S
C746 C744 1.388 . S
C746 C747 1.366 . S
C747 C746 1.366 . S
C747 C748 1.414 . S
C747 C750 1.499 . S
C748 H728 0.950 . S
C748 C747 1.414 . S
C748 C749 1.374 . S
C749 H729 0.950 . S
C749 C745 1.385 . S
C749 C748 1.374 . S
C750 C747 1.499 . S
C750 C751 1.373 . S
C750 C752 1.389 . S
C751 H730 0.950 . S
C751 C750 1.373 . S
C751 C767 1.377 . S
C752 C750 1.389 . S
C752 C753 1.524 . S
C752 C766 1.377 . S
C753 C752 1.524 . S
C753 C754 1.397 . S
C753 C758 1.363 . S
C754 H731 0.950 . S
C754 C753 1.397 . S
C754 C755 1.334 . S
C755 H732 0.950 . S
C755 C754 1.334 . S
C755 C756 1.287 . S
C756 C755 1.287 . S
C756 C757 1.524 . S
C756 H775 0.913 . S
C757 H733 0.950 . S
C757 C756 1.524 . S
C757 C758 1.415 . S
C758 H734 0.950 . S
C758 C753 1.363 . S
C758 C757 1.415 . S
C759 H735 0.951 . S
C759 C760 1.366 . S
C759 C761 1.388 . S
C760 C759 1.366 . S
C760 C764 1.385 . S
C761 H736 0.951 . S
C761 C759 1.388 . S
C761 C762 1.366 . S
C762 C761 1.366 . S
C762 C763 1.414 . S
C762 C765 1.499 . S
C763 H737 0.950 . S
C763 C762 1.414 . S
C763 C764 1.374 . S
C764 H738 0.950 . S
C764 C760 1.385 . S
C764 C763 1.374 . S
C765 C762 1.499 . S
C765 C766 1.373 . S
C765 C767 1.389 . S
C766 H739 0.950 . S
C766 C752 1.377 . S
C766 C765 1.373 . S
C767 C751 1.377 . S
C767 C765 1.389 . S
C767 C768 1.524 . S
C768 C767 1.524 . S
C768 C769 1.397 . S
C768 C773 1.363 . S
C769 H740 0.950 . S
C769 C768 1.397 . S
C769 C770 1.334 . S
C770 H741 0.950 . S
C770 C769 1.334 . S
C770 C771 1.287 . S
C771 C770 1.287 . S
C771 C772 1.524 . S
C771 H774 0.999 . S
C772 H742 0.950 . S
C772 C771 1.524 . S
C772 C773 1.415 . S
C773 H743 0.950 . S
C773 C768 1.363 . S
C773 C772 1.415 . S
H774 C771 0.999 . S
H775 C756 0.913 . S
H776 C794 0.951 . S
H777 C796 0.951 . S
H778 C798 0.950 . S
H779 C799 0.950 . S
H780 C801 0.950 . S
H781 C804 0.950 . S
H782 C805 0.950 . S
H783 C807 0.950 . S
H784 C808 0.950 . S
H785 C809 0.951 . S
H786 C811 0.951 . S
H787 C813 0.950 . S
H788 C814 0.950 . S
H789 C816 0.950 . S
H790 C819 0.950 . S
H791 C820 0.950 . S
H792 C822 0.950 . S
H793 C823 0.950 . S
C794 H776 0.951 . S
C794 C795 1.366 . S
C794 C796 1.388 . S
C795 C794 1.366 . S
C795 C799 1.385 . S
C796 H777 0.951 . S
C796 C794 1.388 . S
C796 C797 1.366 . S
C797 C796 1.366 . S
C797 C798 1.414 . S
C797 C800 1.499 . S
C798 H778 0.950 . S
C798 C797 1.414 . S
C798 C799 1.374 . S
C799 H779 0.950 . S
C799 C795 1.385 . S
C799 C798 1.374 . S
C800 C797 1.499 . S
C800 C801 1.373 . S
C800 C802 1.389 . S
C801 H780 0.950 . S
C801 C800 1.373 . S
C801 C817 1.377 . S
C802 C800 1.389 . S
C802 C803 1.524 . S
C802 C816 1.377 . S
C803 C802 1.524 . S
C803 C804 1.397 . S
C803 C808 1.363 . S
C804 H781 0.950 . S
C804 C803 1.397 . S
C804 C805 1.334 . S
C805 H782 0.950 . S
C805 C804 1.334 . S
C805 C806 1.287 . S
C806 C805 1.287 . S
C806 C807 1.524 . S
C806 H825 0.913 . S
C807 H783 0.950 . S
C807 C806 1.524 . S
C807 C808 1.415 . S
C808 H784 0.950 . S
C808 C803 1.363 . S
C808 C807 1.415 . S
C809 H785 0.951 . S
C809 C810 1.366 . S
C809 C811 1.388 . S
C810 C809 1.366 . S
C810 C814 1.385 . S
C811 H786 0.951 . S
C811 C809 1.388 . S
C811 C812 1.366 . S
C812 C811 1.366 . S
C812 C813 1.414 . S
C812 C815 1.499 . S
C813 H787 0.950 . S
C813 C812 1.414 . S
C813 C814 1.374 . S
C814 H788 0.950 . S
C814 C810 1.385 . S
C814 C813 1.374 . S
C815 C812 1.499 . S
C815 C816 1.373 . S
C815 C817 1.389 . S
C816 H789 0.950 . S
C816 C802 1.377 . S
C816 C815 1.373 . S
C817 C801 1.377 . S
C817 C815 1.389 . S
C817 C818 1.524 . S
C818 C817 1.524 . S
C818 C819 1.397 . S
C818 C823 1.363 . S
C819 H790 0.950 . S
C819 C818 1.397 . S
C819 C820 1.334 . S
C820 H791 0.950 . S
C820 C819 1.334 . S
C820 C821 1.287 . S
C821 C820 1.287 . S
C821 C822 1.524 . S
C821 H824 0.999 . S
C822 H792 0.950 . S
C822 C821 1.524 . S
C822 C823 1.415 . S
C823 H793 0.950 . S
C823 C818 1.363 . S
C823 C822 1.415 . S
H824 C821 0.999 . S
H825 C806 0.913 . S
H826 C844 0.951 . S
H827 C846 0.951 . S
H828 C848 0.950 . S
H829 C849 0.950 . S
H830 C851 0.950 . S
H831 C854 0.950 . S
H832 C855 0.950 . S
H833 C857 0.950 . S
H834 C858 0.950 . S
H835 C859 0.951 . S
H836 C861 0.951 . S
H837 C863 0.950 . S
H838 C864 0.950 . S
H839 C866 0.950 . S
H840 C869 0.950 . S
H841 C870 0.950 . S
H842 C872 0.950 . S
H843 C873 0.950 . S
C844 H826 0.951 . S
C844 C845 1.366 . S
C844 C846 1.388 . S
C845 C844 1.366 . S
C845 C849 1.385 . S
C846 H827 0.951 . S
C846 C844 1.388 . S
C846 C847 1.366 . S
C847 C846 1.366 . S
C847 C848 1.414 . S
C847 C850 1.499 . S
C848 H828 0.950 . S
C848 C847 1.414 . S
C848 C849 1.374 . S
C849 H829 0.950 . S
C849 C845 1.385 . S
C849 C848 1.374 . S
C850 C847 1.499 . S
C850 C851 1.373 . S
C850 C852 1.389 . S
C851 H830 0.950 . S
C851 C850 1.373 . S
C851 C867 1.377 . S
C852 C850 1.389 . S
C852 C853 1.524 . S
C852 C866 1.377 . S
C853 C852 1.524 . S
C853 C854 1.397 . S
C853 C858 1.363 . S
C854 H831 0.950 . S
C854 C853 1.397 . S
C854 C855 1.334 . S
C855 H832 0.950 . S
C855 C854 1.334 . S
C855 C856 1.287 . S
C856 C855 1.287 . S
C856 C857 1.524 . S
C856 H875 0.913 . S
C857 H833 0.950 . S
C857 C856 1.524 . S
C857 C858 1.415 . S
C858 H834 0.950 . S
C858 C853 1.363 . S
C858 C857 1.415 . S
C859 H835 0.951 . S
C859 C860 1.366 . S
C859 C861 1.388 . S
C860 C859 1.366 . S
C860 C864 1.385 . S
C861 H836 0.951 . S
C861 C859 1.388 . S
C861 C862 1.366 . S
C862 C861 1.366 . S
C862 C863 1.414 . S
C862 C865 1.499 . S
C863 H837 0.950 . S
C863 C862 1.414 . S
C863 C864 1.374 . S
C864 H838 0.950 . S
C864 C860 1.385 . S
C864 C863 1.374 . S
C865 C862 1.499 . S
C865 C866 1.373 . S
C865 C867 1.389 . S
C866 H839 0.950 . S
C866 C852 1.377 . S
C866 C865 1.373 . S
C867 C851 1.377 . S
C867 C865 1.389 . S
C867 C868 1.524 . S
C868 C867 1.524 . S
C868 C869 1.397 . S
C868 C873 1.363 . S
C869 H840 0.950 . S
C869 C868 1.397 . S
C869 C870 1.334 . S
C870 H841 0.950 . S
C870 C869 1.334 . S
C870 C871 1.287 . S
C871 C870 1.287 . S
C871 C872 1.524 . S
C871 H874 0.999 . S
C872 H842 0.950 . S
C872 C871 1.524 . S
C872 C873 1.415 . S
C873 H843 0.950 . S
C873 C868 1.363 . S
C873 C872 1.415 . S
H874 C871 0.999 . S
H875 C856 0.913 . S
H876 C894 0.951 . S
H877 C896 0.951 . S
H878 C898 0.950 . S
H879 C899 0.950 . S
H880 C901 0.950 . S
H881 C904 0.950 . S
H882 C905 0.950 . S
H883 C907 0.950 . S
H884 C908 0.950 . S
H885 C909 0.951 . S
H886 C911 0.951 . S
H887 C913 0.950 . S
H888 C914 0.950 . S
H889 C916 0.950 . S
H890 C919 0.950 . S
H891 C920 0.950 . S
H892 C922 0.950 . S
H893 C923 0.950 . S
C894 H876 0.951 . S
C894 C895 1.366 . S
C894 C896 1.388 . S
C895 C894 1.366 . S
C895 C899 1.385 . S
C896 H877 0.951 . S
C896 C894 1.388 . S
C896 C897 1.366 . S
C897 C896 1.366 . S
C897 C898 1.414 . S
C897 C900 1.499 . S
C898 H878 0.950 . S
C898 C897 1.414 . S
C898 C899 1.374 . S
C899 H879 0.950 . S
C899 C895 1.385 . S
C899 C898 1.374 . S
C900 C897 1.499 . S
C900 C901 1.373 . S
C900 C902 1.389 . S
C901 H880 0.950 . S
C901 C900 1.373 . S
C901 C917 1.377 . S
C902 C900 1.389 . S
C902 C903 1.524 . S
C902 C916 1.377 . S
C903 C902 1.524 . S
C903 C904 1.397 . S
C903 C908 1.363 . S
C904 H881 0.950 . S
C904 C903 1.397 . S
C904 C905 1.334 . S
C905 H882 0.950 . S
C905 C904 1.334 . S
C905 C906 1.287 . S
C906 C905 1.287 . S
C906 C907 1.524 . S
C906 H925 0.913 . S
C907 H883 0.950 . S
C907 C906 1.524 . S
C907 C908 1.415 . S
C908 H884 0.950 . S
C908 C903 1.363 . S
C908 C907 1.415 . S
C909 H885 0.951 . S
C909 C910 1.366 . S
C909 C911 1.388 . S
C910 C909 1.366 . S
C910 C914 1.385 . S
C911 H886 0.951 . S
C911 C909 1.388 . S
C911 C912 1.366 . S
C912 C911 1.366 . S
C912 C913 1.414 . S
C912 C915 1.499 . S
C913 H887 0.950 . S
C913 C912 1.414 . S
C913 C914 1.374 . S
C914 H888 0.950 . S
C914 C910 1.385 . S
C914 C913 1.374 . S
C915 C912 1.499 . S
C915 C916 1.373 . S
C915 C917 1.389 . S
C916 H889 0.950 . S
C916 C902 1.377 . S
C916 C915 1.373 . S
C917 C901 1.377 . S
C917 C915 1.389 . S
C917 C918 1.524 . S
C918 C917 1.524 . S
C918 C919 1.397 . S
C918 C923 1.363 . S
C919 H890 0.950 . S
C919 C918 1.397 . S
C919 C920 1.334 . S
C920 H891 0.950 . S
C920 C919 1.334 . S
C920 C921 1.287 . S
C921 C920 1.287 . S
C921 C922 1.524 . S
C921 H924 0.999 . S
C922 H892 0.950 . S
C922 C921 1.524 . S
C922 C923 1.415 . S
C923 H893 0.950 . S
C923 C918 1.363 . S
C923 C922 1.415 . S
H924 C921 0.999 . S
H925 C906 0.913 . S
H926 C944 0.951 . S
H927 C946 0.951 . S
H928 C948 0.950 . S
H929 C949 0.950 . S
H930 C951 0.950 . S
H931 C954 0.950 . S
H932 C955 0.950 . S
H933 C957 0.950 . S
H934 C958 0.950 . S
H935 C959 0.951 . S
H936 C961 0.951 . S
H937 C963 0.950 . S
H938 C964 0.950 . S
H939 C966 0.950 . S
H940 C969 0.950 . S
H941 C970 0.950 . S
H942 C972 0.950 . S
H943 C973 0.950 . S
C944 H926 0.951 . S
C944 C945 1.366 . S
C944 C946 1.388 . S
C945 C944 1.366 . S
C945 C949 1.385 . S
C946 H927 0.951 . S
C946 C944 1.388 . S
C946 C947 1.366 . S
C947 C946 1.366 . S
C947 C948 1.414 . S
C947 C950 1.499 . S
C948 H928 0.950 . S
C948 C947 1.414 . S
C948 C949 1.374 . S
C949 H929 0.950 . S
C949 C945 1.385 . S
C949 C948 1.374 . S
C950 C947 1.499 . S
C950 C951 1.373 . S
C950 C952 1.389 . S
C951 H930 0.950 . S
C951 C950 1.373 . S
C951 C967 1.377 . S
C952 C950 1.389 . S
C952 C953 1.524 . S
C952 C966 1.377 . S
C953 C952 1.524 . S
C953 C954 1.397 . S
C953 C958 1.363 . S
C954 H931 0.950 . S
C954 C953 1.397 . S
C954 C955 1.334 . S
C955 H932 0.950 . S
C955 C954 1.334 . S
C955 C956 1.287 . S
C956 C955 1.287 . S
C956 C957 1.524 . S
C956 H975 0.913 . S
C957 H933 0.950 . S
C957 C956 1.524 . S
C957 C958 1.415 . S
C958 H934 0.950 . S
C958 C953 1.363 . S
C958 C957 1.415 . S
C959 H935 0.951 . S
C959 C960 1.366 . S
C959 C961 1.388 . S
C960 C959 1.366 . S
C960 C964 1.385 . S
C961 H936 0.951 . S
C961 C959 1.388 . S
C961 C962 1.366 . S
C962 C961 1.366 . S
C962 C963 1.414 . S
C962 C965 1.499 . S
C963 H937 0.950 . S
C963 C962 1.414 . S
C963 C964 1.374 . S
C964 H938 0.950 . S
C964 C960 1.385 . S
C964 C963 1.374 . S
C965 C962 1.499 . S
C965 C966 1.373 . S
C965 C967 1.389 . S
C966 H939 0.950 . S
C966 C952 1.377 . S
C966 C965 1.373 . S
C967 C951 1.377 . S
C967 C965 1.389 . S
C967 C968 1.524 . S
C968 C967 1.524 . S
C968 C969 1.397 . S
C968 C973 1.363 . S
C969 H940 0.950 . S
C969 C968 1.397 . S
C969 C970 1.334 . S
C970 H941 0.950 . S
C970 C969 1.334 . S
C970 C971 1.287 . S
C971 C970 1.287 . S
C971 C972 1.524 . S
C971 H974 0.999 . S
C972 H942 0.950 . S
C972 C971 1.524 . S
C972 C973 1.415 . S
C973 H943 0.950 . S
C973 C968 1.363 . S
C973 C972 1.415 . S
H974 C971 0.999 . S
H975 C956 0.913 . S
H976 C994 0.951 . S
H977 C996 0.951 . S
H978 C998 0.950 . S
H979 C999 0.950 . S
H980 C1001 0.950 . S
H981 C1004 0.950 . S
H982 C1005 0.950 . S
H983 C1007 0.950 . S
H984 C1008 0.950 . S
H985 C1009 0.951 . S
H986 C1011 0.951 . S
H987 C1013 0.950 . S
H988 C1014 0.950 . S
H989 C1016 0.950 . S
H990 C1019 0.950 . S
H991 C1020 0.950 . S
H992 C1022 0.950 . S
H993 C1023 0.950 . S
C994 H976 0.951 . S
C994 C995 1.366 . S
C994 C996 1.388 . S
C995 C994 1.366 . S
C995 C999 1.385 1_554 S
C996 H977 0.951 . S
C996 C994 1.388 . S
C996 C997 1.366 . S
C997 C996 1.366 . S
C997 C998 1.414 1_554 S
C997 C1000 1.499 . S
C998 H978 0.950 . S
C998 C997 1.414 1_556 S
C998 C999 1.374 . S
C999 H979 0.950 . S
C999 C995 1.385 1_556 S
C999 C998 1.374 . S
C1000 C997 1.499 . S
C1000 C1001 1.373 1_554 S
C1000 C1002 1.389 . S
C1001 H980 0.950 . S
C1001 C1000 1.373 1_556 S
C1001 C1017 1.377 . S
C1002 C1000 1.389 . S
C1002 C1003 1.524 . S
C1002 C1016 1.377 . S
C1003 C1002 1.524 . S
C1003 C1004 1.397 . S
C1003 C1008 1.363 . S
C1004 H981 0.950 . S
C1004 C1003 1.397 . S
C1004 C1005 1.334 . S
C1005 H982 0.950 . S
C1005 C1004 1.334 . S
C1005 C1006 1.287 . S
C1006 C1005 1.287 . S
C1006 C1007 1.524 . S
C1006 H1025 0.913 . S
C1007 H983 0.950 . S
C1007 C1006 1.524 . S
C1007 C1008 1.415 . S
C1008 H984 0.950 . S
C1008 C1003 1.363 . S
C1008 C1007 1.415 . S
C1009 H985 0.951 . S
C1009 C1010 1.366 1_556 S
C1009 C1011 1.388 . S
C1010 C1009 1.366 1_554 S
C1010 C1014 1.385 . S
C1011 H986 0.951 . S
C1011 C1009 1.388 . S
C1011 C1012 1.366 1_556 S
C1012 C1011 1.366 1_554 S
C1012 C1013 1.414 . S
C1012 C1015 1.499 . S
C1013 H987 0.950 . S
C1013 C1012 1.414 . S
C1013 C1014 1.374 . S
C1014 H988 0.950 . S
C1014 C1010 1.385 . S
C1014 C1013 1.374 . S
C1015 C1012 1.499 . S
C1015 C1016 1.373 . S
C1015 C1017 1.389 1_554 S
C1016 H989 0.950 . S
C1016 C1002 1.377 . S
C1016 C1015 1.373 . S
C1017 C1001 1.377 . S
C1017 C1015 1.389 1_556 S
C1017 C1018 1.524 . S
C1018 C1017 1.524 . S
C1018 C1019 1.397 . S
C1018 C1023 1.363 . S
C1019 H990 0.950 . S
C1019 C1018 1.397 . S
C1019 C1020 1.334 . S
C1020 H991 0.950 . S
C1020 C1019 1.334 . S
C1020 C1021 1.287 . S
C1021 C1020 1.287 . S
C1021 C1022 1.524 . S
C1021 H1024 0.999 . S
C1022 H992 0.950 . S
C1022 C1021 1.524 . S
C1022 C1023 1.415 . S
C1023 H993 0.950 . S
C1023 C1018 1.363 . S
C1023 C1022 1.415 . S
H1024 C1021 0.999 . S
H1025 C1006 0.913 . S
H1026 C1044 0.951 . S
H1027 C1046 0.951 . S
H1028 C1048 0.950 . S
H1029 C1049 0.950 . S
H1030 C1051 0.950 . S
H1031 C1054 0.950 . S
H1032 C1055 0.950 . S
H1033 C1057 0.950 . S
H1034 C1058 0.950 . S
H1035 C1059 0.951 . S
H1036 C1061 0.951 . S
H1037 C1063 0.950 . S
H1038 C1064 0.950 . S
H1039 C1066 0.950 . S
H1040 C1069 0.950 . S
H1041 C1070 0.950 . S
H1042 C1072 0.950 . S
H1043 C1073 0.950 . S
C1044 H1026 0.951 . S
C1044 C1045 1.366 . S
C1044 C1046 1.388 . S
C1045 C1044 1.366 . S
C1045 C1049 1.385 . S
C1046 H1027 0.951 . S
C1046 C1044 1.388 . S
C1046 C1047 1.366 . S
C1047 C1046 1.366 . S
C1047 C1048 1.414 . S
C1047 C1050 1.499 . S
C1048 H1028 0.950 . S
C1048 C1047 1.414 . S
C1048 C1049 1.374 . S
C1049 H1029 0.950 . S
C1049 C1045 1.385 . S
C1049 C1048 1.374 . S
C1050 C1047 1.499 . S
C1050 C1051 1.373 . S
C1050 C1052 1.389 . S
C1051 H1030 0.950 . S
C1051 C1050 1.373 . S
C1051 C1067 1.377 . S
C1052 C1050 1.389 . S
C1052 C1053 1.524 . S
C1052 C1066 1.377 . S
C1053 C1052 1.524 . S
C1053 C1054 1.397 . S
C1053 C1058 1.363 . S
C1054 H1031 0.950 . S
C1054 C1053 1.397 . S
C1054 C1055 1.334 . S
C1055 H1032 0.950 . S
C1055 C1054 1.334 . S
C1055 C1056 1.287 . S
C1056 C1055 1.287 . S
C1056 C1057 1.524 . S
C1056 H1075 0.913 . S
C1057 H1033 0.950 . S
C1057 C1056 1.524 . S
C1057 C1058 1.415 . S
C1058 H1034 0.950 . S
C1058 C1053 1.363 . S
C1058 C1057 1.415 . S
C1059 H1035 0.951 . S
C1059 C1060 1.366 . S
C1059 C1061 1.388 . S
C1060 C1059 1.366 . S
C1060 C1064 1.385 . S
C1061 H1036 0.951 . S
C1061 C1059 1.388 . S
C1061 C1062 1.366 . S
C1062 C1061 1.366 . S
C1062 C1063 1.414 . S
C1062 C1065 1.499 . S
C1063 H1037 0.950 . S
C1063 C1062 1.414 . S
C1063 C1064 1.374 . S
C1064 H1038 0.950 . S
C1064 C1060 1.385 . S
C1064 C1063 1.374 . S
C1065 C1062 1.499 . S
C1065 C1066 1.373 . S
C1065 C1067 1.389 . S
C1066 H1039 0.950 . S
C1066 C1052 1.377 . S
C1066 C1065 1.373 . S
C1067 C1051 1.377 . S
C1067 C1065 1.389 . S
C1067 C1068 1.524 . S
C1068 C1067 1.524 . S
C1068 C1069 1.397 . S
C1068 C1073 1.363 . S
C1069 H1040 0.950 . S
C1069 C1068 1.397 . S
C1069 C1070 1.334 . S
C1070 H1041 0.950 . S
C1070 C1069 1.334 . S
C1070 C1071 1.287 . S
C1071 C1070 1.287 . S
C1071 C1072 1.524 . S
C1071 H1074 0.999 . S
C1072 H1042 0.950 . S
C1072 C1071 1.524 . S
C1072 C1073 1.415 . S
C1073 H1043 0.950 . S
C1073 C1068 1.363 . S
C1073 C1072 1.415 . S
H1074 C1071 0.999 . S
H1075 C1056 0.913 . S
H1076 C1094 0.951 . S
H1077 C1096 0.951 . S
H1078 C1098 0.950 . S
H1079 C1099 0.950 . S
H1080 C1101 0.950 . S
H1081 C1104 0.950 . S
H1082 C1105 0.950 . S
H1083 C1107 0.950 . S
H1084 C1108 0.950 . S
H1085 C1109 0.951 . S
H1086 C1111 0.951 . S
H1087 C1113 0.950 . S
H1088 C1114 0.950 . S
H1089 C1116 0.950 . S
H1090 C1119 0.950 . S
H1091 C1120 0.950 . S
H1092 C1122 0.950 . S
H1093 C1123 0.950 . S
C1094 H1076 0.951 . S
C1094 C1095 1.366 1_556 S
C1094 C1096 1.388 . S
C1095 C1094 1.366 1_554 S
C1095 C1099 1.385 . S
C1096 H1077 0.951 . S
C1096 C1094 1.388 . S
C1096 C1097 1.366 1_556 S
C1097 C1096 1.366 1_554 S
C1097 C1098 1.414 . S
C1097 C1100 1.499 . S
C1098 H1078 0.950 . S
C1098 C1097 1.414 . S
C1098 C1099 1.374 . S
C1099 H1079 0.950 . S
C1099 C1095 1.385 . S
C1099 C1098 1.374 . S
C1100 C1097 1.499 . S
C1100 C1101 1.373 . S
C1100 C1102 1.389 1_554 S
C1101 H1080 0.950 . S
C1101 C1100 1.373 . S
C1101 C1117 1.377 . S
C1102 C1100 1.389 1_556 S
C1102 C1103 1.524 . S
C1102 C1116 1.377 . S
C1103 C1102 1.524 . S
C1103 C1104 1.397 . S
C1103 C1108 1.363 . S
C1104 H1081 0.950 . S
C1104 C1103 1.397 . S
C1104 C1105 1.334 . S
C1105 H1082 0.950 . S
C1105 C1104 1.334 . S
C1105 C1106 1.287 . S
C1106 C1105 1.287 . S
C1106 C1107 1.524 . S
C1106 H1125 0.913 . S
C1107 H1083 0.950 . S
C1107 C1106 1.524 . S
C1107 C1108 1.415 . S
C1108 H1084 0.950 . S
C1108 C1103 1.363 . S
C1108 C1107 1.415 . S
C1109 H1085 0.951 . S
C1109 C1110 1.366 . S
C1109 C1111 1.388 . S
C1110 C1109 1.366 . S
C1110 C1114 1.385 1_554 S
C1111 H1086 0.951 . S
C1111 C1109 1.388 . S
C1111 C1112 1.366 . S
C1112 C1111 1.366 . S
C1112 C1113 1.414 1_554 S
C1112 C1115 1.499 . S
C1113 H1087 0.950 . S
C1113 C1112 1.414 1_556 S
C1113 C1114 1.374 . S
C1114 H1088 0.950 . S
C1114 C1110 1.385 1_556 S
C1114 C1113 1.374 . S
C1115 C1112 1.499 . S
C1115 C1116 1.373 1_554 S
C1115 C1117 1.389 . S
C1116 H1089 0.950 . S
C1116 C1102 1.377 . S
C1116 C1115 1.373 1_556 S
C1117 C1101 1.377 . S
C1117 C1115 1.389 . S
C1117 C1118 1.524 . S
C1118 C1117 1.524 . S
C1118 C1119 1.397 . S
C1118 C1123 1.363 . S
C1119 H1090 0.950 . S
C1119 C1118 1.397 . S
C1119 C1120 1.334 . S
C1120 H1091 0.950 . S
C1120 C1119 1.334 . S
C1120 C1121 1.287 . S
C1121 C1120 1.287 . S
C1121 C1122 1.524 . S
C1121 H1124 0.999 . S
C1122 H1092 0.950 . S
C1122 C1121 1.524 . S
C1122 C1123 1.415 . S
C1123 H1093 0.950 . S
C1123 C1118 1.363 . S
C1123 C1122 1.415 . S
H1124 C1121 0.999 . S
H1125 C1106 0.913 . S
H1126 C1144 0.951 . S
H1127 C1146 0.951 . S
H1128 C1148 0.950 . S
H1129 C1149 0.950 . S
H1130 C1151 0.950 . S
H1131 C1154 0.950 . S
H1132 C1155 0.950 . S
H1133 C1157 0.950 . S
H1134 C1158 0.950 . S
H1135 C1159 0.951 . S
H1136 C1161 0.951 . S
H1137 C1163 0.950 . S
H1138 C1164 0.950 . S
H1139 C1166 0.950 . S
H1140 C1169 0.950 . S
H1141 C1170 0.950 . S
H1142 C1172 0.950 . S
H1143 C1173 0.950 . S
C1144 H1126 0.951 . S
C1144 C1145 1.366 . S
C1144 C1146 1.388 . S
C1145 C1144 1.366 . S
C1145 C1149 1.385 . S
C1146 H1127 0.951 . S
C1146 C1144 1.388 . S
C1146 C1147 1.366 . S
C1147 C1146 1.366 . S
C1147 C1148 1.414 . S
C1147 C1150 1.499 . S
C1148 H1128 0.950 . S
C1148 C1147 1.414 . S
C1148 C1149 1.374 . S
C1149 H1129 0.950 . S
C1149 C1145 1.385 . S
C1149 C1148 1.374 . S
C1150 C1147 1.499 . S
C1150 C1151 1.373 . S
C1150 C1152 1.389 . S
C1151 H1130 0.950 . S
C1151 C1150 1.373 . S
C1151 C1167 1.377 . S
C1152 C1150 1.389 . S
C1152 C1153 1.524 . S
C1152 C1166 1.377 . S
C1153 C1152 1.524 . S
C1153 C1154 1.397 . S
C1153 C1158 1.363 . S
C1154 H1131 0.950 . S
C1154 C1153 1.397 . S
C1154 C1155 1.334 . S
C1155 H1132 0.950 . S
C1155 C1154 1.334 . S
C1155 C1156 1.287 . S
C1156 C1155 1.287 . S
C1156 C1157 1.524 . S
C1156 H1175 0.913 . S
C1157 H1133 0.950 . S
C1157 C1156 1.524 . S
C1157 C1158 1.415 . S
C1158 H1134 0.950 . S
C1158 C1153 1.363 . S
C1158 C1157 1.415 . S
C1159 H1135 0.951 . S
C1159 C1160 1.366 . S
C1159 C1161 1.388 . S
C1160 C1159 1.366 . S
C1160 C1164 1.385 . S
C1161 H1136 0.951 . S
C1161 C1159 1.388 . S
C1161 C1162 1.366 . S
C1162 C1161 1.366 . S
C1162 C1163 1.414 . S
C1162 C1165 1.499 . S
C1163 H1137 0.950 . S
C1163 C1162 1.414 . S
C1163 C1164 1.374 . S
C1164 H1138 0.950 . S
C1164 C1160 1.385 . S
C1164 C1163 1.374 . S
C1165 C1162 1.499 . S
C1165 C1166 1.373 . S
C1165 C1167 1.389 . S
C1166 H1139 0.950 . S
C1166 C1152 1.377 . S
C1166 C1165 1.373 . S
C1167 C1151 1.377 . S
C1167 C1165 1.389 . S
C1167 C1168 1.524 . S
C1168 C1167 1.524 . S
C1168 C1169 1.397 . S
C1168 C1173 1.363 . S
C1169 H1140 0.950 . S
C1169 C1168 1.397 . S
C1169 C1170 1.334 . S
C1170 H1141 0.950 . S
C1170 C1169 1.334 . S
C1170 C1171 1.287 . S
C1171 C1170 1.287 . S
C1171 C1172 1.524 . S
C1171 H1174 0.999 . S
C1172 H1142 0.950 . S
C1172 C1171 1.524 . S
C1172 C1173 1.415 . S
C1173 H1143 0.950 . S
C1173 C1168 1.363 . S
C1173 C1172 1.415 . S
H1174 C1171 0.999 . S
H1175 C1156 0.913 . S
H1176 C1194 0.951 . S
H1177 C1196 0.951 . S
H1178 C1198 0.950 . S
H1179 C1199 0.950 . S
H1180 C1201 0.950 . S
H1181 C1204 0.950 . S
H1182 C1205 0.950 . S
H1183 C1207 0.950 . S
H1184 C1208 0.950 . S
H1185 C1209 0.951 . S
H1186 C1211 0.951 . S
H1187 C1213 0.950 . S
H1188 C1214 0.950 . S
H1189 C1216 0.950 . S
H1190 C1219 0.950 . S
H1191 C1220 0.950 . S
H1192 C1222 0.950 . S
H1193 C1223 0.950 . S
C1194 H1176 0.951 . S
C1194 C1195 1.366 . S
C1194 C1196 1.388 . S
C1195 C1194 1.366 . S
C1195 C1199 1.385 . S
C1196 H1177 0.951 . S
C1196 C1194 1.388 . S
C1196 C1197 1.366 . S
C1197 C1196 1.366 . S
C1197 C1198 1.414 . S
C1197 C1200 1.499 . S
C1198 H1178 0.950 . S
C1198 C1197 1.414 . S
C1198 C1199 1.374 . S
C1199 H1179 0.950 . S
C1199 C1195 1.385 . S
C1199 C1198 1.374 . S
C1200 C1197 1.499 . S
C1200 C1201 1.373 . S
C1200 C1202 1.389 . S
C1201 H1180 0.950 . S
C1201 C1200 1.373 . S
C1201 C1217 1.377 . S
C1202 C1200 1.389 . S
C1202 C1203 1.524 . S
C1202 C1216 1.377 . S
C1203 C1202 1.524 . S
C1203 C1204 1.397 . S
C1203 C1208 1.363 . S
C1204 H1181 0.950 . S
C1204 C1203 1.397 . S
C1204 C1205 1.334 . S
C1205 H1182 0.950 . S
C1205 C1204 1.334 . S
C1205 C1206 1.287 . S
C1206 C1205 1.287 . S
C1206 C1207 1.524 . S
C1206 H1225 0.913 . S
C1207 H1183 0.950 . S
C1207 C1206 1.524 . S
C1207 C1208 1.415 . S
C1208 H1184 0.950 . S
C1208 C1203 1.363 . S
C1208 C1207 1.415 . S
C1209 H1185 0.951 . S
C1209 C1210 1.366 . S
C1209 C1211 1.388 . S
C1210 C1209 1.366 . S
C1210 C1214 1.385 . S
C1211 H1186 0.951 . S
C1211 C1209 1.388 . S
C1211 C1212 1.366 . S
C1212 C1211 1.366 . S
C1212 C1213 1.414 . S
C1212 C1215 1.499 . S
C1213 H1187 0.950 . S
C1213 C1212 1.414 . S
C1213 C1214 1.374 . S
C1214 H1188 0.950 . S
C1214 C1210 1.385 . S
C1214 C1213 1.374 . S
C1215 C1212 1.499 . S
C1215 C1216 1.373 . S
C1215 C1217 1.389 . S
C1216 H1189 0.950 . S
C1216 C1202 1.377 . S
C1216 C1215 1.373 . S
C1217 C1201 1.377 . S
C1217 C1215 1.389 . S
C1217 C1218 1.524 . S
C1218 C1217 1.524 . S
C1218 C1219 1.397 . S
C1218 C1223 1.363 . S
C1219 H1190 0.950 . S
C1219 C1218 1.397 . S
C1219 C1220 1.334 . S
C1220 H1191 0.950 . S
C1220 C1219 1.334 . S
C1220 C1221 1.287 . S
C1221 C1220 1.287 . S
C1221 C1222 1.524 . S
C1221 H1224 0.999 . S
C1222 H1192 0.950 . S
C1222 C1221 1.524 . S
C1222 C1223 1.415 . S
C1223 H1193 0.950 . S
C1223 C1218 1.363 . S
C1223 C1222 1.415 . S
H1224 C1221 0.999 . S
H1225 C1206 0.913 . S
H1226 C1244 0.951 . S
H1227 C1246 0.951 . S
H1228 C1248 0.950 . S
H1229 C1249 0.950 . S
H1230 C1251 0.950 . S
H1231 C1254 0.950 . S
H1232 C1255 0.950 . S
H1233 C1257 0.950 . S
H1234 C1258 0.950 . S
H1235 C1259 0.951 . S
H1236 C1261 0.951 . S
H1237 C1263 0.950 . S
H1238 C1264 0.950 . S
H1239 C1266 0.950 . S
H1240 C1269 0.950 . S
H1241 C1270 0.950 . S
H1242 C1272 0.950 . S
H1243 C1273 0.950 1_554 S
C1244 H1226 0.951 . S
C1244 C1245 1.366 1_556 S
C1244 C1246 1.388 . S
C1245 C1244 1.366 1_554 S
C1245 C1249 1.385 . S
C1246 H1227 0.951 . S
C1246 C1244 1.388 . S
C1246 C1247 1.366 1_556 S
C1247 C1246 1.366 1_554 S
C1247 C1248 1.414 . S
C1247 C1250 1.499 . S
C1248 H1228 0.950 . S
C1248 C1247 1.414 . S
C1248 C1249 1.374 . S
C1249 H1229 0.950 . S
C1249 C1245 1.385 . S
C1249 C1248 1.374 . S
C1250 C1247 1.499 . S
C1250 C1251 1.373 1_554 S
C1250 C1252 1.389 . S
C1251 H1230 0.950 . S
C1251 C1250 1.373 1_556 S
C1251 C1267 1.377 . S
C1252 C1250 1.389 . S
C1252 C1253 1.524 . S
C1252 C1266 1.377 . S
C1253 C1252 1.524 . S
C1253 C1254 1.397 . S
C1253 C1258 1.363 . S
C1254 H1231 0.950 . S
C1254 C1253 1.397 . S
C1254 C1255 1.334 . S
C1255 H1232 0.950 . S
C1255 C1254 1.334 . S
C1255 C1256 1.287 . S
C1256 C1255 1.287 . S
C1256 C1257 1.524 . S
C1256 H1275 0.913 . S
C1257 H1233 0.950 . S
C1257 C1256 1.524 . S
C1257 C1258 1.415 . S
C1258 H1234 0.950 . S
C1258 C1253 1.363 . S
C1258 C1257 1.415 . S
C1259 H1235 0.951 . S
C1259 C1260 1.366 . S
C1259 C1261 1.388 . S
C1260 C1259 1.366 . S
C1260 C1264 1.385 1_554 S
C1261 H1236 0.951 . S
C1261 C1259 1.388 . S
C1261 C1262 1.366 . S
C1262 C1261 1.366 . S
C1262 C1263 1.414 1_554 S
C1262 C1265 1.499 . S
C1263 H1237 0.950 . S
C1263 C1262 1.414 1_556 S
C1263 C1264 1.374 . S
C1264 H1238 0.950 . S
C1264 C1260 1.385 1_556 S
C1264 C1263 1.374 . S
C1265 C1262 1.499 . S
C1265 C1266 1.373 . S
C1265 C1267 1.389 1_554 S
C1266 H1239 0.950 . S
C1266 C1252 1.377 . S
C1266 C1265 1.373 . S
C1267 C1251 1.377 . S
C1267 C1265 1.389 1_556 S
C1267 C1268 1.524 . S
C1268 C1267 1.524 . S
C1268 C1269 1.397 . S
C1268 C1273 1.363 . S
C1269 H1240 0.950 . S
C1269 C1268 1.397 . S
C1269 C1270 1.334 . S
C1270 H1241 0.950 . S
C1270 C1269 1.334 . S
C1270 C1271 1.287 . S
C1271 C1270 1.287 . S
C1271 C1272 1.524 . S
C1271 H1274 0.999 . S
C1272 H1242 0.950 . S
C1272 C1271 1.524 . S
C1272 C1273 1.415 . S
C1273 H1243 0.950 1_556 S
C1273 C1268 1.363 . S
C1273 C1272 1.415 . S
H1274 C1271 0.999 . S
H1275 C1256 0.913 . S
H1276 C1294 0.951 . S
H1277 C1296 0.951 . S
H1278 C1298 0.950 . S
H1279 C1299 0.950 . S
H1280 C1301 0.950 . S
H1281 C1304 0.950 . S
H1282 C1305 0.950 . S
H1283 C1307 0.950 . S
H1284 C1308 0.950 . S
H1285 C1309 0.951 . S
H1286 C1311 0.951 . S
H1287 C1313 0.950 . S
H1288 C1314 0.950 . S
H1289 C1316 0.950 . S
H1290 C1319 0.950 . S
H1291 C1320 0.950 . S
H1292 C1322 0.950 . S
H1293 C1323 0.950 . S
C1294 H1276 0.951 . S
C1294 C1295 1.366 . S
C1294 C1296 1.388 . S
C1295 C1294 1.366 . S
C1295 C1299 1.385 . S
C1296 H1277 0.951 . S
C1296 C1294 1.388 . S
C1296 C1297 1.366 . S
C1297 C1296 1.366 . S
C1297 C1298 1.414 . S
C1297 C1300 1.499 . S
C1298 H1278 0.950 . S
C1298 C1297 1.414 . S
C1298 C1299 1.374 . S
C1299 H1279 0.950 . S
C1299 C1295 1.385 . S
C1299 C1298 1.374 . S
C1300 C1297 1.499 . S
C1300 C1301 1.373 . S
C1300 C1302 1.389 . S
C1301 H1280 0.950 . S
C1301 C1300 1.373 . S
C1301 C1317 1.377 . S
C1302 C1300 1.389 . S
C1302 C1303 1.524 . S
C1302 C1316 1.377 . S
C1303 C1302 1.524 . S
C1303 C1304 1.397 . S
C1303 C1308 1.363 . S
C1304 H1281 0.950 . S
C1304 C1303 1.397 . S
C1304 C1305 1.334 . S
C1305 H1282 0.950 . S
C1305 C1304 1.334 . S
C1305 C1306 1.287 . S
C1306 C1305 1.287 . S
C1306 C1307 1.524 . S
C1306 H1325 0.913 . S
C1307 H1283 0.950 . S
C1307 C1306 1.524 . S
C1307 C1308 1.415 . S
C1308 H1284 0.950 . S
C1308 C1303 1.363 . S
C1308 C1307 1.415 . S
C1309 H1285 0.951 . S
C1309 C1310 1.366 . S
C1309 C1311 1.388 . S
C1310 C1309 1.366 . S
C1310 C1314 1.385 . S
C1311 H1286 0.951 . S
C1311 C1309 1.388 . S
C1311 C1312 1.366 . S
C1312 C1311 1.366 . S
C1312 C1313 1.414 . S
C1312 C1315 1.499 . S
C1313 H1287 0.950 . S
C1313 C1312 1.414 . S
C1313 C1314 1.374 . S
C1314 H1288 0.950 . S
C1314 C1310 1.385 . S
C1314 C1313 1.374 . S
C1315 C1312 1.499 . S
C1315 C1316 1.373 . S
C1315 C1317 1.389 . S
C1316 H1289 0.950 . S
C1316 C1302 1.377 . S
C1316 C1315 1.373 . S
C1317 C1301 1.377 . S
C1317 C1315 1.389 . S
C1317 C1318 1.524 . S
C1318 C1317 1.524 . S
C1318 C1319 1.397 . S
C1318 C1323 1.363 . S
C1319 H1290 0.950 . S
C1319 C1318 1.397 . S
C1319 C1320 1.334 . S
C1320 H1291 0.950 . S
C1320 C1319 1.334 . S
C1320 C1321 1.287 . S
C1321 C1320 1.287 . S
C1321 C1322 1.524 . S
C1321 H1324 0.999 . S
C1322 H1292 0.950 . S
C1322 C1321 1.524 . S
C1322 C1323 1.415 . S
C1323 H1293 0.950 . S
C1323 C1318 1.363 . S
C1323 C1322 1.415 . S
H1324 C1321 0.999 . S
H1325 C1306 0.913 . S
H1326 C1344 0.951 . S
H1327 C1346 0.951 . S
H1328 C1348 0.950 . S
H1329 C1349 0.950 . S
H1330 C1351 0.950 . S
H1331 C1354 0.950 . S
H1332 C1355 0.950 . S
H1333 C1357 0.950 . S
H1334 C1358 0.950 . S
H1335 C1359 0.951 . S
H1336 C1361 0.951 . S
H1337 C1363 0.950 . S
H1338 C1364 0.950 . S
H1339 C1366 0.950 . S
H1340 C1369 0.950 . S
H1341 C1370 0.950 . S
H1342 C1372 0.950 . S
H1343 C1373 0.950 . S
C1344 H1326 0.951 . S
C1344 C1345 1.366 . S
C1344 C1346 1.388 . S
C1345 C1344 1.366 . S
C1345 C1349 1.385 . S
C1346 H1327 0.951 . S
C1346 C1344 1.388 . S
C1346 C1347 1.366 . S
C1347 C1346 1.366 . S
C1347 C1348 1.414 . S
C1347 C1350 1.499 . S
C1348 H1328 0.950 . S
C1348 C1347 1.414 . S
C1348 C1349 1.374 . S
C1349 H1329 0.950 . S
C1349 C1345 1.385 . S
C1349 C1348 1.374 . S
C1350 C1347 1.499 . S
C1350 C1351 1.373 1_554 S
C1350 C1352 1.389 . S
C1351 H1330 0.950 . S
C1351 C1350 1.373 1_556 S
C1351 C1367 1.377 . S
C1352 C1350 1.389 . S
C1352 C1353 1.524 . S
C1352 C1366 1.377 . S
C1353 C1352 1.524 . S
C1353 C1354 1.397 . S
C1353 C1358 1.363 . S
C1354 H1331 0.950 . S
C1354 C1353 1.397 . S
C1354 C1355 1.334 . S
C1355 H1332 0.950 . S
C1355 C1354 1.334 . S
C1355 C1356 1.287 . S
C1356 C1355 1.287 . S
C1356 C1357 1.524 . S
C1356 H1375 0.913 . S
C1357 H1333 0.950 . S
C1357 C1356 1.524 . S
C1357 C1358 1.415 . S
C1358 H1334 0.950 . S
C1358 C1353 1.363 . S
C1358 C1357 1.415 . S
C1359 H1335 0.951 . S
C1359 C1360 1.366 . S
C1359 C1361 1.388 . S
C1360 C1359 1.366 . S
C1360 C1364 1.385 . S
C1361 H1336 0.951 . S
C1361 C1359 1.388 . S
C1361 C1362 1.366 . S
C1362 C1361 1.366 . S
C1362 C1363 1.414 . S
C1362 C1365 1.499 . S
C1363 H1337 0.950 . S
C1363 C1362 1.414 . S
C1363 C1364 1.374 . S
C1364 H1338 0.950 . S
C1364 C1360 1.385 . S
C1364 C1363 1.374 . S
C1365 C1362 1.499 . S
C1365 C1366 1.373 . S
C1365 C1367 1.389 1_554 S
C1366 H1339 0.950 . S
C1366 C1352 1.377 . S
C1366 C1365 1.373 . S
C1367 C1351 1.377 . S
C1367 C1365 1.389 1_556 S
C1367 C1368 1.524 . S
C1368 C1367 1.524 . S
C1368 C1369 1.397 . S
C1368 C1373 1.363 . S
C1369 H1340 0.950 . S
C1369 C1368 1.397 . S
C1369 C1370 1.334 . S
C1370 H1341 0.950 . S
C1370 C1369 1.334 . S
C1370 C1371 1.287 . S
C1371 C1370 1.287 . S
C1371 C1372 1.524 . S
C1371 H1374 0.999 . S
C1372 H1342 0.950 . S
C1372 C1371 1.524 . S
C1372 C1373 1.415 . S
C1373 H1343 0.950 . S
C1373 C1368 1.363 . S
C1373 C1372 1.415 . S
H1374 C1371 0.999 . S
H1375 C1356 0.913 . S
C195 C5 1.437 . S
C210 C125 1.449 . S
C245 C31 1.451 . S
C260 C92 1.461 . S
C310 C104 1.461 . S
C295 C53 1.475 . S
C345 C71 1.460 . S
C360 C115 1.449 . S
C410 C148 1.450 . S
C395 C75 1.460 . S
C460 C159 1.461 . S
C445 C9 1.474 . S
C510 C169 1.461 . S
C495 C27 1.452 . S
C560 C136 1.450 . S
C545 C49 1.437 . S
C595 C51 1.437 . S
C610 C103 1.444 . S
C645 C72 1.452 . S
C660 C114 1.456 . S
C695 C6 1.474 . S
C710 C126 1.464 . S
C760 C93 1.453 . S
C745 C29 1.460 . S
C795 C28 1.461 . S
C810 C170 1.452 . S
C860 C137 1.464 . S
C845 C50 1.475 . S
C910 C147 1.456 . S
C895 C73 1.452 . S
C945 C7 1.437 . S
C960 C158 1.444 . S
C1010 C98 1.510 . S
C995 C4 1.501 . S
C1060 C109 1.513 . S
C1045 C30 1.501 . S
C1095 C52 1.501 . S
C1110 C120 1.513 . S
C1145 C70 1.501 . S
C1160 C131 1.510 . S
C1210 C142 1.510 . S
C1195 C74 1.501 . S
C1245 C8 1.501 . S
C1260 C153 1.514 . S
C1295 C26 1.502 . S
C1310 C164 1.514 . S
C1345 C48 1.501 . S
C1360 C175 1.510 . S
