# Generated by pormake.
# Topology sqc, (4,8)-cn, num edge types: 1
# Building blocks:
#     Node 0, Type 0, BuildingBlock: MUDLON_clean_linker_0, # of connection points: 4
#     Node 1, Type 0, BuildingBlock: MUDLON_clean_linker_0, # of connection points: 4
#     Node 2, Type 0, BuildingBlock: MUDLON_clean_linker_0, # of connection points: 4
#     Node 3, Type 0, BuildingBlock: MUDLON_clean_linker_0, # of connection points: 4
#     Node 4, Type 0, BuildingBlock: MUDLON_clean_linker_0, # of connection points: 4
#     Node 5, Type 0, BuildingBlock: MUDLON_clean_linker_0, # of connection points: 4
#     Node 6, Type 0, BuildingBlock: MUDLON_clean_linker_0, # of connection points: 4
#     Node 7, Type 0, BuildingBlock: MUDLON_clean_linker_0, # of connection points: 4
#     Node 8, Type 1, BuildingBlock: TAGTUT_clean_sbu_3, # of connection points: 8
#     Node 9, Type 1, BuildingBlock: TAGTUT_clean_sbu_3, # of connection points: 8
#     Node 10, Type 1, BuildingBlock: TAGTUT_clean_sbu_3, # of connection points: 8
#     Node 11, Type 1, BuildingBlock: TAGTUT_clean_sbu_3, # of connection points: 8
#     Edge 12, Type (0, 1), BuildingBlock: KIFKEQ_clean_linker_1, # of connection points: 2
#     Edge 13, Type (0, 1), BuildingBlock: KIFKEQ_clean_linker_1, # of connection points: 2
#     Edge 14, Type (0, 1), BuildingBlock: KIFKEQ_clean_linker_1, # of connection points: 2
#     Edge 15, Type (0, 1), BuildingBlock: KIFKEQ_clean_linker_1, # of connection points: 2
#     Edge 16, Type (0, 1), BuildingBlock: KIFKEQ_clean_linker_1, # of connection points: 2
#     Edge 17, Type (0, 1), BuildingBlock: KIFKEQ_clean_linker_1, # of connection points: 2
#     Edge 18, Type (0, 1), BuildingBlock: KIFKEQ_clean_linker_1, # of connection points: 2
#     Edge 19, Type (0, 1), BuildingBlock: KIFKEQ_clean_linker_1, # of connection points: 2
#     Edge 20, Type (0, 1), BuildingBlock: KIFKEQ_clean_linker_1, # of connection points: 2
#     Edge 21, Type (0, 1), BuildingBlock: KIFKEQ_clean_linker_1, # of connection points: 2
#     Edge 22, Type (0, 1), BuildingBlock: KIFKEQ_clean_linker_1, # of connection points: 2
#     Edge 23, Type (0, 1), BuildingBlock: KIFKEQ_clean_linker_1, # of connection points: 2
#     Edge 24, Type (0, 1), BuildingBlock: KIFKEQ_clean_linker_1, # of connection points: 2
#     Edge 25, Type (0, 1), BuildingBlock: KIFKEQ_clean_linker_1, # of connection points: 2
#     Edge 26, Type (0, 1), BuildingBlock: KIFKEQ_clean_linker_1, # of connection points: 2
#     Edge 27, Type (0, 1), BuildingBlock: KIFKEQ_clean_linker_1, # of connection points: 2
#     Edge 28, Type (0, 1), BuildingBlock: KIFKEQ_clean_linker_1, # of connection points: 2
#     Edge 29, Type (0, 1), BuildingBlock: KIFKEQ_clean_linker_1, # of connection points: 2
#     Edge 30, Type (0, 1), BuildingBlock: KIFKEQ_clean_linker_1, # of connection points: 2
#     Edge 31, Type (0, 1), BuildingBlock: KIFKEQ_clean_linker_1, # of connection points: 2
#     Edge 32, Type (0, 1), BuildingBlock: KIFKEQ_clean_linker_1, # of connection points: 2
#     Edge 33, Type (0, 1), BuildingBlock: KIFKEQ_clean_linker_1, # of connection points: 2
#     Edge 34, Type (0, 1), BuildingBlock: KIFKEQ_clean_linker_1, # of connection points: 2
#     Edge 35, Type (0, 1), BuildingBlock: KIFKEQ_clean_linker_1, # of connection points: 2
#     Edge 36, Type (0, 1), BuildingBlock: KIFKEQ_clean_linker_1, # of connection points: 2
#     Edge 37, Type (0, 1), BuildingBlock: KIFKEQ_clean_linker_1, # of connection points: 2
#     Edge 38, Type (0, 1), BuildingBlock: KIFKEQ_clean_linker_1, # of connection points: 2
#     Edge 39, Type (0, 1), BuildingBlock: KIFKEQ_clean_linker_1, # of connection points: 2
#     Edge 40, Type (0, 1), BuildingBlock: KIFKEQ_clean_linker_1, # of connection points: 2
#     Edge 41, Type (0, 1), BuildingBlock: KIFKEQ_clean_linker_1, # of connection points: 2
#     Edge 42, Type (0, 1), BuildingBlock: KIFKEQ_clean_linker_1, # of connection points: 2
#     Edge 43, Type (0, 1), BuildingBlock: KIFKEQ_clean_linker_1, # of connection points: 2
# Relax obj value: 0.179
# Max RMSD: 0.279
# Mean RMSD: 0.216
data_MOF--net-sqc--node1-TAGTUT_clean_sbu_3--node2-MUDLON_clean_linker_0--edge1-KIFKEQ_clean_linker_1
_symmetry_space_group_name_H-M    P1
_symmetry_Int_Tables_number       1
_symmetry_cell_setting            triclinic
loop_
_symmetry_equiv_pos_as_xyz
'x, y, z'
_cell_length_a     32.21731
_cell_length_b     32.179071
_cell_length_c     91.324741
_cell_angle_alpha  90.661724
_cell_angle_beta   89.906593
_cell_angle_gamma 89.919204
loop_
_atom_site_label
_atom_site_type_symbol
_atom_site_fract_x
_atom_site_fract_y
_atom_site_fract_z
_atom_type_partial_charge
H0 H 0.89182 0.02065 0.53322 0.0
N1 N 0.88671 0.05531 0.50598 0.0
H2 H 0.8446 0.03416 0.55382 0.0
H3 H 0.82754 0.11231 0.50771 0.0
H4 H 0.77995 0.12565 0.52817 0.0
H5 H 0.87437 0.06762 0.47762 0.0
H6 H 0.83021 0.02712 0.4611 0.0
H7 H 0.85183 0.98001 0.51201 0.0
H8 H 0.80521 0.94098 0.49607 0.0
H9 H 0.93303 0.98632 0.5124 0.0
H10 H 0.9403 0.11638 0.50215 0.0
H11 H 0.00921 0.98197 0.51257 0.0
H12 H 0.01607 0.11269 0.50252 0.0
H13 H 0.2314 0.00573 0.52819 0.0
H14 H 0.27476 0.03356 0.54773 0.0
H15 H 0.24683 0.15845 0.53359 0.0
H16 H 0.20602 0.1297 0.51335 0.0
H17 H 0.26124 0.06697 0.48887 0.0
H18 H 0.30979 0.01773 0.47741 0.0
H19 H 0.23722 0.91544 0.49363 0.0
H20 H 0.18931 0.96493 0.5055 0.0
H21 H 0.14868 0.00722 0.52527 0.0
H22 H 0.07241 0.00631 0.52588 0.0
H23 H 0.06972 0.08203 0.48712 0.0
N24 N 0.19714 0.05004 0.50593 0.0
H25 H 0.14559 0.0833 0.48682 0.0
C26 C 0.86344 0.066 0.51897 0.0
C27 C 0.8681 0.04423 0.53214 0.0
C28 C 0.84095 0.05178 0.54386 0.0
C29 C 0.80836 0.08062 0.54251 0.0
C30 C 0.80439 0.10282 0.52944 0.0
C31 C 0.83178 0.09566 0.51784 0.0
C32 C 0.86598 0.0272 0.49603 0.0
C33 C 0.86007 0.0394 0.48153 0.0
C34 C 0.83422 0.01653 0.47221 0.0
C35 C 0.81307 0.98122 0.4773 0.0
C36 C 0.82091 0.96781 0.49167 0.0
C37 C 0.84749 0.99029 0.50089 0.0
C38 C 0.93115 0.05177 0.50715 0.0
C39 C 0.95105 0.01399 0.51031 0.0
C40 C 0.99456 0.0116 0.51046 0.0
C41 C 0.01877 0.04687 0.50738 0.0
C42 C 0.99848 0.08473 0.50463 0.0
C43 C 0.95523 0.08704 0.50452 0.0
C44 C 0.21614 0.06576 0.51915 0.0
C45 C 0.23438 0.03909 0.52938 0.0
C46 C 0.25901 0.05523 0.54067 0.0
C47 C 0.26508 0.09846 0.54221 0.0
C48 C 0.2441 0.12503 0.53254 0.0
C49 C 0.22022 0.10876 0.52108 0.0
C50 C 0.22146 0.0198 0.49787 0.0
C51 C 0.25552 0.03394 0.48979 0.0
C52 C 0.28334 0.00587 0.48339 0.0
C53 C 0.27728 0.96292 0.48475 0.0
C54 C 0.24241 0.94848 0.49243 0.0
C55 C 0.21493 0.97673 0.49912 0.0
C56 C 0.15264 0.04568 0.50602 0.0
C57 C 0.13154 0.02333 0.51688 0.0
C58 C 0.08799 0.02273 0.51718 0.0
C59 C 0.06493 0.04457 0.50666 0.0
C60 C 0.08642 0.06562 0.49556 0.0
C61 C 0.12973 0.06615 0.49528 0.0
H62 H 0.41992 0.51745 0.80305 0.0
N63 N 0.38668 0.56754 0.78331 0.0
H64 H 0.38476 0.46443 0.81762 0.0
H65 H 0.30168 0.55534 0.78545 0.0
H66 H 0.26695 0.50396 0.80003 0.0
H67 H 0.34272 0.52132 0.76327 0.0
H68 H 0.37052 0.48546 0.74177 0.0
H69 H 0.46534 0.56499 0.77436 0.0
H70 H 0.49372 0.52791 0.75286 0.0
H71 H 0.41385 0.63833 0.79517 0.0
H72 H 0.32258 0.58995 0.76504 0.0
H73 H 0.39054 0.70903 0.79002 0.0
H74 H 0.29664 0.65904 0.76094 0.0
H75 H 0.33022 0.90813 0.77761 0.0
H76 H 0.3027 0.96071 0.79445 0.0
H77 H 0.17828 0.91747 0.78582 0.0
H78 H 0.20603 0.86535 0.7685 0.0
H79 H 0.25638 0.88665 0.73544 0.0
H80 H 0.29579 0.92469 0.71691 0.0
H81 H 0.40816 0.90575 0.7417 0.0
H82 H 0.36864 0.86711 0.76002 0.0
H83 H 0.31874 0.83025 0.78662 0.0
H84 H 0.34121 0.76052 0.79277 0.0
H85 H 0.31018 0.71855 0.74894 0.0
N86 N 0.28467 0.85491 0.76023 0.0
H87 H 0.28436 0.78746 0.74338 0.0
C88 C 0.36393 0.5408 0.79312 0.0
C89 C 0.38643 0.51495 0.80252 0.0
C90 C 0.36632 0.48465 0.81081 0.0
C91 C 0.3231 0.47952 0.80982 0.0
C92 C 0.30042 0.50635 0.80078 0.0
C93 C 0.32048 0.53643 0.79249 0.0
C94 C 0.402 0.54643 0.77037 0.0
C95 C 0.37556 0.52372 0.761 0.0
C96 C 0.39149 0.50313 0.7487 0.0
C97 C 0.4342 0.50419 0.74562 0.0
C98 C 0.46067 0.52662 0.75501 0.0
C99 C 0.44457 0.5478 0.76722 0.0
C100 C 0.36987 0.60853 0.78073 0.0
C101 C 0.38821 0.64288 0.7877 0.0
C102 C 0.37454 0.68331 0.7848 0.0
C103 C 0.34158 0.69026 0.77499 0.0
C104 C 0.32273 0.65551 0.76827 0.0
C105 C 0.3372 0.61539 0.77085 0.0
C106 C 0.27 0.88303 0.77157 0.0
C107 C 0.29704 0.90985 0.77923 0.0
C108 C 0.2813 0.93999 0.78888 0.0
C109 C 0.23836 0.94344 0.79128 0.0
C110 C 0.21152 0.91546 0.78414 0.0
C111 C 0.22726 0.88572 0.7743 0.0
C112 C 0.30943 0.87455 0.74912 0.0
C113 C 0.28958 0.89033 0.73673 0.0
C114 C 0.31213 0.91178 0.72617 0.0
C115 C 0.35497 0.91819 0.72791 0.0
C116 C 0.3751 0.90147 0.74016 0.0
C117 C 0.35259 0.8795 0.75062 0.0
C118 C 0.29907 0.8142 0.7645 0.0
C119 C 0.31612 0.80605 0.77837 0.0
C120 C 0.32957 0.76592 0.78185 0.0
C121 C 0.32736 0.73328 0.77144 0.0
C122 C 0.31129 0.7421 0.75749 0.0
C123 C 0.29685 0.78175 0.75418 0.0
H124 H 0.79529 0.06049 0.06395 0.0
N125 N 0.77988 0.06826 0.0356 0.0
H126 H 0.82568 0.00093 0.07641 0.0
H127 H 0.80095 0.99356 0.02285 0.0
H128 H 0.83041 0.93338 0.03523 0.0
H129 H 0.76171 0.05301 0.0066 0.0
H130 H 0.80164 0.0767 0.98547 0.0
H131 H 0.84934 0.11247 0.03569 0.0
H132 H 0.8902 0.13501 0.01451 0.0
H133 H 0.73387 0.13521 0.04094 0.0
H134 H 0.72516 0.00643 0.02774 0.0
H135 H 0.65835 0.14166 0.03945 0.0
H136 H 0.65011 0.01171 0.02713 0.0
H137 H 0.4215 0.10816 0.05552 0.0
H138 H 0.38636 0.06201 0.07276 0.0
H139 H 0.43981 0.9555 0.05053 0.0
H140 H 0.47578 0.00182 0.03362 0.0
H141 H 0.44845 0.02873 0.01211 0.0
H142 H 0.41084 0.04181 0.98949 0.0
H143 H 0.40189 0.17189 0.00108 0.0
H144 H 0.44101 0.15889 0.02366 0.0
H145 H 0.52128 0.12647 0.05101 0.0
H146 H 0.59699 0.12218 0.0516 0.0
H147 H 0.59434 0.03904 0.01406 0.0
N148 N 0.46978 0.08681 0.03316 0.0
H149 H 0.51923 0.04153 0.01415 0.0
C150 C 0.79633 0.03171 0.04253 0.0
C151 C 0.80274 0.0327 0.05767 0.0
C152 C 0.81965 0.99844 0.06477 0.0
C153 C 0.83039 0.96225 0.05682 0.0
C154 C 0.82289 0.96089 0.04165 0.0
C155 C 0.80605 0.99529 0.03455 0.0
C156 C 0.80232 0.08156 0.0228 0.0
C157 C 0.78931 0.07138 0.00848 0.0
C158 C 0.81209 0.08491 0.9964 0.0
C159 C 0.84874 0.1078 -0.00157 0.0
C160 C 0.86199 0.11742 0.0127 0.0
C161 C 0.83877 0.10465 0.02476 0.0
C162 C 0.73524 0.07041 0.0347 0.0
C163 C 0.71558 0.10826 0.03789 0.0
C164 C 0.67244 0.11174 0.03713 0.0
C165 C 0.64797 0.07712 0.03327 0.0
C166 C 0.66785 0.0392 0.02995 0.0
C167 C 0.711 0.03595 0.03051 0.0
C168 C 0.4506 0.05851 0.0432 0.0
C169 C 0.42578 0.07487 0.05447 0.0
C170 C 0.40605 0.04856 0.06432 0.0
C171 C 0.41046 0.00526 0.06294 0.0
C172 C 0.43576 0.98879 0.05175 0.0
C173 C 0.45607 0.01522 0.04204 0.0
C174 C 0.44801 0.09311 0.01958 0.0
C175 C 0.43912 0.0602 0.00978 0.0
C176 C 0.41764 0.06765 0.99681 0.0
C177 C 0.40379 0.10784 0.99356 0.0
C178 C 0.41237 0.14063 0.00337 0.0
C179 C 0.4346 0.13329 0.01621 0.0
C180 C 0.51442 0.08486 0.0325 0.0
C181 C 0.53723 0.10747 0.0429 0.0
C182 C 0.58049 0.10516 0.04314 0.0
C183 C 0.60194 0.08034 0.03284 0.0
C184 C 0.57895 0.05797 0.02231 0.0
C185 C 0.53567 0.05981 0.02223 0.0
H186 H 0.27498 0.46626 0.30492 0.0
N187 N 0.28316 0.45105 0.2765 0.0
H188 H 0.3273 0.49359 0.32178 0.0
H189 H 0.36472 0.46556 0.2699 0.0
H190 H 0.41777 0.49201 0.28674 0.0
H191 H 0.31486 0.44186 0.24881 0.0
H192 H 0.30364 0.48901 0.22825 0.0
H193 H 0.23762 0.51956 0.27629 0.0
H194 H 0.22637 0.56693 0.25587 0.0
H195 H 0.21174 0.41059 0.27839 0.0
H196 H 0.34218 0.39189 0.27018 0.0
H197 H 0.20078 0.33546 0.27784 0.0
H198 H 0.33227 0.31693 0.27055 0.0
H199 H 0.22811 0.11663 0.30946 0.0
H200 H 0.27333 0.07891 0.32632 0.0
H201 H 0.37561 0.0926 0.29614 0.0
H202 H 0.33049 0.13104 0.27953 0.0
H203 H 0.29064 0.11439 0.25917 0.0
H204 H 0.26693 0.06386 0.24122 0.0
H205 H 0.14895 0.05622 0.26368 0.0
H206 H 0.17246 0.10918 0.28123 0.0
H207 H 0.20535 0.20433 0.29622 0.0
H208 H 0.21325 0.27909 0.2931 0.0
H209 H 0.30588 0.25636 0.2596 0.0
N210 N 0.24699 0.14383 0.28299 0.0
H211 H 0.2994 0.18207 0.26346 0.0
C212 C 0.31584 0.46417 0.28623 0.0
C213 C 0.30624 0.47146 0.30097 0.0
C214 C 0.33632 0.48672 0.31058 0.0
C215 C 0.37684 0.4949 0.30562 0.0
C216 C 0.38678 0.48641 0.29087 0.0
C217 C 0.35654 0.47116 0.28125 0.0
C218 C 0.27648 0.47707 0.26401 0.0
C219 C 0.29531 0.46892 0.25038 0.0
C220 C 0.28897 0.49592 0.23867 0.0
C221 C 0.26427 0.53176 0.24048 0.0
C222 C 0.24599 0.53992 0.25419 0.0
C223 C 0.25199 0.51276 0.2658 0.0
C224 C 0.27768 0.40687 0.27459 0.0
C225 C 0.23797 0.39017 0.27643 0.0
C226 C 0.23193 0.34719 0.27628 0.0
C227 C 0.26575 0.31984 0.27445 0.0
C228 C 0.30538 0.33681 0.27192 0.0
C229 C 0.31123 0.37988 0.27184 0.0
C230 C 0.27571 0.12612 0.29322 0.0
C231 C 0.26049 0.11208 0.30664 0.0
C232 C 0.28634 0.09072 0.31624 0.0
C233 C 0.32789 0.08266 0.31247 0.0
C234 C 0.34357 0.09807 0.29923 0.0
C235 C 0.31778 0.11996 0.28972 0.0
C236 C 0.23294 0.11638 0.27146 0.0
C237 C 0.25933 0.10292 0.26009 0.0
C238 C 0.2459 0.07315 0.24992 0.0
C239 C 0.20609 0.05547 0.25103 0.0
C240 C 0.17959 0.06942 0.26233 0.0
C241 C 0.19294 0.09963 0.2724 0.0
C242 C 0.25125 0.18746 0.28002 0.0
C243 C 0.22714 0.21563 0.28815 0.0
C244 C 0.23153 0.25839 0.28624 0.0
C245 C 0.26002 0.27407 0.27598 0.0
C246 C 0.28393 0.24561 0.2677 0.0
C247 C 0.27987 0.20278 0.26978 0.0
H248 H 0.91689 0.00765 0.30116 0.0
N249 N 0.88877 0.06337 0.28241 0.0
H250 H 0.87681 0.95607 0.3147 0.0
H251 H 0.80348 0.05767 0.28355 0.0
H252 H 0.76345 0.00766 0.2973 0.0
H253 H 0.84007 0.03211 0.26037 0.0
H254 H 0.86415 0.99538 0.23844 0.0
H255 H 0.9667 0.05296 0.27366 0.0
H256 H 0.9913 0.01684 0.25151 0.0
H257 H 0.92905 0.12227 0.29697 0.0
H258 H 0.82831 0.1035 0.26668 0.0
H259 H 0.91907 0.19718 0.29571 0.0
H260 H 0.81542 0.17787 0.26631 0.0
H261 H 0.87955 0.4433 0.28866 0.0
H262 H 0.83009 0.49171 0.30007 0.0
H263 H 0.72966 0.40801 0.28952 0.0
H264 H 0.77929 0.36013 0.27763 0.0
H265 H 0.81391 0.4005 0.25291 0.0
H266 H 0.83722 0.43292 0.23042 0.0
H267 H 0.96454 0.40509 0.24183 0.0
H268 H 0.94071 0.37556 0.26489 0.0
H269 H 0.88087 0.32958 0.299 0.0
H270 H 0.88075 0.2544 0.30204 0.0
H271 H 0.83924 0.23927 0.25724 0.0
N272 N 0.86335 0.37209 0.27501 0.0
H273 H 0.83593 0.31429 0.25485 0.0
C274 C 0.86349 0.03687 0.29142 0.0
C275 C 0.88333 0.00801 0.30044 0.0
C276 C 0.86038 0.97859 0.30816 0.0
C277 C 0.81688 0.97743 0.307 0.0
C278 C 0.79696 0.00705 0.29822 0.0
C279 C 0.81995 0.03626 0.29045 0.0
C280 C 0.90177 0.0451 0.26869 0.0
C281 C 0.87309 0.02944 0.25844 0.0
C282 C 0.88694 0.00855 0.24585 0.0
C283 C 0.92967 0.00297 0.24326 0.0
C284 C 0.9582 0.02005 0.25329 0.0
C285 C 0.94429 0.04089 0.26588 0.0
C286 C 0.87919 0.10714 0.28218 0.0
C287 C 0.90404 0.13437 0.29035 0.0
C288 C 0.89792 0.1773 0.28969 0.0
C289 C 0.86609 0.19413 0.28098 0.0
C290 C 0.84061 0.16649 0.27298 0.0
C291 C 0.84749 0.12357 0.27339 0.0
C292 C 0.83329 0.398 0.2825 0.0
C293 C 0.8469 0.43534 0.28888 0.0
C294 C 0.81866 0.463 0.29527 0.0
C295 C 0.77615 0.45357 0.29558 0.0
C296 C 0.76235 0.41583 0.28942 0.0
C297 C 0.79065 0.38844 0.28272 0.0
C298 C 0.87581 0.38665 0.26077 0.0
C299 C 0.84683 0.4015 0.25058 0.0
C300 C 0.8603 0.41962 0.23758 0.0
C301 C 0.90296 0.42233 0.2343 0.0
C302 C 0.93157 0.40483 0.24413 0.0
C303 C 0.91808 0.38753 0.25726 0.0
C304 C 0.85927 0.32768 0.27667 0.0
C305 C 0.8711 0.30989 0.28995 0.0
C306 C 0.8715 0.26678 0.29157 0.0
C307 C 0.86094 0.24021 0.27979 0.0
C308 C 0.84735 0.2583 0.26664 0.0
C309 C 0.84591 0.30152 0.26517 0.0
H310 H 0.79546 0.97236 0.79757 0.0
N311 N 0.81553 0.94573 0.7709 0.0
H312 H 0.84126 0.00457 0.81586 0.0
H313 H 0.90045 0.95331 0.7689 0.0
H314 H 0.94594 0.98517 0.78697 0.0
H315 H 0.86531 0.97391 0.74868 0.0
H316 H 0.84683 0.02533 0.73051 0.0
H317 H 0.74239 0.98162 0.76717 0.0
H318 H 0.7227 0.03178 0.74851 0.0
H319 H 0.76011 0.88975 0.77897 0.0
H320 H 0.8736 0.90334 0.75451 0.0
H321 H 0.76273 0.81457 0.77501 0.0
H322 H 0.87868 0.82862 0.75157 0.0
H323 H 0.80555 0.59977 0.78227 0.0
H324 H 0.82992 0.56696 0.80448 0.0
H325 H 0.95404 0.61175 0.79583 0.0
H326 H 0.92953 0.64234 0.77301 0.0
H327 H 0.87945 0.57408 0.74625 0.0
H328 H 0.83716 0.52198 0.7334 0.0
H329 H 0.72613 0.58901 0.74575 0.0
H330 H 0.76838 0.64036 0.75896 0.0
H331 H 0.80903 0.68267 0.78269 0.0
H332 H 0.79731 0.75705 0.78339 0.0
H333 H 0.85576 0.76775 0.74089 0.0
N334 N 0.85339 0.63908 0.76182 0.0
H335 H 0.87043 0.69325 0.74093 0.0
C336 C 0.84416 0.96078 0.78181 0.0
C337 C 0.82839 0.97457 0.79532 0.0
C338 C 0.8546 0.99264 0.80576 0.0
C339 C 0.89714 0.99744 0.80279 0.0
C340 C 0.9132 0.98217 0.78948 0.0
C341 C 0.88702 0.96389 0.77909 0.0
C342 C 0.80514 0.97401 0.75938 0.0
C343 C 0.83423 0.9864 0.74881 0.0
C344 C 0.82348 0.01582 0.73832 0.0
C345 C 0.78332 0.03306 0.73806 0.0
C346 C 0.7542 0.02001 0.74855 0.0
C347 C 0.76514 0.99095 0.75911 0.0
C348 C 0.81696 0.90211 0.76735 0.0
C349 C 0.78569 0.87639 0.7728 0.0
C350 C 0.78756 0.83339 0.77064 0.0
C351 C 0.82134 0.81505 0.76317 0.0
C352 C 0.85194 0.84127 0.75726 0.0
C353 C 0.8495 0.88435 0.75917 0.0
C354 C 0.86609 0.6227 0.77578 0.0
C355 C 0.83804 0.60242 0.7851 0.0
C356 C 0.852 0.5841 0.79797 0.0
C357 C 0.89412 0.58632 0.80196 0.0
C358 C 0.92161 0.60851 0.79296 0.0
C359 C 0.9077 0.62628 0.77997 0.0
C360 C 0.82733 0.61137 0.75337 0.0
C361 C 0.84602 0.57766 0.74608 0.0
C362 C 0.82189 0.54784 0.73888 0.0
C363 C 0.77849 0.55154 0.73868 0.0
C364 C 0.7596 0.58567 0.74573 0.0
C365 C 0.78375 0.61513 0.75319 0.0
C366 C 0.84181 0.68246 0.7619 0.0
C367 C 0.81964 0.70092 0.77356 0.0
C368 C 0.81236 0.74371 0.77383 0.0
C369 C 0.82594 0.76893 0.76226 0.0
C370 C 0.84589 0.74979 0.75021 0.0
C371 C 0.85399 0.70712 0.75012 0.0
H372 H 0.38528 0.4898 0.00813 0.0
N373 N 0.39169 0.43757 0.03157 0.0
H374 H 0.3394 0.4801 0.98687 0.0
H375 H 0.34638 0.37133 0.02489 0.0
H376 H 0.29954 0.36224 0.00393 0.0
H377 H 0.33799 0.41164 0.0516 0.0
H378 H 0.2885 0.4536 0.06571 0.0
H379 H 0.3883 0.52249 0.03246 0.0
H380 H 0.34023 0.56498 0.04694 0.0
H381 H 0.44557 0.42839 0.00804 0.0
H382 H 0.44064 0.46392 0.05388 0.0
H383 H 0.52011 0.43792 0.00818 0.0
H384 H 0.51541 0.47331 0.05384 0.0
H385 H 0.73471 0.4988 0.00999 0.0
H386 H 0.78036 0.47377 0.99062 0.0
H387 H 0.75748 0.34716 0.00396 0.0
H388 H 0.71442 0.37322 0.02412 0.0
H389 H 0.76706 0.43759 0.04886 0.0
H390 H 0.81459 0.48866 0.05972 0.0
H391 H 0.73765 0.58816 0.04378 0.0
H392 H 0.69075 0.53689 0.03247 0.0
H393 H 0.65331 0.48987 0.01141 0.0
H394 H 0.57714 0.49134 0.01103 0.0
H395 H 0.57453 0.42487 0.05185 0.0
N396 N 0.70204 0.45211 0.03201 0.0
H397 H 0.65045 0.42339 0.05207 0.0
C398 C 0.36974 0.43077 0.01797 0.0
C399 C 0.36731 0.46152 0.00714 0.0
C400 C 0.34105 0.45611 0.99507 0.0
C401 C 0.31592 0.42064 0.99394 0.0
C402 C 0.31855 0.38994 0.00467 0.0
C403 C 0.34547 0.39487 0.01651 0.0
C404 C 0.3669 0.46385 0.04108 0.0
C405 C 0.33884 0.44516 0.0507 0.0
C406 C 0.31064 0.46923 0.05876 0.0
C407 C 0.3101 0.51273 0.05741 0.0
C408 C 0.3391 0.53153 0.04802 0.0
C409 C 0.367 0.50735 0.03985 0.0
C410 C 0.43581 0.44771 0.03078 0.0
C411 C 0.45969 0.4398 0.01803 0.0
C412 C 0.50283 0.44501 0.01809 0.0
C413 C 0.52365 0.45683 0.03097 0.0
C414 C 0.50027 0.46434 0.04371 0.0
C415 C 0.45719 0.45943 0.04365 0.0
C416 C 0.72185 0.43778 0.0187 0.0
C417 C 0.73928 0.46565 0.00868 0.0
C418 C 0.76526 0.4511 0.99747 0.0
C419 C 0.7735 0.40828 0.99578 0.0
C420 C 0.75317 0.38039 0.00516 0.0
C421 C 0.72796 0.39508 0.01657 0.0
C422 C 0.7252 0.48324 0.04002 0.0
C423 C 0.7601 0.47039 0.04791 0.0
C424 C 0.78731 0.49948 0.05396 0.0
C425 C 0.77977 0.54215 0.05244 0.0
C426 C 0.74395 0.55533 0.04507 0.0
C427 C 0.71705 0.52607 0.03871 0.0
C428 C 0.65747 0.45608 0.03176 0.0
C429 C 0.63631 0.47574 0.02028 0.0
C430 C 0.5928 0.47649 0.02006 0.0
C431 C 0.5698 0.4582 0.03141 0.0
C432 C 0.59125 0.43967 0.04304 0.0
C433 C 0.63457 0.4386 0.04317 0.0
H434 H 0.2754 0.55112 0.55723 0.0
N435 N 0.26795 0.54529 0.52838 0.0
H436 H 0.31214 0.50414 0.57355 0.0
H437 H 0.31088 0.47507 0.52014 0.0
H438 H 0.34527 0.42641 0.53633 0.0
H439 H 0.27365 0.51589 0.50007 0.0
H440 H 0.31597 0.54504 0.4805 0.0
H441 H 0.31642 0.61174 0.52975 0.0
H442 H 0.35931 0.64092 0.51019 0.0
H443 H 0.20293 0.59593 0.52997 0.0
H444 H 0.23714 0.46969 0.51904 0.0
H445 H 0.13023 0.5796 0.5247 0.0
H446 H 0.16511 0.45263 0.51459 0.0
H447 H 0.92089 0.52212 0.52465 0.0
H448 H 0.87953 0.50455 0.54613 0.0
H449 H 0.92597 0.37864 0.54388 0.0
H450 H 0.96728 0.39646 0.52228 0.0
H451 H 0.9263 0.43653 0.48754 0.0
H452 H 0.89009 0.47292 0.46798 0.0
H453 H 0.93541 0.59019 0.48512 0.0
H454 H 0.96974 0.55364 0.50496 0.0
H455 H 0.0006 0.5243 0.52975 0.0
H456 H 0.0728 0.54259 0.53416 0.0
H457 H 0.11019 0.46268 0.49806 0.0
N458 N 0.9716 0.4692 0.50896 0.0
H459 H 0.03778 0.44282 0.49428 0.0
C460 C 0.29019 0.51667 0.53754 0.0
C461 C 0.2908 0.52399 0.55266 0.0
C462 C 0.31143 0.49674 0.56196 0.0
C463 C 0.33147 0.46103 0.55633 0.0
C464 C 0.33071 0.45373 0.5411 0.0
C465 C 0.31069 0.48145 0.53179 0.0
C466 C 0.29164 0.56197 0.5164 0.0
C467 C 0.2918 0.54341 0.50237 0.0
C468 C 0.31594 0.56017 0.49116 0.0
C469 C 0.34079 0.5953 0.49383 0.0
C470 C 0.34059 0.61371 0.50785 0.0
C471 C 0.31611 0.59723 0.519 0.0
C472 C 0.22555 0.53419 0.52512 0.0
C473 C 0.1947 0.56466 0.52656 0.0
C474 C 0.1532 0.55515 0.52364 0.0
C475 C 0.14169 0.51469 0.51929 0.0
C476 C 0.17279 0.48425 0.51773 0.0
C477 C 0.21425 0.49392 0.52048 0.0
C478 C 0.94681 0.46026 0.52171 0.0
C479 C 0.92204 0.49067 0.52868 0.0
C480 C 0.8984 0.48062 0.54098 0.0
C481 C 0.89945 0.44021 0.54666 0.0
C482 C 0.92481 0.41013 0.53984 0.0
C483 C 0.94816 0.42012 0.52747 0.0
C484 C 0.95092 0.49212 0.49761 0.0
C485 C 0.92829 0.47008 0.48703 0.0
C486 C 0.908 0.49097 0.4758 0.0
C487 C 0.91015 0.53455 0.47486 0.0
C488 C 0.93279 0.55668 0.48555 0.0
C489 C 0.95277 0.53574 0.49687 0.0
C490 C 0.01389 0.4814 0.51181 0.0
C491 C 0.02429 0.5103 0.52289 0.0
C492 C 0.0657 0.52119 0.52528 0.0
C493 C 0.09748 0.50399 0.51652 0.0
C494 C 0.08673 0.47586 0.50524 0.0
C495 C 0.0454 0.46462 0.50299 0.0
C496 C 0.13856 0.69197 0.16039 0.0
C497 C 0.9927 0.62246 0.1572 0.0
C498 C 0.98419 0.68574 0.11571 0.0
Mg499 Mg 0.17282 0.77762 0.14696 0.0
Mg500 Mg 0.11305 0.85393 0.13572 0.0
O501 O 0.12346 0.79709 0.1356 0.0
Mg502 Mg 0.08167 0.75496 0.14175 0.0
O503 O 0.04416 0.70928 0.148 0.0
Mg504 Mg 0.06933 0.66235 0.13627 0.0
Mg505 Mg 0.98625 0.71495 0.14761 0.0
C506 C 0.03141 0.82077 0.12006 0.0
O507 O 0.04888 0.79689 0.15891 0.0
O508 O 0.21254 0.82528 0.13376 0.0
O509 O 0.98262 0.77403 0.15958 0.0
O510 O 0.16246 0.82719 0.16559 0.0
O511 O 0.16846 0.87275 0.12474 0.0
O512 O 0.11588 0.87378 0.15802 0.0
O513 O 0.11118 0.71073 0.12491 0.0
O514 O 0.1776 0.72956 0.12839 0.0
C515 C 0.15005 0.70709 0.12196 0.0
C516 C 0.2049 0.85726 0.12588 0.0
O517 O 0.03588 0.78352 0.12484 0.0
O518 O 0.02664 0.61895 0.14985 0.0
O519 O 0.05551 0.85088 0.12371 0.0
O520 O 0.01815 0.66637 0.11831 0.0
O521 O 0.97215 0.65661 0.15799 0.0
O522 O 0.96775 0.7102 0.12516 0.0
O523 O 0.12918 0.7302 0.15819 0.0
O524 O 0.11941 0.66214 0.1539 0.0
C525 C 0.13997 0.85959 0.16786 0.0
C526 C 0.01113 0.79985 0.16345 0.0
C527 C 0.64326 0.8114 0.40855 0.0
C528 C 0.71152 0.66202 0.40443 0.0
C529 C 0.64264 0.65424 0.36415 0.0
Mg530 Mg 0.55605 0.84488 0.39546 0.0
Mg531 Mg 0.47752 0.78286 0.38745 0.0
O532 O 0.53423 0.7935 0.3855 0.0
Mg533 Mg 0.57767 0.75273 0.39142 0.0
O534 O 0.62453 0.71575 0.39723 0.0
Mg535 Mg 0.66984 0.7394 0.38463 0.0
Mg536 Mg 0.61777 0.65802 0.39617 0.0
C537 C 0.5082 0.69705 0.3733 0.0
O538 O 0.53806 0.72135 0.40947 0.0
O539 O 0.50618 0.88153 0.38235 0.0
O540 O 0.56217 0.65532 0.40959 0.0
O541 O 0.50961 0.84021 0.4149 0.0
O542 O 0.45666 0.83616 0.3754 0.0
O543 O 0.46105 0.79276 0.40998 0.0
O544 O 0.6198 0.77997 0.37369 0.0
O545 O 0.60115 0.84674 0.37618 0.0
C546 C 0.62305 0.81822 0.37002 0.0
C547 C 0.47256 0.87269 0.37541 0.0
O548 O 0.5467 0.70493 0.37584 0.0
O549 O 0.71507 0.69673 0.39767 0.0
O550 O 0.47842 0.72069 0.37777 0.0
O551 O 0.6634 0.6874 0.36684 0.0
O552 O 0.67715 0.64214 0.40517 0.0
O553 O 0.61797 0.63905 0.37361 0.0
O554 O 0.60476 0.80238 0.40678 0.0
O555 O 0.67228 0.79112 0.40199 0.0
C556 C 0.47732 0.8196 0.41859 0.0
C557 C 0.5368 0.68364 0.41405 0.0
C558 C 0.63132 0.18398 0.66099 0.0
C559 C 0.47898 0.12844 0.66015 0.0
C560 C 0.4721 0.19037 0.61829 0.0
Mg561 Mg 0.67074 0.26634 0.64667 0.0
Mg562 Mg 0.61405 0.34801 0.63803 0.0
O563 O 0.62134 0.29048 0.63634 0.0
Mg564 Mg 0.57759 0.25161 0.64324 0.0
O565 O 0.53723 0.20925 0.65004 0.0
Mg566 Mg 0.5565 0.16025 0.63801 0.0
Mg567 Mg 0.48024 0.22043 0.6499 0.0
C568 C 0.52684 0.32259 0.62445 0.0
O569 O 0.55056 0.2963 0.66098 0.0
O570 O 0.71035 0.31128 0.63242 0.0
O571 O 0.48253 0.27953 0.66159 0.0
O572 O 0.66917 0.31622 0.6654 0.0
O573 O 0.6692 0.36483 0.62615 0.0
O574 O 0.62264 0.36541 0.66039 0.0
O575 O 0.60082 0.205 0.62582 0.0
O576 O 0.66903 0.21705 0.62856 0.0
C577 C 0.6389 0.19706 0.62265 0.0
C578 C 0.70408 0.34558 0.62564 0.0
O579 O 0.53187 0.28397 0.6275 0.0
O580 O 0.51128 0.1208 0.65225 0.0
O581 O 0.55248 0.35111 0.62842 0.0
O582 O 0.50422 0.16796 0.62069 0.0
O583 O 0.46237 0.16464 0.66099 0.0
O584 O 0.45903 0.21692 0.6277 0.0
O585 O 0.62521 0.22287 0.65879 0.0
O586 O 0.60837 0.1561 0.65495 0.0
C587 C 0.64934 0.3494 0.66893 0.0
C588 C 0.51316 0.30265 0.6655 0.0
C589 C 0.14845 0.30821 0.91277 0.0
C590 C 0.21043 0.15995 0.91008 0.0
C591 C 0.14895 0.15313 0.86742 0.0
Mg592 Mg 0.06582 0.34705 0.89869 0.0
Mg593 Mg 0.98575 0.29211 0.88694 0.0
O594 O 0.04325 0.29848 0.88735 0.0
Mg595 Mg 0.08313 0.25444 0.89368 0.0
O596 O 0.12708 0.21478 0.89986 0.0
Mg597 Mg 0.17569 0.23714 0.88854 0.0
Mg598 Mg 0.11903 0.15737 0.89911 0.0
C599 C 0.01489 0.20725 0.87182 0.0
O600 O 0.03953 0.22365 0.91076 0.0
O601 O 0.022 0.38885 0.8851 0.0
O602 O 0.06033 0.15656 0.91072 0.0
O603 O 0.01434 0.34171 0.91671 0.0
O604 O 0.97009 0.34938 0.87625 0.0
O605 O 0.96569 0.29679 0.90917 0.0
O606 O 0.12939 0.28084 0.87699 0.0
O607 O 0.11463 0.34836 0.88054 0.0
C608 C 0.13545 0.31935 0.87417 0.0
C609 C 0.98897 0.38428 0.8774 0.0
O610 O 0.0521 0.20998 0.87685 0.0
O611 O 0.21664 0.19283 0.9025 0.0
O612 O 0.98604 0.23352 0.87496 0.0
O613 O 0.17023 0.18591 0.87023 0.0
O614 O 0.17521 0.1415 0.9104 0.0
O615 O 0.1235 0.1383 0.87669 0.0
O616 O 0.10993 0.30082 0.91031 0.0
O617 O 0.17749 0.28759 0.90637 0.0
C618 C 0.98063 0.32141 0.91886 0.0
C619 C 0.03556 0.18569 0.91492 0.0
H620 H 0.36036 0.96058 0.4897 0.0
H621 H 0.26315 0.90006 0.4651 0.0
H622 H 0.41229 0.91811 0.47707 0.0
H623 H 0.31493 0.85895 0.45181 0.0
H624 H 0.41225 0.77934 0.43168 0.0
H625 H 0.36612 0.80702 0.4506 0.0
H626 H 0.44266 0.91701 0.45402 0.0
H627 H 0.48949 0.88849 0.43576 0.0
C628 C 0.35022 0.93794 0.48159 0.0
C629 C 0.30792 0.93374 0.47825 0.0
C630 C 0.37993 0.91375 0.47428 0.0
C631 C 0.3681 0.88539 0.4632 0.0
C632 C 0.32541 0.87998 0.46036 0.0
C633 C 0.29563 0.9037 0.4679 0.0
C634 C 0.41978 0.80894 0.43677 0.0
C635 C 0.45439 0.83186 0.43207 0.0
C636 C 0.39304 0.82507 0.44752 0.0
C637 C 0.4 0.86471 0.45371 0.0
C638 C 0.43623 0.88625 0.44969 0.0
C639 C 0.4632 0.8699 0.4391 0.0
H640 H 0.35438 0.91424 0.69796 0.0
H641 H 0.40627 0.98266 0.73452 0.0
H642 H 0.38687 0.96303 0.68097 0.0
H643 H 0.43839 0.03134 0.71759 0.0
H644 H 0.42891 0.13776 0.68398 0.0
H645 H 0.40244 0.084 0.70001 0.0
H646 H 0.4626 0.98989 0.67342 0.0
H647 H 0.48993 0.04399 0.65732 0.0
C648 C 0.37306 0.93945 0.70232 0.0
C649 C 0.3778 0.9448 0.71753 0.0
C650 C 0.39176 0.96712 0.69263 0.0
C651 C 0.41485 0.00094 0.69802 0.0
C652 C 0.4205 0.0056 0.71319 0.0
C653 C 0.40239 0.97763 0.72285 0.0
C654 C 0.43644 0.10565 0.68146 0.0
C655 C 0.46155 0.09516 0.66936 0.0
C656 C 0.4215 0.07494 0.69071 0.0
C657 C 0.43078 0.03296 0.68798 0.0
C658 C 0.45508 0.02213 0.67573 0.0
C659 C 0.47073 0.05304 0.66657 0.0
H660 H 0.42265 0.08718 0.96521 0.0
H661 H 0.32794 0.14419 0.99227 0.0
H662 H 0.37879 0.09686 0.94348 0.0
H663 H 0.28398 0.15294 0.97069 0.0
H664 H 0.20192 0.10613 0.93271 0.0
H665 H 0.2516 0.09246 0.95212 0.0
H666 H 0.34263 0.16825 0.93041 0.0
H667 H 0.29257 0.18302 0.91094 0.0
C668 C 0.39253 0.1018 0.96646 0.0
C669 C 0.37854 0.11505 0.98034 0.0
C670 C 0.36765 0.1074 0.95409 0.0
C671 C 0.32815 0.12539 0.95552 0.0
C672 C 0.31432 0.13878 0.96938 0.0
C673 C 0.33946 0.13401 0.98166 0.0
C674 C 0.2327 0.1194 0.93186 0.0
C675 C 0.24312 0.14602 0.92031 0.0
C676 C 0.261 0.11165 0.94303 0.0
C677 C 0.30057 0.12965 0.94275 0.0
C678 C 0.31217 0.15408 0.9308 0.0
C679 C 0.28353 0.16251 0.9197 0.0
H680 H 0.25307 0.99244 0.23914 0.0
H681 H 0.12861 0.04283 0.2392 0.0
H682 H 0.23311 0.94201 0.22052 0.0
H683 H 0.10781 0.99025 0.22132 0.0
H684 H 0.10527 0.93469 0.17473 0.0
H685 H 0.11788 0.97787 0.19612 0.0
H686 H 0.19493 0.88144 0.21441 0.0
H687 H 0.18346 0.83852 0.19258 0.0
C688 C 0.22134 0.99267 0.23525 0.0
C689 C 0.1927 0.02235 0.24052 0.0
C690 C 0.20965 0.96311 0.22474 0.0
C691 C 0.16884 0.96204 0.21932 0.0
C692 C 0.13971 0.99057 0.22504 0.0
C693 C 0.15154 0.02047 0.23545 0.0
C694 C 0.12466 0.92239 0.18334 0.0
C695 C 0.14385 0.88329 0.18181 0.0
C696 C 0.13162 0.94715 0.19573 0.0
C697 C 0.15773 0.93341 0.207 0.0
C698 C 0.17532 0.89341 0.20581 0.0
C699 C 0.16857 0.86867 0.19333 0.0
H700 H 0.31572 0.16704 0.53991 0.0
H701 H 0.28297 0.06847 0.56964 0.0
H702 H 0.36691 0.1926 0.55747 0.0
H703 H 0.33615 0.09283 0.58662 0.0
H704 H 0.47164 0.11954 0.60165 0.0
H705 H 0.42122 0.09961 0.58293 0.0
H706 H 0.36323 0.22015 0.58668 0.0
H707 H 0.41291 0.23999 0.60582 0.0
C708 C 0.3189 0.151 0.5502 0.0
C709 C 0.29494 0.11546 0.55325 0.0
C710 C 0.34857 0.16555 0.56017 0.0
C711 C 0.3556 0.14438 0.57326 0.0
C712 C 0.33158 0.1093 0.57647 0.0
C713 C 0.30129 0.09526 0.56667 0.0
C714 C 0.44866 0.14214 0.59834 0.0
C715 C 0.44624 0.18135 0.60525 0.0
C716 C 0.41966 0.13056 0.58771 0.0
C717 C 0.38828 0.15825 0.58353 0.0
C718 C 0.3872 0.1983 0.58977 0.0
C719 C 0.41565 0.20961 0.60067 0.0
H720 H 0.18329 0.9355 0.8138 0.0
H721 H 0.25601 0.02617 0.79069 0.0
H722 H 0.15877 0.9895 0.83063 0.0
H723 H 0.23012 0.08086 0.80702 0.0
H724 H 0.21839 0.15499 0.85023 0.0
H725 H 0.23745 0.10625 0.83083 0.0
H726 H 0.11701 0.04787 0.83426 0.0
H727 H 0.09913 0.09518 0.85426 0.0
C728 C 0.19346 0.96721 0.81221 0.0
C729 C 0.22177 0.97664 0.80105 0.0
C730 C 0.1792 0.99834 0.82178 0.0
C731 C 0.19237 0.03983 0.82025 0.0
C732 C 0.21988 0.04927 0.80877 0.0
C733 C 0.23464 0.01799 0.79936 0.0
C734 C 0.19573 0.1322 0.84667 0.0
C735 C 0.15734 0.1288 0.85386 0.0
C736 C 0.2066 0.10418 0.83547 0.0
C737 C 0.17905 0.07251 0.83103 0.0
C738 C 0.13957 0.07097 0.83763 0.0
C739 C 0.12904 0.09848 0.849 0.0
H740 H 0.4054 0.00839 0.0928 0.0
H741 H 0.36123 0.94041 0.0549 0.0
H742 H 0.35921 0.96779 0.10851 0.0
H743 H 0.31485 0.90028 0.07056 0.0
H744 H 0.19656 0.90041 0.10073 0.0
H745 H 0.25094 0.93091 0.08579 0.0
H746 H 0.3437 0.88729 0.11601 0.0
H747 H 0.28896 0.85561 0.13099 0.0
C748 C 0.38621 0.98439 0.08789 0.0
C749 C 0.38664 0.97757 0.07266 0.0
C750 C 0.3601 0.96108 0.09686 0.0
C751 C 0.33353 0.93114 0.09069 0.0
C752 C 0.33507 0.9233 0.07554 0.0
C753 C 0.36165 0.94608 0.06661 0.0
C754 C 0.22851 0.89723 0.10423 0.0
C755 C 0.23851 0.87575 0.11707 0.0
C756 C 0.2596 0.91441 0.09561 0.0
C757 C 0.30136 0.91116 0.09974 0.0
C758 C 0.31161 0.89006 0.11262 0.0
C759 C 0.2804 0.87197 0.12114 0.0
H760 H 0.37444 0.01623 0.3038 0.0
H761 H 0.33844 0.08724 0.34218 0.0
H762 H 0.41128 0.96698 0.31928 0.0
H763 H 0.3755 0.03785 0.3577 0.0
H764 H 0.48338 0.95713 0.3773 0.0
H765 H 0.45092 0.01038 0.36214 0.0
H766 H 0.38422 0.91504 0.33836 0.0
H767 H 0.41607 0.86194 0.35349 0.0
C768 C 0.37503 0.02166 0.31553 0.0
C769 C 0.3536 0.05549 0.32181 0.0
C770 C 0.39577 0.99332 0.32438 0.0
C771 C 0.39596 0.99855 0.33967 0.0
C772 C 0.37591 0.03324 0.34593 0.0
C773 C 0.3546 0.0613 0.33708 0.0
C774 C 0.46172 0.94756 0.36886 0.0
C775 C 0.4523 0.90529 0.36661 0.0
C776 C 0.4431 0.97804 0.36023 0.0
C777 C 0.41535 0.96671 0.34904 0.0
C778 C 0.40589 0.92454 0.34681 0.0
C779 C 0.42393 0.89419 0.35556 0.0
H780 H 0.82557 0.09403 0.57138 0.0
H781 H 0.72375 0.0836 0.54093 0.0
H782 H 0.77722 0.11217 0.59089 0.0
H783 H 0.67476 0.1003 0.56057 0.0
H784 H 0.61662 0.19554 0.594 0.0
H785 H 0.65386 0.15891 0.57445 0.0
H786 H 0.72436 0.09186 0.60684 0.0
H787 H 0.68858 0.1305 0.62623 0.0
C788 C 0.79267 0.09475 0.56896 0.0
C789 C 0.77846 0.0878 0.55464 0.0
C790 C 0.76476 0.10487 0.58017 0.0
C791 C 0.72183 0.10772 0.57737 0.0
C792 C 0.70755 0.09909 0.56311 0.0
C793 C 0.73558 0.08946 0.55186 0.0
C794 C 0.639 0.17182 0.59686 0.0
C795 C 0.64992 0.1657 0.61152 0.0
C796 C 0.66054 0.15084 0.58568 0.0
C797 C 0.69297 0.12305 0.58903 0.0
C798 C 0.70057 0.11395 0.60382 0.0
C799 C 0.67967 0.13552 0.61494 0.0
H800 H 0.74894 0.93485 0.29697 0.0
H801 H 0.829 0.94725 0.33471 0.0
H802 H 0.70428 0.88787 0.31057 0.0
H803 H 0.78463 0.89936 0.34816 0.0
H804 H 0.7036 0.79263 0.36557 0.0
H805 H 0.75433 0.82422 0.34885 0.0
H806 H 0.65853 0.90518 0.3324 0.0
H807 H 0.60867 0.87437 0.34908 0.0
C808 C 0.75716 0.92746 0.30814 0.0
C809 C 0.79217 0.94551 0.31483 0.0
C810 C 0.73176 0.90024 0.31587 0.0
C811 C 0.74093 0.89011 0.33042 0.0
C812 C 0.7771 0.90626 0.33689 0.0
C813 C 0.80242 0.9338 0.32918 0.0
C814 C 0.69344 0.81652 0.35812 0.0
C815 C 0.65239 0.8312 0.35858 0.0
C816 C 0.7224 0.83475 0.34867 0.0
C817 C 0.7103 0.86712 0.33934 0.0
C818 C 0.66868 0.88004 0.33934 0.0
C819 C 0.64018 0.86253 0.34892 0.0
H820 H 0.89593 0.91684 0.04631 0.0
H821 H 0.81579 0.93008 0.08409 0.0
H822 H 0.9405 0.87009 0.05993 0.0
H823 H 0.86155 0.88443 0.0979 0.0
H824 H 0.03949 0.87123 0.09701 0.0
H825 H 0.98636 0.89363 0.08009 0.0
H826 H 0.89711 0.81408 0.10125 0.0
H827 H 0.95121 0.79147 0.11846 0.0
C828 C 0.88714 0.90896 0.05739 0.0
C829 C 0.85268 0.92785 0.06419 0.0
C830 C 0.91289 0.88235 0.06522 0.0
C831 C 0.90487 0.87417 0.08004 0.0
C832 C 0.86849 0.89011 0.08648 0.0
C833 C 0.84262 0.91672 0.07863 0.0
C834 C 0.00867 0.85806 0.09796 0.0
C835 C 0.99931 0.82984 0.10908 0.0
C836 C 0.9783 0.87054 0.08815 0.0
C837 C 0.93758 0.85546 0.08928 0.0
C838 C 0.9283 0.82615 0.10014 0.0
C839 C 0.95916 0.81308 0.1099 0.0
H840 H 0.90249 0.99183 0.83265 0.0
H841 H 0.95081 0.05907 0.79568 0.0
H842 H 0.93884 0.03962 0.84935 0.0
H843 H 0.98689 0.10653 0.81234 0.0
H844 H 0.96821 0.21367 0.84749 0.0
H845 H 0.94765 0.15834 0.83056 0.0
H846 H 0.01644 0.06935 0.85593 0.0
H847 H 0.03795 0.12541 0.87287 0.0
C848 C 0.92144 0.01632 0.82812 0.0
C849 C 0.92367 0.02194 0.8129 0.0
C850 C 0.94245 0.04334 0.83764 0.0
C851 C 0.96543 0.07665 0.83206 0.0
C852 C 0.96929 0.08102 0.81686 0.0
C853 C 0.94879 0.05378 0.80736 0.0
C854 C 0.97925 0.18236 0.84938 0.0
C855 C 0.00467 0.17364 0.86141 0.0
C856 C 0.96772 0.15084 0.83966 0.0
C857 C 0.98071 0.1098 0.84195 0.0
C858 C 0.00622 0.10088 0.85397 0.0
C859 C 0.01861 0.1328 0.86357 0.0
H860 H 0.79468 0.89763 0.47604 0.0
H861 H 0.76014 0.01545 0.45714 0.0
H862 H 0.74404 0.86261 0.46042 0.0
H863 H 0.71145 0.97963 0.44097 0.0
H864 H 0.69324 0.87598 0.40238 0.0
H865 H 0.72824 0.92165 0.42003 0.0
H866 H 0.6603 0.86472 0.45528 0.0
H867 H 0.62413 0.8198 0.43745 0.0
C868 C 0.77615 0.91623 0.46872 0.0
C869 C 0.78199 0.95949 0.46785 0.0
C870 C 0.74714 0.89607 0.45977 0.0
C871 C 0.72384 0.91856 0.44959 0.0
C872 C 0.72916 0.96169 0.44875 0.0
C873 C 0.75753 0.98201 0.4579 0.0
C874 C 0.68476 0.87438 0.41385 0.0
C875 C 0.65592 0.84484 0.41863 0.0
C876 C 0.70477 0.90035 0.42392 0.0
C877 C 0.69706 0.89638 0.43897 0.0
C878 C 0.6667 0.86819 0.44371 0.0
C879 C 0.64583 0.84289 0.43355 0.0
H880 H 0.90028 0.00227 0.21509 0.0
H881 H 0.99171 0.94509 0.24297 0.0
H882 H 0.92136 0.95642 0.19491 0.0
H883 H 0.01263 0.89936 0.22291 0.0
H884 H 0.0635 0.84325 0.18129 0.0
H885 H 0.04602 0.89662 0.1994 0.0
H886 H 0.91624 0.88326 0.18845 0.0
H887 H 0.93412 0.83114 0.16989 0.0
C888 C 0.92488 0.97994 0.2169 0.0
C889 C 0.94427 0.9773 0.23064 0.0
C890 C 0.93693 0.95366 0.20536 0.0
C891 C 0.9686 0.92412 0.2073 0.0
C892 C 0.98858 0.92217 0.22095 0.0
C893 C 0.97658 0.94843 0.23247 0.0
C894 C 0.03143 0.85253 0.18248 0.0
C895 C 0.00036 0.83339 0.17402 0.0
C896 C 0.02129 0.88268 0.19301 0.0
C897 C 0.97972 0.89425 0.19539 0.0
C898 C 0.94863 0.87553 0.18677 0.0
C899 C 0.95884 0.84537 0.17622 0.0
H900 H 0.82403 0.15253 0.97474 0.0
H901 H 0.93018 0.09123 0.99359 0.0
H902 H 0.86658 0.17293 0.95362 0.0
H903 H 0.97228 0.11074 0.97243 0.0
H904 H 0.01378 0.10831 0.92419 0.0
H905 H 0.96661 0.09063 0.94399 0.0
H906 H 0.93664 0.22024 0.95033 0.0
H907 H 0.98511 0.23841 0.93069 0.0
C908 C 0.85639 0.14338 0.9743 0.0
C909 C 0.87399 0.12037 0.98571 0.0
C910 C 0.88064 0.15515 0.96232 0.0
C911 C 0.9225 0.14316 0.96144 0.0
C912 C 0.93996 0.12007 0.97284 0.0
C913 C 0.91603 0.1091 0.98493 0.0
C914 C 0.99699 0.13319 0.92967 0.0
C915 C 0.00317 0.17495 0.92579 0.0
C916 C 0.97002 0.12295 0.94102 0.0
C917 C 0.9482 0.15412 0.94864 0.0
C918 C 0.95292 0.19569 0.94447 0.0
C919 C 0.98045 0.20604 0.93321 0.0
H920 H 0.8066 0.0334 0.70916 0.0
H921 H 0.73255 0.10137 0.7409 0.0
H922 H 0.781 0.07809 0.6899 0.0
H923 H 0.70496 0.1444 0.72143 0.0
H924 H 0.66817 0.22599 0.68396 0.0
H925 H 0.7147 0.19623 0.70236 0.0
H926 H 0.71459 0.0795 0.67844 0.0
H927 H 0.66947 0.10915 0.66019 0.0
C928 C 0.78535 0.05823 0.71211 0.0
C929 C 0.77115 0.06325 0.72659 0.0
C930 C 0.77035 0.08365 0.701 0.0
C931 C 0.74042 0.11443 0.70406 0.0
C932 C 0.72811 0.12115 0.71867 0.0
C933 C 0.74341 0.09594 0.72981 0.0
C934 C 0.67903 0.19432 0.68252 0.0
C935 C 0.66474 0.16968 0.67078 0.0
C936 C 0.70537 0.17718 0.69309 0.0
C937 C 0.71816 0.13537 0.69194 0.0
C938 C 0.70586 0.11188 0.67964 0.0
C939 C 0.67955 0.1288 0.66922 0.0
H940 H 0.82686 0.34171 0.99809 0.0
H941 H 0.79214 0.44049 0.96869 0.0
H942 H 0.8793 0.3182 0.98055 0.0
H943 H 0.84675 0.41828 0.9518 0.0
H944 H 0.98635 0.38806 0.93765 0.0
H945 H 0.93701 0.40801 0.95693 0.0
H946 H 0.86838 0.29494 0.94931 0.0
H947 H 0.91623 0.27561 0.92961 0.0
C948 C 0.82998 0.35832 0.98791 0.0
C949 C 0.80485 0.39312 0.98488 0.0
C950 C 0.86044 0.34505 0.97799 0.0
C951 C 0.86714 0.36684 0.96501 0.0
C952 C 0.84238 0.40146 0.9619 0.0
C953 C 0.81125 0.41421 0.97163 0.0
C954 C 0.96122 0.36706 0.94024 0.0
C955 C 0.9554 0.33011 0.93212 0.0
C956 C 0.93296 0.37863 0.9512 0.0
C957 C 0.89911 0.35296 0.95447 0.0
C958 C 0.89443 0.31507 0.94696 0.0
C959 C 0.92196 0.30402 0.93574 0.0
H960 H 0.86596 0.42844 0.20715 0.0
H961 H 0.97306 0.47009 0.23179 0.0
H962 H 0.88697 0.47253 0.18684 0.0
H963 H 0.99476 0.51199 0.21122 0.0
H964 H 0.03869 0.55666 0.16666 0.0
H965 H 0.01744 0.50297 0.18383 0.0
H966 H 0.89356 0.5541 0.18493 0.0
H967 H 0.91476 0.60823 0.16792 0.0
C968 C 0.89402 0.44664 0.20826 0.0
C969 C 0.91762 0.44563 0.22123 0.0
C970 C 0.90613 0.47164 0.19657 0.0
C971 C 0.94251 0.49546 0.19748 0.0
C972 C 0.96688 0.49341 0.21016 0.0
C973 C 0.95444 0.46911 0.22194 0.0
C974 C 0.00673 0.55608 0.17036 0.0
C975 C 0.97846 0.58688 0.16601 0.0
C976 C 0.99469 0.52546 0.18023 0.0
C977 C 0.95396 0.52457 0.18571 0.0
C978 C 0.92509 0.55398 0.18078 0.0
C979 C 0.93731 0.58506 0.17112 0.0
H980 H 0.90139 0.51041 0.44613 0.0
H981 H 0.86841 0.60887 0.47663 0.0
H982 H 0.85909 0.54312 0.42735 0.0
H983 H 0.82731 0.64205 0.45766 0.0
H984 H 0.77741 0.70414 0.41634 0.0
H985 H 0.8318 0.67566 0.43211 0.0
H986 H 0.78059 0.55274 0.42609 0.0
H987 H 0.72635 0.58098 0.41054 0.0
C988 C 0.88533 0.53908 0.44884 0.0
C989 C 0.88791 0.55666 0.46299 0.0
C990 C 0.86139 0.55792 0.43804 0.0
C991 C 0.83993 0.59502 0.44108 0.0
C992 C 0.84398 0.61371 0.45497 0.0
C993 C 0.86757 0.59464 0.46584 0.0
C994 C 0.7783 0.67097 0.4182 0.0
C995 C 0.74754 0.64479 0.4123 0.0
C996 C 0.8092 0.65476 0.42727 0.0
C997 C 0.81028 0.61205 0.43032 0.0
C998 C 0.78071 0.58572 0.42383 0.0
C999 C 0.74952 0.60194 0.415 0.0
H1000 H 0.78042 0.46765 0.74219 0.0
H1001 H 0.72029 0.56431 0.71768 0.0
H1002 H 0.74272 0.41497 0.72813 0.0
H1003 H 0.6842 0.51209 0.70304 0.0
H1004 H 0.6089 0.41535 0.68161 0.0
H1005 H 0.63391 0.46078 0.70107 0.0
H1006 H 0.74415 0.38479 0.7049 0.0
H1007 H 0.71755 0.33778 0.68621 0.0
C1008 C 0.75903 0.47749 0.73376 0.0
C1009 C 0.75329 0.51989 0.73093 0.0
C1010 C 0.73758 0.44738 0.72564 0.0
C1011 C 0.71052 0.45902 0.71431 0.0
C1012 C 0.70407 0.5017 0.71182 0.0
C1013 C 0.72495 0.53177 0.72012 0.0
C1014 C 0.63789 0.40763 0.68691 0.0
C1015 C 0.66123 0.37291 0.68231 0.0
C1016 C 0.65258 0.43409 0.69796 0.0
C1017 C 0.69155 0.42716 0.70441 0.0
C1018 C 0.71383 0.39112 0.70034 0.0
C1019 C 0.69866 0.36413 0.68952 0.0
H1020 H 0.76649 0.60298 0.07292 0.0
H1021 H 0.86125 0.54857 0.04537 0.0
H1022 H 0.81888 0.64512 0.08538 0.0
H1023 H 0.91363 0.59218 0.05714 0.0
H1024 H 0.99633 0.61957 0.09725 0.0
H1025 H 0.94782 0.59175 0.07949 0.0
H1026 H 0.86826 0.69875 0.08607 0.0
H1027 H 0.91622 0.72566 0.10446 0.0
C1028 C 0.79847 0.601 0.06929 0.0
C1029 C 0.81009 0.57233 0.05837 0.0
C1030 C 0.82858 0.62531 0.07634 0.0
C1031 C 0.87082 0.62183 0.07242 0.0
C1032 C 0.88171 0.59499 0.06075 0.0
C1033 C 0.85175 0.57019 0.05392 0.0
C1034 C 0.96899 0.63771 0.09469 0.0
C1035 C 0.9599 0.67453 0.10247 0.0
C1036 C 0.94104 0.62178 0.0844 0.0
C1037 C 0.90354 0.64258 0.08144 0.0
C1038 C 0.89621 0.68126 0.08833 0.0
C1039 C 0.92395 0.69693 0.09879 0.0
H1040 H 0.76607 0.53551 0.28954 0.0
H1041 H 0.7209 0.43839 0.3175 0.0
H1042 H 0.72458 0.58653 0.30307 0.0
H1043 H 0.68094 0.48942 0.3316 0.0
H1044 H 0.60257 0.58488 0.35355 0.0
H1045 H 0.62648 0.53777 0.33421 0.0
H1046 H 0.72986 0.61968 0.32574 0.0
H1047 H 0.70493 0.66735 0.34445 0.0
C1048 C 0.74694 0.52516 0.29856 0.0
C1049 C 0.74685 0.4832 0.30259 0.0
C1050 C 0.72335 0.55436 0.30638 0.0
C1051 C 0.69978 0.54242 0.31863 0.0
C1052 C 0.6982 0.49991 0.32216 0.0
C1053 C 0.72127 0.47058 0.31415 0.0
C1054 C 0.62982 0.59329 0.3473 0.0
C1055 C 0.65206 0.62973 0.35069 0.0
C1056 C 0.64379 0.56603 0.33629 0.0
C1057 C 0.68059 0.57435 0.32852 0.0
C1058 C 0.7012 0.61217 0.33131 0.0
C1059 C 0.68696 0.6396 0.34217 0.0
H1060 H 0.81806 0.45948 0.55127 0.0
H1061 H 0.92176 0.39556 0.57074 0.0
H1062 H 0.77392 0.43867 0.57154 0.0
H1063 H 0.87785 0.3754 0.59128 0.0
H1064 H 0.77249 0.30487 0.61487 0.0
H1065 H 0.82169 0.32974 0.5967 0.0
H1066 H 0.76012 0.44918 0.59683 0.0
H1067 H 0.71011 0.42382 0.61459 0.0
C1068 C 0.83156 0.44153 0.56003 0.0
C1069 C 0.87332 0.42911 0.55941 0.0
C1070 C 0.80631 0.42968 0.57169 0.0
C1071 C 0.82229 0.4054 0.5831 0.0
C1072 C 0.86433 0.39356 0.58259 0.0
C1073 C 0.88952 0.40516 0.57084 0.0
C1074 C 0.76978 0.3366 0.61115 0.0
C1075 C 0.73712 0.36221 0.61607 0.0
C1076 C 0.79811 0.35095 0.60075 0.0
C1077 C 0.79465 0.39136 0.59515 0.0
C1078 C 0.76314 0.41757 0.60063 0.0
C1079 C 0.73461 0.4031 0.61089 0.0
H1080 H 0.96831 0.54551 0.80492 0.0
H1081 H 0.85491 0.57434 0.82839 0.0
H1082 H 0.99108 0.50269 0.82514 0.0
H1083 H 0.87727 0.52971 0.84835 0.0
H1084 H 0.91182 0.395 0.86563 0.0
H1085 H 0.88939 0.44975 0.84911 0.0
H1086 H 0.00969 0.50779 0.85269 0.0
H1087 H 0.0322 0.45333 0.86934 0.0
C1088 C 0.94852 0.54348 0.81447 0.0
C1089 C 0.9096 0.56337 0.81493 0.0
C1090 C 0.96158 0.51874 0.82604 0.0
C1091 C 0.93584 0.51285 0.83825 0.0
C1092 C 0.89749 0.53351 0.83897 0.0
C1093 C 0.88466 0.55882 0.82749 0.0
C1094 C 0.9333 0.41974 0.86306 0.0
C1095 C 0.97385 0.41971 0.86872 0.0
C1096 C 0.92036 0.45118 0.85368 0.0
C1097 C 0.9479 0.48282 0.84962 0.0
C1098 C 0.98798 0.48357 0.85562 0.0
C1099 C 0.00073 0.45251 0.86519 0.0
H1100 H 0.2687 0.58198 0.04806 0.0
H1101 H 0.28109 0.50151 0.08541 0.0
H1102 H 0.22246 0.62717 0.0622 0.0
H1103 H 0.23361 0.54614 0.0993 0.0
H1104 H 0.12442 0.62693 0.11663 0.0
H1105 H 0.157 0.57655 0.09963 0.0
H1106 H 0.24096 0.6719 0.0849 0.0
H1107 H 0.20932 0.72139 0.10191 0.0
C1108 C 0.26153 0.57379 0.05925 0.0
C1109 C 0.27926 0.5384 0.06565 0.0
C1110 C 0.23468 0.59945 0.06727 0.0
C1111 C 0.22449 0.59004 0.08181 0.0
C1112 C 0.24053 0.55373 0.08803 0.0
C1113 C 0.26781 0.52826 0.08006 0.0
C1114 C 0.14933 0.63704 0.10954 0.0
C1115 C 0.16459 0.67781 0.11057 0.0
C1116 C 0.16805 0.60832 0.09992 0.0
C1117 C 0.20141 0.62047 0.09097 0.0
C1118 C 0.21508 0.66181 0.09156 0.0
C1119 C 0.19713 0.69004 0.10134 0.0
H1120 H 0.26045 0.4294 0.80003 0.0
H1121 H 0.33662 0.45402 0.83805 0.0
H1122 H 0.21842 0.38148 0.81423 0.0
H1123 H 0.2948 0.40519 0.85217 0.0
H1124 H 0.21712 0.29627 0.87094 0.0
H1125 H 0.26796 0.32749 0.8541 0.0
H1126 H 0.17044 0.40232 0.83547 0.0
H1127 H 0.12059 0.3721 0.8523 0.0
C1128 C 0.26844 0.42436 0.81139 0.0
C1129 C 0.30131 0.44629 0.818 0.0
C1130 C 0.24459 0.39663 0.81946 0.0
C1131 C 0.25323 0.38988 0.8343 0.0
C1132 C 0.28773 0.40957 0.8407 0.0
C1133 C 0.31155 0.43762 0.83262 0.0
C1134 C 0.20671 0.31873 0.86299 0.0
C1135 C 0.16515 0.33187 0.86282 0.0
C1136 C 0.23568 0.33673 0.85348 0.0
C1137 C 0.22302 0.36719 0.84347 0.0
C1138 C 0.181 0.37859 0.84292 0.0
C1139 C 0.1525 0.36143 0.85258 0.0
H1140 H 0.40372 0.41791 0.55087 0.0
H1141 H 0.31083 0.4391 0.58444 0.0
H1142 H 0.44368 0.37608 0.56787 0.0
H1143 H 0.35239 0.39906 0.60159 0.0
H1144 H 0.48234 0.39355 0.62746 0.0
H1145 H 0.42852 0.41961 0.61117 0.0
H1146 H 0.43727 0.30742 0.58497 0.0
H1147 H 0.49074 0.28068 0.60158 0.0
C1148 C 0.39129 0.41311 0.56174 0.0
C1149 C 0.3541 0.43244 0.56627 0.0
C1150 C 0.41432 0.38914 0.57147 0.0
C1151 C 0.40103 0.38451 0.58599 0.0
C1152 C 0.36328 0.40241 0.59044 0.0
C1153 C 0.33981 0.42573 0.58064 0.0
C1154 C 0.47223 0.37415 0.61838 0.0
C1155 C 0.49076 0.3353 0.61569 0.0
C1156 C 0.44132 0.38893 0.60913 0.0
C1157 C 0.42898 0.36551 0.59684 0.0
C1158 C 0.44644 0.32599 0.59439 0.0
C1159 C 0.47679 0.31071 0.60388 0.0
H1160 H 0.39072 0.47897 0.33461 0.0
H1161 H 0.43143 0.5573 0.29926 0.0
H1162 H 0.43074 0.52113 0.3519 0.0
H1163 H 0.47199 0.59878 0.31652 0.0
H1164 H 0.55334 0.65863 0.35157 0.0
H1165 H 0.53045 0.60145 0.33551 0.0
H1166 H 0.41498 0.5951 0.35948 0.0
H1167 H 0.43765 0.65177 0.37538 0.0
C1168 C 0.40869 0.50476 0.33049 0.0
C1169 C 0.40725 0.51523 0.31559 0.0
C1170 C 0.43174 0.52872 0.34038 0.0
C1171 C 0.45408 0.56344 0.33556 0.0
C1172 C 0.45532 0.57198 0.32052 0.0
C1173 C 0.43203 0.54817 0.31063 0.0
C1174 C 0.52346 0.64436 0.35355 0.0
C1175 C 0.49712 0.65974 0.36464 0.0
C1176 C 0.51032 0.61187 0.34434 0.0
C1177 C 0.47099 0.59385 0.34628 0.0
C1178 C 0.44565 0.60801 0.35783 0.0
C1179 C 0.45846 0.64074 0.36685 0.0
H1180 H 0.33468 0.41235 0.96511 0.0
H1181 H 0.23183 0.41633 0.99531 0.0
H1182 H 0.28764 0.39464 0.9452 0.0
H1183 H 0.18373 0.40143 0.97528 0.0
H1184 H 0.12587 0.31017 0.94136 0.0
H1185 H 0.16279 0.34593 0.96102 0.0
H1186 H 0.23633 0.41113 0.9289 0.0
H1187 H 0.20125 0.37257 0.90942 0.0
C1188 C 0.30169 0.41047 0.96734 0.0
C1189 C 0.28672 0.41531 0.98165 0.0
C1190 C 0.27449 0.40069 0.95592 0.0
C1191 C 0.23151 0.39641 0.95852 0.0
C1192 C 0.21654 0.4035 0.97284 0.0
C1193 C 0.24395 0.41234 0.98431 0.0
C1194 C 0.14909 0.33312 0.93858 0.0
C1195 C 0.16098 0.33867 0.92398 0.0
C1196 C 0.17041 0.35374 0.94984 0.0
C1197 C 0.20347 0.38093 0.94665 0.0
C1198 C 0.2122 0.3894 0.93187 0.0
C1199 C 0.19169 0.3679 0.92067 0.0
H1200 H 0.49945 0.45006 0.74512 0.0
H1201 H 0.40613 0.5049 0.71752 0.0
H1202 H 0.52141 0.40498 0.72488 0.0
H1203 H 0.42886 0.46105 0.69708 0.0
H1204 H 0.43839 0.33805 0.67194 0.0
H1205 H 0.42292 0.39021 0.69053 0.0
H1206 H 0.55318 0.39783 0.70149 0.0
H1207 H 0.56833 0.34383 0.68323 0.0
C1208 C 0.48429 0.45306 0.7346 0.0
C1209 C 0.45085 0.48058 0.7329 0.0
C1210 C 0.49693 0.42735 0.72297 0.0
C1211 C 0.47661 0.42898 0.70935 0.0
C1212 C 0.44453 0.45817 0.7075 0.0
C1213 C 0.4316 0.48345 0.71917 0.0
C1214 C 0.46383 0.35098 0.67824 0.0
C1215 C 0.50471 0.33698 0.67602 0.0
C1216 C 0.455 0.3813 0.68883 0.0
C1217 C 0.48684 0.3986 0.69747 0.0
C1218 C 0.52788 0.38508 0.69508 0.0
C1219 C 0.53669 0.35455 0.68448 0.0
H1220 H 0.32085 0.61117 0.46532 0.0
H1221 H 0.42241 0.61609 0.49609 0.0
H1222 H 0.36733 0.63503 0.44588 0.0
H1223 H 0.46865 0.63998 0.47672 0.0
H1224 H 0.54484 0.623 0.43427 0.0
H1225 H 0.49635 0.60438 0.45358 0.0
H1226 H 0.41168 0.69958 0.43919 0.0
H1227 H 0.46044 0.7182 0.41968 0.0
C1228 C 0.35304 0.6175 0.46791 0.0
C1229 C 0.36811 0.6117 0.48218 0.0
C1230 C 0.37947 0.63144 0.45684 0.0
C1231 C 0.42154 0.63917 0.45982 0.0
C1232 C 0.4364 0.63394 0.47413 0.0
C1233 C 0.40991 0.62056 0.48522 0.0
C1234 C 0.51585 0.63995 0.43517 0.0
C1235 C 0.50654 0.67234 0.42552 0.0
C1236 C 0.48826 0.62947 0.44631 0.0
C1237 C 0.45047 0.65076 0.44793 0.0
C1238 C 0.44068 0.68272 0.43816 0.0
C1239 C 0.46866 0.69361 0.4271 0.0
H1240 H 0.26598 0.6169 0.24028 0.0
H1241 H 0.24296 0.50977 0.21262 0.0
H1242 H 0.24616 0.66267 0.22028 0.0
H1243 H 0.2221 0.55496 0.19285 0.0
H1244 H 0.20097 0.63714 0.15624 0.0
H1245 H 0.24158 0.60331 0.17517 0.0
H1246 H 0.18507 0.68368 0.20787 0.0
H1247 H 0.14631 0.71894 0.18866 0.0
C1248 C 0.25681 0.60318 0.22989 0.0
C1249 C 0.25593 0.55975 0.22801 0.0
C1250 C 0.24538 0.62939 0.21844 0.0
C1251 C 0.23248 0.6127 0.20489 0.0
C1252 C 0.23273 0.56918 0.20296 0.0
C1253 C 0.24452 0.54309 0.21434 0.0
C1254 C 0.19847 0.64843 0.16744 0.0
C1255 C 0.17055 0.68041 0.17107 0.0
C1256 C 0.22127 0.62873 0.17832 0.0
C1257 C 0.21575 0.63982 0.19314 0.0
C1258 C 0.19028 0.67427 0.1966 0.0
C1259 C 0.16806 0.69461 0.18561 0.0
loop_
_geom_bond_atom_site_label_1
_geom_bond_atom_site_label_2
_geom_bond_distance
_geom_bond_site_symmetry_2
_ccdc_geom_bond_type
H0 C27 0.929 1_565 S
N1 C26 1.433 1_565 S
N1 C32 1.435 . S
N1 C38 1.423 . S
H2 C28 0.930 . S
H3 C31 0.931 . S
H4 C30 0.929 . S
H5 C33 0.930 1_545 S
H6 C34 0.941 . S
H7 C37 0.929 . S
H8 C36 0.931 . S
H9 C39 0.929 . S
H10 C43 0.932 . S
H11 C40 0.931 . S
H12 C42 0.929 . S
H13 C45 0.929 1_565 S
H14 C46 0.930 . S
H15 C48 0.929 . S
H16 C49 0.931 . S
H17 C51 0.930 1_545 S
H18 C52 0.944 . S
H19 C54 0.931 . S
H20 C55 0.929 . S
H21 C57 0.929 . S
H22 C58 0.931 . S
H23 C60 0.929 . S
N24 C44 1.433 1_565 S
N24 C50 1.435 . S
N24 C56 1.423 . S
H25 C61 0.932 . S
C26 N1 1.433 1_545 S
C26 C27 1.363 . S
C26 C31 1.370 . S
C27 H0 0.929 1_545 S
C27 C26 1.363 . S
C27 C28 1.385 . S
C28 H2 0.930 . S
C28 C27 1.385 . S
C28 C29 1.357 . S
C29 C28 1.357 . S
C29 C30 1.406 . S
C30 H4 0.929 . S
C30 C29 1.406 . S
C30 C31 1.391 . S
C31 H3 0.931 . S
C31 C26 1.370 . S
C31 C30 1.391 . S
C32 N1 1.435 . S
C32 C33 1.358 . S
C32 C37 1.371 . S
C33 H5 0.930 1_565 S
C33 C32 1.358 . S
C33 C34 1.405 . S
C34 H6 0.941 . S
C34 C33 1.405 . S
C34 C35 1.383 . S
C35 C34 1.383 . S
C35 C36 1.393 . S
C36 H8 0.931 . S
C36 C35 1.393 . S
C36 C37 1.382 . S
C37 H7 0.929 . S
C37 C32 1.371 . S
C37 C36 1.382 . S
C38 N1 1.423 . S
C38 C39 1.362 . S
C38 C43 1.388 . S
C39 H9 0.929 . S
C39 C38 1.362 . S
C39 C40 1.376 . S
C40 H11 0.931 . S
C40 C39 1.376 . S
C40 C41 1.396 1_655 S
C41 C40 1.396 1_455 S
C41 C42 1.348 1_455 S
C41 C59 1.472 . S
C42 H12 0.929 . S
C42 C41 1.348 1_655 S
C42 C43 1.443 . S
C43 H10 0.932 . S
C43 C38 1.388 . S
C43 C42 1.443 . S
C44 N24 1.433 1_545 S
C44 C45 1.363 . S
C44 C49 1.370 . S
C45 H13 0.929 1_545 S
C45 C44 1.363 . S
C45 C46 1.385 . S
C46 H14 0.930 . S
C46 C45 1.385 . S
C46 C47 1.357 . S
C47 C46 1.357 . S
C47 C48 1.406 . S
C48 H15 0.929 . S
C48 C47 1.406 . S
C48 C49 1.391 . S
C49 H16 0.931 . S
C49 C44 1.370 . S
C49 C48 1.391 . S
C50 N24 1.435 . S
C50 C51 1.358 . S
C50 C55 1.371 . S
C51 H17 0.930 1_565 S
C51 C50 1.358 . S
C51 C52 1.405 . S
C52 H18 0.944 . S
C52 C51 1.405 . S
C52 C53 1.383 . S
C53 C52 1.383 . S
C53 C54 1.393 . S
C54 H19 0.931 . S
C54 C53 1.393 . S
C54 C55 1.382 . S
C55 H20 0.929 . S
C55 C50 1.371 . S
C55 C54 1.382 . S
C56 N24 1.423 . S
C56 C57 1.362 . S
C56 C61 1.388 . S
C57 H21 0.929 . S
C57 C56 1.362 . S
C57 C58 1.376 . S
C58 H22 0.931 . S
C58 C57 1.376 . S
C58 C59 1.396 . S
C59 C41 1.472 . S
C59 C58 1.396 . S
C59 C60 1.348 . S
C60 H23 0.929 . S
C60 C59 1.348 . S
C60 C61 1.443 . S
C61 H25 0.932 . S
C61 C56 1.388 . S
C61 C60 1.443 . S
H62 C89 0.929 . S
N63 C88 1.433 . S
N63 C94 1.435 . S
N63 C100 1.423 . S
H64 C90 0.930 . S
H65 C93 0.931 . S
H66 C92 0.929 . S
H67 C95 0.930 . S
H68 C96 0.932 . S
H69 C99 0.929 . S
H70 C98 0.931 . S
H71 C101 0.929 . S
H72 C105 0.932 . S
H73 C102 0.931 . S
H74 C104 0.929 . S
H75 C107 0.929 . S
H76 C108 0.930 . S
H77 C110 0.929 . S
H78 C111 0.931 . S
H79 C113 0.930 . S
H80 C114 0.932 . S
H81 C116 0.931 . S
H82 C117 0.929 . S
H83 C119 0.929 . S
H84 C120 0.931 . S
H85 C122 0.929 . S
N86 C106 1.433 . S
N86 C112 1.435 . S
N86 C118 1.423 . S
H87 C123 0.932 . S
C88 N63 1.433 . S
C88 C89 1.363 . S
C88 C93 1.370 . S
C89 H62 0.929 . S
C89 C88 1.363 . S
C89 C90 1.385 . S
C90 H64 0.930 . S
C90 C89 1.385 . S
C90 C91 1.357 . S
C91 C90 1.357 . S
C91 C92 1.406 . S
C92 H66 0.929 . S
C92 C91 1.406 . S
C92 C93 1.391 . S
C93 H65 0.931 . S
C93 C88 1.370 . S
C93 C92 1.391 . S
C94 N63 1.435 . S
C94 C95 1.358 . S
C94 C99 1.371 . S
C95 H67 0.930 . S
C95 C94 1.358 . S
C95 C96 1.405 . S
C96 H68 0.932 . S
C96 C95 1.405 . S
C96 C97 1.383 . S
C97 C96 1.383 . S
C97 C98 1.393 . S
C98 H70 0.931 . S
C98 C97 1.393 . S
C98 C99 1.382 . S
C99 H69 0.929 . S
C99 C94 1.371 . S
C99 C98 1.382 . S
C100 N63 1.423 . S
C100 C101 1.362 . S
C100 C105 1.388 . S
C101 H71 0.929 . S
C101 C100 1.362 . S
C101 C102 1.376 . S
C102 H73 0.931 . S
C102 C101 1.376 . S
C102 C103 1.396 . S
C103 C102 1.396 . S
C103 C104 1.348 . S
C103 C121 1.472 . S
C104 H74 0.929 . S
C104 C103 1.348 . S
C104 C105 1.443 . S
C105 H72 0.932 . S
C105 C100 1.388 . S
C105 C104 1.443 . S
C106 N86 1.433 . S
C106 C107 1.363 . S
C106 C111 1.370 . S
C107 H75 0.929 . S
C107 C106 1.363 . S
C107 C108 1.385 . S
C108 H76 0.930 . S
C108 C107 1.385 . S
C108 C109 1.357 . S
C109 C108 1.357 . S
C109 C110 1.406 . S
C110 H77 0.929 . S
C110 C109 1.406 . S
C110 C111 1.391 . S
C111 H78 0.931 . S
C111 C106 1.370 . S
C111 C110 1.391 . S
C112 N86 1.435 . S
C112 C113 1.358 . S
C112 C117 1.371 . S
C113 H79 0.930 . S
C113 C112 1.358 . S
C113 C114 1.405 . S
C114 H80 0.932 . S
C114 C113 1.405 . S
C114 C115 1.383 . S
C115 C114 1.383 . S
C115 C116 1.393 . S
C116 H81 0.931 . S
C116 C115 1.393 . S
C116 C117 1.382 . S
C117 H82 0.929 . S
C117 C112 1.371 . S
C117 C116 1.382 . S
C118 N86 1.423 . S
C118 C119 1.362 . S
C118 C123 1.388 . S
C119 H83 0.929 . S
C119 C118 1.362 . S
C119 C120 1.376 . S
C120 H84 0.931 . S
C120 C119 1.376 . S
C120 C121 1.396 . S
C121 C103 1.472 . S
C121 C120 1.396 . S
C121 C122 1.348 . S
C122 H85 0.929 . S
C122 C121 1.348 . S
C122 C123 1.443 . S
C123 H87 0.932 . S
C123 C118 1.388 . S
C123 C122 1.443 . S
H124 C151 0.929 . S
N125 C150 1.415 1_545 S
N125 C156 1.435 . S
N125 C162 1.423 . S
H126 C152 0.930 . S
H127 C155 0.931 . S
H128 C154 0.929 . S
H129 C157 0.930 1_565 S
H130 C158 0.932 . S
H131 C161 0.929 . S
H132 C160 0.931 . S
H133 C163 0.929 . S
H134 C167 0.932 . S
H135 C164 0.931 . S
H136 C166 0.929 . S
H137 C169 0.929 . S
H138 C170 0.930 . S
H139 C172 0.929 . S
H140 C173 0.931 . S
H141 C175 0.930 1_565 S
H142 C176 0.932 . S
H143 C178 0.931 . S
H144 C179 0.929 . S
H145 C181 0.929 . S
H146 C182 0.931 . S
H147 C184 0.929 . S
N148 C168 1.415 1_545 S
N148 C174 1.435 . S
N148 C180 1.423 . S
H149 C185 0.932 . S
C150 N125 1.415 1_565 S
C150 C151 1.359 1_565 S
C150 C155 1.394 . S
C151 H124 0.929 . S
C151 C150 1.359 1_545 S
C151 C152 1.385 1_545 S
C152 H126 0.930 . S
C152 C151 1.385 1_565 S
C152 C153 1.357 . S
C153 C152 1.357 . S
C153 C154 1.406 . S
C154 H128 0.929 . S
C154 C153 1.406 . S
C154 C155 1.391 . S
C155 H127 0.931 . S
C155 C150 1.394 . S
C155 C154 1.391 . S
C156 N125 1.435 . S
C156 C157 1.358 . S
C156 C161 1.371 . S
C157 H129 0.930 1_545 S
C157 C156 1.358 . S
C157 C158 1.405 1_554 S
C158 H130 0.932 . S
C158 C157 1.405 1_556 S
C158 C159 1.383 . S
C159 C158 1.383 . S
C159 C160 1.393 . S
C160 H132 0.931 . S
C160 C159 1.393 . S
C160 C161 1.382 1_556 S
C161 H131 0.929 . S
C161 C156 1.371 . S
C161 C160 1.382 1_554 S
C162 N125 1.423 . S
C162 C163 1.362 . S
C162 C167 1.388 . S
C163 H133 0.929 . S
C163 C162 1.362 . S
C163 C164 1.376 . S
C164 H135 0.931 . S
C164 C163 1.376 . S
C164 C165 1.396 . S
C165 C164 1.396 . S
C165 C166 1.348 . S
C165 C183 1.472 . S
C166 H136 0.929 . S
C166 C165 1.348 . S
C166 C167 1.443 . S
C167 H134 0.932 . S
C167 C162 1.388 . S
C167 C166 1.443 . S
C168 N148 1.415 1_565 S
C168 C169 1.359 1_565 S
C168 C173 1.393 . S
C169 H137 0.929 . S
C169 C168 1.359 1_545 S
C169 C170 1.385 1_545 S
C170 H138 0.930 . S
C170 C169 1.385 1_565 S
C170 C171 1.357 . S
C171 C170 1.357 . S
C171 C172 1.406 . S
C172 H139 0.929 . S
C172 C171 1.406 . S
C172 C173 1.391 . S
C173 H140 0.931 . S
C173 C168 1.393 . S
C173 C172 1.391 . S
C174 N148 1.435 . S
C174 C175 1.358 . S
C174 C179 1.371 . S
C175 H141 0.930 1_545 S
C175 C174 1.358 . S
C175 C176 1.405 1_554 S
C176 H142 0.932 . S
C176 C175 1.405 1_556 S
C176 C177 1.383 . S
C177 C176 1.383 . S
C177 C178 1.393 . S
C178 H143 0.931 . S
C178 C177 1.393 . S
C178 C179 1.382 1_556 S
C179 H144 0.929 . S
C179 C174 1.371 . S
C179 C178 1.382 1_554 S
C180 N148 1.423 . S
C180 C181 1.362 . S
C180 C185 1.388 . S
C181 H145 0.929 . S
C181 C180 1.362 . S
C181 C182 1.376 . S
C182 H146 0.931 . S
C182 C181 1.376 . S
C182 C183 1.396 . S
C183 C165 1.472 . S
C183 C182 1.396 . S
C183 C184 1.348 . S
C184 H147 0.929 . S
C184 C183 1.348 . S
C184 C185 1.443 . S
C185 H149 0.932 . S
C185 C180 1.388 . S
C185 C184 1.443 . S
H186 C213 0.929 . S
N187 C212 1.433 . S
N187 C218 1.435 . S
N187 C224 1.423 . S
H188 C214 0.930 . S
H189 C217 0.931 . S
H190 C216 0.929 . S
H191 C219 0.930 . S
H192 C220 0.932 . S
H193 C223 0.929 . S
H194 C222 0.931 . S
H195 C225 0.929 . S
H196 C229 0.932 . S
H197 C226 0.931 . S
H198 C228 0.929 . S
H199 C231 0.929 . S
H200 C232 0.930 . S
H201 C234 0.929 . S
H202 C235 0.931 . S
H203 C237 0.930 . S
H204 C238 0.932 . S
H205 C240 0.931 . S
H206 C241 0.929 . S
H207 C243 0.929 . S
H208 C244 0.931 . S
H209 C246 0.929 . S
N210 C230 1.433 . S
N210 C236 1.435 . S
N210 C242 1.423 . S
H211 C247 0.932 . S
C212 N187 1.433 . S
C212 C213 1.363 . S
C212 C217 1.370 . S
C213 H186 0.929 . S
C213 C212 1.363 . S
C213 C214 1.385 . S
C214 H188 0.930 . S
C214 C213 1.385 . S
C214 C215 1.357 . S
C215 C214 1.357 . S
C215 C216 1.406 . S
C216 H190 0.929 . S
C216 C215 1.406 . S
C216 C217 1.391 . S
C217 H189 0.931 . S
C217 C212 1.370 . S
C217 C216 1.391 . S
C218 N187 1.435 . S
C218 C219 1.358 . S
C218 C223 1.371 . S
C219 H191 0.930 . S
C219 C218 1.358 . S
C219 C220 1.405 . S
C220 H192 0.932 . S
C220 C219 1.405 . S
C220 C221 1.383 . S
C221 C220 1.383 . S
C221 C222 1.393 . S
C222 H194 0.931 . S
C222 C221 1.393 . S
C222 C223 1.382 . S
C223 H193 0.929 . S
C223 C218 1.371 . S
C223 C222 1.382 . S
C224 N187 1.423 . S
C224 C225 1.362 . S
C224 C229 1.388 . S
C225 H195 0.929 . S
C225 C224 1.362 . S
C225 C226 1.376 . S
C226 H197 0.931 . S
C226 C225 1.376 . S
C226 C227 1.396 . S
C227 C226 1.396 . S
C227 C228 1.348 . S
C227 C245 1.472 . S
C228 H198 0.929 . S
C228 C227 1.348 . S
C228 C229 1.443 . S
C229 H196 0.932 . S
C229 C224 1.388 . S
C229 C228 1.443 . S
C230 N210 1.433 . S
C230 C231 1.363 . S
C230 C235 1.370 . S
C231 H199 0.929 . S
C231 C230 1.363 . S
C231 C232 1.385 . S
C232 H200 0.930 . S
C232 C231 1.385 . S
C232 C233 1.357 . S
C233 C232 1.357 . S
C233 C234 1.406 . S
C234 H201 0.929 . S
C234 C233 1.406 . S
C234 C235 1.391 . S
C235 H202 0.931 . S
C235 C230 1.370 . S
C235 C234 1.391 . S
C236 N210 1.435 . S
C236 C237 1.358 . S
C236 C241 1.371 . S
C237 H203 0.930 . S
C237 C236 1.358 . S
C237 C238 1.405 . S
C238 H204 0.932 . S
C238 C237 1.405 . S
C238 C239 1.383 . S
C239 C238 1.383 . S
C239 C240 1.393 . S
C240 H205 0.931 . S
C240 C239 1.393 . S
C240 C241 1.382 . S
C241 H206 0.929 . S
C241 C236 1.371 . S
C241 C240 1.382 . S
C242 N210 1.423 . S
C242 C243 1.362 . S
C242 C247 1.388 . S
C243 H207 0.929 . S
C243 C242 1.362 . S
C243 C244 1.376 . S
C244 H208 0.931 . S
C244 C243 1.376 . S
C244 C245 1.396 . S
C245 C227 1.472 . S
C245 C244 1.396 . S
C245 C246 1.348 . S
C246 H209 0.929 . S
C246 C245 1.348 . S
C246 C247 1.443 . S
C247 H211 0.932 . S
C247 C242 1.388 . S
C247 C246 1.443 . S
H248 C275 0.929 . S
N249 C274 1.433 . S
N249 C280 1.435 . S
N249 C286 1.423 . S
H250 C276 0.930 . S
H251 C279 0.931 . S
H252 C278 0.929 . S
H253 C281 0.930 . S
H254 C282 0.932 . S
H255 C285 0.929 . S
H256 C284 0.931 . S
H257 C287 0.929 . S
H258 C291 0.932 . S
H259 C288 0.931 . S
H260 C290 0.929 . S
H261 C293 0.929 . S
H262 C294 0.930 . S
H263 C296 0.929 . S
H264 C297 0.931 . S
H265 C299 0.930 . S
H266 C300 0.932 . S
H267 C302 0.931 . S
H268 C303 0.929 . S
H269 C305 0.929 . S
H270 C306 0.931 . S
H271 C308 0.929 . S
N272 C292 1.433 . S
N272 C298 1.435 . S
N272 C304 1.423 . S
H273 C309 0.932 . S
C274 N249 1.433 . S
C274 C275 1.363 1_545 S
C274 C279 1.370 . S
C275 H248 0.929 . S
C275 C274 1.363 1_565 S
C275 C276 1.385 . S
C276 H250 0.930 . S
C276 C275 1.385 . S
C276 C277 1.357 . S
C277 C276 1.357 . S
C277 C278 1.406 1_565 S
C278 H252 0.929 . S
C278 C277 1.406 1_545 S
C278 C279 1.391 . S
C279 H251 0.931 . S
C279 C274 1.370 . S
C279 C278 1.391 . S
C280 N249 1.435 . S
C280 C281 1.358 1_545 S
C280 C285 1.371 . S
C281 H253 0.930 . S
C281 C280 1.358 1_565 S
C281 C282 1.405 . S
C282 H254 0.932 . S
C282 C281 1.405 . S
C282 C283 1.383 . S
C283 C282 1.383 . S
C283 C284 1.393 . S
C284 H256 0.931 . S
C284 C283 1.393 . S
C284 C285 1.382 1_565 S
C285 H255 0.929 . S
C285 C280 1.371 . S
C285 C284 1.382 1_545 S
C286 N249 1.423 . S
C286 C287 1.362 . S
C286 C291 1.388 . S
C287 H257 0.929 . S
C287 C286 1.362 . S
C287 C288 1.376 . S
C288 H259 0.931 . S
C288 C287 1.376 . S
C288 C289 1.396 . S
C289 C288 1.396 . S
C289 C290 1.348 . S
C289 C307 1.472 . S
C290 H260 0.929 . S
C290 C289 1.348 . S
C290 C291 1.443 . S
C291 H258 0.932 . S
C291 C286 1.388 . S
C291 C290 1.443 . S
C292 N272 1.433 . S
C292 C293 1.363 . S
C292 C297 1.370 . S
C293 H261 0.929 . S
C293 C292 1.363 . S
C293 C294 1.385 . S
C294 H262 0.930 . S
C294 C293 1.385 . S
C294 C295 1.357 . S
C295 C294 1.357 . S
C295 C296 1.406 . S
C296 H263 0.929 . S
C296 C295 1.406 . S
C296 C297 1.391 . S
C297 H264 0.931 . S
C297 C292 1.370 . S
C297 C296 1.391 . S
C298 N272 1.435 . S
C298 C299 1.358 . S
C298 C303 1.371 . S
C299 H265 0.930 . S
C299 C298 1.358 . S
C299 C300 1.405 . S
C300 H266 0.932 . S
C300 C299 1.405 . S
C300 C301 1.383 . S
C301 C300 1.383 . S
C301 C302 1.393 . S
C302 H267 0.931 . S
C302 C301 1.393 . S
C302 C303 1.382 . S
C303 H268 0.929 . S
C303 C298 1.371 . S
C303 C302 1.382 . S
C304 N272 1.423 . S
C304 C305 1.362 . S
C304 C309 1.388 . S
C305 H269 0.929 . S
C305 C304 1.362 . S
C305 C306 1.376 . S
C306 H270 0.931 . S
C306 C305 1.376 . S
C306 C307 1.396 . S
C307 C289 1.472 . S
C307 C306 1.396 . S
C307 C308 1.348 . S
C308 H271 0.929 . S
C308 C307 1.348 . S
C308 C309 1.443 . S
C309 H273 0.932 . S
C309 C304 1.388 . S
C309 C308 1.443 . S
H310 C337 0.929 . S
N311 C336 1.433 . S
N311 C342 1.435 . S
N311 C348 1.423 . S
H312 C338 0.930 . S
H313 C341 0.931 . S
H314 C340 0.929 . S
H315 C343 0.930 . S
H316 C344 0.932 . S
H317 C347 0.929 . S
H318 C346 0.931 . S
H319 C349 0.929 . S
H320 C353 0.932 . S
H321 C350 0.931 . S
H322 C352 0.929 . S
H323 C355 0.929 . S
H324 C356 0.930 . S
H325 C358 0.929 . S
H326 C359 0.931 . S
H327 C361 0.930 . S
H328 C362 0.932 . S
H329 C364 0.931 . S
H330 C365 0.929 . S
H331 C367 0.929 . S
H332 C368 0.931 . S
H333 C370 0.929 . S
N334 C354 1.433 . S
N334 C360 1.435 . S
N334 C366 1.423 . S
H335 C371 0.932 . S
C336 N311 1.433 . S
C336 C337 1.363 1_565 S
C336 C341 1.370 . S
C337 H310 0.929 . S
C337 C336 1.363 1_545 S
C337 C338 1.385 . S
C338 H312 0.930 . S
C338 C337 1.385 . S
C338 C339 1.357 . S
C339 C338 1.357 . S
C339 C340 1.406 1_545 S
C340 H314 0.929 . S
C340 C339 1.406 1_565 S
C340 C341 1.391 . S
C341 H313 0.931 . S
C341 C336 1.370 . S
C341 C340 1.391 . S
C342 N311 1.435 . S
C342 C343 1.358 1_565 S
C342 C347 1.371 . S
C343 H315 0.930 . S
C343 C342 1.358 1_545 S
C343 C344 1.405 . S
C344 H316 0.932 . S
C344 C343 1.405 . S
C344 C345 1.383 . S
C345 C344 1.383 . S
C345 C346 1.393 . S
C346 H318 0.931 . S
C346 C345 1.393 . S
C346 C347 1.382 1_545 S
C347 H317 0.929 . S
C347 C342 1.371 . S
C347 C346 1.382 1_565 S
C348 N311 1.423 . S
C348 C349 1.362 . S
C348 C353 1.388 . S
C349 H319 0.929 . S
C349 C348 1.362 . S
C349 C350 1.376 . S
C350 H321 0.931 . S
C350 C349 1.376 . S
C350 C351 1.396 . S
C351 C350 1.396 . S
C351 C352 1.348 . S
C351 C369 1.472 . S
C352 H322 0.929 . S
C352 C351 1.348 . S
C352 C353 1.443 . S
C353 H320 0.932 . S
C353 C348 1.388 . S
C353 C352 1.443 . S
C354 N334 1.433 . S
C354 C355 1.363 . S
C354 C359 1.370 . S
C355 H323 0.929 . S
C355 C354 1.363 . S
C355 C356 1.385 . S
C356 H324 0.930 . S
C356 C355 1.385 . S
C356 C357 1.357 . S
C357 C356 1.357 . S
C357 C358 1.406 . S
C358 H325 0.929 . S
C358 C357 1.406 . S
C358 C359 1.391 . S
C359 H326 0.931 . S
C359 C354 1.370 . S
C359 C358 1.391 . S
C360 N334 1.435 . S
C360 C361 1.358 . S
C360 C365 1.371 . S
C361 H327 0.930 . S
C361 C360 1.358 . S
C361 C362 1.405 . S
C362 H328 0.932 . S
C362 C361 1.405 . S
C362 C363 1.383 . S
C363 C362 1.383 . S
C363 C364 1.393 . S
C364 H329 0.931 . S
C364 C363 1.393 . S
C364 C365 1.382 . S
C365 H330 0.929 . S
C365 C360 1.371 . S
C365 C364 1.382 . S
C366 N334 1.423 . S
C366 C367 1.362 . S
C366 C371 1.388 . S
C367 H331 0.929 . S
C367 C366 1.362 . S
C367 C368 1.376 . S
C368 H332 0.931 . S
C368 C367 1.376 . S
C368 C369 1.396 . S
C369 C351 1.472 . S
C369 C368 1.396 . S
C369 C370 1.348 . S
C370 H333 0.929 . S
C370 C369 1.348 . S
C370 C371 1.443 . S
C371 H335 0.932 . S
C371 C366 1.388 . S
C371 C370 1.443 . S
H372 C399 0.938 . S
N373 C398 1.433 . S
N373 C404 1.435 . S
N373 C410 1.423 . S
H374 C400 0.930 . S
H375 C403 0.941 . S
H376 C402 0.929 . S
H377 C405 0.930 . S
H378 C406 0.932 . S
H379 C409 0.929 . S
H380 C408 0.931 . S
H381 C411 0.929 1_556 S
H382 C415 0.932 . S
H383 C412 0.931 1_556 S
H384 C414 0.929 . S
H385 C417 0.939 . S
H386 C418 0.930 . S
H387 C420 0.929 . S
H388 C421 0.940 . S
H389 C423 0.930 . S
H390 C424 0.932 . S
H391 C426 0.931 . S
H392 C427 0.929 . S
H393 C429 0.929 1_556 S
H394 C430 0.931 1_556 S
H395 C432 0.929 . S
N396 C416 1.433 . S
N396 C422 1.435 . S
N396 C428 1.423 . S
H397 C433 0.932 . S
C398 N373 1.433 . S
C398 C399 1.363 1_554 S
C398 C403 1.375 . S
C399 H372 0.938 . S
C399 C398 1.363 1_556 S
C399 C400 1.385 . S
C400 H374 0.930 . S
C400 C399 1.385 . S
C400 C401 1.357 . S
C401 C400 1.357 . S
C401 C402 1.406 . S
C402 H376 0.929 . S
C402 C401 1.406 . S
C402 C403 1.377 1_556 S
C403 H375 0.941 . S
C403 C398 1.375 . S
C403 C402 1.377 1_554 S
C404 N373 1.435 . S
C404 C405 1.358 . S
C404 C409 1.371 . S
C405 H377 0.930 . S
C405 C404 1.358 . S
C405 C406 1.405 . S
C406 H378 0.932 . S
C406 C405 1.405 . S
C406 C407 1.383 . S
C407 C406 1.383 . S
C407 C408 1.393 . S
C408 H380 0.931 . S
C408 C407 1.393 . S
C408 C409 1.382 . S
C409 H379 0.929 . S
C409 C404 1.371 . S
C409 C408 1.382 . S
C410 N373 1.423 . S
C410 C411 1.362 . S
C410 C415 1.388 . S
C411 H381 0.929 1_554 S
C411 C410 1.362 . S
C411 C412 1.376 . S
C412 H383 0.931 1_554 S
C412 C411 1.376 . S
C412 C413 1.396 . S
C413 C412 1.396 . S
C413 C414 1.348 . S
C413 C431 1.472 . S
C414 H384 0.929 . S
C414 C413 1.348 . S
C414 C415 1.443 . S
C415 H382 0.932 . S
C415 C410 1.388 . S
C415 C414 1.443 . S
C416 N396 1.433 . S
C416 C417 1.363 1_554 S
C416 C421 1.374 . S
C417 H385 0.939 . S
C417 C416 1.363 1_556 S
C417 C418 1.385 . S
C418 H386 0.930 . S
C418 C417 1.385 . S
C418 C419 1.357 . S
C419 C418 1.357 . S
C419 C420 1.406 . S
C420 H387 0.929 . S
C420 C419 1.406 . S
C420 C421 1.379 1_556 S
C421 H388 0.940 . S
C421 C416 1.374 . S
C421 C420 1.379 1_554 S
C422 N396 1.435 . S
C422 C423 1.358 . S
C422 C427 1.371 . S
C423 H389 0.930 . S
C423 C422 1.358 . S
C423 C424 1.405 . S
C424 H390 0.932 . S
C424 C423 1.405 . S
C424 C425 1.383 . S
C425 C424 1.383 . S
C425 C426 1.393 . S
C426 H391 0.931 . S
C426 C425 1.393 . S
C426 C427 1.382 . S
C427 H392 0.929 . S
C427 C422 1.371 . S
C427 C426 1.382 . S
C428 N396 1.423 . S
C428 C429 1.362 . S
C428 C433 1.388 . S
C429 H393 0.929 1_554 S
C429 C428 1.362 . S
C429 C430 1.376 . S
C430 H394 0.931 1_554 S
C430 C429 1.376 . S
C430 C431 1.396 . S
C431 C413 1.472 . S
C431 C430 1.396 . S
C431 C432 1.348 . S
C432 H395 0.929 . S
C432 C431 1.348 . S
C432 C433 1.443 . S
C433 H397 0.932 . S
C433 C428 1.388 . S
C433 C432 1.443 . S
H434 C461 0.929 . S
N435 C460 1.433 . S
N435 C466 1.435 . S
N435 C472 1.423 . S
H436 C462 0.930 . S
H437 C465 0.931 . S
H438 C464 0.929 . S
H439 C467 0.930 . S
H440 C468 0.932 . S
H441 C471 0.929 . S
H442 C470 0.931 . S
H443 C473 0.929 . S
H444 C477 0.932 . S
H445 C474 0.931 . S
H446 C476 0.929 . S
H447 C479 0.929 . S
H448 C480 0.930 . S
H449 C482 0.929 . S
H450 C483 0.931 1_455 S
H451 C485 0.930 . S
H452 C486 0.932 . S
H453 C488 0.931 . S
H454 C489 0.929 . S
H455 C491 0.929 . S
H456 C492 0.931 . S
H457 C494 0.929 . S
N458 C478 1.433 . S
N458 C484 1.435 . S
N458 C490 1.423 1_655 S
H459 C495 0.932 . S
C460 N435 1.433 . S
C460 C461 1.363 . S
C460 C465 1.370 . S
C461 H434 0.929 . S
C461 C460 1.363 . S
C461 C462 1.385 . S
C462 H436 0.930 . S
C462 C461 1.385 . S
C462 C463 1.357 . S
C463 C462 1.357 . S
C463 C464 1.406 . S
C464 H438 0.929 . S
C464 C463 1.406 . S
C464 C465 1.391 . S
C465 H437 0.931 . S
C465 C460 1.370 . S
C465 C464 1.391 . S
C466 N435 1.435 . S
C466 C467 1.358 . S
C466 C471 1.371 . S
C467 H439 0.930 . S
C467 C466 1.358 . S
C467 C468 1.405 . S
C468 H440 0.932 . S
C468 C467 1.405 . S
C468 C469 1.383 . S
C469 C468 1.383 . S
C469 C470 1.393 . S
C470 H442 0.931 . S
C470 C469 1.393 . S
C470 C471 1.382 . S
C471 H441 0.929 . S
C471 C466 1.371 . S
C471 C470 1.382 . S
C472 N435 1.423 . S
C472 C473 1.362 . S
C472 C477 1.388 . S
C473 H443 0.929 . S
C473 C472 1.362 . S
C473 C474 1.376 . S
C474 H445 0.931 . S
C474 C473 1.376 . S
C474 C475 1.396 . S
C475 C474 1.396 . S
C475 C476 1.348 . S
C475 C493 1.472 . S
C476 H446 0.929 . S
C476 C475 1.348 . S
C476 C477 1.443 . S
C477 H444 0.932 . S
C477 C472 1.388 . S
C477 C476 1.443 . S
C478 N458 1.433 . S
C478 C479 1.363 . S
C478 C483 1.370 . S
C479 H447 0.929 . S
C479 C478 1.363 . S
C479 C480 1.385 . S
C480 H448 0.930 . S
C480 C479 1.385 . S
C480 C481 1.357 . S
C481 C480 1.357 . S
C481 C482 1.406 . S
C482 H449 0.929 . S
C482 C481 1.406 . S
C482 C483 1.391 . S
C483 H450 0.931 1_655 S
C483 C478 1.370 . S
C483 C482 1.391 . S
C484 N458 1.435 . S
C484 C485 1.358 . S
C484 C489 1.371 . S
C485 H451 0.930 . S
C485 C484 1.358 . S
C485 C486 1.405 . S
C486 H452 0.932 . S
C486 C485 1.405 . S
C486 C487 1.383 . S
C487 C486 1.383 . S
C487 C488 1.393 . S
C488 H453 0.931 . S
C488 C487 1.393 . S
C488 C489 1.382 . S
C489 H454 0.929 . S
C489 C484 1.371 . S
C489 C488 1.382 . S
C490 N458 1.423 1_455 S
C490 C491 1.362 . S
C490 C495 1.388 . S
C491 H455 0.929 . S
C491 C490 1.362 . S
C491 C492 1.376 . S
C492 H456 0.931 . S
C492 C491 1.376 . S
C492 C493 1.396 . S
C493 C475 1.472 . S
C493 C492 1.396 . S
C493 C494 1.348 . S
C494 H457 0.929 . S
C494 C493 1.348 . S
C494 C495 1.443 . S
C495 H459 0.932 . S
C495 C490 1.388 . S
C495 C494 1.443 . S
C496 O523 1.312 . S
C496 O524 1.208 . S
C497 O518 1.331 1_655 S
C497 O521 1.244 . S
C498 O520 1.264 1_655 S
C498 O522 1.273 . S
Mg499 O501 1.936 . S
Mg499 O508 2.081 . S
Mg499 O510 2.023 . S
Mg499 O514 2.031 . S
Mg499 O523 2.291 . S
Mg500 O501 1.963 . S
Mg500 O511 1.942 . S
Mg500 O512 1.955 . S
Mg500 O519 1.986 . S
O501 Mg499 1.936 . S
O501 Mg500 1.963 . S
O501 Mg502 1.915 . S
Mg502 O501 1.915 . S
Mg502 O503 1.915 . S
Mg502 O507 2.013 . S
Mg502 O513 2.114 . S
Mg502 O517 2.013 . S
Mg502 O523 2.114 . S
O503 Mg502 1.915 . S
O503 Mg504 1.936 . S
O503 Mg505 1.963 1_455 S
Mg504 O503 1.936 . S
Mg504 O513 2.291 . S
Mg504 O518 2.081 . S
Mg504 O520 2.023 . S
Mg504 O524 2.031 . S
Mg505 O503 1.963 1_655 S
Mg505 O509 1.986 . S
Mg505 O521 1.942 . S
Mg505 O522 1.955 . S
C506 O517 1.191 . S
C506 O519 1.307 . S
O507 Mg502 2.013 . S
O507 C526 1.191 . S
O508 Mg499 2.081 . S
O508 C516 1.331 . S
O509 Mg505 1.986 . S
O509 C526 1.307 1_655 S
O510 Mg499 2.023 . S
O510 C525 1.264 . S
O511 Mg500 1.942 . S
O511 C516 1.244 . S
O512 Mg500 1.955 . S
O512 C525 1.273 . S
O513 Mg502 2.114 . S
O513 Mg504 2.291 . S
O513 C515 1.312 . S
O514 Mg499 2.031 . S
O514 C515 1.208 . S
C515 O513 1.312 . S
C515 O514 1.208 . S
C516 O508 1.331 . S
C516 O511 1.244 . S
O517 Mg502 2.013 . S
O517 C506 1.191 . S
O518 C497 1.331 1_455 S
O518 Mg504 2.081 . S
O519 Mg500 1.986 . S
O519 C506 1.307 . S
O520 C498 1.264 1_455 S
O520 Mg504 2.023 . S
O521 C497 1.244 . S
O521 Mg505 1.942 . S
O522 C498 1.273 . S
O522 Mg505 1.955 . S
O523 C496 1.312 . S
O523 Mg499 2.291 . S
O523 Mg502 2.114 . S
O524 C496 1.208 . S
O524 Mg504 2.031 . S
C525 O510 1.264 . S
C525 O512 1.273 . S
C526 O507 1.191 . S
C526 O509 1.307 1_455 S
C527 O554 1.312 . S
C527 O555 1.208 . S
C528 O549 1.331 . S
C528 O552 1.244 . S
C529 O551 1.264 . S
C529 O553 1.273 . S
Mg530 O532 1.936 . S
Mg530 O539 2.081 . S
Mg530 O541 2.023 . S
Mg530 O545 2.031 . S
Mg530 O554 2.291 . S
Mg531 O532 1.963 . S
Mg531 O542 1.942 . S
Mg531 O543 1.955 . S
Mg531 O550 1.986 . S
O532 Mg530 1.936 . S
O532 Mg531 1.963 . S
O532 Mg533 1.915 . S
Mg533 O532 1.915 . S
Mg533 O534 1.915 . S
Mg533 O538 2.013 . S
Mg533 O544 2.114 . S
Mg533 O548 2.013 . S
Mg533 O554 2.114 . S
O534 Mg533 1.915 . S
O534 Mg535 1.936 . S
O534 Mg536 1.963 . S
Mg535 O534 1.936 . S
Mg535 O544 2.291 . S
Mg535 O549 2.081 . S
Mg535 O551 2.023 . S
Mg535 O555 2.031 . S
Mg536 O534 1.963 . S
Mg536 O540 1.986 . S
Mg536 O552 1.942 . S
Mg536 O553 1.955 . S
C537 O548 1.191 . S
C537 O550 1.307 . S
O538 Mg533 2.013 . S
O538 C557 1.191 . S
O539 Mg530 2.081 . S
O539 C547 1.331 . S
O540 Mg536 1.986 . S
O540 C557 1.307 . S
O541 Mg530 2.023 . S
O541 C556 1.264 . S
O542 Mg531 1.942 . S
O542 C547 1.244 . S
O543 Mg531 1.955 . S
O543 C556 1.273 . S
O544 Mg533 2.114 . S
O544 Mg535 2.291 . S
O544 C546 1.312 . S
O545 Mg530 2.031 . S
O545 C546 1.208 . S
C546 O544 1.312 . S
C546 O545 1.208 . S
C547 O539 1.331 . S
C547 O542 1.244 . S
O548 Mg533 2.013 . S
O548 C537 1.191 . S
O549 C528 1.331 . S
O549 Mg535 2.081 . S
O550 Mg531 1.986 . S
O550 C537 1.307 . S
O551 C529 1.264 . S
O551 Mg535 2.023 . S
O552 C528 1.244 . S
O552 Mg536 1.942 . S
O553 C529 1.273 . S
O553 Mg536 1.955 . S
O554 C527 1.312 . S
O554 Mg530 2.291 . S
O554 Mg533 2.114 . S
O555 C527 1.208 . S
O555 Mg535 2.031 . S
C556 O541 1.264 . S
C556 O543 1.273 . S
C557 O538 1.191 . S
C557 O540 1.307 . S
C558 O585 1.312 . S
C558 O586 1.208 . S
C559 O580 1.331 . S
C559 O583 1.244 . S
C560 O582 1.264 . S
C560 O584 1.273 . S
Mg561 O563 1.936 . S
Mg561 O570 2.081 . S
Mg561 O572 2.023 . S
Mg561 O576 2.031 . S
Mg561 O585 2.291 . S
Mg562 O563 1.963 . S
Mg562 O573 1.942 . S
Mg562 O574 1.955 . S
Mg562 O581 1.986 . S
O563 Mg561 1.936 . S
O563 Mg562 1.963 . S
O563 Mg564 1.915 . S
Mg564 O563 1.915 . S
Mg564 O565 1.915 . S
Mg564 O569 2.013 . S
Mg564 O575 2.114 . S
Mg564 O579 2.013 . S
Mg564 O585 2.114 . S
O565 Mg564 1.915 . S
O565 Mg566 1.936 . S
O565 Mg567 1.963 . S
Mg566 O565 1.936 . S
Mg566 O575 2.291 . S
Mg566 O580 2.081 . S
Mg566 O582 2.023 . S
Mg566 O586 2.031 . S
Mg567 O565 1.963 . S
Mg567 O571 1.986 . S
Mg567 O583 1.942 . S
Mg567 O584 1.955 . S
C568 O579 1.191 . S
C568 O581 1.307 . S
O569 Mg564 2.013 . S
O569 C588 1.191 . S
O570 Mg561 2.081 . S
O570 C578 1.331 . S
O571 Mg567 1.986 . S
O571 C588 1.307 . S
O572 Mg561 2.023 . S
O572 C587 1.264 . S
O573 Mg562 1.942 . S
O573 C578 1.244 . S
O574 Mg562 1.955 . S
O574 C587 1.273 . S
O575 Mg564 2.114 . S
O575 Mg566 2.291 . S
O575 C577 1.312 . S
O576 Mg561 2.031 . S
O576 C577 1.208 . S
C577 O575 1.312 . S
C577 O576 1.208 . S
C578 O570 1.331 . S
C578 O573 1.244 . S
O579 Mg564 2.013 . S
O579 C568 1.191 . S
O580 C559 1.331 . S
O580 Mg566 2.081 . S
O581 Mg562 1.986 . S
O581 C568 1.307 . S
O582 C560 1.264 . S
O582 Mg566 2.023 . S
O583 C559 1.244 . S
O583 Mg567 1.942 . S
O584 C560 1.273 . S
O584 Mg567 1.955 . S
O585 C558 1.312 . S
O585 Mg561 2.291 . S
O585 Mg564 2.114 . S
O586 C558 1.208 . S
O586 Mg566 2.031 . S
C587 O572 1.264 . S
C587 O574 1.273 . S
C588 O569 1.191 . S
C588 O571 1.307 . S
C589 O616 1.312 . S
C589 O617 1.208 . S
C590 O611 1.331 . S
C590 O614 1.244 . S
C591 O613 1.264 . S
C591 O615 1.273 . S
Mg592 O594 1.936 . S
Mg592 O601 2.081 . S
Mg592 O603 2.023 . S
Mg592 O607 2.031 . S
Mg592 O616 2.291 . S
Mg593 O594 1.963 1_655 S
Mg593 O604 1.942 . S
Mg593 O605 1.955 . S
Mg593 O612 1.986 . S
O594 Mg592 1.936 . S
O594 Mg593 1.963 1_455 S
O594 Mg595 1.915 . S
Mg595 O594 1.915 . S
Mg595 O596 1.915 . S
Mg595 O600 2.013 . S
Mg595 O606 2.114 . S
Mg595 O610 2.013 . S
Mg595 O616 2.114 . S
O596 Mg595 1.915 . S
O596 Mg597 1.936 . S
O596 Mg598 1.963 . S
Mg597 O596 1.936 . S
Mg597 O606 2.291 . S
Mg597 O611 2.081 . S
Mg597 O613 2.023 . S
Mg597 O617 2.031 . S
Mg598 O596 1.963 . S
Mg598 O602 1.986 . S
Mg598 O614 1.942 . S
Mg598 O615 1.955 . S
C599 O610 1.191 . S
C599 O612 1.307 1_455 S
O600 Mg595 2.013 . S
O600 C619 1.191 . S
O601 Mg592 2.081 . S
O601 C609 1.331 1_455 S
O602 Mg598 1.986 . S
O602 C619 1.307 . S
O603 Mg592 2.023 . S
O603 C618 1.264 1_455 S
O604 Mg593 1.942 . S
O604 C609 1.244 . S
O605 Mg593 1.955 . S
O605 C618 1.273 . S
O606 Mg595 2.114 . S
O606 Mg597 2.291 . S
O606 C608 1.312 . S
O607 Mg592 2.031 . S
O607 C608 1.208 . S
C608 O606 1.312 . S
C608 O607 1.208 . S
C609 O601 1.331 1_655 S
C609 O604 1.244 . S
O610 Mg595 2.013 . S
O610 C599 1.191 . S
O611 C590 1.331 . S
O611 Mg597 2.081 . S
O612 Mg593 1.986 . S
O612 C599 1.307 1_655 S
O613 C591 1.264 . S
O613 Mg597 2.023 . S
O614 C590 1.244 . S
O614 Mg598 1.942 . S
O615 C591 1.273 . S
O615 Mg598 1.955 . S
O616 C589 1.312 . S
O616 Mg592 2.291 . S
O616 Mg595 2.114 . S
O617 C589 1.208 . S
O617 Mg597 2.031 . S
C618 O603 1.264 1_655 S
C618 O605 1.273 . S
C619 O600 1.191 . S
C619 O602 1.307 . S
H620 C628 0.950 . S
H621 C633 0.950 . S
H622 C630 0.950 . S
H623 C632 0.950 . S
H624 C634 0.950 . S
H625 C636 0.950 . S
H626 C638 0.950 . S
H627 C639 0.950 . S
C628 H620 0.950 . S
C628 C629 1.386 . S
C628 C630 1.391 . S
C629 C628 1.386 . S
C629 C633 1.393 . S
C630 H622 0.950 . S
C630 C628 1.391 . S
C630 C631 1.400 . S
C631 C630 1.400 . S
C631 C632 1.398 . S
C631 C637 1.491 . S
C632 H623 0.950 . S
C632 C631 1.398 . S
C632 C633 1.391 . S
C633 H621 0.950 . S
C633 C629 1.393 . S
C633 C632 1.391 . S
C634 H624 0.950 . S
C634 C635 1.386 . S
C634 C636 1.391 . S
C635 C634 1.386 . S
C635 C639 1.393 . S
C636 H625 0.950 . S
C636 C634 1.391 . S
C636 C637 1.400 . S
C637 C631 1.491 . S
C637 C636 1.400 . S
C637 C638 1.398 . S
C638 H626 0.950 . S
C638 C637 1.398 . S
C638 C639 1.391 . S
C639 H627 0.950 . S
C639 C635 1.393 . S
C639 C638 1.391 . S
H640 C648 0.950 . S
H641 C653 0.950 . S
H642 C650 0.950 . S
H643 C652 0.950 . S
H644 C654 0.950 . S
H645 C656 0.950 . S
H646 C658 0.950 . S
H647 C659 0.950 . S
C648 H640 0.950 . S
C648 C649 1.386 . S
C648 C650 1.391 . S
C649 C648 1.386 . S
C649 C653 1.393 1_565 S
C650 H642 0.950 . S
C650 C648 1.391 . S
C650 C651 1.400 1_565 S
C651 C650 1.400 1_545 S
C651 C652 1.398 . S
C651 C657 1.491 . S
C652 H643 0.950 . S
C652 C651 1.398 . S
C652 C653 1.391 . S
C653 H641 0.950 . S
C653 C649 1.393 1_545 S
C653 C652 1.391 . S
C654 H644 0.950 . S
C654 C655 1.386 . S
C654 C656 1.391 . S
C655 C654 1.386 . S
C655 C659 1.393 . S
C656 H645 0.950 . S
C656 C654 1.391 . S
C656 C657 1.400 . S
C657 C651 1.491 . S
C657 C656 1.400 . S
C657 C658 1.398 . S
C658 H646 0.950 . S
C658 C657 1.398 . S
C658 C659 1.391 . S
C659 H647 0.950 . S
C659 C655 1.393 . S
C659 C658 1.391 . S
H660 C668 0.950 . S
H661 C673 0.950 . S
H662 C670 0.950 . S
H663 C672 0.950 . S
H664 C674 0.950 . S
H665 C676 0.950 . S
H666 C678 0.950 . S
H667 C679 0.950 . S
C668 H660 0.950 . S
C668 C669 1.386 . S
C668 C670 1.391 . S
C669 C668 1.386 . S
C669 C673 1.393 . S
C670 H662 0.950 . S
C670 C668 1.391 . S
C670 C671 1.400 . S
C671 C670 1.400 . S
C671 C672 1.398 . S
C671 C677 1.491 . S
C672 H663 0.950 . S
C672 C671 1.398 . S
C672 C673 1.391 . S
C673 H661 0.950 . S
C673 C669 1.393 . S
C673 C672 1.391 . S
C674 H664 0.950 . S
C674 C675 1.386 . S
C674 C676 1.391 . S
C675 C674 1.386 . S
C675 C679 1.393 . S
C676 H665 0.950 . S
C676 C674 1.391 . S
C676 C677 1.400 . S
C677 C671 1.491 . S
C677 C676 1.400 . S
C677 C678 1.398 . S
C678 H666 0.950 . S
C678 C677 1.398 . S
C678 C679 1.391 . S
C679 H667 0.950 . S
C679 C675 1.393 . S
C679 C678 1.391 . S
H680 C688 0.950 1_565 S
H681 C693 0.950 . S
H682 C690 0.950 . S
H683 C692 0.950 . S
H684 C694 0.950 . S
H685 C696 0.950 . S
H686 C698 0.950 . S
H687 C699 0.950 . S
C688 H680 0.950 1_545 S
C688 C689 1.386 . S
C688 C690 1.391 1_545 S
C689 C688 1.386 . S
C689 C693 1.393 . S
C690 H682 0.950 . S
C690 C688 1.391 1_565 S
C690 C691 1.400 . S
C691 C690 1.400 . S
C691 C692 1.398 1_565 S
C691 C697 1.491 . S
C692 H683 0.950 . S
C692 C691 1.398 1_545 S
C692 C693 1.391 . S
C693 H681 0.950 . S
C693 C689 1.393 . S
C693 C692 1.391 . S
C694 H684 0.950 . S
C694 C695 1.386 . S
C694 C696 1.391 . S
C695 C694 1.386 . S
C695 C699 1.393 . S
C696 H685 0.950 . S
C696 C694 1.391 . S
C696 C697 1.400 . S
C697 C691 1.491 . S
C697 C696 1.400 . S
C697 C698 1.398 . S
C698 H686 0.950 . S
C698 C697 1.398 . S
C698 C699 1.391 . S
C699 H687 0.950 . S
C699 C695 1.393 . S
C699 C698 1.391 . S
H700 C708 0.950 . S
H701 C713 0.950 . S
H702 C710 0.950 . S
H703 C712 0.950 . S
H704 C714 0.950 . S
H705 C716 0.950 . S
H706 C718 0.950 . S
H707 C719 0.950 . S
C708 H700 0.950 . S
C708 C709 1.386 . S
C708 C710 1.391 . S
C709 C708 1.386 . S
C709 C713 1.393 . S
C710 H702 0.950 . S
C710 C708 1.391 . S
C710 C711 1.400 . S
C711 C710 1.400 . S
C711 C712 1.398 . S
C711 C717 1.491 . S
C712 H703 0.950 . S
C712 C711 1.398 . S
C712 C713 1.391 . S
C713 H701 0.950 . S
C713 C709 1.393 . S
C713 C712 1.391 . S
C714 H704 0.950 . S
C714 C715 1.386 . S
C714 C716 1.391 . S
C715 C714 1.386 . S
C715 C719 1.393 . S
C716 H705 0.950 . S
C716 C714 1.391 . S
C716 C717 1.400 . S
C717 C711 1.491 . S
C717 C716 1.400 . S
C717 C718 1.398 . S
C718 H706 0.950 . S
C718 C717 1.398 . S
C718 C719 1.391 . S
C719 H707 0.950 . S
C719 C715 1.393 . S
C719 C718 1.391 . S
H720 C728 0.950 . S
H721 C733 0.950 . S
H722 C730 0.950 . S
H723 C732 0.950 . S
H724 C734 0.950 . S
H725 C736 0.950 . S
H726 C738 0.950 . S
H727 C739 0.950 . S
C728 H720 0.950 . S
C728 C729 1.386 . S
C728 C730 1.391 . S
C729 C728 1.386 . S
C729 C733 1.393 . S
C730 H722 0.950 . S
C730 C728 1.391 . S
C730 C731 1.400 1_565 S
C731 C730 1.400 1_545 S
C731 C732 1.398 . S
C731 C737 1.491 . S
C732 H723 0.950 . S
C732 C731 1.398 . S
C732 C733 1.391 1_545 S
C733 H721 0.950 . S
C733 C729 1.393 . S
C733 C732 1.391 1_565 S
C734 H724 0.950 . S
C734 C735 1.386 . S
C734 C736 1.391 . S
C735 C734 1.386 . S
C735 C739 1.393 . S
C736 H725 0.950 . S
C736 C734 1.391 . S
C736 C737 1.400 . S
C737 C731 1.491 . S
C737 C736 1.400 . S
C737 C738 1.398 . S
C738 H726 0.950 . S
C738 C737 1.398 . S
C738 C739 1.391 . S
C739 H727 0.950 . S
C739 C735 1.393 . S
C739 C738 1.391 . S
H740 C748 0.950 . S
H741 C753 0.950 . S
H742 C750 0.950 . S
H743 C752 0.950 . S
H744 C754 0.950 . S
H745 C756 0.950 . S
H746 C758 0.950 . S
H747 C759 0.950 . S
C748 H740 0.950 . S
C748 C749 1.386 . S
C748 C750 1.391 . S
C749 C748 1.386 . S
C749 C753 1.393 . S
C750 H742 0.950 . S
C750 C748 1.391 . S
C750 C751 1.400 . S
C751 C750 1.400 . S
C751 C752 1.398 . S
C751 C757 1.491 . S
C752 H743 0.950 . S
C752 C751 1.398 . S
C752 C753 1.391 . S
C753 H741 0.950 . S
C753 C749 1.393 . S
C753 C752 1.391 . S
C754 H744 0.950 . S
C754 C755 1.386 . S
C754 C756 1.391 . S
C755 C754 1.386 . S
C755 C759 1.393 . S
C756 H745 0.950 . S
C756 C754 1.391 . S
C756 C757 1.400 . S
C757 C751 1.491 . S
C757 C756 1.400 . S
C757 C758 1.398 . S
C758 H746 0.950 . S
C758 C757 1.398 . S
C758 C759 1.391 . S
C759 H747 0.950 . S
C759 C755 1.393 . S
C759 C758 1.391 . S
H760 C768 0.950 . S
H761 C773 0.950 . S
H762 C770 0.950 1_565 S
H763 C772 0.950 . S
H764 C774 0.950 . S
H765 C776 0.950 . S
H766 C778 0.950 . S
H767 C779 0.950 . S
C768 H760 0.950 . S
C768 C769 1.386 . S
C768 C770 1.391 . S
C769 C768 1.386 . S
C769 C773 1.393 . S
C770 H762 0.950 1_545 S
C770 C768 1.391 . S
C770 C771 1.400 . S
C771 C770 1.400 . S
C771 C772 1.398 . S
C771 C777 1.491 1_545 S
C772 H763 0.950 . S
C772 C771 1.398 . S
C772 C773 1.391 . S
C773 H761 0.950 . S
C773 C769 1.393 . S
C773 C772 1.391 . S
C774 H764 0.950 . S
C774 C775 1.386 . S
C774 C776 1.391 . S
C775 C774 1.386 . S
C775 C779 1.393 . S
C776 H765 0.950 . S
C776 C774 1.391 . S
C776 C777 1.400 . S
C777 C771 1.491 1_565 S
C777 C776 1.400 . S
C777 C778 1.398 . S
C778 H766 0.950 . S
C778 C777 1.398 . S
C778 C779 1.391 . S
C779 H767 0.950 . S
C779 C775 1.393 . S
C779 C778 1.391 . S
H780 C788 0.950 . S
H781 C793 0.950 . S
H782 C790 0.950 . S
H783 C792 0.950 . S
H784 C794 0.950 . S
H785 C796 0.950 . S
H786 C798 0.950 . S
H787 C799 0.950 . S
C788 H780 0.950 . S
C788 C789 1.386 . S
C788 C790 1.391 . S
C789 C788 1.386 . S
C789 C793 1.393 . S
C790 H782 0.950 . S
C790 C788 1.391 . S
C790 C791 1.400 . S
C791 C790 1.400 . S
C791 C792 1.398 . S
C791 C797 1.491 . S
C792 H783 0.950 . S
C792 C791 1.398 . S
C792 C793 1.391 . S
C793 H781 0.950 . S
C793 C789 1.393 . S
C793 C792 1.391 . S
C794 H784 0.950 . S
C794 C795 1.386 . S
C794 C796 1.391 . S
C795 C794 1.386 . S
C795 C799 1.393 . S
C796 H785 0.950 . S
C796 C794 1.391 . S
C796 C797 1.400 . S
C797 C791 1.491 . S
C797 C796 1.400 . S
C797 C798 1.398 . S
C798 H786 0.950 . S
C798 C797 1.398 . S
C798 C799 1.391 . S
C799 H787 0.950 . S
C799 C795 1.393 . S
C799 C798 1.391 . S
H800 C808 0.950 . S
H801 C813 0.950 . S
H802 C810 0.950 . S
H803 C812 0.950 . S
H804 C814 0.950 . S
H805 C816 0.950 . S
H806 C818 0.950 . S
H807 C819 0.950 . S
C808 H800 0.950 . S
C808 C809 1.386 . S
C808 C810 1.391 . S
C809 C808 1.386 . S
C809 C813 1.393 . S
C810 H802 0.950 . S
C810 C808 1.391 . S
C810 C811 1.400 . S
C811 C810 1.400 . S
C811 C812 1.398 . S
C811 C817 1.491 . S
C812 H803 0.950 . S
C812 C811 1.398 . S
C812 C813 1.391 . S
C813 H801 0.950 . S
C813 C809 1.393 . S
C813 C812 1.391 . S
C814 H804 0.950 . S
C814 C815 1.386 . S
C814 C816 1.391 . S
C815 C814 1.386 . S
C815 C819 1.393 . S
C816 H805 0.950 . S
C816 C814 1.391 . S
C816 C817 1.400 . S
C817 C811 1.491 . S
C817 C816 1.400 . S
C817 C818 1.398 . S
C818 H806 0.950 . S
C818 C817 1.398 . S
C818 C819 1.391 . S
C819 H807 0.950 . S
C819 C815 1.393 . S
C819 C818 1.391 . S
H820 C828 0.950 . S
H821 C833 0.950 . S
H822 C830 0.950 . S
H823 C832 0.950 . S
H824 C834 0.950 . S
H825 C836 0.950 . S
H826 C838 0.950 . S
H827 C839 0.950 . S
C828 H820 0.950 . S
C828 C829 1.386 . S
C828 C830 1.391 . S
C829 C828 1.386 . S
C829 C833 1.393 . S
C830 H822 0.950 . S
C830 C828 1.391 . S
C830 C831 1.400 . S
C831 C830 1.400 . S
C831 C832 1.398 . S
C831 C837 1.491 . S
C832 H823 0.950 . S
C832 C831 1.398 . S
C832 C833 1.391 . S
C833 H821 0.950 . S
C833 C829 1.393 . S
C833 C832 1.391 . S
C834 H824 0.950 . S
C834 C835 1.386 . S
C834 C836 1.391 1_455 S
C835 C834 1.386 . S
C835 C839 1.393 1_455 S
C836 H825 0.950 . S
C836 C834 1.391 1_655 S
C836 C837 1.400 . S
C837 C831 1.491 . S
C837 C836 1.400 . S
C837 C838 1.398 . S
C838 H826 0.950 . S
C838 C837 1.398 . S
C838 C839 1.391 . S
C839 H827 0.950 . S
C839 C835 1.393 1_655 S
C839 C838 1.391 . S
H840 C848 0.950 . S
H841 C853 0.950 . S
H842 C850 0.950 . S
H843 C852 0.950 . S
H844 C854 0.950 . S
H845 C856 0.950 . S
H846 C858 0.950 . S
H847 C859 0.949 1_455 S
C848 H840 0.950 . S
C848 C849 1.386 . S
C848 C850 1.391 . S
C849 C848 1.386 . S
C849 C853 1.393 . S
C850 H842 0.950 . S
C850 C848 1.391 . S
C850 C851 1.400 . S
C851 C850 1.400 . S
C851 C852 1.398 . S
C851 C857 1.491 . S
C852 H843 0.950 . S
C852 C851 1.398 . S
C852 C853 1.391 . S
C853 H841 0.950 . S
C853 C849 1.393 . S
C853 C852 1.391 . S
C854 H844 0.950 . S
C854 C855 1.386 . S
C854 C856 1.391 1_455 S
C855 C854 1.386 . S
C855 C859 1.393 1_455 S
C856 H845 0.950 . S
C856 C854 1.391 1_655 S
C856 C857 1.400 . S
C857 C851 1.491 . S
C857 C856 1.400 . S
C857 C858 1.398 . S
C858 H846 0.950 . S
C858 C857 1.398 . S
C858 C859 1.391 . S
C859 H847 0.949 1_655 S
C859 C855 1.393 1_655 S
C859 C858 1.391 . S
H860 C868 0.950 . S
H861 C873 0.950 . S
H862 C870 0.950 . S
H863 C872 0.950 . S
H864 C874 0.950 . S
H865 C876 0.950 . S
H866 C878 0.950 . S
H867 C879 0.950 . S
C868 H860 0.950 . S
C868 C869 1.386 . S
C868 C870 1.391 . S
C869 C868 1.386 . S
C869 C873 1.393 . S
C870 H862 0.950 . S
C870 C868 1.391 . S
C870 C871 1.400 . S
C871 C870 1.400 . S
C871 C872 1.398 . S
C871 C877 1.491 . S
C872 H863 0.950 . S
C872 C871 1.398 . S
C872 C873 1.391 . S
C873 H861 0.950 . S
C873 C869 1.393 . S
C873 C872 1.391 . S
C874 H864 0.950 . S
C874 C875 1.386 . S
C874 C876 1.391 . S
C875 C874 1.386 . S
C875 C879 1.393 . S
C876 H865 0.950 . S
C876 C874 1.391 . S
C876 C877 1.400 . S
C877 C871 1.491 . S
C877 C876 1.400 . S
C877 C878 1.398 . S
C878 H866 0.950 . S
C878 C877 1.398 . S
C878 C879 1.391 . S
C879 H867 0.950 . S
C879 C875 1.393 . S
C879 C878 1.391 . S
H880 C888 0.950 . S
H881 C893 0.950 . S
H882 C890 0.950 . S
H883 C892 0.950 . S
H884 C894 0.950 . S
H885 C896 0.950 . S
H886 C898 0.950 . S
H887 C899 0.950 . S
C888 H880 0.950 . S
C888 C889 1.386 . S
C888 C890 1.391 . S
C889 C888 1.386 . S
C889 C893 1.393 . S
C890 H882 0.950 . S
C890 C888 1.391 . S
C890 C891 1.400 . S
C891 C890 1.400 . S
C891 C892 1.398 . S
C891 C897 1.491 . S
C892 H883 0.950 . S
C892 C891 1.398 . S
C892 C893 1.391 . S
C893 H881 0.950 . S
C893 C889 1.393 . S
C893 C892 1.391 . S
C894 H884 0.950 . S
C894 C895 1.386 . S
C894 C896 1.391 . S
C895 C894 1.386 . S
C895 C899 1.393 1_455 S
C896 H885 0.950 . S
C896 C894 1.391 . S
C896 C897 1.400 1_455 S
C897 C891 1.491 . S
C897 C896 1.400 1_655 S
C897 C898 1.398 . S
C898 H886 0.950 . S
C898 C897 1.398 . S
C898 C899 1.391 . S
C899 H887 0.950 . S
C899 C895 1.393 1_655 S
C899 C898 1.391 . S
H900 C908 0.950 . S
H901 C913 0.950 . S
H902 C910 0.950 . S
H903 C912 0.950 . S
H904 C914 0.950 . S
H905 C916 0.950 . S
H906 C918 0.950 . S
H907 C919 0.950 . S
C908 H900 0.950 . S
C908 C909 1.386 . S
C908 C910 1.391 . S
C909 C908 1.386 . S
C909 C913 1.393 . S
C910 H902 0.950 . S
C910 C908 1.391 . S
C910 C911 1.400 . S
C911 C910 1.400 . S
C911 C912 1.398 . S
C911 C917 1.491 . S
C912 H903 0.950 . S
C912 C911 1.398 . S
C912 C913 1.391 . S
C913 H901 0.950 . S
C913 C909 1.393 . S
C913 C912 1.391 . S
C914 H904 0.950 . S
C914 C915 1.386 . S
C914 C916 1.391 . S
C915 C914 1.386 . S
C915 C919 1.393 1_455 S
C916 H905 0.950 . S
C916 C914 1.391 . S
C916 C917 1.400 1_455 S
C917 C911 1.491 . S
C917 C916 1.400 1_655 S
C917 C918 1.398 . S
C918 H906 0.950 . S
C918 C917 1.398 . S
C918 C919 1.391 . S
C919 H907 0.950 . S
C919 C915 1.393 1_655 S
C919 C918 1.391 . S
H920 C928 0.950 . S
H921 C933 0.950 . S
H922 C930 0.950 . S
H923 C932 0.950 . S
H924 C934 0.950 . S
H925 C936 0.950 . S
H926 C938 0.950 . S
H927 C939 0.950 . S
C928 H920 0.950 . S
C928 C929 1.386 . S
C928 C930 1.391 . S
C929 C928 1.386 . S
C929 C933 1.393 . S
C930 H922 0.950 . S
C930 C928 1.391 . S
C930 C931 1.400 . S
C931 C930 1.400 . S
C931 C932 1.398 . S
C931 C937 1.491 . S
C932 H923 0.950 . S
C932 C931 1.398 . S
C932 C933 1.391 . S
C933 H921 0.950 . S
C933 C929 1.393 . S
C933 C932 1.391 . S
C934 H924 0.950 . S
C934 C935 1.386 . S
C934 C936 1.391 . S
C935 C934 1.386 . S
C935 C939 1.393 . S
C936 H925 0.950 . S
C936 C934 1.391 . S
C936 C937 1.400 . S
C937 C931 1.491 . S
C937 C936 1.400 . S
C937 C938 1.398 . S
C938 H926 0.950 . S
C938 C937 1.398 . S
C938 C939 1.391 . S
C939 H927 0.950 . S
C939 C935 1.393 . S
C939 C938 1.391 . S
H940 C948 0.950 . S
H941 C953 0.950 . S
H942 C950 0.950 . S
H943 C952 0.950 . S
H944 C954 0.950 . S
H945 C956 0.950 . S
H946 C958 0.950 . S
H947 C959 0.950 . S
C948 H940 0.950 . S
C948 C949 1.386 . S
C948 C950 1.391 . S
C949 C948 1.386 . S
C949 C953 1.393 . S
C950 H942 0.950 . S
C950 C948 1.391 . S
C950 C951 1.400 . S
C951 C950 1.400 . S
C951 C952 1.398 . S
C951 C957 1.491 . S
C952 H943 0.950 . S
C952 C951 1.398 . S
C952 C953 1.391 . S
C953 H941 0.950 . S
C953 C949 1.393 . S
C953 C952 1.391 . S
C954 H944 0.950 . S
C954 C955 1.386 . S
C954 C956 1.391 . S
C955 C954 1.386 . S
C955 C959 1.393 . S
C956 H945 0.950 . S
C956 C954 1.391 . S
C956 C957 1.400 . S
C957 C951 1.491 . S
C957 C956 1.400 . S
C957 C958 1.398 . S
C958 H946 0.950 . S
C958 C957 1.398 . S
C958 C959 1.391 . S
C959 H947 0.950 . S
C959 C955 1.393 . S
C959 C958 1.391 . S
H960 C968 0.950 . S
H961 C973 0.950 . S
H962 C970 0.950 . S
H963 C972 0.950 . S
H964 C974 0.950 1_455 S
H965 C976 0.950 1_455 S
H966 C978 0.950 . S
H967 C979 0.950 . S
C968 H960 0.950 . S
C968 C969 1.386 . S
C968 C970 1.391 . S
C969 C968 1.386 . S
C969 C973 1.393 . S
C970 H962 0.950 . S
C970 C968 1.391 . S
C970 C971 1.400 . S
C971 C970 1.400 . S
C971 C972 1.398 . S
C971 C977 1.491 . S
C972 H963 0.950 . S
C972 C971 1.398 . S
C972 C973 1.391 . S
C973 H961 0.950 . S
C973 C969 1.393 . S
C973 C972 1.391 . S
C974 H964 0.950 1_655 S
C974 C975 1.386 . S
C974 C976 1.391 . S
C975 C974 1.386 . S
C975 C979 1.393 . S
C976 H965 0.950 1_655 S
C976 C974 1.391 . S
C976 C977 1.400 . S
C977 C971 1.491 . S
C977 C976 1.400 . S
C977 C978 1.398 . S
C978 H966 0.950 . S
C978 C977 1.398 . S
C978 C979 1.391 . S
C979 H967 0.950 . S
C979 C975 1.393 . S
C979 C978 1.391 . S
H980 C988 0.950 . S
H981 C993 0.950 . S
H982 C990 0.950 . S
H983 C992 0.950 . S
H984 C994 0.950 . S
H985 C996 0.950 . S
H986 C998 0.950 . S
H987 C999 0.950 . S
C988 H980 0.950 . S
C988 C989 1.386 . S
C988 C990 1.391 . S
C989 C988 1.386 . S
C989 C993 1.393 . S
C990 H982 0.950 . S
C990 C988 1.391 . S
C990 C991 1.400 . S
C991 C990 1.400 . S
C991 C992 1.398 . S
C991 C997 1.491 . S
C992 H983 0.950 . S
C992 C991 1.398 . S
C992 C993 1.391 . S
C993 H981 0.950 . S
C993 C989 1.393 . S
C993 C992 1.391 . S
C994 H984 0.950 . S
C994 C995 1.386 . S
C994 C996 1.391 . S
C995 C994 1.386 . S
C995 C999 1.393 . S
C996 H985 0.950 . S
C996 C994 1.391 . S
C996 C997 1.400 . S
C997 C991 1.491 . S
C997 C996 1.400 . S
C997 C998 1.398 . S
C998 H986 0.950 . S
C998 C997 1.398 . S
C998 C999 1.391 . S
C999 H987 0.950 . S
C999 C995 1.393 . S
C999 C998 1.391 . S
H1000 C1008 0.950 . S
H1001 C1013 0.950 . S
H1002 C1010 0.950 . S
H1003 C1012 0.950 . S
H1004 C1014 0.950 . S
H1005 C1016 0.950 . S
H1006 C1018 0.950 . S
H1007 C1019 0.950 . S
C1008 H1000 0.950 . S
C1008 C1009 1.386 . S
C1008 C1010 1.391 . S
C1009 C1008 1.386 . S
C1009 C1013 1.393 . S
C1010 H1002 0.950 . S
C1010 C1008 1.391 . S
C1010 C1011 1.400 . S
C1011 C1010 1.400 . S
C1011 C1012 1.398 . S
C1011 C1017 1.491 . S
C1012 H1003 0.950 . S
C1012 C1011 1.398 . S
C1012 C1013 1.391 . S
C1013 H1001 0.950 . S
C1013 C1009 1.393 . S
C1013 C1012 1.391 . S
C1014 H1004 0.950 . S
C1014 C1015 1.386 . S
C1014 C1016 1.391 . S
C1015 C1014 1.386 . S
C1015 C1019 1.393 . S
C1016 H1005 0.950 . S
C1016 C1014 1.391 . S
C1016 C1017 1.400 . S
C1017 C1011 1.491 . S
C1017 C1016 1.400 . S
C1017 C1018 1.398 . S
C1018 H1006 0.950 . S
C1018 C1017 1.398 . S
C1018 C1019 1.391 . S
C1019 H1007 0.950 . S
C1019 C1015 1.393 . S
C1019 C1018 1.391 . S
H1020 C1028 0.950 . S
H1021 C1033 0.950 . S
H1022 C1030 0.950 . S
H1023 C1032 0.950 . S
H1024 C1034 0.950 . S
H1025 C1036 0.950 . S
H1026 C1038 0.950 . S
H1027 C1039 0.950 . S
C1028 H1020 0.950 . S
C1028 C1029 1.386 . S
C1028 C1030 1.391 . S
C1029 C1028 1.386 . S
C1029 C1033 1.393 . S
C1030 H1022 0.950 . S
C1030 C1028 1.391 . S
C1030 C1031 1.400 . S
C1031 C1030 1.400 . S
C1031 C1032 1.398 . S
C1031 C1037 1.491 . S
C1032 H1023 0.950 . S
C1032 C1031 1.398 . S
C1032 C1033 1.391 . S
C1033 H1021 0.950 . S
C1033 C1029 1.393 . S
C1033 C1032 1.391 . S
C1034 H1024 0.950 . S
C1034 C1035 1.386 . S
C1034 C1036 1.391 . S
C1035 C1034 1.386 . S
C1035 C1039 1.393 . S
C1036 H1025 0.950 . S
C1036 C1034 1.391 . S
C1036 C1037 1.400 . S
C1037 C1031 1.491 . S
C1037 C1036 1.400 . S
C1037 C1038 1.398 . S
C1038 H1026 0.950 . S
C1038 C1037 1.398 . S
C1038 C1039 1.391 . S
C1039 H1027 0.950 . S
C1039 C1035 1.393 . S
C1039 C1038 1.391 . S
H1040 C1048 0.950 . S
H1041 C1053 0.950 . S
H1042 C1050 0.950 . S
H1043 C1052 0.950 . S
H1044 C1054 0.950 . S
H1045 C1056 0.950 . S
H1046 C1058 0.950 . S
H1047 C1059 0.950 . S
C1048 H1040 0.950 . S
C1048 C1049 1.386 . S
C1048 C1050 1.391 . S
C1049 C1048 1.386 . S
C1049 C1053 1.393 . S
C1050 H1042 0.950 . S
C1050 C1048 1.391 . S
C1050 C1051 1.400 . S
C1051 C1050 1.400 . S
C1051 C1052 1.398 . S
C1051 C1057 1.491 . S
C1052 H1043 0.950 . S
C1052 C1051 1.398 . S
C1052 C1053 1.391 . S
C1053 H1041 0.950 . S
C1053 C1049 1.393 . S
C1053 C1052 1.391 . S
C1054 H1044 0.950 . S
C1054 C1055 1.386 . S
C1054 C1056 1.391 . S
C1055 C1054 1.386 . S
C1055 C1059 1.393 . S
C1056 H1045 0.950 . S
C1056 C1054 1.391 . S
C1056 C1057 1.400 . S
C1057 C1051 1.491 . S
C1057 C1056 1.400 . S
C1057 C1058 1.398 . S
C1058 H1046 0.950 . S
C1058 C1057 1.398 . S
C1058 C1059 1.391 . S
C1059 H1047 0.950 . S
C1059 C1055 1.393 . S
C1059 C1058 1.391 . S
H1060 C1068 0.950 . S
H1061 C1073 0.950 . S
H1062 C1070 0.950 . S
H1063 C1072 0.950 . S
H1064 C1074 0.950 . S
H1065 C1076 0.950 . S
H1066 C1078 0.950 . S
H1067 C1079 0.950 . S
C1068 H1060 0.950 . S
C1068 C1069 1.386 . S
C1068 C1070 1.391 . S
C1069 C1068 1.386 . S
C1069 C1073 1.393 . S
C1070 H1062 0.950 . S
C1070 C1068 1.391 . S
C1070 C1071 1.400 . S
C1071 C1070 1.400 . S
C1071 C1072 1.398 . S
C1071 C1077 1.491 . S
C1072 H1063 0.950 . S
C1072 C1071 1.398 . S
C1072 C1073 1.391 . S
C1073 H1061 0.950 . S
C1073 C1069 1.393 . S
C1073 C1072 1.391 . S
C1074 H1064 0.950 . S
C1074 C1075 1.386 . S
C1074 C1076 1.391 . S
C1075 C1074 1.386 . S
C1075 C1079 1.393 . S
C1076 H1065 0.950 . S
C1076 C1074 1.391 . S
C1076 C1077 1.400 . S
C1077 C1071 1.491 . S
C1077 C1076 1.400 . S
C1077 C1078 1.398 . S
C1078 H1066 0.950 . S
C1078 C1077 1.398 . S
C1078 C1079 1.391 . S
C1079 H1067 0.950 . S
C1079 C1075 1.393 . S
C1079 C1078 1.391 . S
H1080 C1088 0.950 . S
H1081 C1093 0.950 . S
H1082 C1090 0.948 1_455 S
H1083 C1092 0.950 . S
H1084 C1094 0.950 . S
H1085 C1096 0.950 . S
H1086 C1098 0.950 1_455 S
H1087 C1099 0.950 . S
C1088 H1080 0.950 . S
C1088 C1089 1.386 . S
C1088 C1090 1.391 . S
C1089 C1088 1.386 . S
C1089 C1093 1.393 . S
C1090 H1082 0.948 1_655 S
C1090 C1088 1.391 . S
C1090 C1091 1.400 . S
C1091 C1090 1.400 . S
C1091 C1092 1.398 . S
C1091 C1097 1.491 . S
C1092 H1083 0.950 . S
C1092 C1091 1.398 . S
C1092 C1093 1.391 . S
C1093 H1081 0.950 . S
C1093 C1089 1.393 . S
C1093 C1092 1.391 . S
C1094 H1084 0.950 . S
C1094 C1095 1.386 . S
C1094 C1096 1.391 . S
C1095 C1094 1.386 . S
C1095 C1099 1.393 1_655 S
C1096 H1085 0.950 . S
C1096 C1094 1.391 . S
C1096 C1097 1.400 . S
C1097 C1091 1.491 . S
C1097 C1096 1.400 . S
C1097 C1098 1.398 . S
C1098 H1086 0.950 1_655 S
C1098 C1097 1.398 . S
C1098 C1099 1.391 1_655 S
C1099 H1087 0.950 . S
C1099 C1095 1.393 1_455 S
C1099 C1098 1.391 1_455 S
H1100 C1108 0.950 . S
H1101 C1113 0.950 . S
H1102 C1110 0.950 . S
H1103 C1112 0.950 . S
H1104 C1114 0.950 . S
H1105 C1116 0.950 . S
H1106 C1118 0.950 . S
H1107 C1119 0.950 . S
C1108 H1100 0.950 . S
C1108 C1109 1.386 . S
C1108 C1110 1.391 . S
C1109 C1108 1.386 . S
C1109 C1113 1.393 . S
C1110 H1102 0.950 . S
C1110 C1108 1.391 . S
C1110 C1111 1.400 . S
C1111 C1110 1.400 . S
C1111 C1112 1.398 . S
C1111 C1117 1.491 . S
C1112 H1103 0.950 . S
C1112 C1111 1.398 . S
C1112 C1113 1.391 . S
C1113 H1101 0.950 . S
C1113 C1109 1.393 . S
C1113 C1112 1.391 . S
C1114 H1104 0.950 . S
C1114 C1115 1.386 . S
C1114 C1116 1.391 . S
C1115 C1114 1.386 . S
C1115 C1119 1.393 . S
C1116 H1105 0.950 . S
C1116 C1114 1.391 . S
C1116 C1117 1.400 . S
C1117 C1111 1.491 . S
C1117 C1116 1.400 . S
C1117 C1118 1.398 . S
C1118 H1106 0.950 . S
C1118 C1117 1.398 . S
C1118 C1119 1.391 . S
C1119 H1107 0.950 . S
C1119 C1115 1.393 . S
C1119 C1118 1.391 . S
H1120 C1128 0.950 . S
H1121 C1133 0.950 . S
H1122 C1130 0.950 . S
H1123 C1132 0.950 . S
H1124 C1134 0.950 . S
H1125 C1136 0.950 . S
H1126 C1138 0.950 . S
H1127 C1139 0.950 . S
C1128 H1120 0.950 . S
C1128 C1129 1.386 . S
C1128 C1130 1.391 . S
C1129 C1128 1.386 . S
C1129 C1133 1.393 . S
C1130 H1122 0.950 . S
C1130 C1128 1.391 . S
C1130 C1131 1.400 . S
C1131 C1130 1.400 . S
C1131 C1132 1.398 . S
C1131 C1137 1.491 . S
C1132 H1123 0.950 . S
C1132 C1131 1.398 . S
C1132 C1133 1.391 . S
C1133 H1121 0.950 . S
C1133 C1129 1.393 . S
C1133 C1132 1.391 . S
C1134 H1124 0.950 . S
C1134 C1135 1.386 . S
C1134 C1136 1.391 . S
C1135 C1134 1.386 . S
C1135 C1139 1.393 . S
C1136 H1125 0.950 . S
C1136 C1134 1.391 . S
C1136 C1137 1.400 . S
C1137 C1131 1.491 . S
C1137 C1136 1.400 . S
C1137 C1138 1.398 . S
C1138 H1126 0.950 . S
C1138 C1137 1.398 . S
C1138 C1139 1.391 . S
C1139 H1127 0.950 . S
C1139 C1135 1.393 . S
C1139 C1138 1.391 . S
H1140 C1148 0.950 . S
H1141 C1153 0.950 . S
H1142 C1150 0.950 . S
H1143 C1152 0.950 . S
H1144 C1154 0.950 . S
H1145 C1156 0.950 . S
H1146 C1158 0.950 . S
H1147 C1159 0.950 . S
C1148 H1140 0.950 . S
C1148 C1149 1.386 . S
C1148 C1150 1.391 . S
C1149 C1148 1.386 . S
C1149 C1153 1.393 . S
C1150 H1142 0.950 . S
C1150 C1148 1.391 . S
C1150 C1151 1.400 . S
C1151 C1150 1.400 . S
C1151 C1152 1.398 . S
C1151 C1157 1.491 . S
C1152 H1143 0.950 . S
C1152 C1151 1.398 . S
C1152 C1153 1.391 . S
C1153 H1141 0.950 . S
C1153 C1149 1.393 . S
C1153 C1152 1.391 . S
C1154 H1144 0.950 . S
C1154 C1155 1.386 . S
C1154 C1156 1.391 . S
C1155 C1154 1.386 . S
C1155 C1159 1.393 . S
C1156 H1145 0.950 . S
C1156 C1154 1.391 . S
C1156 C1157 1.400 . S
C1157 C1151 1.491 . S
C1157 C1156 1.400 . S
C1157 C1158 1.398 . S
C1158 H1146 0.950 . S
C1158 C1157 1.398 . S
C1158 C1159 1.391 . S
C1159 H1147 0.950 . S
C1159 C1155 1.393 . S
C1159 C1158 1.391 . S
H1160 C1168 0.950 . S
H1161 C1173 0.950 . S
H1162 C1170 0.950 . S
H1163 C1172 0.950 . S
H1164 C1174 0.950 . S
H1165 C1176 0.950 . S
H1166 C1178 0.950 . S
H1167 C1179 0.950 . S
C1168 H1160 0.950 . S
C1168 C1169 1.386 . S
C1168 C1170 1.391 . S
C1169 C1168 1.386 . S
C1169 C1173 1.393 . S
C1170 H1162 0.950 . S
C1170 C1168 1.391 . S
C1170 C1171 1.400 . S
C1171 C1170 1.400 . S
C1171 C1172 1.398 . S
C1171 C1177 1.491 . S
C1172 H1163 0.950 . S
C1172 C1171 1.398 . S
C1172 C1173 1.391 . S
C1173 H1161 0.950 . S
C1173 C1169 1.393 . S
C1173 C1172 1.391 . S
C1174 H1164 0.950 . S
C1174 C1175 1.386 . S
C1174 C1176 1.391 . S
C1175 C1174 1.386 . S
C1175 C1179 1.393 . S
C1176 H1165 0.950 . S
C1176 C1174 1.391 . S
C1176 C1177 1.400 . S
C1177 C1171 1.491 . S
C1177 C1176 1.400 . S
C1177 C1178 1.398 . S
C1178 H1166 0.950 . S
C1178 C1177 1.398 . S
C1178 C1179 1.391 . S
C1179 H1167 0.950 . S
C1179 C1175 1.393 . S
C1179 C1178 1.391 . S
H1180 C1188 0.950 . S
H1181 C1193 0.950 . S
H1182 C1190 0.950 . S
H1183 C1192 0.950 . S
H1184 C1194 0.950 . S
H1185 C1196 0.950 . S
H1186 C1198 0.950 . S
H1187 C1199 0.950 . S
C1188 H1180 0.950 . S
C1188 C1189 1.386 . S
C1188 C1190 1.391 . S
C1189 C1188 1.386 . S
C1189 C1193 1.393 . S
C1190 H1182 0.950 . S
C1190 C1188 1.391 . S
C1190 C1191 1.400 . S
C1191 C1190 1.400 . S
C1191 C1192 1.398 . S
C1191 C1197 1.491 . S
C1192 H1183 0.950 . S
C1192 C1191 1.398 . S
C1192 C1193 1.391 . S
C1193 H1181 0.950 . S
C1193 C1189 1.393 . S
C1193 C1192 1.391 . S
C1194 H1184 0.950 . S
C1194 C1195 1.386 . S
C1194 C1196 1.391 . S
C1195 C1194 1.386 . S
C1195 C1199 1.393 . S
C1196 H1185 0.950 . S
C1196 C1194 1.391 . S
C1196 C1197 1.400 . S
C1197 C1191 1.491 . S
C1197 C1196 1.400 . S
C1197 C1198 1.398 . S
C1198 H1186 0.950 . S
C1198 C1197 1.398 . S
C1198 C1199 1.391 . S
C1199 H1187 0.950 . S
C1199 C1195 1.393 . S
C1199 C1198 1.391 . S
H1200 C1208 0.950 . S
H1201 C1213 0.950 . S
H1202 C1210 0.950 . S
H1203 C1212 0.950 . S
H1204 C1214 0.950 . S
H1205 C1216 0.950 . S
H1206 C1218 0.950 . S
H1207 C1219 0.950 . S
C1208 H1200 0.950 . S
C1208 C1209 1.386 . S
C1208 C1210 1.391 . S
C1209 C1208 1.386 . S
C1209 C1213 1.393 . S
C1210 H1202 0.950 . S
C1210 C1208 1.391 . S
C1210 C1211 1.400 . S
C1211 C1210 1.400 . S
C1211 C1212 1.398 . S
C1211 C1217 1.491 . S
C1212 H1203 0.950 . S
C1212 C1211 1.398 . S
C1212 C1213 1.391 . S
C1213 H1201 0.950 . S
C1213 C1209 1.393 . S
C1213 C1212 1.391 . S
C1214 H1204 0.950 . S
C1214 C1215 1.386 . S
C1214 C1216 1.391 . S
C1215 C1214 1.386 . S
C1215 C1219 1.393 . S
C1216 H1205 0.950 . S
C1216 C1214 1.391 . S
C1216 C1217 1.400 . S
C1217 C1211 1.491 . S
C1217 C1216 1.400 . S
C1217 C1218 1.398 . S
C1218 H1206 0.950 . S
C1218 C1217 1.398 . S
C1218 C1219 1.391 . S
C1219 H1207 0.950 . S
C1219 C1215 1.393 . S
C1219 C1218 1.391 . S
H1220 C1228 0.950 . S
H1221 C1233 0.950 . S
H1222 C1230 0.950 . S
H1223 C1232 0.950 . S
H1224 C1234 0.950 . S
H1225 C1236 0.950 . S
H1226 C1238 0.950 . S
H1227 C1239 0.950 . S
C1228 H1220 0.950 . S
C1228 C1229 1.386 . S
C1228 C1230 1.391 . S
C1229 C1228 1.386 . S
C1229 C1233 1.393 . S
C1230 H1222 0.950 . S
C1230 C1228 1.391 . S
C1230 C1231 1.400 . S
C1231 C1230 1.400 . S
C1231 C1232 1.398 . S
C1231 C1237 1.491 . S
C1232 H1223 0.950 . S
C1232 C1231 1.398 . S
C1232 C1233 1.391 . S
C1233 H1221 0.950 . S
C1233 C1229 1.393 . S
C1233 C1232 1.391 . S
C1234 H1224 0.950 . S
C1234 C1235 1.386 . S
C1234 C1236 1.391 . S
C1235 C1234 1.386 . S
C1235 C1239 1.393 . S
C1236 H1225 0.950 . S
C1236 C1234 1.391 . S
C1236 C1237 1.400 . S
C1237 C1231 1.491 . S
C1237 C1236 1.400 . S
C1237 C1238 1.398 . S
C1238 H1226 0.950 . S
C1238 C1237 1.398 . S
C1238 C1239 1.391 . S
C1239 H1227 0.950 . S
C1239 C1235 1.393 . S
C1239 C1238 1.391 . S
H1240 C1248 0.950 . S
H1241 C1253 0.950 . S
H1242 C1250 0.950 . S
H1243 C1252 0.950 . S
H1244 C1254 0.950 . S
H1245 C1256 0.950 . S
H1246 C1258 0.950 . S
H1247 C1259 0.950 . S
C1248 H1240 0.950 . S
C1248 C1249 1.386 . S
C1248 C1250 1.391 . S
C1249 C1248 1.386 . S
C1249 C1253 1.393 . S
C1250 H1242 0.950 . S
C1250 C1248 1.391 . S
C1250 C1251 1.400 . S
C1251 C1250 1.400 . S
C1251 C1252 1.398 . S
C1251 C1257 1.491 . S
C1252 H1243 0.950 . S
C1252 C1251 1.398 . S
C1252 C1253 1.391 . S
C1253 H1241 0.950 . S
C1253 C1249 1.393 . S
C1253 C1252 1.391 . S
C1254 H1244 0.950 . S
C1254 C1255 1.386 . S
C1254 C1256 1.391 . S
C1255 C1254 1.386 . S
C1255 C1259 1.393 . S
C1256 H1245 0.950 . S
C1256 C1254 1.391 . S
C1256 C1257 1.400 . S
C1257 C1251 1.491 . S
C1257 C1256 1.400 . S
C1257 C1258 1.398 . S
C1258 H1246 0.950 . S
C1258 C1257 1.398 . S
C1258 C1259 1.391 . S
C1259 H1247 0.950 . S
C1259 C1255 1.393 . S
C1259 C1258 1.391 . S
C635 C556 1.720 . S
C629 C53 1.753 . S
C649 C115 1.699 . S
C655 C559 1.684 . S
C669 C177 1.666 . S
C675 C590 1.651 . S
C695 C525 1.730 . S
C689 C239 1.760 . S
C715 C560 2.001 . S
C709 C47 1.951 . S
C735 C591 1.948 . S
C729 C109 1.894 . S
C755 C516 1.890 . S
C749 C171 1.821 . S
C775 C547 1.917 . S
C769 C233 1.865 . S
C789 C29 1.436 . S
C795 C577 1.389 . S
C809 C277 1.406 . S
C815 C546 1.346 . S
C829 C153 1.332 . S
C835 C506 1.341 . S
C855 C599 1.362 . S
C849 C339 1.364 . S
C875 C527 1.274 . S
C869 C35 1.331 . S
C889 C283 1.281 . S
C895 C526 1.261 . S
C909 C159 1.265 . S
C915 C619 1.238 . S
C935 C558 1.252 . S
C929 C345 1.307 . S
C949 C419 1.897 . S
C955 C618 1.947 . S
C969 C301 1.696 . S
C975 C497 1.677 . S
C989 C487 1.654 . S
C995 C528 1.633 . S
C1009 C363 1.726 . S
C1015 C587 1.692 . S
C1035 C498 1.793 . S
C1029 C425 1.819 . S
C1049 C295 1.932 . S
C1055 C529 1.976 . S
C1069 C481 1.844 . S
C1075 C578 1.901 . S
C1095 C609 1.926 . S
C1089 C357 1.861 . S
C1109 C407 1.393 . S
C1115 C515 1.327 . S
C1129 C91 1.396 . S
C1135 C608 1.332 . S
C1149 C463 1.340 . S
C1155 C568 1.358 . S
C1175 C537 1.358 . S
C1169 C215 1.361 . S
C1195 C589 1.340 . S
C1189 C401 1.383 . S
C1215 C588 1.266 . S
C1209 C97 1.288 . S
C1235 C557 1.220 . S
C1229 C469 1.249 . S
C1255 C496 1.263 . S
C1249 C221 1.328 . S
