# Generated by pormake.
# Topology ftw, (4,12)-cn, num edge types: 1
# Building blocks:
#     Node 0, Type 0, BuildingBlock: KUFVIS_clean_linker_0, # of connection points: 4
#     Node 1, Type 0, BuildingBlock: KUFVIS_clean_linker_0, # of connection points: 4
#     Node 2, Type 0, BuildingBlock: KUFVIS_clean_linker_0, # of connection points: 4
#     Node 3, Type 1, BuildingBlock: QEWDON_clean_sbu_0, # of connection points: 12
#     Edge 4, Type (0, 1), BuildingBlock: UVAHIK_clean_linker_0, # of connection points: 2
#     Edge 5, Type (0, 1), BuildingBlock: UVAHIK_clean_linker_0, # of connection points: 2
#     Edge 6, Type (0, 1), BuildingBlock: UVAHIK_clean_linker_0, # of connection points: 2
#     Edge 7, Type (0, 1), BuildingBlock: UVAHIK_clean_linker_0, # of connection points: 2
#     Edge 8, Type (0, 1), BuildingBlock: UVAHIK_clean_linker_0, # of connection points: 2
#     Edge 9, Type (0, 1), BuildingBlock: UVAHIK_clean_linker_0, # of connection points: 2
#     Edge 10, Type (0, 1), BuildingBlock: UVAHIK_clean_linker_0, # of connection points: 2
#     Edge 11, Type (0, 1), BuildingBlock: UVAHIK_clean_linker_0, # of connection points: 2
#     Edge 12, Type (0, 1), BuildingBlock: UVAHIK_clean_linker_0, # of connection points: 2
#     Edge 13, Type (0, 1), BuildingBlock: UVAHIK_clean_linker_0, # of connection points: 2
#     Edge 14, Type (0, 1), BuildingBlock: UVAHIK_clean_linker_0, # of connection points: 2
#     Edge 15, Type (0, 1), BuildingBlock: UVAHIK_clean_linker_0, # of connection points: 2
# Relax obj value: 0.100
# Max RMSD: 0.262
# Mean RMSD: 0.192
data_MOF--net-ftw--node1-QEWDON_clean_sbu_0--node2-KUFVIS_clean_linker_0--edge1-UVAHIK_clean_linker_0
_symmetry_space_group_name_H-M    P1
_symmetry_Int_Tables_number       1
_symmetry_cell_setting            triclinic
loop_
_symmetry_equiv_pos_as_xyz
'x, y, z'
_cell_length_a     28.793118
_cell_length_b     32.934419
_cell_length_c     31.615361
_cell_angle_alpha  90.024766
_cell_angle_beta   90.131266
_cell_angle_gamma 90.136501
loop_
_atom_site_label
_atom_site_type_symbol
_atom_site_fract_x
_atom_site_fract_y
_atom_site_fract_z
_atom_type_partial_charge
H0 H -0.01708 0.3476 0.51246 0.0
H1 H 0.00718 0.45807 0.57968 0.0
H2 H 0.97969 0.4595 0.4444 0.0
H3 H 0.0044 0.52075 0.44455 0.0
H4 H 0.0066 0.63152 0.5146 0.0
H5 H -0.01201 0.51982 0.58114 0.0
C6 C -0.01383 0.38041 0.51245 0.0
C7 C -0.01803 0.40142 0.47418 0.0
C8 C -0.00551 0.40087 0.55057 0.0
C9 C -0.00147 0.44351 0.55013 0.0
C10 C -0.007 0.46641 0.51228 0.0
C11 C -0.01508 0.44421 0.47421 0.0
C12 C -0.00404 0.51279 0.51279 0.0
C13 C 0.0016 0.53556 0.47488 0.0
C14 C 0.00519 0.57825 0.47554 0.0
C15 C 0.00431 0.59866 0.51436 0.0
C16 C -0.0009 0.57764 0.55261 0.0
C17 C -0.00635 0.53505 0.55142 0.0
H18 H 0.47559 0.00649 0.67064 0.0
H19 H 0.55308 0.00041 0.55576 0.0
H20 H 0.40243 0.00981 0.5535 0.0
H21 H 0.40479 0.98597 0.49143 0.0
H22 H 0.47808 -0.00114 0.37522 0.0
H23 H 0.5514 0.01784 0.49103 0.0
C24 C 0.4764 0.0061 0.63633 0.0
C25 C 0.43462 0.00647 0.6139 0.0
C26 C 0.5191 0.00566 0.61536 0.0
C27 C 0.51967 0.00297 0.5709 0.0
C28 C 0.47779 0.00418 0.54689 0.0
C29 C 0.43539 0.00721 0.56955 0.0
C30 C 0.47804 0.00244 0.49887 0.0
C31 C 0.43696 0.99311 0.47566 0.0
C32 C 0.43646 0.99339 0.43119 0.0
C33 C 0.47807 -0.00023 0.40951 0.0
C34 C 0.51968 0.00724 0.43106 0.0
C35 C 0.51922 0.01007 0.47545 0.0
H36 H 0.53713 0.61969 1.0009 0.0
H37 H 0.56002 0.49756 0.04171 0.0
H38 H 0.42001 0.5431 0.02604 0.0
H39 H 0.40475 0.49727 0.07525 0.0
H40 H 0.41859 0.3678 0.07855 0.0
H41 H 0.52597 0.43928 0.022 0.0
C42 C 0.52308 0.59019 0.00935 0.0
C43 C 0.47511 0.58504 0.01333 0.0
C44 C 0.55339 0.55847 0.01904 0.0
C45 C 0.53575 0.52102 0.0325 0.0
C46 C 0.48733 0.51436 0.03467 0.0
C47 C 0.45732 0.54694 0.02491 0.0
C48 C 0.46834 0.47385 0.04749 0.0
C49 C 0.42485 0.47051 0.06778 0.0
C50 C 0.40658 0.4324 0.07865 0.0
C51 C 0.43288 0.39743 0.07105 0.0
C52 C 0.47608 0.3999 0.05112 0.0
C53 C 0.49324 0.43797 0.03871 0.0
Zn54 Zn 0.03538 0.09771 0.99538 0.0
Zn55 Zn 0.03093 0.0792 0.09535 0.0
O56 O 0.02862 0.05237 0.03863 0.0
H57 H 0.02475 0.02383 0.03259 0.0
C58 C 0.9519 0.12558 0.90389 0.0
O59 O 0.96276 0.08736 0.89733 0.0
Zn60 Zn 0.92833 0.916 0.09036 0.0
Zn61 Zn 0.93242 0.92401 0.98815 0.0
O62 O 0.9463 0.95419 0.04337 0.0
H63 H 0.95975 0.98092 0.04641 0.0
Zn64 Zn 0.89953 0.09082 0.97789 0.0
O65 O 0.93058 0.0746 0.03386 0.0
Zn66 Zn 0.88077 0.06228 0.07721 0.0
H67 H 0.91928 0.08252 1.0063 0.0
Zn68 Zn 0.05973 0.90135 0.97809 0.0
O69 O 0.02419 0.91142 0.03366 0.0
H70 H 0.03752 0.90609 1.00622 0.0
Zn71 Zn 0.07052 0.92648 0.07951 0.0
C72 C 0.01367 0.8319 0.92795 0.0
O73 O -0.00105 0.81854 0.96471 0.0
O74 O 0.05329 0.15246 0.02321 0.0
O75 O 0.06225 0.13422 0.09063 0.0
O76 O 0.90988 0.86547 0.99805 0.0
O77 O 0.89576 0.86595 0.06722 0.0
O78 O 0.82868 0.09477 0.9851 0.0
O79 O 0.81735 0.07683 0.05227 0.0
C80 C 0.07514 0.00496 0.13184 0.0
O81 O 0.13007 0.89863 0.98892 0.0
O82 O 0.13548 0.91285 0.0577 0.0
O83 O 0.89981 0.95134 0.93618 0.0
C84 C 0.06521 0.16061 0.06117 0.0
O85 O 0.06795 0.08415 0.93811 0.0
C86 C 0.87448 0.98312 0.12718 0.0
O87 O 0.92773 0.13462 0.93623 0.0
C88 C 0.89423 0.84838 0.03123 0.0
O89 O 0.03664 0.86502 0.92649 0.0
C90 C 0.93403 0.1051 0.13813 0.0
O91 O 0.06467 0.04237 0.13632 0.0
O92 O 0.06379 0.98633 0.09778 0.0
C93 C 0.80182 0.08892 0.01652 0.0
O94 O 0.88701 0.94623 0.13121 0.0
O95 O 0.88643 0.00268 0.0941 0.0
C96 C 0.01921 0.87944 0.14252 0.0
O97 O 0.89197 0.0972 0.12909 0.0
O98 O 0.96491 0.08913 0.11459 0.0
C99 C 0.15407 0.90289 0.02253 0.0
O100 O 0.0592 0.89062 0.13009 0.0
O101 O -0.01678 0.89265 0.12343 0.0
C102 C 0.86704 0.97703 0.93912 0.0
O103 O 0.85507 0.99039 0.97671 0.0
C104 C 0.08644 0.04957 0.93233 0.0
O105 O 0.08345 0.02217 0.9624 0.0
C106 C 0.93825 0.34906 0.43233 0.0
C107 C 0.97476 0.37735 0.43465 0.0
C108 C 0.93548 0.32121 0.39894 0.0
C109 C -0.01627 0.29478 0.29206 0.0
H110 H 0.93792 0.18785 0.32217 0.0
C111 C -0.01346 0.15543 0.17624 0.0
C112 C 0.94459 0.13359 0.17368 0.0
C113 C -0.00672 0.18516 0.20773 0.0
C114 C 0.95062 0.21758 0.31309 0.0
H115 H 0.03637 0.39934 0.40299 0.0
H116 H 0.03224 0.35023 0.3448 0.0
H117 H 0.94264 0.24053 0.37584 0.0
H118 H 0.87747 0.12506 0.20349 0.0
H119 H 0.88951 0.17573 0.25842 0.0
H120 H -0.00769 0.27101 0.22919 0.0
C121 C 0.0051 0.34991 0.36843 0.0
C122 C 0.95305 0.24808 0.34392 0.0
C123 C 0.00751 0.37821 0.40176 0.0
C124 C 0.91025 0.14127 0.20428 0.0
C125 C 0.91721 0.17032 0.236 0.0
C126 C -0.01829 0.264 0.26121 0.0
C127 C 0.96964 0.32024 0.36707 0.0
C128 C 0.96888 0.28745 0.33387 0.0
C129 C 0.95854 0.19308 0.23795 0.0
C130 C 0.96444 0.22514 0.2712 0.0
H131 H 0.9124 0.34776 0.45715 0.0
H132 H 0.90679 0.29992 0.3986 0.0
H133 H -0.00414 0.3246 0.28278 0.0
H134 H 0.01362 0.15042 0.15335 0.0
H135 H 0.02571 0.20187 0.20848 0.0
C136 C 0.57155 0.98403 0.3727 0.0
C137 C 0.56319 0.01131 0.40603 0.0
C138 C 0.60864 0.98998 0.3452 0.0
C139 C 0.72235 0.03622 0.33127 0.0
H140 H 0.69153 0.02487 0.21228 0.0
C141 C 0.85242 0.98769 0.20319 0.0
C142 C 0.84702 0.00187 0.16154 0.0
C143 C 0.82192 -0.00014 0.23502 0.0
C144 C 0.70079 0.02895 0.24524 0.0
H145 H 0.58904 0.06501 0.43807 0.0
H146 H 0.65525 0.07496 0.39001 0.0
H147 H 0.62999 0.02362 0.26488 0.0
H148 H 0.80657 0.04113 0.12112 0.0
H149 H 0.75328 0.06292 0.17674 0.0
H150 H 0.79349 0.04019 0.31152 0.0
C151 C 0.63229 0.04927 0.38514 0.0
C152 C 0.66552 0.02776 0.27543 0.0
C153 C 0.59462 0.04348 0.4127 0.0
C154 C 0.81201 0.03023 0.1529 0.0
C155 C 0.7812 0.0423 0.18475 0.0
C156 C 0.75784 0.0371 0.30097 0.0
C157 C 0.6388 0.02315 0.35044 0.0
C158 C 0.676 0.0302 0.31879 0.0
C159 C 0.78497 0.02625 0.2259 0.0
C160 C 0.74752 0.03244 0.25766 0.0
H161 H 0.54866 0.95837 0.36731 0.0
H162 H 0.6135 0.96873 0.31942 0.0
H163 H 0.73138 0.03824 0.36448 0.0
H164 H 0.87923 0.96585 0.21086 0.0
H165 H 0.82565 0.98656 0.26617 0.0
C166 C 0.04544 0.63147 0.43207 0.0
C167 C 0.00957 0.60267 0.436 0.0
C168 C 0.04645 0.65849 0.39789 0.0
C169 C 0.96957 0.71004 0.32237 0.0
H170 H 0.08395 0.73669 0.26419 0.0
C171 C 0.97499 0.82533 0.18237 0.0
C172 C 0.01535 0.84895 0.17719 0.0
C173 C 0.97333 0.79423 0.21276 0.0
C174 C 0.05172 0.73024 0.28045 0.0
H175 H 0.94701 0.57922 0.40675 0.0
H176 H 0.94841 0.62688 0.34695 0.0
H177 H 0.08368 0.68357 0.31773 0.0
H178 H 0.08493 0.85935 0.20125 0.0
H179 H 0.08152 0.80664 0.25495 0.0
H180 H 0.93779 0.7575 0.28623 0.0
C181 C 0.97588 0.62838 0.37036 0.0
C182 C 0.05158 0.69944 0.31104 0.0
C183 C 0.97531 0.60082 0.40431 0.0
C184 C 0.05341 0.84151 0.20403 0.0
C185 C 0.05157 0.81086 0.23468 0.0
C186 C 0.96979 0.74125 0.2921 0.0
C187 C 0.01119 0.6579 0.36701 0.0
C188 C 0.0106 0.68907 0.33261 0.0
C189 C 0.01182 0.78618 0.23915 0.0
C190 C 0.01098 0.75211 0.27083 0.0
H191 H 0.07221 0.6337 0.45611 0.0
H192 H 0.07396 0.68094 0.39653 0.0
H193 H 0.93749 0.70319 0.33874 0.0
H194 H 0.94514 0.83001 0.16204 0.0
H195 H 0.94222 0.77582 0.21468 0.0
C196 C 0.36133 0.95625 0.41486 0.0
C197 C 0.39288 0.98788 0.40625 0.0
C198 C 0.32324 0.94922 0.3879 0.0
C199 C 0.28713 0.967 0.27745 0.0
H200 H 0.16088 0.95155 0.31659 0.0
C201 C 0.13828 0.95839 0.15742 0.0
C202 C 0.10189 0.98528 0.16627 0.0
C203 C 0.17003 0.94747 0.18909 0.0
C204 C 0.19602 0.95555 0.30516 0.0
H205 H 0.40727 0.03853 0.36445 0.0
H206 H 0.34161 0.0262 0.31776 0.0
H207 H 0.22441 0.95671 0.36808 0.0
H208 H 0.06822 0.01961 0.21595 0.0
H209 H 0.12344 0.00103 0.27093 0.0
H210 H 0.25915 0.9677 0.21486 0.0
C211 C 0.34671 0.00618 0.34455 0.0
C212 C 0.23239 0.95825 0.33466 0.0
C213 C 0.38431 0.01331 0.3714 0.0
C214 C 0.09597 -0.00123 0.20812 0.0
C215 C 0.12753 0.98787 0.23977 0.0
C216 C 0.25099 0.96411 0.24807 0.0
C217 C 0.31627 0.97357 0.35185 0.0
C218 C 0.27817 0.96525 0.3211 0.0
C219 C 0.16607 0.96341 0.23029 0.0
C220 C 0.20477 0.95944 0.2615 0.0
H221 H 0.36704 0.9361 0.44141 0.0
H222 H 0.30021 0.92394 0.39442 0.0
H223 H 0.32215 0.97175 0.26596 0.0
H224 H 0.14436 0.94828 0.12551 0.0
H225 H 0.199 0.92816 0.18076 0.0
C226 C 0.03104 0.63365 0.59873 0.0
C227 C -6e-05 0.60093 0.59346 0.0
C228 C 0.03025 0.65762 0.63527 0.0
C229 C -0.00698 0.6604 0.74717 0.0
H230 H 0.00263 0.77693 0.73211 0.0
C231 C 0.97859 0.77212 0.8893 0.0
C232 C 0.00735 0.80674 0.88907 0.0
C233 C 0.97493 0.74711 0.85345 0.0
C234 C 0.00054 0.74447 0.73715 0.0
H235 H 0.94439 0.56734 0.6238 0.0
H236 H 0.94358 0.60893 0.68812 0.0
H237 H 0.00257 0.73257 0.67057 0.0
H238 H 0.05464 0.84212 0.8505 0.0
H239 H 0.0492 0.79836 0.78871 0.0
H240 H -0.00803 0.67219 0.81383 0.0
C241 C 0.96852 0.61598 0.6636 0.0
C242 C 0.00036 0.71895 0.70168 0.0
C243 C 0.96908 0.59204 0.62672 0.0
C244 C 0.03186 0.81593 0.85183 0.0
C245 C 0.02852 0.79079 0.81615 0.0
C246 C -0.00641 0.68595 0.78278 0.0
C247 C -0.00137 0.64952 0.66803 0.0
C248 C -0.00301 0.67653 0.70614 0.0
C249 C 0.00018 0.75581 0.81638 0.0
C250 C -0.00228 0.72843 0.77837 0.0
H251 H 0.05616 0.64091 0.57442 0.0
H252 H 0.0547 0.68254 0.63792 0.0
H253 H -0.00924 0.62788 0.75186 0.0
H254 H 0.95899 0.76416 0.91731 0.0
H255 H 0.95209 0.72099 0.85483 0.0
C256 C 0.3829 0.97487 0.66771 0.0
C257 C 0.39049 0.00571 0.63789 0.0
C258 C 0.34489 0.97653 0.69493 0.0
C259 C 0.23285 0.029 0.71647 0.0
H260 H 0.26228 -0.00051 0.8322 0.0
C261 C 0.11826 0.07052 0.8616 0.0
C262 C 0.11431 0.04134 0.8939 0.0
C263 C 0.14776 0.06392 0.82713 0.0
C264 C 0.25319 0.00732 0.79996 0.0
H265 H 0.36351 0.0616 0.61177 0.0
H266 H 0.29717 0.06518 0.66014 0.0
H267 H 0.32082 0.99208 0.7777 0.0
H268 H 0.13668 0.98155 0.91424 0.0
H269 H 0.18788 0.97011 0.85424 0.0
H270 H 0.16529 0.04523 0.7395 0.0
C271 C 0.32021 0.0393 0.66208 0.0
C272 C 0.2868 0.00299 0.76857 0.0
C273 C 0.35815 0.03736 0.63441 0.0
C274 C 0.13914 0.00483 0.89014 0.0
C275 C 0.1687 -0.00167 0.85583 0.0
C276 C 0.19916 0.03355 0.74808 0.0
C277 C 0.31385 0.00943 0.69346 0.0
C278 C 0.27713 0.01362 0.72636 0.0
C279 C 0.17406 0.0281 0.82433 0.0
C280 C 0.20898 0.02266 0.79018 0.0
H281 H 0.40717 0.94993 0.67066 0.0
H282 H 0.34047 0.9524 0.71784 0.0
H283 H 0.22405 0.03719 0.68428 0.0
H284 H 0.09942 0.0989 0.86342 0.0
H285 H 0.15128 0.08753 0.80351 0.0
C286 C 0.9744 0.38919 0.62745 0.0
C287 C -0.00187 0.37703 0.59072 0.0
C288 C 0.97363 0.36422 0.66346 0.0
C289 C -0.01232 0.25605 0.69371 0.0
H290 H -0.00916 0.29755 0.80841 0.0
C291 C -0.00851 0.14714 0.83669 0.0
C292 C 0.96358 0.15697 0.87167 0.0
C293 C -0.00081 0.17543 0.80435 0.0
C294 C -0.01051 0.28544 0.77659 0.0
H295 H 0.04215 0.3302 0.56422 0.0
H296 H 0.04111 0.28703 0.62673 0.0
H297 H -0.00207 0.34449 0.74889 0.0
H298 H 0.92308 0.20498 0.9005 0.0
H299 H 0.93599 0.25407 0.84393 0.0
H300 H 0.97865 0.19719 0.72106 0.0
C301 C 0.02201 0.31531 0.62749 0.0
C302 C -0.00643 0.31242 0.7424 0.0
C303 C 0.02273 0.34017 0.59161 0.0
C304 C 0.94481 0.19632 0.87409 0.0
C305 C 0.9524 0.22461 0.84164 0.0
C306 C -0.01645 0.22916 0.72777 0.0
C307 C -0.00336 0.3265 0.66364 0.0
C308 C -0.0072 0.29808 0.70045 0.0
C309 C 0.97907 0.21435 0.80593 0.0
C310 C -0.01557 0.24337 0.76976 0.0
H311 H 0.95482 0.41722 0.62778 0.0
H312 H 0.9535 0.37379 0.69057 0.0
H313 H -0.0141 0.24386 0.66193 0.0
H314 H 0.00691 0.11729 0.8339 0.0
H315 H 0.02075 0.16662 0.77788 0.0
C316 C 0.56491 0.03787 0.67367 0.0
C317 C 0.56239 0.00888 0.64107 0.0
C318 C 0.602 0.03808 0.70212 0.0
C319 C 0.72128 0.00197 0.72237 0.0
H320 H 0.68311 0.00885 0.83971 0.0
C321 C 0.84503 0.9664 0.86293 0.0
C322 C 0.83859 0.98724 0.90132 0.0
C323 C 0.81464 0.97235 0.82886 0.0
C324 C 0.6947 0.00767 0.80718 0.0
H325 H 0.59839 0.95885 0.61127 0.0
H326 H 0.66394 0.95931 0.66123 0.0
H327 H 0.62517 0.01289 0.78401 0.0
H328 H 0.79645 0.03234 0.93307 0.0
H329 H 0.74451 0.04376 0.87342 0.0
H330 H 0.791 -0.00312 0.7457 0.0
C331 C 0.63686 0.98183 0.66465 0.0
C332 C 0.66131 0.00981 0.77515 0.0
C333 C 0.59942 0.98157 0.63603 0.0
C334 C 0.80233 0.0156 0.90411 0.0
C335 C 0.77221 0.02184 0.86992 0.0
C336 C 0.75489 0.00013 0.75453 0.0
C337 C 0.6378 0.00939 0.69875 0.0
C338 C 0.6741 0.00704 0.73235 0.0
C339 C 0.77719 -0.00046 0.83215 0.0
C340 C 0.74203 0.00294 0.79744 0.0
H341 H 0.53738 0.05987 0.67787 0.0
H342 H 0.60218 0.06033 0.72738 0.0
H343 H 0.73227 3e-05 0.68969 0.0
H344 H 0.87254 0.94426 0.85963 0.0
H345 H 0.81949 0.95433 0.80056 0.0
C346 C 0.34697 0.40019 0.12527 0.0
C347 C 0.35794 0.42782 0.09297 0.0
C348 C 0.30142 0.3865 0.13036 0.0
C349 C 0.20819 0.363 0.05906 0.0
H350 H 0.15004 0.3187 0.15945 0.0
C351 C 0.07687 0.23386 0.04298 0.0
C352 C 0.08371 0.20142 0.07112 0.0
C353 C 0.09723 0.27165 0.05082 0.0
C354 C 0.16583 0.33085 0.13108 0.0
H355 H 0.32932 0.46641 0.04395 0.0
H356 H 0.24956 0.44263 0.053 0.0
H357 H 0.21008 0.3709 0.16653 0.0
H358 H 0.1152 0.18372 0.13068 0.0
H359 H 0.15256 0.24881 0.14334 0.0
H360 H 0.16724 0.3212 0.02359 0.0
C361 C 0.27624 0.43123 0.07406 0.0
C362 C 0.19993 0.36094 0.13518 0.0
C363 C 0.32182 0.44504 0.06909 0.0
C364 C 0.10952 0.20806 0.10824 0.0
C365 C 0.13054 0.24565 0.11573 0.0
C366 C 0.1746 0.33273 0.05498 0.0
C367 C 0.26613 0.40012 0.10309 0.0
C368 C 0.22261 0.37625 0.09924 0.0
C369 C 0.1256 0.27766 0.08658 0.0
C370 C 0.15421 0.31514 0.09098 0.0
H371 H 0.3742 0.38682 0.1444 0.0
H372 H 0.29485 0.36247 0.15296 0.0
H373 H 0.22547 0.37363 0.03073 0.0
H374 H 0.05632 0.22993 0.01452 0.0
H375 H 0.09169 0.29584 0.02819 0.0
C376 C 0.44827 0.64716 0.97472 0.0
C377 C 0.44445 0.62079 0.00947 0.0
C378 C 0.42337 0.68354 0.97384 0.0
C379 C 0.37308 0.75947 0.04351 0.0
H380 H 0.29092 0.78552 0.95025 0.0
C381 C 0.22163 0.87086 0.05871 0.0
C382 C 0.20245 0.88816 0.02207 0.0
C383 C 0.2607 0.84597 0.05597 0.0
C384 C 0.31463 0.77953 0.97611 0.0
H385 H 0.41165 0.61137 0.07029 0.0
H386 H 0.36839 0.67521 0.06892 0.0
H387 H 0.33873 0.72485 0.94675 0.0
H388 H 0.21258 0.89765 0.95488 0.0
H389 H 0.2822 0.85598 0.95041 0.0
H390 H 0.34942 0.81405 0.07298 0.0
C391 C 0.39051 0.66765 0.0424 0.0
C392 C 0.34169 0.74446 0.97415 0.0
C393 C 0.41473 0.631 0.04293 0.0
C394 C 0.22621 0.88409 0.98355 0.0
C395 C 0.26581 0.85983 0.98094 0.0
C396 C 0.34664 0.79494 0.04521 0.0
C397 C 0.39505 0.69442 1.0081 0.0
C398 C 0.37014 0.73359 0.00831 0.0
C399 C 0.28189 0.83851 0.01663 0.0
C400 C 0.31601 0.80486 0.01205 0.0
H401 H 0.47112 0.63992 0.94862 0.0
H402 H 0.42728 0.70371 0.94702 0.0
H403 H 0.39545 0.75196 0.06996 0.0
H404 H 0.20412 0.87344 0.0889 0.0
H405 H 0.27178 0.83012 0.08422 0.0
C406 C 0.50882 0.33337 0.07449 0.0
C407 C 0.50241 0.36228 0.0424 0.0
C408 C 0.53313 0.29759 0.06645 0.0
C409 C 0.61894 0.2544 0.9926 0.0
H410 H 0.58837 0.15405 0.0506 0.0
C411 C 0.73605 0.11713 0.97411 0.0
C412 C 0.75329 0.10331 0.01319 0.0
C413 C 0.69601 0.14087 0.97243 0.0
C414 C 0.59711 0.18181 0.03403 0.0
H415 H 0.51514 0.37611 0.97648 0.0
H416 H 0.55699 0.31322 0.96203 0.0
H417 H 0.53707 0.21273 0.05732 0.0
H418 H 0.73884 0.09935 0.08043 0.0
H419 H 0.66904 0.14087 0.0774 0.0
H420 H 0.67925 0.22383 0.96989 0.0
C421 C 0.54419 0.31854 0.99373 0.0
C422 C 0.56796 0.21551 0.03806 0.0
C423 C 0.52028 0.35456 1.00193 0.0
C424 C 0.72676 0.10982 0.04986 0.0
C425 C 0.68663 0.13357 0.04812 0.0
C426 C 0.64774 0.22068 0.98827 0.0
C427 C 0.55119 0.2897 0.02598 0.0
C428 C 0.57914 0.25252 0.01818 0.0
C429 C 0.67232 0.15106 0.00971 0.0
C430 C 0.63768 0.1843 0.00962 0.0
H431 H 0.49564 0.33877 0.10606 0.0
H432 H 0.53865 0.27658 0.0923 0.0
H433 H 0.62915 0.28247 0.97738 0.0
H434 H 0.75515 0.11199 0.94512 0.0
H435 H 0.68513 0.15324 0.94225 0.0
C436 C 0.62682 0.57702 0.05531 0.0
C437 C 0.60355 0.56658 0.0179 0.0
C438 C 0.67044 0.59557 0.05355 0.0
C439 C 0.73241 0.66246 0.98056 0.0
H440 H 0.8242 0.66422 0.07046 0.0
C441 C 0.8706 0.78774 0.98831 0.0
C442 C 0.87316 0.80749 0.02772 0.0
C443 C 0.84801 0.75037 0.98446 0.0
C444 C 0.79892 0.66391 0.04504 0.0
H445 H 0.60806 0.56395 0.94973 0.0
H446 H 0.6853 0.5948 0.94645 0.0
H447 H 0.76696 0.60931 0.06766 0.0
H448 H 0.85608 0.80237 0.09436 0.0
H449 H 0.81606 0.73749 0.08742 0.0
H450 H 0.76317 0.71761 0.95873 0.0
C451 C 0.66968 0.58973 0.97712 0.0
C452 C 0.76616 0.63253 0.04342 0.0
C453 C 0.6258 0.5717 0.97891 0.0
C454 C 0.85443 0.78816 0.06348 0.0
C455 C 0.83189 0.75075 0.0596 0.0
C456 C 0.76525 0.69358 0.98203 0.0
C457 C 0.69144 0.60379 0.01428 0.0
C458 C 0.73161 0.63213 0.01188 0.0
C459 C 0.8276 0.73189 0.01991 0.0
C460 C 0.79797 0.69532 0.01497 0.0
H461 H 0.60973 0.57374 0.08562 0.0
H462 H 0.68582 0.6063 0.08278 0.0
H463 H 0.7059 0.66375 0.95626 0.0
H464 H 0.88519 0.80149 0.96019 0.0
H465 H 0.8457 0.73629 0.95355 0.0
loop_
_geom_bond_atom_site_label_1
_geom_bond_atom_site_label_2
_geom_bond_distance
_geom_bond_site_symmetry_2
_ccdc_geom_bond_type
H0 C6 0.931 . S
H1 C9 0.931 . S
H2 C11 0.931 . S
H3 C13 0.930 . S
H4 C15 0.930 . S
H5 C17 0.931 . S
C6 H0 0.931 . S
C6 C7 1.381 . S
C6 C8 1.392 1_655 S
C7 C6 1.381 . S
C7 C11 1.382 . S
C8 C6 1.392 1_455 S
C8 C9 1.400 . S
C9 H1 0.931 . S
C9 C8 1.400 . S
C9 C10 1.375 . S
C10 C9 1.375 . S
C10 C11 1.415 1_455 S
C10 C12 1.501 . S
C11 H2 0.931 . S
C11 C7 1.382 . S
C11 C10 1.415 1_655 S
C12 C10 1.501 . S
C12 C13 1.384 . S
C12 C17 1.408 1_455 S
C13 H3 0.930 . S
C13 C12 1.384 . S
C13 C14 1.389 . S
C14 C13 1.389 . S
C14 C15 1.405 . S
C15 H4 0.930 . S
C15 C14 1.405 . S
C15 C16 1.364 1_455 S
C16 C15 1.364 1_655 S
C16 C17 1.400 . S
C17 H5 0.931 . S
C17 C12 1.408 1_655 S
C17 C16 1.400 . S
H18 C24 0.930 . S
H19 C27 0.931 . S
H20 C29 0.931 . S
H21 C31 0.930 . S
H22 C33 0.930 . S
H23 C35 0.931 . S
C24 H18 0.930 . S
C24 C25 1.380 . S
C24 C26 1.394 1_545 S
C25 C24 1.380 . S
C25 C29 1.382 . S
C26 C24 1.394 1_565 S
C26 C27 1.400 . S
C27 H19 0.931 . S
C27 C26 1.400 . S
C27 C28 1.375 . S
C28 C27 1.375 . S
C28 C29 1.415 1_565 S
C28 C30 1.501 . S
C29 H20 0.931 . S
C29 C25 1.382 . S
C29 C28 1.415 1_545 S
C30 C28 1.501 . S
C30 C31 1.384 . S
C30 C35 1.408 1_565 S
C31 H21 0.930 . S
C31 C30 1.384 . S
C31 C32 1.389 . S
C32 C31 1.389 . S
C32 C33 1.405 . S
C33 H22 0.930 . S
C33 C32 1.405 . S
C33 C34 1.364 1_565 S
C34 C33 1.364 1_545 S
C34 C35 1.400 . S
C35 H23 0.931 . S
C35 C30 1.408 1_545 S
C35 C34 1.400 . S
H36 C42 0.930 . S
H37 C45 0.931 . S
H38 C47 0.931 . S
H39 C49 0.930 . S
H40 C51 0.930 . S
H41 C53 0.931 . S
C42 H36 0.930 . S
C42 C43 1.380 . S
C42 C44 1.394 . S
C43 C42 1.380 . S
C43 C47 1.382 . S
C44 C42 1.394 . S
C44 C45 1.400 . S
C45 H37 0.931 . S
C45 C44 1.400 . S
C45 C46 1.375 . S
C46 C45 1.375 . S
C46 C47 1.415 . S
C46 C48 1.501 . S
C47 H38 0.931 . S
C47 C43 1.382 . S
C47 C46 1.415 . S
C48 C46 1.501 . S
C48 C49 1.384 . S
C48 C53 1.408 . S
C49 H39 0.930 . S
C49 C48 1.384 . S
C49 C50 1.389 . S
C50 C49 1.389 . S
C50 C51 1.405 . S
C51 H40 0.930 . S
C51 C50 1.405 . S
C51 C52 1.364 . S
C52 C51 1.364 . S
C52 C53 1.400 . S
C53 H41 0.931 . S
C53 C48 1.408 . S
C53 C52 1.400 . S
Zn54 O56 1.933 1_556 S
Zn54 O74 1.985 . S
Zn54 O85 1.955 . S
Zn55 O56 1.911 . S
Zn55 O75 1.970 . S
Zn55 O91 1.945 . S
Zn55 O98 1.981 . S
O56 Zn54 1.933 1_554 S
O56 Zn55 1.911 . S
O56 H57 0.841 . S
H57 O56 0.841 . S
C58 O59 1.246 . S
C58 O87 1.276 1_455 S
O59 C58 1.246 . S
Zn60 O62 1.911 . S
Zn60 O77 1.970 . S
Zn60 O94 1.945 . S
Zn60 O101 1.981 . S
Zn61 O62 1.933 1_556 S
Zn61 O76 1.985 . S
Zn61 O83 1.955 . S
O62 Zn60 1.911 . S
O62 Zn61 1.933 1_554 S
O62 H63 0.841 . S
H63 O62 0.841 . S
Zn64 O65 1.933 1_556 S
Zn64 O78 1.985 . S
Zn64 O87 1.955 . S
O65 Zn64 1.933 1_554 S
O65 Zn66 1.911 . S
O65 H67 0.841 . S
Zn66 O65 1.911 . S
Zn66 O79 1.970 . S
Zn66 O95 1.981 . S
Zn66 O97 1.945 . S
H67 O65 0.841 . S
Zn68 O69 1.933 1_556 S
Zn68 O81 1.985 . S
Zn68 O89 1.955 . S
O69 Zn68 1.933 1_554 S
O69 H70 0.841 . S
O69 Zn71 1.911 . S
H70 O69 0.841 . S
Zn71 O69 1.911 . S
Zn71 O82 1.970 . S
Zn71 O92 1.981 . S
Zn71 O100 1.945 . S
C72 O73 1.246 . S
C72 O89 1.276 1_655 S
O73 C72 1.246 . S
O74 Zn54 1.985 . S
O74 C84 1.245 1_556 S
O75 Zn55 1.970 . S
O75 C84 1.263 . S
O76 Zn61 1.985 . S
O76 C88 1.245 1_556 S
O77 Zn60 1.970 . S
O77 C88 1.263 . S
O78 Zn64 1.985 . S
O78 C93 1.245 1_556 S
O79 Zn66 1.970 . S
O79 C93 1.263 . S
C80 O91 1.262 . S
C80 O92 1.245 1_545 S
O81 Zn68 1.985 . S
O81 C99 1.245 1_556 S
O82 Zn71 1.970 . S
O82 C99 1.263 . S
O83 Zn61 1.955 . S
O83 C102 1.276 1_565 S
C84 O74 1.245 1_554 S
C84 O75 1.263 . S
O85 Zn54 1.955 . S
O85 C104 1.276 1_545 S
C86 O94 1.260 1_545 S
C86 O95 1.246 . S
O87 C58 1.276 1_655 S
O87 Zn64 1.955 . S
C88 O76 1.245 1_554 S
C88 O77 1.263 . S
O89 Zn68 1.955 . S
O89 C72 1.276 1_455 S
C90 O97 1.253 1_455 S
C90 O98 1.250 . S
O91 Zn55 1.945 . S
O91 C80 1.262 . S
O92 Zn71 1.981 . S
O92 C80 1.245 1_565 S
C93 O78 1.245 1_554 S
C93 O79 1.263 . S
O94 Zn60 1.945 . S
O94 C86 1.260 1_565 S
O95 Zn66 1.981 . S
O95 C86 1.246 . S
C96 O100 1.272 . S
C96 O101 1.239 1_455 S
O97 Zn66 1.945 . S
O97 C90 1.253 1_655 S
O98 Zn55 1.981 . S
O98 C90 1.250 . S
C99 O81 1.245 1_554 S
C99 O82 1.263 . S
O100 Zn71 1.945 . S
O100 C96 1.272 . S
O101 Zn60 1.981 . S
O101 C96 1.239 1_655 S
C102 O83 1.276 1_545 S
C102 O103 1.246 . S
O103 C102 1.246 . S
C104 O85 1.276 1_565 S
C104 O105 1.246 . S
O105 C104 1.246 . S
C106 C107 1.349 . S
C106 C108 1.327 . S
C106 H131 0.950 . S
C107 C106 1.349 . S
C107 C123 1.349 1_655 S
C108 C106 1.327 . S
C108 C127 1.439 . S
C108 H132 0.950 . S
C109 C126 1.574 . S
C109 C128 1.368 . S
C109 H133 0.949 . S
H110 C114 0.949 . S
C111 C112 1.349 . S
C111 C113 1.327 . S
C111 H134 0.950 . S
C112 C111 1.349 . S
C112 C124 1.349 1_455 S
C113 C111 1.327 . S
C113 C129 1.429 . S
C113 H135 0.950 . S
C114 H110 0.949 . S
C114 C122 1.574 . S
C114 C130 1.368 1_655 S
H115 C123 0.950 . S
H116 C121 0.950 . S
H117 C122 0.949 . S
H118 C124 0.950 . S
H119 C125 0.950 . S
H120 C126 0.949 . S
C121 H116 0.950 . S
C121 C123 1.327 . S
C121 C127 1.419 1_455 S
C122 C114 1.574 . S
C122 H117 0.949 . S
C122 C128 1.368 1_655 S
C123 C107 1.349 1_455 S
C123 H115 0.950 . S
C123 C121 1.327 . S
C124 C112 1.349 1_655 S
C124 H118 0.950 . S
C124 C125 1.327 . S
C125 H119 0.950 . S
C125 C124 1.327 . S
C125 C129 1.429 1_655 S
C126 C109 1.574 . S
C126 H120 0.949 . S
C126 C130 1.368 . S
C127 C108 1.439 . S
C127 C121 1.419 1_655 S
C127 C128 1.522 1_655 S
C128 C109 1.368 . S
C128 C122 1.368 1_455 S
C128 C127 1.522 1_455 S
C129 C113 1.429 . S
C129 C125 1.429 1_455 S
C129 C130 1.523 . S
C130 C114 1.368 1_455 S
C130 C126 1.368 . S
C130 C129 1.523 . S
H131 C106 0.950 . S
H132 C108 0.950 . S
H133 C109 0.949 . S
H134 C111 0.950 . S
H135 C113 0.950 . S
C136 C137 1.349 1_565 S
C136 C138 1.327 . S
C136 H161 0.950 . S
C137 C136 1.349 1_545 S
C137 C153 1.349 . S
C138 C136 1.327 . S
C138 C157 1.429 1_565 S
C138 H162 0.950 . S
C139 C156 1.574 . S
C139 C158 1.368 . S
C139 H163 0.949 . S
H140 C144 0.949 . S
C141 C142 1.349 . S
C141 C143 1.327 . S
C141 H164 0.950 . S
C142 C141 1.349 . S
C142 C154 1.349 1_545 S
C143 C141 1.327 . S
C143 C159 1.429 . S
C143 H165 0.950 . S
C144 H140 0.949 . S
C144 C152 1.574 . S
C144 C160 1.368 1_565 S
H145 C153 0.950 . S
H146 C151 0.950 . S
H147 C152 0.949 . S
H148 C154 0.950 . S
H149 C155 0.950 . S
H150 C156 0.949 . S
C151 H146 0.950 . S
C151 C153 1.327 . S
C151 C157 1.429 . S
C152 C144 1.574 . S
C152 H147 0.949 . S
C152 C158 1.368 1_565 S
C153 C137 1.349 . S
C153 H145 0.950 . S
C153 C151 1.327 . S
C154 C142 1.349 1_565 S
C154 H148 0.950 . S
C154 C155 1.327 . S
C155 H149 0.950 . S
C155 C154 1.327 . S
C155 C159 1.429 1_565 S
C156 C139 1.574 . S
C156 H150 0.949 . S
C156 C160 1.368 . S
C157 C138 1.429 1_545 S
C157 C151 1.429 . S
C157 C158 1.523 . S
C158 C139 1.368 . S
C158 C152 1.368 1_545 S
C158 C157 1.523 . S
C159 C143 1.429 . S
C159 C155 1.429 1_545 S
C159 C160 1.523 . S
C160 C144 1.368 1_545 S
C160 C156 1.368 . S
C160 C159 1.523 . S
H161 C136 0.950 . S
H162 C138 0.950 . S
H163 C139 0.949 . S
H164 C141 0.950 . S
H165 C143 0.950 . S
C166 C167 1.349 . S
C166 C168 1.327 . S
C166 H191 0.950 . S
C167 C166 1.349 . S
C167 C183 1.349 1_455 S
C168 C166 1.327 . S
C168 C187 1.429 . S
C168 H192 0.950 . S
C169 C186 1.574 . S
C169 C188 1.370 . S
C169 H193 0.949 . S
H170 C174 0.949 . S
C171 C172 1.349 . S
C171 C173 1.327 . S
C171 H194 0.950 . S
C172 C171 1.349 . S
C172 C184 1.349 1_655 S
C173 C171 1.327 . S
C173 C189 1.429 . S
C173 H195 0.950 . S
C174 H170 0.949 . S
C174 C182 1.574 . S
C174 C190 1.368 1_455 S
H175 C183 0.950 . S
H176 C181 0.950 . S
H177 C182 0.949 . S
H178 C184 0.950 . S
H179 C185 0.950 . S
H180 C186 0.949 . S
C181 H176 0.950 . S
C181 C183 1.327 . S
C181 C187 1.429 1_655 S
C182 C174 1.574 . S
C182 H177 0.949 . S
C182 C188 1.367 1_455 S
C183 C167 1.349 1_655 S
C183 H175 0.950 . S
C183 C181 1.327 . S
C184 C172 1.349 1_455 S
C184 H178 0.950 . S
C184 C185 1.327 . S
C185 H179 0.950 . S
C185 C184 1.327 . S
C185 C189 1.429 1_455 S
C186 C169 1.574 . S
C186 H180 0.949 . S
C186 C190 1.368 . S
C187 C168 1.429 . S
C187 C181 1.429 1_455 S
C187 C188 1.523 1_455 S
C188 C169 1.370 . S
C188 C182 1.367 1_655 S
C188 C187 1.523 1_655 S
C189 C173 1.429 . S
C189 C185 1.429 1_655 S
C189 C190 1.523 . S
C190 C174 1.368 1_655 S
C190 C186 1.368 . S
C190 C189 1.523 . S
H191 C166 0.950 . S
H192 C168 0.950 . S
H193 C169 0.949 . S
H194 C171 0.950 . S
H195 C173 0.950 . S
C196 C197 1.349 . S
C196 C198 1.327 . S
C196 H221 0.950 . S
C197 C196 1.349 . S
C197 C213 1.349 1_565 S
C198 C196 1.327 . S
C198 C217 1.429 . S
C198 H222 0.950 . S
C199 C216 1.574 . S
C199 C218 1.368 1_545 S
C199 H223 0.949 . S
H200 C204 0.949 . S
C201 C202 1.349 1_545 S
C201 C203 1.327 . S
C201 H224 0.950 . S
C202 C201 1.349 1_565 S
C202 C214 1.349 . S
C203 C201 1.327 . S
C203 C219 1.429 1_545 S
C203 H225 0.950 . S
C204 H200 0.949 . S
C204 C212 1.574 . S
C204 C220 1.368 . S
H205 C213 0.950 . S
H206 C211 0.950 . S
H207 C212 0.949 . S
H208 C214 0.950 . S
H209 C215 0.950 . S
H210 C216 0.949 . S
C211 H206 0.950 . S
C211 C213 1.327 . S
C211 C217 1.429 1_545 S
C212 C204 1.574 . S
C212 H207 0.949 . S
C212 C218 1.368 . S
C213 C197 1.349 1_545 S
C213 H205 0.950 . S
C213 C211 1.327 . S
C214 C202 1.349 . S
C214 H208 0.950 . S
C214 C215 1.327 . S
C215 H209 0.950 . S
C215 C214 1.327 . S
C215 C219 1.429 . S
C216 C199 1.574 . S
C216 H210 0.949 . S
C216 C220 1.368 1_545 S
C217 C198 1.429 . S
C217 C211 1.429 1_565 S
C217 C218 1.523 . S
C218 C199 1.368 1_565 S
C218 C212 1.368 . S
C218 C217 1.523 . S
C219 C203 1.429 1_565 S
C219 C215 1.429 . S
C219 C220 1.523 . S
C220 C204 1.368 . S
C220 C216 1.368 1_565 S
C220 C219 1.523 . S
H221 C196 0.950 . S
H222 C198 0.950 . S
H223 C199 0.949 . S
H224 C201 0.950 . S
H225 C203 0.950 . S
C226 C227 1.349 1_455 S
C226 C228 1.327 . S
C226 H251 0.950 . S
C227 C226 1.349 1_655 S
C227 C243 1.349 . S
C228 C226 1.327 . S
C228 C247 1.429 1_455 S
C228 H252 0.950 . S
C229 C246 1.574 . S
C229 C248 1.368 . S
C229 H253 0.949 . S
H230 C234 0.949 . S
C231 C232 1.349 . S
C231 C233 1.327 . S
C231 H254 0.950 . S
C232 C231 1.349 . S
C232 C244 1.349 1_655 S
C233 C231 1.327 . S
C233 C249 1.429 . S
C233 H255 0.950 . S
C234 H230 0.949 . S
C234 C242 1.574 . S
C234 C250 1.368 1_455 S
H235 C243 0.950 . S
H236 C241 0.950 . S
H237 C242 0.949 . S
H238 C244 0.950 . S
H239 C245 0.950 . S
H240 C246 0.949 . S
C241 H236 0.950 . S
C241 C243 1.327 . S
C241 C247 1.429 . S
C242 C234 1.574 . S
C242 H237 0.949 . S
C242 C248 1.368 1_455 S
C243 C227 1.349 . S
C243 H235 0.950 . S
C243 C241 1.327 . S
C244 C232 1.349 1_455 S
C244 H238 0.950 . S
C244 C245 1.327 . S
C245 H239 0.950 . S
C245 C244 1.327 . S
C245 C249 1.429 1_455 S
C246 C229 1.574 . S
C246 H240 0.949 . S
C246 C250 1.368 . S
C247 C228 1.429 1_655 S
C247 C241 1.429 . S
C247 C248 1.523 . S
C248 C229 1.368 . S
C248 C242 1.368 1_655 S
C248 C247 1.523 . S
C249 C233 1.429 . S
C249 C245 1.429 1_655 S
C249 C250 1.523 . S
C250 C234 1.368 1_655 S
C250 C246 1.368 . S
C250 C249 1.523 . S
H251 C226 0.950 . S
H252 C228 0.950 . S
H253 C229 0.949 . S
H254 C231 0.950 . S
H255 C233 0.950 . S
C256 C257 1.349 1_565 S
C256 C258 1.327 . S
C256 H281 0.950 . S
C257 C256 1.349 1_545 S
C257 C273 1.349 . S
C258 C256 1.327 . S
C258 C277 1.423 1_565 S
C258 H282 0.950 . S
C259 C276 1.574 . S
C259 C278 1.368 1_545 S
C259 H283 0.949 . S
H260 C264 0.949 . S
C261 C262 1.349 1_545 S
C261 C263 1.327 . S
C261 H284 0.950 . S
C262 C261 1.349 1_565 S
C262 C274 1.349 . S
C263 C261 1.327 . S
C263 C279 1.429 1_545 S
C263 H285 0.950 . S
C264 H260 0.949 . S
C264 C272 1.574 . S
C264 C280 1.368 . S
H265 C273 0.950 . S
H266 C271 0.950 . S
H267 C272 0.949 . S
H268 C274 0.950 . S
H269 C275 0.950 . S
H270 C276 0.949 . S
C271 H266 0.950 . S
C271 C273 1.327 . S
C271 C277 1.435 . S
C272 C264 1.574 . S
C272 H267 0.949 . S
C272 C278 1.368 . S
C273 C257 1.349 . S
C273 H265 0.950 . S
C273 C271 1.327 . S
C274 C262 1.349 . S
C274 H268 0.950 . S
C274 C275 1.327 . S
C275 H269 0.950 . S
C275 C274 1.327 . S
C275 C279 1.429 . S
C276 C259 1.574 . S
C276 H270 0.949 . S
C276 C280 1.368 1_545 S
C277 C258 1.423 1_545 S
C277 C271 1.435 . S
C277 C278 1.522 1_545 S
C278 C259 1.368 1_565 S
C278 C272 1.368 . S
C278 C277 1.522 1_565 S
C279 C263 1.429 1_565 S
C279 C275 1.429 . S
C279 C280 1.523 . S
C280 C264 1.368 . S
C280 C276 1.368 1_565 S
C280 C279 1.523 . S
H281 C256 0.950 . S
H282 C258 0.950 . S
H283 C259 0.949 . S
H284 C261 0.950 . S
H285 C263 0.950 . S
C286 C287 1.349 1_655 S
C286 C288 1.327 . S
C286 H311 0.950 . S
C287 C286 1.349 1_455 S
C287 C303 1.349 . S
C288 C286 1.327 . S
C288 C307 1.429 1_655 S
C288 H312 0.950 . S
C289 C306 1.574 . S
C289 C308 1.368 . S
C289 H313 0.949 . S
H290 C294 0.949 . S
C291 C292 1.349 . S
C291 C293 1.327 . S
C291 H314 0.950 . S
C292 C291 1.349 . S
C292 C304 1.342 1_455 S
C293 C291 1.327 . S
C293 C309 1.429 . S
C293 H315 0.950 . S
C294 H290 0.949 . S
C294 C302 1.574 . S
C294 C310 1.368 1_655 S
H295 C303 0.950 . S
H296 C301 0.950 . S
H297 C302 0.949 . S
H298 C304 0.957 . S
H299 C305 0.950 . S
H300 C306 0.949 . S
C301 H296 0.950 . S
C301 C303 1.327 . S
C301 C307 1.429 . S
C302 C294 1.574 . S
C302 H297 0.949 . S
C302 C308 1.368 1_655 S
C303 C287 1.349 . S
C303 H295 0.950 . S
C303 C301 1.327 . S
C304 C292 1.342 1_655 S
C304 H298 0.957 . S
C304 C305 1.328 . S
C305 H299 0.950 . S
C305 C304 1.328 . S
C305 C309 1.429 1_655 S
C306 C289 1.574 . S
C306 H300 0.949 . S
C306 C310 1.368 . S
C307 C288 1.429 1_455 S
C307 C301 1.429 . S
C307 C308 1.523 . S
C308 C289 1.368 . S
C308 C302 1.368 1_455 S
C308 C307 1.523 . S
C309 C293 1.429 . S
C309 C305 1.429 1_455 S
C309 C310 1.523 . S
C310 C294 1.368 1_455 S
C310 C306 1.368 . S
C310 C309 1.523 . S
H311 C286 0.950 . S
H312 C288 0.950 . S
H313 C289 0.949 . S
H314 C291 0.950 . S
H315 C293 0.950 . S
C316 C317 1.349 1_545 S
C316 C318 1.327 . S
C316 H341 0.950 . S
C317 C316 1.349 1_565 S
C317 C333 1.349 . S
C318 C316 1.327 . S
C318 C337 1.426 1_545 S
C318 H342 0.950 . S
C319 C336 1.574 . S
C319 C338 1.368 1_565 S
C319 H343 0.949 . S
H320 C324 0.949 . S
C321 C322 1.349 1_565 S
C321 C323 1.327 . S
C321 H344 0.950 . S
C322 C321 1.349 1_545 S
C322 C334 1.349 . S
C323 C321 1.327 . S
C323 C339 1.429 1_565 S
C323 H345 0.950 . S
C324 H320 0.949 . S
C324 C332 1.574 . S
C324 C340 1.368 . S
H325 C333 0.950 . S
H326 C331 0.950 . S
H327 C332 0.949 . S
H328 C334 0.950 . S
H329 C335 0.950 . S
H330 C336 0.949 . S
C331 H326 0.950 . S
C331 C333 1.327 . S
C331 C337 1.431 . S
C332 C324 1.574 . S
C332 H327 0.949 . S
C332 C338 1.368 . S
C333 C317 1.349 . S
C333 H325 0.950 . S
C333 C331 1.327 . S
C334 C322 1.349 . S
C334 H328 0.950 . S
C334 C335 1.327 . S
C335 H329 0.950 . S
C335 C334 1.327 . S
C335 C339 1.429 . S
C336 C319 1.574 . S
C336 H330 0.949 . S
C336 C340 1.368 1_565 S
C337 C318 1.426 1_565 S
C337 C331 1.431 . S
C337 C338 1.523 1_565 S
C338 C319 1.368 1_545 S
C338 C332 1.368 . S
C338 C337 1.523 1_545 S
C339 C323 1.429 1_545 S
C339 C335 1.429 . S
C339 C340 1.523 . S
C340 C324 1.368 . S
C340 C336 1.368 1_545 S
C340 C339 1.523 . S
H341 C316 0.950 . S
H342 C318 0.950 . S
H343 C319 0.949 . S
H344 C321 0.950 . S
H345 C323 0.950 . S
C346 C347 1.349 . S
C346 C348 1.327 . S
C346 H371 0.950 . S
C347 C346 1.349 . S
C347 C363 1.349 1_554 S
C348 C346 1.327 . S
C348 C367 1.429 . S
C348 H372 0.950 . S
C349 C366 1.574 . S
C349 C368 1.368 1_556 S
C349 H373 0.949 . S
H350 C354 0.949 . S
C351 C352 1.349 1_556 S
C351 C353 1.327 . S
C351 H374 0.950 . S
C352 C351 1.349 1_554 S
C352 C364 1.349 . S
C353 C351 1.327 . S
C353 C369 1.429 1_556 S
C353 H375 0.950 . S
C354 H350 0.949 . S
C354 C362 1.574 . S
C354 C370 1.368 . S
H355 C363 0.950 . S
H356 C361 0.950 . S
H357 C362 0.949 . S
H358 C364 0.950 . S
H359 C365 0.950 . S
H360 C366 0.949 . S
C361 H356 0.950 . S
C361 C363 1.327 . S
C361 C367 1.429 1_556 S
C362 C354 1.574 . S
C362 H357 0.949 . S
C362 C368 1.368 . S
C363 C347 1.349 1_556 S
C363 H355 0.950 . S
C363 C361 1.327 . S
C364 C352 1.349 . S
C364 H358 0.950 . S
C364 C365 1.327 . S
C365 H359 0.950 . S
C365 C364 1.327 . S
C365 C369 1.429 . S
C366 C349 1.574 . S
C366 H360 0.949 . S
C366 C370 1.368 1_556 S
C367 C348 1.429 . S
C367 C361 1.429 1_554 S
C367 C368 1.523 . S
C368 C349 1.368 1_554 S
C368 C362 1.368 . S
C368 C367 1.523 . S
C369 C353 1.429 1_554 S
C369 C365 1.429 . S
C369 C370 1.523 . S
C370 C354 1.368 . S
C370 C366 1.368 1_554 S
C370 C369 1.523 . S
H371 C346 0.950 . S
H372 C348 0.950 . S
H373 C349 0.949 . S
H374 C351 0.950 . S
H375 C353 0.950 . S
C376 C377 1.349 1_556 S
C376 C378 1.327 . S
C376 H401 0.950 . S
C377 C376 1.349 1_554 S
C377 C393 1.349 . S
C378 C376 1.327 . S
C378 C397 1.429 1_556 S
C378 H402 0.950 . S
C379 C396 1.574 . S
C379 C398 1.368 . S
C379 H403 0.949 . S
H380 C384 0.949 . S
C381 C382 1.349 . S
C381 C383 1.327 . S
C381 H404 0.950 . S
C382 C381 1.349 . S
C382 C394 1.349 1_554 S
C383 C381 1.327 . S
C383 C399 1.429 . S
C383 H405 0.950 . S
C384 H380 0.949 . S
C384 C392 1.574 . S
C384 C400 1.368 1_556 S
H385 C393 0.950 . S
H386 C391 0.950 . S
H387 C392 0.949 . S
H388 C394 0.950 . S
H389 C395 0.950 . S
H390 C396 0.949 . S
C391 H386 0.950 . S
C391 C393 1.327 . S
C391 C397 1.429 . S
C392 C384 1.574 . S
C392 H387 0.949 . S
C392 C398 1.368 1_556 S
C393 C377 1.349 . S
C393 H385 0.950 . S
C393 C391 1.327 . S
C394 C382 1.349 1_556 S
C394 H388 0.950 . S
C394 C395 1.327 . S
C395 H389 0.950 . S
C395 C394 1.327 . S
C395 C399 1.429 1_556 S
C396 C379 1.574 . S
C396 H390 0.949 . S
C396 C400 1.368 . S
C397 C378 1.429 1_554 S
C397 C391 1.429 . S
C397 C398 1.523 . S
C398 C379 1.368 . S
C398 C392 1.368 1_554 S
C398 C397 1.523 . S
C399 C383 1.429 . S
C399 C395 1.429 1_554 S
C399 C400 1.523 . S
C400 C384 1.368 1_554 S
C400 C396 1.368 . S
C400 C399 1.523 . S
H401 C376 0.950 . S
H402 C378 0.950 . S
H403 C379 0.949 . S
H404 C381 0.950 . S
H405 C383 0.950 . S
C406 C407 1.349 . S
C406 C408 1.327 . S
C406 H431 0.950 . S
C407 C406 1.349 . S
C407 C423 1.349 1_554 S
C408 C406 1.327 . S
C408 C427 1.429 . S
C408 H432 0.950 . S
C409 C426 1.574 . S
C409 C428 1.368 1_556 S
C409 H433 0.949 . S
H410 C414 0.949 . S
C411 C412 1.349 1_556 S
C411 C413 1.327 . S
C411 H434 0.950 . S
C412 C411 1.349 1_554 S
C412 C424 1.349 . S
C413 C411 1.327 . S
C413 C429 1.429 1_556 S
C413 H435 0.950 . S
C414 H410 0.949 . S
C414 C422 1.574 . S
C414 C430 1.368 . S
H415 C423 0.950 . S
H416 C421 0.950 . S
H417 C422 0.949 . S
H418 C424 0.950 . S
H419 C425 0.950 . S
H420 C426 0.949 . S
C421 H416 0.950 . S
C421 C423 1.327 . S
C421 C427 1.429 1_556 S
C422 C414 1.574 . S
C422 H417 0.949 . S
C422 C428 1.368 . S
C423 C407 1.349 1_556 S
C423 H415 0.950 . S
C423 C421 1.327 . S
C424 C412 1.349 . S
C424 H418 0.950 . S
C424 C425 1.327 . S
C425 H419 0.950 . S
C425 C424 1.327 . S
C425 C429 1.429 . S
C426 C409 1.574 . S
C426 H420 0.949 . S
C426 C430 1.368 1_556 S
C427 C408 1.429 . S
C427 C421 1.429 1_554 S
C427 C428 1.523 . S
C428 C409 1.368 1_554 S
C428 C422 1.368 . S
C428 C427 1.523 . S
C429 C413 1.429 1_554 S
C429 C425 1.429 . S
C429 C430 1.523 . S
C430 C414 1.368 . S
C430 C426 1.368 1_554 S
C430 C429 1.523 . S
H431 C406 0.950 . S
H432 C408 0.950 . S
H433 C409 0.949 . S
H434 C411 0.950 . S
H435 C413 0.950 . S
C436 C437 1.349 . S
C436 C438 1.327 . S
C436 H461 0.950 . S
C437 C436 1.349 . S
C437 C453 1.349 1_554 S
C438 C436 1.327 . S
C438 C457 1.429 . S
C438 H462 0.950 . S
C439 C456 1.574 . S
C439 C458 1.368 1_556 S
C439 H463 0.949 . S
H440 C444 0.949 . S
C441 C442 1.349 1_556 S
C441 C443 1.327 . S
C441 H464 0.950 . S
C442 C441 1.349 1_554 S
C442 C454 1.349 . S
C443 C441 1.327 . S
C443 C459 1.429 1_556 S
C443 H465 0.950 . S
C444 H440 0.949 . S
C444 C452 1.574 . S
C444 C460 1.368 . S
H445 C453 0.950 . S
H446 C451 0.950 . S
H447 C452 0.949 . S
H448 C454 0.950 . S
H449 C455 0.950 . S
H450 C456 0.949 . S
C451 H446 0.950 . S
C451 C453 1.327 . S
C451 C457 1.429 1_556 S
C452 C444 1.574 . S
C452 H447 0.949 . S
C452 C458 1.368 . S
C453 C437 1.349 1_556 S
C453 H445 0.950 . S
C453 C451 1.327 . S
C454 C442 1.349 . S
C454 H448 0.950 . S
C454 C455 1.327 . S
C455 H449 0.950 . S
C455 C454 1.327 . S
C455 C459 1.429 . S
C456 C439 1.574 . S
C456 H450 0.949 . S
C456 C460 1.368 1_556 S
C457 C438 1.429 . S
C457 C451 1.429 1_554 S
C457 C458 1.523 . S
C458 C439 1.368 1_554 S
C458 C452 1.368 . S
C458 C457 1.523 . S
C459 C443 1.429 1_554 S
C459 C455 1.429 . S
C459 C460 1.523 . S
C460 C444 1.368 . S
C460 C456 1.368 1_554 S
C460 C459 1.523 . S
H461 C436 0.950 . S
H462 C438 0.950 . S
H463 C439 0.949 . S
H464 C441 0.950 . S
H465 C443 0.950 . S
C112 C90 2.090 . S
C107 C7 2.169 . S
C142 C86 1.231 . S
C137 C34 1.278 . S
C172 C96 2.089 1_655 S
C167 C14 2.177 . S
C202 C80 1.234 1_565 S
C197 C32 1.284 . S
C227 C16 2.293 . S
C232 C72 2.198 . S
C262 C104 1.337 . S
C257 C25 1.408 . S
C287 C8 2.293 . S
C292 C58 2.191 . S
C317 C26 1.405 . S
C322 C102 1.330 . S
C347 C50 0.976 . S
C352 C84 0.971 . S
C377 C43 1.008 . S
C382 C99 1.000 . S
C412 C93 0.996 . S
C407 C52 1.003 . S
C442 C88 0.964 . S
C437 C44 0.969 . S
