# Generated by pormake.
# Topology ptr, (4,4)-cn, num edge types: 1
# Building blocks:
#     Node 0, Type 0, BuildingBlock: TATPOV_clean_sbu_0, # of connection points: 4
#     Node 1, Type 0, BuildingBlock: TATPOV_clean_sbu_0, # of connection points: 4
#     Node 2, Type 0, BuildingBlock: TATPOV_clean_sbu_0, # of connection points: 4
#     Node 3, Type 0, BuildingBlock: TATPOV_clean_sbu_0, # of connection points: 4
#     Node 4, Type 0, BuildingBlock: TATPOV_clean_sbu_0, # of connection points: 4
#     Node 5, Type 0, BuildingBlock: TATPOV_clean_sbu_0, # of connection points: 4
#     Node 6, Type 0, BuildingBlock: TATPOV_clean_sbu_0, # of connection points: 4
#     Node 7, Type 0, BuildingBlock: TATPOV_clean_sbu_0, # of connection points: 4
#     Node 8, Type 0, BuildingBlock: TATPOV_clean_sbu_0, # of connection points: 4
#     Node 9, Type 0, BuildingBlock: TATPOV_clean_sbu_0, # of connection points: 4
#     Node 10, Type 0, BuildingBlock: TATPOV_clean_sbu_0, # of connection points: 4
#     Node 11, Type 0, BuildingBlock: TATPOV_clean_sbu_0, # of connection points: 4
#     Node 12, Type 0, BuildingBlock: TATPOV_clean_sbu_0, # of connection points: 4
#     Node 13, Type 0, BuildingBlock: TATPOV_clean_sbu_0, # of connection points: 4
#     Node 14, Type 0, BuildingBlock: TATPOV_clean_sbu_0, # of connection points: 4
#     Node 15, Type 0, BuildingBlock: TATPOV_clean_sbu_0, # of connection points: 4
#     Node 16, Type 0, BuildingBlock: TATPOV_clean_sbu_0, # of connection points: 4
#     Node 17, Type 0, BuildingBlock: TATPOV_clean_sbu_0, # of connection points: 4
#     Node 18, Type 1, BuildingBlock: NAWXER_clean_linker_0, # of connection points: 4
#     Node 19, Type 1, BuildingBlock: NAWXER_clean_linker_0, # of connection points: 4
#     Node 20, Type 1, BuildingBlock: NAWXER_clean_linker_0, # of connection points: 4
#     Node 21, Type 1, BuildingBlock: NAWXER_clean_linker_0, # of connection points: 4
#     Node 22, Type 1, BuildingBlock: NAWXER_clean_linker_0, # of connection points: 4
#     Node 23, Type 1, BuildingBlock: NAWXER_clean_linker_0, # of connection points: 4
#     Node 24, Type 1, BuildingBlock: NAWXER_clean_linker_0, # of connection points: 4
#     Node 25, Type 1, BuildingBlock: NAWXER_clean_linker_0, # of connection points: 4
#     Node 26, Type 1, BuildingBlock: NAWXER_clean_linker_0, # of connection points: 4
#     Node 27, Type 1, BuildingBlock: NAWXER_clean_linker_0, # of connection points: 4
#     Node 28, Type 1, BuildingBlock: NAWXER_clean_linker_0, # of connection points: 4
#     Node 29, Type 1, BuildingBlock: NAWXER_clean_linker_0, # of connection points: 4
#     Node 30, Type 1, BuildingBlock: NAWXER_clean_linker_0, # of connection points: 4
#     Node 31, Type 1, BuildingBlock: NAWXER_clean_linker_0, # of connection points: 4
#     Node 32, Type 1, BuildingBlock: NAWXER_clean_linker_0, # of connection points: 4
#     Node 33, Type 1, BuildingBlock: NAWXER_clean_linker_0, # of connection points: 4
#     Node 34, Type 1, BuildingBlock: NAWXER_clean_linker_0, # of connection points: 4
#     Node 35, Type 1, BuildingBlock: NAWXER_clean_linker_0, # of connection points: 4
#     Edge 36, Type (0, 1), BuildingBlock: OJICUG_clean_linker_0, # of connection points: 2
#     Edge 37, Type (0, 1), BuildingBlock: OJICUG_clean_linker_0, # of connection points: 2
#     Edge 38, Type (0, 1), BuildingBlock: OJICUG_clean_linker_0, # of connection points: 2
#     Edge 39, Type (0, 1), BuildingBlock: OJICUG_clean_linker_0, # of connection points: 2
#     Edge 40, Type (0, 1), BuildingBlock: OJICUG_clean_linker_0, # of connection points: 2
#     Edge 41, Type (0, 1), BuildingBlock: OJICUG_clean_linker_0, # of connection points: 2
#     Edge 42, Type (0, 1), BuildingBlock: OJICUG_clean_linker_0, # of connection points: 2
#     Edge 43, Type (0, 1), BuildingBlock: OJICUG_clean_linker_0, # of connection points: 2
#     Edge 44, Type (0, 1), BuildingBlock: OJICUG_clean_linker_0, # of connection points: 2
#     Edge 45, Type (0, 1), BuildingBlock: OJICUG_clean_linker_0, # of connection points: 2
#     Edge 46, Type (0, 1), BuildingBlock: OJICUG_clean_linker_0, # of connection points: 2
#     Edge 47, Type (0, 1), BuildingBlock: OJICUG_clean_linker_0, # of connection points: 2
#     Edge 48, Type (0, 1), BuildingBlock: OJICUG_clean_linker_0, # of connection points: 2
#     Edge 49, Type (0, 1), BuildingBlock: OJICUG_clean_linker_0, # of connection points: 2
#     Edge 50, Type (0, 1), BuildingBlock: OJICUG_clean_linker_0, # of connection points: 2
#     Edge 51, Type (0, 1), BuildingBlock: OJICUG_clean_linker_0, # of connection points: 2
#     Edge 52, Type (0, 1), BuildingBlock: OJICUG_clean_linker_0, # of connection points: 2
#     Edge 53, Type (0, 1), BuildingBlock: OJICUG_clean_linker_0, # of connection points: 2
#     Edge 54, Type (0, 1), BuildingBlock: OJICUG_clean_linker_0, # of connection points: 2
#     Edge 55, Type (0, 1), BuildingBlock: OJICUG_clean_linker_0, # of connection points: 2
#     Edge 56, Type (0, 1), BuildingBlock: OJICUG_clean_linker_0, # of connection points: 2
#     Edge 57, Type (0, 1), BuildingBlock: OJICUG_clean_linker_0, # of connection points: 2
#     Edge 58, Type (0, 1), BuildingBlock: OJICUG_clean_linker_0, # of connection points: 2
#     Edge 59, Type (0, 1), BuildingBlock: OJICUG_clean_linker_0, # of connection points: 2
#     Edge 60, Type (0, 1), BuildingBlock: OJICUG_clean_linker_0, # of connection points: 2
#     Edge 61, Type (0, 1), BuildingBlock: OJICUG_clean_linker_0, # of connection points: 2
#     Edge 62, Type (0, 1), BuildingBlock: OJICUG_clean_linker_0, # of connection points: 2
#     Edge 63, Type (0, 1), BuildingBlock: OJICUG_clean_linker_0, # of connection points: 2
#     Edge 64, Type (0, 1), BuildingBlock: OJICUG_clean_linker_0, # of connection points: 2
#     Edge 65, Type (0, 1), BuildingBlock: OJICUG_clean_linker_0, # of connection points: 2
#     Edge 66, Type (0, 1), BuildingBlock: OJICUG_clean_linker_0, # of connection points: 2
#     Edge 67, Type (0, 1), BuildingBlock: OJICUG_clean_linker_0, # of connection points: 2
#     Edge 68, Type (0, 1), BuildingBlock: OJICUG_clean_linker_0, # of connection points: 2
#     Edge 69, Type (0, 1), BuildingBlock: OJICUG_clean_linker_0, # of connection points: 2
#     Edge 70, Type (0, 1), BuildingBlock: OJICUG_clean_linker_0, # of connection points: 2
#     Edge 71, Type (0, 1), BuildingBlock: OJICUG_clean_linker_0, # of connection points: 2
#     Edge 72, Type (0, 1), BuildingBlock: OJICUG_clean_linker_0, # of connection points: 2
#     Edge 73, Type (0, 1), BuildingBlock: OJICUG_clean_linker_0, # of connection points: 2
#     Edge 74, Type (0, 1), BuildingBlock: OJICUG_clean_linker_0, # of connection points: 2
#     Edge 75, Type (0, 1), BuildingBlock: OJICUG_clean_linker_0, # of connection points: 2
#     Edge 76, Type (0, 1), BuildingBlock: OJICUG_clean_linker_0, # of connection points: 2
#     Edge 77, Type (0, 1), BuildingBlock: OJICUG_clean_linker_0, # of connection points: 2
#     Edge 78, Type (0, 1), BuildingBlock: OJICUG_clean_linker_0, # of connection points: 2
#     Edge 79, Type (0, 1), BuildingBlock: OJICUG_clean_linker_0, # of connection points: 2
#     Edge 80, Type (0, 1), BuildingBlock: OJICUG_clean_linker_0, # of connection points: 2
#     Edge 81, Type (0, 1), BuildingBlock: OJICUG_clean_linker_0, # of connection points: 2
#     Edge 82, Type (0, 1), BuildingBlock: OJICUG_clean_linker_0, # of connection points: 2
#     Edge 83, Type (0, 1), BuildingBlock: OJICUG_clean_linker_0, # of connection points: 2
#     Edge 84, Type (0, 1), BuildingBlock: OJICUG_clean_linker_0, # of connection points: 2
#     Edge 85, Type (0, 1), BuildingBlock: OJICUG_clean_linker_0, # of connection points: 2
#     Edge 86, Type (0, 1), BuildingBlock: OJICUG_clean_linker_0, # of connection points: 2
#     Edge 87, Type (0, 1), BuildingBlock: OJICUG_clean_linker_0, # of connection points: 2
#     Edge 88, Type (0, 1), BuildingBlock: OJICUG_clean_linker_0, # of connection points: 2
#     Edge 89, Type (0, 1), BuildingBlock: OJICUG_clean_linker_0, # of connection points: 2
#     Edge 90, Type (0, 1), BuildingBlock: OJICUG_clean_linker_0, # of connection points: 2
#     Edge 91, Type (0, 1), BuildingBlock: OJICUG_clean_linker_0, # of connection points: 2
#     Edge 92, Type (0, 1), BuildingBlock: OJICUG_clean_linker_0, # of connection points: 2
#     Edge 93, Type (0, 1), BuildingBlock: OJICUG_clean_linker_0, # of connection points: 2
#     Edge 94, Type (0, 1), BuildingBlock: OJICUG_clean_linker_0, # of connection points: 2
#     Edge 95, Type (0, 1), BuildingBlock: OJICUG_clean_linker_0, # of connection points: 2
#     Edge 96, Type (0, 1), BuildingBlock: OJICUG_clean_linker_0, # of connection points: 2
#     Edge 97, Type (0, 1), BuildingBlock: OJICUG_clean_linker_0, # of connection points: 2
#     Edge 98, Type (0, 1), BuildingBlock: OJICUG_clean_linker_0, # of connection points: 2
#     Edge 99, Type (0, 1), BuildingBlock: OJICUG_clean_linker_0, # of connection points: 2
#     Edge 100, Type (0, 1), BuildingBlock: OJICUG_clean_linker_0, # of connection points: 2
#     Edge 101, Type (0, 1), BuildingBlock: OJICUG_clean_linker_0, # of connection points: 2
#     Edge 102, Type (0, 1), BuildingBlock: OJICUG_clean_linker_0, # of connection points: 2
#     Edge 103, Type (0, 1), BuildingBlock: OJICUG_clean_linker_0, # of connection points: 2
#     Edge 104, Type (0, 1), BuildingBlock: OJICUG_clean_linker_0, # of connection points: 2
#     Edge 105, Type (0, 1), BuildingBlock: OJICUG_clean_linker_0, # of connection points: 2
#     Edge 106, Type (0, 1), BuildingBlock: OJICUG_clean_linker_0, # of connection points: 2
#     Edge 107, Type (0, 1), BuildingBlock: OJICUG_clean_linker_0, # of connection points: 2
# Relax obj value: 0.067
# Max RMSD: 0.243
# Mean RMSD: 0.106
data_MOF--net-ptr--node1-TATPOV_clean_sbu_0--node2-NAWXER_clean_linker_0--edge1-OJICUG_clean_linker_0
_symmetry_space_group_name_H-M    P1
_symmetry_Int_Tables_number       1
_symmetry_cell_setting            triclinic
loop_
_symmetry_equiv_pos_as_xyz
'x, y, z'
_cell_length_a     67.539047
_cell_length_b     68.380398
_cell_length_c     48.691969
_cell_angle_alpha  89.784528
_cell_angle_beta   90.839742
_cell_angle_gamma 121.32307
loop_
_atom_site_label
_atom_site_type_symbol
_atom_site_fract_x
_atom_site_fract_y
_atom_site_fract_z
_atom_type_partial_charge
Zn0 Zn 0.95663 0.35236 1.00093 0.0
Zn1 Zn -0.00108 0.35857 0.00209 0.0
O2 O 0.9764 0.32436 0.99269 0.0
O3 O 0.9413 0.31866 0.99451 0.0
O4 O 0.029 0.35972 0.00971 0.0
O5 O 0.95996 0.36549 0.03877 0.0
O6 O 0.99528 0.37162 0.03867 0.0
C7 C 0.95452 0.31103 0.9904 0.0
C8 C 0.98801 0.38228 0.95776 0.0
O9 O 0.00336 0.37919 0.96896 0.0
O10 O 0.96785 0.37294 0.96769 0.0
C11 C 0.03331 0.34509 1.00003 0.0
O12 O 0.01927 0.33045 0.98134 0.0
C13 C 0.97948 0.37323 0.05053 0.0
Zn14 Zn 0.62789 0.59379 0.99847 0.0
Zn15 Zn 0.63879 0.63356 0.02076 0.0
O16 O 0.66948 0.64214 0.00214 0.0
O17 O 0.65958 0.60953 0.98177 0.0
O18 O 0.64503 0.66224 0.04024 0.0
O19 O 0.62318 0.57882 0.03503 0.0
O20 O 0.63028 0.61117 0.05353 0.0
C21 C 0.67456 0.63031 0.98685 0.0
C22 C 0.59899 0.60969 0.97826 0.0
O23 O 0.61268 0.62723 0.99272 0.0
O24 O 0.60103 0.59232 0.9782 0.0
C25 C 0.64946 0.68049 0.02797 0.0
O26 O 0.65075 0.68131 1.00105 0.0
C27 C 0.62505 0.59045 0.05611 0.0
Zn28 Zn 0.34359 0.94816 0.04147 0.0
Zn29 Zn 0.34579 0.98752 0.02713 0.0
O30 O 0.31397 0.96819 0.04506 0.0
O31 O 0.311 0.93525 0.05436 0.0
O32 O 0.34421 0.01382 0.01104 0.0
O33 O 0.35009 0.94274 0.00263 0.0
O34 O 0.35196 0.97496 0.99233 0.0
C35 C 0.30252 0.94797 0.05466 0.0
C36 C 0.37918 0.98969 0.07045 0.0
O37 O 0.37261 0.00059 0.05535 0.0
O38 O 0.36962 0.96814 0.06837 0.0
C39 C 0.3463 0.03122 0.02317 0.0
O40 O 0.35083 0.03392 0.04968 0.0
C41 C 0.35318 0.95776 0.9851 0.0
Zn42 Zn 0.05899 0.66418 0.00768 0.0
Zn43 Zn 0.01451 0.65374 0.00834 0.0
O44 O 0.03483 0.68715 0.02103 0.0
O45 O 0.07139 0.69733 0.01798 0.0
O46 O 0.98337 0.65069 1.00144 0.0
O47 O 0.05651 0.65415 0.96818 0.0
O48 O 0.01982 0.64361 0.97061 0.0
C49 C 0.05624 0.70219 0.02386 0.0
C50 C 0.02778 0.62907 0.04822 0.0
O51 O 0.01178 0.63219 0.03928 0.0
O52 O 0.0479 0.64006 0.03799 0.0
C53 C 0.97816 0.66452 0.01164 0.0
O54 O 0.99181 0.67922 0.03052 0.0
C55 C 0.0365 0.64476 0.95726 0.0
Zn56 Zn 0.37427 0.40254 0.04883 0.0
Zn57 Zn 0.36427 0.36401 0.02426 0.0
O58 O 0.33299 0.35649 0.04147 0.0
O59 O 0.34118 0.38975 0.05832 0.0
O60 O 0.35609 0.33459 0.00463 0.0
O61 O 0.38643 0.42002 0.01369 0.0
O62 O 0.37573 0.38758 0.99249 0.0
C63 C 0.32664 0.36883 0.05362 0.0
C64 C 0.3996 0.3835 0.07211 0.0
O65 O 0.39006 0.36918 0.05242 0.0
O66 O 0.39505 0.39906 0.0757 0.0
C67 C 0.35461 0.31751 0.01711 0.0
O68 O 0.3584 0.31883 0.04377 0.0
C69 C 0.38433 0.40918 0.99176 0.0
Zn70 Zn 0.65501 0.04425 1.00168 0.0
Zn71 Zn 0.64369 0.00069 0.01006 0.0
O72 O 0.67776 0.01848 0.99763 0.0
O73 O 0.68821 0.05473 0.99442 0.0
O74 O 0.63906 0.96991 0.02072 0.0
O75 O 0.64568 0.04681 0.03977 0.0
O76 O 0.63535 0.01085 0.04607 0.0
C77 C 0.69307 0.03925 0.9929 0.0
C78 C 0.61855 0.00971 0.96485 0.0
O79 O 0.62093 0.99507 0.97844 0.0
O80 O 0.63095 0.03085 0.97077 0.0
C81 C 0.65198 0.96297 0.01174 0.0
O82 O 0.66728 0.97489 0.99285 0.0
C83 C 0.63719 0.02928 0.05491 0.0
Zn84 Zn 0.60224 0.67267 0.35871 0.0
Zn85 Zn 0.64646 0.68378 0.36206 0.0
O86 O 0.62669 0.64966 0.35242 0.0
O87 O 0.5899 0.63872 0.35449 0.0
O88 O 0.67633 0.68583 0.37227 0.0
O89 O 0.60411 0.68706 0.39581 0.0
O90 O 0.64075 0.69716 0.39673 0.0
C91 C 0.60543 0.634 0.35045 0.0
C92 C 0.63454 0.70389 0.31543 0.0
O93 O 0.65071 0.70309 0.32821 0.0
O94 O 0.61392 0.6928 0.32428 0.0
C95 C 0.68447 0.67595 0.35842 0.0
O96 O 0.67534 0.66727 0.33421 0.0
C97 C 0.62381 0.69733 0.40762 0.0
Zn98 Zn 0.30083 0.93272 0.3239 0.0
Zn99 Zn 0.3094 0.97055 0.34955 0.0
O100 O 0.34116 0.98021 0.33207 0.0
O101 O 0.33405 0.94781 0.31357 0.0
O102 O 0.31509 -0.00135 0.37005 0.0
O103 O 0.29023 0.9149 0.35917 0.0
O104 O 0.29951 0.94682 0.38073 0.0
C105 C 0.34804 0.96877 0.31889 0.0
C106 C 0.27342 0.95006 0.30238 0.0
O107 O 0.28302 0.96441 0.32202 0.0
O108 O 0.27861 0.93503 0.29816 0.0
C109 C 0.31881 0.01663 0.35767 0.0
O110 O 0.31958 0.01718 0.33071 0.0
C111 C 0.2921 0.92546 0.38128 0.0
Zn112 Zn 0.01009 0.2804 0.35042 0.0
Zn113 Zn 0.01828 0.32254 0.34396 0.0
O114 O 0.98485 0.30351 0.35845 0.0
O115 O 0.9772 0.26814 0.36113 0.0
O116 O 0.0212 0.35282 0.33481 0.0
O117 O 0.01843 0.27854 0.31155 0.0
O118 O 0.02575 0.31364 0.3065 0.0
C119 C 0.97092 0.2825 0.3641 0.0
C120 C 0.04605 0.31458 0.38715 0.0
O121 O 0.04238 0.3289 0.37471 0.0
O122 O 0.0347 0.29363 0.38025 0.0
C123 C 0.00416 0.35174 0.32181 0.0
O124 O 0.98607 0.33153 0.31577 0.0
C125 C 0.02507 0.29602 0.29668 0.0
Zn126 Zn 0.73091 0.99603 0.3479 0.0
Zn127 Zn 0.68848 0.99122 0.34354 0.0
O128 O 0.71139 0.0252 0.35188 0.0
O129 O 0.74622 0.03017 0.35462 0.0
O130 O 0.65879 0.99048 0.33486 0.0
O131 O 0.7274 0.98257 0.30969 0.0
O132 O 0.69245 0.97741 0.3083 0.0
C133 C 0.7331 0.03825 0.35595 0.0
C134 C 0.69665 0.96635 0.38937 0.0
O135 O 0.68275 0.97099 0.37717 0.0
O136 O 0.71713 0.97464 0.38069 0.0
C137 C 0.65485 0.00562 0.34363 0.0
O138 O 0.66929 0.02094 0.36148 0.0
C139 C 0.70814 0.97512 0.29733 0.0
Zn140 Zn 0.02383 0.72539 0.3792 0.0
Zn141 Zn 0.01798 0.68895 0.35289 0.0
O142 O 0.98519 0.67738 0.36838 0.0
O143 O 0.99008 0.70888 0.3871 0.0
O144 O 0.01437 0.66213 0.33135 0.0
O145 O 0.03545 0.7445 0.34502 0.0
O146 O 0.02799 0.71347 0.32264 0.0
C147 C 0.97701 0.68795 0.38092 0.0
C148 C 0.05172 0.70916 0.4022 0.0
O149 O 0.04355 0.69534 0.38188 0.0
O150 O 0.0454 0.72337 0.40623 0.0
C151 C 0.00754 0.64258 0.34173 0.0
O152 O 0.00221 0.63922 0.36786 0.0
C153 C 0.03466 0.73467 0.3227 0.0
Zn154 Zn 0.32208 0.38309 0.33876 0.0
Zn155 Zn 0.31627 0.34113 0.34423 0.0
O156 O 0.3492 0.3618 0.32918 0.0
O157 O 0.35431 0.39615 0.32483 0.0
O158 O 0.31456 0.31135 0.35382 0.0
O159 O 0.31614 0.38479 0.37882 0.0
O160 O 0.30916 0.34968 0.38184 0.0
C161 C 0.36179 0.38272 0.32227 0.0
C162 C 0.28509 0.34706 0.3042 0.0
O163 O 0.29097 0.3337 0.31485 0.0
O164 O 0.29536 0.36791 0.31153 0.0
C165 C 0.33024 0.3071 0.34785 0.0
O166 O 0.34746 0.32146 0.33232 0.0
C167 C 0.31003 0.36699 0.39287 0.0
Zn168 Zn 0.2697 0.00681 0.68073 0.0
Zn169 Zn 0.313 0.01581 0.68737 0.0
O170 O 0.29212 0.98189 0.67627 0.0
O171 O 0.25577 0.97274 0.67639 0.0
O172 O 0.34306 0.01742 0.69727 0.0
O173 O 0.27087 0.02113 0.71726 0.0
O174 O 0.30615 0.02763 0.72313 0.0
C175 C 0.27066 0.96704 0.67317 0.0
C176 C 0.30359 0.03809 0.63995 0.0
O177 O 0.31881 0.03667 0.65416 0.0
O178 O 0.28248 0.02696 0.64697 0.0
C179 C 0.34816 0.00362 0.6867 0.0
O180 O 0.33525 0.99013 0.6665 0.0
C181 C 0.28916 0.02898 0.7318 0.0
Zn182 Zn 0.96806 0.27345 0.65151 0.0
Zn183 Zn 0.97746 0.31094 0.67639 0.0
O184 O 0.00957 0.31853 0.6616 0.0
O185 O 0.00143 0.28489 0.64617 0.0
O186 O 0.98445 0.33982 0.69628 0.0
O187 O 0.95226 0.25445 0.68456 0.0
O188 O 0.9638 0.28643 0.70727 0.0
C189 C 0.0161 0.30574 0.65109 0.0
C190 C 0.94562 0.29397 0.6253 0.0
O191 O 0.95354 0.30711 0.64626 0.0
O192 O 0.95037 0.27855 0.62183 0.0
C193 C 0.99091 0.35844 0.68358 0.0
O194 O 0.99353 0.35904 0.65684 0.0
C195 C 0.95389 0.26465 0.70687 0.0
Zn196 Zn 0.67754 0.62767 0.69557 0.0
Zn197 Zn 0.68771 0.66968 0.68241 0.0
O198 O 0.65376 0.65295 0.69555 0.0
O199 O 0.64401 0.61699 0.70016 0.0
O200 O 0.6908 0.69848 0.66727 0.0
O201 O 0.68816 0.62294 0.65913 0.0
O202 O 0.69594 0.65748 0.64832 0.0
C203 C 0.63866 0.63216 0.70064 0.0
C204 C 0.71277 0.66481 0.73086 0.0
O205 O 0.7112 0.67838 0.71418 0.0
O206 O 0.7001 0.6433 0.72766 0.0
C207 C 0.68699 0.71201 0.68082 0.0
O208 O 0.68304 0.70872 0.70727 0.0
C209 C 0.69538 0.63912 0.64202 0.0
Zn210 Zn 0.3834 0.31412 0.69002 0.0
Zn211 Zn 0.34199 0.31015 0.68586 0.0
O212 O 0.36494 0.34352 0.69829 0.0
O213 O 0.39902 0.34684 0.70217 0.0
O214 O 0.31235 0.30998 0.67786 0.0
O215 O 0.38271 0.30581 0.65033 0.0
O216 O 0.34722 0.29928 0.64839 0.0
C217 C 0.38646 0.35544 0.70441 0.0
C218 C 0.34858 0.28125 0.72789 0.0
O219 O 0.33524 0.28736 0.7173 0.0
O220 O 0.36901 0.28964 0.71912 0.0
C221 C 0.30888 0.32556 0.68621 0.0
O222 O 0.32391 0.34136 0.70319 0.0
C223 C 0.36399 0.29904 0.63705 0.0
Zn224 Zn 0.6818 0.0763 0.6921 0.0
Zn225 Zn 0.67906 0.03757 0.67781 0.0
O226 O 0.64638 0.02658 0.69313 0.0
O227 O 0.64895 0.05903 0.70411 0.0
O228 O 0.67613 0.00877 0.66253 0.0
O229 O 0.68889 0.08894 0.65404 0.0
O230 O 0.68859 0.05766 0.64283 0.0
C231 C 0.63726 0.0374 0.70266 0.0
C232 C 0.71377 0.06752 0.72237 0.0
O233 O 0.70457 0.0492 0.70804 0.0
O234 O 0.70725 0.08173 0.7189 0.0
C235 C 0.6784 0.99395 0.6757 0.0
O236 O 0.68303 0.99674 0.70219 0.0
C237 C 0.69132 0.07697 0.63624 0.0
Zn238 Zn 0.9799 0.72089 0.66436 0.0
Zn239 Zn 0.9754 0.68024 0.67494 0.0
O240 O 0.00824 0.69982 0.65952 0.0
O241 O 0.01219 0.73322 0.65057 0.0
O242 O 0.9749 0.65204 0.68802 0.0
O243 O 0.97417 0.72527 0.70384 0.0
O244 O 0.96752 0.69057 0.7107 0.0
C245 C 0.02027 0.72015 0.65039 0.0
C246 C 0.94358 0.68206 0.63225 0.0
O247 O 0.9503 0.67012 0.64489 0.0
O248 O 0.95297 0.70324 0.63759 0.0
C249 C 0.98407 0.64239 0.67572 0.0
O250 O 0.99326 0.64986 0.65148 0.0
C251 C 0.96811 0.70837 0.71958 0.0
C252 C 0.23319 0.34407 0.12119 0.0
C253 C 0.23508 0.33293 0.09801 0.0
C254 C 0.21158 0.33712 0.13222 0.0
C255 C 0.1914 0.31853 0.12075 0.0
C256 C 0.21484 0.31423 0.08661 0.0
C257 C 0.19317 0.3072 0.09779 0.0
C258 C 0.16837 0.3122 0.13111 0.0
C259 C 0.2087 0.3036 0.19978 0.0
C260 C 0.21147 0.31729 0.22273 0.0
C261 C 0.19216 0.29957 0.17926 0.0
C262 C 0.17838 0.30939 0.18133 0.0
C263 C 0.19655 0.32571 0.22551 0.0
C264 C 0.18027 0.32183 0.2051 0.0
C265 C 0.16227 0.3077 0.15911 0.0
C266 C 0.06812 0.28324 0.18021 0.0
C267 C 0.0723 0.30219 0.19623 0.0
C268 C 0.08522 0.28475 0.16292 0.0
C269 C 0.10649 0.30537 0.16074 0.0
C270 C 0.09315 0.32321 0.19254 0.0
C271 C 0.11007 0.32474 0.17497 0.0
C272 C 0.12658 0.30571 0.14891 0.0
C273 C 0.11721 0.34233 0.07034 0.0
C274 C 0.09397 0.32605 0.06385 0.0
C275 C 0.12978 0.33698 0.08868 0.0
C276 C 0.11927 0.31541 0.1012 0.0
C277 C 0.08365 0.30423 0.07589 0.0
C278 C 0.0962 0.29897 0.09446 0.0
C279 C 0.13272 0.31044 0.12114 0.0
H280 H 0.24844 0.35838 0.13067 0.0
H281 H 0.21063 0.34656 0.14945 0.0
H282 H 0.21567 0.30549 0.06857 0.0
H283 H 0.17775 0.29305 0.08835 0.0
H284 H 0.21988 0.29678 0.19719 0.0
H285 H 0.19056 0.28928 0.16156 0.0
H286 H 0.19787 0.33585 0.24326 0.0
H287 H 0.16969 0.32936 0.20749 0.0
H288 H 0.05212 0.26689 0.18211 0.0
H289 H 0.08234 0.26949 0.1525 0.0
H290 H 0.09723 0.3381 0.2047 0.0
H291 H 0.1266 0.3407 0.17393 0.0
H292 H 0.12567 0.3592 0.06119 0.0
H293 H 0.14764 0.34986 0.09351 0.0
H294 H 0.06573 0.29138 0.0714 0.0
H295 H 0.08792 0.28206 0.10343 0.0
N296 N 0.15337 0.31345 0.11325 0.0
N297 N 0.1416 0.30466 0.16675 0.0
C298 C 0.64781 0.88964 0.10198 0.0
C299 C 0.65845 0.8952 0.07617 0.0
C300 C 0.65037 0.87503 0.11974 0.0
C301 C 0.66435 0.86621 0.11269 0.0
C302 C 0.67188 0.88579 0.06876 0.0
C303 C 0.67481 0.8715 0.08684 0.0
C304 C 0.66636 0.84991 0.13107 0.0
C305 C 0.6969 0.91325 0.18538 0.0
C306 C 0.68357 0.9108 0.20852 0.0
C307 C 0.69114 0.89432 0.16871 0.0
C308 C 0.6721 0.87263 0.17507 0.0
C309 C 0.66412 0.8892 0.21426 0.0
C310 C 0.65858 0.8703 0.19786 0.0
C311 C 0.66754 0.85191 0.15999 0.0
C312 C 0.66912 0.77037 0.2033 0.0
C313 C 0.65145 0.76333 0.22272 0.0
C314 C 0.67265 0.78674 0.18341 0.0
C315 C 0.65856 0.79627 0.18278 0.0
C316 C 0.63746 0.77296 0.22185 0.0
C317 C 0.64104 0.78926 0.2022 0.0
C318 C 0.66268 0.81487 0.16377 0.0
C319 C 0.64205 0.75292 0.11066 0.0
C320 C 0.65812 0.75682 0.0901 0.0
C321 C 0.64365 0.77123 0.12538 0.0
C322 C 0.66158 0.79378 0.12013 0.0
C323 C 0.67583 0.77944 0.08464 0.0
C324 C 0.67747 0.79771 0.09944 0.0
C325 C 0.66333 0.81354 0.13488 0.0
H326 H 0.63754 0.89665 0.10869 0.0
H327 H 0.64102 0.87039 0.13884 0.0
H328 H 0.67995 0.88922 0.04887 0.0
H329 H 0.68522 0.86451 0.08055 0.0
H330 H 0.71198 0.9297 0.1805 0.0
H331 H 0.70206 0.89645 0.15149 0.0
H332 H 0.65374 0.8867 0.23217 0.0
H333 H 0.64394 0.8537 0.20328 0.0
H334 H 0.68016 0.76323 0.20349 0.0
H335 H 0.68659 0.79226 0.16895 0.0
H336 H 0.62403 0.76829 0.23682 0.0
H337 H 0.63015 0.79659 0.20231 0.0
H338 H 0.62793 0.73574 0.11498 0.0
H339 H 0.63064 0.76777 0.14052 0.0
H340 H 0.68858 0.78302 0.0691 0.0
H341 H 0.69131 0.81497 0.09484 0.0
N342 N 0.66489 0.83104 0.11966 0.0
N343 N 0.66512 0.83411 0.17508 0.0
C344 C 0.11162 0.79529 0.09714 0.0
C345 C 0.0883 0.78417 0.08843 0.0
C346 C 0.12073 0.81395 0.11496 0.0
C347 C 0.10669 0.8217 0.12512 0.0
C348 C 0.07414 0.79192 0.0988 0.0
C349 C 0.08325 0.81047 0.11716 0.0
C350 C 0.11751 0.84229 0.14278 0.0
C351 C 0.06255 0.80745 0.21889 0.0
C352 C 0.06574 0.78893 0.22353 0.0
C353 C 0.07573 0.82408 0.19939 0.0
C354 C 0.09198 0.82228 0.18377 0.0
C355 C 0.08082 0.78631 0.20644 0.0
C356 C 0.09387 0.80287 0.1868 0.0
C357 C 0.11033 0.84272 0.16967 0.0
C358 C 0.19298 0.9347 0.20924 0.0
C359 C 0.19476 0.92648 0.23507 0.0
C360 C 0.17502 0.92046 0.19093 0.0
C361 C 0.15932 0.89742 0.19768 0.0
C362 C 0.17737 0.90449 0.24308 0.0
C363 C 0.1599 0.89007 0.22455 0.0
C364 C 0.14395 0.88003 0.17678 0.0
C365 C 0.21519 0.90748 0.13939 0.0
C366 C 0.21756 0.91707 0.11317 0.0
C367 C 0.19378 0.89652 0.15228 0.0
C368 C 0.17445 0.89527 0.13934 0.0
C369 C 0.19848 0.91679 0.10085 0.0
C370 C 0.17701 0.90576 0.11376 0.0
C371 C 0.15108 0.87939 0.14977 0.0
H372 H 0.12294 0.78948 0.09046 0.0
H373 H 0.13884 0.82227 0.12104 0.0
H374 H 0.05615 0.78394 0.09243 0.0
H375 H 0.07219 0.81637 0.12459 0.0
H376 H 0.05075 0.80975 0.23135 0.0
H377 H 0.07419 0.83903 0.19762 0.0
H378 H 0.08393 0.77244 0.20964 0.0
H379 H 0.10682 0.80142 0.17567 0.0
H380 H 0.20611 0.95173 0.20275 0.0
H381 H 0.17432 0.92708 0.17095 0.0
H382 H 0.1784 0.89771 0.26285 0.0
H383 H 0.14789 0.87258 0.2307 0.0
H384 H 0.2297 0.90763 0.14942 0.0
H385 H 0.19205 0.888 0.17168 0.0
H386 H 0.19979 0.92387 0.08055 0.0
H387 H 0.16215 0.90452 0.10323 0.0
N388 N 0.13748 0.8607 0.13394 0.0
N389 N 0.12372 0.86163 0.18544 0.0
C390 C 0.32235 0.0993 0.83843 0.0
C391 C 0.29986 0.08276 0.82913 0.0
C392 C 0.32567 0.11565 0.85814 0.0
C393 C 0.30663 0.11592 0.86873 0.0
C394 C 0.28081 0.08238 0.84122 0.0
C395 C 0.2842 0.09904 0.8604 0.0
C396 C 0.3102 0.13572 0.88491 0.0
C397 C 0.30941 0.08516 0.94465 0.0
C398 C 0.32962 0.09379 0.96098 0.0
C399 C 0.30528 0.09991 0.92904 0.0
C400 C 0.32148 0.12356 0.92904 0.0
C401 C 0.3455 0.11751 0.96157 0.0
C402 C 0.34145 0.13224 0.94578 0.0
C403 C 0.31753 0.13959 0.91269 0.0
C404 C 0.31481 0.22517 0.9381 0.0
C405 C 0.33354 0.23564 0.95688 0.0
C406 C 0.31012 0.20562 0.92345 0.0
C407 C 0.32432 0.19633 0.92688 0.0
C408 C 0.34739 0.22602 0.96075 0.0
C409 C 0.3428 0.20656 0.94596 0.0
C410 C 0.31974 0.17568 0.91133 0.0
C411 C 0.33922 0.22766 0.84394 0.0
C412 C 0.32291 0.22174 0.82247 0.0
C413 C 0.33554 0.21203 0.86468 0.0
C414 C 0.31527 0.19026 0.86466 0.0
C415 C 0.3021 0.2004 0.82316 0.0
C416 C 0.2984 0.18474 0.84399 0.0
C417 C 0.31344 0.17216 0.88313 0.0
H418 H 0.33751 0.10047 0.8295 0.0
H419 H 0.34315 0.12884 0.86401 0.0
H420 H 0.26321 0.06961 0.8353 0.0
H421 H 0.2693 0.09909 0.86826 0.0
H422 H 0.29661 0.067 0.94425 0.0
H423 H 0.28922 0.0928 0.91739 0.0
H424 H 0.36127 0.12466 0.97385 0.0
H425 H 0.35412 0.15044 0.94638 0.0
H426 H 0.30354 0.2319 0.93505 0.0
H427 H 0.29526 0.19767 0.90962 0.0
H428 H 0.36205 0.23375 0.9749 0.0
H429 H 0.35394 0.1997 0.94916 0.0
H430 H 0.35534 0.24406 0.84407 0.0
H431 H 0.34919 0.21657 0.8798 0.0
H432 H 0.28931 0.1953 0.80677 0.0
H433 H 0.28277 0.16794 0.84333 0.0
N434 N 0.30864 0.1522 0.87123 0.0
N435 N 0.32184 0.15936 0.92485 0.0
C436 C 0.92554 0.21715 0.91924 0.0
C437 C 0.91451 0.22125 0.94086 0.0
C438 C 0.9137 0.19665 0.90408 0.0
C439 C 0.89044 0.18025 0.90985 0.0
C440 C 0.89211 0.20394 0.94805 0.0
C441 C 0.88021 0.18395 0.93266 0.0
C442 C 0.8757 0.15932 0.89289 0.0
C443 C 0.90406 0.21316 0.82358 0.0
C444 C 0.91714 0.20916 0.80468 0.0
C445 C 0.89181 0.19722 0.84423 0.0
C446 C 0.89265 0.17718 0.84642 0.0
C447 C 0.91888 0.18964 0.808 0.0
C448 C 0.90656 0.17371 0.82847 0.0
C449 C 0.87619 0.15817 0.86393 0.0
C450 C 0.77988 0.09613 0.83348 0.0
C451 C 0.78233 0.08789 0.80816 0.0
C452 C 0.79813 0.10592 0.85253 0.0
C453 C 0.81913 0.10714 0.8471 0.0
C454 C 0.80282 0.08797 0.80323 0.0
C455 C 0.82113 0.09766 0.82249 0.0
C456 C 0.84007 0.12231 0.86399 0.0
C457 C 0.78891 0.06923 0.92311 0.0
C458 C 0.78118 0.079 0.94248 0.0
C459 C 0.80828 0.08322 0.90693 0.0
C460 C 0.82017 0.10713 0.90998 0.0
C461 C 0.79342 0.10294 0.94545 0.0
C462 C 0.81271 0.11673 0.92964 0.0
C463 C 0.84018 0.12289 0.89297 0.0
H464 H 0.94296 0.23005 0.91339 0.0
H465 H 0.9227 0.19395 0.88774 0.0
H466 H 0.88336 0.2061 0.9652 0.0
H467 H 0.86251 0.17168 0.93829 0.0
H468 H 0.90217 0.22788 0.82146 0.0
H469 H 0.88076 0.19994 0.85756 0.0
H470 H 0.92913 0.18624 0.7941 0.0
H471 H 0.90721 0.15822 0.82968 0.0
H472 H 0.76423 0.09616 0.83797 0.0
H473 H 0.79625 0.11395 0.8706 0.0
H474 H 0.80529 0.08193 0.7838 0.0
H475 H 0.8373 0.09883 0.81754 0.0
H476 H 0.77997 0.05085 0.92037 0.0
H477 H 0.81389 0.07543 0.89204 0.0
H478 H 0.78769 0.11127 0.95935 0.0
H479 H 0.82135 0.13513 0.93217 0.0
N480 N 0.85797 0.14127 0.90595 0.0
N481 N 0.85842 0.1397 0.85077 0.0
C482 C 0.77708 0.68829 0.92711 0.0
C483 C 0.76593 0.66748 0.94149 0.0
C484 C 0.79825 0.6957 0.91439 0.0
C485 C 0.80855 0.68237 0.91574 0.0
C486 C 0.77678 0.65469 0.94373 0.0
C487 C 0.79791 0.66211 0.93109 0.0
C488 C 0.83033 0.68921 0.90128 0.0
C489 C 0.77813 0.67024 0.83293 0.0
C490 C 0.78073 0.68891 0.81756 0.0
C491 C 0.79516 0.67303 0.85175 0.0
C492 C 0.81536 0.69449 0.85558 0.0
C493 C 0.80099 0.71052 0.82166 0.0
C494 C 0.81827 0.71321 0.84028 0.0
C495 C 0.8341 0.69659 0.87374 0.0
C496 C 0.91484 0.69052 0.83953 0.0
C497 C 0.92389 0.70831 0.8201 0.0
C498 C 0.89854 0.68836 0.85859 0.0
C499 C 0.89148 0.7044 0.8593 0.0
C500 C 0.91734 0.72475 0.82154 0.0
C501 C 0.90141 0.72283 0.84093 0.0
C502 C 0.87128 0.70032 0.87557 0.0
C503 C 0.92134 0.70104 0.93922 0.0
C504 C 0.91282 0.67963 0.95187 0.0
C505 C 0.90669 0.70528 0.92302 0.0
C506 C 0.88327 0.68821 0.91938 0.0
C507 C 0.88937 0.66265 0.94822 0.0
C508 C 0.8747 0.66698 0.93235 0.0
C509 C 0.86719 0.69229 0.90296 0.0
H510 H 0.76912 0.69849 0.92506 0.0
H511 H 0.80645 0.71173 0.90329 0.0
H512 H 0.76879 0.63879 0.95509 0.0
H513 H 0.80563 0.65167 0.9327 0.0
H514 H 0.76326 0.65317 0.82987 0.0
H515 H 0.79286 0.65819 0.86275 0.0
H516 H 0.80359 0.72536 0.81045 0.0
H517 H 0.8339 0.72987 0.84274 0.0
H518 H 0.91966 0.67769 0.83939 0.0
H519 H 0.89063 0.67345 0.87169 0.0
H520 H 0.92346 0.73847 0.80673 0.0
H521 H 0.89603 0.73525 0.84073 0.0
H522 H 0.9394 0.71439 0.94159 0.0
H523 H 0.91358 0.7219 0.91354 0.0
H524 H 0.88231 0.64609 0.95793 0.0
H525 H 0.85664 0.65362 0.92996 0.0
N526 N 0.84691 0.68714 0.9147 0.0
N527 N 0.85449 0.70209 0.8621 0.0
C528 C 0.73141 0.62896 0.43138 0.0
C529 C 0.74141 0.64678 0.41212 0.0
C530 C 0.74515 0.62247 0.44582 0.0
C531 C 0.76924 0.63434 0.44196 0.0
C532 C 0.76519 0.65771 0.4071 0.0
C533 C 0.77898 0.65163 0.42196 0.0
C534 C 0.78486 0.62945 0.45836 0.0
C535 C 0.74797 0.64611 0.52394 0.0
C536 C 0.73788 0.62963 0.54485 0.0
C537 C 0.76216 0.64467 0.50438 0.0
C538 C 0.76597 0.62633 0.50483 0.0
C539 C 0.74163 0.6112 0.54495 0.0
C540 C 0.75545 0.60959 0.52518 0.0
C541 C 0.78346 0.62606 0.48714 0.0
C542 C 0.87851 0.65783 0.52077 0.0
C543 C 0.87484 0.64456 0.5444 0.0
C544 C 0.86085 0.65132 0.50124 0.0
C545 C 0.83926 0.6311 0.50456 0.0
C546 C 0.85361 0.62382 0.54718 0.0
C547 C 0.83591 0.61725 0.5275 0.0
C548 C 0.81923 0.62676 0.4871 0.0
C549 C 0.87254 0.62741 0.43403 0.0
C550 C 0.8817 0.64533 0.41486 0.0
C551 C 0.85173 0.62099 0.44722 0.0
C552 C 0.84004 0.63266 0.44171 0.0
C553 C 0.8688 0.6554 0.40756 0.0
C554 C 0.84823 0.64916 0.42085 0.0
C555 C 0.8201 0.62902 0.45821 0.0
H556 H 0.71298 0.62009 0.43524 0.0
H557 H 0.73698 0.60845 0.46023 0.0
H558 H 0.77324 0.6715 0.39235 0.0
H559 H 0.79746 0.66096 0.41831 0.0
H560 H 0.74536 0.66044 0.52298 0.0
H561 H 0.77072 0.65827 0.48951 0.0
H562 H 0.73474 0.59846 0.56101 0.0
H563 H 0.75857 0.59557 0.52634 0.0
H564 H 0.89477 0.67379 0.51792 0.0
H565 H 0.86373 0.66281 0.48434 0.0
H566 H 0.8502 0.61336 0.5653 0.0
H567 H 0.81925 0.60182 0.53077 0.0
H568 H 0.88205 0.61925 0.43993 0.0
H569 H 0.84534 0.60758 0.46249 0.0
H570 H 0.87517 0.6689 0.39239 0.0
H571 H 0.8394 0.65818 0.41576 0.0
N572 N 0.80299 0.63048 0.44517 0.0
N573 N 0.80071 0.62485 0.50019 0.0
C574 C 0.31808 0.21421 0.40845 0.0
C575 C 0.33605 0.2373 0.40839 0.0
C576 C 0.31976 0.19838 0.42497 0.0
C577 C 0.33922 0.20538 0.44209 0.0
C578 C 0.35583 0.24418 0.42503 0.0
C579 C 0.35739 0.22836 0.44179 0.0
C580 C 0.34012 0.18841 0.46009 0.0
C581 C 0.36986 0.23912 0.54044 0.0
C582 C 0.35432 0.24699 0.54006 0.0
C583 C 0.36666 0.22174 0.52272 0.0
C584 C 0.34797 0.21183 0.50403 0.0
C585 C 0.33592 0.23753 0.52071 0.0
C586 C 0.33274 0.22004 0.50285 0.0
C587 C 0.34324 0.19113 0.48882 0.0
C588 C 0.34319 0.10817 0.53077 0.0
C589 C 0.32573 0.1014 0.55041 0.0
C590 C 0.34712 0.12499 0.51131 0.0
C591 C 0.33371 0.13527 0.51149 0.0
C592 C 0.31258 0.11192 0.55049 0.0
C593 C 0.31661 0.12871 0.53136 0.0
C594 C 0.33776 0.15381 0.49246 0.0
C595 C 0.31318 0.09027 0.4406 0.0
C596 C 0.32831 0.09366 0.41906 0.0
C597 C 0.31544 0.10895 0.45517 0.0
C598 C 0.3331 0.13134 0.44874 0.0
C599 C 0.34572 0.11613 0.41244 0.0
C600 C 0.34801 0.13475 0.42706 0.0
C601 C 0.33587 0.1515 0.46358 0.0
H602 H 0.30276 0.20839 0.39563 0.0
H603 H 0.30561 0.18069 0.42478 0.0
H604 H 0.3699 0.26189 0.42548 0.0
H605 H 0.37272 0.23406 0.45454 0.0
H606 H 0.38392 0.24557 0.55538 0.0
H607 H 0.37845 0.21548 0.52422 0.0
H608 H 0.32369 0.24325 0.51982 0.0
H609 H 0.3179 0.21232 0.48898 0.0
H610 H 0.35359 0.10033 0.53032 0.0
H611 H 0.36069 0.13012 0.49641 0.0
H612 H 0.2993 0.10738 0.56565 0.0
H613 H 0.30624 0.13659 0.53206 0.0
H614 H 0.29932 0.07321 0.44587 0.0
H615 H 0.30322 0.10589 0.4712 0.0
H616 H 0.35778 0.11933 0.39615 0.0
H617 H 0.36166 0.15187 0.42161 0.0
N618 N 0.33688 0.16883 0.44853 0.0
N619 N 0.34163 0.17361 0.5038 0.0
C620 C 0.77352 0.12415 0.43884 0.0
C621 C 0.76405 0.12321 0.41266 0.0
C622 C 0.78089 0.14315 0.45579 0.0
C623 C 0.77877 0.16157 0.44706 0.0
C624 C 0.76145 0.14142 0.40409 0.0
C625 C 0.76904 0.16061 0.42106 0.0
C626 C 0.79009 0.18299 0.46326 0.0
C627 C 0.72917 0.13491 0.51839 0.0
C628 C 0.73726 0.12719 0.54015 0.0
C629 C 0.74491 0.15274 0.50148 0.0
C630 C 0.7688 0.16334 0.5067 0.0
C631 C 0.76121 0.13723 0.54442 0.0
C632 C 0.77681 0.1553 0.52807 0.0
C633 C 0.78589 0.18363 0.49135 0.0
C634 C 0.86942 0.27715 0.52538 0.0
C635 C 0.87115 0.26998 0.5519 0.0
C636 C 0.85164 0.26206 0.50731 0.0
C637 C 0.83615 0.23919 0.51502 0.0
C638 C 0.8543 0.248 0.5605 0.0
C639 C 0.83714 0.23276 0.54228 0.0
C640 C 0.81955 0.22119 0.49533 0.0
C641 C 0.88676 0.24606 0.45052 0.0
C642 C 0.88782 0.25533 0.42442 0.0
C643 C 0.86634 0.23614 0.46537 0.0
C644 C 0.84665 0.2355 0.45449 0.0
C645 C 0.86855 0.25578 0.4141 0.0
C646 C 0.84797 0.24566 0.42894 0.0
C647 C 0.82396 0.22035 0.4671 0.0
H648 H 0.77554 0.11027 0.4461 0.0
H649 H 0.78915 0.14382 0.47528 0.0
H650 H 0.75429 0.14116 0.38394 0.0
H651 H 0.76777 0.1749 0.4137 0.0
H652 H 0.71074 0.12749 0.51489 0.0
H653 H 0.73848 0.15882 0.48509 0.0
H654 H 0.76789 0.13186 0.56132 0.0
H655 H 0.79522 0.16328 0.53234 0.0
H656 H 0.8822 0.29414 0.5184 0.0
H657 H 0.85064 0.26813 0.48709 0.0
H658 H 0.85538 0.24198 0.58077 0.0
H659 H 0.8254 0.21547 0.5493 0.0
H660 H 0.90146 0.24559 0.45889 0.0
H661 H 0.86554 0.22782 0.48465 0.0
H662 H 0.86896 0.26269 0.39392 0.0
H663 H 0.83279 0.24486 0.41996 0.0
N664 N 0.80886 0.20146 0.45222 0.0
N665 N 0.80056 0.2027 0.50608 0.0
C666 C 0.99432 0.55373 0.15067 0.0
C667 C 0.01615 0.57014 0.14029 0.0
C668 C 0.99249 0.53848 0.17119 0.0
C669 C 0.01241 0.53937 0.18159 0.0
C670 C 0.0361 0.57162 0.15199 0.0
C671 C 0.0342 0.55613 0.17203 0.0
C672 C 0.01045 0.52071 0.19876 0.0
C673 C 0.02408 0.57744 0.25712 0.0
C674 C 0.00579 0.57149 0.27527 0.0
C675 C 0.02467 0.56068 0.24147 0.0
C676 C 0.00686 0.53763 0.24336 0.0
C677 C 0.98813 0.54833 0.27742 0.0
C678 C 0.98874 0.53156 0.2617 0.0
C679 C 0.00767 0.51965 0.22749 0.0
C680 C 0.02499 0.44407 0.25622 0.0
C681 C 0.00752 0.43131 0.27532 0.0
C682 C 0.025 0.46151 0.24122 0.0
C683 C 0.00753 0.46655 0.24498 0.0
C684 C 0.99043 0.43683 0.27965 0.0
C685 C 0.99058 0.45446 0.26479 0.0
C686 C 0.00706 0.48441 0.22826 0.0
C687 C 0.98543 0.42635 0.16788 0.0
C688 C 5e-05 0.43158 0.14526 0.0
C689 C 0.98889 0.4435 0.18636 0.0
C690 C 0.00714 0.46619 0.18266 0.0
C691 C 0.01882 0.45412 0.14224 0.0
C692 C 0.02223 0.47126 0.16064 0.0
C693 C 0.00885 0.48508 0.19936 0.0
H694 H 0.97857 0.55189 0.14205 0.0
H695 H 0.97549 0.52529 0.17799 0.0
H696 H 0.05324 0.58438 0.14515 0.0
H697 H 0.04973 0.55687 0.17962 0.0
H698 H 0.03826 0.59502 0.25547 0.0
H699 H 0.03938 0.5657 0.22843 0.0
H700 H 0.97374 0.54317 0.29108 0.0
H701 H 0.97494 0.51384 0.26372 0.0
H702 H 0.0383 0.44013 0.2523 0.0
H703 H 0.03857 0.47095 0.22645 0.0
H704 H 0.97688 0.42743 0.29444 0.0
H705 H 0.9771 0.45825 0.26822 0.0
H706 H 0.97088 0.40912 0.17083 0.0
H707 H 0.97664 0.43919 0.20275 0.0
H708 H 0.03021 0.4588 0.12483 0.0
H709 H 0.03628 0.48867 0.15721 0.0
N710 N 0.01073 0.50334 0.18581 0.0
N711 N 0.00613 0.50152 0.24123 0.0
C712 C 0.47592 0.39836 0.17063 0.0
C713 C 0.47515 0.4069 0.14459 0.0
C714 C 0.49296 0.41248 0.18998 0.0
C715 C 0.50875 0.43567 0.18403 0.0
C716 C 0.49262 0.42917 0.1376 0.0
C717 C 0.50916 0.44342 0.15712 0.0
C718 C 0.52335 0.45276 0.20564 0.0
C719 C 0.45094 0.42444 0.2401 0.0
C720 C 0.4479 0.4144 0.26613 0.0
C721 C 0.4727 0.43564 0.22803 0.0
C722 C 0.49169 0.43672 0.24166 0.0
C723 C 0.46665 0.41447 0.27909 0.0
C724 C 0.48846 0.42576 0.26703 0.0
C725 C 0.51533 0.45293 0.23228 0.0
C726 C 0.55225 0.53715 0.28457 0.0
C727 C 0.57552 0.54901 0.29364 0.0
C728 C 0.54376 0.51809 0.26748 0.0
C729 C 0.55836 0.51065 0.25839 0.0
C730 C 0.59015 0.54138 0.2846 0.0
C731 C 0.58167 0.52245 0.26693 0.0
C732 C 0.54839 0.49012 0.24066 0.0
C733 C 0.60558 0.52641 0.16723 0.0
C734 C 0.60095 0.54371 0.16056 0.0
C735 C 0.59247 0.50996 0.18692 0.0
C736 C 0.57495 0.51087 0.20082 0.0
C737 C 0.58478 0.54572 0.17627 0.0
C738 C 0.57187 0.52941 0.1962 0.0
C739 C 0.55652 0.49009 0.21421 0.0
H740 H 0.46275 0.38113 0.17637 0.0
H741 H 0.49291 0.40555 0.21002 0.0
H742 H 0.49237 0.43624 0.11773 0.0
H743 H 0.52125 0.46105 0.15158 0.0
H744 H 0.4367 0.42446 0.2296 0.0
H745 H 0.47495 0.44451 0.20878 0.0
H746 H 0.46479 0.40703 0.29927 0.0
H747 H 0.50305 0.42686 0.27808 0.0
H748 H 0.54055 0.54278 0.29019 0.0
H749 H 0.52573 0.50933 0.26092 0.0
H750 H 0.6081 0.54985 0.29133 0.0
H751 H 0.59316 0.51681 0.26034 0.0
H752 H 0.61828 0.52467 0.15593 0.0
H753 H 0.59496 0.49567 0.19 0.0
H754 H 0.58058 0.55866 0.17156 0.0
H755 H 0.55802 0.53015 0.20612 0.0
N756 N 0.54378 0.47138 0.1979 0.0
N757 N 0.52824 0.47147 0.24864 0.0
C758 C 0.4514 0.02737 0.26156 0.0
C759 C 0.44139 0.008 0.27859 0.0
C760 C 0.47224 0.0342 0.24823 0.0
C761 C 0.48325 0.02161 0.25152 0.0
C762 C 0.45329 0.99645 0.28325 0.0
C763 C 0.47398 0.00318 0.26989 0.0
C764 C 0.50407 0.02692 0.23571 0.0
C765 C 0.44797 0.00437 0.17132 0.0
C766 C 0.45095 0.02161 0.1529 0.0
C767 C 0.46568 0.00799 0.18952 0.0
C768 C 0.48685 0.02892 0.18983 0.0
C769 C 0.47219 0.04267 0.15338 0.0
C770 C 0.49006 0.0462 0.17153 0.0
C771 C 0.50622 0.03165 0.20727 0.0
C772 C 0.58163 0.01722 0.17219 0.0
C773 C 0.59149 0.03403 0.15164 0.0
C774 C 0.56647 0.01751 0.19123 0.0
C775 C 0.56119 0.03488 0.19048 0.0
C776 C 0.58648 0.05161 0.15133 0.0
C777 C 0.5715 0.05199 0.17049 0.0
C778 C 0.5426 0.03364 0.20759 0.0
C779 C 0.5961 0.03865 0.26872 0.0
C780 C 0.58794 0.01864 0.28439 0.0
C781 C 0.58074 0.04196 0.25269 0.0
C782 C 0.55697 0.02536 0.25225 0.0
C783 C 0.56415 0.00214 0.28398 0.0
C784 C 0.54879 0.00558 0.26826 0.0
C785 C 0.54026 0.02855 0.23594 0.0
H786 H 0.44266 0.03665 0.25764 0.0
H787 H 0.47944 0.04898 0.23491 0.0
H788 H 0.44628 0.98176 0.29673 0.0
H789 H 0.48226 0.99339 0.27317 0.0
H790 H 0.43222 0.98768 0.17106 0.0
H791 H 0.46308 0.99412 0.20279 0.0
H792 H 0.47509 0.05635 0.13961 0.0
H793 H 0.50643 0.06236 0.17119 0.0
H794 H 0.58517 0.0035 0.17317 0.0
H795 H 0.55815 0.00359 0.20574 0.0
H796 H 0.59328 0.06458 0.13552 0.0
H797 H 0.56739 0.06532 0.16913 0.0
H798 H 0.6144 0.05158 0.26859 0.0
H799 H 0.58736 0.05751 0.24081 0.0
H800 H 0.55739 0.98667 0.29605 0.0
H801 H 0.53049 0.99263 0.26834 0.0
N802 N 0.52112 0.02542 0.24882 0.0
N803 N 0.52549 0.03506 0.19444 0.0
C804 C 0.55012 0.00685 0.78157 0.0
C805 C 0.55006 0.99452 0.75852 0.0
C806 C 0.53015 -0.00098 0.79686 0.0
C807 C 0.50976 0.97852 0.78968 0.0
C808 C 0.52978 0.97376 0.75156 0.0
C809 C 0.50965 0.96593 0.76691 0.0
C810 C 0.48819 0.97164 0.80443 0.0
C811 C 0.53723 0.96695 0.86474 0.0
C812 C 0.54395 0.98297 0.88622 0.0
C813 C 0.51848 0.96227 0.84738 0.0
C814 C 0.50619 0.97345 0.85149 0.0
C815 C 0.53122 0.9936 0.8906 0.0
C816 C 0.51251 0.98881 0.87354 0.0
C817 C 0.48676 0.96973 0.83331 0.0
C818 C 0.39178 0.94428 0.86448 0.0
C819 C 0.39775 0.96113 0.88475 0.0
C820 C 0.40838 0.94651 0.8457 0.0
C821 C 0.43114 0.96536 0.84752 0.0
C822 C 0.4203 0.9804 0.88559 0.0
C823 C 0.43689 0.98233 0.86739 0.0
C824 C 0.44992 0.96657 0.83123 0.0
C825 C 0.4153 0.99338 0.77679 0.0
C826 C 0.40885 0.98398 0.75018 0.0
C827 C 0.42878 0.98831 0.79388 0.0
C828 C 0.43545 0.97297 0.78535 0.0
C829 C 0.41591 0.96894 0.74144 0.0
C830 C 0.42902 0.9635 0.75885 0.0
C831 C 0.45152 0.96911 0.80241 0.0
H832 H 0.56556 0.02282 0.78751 0.0
H833 H 0.53048 0.00936 0.81387 0.0
H834 H 0.52928 0.96405 0.73376 0.0
H835 H 0.49395 0.95025 0.76083 0.0
H836 H 0.54676 0.9585 0.86103 0.0
H837 H 0.51366 0.95005 0.83076 0.0
H838 H 0.53579 0.00574 0.90727 0.0
H839 H 0.50327 0.99757 0.87725 0.0
H840 H 0.37451 0.92922 0.8636 0.0
H841 H 0.40377 0.93313 0.83067 0.0
H842 H 0.42544 0.99344 0.90127 0.0
H843 H 0.45445 0.99689 0.86919 0.0
H844 H 0.41006 0.0048 0.78453 0.0
H845 H 0.43455 0.9971 0.81342 0.0
H846 H 0.41174 0.96169 0.72094 0.0
H847 H 0.43446 0.95212 0.75141 0.0
N848 N 0.47051 0.97121 0.7901 0.0
N849 N 0.46763 0.96715 0.84544 0.0
C850 C 0.98186 0.56247 0.7552 0.0
C851 C 0.99711 0.57578 0.73424 0.0
C852 C 0.98602 0.54786 0.77093 0.0
C853 C 0.00543 0.54607 0.766 0.0
C854 C 0.01626 0.57348 0.72887 0.0
C855 C 0.02025 0.55857 0.74449 0.0
C856 C 0.00966 0.53068 0.7831 0.0
C857 C 0.03127 0.59165 0.83961 0.0
C858 C 0.01757 0.58652 0.86314 0.0
C859 C 0.02829 0.57414 0.82199 0.0
C860 C 0.01163 0.5512 0.82768 0.0
C861 C 0.00027 0.56362 0.86804 0.0
C862 C 0.99746 0.54618 0.85062 0.0
C863 C 0.01062 0.53216 0.81202 0.0
C864 C 0.02086 0.45362 0.84986 0.0
C865 C 0.00383 0.4453 0.87021 0.0
C866 C 0.02294 0.47031 0.83129 0.0
C867 C 0.00806 0.4789 0.83302 0.0
C868 C 0.98928 0.45424 0.87198 0.0
C869 C 0.99144 0.47086 0.85369 0.0
C870 C 0.00997 0.49701 0.81461 0.0
C871 C 0.98704 0.43473 0.76251 0.0
C872 C 0.00283 0.43783 0.74195 0.0
C873 C 0.98916 0.45352 0.77657 0.0
C874 C 0.00729 0.47581 0.77066 0.0
C875 C 0.02066 0.46024 0.73563 0.0
C876 C 0.02279 0.47905 0.74977 0.0
C877 C 0.00967 0.49577 0.78562 0.0
H878 H 0.96659 0.56324 0.75946 0.0
H879 H 0.97399 0.53787 0.78697 0.0
H880 H 0.02847 0.58357 0.71306 0.0
H881 H 0.0352 0.55723 0.74022 0.0
H882 H 0.04469 0.60914 0.83526 0.0
H883 H 0.03971 0.57844 0.80469 0.0
H884 H 0.98967 0.55902 0.88617 0.0
H885 H 0.9846 0.5286 0.85553 0.0
H886 H 0.03233 0.44704 0.84814 0.0
H887 H 0.03623 0.47663 0.81584 0.0
H888 H 0.9763 0.4485 0.88777 0.0
H889 H 0.97993 0.4774 0.8556 0.0
H890 H 0.97278 0.41778 0.76746 0.0
H891 H 0.9765 0.45061 0.79196 0.0
H892 H 0.03319 0.46324 0.72002 0.0
H893 H 0.03675 0.49612 0.74467 0.0
N894 N 0.00951 0.5127 0.7709 0.0
N895 N 0.01052 0.51517 0.82655 0.0
C896 C 0.54031 0.59993 0.76685 0.0
C897 C 0.55113 0.59056 0.75183 0.0
C898 C 0.52105 0.58579 0.78319 0.0
C899 C 0.51259 0.5622 0.7848 0.0
C900 C 0.54263 0.56701 0.75393 0.0
C901 C 0.52361 0.55307 0.77001 0.0
C902 C 0.49203 0.54614 0.80087 0.0
C903 C 0.54498 0.58777 0.86725 0.0
C904 C 0.53687 0.59401 0.88995 0.0
C905 C 0.52977 0.5745 0.84607 0.0
C906 C 0.50627 0.56792 0.84664 0.0
C907 C 0.51375 0.58848 0.89 0.0
C908 C 0.49864 0.57572 0.86841 0.0
C909 C 0.4888 0.54899 0.82886 0.0
C910 C 0.43021 0.45746 0.87292 0.0
C911 C 0.41613 0.46101 0.8907 0.0
C912 C 0.44194 0.47285 0.85163 0.0
C913 C 0.43961 0.49192 0.8476 0.0
C914 C 0.41288 0.47943 0.88559 0.0
C915 C 0.42468 0.49484 0.86443 0.0
C916 C 0.45565 0.51079 0.8295 0.0
C917 C 0.41226 0.44929 0.77438 0.0
C918 C 0.42548 0.44384 0.75745 0.0
C919 C 0.42279 0.47017 0.7887 0.0
C920 C 0.44677 0.48575 0.7866 0.0
C921 C 0.44919 0.45994 0.75455 0.0
C922 C 0.45968 0.48049 0.76901 0.0
C923 C 0.45913 0.50788 0.80168 0.0
H924 H 0.54655 0.61805 0.76573 0.0
H925 H 0.51268 0.59318 0.79428 0.0
H926 H 0.55095 0.55928 0.74348 0.0
H927 H 0.51767 0.53501 0.77116 0.0
H928 H 0.5626 0.59133 0.8671 0.0
H929 H 0.53613 0.56785 0.83067 0.0
H930 H 0.50707 0.59291 0.90746 0.0
H931 H 0.48057 0.57058 0.86969 0.0
H932 H 0.43333 0.44363 0.87646 0.0
H933 H 0.45387 0.47059 0.83939 0.0
H934 H 0.40186 0.48245 0.89862 0.0
H935 H 0.42284 0.50957 0.86185 0.0
H936 H 0.39391 0.43725 0.777 0.0
H937 H 0.41222 0.47405 0.80136 0.0
H938 H 0.45979 0.45663 0.74115 0.0
H939 H 0.47814 0.49218 0.76665 0.0
N940 N 0.47697 0.52581 0.78864 0.0
N941 N 0.47047 0.53126 0.84177 0.0
C942 C 0.65844 0.7711 0.51306 0.0
C943 C 0.63885 0.7606 0.49544 0.0
C944 C 0.66275 0.78948 0.52999 0.0
C945 C 0.64728 0.7974 0.53008 0.0
C946 C 0.62345 0.76865 0.49571 0.0
C947 C 0.62763 0.78679 0.51279 0.0
C948 C 0.6522 0.81799 0.54587 0.0
C949 C 0.64939 0.76681 0.60613 0.0
C950 C 0.66926 0.77545 0.62305 0.0
C951 C 0.64519 0.78167 0.59086 0.0
C952 C 0.66122 0.80538 0.59151 0.0
C953 C 0.68458 0.79919 0.62491 0.0
C954 C 0.68062 0.81401 0.60922 0.0
C955 C 0.65816 0.82153 0.57419 0.0
C956 C 0.65042 0.90413 0.59732 0.0
C957 C 0.66801 0.91519 0.61743 0.0
C958 C 0.64796 0.88546 0.58264 0.0
C959 C 0.66319 0.87756 0.58751 0.0
C960 C 0.68287 0.90691 0.62276 0.0
C961 C 0.68042 0.88822 0.60802 0.0
C962 C 0.66063 0.8577 0.57203 0.0
C963 C 0.68359 0.91166 0.50667 0.0
C964 C 0.66883 0.90617 0.4836 0.0
C965 C 0.67889 0.89536 0.52692 0.0
C966 C 0.65911 0.87329 0.5248 0.0
C967 C 0.64854 0.8844 0.48205 0.0
C968 C 0.64381 0.86809 0.50238 0.0
C969 C 0.65622 0.8548 0.54342 0.0
H970 H 0.67064 0.76532 0.51356 0.0
H971 H 0.67839 0.79777 0.54256 0.0
H972 H 0.6085 0.76149 0.48202 0.0
H973 H 0.61565 0.79284 0.51213 0.0
H974 H 0.63711 0.74855 0.60477 0.0
H975 H 0.62956 0.77459 0.57834 0.0
H976 H 0.69999 0.80625 0.63783 0.0
H977 H 0.69308 0.83224 0.61041 0.0
H978 H 0.63834 0.90972 0.59314 0.0
H979 H 0.63399 0.87707 0.56765 0.0
H980 H 0.69668 0.91512 0.63798 0.0
H981 H 0.69223 0.88232 0.61234 0.0
H982 H 0.69925 0.92836 0.5086 0.0
H983 H 0.6914 0.89972 0.54347 0.0
H984 H 0.63695 0.87955 0.46441 0.0
H985 H 0.6286 0.8511 0.50008 0.0
N986 N 0.65171 0.83488 0.5317 0.0
N987 N 0.66189 0.84117 0.58614 0.0
C988 C 0.13063 0.72825 0.49925 0.0
C989 C 0.12931 0.73561 0.47268 0.0
C990 C 0.14824 0.74311 0.51758 0.0
C991 C 0.16409 0.7659 0.51 0.0
C992 C 0.14677 0.75739 0.46412 0.0
C993 C 0.1639 0.7724 0.4826 0.0
C994 C 0.17949 0.78384 0.53036 0.0
C995 C 0.10828 0.75849 0.56696 0.0
C996 C 0.10568 0.74945 0.59354 0.0
C997 C 0.12972 0.76884 0.55415 0.0
C998 C 0.14887 0.77011 0.56759 0.0
C999 C 0.12457 0.74973 0.60641 0.0
C1000 C 0.14608 0.7602 0.59362 0.0
C1001 C 0.17235 0.78542 0.55703 0.0
C1002 C 0.21369 0.87119 0.60615 0.0
C1003 C 0.23697 0.882 0.61499 0.0
C1004 C 0.20414 0.85197 0.5892 0.0
C1005 C 0.21768 0.84333 0.58001 0.0
C1006 C 0.25061 0.87331 0.60565 0.0
C1007 C 0.24106 0.85419 0.58813 0.0
C1008 C 0.20642 0.82231 0.56309 0.0
C1009 C 0.26203 0.8542 0.48719 0.0
C1010 C 0.25968 0.87312 0.48169 0.0
C1011 C 0.24832 0.83809 0.50693 0.0
C1012 C 0.23235 0.84082 0.52194 0.0
C1013 C 0.24484 0.87664 0.49812 0.0
C1014 C 0.23125 0.86059 0.51799 0.0
C1015 C 0.21358 0.82097 0.5365 0.0
H1016 H 0.11746 0.71141 0.5062 0.0
H1017 H 0.14864 0.73711 0.53806 0.0
H1018 H 0.14609 0.76353 0.44379 0.0
H1019 H 0.17603 0.78968 0.47584 0.0
H1020 H 0.09392 0.75834 0.55651 0.0
H1021 H 0.13163 0.7769 0.53436 0.0
H1022 H 0.12308 0.74306 0.62699 0.0
H1023 H 0.1608 0.76146 0.60452 0.0
H1024 H 0.20276 0.87769 0.612 0.0
H1025 H 0.18608 0.84394 0.58296 0.0
H1026 H 0.26855 0.88102 0.61215 0.0
H1027 H 0.25174 0.84761 0.58145 0.0
H1028 H 0.27361 0.85119 0.47525 0.0
H1029 H 0.24926 0.82284 0.50941 0.0
H1030 H 0.24236 0.89083 0.49424 0.0
H1031 H 0.21853 0.86276 0.52861 0.0
N1032 N 0.19994 0.80173 0.52136 0.0
N1033 N 0.18619 0.80444 0.57226 0.0
C1034 C 0.26456 0.37212 0.51194 0.0
C1035 C 0.25923 0.35652 0.49024 0.0
C1036 C 0.24696 0.37026 0.52867 0.0
C1037 C 0.22383 0.35296 0.52362 0.0
C1038 C 0.23619 0.33856 0.48631 0.0
C1039 C 0.21867 0.33694 0.50266 0.0
C1040 C 0.20449 0.35262 0.53778 0.0
C1041 C 0.23618 0.32713 0.59782 0.0
C1042 C 0.24375 0.3389 0.62305 0.0
C1043 C 0.22262 0.33121 0.5796 0.0
C1044 C 0.21691 0.34776 0.5856 0.0
C1045 C 0.23736 0.35494 0.62946 0.0
C1046 C 0.22406 0.35929 0.61093 0.0
C1047 C 0.2019 0.35157 0.56655 0.0
C1048 C 0.10365 0.32226 0.58107 0.0
C1049 C 0.10469 0.33639 0.60264 0.0
C1050 C 0.12359 0.32732 0.56706 0.0
C1051 C 0.14498 0.34684 0.57398 0.0
C1052 C 0.12604 0.35613 0.60937 0.0
C1053 C 0.14611 0.36118 0.5953 0.0
C1054 C 0.16634 0.35097 0.5607 0.0
C1055 C 0.12187 0.35613 0.4932 0.0
C1056 C 0.11594 0.33977 0.47227 0.0
C1057 C 0.13902 0.36013 0.51287 0.0
C1058 C 0.15043 0.34783 0.51175 0.0
C1059 C 0.12789 0.32807 0.4709 0.0
C1060 C 0.1449 0.33207 0.49033 0.0
C1061 C 0.16865 0.35121 0.53187 0.0
H1062 H 0.2822 0.38613 0.51537 0.0
H1063 H 0.25123 0.38291 0.54462 0.0
H1064 H 0.23145 0.32651 0.46951 0.0
H1065 H 0.2009 0.3235 0.49841 0.0
H1066 H 0.24086 0.31483 0.59188 0.0
H1067 H 0.21637 0.3211 0.56096 0.0
H1068 H 0.24244 0.36402 0.64889 0.0
H1069 H 0.21936 0.37169 0.61639 0.0
H1070 H 0.0874 0.30705 0.57522 0.0
H1071 H 0.12236 0.31563 0.55123 0.0
H1072 H 0.12735 0.36721 0.62604 0.0
H1073 H 0.16254 0.37613 0.60123 0.0
H1074 H 0.11294 0.36542 0.49467 0.0
H1075 H 0.14335 0.37277 0.52883 0.0
H1076 H 0.12404 0.31568 0.45474 0.0
H1077 H 0.15354 0.32248 0.4888 0.0
N1078 N 0.18773 0.35221 0.52173 0.0
N1079 N 0.18306 0.35117 0.57692 0.0
C1080 C 0.96661 0.38653 0.09058 0.0
C1081 C 0.98441 0.38578 0.07692 0.0
H1082 H 0.95762 0.40153 0.12278 0.0
C1083 C 0.00715 0.39859 0.08758 0.0
H1084 H 0.94888 0.37682 0.083 0.0
C1085 C 0.01216 0.41277 0.11052 0.0
C1086 C 0.9945 0.41431 0.12338 0.0
H1087 H 0.02126 0.39834 0.07762 0.0
H1088 H 0.02994 0.42295 0.11781 0.0
C1089 C 0.9716 0.40059 0.11355 0.0
C1090 C 0.61583 0.55694 0.08562 0.0
C1091 C 0.62081 0.57955 0.08347 0.0
H1092 H 0.60563 0.52805 0.11129 0.0
C1093 C 0.62106 0.5911 0.10744 0.0
H1094 H 0.61554 0.54751 0.06764 0.0
C1095 C 0.61562 0.5799 0.13285 0.0
C1096 C 0.60991 0.557 0.13475 0.0
H1097 H 0.62498 0.60858 0.10651 0.0
H1098 H 0.6155 0.58904 0.15091 0.0
C1099 C 0.61042 0.54582 0.11084 0.0
C1100 C 0.39153 0.99457 0.11918 0.0
C1101 C 0.39708 0.00147 0.09184 0.0
H1102 H 0.404 0.9965 0.16019 0.0
C1103 C 0.42015 0.0172 0.08504 0.0
H1104 H 0.37376 0.98249 0.1248 0.0
C1105 C 0.43771 0.02471 0.10515 0.0
C1106 C 0.43233 0.0168 0.1324 0.0
H1107 H 0.42474 0.02252 0.06394 0.0
H1108 H 0.45553 0.03565 0.09897 0.0
C1109 C 0.4089 0.00242 0.13933 0.0
C1110 C 0.36813 0.97537 0.93917 0.0
C1111 C 0.36045 0.95658 0.95692 0.0
H1112 H 0.38577 0.99135 0.90198 0.0
C1113 C 0.36188 0.93773 0.94839 0.0
H1114 H 0.3671 0.99009 0.94496 0.0
C1115 C 0.37235 0.9384 0.92355 0.0
C1116 C 0.3817 0.95799 0.90699 0.0
H1117 H 0.35594 0.92292 0.96148 0.0
H1118 H 0.37456 0.92428 0.91825 0.0
C1119 C 0.37877 0.97611 0.91452 0.0
C1120 C 0.01577 0.41383 0.9263 0.0
C1121 C 0.99305 0.39678 0.93315 0.0
H1122 H 0.03712 0.44286 0.90074 0.0
C1123 C 0.97446 0.39431 0.91702 0.0
H1124 H 0.03043 0.41604 0.9383 0.0
C1125 C 0.97826 0.40933 0.89562 0.0
C1126 C 0.00074 0.42736 0.88986 0.0
H1127 H 0.95676 0.38104 0.92134 0.0
H1128 H 0.96346 0.40728 0.88406 0.0
C1129 C 0.0196 0.42909 0.90478 0.0
C1130 C 0.58929 0.62481 0.93704 0.0
C1131 C 0.58186 0.60977 0.95943 0.0
H1132 H 0.58059 0.63147 0.89685 0.0
C1133 C 0.55867 0.59185 0.96055 0.0
H1134 H 0.60725 0.6385 0.93562 0.0
C1135 C 0.54337 0.5882 0.93885 0.0
C1136 C 0.55125 0.60199 0.91532 0.0
H1137 H 0.55273 0.5799 0.9775 0.0
H1138 H 0.52592 0.57342 0.93948 0.0
C1139 C 0.57413 0.62076 0.9149 0.0
C1140 C 0.00914 0.61881 0.92042 0.0
C1141 C 0.03197 0.63289 0.9304 0.0
H1142 H 0.98669 0.59333 0.89102 0.0
C1143 C 0.05019 0.63364 0.91585 0.0
H1144 H 0.99468 0.6179 0.93099 0.0
C1145 C 0.04558 0.61956 0.89293 0.0
C1146 C 0.02264 0.60435 0.8841 0.0
H1147 H 0.068 0.64436 0.92287 0.0
H1148 H 0.05992 0.61964 0.88314 0.0
C1149 C 0.00453 0.60464 0.89758 0.0
C1150 C 0.40067 0.44561 0.96533 0.0
C1151 C 0.39184 0.42192 0.96551 0.0
H1152 H 0.41534 0.47635 0.94191 0.0
C1153 C 0.39044 0.41089 0.94059 0.0
H1154 H 0.40207 0.45474 0.98409 0.0
C1155 C 0.39796 0.4234 0.91612 0.0
C1156 C 0.40689 0.44714 0.91609 0.0
H1157 H 0.38368 0.39264 0.94 0.0
H1158 H 0.39673 0.41449 0.89723 0.0
C1159 C 0.40809 0.45803 0.94101 0.0
C1160 C 0.59853 0.01899 0.92821 0.0
C1161 C 0.60071 0.00239 0.94276 0.0
H1162 H 0.57912 0.02576 0.89874 0.0
C1163 C 0.58513 0.9791 0.93673 0.0
H1164 H 0.61034 0.03709 0.93202 0.0
C1165 C 0.56715 0.97261 0.91739 0.0
C1166 C 0.56443 0.98932 0.90397 0.0
H1167 H 0.58641 0.96589 0.94748 0.0
H1168 H 0.55484 0.95459 0.91378 0.0
C1169 C 0.58061 0.01253 0.90912 0.0
C1170 C 0.61046 0.00994 0.09434 0.0
C1171 C 0.62788 0.03004 0.08194 0.0
H1172 H 0.58496 0.99538 0.12573 0.0
C1173 C 0.63492 0.05124 0.09437 0.0
H1174 H 0.60461 0.99335 0.08519 0.0
C1175 C 0.62399 0.05242 0.11787 0.0
C1176 C 0.60548 0.03245 0.12931 0.0
H1177 H 0.64854 0.06704 0.08551 0.0
H1178 H 0.62966 0.06909 0.12664 0.0
C1179 C 0.59926 0.01113 0.11769 0.0
C1180 C 0.00588 0.60711 0.09004 0.0
C1181 C 0.0235 0.61297 0.07095 0.0
H1182 H 0.99009 0.58958 0.12743 0.0
C1183 C 0.03802 0.60409 0.07436 0.0
H1184 H 0.99449 0.6138 0.08799 0.0
C1185 C 0.0353 0.59 0.09652 0.0
C1186 C 0.01825 0.58469 0.11629 0.0
H1187 H 0.05157 0.60802 0.0598 0.0
H1188 H 0.0466 0.58319 0.09801 0.0
C1189 C 0.00336 0.59321 0.1126 0.0
C1190 C 0.43763 0.38654 0.0803 0.0
C1191 C 0.41677 0.38308 0.09062 0.0
H1192 H 0.47298 0.39696 0.08968 0.0
C1193 C 0.41422 0.38365 0.11909 0.0
H1194 H 0.44002 0.38647 0.05836 0.0
C1195 C 0.43275 0.38909 0.13695 0.0
C1196 C 0.45435 0.39467 0.12655 0.0
H1197 H 0.3983 0.38122 0.12741 0.0
H1198 H 0.43076 0.39089 0.15868 0.0
C1199 C 0.45644 0.39258 0.09816 0.0
C1200 C 0.60887 0.7095 0.44684 0.0
C1201 C 0.62769 0.71138 0.43253 0.0
H1202 H 0.59759 0.72289 0.47854 0.0
C1203 C 0.6503 0.72817 0.44086 0.0
H1204 H 0.59124 0.69659 0.44114 0.0
C1205 C 0.65397 0.74358 0.46196 0.0
C1206 C 0.63511 0.74242 0.47547 0.0
H1207 H 0.66521 0.73013 0.43024 0.0
H1208 H 0.67158 0.75707 0.46672 0.0
C1209 C 0.61254 0.72472 0.46817 0.0
C1210 C 0.2773 0.88917 0.40771 0.0
C1211 C 0.28531 0.91269 0.40752 0.0
H1212 H 0.2629 0.85839 0.43098 0.0
C1213 C 0.28624 0.92354 0.43241 0.0
H1214 H 0.27636 0.88023 0.38896 0.0
C1215 C 0.2787 0.91095 0.45678 0.0
C1216 C 0.27015 0.88728 0.45676 0.0
H1217 H 0.29244 0.94167 0.43301 0.0
H1218 H 0.27934 0.91969 0.47558 0.0
C1219 C 0.2698 0.87665 0.43196 0.0
C1220 C 0.0786 0.34493 0.41678 0.0
C1221 C 0.06322 0.32175 0.41001 0.0
H1222 H 0.10751 0.36895 0.44203 0.0
C1223 C 0.06439 0.30487 0.42529 0.0
H1224 H 0.07803 0.35832 0.40552 0.0
C1225 C 0.08094 0.31091 0.44606 0.0
C1226 C 0.09694 0.33399 0.45215 0.0
H1227 H 0.05262 0.28684 0.42106 0.0
H1228 H 0.08143 0.2974 0.45717 0.0
C1229 C 0.09534 0.35101 0.43774 0.0
C1230 C 0.03561 0.27795 0.25968 0.0
C1231 C 0.03397 0.29651 0.26886 0.0
H1232 H 0.0491 0.26526 0.23004 0.0
C1233 C 0.0426 0.31602 0.25216 0.0
H1234 H 0.0291 0.2626 0.27192 0.0
C1235 C 0.05382 0.3174 0.22762 0.0
C1236 C 0.05678 0.29937 0.21934 0.0
H1237 H 0.04141 0.33054 0.25849 0.0
H1238 H 0.0608 0.33289 0.21557 0.0
C1239 C 0.04694 0.27939 0.23535 0.0
C1240 C 0.6622 0.73389 0.28245 0.0
C1241 C 0.63939 0.71785 0.29029 0.0
H1242 H 0.68398 0.761 0.25485 0.0
C1243 C 0.62086 0.7156 0.27421 0.0
H1244 H 0.67686 0.73596 0.29434 0.0
C1245 C 0.62493 0.72966 0.25158 0.0
C1246 C 0.64763 0.74648 0.24449 0.0
H1247 H 0.60307 0.70317 0.27933 0.0
H1248 H 0.6102 0.72766 0.2399 0.0
C1249 C 0.66629 0.74812 0.25974 0.0
C1250 C 0.25626 0.94777 0.25629 0.0
C1251 C 0.25541 0.94985 0.28484 0.0
H1252 H 0.23769 0.93955 0.21796 0.0
C1253 C 0.23559 0.94797 0.29644 0.0
H1254 H 0.27137 0.94907 0.24698 0.0
C1255 C 0.21608 0.942 0.2799 0.0
C1256 C 0.21647 0.93853 0.25152 0.0
H1257 H 0.23453 0.94929 0.31847 0.0
H1258 H 0.20029 0.93884 0.28944 0.0
C1259 C 0.23706 0.94246 0.23971 0.0
C1260 C 0.68019 0.94984 0.26064 0.0
C1261 C 0.70286 0.96156 0.27168 0.0
H1262 H 0.65638 0.92475 0.23177 0.0
C1263 C 0.71974 0.95838 0.2595 0.0
H1264 H 0.66676 0.95196 0.26938 0.0
C1265 C 0.71376 0.94282 0.23782 0.0
C1266 C 0.69075 0.93003 0.22804 0.0
H1267 H 0.73739 0.9672 0.26741 0.0
H1268 H 0.72687 0.93989 0.22977 0.0
C1269 C 0.67419 0.93418 0.23914 0.0
C1270 C 0.04087 0.73775 0.27162 0.0
C1271 C 0.04151 0.748 0.29687 0.0
H1272 H 0.04754 0.74249 0.22842 0.0
C1273 C 0.04896 0.77138 0.2974 0.0
H1274 H 0.03508 0.71973 0.27047 0.0
C1275 C 0.05609 0.78435 0.27345 0.0
C1276 C 0.05589 0.77429 0.24824 0.0
H1277 H 0.04969 0.77987 0.31646 0.0
H1278 H 0.06252 0.80249 0.27495 0.0
C1279 C 0.04802 0.75078 0.24754 0.0
C1280 C 0.26115 0.35444 0.27127 0.0
C1281 C 0.26645 0.33884 0.28296 0.0
H1282 H 0.24018 0.35993 0.24294 0.0
C1283 C 0.25393 0.3159 0.27399 0.0
H1284 H 0.27053 0.3723 0.27736 0.0
C1285 C 0.23623 0.30874 0.25404 0.0
C1286 C 0.23073 0.32439 0.24292 0.0
H1287 H 0.25768 0.30349 0.28249 0.0
H1288 H 0.22656 0.29093 0.24775 0.0
C1289 C 0.24362 0.34733 0.25154 0.0
C1290 C 0.30211 0.38443 0.43318 0.0
C1291 C 0.3013 0.3654 0.42101 0.0
H1292 H 0.28955 0.39653 0.46498 0.0
C1293 C 0.28972 0.34425 0.43464 0.0
H1294 H 0.31107 0.40103 0.42337 0.0
C1295 C 0.27744 0.34172 0.45856 0.0
C1296 C 0.27665 0.36031 0.4694 0.0
H1297 H 0.28895 0.32929 0.42598 0.0
H1298 H 0.26756 0.32492 0.46778 0.0
C1299 C 0.28993 0.38191 0.45719 0.0
C1300 C 0.66622 0.94008 0.42291 0.0
C1301 C 0.68925 0.95134 0.41384 0.0
H1302 H 0.64167 0.91707 0.45227 0.0
C1303 C 0.70543 0.94803 0.42834 0.0
H1304 H 0.65334 0.94228 0.41223 0.0
C1305 C 0.69879 0.93372 0.45115 0.0
C1306 C 0.67576 0.92227 0.46013 0.0
H1307 H 0.72332 0.95639 0.42199 0.0
H1308 H 0.71164 0.93121 0.46138 0.0
C1309 C 0.65952 0.9256 0.44578 0.0
C1310 C 0.08992 0.71236 0.41012 0.0
C1311 C 0.06954 0.70993 0.4207 0.0
H1312 H 0.12535 0.72264 0.41864 0.0
C1313 C 0.06791 0.71217 0.44908 0.0
H1314 H 0.09158 0.71093 0.38824 0.0
C1315 C 0.08687 0.71826 0.46645 0.0
C1316 C 0.108 0.72281 0.45562 0.0
H1317 H 0.05234 0.71043 0.45762 0.0
H1318 H 0.0856 0.7213 0.488 0.0
C1319 C 0.10917 0.71908 0.42745 0.0
C1320 C 0.30918 0.04676 0.77694 0.0
C1321 C 0.29118 0.04116 0.75783 0.0
H1322 H 0.32561 0.06346 0.81489 0.0
C1323 C 0.27551 0.04833 0.76307 0.0
H1324 H 0.32147 0.04139 0.77357 0.0
C1325 C 0.27816 0.06139 0.78632 0.0
C1326 C 0.29632 0.06737 0.80539 0.0
H1327 H 0.26155 0.04453 0.74869 0.0
H1328 H 0.26632 0.06745 0.78871 0.0
C1329 C 0.31162 0.05957 0.80056 0.0
C1330 C 0.93359 0.22697 0.73083 0.0
C1331 C 0.94455 0.25094 0.73223 0.0
H1332 H 0.91624 0.19523 0.75223 0.0
C1333 C 0.94656 0.26128 0.75789 0.0
H1334 H 0.93157 0.21834 0.71145 0.0
C1335 C 0.93783 0.24785 0.78158 0.0
C1336 C 0.92704 0.22388 0.78004 0.0
H1337 H 0.95493 0.2797 0.75968 0.0
H1338 H 0.93973 0.25624 0.8011 0.0
C1339 C 0.92495 0.21366 0.75434 0.0
C1340 C 0.75243 0.69163 0.75045 0.0
C1341 C 0.7295 0.67364 0.75401 0.0
H1342 H 0.78686 0.7102 0.76735 0.0
C1343 C 0.72303 0.66246 0.7794 0.0
H1344 H 0.75781 0.70041 0.73094 0.0
C1345 C 0.73936 0.66846 0.80054 0.0
C1346 C 0.7628 0.68529 0.79651 0.0
H1347 H 0.70533 0.64872 0.78274 0.0
H1348 H 0.73365 0.6594 0.81982 0.0
C1349 C 0.76901 0.69726 0.77141 0.0
C1350 C 0.69667 0.61525 0.60421 0.0
C1351 C 0.70427 0.63697 0.61535 0.0
H1352 H 0.70036 0.5959 0.57256 0.0
C1353 C 0.72148 0.65644 0.60171 0.0
H1354 H 0.68317 0.59994 0.61408 0.0
C1355 C 0.73186 0.65414 0.57828 0.0
C1356 C 0.72494 0.63231 0.56767 0.0
H1357 H 0.72773 0.67341 0.60991 0.0
H1358 H 0.74603 0.66947 0.5693 0.0
C1359 C 0.70667 0.61295 0.58049 0.0
C1360 C 0.33327 0.06906 0.60929 0.0
C1361 C 0.31002 0.05293 0.61538 0.0
H1362 H 0.35659 0.09719 0.58367 0.0
C1363 C 0.29241 0.05153 0.59818 0.0
H1364 H 0.34723 0.07048 0.62205 0.0
C1365 C 0.29775 0.06657 0.57633 0.0
C1366 C 0.32083 0.0835 0.57107 0.0
H1367 H 0.27433 0.03907 0.6019 0.0
H1368 H 0.2837 0.06532 0.56389 0.0
C1369 C 0.33864 0.08425 0.58726 0.0
C1370 C 0.90904 0.29341 0.61527 0.0
C1371 C 0.92932 0.29494 0.6058 0.0
H1372 H 0.87415 0.28411 0.60513 0.0
C1373 C 0.93173 0.29279 0.57757 0.0
H1374 H 0.90675 0.29477 0.63702 0.0
C1375 C 0.91342 0.28732 0.55933 0.0
C1376 C 0.89221 0.28331 0.56918 0.0
H1377 H 0.94723 0.29383 0.56989 0.0
H1378 H 0.91509 0.28404 0.53799 0.0
C1379 C 0.89044 0.28731 0.59709 0.0
C1380 C 0.33904 0.27282 0.59888 0.0
C1381 C 0.36115 0.28887 0.60942 0.0
H1382 H 0.31949 0.24676 0.56877 0.0
C1383 C 0.38076 0.29332 0.59463 0.0
H1384 H 0.32359 0.26903 0.60982 0.0
C1385 C 0.37842 0.28088 0.57088 0.0
C1386 C 0.35642 0.26343 0.56157 0.0
H1387 H 0.39803 0.30586 0.60198 0.0
H1388 H 0.39395 0.28429 0.56045 0.0
C1389 C 0.33669 0.26013 0.57524 0.0
C1390 C 0.69582 0.10398 0.59885 0.0
C1391 C 0.69919 0.08652 0.60857 0.0
H1392 H 0.70489 0.13021 0.56888 0.0
C1393 C 0.71227 0.08014 0.59295 0.0
H1394 H 0.68563 0.1091 0.61037 0.0
C1395 C 0.72346 0.09238 0.56933 0.0
C1396 C 0.72132 0.11085 0.56071 0.0
H1397 H 0.71513 0.06673 0.59993 0.0
H1398 H 0.73472 0.08819 0.55857 0.0
C1399 C 0.70664 0.11592 0.575 0.0
C1400 C 0.91483 0.64859 0.60294 0.0
C1401 C 0.92541 0.6718 0.61045 0.0
H1402 H 0.89056 0.62169 0.57594 0.0
C1403 C 0.91895 0.68564 0.59631 0.0
H1404 H 0.91943 0.63747 0.61343 0.0
C1405 C 0.90263 0.67668 0.57499 0.0
C1406 C 0.89226 0.65361 0.56715 0.0
H1407 H 0.9266 0.70355 0.60156 0.0
H1408 H 0.89794 0.68784 0.56478 0.0
C1409 C 0.89831 0.63955 0.58153 0.0
C1410 C 0.96528 0.72923 0.76007 0.0
C1411 C 0.95962 0.70852 0.74735 0.0
H1412 H 0.95942 0.74551 0.79369 0.0
C1413 C 0.94412 0.68782 0.76033 0.0
H1414 H 0.97742 0.74547 0.75071 0.0
C1415 C 0.93328 0.68779 0.78457 0.0
C1416 C 0.93803 0.70848 0.79672 0.0
H1417 H 0.93933 0.67157 0.75097 0.0
H1418 H 0.92027 0.67143 0.79286 0.0
C1419 C 0.95481 0.72922 0.78463 0.0
C1420 C 0.31888 0.25562 0.76264 0.0
C1421 C 0.34112 0.26526 0.75143 0.0
H1422 H 0.2956 0.23428 0.79415 0.0
C1423 C 0.35692 0.26017 0.7636 0.0
H1424 H 0.30632 0.25922 0.75376 0.0
C1425 C 0.35088 0.24617 0.78659 0.0
C1426 C 0.32884 0.23676 0.7981 0.0
H1427 H 0.37417 0.26716 0.75554 0.0
H1428 H 0.36348 0.24251 0.79523 0.0
C1429 C 0.31275 0.24138 0.78573 0.0
C1430 C 0.73994 0.0919 0.7605 0.0
C1431 C 0.73161 0.07237 0.7438 0.0
H1432 H 0.7624 0.11204 0.79344 0.0
C1433 C 0.74025 0.05778 0.74824 0.0
H1434 H 0.73382 0.10362 0.75769 0.0
C1435 C 0.75681 0.06268 0.76909 0.0
C1436 C 0.76477 0.08208 0.78598 0.0
H1437 H 0.7342 0.0426 0.73571 0.0
H1438 H 0.76316 0.05118 0.77223 0.0
C1439 C 0.75624 0.09667 0.78125 0.0
C1440 C 0.06644 0.35754 0.0333 0.0
C1441 C 0.05112 0.34176 0.01356 0.0
H1442 H 0.09196 0.36488 0.06469 0.0
C1443 C 0.05131 0.32156 0.00904 0.0
H1444 H 0.06673 0.37326 0.0373 0.0
C1445 C 0.06563 0.31669 0.02491 0.0
C1446 C 0.08026 0.33205 0.04539 0.0
H1447 H 0.03971 0.30902 0.99402 0.0
H1448 H 0.065 0.30073 0.02146 0.0
C1449 C 0.08093 0.35277 0.04897 0.0
C1450 C 0.65752 0.72065 0.03063 0.0
C1451 C 0.65224 0.70023 0.04388 0.0
H1452 H 0.6633 0.75441 0.03476 0.0
C1453 C 0.64917 0.69867 0.07249 0.0
H1454 H 0.65994 0.72242 0.00863 0.0
C1455 C 0.65112 0.71701 0.08745 0.0
C1456 C 0.65627 0.73739 0.0742 0.0
H1457 H 0.64512 0.68321 0.08338 0.0
H1458 H 0.64878 0.7153 0.10948 0.0
C1459 C 0.65955 0.73904 0.04563 0.0
C1460 C 0.26932 0.91878 0.08217 0.0
C1461 C 0.2801 0.93978 0.0682 0.0
H1462 H 0.24121 0.8953 0.10727 0.0
C1463 C 0.26992 0.95324 0.06871 0.0
H1464 H 0.27665 0.90796 0.08221 0.0
C1465 C 0.24951 0.94592 0.08323 0.0
C1466 C 0.23913 0.92518 0.09769 0.0
H1467 H 0.27784 0.96953 0.05818 0.0
H1468 H 0.24207 0.95665 0.08356 0.0
C1469 C 0.24913 0.91161 0.09679 0.0
C1470 C 0.33472 0.04279 0.9799 0.0
C1471 C 0.34257 0.04763 0.00737 0.0
H1472 H 0.32458 0.05357 0.94382 0.0
C1473 C 0.34635 0.06795 0.01947 0.0
H1474 H 0.33163 0.02731 0.96989 0.0
C1475 C 0.34231 0.08305 0.00441 0.0
C1476 C 0.33421 0.07803 0.97704 0.0
H1477 H 0.35237 0.07217 0.04058 0.0
H1478 H 0.34516 0.09849 0.0143 0.0
C1479 C 0.33052 0.05776 0.96497 0.0
C1480 C 0.95857 0.27841 0.97384 0.0
C1481 C 0.9445 0.28737 0.97999 0.0
H1482 H 0.96018 0.25035 0.9568 0.0
C1483 C 0.92068 0.27418 0.97384 0.0
H1484 H 0.97701 0.28818 0.97827 0.0
C1485 C 0.91122 0.25289 0.96124 0.0
C1486 C 0.92519 0.24391 0.95476 0.0
H1487 H 0.90933 0.28057 0.97799 0.0
H1488 H 0.89293 0.24371 0.95593 0.0
C1489 C 0.94899 0.25685 0.96132 0.0
C1490 C 0.70349 0.62638 0.96002 0.0
C1491 C 0.69797 0.64035 0.97512 0.0
H1492 H 0.72907 0.62406 0.93747 0.0
C1493 C 0.71497 0.66361 0.97886 0.0
H1494 H 0.69084 0.60841 0.95661 0.0
C1495 C 0.73708 0.6726 0.9678 0.0
C1496 C 0.74257 0.65844 0.95304 0.0
H1497 H 0.71124 0.67482 0.99034 0.0
H1498 H 0.74997 0.69051 0.97116 0.0
C1499 C 0.72549 0.6353 0.94916 0.0
C1500 C 0.95874 0.68682 0.00344 0.0
C1501 C 0.95963 0.66701 0.99866 0.0
H1502 H 0.94337 0.70641 0.99218 0.0
C1503 C 0.94414 0.65083 0.97937 0.0
H1504 H 0.97047 0.69968 0.01808 0.0
C1505 C 0.92858 0.65469 0.96463 0.0
C1506 C 0.92838 0.67493 0.96864 0.0
H1507 H 0.94442 0.63543 0.97518 0.0
H1508 H 0.91721 0.64219 0.94944 0.0
C1509 C 0.94339 0.69081 0.98844 0.0
C1510 C 0.34955 0.2785 0.01501 0.0
C1511 C 0.34894 0.29648 1.00174 0.0
H1512 H 0.34506 0.24521 0.01135 0.0
C1513 C 0.34299 0.29419 0.97364 0.0
H1514 H 0.35403 0.27966 0.03664 0.0
C1515 C 0.33782 0.2744 0.95916 0.0
C1516 C 0.33863 0.25651 0.97238 0.0
H1517 H 0.34235 0.3077 0.96277 0.0
H1518 H 0.33356 0.27328 0.93746 0.0
C1519 C 0.34453 0.25879 1.00049 0.0
C1520 C 0.71821 0.03651 0.95835 0.0
C1521 C 0.71603 0.04537 0.98328 0.0
H1522 H 0.74062 0.04051 0.92541 0.0
C1523 C 0.73586 0.06265 0.99677 0.0
H1524 H 0.70297 0.02321 0.9476 0.0
C1525 C 0.75749 0.07201 0.98465 0.0
C1526 C 0.75953 0.06495 0.95823 0.0
H1527 H 0.73447 0.06956 0.01615 0.0
H1528 H 0.77243 0.0857 0.99536 0.0
C1529 C 0.7398 0.04637 0.94574 0.0
C1530 C 0.67251 0.94263 0.02486 0.0
C1531 C 0.65244 0.94394 0.02559 0.0
H1532 H 0.69049 0.92691 0.04079 0.0
C1533 C 0.63372 0.9281 0.04148 0.0
H1534 H 0.68732 0.95473 0.01297 0.0
C1535 C 0.6353 0.9117 0.05697 0.0
C1536 C 0.65585 0.91109 0.05745 0.0
H1537 H 0.61796 0.92858 0.04223 0.0
H1538 H 0.62046 0.89969 0.06886 0.0
C1539 C 0.67428 0.92655 0.04079 0.0
C1540 C 0.04844 0.72573 0.05597 0.0
C1541 C 0.06329 0.72426 0.03728 0.0
H1542 H 0.04478 0.74539 0.08728 0.0
C1543 C 0.08559 0.74333 0.03365 0.0
H1544 H 0.03121 0.7112 0.05942 0.0
C1545 C 0.09322 0.76321 0.04918 0.0
C1546 C 0.07895 0.76424 0.06925 0.0
H1547 H 0.0973 0.74275 0.01918 0.0
H1548 H 0.11056 0.77759 0.04582 0.0
C1549 C 0.05624 0.74542 0.07195 0.0
C1550 C 0.28692 0.33534 0.06445 0.0
C1551 C 0.30258 0.35909 0.06313 0.0
H1552 H 0.25328 0.30832 0.07694 0.0
C1553 C 0.29543 0.37394 0.07216 0.0
H1554 H 0.29193 0.32347 0.05767 0.0
C1555 C 0.27346 0.36535 0.08295 0.0
C1556 C 0.25801 0.34165 0.0852 0.0
H1557 H 0.3069 0.39234 0.07112 0.0
H1558 H 0.26858 0.37736 0.08956 0.0
C1559 C 0.26481 0.32668 0.07543 0.0
C1560 C 0.702 0.66995 0.40067 0.0
C1561 C 0.70057 0.67022 0.37183 0.0
H1562 H 0.71568 0.66177 0.43592 0.0
C1563 C 0.71302 0.66303 0.35627 0.0
H1564 H 0.69245 0.67518 0.41327 0.0
C1565 C 0.72654 0.6556 0.36933 0.0
C1566 C 0.72733 0.65472 0.39812 0.0
H1567 H 0.71216 0.66297 0.33403 0.0
H1568 H 0.736 0.6501 0.35698 0.0
C1569 C 0.71506 0.66205 0.41367 0.0
C1570 C 0.32598 0.05645 0.35984 0.0
C1571 C 0.32151 0.03641 0.37342 0.0
H1572 H 0.33133 0.09006 0.36351 0.0
C1573 C 0.3193 0.03533 0.40215 0.0
H1574 H 0.3277 0.05783 0.33773 0.0
C1575 C 0.32142 0.05385 0.41694 0.0
C1576 C 0.32589 0.07389 0.40336 0.0
H1577 H 0.31588 0.02016 0.41328 0.0
H1578 H 0.31985 0.05256 0.43907 0.0
C1579 C 0.32817 0.07497 0.37464 0.0
C1580 C 0.94039 0.29034 0.37993 0.0
C1581 C 0.94837 0.27513 0.37686 0.0
H1582 H 0.91465 0.2959 0.39742 0.0
C1583 C 0.93547 0.25309 0.38816 0.0
H1584 H 0.94993 0.30742 0.3714 0.0
C1585 C 0.91568 0.24674 0.40321 0.0
C1586 C 0.90815 0.26215 0.40709 0.0
H1587 H 0.94104 0.2409 0.38616 0.0
H1588 H 0.90634 0.22978 0.41211 0.0
C1589 C 0.92028 0.28381 0.39478 0.0
C1590 C 0.98468 0.37124 0.30169 0.0
C1591 C 0.00492 0.37266 0.3121 0.0
H1592 H 0.96966 0.38865 0.28204 0.0
C1593 C 0.02585 0.39391 0.31187 0.0
H1594 H 0.96825 0.35514 0.30167 0.0
C1595 C 0.02665 0.41314 0.30049 0.0
C1596 C 0.00649 0.41154 0.28946 0.0
H1597 H 0.04173 0.39556 0.31976 0.0
H1598 H 0.04309 0.42922 0.30008 0.0
C1599 C 0.98544 0.39047 0.29061 0.0
C1600 C 0.61435 0.60902 0.32261 0.0
C1601 C 0.59901 0.61125 0.33967 0.0
H1602 H 0.61887 0.58806 0.29409 0.0
C1603 C 0.5768 0.59217 0.3438 0.0
H1604 H 0.63157 0.6235 0.31889 0.0
C1605 C 0.56969 0.57155 0.33017 0.0
C1606 C 0.58439 0.56974 0.31142 0.0
H1607 H 0.56472 0.59333 0.35709 0.0
H1608 H 0.55239 0.55722 0.33382 0.0
C1609 C 0.60706 0.58859 0.30843 0.0
C1610 C 0.38805 0.00315 0.3112 0.0
C1611 C 0.37223 0.97942 0.30938 0.0
H1612 H 0.42254 0.03097 0.30286 0.0
C1613 C 0.37951 0.96546 0.29769 0.0
H1614 H 0.38295 0.01436 0.32003 0.0
C1615 C 0.40191 0.97487 0.28798 0.0
C1616 C 0.41777 0.99853 0.28966 0.0
H1617 H 0.36785 0.94711 0.29585 0.0
H1618 H 0.40668 0.96356 0.27867 0.0
C1619 C 0.41064 0.01266 0.30127 0.0
C1620 C 0.63676 0.02878 0.33295 0.0
C1621 C 0.63636 0.00809 0.33059 0.0
H1622 H 0.62183 0.04839 0.31994 0.0
C1623 C 0.6193 0.99057 0.31381 0.0
H1624 H 0.64975 0.04266 0.3456 0.0
C1625 C 0.60328 0.99385 0.29925 0.0
C1626 C 0.6042 0.01481 0.3009 0.0
H1627 H 0.61857 0.97445 0.31154 0.0
H1628 H 0.59059 0.98022 0.28606 0.0
C1629 C 0.62093 0.03217 0.31808 0.0
C1630 C 0.01236 0.62792 0.29675 0.0
C1631 C 0.00631 0.62409 0.32461 0.0
H1632 H 0.0166 0.61428 0.25932 0.0
C1633 C -0.0005 0.60259 0.33596 0.0
H1634 H 0.01757 0.64423 0.28728 0.0
C1635 C -0.00095 0.58543 0.31991 0.0
C1636 C 0.00543 0.58939 0.29215 0.0
H1637 H 0.99476 0.59907 0.35735 0.0
H1638 H 0.99419 0.56922 0.32943 0.0
C1639 C 0.01192 0.61078 0.28073 0.0
C1640 C 0.39554 0.41229 0.29584 0.0
C1641 C 0.3844 0.39102 0.3092 0.0
H1642 H 0.42423 0.43618 0.27172 0.0
C1643 C 0.39448 0.37748 0.30861 0.0
H1644 H 0.38826 0.42316 0.29584 0.0
C1645 C 0.41518 0.385 0.29467 0.0
C1646 C 0.42594 0.40604 0.28083 0.0
H1647 H 0.38637 0.36106 0.31879 0.0
H1648 H 0.42257 0.37424 0.29435 0.0
C1649 C 0.41602 0.41966 0.28174 0.0
C1650 C 0.31199 0.27164 0.37678 0.0
C1651 C 0.33084 0.28795 0.36133 0.0
H1652 H 0.2989 0.24283 0.40377 0.0
C1653 C 0.35102 0.2868 0.36049 0.0
H1654 H 0.29622 0.27207 0.37788 0.0
C1655 C 0.35262 0.2702 0.37552 0.0
C1656 C 0.33397 0.25423 0.39143 0.0
H1657 H 0.36588 0.29911 0.34883 0.0
H1658 H 0.3685 0.26993 0.3748 0.0
C1659 C 0.31351 0.25487 0.39156 0.0
C1660 C 0.7281 0.0712 0.36729 0.0
C1661 C 0.74242 0.06191 0.36605 0.0
H1662 H 0.72375 0.09798 0.38305 0.0
C1663 C 0.76485 0.07437 0.37761 0.0
H1664 H 0.7108 0.06215 0.35838 0.0
C1665 C 0.77217 0.09478 0.39178 0.0
C1666 C 0.75731 0.10329 0.39451 0.0
H1667 H 0.77638 0.06781 0.37694 0.0
H1668 H 0.78926 0.10359 0.40131 0.0
C1669 C 0.73551 0.09175 0.38133 0.0
C1670 C 0.94331 0.68969 0.39738 0.0
C1671 C 0.9523 0.67635 0.38846 0.0
H1672 H 0.91431 0.69033 0.41278 0.0
C1673 C 0.93766 0.65239 0.38763 0.0
H1674 H 0.95402 0.70819 0.39829 0.0
C1675 C 0.91455 0.64204 0.39603 0.0
C1676 C 0.90574 0.65556 0.40497 0.0
H1677 H 0.94412 0.64167 0.38092 0.0
H1678 H 0.90358 0.62356 0.39546 0.0
C1679 C 0.9204 0.67945 0.40549 0.0
C1680 C 0.38258 0.01639 0.7179 0.0
C1681 C 0.36554 -0.00023 0.70032 0.0
H1682 H 0.41026 0.02492 0.74642 0.0
C1683 C 0.36384 0.97848 0.69779 0.0
H1684 H 0.3844 0.03301 0.7201 0.0
C1685 C 0.37812 0.9735 0.71355 0.0
C1686 C 0.39476 0.98984 0.73186 0.0
H1687 H 0.35072 0.96521 0.68458 0.0
H1688 H 0.37543 0.95649 0.71207 0.0
C1689 C 0.39721 0.01159 0.73324 0.0
C1690 C 0.001 0.39934 0.6845 0.0
C1691 C 0.9947 0.37897 0.69862 0.0
H1692 H 0.00826 0.43373 0.68696 0.0
C1693 C 0.99162 0.3783 0.72717 0.0
H1694 H 0.00348 0.40045 0.6625 0.0
C1695 C 0.99448 0.39743 0.74122 0.0
C1696 C 0.0005 0.41772 0.72707 0.0
H1697 H 0.98686 0.36294 0.73873 0.0
H1698 H 0.99209 0.39635 0.76323 0.0
C1699 C 0.00387 0.41848 0.69856 0.0
C1700 C 0.59618 0.60586 0.69784 0.0
C1701 C 0.61525 0.62549 0.7093 0.0
H1702 H 0.56042 0.58018 0.70146 0.0
C1703 C 0.61209 0.63606 0.73208 0.0
H1704 H 0.59826 0.59756 0.68014 0.0
C1705 C 0.59054 0.62569 0.74495 0.0
C1706 C 0.57191 0.60483 0.73488 0.0
H1707 H 0.6267 0.65118 0.74129 0.0
H1708 H 0.58902 0.63303 0.76389 0.0
C1709 C 0.57462 0.59586 0.71021 0.0
C1710 C 0.67949 0.72704 0.63756 0.0
C1711 C 0.68384 0.72918 0.66607 0.0
H1712 H 0.67113 0.73984 0.60181 0.0
C1713 C 0.68375 0.74697 0.68033 0.0
H1714 H 0.67929 0.71344 0.62598 0.0
C1715 C 0.67931 0.76225 0.66633 0.0
C1716 C 0.6744 0.75967 0.63798 0.0
H1717 H 0.68701 0.74902 0.70228 0.0
H1718 H 0.67925 0.77579 0.67773 0.0
C1719 C 0.67462 0.742 0.62373 0.0
C1720 C 0.27802 0.94136 0.64447 0.0
C1721 C 0.26336 0.94417 0.66206 0.0
H1722 H 0.28112 0.91992 0.61522 0.0
C1723 C 0.24085 0.92563 0.66632 0.0
H1724 H 0.29541 0.95545 0.64058 0.0
C1725 C 0.2328 0.905 0.65231 0.0
C1726 C 0.24684 0.90265 0.63306 0.0
H1727 H 0.22927 0.92726 0.67998 0.0
H1728 H 0.21529 0.89109 0.65605 0.0
C1729 C 0.2698 0.9209 0.62993 0.0
C1730 C 0.04781 0.29945 0.63823 0.0
C1731 C 0.04032 0.31486 0.64281 0.0
H1732 H 0.07412 0.29433 0.62252 0.0
C1733 C 0.05531 0.33814 0.63674 0.0
H1734 H 0.03685 0.28146 0.64311 0.0
C1735 C 0.07681 0.34553 0.62463 0.0
C1736 C 0.08352 0.32971 0.61849 0.0
H1737 H 0.04997 0.35038 0.64005 0.0
H1738 H 0.08764 0.36334 0.61889 0.0
C1739 C 0.06913 0.30679 0.6263 0.0
C1740 C 0.29228 0.34955 0.67288 0.0
C1741 C 0.29039 0.32809 0.67326 0.0
H1742 H 0.27959 0.36999 0.65624 0.0
C1743 C 0.27188 0.30973 0.65903 0.0
H1744 H 0.30645 0.36409 0.68353 0.0
C1745 C 0.2561 0.31297 0.64383 0.0
C1746 C 0.25876 0.33479 0.64202 0.0
H1747 H 0.26984 0.29293 0.65919 0.0
H1748 H 0.24207 0.29841 0.63308 0.0
C1749 C 0.27677 0.35291 0.65727 0.0
C1750 C 0.67099 0.97108 0.63262 0.0
C1751 C 0.67588 0.97379 0.66101 0.0
H1752 H 0.66504 0.95077 0.59667 0.0
C1753 C 0.67832 0.95712 0.675 0.0
H1754 H 0.6691 0.98362 0.62114 0.0
C1755 C 0.67587 0.93815 0.66091 0.0
C1756 C 0.67087 0.93541 0.63254 0.0
H1757 H 0.68206 0.95867 0.69686 0.0
H1758 H 0.67755 0.92545 0.67232 0.0
C1759 C 0.66853 0.95215 0.61859 0.0
C1760 C 0.05274 0.71428 0.63755 0.0
C1761 C 0.04284 0.728 0.63739 0.0
H1762 H 0.08048 0.71029 0.62365 0.0
C1763 C 0.05404 0.74888 0.62317 0.0
H1764 H 0.04451 0.69808 0.64829 0.0
C1765 C 0.07433 0.75565 0.60892 0.0
C1766 C 0.08404 0.74182 0.60869 0.0
H1767 H 0.04692 0.75989 0.62259 0.0
H1768 H 0.08253 0.77185 0.59817 0.0
C1769 C 0.07327 0.72121 0.62346 0.0
C1770 C 0.98126 0.62037 0.71805 0.0
C1771 C 0.98641 0.62452 0.69002 0.0
H1772 H 0.98129 0.60249 0.75402 0.0
C1773 C 0.99483 0.61228 0.67636 0.0
H1774 H 0.97498 0.62966 0.72931 0.0
C1775 C -0.00187 0.5963 0.69054 0.0
C1776 C 0.99326 0.59237 0.71872 0.0
H1777 H -0.00105 0.61508 0.65475 0.0
H1778 H 0.00438 0.58696 0.67936 0.0
C1779 C 0.98478 0.60464 0.73224 0.0
C1780 C 0.38366 0.38942 0.71795 0.0
C1781 C 0.39649 0.37855 0.71658 0.0
H1782 H 0.38279 0.41874 0.73172 0.0
C1783 C 0.41873 0.38933 0.72866 0.0
H1784 H 0.36647 0.38156 0.70884 0.0
C1785 C 0.42785 0.41029 0.74207 0.0
C1786 C 0.41514 0.42126 0.74347 0.0
H1787 H 0.429 0.38135 0.72835 0.0
H1788 H 0.4448 0.41772 0.75174 0.0
C1789 C 0.39292 0.41061 0.73124 0.0
C1790 C 0.60309 0.03777 0.72031 0.0
C1791 C 0.6135 0.0252 0.71366 0.0
H1792 H 0.5748 0.03776 0.73926 0.0
C1793 C 0.60173 0.00166 0.71959 0.0
H1794 H 0.61147 0.05585 0.71567 0.0
C1795 C 0.58051 0.99125 0.73329 0.0
C1796 C 0.57092 0.00429 0.74126 0.0
H1797 H 0.6093 0.99152 0.71465 0.0
H1798 H 0.57215 0.97332 0.73867 0.0
C1799 C 0.58209 0.02745 0.73392 0.0
loop_
_geom_bond_atom_site_label_1
_geom_bond_atom_site_label_2
_geom_bond_distance
_geom_bond_site_symmetry_2
_ccdc_geom_bond_type
Zn0 O3 2.031 1_554 S
Zn0 O5 2.049 . S
Zn0 O10 2.067 1_554 S
Zn1 O2 1.962 1_455 S
Zn1 O4 1.986 . S
Zn1 O6 1.996 1_455 S
Zn1 O9 1.943 1_554 S
O2 Zn1 1.962 1_655 S
O2 C7 1.254 1_554 S
O3 Zn0 2.031 1_556 S
O3 C7 1.269 . S
O4 Zn1 1.986 . S
O4 C11 1.262 . S
O5 Zn0 2.049 . S
O5 C13 1.260 . S
O6 Zn1 1.996 1_655 S
O6 C13 1.257 . S
C7 O2 1.254 1_556 S
C7 O3 1.269 . S
C8 O9 1.249 . S
C8 O10 1.270 1_455 S
O9 Zn1 1.943 1_556 S
O9 C8 1.249 . S
O10 Zn0 2.067 1_556 S
O10 C8 1.270 1_655 S
C11 O4 1.262 . S
C11 O12 1.232 . S
O12 C11 1.232 . S
C13 O5 1.260 . S
C13 O6 1.257 . S
Zn14 O17 2.031 1_554 S
Zn14 O19 2.049 . S
Zn14 O24 2.067 1_554 S
Zn15 O16 1.962 . S
Zn15 O18 1.986 . S
Zn15 O20 1.996 . S
Zn15 O23 1.943 1_554 S
O16 Zn15 1.962 . S
O16 C21 1.254 1_554 S
O17 Zn14 2.031 1_556 S
O17 C21 1.269 . S
O18 Zn15 1.986 . S
O18 C25 1.262 . S
O19 Zn14 2.049 . S
O19 C27 1.260 . S
O20 Zn15 1.996 . S
O20 C27 1.257 . S
C21 O16 1.254 1_556 S
C21 O17 1.269 . S
C22 O23 1.249 . S
C22 O24 1.270 . S
O23 Zn15 1.943 1_556 S
O23 C22 1.249 . S
O24 Zn14 2.067 1_556 S
O24 C22 1.270 . S
C25 O18 1.262 . S
C25 O26 1.232 . S
O26 C25 1.232 . S
C27 O19 1.260 . S
C27 O20 1.257 . S
Zn28 O31 2.031 . S
Zn28 O33 2.049 1_554 S
Zn28 O38 2.067 . S
Zn29 O30 1.962 1_545 S
Zn29 O32 1.986 1_554 S
Zn29 O34 1.996 1_544 S
Zn29 O37 1.943 . S
O30 Zn29 1.962 1_565 S
O30 C35 1.254 . S
O31 Zn28 2.031 . S
O31 C35 1.269 . S
O32 Zn29 1.986 1_556 S
O32 C39 1.262 . S
O33 Zn28 2.049 1_556 S
O33 C41 1.260 . S
O34 Zn29 1.996 1_566 S
O34 C41 1.257 . S
C35 O30 1.254 . S
C35 O31 1.269 . S
C36 O37 1.249 . S
C36 O38 1.270 1_545 S
O37 Zn29 1.943 . S
O37 C36 1.249 . S
O38 Zn28 2.067 . S
O38 C36 1.270 1_565 S
C39 O32 1.262 . S
C39 O40 1.232 1_556 S
O40 C39 1.232 1_554 S
C41 O33 1.260 . S
C41 O34 1.257 . S
Zn42 O45 2.031 . S
Zn42 O47 2.049 1_554 S
Zn42 O52 2.067 . S
Zn43 O44 1.962 1_655 S
Zn43 O46 1.986 1_554 S
Zn43 O48 1.996 1_654 S
Zn43 O51 1.943 . S
O44 Zn43 1.962 1_455 S
O44 C49 1.254 . S
O45 Zn42 2.031 . S
O45 C49 1.269 . S
O46 Zn43 1.986 1_556 S
O46 C53 1.262 . S
O47 Zn42 2.049 1_556 S
O47 C55 1.260 . S
O48 Zn43 1.996 1_456 S
O48 C55 1.257 . S
C49 O44 1.254 . S
C49 O45 1.269 . S
C50 O51 1.249 . S
C50 O52 1.270 1_655 S
O51 Zn43 1.943 . S
O51 C50 1.249 . S
O52 Zn42 2.067 . S
O52 C50 1.270 1_455 S
C53 O46 1.262 . S
C53 O54 1.232 1_556 S
O54 C53 1.232 1_554 S
C55 O47 1.260 . S
C55 O48 1.257 . S
Zn56 O59 2.031 . S
Zn56 O61 2.049 1_554 S
Zn56 O66 2.067 . S
Zn57 O58 1.962 . S
Zn57 O60 1.986 1_554 S
Zn57 O62 1.996 1_554 S
Zn57 O65 1.943 . S
O58 Zn57 1.962 . S
O58 C63 1.254 . S
O59 Zn56 2.031 . S
O59 C63 1.269 . S
O60 Zn57 1.986 1_556 S
O60 C67 1.262 . S
O61 Zn56 2.049 1_556 S
O61 C69 1.260 . S
O62 Zn57 1.996 1_556 S
O62 C69 1.257 . S
C63 O58 1.254 . S
C63 O59 1.269 . S
C64 O65 1.249 . S
C64 O66 1.270 . S
O65 Zn57 1.943 . S
O65 C64 1.249 . S
O66 Zn56 2.067 . S
O66 C64 1.270 . S
C67 O60 1.262 . S
C67 O68 1.232 1_556 S
O68 C67 1.232 1_554 S
C69 O61 1.260 . S
C69 O62 1.257 . S
Zn70 O73 2.031 1_554 S
Zn70 O75 2.049 . S
Zn70 O80 2.067 1_554 S
Zn71 O72 1.962 1_565 S
Zn71 O74 1.986 . S
Zn71 O76 1.996 1_565 S
Zn71 O79 1.943 1_554 S
O72 Zn71 1.962 1_545 S
O72 C77 1.254 1_554 S
O73 Zn70 2.031 1_556 S
O73 C77 1.269 . S
O74 Zn71 1.986 . S
O74 C81 1.262 . S
O75 Zn70 2.049 . S
O75 C83 1.260 . S
O76 Zn71 1.996 1_545 S
O76 C83 1.257 . S
C77 O72 1.254 1_556 S
C77 O73 1.269 . S
C78 O79 1.249 . S
C78 O80 1.270 1_565 S
O79 Zn71 1.943 1_556 S
O79 C78 1.249 . S
O80 Zn70 2.067 1_556 S
O80 C78 1.270 1_545 S
C81 O74 1.262 . S
C81 O82 1.232 . S
O82 C81 1.232 . S
C83 O75 1.260 . S
C83 O76 1.257 . S
Zn84 O87 2.031 . S
Zn84 O89 2.049 . S
Zn84 O94 2.067 . S
Zn85 O86 1.962 . S
Zn85 O88 1.986 . S
Zn85 O90 1.996 . S
Zn85 O93 1.943 . S
O86 Zn85 1.962 . S
O86 C91 1.254 . S
O87 Zn84 2.031 . S
O87 C91 1.269 . S
O88 Zn85 1.986 . S
O88 C95 1.262 . S
O89 Zn84 2.049 . S
O89 C97 1.260 . S
O90 Zn85 1.996 . S
O90 C97 1.257 . S
C91 O86 1.254 . S
C91 O87 1.269 . S
C92 O93 1.249 . S
C92 O94 1.270 . S
O93 Zn85 1.943 . S
O93 C92 1.249 . S
O94 Zn84 2.067 . S
O94 C92 1.270 . S
C95 O88 1.262 . S
C95 O96 1.232 . S
O96 C95 1.232 . S
C97 O89 1.260 . S
C97 O90 1.257 . S
Zn98 O101 2.031 . S
Zn98 O103 2.049 . S
Zn98 O108 2.067 . S
Zn99 O100 1.962 . S
Zn99 O102 1.986 1_565 S
Zn99 O104 1.996 . S
Zn99 O107 1.943 . S
O100 Zn99 1.962 . S
O100 C105 1.254 . S
O101 Zn98 2.031 . S
O101 C105 1.269 . S
O102 Zn99 1.986 1_545 S
O102 C109 1.262 . S
O103 Zn98 2.049 . S
O103 C111 1.260 . S
O104 Zn99 1.996 . S
O104 C111 1.257 . S
C105 O100 1.254 . S
C105 O101 1.269 . S
C106 O107 1.249 . S
C106 O108 1.270 . S
O107 Zn99 1.943 . S
O107 C106 1.249 . S
O108 Zn98 2.067 . S
O108 C106 1.270 . S
C109 O102 1.262 . S
C109 O110 1.232 . S
O110 C109 1.232 . S
C111 O103 1.260 . S
C111 O104 1.257 . S
Zn112 O115 2.014 1_455 S
Zn112 O117 2.049 . S
Zn112 O122 2.067 . S
Zn113 O114 1.962 1_455 S
Zn113 O116 1.986 . S
Zn113 O118 1.996 . S
Zn113 O121 1.943 . S
O114 Zn113 1.962 1_655 S
O114 C119 1.254 . S
O115 Zn112 2.014 1_655 S
O115 C119 1.289 . S
O116 Zn113 1.986 . S
O116 C123 1.262 . S
O117 Zn112 2.049 . S
O117 C125 1.260 . S
O118 Zn113 1.996 . S
O118 C125 1.257 . S
C119 O114 1.254 . S
C119 O115 1.289 . S
C120 O121 1.249 . S
C120 O122 1.270 . S
O121 Zn113 1.943 . S
O121 C120 1.249 . S
O122 Zn112 2.067 . S
O122 C120 1.270 . S
C123 O116 1.262 . S
C123 O124 1.232 . S
O124 C123 1.232 . S
C125 O117 1.260 . S
C125 O118 1.257 . S
Zn126 O129 2.031 1_565 S
Zn126 O131 2.049 . S
Zn126 O136 2.067 . S
Zn127 O128 1.962 1_565 S
Zn127 O130 1.986 . S
Zn127 O132 1.996 . S
Zn127 O135 1.943 . S
O128 Zn127 1.962 1_545 S
O128 C133 1.254 . S
O129 Zn126 2.031 1_545 S
O129 C133 1.269 . S
O130 Zn127 1.986 . S
O130 C137 1.262 . S
O131 Zn126 2.049 . S
O131 C139 1.260 . S
O132 Zn127 1.996 . S
O132 C139 1.257 . S
C133 O128 1.254 . S
C133 O129 1.269 . S
C134 O135 1.249 . S
C134 O136 1.270 . S
O135 Zn127 1.943 . S
O135 C134 1.249 . S
O136 Zn126 2.067 . S
O136 C134 1.270 . S
C137 O130 1.262 . S
C137 O138 1.232 . S
O138 C137 1.232 . S
C139 O131 1.260 . S
C139 O132 1.257 . S
Zn140 O143 2.031 1_455 S
Zn140 O145 2.049 . S
Zn140 O150 2.067 . S
Zn141 O142 1.962 1_455 S
Zn141 O144 1.986 . S
Zn141 O146 1.996 . S
Zn141 O149 1.943 . S
O142 Zn141 1.962 1_655 S
O142 C147 1.254 . S
O143 Zn140 2.031 1_655 S
O143 C147 1.269 . S
O144 Zn141 1.986 . S
O144 C151 1.262 . S
O145 Zn140 2.049 . S
O145 C153 1.260 . S
O146 Zn141 1.996 . S
O146 C153 1.257 . S
C147 O142 1.254 . S
C147 O143 1.269 . S
C148 O149 1.249 . S
C148 O150 1.270 . S
O149 Zn141 1.943 . S
O149 C148 1.249 . S
O150 Zn140 2.067 . S
O150 C148 1.270 . S
C151 O144 1.262 . S
C151 O152 1.232 . S
O152 C151 1.232 . S
C153 O145 1.260 . S
C153 O146 1.257 . S
Zn154 O157 2.031 . S
Zn154 O159 2.049 . S
Zn154 O164 2.067 . S
Zn155 O156 1.962 . S
Zn155 O158 1.986 . S
Zn155 O160 1.996 . S
Zn155 O163 1.943 . S
O156 Zn155 1.962 . S
O156 C161 1.254 . S
O157 Zn154 2.031 . S
O157 C161 1.269 . S
O158 Zn155 1.986 . S
O158 C165 1.262 . S
O159 Zn154 2.049 . S
O159 C167 1.260 . S
O160 Zn155 1.996 . S
O160 C167 1.257 . S
C161 O156 1.254 . S
C161 O157 1.269 . S
C162 O163 1.249 . S
C162 O164 1.270 . S
O163 Zn155 1.943 . S
O163 C162 1.249 . S
O164 Zn154 2.067 . S
O164 C162 1.270 . S
C165 O158 1.262 . S
C165 O166 1.232 . S
O166 C165 1.232 . S
C167 O159 1.260 . S
C167 O160 1.257 . S
Zn168 O171 2.031 . S
Zn168 O173 2.049 . S
Zn168 O178 2.067 . S
Zn169 O170 1.962 1_545 S
Zn169 O172 1.986 . S
Zn169 O174 1.996 . S
Zn169 O177 1.943 . S
O170 Zn169 1.962 1_565 S
O170 C175 1.254 . S
O171 Zn168 2.031 . S
O171 C175 1.269 1_545 S
O172 Zn169 1.986 . S
O172 C179 1.262 . S
O173 Zn168 2.049 . S
O173 C181 1.260 . S
O174 Zn169 1.996 . S
O174 C181 1.257 . S
C175 O170 1.254 . S
C175 O171 1.269 1_565 S
C176 O177 1.249 . S
C176 O178 1.270 . S
O177 Zn169 1.943 . S
O177 C176 1.249 . S
O178 Zn168 2.067 . S
O178 C176 1.270 . S
C179 O172 1.262 . S
C179 O180 1.232 . S
O180 C179 1.232 . S
C181 O173 1.260 . S
C181 O174 1.257 . S
Zn182 O185 2.031 1_655 S
Zn182 O187 2.049 . S
Zn182 O192 2.067 . S
Zn183 O184 1.962 1_655 S
Zn183 O186 1.986 . S
Zn183 O188 1.996 . S
Zn183 O191 1.943 . S
O184 Zn183 1.962 1_455 S
O184 C189 1.254 . S
O185 Zn182 2.031 1_455 S
O185 C189 1.269 . S
O186 Zn183 1.986 . S
O186 C193 1.262 . S
O187 Zn182 2.049 . S
O187 C195 1.260 . S
O188 Zn183 1.996 . S
O188 C195 1.257 . S
C189 O184 1.254 . S
C189 O185 1.269 . S
C190 O191 1.249 . S
C190 O192 1.270 . S
O191 Zn183 1.943 . S
O191 C190 1.249 . S
O192 Zn182 2.067 . S
O192 C190 1.270 . S
C193 O186 1.262 . S
C193 O194 1.232 . S
O194 C193 1.232 . S
C195 O187 1.260 . S
C195 O188 1.257 . S
Zn196 O199 2.031 . S
Zn196 O201 2.049 . S
Zn196 O206 2.067 . S
Zn197 O198 1.962 . S
Zn197 O200 1.986 . S
Zn197 O202 1.996 . S
Zn197 O205 1.943 . S
O198 Zn197 1.962 . S
O198 C203 1.254 . S
O199 Zn196 2.031 . S
O199 C203 1.269 . S
O200 Zn197 1.986 . S
O200 C207 1.262 . S
O201 Zn196 2.049 . S
O201 C209 1.260 . S
O202 Zn197 1.996 . S
O202 C209 1.257 . S
C203 O198 1.254 . S
C203 O199 1.269 . S
C204 O205 1.249 . S
C204 O206 1.270 . S
O205 Zn197 1.943 . S
O205 C204 1.249 . S
O206 Zn196 2.067 . S
O206 C204 1.270 . S
C207 O200 1.262 . S
C207 O208 1.232 . S
O208 C207 1.232 . S
C209 O201 1.260 . S
C209 O202 1.257 . S
Zn210 O213 2.031 . S
Zn210 O215 2.049 . S
Zn210 O220 2.067 . S
Zn211 O212 1.962 . S
Zn211 O214 1.986 . S
Zn211 O216 1.996 . S
Zn211 O219 1.943 . S
O212 Zn211 1.962 . S
O212 C217 1.254 . S
O213 Zn210 2.031 . S
O213 C217 1.269 . S
O214 Zn211 1.986 . S
O214 C221 1.262 . S
O215 Zn210 2.049 . S
O215 C223 1.260 . S
O216 Zn211 1.996 . S
O216 C223 1.257 . S
C217 O212 1.254 . S
C217 O213 1.269 . S
C218 O219 1.249 . S
C218 O220 1.270 . S
O219 Zn211 1.943 . S
O219 C218 1.249 . S
O220 Zn210 2.067 . S
O220 C218 1.270 . S
C221 O214 1.262 . S
C221 O222 1.232 . S
O222 C221 1.232 . S
C223 O215 1.260 . S
C223 O216 1.257 . S
Zn224 O227 2.031 . S
Zn224 O229 2.049 . S
Zn224 O234 2.067 . S
Zn225 O226 1.962 . S
Zn225 O228 1.986 1_545 S
Zn225 O230 1.996 . S
Zn225 O233 1.943 . S
O226 Zn225 1.962 . S
O226 C231 1.254 . S
O227 Zn224 2.031 . S
O227 C231 1.269 . S
O228 Zn225 1.986 1_565 S
O228 C235 1.262 . S
O229 Zn224 2.049 . S
O229 C237 1.260 . S
O230 Zn225 1.996 . S
O230 C237 1.257 . S
C231 O226 1.254 . S
C231 O227 1.269 . S
C232 O233 1.249 . S
C232 O234 1.270 . S
O233 Zn225 1.943 . S
O233 C232 1.249 . S
O234 Zn224 2.067 . S
O234 C232 1.270 . S
C235 O228 1.262 . S
C235 O236 1.232 . S
O236 C235 1.232 . S
C237 O229 1.260 . S
C237 O230 1.257 . S
Zn238 O241 2.031 1_655 S
Zn238 O243 2.049 . S
Zn238 O248 2.067 . S
Zn239 O240 1.962 1_655 S
Zn239 O242 1.986 . S
Zn239 O244 1.996 . S
Zn239 O247 1.943 . S
O240 Zn239 1.962 1_455 S
O240 C245 1.254 . S
O241 Zn238 2.031 1_455 S
O241 C245 1.269 . S
O242 Zn239 1.986 . S
O242 C249 1.262 . S
O243 Zn238 2.049 . S
O243 C251 1.260 . S
O244 Zn239 1.996 . S
O244 C251 1.257 . S
C245 O240 1.254 . S
C245 O241 1.269 . S
C246 O247 1.249 . S
C246 O248 1.270 . S
O247 Zn239 1.943 . S
O247 C246 1.249 . S
O248 Zn238 2.067 . S
O248 C246 1.270 . S
C249 O242 1.262 . S
C249 O250 1.232 . S
O250 C249 1.232 . S
C251 O243 1.260 . S
C251 O244 1.257 . S
C252 C253 1.384 . S
C252 C254 1.384 . S
C252 H280 0.931 . S
C253 C252 1.384 . S
C253 C256 1.382 . S
C254 C252 1.384 . S
C254 C255 1.381 . S
C254 H281 0.930 . S
C255 C254 1.381 . S
C255 C257 1.381 . S
C255 C258 1.487 . S
C256 C253 1.382 . S
C256 C257 1.387 . S
C256 H282 0.930 . S
C257 C255 1.381 . S
C257 C256 1.387 . S
C257 H283 0.931 . S
C258 C255 1.487 . S
C258 C265 1.399 . S
C258 N296 1.343 . S
C259 C260 1.384 . S
C259 C261 1.384 . S
C259 H284 0.931 . S
C260 C259 1.384 . S
C260 C263 1.382 . S
C261 C259 1.384 . S
C261 C262 1.381 . S
C261 H285 0.930 . S
C262 C261 1.381 . S
C262 C264 1.381 . S
C262 C265 1.487 . S
C263 C260 1.382 . S
C263 C264 1.387 . S
C263 H286 0.930 . S
C264 C262 1.381 . S
C264 C263 1.387 . S
C264 H287 0.931 . S
C265 C258 1.399 . S
C265 C262 1.487 . S
C265 N297 1.343 . S
C266 C267 1.384 . S
C266 C268 1.384 . S
C266 H288 0.931 . S
C267 C266 1.384 . S
C267 C270 1.382 . S
C268 C266 1.384 . S
C268 C269 1.381 . S
C268 H289 0.930 . S
C269 C268 1.381 . S
C269 C271 1.381 . S
C269 C272 1.487 . S
C270 C267 1.382 . S
C270 C271 1.387 . S
C270 H290 0.930 . S
C271 C269 1.381 . S
C271 C270 1.387 . S
C271 H291 0.931 . S
C272 C269 1.487 . S
C272 C279 1.399 . S
C272 N297 1.343 . S
C273 C274 1.384 . S
C273 C275 1.384 . S
C273 H292 0.931 . S
C274 C273 1.384 . S
C274 C277 1.382 . S
C275 C273 1.384 . S
C275 C276 1.381 . S
C275 H293 0.930 . S
C276 C275 1.381 . S
C276 C278 1.381 . S
C276 C279 1.487 . S
C277 C274 1.382 . S
C277 C278 1.387 . S
C277 H294 0.930 . S
C278 C276 1.381 . S
C278 C277 1.387 . S
C278 H295 0.931 . S
C279 C272 1.399 . S
C279 C276 1.487 . S
C279 N296 1.343 . S
H280 C252 0.931 . S
H281 C254 0.930 . S
H282 C256 0.930 . S
H283 C257 0.931 . S
H284 C259 0.931 . S
H285 C261 0.930 . S
H286 C263 0.930 . S
H287 C264 0.931 . S
H288 C266 0.931 . S
H289 C268 0.930 . S
H290 C270 0.930 . S
H291 C271 0.931 . S
H292 C273 0.931 . S
H293 C275 0.930 . S
H294 C277 0.930 . S
H295 C278 0.931 . S
N296 C258 1.343 . S
N296 C279 1.343 . S
N297 C265 1.343 . S
N297 C272 1.343 . S
C298 C299 1.384 . S
C298 C300 1.384 . S
C298 H326 0.931 . S
C299 C298 1.384 . S
C299 C302 1.382 . S
C300 C298 1.384 . S
C300 C301 1.381 . S
C300 H327 0.930 . S
C301 C300 1.381 . S
C301 C303 1.381 . S
C301 C304 1.487 . S
C302 C299 1.382 . S
C302 C303 1.387 . S
C302 H328 0.930 . S
C303 C301 1.381 . S
C303 C302 1.387 . S
C303 H329 0.931 . S
C304 C301 1.487 . S
C304 C311 1.399 . S
C304 N342 1.343 . S
C305 C306 1.384 . S
C305 C307 1.384 . S
C305 H330 0.931 . S
C306 C305 1.384 . S
C306 C309 1.382 . S
C307 C305 1.384 . S
C307 C308 1.381 . S
C307 H331 0.930 . S
C308 C307 1.381 . S
C308 C310 1.381 . S
C308 C311 1.487 . S
C309 C306 1.382 . S
C309 C310 1.387 . S
C309 H332 0.930 . S
C310 C308 1.381 . S
C310 C309 1.387 . S
C310 H333 0.931 . S
C311 C304 1.399 . S
C311 C308 1.487 . S
C311 N343 1.343 . S
C312 C313 1.384 . S
C312 C314 1.384 . S
C312 H334 0.931 . S
C313 C312 1.384 . S
C313 C316 1.382 . S
C314 C312 1.384 . S
C314 C315 1.381 . S
C314 H335 0.930 . S
C315 C314 1.381 . S
C315 C317 1.381 . S
C315 C318 1.487 . S
C316 C313 1.382 . S
C316 C317 1.387 . S
C316 H336 0.930 . S
C317 C315 1.381 . S
C317 C316 1.387 . S
C317 H337 0.931 . S
C318 C315 1.487 . S
C318 C325 1.399 . S
C318 N343 1.343 . S
C319 C320 1.384 . S
C319 C321 1.384 . S
C319 H338 0.931 . S
C320 C319 1.384 . S
C320 C323 1.382 . S
C321 C319 1.384 . S
C321 C322 1.381 . S
C321 H339 0.930 . S
C322 C321 1.381 . S
C322 C324 1.381 . S
C322 C325 1.487 . S
C323 C320 1.382 . S
C323 C324 1.387 . S
C323 H340 0.930 . S
C324 C322 1.381 . S
C324 C323 1.387 . S
C324 H341 0.931 . S
C325 C318 1.399 . S
C325 C322 1.487 . S
C325 N342 1.343 . S
H326 C298 0.931 . S
H327 C300 0.930 . S
H328 C302 0.930 . S
H329 C303 0.931 . S
H330 C305 0.931 . S
H331 C307 0.930 . S
H332 C309 0.930 . S
H333 C310 0.931 . S
H334 C312 0.931 . S
H335 C314 0.930 . S
H336 C316 0.930 . S
H337 C317 0.931 . S
H338 C319 0.931 . S
H339 C321 0.930 . S
H340 C323 0.930 . S
H341 C324 0.931 . S
N342 C304 1.343 . S
N342 C325 1.343 . S
N343 C311 1.343 . S
N343 C318 1.343 . S
C344 C345 1.384 . S
C344 C346 1.384 . S
C344 H372 0.931 . S
C345 C344 1.384 . S
C345 C348 1.382 . S
C346 C344 1.384 . S
C346 C347 1.381 . S
C346 H373 0.930 . S
C347 C346 1.381 . S
C347 C349 1.381 . S
C347 C350 1.487 . S
C348 C345 1.382 . S
C348 C349 1.387 . S
C348 H374 0.930 . S
C349 C347 1.381 . S
C349 C348 1.387 . S
C349 H375 0.931 . S
C350 C347 1.487 . S
C350 C357 1.399 . S
C350 N388 1.343 . S
C351 C352 1.384 . S
C351 C353 1.384 . S
C351 H376 0.931 . S
C352 C351 1.384 . S
C352 C355 1.382 . S
C353 C351 1.384 . S
C353 C354 1.381 . S
C353 H377 0.930 . S
C354 C353 1.381 . S
C354 C356 1.381 . S
C354 C357 1.487 . S
C355 C352 1.382 . S
C355 C356 1.387 . S
C355 H378 0.930 . S
C356 C354 1.381 . S
C356 C355 1.387 . S
C356 H379 0.931 . S
C357 C350 1.399 . S
C357 C354 1.487 . S
C357 N389 1.343 . S
C358 C359 1.384 . S
C358 C360 1.384 . S
C358 H380 0.931 . S
C359 C358 1.384 . S
C359 C362 1.382 . S
C360 C358 1.384 . S
C360 C361 1.381 . S
C360 H381 0.930 . S
C361 C360 1.381 . S
C361 C363 1.381 . S
C361 C364 1.487 . S
C362 C359 1.382 . S
C362 C363 1.387 . S
C362 H382 0.930 . S
C363 C361 1.381 . S
C363 C362 1.387 . S
C363 H383 0.931 . S
C364 C361 1.487 . S
C364 C371 1.399 . S
C364 N389 1.343 . S
C365 C366 1.384 . S
C365 C367 1.384 . S
C365 H384 0.931 . S
C366 C365 1.384 . S
C366 C369 1.382 . S
C367 C365 1.384 . S
C367 C368 1.381 . S
C367 H385 0.930 . S
C368 C367 1.381 . S
C368 C370 1.381 . S
C368 C371 1.487 . S
C369 C366 1.382 . S
C369 C370 1.387 . S
C369 H386 0.930 . S
C370 C368 1.381 . S
C370 C369 1.387 . S
C370 H387 0.931 . S
C371 C364 1.399 . S
C371 C368 1.487 . S
C371 N388 1.343 . S
H372 C344 0.931 . S
H373 C346 0.930 . S
H374 C348 0.930 . S
H375 C349 0.931 . S
H376 C351 0.931 . S
H377 C353 0.930 . S
H378 C355 0.930 . S
H379 C356 0.931 . S
H380 C358 0.931 . S
H381 C360 0.930 . S
H382 C362 0.930 . S
H383 C363 0.931 . S
H384 C365 0.931 . S
H385 C367 0.930 . S
H386 C369 0.930 . S
H387 C370 0.931 . S
N388 C350 1.343 . S
N388 C371 1.343 . S
N389 C357 1.343 . S
N389 C364 1.343 . S
C390 C391 1.384 . S
C390 C392 1.384 . S
C390 H418 0.931 . S
C391 C390 1.384 . S
C391 C394 1.382 . S
C392 C390 1.384 . S
C392 C393 1.381 . S
C392 H419 0.930 . S
C393 C392 1.381 . S
C393 C395 1.381 . S
C393 C396 1.487 . S
C394 C391 1.382 . S
C394 C395 1.387 . S
C394 H420 0.930 . S
C395 C393 1.381 . S
C395 C394 1.387 . S
C395 H421 0.931 . S
C396 C393 1.487 . S
C396 C403 1.399 . S
C396 N434 1.343 . S
C397 C398 1.384 . S
C397 C399 1.384 . S
C397 H422 0.931 . S
C398 C397 1.384 . S
C398 C401 1.382 . S
C399 C397 1.384 . S
C399 C400 1.381 . S
C399 H423 0.930 . S
C400 C399 1.381 . S
C400 C402 1.381 . S
C400 C403 1.487 . S
C401 C398 1.382 . S
C401 C402 1.387 . S
C401 H424 0.930 . S
C402 C400 1.381 . S
C402 C401 1.387 . S
C402 H425 0.931 . S
C403 C396 1.399 . S
C403 C400 1.487 . S
C403 N435 1.343 . S
C404 C405 1.384 . S
C404 C406 1.384 . S
C404 H426 0.931 . S
C405 C404 1.384 . S
C405 C408 1.382 . S
C406 C404 1.384 . S
C406 C407 1.381 . S
C406 H427 0.930 . S
C407 C406 1.381 . S
C407 C409 1.381 . S
C407 C410 1.487 . S
C408 C405 1.382 . S
C408 C409 1.387 . S
C408 H428 0.930 . S
C409 C407 1.381 . S
C409 C408 1.387 . S
C409 H429 0.931 . S
C410 C407 1.487 . S
C410 C417 1.399 . S
C410 N435 1.343 . S
C411 C412 1.384 . S
C411 C413 1.384 . S
C411 H430 0.931 . S
C412 C411 1.384 . S
C412 C415 1.382 . S
C413 C411 1.384 . S
C413 C414 1.381 . S
C413 H431 0.930 . S
C414 C413 1.381 . S
C414 C416 1.381 . S
C414 C417 1.487 . S
C415 C412 1.382 . S
C415 C416 1.387 . S
C415 H432 0.930 . S
C416 C414 1.381 . S
C416 C415 1.387 . S
C416 H433 0.931 . S
C417 C410 1.399 . S
C417 C414 1.487 . S
C417 N434 1.343 . S
H418 C390 0.931 . S
H419 C392 0.930 . S
H420 C394 0.930 . S
H421 C395 0.931 . S
H422 C397 0.931 . S
H423 C399 0.930 . S
H424 C401 0.930 . S
H425 C402 0.931 . S
H426 C404 0.931 . S
H427 C406 0.930 . S
H428 C408 0.930 . S
H429 C409 0.931 . S
H430 C411 0.931 . S
H431 C413 0.930 . S
H432 C415 0.930 . S
H433 C416 0.931 . S
N434 C396 1.343 . S
N434 C417 1.343 . S
N435 C403 1.343 . S
N435 C410 1.343 . S
C436 C437 1.384 . S
C436 C438 1.384 . S
C436 H464 0.931 . S
C437 C436 1.384 . S
C437 C440 1.382 . S
C438 C436 1.384 . S
C438 C439 1.381 . S
C438 H465 0.930 . S
C439 C438 1.381 . S
C439 C441 1.381 . S
C439 C442 1.487 . S
C440 C437 1.382 . S
C440 C441 1.387 . S
C440 H466 0.930 . S
C441 C439 1.381 . S
C441 C440 1.387 . S
C441 H467 0.931 . S
C442 C439 1.487 . S
C442 C449 1.399 . S
C442 N480 1.343 . S
C443 C444 1.384 . S
C443 C445 1.384 . S
C443 H468 0.931 . S
C444 C443 1.384 . S
C444 C447 1.382 . S
C445 C443 1.384 . S
C445 C446 1.381 . S
C445 H469 0.930 . S
C446 C445 1.381 . S
C446 C448 1.381 . S
C446 C449 1.487 . S
C447 C444 1.382 . S
C447 C448 1.387 . S
C447 H470 0.930 . S
C448 C446 1.381 . S
C448 C447 1.387 . S
C448 H471 0.931 . S
C449 C442 1.399 . S
C449 C446 1.487 . S
C449 N481 1.343 . S
C450 C451 1.384 . S
C450 C452 1.384 . S
C450 H472 0.931 . S
C451 C450 1.384 . S
C451 C454 1.382 . S
C452 C450 1.384 . S
C452 C453 1.381 . S
C452 H473 0.930 . S
C453 C452 1.381 . S
C453 C455 1.381 . S
C453 C456 1.487 . S
C454 C451 1.382 . S
C454 C455 1.387 . S
C454 H474 0.930 . S
C455 C453 1.381 . S
C455 C454 1.387 . S
C455 H475 0.931 . S
C456 C453 1.487 . S
C456 C463 1.399 . S
C456 N481 1.343 . S
C457 C458 1.384 . S
C457 C459 1.384 . S
C457 H476 0.931 . S
C458 C457 1.384 . S
C458 C461 1.382 . S
C459 C457 1.384 . S
C459 C460 1.381 . S
C459 H477 0.930 . S
C460 C459 1.381 . S
C460 C462 1.381 . S
C460 C463 1.487 . S
C461 C458 1.382 . S
C461 C462 1.387 . S
C461 H478 0.930 . S
C462 C460 1.381 . S
C462 C461 1.387 . S
C462 H479 0.931 . S
C463 C456 1.399 . S
C463 C460 1.487 . S
C463 N480 1.343 . S
H464 C436 0.931 . S
H465 C438 0.930 . S
H466 C440 0.930 . S
H467 C441 0.931 . S
H468 C443 0.931 . S
H469 C445 0.930 . S
H470 C447 0.930 . S
H471 C448 0.931 . S
H472 C450 0.931 . S
H473 C452 0.930 . S
H474 C454 0.930 . S
H475 C455 0.931 . S
H476 C457 0.931 . S
H477 C459 0.930 . S
H478 C461 0.930 . S
H479 C462 0.931 . S
N480 C442 1.343 . S
N480 C463 1.343 . S
N481 C449 1.343 . S
N481 C456 1.343 . S
C482 C483 1.384 . S
C482 C484 1.384 . S
C482 H510 0.931 . S
C483 C482 1.384 . S
C483 C486 1.382 . S
C484 C482 1.384 . S
C484 C485 1.381 . S
C484 H511 0.930 . S
C485 C484 1.381 . S
C485 C487 1.381 . S
C485 C488 1.487 . S
C486 C483 1.382 . S
C486 C487 1.387 . S
C486 H512 0.930 . S
C487 C485 1.381 . S
C487 C486 1.387 . S
C487 H513 0.931 . S
C488 C485 1.487 . S
C488 C495 1.399 . S
C488 N526 1.343 . S
C489 C490 1.384 . S
C489 C491 1.384 . S
C489 H514 0.931 . S
C490 C489 1.384 . S
C490 C493 1.382 . S
C491 C489 1.384 . S
C491 C492 1.381 . S
C491 H515 0.930 . S
C492 C491 1.381 . S
C492 C494 1.381 . S
C492 C495 1.487 . S
C493 C490 1.382 . S
C493 C494 1.387 . S
C493 H516 0.930 . S
C494 C492 1.381 . S
C494 C493 1.387 . S
C494 H517 0.931 . S
C495 C488 1.399 . S
C495 C492 1.487 . S
C495 N527 1.343 . S
C496 C497 1.384 . S
C496 C498 1.384 . S
C496 H518 0.931 . S
C497 C496 1.384 . S
C497 C500 1.382 . S
C498 C496 1.384 . S
C498 C499 1.381 . S
C498 H519 0.930 . S
C499 C498 1.381 . S
C499 C501 1.381 . S
C499 C502 1.487 . S
C500 C497 1.382 . S
C500 C501 1.387 . S
C500 H520 0.930 . S
C501 C499 1.381 . S
C501 C500 1.387 . S
C501 H521 0.931 . S
C502 C499 1.487 . S
C502 C509 1.399 . S
C502 N527 1.343 . S
C503 C504 1.384 . S
C503 C505 1.384 . S
C503 H522 0.931 . S
C504 C503 1.384 . S
C504 C507 1.382 . S
C505 C503 1.384 . S
C505 C506 1.381 . S
C505 H523 0.930 . S
C506 C505 1.381 . S
C506 C508 1.381 . S
C506 C509 1.487 . S
C507 C504 1.382 . S
C507 C508 1.387 . S
C507 H524 0.930 . S
C508 C506 1.381 . S
C508 C507 1.387 . S
C508 H525 0.931 . S
C509 C502 1.399 . S
C509 C506 1.487 . S
C509 N526 1.343 . S
H510 C482 0.931 . S
H511 C484 0.930 . S
H512 C486 0.930 . S
H513 C487 0.931 . S
H514 C489 0.931 . S
H515 C491 0.930 . S
H516 C493 0.930 . S
H517 C494 0.931 . S
H518 C496 0.931 . S
H519 C498 0.930 . S
H520 C500 0.930 . S
H521 C501 0.931 . S
H522 C503 0.931 . S
H523 C505 0.930 . S
H524 C507 0.930 . S
H525 C508 0.931 . S
N526 C488 1.343 . S
N526 C509 1.343 . S
N527 C495 1.343 . S
N527 C502 1.343 . S
C528 C529 1.384 . S
C528 C530 1.384 . S
C528 H556 0.931 . S
C529 C528 1.384 . S
C529 C532 1.382 . S
C530 C528 1.384 . S
C530 C531 1.381 . S
C530 H557 0.930 . S
C531 C530 1.381 . S
C531 C533 1.381 . S
C531 C534 1.487 . S
C532 C529 1.382 . S
C532 C533 1.387 . S
C532 H558 0.930 . S
C533 C531 1.381 . S
C533 C532 1.387 . S
C533 H559 0.931 . S
C534 C531 1.487 . S
C534 C541 1.399 . S
C534 N572 1.343 . S
C535 C536 1.384 . S
C535 C537 1.384 . S
C535 H560 0.931 . S
C536 C535 1.384 . S
C536 C539 1.382 . S
C537 C535 1.384 . S
C537 C538 1.381 . S
C537 H561 0.930 . S
C538 C537 1.381 . S
C538 C540 1.381 . S
C538 C541 1.487 . S
C539 C536 1.382 . S
C539 C540 1.387 . S
C539 H562 0.930 . S
C540 C538 1.381 . S
C540 C539 1.387 . S
C540 H563 0.931 . S
C541 C534 1.399 . S
C541 C538 1.487 . S
C541 N573 1.343 . S
C542 C543 1.384 . S
C542 C544 1.384 . S
C542 H564 0.931 . S
C543 C542 1.384 . S
C543 C546 1.382 . S
C544 C542 1.384 . S
C544 C545 1.381 . S
C544 H565 0.930 . S
C545 C544 1.381 . S
C545 C547 1.381 . S
C545 C548 1.487 . S
C546 C543 1.382 . S
C546 C547 1.387 . S
C546 H566 0.930 . S
C547 C545 1.381 . S
C547 C546 1.387 . S
C547 H567 0.931 . S
C548 C545 1.487 . S
C548 C555 1.399 . S
C548 N573 1.343 . S
C549 C550 1.384 . S
C549 C551 1.384 . S
C549 H568 0.931 . S
C550 C549 1.384 . S
C550 C553 1.382 . S
C551 C549 1.384 . S
C551 C552 1.381 . S
C551 H569 0.930 . S
C552 C551 1.381 . S
C552 C554 1.381 . S
C552 C555 1.487 . S
C553 C550 1.382 . S
C553 C554 1.387 . S
C553 H570 0.930 . S
C554 C552 1.381 . S
C554 C553 1.387 . S
C554 H571 0.931 . S
C555 C548 1.399 . S
C555 C552 1.487 . S
C555 N572 1.343 . S
H556 C528 0.931 . S
H557 C530 0.930 . S
H558 C532 0.930 . S
H559 C533 0.931 . S
H560 C535 0.931 . S
H561 C537 0.930 . S
H562 C539 0.930 . S
H563 C540 0.931 . S
H564 C542 0.931 . S
H565 C544 0.930 . S
H566 C546 0.930 . S
H567 C547 0.931 . S
H568 C549 0.931 . S
H569 C551 0.930 . S
H570 C553 0.930 . S
H571 C554 0.931 . S
N572 C534 1.343 . S
N572 C555 1.343 . S
N573 C541 1.343 . S
N573 C548 1.343 . S
C574 C575 1.384 . S
C574 C576 1.384 . S
C574 H602 0.931 . S
C575 C574 1.384 . S
C575 C578 1.382 . S
C576 C574 1.384 . S
C576 C577 1.381 . S
C576 H603 0.930 . S
C577 C576 1.381 . S
C577 C579 1.381 . S
C577 C580 1.487 . S
C578 C575 1.382 . S
C578 C579 1.387 . S
C578 H604 0.930 . S
C579 C577 1.381 . S
C579 C578 1.387 . S
C579 H605 0.931 . S
C580 C577 1.487 . S
C580 C587 1.399 . S
C580 N618 1.343 . S
C581 C582 1.384 . S
C581 C583 1.384 . S
C581 H606 0.931 . S
C582 C581 1.384 . S
C582 C585 1.382 . S
C583 C581 1.384 . S
C583 C584 1.381 . S
C583 H607 0.930 . S
C584 C583 1.381 . S
C584 C586 1.381 . S
C584 C587 1.487 . S
C585 C582 1.382 . S
C585 C586 1.387 . S
C585 H608 0.930 . S
C586 C584 1.381 . S
C586 C585 1.387 . S
C586 H609 0.931 . S
C587 C580 1.399 . S
C587 C584 1.487 . S
C587 N619 1.343 . S
C588 C589 1.384 . S
C588 C590 1.384 . S
C588 H610 0.931 . S
C589 C588 1.384 . S
C589 C592 1.382 . S
C590 C588 1.384 . S
C590 C591 1.381 . S
C590 H611 0.930 . S
C591 C590 1.381 . S
C591 C593 1.381 . S
C591 C594 1.487 . S
C592 C589 1.382 . S
C592 C593 1.387 . S
C592 H612 0.930 . S
C593 C591 1.381 . S
C593 C592 1.387 . S
C593 H613 0.931 . S
C594 C591 1.487 . S
C594 C601 1.399 . S
C594 N619 1.343 . S
C595 C596 1.384 . S
C595 C597 1.384 . S
C595 H614 0.931 . S
C596 C595 1.384 . S
C596 C599 1.382 . S
C597 C595 1.384 . S
C597 C598 1.381 . S
C597 H615 0.930 . S
C598 C597 1.381 . S
C598 C600 1.381 . S
C598 C601 1.487 . S
C599 C596 1.382 . S
C599 C600 1.387 . S
C599 H616 0.930 . S
C600 C598 1.381 . S
C600 C599 1.387 . S
C600 H617 0.931 . S
C601 C594 1.399 . S
C601 C598 1.487 . S
C601 N618 1.343 . S
H602 C574 0.931 . S
H603 C576 0.930 . S
H604 C578 0.930 . S
H605 C579 0.931 . S
H606 C581 0.931 . S
H607 C583 0.930 . S
H608 C585 0.930 . S
H609 C586 0.931 . S
H610 C588 0.931 . S
H611 C590 0.930 . S
H612 C592 0.930 . S
H613 C593 0.931 . S
H614 C595 0.931 . S
H615 C597 0.930 . S
H616 C599 0.930 . S
H617 C600 0.931 . S
N618 C580 1.343 . S
N618 C601 1.343 . S
N619 C587 1.343 . S
N619 C594 1.343 . S
C620 C621 1.384 . S
C620 C622 1.384 . S
C620 H648 0.931 . S
C621 C620 1.384 . S
C621 C624 1.382 . S
C622 C620 1.384 . S
C622 C623 1.381 . S
C622 H649 0.930 . S
C623 C622 1.381 . S
C623 C625 1.381 . S
C623 C626 1.487 . S
C624 C621 1.382 . S
C624 C625 1.387 . S
C624 H650 0.930 . S
C625 C623 1.381 . S
C625 C624 1.387 . S
C625 H651 0.931 . S
C626 C623 1.487 . S
C626 C633 1.399 . S
C626 N664 1.343 . S
C627 C628 1.384 . S
C627 C629 1.384 . S
C627 H652 0.931 . S
C628 C627 1.384 . S
C628 C631 1.382 . S
C629 C627 1.384 . S
C629 C630 1.381 . S
C629 H653 0.930 . S
C630 C629 1.381 . S
C630 C632 1.381 . S
C630 C633 1.487 . S
C631 C628 1.382 . S
C631 C632 1.387 . S
C631 H654 0.930 . S
C632 C630 1.381 . S
C632 C631 1.387 . S
C632 H655 0.931 . S
C633 C626 1.399 . S
C633 C630 1.487 . S
C633 N665 1.343 . S
C634 C635 1.384 . S
C634 C636 1.384 . S
C634 H656 0.931 . S
C635 C634 1.384 . S
C635 C638 1.382 . S
C636 C634 1.384 . S
C636 C637 1.381 . S
C636 H657 0.930 . S
C637 C636 1.381 . S
C637 C639 1.381 . S
C637 C640 1.487 . S
C638 C635 1.382 . S
C638 C639 1.387 . S
C638 H658 0.930 . S
C639 C637 1.381 . S
C639 C638 1.387 . S
C639 H659 0.931 . S
C640 C637 1.487 . S
C640 C647 1.399 . S
C640 N665 1.343 . S
C641 C642 1.384 . S
C641 C643 1.384 . S
C641 H660 0.931 . S
C642 C641 1.384 . S
C642 C645 1.382 . S
C643 C641 1.384 . S
C643 C644 1.381 . S
C643 H661 0.930 . S
C644 C643 1.381 . S
C644 C646 1.381 . S
C644 C647 1.487 . S
C645 C642 1.382 . S
C645 C646 1.387 . S
C645 H662 0.930 . S
C646 C644 1.381 . S
C646 C645 1.387 . S
C646 H663 0.931 . S
C647 C640 1.399 . S
C647 C644 1.487 . S
C647 N664 1.343 . S
H648 C620 0.931 . S
H649 C622 0.930 . S
H650 C624 0.930 . S
H651 C625 0.931 . S
H652 C627 0.931 . S
H653 C629 0.930 . S
H654 C631 0.930 . S
H655 C632 0.931 . S
H656 C634 0.931 . S
H657 C636 0.930 . S
H658 C638 0.930 . S
H659 C639 0.931 . S
H660 C641 0.931 . S
H661 C643 0.930 . S
H662 C645 0.930 . S
H663 C646 0.931 . S
N664 C626 1.343 . S
N664 C647 1.343 . S
N665 C633 1.343 . S
N665 C640 1.343 . S
C666 C667 1.384 . S
C666 C668 1.384 . S
C666 H694 0.931 . S
C667 C666 1.384 . S
C667 C670 1.382 1_655 S
C668 C666 1.384 . S
C668 C669 1.413 . S
C668 H695 0.930 . S
C669 C668 1.413 . S
C669 C671 1.365 1_655 S
C669 C672 1.470 1_655 S
C670 C667 1.382 1_455 S
C670 C671 1.387 . S
C670 H696 0.930 . S
C671 C669 1.365 1_455 S
C671 C670 1.387 . S
C671 H697 0.931 . S
C672 C669 1.470 1_455 S
C672 C679 1.399 1_455 S
C672 N710 1.346 . S
C673 C674 1.384 . S
C673 C675 1.384 . S
C673 H698 0.931 . S
C674 C673 1.384 . S
C674 C677 1.382 1_455 S
C675 C673 1.384 . S
C675 C676 1.381 . S
C675 H699 0.930 . S
C676 C675 1.381 . S
C676 C678 1.381 1_455 S
C676 C679 1.493 1_455 S
C677 C674 1.382 1_655 S
C677 C678 1.387 . S
C677 H700 0.930 . S
C678 C676 1.381 1_655 S
C678 C677 1.387 . S
C678 H701 0.931 . S
C679 C672 1.399 1_655 S
C679 C676 1.493 1_655 S
C679 N711 1.361 . S
C680 C681 1.384 . S
C680 C682 1.384 . S
C680 H702 0.931 . S
C681 C680 1.384 . S
C681 C684 1.382 1_455 S
C682 C680 1.384 . S
C682 C683 1.426 . S
C682 H703 0.930 . S
C683 C682 1.426 . S
C683 C685 1.359 1_455 S
C683 C686 1.464 . S
C684 C681 1.382 1_655 S
C684 C685 1.387 . S
C684 H704 0.930 . S
C685 C683 1.359 1_655 S
C685 C684 1.387 . S
C685 H705 0.931 . S
C686 C683 1.464 . S
C686 C693 1.398 . S
C686 N711 1.319 1_455 S
C687 C688 1.384 . S
C687 C689 1.384 . S
C687 H706 0.931 . S
C688 C687 1.384 . S
C688 C691 1.382 1_655 S
C689 C687 1.384 . S
C689 C690 1.381 1_655 S
C689 H707 0.930 . S
C690 C689 1.381 1_455 S
C690 C692 1.381 . S
C690 C693 1.499 . S
C691 C688 1.382 1_455 S
C691 C692 1.387 . S
C691 H708 0.930 . S
C692 C690 1.381 . S
C692 C691 1.387 . S
C692 H709 0.931 . S
C693 C686 1.398 . S
C693 C690 1.499 . S
C693 N710 1.331 . S
H694 C666 0.931 . S
H695 C668 0.930 . S
H696 C670 0.930 . S
H697 C671 0.931 . S
H698 C673 0.931 . S
H699 C675 0.930 . S
H700 C677 0.930 . S
H701 C678 0.931 . S
H702 C680 0.931 . S
H703 C682 0.930 . S
H704 C684 0.930 . S
H705 C685 0.931 . S
H706 C687 0.931 . S
H707 C689 0.930 . S
H708 C691 0.930 . S
H709 C692 0.931 . S
N710 C672 1.346 . S
N710 C693 1.331 . S
N711 C679 1.361 . S
N711 C686 1.319 1_655 S
C712 C713 1.384 . S
C712 C714 1.384 . S
C712 H740 0.931 . S
C713 C712 1.384 . S
C713 C716 1.382 . S
C714 C712 1.384 . S
C714 C715 1.381 . S
C714 H741 0.930 . S
C715 C714 1.381 . S
C715 C717 1.381 . S
C715 C718 1.487 . S
C716 C713 1.382 . S
C716 C717 1.387 . S
C716 H742 0.930 . S
C717 C715 1.381 . S
C717 C716 1.387 . S
C717 H743 0.931 . S
C718 C715 1.487 . S
C718 C725 1.399 . S
C718 N756 1.343 . S
C719 C720 1.384 . S
C719 C721 1.384 . S
C719 H744 0.931 . S
C720 C719 1.384 . S
C720 C723 1.382 . S
C721 C719 1.384 . S
C721 C722 1.381 . S
C721 H745 0.930 . S
C722 C721 1.381 . S
C722 C724 1.381 . S
C722 C725 1.487 . S
C723 C720 1.382 . S
C723 C724 1.387 . S
C723 H746 0.930 . S
C724 C722 1.381 . S
C724 C723 1.387 . S
C724 H747 0.931 . S
C725 C718 1.399 . S
C725 C722 1.487 . S
C725 N757 1.343 . S
C726 C727 1.384 . S
C726 C728 1.384 . S
C726 H748 0.931 . S
C727 C726 1.384 . S
C727 C730 1.382 . S
C728 C726 1.384 . S
C728 C729 1.381 . S
C728 H749 0.930 . S
C729 C728 1.381 . S
C729 C731 1.381 . S
C729 C732 1.487 . S
C730 C727 1.382 . S
C730 C731 1.387 . S
C730 H750 0.930 . S
C731 C729 1.381 . S
C731 C730 1.387 . S
C731 H751 0.931 . S
C732 C729 1.487 . S
C732 C739 1.399 . S
C732 N757 1.343 . S
C733 C734 1.384 . S
C733 C735 1.384 . S
C733 H752 0.931 . S
C734 C733 1.384 . S
C734 C737 1.382 . S
C735 C733 1.384 . S
C735 C736 1.381 . S
C735 H753 0.930 . S
C736 C735 1.381 . S
C736 C738 1.381 . S
C736 C739 1.487 . S
C737 C734 1.382 . S
C737 C738 1.387 . S
C737 H754 0.930 . S
C738 C736 1.381 . S
C738 C737 1.387 . S
C738 H755 0.931 . S
C739 C732 1.399 . S
C739 C736 1.487 . S
C739 N756 1.343 . S
H740 C712 0.931 . S
H741 C714 0.930 . S
H742 C716 0.930 . S
H743 C717 0.931 . S
H744 C719 0.931 . S
H745 C721 0.930 . S
H746 C723 0.930 . S
H747 C724 0.931 . S
H748 C726 0.931 . S
H749 C728 0.930 . S
H750 C730 0.930 . S
H751 C731 0.931 . S
H752 C733 0.931 . S
H753 C735 0.930 . S
H754 C737 0.930 . S
H755 C738 0.931 . S
N756 C718 1.343 . S
N756 C739 1.343 . S
N757 C725 1.343 . S
N757 C732 1.343 . S
C758 C759 1.384 1_545 S
C758 C760 1.384 . S
C758 H786 0.931 . S
C759 C758 1.384 1_565 S
C759 C762 1.382 . S
C760 C758 1.384 . S
C760 C761 1.381 1_545 S
C760 H787 0.930 . S
C761 C760 1.381 1_565 S
C761 C763 1.381 . S
C761 C764 1.487 . S
C762 C759 1.382 . S
C762 C763 1.387 . S
C762 H788 0.930 . S
C763 C761 1.381 . S
C763 C762 1.387 . S
C763 H789 0.931 . S
C764 C761 1.487 . S
C764 C771 1.399 1_565 S
C764 N802 1.343 . S
C765 C766 1.384 1_565 S
C765 C767 1.384 . S
C765 H790 0.931 . S
C766 C765 1.384 1_545 S
C766 C769 1.382 . S
C767 C765 1.384 . S
C767 C768 1.381 1_565 S
C767 H791 0.930 . S
C768 C767 1.381 1_545 S
C768 C770 1.381 . S
C768 C771 1.487 . S
C769 C766 1.382 . S
C769 C770 1.387 . S
C769 H792 0.930 . S
C770 C768 1.381 . S
C770 C769 1.387 . S
C770 H793 0.931 . S
C771 C764 1.399 1_545 S
C771 C768 1.487 . S
C771 N803 1.343 . S
C772 C773 1.384 1_565 S
C772 C774 1.384 . S
C772 H794 0.931 . S
C773 C772 1.384 1_545 S
C773 C776 1.382 . S
C774 C772 1.384 . S
C774 C775 1.381 1_565 S
C774 H795 0.930 . S
C775 C774 1.381 1_545 S
C775 C777 1.381 . S
C775 C778 1.487 . S
C776 C773 1.382 . S
C776 C777 1.387 . S
C776 H796 0.930 . S
C777 C775 1.381 . S
C777 C776 1.387 . S
C777 H797 0.931 . S
C778 C775 1.487 . S
C778 C785 1.399 1_545 S
C778 N803 1.343 . S
C779 C780 1.384 1_545 S
C779 C781 1.384 . S
C779 H798 0.931 . S
C780 C779 1.384 1_565 S
C780 C783 1.382 . S
C781 C779 1.384 . S
C781 C782 1.381 1_545 S
C781 H799 0.930 . S
C782 C781 1.381 1_565 S
C782 C784 1.381 . S
C782 C785 1.487 . S
C783 C780 1.382 . S
C783 C784 1.387 . S
C783 H800 0.930 . S
C784 C782 1.381 . S
C784 C783 1.387 . S
C784 H801 0.931 . S
C785 C778 1.399 1_565 S
C785 C782 1.487 . S
C785 N802 1.343 . S
H786 C758 0.931 . S
H787 C760 0.930 . S
H788 C762 0.930 . S
H789 C763 0.931 . S
H790 C765 0.931 . S
H791 C767 0.930 . S
H792 C769 0.930 . S
H793 C770 0.931 . S
H794 C772 0.931 . S
H795 C774 0.930 . S
H796 C776 0.930 . S
H797 C777 0.931 . S
H798 C779 0.931 . S
H799 C781 0.930 . S
H800 C783 0.930 . S
H801 C784 0.931 . S
N802 C764 1.343 . S
N802 C785 1.343 . S
N803 C771 1.343 . S
N803 C778 1.343 . S
C804 C805 1.384 . S
C804 C806 1.384 . S
C804 H832 0.931 . S
C805 C804 1.384 . S
C805 C808 1.382 1_545 S
C806 C804 1.384 . S
C806 C807 1.380 1_545 S
C806 H833 0.930 . S
C807 C806 1.380 1_565 S
C807 C809 1.388 . S
C807 C810 1.494 . S
C808 C805 1.382 1_565 S
C808 C809 1.387 . S
C808 H834 0.930 . S
C809 C807 1.388 . S
C809 C808 1.387 . S
C809 H835 0.931 . S
C810 C807 1.494 . S
C810 C817 1.399 1_565 S
C810 N848 1.332 . S
C811 C812 1.384 . S
C811 C813 1.384 . S
C811 H836 0.931 . S
C812 C811 1.384 . S
C812 C815 1.382 1_565 S
C813 C811 1.384 . S
C813 C814 1.424 . S
C813 H837 0.930 . S
C814 C813 1.424 . S
C814 C816 1.360 1_565 S
C814 C817 1.467 1_565 S
C815 C812 1.382 1_545 S
C815 C816 1.387 . S
C815 H838 0.930 . S
C816 C814 1.360 1_545 S
C816 C815 1.387 . S
C816 H839 0.931 . S
C817 C810 1.399 1_545 S
C817 C814 1.467 1_545 S
C817 N849 1.343 . S
C818 C819 1.384 . S
C818 C820 1.384 . S
C818 H840 0.931 . S
C819 C818 1.384 . S
C819 C822 1.382 1_565 S
C820 C818 1.384 . S
C820 C821 1.378 1_565 S
C820 H841 0.930 . S
C821 C820 1.378 1_545 S
C821 C823 1.395 . S
C821 C824 1.494 . S
C822 C819 1.382 1_545 S
C822 C823 1.387 . S
C822 H842 0.930 . S
C823 C821 1.395 . S
C823 C822 1.387 . S
C823 H843 0.931 . S
C824 C821 1.494 . S
C824 C831 1.399 . S
C824 N849 1.326 . S
C825 C826 1.384 . S
C825 C827 1.384 . S
C825 H844 0.931 . S
C826 C825 1.384 . S
C826 C829 1.382 1_545 S
C827 C825 1.384 . S
C827 C828 1.437 . S
C827 H845 0.930 . S
C828 C827 1.437 . S
C828 C830 1.354 1_545 S
C828 C831 1.461 . S
C829 C826 1.382 1_565 S
C829 C830 1.387 . S
C829 H846 0.930 . S
C830 C828 1.354 1_565 S
C830 C829 1.387 . S
C830 H847 0.931 . S
C831 C824 1.399 . S
C831 C828 1.461 . S
C831 N848 1.343 1_545 S
H832 C804 0.931 . S
H833 C806 0.930 . S
H834 C808 0.930 . S
H835 C809 0.931 . S
H836 C811 0.931 . S
H837 C813 0.930 . S
H838 C815 0.930 . S
H839 C816 0.931 . S
H840 C818 0.931 . S
H841 C820 0.930 . S
H842 C822 0.930 . S
H843 C823 0.931 . S
H844 C825 0.931 . S
H845 C827 0.930 . S
H846 C829 0.930 . S
H847 C830 0.931 . S
N848 C810 1.332 . S
N848 C831 1.343 1_565 S
N849 C817 1.343 . S
N849 C824 1.326 . S
C850 C851 1.384 . S
C850 C852 1.384 . S
C850 H878 0.931 . S
C851 C850 1.384 . S
C851 C854 1.382 1_655 S
C852 C850 1.384 . S
C852 C853 1.438 . S
C852 H879 0.930 . S
C853 C852 1.438 . S
C853 C855 1.354 1_655 S
C853 C856 1.461 . S
C854 C851 1.382 1_455 S
C854 C855 1.387 . S
C854 H880 0.930 . S
C855 C853 1.354 1_455 S
C855 C854 1.387 . S
C855 H881 0.931 . S
C856 C853 1.461 . S
C856 C863 1.399 . S
C856 N894 1.322 1_655 S
C857 C858 1.384 . S
C857 C859 1.384 . S
C857 H882 0.931 . S
C858 C857 1.384 . S
C858 C861 1.382 1_455 S
C859 C857 1.384 . S
C859 C860 1.381 . S
C859 H883 0.930 . S
C860 C859 1.381 . S
C860 C862 1.382 1_455 S
C860 C863 1.496 1_455 S
C861 C858 1.382 1_655 S
C861 C862 1.387 . S
C861 H884 0.930 . S
C862 C860 1.382 1_655 S
C862 C861 1.387 . S
C862 H885 0.931 . S
C863 C856 1.399 . S
C863 C860 1.496 1_655 S
C863 N895 1.359 . S
C864 C865 1.384 . S
C864 C866 1.384 . S
C864 H886 0.931 . S
C865 C864 1.384 . S
C865 C868 1.382 1_455 S
C866 C864 1.384 . S
C866 C867 1.425 . S
C866 H887 0.930 . S
C867 C866 1.425 . S
C867 C869 1.360 1_455 S
C867 C870 1.467 1_455 S
C868 C865 1.382 1_655 S
C868 C869 1.387 . S
C868 H888 0.930 . S
C869 C867 1.360 1_655 S
C869 C868 1.387 . S
C869 H889 0.931 . S
C870 C867 1.467 1_655 S
C870 C877 1.399 1_655 S
C870 N895 1.315 . S
C871 C872 1.384 . S
C871 C873 1.384 . S
C871 H890 0.931 . S
C872 C871 1.384 . S
C872 C875 1.382 1_655 S
C873 C871 1.384 . S
C873 C874 1.383 . S
C873 H891 0.930 . S
C874 C873 1.383 . S
C874 C876 1.375 1_655 S
C874 C877 1.496 1_655 S
C875 C872 1.382 1_455 S
C875 C876 1.387 . S
C875 H892 0.930 . S
C876 C874 1.375 1_455 S
C876 C875 1.387 . S
C876 H893 0.931 . S
C877 C870 1.399 1_455 S
C877 C874 1.496 1_455 S
C877 N894 1.359 . S
H878 C850 0.931 . S
H879 C852 0.930 . S
H880 C854 0.930 . S
H881 C855 0.931 . S
H882 C857 0.931 . S
H883 C859 0.930 . S
H884 C861 0.930 . S
H885 C862 0.931 . S
H886 C864 0.931 . S
H887 C866 0.930 . S
H888 C868 0.930 . S
H889 C869 0.931 . S
H890 C871 0.931 . S
H891 C873 0.930 . S
H892 C875 0.930 . S
H893 C876 0.931 . S
N894 C856 1.322 1_455 S
N894 C877 1.359 . S
N895 C863 1.359 . S
N895 C870 1.315 . S
C896 C897 1.384 . S
C896 C898 1.384 . S
C896 H924 0.931 . S
C897 C896 1.384 . S
C897 C900 1.382 . S
C898 C896 1.384 . S
C898 C899 1.381 . S
C898 H925 0.930 . S
C899 C898 1.381 . S
C899 C901 1.381 . S
C899 C902 1.487 . S
C900 C897 1.382 . S
C900 C901 1.387 . S
C900 H926 0.930 . S
C901 C899 1.381 . S
C901 C900 1.387 . S
C901 H927 0.931 . S
C902 C899 1.487 . S
C902 C909 1.399 . S
C902 N940 1.343 . S
C903 C904 1.384 . S
C903 C905 1.384 . S
C903 H928 0.931 . S
C904 C903 1.384 . S
C904 C907 1.382 . S
C905 C903 1.384 . S
C905 C906 1.381 . S
C905 H929 0.930 . S
C906 C905 1.381 . S
C906 C908 1.381 . S
C906 C909 1.487 . S
C907 C904 1.382 . S
C907 C908 1.387 . S
C907 H930 0.930 . S
C908 C906 1.381 . S
C908 C907 1.387 . S
C908 H931 0.931 . S
C909 C902 1.399 . S
C909 C906 1.487 . S
C909 N941 1.343 . S
C910 C911 1.384 . S
C910 C912 1.384 . S
C910 H932 0.931 . S
C911 C910 1.384 . S
C911 C914 1.382 . S
C912 C910 1.384 . S
C912 C913 1.381 . S
C912 H933 0.930 . S
C913 C912 1.381 . S
C913 C915 1.381 . S
C913 C916 1.487 . S
C914 C911 1.382 . S
C914 C915 1.387 . S
C914 H934 0.930 . S
C915 C913 1.381 . S
C915 C914 1.387 . S
C915 H935 0.931 . S
C916 C913 1.487 . S
C916 C923 1.399 . S
C916 N941 1.343 . S
C917 C918 1.384 . S
C917 C919 1.384 . S
C917 H936 0.931 . S
C918 C917 1.384 . S
C918 C921 1.382 . S
C919 C917 1.384 . S
C919 C920 1.381 . S
C919 H937 0.930 . S
C920 C919 1.381 . S
C920 C922 1.381 . S
C920 C923 1.487 . S
C921 C918 1.382 . S
C921 C922 1.387 . S
C921 H938 0.930 . S
C922 C920 1.381 . S
C922 C921 1.387 . S
C922 H939 0.931 . S
C923 C916 1.399 . S
C923 C920 1.487 . S
C923 N940 1.343 . S
H924 C896 0.931 . S
H925 C898 0.930 . S
H926 C900 0.930 . S
H927 C901 0.931 . S
H928 C903 0.931 . S
H929 C905 0.930 . S
H930 C907 0.930 . S
H931 C908 0.931 . S
H932 C910 0.931 . S
H933 C912 0.930 . S
H934 C914 0.930 . S
H935 C915 0.931 . S
H936 C917 0.931 . S
H937 C919 0.930 . S
H938 C921 0.930 . S
H939 C922 0.931 . S
N940 C902 1.343 . S
N940 C923 1.343 . S
N941 C909 1.343 . S
N941 C916 1.343 . S
C942 C943 1.384 . S
C942 C944 1.384 . S
C942 H970 0.931 . S
C943 C942 1.384 . S
C943 C946 1.382 . S
C944 C942 1.384 . S
C944 C945 1.381 . S
C944 H971 0.930 . S
C945 C944 1.381 . S
C945 C947 1.381 . S
C945 C948 1.487 . S
C946 C943 1.382 . S
C946 C947 1.387 . S
C946 H972 0.930 . S
C947 C945 1.381 . S
C947 C946 1.387 . S
C947 H973 0.931 . S
C948 C945 1.487 . S
C948 C955 1.399 . S
C948 N986 1.343 . S
C949 C950 1.384 . S
C949 C951 1.384 . S
C949 H974 0.931 . S
C950 C949 1.384 . S
C950 C953 1.382 . S
C951 C949 1.384 . S
C951 C952 1.381 . S
C951 H975 0.930 . S
C952 C951 1.381 . S
C952 C954 1.381 . S
C952 C955 1.487 . S
C953 C950 1.382 . S
C953 C954 1.387 . S
C953 H976 0.930 . S
C954 C952 1.381 . S
C954 C953 1.387 . S
C954 H977 0.931 . S
C955 C948 1.399 . S
C955 C952 1.487 . S
C955 N987 1.343 . S
C956 C957 1.384 . S
C956 C958 1.384 . S
C956 H978 0.931 . S
C957 C956 1.384 . S
C957 C960 1.382 . S
C958 C956 1.384 . S
C958 C959 1.381 . S
C958 H979 0.930 . S
C959 C958 1.381 . S
C959 C961 1.381 . S
C959 C962 1.487 . S
C960 C957 1.382 . S
C960 C961 1.387 . S
C960 H980 0.930 . S
C961 C959 1.381 . S
C961 C960 1.387 . S
C961 H981 0.931 . S
C962 C959 1.487 . S
C962 C969 1.399 . S
C962 N987 1.343 . S
C963 C964 1.384 . S
C963 C965 1.384 . S
C963 H982 0.931 . S
C964 C963 1.384 . S
C964 C967 1.382 . S
C965 C963 1.384 . S
C965 C966 1.381 . S
C965 H983 0.930 . S
C966 C965 1.381 . S
C966 C968 1.381 . S
C966 C969 1.487 . S
C967 C964 1.382 . S
C967 C968 1.387 . S
C967 H984 0.930 . S
C968 C966 1.381 . S
C968 C967 1.387 . S
C968 H985 0.931 . S
C969 C962 1.399 . S
C969 C966 1.487 . S
C969 N986 1.343 . S
H970 C942 0.931 . S
H971 C944 0.930 . S
H972 C946 0.930 . S
H973 C947 0.931 . S
H974 C949 0.931 . S
H975 C951 0.930 . S
H976 C953 0.930 . S
H977 C954 0.931 . S
H978 C956 0.931 . S
H979 C958 0.930 . S
H980 C960 0.930 . S
H981 C961 0.931 . S
H982 C963 0.931 . S
H983 C965 0.930 . S
H984 C967 0.930 . S
H985 C968 0.931 . S
N986 C948 1.343 . S
N986 C969 1.343 . S
N987 C955 1.343 . S
N987 C962 1.343 . S
C988 C989 1.384 . S
C988 C990 1.384 . S
C988 H1016 0.931 . S
C989 C988 1.384 . S
C989 C992 1.382 . S
C990 C988 1.384 . S
C990 C991 1.381 . S
C990 H1017 0.930 . S
C991 C990 1.381 . S
C991 C993 1.381 . S
C991 C994 1.487 . S
C992 C989 1.382 . S
C992 C993 1.387 . S
C992 H1018 0.930 . S
C993 C991 1.381 . S
C993 C992 1.387 . S
C993 H1019 0.931 . S
C994 C991 1.487 . S
C994 C1001 1.399 . S
C994 N1032 1.343 . S
C995 C996 1.384 . S
C995 C997 1.384 . S
C995 H1020 0.931 . S
C996 C995 1.384 . S
C996 C999 1.382 . S
C997 C995 1.384 . S
C997 C998 1.381 . S
C997 H1021 0.930 . S
C998 C997 1.381 . S
C998 C1000 1.381 . S
C998 C1001 1.487 . S
C999 C996 1.382 . S
C999 C1000 1.387 . S
C999 H1022 0.930 . S
C1000 C998 1.381 . S
C1000 C999 1.387 . S
C1000 H1023 0.931 . S
C1001 C994 1.399 . S
C1001 C998 1.487 . S
C1001 N1033 1.343 . S
C1002 C1003 1.384 . S
C1002 C1004 1.384 . S
C1002 H1024 0.931 . S
C1003 C1002 1.384 . S
C1003 C1006 1.382 . S
C1004 C1002 1.384 . S
C1004 C1005 1.381 . S
C1004 H1025 0.930 . S
C1005 C1004 1.381 . S
C1005 C1007 1.381 . S
C1005 C1008 1.487 . S
C1006 C1003 1.382 . S
C1006 C1007 1.387 . S
C1006 H1026 0.930 . S
C1007 C1005 1.381 . S
C1007 C1006 1.387 . S
C1007 H1027 0.931 . S
C1008 C1005 1.487 . S
C1008 C1015 1.399 . S
C1008 N1033 1.343 . S
C1009 C1010 1.384 . S
C1009 C1011 1.384 . S
C1009 H1028 0.931 . S
C1010 C1009 1.384 . S
C1010 C1013 1.382 . S
C1011 C1009 1.384 . S
C1011 C1012 1.381 . S
C1011 H1029 0.930 . S
C1012 C1011 1.381 . S
C1012 C1014 1.381 . S
C1012 C1015 1.487 . S
C1013 C1010 1.382 . S
C1013 C1014 1.387 . S
C1013 H1030 0.930 . S
C1014 C1012 1.381 . S
C1014 C1013 1.387 . S
C1014 H1031 0.931 . S
C1015 C1008 1.399 . S
C1015 C1012 1.487 . S
C1015 N1032 1.343 . S
H1016 C988 0.931 . S
H1017 C990 0.930 . S
H1018 C992 0.930 . S
H1019 C993 0.931 . S
H1020 C995 0.931 . S
H1021 C997 0.930 . S
H1022 C999 0.930 . S
H1023 C1000 0.931 . S
H1024 C1002 0.931 . S
H1025 C1004 0.930 . S
H1026 C1006 0.930 . S
H1027 C1007 0.931 . S
H1028 C1009 0.931 . S
H1029 C1011 0.930 . S
H1030 C1013 0.930 . S
H1031 C1014 0.931 . S
N1032 C994 1.343 . S
N1032 C1015 1.343 . S
N1033 C1001 1.343 . S
N1033 C1008 1.343 . S
C1034 C1035 1.384 . S
C1034 C1036 1.384 . S
C1034 H1062 0.931 . S
C1035 C1034 1.384 . S
C1035 C1038 1.382 . S
C1036 C1034 1.384 . S
C1036 C1037 1.381 . S
C1036 H1063 0.930 . S
C1037 C1036 1.381 . S
C1037 C1039 1.381 . S
C1037 C1040 1.487 . S
C1038 C1035 1.382 . S
C1038 C1039 1.387 . S
C1038 H1064 0.930 . S
C1039 C1037 1.381 . S
C1039 C1038 1.387 . S
C1039 H1065 0.931 . S
C1040 C1037 1.487 . S
C1040 C1047 1.399 . S
C1040 N1078 1.343 . S
C1041 C1042 1.384 . S
C1041 C1043 1.384 . S
C1041 H1066 0.931 . S
C1042 C1041 1.384 . S
C1042 C1045 1.382 . S
C1043 C1041 1.384 . S
C1043 C1044 1.381 . S
C1043 H1067 0.930 . S
C1044 C1043 1.381 . S
C1044 C1046 1.381 . S
C1044 C1047 1.487 . S
C1045 C1042 1.382 . S
C1045 C1046 1.387 . S
C1045 H1068 0.930 . S
C1046 C1044 1.381 . S
C1046 C1045 1.387 . S
C1046 H1069 0.931 . S
C1047 C1040 1.399 . S
C1047 C1044 1.487 . S
C1047 N1079 1.343 . S
C1048 C1049 1.384 . S
C1048 C1050 1.384 . S
C1048 H1070 0.931 . S
C1049 C1048 1.384 . S
C1049 C1052 1.382 . S
C1050 C1048 1.384 . S
C1050 C1051 1.381 . S
C1050 H1071 0.930 . S
C1051 C1050 1.381 . S
C1051 C1053 1.381 . S
C1051 C1054 1.487 . S
C1052 C1049 1.382 . S
C1052 C1053 1.387 . S
C1052 H1072 0.930 . S
C1053 C1051 1.381 . S
C1053 C1052 1.387 . S
C1053 H1073 0.931 . S
C1054 C1051 1.487 . S
C1054 C1061 1.399 . S
C1054 N1079 1.343 . S
C1055 C1056 1.384 . S
C1055 C1057 1.384 . S
C1055 H1074 0.931 . S
C1056 C1055 1.384 . S
C1056 C1059 1.382 . S
C1057 C1055 1.384 . S
C1057 C1058 1.381 . S
C1057 H1075 0.930 . S
C1058 C1057 1.381 . S
C1058 C1060 1.381 . S
C1058 C1061 1.487 . S
C1059 C1056 1.382 . S
C1059 C1060 1.387 . S
C1059 H1076 0.930 . S
C1060 C1058 1.381 . S
C1060 C1059 1.387 . S
C1060 H1077 0.931 . S
C1061 C1054 1.399 . S
C1061 C1058 1.487 . S
C1061 N1078 1.343 . S
H1062 C1034 0.931 . S
H1063 C1036 0.930 . S
H1064 C1038 0.930 . S
H1065 C1039 0.931 . S
H1066 C1041 0.931 . S
H1067 C1043 0.930 . S
H1068 C1045 0.930 . S
H1069 C1046 0.931 . S
H1070 C1048 0.931 . S
H1071 C1050 0.930 . S
H1072 C1052 0.930 . S
H1073 C1053 0.931 . S
H1074 C1055 0.931 . S
H1075 C1057 0.930 . S
H1076 C1059 0.930 . S
H1077 C1060 0.931 . S
N1078 C1040 1.343 . S
N1078 C1061 1.343 . S
N1079 C1047 1.343 . S
N1079 C1054 1.343 . S
C1080 C1081 1.387 . S
C1080 H1084 0.950 . S
C1080 C1089 1.390 . S
C1081 C1080 1.387 . S
C1081 C1083 1.387 1_655 S
H1082 C1089 0.950 . S
C1083 C1081 1.387 1_455 S
C1083 C1085 1.390 . S
C1083 H1087 0.950 . S
H1084 C1080 0.950 . S
C1085 C1083 1.390 . S
C1085 C1086 1.387 1_455 S
C1085 H1088 0.950 . S
C1086 C1085 1.387 1_655 S
C1086 C1089 1.387 . S
H1087 C1083 0.950 . S
H1088 C1085 0.950 . S
C1089 C1080 1.390 . S
C1089 H1082 0.950 . S
C1089 C1086 1.387 . S
C1090 C1091 1.387 . S
C1090 H1094 0.950 . S
C1090 C1099 1.390 . S
C1091 C1090 1.387 . S
C1091 C1093 1.387 . S
H1092 C1099 0.950 . S
C1093 C1091 1.387 . S
C1093 C1095 1.390 . S
C1093 H1097 0.950 . S
H1094 C1090 0.950 . S
C1095 C1093 1.390 . S
C1095 C1096 1.387 . S
C1095 H1098 0.950 . S
C1096 C1095 1.387 . S
C1096 C1099 1.387 . S
H1097 C1093 0.950 . S
H1098 C1095 0.950 . S
C1099 C1090 1.390 . S
C1099 H1092 0.950 . S
C1099 C1096 1.387 . S
C1100 C1101 1.387 . S
C1100 H1104 0.950 . S
C1100 C1109 1.390 . S
C1101 C1100 1.387 . S
C1101 C1103 1.387 . S
H1102 C1109 0.950 . S
C1103 C1101 1.387 . S
C1103 C1105 1.390 . S
C1103 H1107 0.950 . S
H1104 C1100 0.950 . S
C1105 C1103 1.390 . S
C1105 C1106 1.387 . S
C1105 H1108 0.950 1_545 S
C1106 C1105 1.387 . S
C1106 C1109 1.387 . S
H1107 C1103 0.950 . S
H1108 C1105 0.950 1_565 S
C1109 C1100 1.390 . S
C1109 H1102 0.950 . S
C1109 C1106 1.387 . S
C1110 C1111 1.387 1_545 S
C1110 H1114 0.950 . S
C1110 C1119 1.390 . S
C1111 C1110 1.387 1_565 S
C1111 C1113 1.387 . S
H1112 C1119 0.950 . S
C1113 C1111 1.387 . S
C1113 C1115 1.390 . S
C1113 H1117 0.950 . S
H1114 C1110 0.950 . S
C1115 C1113 1.390 . S
C1115 C1116 1.387 . S
C1115 H1118 0.950 . S
C1116 C1115 1.387 . S
C1116 C1119 1.387 1_565 S
H1117 C1113 0.950 . S
H1118 C1115 0.950 . S
C1119 C1110 1.390 . S
C1119 H1112 0.950 . S
C1119 C1116 1.387 1_545 S
C1120 C1121 1.387 . S
C1120 H1124 0.950 . S
C1120 C1129 1.390 . S
C1121 C1120 1.387 . S
C1121 C1123 1.387 1_455 S
H1122 C1129 0.950 . S
C1123 C1121 1.387 1_655 S
C1123 C1125 1.390 . S
C1123 H1127 0.950 . S
H1124 C1120 0.950 . S
C1125 C1123 1.390 . S
C1125 C1126 1.387 1_655 S
C1125 H1128 0.950 . S
C1126 C1125 1.387 1_455 S
C1126 C1129 1.387 . S
H1127 C1123 0.950 . S
H1128 C1125 0.950 . S
C1129 C1120 1.390 . S
C1129 H1122 0.950 . S
C1129 C1126 1.387 . S
C1130 C1131 1.387 . S
C1130 H1134 0.950 . S
C1130 C1139 1.390 . S
C1131 C1130 1.387 . S
C1131 C1133 1.387 . S
H1132 C1139 0.950 . S
C1133 C1131 1.387 . S
C1133 C1135 1.390 . S
C1133 H1137 0.950 . S
H1134 C1130 0.950 . S
C1135 C1133 1.390 . S
C1135 C1136 1.387 . S
C1135 H1138 0.950 . S
C1136 C1135 1.387 . S
C1136 C1139 1.387 . S
H1137 C1133 0.950 . S
H1138 C1135 0.950 . S
C1139 C1130 1.390 . S
C1139 H1132 0.950 . S
C1139 C1136 1.387 . S
C1140 C1141 1.387 1_655 S
C1140 H1144 0.950 . S
C1140 C1149 1.390 . S
C1141 C1140 1.387 1_455 S
C1141 C1143 1.387 . S
H1142 C1149 0.950 . S
C1143 C1141 1.387 . S
C1143 C1145 1.390 . S
C1143 H1147 0.950 . S
H1144 C1140 0.950 . S
C1145 C1143 1.390 . S
C1145 C1146 1.387 . S
C1145 H1148 0.950 . S
C1146 C1145 1.387 . S
C1146 C1149 1.387 1_455 S
H1147 C1143 0.950 . S
H1148 C1145 0.950 . S
C1149 C1140 1.390 . S
C1149 H1142 0.950 . S
C1149 C1146 1.387 1_655 S
C1150 C1151 1.387 . S
C1150 H1154 0.950 . S
C1150 C1159 1.390 . S
C1151 C1150 1.387 . S
C1151 C1153 1.387 . S
H1152 C1159 0.950 . S
C1153 C1151 1.387 . S
C1153 C1155 1.390 . S
C1153 H1157 0.950 . S
H1154 C1150 0.950 . S
C1155 C1153 1.390 . S
C1155 C1156 1.387 . S
C1155 H1158 0.950 . S
C1156 C1155 1.387 . S
C1156 C1159 1.387 . S
H1157 C1153 0.950 . S
H1158 C1155 0.950 . S
C1159 C1150 1.390 . S
C1159 H1152 0.950 . S
C1159 C1156 1.387 . S
C1160 C1161 1.387 1_545 S
C1160 H1164 0.950 . S
C1160 C1169 1.390 . S
C1161 C1160 1.387 1_565 S
C1161 C1163 1.387 . S
H1162 C1169 0.950 . S
C1163 C1161 1.387 . S
C1163 C1165 1.390 . S
C1163 H1167 0.950 . S
H1164 C1160 0.950 . S
C1165 C1163 1.390 . S
C1165 C1166 1.387 . S
C1165 H1168 0.950 . S
C1166 C1165 1.387 . S
C1166 C1169 1.387 1_565 S
H1167 C1163 0.950 . S
H1168 C1165 0.950 . S
C1169 C1160 1.390 . S
C1169 H1162 0.950 . S
C1169 C1166 1.387 1_545 S
C1170 C1171 1.387 1_565 S
C1170 H1174 0.950 . S
C1170 C1179 1.390 . S
C1171 C1170 1.387 1_545 S
C1171 C1173 1.387 . S
H1172 C1179 0.950 . S
C1173 C1171 1.387 . S
C1173 C1175 1.390 . S
C1173 H1177 0.950 . S
H1174 C1170 0.950 . S
C1175 C1173 1.390 . S
C1175 C1176 1.387 . S
C1175 H1178 0.950 . S
C1176 C1175 1.387 . S
C1176 C1179 1.387 1_545 S
H1177 C1173 0.950 . S
H1178 C1175 0.950 . S
C1179 C1170 1.390 . S
C1179 H1172 0.950 . S
C1179 C1176 1.387 1_565 S
C1180 C1181 1.387 . S
C1180 H1184 0.950 . S
C1180 C1189 1.390 . S
C1181 C1180 1.387 . S
C1181 C1183 1.387 1_655 S
H1182 C1189 0.950 . S
C1183 C1181 1.387 1_455 S
C1183 C1185 1.390 . S
C1183 H1187 0.950 . S
H1184 C1180 0.950 . S
C1185 C1183 1.390 . S
C1185 C1186 1.387 1_455 S
C1185 H1188 0.950 . S
C1186 C1185 1.387 1_655 S
C1186 C1189 1.387 . S
H1187 C1183 0.950 . S
H1188 C1185 0.950 . S
C1189 C1180 1.390 . S
C1189 H1182 0.950 . S
C1189 C1186 1.387 . S
C1190 C1191 1.387 . S
C1190 H1194 0.950 . S
C1190 C1199 1.390 . S
C1191 C1190 1.387 . S
C1191 C1193 1.387 . S
H1192 C1199 0.950 . S
C1193 C1191 1.387 . S
C1193 C1195 1.390 . S
C1193 H1197 0.950 . S
H1194 C1190 0.950 . S
C1195 C1193 1.390 . S
C1195 C1196 1.387 . S
C1195 H1198 0.950 . S
C1196 C1195 1.387 . S
C1196 C1199 1.387 . S
H1197 C1193 0.950 . S
H1198 C1195 0.950 . S
C1199 C1190 1.390 . S
C1199 H1192 0.950 . S
C1199 C1196 1.387 . S
C1200 C1201 1.387 . S
C1200 H1204 0.950 . S
C1200 C1209 1.390 . S
C1201 C1200 1.387 . S
C1201 C1203 1.387 . S
H1202 C1209 0.950 . S
C1203 C1201 1.387 . S
C1203 C1205 1.390 . S
C1203 H1207 0.950 . S
H1204 C1200 0.950 . S
C1205 C1203 1.390 . S
C1205 C1206 1.387 . S
C1205 H1208 0.950 . S
C1206 C1205 1.387 . S
C1206 C1209 1.387 . S
H1207 C1203 0.950 . S
H1208 C1205 0.950 . S
C1209 C1200 1.390 . S
C1209 H1202 0.950 . S
C1209 C1206 1.387 . S
C1210 C1211 1.387 . S
C1210 H1214 0.950 . S
C1210 C1219 1.390 . S
C1211 C1210 1.387 . S
C1211 C1213 1.387 . S
H1212 C1219 0.950 . S
C1213 C1211 1.387 . S
C1213 C1215 1.390 . S
C1213 H1217 0.950 . S
H1214 C1210 0.950 . S
C1215 C1213 1.390 . S
C1215 C1216 1.387 . S
C1215 H1218 0.950 . S
C1216 C1215 1.387 . S
C1216 C1219 1.387 . S
H1217 C1213 0.950 . S
H1218 C1215 0.950 . S
C1219 C1210 1.390 . S
C1219 H1212 0.950 . S
C1219 C1216 1.387 . S
C1220 C1221 1.387 . S
C1220 H1224 0.950 . S
C1220 C1229 1.390 . S
C1221 C1220 1.387 . S
C1221 C1223 1.387 . S
H1222 C1229 0.950 . S
C1223 C1221 1.387 . S
C1223 C1225 1.390 . S
C1223 H1227 0.950 . S
H1224 C1220 0.950 . S
C1225 C1223 1.390 . S
C1225 C1226 1.387 . S
C1225 H1228 0.950 . S
C1226 C1225 1.387 . S
C1226 C1229 1.387 . S
H1227 C1223 0.950 . S
H1228 C1225 0.950 . S
C1229 C1220 1.390 . S
C1229 H1222 0.950 . S
C1229 C1226 1.387 . S
C1230 C1231 1.387 . S
C1230 H1234 0.950 . S
C1230 C1239 1.390 . S
C1231 C1230 1.387 . S
C1231 C1233 1.387 . S
H1232 C1239 0.950 . S
C1233 C1231 1.387 . S
C1233 C1235 1.390 . S
C1233 H1237 0.950 . S
H1234 C1230 0.950 . S
C1235 C1233 1.390 . S
C1235 C1236 1.387 . S
C1235 H1238 0.950 . S
C1236 C1235 1.387 . S
C1236 C1239 1.387 . S
H1237 C1233 0.950 . S
H1238 C1235 0.950 . S
C1239 C1230 1.390 . S
C1239 H1232 0.950 . S
C1239 C1236 1.387 . S
C1240 C1241 1.387 . S
C1240 H1244 0.950 . S
C1240 C1249 1.390 . S
C1241 C1240 1.387 . S
C1241 C1243 1.387 . S
H1242 C1249 0.950 . S
C1243 C1241 1.387 . S
C1243 C1245 1.390 . S
C1243 H1247 0.950 . S
H1244 C1240 0.950 . S
C1245 C1243 1.390 . S
C1245 C1246 1.387 . S
C1245 H1248 0.950 . S
C1246 C1245 1.387 . S
C1246 C1249 1.387 . S
H1247 C1243 0.950 . S
H1248 C1245 0.950 . S
C1249 C1240 1.390 . S
C1249 H1242 0.950 . S
C1249 C1246 1.387 . S
C1250 C1251 1.387 . S
C1250 H1254 0.950 . S
C1250 C1259 1.390 . S
C1251 C1250 1.387 . S
C1251 C1253 1.387 . S
H1252 C1259 0.950 . S
C1253 C1251 1.387 . S
C1253 C1255 1.390 . S
C1253 H1257 0.950 . S
H1254 C1250 0.950 . S
C1255 C1253 1.390 . S
C1255 C1256 1.387 . S
C1255 H1258 0.950 . S
C1256 C1255 1.387 . S
C1256 C1259 1.387 . S
H1257 C1253 0.950 . S
H1258 C1255 0.950 . S
C1259 C1250 1.390 . S
C1259 H1252 0.950 . S
C1259 C1256 1.387 . S
C1260 C1261 1.387 . S
C1260 H1264 0.950 . S
C1260 C1269 1.390 . S
C1261 C1260 1.387 . S
C1261 C1263 1.387 . S
H1262 C1269 0.950 . S
C1263 C1261 1.387 . S
C1263 C1265 1.390 . S
C1263 H1267 0.950 . S
H1264 C1260 0.950 . S
C1265 C1263 1.390 . S
C1265 C1266 1.387 . S
C1265 H1268 0.950 . S
C1266 C1265 1.387 . S
C1266 C1269 1.387 . S
H1267 C1263 0.950 . S
H1268 C1265 0.950 . S
C1269 C1260 1.390 . S
C1269 H1262 0.950 . S
C1269 C1266 1.387 . S
C1270 C1271 1.387 . S
C1270 H1274 0.950 . S
C1270 C1279 1.390 . S
C1271 C1270 1.387 . S
C1271 C1273 1.387 . S
H1272 C1279 0.950 . S
C1273 C1271 1.387 . S
C1273 C1275 1.390 . S
C1273 H1277 0.950 . S
H1274 C1270 0.950 . S
C1275 C1273 1.390 . S
C1275 C1276 1.387 . S
C1275 H1278 0.950 . S
C1276 C1275 1.387 . S
C1276 C1279 1.387 . S
H1277 C1273 0.950 . S
H1278 C1275 0.950 . S
C1279 C1270 1.390 . S
C1279 H1272 0.950 . S
C1279 C1276 1.387 . S
C1280 C1281 1.387 . S
C1280 H1284 0.950 . S
C1280 C1289 1.390 . S
C1281 C1280 1.387 . S
C1281 C1283 1.387 . S
H1282 C1289 0.950 . S
C1283 C1281 1.387 . S
C1283 C1285 1.390 . S
C1283 H1287 0.950 . S
H1284 C1280 0.950 . S
C1285 C1283 1.390 . S
C1285 C1286 1.387 . S
C1285 H1288 0.950 . S
C1286 C1285 1.387 . S
C1286 C1289 1.387 . S
H1287 C1283 0.950 . S
H1288 C1285 0.950 . S
C1289 C1280 1.390 . S
C1289 H1282 0.950 . S
C1289 C1286 1.387 . S
C1290 C1291 1.387 . S
C1290 H1294 0.950 . S
C1290 C1299 1.390 . S
C1291 C1290 1.387 . S
C1291 C1293 1.387 . S
H1292 C1299 0.950 . S
C1293 C1291 1.387 . S
C1293 C1295 1.390 . S
C1293 H1297 0.950 . S
H1294 C1290 0.950 . S
C1295 C1293 1.390 . S
C1295 C1296 1.387 . S
C1295 H1298 0.950 . S
C1296 C1295 1.387 . S
C1296 C1299 1.387 . S
H1297 C1293 0.950 . S
H1298 C1295 0.950 . S
C1299 C1290 1.390 . S
C1299 H1292 0.950 . S
C1299 C1296 1.387 . S
C1300 C1301 1.387 . S
C1300 H1304 0.950 . S
C1300 C1309 1.390 . S
C1301 C1300 1.387 . S
C1301 C1303 1.387 . S
H1302 C1309 0.950 . S
C1303 C1301 1.387 . S
C1303 C1305 1.390 . S
C1303 H1307 0.950 . S
H1304 C1300 0.950 . S
C1305 C1303 1.390 . S
C1305 C1306 1.387 . S
C1305 H1308 0.950 . S
C1306 C1305 1.387 . S
C1306 C1309 1.387 . S
H1307 C1303 0.950 . S
H1308 C1305 0.950 . S
C1309 C1300 1.390 . S
C1309 H1302 0.950 . S
C1309 C1306 1.387 . S
C1310 C1311 1.387 . S
C1310 H1314 0.950 . S
C1310 C1319 1.390 . S
C1311 C1310 1.387 . S
C1311 C1313 1.387 . S
H1312 C1319 0.950 . S
C1313 C1311 1.387 . S
C1313 C1315 1.390 . S
C1313 H1317 0.950 . S
H1314 C1310 0.950 . S
C1315 C1313 1.390 . S
C1315 C1316 1.387 . S
C1315 H1318 0.950 . S
C1316 C1315 1.387 . S
C1316 C1319 1.387 . S
H1317 C1313 0.950 . S
H1318 C1315 0.950 . S
C1319 C1310 1.390 . S
C1319 H1312 0.950 . S
C1319 C1316 1.387 . S
C1320 C1321 1.387 . S
C1320 H1324 0.950 . S
C1320 C1329 1.390 . S
C1321 C1320 1.387 . S
C1321 C1323 1.387 . S
H1322 C1329 0.950 . S
C1323 C1321 1.387 . S
C1323 C1325 1.390 . S
C1323 H1327 0.950 . S
H1324 C1320 0.950 . S
C1325 C1323 1.390 . S
C1325 C1326 1.387 . S
C1325 H1328 0.950 . S
C1326 C1325 1.387 . S
C1326 C1329 1.387 . S
H1327 C1323 0.950 . S
H1328 C1325 0.950 . S
C1329 C1320 1.390 . S
C1329 H1322 0.950 . S
C1329 C1326 1.387 . S
C1330 C1331 1.387 . S
C1330 H1334 0.950 . S
C1330 C1339 1.390 . S
C1331 C1330 1.387 . S
C1331 C1333 1.387 . S
H1332 C1339 0.950 . S
C1333 C1331 1.387 . S
C1333 C1335 1.390 . S
C1333 H1337 0.950 . S
H1334 C1330 0.950 . S
C1335 C1333 1.390 . S
C1335 C1336 1.387 . S
C1335 H1338 0.950 . S
C1336 C1335 1.387 . S
C1336 C1339 1.387 . S
H1337 C1333 0.950 . S
H1338 C1335 0.950 . S
C1339 C1330 1.390 . S
C1339 H1332 0.950 . S
C1339 C1336 1.387 . S
C1340 C1341 1.387 . S
C1340 H1344 0.950 . S
C1340 C1349 1.390 . S
C1341 C1340 1.387 . S
C1341 C1343 1.387 . S
H1342 C1349 0.950 . S
C1343 C1341 1.387 . S
C1343 C1345 1.390 . S
C1343 H1347 0.950 . S
H1344 C1340 0.950 . S
C1345 C1343 1.390 . S
C1345 C1346 1.387 . S
C1345 H1348 0.950 . S
C1346 C1345 1.387 . S
C1346 C1349 1.387 . S
H1347 C1343 0.950 . S
H1348 C1345 0.950 . S
C1349 C1340 1.390 . S
C1349 H1342 0.950 . S
C1349 C1346 1.387 . S
C1350 C1351 1.387 . S
C1350 H1354 0.950 . S
C1350 C1359 1.390 . S
C1351 C1350 1.387 . S
C1351 C1353 1.387 . S
H1352 C1359 0.950 . S
C1353 C1351 1.387 . S
C1353 C1355 1.390 . S
C1353 H1357 0.950 . S
H1354 C1350 0.950 . S
C1355 C1353 1.390 . S
C1355 C1356 1.387 . S
C1355 H1358 0.950 . S
C1356 C1355 1.387 . S
C1356 C1359 1.387 . S
H1357 C1353 0.950 . S
H1358 C1355 0.950 . S
C1359 C1350 1.390 . S
C1359 H1352 0.950 . S
C1359 C1356 1.387 . S
C1360 C1361 1.387 . S
C1360 H1364 0.950 . S
C1360 C1369 1.390 . S
C1361 C1360 1.387 . S
C1361 C1363 1.387 . S
H1362 C1369 0.950 . S
C1363 C1361 1.387 . S
C1363 C1365 1.390 . S
C1363 H1367 0.950 . S
H1364 C1360 0.950 . S
C1365 C1363 1.390 . S
C1365 C1366 1.387 . S
C1365 H1368 0.950 . S
C1366 C1365 1.387 . S
C1366 C1369 1.387 . S
H1367 C1363 0.950 . S
H1368 C1365 0.950 . S
C1369 C1360 1.390 . S
C1369 H1362 0.950 . S
C1369 C1366 1.387 . S
C1370 C1371 1.387 . S
C1370 H1374 0.950 . S
C1370 C1379 1.390 . S
C1371 C1370 1.387 . S
C1371 C1373 1.387 . S
H1372 C1379 0.950 . S
C1373 C1371 1.387 . S
C1373 C1375 1.390 . S
C1373 H1377 0.950 . S
H1374 C1370 0.950 . S
C1375 C1373 1.390 . S
C1375 C1376 1.387 . S
C1375 H1378 0.950 . S
C1376 C1375 1.387 . S
C1376 C1379 1.387 . S
H1377 C1373 0.950 . S
H1378 C1375 0.950 . S
C1379 C1370 1.390 . S
C1379 H1372 0.950 . S
C1379 C1376 1.387 . S
C1380 C1381 1.387 . S
C1380 H1384 0.950 . S
C1380 C1389 1.390 . S
C1381 C1380 1.387 . S
C1381 C1383 1.387 . S
H1382 C1389 0.950 . S
C1383 C1381 1.387 . S
C1383 C1385 1.390 . S
C1383 H1387 0.950 . S
H1384 C1380 0.950 . S
C1385 C1383 1.390 . S
C1385 C1386 1.387 . S
C1385 H1388 0.950 . S
C1386 C1385 1.387 . S
C1386 C1389 1.387 . S
H1387 C1383 0.950 . S
H1388 C1385 0.950 . S
C1389 C1380 1.390 . S
C1389 H1382 0.950 . S
C1389 C1386 1.387 . S
C1390 C1391 1.387 . S
C1390 H1394 0.950 . S
C1390 C1399 1.390 . S
C1391 C1390 1.387 . S
C1391 C1393 1.387 . S
H1392 C1399 0.950 . S
C1393 C1391 1.387 . S
C1393 C1395 1.390 . S
C1393 H1397 0.950 . S
H1394 C1390 0.950 . S
C1395 C1393 1.390 . S
C1395 C1396 1.387 . S
C1395 H1398 0.950 . S
C1396 C1395 1.387 . S
C1396 C1399 1.387 . S
H1397 C1393 0.950 . S
H1398 C1395 0.950 . S
C1399 C1390 1.390 . S
C1399 H1392 0.950 . S
C1399 C1396 1.387 . S
C1400 C1401 1.387 . S
C1400 H1404 0.950 . S
C1400 C1409 1.390 . S
C1401 C1400 1.387 . S
C1401 C1403 1.387 . S
H1402 C1409 0.950 . S
C1403 C1401 1.387 . S
C1403 C1405 1.390 . S
C1403 H1407 0.950 . S
H1404 C1400 0.950 . S
C1405 C1403 1.390 . S
C1405 C1406 1.387 . S
C1405 H1408 0.950 . S
C1406 C1405 1.387 . S
C1406 C1409 1.387 . S
H1407 C1403 0.950 . S
H1408 C1405 0.950 . S
C1409 C1400 1.390 . S
C1409 H1402 0.950 . S
C1409 C1406 1.387 . S
C1410 C1411 1.387 . S
C1410 H1414 0.950 . S
C1410 C1419 1.390 . S
C1411 C1410 1.387 . S
C1411 C1413 1.387 . S
H1412 C1419 0.950 . S
C1413 C1411 1.387 . S
C1413 C1415 1.390 . S
C1413 H1417 0.950 . S
H1414 C1410 0.950 . S
C1415 C1413 1.390 . S
C1415 C1416 1.387 . S
C1415 H1418 0.950 . S
C1416 C1415 1.387 . S
C1416 C1419 1.387 . S
H1417 C1413 0.950 . S
H1418 C1415 0.950 . S
C1419 C1410 1.390 . S
C1419 H1412 0.950 . S
C1419 C1416 1.387 . S
C1420 C1421 1.387 . S
C1420 H1424 0.950 . S
C1420 C1429 1.390 . S
C1421 C1420 1.387 . S
C1421 C1423 1.387 . S
H1422 C1429 0.950 . S
C1423 C1421 1.387 . S
C1423 C1425 1.390 . S
C1423 H1427 0.950 . S
H1424 C1420 0.950 . S
C1425 C1423 1.390 . S
C1425 C1426 1.387 . S
C1425 H1428 0.950 . S
C1426 C1425 1.387 . S
C1426 C1429 1.387 . S
H1427 C1423 0.950 . S
H1428 C1425 0.950 . S
C1429 C1420 1.390 . S
C1429 H1422 0.950 . S
C1429 C1426 1.387 . S
C1430 C1431 1.387 . S
C1430 H1434 0.950 . S
C1430 C1439 1.390 . S
C1431 C1430 1.387 . S
C1431 C1433 1.387 . S
H1432 C1439 0.950 . S
C1433 C1431 1.387 . S
C1433 C1435 1.390 . S
C1433 H1437 0.950 . S
H1434 C1430 0.950 . S
C1435 C1433 1.390 . S
C1435 C1436 1.387 . S
C1435 H1438 0.950 . S
C1436 C1435 1.387 . S
C1436 C1439 1.387 . S
H1437 C1433 0.950 . S
H1438 C1435 0.950 . S
C1439 C1430 1.390 . S
C1439 H1432 0.950 . S
C1439 C1436 1.387 . S
C1440 C1441 1.387 . S
C1440 H1444 0.950 . S
C1440 C1449 1.390 . S
C1441 C1440 1.387 . S
C1441 C1443 1.387 . S
H1442 C1449 0.950 . S
C1443 C1441 1.387 . S
C1443 C1445 1.390 . S
C1443 H1447 0.950 . S
H1444 C1440 0.950 . S
C1445 C1443 1.390 . S
C1445 C1446 1.387 . S
C1445 H1448 0.950 . S
C1446 C1445 1.387 . S
C1446 C1449 1.387 . S
H1447 C1443 0.950 . S
H1448 C1445 0.950 . S
C1449 C1440 1.390 . S
C1449 H1442 0.950 . S
C1449 C1446 1.387 . S
C1450 C1451 1.387 . S
C1450 H1454 0.950 . S
C1450 C1459 1.390 . S
C1451 C1450 1.387 . S
C1451 C1453 1.387 . S
H1452 C1459 0.950 . S
C1453 C1451 1.387 . S
C1453 C1455 1.390 . S
C1453 H1457 0.950 . S
H1454 C1450 0.950 . S
C1455 C1453 1.390 . S
C1455 C1456 1.387 . S
C1455 H1458 0.950 . S
C1456 C1455 1.387 . S
C1456 C1459 1.387 . S
H1457 C1453 0.950 . S
H1458 C1455 0.950 . S
C1459 C1450 1.390 . S
C1459 H1452 0.950 . S
C1459 C1456 1.387 . S
C1460 C1461 1.387 . S
C1460 H1464 0.950 . S
C1460 C1469 1.390 . S
C1461 C1460 1.387 . S
C1461 C1463 1.387 . S
H1462 C1469 0.950 . S
C1463 C1461 1.387 . S
C1463 C1465 1.390 . S
C1463 H1467 0.950 . S
H1464 C1460 0.950 . S
C1465 C1463 1.390 . S
C1465 C1466 1.387 . S
C1465 H1468 0.950 . S
C1466 C1465 1.387 . S
C1466 C1469 1.387 . S
H1467 C1463 0.950 . S
H1468 C1465 0.950 . S
C1469 C1460 1.390 . S
C1469 H1462 0.950 . S
C1469 C1466 1.387 . S
C1470 C1471 1.387 . S
C1470 H1474 0.950 . S
C1470 C1479 1.390 . S
C1471 C1470 1.387 . S
C1471 C1473 1.387 . S
H1472 C1479 0.950 . S
C1473 C1471 1.387 . S
C1473 C1475 1.390 . S
C1473 H1477 0.950 . S
H1474 C1470 0.950 . S
C1475 C1473 1.390 . S
C1475 C1476 1.387 . S
C1475 H1478 0.950 . S
C1476 C1475 1.387 . S
C1476 C1479 1.387 . S
H1477 C1473 0.950 . S
H1478 C1475 0.950 . S
C1479 C1470 1.390 . S
C1479 H1472 0.950 . S
C1479 C1476 1.387 . S
C1480 C1481 1.387 . S
C1480 H1484 0.950 . S
C1480 C1489 1.390 . S
C1481 C1480 1.387 . S
C1481 C1483 1.387 . S
H1482 C1489 0.950 . S
C1483 C1481 1.387 . S
C1483 C1485 1.390 . S
C1483 H1487 0.950 . S
H1484 C1480 0.950 . S
C1485 C1483 1.390 . S
C1485 C1486 1.387 . S
C1485 H1488 0.950 . S
C1486 C1485 1.387 . S
C1486 C1489 1.387 . S
H1487 C1483 0.950 . S
H1488 C1485 0.950 . S
C1489 C1480 1.390 . S
C1489 H1482 0.950 . S
C1489 C1486 1.387 . S
C1490 C1491 1.387 . S
C1490 H1494 0.950 . S
C1490 C1499 1.390 . S
C1491 C1490 1.387 . S
C1491 C1493 1.387 . S
H1492 C1499 0.950 . S
C1493 C1491 1.387 . S
C1493 C1495 1.390 . S
C1493 H1497 0.950 1_556 S
H1494 C1490 0.950 . S
C1495 C1493 1.390 . S
C1495 C1496 1.387 . S
C1495 H1498 0.950 . S
C1496 C1495 1.387 . S
C1496 C1499 1.387 . S
H1497 C1493 0.950 1_554 S
H1498 C1495 0.950 . S
C1499 C1490 1.390 . S
C1499 H1492 0.950 . S
C1499 C1496 1.387 . S
C1500 C1501 1.387 . S
C1500 H1504 0.950 . S
C1500 C1509 1.390 . S
C1501 C1500 1.387 . S
C1501 C1503 1.387 . S
H1502 C1509 0.950 . S
C1503 C1501 1.387 . S
C1503 C1505 1.390 . S
C1503 H1507 0.950 . S
H1504 C1500 0.950 . S
C1505 C1503 1.390 . S
C1505 C1506 1.387 . S
C1505 H1508 0.950 . S
C1506 C1505 1.387 . S
C1506 C1509 1.387 . S
H1507 C1503 0.950 . S
H1508 C1505 0.950 . S
C1509 C1500 1.390 . S
C1509 H1502 0.950 . S
C1509 C1506 1.387 . S
C1510 C1511 1.387 . S
C1510 H1514 0.952 1_556 S
C1510 C1519 1.390 . S
C1511 C1510 1.387 . S
C1511 C1513 1.387 . S
H1512 C1519 0.950 . S
C1513 C1511 1.387 . S
C1513 C1515 1.390 . S
C1513 H1517 0.950 . S
H1514 C1510 0.952 1_554 S
C1515 C1513 1.390 . S
C1515 C1516 1.387 . S
C1515 H1518 0.950 . S
C1516 C1515 1.387 . S
C1516 C1519 1.387 . S
H1517 C1513 0.950 . S
H1518 C1515 0.950 . S
C1519 C1510 1.390 . S
C1519 H1512 0.950 . S
C1519 C1516 1.387 . S
C1520 C1521 1.387 . S
C1520 H1524 0.950 . S
C1520 C1529 1.390 . S
C1521 C1520 1.387 . S
C1521 C1523 1.387 . S
H1522 C1529 0.950 . S
C1523 C1521 1.387 . S
C1523 C1525 1.390 . S
C1523 H1527 0.950 1_556 S
H1524 C1520 0.950 . S
C1525 C1523 1.390 . S
C1525 C1526 1.387 . S
C1525 H1528 0.950 . S
C1526 C1525 1.387 . S
C1526 C1529 1.387 . S
H1527 C1523 0.950 1_554 S
H1528 C1525 0.950 . S
C1529 C1520 1.390 . S
C1529 H1522 0.950 . S
C1529 C1526 1.387 . S
C1530 C1531 1.387 . S
C1530 H1534 0.950 . S
C1530 C1539 1.390 . S
C1531 C1530 1.387 . S
C1531 C1533 1.387 . S
H1532 C1539 0.950 . S
C1533 C1531 1.387 . S
C1533 C1535 1.390 . S
C1533 H1537 0.950 . S
H1534 C1530 0.950 . S
C1535 C1533 1.390 . S
C1535 C1536 1.387 . S
C1535 H1538 0.950 . S
C1536 C1535 1.387 . S
C1536 C1539 1.387 . S
H1537 C1533 0.950 . S
H1538 C1535 0.950 . S
C1539 C1530 1.390 . S
C1539 H1532 0.950 . S
C1539 C1536 1.387 . S
C1540 C1541 1.387 . S
C1540 H1544 0.950 . S
C1540 C1549 1.390 . S
C1541 C1540 1.387 . S
C1541 C1543 1.387 . S
H1542 C1549 0.950 . S
C1543 C1541 1.387 . S
C1543 C1545 1.390 . S
C1543 H1547 0.950 . S
H1544 C1540 0.950 . S
C1545 C1543 1.390 . S
C1545 C1546 1.387 . S
C1545 H1548 0.950 . S
C1546 C1545 1.387 . S
C1546 C1549 1.387 . S
H1547 C1543 0.950 . S
H1548 C1545 0.950 . S
C1549 C1540 1.390 . S
C1549 H1542 0.950 . S
C1549 C1546 1.387 . S
C1550 C1551 1.387 . S
C1550 H1554 0.950 . S
C1550 C1559 1.390 . S
C1551 C1550 1.387 . S
C1551 C1553 1.387 . S
H1552 C1559 0.950 . S
C1553 C1551 1.387 . S
C1553 C1555 1.390 . S
C1553 H1557 0.950 . S
H1554 C1550 0.950 . S
C1555 C1553 1.390 . S
C1555 C1556 1.387 . S
C1555 H1558 0.950 . S
C1556 C1555 1.387 . S
C1556 C1559 1.387 . S
H1557 C1553 0.950 . S
H1558 C1555 0.950 . S
C1559 C1550 1.390 . S
C1559 H1552 0.950 . S
C1559 C1556 1.387 . S
C1560 C1561 1.387 . S
C1560 H1564 0.950 . S
C1560 C1569 1.390 . S
C1561 C1560 1.387 . S
C1561 C1563 1.387 . S
H1562 C1569 0.950 . S
C1563 C1561 1.387 . S
C1563 C1565 1.390 . S
C1563 H1567 0.950 . S
H1564 C1560 0.950 . S
C1565 C1563 1.390 . S
C1565 C1566 1.387 . S
C1565 H1568 0.950 . S
C1566 C1565 1.387 . S
C1566 C1569 1.387 . S
H1567 C1563 0.950 . S
H1568 C1565 0.950 . S
C1569 C1560 1.390 . S
C1569 H1562 0.950 . S
C1569 C1566 1.387 . S
C1570 C1571 1.387 . S
C1570 H1574 0.950 . S
C1570 C1579 1.390 . S
C1571 C1570 1.387 . S
C1571 C1573 1.387 . S
H1572 C1579 0.950 . S
C1573 C1571 1.387 . S
C1573 C1575 1.390 . S
C1573 H1577 0.950 . S
H1574 C1570 0.950 . S
C1575 C1573 1.390 . S
C1575 C1576 1.387 . S
C1575 H1578 0.950 . S
C1576 C1575 1.387 . S
C1576 C1579 1.387 . S
H1577 C1573 0.950 . S
H1578 C1575 0.950 . S
C1579 C1570 1.390 . S
C1579 H1572 0.950 . S
C1579 C1576 1.387 . S
C1580 C1581 1.387 . S
C1580 H1584 0.950 . S
C1580 C1589 1.390 . S
C1581 C1580 1.387 . S
C1581 C1583 1.387 . S
H1582 C1589 0.950 . S
C1583 C1581 1.387 . S
C1583 C1585 1.390 . S
C1583 H1587 0.950 . S
H1584 C1580 0.950 . S
C1585 C1583 1.390 . S
C1585 C1586 1.387 . S
C1585 H1588 0.950 . S
C1586 C1585 1.387 . S
C1586 C1589 1.387 . S
H1587 C1583 0.950 . S
H1588 C1585 0.950 . S
C1589 C1580 1.390 . S
C1589 H1582 0.950 . S
C1589 C1586 1.387 . S
C1590 C1591 1.387 1_655 S
C1590 H1594 0.950 . S
C1590 C1599 1.390 . S
C1591 C1590 1.387 1_455 S
C1591 C1593 1.387 . S
H1592 C1599 0.950 . S
C1593 C1591 1.387 . S
C1593 C1595 1.390 . S
C1593 H1597 0.950 . S
H1594 C1590 0.950 . S
C1595 C1593 1.390 . S
C1595 C1596 1.387 . S
C1595 H1598 0.950 . S
C1596 C1595 1.387 . S
C1596 C1599 1.387 1_455 S
H1597 C1593 0.950 . S
H1598 C1595 0.950 . S
C1599 C1590 1.390 . S
C1599 H1592 0.950 . S
C1599 C1596 1.387 1_655 S
C1600 C1601 1.387 . S
C1600 H1604 0.950 . S
C1600 C1609 1.390 . S
C1601 C1600 1.387 . S
C1601 C1603 1.387 . S
H1602 C1609 0.950 . S
C1603 C1601 1.387 . S
C1603 C1605 1.390 . S
C1603 H1607 0.950 . S
H1604 C1600 0.950 . S
C1605 C1603 1.390 . S
C1605 C1606 1.387 . S
C1605 H1608 0.950 . S
C1606 C1605 1.387 . S
C1606 C1609 1.387 . S
H1607 C1603 0.950 . S
H1608 C1605 0.950 . S
C1609 C1600 1.390 . S
C1609 H1602 0.950 . S
C1609 C1606 1.387 . S
C1610 C1611 1.387 1_545 S
C1610 H1614 0.950 . S
C1610 C1619 1.390 . S
C1611 C1610 1.387 1_565 S
C1611 C1613 1.387 . S
H1612 C1619 0.950 . S
C1613 C1611 1.387 . S
C1613 C1615 1.390 . S
C1613 H1617 0.950 . S
H1614 C1610 0.950 . S
C1615 C1613 1.390 . S
C1615 C1616 1.387 . S
C1615 H1618 0.950 . S
C1616 C1615 1.387 . S
C1616 C1619 1.387 1_565 S
H1617 C1613 0.950 . S
H1618 C1615 0.950 . S
C1619 C1610 1.390 . S
C1619 H1612 0.950 . S
C1619 C1616 1.387 1_545 S
C1620 C1621 1.387 1_545 S
C1620 H1624 0.950 . S
C1620 C1629 1.390 . S
C1621 C1620 1.387 1_565 S
C1621 C1623 1.387 . S
H1622 C1629 0.950 . S
C1623 C1621 1.387 . S
C1623 C1625 1.390 . S
C1623 H1627 0.950 . S
H1624 C1620 0.950 . S
C1625 C1623 1.390 . S
C1625 C1626 1.387 . S
C1625 H1628 0.950 . S
C1626 C1625 1.387 . S
C1626 C1629 1.387 1_565 S
H1627 C1623 0.950 . S
H1628 C1625 0.950 . S
C1629 C1620 1.390 . S
C1629 H1622 0.950 . S
C1629 C1626 1.387 1_545 S
C1630 C1631 1.387 1_655 S
C1630 H1634 0.950 . S
C1630 C1639 1.390 . S
C1631 C1630 1.387 1_455 S
C1631 C1633 1.387 . S
H1632 C1639 0.950 . S
C1633 C1631 1.387 . S
C1633 C1635 1.390 . S
C1633 H1637 0.950 . S
H1634 C1630 0.950 . S
C1635 C1633 1.390 . S
C1635 C1636 1.387 . S
C1635 H1638 0.950 . S
C1636 C1635 1.387 . S
C1636 C1639 1.387 1_455 S
H1637 C1633 0.950 . S
H1638 C1635 0.950 . S
C1639 C1630 1.390 . S
C1639 H1632 0.950 . S
C1639 C1636 1.387 1_655 S
C1640 C1641 1.387 . S
C1640 H1644 0.950 . S
C1640 C1649 1.390 . S
C1641 C1640 1.387 . S
C1641 C1643 1.387 . S
H1642 C1649 0.950 . S
C1643 C1641 1.387 . S
C1643 C1645 1.390 . S
C1643 H1647 0.950 . S
H1644 C1640 0.950 . S
C1645 C1643 1.390 . S
C1645 C1646 1.387 . S
C1645 H1648 0.950 . S
C1646 C1645 1.387 . S
C1646 C1649 1.387 . S
H1647 C1643 0.950 . S
H1648 C1645 0.950 . S
C1649 C1640 1.390 . S
C1649 H1642 0.950 . S
C1649 C1646 1.387 . S
C1650 C1651 1.387 . S
C1650 H1654 0.950 . S
C1650 C1659 1.390 . S
C1651 C1650 1.387 . S
C1651 C1653 1.387 . S
H1652 C1659 0.950 . S
C1653 C1651 1.387 . S
C1653 C1655 1.390 . S
C1653 H1657 0.950 . S
H1654 C1650 0.950 . S
C1655 C1653 1.390 . S
C1655 C1656 1.387 . S
C1655 H1658 0.950 . S
C1656 C1655 1.387 . S
C1656 C1659 1.387 . S
H1657 C1653 0.950 . S
H1658 C1655 0.950 . S
C1659 C1650 1.390 . S
C1659 H1652 0.950 . S
C1659 C1656 1.387 . S
C1660 C1661 1.387 . S
C1660 H1664 0.950 . S
C1660 C1669 1.390 . S
C1661 C1660 1.387 . S
C1661 C1663 1.387 . S
H1662 C1669 0.950 . S
C1663 C1661 1.387 . S
C1663 C1665 1.390 . S
C1663 H1667 0.950 . S
H1664 C1660 0.950 . S
C1665 C1663 1.390 . S
C1665 C1666 1.387 . S
C1665 H1668 0.950 . S
C1666 C1665 1.387 . S
C1666 C1669 1.387 . S
H1667 C1663 0.950 . S
H1668 C1665 0.950 . S
C1669 C1660 1.390 . S
C1669 H1662 0.950 . S
C1669 C1666 1.387 . S
C1670 C1671 1.387 . S
C1670 H1674 0.950 . S
C1670 C1679 1.390 . S
C1671 C1670 1.387 . S
C1671 C1673 1.387 . S
H1672 C1679 0.950 . S
C1673 C1671 1.387 . S
C1673 C1675 1.390 . S
C1673 H1677 0.950 . S
H1674 C1670 0.950 . S
C1675 C1673 1.390 . S
C1675 C1676 1.387 . S
C1675 H1678 0.950 . S
C1676 C1675 1.387 . S
C1676 C1679 1.387 . S
H1677 C1673 0.950 . S
H1678 C1675 0.950 . S
C1679 C1670 1.390 . S
C1679 H1672 0.950 . S
C1679 C1676 1.387 . S
C1680 C1681 1.387 . S
C1680 H1684 0.950 . S
C1680 C1689 1.390 . S
C1681 C1680 1.387 . S
C1681 C1683 1.387 1_545 S
H1682 C1689 0.950 . S
C1683 C1681 1.387 1_565 S
C1683 C1685 1.390 . S
C1683 H1687 0.950 . S
H1684 C1680 0.950 . S
C1685 C1683 1.390 . S
C1685 C1686 1.387 1_565 S
C1685 H1688 0.950 . S
C1686 C1685 1.387 1_545 S
C1686 C1689 1.387 . S
H1687 C1683 0.950 . S
H1688 C1685 0.950 . S
C1689 C1680 1.390 . S
C1689 H1682 0.950 . S
C1689 C1686 1.387 . S
C1690 C1691 1.387 . S
C1690 H1694 0.950 . S
C1690 C1699 1.390 . S
C1691 C1690 1.387 . S
C1691 C1693 1.387 . S
H1692 C1699 0.950 . S
C1693 C1691 1.387 . S
C1693 C1695 1.379 . S
C1693 H1697 0.948 1_655 S
H1694 C1690 0.950 . S
C1695 C1693 1.379 . S
C1695 C1696 1.407 . S
C1695 H1698 0.942 1_655 S
C1696 C1695 1.407 . S
C1696 C1699 1.387 . S
H1697 C1693 0.948 1_455 S
H1698 C1695 0.942 1_455 S
C1699 C1690 1.390 . S
C1699 H1692 0.950 . S
C1699 C1696 1.387 . S
C1700 C1701 1.387 . S
C1700 H1704 0.950 . S
C1700 C1709 1.390 . S
C1701 C1700 1.387 . S
C1701 C1703 1.387 . S
H1702 C1709 0.950 . S
C1703 C1701 1.387 . S
C1703 C1705 1.390 . S
C1703 H1707 0.950 . S
H1704 C1700 0.950 . S
C1705 C1703 1.390 . S
C1705 C1706 1.387 . S
C1705 H1708 0.950 . S
C1706 C1705 1.387 . S
C1706 C1709 1.387 . S
H1707 C1703 0.950 . S
H1708 C1705 0.950 . S
C1709 C1700 1.390 . S
C1709 H1702 0.950 . S
C1709 C1706 1.387 . S
C1710 C1711 1.387 . S
C1710 H1714 0.950 . S
C1710 C1719 1.390 . S
C1711 C1710 1.387 . S
C1711 C1713 1.387 . S
H1712 C1719 0.950 . S
C1713 C1711 1.387 . S
C1713 C1715 1.390 . S
C1713 H1717 0.950 . S
H1714 C1710 0.950 . S
C1715 C1713 1.390 . S
C1715 C1716 1.387 . S
C1715 H1718 0.950 . S
C1716 C1715 1.387 . S
C1716 C1719 1.387 . S
H1717 C1713 0.950 . S
H1718 C1715 0.950 . S
C1719 C1710 1.390 . S
C1719 H1712 0.950 . S
C1719 C1716 1.387 . S
C1720 C1721 1.387 . S
C1720 H1724 0.950 . S
C1720 C1729 1.390 . S
C1721 C1720 1.387 . S
C1721 C1723 1.387 . S
H1722 C1729 0.950 . S
C1723 C1721 1.387 . S
C1723 C1725 1.390 . S
C1723 H1727 0.950 . S
H1724 C1720 0.950 . S
C1725 C1723 1.390 . S
C1725 C1726 1.387 . S
C1725 H1728 0.950 . S
C1726 C1725 1.387 . S
C1726 C1729 1.387 . S
H1727 C1723 0.950 . S
H1728 C1725 0.950 . S
C1729 C1720 1.390 . S
C1729 H1722 0.950 . S
C1729 C1726 1.387 . S
C1730 C1731 1.387 . S
C1730 H1734 0.950 . S
C1730 C1739 1.390 . S
C1731 C1730 1.387 . S
C1731 C1733 1.387 . S
H1732 C1739 0.950 . S
C1733 C1731 1.387 . S
C1733 C1735 1.390 . S
C1733 H1737 0.950 . S
H1734 C1730 0.950 . S
C1735 C1733 1.390 . S
C1735 C1736 1.387 . S
C1735 H1738 0.950 . S
C1736 C1735 1.387 . S
C1736 C1739 1.387 . S
H1737 C1733 0.950 . S
H1738 C1735 0.950 . S
C1739 C1730 1.390 . S
C1739 H1732 0.950 . S
C1739 C1736 1.387 . S
C1740 C1741 1.387 . S
C1740 H1744 0.950 . S
C1740 C1749 1.390 . S
C1741 C1740 1.387 . S
C1741 C1743 1.387 . S
H1742 C1749 0.950 . S
C1743 C1741 1.387 . S
C1743 C1745 1.390 . S
C1743 H1747 0.950 . S
H1744 C1740 0.950 . S
C1745 C1743 1.390 . S
C1745 C1746 1.387 . S
C1745 H1748 0.950 . S
C1746 C1745 1.387 . S
C1746 C1749 1.387 . S
H1747 C1743 0.950 . S
H1748 C1745 0.950 . S
C1749 C1740 1.390 . S
C1749 H1742 0.950 . S
C1749 C1746 1.387 . S
C1750 C1751 1.387 . S
C1750 H1754 0.950 . S
C1750 C1759 1.390 . S
C1751 C1750 1.387 . S
C1751 C1753 1.387 . S
H1752 C1759 0.950 . S
C1753 C1751 1.387 . S
C1753 C1755 1.390 . S
C1753 H1757 0.950 . S
H1754 C1750 0.950 . S
C1755 C1753 1.390 . S
C1755 C1756 1.387 . S
C1755 H1758 0.950 . S
C1756 C1755 1.387 . S
C1756 C1759 1.387 . S
H1757 C1753 0.950 . S
H1758 C1755 0.950 . S
C1759 C1750 1.390 . S
C1759 H1752 0.950 . S
C1759 C1756 1.387 . S
C1760 C1761 1.387 . S
C1760 H1764 0.950 . S
C1760 C1769 1.390 . S
C1761 C1760 1.387 . S
C1761 C1763 1.387 . S
H1762 C1769 0.950 . S
C1763 C1761 1.387 . S
C1763 C1765 1.390 . S
C1763 H1767 0.950 . S
H1764 C1760 0.950 . S
C1765 C1763 1.390 . S
C1765 C1766 1.387 . S
C1765 H1768 0.950 . S
C1766 C1765 1.387 . S
C1766 C1769 1.387 . S
H1767 C1763 0.950 . S
H1768 C1765 0.950 . S
C1769 C1760 1.390 . S
C1769 H1762 0.950 . S
C1769 C1766 1.387 . S
C1770 C1771 1.387 1_455 S
C1770 H1774 0.950 . S
C1770 C1779 1.390 . S
C1771 C1770 1.387 1_655 S
C1771 C1773 1.387 . S
H1772 C1779 0.950 . S
C1773 C1771 1.387 . S
C1773 C1775 1.390 . S
C1773 H1777 0.950 . S
H1774 C1770 0.950 . S
C1775 C1773 1.390 . S
C1775 C1776 1.387 . S
C1775 H1778 0.950 . S
C1776 C1775 1.387 . S
C1776 C1779 1.387 1_655 S
H1777 C1773 0.950 . S
H1778 C1775 0.950 . S
C1779 C1770 1.390 . S
C1779 H1772 0.950 . S
C1779 C1776 1.387 1_455 S
C1780 C1781 1.387 . S
C1780 H1784 0.950 . S
C1780 C1789 1.390 . S
C1781 C1780 1.387 . S
C1781 C1783 1.387 . S
H1782 C1789 0.950 . S
C1783 C1781 1.387 . S
C1783 C1785 1.390 . S
C1783 H1787 0.950 . S
H1784 C1780 0.950 . S
C1785 C1783 1.390 . S
C1785 C1786 1.387 . S
C1785 H1788 0.950 . S
C1786 C1785 1.387 . S
C1786 C1789 1.387 . S
H1787 C1783 0.950 . S
H1788 C1785 0.950 . S
C1789 C1780 1.390 . S
C1789 H1782 0.950 . S
C1789 C1786 1.387 . S
C1790 C1791 1.387 . S
C1790 H1794 0.950 . S
C1790 C1799 1.390 . S
C1791 C1790 1.387 . S
C1791 C1793 1.387 1_545 S
H1792 C1799 0.950 . S
C1793 C1791 1.387 1_565 S
C1793 C1795 1.390 . S
C1793 H1797 0.950 . S
H1794 C1790 0.950 . S
C1795 C1793 1.390 . S
C1795 C1796 1.387 1_565 S
C1795 H1798 0.950 . S
C1796 C1795 1.387 1_545 S
C1796 C1799 1.387 . S
H1797 C1793 0.950 . S
H1798 C1795 0.950 . S
C1799 C1790 1.390 . S
C1799 H1792 0.950 . S
C1799 C1796 1.387 . S
C1081 C13 1.443 . S
C1086 C688 1.510 . S
C1091 C27 1.374 . S
C1096 C734 1.448 . S
C1106 C766 1.491 . S
C1101 C36 1.372 . S
C1111 C41 1.425 . S
C1116 C819 1.499 . S
C1121 C8 1.444 . S
C1126 C865 1.575 . S
C1131 C22 1.463 . S
C1136 C904 1.527 . S
C1141 C55 1.447 . S
C1146 C858 1.510 . S
C1156 C911 1.452 . S
C1151 C69 1.372 . S
C1166 C812 1.500 . S
C1161 C78 1.388 . S
C1171 C83 1.430 . S
C1176 C773 1.493 . S
C1186 C667 1.577 . S
C1181 C50 1.457 . S
C1191 C64 1.460 . S
C1196 C713 1.516 . S
C1201 C97 1.545 . S
C1206 C943 1.648 . S
C1211 C111 1.425 . S
C1216 C1010 1.500 . S
C1226 C1056 1.580 . S
C1221 C120 1.561 . S
C1231 C125 1.465 . S
C1236 C267 1.550 . S
C1241 C92 1.684 . S
C1246 C313 1.702 . S
C1251 C106 1.534 . S
C1256 C359 1.560 . S
C1261 C139 1.497 . S
C1266 C306 1.577 . S
C1271 C153 1.423 . S
C1276 C352 1.484 . S
C1286 C260 1.593 . S
C1281 C162 1.562 . S
C1296 C1035 1.609 . S
C1291 C167 1.518 . S
C1306 C964 1.708 . S
C1301 C134 1.685 . S
C1316 C989 1.575 . S
C1311 C148 1.558 . S
C1321 C181 1.496 . S
C1326 C391 1.592 . S
C1331 C195 1.419 . S
C1336 C444 1.487 . S
C1341 C204 1.560 . S
C1346 C490 1.602 . S
C1351 C209 1.513 . S
C1356 C536 1.619 . S
C1366 C589 1.703 . S
C1361 C176 1.693 . S
C1376 C635 1.579 . S
C1371 C190 1.561 . S
C1386 C582 1.641 . S
C1381 C223 1.551 . S
C1396 C628 1.507 . S
C1391 C237 1.433 . S
C1401 C246 1.559 . S
C1406 C543 1.586 . S
C1416 C497 1.555 . S
C1411 C251 1.461 . S
C1421 C218 1.682 . S
C1426 C412 1.716 . S
C1436 C451 1.577 . S
C1431 C232 1.536 . S
C1446 C274 1.587 . S
C1441 C11 1.555 . S
C1451 C25 1.467 . S
C1456 C320 1.482 . S
C1466 C366 1.555 . S
C1461 C35 1.586 . S
C1476 C398 1.584 . S
C1471 C39 1.574 . S
C1486 C437 1.617 . S
C1481 C7 1.669 . S
C1496 C483 1.497 . S
C1491 C21 1.558 . S
C1501 C53 1.559 . S
C1506 C504 1.574 . S
C1511 C67 1.461 . S
C1516 C405 1.456 . S
C1521 C77 1.574 . S
C1526 C458 1.525 . S
C1531 C81 1.587 . S
C1536 C299 1.616 . S
C1546 C345 1.636 . S
C1541 C49 1.672 . S
C1551 C63 1.556 . S
C1556 C253 1.515 . S
C1566 C529 1.509 . S
C1561 C95 1.516 . S
C1571 C109 1.524 . S
C1576 C596 1.526 . S
C1581 C119 1.602 . S
C1586 C642 1.568 . S
C1596 C681 1.331 . S
C1591 C123 1.325 . S
C1601 C91 1.591 . S
C1606 C727 1.562 . S
C1611 C105 1.311 . S
C1616 C759 1.313 . S
C1621 C137 1.355 . S
C1626 C780 1.349 . S
C1631 C151 1.246 . S
C1636 C674 1.253 . S
C1646 C720 1.486 . S
C1641 C161 1.510 . S
C1651 C165 1.553 . S
C1656 C575 1.564 . S
C1661 C133 1.669 . S
C1666 C621 1.630 . S
C1676 C550 1.556 . S
C1671 C147 1.614 . S
C1686 C826 1.370 . S
C1681 C179 1.365 . S
C1691 C193 1.242 . S
C1696 C872 1.249 . S
C1701 C203 1.506 . S
C1706 C897 1.465 . S
C1716 C950 1.531 . S
C1711 C207 1.541 . S
C1726 C1003 1.634 . S
C1721 C175 1.672 . S
C1731 C189 1.615 . S
C1736 C1049 1.574 . S
C1741 C221 1.523 . S
C1746 C1042 1.533 . S
C1751 C235 1.520 . S
C1756 C957 1.504 . S
C1766 C996 1.553 . S
C1761 C245 1.588 . S
C1776 C851 1.317 . S
C1771 C249 1.314 . S
C1786 C918 1.550 . S
C1781 C217 1.595 . S
C1791 C231 1.330 . S
C1796 C805 1.330 . S
