# Generated by pormake.
# Topology zzz, (3,6)-cn, num edge types: 1
# Building blocks:
#     Node 0, Type 0, BuildingBlock: CUQRIR_clean_linker_1, # of connection points: 3
#     Node 1, Type 0, BuildingBlock: CUQRIR_clean_linker_1, # of connection points: 3
#     Node 2, Type 0, BuildingBlock: CUQRIR_clean_linker_1, # of connection points: 3
#     Node 3, Type 0, BuildingBlock: CUQRIR_clean_linker_1, # of connection points: 3
#     Node 4, Type 0, BuildingBlock: CUQRIR_clean_linker_1, # of connection points: 3
#     Node 5, Type 0, BuildingBlock: CUQRIR_clean_linker_1, # of connection points: 3
#     Node 6, Type 0, BuildingBlock: CUQRIR_clean_linker_1, # of connection points: 3
#     Node 7, Type 0, BuildingBlock: CUQRIR_clean_linker_1, # of connection points: 3
#     Node 8, Type 1, BuildingBlock: HISSIN_clean_sbu_0, # of connection points: 6
#     Node 9, Type 1, BuildingBlock: HISSIN_clean_sbu_0, # of connection points: 6
#     Node 10, Type 1, BuildingBlock: HISSIN_clean_sbu_0, # of connection points: 6
#     Node 11, Type 1, BuildingBlock: HISSIN_clean_sbu_0, # of connection points: 6
#     Edge 12, Type (0, 1), BuildingBlock: ZUJKAS_clean_linker_0, # of connection points: 2
#     Edge 13, Type (0, 1), BuildingBlock: ZUJKAS_clean_linker_0, # of connection points: 2
#     Edge 14, Type (0, 1), BuildingBlock: ZUJKAS_clean_linker_0, # of connection points: 2
#     Edge 15, Type (0, 1), BuildingBlock: ZUJKAS_clean_linker_0, # of connection points: 2
#     Edge 16, Type (0, 1), BuildingBlock: ZUJKAS_clean_linker_0, # of connection points: 2
#     Edge 17, Type (0, 1), BuildingBlock: ZUJKAS_clean_linker_0, # of connection points: 2
#     Edge 18, Type (0, 1), BuildingBlock: ZUJKAS_clean_linker_0, # of connection points: 2
#     Edge 19, Type (0, 1), BuildingBlock: ZUJKAS_clean_linker_0, # of connection points: 2
#     Edge 20, Type (0, 1), BuildingBlock: ZUJKAS_clean_linker_0, # of connection points: 2
#     Edge 21, Type (0, 1), BuildingBlock: ZUJKAS_clean_linker_0, # of connection points: 2
#     Edge 22, Type (0, 1), BuildingBlock: ZUJKAS_clean_linker_0, # of connection points: 2
#     Edge 23, Type (0, 1), BuildingBlock: ZUJKAS_clean_linker_0, # of connection points: 2
#     Edge 24, Type (0, 1), BuildingBlock: ZUJKAS_clean_linker_0, # of connection points: 2
#     Edge 25, Type (0, 1), BuildingBlock: ZUJKAS_clean_linker_0, # of connection points: 2
#     Edge 26, Type (0, 1), BuildingBlock: ZUJKAS_clean_linker_0, # of connection points: 2
#     Edge 27, Type (0, 1), BuildingBlock: ZUJKAS_clean_linker_0, # of connection points: 2
#     Edge 28, Type (0, 1), BuildingBlock: ZUJKAS_clean_linker_0, # of connection points: 2
#     Edge 29, Type (0, 1), BuildingBlock: ZUJKAS_clean_linker_0, # of connection points: 2
#     Edge 30, Type (0, 1), BuildingBlock: ZUJKAS_clean_linker_0, # of connection points: 2
#     Edge 31, Type (0, 1), BuildingBlock: ZUJKAS_clean_linker_0, # of connection points: 2
#     Edge 32, Type (0, 1), BuildingBlock: ZUJKAS_clean_linker_0, # of connection points: 2
#     Edge 33, Type (0, 1), BuildingBlock: ZUJKAS_clean_linker_0, # of connection points: 2
#     Edge 34, Type (0, 1), BuildingBlock: ZUJKAS_clean_linker_0, # of connection points: 2
#     Edge 35, Type (0, 1), BuildingBlock: ZUJKAS_clean_linker_0, # of connection points: 2
# Relax obj value: 0.250
# Max RMSD: 0.184
# Mean RMSD: 0.103
data_MOF--net-zzz--node1-HISSIN_clean_sbu_0--node2-CUQRIR_clean_linker_1--edge1-ZUJKAS_clean_linker_0
_symmetry_space_group_name_H-M    P1
_symmetry_Int_Tables_number       1
_symmetry_cell_setting            triclinic
loop_
_symmetry_equiv_pos_as_xyz
'x, y, z'
_cell_length_a     61.731919
_cell_length_b     61.953453
_cell_length_c     19.349634
_cell_angle_alpha  89.677526
_cell_angle_beta   91.779487
_cell_angle_gamma 90.631781
loop_
_atom_site_label
_atom_site_type_symbol
_atom_site_fract_x
_atom_site_fract_y
_atom_site_fract_z
_atom_type_partial_charge
C0 C 0.75488 0.52867 0.29637 0.0
N1 N 0.77676 0.52917 0.30546 0.0
N2 N 0.74916 0.53084 0.22811 0.0
C3 C 0.73924 0.52589 0.3535 0.0
C4 C 0.76843 0.53233 0.19644 0.0
N5 N 0.78504 0.5315 0.24341 0.0
C6 C 0.77097 0.53377 0.11952 0.0
H7 H 0.73556 0.50843 0.35994 0.0
H8 H 0.72385 0.53432 0.34062 0.0
H9 H 0.74637 0.53206 0.403 0.0
H10 H 0.76873 0.55077 0.10274 0.0
H11 H 0.75843 0.52373 0.09228 0.0
H12 H 0.7873 0.5286 0.10444 0.0
C13 C 0.01788 0.74853 0.26579 0.0
N14 N 1.00815 0.76763 0.27871 0.0
N15 N 1.00635 0.73714 0.21675 0.0
C16 C 0.03956 0.74207 0.29559 0.0
C17 C 0.98936 0.75006 0.20058 0.0
N18 N 0.99034 0.76836 0.23837 0.0
C19 C 0.97221 0.74508 0.14601 0.0
H20 H 0.05241 0.75027 0.26601 0.0
H21 H 0.04176 0.72436 0.2921 0.0
H22 H 0.04133 0.74728 0.35027 0.0
H23 H 0.96881 0.72746 0.14411 0.0
H24 H 0.97817 0.75019 0.09488 0.0
H25 H 0.95705 0.75386 0.15587 0.0
C26 C 0.78394 0.01207 0.23212 0.0
N27 N 0.76614 0.02381 0.24786 0.0
N28 N 0.79628 0.02267 0.18475 0.0
C29 C 0.78964 0.99077 0.26449 0.0
C30 C 0.78505 0.04102 0.17184 0.0
N31 N 0.76717 0.04183 0.21046 0.0
C32 C 0.79027 0.05708 0.11572 0.0
H33 H 0.78329 0.98954 0.31742 0.0
H34 H 0.80746 0.98851 0.26626 0.0
H35 H 0.78211 0.97768 0.23273 0.0
H36 H 0.79946 0.04946 0.07414 0.0
H37 H 0.80024 0.07041 0.13847 0.0
H38 H 0.77528 0.06409 0.09231 0.0
C39 C 0.52353 0.77922 0.25685 0.0
N40 N 0.51157 0.7611 0.27029 0.0
N41 N 0.51405 0.79101 0.20473 0.0
C42 C 0.54459 0.78521 0.29283 0.0
C43 C 0.49594 0.77952 0.18749 0.0
N44 N 0.49439 0.76158 0.22707 0.0
C45 C 0.48068 0.78488 0.1278 0.0
H46 H 0.54697 0.80298 0.29305 0.0
H47 H 0.55807 0.778 0.26454 0.0
H48 H 0.54513 0.77896 0.3467 0.0
H49 H 0.4858 0.77611 0.0813 0.0
H50 H 0.48089 0.80245 0.11635 0.0
H51 H 0.46389 0.7797 0.13893 0.0
C52 C 0.30113 0.50439 0.05321 0.0
N53 N 0.28043 0.51118 0.04349 0.0
N54 N 0.31 0.5125 0.11312 0.0
C55 C 0.31247 0.48968 1.00527 0.0
C56 C 0.29373 0.52409 0.13963 0.0
N57 N 0.27598 0.52341 0.0971 0.0
C58 C 0.29488 0.53511 0.20873 0.0
H59 H 0.3097 0.47273 0.02193 0.0
H60 H 0.33019 0.49298 1.00716 0.0
H61 H 0.30592 0.49156 0.95154 0.0
H62 H 0.30368 0.55071 0.20344 0.0
H63 H 0.30399 0.52508 0.24716 0.0
H64 H 0.27852 0.53844 0.22798 0.0
C65 C 0.03559 0.27296 0.14335 0.0
N66 N 0.04499 0.25385 0.12825 0.0
N67 N 0.04702 0.28342 0.19484 0.0
C68 C 1.01454 0.28067 0.11189 0.0
C69 C 0.06366 0.26987 0.21001 0.0
N70 N 0.06248 0.25215 0.16957 0.0
C71 C 0.08118 0.2739 0.26423 0.0
H72 H 0.01801 0.29317 0.07234 0.0
H73 H 1.00464 0.2882 0.15196 0.0
H74 H 1.00528 0.26727 0.0867 0.0
H75 H 0.07588 0.26726 0.31441 0.0
H76 H 0.08439 0.29145 0.27032 0.0
H77 H 0.09635 0.2657 0.25062 0.0
C78 C 0.26151 0.02034 0.12264 0.0
N79 N 0.28 0.0308 0.10393 0.0
N80 N 0.24953 0.03293 0.16449 0.0
C81 C 0.25574 0.99758 0.10315 0.0
C82 C 0.26161 0.05127 0.17077 0.0
N83 N 0.27994 0.05 0.13421 0.0
C84 C 0.25614 0.06981 0.21681 0.0
H85 H 0.23795 0.99489 0.10437 0.0
H86 H 0.26371 0.98646 0.14093 0.0
H87 H 0.26166 0.99386 0.05103 0.0
H88 H 0.25562 0.06401 0.27112 0.0
H89 H 0.23983 0.07596 0.20215 0.0
H90 H 0.268 0.08331 0.21329 0.0
C91 C 0.51849 0.24621 0.09125 0.0
N92 N 0.53002 0.26457 0.07832 0.0
N93 N 0.52882 0.23399 0.14067 0.0
C94 C 0.49748 0.24008 0.05533 0.0
C95 C 0.54677 0.24579 0.15787 0.0
N96 N 0.54755 0.26416 0.1199 0.0
C97 C 0.56238 0.24041 0.21673 0.0
H98 H 0.48397 0.24715 0.08385 0.0
H99 H 0.49529 0.22228 0.05458 0.0
H100 H 0.49681 0.24657 1.00173 0.0
H101 H 0.57625 0.23153 0.19602 0.0
H102 H 0.55457 0.23011 0.25609 0.0
H103 H 0.56877 0.25526 0.24222 0.0
Eu104 Eu 1.01095 0.02389 0.62246 0.0
Eu105 Eu 0.03958 1.00396 0.75013 0.0
C106 C 0.02927 0.0544 0.74514 0.0
C107 C 0.99833 0.04546 0.44458 0.0
C108 C 0.99123 0.06439 0.41193 0.0
C109 C 0.02545 0.04142 0.35723 0.0
C110 C 1.00171 0.07231 0.3541 0.0
C111 C 0.01511 0.03366 0.41584 0.0
C112 C 0.01948 0.06134 0.32725 0.0
C113 C 0.99104 0.0406 0.5145 0.0
O114 O 1.00575 1.00658 0.79273 0.0
O115 O 0.98463 0.01256 0.69476 0.0
C116 C 0.98657 1.00853 0.76168 0.0
O117 O 0.02021 0.99022 0.58941 0.0
O118 O 0.05306 1.0082 0.85476 0.0
O119 O 0.05853 0.97845 0.80076 0.0
O120 O 0.024 0.97491 0.69629 0.0
C121 C 0.02157 0.97293 0.62886 0.0
O122 O 0.0459 0.02982 0.592 0.0
O123 O 0.06386 1.00595 0.66387 0.0
O124 O 0.04485 0.04029 0.75426 0.0
O125 O 0.98917 0.02028 0.53185 0.0
O126 O 1.00078 0.05203 0.56275 0.0
O127 O 1.01223 0.04949 0.70588 0.0
C128 C 0.04937 0.97631 0.91746 0.0
C129 C 0.02798 0.96871 0.90916 0.0
C130 C 0.05 0.96378 0.03658 0.0
C131 C 0.0176 0.95886 0.96403 0.0
C132 C 0.06035 0.9739 0.98147 0.0
C133 C 0.02845 0.95629 0.02836 0.0
C134 C 0.05915 0.98821 0.86038 0.0
C135 C 0.06336 0.01865 0.6089 0.0
H136 H 0.97854 0.07387 0.43403 0.0
H137 H 0.03878 0.03231 0.33755 0.0
H138 H 0.99679 0.08789 0.33394 0.0
H139 H 0.02102 0.01909 0.44087 0.0
H140 H 0.01923 0.97046 0.86009 0.0
H141 H 0.05873 0.96193 0.08564 0.0
H142 H 1.0012 0.95283 0.95558 0.0
H143 H 0.07679 0.97994 0.9889 0.0
Eu144 Eu 0.53303 0.03089 0.74475 0.0
Eu145 Eu 0.51389 1.00076 0.62125 0.0
C146 C 0.52939 0.978 0.76274 0.0
C147 C 0.56169 0.07263 0.86433 0.0
C148 C 0.56238 0.08098 0.93134 0.0
C149 C 0.59339 0.09413 0.83711 0.0
C150 C 0.57885 0.09531 0.952 0.0
C151 C 0.57688 0.07968 0.81655 0.0
C152 C 0.59495 0.10157 0.90579 0.0
C153 C 0.54575 0.05573 0.84702 0.0
O154 O 0.48651 1.00107 0.69739 0.0
O155 O 0.49625 0.03212 0.75371 0.0
C156 C 0.48189 0.01673 0.73994 0.0
O157 O 0.53412 0.05168 0.64862 0.0
O158 O 0.49026 0.97872 0.57191 0.0
O159 O 0.51519 0.99363 0.51124 0.0
O160 O 0.50486 0.03551 0.59732 0.0
C161 C 0.51848 0.05186 0.60138 0.0
O162 O 0.56389 0.02409 0.68678 0.0
O163 O 0.54985 1.00285 0.59872 0.0
O164 O 0.52723 0.97558 0.69533 0.0
O165 O 0.53039 0.06083 0.80229 0.0
O166 O 0.55335 0.03644 0.83709 0.0
O167 O 0.5292 0.99727 0.79128 0.0
C168 C 0.48005 0.99545 0.46624 0.0
C169 C 0.46616 1.01007 0.49727 0.0
C170 C 0.46951 1.01014 0.35361 0.0
C171 C 0.45437 0.02478 0.4572 0.0
C172 C 0.48148 0.9954 0.39406 0.0
C173 C 0.4561 0.02523 0.385 0.0
C174 C 0.49623 0.98422 0.51002 0.0
C175 C 0.56635 0.01296 0.62959 0.0
H176 H 0.55069 0.07568 0.96868 0.0
H177 H 0.60542 0.09879 0.80012 0.0
H178 H 0.5797 0.10034 1.00553 0.0
H179 H 0.5764 0.07344 0.76431 0.0
H180 H 0.46527 1.01096 0.55303 0.0
H181 H 0.47097 1.00989 0.298 0.0
H182 H 0.44454 0.03639 0.48328 0.0
H183 H 0.49252 0.98462 0.3693 0.0
Eu184 Eu 0.5086 0.52069 0.73996 0.0
Eu185 Eu 0.54359 0.50756 0.62588 0.0
C186 C 0.55894 0.52089 0.77789 0.0
C187 C 0.46579 0.54923 0.84563 0.0
C188 C 0.47276 0.57064 0.83707 0.0
C189 C 0.43288 0.56196 0.89684 0.0
C190 C 0.46036 0.58753 0.86099 0.0
C191 C 0.4455 0.545 0.87367 0.0
C192 C 0.44051 0.58342 0.89306 0.0
C193 C 0.48021 0.53125 0.83083 0.0
O194 O 0.54012 0.47678 0.68951 0.0
O195 O 0.5084 0.48415 0.74334 0.0
C196 C 0.52382 0.47066 0.72778 0.0
O197 O 0.49076 0.52096 0.63622 0.0
O198 O 0.57718 0.50079 0.60401 0.0
O199 O 0.55344 0.50264 0.5195 0.0
O200 O 0.51105 0.49605 0.58155 0.0
C201 C 0.49303 0.50704 0.58605 0.0
O202 O 0.52034 0.55307 0.69732 0.0
O203 O 0.53256 0.54095 0.59391 0.0
O204 O 0.56143 0.52551 0.71237 0.0
O205 O 0.47536 0.5197 0.77628 0.0
O206 O 0.50098 0.53515 0.83806 0.0
O207 O 0.54008 0.51387 0.79832 0.0
C208 C 0.58323 0.47964 0.50529 0.0
C209 C 0.58868 0.46105 0.54356 0.0
C210 C 0.59643 0.46289 0.40196 0.0
C211 C 0.59791 0.44347 0.51107 0.0
C212 C 0.58738 0.48051 0.43459 0.0
C213 C 0.60163 0.44407 0.43968 0.0
C214 C 0.57343 0.49836 0.53786 0.0
C215 C 0.52637 0.55675 0.63349 0.0
H216 H 0.48829 0.5743 0.81494 0.0
H217 H 0.41753 0.55817 0.91993 0.0
H218 H 0.46712 0.60369 0.85796 0.0
H219 H 0.43977 0.52854 0.88 0.0
H220 H 0.58568 0.46003 0.59835 0.0
H221 H 0.59867 0.46378 0.34673 0.0
H222 H 0.60193 0.42931 0.54177 0.0
H223 H 0.58331 0.49476 0.40432 0.0
Eu224 Eu 0.03002 0.52809 0.63588 0.0
Eu225 Eu 0.01835 0.49543 0.76106 0.0
C226 C 0.06752 0.51044 0.73797 0.0
C227 C 0.04849 0.55181 0.46552 0.0
C228 C 0.05122 0.53156 0.43514 0.0
C229 C 0.06903 0.56853 0.37452 0.0
C230 C 0.0631 0.52977 0.3753 0.0
C231 C 0.05705 0.57031 0.4342 0.0
C232 C 0.07262 0.54818 0.34539 0.0
C233 C 0.03767 0.55367 0.53143 0.0
O234 O 1.0114 0.52861 0.80482 0.0
O235 O 0.03068 0.54972 0.73001 0.0
C236 C 0.02033 0.54729 0.78807 0.0
O237 O 0.99424 0.53106 0.65464 0.0
O238 O 0.02864 0.47295 0.84297 0.0
O239 O 0.99454 0.47897 0.8234 0.0
O240 O 0.98914 0.49625 0.68675 0.0
C241 C 0.98142 0.5142 0.65999 0.0
O242 O 0.02665 0.49529 0.58393 0.0
O243 O 0.03036 0.47307 0.6787 0.0
O244 O 0.0524 0.50786 0.78361 0.0
O245 O 0.01988 0.54236 0.53726 0.0
O246 O 0.05019 0.55259 0.58687 0.0
O247 O 0.06218 0.51388 0.67252 0.0
C248 C 1.00576 0.47327 0.93817 0.0
C249 C 1.00483 0.49427 0.96433 0.0
C250 C 0.99283 0.45917 0.04653 0.0
C251 C 0.99674 0.4978 0.02975 0.0
C252 C 1.0007 0.45569 0.9806 0.0
C253 C 0.98954 0.48032 0.07013 0.0
C254 C 1.00902 0.46998 0.86437 0.0
C255 C 0.02949 0.47595 0.61123 0.0
H256 H 0.04467 0.51709 0.45868 0.0
H257 H 0.07641 0.58297 0.35336 0.0
H258 H 0.06539 0.51391 0.35364 0.0
H259 H 0.05506 0.58605 0.45718 0.0
H260 H 1.00886 0.50801 0.93218 0.0
H261 H 0.98788 0.44534 0.07695 0.0
H262 H 0.99435 0.51431 0.04569 0.0
H263 H 1.00154 0.43935 0.96125 0.0
H264 H 0.21073 0.05248 0.14893 0.0
H265 H 0.17928 0.04857 0.22302 0.0
H266 H 0.21229 0.99858 0.33932 0.0
H267 H 0.24392 1.00288 0.2655 0.0
H268 H 0.15129 0.01549 0.25411 0.0
H269 H 0.19707 0.03948 0.49289 0.0
H270 H 0.20806 0.04268 0.40809 0.0
H271 H 0.20813 0.01668 0.44992 0.0
C272 C 0.21113 0.04049 0.18988 0.0
C273 C 0.22982 0.02798 0.20124 0.0
C274 C 0.19314 0.03827 0.23246 0.0
C275 C 0.19332 0.02359 0.28833 0.0
C276 C 0.21171 1.01041 0.29794 0.0
H277 H 0.10215 0.99685 0.62161 0.0
H278 H 0.13275 0.99769 0.54394 0.0
C279 C 0.22972 0.01261 0.25506 0.0
C280 C 0.17446 0.02243 0.33651 0.0
H281 H 0.16076 0.02804 0.5061 0.0
C282 C 0.15342 0.01827 0.30919 0.0
C283 C 0.17693 0.02606 0.40876 0.0
C284 C 0.19871 0.03167 0.44178 0.0
C285 C 0.13511 0.01727 0.35154 0.0
C286 C 0.13755 0.02103 0.42381 0.0
C287 C 0.15862 0.02511 0.45111 0.0
C288 C 0.1186 0.02078 0.47187 0.0
C289 C 0.11339 0.01157 0.31826 0.0
C290 C 0.10026 0.03374 0.45907 0.0
C291 C 0.08259 0.03322 0.50356 0.0
C292 C 0.08272 0.01993 0.56308 0.0
C293 C 0.10128 1.00733 0.57665 0.0
C294 C 0.11892 1.00779 0.53195 0.0
H295 H 0.11521 1.00269 0.26907 0.0
H296 H 0.10348 1.0015 0.35321 0.0
H297 H 0.10445 0.02662 0.30601 0.0
H298 H 0.09958 0.04444 0.41465 0.0
H299 H 0.06874 0.04325 0.49094 0.0
H300 H 0.49272 0.22567 0.21308 0.0
H301 H 0.48601 0.19363 0.28584 0.0
H302 H 0.54482 0.1652 0.21575 0.0
H303 H 0.55122 0.19702 0.14274 0.0
H304 H 0.51166 0.13474 0.22864 0.0
H305 H 0.52105 0.18429 0.46628 0.0
H306 H 0.50004 0.1928 0.40619 0.0
H307 H 0.52789 0.19448 0.38212 0.0
C308 C 0.50381 0.21227 0.21197 0.0
C309 C 0.52243 0.21373 0.17218 0.0
C310 C 0.50017 0.19409 0.25421 0.0
C311 C 0.51514 0.17707 0.25759 0.0
C312 C 0.53305 0.17805 0.21455 0.0
H313 H 0.54564 0.08693 0.58852 0.0
H314 H 0.54315 0.11646 0.50444 0.0
C315 C 0.53669 0.19619 0.17262 0.0
C316 C 0.51303 0.15882 0.30835 0.0
H317 H 0.51391 0.14722 0.48167 0.0
C318 C 0.51198 0.13748 0.28398 0.0
C319 C 0.51378 0.16227 0.38076 0.0
C320 C 0.51594 0.18466 0.41073 0.0
C321 C 0.51183 0.11961 0.32962 0.0
C322 C 0.51248 0.12307 0.40212 0.0
C323 C 0.51331 0.14444 0.42636 0.0
C324 C 0.51354 0.10488 0.45378 0.0
C325 C 0.51178 0.09719 0.29952 0.0
C326 C 0.49758 0.08847 0.45464 0.0
C327 C 0.49906 0.07139 0.5027 0.0
C328 C 0.51638 0.0704 0.55179 0.0
C329 C 0.53206 0.08708 0.55173 0.0
C330 C 0.53064 0.10406 0.50349 0.0
H331 H 0.51707 0.09729 0.24515 0.0
H332 H 0.52258 0.08634 0.33037 0.0
H333 H 0.49508 0.09038 0.29987 0.0
H334 H 0.48389 0.08887 0.41831 0.0
H335 H 0.4866 0.05895 0.50127 0.0
H336 H 0.33963 0.54303 0.14753 0.0
H337 H 0.37283 0.5384 0.21867 0.0
H338 H 0.36114 0.46966 0.22468 0.0
H339 H 0.32759 0.4745 0.15411 0.0
H340 H 0.36947 0.48643 0.35393 0.0
H341 H 0.43243 0.51565 0.17777 0.0
H342 H 0.41091 0.5346 0.18613 0.0
H343 H 0.40528 0.50868 0.1476 0.0
C344 C 0.34444 0.52692 0.163 0.0
C345 C 0.33119 0.50911 0.14503 0.0
C346 C 0.36347 0.52423 0.20336 0.0
C347 C 0.36976 0.50363 0.22659 0.0
C348 C 0.35678 0.4857 0.2071 0.0
H349 H 0.49271 0.48381 0.46461 0.0
H350 H 0.46328 0.48092 0.37657 0.0
C351 C 0.33773 0.48841 0.16636 0.0
C352 C 0.38884 0.50117 0.27557 0.0
H353 H 0.44269 0.51399 0.29848 0.0
C354 C 0.38552 0.49223 0.34138 0.0
C355 C 0.40993 0.5085 0.25941 0.0
C356 C 0.41495 0.5172 0.18864 0.0
C357 C 0.40238 0.49124 0.39205 0.0
C358 C 0.42316 0.49965 0.37713 0.0
C359 C 0.42674 0.50775 0.3104 0.0
C360 C 0.44105 0.501 0.43096 0.0
C361 C 0.39774 0.48124 0.46137 0.0
C362 C 0.43853 0.51341 0.49064 0.0
C363 C 0.45529 0.51513 0.54086 0.0
C364 C 0.47512 0.50452 0.53282 0.0
C365 C 0.47766 0.4921 0.47288 0.0
C366 C 0.46086 0.49048 0.42233 0.0
H367 H 0.38346 0.47017 0.45811 0.0
H368 H 0.41191 0.47212 0.48215 0.0
H369 H 0.39414 0.49421 0.4985 0.0
H370 H 0.42362 0.52203 0.49807 0.0
H371 H 0.45269 0.52492 0.58596 0.0
H372 H 0.0414 0.28769 0.33189 0.0
H373 H 0.03734 0.32124 0.39657 0.0
H374 H 0.03742 0.35745 0.20562 0.0
H375 H 0.04155 0.32366 0.14092 0.0
H376 H 0.06592 0.35551 0.40319 0.0
H377 H 0.98611 0.38378 0.30106 0.0
H378 H 0.99531 0.35655 0.28861 0.0
H379 H 1.00546 0.37823 0.23621 0.0
C380 C 0.04035 0.30281 0.30374 0.0
C381 C 0.04186 0.30304 0.23135 0.0
C382 C 0.03802 0.32202 0.34073 0.0
C383 C 0.03693 0.34207 0.30639 0.0
C384 C 0.03782 0.34228 0.23364 0.0
H385 H 0.02965 0.47475 0.46847 0.0
H386 H 0.03204 0.44306 0.39373 0.0
C387 C 0.04018 0.32297 0.19653 0.0
C388 C 0.0361 0.36258 0.34749 0.0
H389 H 1.0058 0.40757 0.37567 0.0
C390 C 0.05271 0.36684 0.39712 0.0
C391 C 0.01904 0.37762 0.33961 0.0
C392 C 1.00034 0.37382 0.28896 0.0
C393 C 0.05281 0.38552 0.43853 0.0
C394 C 0.03551 0.40036 0.43181 0.0
C395 C 0.01905 0.3963 0.38136 0.0
C396 C 0.03403 0.41983 0.47757 0.0
C397 C 0.07177 0.38936 0.48821 0.0
C398 C 0.03405 0.41758 0.54998 0.0
C399 C 0.0328 0.43571 0.59294 0.0
C400 C 0.03125 0.45671 0.5649 0.0
C401 C 0.03093 0.45893 0.49228 0.0
C402 C 0.03224 0.44075 0.44928 0.0
H403 H 0.0864 0.38064 0.47213 0.0
H404 H 0.07585 0.40682 0.49234 0.0
H405 H 0.06757 0.38328 0.5402 0.0
H406 H 0.03483 0.40171 0.57354 0.0
H407 H 0.03287 0.43318 0.64837 0.0
H408 H 0.83258 0.04726 0.18163 0.0
H409 H 0.86429 0.04194 0.11149 0.0
H410 H 0.83909 0.97957 0.04925 0.0
H411 H 0.80648 0.98572 0.11648 0.0
H412 H 0.89636 0.01762 0.10671 0.0
H413 H 0.84994 1.00192 0.86271 0.0
H414 H 0.837 1.01019 0.94023 0.0
H415 H 0.84421 0.98237 0.92844 0.0
C416 C 0.83384 0.03235 0.15317 0.0
C417 C 0.8168 0.01705 0.15424 0.0
C418 C 0.85208 0.02927 0.11283 0.0
C419 C 0.85418 1.01059 0.07247 0.0
C420 C 0.83779 0.99455 0.07722 0.0
H421 H 0.9821 0.98845 0.88771 0.0
H422 H 0.95057 0.9872 0.96085 0.0
C423 C 0.81926 0.99782 0.11701 0.0
C424 C 0.87341 1.00839 0.0259 0.0
H425 H 0.88796 0.99781 0.85956 0.0
C426 C 0.89439 0.01329 0.05264 0.0
C427 C 0.87127 1.00315 0.9545 0.0
C428 C 0.84939 0.99933 0.91951 0.0
C429 C 0.91287 0.01325 0.01109 0.0
C430 C 0.91085 1.00721 0.94032 0.0
C431 C 0.88989 1.00224 0.91355 0.0
C432 C 0.93002 1.00662 0.89293 0.0
C433 C 0.9342 0.02071 0.04346 0.0
C434 C 0.92909 0.01672 0.82731 0.0
C435 C 0.94707 0.0168 0.78392 0.0
C436 C 0.9667 1.00699 0.80496 0.0
C437 C 0.96746 0.99644 0.86976 0.0
C438 C 0.94935 0.99595 0.91237 0.0
H439 H 0.93175 0.03138 0.08845 0.0
H440 H 0.94338 1.00646 0.06259 0.0
H441 H 0.94416 0.02964 1.00575 0.0
H442 H 0.91453 0.02499 0.80995 0.0
H443 H 0.94577 0.02513 0.73464 0.0
H444 H 0.52817 0.79154 0.07476 0.0
H445 H 0.53432 0.8235 1.00195 0.0
H446 H 0.52262 0.86457 0.17573 0.0
H447 H 0.51644 0.83241 0.24836 0.0
H448 H 0.50275 0.85485 0.9741 0.0
H449 H 0.57684 0.89264 0.09226 0.0
H450 H 0.56933 0.86482 0.10803 0.0
H451 H 0.55589 0.88614 0.15165 0.0
C452 C 0.52759 0.80742 0.0977 0.0
C453 C 0.5222 0.80955 0.16737 0.0
C454 C 0.53093 0.82568 0.05604 0.0
C455 C 0.5291 0.84657 0.08313 0.0
C456 C 0.52454 0.84871 0.15366 0.0
H457 H 0.52908 0.97639 0.90465 0.0
H458 H 0.5293 0.94462 0.98002 0.0
C459 C 0.5211 0.83036 0.19533 0.0
C460 C 0.53016 0.86587 0.03615 0.0
H461 H 0.55783 0.91306 1.00642 0.0
C462 C 0.51489 0.86751 0.98098 0.0
C463 C 0.54585 0.88255 0.04516 0.0
C464 C 0.56305 0.88147 0.10208 0.0
C465 C 0.5146 0.88541 0.93561 0.0
C466 C 0.53043 0.90204 0.94406 0.0
C467 C 0.54572 0.90039 0.99936 0.0
C468 C 0.53107 0.92146 0.8972 0.0
C469 C 0.49681 0.88661 0.88047 0.0
C470 C 0.53243 0.91931 0.82504 0.0
C471 C 0.53214 0.93756 0.78143 0.0
C472 C 0.53079 0.9585 0.80885 0.0
C473 C 0.5301 0.96061 0.88128 0.0
C474 C 0.53025 0.94238 0.92472 0.0
H475 H 0.48267 0.87627 0.8935 0.0
H476 H 0.49116 0.90343 0.87287 0.0
H477 H 0.50306 0.88079 0.83086 0.0
H478 H 0.5337 0.90348 0.80222 0.0
H479 H 0.53289 0.93521 0.72615 0.0
H480 H 0.7187 0.49908 0.23082 0.0
H481 H 0.68463 0.49732 0.16103 0.0
H482 H 0.69809 0.56064 0.07811 0.0
H483 H 0.73194 0.56236 0.14819 0.0
H484 H 0.65379 0.55391 0.114 0.0
H485 H 0.68395 0.48842 0.94828 0.0
H486 H 0.68513 0.48315 0.0398 0.0
H487 H 0.70172 0.50423 1.0045 0.0
C488 C 0.71409 0.51272 0.19861 0.0
C489 C 0.72787 0.53085 0.19473 0.0
C490 C 0.69478 0.51165 0.15823 0.0
C491 C 0.6889 0.52873 0.11337 0.0
C492 C 0.70226 0.54722 0.11193 0.0
H493 H 0.60147 0.5305 0.75177 0.0
H494 H 0.63226 0.5326 0.83456 0.0
C495 C 0.72157 0.54821 0.15188 0.0
C496 C 0.66932 0.52717 0.06613 0.0
H497 H 0.64807 0.49988 0.92589 0.0
C498 C 0.65249 0.54203 0.07311 0.0
C499 C 0.66771 0.51189 0.01197 0.0
C500 C 0.68562 0.49609 0.99997 0.0
C501 C 0.6341 0.54189 0.02795 0.0
C502 C 0.63238 0.52642 0.97436 0.0
C503 C 0.64928 0.51166 0.96712 0.0
C504 C 0.6134 0.52553 0.92443 0.0
C505 C 0.61689 0.55865 0.03691 0.0
C506 C 0.59246 0.52073 0.94704 0.0
C507 C 0.57479 0.51945 0.89971 0.0
C508 C 0.57761 0.52296 0.82852 0.0
C509 C 0.59861 0.52782 0.8061 0.0
C510 C 0.61628 0.52897 0.85343 0.0
H511 H 0.62284 0.57225 0.06982 0.0
H512 H 0.61123 0.5652 0.98603 0.0
H513 H 0.60278 0.55108 0.06207 0.0
H514 H 0.58981 0.51767 1.0013 0.0
H515 H 0.55892 0.51557 0.91898 0.0
H516 H 1.00278 0.69621 0.26462 0.0
H517 H 1.00671 0.66273 0.19777 0.0
H518 H 0.02465 0.7005 0.02027 0.0
H519 H 0.02064 0.73376 0.08725 0.0
H520 H 0.98328 0.6516 0.07345 0.0
H521 H 0.07161 0.65377 0.03009 0.0
H522 H 0.05932 0.66952 0.09636 0.0
H523 H 0.05788 0.67837 1.00774 0.0
C524 C 1.00809 0.6972 0.21187 0.0
C525 C 1.01184 0.71748 0.1814 0.0
C526 C 1.01016 0.67812 0.17346 0.0
C527 C 0.01624 0.67893 0.1039 0.0
C528 C 0.02037 0.69927 0.07401 0.0
H529 H 0.03283 0.58936 0.76481 0.0
H530 H 0.03124 0.62015 0.84269 0.0
C531 C 0.01812 0.71829 0.11223 0.0
C532 C 0.01712 0.65875 0.06136 0.0
H533 H 0.05066 0.62863 0.96333 0.0
C534 C 0.99807 0.64646 0.04988 0.0
C535 C 0.03633 0.652 0.03 0.0
C536 C 0.05752 0.66396 0.042 0.0
C537 C 0.99752 0.62817 1.00649 0.0
C538 C 0.01674 0.62144 0.97475 0.0
C539 C 0.03586 0.63361 0.98714 0.0
C540 C 0.01731 0.60228 0.92716 0.0
C541 C 0.97608 0.6168 0.99302 0.0
C542 C 1.01018 0.58163 0.94801 0.0
C543 C 1.01085 0.56389 0.90294 0.0
C544 C 0.01901 0.56619 0.83602 0.0
C545 C 0.02639 0.58682 0.81567 0.0
C546 C 0.02554 0.60454 0.86047 0.0
H547 H 0.9622 0.62742 1.00376 0.0
H548 H 0.97442 0.61123 0.93866 0.0
H549 H 0.97499 0.6025 0.02761 0.0
H550 H 1.00431 0.5791 0.99958 0.0
H551 H 1.0052 0.54831 0.921 0.0
H552 H 0.06314 0.22675 0.2813 0.0
H553 H 0.07246 0.18873 0.28317 0.0
H554 H 0.09726 0.19475 0.07752 0.0
H555 H 0.08698 0.23295 0.07549 0.0
H556 H 0.07028 0.16428 0.07561 0.0
H557 H 0.12063 0.14863 0.30648 0.0
H558 H 0.09875 0.1646 0.33516 0.0
H559 H 0.11727 0.17572 0.27327 0.0
C560 C 0.07164 0.22017 0.2382 0.0
C561 C 0.07455 0.2326 0.1786 0.0
C562 C 0.07703 0.19839 0.23906 0.0
C563 C 0.08592 0.18876 0.18082 0.0
C564 C 0.09057 0.20176 0.12327 0.0
H565 H 0.06384 0.05946 0.3161 0.0
H566 H 0.08665 0.08429 0.25269 0.0
C567 C 0.08489 0.22355 0.12221 0.0
C568 C 0.08636 0.16483 0.17644 0.0
H569 H 0.09054 0.12159 0.28445 0.0
C570 C 0.0754 0.15478 0.12032 0.0
C571 C 0.0939 0.15197 0.23254 0.0
C572 C 0.10853 0.16088 0.28963 0.0
C573 C 0.06919 0.13295 0.12351 0.0
C574 C 0.07303 0.12126 0.18573 0.0
C575 C 0.08671 0.1305 0.23736 0.0
C576 C 0.05999 0.1018 0.20429 0.0
C577 C 0.05791 0.12304 0.06098 0.0
C578 C 0.03733 0.10208 0.19432 0.0
C579 C 0.02421 0.0872 0.22814 0.0
C580 C 0.03332 0.0723 0.27546 0.0
C581 C 0.05607 0.07066 0.28035 0.0
C582 C 0.06924 0.08511 0.24449 0.0
H583 H 0.06642 0.12794 0.01358 0.0
H584 H 0.05739 0.10514 0.06371 0.0
H585 H 0.04115 0.12929 0.05574 0.0
H586 H 0.02949 0.11488 0.16505 0.0
H587 H 1.00681 0.0885 0.22105 0.0
H588 H 0.29894 0.07291 0.03269 0.0
H589 H 0.33475 0.09087 0.04113 0.0
H590 H 0.33925 0.07411 0.25817 0.0
H591 H 0.3035 0.05719 0.24957 0.0
H592 H 0.35886 0.11262 0.23606 0.0
H593 H 0.38688 0.05458 0.03875 0.0
H594 H 0.36881 0.07607 0.01423 0.0
H595 H 0.35916 0.05375 0.06462 0.0
C596 C 0.30749 0.07381 0.08232 0.0
C597 C 0.29867 0.06391 0.14073 0.0
C598 C 0.32793 0.08389 0.08711 0.0
C599 C 0.33993 0.08363 0.15009 0.0
C600 C 0.33034 0.07478 0.20906 0.0
H601 H 0.41486 0.03845 0.40395 0.0
H602 H 0.39386 0.06396 0.33533 0.0
C603 C 0.30994 0.06508 0.20439 0.0
C604 C 0.36336 0.08938 0.15536 0.0
H605 H 0.41027 0.06233 0.13169 0.0
C606 C 0.37038 0.10232 0.21129 0.0
C607 C 0.37885 0.07691 0.12114 0.0
C608 C 0.37323 0.06452 0.0562 0.0
C609 C 0.39096 0.09952 0.24245 0.0
C610 C 0.40454 0.08341 0.21695 0.0
C611 C 0.39939 0.07407 0.15269 0.0
C612 C 0.41936 0.07135 0.26416 0.0
C613 C 0.39693 0.11191 0.30718 0.0
C614 C 0.44065 0.0666 0.24634 0.0
C615 C 0.45285 0.05185 0.28606 0.0
C616 C 0.44377 0.04141 0.34338 0.0
C617 C 0.42255 0.04648 0.36117 0.0
C618 C 0.41055 0.06126 0.32216 0.0
H619 H 0.39081 0.12868 0.30327 0.0
H620 H 0.38918 0.10408 0.35201 0.0
H621 H 0.41476 0.1124 0.31701 0.0
H622 H 0.44759 0.07388 0.20095 0.0
H623 H 0.46928 0.0485 0.27161 0.0
H624 H 0.53587 0.30383 0.15635 0.0
H625 H 0.55972 0.33435 0.18481 0.0
H626 H 0.61554 0.2955 0.14484 0.0
H627 H 0.59127 0.26482 0.11458 0.0
H628 H 0.61769 0.31528 0.27245 0.0
H629 H 0.59662 0.37552 0.07242 0.0
H630 H 0.57226 0.36436 0.10645 0.0
H631 H 0.59044 0.34712 0.06152 0.0
C632 C 0.55319 0.30206 0.15171 0.0
C633 C 0.56185 0.28225 0.13264 0.0
C634 C 0.56681 0.31946 0.16771 0.0
C635 C 0.58938 0.31733 0.16531 0.0
C636 C 0.59815 0.29753 0.14585 0.0
H637 H 0.62997 0.44178 0.333 0.0
H638 H 0.63694 0.41022 0.2615 0.0
C639 C 0.5844 0.28009 0.12907 0.0
C640 C 0.6033 0.33515 0.1919 0.0
H641 H 0.60464 0.39006 0.1897 0.0
C642 C 0.61556 0.33161 0.2531 0.0
C643 C 0.60105 0.35637 0.16575 0.0
C644 C 0.58956 0.36099 0.09741 0.0
C645 C 0.62308 0.349 0.29357 0.0
C646 C 0.61786 0.37024 0.27247 0.0
C647 C 0.60828 0.37374 0.20668 0.0
C648 C 0.61775 0.38823 0.32234 0.0
C649 C 0.63515 0.34441 0.36087 0.0
C650 C 0.60487 0.38625 0.38058 0.0
C651 C 0.60061 0.40419 0.42075 0.0
C652 C 0.60908 0.42458 0.40338 0.0
C653 C 0.62295 0.42634 0.34714 0.0
C654 C 0.62713 0.40832 0.30664 0.0
H655 H 0.64533 0.32984 0.3564 0.0
H656 H 0.64564 0.35827 0.37714 0.0
H657 H 0.62332 0.34113 0.40176 0.0
H658 H 0.59688 0.37108 0.39246 0.0
H659 H 0.58955 0.40228 0.46275 0.0
H660 H 0.2485 0.50417 0.18198 0.0
H661 H 0.2097 0.51171 0.19023 0.0
H662 H 0.21632 0.56501 0.04753 0.0
H663 H 0.25532 0.55741 0.04024 0.0
H664 H 0.1919 0.57396 0.16599 0.0
H665 H 0.16418 0.50062 0.03101 0.0
H666 H 0.17946 0.49272 0.10708 0.0
H667 H 0.1926 0.50761 0.03986 0.0
C668 C 0.24163 0.51778 0.15402 0.0
C669 C 0.2546 0.5305 0.11154 0.0
C670 C 0.21955 0.52187 0.15763 0.0
C671 C 0.21016 0.53863 0.11829 0.0
C672 C 0.2233 0.55189 0.07771 0.0
H673 H 0.07762 0.57375 0.23008 0.0
H674 H 0.10787 0.57309 0.15063 0.0
C675 C 0.24544 0.54775 0.07411 0.0
C676 C 0.1867 0.54245 0.1221 0.0
H677 H 0.13822 0.51561 0.11442 0.0
C678 C 0.17997 0.56153 0.15305 0.0
C679 C 0.17125 0.52626 0.10416 0.0
C680 C 0.17733 0.50578 0.06805 0.0
C681 C 0.15855 0.56383 0.17374 0.0
C682 C 0.14352 0.54674 0.16142 0.0
C683 C 0.1498 0.52863 0.12406 0.0
C684 C 0.12311 0.54535 0.19913 0.0
C685 C 0.15274 0.5836 0.2142 0.0
C686 C 0.12115 0.52933 0.25007 0.0
C687 C 0.104 0.5296 0.29499 0.0
C688 C 0.08841 0.54593 0.28985 0.0
C689 C 0.0896 0.56118 0.23586 0.0
C690 C 0.10682 0.56083 0.19052 0.0
H691 H 0.16703 0.59418 0.22574 0.0
H692 H 0.14062 0.59315 0.18396 0.0
H693 H 0.14543 0.57884 0.26381 0.0
H694 H 0.1336 0.51727 0.25771 0.0
H695 H 0.10375 0.51778 0.33642 0.0
H696 H 0.96714 0.78903 0.33277 0.0
H697 H 0.95655 0.82711 0.32514 0.0
H698 H 0.97689 0.82916 0.11374 0.0
H699 H 0.98683 0.79133 0.1214 0.0
H700 H 0.98689 0.85608 0.31215 0.0
H701 H 0.92839 0.87062 0.09938 0.0
H702 H 0.93141 0.84419 0.13832 0.0
H703 H 0.94811 0.85252 0.06767 0.0
C704 C 0.96819 0.79748 0.28384 0.0
C705 C 0.97766 0.78746 0.22749 0.0
C706 C 0.96231 0.81919 0.2796 0.0
C707 C 0.96583 0.83105 0.21887 0.0
C708 C 0.97339 0.82033 0.1606 0.0
H709 H 0.04514 0.92401 0.10887 0.0
H710 H 0.02504 0.89884 0.1802 0.0
C711 C 0.9791 0.79866 0.16479 0.0
C712 C 0.9664 0.85497 0.21964 0.0
H713 H 0.95971 0.89674 0.10656 0.0
C714 C 0.98034 0.86518 0.26842 0.0
C715 C 0.95724 0.86726 0.16463 0.0
C716 C 0.94025 0.85803 0.11519 0.0
C717 C 0.98784 0.88633 0.25766 0.0
C718 C 0.98155 0.89725 0.19604 0.0
C719 C 0.96514 0.88821 0.15293 0.0
C720 C 0.99443 0.91551 0.1683 0.0
C721 C 1.00338 0.89621 0.31047 0.0
C722 C 0.98411 0.93356 0.13868 0.0
C723 C 0.9956 0.94786 0.09699 0.0
C724 C 0.01759 0.94431 0.08421 0.0
C725 C 0.02829 0.92727 0.11835 0.0
C726 C 0.01678 0.91292 0.1596 0.0
H727 H 0.99832 0.89197 0.36344 0.0
H728 H 0.01978 0.88946 0.30404 0.0
H729 H 1.0043 0.91406 0.3057 0.0
H730 H 0.96689 0.93588 0.14449 0.0
H731 H 0.98703 0.96106 0.07187 0.0
H732 H 0.77196 0.08485 0.22749 0.0
H733 H 0.74443 0.11243 0.201 0.0
H734 H 0.69772 0.06196 0.15267 0.0
H735 H 0.72521 0.03475 0.17743 0.0
H736 H 0.72501 0.11717 0.07228 0.0
H737 H 0.66197 0.10351 0.26264 0.0
H738 H 0.68948 0.09438 0.27689 0.0
H739 H 0.66998 0.07809 0.22858 0.0
C740 C 0.75564 0.07984 0.21241 0.0
C741 C 0.7505 0.05783 0.20459 0.0
C742 C 0.73998 0.0955 0.19768 0.0
C743 C 0.71894 0.08923 0.17616 0.0
C744 C 0.71367 0.06717 0.17117 0.0
H745 H 0.63664 0.09306 0.8742 0.0
H746 H 0.66878 0.1025 0.94224 0.0
C747 C 0.72933 0.05161 0.18514 0.0
C748 C 0.70318 0.10517 0.14888 0.0
H749 H 0.6487 0.1126 0.14397 0.0
C750 C 0.70843 0.1169 0.08929 0.0
C751 C 0.68174 0.10551 0.17219 0.0
C752 C 0.67557 0.09487 0.23914 0.0
C753 C 0.69215 0.12621 0.04705 0.0
C754 C 0.67024 0.12329 0.06452 0.0
C755 C 0.66545 0.11447 0.12942 0.0
C756 C 0.65245 0.12391 0.01139 0.0
C757 C 0.69845 0.13761 0.98153 0.0
C758 C 0.63255 0.13341 0.02558 0.0
C759 C 0.61391 0.12792 0.98633 0.0
C760 C 0.61489 0.11266 0.93288 0.0
C761 C 0.63524 0.10501 0.91438 0.0
C762 C 0.65379 0.11052 0.95339 0.0
H763 H 0.71371 0.147 0.99032 0.0
H764 H 0.70152 0.12546 0.94116 0.0
H765 H 0.68557 0.14867 0.96212 0.0
H766 H 0.63112 0.14375 0.07014 0.0
H767 H 0.5985 0.13441 1.00101 0.0
H768 H 0.50704 0.72557 0.16661 0.0
H769 H 0.48417 0.69488 0.13052 0.0
H770 H 0.42854 0.72563 0.21552 0.0
H771 H 0.45166 0.7568 0.24954 0.0
H772 H 0.4601 0.66722 0.20556 0.0
H773 H 0.40705 0.71295 0.01963 0.0
H774 H 0.43154 0.72462 0.05729 0.0
H775 H 0.40792 0.72141 0.1084 0.0
C776 C 0.48993 0.7256 0.17752 0.0
C777 C 0.48089 0.74327 0.21013 0.0
C778 C 0.47689 0.70817 0.15722 0.0
C779 C 0.45458 0.70807 0.16967 0.0
C780 C 0.4456 0.72556 0.2042 0.0
H781 H 0.41854 0.58106 0.01489 0.0
H782 H 0.41073 0.61109 0.09039 0.0
C783 C 0.45871 0.7432 0.22388 0.0
C784 C 0.44123 0.68959 0.1444 0.0
H785 H 0.40548 0.67531 0.0142 0.0
C786 C 0.4478 0.66887 0.16463 0.0
C787 C 0.42503 0.69196 0.09168 0.0
C788 C 0.41745 0.71389 0.06744 0.0
C789 C 0.44064 0.65053 0.12824 0.0
C790 C 0.42552 0.65296 0.07199 0.0
C791 C 0.41708 0.6735 0.05705 0.0
C792 C 0.42215 0.63564 0.01991 0.0
C793 C 0.45117 0.62922 0.14616 0.0
C794 C 0.42831 0.63967 0.95176 0.0
C795 C 0.43175 0.62259 0.907 0.0
C796 C 0.42975 0.60114 0.93026 0.0
C797 C 0.42067 0.5973 0.99521 0.0
C798 C 0.4165 0.6145 0.03917 0.0
H799 H 0.46505 0.63108 0.18369 0.0
H800 H 0.43913 0.61827 0.16988 0.0
H801 H 0.45721 0.62142 0.09909 0.0
H802 H 0.43228 0.65589 0.93482 0.0
H803 H 0.43769 0.62622 0.85611 0.0
H804 H 0.80556 0.49678 0.19854 0.0
H805 H 0.84494 0.4914 0.20178 0.0
H806 H 0.85472 0.55701 0.27103 0.0
H807 H 0.81525 0.56236 0.2657 0.0
H808 H 0.88278 0.54606 0.1732 0.0
H809 H 0.88211 0.48435 0.37759 0.0
H810 H 0.86659 0.47431 0.30459 0.0
H811 H 0.8577 0.49791 0.34908 0.0
C812 C 0.81629 0.51012 0.21239 0.0
C813 C 0.80773 0.53002 0.23089 0.0
C814 C 0.83863 0.50698 0.21573 0.0
C815 C 0.85267 0.52363 0.23864 0.0
C816 C 0.84413 0.54388 0.25408 0.0
H817 H 0.99215 0.5123 0.16909 0.0
H818 H 0.96197 0.52489 0.23732 0.0
C819 C 0.82175 0.54702 0.25032 0.0
C820 C 0.8763 0.51996 0.24358 0.0
H821 H 0.91371 0.48342 0.30135 0.0
C822 C 0.88974 0.53273 0.20254 0.0
C823 C 0.88534 0.50277 0.28292 0.0
C824 C 0.87212 0.48925 0.33151 0.0
C825 C 0.91148 0.52735 0.19387 0.0
C826 C 0.92003 0.50897 0.22856 0.0
C827 C 0.90711 0.49745 0.27469 0.0
C828 C 0.9402 0.49891 0.20577 0.0
C829 C 0.92449 0.54022 0.14282 0.0
C830 C 0.93846 0.47928 0.17031 0.0
C831 C 0.95554 0.47206 0.13163 0.0
C832 C 0.97475 0.48436 0.12768 0.0
C833 C 0.97736 0.50273 0.16983 0.0
C834 C 0.96017 0.50995 0.20881 0.0
H835 H 0.91458 0.55253 0.11483 0.0
H836 H 0.93805 0.54868 0.17061 0.0
H837 H 0.9315 0.52935 0.10414 0.0
H838 H 0.92319 0.47046 0.16748 0.0
H839 H 0.95276 0.45795 0.0997 0.0
H840 H 0.04688 0.25112 0.98917 0.0
H841 H 0.04193 0.21813 0.91965 0.0
H842 H 0.02308 0.18319 0.10196 0.0
H843 H 0.02711 0.21634 0.16986 0.0
H844 H 0.06383 0.18165 0.9305 0.0
H845 H 0.97772 0.16092 0.96917 0.0
H846 H 0.98913 0.18687 0.99278 0.0
H847 H 0.99262 0.16394 0.04958 0.0
C848 C 0.04071 0.23659 0.01333 0.0
C849 C 0.03682 0.23642 0.08445 0.0
C850 C 0.03823 0.21761 0.97398 0.0
C851 C 0.03182 0.19797 1.00488 0.0
C852 C 0.02737 0.19805 0.07579 0.0
H853 H 0.05947 0.06883 0.84297 0.0
H854 H 0.06035 0.10326 0.90461 0.0
C855 C 0.02962 0.21705 0.11476 0.0
C856 C 0.03118 0.17725 0.96435 0.0
H857 H 0.9995 0.13303 0.92385 0.0
C858 C 0.04965 0.17116 0.9286 0.0
C859 C 1.01274 0.16336 0.96117 0.0
C860 C 0.99186 0.16919 0.99464 0.0
C861 C 0.05029 0.15171 0.89094 0.0
C862 C 0.03213 0.13744 0.88989 0.0
C863 C 1.01356 0.14368 0.92481 0.0
C864 C 0.03184 0.11624 0.85199 0.0
C865 C 0.0704 0.14685 0.85179 0.0
C866 C 0.01524 0.11146 0.80277 0.0
C867 C 1.01457 0.0916 0.76787 0.0
C868 C 0.03048 0.07583 0.7811 0.0
C869 C 0.04707 0.08058 0.83059 0.0
C870 C 0.04765 0.10043 0.86579 0.0
H871 H 0.07984 0.16177 0.84069 0.0
H872 H 0.08097 0.13606 0.88362 0.0
H873 H 0.0663 0.13865 0.80214 0.0
H874 H 1.00275 0.12318 0.79102 0.0
H875 H 1.00148 0.08862 0.73046 0.0
H876 H 0.3191 0.01766 0.15393 0.0
H877 H 0.35205 0.01268 0.08812 0.0
H878 H 0.31501 0.02241 0.89807 0.0
H879 H 0.2822 0.02778 0.96473 0.0
H880 H 0.36787 0.98768 0.99519 0.0
H881 H 0.33752 0.05008 0.84675 0.0
H882 H 0.35927 0.06802 0.87225 0.0
H883 H 0.34063 0.05841 0.93551 0.0
C884 C 0.31795 0.01816 0.098 0.0
C885 C 0.29799 0.02288 0.06452 0.0
C886 C 0.33686 0.01544 0.06012 0.0
C887 C 0.33651 0.01782 0.98753 0.0
C888 C 0.31619 0.0212 0.95387 0.0
H889 H 0.44886 0.98621 0.73247 0.0
H890 H 0.41411 0.98609 0.79043 0.0
C891 C 0.29726 0.02387 0.99188 0.0
C892 C 0.35744 0.01754 0.94823 0.0
H893 H 0.38803 0.04636 0.83344 0.0
C894 C 0.37215 1.00055 0.95975 0.0
C895 C 0.36359 0.03438 0.90222 0.0
C896 C 0.34953 0.05384 0.88894 0.0
C897 C 0.39232 0.9998 0.92676 0.0
C898 C 0.39821 0.01638 0.87974 0.0
C899 C 0.38365 0.03348 0.86871 0.0
C900 C 0.41953 0.01653 0.84285 0.0
C901 C 0.40742 0.98145 0.94412 0.0
C902 C 0.43431 0.0339 0.85071 0.0
C903 C 0.45432 0.03403 0.8173 0.0
C904 C 0.46018 0.01689 0.7741 0.0
C905 C 0.44516 0.9997 0.76527 0.0
C906 C 0.4252 0.99953 0.79902 0.0
H907 H 0.40326 0.97335 0.99343 0.0
H908 H 0.40615 0.96925 0.90239 0.0
H909 H 0.4245 0.98722 0.9483 0.0
H910 H 0.43051 0.04732 0.88369 0.0
H911 H 0.46526 0.04761 0.82565 0.0
H912 H 0.55561 0.27861 0.97724 0.0
H913 H 0.55231 0.31249 0.91156 0.0
H914 H 0.49133 0.32456 1.00608 0.0
H915 H 0.49481 0.29056 0.0722 0.0
H916 H 0.52063 0.32972 0.81772 0.0
H917 H 0.52891 0.37812 0.05774 0.0
H918 H 0.53465 0.34963 0.05575 0.0
H919 H 0.50711 0.35864 0.0568 0.0
C920 C 0.54124 0.28825 0.98246 0.0
C921 C 0.52537 0.28186 0.02926 0.0
C922 C 0.53941 0.30768 0.94527 0.0
C923 C 0.52175 0.32138 0.95444 0.0
C924 C 0.50528 0.31449 0.99865 0.0
H925 H 0.49352 0.45283 0.8129 0.0
H926 H 0.49281 0.41675 0.86447 0.0
C927 C 0.50706 0.2949 0.03564 0.0
C928 C 0.52121 0.34316 0.92003 0.0
H929 H 0.52243 0.39742 0.9534 0.0
C930 C 0.521 0.34451 0.84743 0.0
C931 C 0.5219 0.36257 0.9585 0.0
C932 C 0.52336 0.36231 0.0365 0.0
C933 C 0.52101 0.3646 0.81247 0.0
C934 C 0.52168 0.38404 0.85093 0.0
C935 C 0.52188 0.38265 0.92358 0.0
C936 C 0.52202 0.40595 0.81709 0.0
C937 C 0.51985 0.3648 0.7345 0.0
C938 C 0.53874 0.41223 0.77308 0.0
C939 C 0.53921 0.43301 0.74319 0.0
C940 C 0.523 0.44813 0.75671 0.0
C941 C 0.50627 0.44173 0.80073 0.0
C942 C 0.50586 0.42102 0.83062 0.0
H943 H 0.51358 0.34921 0.71342 0.0
H944 H 0.50931 0.37799 0.71453 0.0
H945 H 0.53636 0.3675 0.7148 0.0
H946 H 0.5517 0.40119 0.7627 0.0
H947 H 0.55245 0.43728 0.71014 0.0
H948 H 0.25262 0.47747 0.04332 0.0
H949 H 0.21805 0.47543 0.97694 0.0
H950 H 0.236 0.53257 0.86325 0.0
H951 H 0.27059 0.53433 0.92955 0.0
H952 H 0.19599 0.53527 0.93365 0.0
H953 H 0.19848 0.46123 0.77384 0.0
H954 H 0.20699 0.45799 0.86301 0.0
H955 H 0.22271 0.47472 0.80698 0.0
C956 C 0.24962 0.48881 1.00143 0.0
C957 C 0.26451 0.50566 0.98996 0.0
C958 C 0.22978 0.48782 0.96398 0.0
C959 C 0.22438 0.50378 0.91457 0.0
C960 C 0.2398 0.51996 0.90054 0.0
H961 H 0.10411 0.51154 0.65942 0.0
H962 H 0.14218 0.51033 0.70017 0.0
C963 C 0.2597 0.5208 0.93759 0.0
C964 C 0.20191 0.50504 0.88371 0.0
H965 H 0.16416 0.47789 0.78301 0.0
C966 C 0.18911 0.5228 0.90021 0.0
C967 C 0.19284 0.48879 0.84023 0.0
C968 C 0.20596 0.46965 0.81932 0.0
C969 C 0.1674 0.52443 0.87628 0.0
C970 C 0.15816 0.50797 0.83378 0.0
C971 C 0.17114 0.49049 0.81566 0.0
C972 C 0.13497 0.50849 0.80875 0.0
C973 C 0.15452 0.54377 0.89704 0.0
C974 C 0.11814 0.50759 0.85593 0.0
C975 C 0.09639 0.5082 0.83281 0.0
C976 C 0.09082 0.50973 0.76174 0.0
C977 C 0.10772 0.51046 0.71445 0.0
C978 C 0.12952 0.50971 0.7377 0.0
H979 H 0.16523 0.55736 0.91434 0.0
H980 H 0.14383 0.54944 0.85359 0.0
H981 H 0.14417 0.53918 0.94076 0.0
H982 H 0.12183 0.5063 0.91088 0.0
H983 H 0.08393 0.50751 0.87095 0.0
H984 H 1.00951 0.77134 0.41816 0.0
H985 H 1.01463 0.80495 0.48421 0.0
H986 H 0.02767 0.83936 0.29533 0.0
H987 H 0.02362 0.80555 0.23062 0.0
H988 H 0.05215 0.85579 0.39402 0.0
H989 H 0.96929 0.84965 0.4934 0.0
H990 H 0.98585 0.82761 0.52252 0.0
H991 H 0.97925 0.8308 0.43177 0.0
C992 C 1.01422 0.78597 0.39145 0.0
C993 C 0.01634 0.78579 0.31939 0.0
C994 C 0.01668 0.80534 0.42888 0.0
C995 C 0.02087 0.8251 0.39489 0.0
C996 C 0.0243 0.82457 0.32331 0.0
H997 H 0.02121 0.96302 0.49045 0.0
H998 H 0.0216 0.92742 0.43645 0.0
C999 C 0.02212 0.80519 0.28621 0.0
C1000 C 0.02112 0.84634 0.4328 0.0
H1001 H 0.99139 0.8783 0.53804 0.0
C1002 C 0.03882 0.86062 0.42545 0.0
C1003 C 1.00369 0.85307 0.47365 0.0
C1004 C 0.98335 0.83959 0.48028 0.0
C1005 C 0.03969 0.88101 0.45793 0.0
C1006 C 0.02238 0.88759 0.49913 0.0
C1007 C 1.00478 0.8733 0.5071 0.0
C1008 C 0.02195 0.90944 0.53261 0.0
C1009 C 0.05928 0.89532 0.4481 0.0
C1010 C 0.02147 0.91146 0.60497 0.0
C1011 C 0.02125 0.93194 0.6363 0.0
C1012 C 0.02121 0.95098 0.59603 0.0
C1013 C 0.02128 0.94884 0.52348 0.0
C1014 C 0.02165 0.9284 0.49231 0.0
H1015 H 0.07336 0.88603 0.43046 0.0
H1016 H 0.05532 0.90772 0.40819 0.0
H1017 H 0.06404 0.90376 0.49682 0.0
H1018 H 0.02154 0.89716 0.63742 0.0
H1019 H 0.02116 0.93282 0.69217 0.0
H1020 H 0.73723 0.99014 0.24661 0.0
H1021 H 0.70419 0.98694 0.31475 0.0
H1022 H 0.72308 0.04445 0.42667 0.0
H1023 H 0.75555 0.04782 0.35742 0.0
H1024 H 0.69374 0.98231 0.44765 0.0
H1025 H 0.66409 0.06219 0.36189 0.0
H1026 H 0.68718 0.04974 0.32432 0.0
H1027 H 0.69019 0.06418 0.40466 0.0
C1028 C 0.7345 1.00178 0.28685 0.0
C1029 C 0.74912 0.01917 0.29681 0.0
C1030 C 0.71546 1.0001 0.32555 0.0
C1031 C 0.71048 0.0158 0.37515 0.0
C1032 C 0.72584 0.03245 0.38757 0.0
H1033 H 0.60317 0.03786 0.65794 0.0
H1034 H 0.63778 0.03797 0.59836 0.0
C1035 C 0.74468 0.0342 0.34866 0.0
C1036 C 0.68929 0.01508 0.41303 0.0
H1037 H 0.64533 0.04556 0.45423 0.0
C1038 C 0.68317 0.99615 0.44856 0.0
C1039 C 0.67506 0.03298 0.41465 0.0
C1040 C 0.67932 0.05332 0.37375 0.0
C1041 C 0.66386 0.99485 0.48641 0.0
C1042 C 0.6499 0.01288 0.48905 0.0
C1043 C 0.65595 0.03175 0.45331 0.0
C1044 C 0.62881 0.01236 0.52715 0.0
C1045 C 0.65878 0.97423 0.52464 0.0
C1046 C 0.61186 0.99807 0.50747 0.0
C1047 C 0.59193 0.99808 0.54125 0.0
C1048 C 0.58822 0.0123 0.59635 0.0
C1049 C 0.60529 0.0265 0.61641 0.0
C1050 C 0.62517 0.02664 0.582 0.0
H1051 H 0.67332 0.96395 0.53189 0.0
H1052 H 0.65218 0.9777 0.57609 0.0
H1053 H 0.64634 0.96489 0.49446 0.0
H1054 H 0.61386 0.9871 0.46482 0.0
H1055 H 0.57932 0.98695 0.5236 0.0
H1056 H 0.48323 0.74239 0.35595 0.0
H1057 H 0.48785 0.70924 0.42273 0.0
H1058 H 0.55486 0.70708 0.36631 0.0
H1059 H 0.54941 0.73917 0.29308 0.0
H1060 H 0.54118 0.66946 0.35861 0.0
H1061 H 0.51072 0.69661 0.60698 0.0
H1062 H 0.4899 0.70025 0.54177 0.0
H1063 H 0.5151 0.71522 0.53685 0.0
C1064 C 0.49898 0.73489 0.35798 0.0
C1065 C 0.51594 0.74359 0.31923 0.0
C1066 C 0.50176 0.71601 0.3974 0.0
C1067 C 0.52191 0.70559 0.40195 0.0
C1068 C 0.53913 0.71466 0.36469 0.0
H1069 H 0.53527 0.59583 0.69695 0.0
H1070 H 0.53618 0.63182 0.64276 0.0
C1071 C 0.53615 0.7333 0.32349 0.0
C1072 C 0.52447 0.68457 0.44131 0.0
H1073 H 0.51025 0.65801 0.5894 0.0
C1074 C 0.53465 0.66717 0.40955 0.0
C1075 C 0.51654 0.68124 0.50882 0.0
C1076 C 0.50771 0.69944 0.55075 0.0
C1077 C 0.53649 0.64673 0.4417 0.0
C1078 C 0.52679 0.64287 0.50639 0.0
C1079 C 0.51729 0.66047 0.5393 0.0
C1080 C 0.52616 0.62084 0.5403 0.0
C1081 C 0.54943 0.62974 0.40615 0.0
C1082 C 0.51976 0.60242 0.5022 0.0
C1083 C 0.51991 0.58182 0.53272 0.0
C1084 C 0.52556 0.57899 0.60317 0.0
C1085 C 0.53088 0.59743 0.64254 0.0
C1086 C 0.53138 0.61805 0.61137 0.0
H1087 H 0.56221 0.63724 0.37436 0.0
H1088 H 0.55733 0.61854 0.44385 0.0
H1089 H 0.53852 0.62035 0.37064 0.0
H1090 H 0.51456 0.60388 0.44849 0.0
H1091 H 0.5153 0.56803 0.50111 0.0
H1092 H 0.79249 0.49192 0.3567 0.0
H1093 H 0.82508 0.48863 0.43209 0.0
H1094 H 0.82598 0.55754 0.46148 0.0
H1095 H 0.79316 0.56059 0.38698 0.0
H1096 H 0.86454 0.53892 0.40198 0.0
H1097 H 0.84136 0.49643 0.64282 0.0
H1098 H 0.83081 0.48534 0.56271 0.0
H1099 H 0.82212 0.51143 0.58969 0.0
C1100 C 0.79895 0.50613 0.38272 0.0
C1101 C 0.79001 0.52643 0.3677 0.0
C1102 C 0.81773 0.50431 0.42511 0.0
C1103 C 0.82804 0.52284 0.45276 0.0
C1104 C 0.81829 0.54299 0.44129 0.0
H1105 H 0.95864 0.55015 0.62036 0.0
H1106 H 0.92169 0.55211 0.57206 0.0
C1107 C 0.79936 0.54473 0.39965 0.0
C1108 C 0.8502 0.52152 0.48579 0.0
H1109 H 0.87888 0.50133 0.62537 0.0
C1110 C 0.86766 0.53085 0.45113 0.0
C1111 C 0.85437 0.5106 0.54911 0.0
C1112 C 0.83622 0.50046 0.58878 0.0
C1113 C 0.88914 0.52922 0.47716 0.0
C1114 C 0.89334 0.51881 0.54165 0.0
C1115 C 0.87582 0.50943 0.57627 0.0
C1116 C 0.91572 0.51762 0.57403 0.0
C1117 C 0.90717 0.53798 0.43371 0.0
C1118 C 0.92459 0.49768 0.59473 0.0
C1119 C 0.94571 0.49655 0.62383 0.0
C1120 C 0.95852 0.51534 0.63285 0.0
C1121 C 0.94942 0.5353 0.61355 0.0
C1122 C 0.92826 0.53644 0.58521 0.0
H1123 H 0.90208 0.53912 0.37823 0.0
H1124 H 0.91165 0.55448 0.45136 0.0
H1125 H 0.92176 0.52768 0.43829 0.0
H1126 H 0.9153 0.4829 0.58732 0.0
H1127 H 0.95214 0.48089 0.63805 0.0
loop_
_geom_bond_atom_site_label_1
_geom_bond_atom_site_label_2
_geom_bond_distance
_geom_bond_site_symmetry_2
_ccdc_geom_bond_type
C0 N1 1.317 . S
C0 N2 1.348 . S
C0 C3 1.485 . S
N1 C0 1.317 . S
N1 N5 1.370 . S
N2 C0 1.348 . S
N2 C4 1.346 . S
C3 C0 1.485 . S
C3 H7 0.960 . S
C3 H8 0.961 . S
C3 H9 0.960 . S
C4 N2 1.346 . S
C4 N5 1.307 . S
C4 C6 1.486 . S
N5 N1 1.370 . S
N5 C4 1.307 . S
C6 C4 1.486 . S
C6 H10 0.960 . S
C6 H11 0.960 . S
C6 H12 0.959 . S
H7 C3 0.960 . S
H8 C3 0.961 . S
H9 C3 0.960 . S
H10 C6 0.960 . S
H11 C6 0.960 . S
H12 C6 0.959 . S
C13 N14 1.317 . S
C13 N15 1.348 . S
C13 C16 1.485 . S
N14 C13 1.317 . S
N14 N18 1.370 . S
N15 C13 1.348 . S
N15 C17 1.346 . S
C16 C13 1.485 . S
C16 H20 0.960 . S
C16 H21 0.961 . S
C16 H22 0.960 . S
C17 N15 1.346 . S
C17 N18 1.307 . S
C17 C19 1.486 . S
N18 N14 1.370 . S
N18 C17 1.307 . S
C19 C17 1.486 . S
C19 H23 0.960 . S
C19 H24 0.960 . S
C19 H25 0.959 . S
H20 C16 0.960 . S
H21 C16 0.961 . S
H22 C16 0.960 . S
H23 C19 0.960 . S
H24 C19 0.960 . S
H25 C19 0.959 . S
C26 N27 1.317 . S
C26 N28 1.348 . S
C26 C29 1.485 . S
N27 C26 1.317 . S
N27 N31 1.370 . S
N28 C26 1.348 . S
N28 C30 1.346 . S
C29 C26 1.485 . S
C29 H33 0.960 . S
C29 H34 0.961 . S
C29 H35 0.960 . S
C30 N28 1.346 . S
C30 N31 1.307 . S
C30 C32 1.486 . S
N31 N27 1.370 . S
N31 C30 1.307 . S
C32 C30 1.486 . S
C32 H36 0.960 . S
C32 H37 0.960 . S
C32 H38 0.959 . S
H33 C29 0.960 . S
H34 C29 0.961 . S
H35 C29 0.960 . S
H36 C32 0.960 . S
H37 C32 0.960 . S
H38 C32 0.959 . S
C39 N40 1.317 . S
C39 N41 1.348 . S
C39 C42 1.485 . S
N40 C39 1.317 . S
N40 N44 1.370 . S
N41 C39 1.348 . S
N41 C43 1.346 . S
C42 C39 1.485 . S
C42 H46 0.960 . S
C42 H47 0.961 . S
C42 H48 0.960 . S
C43 N41 1.346 . S
C43 N44 1.307 . S
C43 C45 1.486 . S
N44 N40 1.370 . S
N44 C43 1.307 . S
C45 C43 1.486 . S
C45 H49 0.960 . S
C45 H50 0.960 . S
C45 H51 0.959 . S
H46 C42 0.960 . S
H47 C42 0.961 . S
H48 C42 0.960 . S
H49 C45 0.960 . S
H50 C45 0.960 . S
H51 C45 0.959 . S
C52 N53 1.317 . S
C52 N54 1.348 . S
C52 C55 1.485 1_554 S
N53 C52 1.317 . S
N53 N57 1.370 . S
N54 C52 1.348 . S
N54 C56 1.346 . S
C55 C52 1.485 1_556 S
C55 H59 0.960 . S
C55 H60 0.961 . S
C55 H61 0.960 . S
C56 N54 1.346 . S
C56 N57 1.307 . S
C56 C58 1.486 . S
N57 N53 1.370 . S
N57 C56 1.307 . S
C58 C56 1.486 . S
C58 H62 0.960 . S
C58 H63 0.960 . S
C58 H64 0.959 . S
H59 C55 0.960 . S
H60 C55 0.961 . S
H61 C55 0.960 . S
H62 C58 0.960 . S
H63 C58 0.960 . S
H64 C58 0.959 . S
C65 N66 1.317 . S
C65 N67 1.348 . S
C65 C68 1.485 1_554 S
N66 C65 1.317 . S
N66 N70 1.370 . S
N67 C65 1.348 . S
N67 C69 1.346 . S
C68 C65 1.485 1_556 S
C68 H72 0.960 . S
C68 H73 0.961 . S
C68 H74 0.960 . S
C69 N67 1.346 . S
C69 N70 1.307 . S
C69 C71 1.486 . S
N70 N66 1.370 . S
N70 C69 1.307 . S
C71 C69 1.486 . S
C71 H75 0.960 . S
C71 H76 0.960 . S
C71 H77 0.959 . S
H72 C68 0.960 . S
H73 C68 0.961 . S
H74 C68 0.960 . S
H75 C71 0.960 . S
H76 C71 0.960 . S
H77 C71 0.959 . S
C78 N79 1.317 . S
C78 N80 1.348 1_556 S
C78 C81 1.485 . S
N79 C78 1.317 . S
N79 N83 1.370 1_556 S
N80 C78 1.348 1_554 S
N80 C82 1.346 . S
C81 C78 1.485 . S
C81 H85 0.960 . S
C81 H86 0.961 . S
C81 H87 0.960 . S
C82 N80 1.346 . S
C82 N83 1.307 . S
C82 C84 1.486 . S
N83 N79 1.370 1_554 S
N83 C82 1.307 . S
C84 C82 1.486 . S
C84 H88 0.960 . S
C84 H89 0.960 . S
C84 H90 0.959 . S
H85 C81 0.960 . S
H86 C81 0.961 . S
H87 C81 0.960 . S
H88 C84 0.960 . S
H89 C84 0.960 . S
H90 C84 0.959 . S
C91 N92 1.317 . S
C91 N93 1.348 . S
C91 C94 1.485 1_554 S
N92 C91 1.317 . S
N92 N96 1.370 . S
N93 C91 1.348 . S
N93 C95 1.346 . S
C94 C91 1.485 1_556 S
C94 H98 0.960 . S
C94 H99 0.961 . S
C94 H100 0.960 . S
C95 N93 1.346 . S
C95 N96 1.307 . S
C95 C97 1.486 . S
N96 N92 1.370 . S
N96 C95 1.307 . S
C97 C95 1.486 . S
C97 H101 0.960 . S
C97 H102 0.960 . S
C97 H103 0.959 . S
H98 C94 0.960 . S
H99 C94 0.961 . S
H100 C94 0.960 . S
H101 C97 0.960 . S
H102 C97 0.960 . S
H103 C97 0.959 . S
Eu104 C113 2.828 . S
Eu104 O115 2.392 . S
Eu104 O117 2.418 1_545 S
Eu104 O122 2.373 1_655 S
Eu104 O125 2.488 . S
Eu104 O126 2.471 1_655 S
Eu104 O127 2.349 1_655 S
Eu105 O114 2.373 1_455 S
Eu105 O118 2.488 . S
Eu105 O119 2.471 . S
Eu105 O120 2.349 . S
Eu105 O123 2.392 1_565 S
Eu105 O124 2.418 1_565 S
Eu105 C134 2.828 . S
C106 O124 1.244 . S
C106 O127 1.265 . S
C107 C108 1.379 . S
C107 C111 1.373 1_455 S
C107 C113 1.505 1_455 S
C108 C107 1.379 . S
C108 C110 1.369 . S
C108 H136 0.930 . S
C109 C111 1.383 . S
C109 C112 1.382 1_655 S
C109 H137 0.930 . S
C110 C108 1.369 . S
C110 C112 1.392 . S
C110 H138 0.930 . S
C111 C107 1.373 1_655 S
C111 C109 1.383 . S
C111 H139 0.931 . S
C112 C109 1.382 1_455 S
C112 C110 1.392 . S
C113 Eu104 2.828 . S
C113 C107 1.505 1_655 S
C113 O125 1.249 . S
C113 O126 1.244 1_655 S
O114 Eu105 2.373 1_655 S
O114 C116 1.258 1_565 S
O115 Eu104 2.392 . S
O115 C116 1.242 . S
C116 O114 1.258 1_545 S
C116 O115 1.242 . S
O117 Eu104 2.418 1_565 S
O117 C121 1.244 . S
O118 Eu105 2.488 . S
O118 C134 1.249 . S
O119 Eu105 2.471 . S
O119 C134 1.244 . S
O120 Eu105 2.349 . S
O120 C121 1.265 1_455 S
C121 O117 1.244 . S
C121 O120 1.265 1_655 S
O122 Eu104 2.373 1_455 S
O122 C135 1.258 . S
O123 Eu105 2.392 1_545 S
O123 C135 1.242 . S
O124 Eu105 2.418 1_545 S
O124 C106 1.244 . S
O125 Eu104 2.488 . S
O125 C113 1.249 . S
O126 Eu104 2.471 1_455 S
O126 C113 1.244 1_455 S
O127 Eu104 2.349 1_455 S
O127 C106 1.265 . S
C128 C129 1.379 . S
C128 C132 1.373 . S
C128 C134 1.505 . S
C129 C128 1.379 . S
C129 C131 1.369 . S
C129 H140 0.930 1_455 S
C130 C132 1.383 1_554 S
C130 C133 1.382 . S
C130 H141 0.930 . S
C131 C129 1.369 . S
C131 C133 1.392 1_556 S
C131 H142 0.930 1_455 S
C132 C128 1.373 . S
C132 C130 1.383 1_556 S
C132 H143 0.931 . S
C133 C130 1.382 . S
C133 C131 1.392 1_554 S
C134 Eu105 2.828 . S
C134 O118 1.249 . S
C134 O119 1.244 . S
C134 C128 1.505 . S
C135 O122 1.258 . S
C135 O123 1.242 . S
H136 C108 0.930 . S
H137 C109 0.930 . S
H138 C110 0.930 . S
H139 C111 0.931 . S
H140 C129 0.930 1_655 S
H141 C130 0.930 . S
H142 C131 0.930 1_655 S
H143 C132 0.931 . S
Eu144 C153 2.828 . S
Eu144 O155 2.392 . S
Eu144 O157 2.418 . S
Eu144 O162 2.373 . S
Eu144 O165 2.488 . S
Eu144 O166 2.471 . S
Eu144 O167 2.349 1_545 S
Eu145 O154 2.373 1_565 S
Eu145 O158 2.488 . S
Eu145 O159 2.471 1_565 S
Eu145 O160 2.349 1_565 S
Eu145 O163 2.392 . S
Eu145 O164 2.418 . S
Eu145 C174 2.828 . S
C146 O164 1.244 . S
C146 O167 1.265 . S
C147 C148 1.379 . S
C147 C151 1.373 . S
C147 C153 1.505 . S
C148 C147 1.379 . S
C148 C150 1.373 . S
C148 H176 0.930 1_545 S
C149 C151 1.383 . S
C149 C152 1.382 . S
C149 H177 0.930 . S
C150 C148 1.373 . S
C150 C152 1.435 . S
C150 H178 0.884 1_545 S
C151 C147 1.373 . S
C151 C149 1.383 . S
C151 H179 0.931 . S
C152 C149 1.382 . S
C152 C150 1.435 . S
C153 Eu144 2.828 . S
C153 C147 1.505 . S
C153 O165 1.249 . S
C153 O166 1.244 . S
O154 Eu145 2.373 1_545 S
O154 C156 1.258 . S
O155 Eu144 2.392 . S
O155 C156 1.242 . S
C156 O154 1.258 . S
C156 O155 1.242 . S
O157 Eu144 2.418 . S
O157 C161 1.244 . S
O158 Eu145 2.488 . S
O158 C174 1.249 . S
O159 Eu145 2.471 1_545 S
O159 C174 1.244 1_545 S
O160 Eu145 2.349 1_545 S
O160 C161 1.265 . S
C161 O157 1.244 . S
C161 O160 1.265 . S
O162 Eu144 2.373 . S
O162 C175 1.258 1_545 S
O163 Eu145 2.392 . S
O163 C175 1.242 . S
O164 Eu145 2.418 . S
O164 C146 1.244 . S
O165 Eu144 2.488 . S
O165 C153 1.249 . S
O166 Eu144 2.471 . S
O166 C153 1.244 . S
O167 Eu144 2.349 1_565 S
O167 C146 1.265 . S
C168 C169 1.379 1_565 S
C168 C172 1.373 . S
C168 C174 1.505 . S
C169 C168 1.379 1_545 S
C169 C171 1.369 . S
C169 H180 0.930 . S
C170 C172 1.383 . S
C170 C173 1.382 . S
C170 H181 0.930 . S
C171 C169 1.369 . S
C171 C173 1.392 1_545 S
C171 H182 0.930 . S
C172 C168 1.373 . S
C172 C170 1.383 . S
C172 H183 0.931 . S
C173 C170 1.382 . S
C173 C171 1.392 1_565 S
C174 Eu145 2.828 . S
C174 O158 1.249 . S
C174 O159 1.244 1_565 S
C174 C168 1.505 . S
C175 O162 1.258 1_565 S
C175 O163 1.242 . S
H176 C148 0.930 1_565 S
H177 C149 0.930 . S
H178 C150 0.884 1_565 S
H179 C151 0.931 . S
H180 C169 0.930 . S
H181 C170 0.930 . S
H182 C171 0.930 . S
H183 C172 0.931 . S
Eu184 C193 2.828 . S
Eu184 O195 2.392 . S
Eu184 O197 2.418 . S
Eu184 O202 2.373 . S
Eu184 O205 2.488 . S
Eu184 O206 2.471 . S
Eu184 O207 2.349 . S
Eu185 O194 2.373 . S
Eu185 O198 2.488 . S
Eu185 O199 2.471 . S
Eu185 O200 2.349 . S
Eu185 O203 2.392 . S
Eu185 O204 2.418 . S
Eu185 C214 2.828 . S
C186 O204 1.244 . S
C186 O207 1.265 . S
C187 C188 1.379 . S
C187 C191 1.373 . S
C187 C193 1.505 . S
C188 C187 1.379 . S
C188 C190 1.369 . S
C188 H216 0.930 . S
C189 C191 1.383 . S
C189 C192 1.382 . S
C189 H217 0.930 . S
C190 C188 1.369 . S
C190 C192 1.392 . S
C190 H218 0.930 . S
C191 C187 1.373 . S
C191 C189 1.383 . S
C191 H219 0.931 . S
C192 C189 1.382 . S
C192 C190 1.392 . S
C193 Eu184 2.828 . S
C193 C187 1.505 . S
C193 O205 1.249 . S
C193 O206 1.244 . S
O194 Eu185 2.373 . S
O194 C196 1.258 . S
O195 Eu184 2.392 . S
O195 C196 1.242 . S
C196 O194 1.258 . S
C196 O195 1.242 . S
O197 Eu184 2.418 . S
O197 C201 1.244 . S
O198 Eu185 2.488 . S
O198 C214 1.249 . S
O199 Eu185 2.471 . S
O199 C214 1.244 . S
O200 Eu185 2.349 . S
O200 C201 1.265 . S
C201 O197 1.244 . S
C201 O200 1.265 . S
O202 Eu184 2.373 . S
O202 C215 1.258 . S
O203 Eu185 2.392 . S
O203 C215 1.242 . S
O204 Eu185 2.418 . S
O204 C186 1.244 . S
O205 Eu184 2.488 . S
O205 C193 1.249 . S
O206 Eu184 2.471 . S
O206 C193 1.244 . S
O207 Eu184 2.349 . S
O207 C186 1.265 . S
C208 C209 1.379 . S
C208 C212 1.373 . S
C208 C214 1.505 . S
C209 C208 1.379 . S
C209 C211 1.369 . S
C209 H220 0.930 . S
C210 C212 1.383 . S
C210 C213 1.382 . S
C210 H221 0.930 . S
C211 C209 1.369 . S
C211 C213 1.392 . S
C211 H222 0.930 . S
C212 C208 1.373 . S
C212 C210 1.383 . S
C212 H223 0.931 . S
C213 C210 1.382 . S
C213 C211 1.392 . S
C214 Eu185 2.828 . S
C214 O198 1.249 . S
C214 O199 1.244 . S
C214 C208 1.505 . S
C215 O202 1.258 . S
C215 O203 1.242 . S
H216 C188 0.930 . S
H217 C189 0.930 . S
H218 C190 0.930 . S
H219 C191 0.931 . S
H220 C209 0.930 . S
H221 C210 0.930 . S
H222 C211 0.930 . S
H223 C212 0.931 . S
Eu224 C233 2.828 . S
Eu224 O235 2.392 . S
Eu224 O237 2.418 1_455 S
Eu224 O242 2.373 . S
Eu224 O245 2.488 . S
Eu224 O246 2.471 . S
Eu224 O247 2.349 . S
Eu225 O234 2.372 1_655 S
Eu225 O238 2.488 . S
Eu225 O239 2.471 . S
Eu225 O240 2.349 . S
Eu225 O243 2.392 1_655 S
Eu225 O244 2.418 1_655 S
Eu225 C254 2.828 . S
C226 O244 1.244 . S
C226 O247 1.265 . S
C227 C228 1.379 . S
C227 C231 1.373 . S
C227 C233 1.505 . S
C228 C227 1.379 . S
C228 C230 1.369 . S
C228 H256 0.930 . S
C229 C231 1.383 . S
C229 C232 1.382 . S
C229 H257 0.930 . S
C230 C228 1.369 . S
C230 C232 1.392 . S
C230 H258 0.930 . S
C231 C227 1.373 . S
C231 C229 1.383 . S
C231 H259 0.931 . S
C232 C229 1.382 . S
C232 C230 1.392 . S
C233 Eu224 2.828 . S
C233 C227 1.505 . S
C233 O245 1.249 . S
C233 O246 1.244 . S
O234 Eu225 2.372 1_455 S
O234 C236 1.261 . S
O235 Eu224 2.392 . S
O235 C236 1.242 . S
C236 O234 1.261 . S
C236 O235 1.242 . S
O237 Eu224 2.418 1_655 S
O237 C241 1.244 . S
O238 Eu225 2.488 . S
O238 C254 1.249 . S
O239 Eu225 2.471 . S
O239 C254 1.244 . S
O240 Eu225 2.349 . S
O240 C241 1.265 . S
C241 O237 1.244 . S
C241 O240 1.265 . S
O242 Eu224 2.373 . S
O242 C255 1.258 . S
O243 Eu225 2.392 1_455 S
O243 C255 1.242 . S
O244 Eu225 2.418 1_455 S
O244 C226 1.244 . S
O245 Eu224 2.488 . S
O245 C233 1.249 . S
O246 Eu224 2.471 . S
O246 C233 1.244 . S
O247 Eu224 2.349 . S
O247 C226 1.265 . S
C248 C249 1.379 . S
C248 C252 1.373 . S
C248 C254 1.505 . S
C249 C248 1.379 . S
C249 C251 1.369 . S
C249 H260 0.930 . S
C250 C252 1.383 . S
C250 C253 1.382 . S
C250 H261 0.930 1_556 S
C251 C249 1.369 . S
C251 C253 1.392 . S
C251 H262 0.930 . S
C252 C248 1.373 . S
C252 C250 1.383 . S
C252 H263 0.931 . S
C253 C250 1.382 . S
C253 C251 1.392 . S
C254 Eu225 2.828 . S
C254 O238 1.249 . S
C254 O239 1.244 . S
C254 C248 1.505 . S
C255 O242 1.258 . S
C255 O243 1.242 . S
H256 C228 0.930 . S
H257 C229 0.930 . S
H258 C230 0.930 . S
H259 C231 0.931 . S
H260 C249 0.930 . S
H261 C250 0.930 1_554 S
H262 C251 0.930 . S
H263 C252 0.931 . S
H264 C272 0.929 . S
H265 C274 0.930 . S
H266 C276 0.930 . S
H267 C279 0.929 . S
H268 C282 0.930 . S
H269 C284 0.960 . S
H270 C284 0.960 . S
H271 C284 0.960 . S
C272 H264 0.929 . S
C272 C273 1.377 . S
C272 C274 1.384 . S
C273 C272 1.377 . S
C273 C279 1.390 . S
C274 H265 0.930 . S
C274 C272 1.384 . S
C274 C275 1.372 . S
C275 C274 1.372 . S
C275 C276 1.400 . S
C275 C280 1.490 . S
C276 H266 0.930 . S
C276 C275 1.400 . S
C276 C279 1.386 . S
H277 C293 0.930 1_565 S
H278 C294 0.931 1_565 S
C279 H267 0.929 . S
C279 C273 1.390 . S
C279 C276 1.386 . S
C280 C275 1.490 . S
C280 C282 1.395 . S
C280 C283 1.403 . S
H281 C287 0.930 . S
C282 H268 0.930 . S
C282 C280 1.395 . S
C282 C285 1.403 . S
C283 C280 1.403 . S
C283 C284 1.524 . S
C283 C287 1.400 . S
C284 H269 0.960 . S
C284 H270 0.960 . S
C284 H271 0.960 . S
C284 C283 1.524 . S
C285 C282 1.403 . S
C285 C286 1.392 . S
C285 C289 1.495 . S
C286 C285 1.392 . S
C286 C287 1.385 . S
C286 C288 1.478 . S
C287 H281 0.930 . S
C287 C283 1.400 . S
C287 C286 1.385 . S
C288 C286 1.478 . S
C288 C290 1.381 . S
C288 C294 1.383 . S
C289 C285 1.495 . S
C289 H295 0.959 . S
C289 H296 0.961 . S
C289 H297 0.960 . S
C290 C288 1.381 . S
C290 C291 1.394 . S
C290 H298 0.930 . S
C291 C290 1.394 . S
C291 C292 1.383 . S
C291 H299 0.929 . S
C292 C291 1.383 . S
C292 C293 1.377 . S
C293 H277 0.930 1_545 S
C293 C292 1.377 . S
C293 C294 1.379 . S
C294 H278 0.931 1_545 S
C294 C288 1.383 . S
C294 C293 1.379 . S
H295 C289 0.959 . S
H296 C289 0.961 . S
H297 C289 0.960 . S
H298 C290 0.930 . S
H299 C291 0.929 . S
H300 C308 0.929 . S
H301 C310 0.930 . S
H302 C312 0.930 . S
H303 C315 0.929 . S
H304 C318 0.930 . S
H305 C320 0.960 . S
H306 C320 0.960 . S
H307 C320 0.960 . S
C308 H300 0.929 . S
C308 C309 1.377 . S
C308 C310 1.384 . S
C309 C308 1.377 . S
C309 C315 1.390 . S
C310 H301 0.930 . S
C310 C308 1.384 . S
C310 C311 1.372 . S
C311 C310 1.372 . S
C311 C312 1.400 . S
C311 C316 1.490 . S
C312 H302 0.930 . S
C312 C311 1.400 . S
C312 C315 1.386 . S
H313 C329 0.930 . S
H314 C330 0.931 . S
C315 H303 0.929 . S
C315 C309 1.390 . S
C315 C312 1.386 . S
C316 C311 1.490 . S
C316 C318 1.395 . S
C316 C319 1.403 . S
H317 C323 0.930 . S
C318 H304 0.930 . S
C318 C316 1.395 . S
C318 C321 1.403 . S
C319 C316 1.403 . S
C319 C320 1.524 . S
C319 C323 1.400 . S
C320 H305 0.960 . S
C320 H306 0.960 . S
C320 H307 0.960 . S
C320 C319 1.524 . S
C321 C318 1.403 . S
C321 C322 1.392 . S
C321 C325 1.495 . S
C322 C321 1.392 . S
C322 C323 1.385 . S
C322 C324 1.478 . S
C323 H317 0.930 . S
C323 C319 1.400 . S
C323 C322 1.385 . S
C324 C322 1.478 . S
C324 C326 1.381 . S
C324 C330 1.383 . S
C325 C321 1.495 . S
C325 H331 0.959 . S
C325 H332 0.961 . S
C325 H333 0.960 . S
C326 C324 1.381 . S
C326 C327 1.394 . S
C326 H334 0.930 . S
C327 C326 1.394 . S
C327 C328 1.383 . S
C327 H335 0.929 . S
C328 C327 1.383 . S
C328 C329 1.377 . S
C329 H313 0.930 . S
C329 C328 1.377 . S
C329 C330 1.379 . S
C330 H314 0.931 . S
C330 C324 1.383 . S
C330 C329 1.379 . S
H331 C325 0.959 . S
H332 C325 0.961 . S
H333 C325 0.960 . S
H334 C326 0.930 . S
H335 C327 0.929 . S
H336 C344 0.929 . S
H337 C346 0.930 . S
H338 C348 0.930 . S
H339 C351 0.929 . S
H340 C354 0.930 . S
H341 C356 0.960 . S
H342 C356 0.960 . S
H343 C356 0.960 . S
C344 H336 0.929 . S
C344 C345 1.377 . S
C344 C346 1.384 . S
C345 C344 1.377 . S
C345 C351 1.390 . S
C346 H337 0.930 . S
C346 C344 1.384 . S
C346 C347 1.372 . S
C347 C346 1.372 . S
C347 C348 1.400 . S
C347 C352 1.490 . S
C348 H338 0.930 . S
C348 C347 1.400 . S
C348 C351 1.386 . S
H349 C365 0.930 . S
H350 C366 0.931 . S
C351 H339 0.929 . S
C351 C345 1.390 . S
C351 C348 1.386 . S
C352 C347 1.490 . S
C352 C354 1.395 . S
C352 C355 1.403 . S
H353 C359 0.930 . S
C354 H340 0.930 . S
C354 C352 1.395 . S
C354 C357 1.403 . S
C355 C352 1.403 . S
C355 C356 1.524 . S
C355 C359 1.400 . S
C356 H341 0.960 . S
C356 H342 0.960 . S
C356 H343 0.960 . S
C356 C355 1.524 . S
C357 C354 1.403 . S
C357 C358 1.392 . S
C357 C361 1.495 . S
C358 C357 1.392 . S
C358 C359 1.385 . S
C358 C360 1.478 . S
C359 H353 0.930 . S
C359 C355 1.400 . S
C359 C358 1.385 . S
C360 C358 1.478 . S
C360 C362 1.381 . S
C360 C366 1.383 . S
C361 C357 1.495 . S
C361 H367 0.959 . S
C361 H368 0.961 . S
C361 H369 0.960 . S
C362 C360 1.381 . S
C362 C363 1.394 . S
C362 H370 0.930 . S
C363 C362 1.394 . S
C363 C364 1.383 . S
C363 H371 0.929 . S
C364 C363 1.383 . S
C364 C365 1.377 . S
C365 H349 0.930 . S
C365 C364 1.377 . S
C365 C366 1.379 . S
C366 H350 0.931 . S
C366 C360 1.383 . S
C366 C365 1.379 . S
H367 C361 0.959 . S
H368 C361 0.961 . S
H369 C361 0.960 . S
H370 C362 0.930 . S
H371 C363 0.929 . S
H372 C380 0.929 . S
H373 C382 0.930 . S
H374 C384 0.930 . S
H375 C387 0.929 . S
H376 C390 0.930 . S
H377 C392 0.960 1_655 S
H378 C392 0.960 1_655 S
H379 C392 0.960 . S
C380 H372 0.929 . S
C380 C381 1.377 . S
C380 C382 1.384 . S
C381 C380 1.377 . S
C381 C387 1.390 . S
C382 H373 0.930 . S
C382 C380 1.384 . S
C382 C383 1.372 . S
C383 C382 1.372 . S
C383 C384 1.400 . S
C383 C388 1.490 . S
C384 H374 0.930 . S
C384 C383 1.400 . S
C384 C387 1.386 . S
H385 C401 0.930 . S
H386 C402 0.931 . S
C387 H375 0.929 . S
C387 C381 1.390 . S
C387 C384 1.386 . S
C388 C383 1.490 . S
C388 C390 1.395 . S
C388 C391 1.403 . S
H389 C395 0.930 . S
C390 H376 0.930 . S
C390 C388 1.395 . S
C390 C393 1.403 . S
C391 C388 1.403 . S
C391 C392 1.524 . S
C391 C395 1.400 . S
C392 H377 0.960 1_455 S
C392 H378 0.960 1_455 S
C392 H379 0.960 . S
C392 C391 1.524 . S
C393 C390 1.403 . S
C393 C394 1.392 . S
C393 C397 1.495 . S
C394 C393 1.392 . S
C394 C395 1.385 . S
C394 C396 1.478 . S
C395 H389 0.930 . S
C395 C391 1.400 . S
C395 C394 1.385 . S
C396 C394 1.478 . S
C396 C398 1.381 . S
C396 C402 1.383 . S
C397 C393 1.495 . S
C397 H403 0.959 . S
C397 H404 0.961 . S
C397 H405 0.960 . S
C398 C396 1.381 . S
C398 C399 1.394 . S
C398 H406 0.930 . S
C399 C398 1.394 . S
C399 C400 1.383 . S
C399 H407 0.929 . S
C400 C399 1.383 . S
C400 C401 1.377 . S
C401 H385 0.930 . S
C401 C400 1.377 . S
C401 C402 1.379 . S
C402 H386 0.931 . S
C402 C396 1.383 . S
C402 C401 1.379 . S
H403 C397 0.959 . S
H404 C397 0.961 . S
H405 C397 0.960 . S
H406 C398 0.930 . S
H407 C399 0.929 . S
H408 C416 0.929 . S
H409 C418 0.930 1_545 S
H410 C420 0.930 . S
H411 C423 0.929 . S
H412 C426 0.930 . S
H413 C428 0.960 . S
H414 C428 0.960 . S
H415 C428 0.960 . S
C416 H408 0.929 . S
C416 C417 1.377 . S
C416 C418 1.384 . S
C417 C416 1.377 . S
C417 C423 1.390 . S
C418 H409 0.930 1_565 S
C418 C416 1.384 . S
C418 C419 1.372 . S
C419 C418 1.372 . S
C419 C420 1.400 . S
C419 C424 1.490 . S
C420 H410 0.930 . S
C420 C419 1.400 . S
C420 C423 1.386 . S
H421 C437 0.930 . S
H422 C438 0.931 . S
C423 H411 0.929 . S
C423 C417 1.390 . S
C423 C420 1.386 . S
C424 C419 1.490 . S
C424 C426 1.395 1_565 S
C424 C427 1.403 . S
H425 C431 0.930 . S
C426 H412 0.930 . S
C426 C424 1.395 1_545 S
C426 C429 1.403 . S
C427 C424 1.403 . S
C427 C428 1.524 . S
C427 C431 1.400 1_554 S
C428 H413 0.960 . S
C428 H414 0.960 . S
C428 H415 0.960 . S
C428 C427 1.524 . S
C429 C426 1.403 . S
C429 C430 1.392 1_544 S
C429 C433 1.495 . S
C430 C429 1.392 1_566 S
C430 C431 1.385 . S
C430 C432 1.478 . S
C431 H425 0.930 . S
C431 C427 1.400 1_556 S
C431 C430 1.385 . S
C432 C430 1.478 . S
C432 C434 1.381 1_565 S
C432 C438 1.383 . S
C433 C429 1.495 . S
C433 H439 0.959 . S
C433 H440 0.961 . S
C433 H441 0.960 1_554 S
C434 C432 1.381 1_545 S
C434 C435 1.394 . S
C434 H442 0.930 . S
C435 C434 1.394 . S
C435 C436 1.383 1_545 S
C435 H443 0.929 . S
C436 C435 1.383 1_565 S
C436 C437 1.377 . S
C437 H421 0.930 . S
C437 C436 1.377 . S
C437 C438 1.379 . S
C438 H422 0.931 . S
C438 C432 1.383 . S
C438 C437 1.379 . S
H439 C433 0.959 . S
H440 C433 0.961 . S
H441 C433 0.960 1_556 S
H442 C434 0.930 . S
H443 C435 0.929 . S
H444 C452 0.929 . S
H445 C454 0.930 . S
H446 C456 0.930 . S
H447 C459 0.929 . S
H448 C462 0.930 . S
H449 C464 0.960 . S
H450 C464 0.960 . S
H451 C464 0.960 . S
C452 H444 0.929 . S
C452 C453 1.377 . S
C452 C454 1.384 . S
C453 C452 1.377 . S
C453 C459 1.390 . S
C454 H445 0.930 . S
C454 C452 1.384 . S
C454 C455 1.372 . S
C455 C454 1.372 . S
C455 C456 1.400 . S
C455 C460 1.490 . S
C456 H446 0.930 . S
C456 C455 1.400 . S
C456 C459 1.386 . S
H457 C473 0.930 . S
H458 C474 0.931 . S
C459 H447 0.929 . S
C459 C453 1.390 . S
C459 C456 1.386 . S
C460 C455 1.490 . S
C460 C462 1.395 1_554 S
C460 C463 1.403 . S
H461 C467 0.930 . S
C462 H448 0.930 . S
C462 C460 1.395 1_556 S
C462 C465 1.403 . S
C463 C460 1.403 . S
C463 C464 1.524 . S
C463 C467 1.400 . S
C464 H449 0.960 . S
C464 H450 0.960 . S
C464 H451 0.960 . S
C464 C463 1.524 . S
C465 C462 1.403 . S
C465 C466 1.392 . S
C465 C469 1.495 . S
C466 C465 1.392 . S
C466 C467 1.385 1_556 S
C466 C468 1.478 . S
C467 H461 0.930 . S
C467 C463 1.400 . S
C467 C466 1.385 1_554 S
C468 C466 1.478 . S
C468 C470 1.381 . S
C468 C474 1.383 . S
C469 C465 1.495 . S
C469 H475 0.959 . S
C469 H476 0.961 . S
C469 H477 0.960 . S
C470 C468 1.381 . S
C470 C471 1.394 . S
C470 H478 0.930 . S
C471 C470 1.394 . S
C471 C472 1.383 . S
C471 H479 0.929 . S
C472 C471 1.383 . S
C472 C473 1.377 . S
C473 H457 0.930 . S
C473 C472 1.377 . S
C473 C474 1.379 . S
C474 H458 0.931 . S
C474 C468 1.383 . S
C474 C473 1.379 . S
H475 C469 0.959 . S
H476 C469 0.961 . S
H477 C469 0.960 . S
H478 C470 0.930 . S
H479 C471 0.929 . S
H480 C488 0.929 . S
H481 C490 0.930 . S
H482 C492 0.930 . S
H483 C495 0.929 . S
H484 C498 0.930 . S
H485 C500 0.960 . S
H486 C500 0.960 1_554 S
H487 C500 0.960 . S
C488 H480 0.929 . S
C488 C489 1.377 . S
C488 C490 1.384 . S
C489 C488 1.377 . S
C489 C495 1.390 . S
C490 H481 0.930 . S
C490 C488 1.384 . S
C490 C491 1.372 . S
C491 C490 1.372 . S
C491 C492 1.400 . S
C491 C496 1.490 . S
C492 H482 0.930 . S
C492 C491 1.400 . S
C492 C495 1.386 . S
H493 C509 0.930 . S
H494 C510 0.931 . S
C495 H483 0.929 . S
C495 C489 1.390 . S
C495 C492 1.386 . S
C496 C491 1.490 . S
C496 C498 1.395 . S
C496 C499 1.403 1_554 S
H497 C503 0.930 . S
C498 H484 0.930 . S
C498 C496 1.395 . S
C498 C501 1.403 . S
C499 C496 1.403 1_556 S
C499 C500 1.524 . S
C499 C503 1.400 . S
C500 H485 0.960 . S
C500 H486 0.960 1_556 S
C500 H487 0.960 . S
C500 C499 1.524 . S
C501 C498 1.403 . S
C501 C502 1.392 1_554 S
C501 C505 1.495 . S
C502 C501 1.392 1_556 S
C502 C503 1.385 . S
C502 C504 1.478 . S
C503 H497 0.930 . S
C503 C499 1.400 . S
C503 C502 1.385 . S
C504 C502 1.478 . S
C504 C506 1.381 . S
C504 C510 1.383 . S
C505 C501 1.495 . S
C505 H511 0.959 . S
C505 H512 0.961 1_554 S
C505 H513 0.960 . S
C506 C504 1.381 . S
C506 C507 1.394 . S
C506 H514 0.930 . S
C507 C506 1.394 . S
C507 C508 1.383 . S
C507 H515 0.929 . S
C508 C507 1.383 . S
C508 C509 1.377 . S
C509 H493 0.930 . S
C509 C508 1.377 . S
C509 C510 1.379 . S
C510 H494 0.931 . S
C510 C504 1.383 . S
C510 C509 1.379 . S
H511 C505 0.959 . S
H512 C505 0.961 1_556 S
H513 C505 0.960 . S
H514 C506 0.930 . S
H515 C507 0.929 . S
H516 C524 0.929 . S
H517 C526 0.930 . S
H518 C528 0.945 . S
H519 C531 0.929 . S
H520 C534 0.930 . S
H521 C536 0.960 . S
H522 C536 0.960 . S
H523 C536 0.960 . S
C524 H516 0.929 . S
C524 C525 1.377 . S
C524 C526 1.384 . S
C525 C524 1.377 . S
C525 C531 1.390 . S
C526 H517 0.930 . S
C526 C524 1.384 . S
C526 C527 1.372 . S
C527 C526 1.372 . S
C527 C528 1.400 . S
C527 C532 1.490 . S
C528 H518 0.945 . S
C528 C527 1.400 . S
C528 C531 1.386 . S
H529 C545 0.930 . S
H530 C546 0.948 . S
C531 H519 0.929 . S
C531 C525 1.390 . S
C531 C528 1.386 . S
C532 C527 1.490 . S
C532 C534 1.395 . S
C532 C535 1.398 . S
H533 C539 0.930 . S
C534 H520 0.930 . S
C534 C532 1.395 . S
C534 C537 1.403 1_554 S
C535 C532 1.398 . S
C535 C536 1.528 1_655 S
C535 C539 1.400 1_655 S
C536 H521 0.960 . S
C536 H522 0.960 . S
C536 H523 0.960 . S
C536 C535 1.528 1_455 S
C537 C534 1.403 1_556 S
C537 C538 1.392 . S
C537 C541 1.495 . S
C538 C537 1.392 . S
C538 C539 1.385 1_656 S
C538 C540 1.478 . S
C539 H533 0.930 . S
C539 C535 1.400 1_455 S
C539 C538 1.385 1_454 S
C540 C538 1.478 . S
C540 C542 1.381 . S
C540 C546 1.357 1_655 S
C541 C537 1.495 . S
C541 H547 0.959 . S
C541 H548 0.961 . S
C541 H549 0.960 . S
C542 C540 1.381 . S
C542 C543 1.394 . S
C542 H550 0.930 . S
C543 C542 1.394 . S
C543 C544 1.383 . S
C543 H551 0.929 . S
C544 C543 1.383 . S
C544 C545 1.377 1_655 S
C545 H529 0.930 . S
C545 C544 1.377 1_455 S
C545 C546 1.390 . S
C546 H530 0.948 . S
C546 C540 1.357 1_455 S
C546 C545 1.390 . S
H547 C541 0.959 . S
H548 C541 0.961 . S
H549 C541 0.960 . S
H550 C542 0.930 . S
H551 C543 0.929 . S
H552 C560 0.929 . S
H553 C562 0.930 . S
H554 C564 0.930 . S
H555 C567 0.929 . S
H556 C570 0.930 . S
H557 C572 0.960 . S
H558 C572 0.960 . S
H559 C572 0.960 . S
C560 H552 0.929 . S
C560 C561 1.377 . S
C560 C562 1.384 . S
C561 C560 1.377 . S
C561 C567 1.390 . S
C562 H553 0.930 . S
C562 C560 1.384 . S
C562 C563 1.372 . S
C563 C562 1.372 . S
C563 C564 1.400 . S
C563 C568 1.490 . S
C564 H554 0.930 . S
C564 C563 1.400 . S
C564 C567 1.386 . S
H565 C581 0.930 . S
H566 C582 0.931 . S
C567 H555 0.929 . S
C567 C561 1.390 . S
C567 C564 1.386 . S
C568 C563 1.490 . S
C568 C570 1.395 . S
C568 C571 1.403 . S
H569 C575 0.930 . S
C570 H556 0.930 . S
C570 C568 1.395 . S
C570 C573 1.403 . S
C571 C568 1.403 . S
C571 C572 1.524 . S
C571 C575 1.400 . S
C572 H557 0.960 . S
C572 H558 0.960 . S
C572 H559 0.960 . S
C572 C571 1.524 . S
C573 C570 1.403 . S
C573 C574 1.392 . S
C573 C577 1.495 1_455 S
C574 C573 1.392 . S
C574 C575 1.385 . S
C574 C576 1.478 . S
C575 H569 0.930 . S
C575 C571 1.400 . S
C575 C574 1.385 . S
C576 C574 1.478 . S
C576 C578 1.381 . S
C576 C582 1.383 . S
C577 C573 1.495 1_655 S
C577 H583 0.959 . S
C577 H584 0.961 . S
C577 H585 0.960 . S
C578 C576 1.381 . S
C578 C579 1.393 . S
C578 H586 0.930 1_455 S
C579 C578 1.393 . S
C579 C580 1.382 . S
C579 H587 0.932 1_455 S
C580 C579 1.382 . S
C580 C581 1.377 . S
C581 H565 0.930 . S
C581 C580 1.377 . S
C581 C582 1.379 . S
C582 H566 0.931 . S
C582 C576 1.383 . S
C582 C581 1.379 . S
H583 C577 0.959 . S
H584 C577 0.961 . S
H585 C577 0.960 . S
H586 C578 0.930 1_655 S
H587 C579 0.932 1_655 S
H588 C596 0.929 . S
H589 C598 0.930 . S
H590 C600 0.930 . S
H591 C603 0.929 . S
H592 C606 0.930 . S
H593 C608 0.960 . S
H594 C608 0.960 . S
H595 C608 0.960 . S
C596 H588 0.929 . S
C596 C597 1.377 . S
C596 C598 1.384 . S
C597 C596 1.377 . S
C597 C603 1.390 . S
C598 H589 0.930 . S
C598 C596 1.384 . S
C598 C599 1.372 . S
C599 C598 1.372 . S
C599 C600 1.400 . S
C599 C604 1.490 . S
C600 H590 0.930 . S
C600 C599 1.400 . S
C600 C603 1.386 . S
H601 C617 0.930 . S
H602 C618 0.925 1_565 S
C603 H591 0.929 . S
C603 C597 1.390 . S
C603 C600 1.386 . S
C604 C599 1.490 . S
C604 C606 1.395 . S
C604 C607 1.403 . S
H605 C611 0.930 1_565 S
C606 H592 0.930 . S
C606 C604 1.395 . S
C606 C609 1.403 . S
C607 C604 1.403 . S
C607 C608 1.524 1_545 S
C607 C611 1.400 . S
C608 H593 0.960 . S
C608 H594 0.960 . S
C608 H595 0.960 . S
C608 C607 1.524 1_565 S
C609 C606 1.403 . S
C609 C610 1.392 . S
C609 C613 1.495 . S
C610 C609 1.392 . S
C610 C611 1.385 . S
C610 C612 1.478 . S
C611 H605 0.930 1_545 S
C611 C607 1.400 . S
C611 C610 1.385 . S
C612 C610 1.478 . S
C612 C614 1.381 . S
C612 C618 1.383 . S
C613 C609 1.495 . S
C613 H619 0.959 . S
C613 H620 0.961 . S
C613 H621 0.960 . S
C614 C612 1.381 . S
C614 C615 1.394 . S
C614 H622 0.930 . S
C615 C614 1.394 . S
C615 C616 1.363 1_545 S
C615 H623 0.929 . S
C616 C615 1.363 1_565 S
C616 C617 1.385 . S
C617 H601 0.930 . S
C617 C616 1.385 . S
C617 C618 1.379 1_565 S
C618 H602 0.925 1_545 S
C618 C612 1.383 . S
C618 C617 1.379 1_545 S
H619 C613 0.959 . S
H620 C613 0.961 . S
H621 C613 0.960 . S
H622 C614 0.930 . S
H623 C615 0.929 . S
H624 C632 0.929 . S
H625 C634 0.930 . S
H626 C636 0.930 . S
H627 C639 0.929 . S
H628 C642 0.930 . S
H629 C644 0.960 . S
H630 C644 0.960 . S
H631 C644 0.960 . S
C632 H624 0.929 . S
C632 C633 1.377 . S
C632 C634 1.384 . S
C633 C632 1.377 . S
C633 C639 1.390 . S
C634 H625 0.930 . S
C634 C632 1.384 . S
C634 C635 1.372 . S
C635 C634 1.372 . S
C635 C636 1.400 . S
C635 C640 1.490 . S
C636 H626 0.930 . S
C636 C635 1.400 . S
C636 C639 1.386 . S
H637 C653 0.930 . S
H638 C654 0.931 . S
C639 H627 0.929 . S
C639 C633 1.390 . S
C639 C636 1.386 . S
C640 C635 1.490 . S
C640 C642 1.395 . S
C640 C643 1.403 . S
H641 C647 0.930 . S
C642 H628 0.930 . S
C642 C640 1.395 . S
C642 C645 1.403 . S
C643 C640 1.403 . S
C643 C644 1.524 . S
C643 C647 1.400 . S
C644 H629 0.960 . S
C644 H630 0.960 . S
C644 H631 0.960 . S
C644 C643 1.524 . S
C645 C642 1.403 . S
C645 C646 1.392 . S
C645 C649 1.495 . S
C646 C645 1.392 . S
C646 C647 1.385 . S
C646 C648 1.478 . S
C647 H641 0.930 . S
C647 C643 1.400 . S
C647 C646 1.385 . S
C648 C646 1.478 . S
C648 C650 1.381 . S
C648 C654 1.383 . S
C649 C645 1.495 . S
C649 H655 0.959 . S
C649 H656 0.961 . S
C649 H657 0.960 . S
C650 C648 1.381 . S
C650 C651 1.394 . S
C650 H658 0.930 . S
C651 C650 1.394 . S
C651 C652 1.383 . S
C651 H659 0.929 . S
C652 C651 1.383 . S
C652 C653 1.377 . S
C653 H637 0.930 . S
C653 C652 1.377 . S
C653 C654 1.379 . S
C654 H638 0.931 . S
C654 C648 1.383 . S
C654 C653 1.379 . S
H655 C649 0.959 . S
H656 C649 0.961 . S
H657 C649 0.960 . S
H658 C650 0.930 . S
H659 C651 0.929 . S
H660 C668 0.929 . S
H661 C670 0.930 . S
H662 C672 0.930 . S
H663 C675 0.929 . S
H664 C678 0.930 . S
H665 C680 0.960 . S
H666 C680 0.960 . S
H667 C680 0.960 . S
C668 H660 0.929 . S
C668 C669 1.377 . S
C668 C670 1.384 . S
C669 C668 1.377 . S
C669 C675 1.390 . S
C670 H661 0.930 . S
C670 C668 1.384 . S
C670 C671 1.372 . S
C671 C670 1.372 . S
C671 C672 1.400 . S
C671 C676 1.490 . S
C672 H662 0.930 . S
C672 C671 1.400 . S
C672 C675 1.386 . S
H673 C689 0.930 . S
H674 C690 0.931 . S
C675 H663 0.929 . S
C675 C669 1.390 . S
C675 C672 1.386 . S
C676 C671 1.490 . S
C676 C678 1.395 . S
C676 C679 1.403 . S
H677 C683 0.930 . S
C678 H664 0.930 . S
C678 C676 1.395 . S
C678 C681 1.403 . S
C679 C676 1.403 . S
C679 C680 1.524 . S
C679 C683 1.400 . S
C680 H665 0.960 . S
C680 H666 0.960 . S
C680 H667 0.960 . S
C680 C679 1.524 . S
C681 C678 1.403 . S
C681 C682 1.392 . S
C681 C685 1.495 . S
C682 C681 1.392 . S
C682 C683 1.385 . S
C682 C684 1.478 . S
C683 H677 0.930 . S
C683 C679 1.400 . S
C683 C682 1.385 . S
C684 C682 1.478 . S
C684 C686 1.381 . S
C684 C690 1.383 . S
C685 C681 1.495 . S
C685 H691 0.959 . S
C685 H692 0.961 . S
C685 H693 0.960 . S
C686 C684 1.381 . S
C686 C687 1.394 . S
C686 H694 0.930 . S
C687 C686 1.394 . S
C687 C688 1.383 . S
C687 H695 0.929 . S
C688 C687 1.383 . S
C688 C689 1.377 . S
C689 H673 0.930 . S
C689 C688 1.377 . S
C689 C690 1.379 . S
C690 H674 0.931 . S
C690 C684 1.383 . S
C690 C689 1.379 . S
H691 C685 0.959 . S
H692 C685 0.961 . S
H693 C685 0.960 . S
H694 C686 0.930 . S
H695 C687 0.929 . S
H696 C704 0.929 . S
H697 C706 0.930 . S
H698 C708 0.930 1_455 S
H699 C711 0.929 . S
H700 C714 0.930 . S
H701 C716 0.960 . S
H702 C716 0.960 . S
H703 C716 0.960 . S
C704 H696 0.929 . S
C704 C705 1.377 . S
C704 C706 1.384 . S
C705 C704 1.377 . S
C705 C711 1.390 . S
C706 H697 0.930 . S
C706 C704 1.384 . S
C706 C707 1.372 . S
C707 C706 1.372 . S
C707 C708 1.400 . S
C707 C712 1.490 . S
C708 H698 0.930 1_655 S
C708 C707 1.400 . S
C708 C711 1.386 . S
H709 C725 0.930 . S
H710 C726 0.931 . S
C711 H699 0.929 . S
C711 C705 1.390 . S
C711 C708 1.386 . S
C712 C707 1.490 . S
C712 C714 1.395 . S
C712 C715 1.403 . S
H713 C719 0.930 . S
C714 H700 0.930 . S
C714 C712 1.395 . S
C714 C717 1.403 . S
C715 C712 1.403 . S
C715 C716 1.524 . S
C715 C719 1.400 . S
C716 H701 0.960 . S
C716 H702 0.960 . S
C716 H703 0.960 . S
C716 C715 1.524 . S
C717 C714 1.403 . S
C717 C718 1.392 . S
C717 C721 1.495 . S
C718 C717 1.392 . S
C718 C719 1.385 . S
C718 C720 1.489 . S
C719 H713 0.930 . S
C719 C715 1.400 . S
C719 C718 1.385 . S
C720 C718 1.489 . S
C720 C722 1.406 . S
C720 C726 1.347 1_655 S
C721 C717 1.495 . S
C721 H727 0.959 . S
C721 H728 0.953 1_655 S
C721 H729 0.960 . S
C722 C720 1.406 . S
C722 C723 1.394 . S
C722 H730 0.930 . S
C723 C722 1.394 . S
C723 C724 1.383 1_655 S
C723 H731 0.929 . S
C724 C723 1.383 1_455 S
C724 C725 1.377 . S
C725 H709 0.930 . S
C725 C724 1.377 . S
C725 C726 1.379 . S
C726 H710 0.931 . S
C726 C720 1.347 1_455 S
C726 C725 1.379 . S
H727 C721 0.959 . S
H728 C721 0.953 1_455 S
H729 C721 0.960 . S
H730 C722 0.930 . S
H731 C723 0.929 . S
H732 C740 0.929 1_545 S
H733 C742 0.930 1_545 S
H734 C744 0.930 . S
H735 C747 0.929 . S
H736 C750 0.930 . S
H737 C752 0.960 . S
H738 C752 0.960 . S
H739 C752 0.960 . S
C740 H732 0.929 1_565 S
C740 C741 1.377 . S
C740 C742 1.384 . S
C741 C740 1.377 . S
C741 C747 1.390 . S
C742 H733 0.930 1_565 S
C742 C740 1.384 . S
C742 C743 1.372 . S
C743 C742 1.372 . S
C743 C744 1.400 . S
C743 C748 1.490 . S
C744 H734 0.930 . S
C744 C743 1.400 . S
C744 C747 1.386 . S
H745 C761 0.930 1_565 S
H746 C762 0.968 . S
C747 H735 0.929 . S
C747 C741 1.390 . S
C747 C744 1.386 . S
C748 C743 1.490 . S
C748 C750 1.395 1_565 S
C748 C751 1.403 . S
H749 C755 0.930 . S
C750 H736 0.930 . S
C750 C748 1.395 1_545 S
C750 C753 1.403 . S
C751 C748 1.403 . S
C751 C752 1.524 . S
C751 C755 1.400 . S
C752 H737 0.960 . S
C752 H738 0.960 . S
C752 H739 0.960 . S
C752 C751 1.524 . S
C753 C750 1.403 . S
C753 C754 1.392 . S
C753 C757 1.495 . S
C754 C753 1.392 . S
C754 C755 1.385 1_545 S
C754 C756 1.478 . S
C755 H749 0.930 . S
C755 C751 1.400 . S
C755 C754 1.385 1_565 S
C756 C754 1.478 . S
C756 C758 1.381 . S
C756 C762 1.356 1_544 S
C757 C753 1.495 . S
C757 H763 0.959 . S
C757 H764 0.961 1_554 S
C757 H765 0.960 . S
C758 C756 1.381 . S
C758 C759 1.394 1_554 S
C758 H766 0.930 . S
C759 C758 1.394 1_556 S
C759 C760 1.383 . S
C759 H767 0.929 . S
C760 C759 1.383 . S
C760 C761 1.377 . S
C761 H745 0.930 1_545 S
C761 C760 1.377 . S
C761 C762 1.371 1_545 S
C762 H746 0.968 . S
C762 C756 1.356 1_566 S
C762 C761 1.371 1_565 S
H763 C757 0.959 . S
H764 C757 0.961 1_556 S
H765 C757 0.960 . S
H766 C758 0.930 . S
H767 C759 0.929 . S
H768 C776 0.929 . S
H769 C778 0.930 . S
H770 C780 0.930 . S
H771 C783 0.929 . S
H772 C786 0.930 . S
H773 C788 0.960 1_556 S
H774 C788 0.960 . S
H775 C788 0.960 . S
C776 H768 0.929 . S
C776 C777 1.377 . S
C776 C778 1.384 . S
C777 C776 1.377 . S
C777 C783 1.390 . S
C778 H769 0.930 . S
C778 C776 1.384 . S
C778 C779 1.372 . S
C779 C778 1.372 . S
C779 C780 1.400 . S
C779 C784 1.490 . S
C780 H770 0.930 . S
C780 C779 1.400 . S
C780 C783 1.386 . S
H781 C797 0.930 . S
H782 C798 0.931 . S
C783 H771 0.929 . S
C783 C777 1.390 . S
C783 C780 1.386 . S
C784 C779 1.490 . S
C784 C786 1.395 . S
C784 C787 1.403 . S
H785 C791 0.930 1_556 S
C786 H772 0.930 . S
C786 C784 1.395 . S
C786 C789 1.403 . S
C787 C784 1.403 . S
C787 C788 1.524 . S
C787 C791 1.400 . S
C788 H773 0.960 1_554 S
C788 H774 0.960 . S
C788 H775 0.960 . S
C788 C787 1.524 . S
C789 C786 1.403 . S
C789 C790 1.392 . S
C789 C793 1.495 . S
C790 C789 1.392 . S
C790 C791 1.385 . S
C790 C792 1.478 1_554 S
C791 H785 0.930 1_554 S
C791 C787 1.400 . S
C791 C790 1.385 . S
C792 C790 1.478 1_556 S
C792 C794 1.381 . S
C792 C798 1.383 . S
C793 C789 1.495 . S
C793 H799 0.959 . S
C793 H800 0.961 . S
C793 H801 0.960 . S
C794 C792 1.381 . S
C794 C795 1.394 . S
C794 H802 0.930 . S
C795 C794 1.394 . S
C795 C796 1.383 . S
C795 H803 0.929 . S
C796 C795 1.383 . S
C796 C797 1.377 . S
C797 H781 0.930 . S
C797 C796 1.377 . S
C797 C798 1.379 . S
C798 H782 0.931 . S
C798 C792 1.383 . S
C798 C797 1.379 . S
H799 C793 0.959 . S
H800 C793 0.961 . S
H801 C793 0.960 . S
H802 C794 0.930 . S
H803 C795 0.929 . S
H804 C812 0.929 . S
H805 C814 0.930 . S
H806 C816 0.930 . S
H807 C819 0.929 . S
H808 C822 0.930 . S
H809 C824 0.960 . S
H810 C824 0.960 . S
H811 C824 0.960 . S
C812 H804 0.929 . S
C812 C813 1.377 . S
C812 C814 1.384 . S
C813 C812 1.377 . S
C813 C819 1.390 . S
C814 H805 0.930 . S
C814 C812 1.384 . S
C814 C815 1.372 . S
C815 C814 1.372 . S
C815 C816 1.400 . S
C815 C820 1.490 . S
C816 H806 0.930 . S
C816 C815 1.400 . S
C816 C819 1.386 . S
H817 C833 0.930 . S
H818 C834 0.931 . S
C819 H807 0.929 . S
C819 C813 1.390 . S
C819 C816 1.386 . S
C820 C815 1.490 . S
C820 C822 1.395 . S
C820 C823 1.403 . S
H821 C827 0.930 . S
C822 H808 0.930 . S
C822 C820 1.395 . S
C822 C825 1.403 . S
C823 C820 1.403 . S
C823 C824 1.524 . S
C823 C827 1.400 . S
C824 H809 0.960 . S
C824 H810 0.960 . S
C824 H811 0.960 . S
C824 C823 1.524 . S
C825 C822 1.403 . S
C825 C826 1.392 . S
C825 C829 1.495 1_554 S
C826 C825 1.392 . S
C826 C827 1.385 . S
C826 C828 1.478 . S
C827 H821 0.930 . S
C827 C823 1.400 . S
C827 C826 1.385 . S
C828 C826 1.478 . S
C828 C830 1.381 . S
C828 C834 1.383 . S
C829 C825 1.495 1_556 S
C829 H835 0.959 . S
C829 H836 0.961 . S
C829 H837 0.960 . S
C830 C828 1.381 . S
C830 C831 1.394 1_554 S
C830 H838 0.930 . S
C831 C830 1.394 1_556 S
C831 C832 1.383 . S
C831 H839 0.929 . S
C832 C831 1.383 . S
C832 C833 1.377 1_556 S
C833 H817 0.930 . S
C833 C832 1.377 1_554 S
C833 C834 1.379 . S
C834 H818 0.931 . S
C834 C828 1.383 . S
C834 C833 1.379 . S
H835 C829 0.959 . S
H836 C829 0.961 . S
H837 C829 0.960 . S
H838 C830 0.930 . S
H839 C831 0.929 . S
H840 C848 0.929 . S
H841 C850 0.930 . S
H842 C852 0.930 1_554 S
H843 C855 0.929 . S
H844 C858 0.930 . S
H845 C860 0.960 1_655 S
H846 C860 0.959 . S
H847 C860 0.960 . S
C848 H840 0.929 . S
C848 C849 1.377 . S
C848 C850 1.384 . S
C849 C848 1.377 . S
C849 C855 1.390 1_556 S
C850 H841 0.930 . S
C850 C848 1.384 . S
C850 C851 1.372 . S
C851 C850 1.372 . S
C851 C852 1.400 . S
C851 C856 1.490 . S
C852 H842 0.930 1_556 S
C852 C851 1.400 . S
C852 C855 1.386 1_556 S
H853 C869 0.930 . S
H854 C870 0.931 . S
C855 H843 0.929 . S
C855 C849 1.390 1_554 S
C855 C852 1.386 1_554 S
C856 C851 1.490 . S
C856 C858 1.395 . S
C856 C859 1.403 . S
H857 C863 0.930 . S
C858 H844 0.930 . S
C858 C856 1.395 . S
C858 C861 1.403 . S
C859 C856 1.403 . S
C859 C860 1.524 . S
C859 C863 1.400 . S
C860 H845 0.960 1_455 S
C860 H846 0.959 . S
C860 H847 0.960 . S
C860 C859 1.524 . S
C861 C858 1.403 . S
C861 C862 1.392 . S
C861 C865 1.495 . S
C862 C861 1.392 . S
C862 C863 1.385 . S
C862 C864 1.478 . S
C863 H857 0.930 . S
C863 C859 1.400 . S
C863 C862 1.385 . S
C864 C862 1.478 . S
C864 C866 1.381 . S
C864 C870 1.383 . S
C865 C861 1.495 . S
C865 H871 0.959 . S
C865 H872 0.961 . S
C865 H873 0.960 . S
C866 C864 1.381 . S
C866 C867 1.394 . S
C866 H874 0.930 . S
C867 C866 1.394 . S
C867 C868 1.383 . S
C867 H875 0.929 . S
C868 C867 1.383 . S
C868 C869 1.377 . S
C869 H853 0.930 . S
C869 C868 1.377 . S
C869 C870 1.379 . S
C870 H854 0.931 . S
C870 C864 1.383 . S
C870 C869 1.379 . S
H871 C865 0.959 . S
H872 C865 0.961 . S
H873 C865 0.960 . S
H874 C866 0.930 . S
H875 C867 0.929 . S
H876 C884 0.929 . S
H877 C886 0.930 . S
H878 C888 0.930 . S
H879 C891 0.929 . S
H880 C894 0.930 . S
H881 C896 0.960 . S
H882 C896 0.960 . S
H883 C896 0.960 . S
C884 H876 0.929 . S
C884 C885 1.377 . S
C884 C886 1.384 . S
C885 C884 1.377 . S
C885 C891 1.390 . S
C886 H877 0.930 . S
C886 C884 1.384 . S
C886 C887 1.372 . S
C887 C886 1.372 . S
C887 C888 1.400 . S
C887 C892 1.490 . S
C888 H878 0.930 . S
C888 C887 1.400 . S
C888 C891 1.386 . S
H889 C905 0.930 . S
H890 C906 0.931 . S
C891 H879 0.929 . S
C891 C885 1.390 . S
C891 C888 1.386 . S
C892 C887 1.490 . S
C892 C894 1.395 . S
C892 C895 1.403 . S
H893 C899 0.930 . S
C894 H880 0.930 . S
C894 C892 1.395 . S
C894 C897 1.403 . S
C895 C892 1.403 . S
C895 C896 1.524 . S
C895 C899 1.400 . S
C896 H881 0.960 . S
C896 H882 0.960 . S
C896 H883 0.960 . S
C896 C895 1.524 . S
C897 C894 1.403 . S
C897 C898 1.392 . S
C897 C901 1.495 . S
C898 C897 1.392 . S
C898 C899 1.385 . S
C898 C900 1.478 . S
C899 H893 0.930 . S
C899 C895 1.400 . S
C899 C898 1.385 . S
C900 C898 1.478 . S
C900 C902 1.381 . S
C900 C906 1.383 . S
C901 C897 1.495 . S
C901 H907 0.959 . S
C901 H908 0.961 . S
C901 H909 0.960 . S
C902 C900 1.381 . S
C902 C903 1.394 . S
C902 H910 0.930 1_545 S
C903 C902 1.394 . S
C903 C904 1.383 . S
C903 H911 0.929 1_545 S
C904 C903 1.383 . S
C904 C905 1.377 . S
C905 H889 0.930 . S
C905 C904 1.377 . S
C905 C906 1.379 . S
C906 H890 0.931 . S
C906 C900 1.383 . S
C906 C905 1.379 . S
H907 C901 0.959 . S
H908 C901 0.961 . S
H909 C901 0.960 . S
H910 C902 0.930 1_565 S
H911 C903 0.929 1_565 S
H912 C920 0.929 . S
H913 C922 0.930 . S
H914 C924 0.930 1_554 S
H915 C927 0.929 . S
H916 C930 0.930 . S
H917 C932 0.960 1_554 S
H918 C932 0.960 . S
H919 C932 0.960 1_554 S
C920 H912 0.929 . S
C920 C921 1.377 . S
C920 C922 1.384 . S
C921 C920 1.377 . S
C921 C927 1.390 1_556 S
C922 H913 0.930 . S
C922 C920 1.384 . S
C922 C923 1.372 . S
C923 C922 1.372 . S
C923 C924 1.400 . S
C923 C928 1.490 . S
C924 H914 0.930 1_556 S
C924 C923 1.400 . S
C924 C927 1.386 1_556 S
H925 C941 0.930 . S
H926 C942 0.931 . S
C927 H915 0.929 . S
C927 C921 1.390 1_554 S
C927 C924 1.386 1_554 S
C928 C923 1.490 . S
C928 C930 1.395 . S
C928 C931 1.403 . S
H929 C935 0.930 . S
C930 H916 0.930 . S
C930 C928 1.395 . S
C930 C933 1.403 . S
C931 C928 1.403 . S
C931 C932 1.524 . S
C931 C935 1.400 . S
C932 H917 0.960 1_556 S
C932 H918 0.960 . S
C932 H919 0.960 1_556 S
C932 C931 1.524 . S
C933 C930 1.403 . S
C933 C934 1.392 . S
C933 C937 1.495 . S
C934 C933 1.392 . S
C934 C935 1.385 . S
C934 C936 1.478 . S
C935 H929 0.930 . S
C935 C931 1.400 . S
C935 C934 1.385 . S
C936 C934 1.478 . S
C936 C938 1.381 . S
C936 C942 1.383 . S
C937 C933 1.495 . S
C937 H943 0.959 . S
C937 H944 0.961 . S
C937 H945 0.960 . S
C938 C936 1.381 . S
C938 C939 1.394 . S
C938 H946 0.930 . S
C939 C938 1.394 . S
C939 C940 1.383 . S
C939 H947 0.929 . S
C940 C939 1.383 . S
C940 C941 1.377 . S
C941 H925 0.930 . S
C941 C940 1.377 . S
C941 C942 1.379 . S
C942 H926 0.931 . S
C942 C936 1.383 . S
C942 C941 1.379 . S
H943 C937 0.959 . S
H944 C937 0.961 . S
H945 C937 0.960 . S
H946 C938 0.930 . S
H947 C939 0.929 . S
H948 C956 0.929 . S
H949 C958 0.930 . S
H950 C960 0.930 . S
H951 C963 0.929 . S
H952 C966 0.930 1_554 S
H953 C968 0.960 . S
H954 C968 0.960 . S
H955 C968 0.960 . S
C956 H948 0.929 . S
C956 C957 1.377 . S
C956 C958 1.384 . S
C957 C956 1.377 . S
C957 C963 1.390 1_554 S
C958 H949 0.930 . S
C958 C956 1.384 . S
C958 C959 1.372 1_554 S
C959 C958 1.372 1_556 S
C959 C960 1.400 . S
C959 C964 1.490 . S
C960 H950 0.930 . S
C960 C959 1.400 . S
C960 C963 1.386 . S
H961 C977 0.930 . S
H962 C978 0.931 . S
C963 H951 0.929 . S
C963 C957 1.390 1_556 S
C963 C960 1.386 . S
C964 C959 1.490 . S
C964 C966 1.395 . S
C964 C967 1.403 . S
H965 C971 0.930 . S
C966 H952 0.930 1_556 S
C966 C964 1.395 . S
C966 C969 1.403 . S
C967 C964 1.403 . S
C967 C968 1.524 . S
C967 C971 1.400 . S
C968 H953 0.960 . S
C968 H954 0.960 . S
C968 H955 0.960 . S
C968 C967 1.524 . S
C969 C966 1.403 . S
C969 C970 1.392 . S
C969 C973 1.484 1_556 S
C970 C969 1.392 . S
C970 C971 1.385 . S
C970 C972 1.478 . S
C971 H965 0.930 . S
C971 C967 1.400 . S
C971 C970 1.385 . S
C972 C970 1.478 . S
C972 C974 1.381 . S
C972 C978 1.383 . S
C973 C969 1.484 1_554 S
C973 H979 0.972 . S
C973 H980 0.958 1_554 S
C973 H981 0.961 . S
C974 C972 1.381 . S
C974 C975 1.394 . S
C974 H982 0.930 . S
C975 C974 1.394 . S
C975 C976 1.383 . S
C975 H983 0.929 . S
C976 C975 1.383 . S
C976 C977 1.377 . S
C977 H961 0.930 . S
C977 C976 1.377 . S
C977 C978 1.379 . S
C978 H962 0.931 . S
C978 C972 1.383 . S
C978 C977 1.379 . S
H979 C973 0.972 . S
H980 C973 0.958 1_556 S
H981 C973 0.961 . S
H982 C974 0.930 . S
H983 C975 0.929 . S
H984 C992 0.929 . S
H985 C994 0.930 . S
H986 C996 0.930 . S
H987 C999 0.929 . S
H988 C1002 0.948 . S
H989 C1004 0.960 . S
H990 C1004 0.960 . S
H991 C1004 0.960 . S
C992 H984 0.929 . S
C992 C993 1.377 . S
C992 C994 1.384 . S
C993 C992 1.377 . S
C993 C999 1.390 . S
C994 H985 0.930 . S
C994 C992 1.384 . S
C994 C995 1.372 . S
C995 C994 1.372 . S
C995 C996 1.400 . S
C995 C1000 1.490 . S
C996 H986 0.930 . S
C996 C995 1.400 . S
C996 C999 1.386 . S
H997 C1013 0.930 . S
H998 C1014 0.931 . S
C999 H987 0.929 . S
C999 C993 1.390 . S
C999 C996 1.386 . S
C1000 C995 1.490 . S
C1000 C1002 1.395 . S
C1000 C1003 1.403 . S
H1001 C1007 0.930 . S
C1002 H988 0.948 . S
C1002 C1000 1.395 . S
C1002 C1005 1.403 . S
C1003 C1000 1.403 . S
C1003 C1004 1.524 . S
C1003 C1007 1.400 . S
C1004 H989 0.960 . S
C1004 H990 0.960 . S
C1004 H991 0.960 . S
C1004 C1003 1.524 . S
C1005 C1002 1.403 . S
C1005 C1006 1.392 . S
C1005 C1009 1.495 1_655 S
C1006 C1005 1.392 . S
C1006 C1007 1.385 . S
C1006 C1008 1.478 . S
C1007 H1001 0.930 . S
C1007 C1003 1.400 . S
C1007 C1006 1.385 . S
C1008 C1006 1.478 . S
C1008 C1010 1.381 . S
C1008 C1014 1.383 1_655 S
C1009 C1005 1.495 1_455 S
C1009 H1015 0.959 . S
C1009 H1016 0.961 . S
C1009 H1017 0.960 . S
C1010 C1008 1.381 . S
C1010 C1011 1.394 . S
C1010 H1018 0.930 . S
C1011 C1010 1.394 . S
C1011 C1012 1.383 . S
C1011 H1019 0.929 . S
C1012 C1011 1.383 . S
C1012 C1013 1.377 1_655 S
C1013 H997 0.930 . S
C1013 C1012 1.377 1_455 S
C1013 C1014 1.379 . S
C1014 H998 0.931 . S
C1014 C1008 1.383 1_455 S
C1014 C1013 1.379 . S
H1015 C1009 0.959 . S
H1016 C1009 0.961 . S
H1017 C1009 0.960 . S
H1018 C1010 0.930 . S
H1019 C1011 0.929 . S
H1020 C1028 0.929 . S
H1021 C1030 0.930 . S
H1022 C1032 0.930 1_545 S
H1023 C1035 0.929 1_545 S
H1024 C1038 0.930 . S
H1025 C1040 0.960 . S
H1026 C1040 0.960 1_565 S
H1027 C1040 0.960 . S
C1028 H1020 0.929 . S
C1028 C1029 1.377 . S
C1028 C1030 1.384 . S
C1029 C1028 1.377 . S
C1029 C1035 1.390 . S
C1030 H1021 0.930 . S
C1030 C1028 1.384 . S
C1030 C1031 1.372 . S
C1031 C1030 1.372 . S
C1031 C1032 1.400 . S
C1031 C1036 1.490 . S
C1032 H1022 0.930 1_565 S
C1032 C1031 1.400 . S
C1032 C1035 1.386 . S
H1033 C1049 0.930 . S
H1034 C1050 0.931 . S
C1035 H1023 0.929 1_565 S
C1035 C1029 1.390 . S
C1035 C1032 1.386 . S
C1036 C1031 1.490 . S
C1036 C1038 1.395 . S
C1036 C1039 1.403 . S
H1037 C1043 0.930 1_545 S
C1038 H1024 0.930 . S
C1038 C1036 1.395 . S
C1038 C1041 1.403 . S
C1039 C1036 1.403 . S
C1039 C1040 1.524 1_565 S
C1039 C1043 1.400 . S
C1040 H1025 0.960 . S
C1040 H1026 0.960 1_545 S
C1040 H1027 0.960 . S
C1040 C1039 1.524 1_545 S
C1041 C1038 1.403 . S
C1041 C1042 1.392 . S
C1041 C1045 1.495 . S
C1042 C1041 1.392 . S
C1042 C1043 1.385 . S
C1042 C1044 1.478 . S
C1043 H1037 0.930 1_565 S
C1043 C1039 1.400 . S
C1043 C1042 1.385 . S
C1044 C1042 1.478 . S
C1044 C1046 1.381 . S
C1044 C1050 1.383 1_565 S
C1045 C1041 1.495 . S
C1045 H1051 0.959 . S
C1045 H1052 0.961 . S
C1045 H1053 0.960 . S
C1046 C1044 1.381 . S
C1046 C1047 1.394 . S
C1046 H1054 0.930 . S
C1047 C1046 1.394 . S
C1047 C1048 1.383 . S
C1047 H1055 0.929 . S
C1048 C1047 1.383 . S
C1048 C1049 1.377 1_565 S
C1049 H1033 0.930 . S
C1049 C1048 1.377 1_545 S
C1049 C1050 1.379 . S
C1050 H1034 0.931 . S
C1050 C1044 1.383 1_545 S
C1050 C1049 1.379 . S
H1051 C1045 0.959 . S
H1052 C1045 0.961 . S
H1053 C1045 0.960 . S
H1054 C1046 0.930 . S
H1055 C1047 0.929 . S
H1056 C1064 0.929 . S
H1057 C1066 0.930 . S
H1058 C1068 0.930 . S
H1059 C1071 0.929 . S
H1060 C1074 0.930 . S
H1061 C1076 0.960 . S
H1062 C1076 0.960 . S
H1063 C1076 0.960 . S
C1064 H1056 0.929 . S
C1064 C1065 1.377 . S
C1064 C1066 1.384 . S
C1065 C1064 1.377 . S
C1065 C1071 1.390 . S
C1066 H1057 0.930 . S
C1066 C1064 1.384 . S
C1066 C1067 1.372 . S
C1067 C1066 1.372 . S
C1067 C1068 1.400 . S
C1067 C1072 1.490 . S
C1068 H1058 0.930 . S
C1068 C1067 1.400 . S
C1068 C1071 1.386 . S
H1069 C1085 0.930 . S
H1070 C1086 0.931 . S
C1071 H1059 0.929 . S
C1071 C1065 1.390 . S
C1071 C1068 1.386 . S
C1072 C1067 1.490 . S
C1072 C1074 1.395 . S
C1072 C1075 1.403 . S
H1073 C1079 0.930 . S
C1074 H1060 0.930 . S
C1074 C1072 1.395 . S
C1074 C1077 1.403 . S
C1075 C1072 1.403 . S
C1075 C1076 1.524 . S
C1075 C1079 1.400 . S
C1076 H1061 0.960 . S
C1076 H1062 0.960 . S
C1076 H1063 0.960 . S
C1076 C1075 1.524 . S
C1077 C1074 1.403 . S
C1077 C1078 1.392 . S
C1077 C1081 1.495 . S
C1078 C1077 1.392 . S
C1078 C1079 1.385 . S
C1078 C1080 1.478 . S
C1079 H1073 0.930 . S
C1079 C1075 1.400 . S
C1079 C1078 1.385 . S
C1080 C1078 1.478 . S
C1080 C1082 1.381 . S
C1080 C1086 1.383 . S
C1081 C1077 1.495 . S
C1081 H1087 0.959 . S
C1081 H1088 0.961 . S
C1081 H1089 0.960 . S
C1082 C1080 1.381 . S
C1082 C1083 1.394 . S
C1082 H1090 0.930 . S
C1083 C1082 1.394 . S
C1083 C1084 1.383 . S
C1083 H1091 0.929 . S
C1084 C1083 1.383 . S
C1084 C1085 1.377 . S
C1085 H1069 0.930 . S
C1085 C1084 1.377 . S
C1085 C1086 1.379 . S
C1086 H1070 0.931 . S
C1086 C1080 1.383 . S
C1086 C1085 1.379 . S
H1087 C1081 0.959 . S
H1088 C1081 0.961 . S
H1089 C1081 0.960 . S
H1090 C1082 0.930 . S
H1091 C1083 0.929 . S
H1092 C1100 0.929 . S
H1093 C1102 0.930 . S
H1094 C1104 0.930 . S
H1095 C1107 0.929 . S
H1096 C1110 0.930 . S
H1097 C1112 0.960 . S
H1098 C1112 0.960 . S
H1099 C1112 0.960 . S
C1100 H1092 0.929 . S
C1100 C1101 1.377 . S
C1100 C1102 1.384 . S
C1101 C1100 1.377 . S
C1101 C1107 1.390 . S
C1102 H1093 0.930 . S
C1102 C1100 1.384 . S
C1102 C1103 1.372 . S
C1103 C1102 1.372 . S
C1103 C1104 1.400 . S
C1103 C1108 1.490 . S
C1104 H1094 0.930 . S
C1104 C1103 1.400 . S
C1104 C1107 1.386 . S
H1105 C1121 0.930 . S
H1106 C1122 0.931 . S
C1107 H1095 0.929 . S
C1107 C1101 1.390 . S
C1107 C1104 1.386 . S
C1108 C1103 1.490 . S
C1108 C1110 1.395 . S
C1108 C1111 1.403 . S
H1109 C1115 0.930 . S
C1110 H1096 0.930 . S
C1110 C1108 1.395 . S
C1110 C1113 1.403 . S
C1111 C1108 1.403 . S
C1111 C1112 1.524 . S
C1111 C1115 1.400 . S
C1112 H1097 0.960 . S
C1112 H1098 0.960 . S
C1112 H1099 0.960 . S
C1112 C1111 1.524 . S
C1113 C1110 1.403 . S
C1113 C1114 1.392 . S
C1113 C1117 1.495 . S
C1114 C1113 1.392 . S
C1114 C1115 1.385 . S
C1114 C1116 1.478 . S
C1115 H1109 0.930 . S
C1115 C1111 1.400 . S
C1115 C1114 1.385 . S
C1116 C1114 1.478 . S
C1116 C1118 1.381 . S
C1116 C1122 1.383 . S
C1117 C1113 1.495 . S
C1117 H1123 0.959 . S
C1117 H1124 0.961 . S
C1117 H1125 0.960 . S
C1118 C1116 1.381 . S
C1118 C1119 1.394 . S
C1118 H1126 0.930 . S
C1119 C1118 1.394 . S
C1119 C1120 1.383 . S
C1119 H1127 0.929 . S
C1120 C1119 1.383 . S
C1120 C1121 1.377 . S
C1121 H1105 0.930 . S
C1121 C1120 1.377 . S
C1121 C1122 1.379 . S
C1122 H1106 0.931 . S
C1122 C1116 1.383 . S
C1122 C1121 1.379 . S
H1123 C1117 0.959 . S
H1124 C1117 0.961 . S
H1125 C1117 0.960 . S
H1126 C1118 0.930 . S
H1127 C1119 0.929 . S
C273 N80 2.162 . S
C292 C135 2.239 . S
C328 C161 1.697 . S
C309 N93 1.632 . S
C364 C201 1.826 . S
C345 N54 1.793 . S
C400 C255 2.349 . S
C381 N67 2.271 . S
C436 C116 2.241 1_565 S
C417 N28 2.166 . S
C453 N41 1.634 . S
C472 C146 1.686 . S
C489 N2 1.797 . S
C508 C186 1.844 . S
C525 N15 2.286 . S
C544 C236 2.349 1_655 S
C580 C112 0.346 . S
C561 N70 0.253 . S
C616 C173 0.446 . S
C597 N83 0.474 . S
C652 C213 0.372 . S
C633 N96 0.367 . S
C669 N57 0.164 . S
C688 C232 0.182 . S
C705 N18 0.252 . S
C724 C133 0.385 . S
C760 C152 0.506 . S
C741 N31 0.472 . S
C796 C192 0.317 . S
C777 N44 0.349 . S
C813 N5 0.110 . S
C832 C253 0.153 . S
C849 N66 1.849 1_556 S
C868 C106 1.911 . S
C885 N79 2.446 . S
C904 C156 2.514 . S
C940 C196 2.284 . S
C921 N92 2.235 1_556 S
C976 C226 1.672 . S
C957 N53 1.630 . S
C993 N14 1.861 . S
C1012 C121 1.919 . S
C1048 C175 2.517 . S
C1029 N27 2.454 . S
C1084 C215 2.282 . S
C1065 N40 2.226 . S
C1101 N1 1.635 . S
C1120 C241 1.665 . S
