# Generated by pormake.
# Topology zzz, (3,6)-cn, num edge types: 1
# Building blocks:
#     Node 0, Type 0, BuildingBlock: PAMTOO_clean_linker_0, # of connection points: 3
#     Node 1, Type 0, BuildingBlock: PAMTOO_clean_linker_0, # of connection points: 3
#     Node 2, Type 0, BuildingBlock: PAMTOO_clean_linker_0, # of connection points: 3
#     Node 3, Type 0, BuildingBlock: PAMTOO_clean_linker_0, # of connection points: 3
#     Node 4, Type 0, BuildingBlock: PAMTOO_clean_linker_0, # of connection points: 3
#     Node 5, Type 0, BuildingBlock: PAMTOO_clean_linker_0, # of connection points: 3
#     Node 6, Type 0, BuildingBlock: PAMTOO_clean_linker_0, # of connection points: 3
#     Node 7, Type 0, BuildingBlock: PAMTOO_clean_linker_0, # of connection points: 3
#     Node 8, Type 1, BuildingBlock: VOLQOD_clean_sbu_1, # of connection points: 6
#     Node 9, Type 1, BuildingBlock: VOLQOD_clean_sbu_1, # of connection points: 6
#     Node 10, Type 1, BuildingBlock: VOLQOD_clean_sbu_1, # of connection points: 6
#     Node 11, Type 1, BuildingBlock: VOLQOD_clean_sbu_1, # of connection points: 6
#     Edge 12, Type (0, 1), BuildingBlock: AJUNOK_clean_linker_0, # of connection points: 2
#     Edge 13, Type (0, 1), BuildingBlock: AJUNOK_clean_linker_0, # of connection points: 2
#     Edge 14, Type (0, 1), BuildingBlock: AJUNOK_clean_linker_0, # of connection points: 2
#     Edge 15, Type (0, 1), BuildingBlock: AJUNOK_clean_linker_0, # of connection points: 2
#     Edge 16, Type (0, 1), BuildingBlock: AJUNOK_clean_linker_0, # of connection points: 2
#     Edge 17, Type (0, 1), BuildingBlock: AJUNOK_clean_linker_0, # of connection points: 2
#     Edge 18, Type (0, 1), BuildingBlock: AJUNOK_clean_linker_0, # of connection points: 2
#     Edge 19, Type (0, 1), BuildingBlock: AJUNOK_clean_linker_0, # of connection points: 2
#     Edge 20, Type (0, 1), BuildingBlock: AJUNOK_clean_linker_0, # of connection points: 2
#     Edge 21, Type (0, 1), BuildingBlock: AJUNOK_clean_linker_0, # of connection points: 2
#     Edge 22, Type (0, 1), BuildingBlock: AJUNOK_clean_linker_0, # of connection points: 2
#     Edge 23, Type (0, 1), BuildingBlock: AJUNOK_clean_linker_0, # of connection points: 2
#     Edge 24, Type (0, 1), BuildingBlock: AJUNOK_clean_linker_0, # of connection points: 2
#     Edge 25, Type (0, 1), BuildingBlock: AJUNOK_clean_linker_0, # of connection points: 2
#     Edge 26, Type (0, 1), BuildingBlock: AJUNOK_clean_linker_0, # of connection points: 2
#     Edge 27, Type (0, 1), BuildingBlock: AJUNOK_clean_linker_0, # of connection points: 2
#     Edge 28, Type (0, 1), BuildingBlock: AJUNOK_clean_linker_0, # of connection points: 2
#     Edge 29, Type (0, 1), BuildingBlock: AJUNOK_clean_linker_0, # of connection points: 2
#     Edge 30, Type (0, 1), BuildingBlock: AJUNOK_clean_linker_0, # of connection points: 2
#     Edge 31, Type (0, 1), BuildingBlock: AJUNOK_clean_linker_0, # of connection points: 2
#     Edge 32, Type (0, 1), BuildingBlock: AJUNOK_clean_linker_0, # of connection points: 2
#     Edge 33, Type (0, 1), BuildingBlock: AJUNOK_clean_linker_0, # of connection points: 2
#     Edge 34, Type (0, 1), BuildingBlock: AJUNOK_clean_linker_0, # of connection points: 2
#     Edge 35, Type (0, 1), BuildingBlock: AJUNOK_clean_linker_0, # of connection points: 2
# Relax obj value: 0.184
# Max RMSD: 0.232
# Mean RMSD: 0.108
data_MOF--net-zzz--node1-VOLQOD_clean_sbu_1--node2-PAMTOO_clean_linker_0--edge1-AJUNOK_clean_linker_0
_symmetry_space_group_name_H-M    P1
_symmetry_Int_Tables_number       1
_symmetry_cell_setting            triclinic
loop_
_symmetry_equiv_pos_as_xyz
'x, y, z'
_cell_length_a     37.264565
_cell_length_b     37.176501
_cell_length_c     13.365683
_cell_angle_alpha  89.926982
_cell_angle_beta   90.180146
_cell_angle_gamma 90.815931
loop_
_atom_site_label
_atom_site_type_symbol
_atom_site_fract_x
_atom_site_fract_y
_atom_site_fract_z
_atom_type_partial_charge
H0 H 0.90184 0.5232 0.14878 0.0
H1 H 0.80736 0.5036 0.96975 0.0
H2 H 0.80216 0.57084 0.23151 0.0
H3 H 0.7269 0.54052 0.17795 0.0
C4 C 0.73709 0.52685 0.11 0.0
O5 O 0.76637 0.546 0.07407 0.0
H6 H 0.74481 0.49924 0.13337 0.0
C7 C 0.87332 0.52626 0.13554 0.0
C8 C 0.854 0.54808 0.20028 0.0
C9 C 0.85689 0.50907 0.05393 0.0
C10 C 0.8204 0.51547 0.03459 0.0
C11 C 0.80073 0.53805 0.09774 0.0
C12 C 0.8174 0.55385 0.182 0.0
H13 H 0.05878 0.87118 0.25269 0.0
H14 H 0.05664 0.80318 -0.00832 0.0
H15 H 0.99303 0.77562 0.24683 0.0
H16 H 0.02541 0.70816 0.17016 0.0
C17 C 0.038 0.72024 0.1025 0.0
O18 O 0.02007 0.75133 0.07745 0.0
H19 H 0.06652 0.72671 0.12154 0.0
C20 C 0.05047 0.84662 0.2148 0.0
C21 C 0.02393 0.82508 0.25916 0.0
C22 C 0.05952 0.8417 0.11415 0.0
C23 C 0.04996 0.80862 0.06881 0.0
C24 C 0.02843 0.78338 0.12041 0.0
C25 C 1.01337 0.79277 0.21298 0.0
H26 H 0.66726 0.05405 0.25895 0.0
H27 H 0.72659 0.04488 -0.01577 0.0
H28 H 0.75293 0.97886 0.23547 0.0
H29 H 0.81976 1.00953 0.15724 0.0
C30 C 0.80913 0.0214 0.08692 0.0
O31 O 0.77668 1.005 0.06346 0.0
H32 H 0.80533 0.05063 0.10143 0.0
C33 C 0.68853 0.04243 0.21502 0.0
C34 C 0.70784 1.01398 0.25596 0.0
C35 C 0.69127 0.05023 0.11282 0.0
C36 C 0.72206 0.03817 0.06201 0.0
C37 C 0.74608 1.01483 0.1098 0.0
C38 C 0.7373 1.00049 0.204 0.0
H39 H 0.5145 0.64809 0.16173 0.0
H40 H 0.49905 0.74821 0.00571 0.0
H41 H 0.57487 0.74208 0.2478 0.0
H42 H 0.54848 0.82414 0.20376 0.0
C43 C 0.5329 0.81363 0.13883 0.0
O44 O 0.54895 0.7829 0.10385 0.0
H45 H 0.50515 0.80766 0.16564 0.0
C46 C 0.51989 0.67664 0.1527 0.0
C47 C 0.54577 0.6928 0.21462 0.0
C48 C 0.50319 0.69566 0.07519 0.0
C49 C 0.51143 0.73253 0.06435 0.0
C50 C 0.53741 0.74915 0.12581 0.0
C51 C 0.55426 0.72941 0.20201 0.0
H52 H 0.18819 0.57176 0.07105 0.0
H53 H 0.25506 0.56652 0.33474 0.0
H54 H 0.27846 0.50175 0.07997 0.0
H55 H 0.30815 0.47429 0.26685 0.0
C56 C 0.30896 0.49943 0.3118 0.0
O57 O 0.30461 0.52867 0.24925 0.0
H58 H 0.28655 0.49801 0.36667 0.0
C59 C 0.21156 0.56204 0.11071 0.0
C60 C 0.23105 0.53433 0.06731 0.0
C61 C 0.21701 0.57131 0.21129 0.0
C62 C 0.24906 0.55995 0.25773 0.0
C63 C 0.27276 0.53725 0.2069 0.0
C64 C 0.26261 0.52265 0.11381 0.0
H65 H 0.02517 0.16037 0.13676 0.0
H66 H 1.00916 0.25336 0.32133 0.0
H67 H 0.0676 0.2632 0.04469 0.0
H68 H 0.09838 0.31126 0.2074 0.0
C69 C 0.07549 0.30888 0.26018 0.0
O70 O 0.0456 0.29758 0.2065 0.0
H71 H 0.08249 0.28872 0.31852 0.0
C72 C 0.02876 0.189 0.15029 0.0
C73 C 0.04802 0.20973 0.08133 0.0
C74 C 1.01425 0.20424 0.23613 0.0
C75 C 0.01963 0.24116 0.25409 0.0
C76 C 0.03935 0.26237 0.18606 0.0
C77 C 0.05306 0.24675 0.09833 0.0
H78 H 0.37622 1.00899 0.15298 0.0
H79 H 0.28304 0.98582 0.33202 0.0
H80 H 0.2724 0.04319 0.05349 0.0
H81 H 0.21516 0.06756 0.20129 0.0
C82 C 0.2239 0.04807 0.25923 0.0
O83 O 0.23805 0.01832 0.21257 0.0
H84 H 0.24466 0.06202 0.30593 0.0
C85 C 0.34747 1.01051 0.16483 0.0
C86 C 0.32636 0.02822 0.09439 0.0
C87 C 0.33228 0.99462 0.24963 0.0
C88 C 0.29518 0.99731 0.26549 0.0
C89 C 0.27363 1.01523 0.19553 0.0
C90 C 0.28914 0.03014 0.10869 0.0
H91 H 0.52023 0.3686 0.17407 0.0
H92 H 0.53837 0.27008 0.33365 0.0
H93 H 0.47766 0.26892 0.05862 0.0
H94 H 0.4526 0.20519 0.20851 0.0
C95 C 0.47357 0.2146 0.26209 0.0
O96 O 0.50193 0.22942 0.20899 0.0
H97 H 0.46081 0.23512 0.31074 0.0
C98 C 0.51651 0.33968 0.18086 0.0
C99 C 0.49675 0.32125 0.10797 0.0
C100 C 0.5322 0.32159 0.26098 0.0
C101 C 0.52702 0.28433 0.27053 0.0
C102 C 0.50683 0.26537 0.1986 0.0
C103 C 0.49217 0.28373 0.11597 0.0
O104 O 0.09998 0.02518 0.60187 0.0
Zn105 Zn 0.06345 0.02541 0.71415 0.0
O106 O 1.01428 0.0173 0.66003 0.0
Zn107 Zn 0.98393 0.05698 0.69658 0.0
Zn108 Zn 1.0155 1.0133 0.51425 0.0
Zn109 Zn 0.99182 0.97418 0.71511 0.0
O110 O 0.9392 0.04235 0.77018 0.0
O111 O 0.94455 0.98344 0.78671 0.0
O112 O 0.06768 0.07448 0.78415 0.0
O113 O 1.01106 0.09212 0.77917 0.0
O114 O 0.97222 0.08689 0.57936 0.0
O115 O 0.99375 0.0573 0.44903 0.0
O116 O 0.99458 0.96538 0.46712 0.0
O117 O 0.07624 0.98549 0.81262 0.0
O118 O 0.98522 0.93615 0.61016 0.0
O119 O 0.02536 0.95317 0.81298 0.0
C120 C 0.09735 0.0202 0.5077 0.0
C121 C 0.92728 1.01225 0.80226 0.0
C122 C 0.97875 0.08476 0.48658 0.0
C123 C 0.04365 0.09759 0.80341 0.0
C124 C 0.98614 0.93676 0.51508 0.0
C125 C 0.05736 0.95874 0.84274 0.0
O126 O 0.06688 1.01469 0.46664 0.0
O127 O 0.50566 0.09341 0.60663 0.0
Zn128 Zn 0.50783 0.05745 0.72154 0.0
O129 O 0.51774 1.00846 0.66953 0.0
Zn130 Zn 0.48004 0.97492 0.70965 0.0
Zn131 Zn 0.52067 1.00917 0.52379 0.0
Zn132 Zn 0.56217 0.98975 0.72311 0.0
O133 O 0.49686 0.93373 0.79487 0.0
O134 O 0.5551 0.94501 0.80898 0.0
O135 O 0.4592 0.05844 0.79336 0.0
O136 O 0.44372 1.00064 0.78765 0.0
O137 O 0.45074 0.95823 0.5941 0.0
O138 O 0.47737 0.984 0.46348 0.0
O139 O 0.56823 0.98981 0.47501 0.0
O140 O 0.54746 0.07346 0.81887 0.0
O141 O 0.59839 0.98093 0.61648 0.0
O142 O 0.58418 0.02685 0.80938 0.0
C143 C 0.50996 0.09053 0.51226 0.0
C144 C 0.52751 0.9259 0.8304 0.0
C145 C 0.4517 0.96562 0.50142 0.0
C146 C 0.43708 0.0328 0.81222 0.0
C147 C 0.59687 0.98131 0.52152 0.0
C148 C 0.57676 0.05799 0.84133 0.0
O149 O 0.51677 0.06021 0.47283 0.0
O150 O 0.44613 0.5045 0.623 0.0
Zn151 Zn 0.4846 0.50696 0.73142 0.0
O152 O 0.5331 0.51085 0.66903 0.0
Zn153 Zn 0.56344 0.47194 0.71373 0.0
Zn154 Zn 0.52878 0.50959 0.52342 0.0
Zn155 Zn 0.5581 0.55482 0.70734 0.0
O156 O 0.60744 0.48793 0.79139 0.0
O157 O 0.6017 0.54708 0.79668 0.0
O158 O 0.47984 0.46039 0.81553 0.0
O159 O 0.53493 0.43923 0.7994 0.0
O160 O 0.57633 0.43926 0.60242 0.0
O161 O 0.54926 0.46355 0.47079 0.0
O162 O 0.55222 0.55336 0.45962 0.0
O163 O 0.47365 0.5528 0.81134 0.0
O164 O 0.57158 0.58552 0.58935 0.0
O165 O 0.52351 0.5843 0.77915 0.0
C166 C 0.44674 0.50635 0.52767 0.0
C167 C 0.6185 0.51871 0.8208 0.0
C168 C 0.56734 0.4385 0.51079 0.0
C169 C 0.50304 0.436 0.83157 0.0
C170 C 0.56733 0.58151 0.49561 0.0
C171 C 0.49207 0.58202 0.81514 0.0
O172 O 0.47643 0.50913 0.48099 0.0
O173 O 0.98509 0.57746 0.51799 0.0
Zn174 Zn 0.03235 0.57453 0.5961 0.0
O175 O 0.04065 0.52468 0.64464 0.0
Zn176 Zn 0.0423 0.52315 0.79087 0.0
Zn177 Zn 1.00279 0.49246 0.59494 0.0
Zn178 Zn 0.08586 0.50652 0.5963 0.0
O179 O 0.08976 0.50421 0.84396 0.0
O180 O 0.12194 0.49968 0.7054 0.0
O181 O 0.03062 0.6094 0.71333 0.0
O182 O 0.03911 0.57379 0.84527 0.0
O183 O 0.99895 0.49593 0.84448 0.0
O184 O 0.97166 0.47578 0.70697 0.0
O185 O 0.02138 0.44987 0.51555 0.0
O186 O 0.07304 0.59088 0.50374 0.0
O187 O 0.08 0.46045 0.51777 0.0
O188 O 0.10788 0.54272 0.50755 0.0
C189 C 0.96309 0.55279 0.49017 0.0
C190 C 0.11951 0.49844 0.80008 0.0
C191 C 0.97291 0.47947 0.80139 0.0
C192 C 0.03414 0.60479 0.80738 0.0
C193 C 0.05314 0.44122 0.49074 0.0
C194 C 0.10144 0.5745 0.47859 0.0
O195 O 0.96824 0.51989 0.51117 0.0
C196 C 0.19329 0.04165 0.42726 0.0
C197 C 0.19205 0.03728 0.32282 0.0
C198 C 0.16293 0.03489 0.48659 0.0
C199 C 0.13005 0.02344 0.44392 0.0
H200 H 0.21768 0.05125 0.46327 0.0
H201 H 0.16511 0.03966 0.56631 0.0
S202 S 0.11419 1.0046 0.17385 0.0
N203 N 0.15641 0.01857 0.17949 0.0
N204 N 0.09929 1.00547 0.29006 0.0
C205 C 0.12904 0.01746 0.33958 0.0
C206 C 0.16003 0.02445 0.27938 0.0
C207 C 0.488 0.18602 0.42953 0.0
C208 C 0.48609 0.18324 0.32472 0.0
C209 C 0.4968 0.15627 0.4892 0.0
C210 C 0.50432 0.12253 0.44647 0.0
H211 H 0.48179 0.21119 0.46594 0.0
H212 H 0.49695 0.15966 0.56966 0.0
S213 S 0.50583 0.10248 0.17373 0.0
N214 N 0.49449 0.14518 0.17989 0.0
N215 N 0.51132 0.0892 0.29067 0.0
C216 C 0.504 0.11998 0.34095 0.0
C217 C 0.49487 0.15032 0.28054 0.0
C218 C 0.34622 0.50519 0.4705 0.0
C219 C 0.34475 0.50223 0.36564 0.0
C220 C 0.37918 0.50657 0.52179 0.0
C221 C 0.41217 0.50524 0.47044 0.0
H222 H 0.32166 0.50616 0.51349 0.0
H223 H 0.37868 0.50869 0.60258 0.0
S224 S 0.42261 0.49786 0.19447 0.0
N225 N 0.37876 0.4982 0.21184 0.0
N226 N 0.44076 0.50104 0.30706 0.0
C227 C 0.41093 0.50263 0.36504 0.0
C228 C 0.37728 0.50107 0.31309 0.0
C229 C 0.03564 0.35225 0.35474 0.0
C230 C 0.06921 0.34439 0.31259 0.0
C231 C 0.03055 0.38376 0.41076 0.0
C232 C 0.059 0.40835 0.42893 0.0
H233 H 1.0132 0.33372 0.34534 0.0
H234 H 1.00418 0.3885 0.4415 0.0
S235 S 0.15273 0.39914 0.33842 0.0
N236 N 0.13154 0.3631 0.29509 0.0
N237 N 0.12231 0.42203 0.40008 0.0
C238 C 0.09282 0.40052 0.38765 0.0
C239 C 0.09785 0.3686 0.33014 0.0
C240 C 0.84572 0.04582 0.94267 0.0
C241 C 0.83617 0.01657 0.00415 0.0
C242 C 0.87418 0.04354 0.87475 0.0
C243 C 0.89421 1.01181 0.86494 0.0
H244 H 0.83197 0.07117 0.94975 0.0
H245 H 0.88115 0.06733 0.83174 0.0
S246 S 0.87669 0.92616 0.00114 0.0
N247 N 0.84648 0.95401 0.04538 0.0
N248 N 0.89997 0.94935 0.9175 0.0
C249 C 0.88339 0.98162 0.92196 0.0
C250 C 0.85437 0.98408 -0.00856 0.0
C251 C 0.49981 0.85131 0.01145 0.0
C252 C 0.53236 0.84162 0.0567 0.0
C253 C 0.49874 0.87784 0.9368 0.0
C254 C 0.53021 0.89573 0.90379 0.0
H255 H 0.47487 0.8386 0.03481 0.0
H256 H 0.4728 0.88475 0.90609 0.0
S257 S 0.62277 0.87746 -0.00686 0.0
N258 N 0.59701 0.85005 0.05975 0.0
N259 N 0.59533 0.89984 0.91928 0.0
C260 C 0.56315 0.88532 0.94654 0.0
C261 C 0.56412 0.8583 0.0228 0.0
C262 C 0.68331 0.55319 0.02139 0.0
C263 C 0.70788 0.52501 0.03114 0.0
C264 C 0.65511 0.55141 0.95139 0.0
C265 C 0.65031 0.52128 0.88852 0.0
H266 H 0.68557 0.57654 0.06956 0.0
H267 H 0.6364 0.57342 0.94846 0.0
S268 S 0.71003 0.4422 0.87722 0.0
N269 N 0.72758 0.46763 0.96651 0.0
N270 N 0.67452 0.46384 0.83597 0.0
C271 C 0.67562 0.49354 0.89517 0.0
C272 C 0.70446 0.49557 0.96587 0.0
C273 C 0.06805 0.6781 -0.01895 0.0
C274 C 0.03623 0.693 0.01844 0.0
C275 C 0.06707 0.6501 0.91068 0.0
C276 C 0.03429 0.63618 0.87466 0.0
H277 H 0.09393 0.68754 0.0082 0.0
H278 H 0.09213 0.63882 0.88551 0.0
S279 S 0.94353 0.66525 0.94855 0.0
N280 N 0.97104 0.69134 0.01432 0.0
N281 N 0.96934 0.63901 0.88077 0.0
C282 C 1.00233 0.65103 0.90992 0.0
C283 C 1.00327 0.67937 -0.01784 0.0
C284 C 0.97295 0.1527 0.27689 0.0
C285 C 0.99732 0.17968 0.30986 0.0
C286 C 0.96516 0.12242 0.33611 0.0
C287 C 0.98071 0.11883 0.43104 0.0
H288 H 0.96188 0.15381 0.20191 0.0
H289 H 0.94819 0.10112 0.30603 0.0
S290 S 0.04538 0.18198 0.55257 0.0
N291 N 0.03609 0.20094 0.44408 0.0
N292 N 0.02077 0.14473 0.55647 0.0
C293 C 1.00325 0.14664 0.46727 0.0
C294 C 1.01155 0.17708 0.40663 0.0
C295 C 0.38416 0.95551 0.29221 0.0
C296 C 0.35682 0.97875 0.32413 0.0
C297 C 0.4143 0.94903 0.3524 0.0
C298 C 0.41741 0.96484 0.44714 0.0
H299 H 0.38347 0.94445 0.21724 0.0
H300 H 0.43598 0.93313 0.32289 0.0
S301 S 0.35335 0.02729 0.56522 0.0
N302 N 0.33471 0.01685 0.45681 0.0
N303 N 0.39082 1.00421 0.57068 0.0
C304 C 0.38926 0.98625 0.48221 0.0
C305 C 0.35891 0.99315 0.4207 0.0
C306 C 0.57614 0.36985 0.30676 0.0
C307 C 0.5508 0.34354 0.33744 0.0
C308 C 0.58398 0.39983 0.36673 0.0
C309 C 0.56748 0.40366 0.45998 0.0
H310 H 0.58732 0.36892 0.23207 0.0
H311 H 0.60116 0.4211 0.33752 0.0
S312 S 0.50128 0.34131 0.5767 0.0
N313 N 0.51113 0.32228 0.46896 0.0
N314 N 0.52634 0.37825 0.58255 0.0
C315 C 0.54458 0.37606 0.49496 0.0
C316 C 0.5363 0.34584 0.43362 0.0
C317 C 0.15063 0.57157 0.24249 0.0
C318 C 0.1854 0.58401 0.27035 0.0
C319 C 0.12136 0.57452 0.30624 0.0
C320 C 0.12552 0.58893 0.40197 0.0
H321 H 0.14597 0.55604 0.17525 0.0
H322 H 0.09631 0.56137 0.28499 0.0
S323 S 0.20736 0.63241 0.50619 0.0
N324 N 0.21967 0.6183 0.3944 0.0
N325 N 0.16471 0.62048 0.51836 0.0
C326 C 0.15866 0.60462 0.42829 0.0
C327 C 0.18857 0.60283 0.36165 0.0
C328 C 0.0524 0.9073 0.07822 0.0
C329 C 0.06899 0.87442 0.05363 0.0
C330 C 0.05334 0.93672 0.01382 0.0
C331 C 0.07029 0.93464 0.92109 0.0
H332 H 0.03562 0.90986 0.14366 0.0
H333 H 0.03761 0.96008 0.03259 0.0
S334 S 0.12268 0.85828 0.82499 0.0
N335 N 0.10775 0.84419 0.93479 0.0
N336 N 0.10739 0.89947 0.81035 0.0
C337 C 0.08945 0.90354 0.89779 0.0
C338 C 0.08918 0.87342 0.96469 0.0
C339 C 0.66298 0.08201 0.96552 0.0
C340 C 0.65893 0.06325 0.05674 0.0
C341 C 0.63412 0.08538 0.89835 0.0
C342 C 0.59995 0.07145 0.92188 0.0
H343 H 0.68915 0.09178 0.94218 0.0
H344 H 0.63932 0.09601 0.8242 0.0
S345 S 0.57262 0.02421 0.15313 0.0
N346 N 0.61583 0.03267 0.16771 0.0
N347 N 0.56209 0.04229 0.04454 0.0
C348 C 0.59432 0.05673 0.01669 0.0
C349 C 0.62368 0.05176 0.0835 0.0
C350 C 0.46505 0.64248 0.02429 0.0
C351 C 0.48392 0.67429 -0.00344 0.0
C352 C 0.46326 0.61267 0.95993 0.0
C353 C 0.47882 0.61462 0.86478 0.0
H354 H 0.45589 0.63891 0.10056 0.0
H355 H 0.45341 0.58715 -0.01115 0.0
S356 S 0.51681 0.69583 0.74095 0.0
N357 N 0.50897 0.70856 0.85696 0.0
N358 N 0.50276 0.65362 0.73444 0.0
C359 C 0.49042 0.64843 0.82915 0.0
C360 C 0.49344 0.67827 0.89531 0.0
C361 C 0.87882 0.4974 0.88105 0.0
C362 C 0.88001 0.48897 -0.0165 0.0
C363 C 0.90791 0.48991 0.8188 0.0
C364 C 0.93932 0.47443 0.85754 0.0
H365 H 0.85708 0.51313 0.85074 0.0
H366 H 0.90724 0.49989 0.74259 0.0
S367 S 0.95155 0.43791 0.11267 0.0
N368 N 0.91129 0.45596 0.11432 0.0
N369 N 0.9672 0.44461 -0.00148 0.0
C370 C 0.93909 0.46193 0.95626 0.0
C371 C 0.90896 0.46836 0.01883 0.0
C372 C 0.08237 0.16233 -0.00469 0.0
C373 C 0.05853 0.19135 -0.01151 0.0
C374 C 0.07972 0.13303 0.92919 0.0
C375 C 0.05267 0.13169 0.85574 0.0
H376 H 0.1005 0.16048 0.0586 0.0
H377 H 0.09665 0.11 0.94176 0.0
S378 S 0.98829 0.20424 0.79642 0.0
N379 N 1.01127 0.21963 0.89346 0.0
N380 N 1.00527 0.16454 0.77091 0.0
C381 C 0.03137 0.1624 0.84185 0.0
C382 C 0.03472 0.19238 0.90756 0.0
C383 C 0.37239 0.0658 0.00827 0.0
C384 C 0.34448 0.0399 0.00191 0.0
C385 C 0.40111 0.06573 0.94042 0.0
C386 C 0.40305 0.03919 0.86594 0.0
H387 H 0.37383 0.08378 0.07195 0.0
H388 H 0.42338 0.08431 0.95235 0.0
S389 S 0.33358 0.96925 0.80953 0.0
N390 N 0.31784 0.99081 0.90752 0.0
N391 N 0.37209 0.98939 0.78235 0.0
C392 C 0.37344 0.01552 0.85335 0.0
C393 C 0.34395 0.01632 0.9206 0.0
C394 C 0.46504 0.37263 0.02917 0.0
C395 C 0.4869 0.3422 0.0183 0.0
C396 C 0.46812 0.40216 0.96362 0.0
C397 C 0.4938 0.40242 0.88681 0.0
H398 H 0.44797 0.375 0.09425 0.0
H399 H 0.45256 0.42595 0.97848 0.0
S400 S 0.55374 0.32698 0.81966 0.0
N401 N 0.53133 0.31221 0.91804 0.0
N402 N 0.53838 0.36761 0.79709 0.0
C403 C 0.51341 0.37072 0.87034 0.0
C404 C 0.5095 0.34054 0.93529 0.0
C405 C 0.21259 0.52384 0.89048 0.0
C406 C 0.21164 0.51291 -0.00908 0.0
C407 C 0.18393 0.51557 0.82553 0.0
C408 C 0.15295 0.49719 0.86014 0.0
H409 H 0.23392 0.5416 0.86456 0.0
H410 H 0.1846 0.52673 0.75063 0.0
S411 S 0.13983 0.45887 0.11347 0.0
N412 N 0.17965 0.47889 0.11858 0.0
N413 N 0.12518 0.46468 -0.0021 0.0
C414 C 0.15319 0.48351 0.95794 0.0
C415 C 0.18278 0.49098 0.02291 0.0
C416 C 1.01364 0.84412 0.43485 0.0
C417 C 1.00185 0.84307 0.3351 0.0
C418 C 1.00475 0.87302 0.49725 0.0
C419 C 0.98487 0.90224 0.46041 0.0
H420 H 0.03264 0.8245 0.46161 0.0
H421 H 1.0167 0.87425 0.5712 0.0
S422 S 0.94376 0.90944 0.20894 0.0
N423 N 0.96522 0.87088 0.20677 0.0
N424 N 0.95009 0.92604 0.32232 0.0
C425 C 0.97027 0.89976 0.36393 0.0
C426 C 0.97828 0.86983 0.3018 0.0
C427 C 0.68959 1.00651 0.43324 0.0
C428 C 0.68937 0.9933 0.33499 0.0
C429 C 0.66088 0.99894 0.49797 0.0
C430 C 0.63065 0.97901 0.46487 0.0
H431 H 0.71021 0.02555 0.45677 0.0
H432 H 0.66073 1.01189 0.57055 0.0
S433 S 0.61984 0.93428 0.21935 0.0
N434 N 0.65916 0.95522 0.21249 0.0
N435 N 0.60437 0.94255 0.33255 0.0
C436 C 0.63172 0.96301 0.37018 0.0
C437 C 0.66144 0.96968 0.30571 0.0
C438 C 0.55795 0.6752 0.39159 0.0
C439 C 0.5638 0.66961 0.28912 0.0
C440 C 0.56296 0.64722 0.46075 0.0
C441 C 0.57339 0.61274 0.42897 0.0
H442 H 0.54628 0.70008 0.41713 0.0
H443 H 0.55528 0.65167 0.53783 0.0
S444 S 0.5996 0.5872 0.17195 0.0
N445 N 0.58696 0.62947 0.16199 0.0
N446 N 0.59502 0.57656 0.29131 0.0
C447 C 0.58297 0.60815 0.32852 0.0
C448 C 0.57862 0.63676 0.25875 0.0
C449 C 0.87068 0.54152 0.37783 0.0
C450 C 0.87339 0.56171 0.28937 0.0
C451 C 0.89896 0.54119 0.44717 0.0
C452 C 0.9307 0.56139 0.43095 0.0
H453 H 0.84838 0.52286 0.38819 0.0
H454 H 0.897 0.52301 0.51045 0.0
S455 S 0.94839 0.62307 0.21843 0.0
N456 N 0.90822 0.60563 0.19472 0.0
N457 N 0.96113 0.6057 0.32651 0.0
C458 C 0.93201 0.58479 0.34853 0.0
C459 C 0.90333 0.58481 0.27732 0.0
loop_
_geom_bond_atom_site_label_1
_geom_bond_atom_site_label_2
_geom_bond_distance
_geom_bond_site_symmetry_2
_ccdc_geom_bond_type
H0 C7 0.929 . S
H1 C10 0.930 . S
H2 C12 0.929 . S
H3 C4 0.969 . S
C4 H3 0.969 . S
C4 O5 1.550 1_556 S
C4 H6 0.973 . S
O5 C4 1.550 1_554 S
O5 C11 1.412 . S
H6 C4 0.973 . S
C7 H0 0.929 . S
C7 C8 1.400 . S
C7 C9 1.364 1_554 S
C8 C7 1.400 . S
C8 C12 1.377 . S
C9 C7 1.364 1_556 S
C9 C10 1.374 . S
C10 H1 0.930 . S
C10 C9 1.374 . S
C10 C11 1.383 1_556 S
C11 O5 1.412 . S
C11 C10 1.383 1_554 S
C11 C12 1.394 . S
C12 H2 0.929 . S
C12 C8 1.377 . S
C12 C11 1.394 . S
H13 C20 0.929 . S
H14 C23 0.931 1_556 S
H15 C25 0.929 . S
H16 C17 0.969 . S
C17 H16 0.969 . S
C17 O18 1.550 1_455 S
C17 H19 0.973 1_454 S
O18 C17 1.550 1_655 S
O18 C24 1.410 1_655 S
H19 C17 0.973 1_656 S
C20 H13 0.929 . S
C20 C21 1.400 . S
C20 C22 1.364 . S
C21 C20 1.400 . S
C21 C25 1.377 1_455 S
C22 C20 1.364 . S
C22 C23 1.374 1_455 S
C23 H14 0.931 1_554 S
C23 C22 1.374 1_655 S
C23 C24 1.383 1_655 S
C24 O18 1.410 1_455 S
C24 C23 1.383 1_455 S
C24 C25 1.394 1_455 S
C25 H15 0.929 . S
C25 C21 1.377 1_655 S
C25 C24 1.394 1_655 S
H26 C33 0.929 . S
H27 C36 0.931 . S
H28 C38 0.928 1_565 S
H29 C30 0.969 . S
C30 H29 0.969 . S
C30 O31 1.550 1_546 S
C30 H32 0.973 1_545 S
O31 C30 1.550 1_564 S
O31 C37 1.406 1_565 S
H32 C30 0.973 1_565 S
C33 H26 0.929 . S
C33 C34 1.400 . S
C33 C35 1.364 . S
C34 C33 1.400 . S
C34 C38 1.376 . S
C35 C33 1.364 . S
C35 C36 1.373 1_544 S
C36 H27 0.931 . S
C36 C35 1.373 1_566 S
C36 C37 1.383 1_566 S
C37 O31 1.406 1_545 S
C37 C36 1.383 1_544 S
C37 C38 1.394 . S
C38 H28 0.928 1_545 S
C38 C34 1.376 . S
C38 C37 1.394 . S
H39 C46 0.929 . S
H40 C49 0.930 . S
H41 C51 0.929 . S
H42 C43 0.969 . S
C43 H42 0.969 . S
C43 O44 1.550 1_556 S
C43 H45 0.973 . S
O44 C43 1.550 1_554 S
O44 C50 1.412 . S
H45 C43 0.973 . S
C46 H39 0.929 . S
C46 C47 1.400 . S
C46 C48 1.364 1_554 S
C47 C46 1.400 . S
C47 C51 1.377 . S
C48 C46 1.364 1_556 S
C48 C49 1.374 . S
C49 H40 0.930 . S
C49 C48 1.374 . S
C49 C50 1.383 1_556 S
C50 O44 1.412 . S
C50 C49 1.383 1_554 S
C50 C51 1.394 . S
C51 H41 0.929 . S
C51 C47 1.377 . S
C51 C50 1.394 . S
H52 C59 0.929 . S
H53 C62 0.930 . S
H54 C64 0.929 . S
H55 C56 0.969 . S
C56 H55 0.969 . S
C56 O57 1.550 . S
C56 H58 0.973 . S
O57 C56 1.550 . S
O57 C63 1.412 . S
H58 C56 0.973 . S
C59 H52 0.929 . S
C59 C60 1.400 . S
C59 C61 1.364 . S
C60 C59 1.400 . S
C60 C64 1.377 . S
C61 C59 1.364 . S
C61 C62 1.374 . S
C62 H53 0.930 . S
C62 C61 1.374 . S
C62 C63 1.383 . S
C63 O57 1.412 . S
C63 C62 1.383 . S
C63 C64 1.394 . S
C64 H54 0.929 . S
C64 C60 1.377 . S
C64 C63 1.394 . S
H65 C72 0.929 . S
H66 C75 0.930 . S
H67 C77 0.929 . S
H68 C69 0.969 . S
C69 H68 0.969 . S
C69 O70 1.550 . S
C69 H71 0.973 . S
O70 C69 1.550 . S
O70 C76 1.412 . S
H71 C69 0.973 . S
C72 H65 0.929 . S
C72 C73 1.400 . S
C72 C74 1.364 . S
C73 C72 1.400 . S
C73 C77 1.377 . S
C74 C72 1.364 . S
C74 C75 1.374 . S
C75 H66 0.930 . S
C75 C74 1.374 . S
C75 C76 1.383 . S
C76 O70 1.412 . S
C76 C75 1.383 . S
C76 C77 1.394 . S
C77 H67 0.929 . S
C77 C73 1.377 . S
C77 C76 1.394 . S
H78 C85 0.929 . S
H79 C88 0.930 . S
H80 C90 0.929 . S
H81 C82 0.969 . S
C82 H81 0.969 . S
C82 O83 1.541 1_545 S
C82 H84 0.973 . S
O83 C82 1.541 1_565 S
O83 C89 1.405 1_565 S
H84 C82 0.973 . S
C85 H78 0.929 . S
C85 C86 1.400 . S
C85 C87 1.364 . S
C86 C85 1.400 . S
C86 C90 1.377 . S
C87 C85 1.364 . S
C87 C88 1.374 . S
C88 H79 0.930 . S
C88 C87 1.374 . S
C88 C89 1.383 . S
C89 O83 1.405 1_545 S
C89 C88 1.383 . S
C89 C90 1.394 . S
C90 H80 0.929 . S
C90 C86 1.377 . S
C90 C89 1.394 . S
H91 C98 0.929 . S
H92 C101 0.930 . S
H93 C103 0.929 . S
H94 C95 0.969 . S
C95 H94 0.969 . S
C95 O96 1.550 . S
C95 H97 0.973 . S
O96 C95 1.550 . S
O96 C102 1.412 . S
H97 C95 0.973 . S
C98 H91 0.929 . S
C98 C99 1.400 . S
C98 C100 1.364 . S
C99 C98 1.400 . S
C99 C103 1.377 . S
C100 C98 1.364 . S
C100 C101 1.374 . S
C101 H92 0.930 . S
C101 C100 1.374 . S
C101 C102 1.383 . S
C102 O96 1.412 . S
C102 C101 1.383 . S
C102 C103 1.394 . S
C103 H93 0.929 . S
C103 C99 1.377 . S
C103 C102 1.394 . S
O104 Zn105 1.955 . S
O104 C120 1.225 1_545 S
Zn105 O104 1.955 . S
Zn105 O106 1.948 1_545 S
Zn105 O112 1.941 . S
Zn105 O117 1.898 1_545 S
O106 Zn105 1.948 1_565 S
O106 Zn107 1.899 1_465 S
O106 Zn108 1.952 . S
O106 Zn109 1.967 1_455 S
Zn107 O106 1.899 1_645 S
Zn107 O110 1.933 . S
Zn107 O113 1.941 1_655 S
Zn107 O114 1.965 . S
Zn108 O106 1.952 . S
Zn108 O115 1.938 1_565 S
Zn108 O116 1.906 . S
Zn108 O126 1.953 . S
Zn109 O106 1.967 1_655 S
Zn109 O111 1.932 . S
Zn109 O118 1.977 . S
Zn109 O119 1.910 1_655 S
O110 Zn107 1.933 . S
O110 C121 1.226 . S
O111 Zn109 1.932 . S
O111 C121 1.307 1_565 S
O112 Zn105 1.941 . S
O112 C123 1.253 . S
O113 Zn107 1.941 1_455 S
O113 C123 1.283 . S
O114 Zn107 1.965 . S
O114 C122 1.303 1_655 S
O115 Zn108 1.938 1_545 S
O115 C122 1.247 . S
O116 Zn108 1.906 . S
O116 C124 1.304 1_455 S
O117 Zn105 1.898 1_565 S
O117 C125 1.311 . S
O118 Zn109 1.977 . S
O118 C124 1.272 . S
O119 Zn109 1.910 1_455 S
O119 C125 1.231 . S
C120 O104 1.225 1_565 S
C120 O126 1.298 . S
C121 O110 1.226 . S
C121 O111 1.307 1_545 S
C122 O114 1.303 1_455 S
C122 O115 1.247 . S
C123 O112 1.253 . S
C123 O113 1.283 . S
C124 O116 1.304 1_655 S
C124 O118 1.272 . S
C125 O117 1.311 . S
C125 O119 1.231 . S
O126 Zn108 1.953 . S
O126 C120 1.298 . S
O127 Zn128 1.953 . S
O127 C143 1.225 . S
Zn128 O127 1.953 . S
Zn128 O129 1.949 . S
Zn128 O135 1.919 . S
Zn128 O140 1.924 . S
O129 Zn128 1.949 . S
O129 Zn130 1.923 1_545 S
O129 Zn131 1.950 . S
O129 Zn132 1.945 1_545 S
Zn130 O129 1.923 1_565 S
Zn130 O133 1.933 . S
Zn130 O136 1.941 . S
Zn130 O137 1.965 . S
Zn131 O129 1.950 . S
Zn131 O138 1.938 . S
Zn131 O139 1.906 . S
Zn131 O149 1.953 . S
Zn132 O129 1.945 1_565 S
Zn132 O134 1.932 . S
Zn132 O141 1.977 . S
Zn132 O142 1.910 1_565 S
O133 Zn130 1.933 . S
O133 C144 1.226 . S
O134 Zn132 1.932 . S
O134 C144 1.307 . S
O135 Zn128 1.919 . S
O135 C146 1.253 . S
O136 Zn130 1.941 . S
O136 C146 1.283 1_565 S
O137 Zn130 1.965 . S
O137 C145 1.303 1_565 S
O138 Zn131 1.938 . S
O138 C145 1.247 . S
O139 Zn131 1.906 . S
O139 C147 1.304 1_545 S
O140 Zn128 1.924 . S
O140 C148 1.311 . S
O141 Zn132 1.977 . S
O141 C147 1.272 . S
O142 Zn132 1.910 1_545 S
O142 C148 1.231 . S
C143 O127 1.225 . S
C143 O149 1.298 . S
C144 O133 1.226 . S
C144 O134 1.307 . S
C145 O137 1.303 1_545 S
C145 O138 1.247 . S
C146 O135 1.253 . S
C146 O136 1.283 1_545 S
C147 O139 1.304 1_565 S
C147 O141 1.272 . S
C148 O140 1.311 . S
C148 O142 1.231 . S
O149 Zn131 1.953 . S
O149 C143 1.298 . S
O150 Zn151 1.953 . S
O150 C166 1.225 . S
Zn151 O150 1.953 . S
Zn151 O152 1.949 . S
Zn151 O158 1.919 . S
Zn151 O163 1.924 . S
O152 Zn151 1.949 . S
O152 Zn153 1.923 . S
O152 Zn154 1.950 . S
O152 Zn155 1.945 . S
Zn153 O152 1.923 . S
Zn153 O156 1.933 . S
Zn153 O159 1.941 . S
Zn153 O160 1.965 . S
Zn154 O152 1.950 . S
Zn154 O161 1.938 . S
Zn154 O162 1.906 . S
Zn154 O172 1.953 . S
Zn155 O152 1.945 . S
Zn155 O157 1.932 . S
Zn155 O164 1.977 . S
Zn155 O165 1.910 . S
O156 Zn153 1.933 . S
O156 C167 1.226 . S
O157 Zn155 1.932 . S
O157 C167 1.307 . S
O158 Zn151 1.919 . S
O158 C169 1.253 . S
O159 Zn153 1.941 . S
O159 C169 1.283 . S
O160 Zn153 1.965 . S
O160 C168 1.303 . S
O161 Zn154 1.938 . S
O161 C168 1.247 . S
O162 Zn154 1.906 . S
O162 C170 1.304 . S
O163 Zn151 1.924 . S
O163 C171 1.311 . S
O164 Zn155 1.977 . S
O164 C170 1.272 . S
O165 Zn155 1.910 . S
O165 C171 1.231 . S
C166 O150 1.225 . S
C166 O172 1.298 . S
C167 O156 1.226 . S
C167 O157 1.307 . S
C168 O160 1.303 . S
C168 O161 1.247 . S
C169 O158 1.253 . S
C169 O159 1.283 . S
C170 O162 1.304 . S
C170 O164 1.272 . S
C171 O163 1.311 . S
C171 O165 1.231 . S
O172 Zn154 1.953 . S
O172 C166 1.298 . S
O173 Zn174 1.953 1_655 S
O173 C189 1.225 . S
Zn174 O173 1.953 1_455 S
Zn174 O175 1.949 . S
Zn174 O181 1.919 . S
Zn174 O186 1.924 . S
O175 Zn174 1.949 . S
O175 Zn176 1.917 1_455 S
O175 Zn177 1.929 1_455 S
O175 Zn178 1.973 . S
Zn176 O175 1.917 1_655 S
Zn176 O179 1.933 1_655 S
Zn176 O182 1.941 . S
Zn176 O183 1.965 . S
Zn177 O175 1.929 1_655 S
Zn177 O184 1.938 . S
Zn177 O185 1.906 . S
Zn177 O195 1.953 . S
Zn178 O175 1.973 . S
Zn178 O180 1.932 . S
Zn178 O187 1.977 . S
Zn178 O188 1.910 . S
O179 Zn176 1.933 1_455 S
O179 C190 1.226 . S
O180 Zn178 1.932 . S
O180 C190 1.307 . S
O181 Zn174 1.919 . S
O181 C192 1.253 . S
O182 Zn176 1.941 . S
O182 C192 1.283 1_655 S
O183 Zn176 1.965 . S
O183 C191 1.303 . S
O184 Zn177 1.938 . S
O184 C191 1.247 . S
O185 Zn177 1.906 . S
O185 C193 1.304 1_655 S
O186 Zn174 1.924 . S
O186 C194 1.311 . S
O187 Zn178 1.977 . S
O187 C193 1.272 . S
O188 Zn178 1.910 . S
O188 C194 1.231 . S
C189 O173 1.225 . S
C189 O195 1.298 . S
C190 O179 1.226 . S
C190 O180 1.307 . S
C191 O183 1.303 . S
C191 O184 1.247 . S
C192 O181 1.253 . S
C192 O182 1.283 1_455 S
C193 O185 1.304 1_455 S
C193 O187 1.272 . S
C194 O186 1.311 . S
C194 O188 1.231 . S
O195 Zn177 1.953 . S
O195 C189 1.298 . S
C196 C197 1.369 1_565 S
C196 C198 1.419 . S
C196 H200 0.930 . S
C197 C196 1.369 1_545 S
C197 C206 1.429 . S
C198 C196 1.419 . S
C198 C199 1.371 . S
C198 H201 0.929 . S
C199 C198 1.371 . S
C199 C205 1.417 1_565 S
H200 C196 0.930 . S
H201 C198 0.929 . S
S202 N203 1.613 . S
S202 N204 1.610 . S
N203 S202 1.613 . S
N203 C206 1.350 . S
N204 S202 1.610 . S
N204 C205 1.351 . S
C205 C199 1.417 1_545 S
C205 N204 1.351 . S
C205 C206 1.434 . S
C206 C197 1.429 . S
C206 N203 1.350 . S
C206 C205 1.434 . S
C207 C208 1.369 . S
C207 C209 1.419 . S
C207 H211 0.930 . S
C208 C207 1.369 . S
C208 C217 1.429 . S
C209 C207 1.419 . S
C209 C210 1.363 . S
C209 H212 0.929 . S
C210 C209 1.363 . S
C210 C216 1.428 . S
H211 C207 0.930 . S
H212 C209 0.929 . S
S213 N214 1.613 . S
S213 N215 1.610 . S
N214 S213 1.613 . S
N214 C217 1.350 . S
N215 S213 1.610 . S
N215 C216 1.351 . S
C216 C210 1.428 . S
C216 N215 1.351 . S
C216 C217 1.434 . S
C217 C208 1.429 . S
C217 N214 1.350 . S
C217 C216 1.434 . S
C218 C219 1.369 . S
C218 C220 1.419 . S
C218 H222 0.930 . S
C219 C218 1.369 . S
C219 C228 1.429 . S
C220 C218 1.419 . S
C220 C221 1.363 . S
C220 H223 0.929 . S
C221 C220 1.363 . S
C221 C227 1.428 . S
H222 C218 0.930 . S
H223 C220 0.929 . S
S224 N225 1.613 . S
S224 N226 1.610 . S
N225 S224 1.613 . S
N225 C228 1.350 . S
N226 S224 1.610 . S
N226 C227 1.351 . S
C227 C221 1.428 . S
C227 N226 1.351 . S
C227 C228 1.434 . S
C228 C219 1.429 . S
C228 N225 1.350 . S
C228 C227 1.434 . S
C229 C230 1.369 . S
C229 C231 1.419 1_455 S
C229 H233 0.930 1_455 S
C230 C229 1.369 . S
C230 C239 1.429 . S
C231 C229 1.419 1_655 S
C231 C232 1.363 1_655 S
C231 H234 0.929 . S
C232 C231 1.363 1_455 S
C232 C238 1.428 . S
H233 C229 0.930 1_655 S
H234 C231 0.929 . S
S235 N236 1.613 . S
S235 N237 1.610 . S
N236 S235 1.613 . S
N236 C239 1.350 . S
N237 S235 1.610 . S
N237 C238 1.351 . S
C238 C232 1.428 . S
C238 N237 1.351 . S
C238 C239 1.434 . S
C239 C230 1.429 . S
C239 N236 1.350 . S
C239 C238 1.434 . S
C240 C241 1.358 1_545 S
C240 C242 1.419 . S
C240 H244 0.930 . S
C241 C240 1.358 1_565 S
C241 C250 1.440 . S
C242 C240 1.419 . S
C242 C243 1.363 . S
C242 H245 0.929 . S
C243 C242 1.363 . S
C243 C249 1.428 1_545 S
H244 C240 0.930 . S
H245 C242 0.929 . S
S246 N247 1.613 . S
S246 N248 1.610 1_554 S
N247 S246 1.613 . S
N247 C250 1.350 1_554 S
N248 S246 1.610 1_556 S
N248 C249 1.351 . S
C249 C243 1.428 1_565 S
C249 N248 1.351 . S
C249 C250 1.434 . S
C250 C241 1.440 . S
C250 N247 1.350 1_556 S
C250 C249 1.434 . S
C251 C252 1.369 . S
C251 C253 1.419 . S
C251 H255 0.930 . S
C252 C251 1.369 . S
C252 C261 1.429 . S
C253 C251 1.419 . S
C253 C254 1.363 . S
C253 H256 0.929 . S
C254 C253 1.363 . S
C254 C260 1.428 . S
H255 C251 0.930 . S
H256 C253 0.929 . S
S257 N258 1.613 . S
S257 N259 1.610 . S
N258 S257 1.613 . S
N258 C261 1.350 . S
N259 S257 1.610 . S
N259 C260 1.351 . S
C260 C254 1.428 . S
C260 N259 1.351 . S
C260 C261 1.434 . S
C261 C252 1.429 . S
C261 N258 1.350 . S
C261 C260 1.434 . S
C262 C263 1.369 . S
C262 C264 1.419 . S
C262 H266 0.930 . S
C263 C262 1.369 . S
C263 C272 1.429 . S
C264 C262 1.419 . S
C264 C265 1.363 . S
C264 H267 0.929 . S
C265 C264 1.363 . S
C265 C271 1.428 . S
H266 C262 0.930 . S
H267 C264 0.929 . S
S268 N269 1.613 . S
S268 N270 1.610 . S
N269 S268 1.613 . S
N269 C272 1.350 . S
N270 S268 1.610 . S
N270 C271 1.351 . S
C271 C265 1.428 . S
C271 N270 1.351 . S
C271 C272 1.434 . S
C272 C263 1.429 . S
C272 N269 1.350 . S
C272 C271 1.434 . S
C273 C274 1.369 1_455 S
C273 C275 1.419 . S
C273 H277 0.930 . S
C274 C273 1.369 1_655 S
C274 C283 1.429 . S
C275 C273 1.419 . S
C275 C276 1.363 . S
C275 H278 0.929 . S
C276 C275 1.363 . S
C276 C282 1.428 1_455 S
H277 C273 0.930 . S
H278 C275 0.929 . S
S279 N280 1.613 . S
S279 N281 1.610 1_554 S
N280 S279 1.613 . S
N280 C283 1.350 1_554 S
N281 S279 1.610 1_556 S
N281 C282 1.351 . S
C282 C276 1.428 1_655 S
C282 N281 1.351 . S
C282 C283 1.434 . S
C283 C274 1.429 . S
C283 N280 1.350 1_556 S
C283 C282 1.434 . S
C284 C285 1.369 . S
C284 C286 1.419 . S
C284 H288 0.930 1_455 S
C285 C284 1.369 . S
C285 C294 1.429 . S
C286 C284 1.419 . S
C286 C287 1.363 . S
C286 H289 0.929 1_455 S
C287 C286 1.363 . S
C287 C293 1.428 . S
H288 C284 0.930 1_655 S
H289 C286 0.929 1_655 S
S290 N291 1.613 . S
S290 N292 1.610 . S
N291 S290 1.613 . S
N291 C294 1.350 . S
N292 S290 1.610 . S
N292 C293 1.351 . S
C293 C287 1.428 . S
C293 N292 1.351 . S
C293 C294 1.434 . S
C294 C285 1.429 . S
C294 N291 1.350 . S
C294 C293 1.434 . S
C295 C296 1.369 1_565 S
C295 C297 1.419 . S
C295 H299 0.930 . S
C296 C295 1.369 1_545 S
C296 C305 1.429 . S
C297 C295 1.419 . S
C297 C298 1.363 1_565 S
C297 H300 0.929 . S
C298 C297 1.363 1_545 S
C298 C304 1.428 . S
H299 C295 0.930 . S
H300 C297 0.929 . S
S301 N302 1.613 . S
S301 N303 1.610 . S
N302 S301 1.613 . S
N302 C305 1.350 . S
N303 S301 1.610 . S
N303 C304 1.351 . S
C304 C298 1.428 . S
C304 N303 1.351 . S
C304 C305 1.434 . S
C305 C296 1.429 . S
C305 N302 1.350 . S
C305 C304 1.434 . S
C306 C307 1.369 . S
C306 C308 1.419 . S
C306 H310 0.930 . S
C307 C306 1.369 . S
C307 C316 1.429 . S
C308 C306 1.419 . S
C308 C309 1.363 . S
C308 H311 0.929 . S
C309 C308 1.363 . S
C309 C315 1.428 . S
H310 C306 0.930 . S
H311 C308 0.929 . S
S312 N313 1.613 . S
S312 N314 1.610 . S
N313 S312 1.613 . S
N313 C316 1.350 . S
N314 S312 1.610 . S
N314 C315 1.351 . S
C315 C309 1.428 . S
C315 N314 1.351 . S
C315 C316 1.434 . S
C316 C307 1.429 . S
C316 N313 1.350 . S
C316 C315 1.434 . S
C317 C318 1.369 . S
C317 C319 1.419 . S
C317 H321 0.930 . S
C318 C317 1.369 . S
C318 C327 1.429 . S
C319 C317 1.419 . S
C319 C320 1.363 . S
C319 H322 0.929 . S
C320 C319 1.363 . S
C320 C326 1.428 . S
H321 C317 0.930 . S
H322 C319 0.929 . S
S323 N324 1.613 . S
S323 N325 1.610 . S
N324 S323 1.613 . S
N324 C327 1.350 . S
N325 S323 1.610 . S
N325 C326 1.351 . S
C326 C320 1.428 . S
C326 N325 1.351 . S
C326 C327 1.434 . S
C327 C318 1.429 . S
C327 N324 1.350 . S
C327 C326 1.434 . S
C328 C329 1.369 1_655 S
C328 C330 1.419 1_654 S
C328 H332 0.930 . S
C329 C328 1.369 1_455 S
C329 C338 1.429 1_554 S
C330 C328 1.419 1_456 S
C330 C331 1.363 . S
C330 H333 0.929 . S
C331 C330 1.363 . S
C331 C337 1.428 . S
H332 C328 0.930 . S
H333 C330 0.929 . S
S334 N335 1.613 . S
S334 N336 1.610 . S
N335 S334 1.613 . S
N335 C338 1.350 . S
N336 S334 1.610 . S
N336 C337 1.351 . S
C337 C331 1.428 . S
C337 N336 1.351 . S
C337 C338 1.434 . S
C338 C329 1.429 1_556 S
C338 N335 1.350 . S
C338 C337 1.434 . S
C339 C340 1.369 . S
C339 C341 1.419 . S
C339 H343 0.930 . S
C340 C339 1.369 . S
C340 C349 1.429 1_545 S
C341 C339 1.419 . S
C341 C342 1.363 . S
C341 H344 0.929 . S
C342 C341 1.363 . S
C342 C348 1.459 . S
H343 C339 0.930 . S
H344 C341 0.929 . S
S345 N346 1.613 . S
S345 N347 1.610 . S
N346 S345 1.613 . S
N346 C349 1.350 . S
N347 S345 1.610 . S
N347 C348 1.332 1_565 S
C348 C342 1.459 . S
C348 N347 1.332 1_545 S
C348 C349 1.420 1_545 S
C349 C340 1.429 1_565 S
C349 N346 1.350 . S
C349 C348 1.420 1_565 S
C350 C351 1.369 . S
C350 C352 1.419 . S
C350 H354 0.930 1_556 S
C351 C350 1.369 . S
C351 C360 1.429 . S
C352 C350 1.419 . S
C352 C353 1.363 . S
C352 H355 0.929 . S
C353 C352 1.363 . S
C353 C359 1.428 . S
H354 C350 0.930 1_554 S
H355 C352 0.929 . S
S356 N357 1.613 . S
S356 N358 1.610 . S
N357 S356 1.613 . S
N357 C360 1.350 . S
N358 S356 1.610 . S
N358 C359 1.351 . S
C359 C353 1.428 . S
C359 N358 1.351 . S
C359 C360 1.434 . S
C360 C351 1.429 . S
C360 N357 1.350 . S
C360 C359 1.434 . S
C361 C362 1.369 . S
C361 C363 1.419 . S
C361 H365 0.930 1_556 S
C362 C361 1.369 . S
C362 C371 1.429 . S
C363 C361 1.419 . S
C363 C364 1.363 . S
C363 H366 0.929 . S
C364 C363 1.363 . S
C364 C370 1.428 . S
H365 C361 0.930 1_554 S
H366 C363 0.929 . S
S367 N368 1.613 . S
S367 N369 1.610 . S
N368 S367 1.613 . S
N368 C371 1.350 . S
N369 S367 1.610 . S
N369 C370 1.351 . S
C370 C364 1.428 . S
C370 N369 1.351 . S
C370 C371 1.434 . S
C371 C362 1.429 . S
C371 N368 1.350 . S
C371 C370 1.434 . S
C372 C373 1.369 . S
C372 C374 1.419 1_554 S
C372 H376 0.930 . S
C373 C372 1.369 . S
C373 C382 1.429 . S
C374 C372 1.419 1_556 S
C374 C375 1.363 1_556 S
C374 H377 0.929 . S
C375 C374 1.363 1_554 S
C375 C381 1.428 . S
H376 C372 0.930 . S
H377 C374 0.929 . S
S378 N379 1.613 . S
S378 N380 1.610 . S
N379 S378 1.613 . S
N379 C382 1.350 . S
N380 S378 1.610 . S
N380 C381 1.351 . S
C381 C375 1.428 . S
C381 N380 1.351 . S
C381 C382 1.434 . S
C382 C373 1.429 . S
C382 N379 1.350 . S
C382 C381 1.434 . S
C383 C384 1.369 1_556 S
C383 C385 1.419 . S
C383 H387 0.930 . S
C384 C383 1.369 1_554 S
C384 C393 1.429 . S
C385 C383 1.419 . S
C385 C386 1.363 . S
C385 H388 0.929 . S
C386 C385 1.363 . S
C386 C392 1.428 1_556 S
H387 C383 0.930 . S
H388 C385 0.929 . S
S389 N390 1.613 . S
S389 N391 1.610 . S
N390 S389 1.613 . S
N390 C393 1.350 . S
N391 S389 1.610 . S
N391 C392 1.351 . S
C392 C386 1.428 1_554 S
C392 N391 1.351 . S
C392 C393 1.434 . S
C393 C384 1.429 . S
C393 N390 1.350 . S
C393 C392 1.434 . S
C394 C395 1.369 . S
C394 C396 1.419 . S
C394 H398 0.930 . S
C395 C394 1.369 . S
C395 C404 1.429 1_554 S
C396 C394 1.419 . S
C396 C397 1.363 1_554 S
C396 H399 0.929 . S
C397 C396 1.363 1_556 S
C397 C403 1.428 . S
H398 C394 0.930 . S
H399 C396 0.929 . S
S400 N401 1.613 . S
S400 N402 1.610 . S
N401 S400 1.613 . S
N401 C404 1.350 . S
N402 S400 1.610 . S
N402 C403 1.351 . S
C403 C397 1.428 . S
C403 N402 1.351 . S
C403 C404 1.434 . S
C404 C395 1.429 1_556 S
C404 N401 1.350 . S
C404 C403 1.434 . S
C405 C406 1.369 . S
C405 C407 1.419 1_554 S
C405 H409 0.930 . S
C406 C405 1.369 . S
C406 C415 1.429 . S
C407 C405 1.419 1_556 S
C407 C408 1.363 . S
C407 H410 0.929 . S
C408 C407 1.363 . S
C408 C414 1.428 . S
H409 C405 0.930 . S
H410 C407 0.929 . S
S411 N412 1.613 . S
S411 N413 1.610 1_554 S
N412 S411 1.613 . S
N412 C415 1.350 . S
N413 S411 1.610 1_556 S
N413 C414 1.351 . S
C414 C408 1.428 . S
C414 N413 1.351 . S
C414 C415 1.434 1_556 S
C415 C406 1.429 . S
C415 N412 1.350 . S
C415 C414 1.434 1_554 S
C416 C417 1.369 1_455 S
C416 C418 1.419 . S
C416 H420 0.930 . S
C417 C416 1.369 1_655 S
C417 C426 1.429 . S
C418 C416 1.419 . S
C418 C419 1.363 1_455 S
C418 H421 0.929 . S
C419 C418 1.363 1_655 S
C419 C425 1.428 . S
H420 C416 0.930 . S
H421 C418 0.929 . S
S422 N423 1.613 . S
S422 N424 1.610 . S
N423 S422 1.613 . S
N423 C426 1.350 . S
N424 S422 1.610 . S
N424 C425 1.351 . S
C425 C419 1.428 . S
C425 N424 1.351 . S
C425 C426 1.434 . S
C426 C417 1.429 . S
C426 N423 1.350 . S
C426 C425 1.434 . S
C427 C428 1.369 . S
C427 C429 1.419 . S
C427 H431 0.930 1_565 S
C428 C427 1.369 . S
C428 C437 1.429 . S
C429 C427 1.419 . S
C429 C430 1.363 . S
C429 H432 0.929 . S
C430 C429 1.363 . S
C430 C436 1.428 . S
H431 C427 0.930 1_545 S
H432 C429 0.929 . S
S433 N434 1.613 . S
S433 N435 1.610 . S
N434 S433 1.613 . S
N434 C437 1.350 . S
N435 S433 1.610 . S
N435 C436 1.351 . S
C436 C430 1.428 . S
C436 N435 1.351 . S
C436 C437 1.434 . S
C437 C428 1.429 . S
C437 N434 1.350 . S
C437 C436 1.434 . S
C438 C439 1.369 . S
C438 C440 1.419 . S
C438 H442 0.930 . S
C439 C438 1.369 . S
C439 C448 1.429 . S
C440 C438 1.419 . S
C440 C441 1.363 . S
C440 H443 0.929 . S
C441 C440 1.363 . S
C441 C447 1.428 . S
H442 C438 0.930 . S
H443 C440 0.929 . S
S444 N445 1.613 . S
S444 N446 1.610 . S
N445 S444 1.613 . S
N445 C448 1.350 . S
N446 S444 1.610 . S
N446 C447 1.351 . S
C447 C441 1.428 . S
C447 N446 1.351 . S
C447 C448 1.434 . S
C448 C439 1.429 . S
C448 N445 1.350 . S
C448 C447 1.434 . S
C449 C450 1.369 . S
C449 C451 1.419 . S
C449 H453 0.930 . S
C450 C449 1.369 . S
C450 C459 1.429 . S
C451 C449 1.419 . S
C451 C452 1.363 . S
C451 H454 0.929 . S
C452 C451 1.363 . S
C452 C458 1.428 . S
H453 C449 0.930 . S
H454 C451 0.929 . S
S455 N456 1.613 . S
S455 N457 1.610 . S
N456 S455 1.613 . S
N456 C459 1.350 . S
N457 S455 1.610 . S
N457 C458 1.351 . S
C458 C452 1.428 . S
C458 N457 1.351 . S
C458 C459 1.434 . S
C459 C450 1.429 . S
C459 N456 1.350 . S
C459 C458 1.434 . S
C197 C82 1.487 . S
C199 C120 1.612 . S
C210 C143 1.637 . S
C208 C95 1.525 . S
C221 C166 1.636 . S
C219 C56 1.510 . S
C232 C193 1.523 . S
C230 C69 1.505 . S
C243 C121 1.563 . S
C241 C30 1.444 1_565 S
C252 C43 1.396 . S
C254 C144 1.527 . S
C263 C4 1.382 . S
C265 C167 1.523 . S
C274 C17 1.455 1_656 S
C276 C192 1.583 . S
C287 C122 0.755 . S
C285 C74 0.749 . S
C298 C145 0.724 . S
C296 C87 0.721 . S
C309 C168 0.748 . S
C307 C100 0.738 . S
C318 C61 0.904 . S
C320 C194 0.860 . S
C329 C22 0.996 . S
C331 C125 0.961 . S
C342 C148 0.933 . S
C340 C35 1.006 1_556 S
C353 C171 0.913 . S
C351 C48 0.977 . S
C362 C9 0.729 . S
C364 C191 0.727 . S
C373 C73 1.566 . S
C375 C123 1.546 1_554 S
C384 C86 1.524 . S
C386 C146 1.532 . S
C397 C169 1.541 . S
C395 C99 1.546 . S
C408 C190 1.458 . S
C406 C60 1.404 . S
C417 C21 1.641 1_655 S
C419 C124 1.567 . S
C430 C147 1.515 . S
C428 C34 1.604 1_565 S
C441 C170 1.506 . S
C439 C47 1.584 . S
C450 C8 1.644 . S
C452 C189 1.697 . S
