# Generated by pormake.
# Topology ctn, (3,4)-cn, num edge types: 1
# Building blocks:
#     Node 0, Type 0, BuildingBlock: MIDCAF_clean_linker_0, # of connection points: 3
#     Node 1, Type 0, BuildingBlock: MIDCAF_clean_linker_0, # of connection points: 3
#     Node 2, Type 0, BuildingBlock: MIDCAF_clean_linker_0, # of connection points: 3
#     Node 3, Type 0, BuildingBlock: MIDCAF_clean_linker_0, # of connection points: 3
#     Node 4, Type 0, BuildingBlock: MIDCAF_clean_linker_0, # of connection points: 3
#     Node 5, Type 0, BuildingBlock: MIDCAF_clean_linker_0, # of connection points: 3
#     Node 6, Type 0, BuildingBlock: MIDCAF_clean_linker_0, # of connection points: 3
#     Node 7, Type 0, BuildingBlock: MIDCAF_clean_linker_0, # of connection points: 3
#     Node 8, Type 0, BuildingBlock: MIDCAF_clean_linker_0, # of connection points: 3
#     Node 9, Type 0, BuildingBlock: MIDCAF_clean_linker_0, # of connection points: 3
#     Node 10, Type 0, BuildingBlock: MIDCAF_clean_linker_0, # of connection points: 3
#     Node 11, Type 0, BuildingBlock: MIDCAF_clean_linker_0, # of connection points: 3
#     Node 12, Type 0, BuildingBlock: MIDCAF_clean_linker_0, # of connection points: 3
#     Node 13, Type 0, BuildingBlock: MIDCAF_clean_linker_0, # of connection points: 3
#     Node 14, Type 0, BuildingBlock: MIDCAF_clean_linker_0, # of connection points: 3
#     Node 15, Type 0, BuildingBlock: MIDCAF_clean_linker_0, # of connection points: 3
#     Node 16, Type 1, BuildingBlock: QUQFOY_clean_sbu_1, # of connection points: 4
#     Node 17, Type 1, BuildingBlock: QUQFOY_clean_sbu_1, # of connection points: 4
#     Node 18, Type 1, BuildingBlock: QUQFOY_clean_sbu_1, # of connection points: 4
#     Node 19, Type 1, BuildingBlock: QUQFOY_clean_sbu_1, # of connection points: 4
#     Node 20, Type 1, BuildingBlock: QUQFOY_clean_sbu_1, # of connection points: 4
#     Node 21, Type 1, BuildingBlock: QUQFOY_clean_sbu_1, # of connection points: 4
#     Node 22, Type 1, BuildingBlock: QUQFOY_clean_sbu_1, # of connection points: 4
#     Node 23, Type 1, BuildingBlock: QUQFOY_clean_sbu_1, # of connection points: 4
#     Node 24, Type 1, BuildingBlock: QUQFOY_clean_sbu_1, # of connection points: 4
#     Node 25, Type 1, BuildingBlock: QUQFOY_clean_sbu_1, # of connection points: 4
#     Node 26, Type 1, BuildingBlock: QUQFOY_clean_sbu_1, # of connection points: 4
#     Node 27, Type 1, BuildingBlock: QUQFOY_clean_sbu_1, # of connection points: 4
#     Edge 28, Type (0, 1), BuildingBlock: TEMPAE_clean_linker_10, # of connection points: 2
#     Edge 29, Type (0, 1), BuildingBlock: TEMPAE_clean_linker_10, # of connection points: 2
#     Edge 30, Type (0, 1), BuildingBlock: TEMPAE_clean_linker_10, # of connection points: 2
#     Edge 31, Type (0, 1), BuildingBlock: TEMPAE_clean_linker_10, # of connection points: 2
#     Edge 32, Type (0, 1), BuildingBlock: TEMPAE_clean_linker_10, # of connection points: 2
#     Edge 33, Type (0, 1), BuildingBlock: TEMPAE_clean_linker_10, # of connection points: 2
#     Edge 34, Type (0, 1), BuildingBlock: TEMPAE_clean_linker_10, # of connection points: 2
#     Edge 35, Type (0, 1), BuildingBlock: TEMPAE_clean_linker_10, # of connection points: 2
#     Edge 36, Type (0, 1), BuildingBlock: TEMPAE_clean_linker_10, # of connection points: 2
#     Edge 37, Type (0, 1), BuildingBlock: TEMPAE_clean_linker_10, # of connection points: 2
#     Edge 38, Type (0, 1), BuildingBlock: TEMPAE_clean_linker_10, # of connection points: 2
#     Edge 39, Type (0, 1), BuildingBlock: TEMPAE_clean_linker_10, # of connection points: 2
#     Edge 40, Type (0, 1), BuildingBlock: TEMPAE_clean_linker_10, # of connection points: 2
#     Edge 41, Type (0, 1), BuildingBlock: TEMPAE_clean_linker_10, # of connection points: 2
#     Edge 42, Type (0, 1), BuildingBlock: TEMPAE_clean_linker_10, # of connection points: 2
#     Edge 43, Type (0, 1), BuildingBlock: TEMPAE_clean_linker_10, # of connection points: 2
#     Edge 44, Type (0, 1), BuildingBlock: TEMPAE_clean_linker_10, # of connection points: 2
#     Edge 45, Type (0, 1), BuildingBlock: TEMPAE_clean_linker_10, # of connection points: 2
#     Edge 46, Type (0, 1), BuildingBlock: TEMPAE_clean_linker_10, # of connection points: 2
#     Edge 47, Type (0, 1), BuildingBlock: TEMPAE_clean_linker_10, # of connection points: 2
#     Edge 48, Type (0, 1), BuildingBlock: TEMPAE_clean_linker_10, # of connection points: 2
#     Edge 49, Type (0, 1), BuildingBlock: TEMPAE_clean_linker_10, # of connection points: 2
#     Edge 50, Type (0, 1), BuildingBlock: TEMPAE_clean_linker_10, # of connection points: 2
#     Edge 51, Type (0, 1), BuildingBlock: TEMPAE_clean_linker_10, # of connection points: 2
#     Edge 52, Type (0, 1), BuildingBlock: TEMPAE_clean_linker_10, # of connection points: 2
#     Edge 53, Type (0, 1), BuildingBlock: TEMPAE_clean_linker_10, # of connection points: 2
#     Edge 54, Type (0, 1), BuildingBlock: TEMPAE_clean_linker_10, # of connection points: 2
#     Edge 55, Type (0, 1), BuildingBlock: TEMPAE_clean_linker_10, # of connection points: 2
#     Edge 56, Type (0, 1), BuildingBlock: TEMPAE_clean_linker_10, # of connection points: 2
#     Edge 57, Type (0, 1), BuildingBlock: TEMPAE_clean_linker_10, # of connection points: 2
#     Edge 58, Type (0, 1), BuildingBlock: TEMPAE_clean_linker_10, # of connection points: 2
#     Edge 59, Type (0, 1), BuildingBlock: TEMPAE_clean_linker_10, # of connection points: 2
#     Edge 60, Type (0, 1), BuildingBlock: TEMPAE_clean_linker_10, # of connection points: 2
#     Edge 61, Type (0, 1), BuildingBlock: TEMPAE_clean_linker_10, # of connection points: 2
#     Edge 62, Type (0, 1), BuildingBlock: TEMPAE_clean_linker_10, # of connection points: 2
#     Edge 63, Type (0, 1), BuildingBlock: TEMPAE_clean_linker_10, # of connection points: 2
#     Edge 64, Type (0, 1), BuildingBlock: TEMPAE_clean_linker_10, # of connection points: 2
#     Edge 65, Type (0, 1), BuildingBlock: TEMPAE_clean_linker_10, # of connection points: 2
#     Edge 66, Type (0, 1), BuildingBlock: TEMPAE_clean_linker_10, # of connection points: 2
#     Edge 67, Type (0, 1), BuildingBlock: TEMPAE_clean_linker_10, # of connection points: 2
#     Edge 68, Type (0, 1), BuildingBlock: TEMPAE_clean_linker_10, # of connection points: 2
#     Edge 69, Type (0, 1), BuildingBlock: TEMPAE_clean_linker_10, # of connection points: 2
#     Edge 70, Type (0, 1), BuildingBlock: TEMPAE_clean_linker_10, # of connection points: 2
#     Edge 71, Type (0, 1), BuildingBlock: TEMPAE_clean_linker_10, # of connection points: 2
#     Edge 72, Type (0, 1), BuildingBlock: TEMPAE_clean_linker_10, # of connection points: 2
#     Edge 73, Type (0, 1), BuildingBlock: TEMPAE_clean_linker_10, # of connection points: 2
#     Edge 74, Type (0, 1), BuildingBlock: TEMPAE_clean_linker_10, # of connection points: 2
#     Edge 75, Type (0, 1), BuildingBlock: TEMPAE_clean_linker_10, # of connection points: 2
# Relax obj value: 0.036
# Max RMSD: 0.143
# Mean RMSD: 0.064
data_MOF--net-ctn--node1-QUQFOY_clean_sbu_1--node2-MIDCAF_clean_linker_0--edge1-TEMPAE_clean_linker_10
_symmetry_space_group_name_H-M    P1
_symmetry_Int_Tables_number       1
_symmetry_cell_setting            triclinic
loop_
_symmetry_equiv_pos_as_xyz
'x, y, z'
_cell_length_a     67.61418
_cell_length_b     67.558748
_cell_length_c     67.728964
_cell_angle_alpha  92.856472
_cell_angle_beta   90.111104
_cell_angle_gamma 94.578168
loop_
_atom_site_label
_atom_site_type_symbol
_atom_site_fract_x
_atom_site_fract_y
_atom_site_fract_z
_atom_type_partial_charge
C0 C 0.00816 0.12169 0.13359 0.0
C1 C 0.00853 0.10788 0.1484 0.0
C2 C 0.02418 0.09539 0.14868 0.0
C3 C 0.03859 0.09602 0.13396 0.0
H4 H 0.09026 0.06959 0.11293 0.0
H5 H 0.10937 0.0403 0.10898 0.0
H6 H 0.1063 0.04341 0.04559 0.0
H7 H 0.0876 0.07279 0.04939 0.0
H8 H 0.08232 0.11829 0.03522 0.0
H9 H 0.07784 0.13876 0.00716 0.0
H10 H 0.03206 0.16792 0.03889 0.0
H11 H 0.03676 0.1479 0.06705 0.0
H12 H 0.02152 0.13276 0.10732 0.0
H13 H 0.99642 0.13167 0.13313 0.0
H14 H 0.02479 0.08442 0.15974 0.0
H15 H 0.05003 0.08569 0.13432 0.0
N16 N 0.06385 0.09305 0.1 0.0
N17 N 0.07393 0.10318 0.06873 0.0
N18 N 0.05042 0.12036 0.08654 0.0
C19 C 0.07514 0.09061 0.08364 0.0
C20 C 0.06173 0.11821 0.07013 0.0
C21 C 0.05142 0.10788 0.10157 0.0
C22 C 0.08745 0.07351 0.08146 0.0
C23 C 0.09374 0.06406 0.09816 0.0
C24 C 0.10467 0.04736 0.09594 0.0
C25 C 0.10907 0.0396 0.077 0.0
C26 C 0.10287 0.04905 0.06034 0.0
C27 C 0.09232 0.06594 0.06254 0.0
C28 C 0.05985 0.13135 0.05343 0.0
C29 C 0.07139 0.12917 0.0363 0.0
C30 C 0.06878 0.14083 0.02016 0.0
C31 C 0.05458 0.15495 0.02077 0.0
C32 C 0.04333 0.15739 0.03803 0.0
C33 C 0.04596 0.14578 0.05416 0.0
C34 C 0.0377 0.10914 0.11856 0.0
C35 C 0.02262 0.12236 0.11885 0.0
C36 C 0.25282 0.65902 0.23819 0.0
C37 C 0.23262 0.65822 0.23314 0.0
C38 C 0.22487 0.67516 0.22592 0.0
C39 C 0.23705 0.69265 0.22401 0.0
H40 H 0.23692 0.74998 0.20608 0.0
H41 H 0.22568 0.77594 0.18611 0.0
H42 H 0.28527 0.80432 0.18612 0.0
H43 H 0.29639 0.77878 0.20656 0.0
H44 H 0.32487 0.76483 0.24312 0.0
H45 H 0.35676 0.76757 0.26041 0.0
H46 H 0.35305 0.70388 0.26499 0.0
H47 H 0.32127 0.701 0.24768 0.0
H48 H 0.28044 0.67666 0.24065 0.0
H49 H 0.25914 0.64624 0.24398 0.0
H50 H 0.20937 0.67488 0.22175 0.0
H51 H 0.23056 0.70547 0.21854 0.0
N52 N 0.26322 0.72811 0.21933 0.0
N53 N 0.29345 0.74675 0.22611 0.0
N54 N 0.2886 0.71392 0.23588 0.0
C55 C 0.27487 0.74536 0.21821 0.0
C56 C 0.30041 0.73107 0.235 0.0
C57 C 0.27 0.71232 0.22811 0.0
C58 C 0.26763 0.76213 0.20773 0.0
C59 C 0.2476 0.76188 0.20202 0.0
C60 C 0.24114 0.77674 0.19053 0.0
C61 C 0.25459 0.79213 0.18436 0.0
C62 C 0.27444 0.79285 0.19081 0.0
C63 C 0.28086 0.77808 0.20242 0.0
C64 C 0.32041 0.73271 0.24415 0.0
C65 C 0.33092 0.75138 0.24762 0.0
C66 C 0.34914 0.75298 0.25758 0.0
C67 C 0.3573 0.73594 0.26408 0.0
C68 C 0.34717 0.71723 0.26 0.0
C69 C 0.32888 0.71564 0.25022 0.0
C70 C 0.25721 0.69359 0.22942 0.0
C71 C 0.26498 0.67652 0.2364 0.0
C72 C 0.93868 0.38781 0.04236 0.0
C73 C 0.93646 0.39243 0.02252 0.0
C74 C 0.92802 0.4101 0.01827 0.0
C75 C 0.92267 0.42327 0.03357 0.0
H76 H 0.90781 0.48156 0.04573 0.0
H77 H 0.89231 0.51202 0.03905 0.0
H78 H 0.87555 0.51857 0.10029 0.0
H79 H 0.89157 0.48827 0.10725 0.0
H80 H 0.93414 0.47424 0.1331 0.0
H81 H 0.95836 0.47519 0.15983 0.0
H82 H 0.97447 0.41679 0.14051 0.0
H83 H 0.95042 0.41578 0.11365 0.0
H84 H 0.93579 0.3971 0.07272 0.0
H85 H 0.94472 0.3741 0.04611 0.0
H86 H 0.92622 0.41413 0.00313 0.0
H87 H 0.91681 0.43706 0.0298 0.0
N88 N 0.91262 0.4502 0.06632 0.0
N89 N 0.919 0.46231 0.09903 0.0
N90 N 0.93057 0.43204 0.08768 0.0
C91 C 0.91068 0.46436 0.08102 0.0
C92 C 0.92903 0.44614 0.10244 0.0
C93 C 0.92238 0.43387 0.06964 0.0
C94 C 0.90085 0.48252 0.07701 0.0
C95 C 0.90082 0.48946 0.05779 0.0
C96 C 0.89211 0.50693 0.05398 0.0
C97 C 0.88291 0.51756 0.0692 0.0
C98 C 0.88265 0.51057 0.08837 0.0
C99 C 0.8918 0.49331 0.09231 0.0
C100 C 0.94058 0.44512 0.12094 0.0
C101 C 0.9425 0.46139 0.13476 0.0
C102 C 0.95634 0.46191 0.15017 0.0
C103 C 0.96849 0.44617 0.15207 0.0
C104 C 0.96553 0.42927 0.13918 0.0
C105 C 0.95168 0.42872 0.12381 0.0
C106 C 0.92576 0.41905 0.05341 0.0
C107 C 0.93345 0.40098 0.05761 0.0
C108 C 0.74779 0.77123 0.17898 0.0
C109 C 0.74261 0.75083 0.18082 0.0
C110 C 0.73264 0.7447 0.19798 0.0
C111 C 0.72779 0.75868 0.21278 0.0
H112 H 0.68581 0.76842 0.25764 0.0
H113 H 0.65896 0.76174 0.28104 0.0
H114 H 0.66858 0.82183 0.30603 0.0
H115 H 0.69551 0.82845 0.2831 0.0
H116 H 0.72022 0.86061 0.2596 0.0
H117 H 0.73732 0.89384 0.26079 0.0
H118 H 0.78196 0.87306 0.22113 0.0
H119 H 0.76498 0.83978 0.21985 0.0
H120 H 0.74726 0.80069 0.1917 0.0
H121 H 0.755 0.77661 0.16581 0.0
H122 H 0.7286 0.7291 0.2 0.0
H123 H 0.72004 0.7535 0.22576 0.0
N124 N 0.71366 0.78953 0.23996 0.0
N125 N 0.71743 0.82233 0.25332 0.0
N126 N 0.7365 0.81289 0.22619 0.0
C127 C 0.70846 0.80363 0.25361 0.0
C128 C 0.73148 0.82708 0.23971 0.0
C129 C 0.72768 0.7941 0.22617 0.0
C130 C 0.6928 0.79901 0.26837 0.0
C131 C 0.68232 0.78016 0.26823 0.0
C132 C 0.66688 0.77634 0.28158 0.0
C133 C 0.66164 0.79125 0.29538 0.0
C134 C 0.67242 0.80992 0.29579 0.0
C135 C 0.68779 0.81375 0.28248 0.0
C136 C 0.7413 0.84747 0.23973 0.0
C137 C 0.73363 0.8631 0.25105 0.0
C138 C 0.74331 0.88218 0.25163 0.0
C139 C 0.76095 0.88596 0.24109 0.0
C140 C 0.76845 0.87047 0.22951 0.0
C141 C 0.75867 0.85144 0.22875 0.0
C142 C 0.73299 0.77906 0.21083 0.0
C143 C 0.74318 0.78512 0.19383 0.0
C144 C 0.07495 0.91898 0.49478 0.0
C145 C 0.05621 0.90859 0.49591 0.0
C146 C 0.04204 0.91077 0.48112 0.0
C147 C 0.04629 0.92364 0.46589 0.0
H148 H 0.02434 0.94611 0.41226 0.0
H149 H 0.99777 0.95588 0.39131 0.0
H150 H 0.02839 0.01427 0.38769 0.0
H151 H 0.05525 0.00419 0.40771 0.0
H152 H 0.10569 0.00142 0.41077 0.0
H153 H 0.13592 0.02357 0.41414 0.0
H154 H 0.14795 -0.00057 0.47046 0.0
H155 H 0.11837 0.97686 0.46674 0.0
H156 H 0.09377 0.93978 0.47939 0.0
H157 H 0.08625 0.91738 0.50582 0.0
H158 H 0.0274 0.90302 0.48171 0.0
H159 H 0.03486 0.92536 0.45503 0.0
N160 N 0.05455 0.95386 0.43728 0.0
N161 N 0.07597 0.97925 0.42476 0.0
N162 N 0.08678 0.96029 0.45006 0.0
C163 C 0.05799 0.9687 0.42456 0.0
C164 C 0.09047 0.97505 0.4374 0.0
C165 C 0.06894 0.94957 0.45009 0.0
C166 C 0.04195 0.97433 0.41157 0.0
C167 C 0.02541 0.96099 0.40688 0.0
C168 C 0.01011 0.96666 0.39498 0.0
C169 C 0.01086 0.9859 0.38777 0.0
C170 C 0.02743 -0.00079 0.39258 0.0
C171 C 0.04284 0.99345 0.40418 0.0
C172 C 0.10954 0.98744 0.43853 0.0
C173 C 0.11493 0.0007 0.42376 0.0
C174 C 0.13221 0.01347 0.42573 0.0
C175 C 0.14435 0.01338 0.44261 0.0
C176 C 0.13919 -0.0003 0.45709 0.0
C177 C 0.12208 0.98681 0.45501 0.0
C178 C 0.06486 0.93455 0.4651 0.0
C179 C 0.07925 0.93176 0.47953 0.0
C180 C 0.2283 0.78258 0.86447 0.0
C181 C 0.21189 0.79336 0.86925 0.0
C182 C 0.19665 0.79393 0.85524 0.0
C183 C 0.19788 0.78407 0.83671 0.0
H184 H 0.18164 0.7881 0.77741 0.0
H185 H 0.15608 0.79325 0.75339 0.0
H186 H 0.16649 0.73736 0.7229 0.0
H187 H 0.19263 0.73247 0.74666 0.0
H188 H 0.23562 0.71489 0.75811 0.0
H189 H 0.25884 0.68915 0.75397 0.0
H190 H 0.27975 0.70208 0.81389 0.0
H191 H 0.25703 0.72799 0.81795 0.0
H192 H 0.24231 0.76437 0.84283 0.0
H193 H 0.2402 0.78179 0.87508 0.0
H194 H 0.18392 0.80228 0.85851 0.0
H195 H 0.18589 0.78487 0.82623 0.0
N196 N 0.20283 0.76606 0.79757 0.0
N197 N 0.21694 0.74229 0.77672 0.0
N198 N 0.22896 0.74898 0.80908 0.0
C199 C 0.20347 0.75605 0.77972 0.0
C200 C 0.22983 0.73875 0.79136 0.0
C201 C 0.21549 0.76261 0.81233 0.0
C202 C 0.18905 0.75975 0.76409 0.0
C203 C 0.17861 0.77694 0.76552 0.0
C204 C 0.16387 0.77987 0.75177 0.0
C205 C 0.15902 0.7656 0.73636 0.0
C206 C 0.16995 0.74873 0.73449 0.0
C207 C 0.18488 0.74588 0.74818 0.0
C208 C 0.24435 0.72352 0.78838 0.0
C209 C 0.24526 0.71234 0.77037 0.0
C210 C 0.2585 0.69752 0.76801 0.0
C211 C 0.27115 0.69356 0.7836 0.0
C212 C 0.27044 0.70494 0.80147 0.0
C213 C 0.25725 0.71973 0.80383 0.0
C214 C 0.2143 0.77325 0.83189 0.0
C215 C 0.22946 0.77255 0.84603 0.0
C216 C 0.95379 0.64664 0.49256 0.0
C217 C 0.93842 0.65415 0.5039 0.0
C218 C 0.91903 0.64516 0.50138 0.0
C219 C 0.91523 0.62867 0.48828 0.0
H220 H 0.8737 0.58148 0.47601 0.0
H221 H 0.84563 0.55839 0.48368 0.0
H222 H 0.87199 0.51147 0.44984 0.0
H223 H 0.8998 0.53464 0.44167 0.0
H224 H 0.93512 0.5506 0.41069 0.0
H225 H 0.96097 0.54058 0.38821 0.0
H226 H 0.00285 0.58448 0.41705 0.0
H227 H 0.9769 0.59496 0.43905 0.0
H228 H 0.96227 0.62465 0.47118 0.0
H229 H 0.96895 0.65299 0.49434 0.0
H230 H 0.9068 0.6508 0.50963 0.0
H231 H 0.90018 0.62192 0.48691 0.0
N232 N 0.91 0.5908 0.46614 0.0
N233 N 0.92118 0.56804 0.44225 0.0
N234 N 0.94109 0.59701 0.45151 0.0
C235 C 0.90698 0.57344 0.45514 0.0
C236 C 0.93825 0.5798 0.4403 0.0
C237 C 0.92701 0.60267 0.46439 0.0
C238 C 0.8891 0.5599 0.45834 0.0
C239 C 0.87345 0.56629 0.47004 0.0
C240 C 0.85739 0.55303 0.47454 0.0
C241 C 0.85667 0.53304 0.46755 0.0
C242 C 0.87199 0.52681 0.45531 0.0
C243 C 0.888 0.5401 0.4507 0.0
C244 C 0.95391 0.57363 0.42663 0.0
C245 C 0.94984 0.55813 0.41223 0.0
C246 C 0.96469 0.5523 0.39941 0.0
C247 C 0.984 0.56171 0.40084 0.0
C248 C 0.98807 0.57713 0.41532 0.0
C249 C 0.97318 0.58309 0.42801 0.0
C250 C 0.9307 0.62091 0.47727 0.0
C251 C 0.94996 0.63028 0.47933 0.0
C252 C 0.86097 0.81732 0.77923 0.0
C253 C 0.85997 0.82312 0.75966 0.0
C254 C 0.84229 0.83004 0.75276 0.0
C255 C 0.82584 0.83092 0.76514 0.0
H256 H 0.76996 0.85099 0.76902 0.0
H257 H 0.74278 0.87074 0.76083 0.0
H258 H 0.71698 0.86109 0.81819 0.0
H259 H 0.74383 0.84095 0.82627 0.0
H260 H 0.76172 0.80683 0.85168 0.0
H261 H 0.76179 0.78797 0.88149 0.0
H262 H 0.82446 0.78167 0.87436 0.0
H263 H 0.82455 0.80061 0.84474 0.0
H264 H 0.84576 0.81325 0.80649 0.0
H265 H 0.87435 0.81174 0.78487 0.0
H266 H 0.84119 0.83476 0.73778 0.0
H267 H 0.81239 0.83618 0.75932 0.0
N268 N 0.79281 0.8339 0.79218 0.0
N269 N 0.7768 0.82469 0.82143 0.0
N270 N 0.80904 0.81581 0.81501 0.0
C271 C 0.77661 0.83392 0.80404 0.0
C272 C 0.79298 0.81558 0.827 0.0
C273 C 0.80909 0.82489 0.79759 0.0
C274 C 0.75925 0.84454 0.79841 0.0
C275 C 0.75841 0.8529 0.77985 0.0
C276 C 0.74284 0.86427 0.77514 0.0
C277 C 0.72779 0.86762 0.7889 0.0
C278 C 0.72821 0.85863 0.80716 0.0
C279 C 0.74373 0.84718 0.81184 0.0
C280 C 0.7931 0.80514 0.84571 0.0
C281 C 0.77556 0.80158 0.85654 0.0
C282 C 0.77556 0.79071 0.87356 0.0
C283 C 0.79312 0.78332 0.88019 0.0
C284 C 0.81075 0.78734 0.8697 0.0
C285 C 0.81073 0.79808 0.85263 0.0
C286 C 0.8267 0.82475 0.78463 0.0
C287 C 0.84451 0.81806 0.79156 0.0
C288 C 0.35833 0.31292 0.27617 0.0
C289 C 0.35717 0.31871 0.25661 0.0
C290 C 0.33944 0.32563 0.24986 0.0
C291 C 0.32309 0.32652 0.26237 0.0
H292 H 0.2674 0.34731 0.26695 0.0
H293 H 0.23999 0.36699 0.25928 0.0
H294 H 0.21395 0.35514 0.31611 0.0
H295 H 0.24098 0.33509 0.32363 0.0
H296 H 0.25901 0.30058 0.34797 0.0
H297 H 0.2591 0.28169 0.37775 0.0
H298 H 0.32247 0.27887 0.37287 0.0
H299 H 0.32253 0.29777 0.34314 0.0
H300 H 0.34334 0.30885 0.30356 0.0
H301 H 0.37176 0.30734 0.2817 0.0
H302 H 0.33821 0.33035 0.23488 0.0
H303 H 0.30959 0.33176 0.25665 0.0
N304 N 0.2902 0.32934 0.28957 0.0
N305 N 0.27435 0.31998 0.31883 0.0
N306 N 0.30665 0.31134 0.31235 0.0
C307 C 0.27404 0.32923 0.30148 0.0
C308 C 0.2906 0.311 0.32436 0.0
C309 C 0.30657 0.32042 0.29492 0.0
C310 C 0.25656 0.33977 0.29602 0.0
C311 C 0.25573 0.3487 0.27774 0.0
C312 C 0.24004 0.36003 0.27334 0.0
C313 C 0.22485 0.36275 0.28712 0.0
C314 C 0.22527 0.35316 0.30505 0.0
C315 C 0.2409 0.34177 0.30943 0.0
C316 C 0.29074 0.30058 0.34307 0.0
C317 C 0.27301 0.2961 0.35331 0.0
C318 C 0.27302 0.28522 0.37031 0.0
C319 C 0.29078 0.2788 0.37754 0.0
C320 C 0.3086 0.28378 0.36769 0.0
C321 C 0.30857 0.29448 0.35058 0.0
C322 C 0.3241 0.32033 0.28185 0.0
C323 C 0.34197 0.31366 0.28863 0.0
C324 C 0.43112 0.87678 0.54495 0.0
C325 C 0.4275 0.88015 0.52501 0.0
C326 C 0.4184 0.89735 0.52036 0.0
C327 C 0.41397 0.91136 0.53527 0.0
H328 H 0.38353 0.96151 0.5483 0.0
H329 H 0.36763 0.99122 0.54056 0.0
H330 H 0.38747 0.01946 0.59651 0.0
H331 H 0.40374 0.98985 0.60422 0.0
H332 H 0.43366 0.96939 0.63033 0.0
H333 H 0.45965 0.97282 0.65542 0.0
H334 H 0.47855 0.91536 0.63649 0.0
H335 H 0.45272 0.91191 0.61119 0.0
H336 H 0.43041 0.88798 0.57496 0.0
H337 H 0.43767 0.86344 0.54906 0.0
H338 H 0.4155 0.90044 0.50513 0.0
H339 H 0.40771 0.92484 0.53114 0.0
N340 N 0.40614 0.94018 0.56731 0.0
N341 N 0.41679 0.95537 0.59782 0.0
N342 N 0.42756 0.92446 0.58754 0.0
C343 C 0.40588 0.95563 0.58096 0.0
C344 C 0.42764 0.93979 0.60124 0.0
C345 C 0.41685 0.92447 0.57059 0.0
C346 C 0.39503 0.97324 0.57685 0.0
C347 C 0.38444 0.97396 0.55905 0.0
C348 C 0.37521 0.99098 0.55464 0.0
C349 C 0.37631 0.00771 0.56792 0.0
C350 C 0.38656 0.0069 0.58588 0.0
C351 C 0.39579 0.98985 0.59032 0.0
C352 C 0.44125 0.94052 0.61849 0.0
C353 C 0.44311 0.95731 0.63168 0.0
C354 C 0.45796 0.95924 0.64617 0.0
C355 C 0.47125 0.94442 0.64779 0.0
C356 C 0.46869 0.92714 0.63538 0.0
C357 C 0.45382 0.92517 0.62092 0.0
C358 C 0.41869 0.90849 0.5551 0.0
C359 C 0.42685 0.89081 0.5598 0.0
C360 C 0.25511 0.26349 0.67678 0.0
C361 C 0.24201 0.24657 0.67262 0.0
C362 C 0.22554 0.24301 0.68498 0.0
C363 C 0.22204 0.2563 0.70086 0.0
H364 H 0.18799 0.2634 0.75179 0.0
H365 H 0.16126 0.25723 0.77543 0.0
H366 H 0.17693 0.31453 0.8049 0.0
H367 H 0.20375 0.32056 0.78174 0.0
H368 H 0.24118 0.34719 0.76746 0.0
H369 H 0.25802 0.38053 0.76827 0.0
H370 H 0.27216 0.37273 0.70641 0.0
H371 H 0.25547 0.3392 0.70551 0.0
H372 H 0.26187 0.2898 0.69511 0.0
H373 H 0.26815 0.26648 0.66782 0.0
H374 H 0.21503 0.23024 0.68208 0.0
H375 H 0.20903 0.2533 0.70987 0.0
N376 N 0.21708 0.28359 0.7349 0.0
N377 N 0.22325 0.31545 0.75006 0.0
N378 N 0.24044 0.30665 0.7214 0.0
C379 C 0.21331 0.29716 0.74964 0.0
C380 C 0.23676 0.32034 0.73599 0.0
C381 C 0.23075 0.28821 0.72079 0.0
C382 C 0.19797 0.29255 0.76472 0.0
C383 C 0.18588 0.27459 0.76345 0.0
C384 C 0.17051 0.27107 0.77694 0.0
C385 C 0.16694 0.2854 0.79202 0.0
C386 C 0.17943 0.30305 0.79365 0.0
C387 C 0.19474 0.30658 0.7802 0.0
C388 C 0.24705 0.34051 0.73643 0.0
C389 C 0.24784 0.35255 0.754 0.0
C390 C 0.25752 0.3716 0.75451 0.0
C391 C 0.26633 0.37912 0.7374 0.0
C392 C 0.26535 0.36726 0.71975 0.0
C393 C 0.25593 0.34805 0.71931 0.0
C394 C 0.23486 0.27352 0.70463 0.0
C395 C 0.25153 0.27684 0.69251 0.0
C396 C 0.75739 0.16281 0.73357 0.0
C397 C 0.73764 0.16148 0.72689 0.0
C398 C 0.7304 0.17784 0.71803 0.0
C399 C 0.74265 0.19527 0.716 0.0
H400 H 0.74517 0.24988 0.69161 0.0
H401 H 0.73523 0.27541 0.67041 0.0
H402 H 0.79369 0.30599 0.67643 0.0
H403 H 0.80355 0.28075 0.69806 0.0
H404 H 0.83753 0.26035 0.72306 0.0
H405 H 0.86843 0.26473 0.74233 0.0
H406 H 0.84591 0.21922 0.78077 0.0
H407 H 0.81523 0.21458 0.76157 0.0
H408 H 0.78469 0.1808 0.73717 0.0
H409 H 0.76329 0.15048 0.74064 0.0
H410 H 0.71526 0.17714 0.71262 0.0
H411 H 0.73659 0.20765 0.70919 0.0
N412 N 0.76961 0.23014 0.71028 0.0
N413 N 0.79927 0.24929 0.71839 0.0
N414 N 0.79293 0.21775 0.73103 0.0
C415 C 0.78152 0.24716 0.70871 0.0
C416 C 0.805 0.23465 0.72965 0.0
C417 C 0.77527 0.21532 0.72134 0.0
C418 C 0.77524 0.26314 0.69645 0.0
C419 C 0.75592 0.26208 0.68852 0.0
C420 C 0.7502 0.2767 0.67631 0.0
C421 C 0.76368 0.29268 0.67165 0.0
C422 C 0.78285 0.29401 0.67994 0.0
C423 C 0.78855 0.27944 0.69224 0.0
C424 C 0.82392 0.23715 0.74081 0.0
C425 C 0.83921 0.25124 0.73558 0.0
C426 C 0.8569 0.25368 0.74649 0.0
C427 C 0.85942 0.24233 0.76299 0.0
C428 C 0.84423 0.2282 0.76815 0.0
C429 C 0.82672 0.22553 0.75709 0.0
C430 C 0.76235 0.19673 0.72296 0.0
C431 C 0.76959 0.18026 0.7317 0.0
C432 C 0.51268 0.61984 0.63516 0.0
C433 C 0.51662 0.61458 0.65456 0.0
C434 C 0.53645 0.61243 0.65998 0.0
C435 C 0.55161 0.61393 0.64599 0.0
H436 H 0.58912 0.57041 0.62232 0.0
H437 H 0.60757 0.54081 0.61945 0.0
H438 H 0.63322 0.56072 0.56482 0.0
H439 H 0.61515 0.59035 0.56775 0.0
H440 H 0.57811 0.61314 0.54118 0.0
H441 H 0.57088 0.63086 0.51194 0.0
H442 H 0.56088 0.68307 0.54912 0.0
H443 H 0.56666 0.66468 0.57832 0.0
H444 H 0.52424 0.62518 0.60637 0.0
H445 H 0.49769 0.6213 0.63016 0.0
H446 H 0.54027 0.60902 0.67489 0.0
H447 H 0.56656 0.61129 0.65033 0.0
N448 N 0.57545 0.60269 0.6112 0.0
N449 N 0.58709 0.61126 0.57991 0.0
N450 N 0.56211 0.62864 0.59516 0.0
C451 C 0.58781 0.59969 0.59572 0.0
C452 C 0.57447 0.6259 0.57967 0.0
C453 C 0.56258 0.61713 0.61099 0.0
C454 C 0.6005 0.58275 0.59518 0.0
C455 C 0.5989 0.56863 0.60983 0.0
C456 C 0.60938 0.5516 0.60815 0.0
C457 C 0.62179 0.54839 0.59189 0.0
C458 C 0.62397 0.56286 0.57767 0.0
C459 C 0.61347 0.57982 0.57929 0.0
C460 C 0.57273 0.63751 0.56197 0.0
C461 C 0.57454 0.62848 0.54302 0.0
C462 C 0.5705 0.63873 0.52624 0.0
C463 C 0.56503 0.65843 0.52803 0.0
C464 C 0.5644 0.66776 0.54708 0.0
C465 C 0.5679 0.65731 0.56385 0.0
C466 C 0.54739 0.61833 0.62649 0.0
C467 C 0.52794 0.62195 0.62138 0.0
C468 C 0.56998 0.42525 0.999 0.0
C469 C 0.55175 0.41384 -0.00036 0.0
C470 C 0.53745 0.41582 0.98491 0.0
C471 C 0.54105 0.42951 0.97026 0.0
H472 H 0.52034 0.45062 0.91509 0.0
H473 H 0.49456 0.45803 0.89193 0.0
H474 H 0.52008 0.51874 0.89099 0.0
H475 H 0.5462 0.51109 0.91326 0.0
H476 H 0.59721 0.51256 0.91946 0.0
H477 H 0.62622 0.53618 0.92439 0.0
H478 H 0.63598 0.51323 0.98177 0.0
H479 H 0.60767 0.48922 0.97652 0.0
H480 H 0.58774 0.44764 0.9846 0.0
H481 H 0.58138 0.42381 0.00997 0.0
H482 H 0.5232 0.40729 0.98513 0.0
H483 H 0.52952 0.43107 0.95946 0.0
N484 N 0.54831 0.46052 0.94214 0.0
N485 N 0.56803 0.48818 0.93161 0.0
N486 N 0.57917 0.46971 0.95712 0.0
C487 C 0.55108 0.47596 0.93001 0.0
C488 C 0.58217 0.48509 0.9451 0.0
C489 C 0.56238 0.45731 0.95575 0.0
C490 C 0.53539 0.48021 0.91592 0.0
C491 C 0.52045 0.46551 0.90984 0.0
C492 C 0.5056 0.46981 0.89666 0.0
C493 C 0.50522 0.48899 0.8895 0.0
C494 C 0.52011 0.50369 0.89579 0.0
C495 C 0.53508 0.49932 0.90868 0.0
C496 C 0.60012 0.499 0.94758 0.0
C497 C 0.60566 0.51249 0.93305 0.0
C498 C 0.62223 0.5261 0.93593 0.0
C499 C 0.63346 0.52663 0.95348 0.0
C500 C 0.62795 0.513 0.9679 0.0
C501 C 0.61159 0.49928 0.96493 0.0
C502 C 0.55905 0.44146 0.97003 0.0
C503 C 0.57361 0.43886 0.98436 0.0
C504 C 0.72474 0.28329 0.36393 0.0
C505 C 0.7071 0.29177 0.36926 0.0
C506 C 0.69115 0.29019 0.35583 0.0
C507 C 0.69291 0.28052 0.33727 0.0
H508 H 0.67733 0.28538 0.27731 0.0
H509 H 0.65165 0.2895 0.25311 0.0
H510 H 0.66465 0.23439 0.22257 0.0
H511 H 0.69093 0.23057 0.24654 0.0
H512 H 0.7339 0.21383 0.25885 0.0
H513 H 0.75828 0.18913 0.25513 0.0
H514 H 0.78127 0.20642 0.31353 0.0
H515 H 0.75737 0.23125 0.31717 0.0
H516 H 0.74023 0.26699 0.34183 0.0
H517 H 0.73721 0.28423 0.3741 0.0
H518 H 0.67745 0.29674 0.35956 0.0
H519 H 0.68037 0.27963 0.3272 0.0
N520 N 0.69944 0.26432 0.29756 0.0
N521 N 0.71497 0.24162 0.27664 0.0
N522 N 0.7267 0.24889 0.30904 0.0
C523 C 0.70066 0.2545 0.27967 0.0
C524 C 0.72814 0.23883 0.29129 0.0
C525 C 0.71237 0.26159 0.31232 0.0
C526 C 0.68606 0.25752 0.264 0.0
C527 C 0.67483 0.27417 0.26539 0.0
C528 C 0.66002 0.2765 0.25153 0.0
C529 C 0.65587 0.26214 0.23604 0.0
C530 C 0.66755 0.24581 0.23423 0.0
C531 C 0.68256 0.24357 0.24803 0.0
C532 C 0.74354 0.2245 0.28836 0.0
C533 C 0.74427 0.2125 0.27084 0.0
C534 C 0.75818 0.19827 0.26872 0.0
C535 C 0.7717 0.1958 0.28404 0.0
C536 C 0.77127 0.20812 0.30133 0.0
C537 C 0.75739 0.22228 0.30346 0.0
C538 C 0.71057 0.272 0.3319 0.0
C539 C 0.72642 0.27338 0.34549 0.0
C540 C 0.45042 0.14874 0.98147 0.0
C541 C 0.44127 0.15078 0.0 0.0
C542 C 0.42848 0.13499 0.00639 0.0
C543 C 0.42541 0.11734 0.99485 0.0
H544 H 0.39165 0.06494 0.99112 0.0
H545 H 0.36867 0.03863 0.00264 0.0
H546 H 0.39381 0.99634 0.96191 0.0
H547 H 0.41663 0.02281 0.94994 0.0
H548 H 0.45295 0.03759 0.92377 0.0
H549 H 0.47706 0.03094 0.89823 0.0
H550 H 0.4915 0.09406 0.89401 0.0
H551 H 0.46782 0.10076 0.92005 0.0
H552 H 0.45508 0.12977 0.95595 0.0
H553 H 0.46011 0.16076 0.97598 0.0
H554 H 0.42141 0.13592 0.02071 0.0
H555 H 0.41586 0.10533 0.00056 0.0
N556 N 0.4207 0.08055 0.97166 0.0
N557 N 0.43193 0.05887 0.94686 0.0
N558 N 0.44544 0.09197 0.9499 0.0
C559 C 0.41978 0.06223 0.9624 0.0
C560 C 0.44475 0.07369 0.94048 0.0
C561 C 0.43345 0.0955 0.96553 0.0
C562 C 0.40599 0.04604 0.96953 0.0
C563 C 0.39238 0.05005 0.9846 0.0
C564 C 0.37928 0.03491 0.99135 0.0
C565 C 0.3795 0.01537 0.98327 0.0
C566 C 0.39317 0.01129 0.9683 0.0
C567 C 0.40627 0.02647 0.96149 0.0
C568 C 0.45851 0.06971 0.92406 0.0
C569 C 0.46116 0.05009 0.91734 0.0
C570 C 0.47493 0.04626 0.9026 0.0
C571 C 0.48625 0.06196 0.8941 0.0
C572 C 0.48327 0.08161 0.90049 0.0
C573 C 0.46961 0.08545 0.91536 0.0
C574 C 0.4352 0.11497 0.9767 0.0
C575 C 0.44746 0.131 0.96995 0.0
O576 O 0.23001 0.86835 0.01069 0.0
Cd577 Cd 0.24228 0.88525 0.03443 0.0
Cd578 Cd 0.22016 0.91319 0.02036 0.0
O579 O 0.21199 0.89106 -0.00084 0.0
O580 O 0.25384 0.86602 0.05136 0.0
O581 O 0.22972 0.88436 0.06135 0.0
C582 C 0.24182 0.87113 0.06508 0.0
C583 C 0.19623 0.93301 0.03348 0.0
C584 C 0.21804 0.87371 0.99787 0.0
C585 C 0.26451 0.92234 0.02197 0.0
O586 O 0.24766 0.92807 0.01775 0.0
O587 O 0.26584 0.90542 0.02898 0.0
O588 O 0.2025 0.93454 0.01564 0.0
O589 O 0.20304 0.9195 0.04387 0.0
O590 O 0.14431 0.5302 0.28024 0.0
Cd591 Cd 0.12608 0.50703 0.29024 0.0
Cd592 Cd 0.10195 0.51604 0.26172 0.0
O593 O 0.12635 0.53412 0.25378 0.0
O594 O 0.14305 0.489 0.30342 0.0
O595 O 0.12624 0.48049 0.27574 0.0
C596 C 0.1384 0.47596 0.28925 0.0
C597 C 0.08292 0.49797 0.23735 0.0
C598 C 0.14186 0.53865 0.26418 0.0
C599 C 0.08811 0.52163 0.30371 0.0
O600 O 0.08539 0.52476 0.28561 0.0
O601 O 0.10347 0.51361 0.30908 0.0
O602 O 0.08324 0.51705 0.23931 0.0
O603 O 0.09419 0.48902 0.24882 0.0
O604 O 0.77204 0.68567 0.99868 0.0
Cd605 Cd 0.76124 0.66484 0.01814 0.0
Cd606 Cd 0.78682 0.64345 0.99802 0.0
O607 O 0.79529 0.66912 0.98424 0.0
O608 O 0.74626 0.68098 0.03731 0.0
O609 O 0.77204 0.6651 0.04594 0.0
C610 C 0.7583 0.67659 0.05087 0.0
C611 C 0.80925 0.62514 0.01371 0.0
C612 C 0.78614 0.68479 0.98636 0.0
C613 C 0.74406 0.62901 0.99451 0.0
O614 O 0.76141 0.62756 0.98777 0.0
O615 O 0.74087 0.64234 0.00776 0.0
O616 O 0.80785 0.62474 0.99469 0.0
O617 O 0.79845 0.63681 0.02392 0.0
O618 O 0.9023 0.02433 0.28329 0.0
Cd619 Cd 0.88529 0.03415 0.26104 0.0
Cd620 Cd 0.86488 0.0467 0.29148 0.0
O621 O 0.88937 0.04125 0.30802 0.0
O622 O 0.90247 0.0326 0.23731 0.0
O623 O 0.89307 0.06093 0.25043 0.0
C624 C 0.90319 0.05172 0.23726 0.0
C625 C 0.85287 0.07792 0.29082 0.0
C626 C 0.90237 0.03007 0.30144 0.0
C627 C 0.84535 0.01365 0.26577 0.0
O628 O 0.8455 0.0227 0.28269 0.0
O629 O 0.85927 0.01752 0.25364 0.0
O630 O 0.84936 0.06681 0.30559 0.0
O631 O 0.86384 0.07147 0.27669 0.0
O632 O 0.27097 0.17776 0.49331 0.0
Cd633 Cd 0.2624 0.1558 0.51246 0.0
Cd634 Cd 0.2908 0.13792 0.49336 0.0
O635 O 0.29757 0.16482 0.48118 0.0
O636 O 0.24489 0.16885 0.53183 0.0
O637 O 0.27362 0.15801 0.54011 0.0
C638 C 0.25798 0.16675 0.54525 0.0
C639 C 0.31306 0.12152 0.51136 0.0
C640 C 0.28623 0.17895 0.48235 0.0
C641 C 0.25018 0.11885 0.48769 0.0
O642 O 0.26767 0.12004 0.48086 0.0
O643 O 0.24541 0.13087 0.50158 0.0
O644 O 0.31425 0.12203 0.49236 0.0
O645 O 0.29977 0.13139 0.52026 0.0
O646 O 0.40307 0.52118 0.77601 0.0
Cd647 Cd 0.38727 0.53097 0.753 0.0
Cd648 Cd 0.36373 0.54278 0.78157 0.0
O649 O 0.38708 0.53679 0.79963 0.0
O650 O 0.40562 0.53284 0.73011 0.0
O651 O 0.39399 0.55909 0.74565 0.0
C652 C 0.40521 0.55188 0.73215 0.0
C653 C 0.35078 0.57373 0.78292 0.0
C654 C 0.40114 0.52638 0.79414 0.0
C655 C 0.34736 0.50947 0.75387 0.0
O656 O 0.34526 0.51904 0.77028 0.0
O657 O 0.36272 0.51314 0.7435 0.0
O658 O 0.34671 0.56115 0.79636 0.0
O659 O 0.36274 0.56887 0.76898 0.0
O660 O 0.72508 0.37332 0.50615 0.0
Cd661 Cd 0.73673 0.39267 0.52844 0.0
Cd662 Cd 0.70869 0.41494 0.51615 0.0
O663 O 0.70035 0.39057 0.49766 0.0
O664 O 0.75346 0.37644 0.54423 0.0
O665 O 0.72698 0.3899 0.55631 0.0
C666 C 0.74167 0.37915 0.55886 0.0
C667 C 0.68585 0.43144 0.53505 0.0
C668 C 0.70992 0.37518 0.49548 0.0
C669 C 0.75075 0.43126 0.51148 0.0
O670 O 0.73263 0.43315 0.50767 0.0
O671 O 0.75567 0.41635 0.52051 0.0
O672 O 0.68638 0.43225 0.51608 0.0
O673 O 0.69773 0.42023 0.54333 0.0
O674 O 0.64674 0.03414 0.77225 0.0
Cd675 Cd 0.62787 0.01101 0.78169 0.0
Cd676 Cd 0.60487 0.02183 0.75338 0.0
O677 O 0.62995 0.03851 0.74514 0.0
O678 O 0.64451 0.99386 0.79651 0.0
O679 O 0.62919 0.98394 0.76838 0.0
C680 C 0.64072 0.98019 0.78273 0.0
C681 C 0.58581 0.00255 0.72995 0.0
C682 C 0.64516 0.04262 0.75605 0.0
C683 C 0.5905 0.02763 0.79472 0.0
O684 O 0.58883 0.0323 0.77691 0.0
O685 O 0.60461 0.01758 0.79978 0.0
O686 O 0.58635 0.02168 0.73067 0.0
O687 O 0.59686 0.99424 0.74217 0.0
O688 O 0.98132 0.28245 0.91494 0.0
Cd689 Cd 0.99077 0.25981 0.8966 0.0
Cd690 Cd 0.00744 0.29043 0.87816 0.0
O691 O -0.00052 0.30732 0.90252 0.0
O692 O 0.98636 0.23575 0.91235 0.0
O693 O 0.01613 0.2482 0.90371 0.0
C694 C 0.00536 0.2352 0.91315 0.0
C695 C 0.04011 0.28967 0.86793 0.0
C696 C 0.98738 0.30077 0.91544 0.0
C697 C 0.9752 0.26576 0.85636 0.0
O698 O 0.98574 0.28221 0.8574 0.0
O699 O 0.97616 0.25354 0.86994 0.0
O700 O 0.03001 0.30459 0.86454 0.0
O701 O 0.03173 0.27542 0.87775 0.0
O702 O 0.47442 0.76944 0.41891 0.0
Cd703 Cd 0.48578 0.74765 0.40101 0.0
Cd704 Cd 0.50154 0.77867 0.38191 0.0
O705 O 0.49111 0.79489 0.40581 0.0
O706 O 0.48606 0.72343 0.41665 0.0
O707 O 0.51327 0.74099 0.40746 0.0
C708 C 0.50516 0.72642 0.41701 0.0
C709 C 0.53445 0.78264 0.37187 0.0
C710 C 0.47927 0.788 0.41882 0.0
C711 C 0.47095 0.75128 0.36006 0.0
O712 O 0.48137 0.76781 0.36047 0.0
O713 O 0.47141 0.74002 0.37451 0.0
O714 O 0.52217 0.79572 0.3683 0.0
O715 O 0.52813 0.76763 0.38182 0.0
O716 O 0.98036 0.78367 0.66621 0.0
Cd717 Cd 0.00124 0.77426 0.64635 0.0
Cd718 Cd 0.9872 0.802 0.62465 0.0
O719 O 0.97307 0.80984 0.65033 0.0
O720 O 0.01939 0.75901 0.66166 0.0
O721 O 0.02908 0.78715 0.64784 0.0
C722 C 0.03334 0.77254 0.65827 0.0
C723 C 0.00405 0.82612 0.60637 0.0
C724 C 0.97116 0.7993 0.66532 0.0
C725 C 0.98026 0.76 0.60895 0.0
O726 O 0.97533 0.77766 0.60794 0.0
O727 O 0.99177 0.75563 0.62263 0.0
O728 O 0.98496 0.8245 0.60731 0.0
O729 O 0.01376 0.81441 0.61658 0.0
O730 O 0.47784 0.27866 0.16383 0.0
Cd731 Cd 0.49889 0.2692 0.14435 0.0
Cd732 Cd 0.48718 0.29865 0.12267 0.0
O733 O 0.47121 0.30494 0.14776 0.0
O734 O 0.51699 0.25382 0.15955 0.0
O735 O 0.52664 0.28219 0.14609 0.0
C736 C 0.53091 0.26748 0.15638 0.0
C737 C 0.50325 0.32463 0.10614 0.0
C738 C 0.46868 0.29426 0.1626 0.0
C739 C 0.4803 0.25685 0.10531 0.0
O740 O 0.4772 0.27502 0.10395 0.0
O741 O 0.48944 0.25128 0.12019 0.0
O742 O 0.4842 0.32178 0.10634 0.0
O743 O 0.51337 0.31309 0.11613 0.0
C744 C 0.19353 0.80275 0.89997 0.0
C745 C 0.2109 0.80431 0.88868 0.0
C746 C 0.19251 0.81309 0.9184 0.0
C747 C 0.20917 0.82544 0.9255 0.0
C748 C 0.22669 0.82712 0.91408 0.0
C749 C 0.22737 0.81645 0.89585 0.0
C750 C 0.17368 0.81076 0.93029 0.0
C751 C 0.2447 0.84031 0.92105 0.0
C752 C 0.20459 0.86791 0.96347 0.0
C753 C 0.21281 0.86038 0.98031 0.0
C754 C 0.20245 0.85635 0.9457 0.0
C755 C 0.20846 0.83673 0.94484 0.0
C756 C 0.21554 0.82862 0.96211 0.0
C757 C 0.21774 0.84058 0.97963 0.0
C758 C 0.19489 0.86555 0.92756 0.0
C759 C 0.22179 0.80764 0.96184 0.0
H760 H 0.18085 0.79321 0.8945 0.0
H761 H 0.24072 0.81785 0.88702 0.0
H762 H 0.17692 0.80501 0.94492 0.0
H763 H 0.16764 0.82543 0.93306 0.0
H764 H 0.16211 0.80047 0.92273 0.0
H765 H 0.25708 0.84012 0.9103 0.0
H766 H 0.24071 0.85585 0.92351 0.0
H767 H 0.25002 0.83543 0.93539 0.0
H768 H 0.20072 0.88319 0.96387 0.0
H769 H 0.22391 0.83458 0.99263 0.0
H770 H 0.18295 0.85558 0.92025 0.0
H771 H 0.20713 0.86759 0.91677 0.0
H772 H 0.18909 0.88024 0.93111 0.0
H773 H 0.21016 0.79711 0.95475 0.0
H774 H 0.22477 0.80282 0.97693 0.0
H775 H 0.23549 0.80667 0.95296 0.0
C776 C 0.0013 0.5354 0.38187 0.0
C777 C -0.0002 0.55556 0.38719 0.0
C778 C 0.01591 0.52945 0.36869 0.0
C779 C 0.02947 0.54401 0.36081 0.0
C780 C 0.02826 0.56434 0.36635 0.0
C781 C 0.01336 0.56989 0.37937 0.0
C782 C 0.01669 0.50763 0.363 0.0
C783 C 0.04254 0.58027 0.3583 0.0
C784 C 0.07748 0.52776 0.33872 0.0
C785 C 0.07317 0.52722 0.31843 0.0
C786 C 0.06339 0.53323 0.35273 0.0
C787 C 0.04452 0.53804 0.34626 0.0
C788 C 0.04002 0.53733 0.32582 0.0
C789 C 0.05444 0.53204 0.31215 0.0
C790 C 0.06874 0.53405 0.37443 0.0
C791 C 0.01997 0.54214 0.31838 0.0
H792 H 0.99109 0.52422 0.3881 0.0
H793 H 0.01214 0.58551 0.38316 0.0
H794 H 0.01453 0.50509 0.3468 0.0
H795 H 0.03149 0.50276 0.36665 0.0
H796 H 0.00519 0.49818 0.37061 0.0
H797 H 0.04019 0.59531 0.36481 0.0
H798 H 0.05806 0.57702 0.36132 0.0
H799 H 0.04078 0.58042 0.34202 0.0
H800 H 0.09194 0.52411 0.34367 0.0
H801 H 0.05095 0.53153 0.29649 0.0
H802 H 0.05821 0.52391 0.38242 0.0
H803 H 0.06748 0.5493 0.38095 0.0
H804 H 0.08405 0.52985 0.37702 0.0
H805 H 0.00811 0.5322 0.32486 0.0
H806 H 0.01872 0.54051 0.30201 0.0
H807 H 0.0172 0.55762 0.32314 0.0
C808 C 0.80788 0.77347 0.91187 0.0
C809 C 0.79291 0.7706 0.8974 0.0
C810 C 0.80832 0.76083 0.92767 0.0
C811 C 0.79355 0.74488 0.92888 0.0
C812 C 0.77829 0.74206 0.91442 0.0
C813 C 0.77813 0.755 0.89889 0.0
C814 C 0.82468 0.7644 0.94295 0.0
C815 C 0.76234 0.72514 0.91513 0.0
C816 C 0.80228 0.69881 0.95633 0.0
C817 C 0.79051 0.70138 0.97315 0.0
C818 C 0.80412 0.71329 0.94216 0.0
C819 C 0.79409 0.73081 0.945 0.0
C820 C 0.78317 0.73403 0.9625 0.0
C821 C 0.78145 0.71924 0.97634 0.0
C822 C 0.81588 0.70933 0.92365 0.0
C823 C 0.77248 0.75264 0.96615 0.0
H824 H 0.81923 0.78564 0.91083 0.0
H825 H 0.76671 0.75257 0.88758 0.0
H826 H 0.81823 0.76611 0.95793 0.0
H827 H 0.83369 0.75138 0.9429 0.0
H828 H 0.83465 0.77786 0.94024 0.0
H829 H 0.7514 0.72517 0.90288 0.0
H830 H 0.76918 0.71073 0.91426 0.0
H831 H 0.7543 0.72605 0.92938 0.0
H832 H 0.80936 0.68508 0.95375 0.0
H833 H 0.77247 0.72143 0.98939 0.0
H834 H 0.82658 0.72222 0.92096 0.0
H835 H 0.80569 0.70728 0.91072 0.0
H836 H 0.82418 0.69584 0.92447 0.0
H837 H 0.78259 0.76604 0.96371 0.0
H838 H 0.76648 0.75386 0.98139 0.0
H839 H 0.75996 0.75261 0.95553 0.0
C840 C 0.99861 0.00479 0.35979 0.0
C841 C 0.99446 0.99218 0.37538 0.0
C842 C 0.98334 0.01128 0.34831 0.0
C843 C 0.96341 0.00465 0.35218 0.0
C844 C 0.95907 0.99175 0.3677 0.0
C845 C 0.97462 0.98582 0.37923 0.0
C846 C 0.98855 0.02518 0.33197 0.0
C847 C 0.93801 0.98413 0.37205 0.0
C848 C 0.92259 0.03408 0.33262 0.0
C849 C 0.91755 0.02341 0.31481 0.0
C850 C 0.93747 0.02812 0.34501 0.0
C851 C 0.94719 0.01086 0.33961 0.0
C852 C 0.94181 -0.00023 0.32187 0.0
C853 C 0.9272 0.0063 0.30959 0.0
C854 C 0.94308 0.0405 0.36365 0.0
C855 C 0.95156 0.98107 0.31579 0.0
H856 H 0.01387 0.0095 0.35639 0.0
H857 H 0.97118 0.97636 0.39142 0.0
H858 H 0.98394 0.01789 0.31748 0.0
H859 H 0.9804 0.03875 0.334 0.0
H860 H 0.0047 0.0297 0.33148 0.0
H861 H 0.93715 0.97396 0.38448 0.0
H862 H 0.92896 0.99677 0.37579 0.0
H863 H 0.93122 0.97606 0.35873 0.0
H864 H 0.91521 0.04735 0.33667 0.0
H865 H 0.92322 0.99787 0.29592 0.0
H866 H 0.95892 0.04615 0.36303 0.0
H867 H 0.94134 0.03123 0.37669 0.0
H868 H 0.93392 0.05336 0.36586 0.0
H869 H 0.96765 0.98466 0.31341 0.0
H870 H 0.94501 0.97366 0.30201 0.0
H871 H 0.9501 0.97042 0.32775 0.0
C872 C 0.24157 0.21246 0.65583 0.0
C873 C 0.24514 0.23316 0.65501 0.0
C874 C 0.2439 0.19983 0.63902 0.0
C875 C 0.25004 0.2081 0.62102 0.0
C876 C 0.25399 0.22893 0.62019 0.0
C877 C 0.25139 0.24119 0.63713 0.0
C878 C 0.23948 0.17768 0.64043 0.0
C879 C 0.26056 0.23833 0.60126 0.0
C880 C 0.27149 0.1775 0.57889 0.0
C881 C 0.25546 0.17515 0.56558 0.0
C882 C 0.26975 0.18754 0.5974 0.0
C883 C 0.2515 0.19521 0.60273 0.0
C884 C 0.23501 0.19198 0.58975 0.0
C885 C 0.23722 0.18207 0.57131 0.0
C886 C 0.28768 0.19078 0.61082 0.0
C887 C 0.21524 0.19974 0.59498 0.0
H888 H 0.23698 0.20612 0.66964 0.0
H889 H 0.25384 0.25716 0.63623 0.0
H890 H 0.227 0.17237 0.63037 0.0
H891 H 0.25253 0.16977 0.6356 0.0
H892 H 0.23552 0.17355 0.65568 0.0
H893 H 0.26398 0.25466 0.60334 0.0
H894 H 0.27396 0.23162 0.59543 0.0
H895 H 0.24873 0.23544 0.58987 0.0
H896 H 0.28563 0.17218 0.57455 0.0
H897 H 0.2247 0.18014 0.56117 0.0
H898 H 0.28383 0.1863 0.62596 0.0
H899 H 0.29277 0.20682 0.6119 0.0
H900 H 0.30018 0.18232 0.60536 0.0
H901 H 0.21047 0.19506 0.60982 0.0
H902 H 0.20345 0.19445 0.58407 0.0
H903 H 0.21668 0.21623 0.59557 0.0
C904 C 0.48201 0.61864 0.66728 0.0
C905 C 0.49994 0.6095 0.66833 0.0
C906 C 0.46527 0.61178 0.67798 0.0
C907 C 0.46666 0.59584 0.69055 0.0
C908 C 0.48502 0.58751 0.69279 0.0
C909 C 0.50129 0.59417 0.68143 0.0
C910 C 0.44586 0.62084 0.67497 0.0
C911 C 0.48727 0.57083 0.70647 0.0
C912 C 0.42774 0.58256 0.72904 0.0
C913 C 0.41852 0.56492 0.72039 0.0
C914 C 0.44302 0.59335 0.7192 0.0
C915 C 0.44868 0.58658 0.70007 0.0
C916 C 0.43835 0.56955 0.69075 0.0
C917 C 0.42362 0.55872 0.70118 0.0
C918 C 0.45399 0.6111 0.72984 0.0
C919 C 0.44351 0.5622 0.67013 0.0
H920 H 0.48083 0.63084 0.65768 0.0
H921 H 0.5148 0.58665 0.68227 0.0
H922 H 0.43525 0.60975 0.66712 0.0
H923 H 0.43914 0.62488 0.68939 0.0
H924 H 0.44765 0.63431 0.66617 0.0
H925 H 0.50303 0.56773 0.70843 0.0
H926 H 0.48098 0.57449 0.72121 0.0
H927 H 0.47893 0.55705 0.70039 0.0
H928 H 0.42389 0.58724 0.744 0.0
H929 H 0.41636 0.54513 0.69446 0.0
H930 H 0.45594 0.6238 0.72007 0.0
H931 H 0.46903 0.60721 0.73403 0.0
H932 H 0.44622 0.61594 0.74347 0.0
H933 H 0.44443 0.57464 0.65999 0.0
H934 H 0.43247 0.55036 0.6641 0.0
H935 H 0.45827 0.55611 0.67029 0.0
C936 C 0.76426 0.32755 0.66022 0.0
C937 C 0.75819 0.30726 0.65727 0.0
C938 C 0.76062 0.3411 0.64584 0.0
C939 C 0.75069 0.33417 0.62811 0.0
C940 C 0.7438 0.31387 0.62541 0.0
C941 C 0.74769 0.30067 0.63998 0.0
C942 C 0.76812 0.36266 0.64926 0.0
C943 C 0.73315 0.30589 0.6067 0.0
C944 C 0.73003 0.36902 0.59231 0.0
C945 C 0.74462 0.36941 0.57761 0.0
C946 C 0.73208 0.35817 0.60927 0.0
C947 C 0.74912 0.34758 0.61153 0.0
C948 C 0.76424 0.34863 0.59712 0.0
C949 C 0.76179 0.3595 0.58034 0.0
C950 C 0.71567 0.3574 0.62437 0.0
C951 C 0.78272 0.33766 0.59905 0.0
H952 H 0.77211 0.3328 0.67369 0.0
H953 H 0.74316 0.28499 0.63745 0.0
H954 H 0.78031 0.36635 0.6388 0.0
H955 H 0.75614 0.37246 0.64637 0.0
H956 H 0.77377 0.36603 0.66457 0.0
H957 H 0.72727 0.29014 0.60762 0.0
H958 H 0.72065 0.31494 0.6035 0.0
H959 H 0.74351 0.30691 0.59403 0.0
H960 H 0.71674 0.37668 0.59029 0.0
H961 H 0.77321 0.35987 0.56913 0.0
H962 H 0.72184 0.3609 0.63944 0.0
H963 H 0.70827 0.34213 0.62423 0.0
H964 H 0.70433 0.36792 0.62141 0.0
H965 H 0.78998 0.34157 0.61357 0.0
H966 H 0.79362 0.34104 0.58719 0.0
H967 H 0.77866 0.3214 0.59836 0.0
C968 C 0.5077 0.94429 0.65397 0.0
C969 C 0.48878 0.94795 0.66106 0.0
C970 C 0.52478 0.95028 0.66518 0.0
C971 C 0.52286 0.96017 0.6839 0.0
C972 C 0.50375 0.96278 0.69165 0.0
C973 C 0.48692 0.95667 0.68011 0.0
C974 C 0.54489 0.94722 0.65641 0.0
C975 C 0.5011 0.97311 0.71165 0.0
C976 C 0.56637 0.97061 0.71952 0.0
C977 C 0.57168 0.99072 0.71652 0.0
C978 C 0.55088 0.96015 0.70855 0.0
C979 C 0.54064 0.97007 0.69424 0.0
C980 C 0.54666 0.99007 0.69048 0.0
C981 C 0.56206 0.00015 0.7017 0.0
C982 C 0.54488 0.93881 0.7129 0.0
C983 C 0.53628 0.00111 0.67516 0.0
H984 H 0.50924 0.93771 0.63918 0.0
H985 H 0.47231 0.95925 0.68575 0.0
H986 H 0.552 0.96171 0.65206 0.0
H987 H 0.55474 0.94135 0.66746 0.0
H988 H 0.54384 0.93684 0.64314 0.0
H989 H 0.48536 0.972 0.71644 0.0
H990 H 0.51021 0.96667 0.72297 0.0
H991 H 0.50626 0.98908 0.71105 0.0
H992 H 0.57374 0.96326 0.731 0.0
H993 H 0.56621 0.01565 0.69919 0.0
H994 H 0.54362 0.92939 0.699 0.0
H995 H 0.53007 0.93786 0.71997 0.0
H996 H 0.55561 0.93264 0.72291 0.0
H997 H 0.53597 0.99265 0.66068 0.0
H998 H 0.54356 0.01621 0.67321 0.0
H999 H 0.52066 0.00261 0.67961 0.0
C1000 C 0.87592 0.24943 0.7957 0.0
C1001 C 0.87755 0.24559 0.77529 0.0
C1002 C 0.89285 0.25246 0.80775 0.0
C1003 C 0.91183 0.25125 0.79919 0.0
C1004 C 0.91356 0.24723 0.77857 0.0
C1005 C 0.89634 0.24465 0.7668 0.0
C1006 C 0.89041 0.25709 0.82962 0.0
C1007 C 0.93354 0.2455 0.76902 0.0
C1008 C 0.95448 0.27715 0.82926 0.0
C1009 C 0.96063 0.26154 0.84008 0.0
C1010 C 0.93903 0.27388 0.81536 0.0
C1011 C 0.92978 0.25447 0.81196 0.0
C1012 C 0.93665 0.23846 0.82204 0.0
C1013 C 0.95188 0.24222 0.83615 0.0
C1014 C 0.93192 0.29138 0.80512 0.0
C1015 C 0.9274 0.21749 0.81849 0.0
H1016 H 0.86135 0.25032 0.80219 0.0
H1017 H 0.89751 0.24152 0.751 0.0
H1018 H 0.89676 0.24553 0.8382 0.0
H1019 H 0.89866 0.27151 0.83398 0.0
H1020 H 0.87461 0.25789 0.83385 0.0
H1021 H 0.93229 0.24197 0.75285 0.0
H1022 H 0.94295 0.25961 0.77154 0.0
H1023 H 0.94129 0.23368 0.77589 0.0
H1024 H 0.96114 0.29213 0.83226 0.0
H1025 H 0.95671 0.23008 0.84435 0.0
H1026 H 0.91662 0.29391 0.81 0.0
H1027 H 0.93135 0.28827 0.78889 0.0
H1028 H 0.94157 0.30525 0.80836 0.0
H1029 H 0.91201 0.21645 0.82421 0.0
H1030 H 0.93584 0.20646 0.82586 0.0
H1031 H 0.92656 0.21346 0.80241 0.0
C1032 C 0.45295 0.85876 0.51069 0.0
C1033 C 0.43431 0.86636 0.50914 0.0
C1034 C 0.45992 0.84602 0.49579 0.0
C1035 C 0.44805 0.84084 0.47882 0.0
C1036 C 0.42925 0.84847 0.47707 0.0
C1037 C 0.42258 0.86113 0.49229 0.0
C1038 C 0.48005 0.83817 0.49819 0.0
C1039 C 0.41621 0.84325 0.45915 0.0
C1040 C 0.47477 0.82227 0.43313 0.0
C1041 C 0.47098 0.8016 0.43393 0.0
C1042 C 0.46706 0.83524 0.44744 0.0
C1043 C 0.45538 0.82736 0.46295 0.0
C1044 C 0.45135 0.80654 0.46375 0.0
C1045 C 0.45917 0.79392 0.44922 0.0
C1046 C 0.47161 0.85739 0.44608 0.0
C1047 C 0.43905 0.79759 0.48015 0.0
H1048 H 0.46228 0.86305 0.52347 0.0
H1049 H 0.40811 0.86682 0.49107 0.0
H1050 H 0.47858 0.82168 0.49746 0.0
H1051 H 0.48988 0.84291 0.48591 0.0
H1052 H 0.48733 0.84345 0.51242 0.0
H1053 H 0.40207 0.85057 0.45998 0.0
H1054 H 0.42418 0.84776 0.44559 0.0
H1055 H 0.4127 0.82692 0.45761 0.0
H1056 H 0.4838 0.82834 0.42133 0.0
H1057 H 0.45614 0.77797 0.44997 0.0
H1058 H 0.48014 0.8635 0.45933 0.0
H1059 H 0.45761 0.8649 0.44582 0.0
H1060 H 0.48031 0.86116 0.4327 0.0
H1061 H 0.44644 0.80155 0.49461 0.0
H1062 H 0.43677 0.78113 0.47831 0.0
H1063 H 0.42433 0.80376 0.48069 0.0
C1064 C 0.13092 0.2757 0.79729 0.0
C1065 C 0.14949 0.28276 0.80519 0.0
C1066 C 0.1138 0.27544 0.80897 0.0
C1067 C 0.11529 0.28246 0.829 0.0
C1068 C 0.1341 0.28872 0.83732 0.0
C1069 C 0.15099 0.28877 0.82531 0.0
C1070 C 0.094 0.2686 0.79957 0.0
C1071 C 0.13628 0.2962 0.85866 0.0
C1072 C 0.06917 0.30427 0.84943 0.0
C1073 C 0.06027 0.28845 0.85973 0.0
C1074 C 0.0874 0.3027 0.8399 0.0
C1075 C 0.09695 0.28485 0.84065 0.0
C1076 C 0.08841 0.26907 0.85161 0.0
C1077 C 0.07015 0.27106 0.86106 0.0
C1078 C 0.09611 0.31993 0.82847 0.0
C1079 C 0.0982 0.24984 0.85278 0.0
H1080 H 0.12959 0.27123 0.78172 0.0
H1081 H 0.16536 0.29395 0.83158 0.0
H1082 H 0.08588 0.25742 0.80865 0.0
H1083 H 0.08476 0.28141 0.79886 0.0
H1084 H 0.09557 0.26199 0.78435 0.0
H1085 H 0.15207 0.29867 0.86336 0.0
H1086 H 0.12928 0.31045 0.86077 0.0
H1087 H 0.12852 0.28549 0.86848 0.0
H1088 H 0.06168 0.31779 0.84841 0.0
H1089 H 0.06336 0.25877 0.86901 0.0
H1090 H 0.09664 0.31541 0.81252 0.0
H1091 H 0.11157 0.32426 0.83343 0.0
H1092 H 0.08738 0.33314 0.83024 0.0
H1093 H 0.09818 0.24215 0.83792 0.0
H1094 H 0.09052 0.23967 0.86321 0.0
H1095 H 0.11391 0.25286 0.85751 0.0
C1096 C 0.56734 0.66509 0.49171 0.0
C1097 C 0.5588 0.66873 0.51032 0.0
C1098 C 0.56045 0.67363 0.47476 0.0
C1099 C 0.54502 0.68656 0.47652 0.0
C1100 C 0.5368 0.69085 0.4953 0.0
C1101 C 0.54354 0.68167 0.51185 0.0
C1102 C 0.56932 0.66844 0.45491 0.0
C1103 C 0.52055 0.70486 0.49788 0.0
C1104 C 0.53504 0.7233 0.43787 0.0
C1105 C 0.51714 0.71473 0.42963 0.0
C1106 C 0.54487 0.71386 0.45259 0.0
C1107 C 0.53683 0.69521 0.45878 0.0
C1108 C 0.51955 0.68584 0.44942 0.0
C1109 C 0.50974 0.69586 0.43514 0.0
C1110 C 0.563 0.72454 0.46249 0.0
C1111 C 0.51083 0.6657 0.45521 0.0
H1112 H 0.57936 0.65543 0.4903 0.0
H1113 H 0.53642 0.68431 0.52594 0.0
H1114 H 0.55763 0.66099 0.44496 0.0
H1115 H 0.57517 0.68215 0.44783 0.0
H1116 H 0.5815 0.65846 0.45608 0.0
H1117 H 0.51684 0.70781 0.51367 0.0
H1118 H 0.52509 0.71925 0.49132 0.0
H1119 H 0.50694 0.69845 0.49 0.0
H1120 H 0.54074 0.73796 0.43371 0.0
H1121 H 0.49599 0.68914 0.42865 0.0
H1122 H 0.57505 0.71443 0.46354 0.0
H1123 H 0.55921 0.72949 0.47779 0.0
H1124 H 0.56866 0.73778 0.4545 0.0
H1125 H 0.52258 0.65517 0.45585 0.0
H1126 H 0.49907 0.65932 0.44474 0.0
H1127 H 0.50428 0.66703 0.47018 0.0
C1128 C 0.89638 0.82773 0.7528 0.0
C1129 C 0.87713 0.82127 0.74632 0.0
C1130 C 0.91281 0.8253 0.74054 0.0
C1131 C 0.90986 0.81604 0.72144 0.0
C1132 C 0.89042 0.80965 0.71477 0.0
C1133 C 0.87428 0.8124 0.72728 0.0
C1134 C 0.9333 0.8325 0.74805 0.0
C1135 C 0.88671 0.79958 0.69454 0.0
C1136 C 0.94817 0.82259 0.68103 0.0
C1137 C 0.95704 0.80451 0.68105 0.0
C1138 C 0.9333 0.82689 0.69462 0.0
C1139 C 0.92705 0.8127 0.70845 0.0
C1140 C 0.93643 0.79474 0.70903 0.0
C1141 C 0.95139 0.79089 0.69537 0.0
C1142 C 0.92379 0.84631 0.69372 0.0
C1143 C 0.93011 0.77921 0.72354 0.0
H1144 H 0.89858 0.83476 0.76747 0.0
H1145 H 0.85944 0.80716 0.72233 0.0
H1146 H 0.94268 0.81979 0.74855 0.0
H1147 H 0.94051 0.84313 0.7378 0.0
H1148 H 0.93299 0.8399 0.76305 0.0
H1149 H 0.87068 0.79568 0.69153 0.0
H1150 H 0.89269 0.80943 0.68297 0.0
H1151 H 0.89458 0.78578 0.69322 0.0
H1152 H 0.95255 0.83327 0.67011 0.0
H1153 H 0.95816 0.77689 0.6955 0.0
H1154 H 0.92386 0.85401 0.70858 0.0
H1155 H 0.90806 0.84336 0.689 0.0
H1156 H 0.93145 0.85643 0.68323 0.0
H1157 H 0.93049 0.78593 0.73883 0.0
H1158 H 0.93969 0.76659 0.72288 0.0
H1159 H 0.91458 0.77332 0.72034 0.0
C1160 C 0.05582 0.9037 0.53227 0.0
C1161 C 0.05115 0.89626 0.51296 0.0
C1162 C 0.05002 0.8928 0.54867 0.0
C1163 C 0.03937 0.874 0.54566 0.0
C1164 C 0.03517 0.86614 0.52619 0.0
C1165 C 0.04105 0.87741 0.51006 0.0
C1166 C 0.05462 0.90173 0.5692 0.0
C1167 C 0.02398 0.84605 0.52239 0.0
C1168 C 0.03372 0.83771 0.58676 0.0
C1169 C 0.01416 0.83999 0.59276 0.0
C1170 C 0.04241 0.84909 0.57177 0.0
C1171 C 0.0313 0.86314 0.5628 0.0
C1172 C 0.01191 0.86616 0.5695 0.0
C1173 C 0.00356 0.85449 0.58434 0.0
C1174 C 0.06311 0.84546 0.56496 0.0
C1175 C -0.00031 0.88121 0.56049 0.0
H1176 H 0.06345 0.91837 0.53458 0.0
H1177 H 0.03764 0.87153 0.49515 0.0
H1178 H 0.04061 0.90489 0.5768 0.0
H1179 H 0.06197 0.89105 0.57811 0.0
H1180 H 0.06434 0.91577 0.569 0.0
H1181 H 0.02309 0.8415 0.5064 0.0
H1182 H 0.03124 0.83456 0.5303 0.0
H1183 H 0.00868 0.84642 0.5282 0.0
H1184 H 0.04195 0.82646 0.59317 0.0
H1185 H 0.98848 0.85642 0.58902 0.0
H1186 H 0.0725 0.85969 0.56488 0.0
H1187 H 0.06251 0.83897 0.54957 0.0
H1188 H 0.07033 0.83517 0.57447 0.0
H1189 H 0.00812 0.89599 0.56081 0.0
H1190 H 0.98541 0.88269 0.56831 0.0
H1191 H 0.99641 0.8767 0.54477 0.0
C1192 C 0.14267 0.76249 0.70279 0.0
C1193 C 0.14188 0.76781 0.72306 0.0
C1194 C 0.12613 0.76369 0.69043 0.0
C1195 C 0.10844 0.77042 0.69854 0.0
C1196 C 0.1077 0.77622 0.71887 0.0
C1197 C 0.12436 0.77475 0.73087 0.0
C1198 C 0.12744 0.75734 0.66882 0.0
C1199 C 0.08909 0.78347 0.7281 0.0
C1200 C 0.06748 0.7879 0.66677 0.0
C1201 C 0.05339 0.7715 0.66679 0.0
C1202 C 0.08585 0.78754 0.67644 0.0
C1203 C 0.09022 0.77033 0.68619 0.0
C1204 C 0.07639 0.75344 0.68549 0.0
C1205 C 0.05812 0.75426 0.67586 0.0
C1206 C 0.10021 0.80585 0.67694 0.0
C1207 C 0.08054 0.73474 0.69556 0.0
H1208 H 0.15622 0.75733 0.69659 0.0
H1209 H 0.12345 0.77855 0.74656 0.0
H1210 H 0.11685 0.7442 0.66543 0.0
H1211 H 0.12316 0.76938 0.65951 0.0
H1212 H 0.14258 0.75348 0.66459 0.0
H1213 H 0.09134 0.78853 0.74386 0.0
H1214 H 0.08404 0.79595 0.71988 0.0
H1215 H 0.07701 0.77133 0.72721 0.0
H1216 H 0.06391 0.80126 0.65976 0.0
H1217 H 0.04739 0.74146 0.67578 0.0
H1218 H 0.11519 0.80189 0.67234 0.0
H1219 H 0.10154 0.8124 0.69228 0.0
H1220 H 0.0954 0.81733 0.66718 0.0
H1221 H 0.09512 0.72976 0.69085 0.0
H1222 H 0.06895 0.72241 0.6923 0.0
H1223 H 0.08129 0.73783 0.7118 0.0
C1224 C 0.9568 0.68652 0.51494 0.0
C1225 C 0.94282 0.67074 0.51887 0.0
C1226 C 0.96224 0.70145 0.5295 0.0
C1227 C 0.95328 0.70072 0.54834 0.0
C1228 C 0.93869 0.68523 0.55221 0.0
C1229 C 0.93373 0.67035 0.53747 0.0
C1230 C 0.97793 0.71772 0.52487 0.0
C1231 C 0.92869 0.6841 0.57209 0.0
C1232 C 0.98177 0.72654 0.59184 0.0
C1233 C 0.97291 0.7446 0.59385 0.0
C1234 C 0.97548 0.71211 0.57709 0.0
C1235 C 0.95978 0.71574 0.56424 0.0
C1236 C 0.95053 0.73377 0.5664 0.0
C1237 C 0.9573 0.74806 0.58112 0.0
C1238 C 0.98583 0.69311 0.57506 0.0
C1239 C 0.93356 0.738 0.55312 0.0
H1240 H 0.96363 0.68712 0.5005 0.0
H1241 H 0.92312 0.65808 0.54075 0.0
H1242 H 0.97209 0.73249 0.52752 0.0
H1243 H 0.99089 0.71718 0.53485 0.0
H1244 H 0.98309 0.71641 0.50933 0.0
H1245 H 0.91668 0.67189 0.57227 0.0
H1246 H 0.93979 0.68166 0.58362 0.0
H1247 H 0.92229 0.69835 0.57617 0.0
H1248 H 0.9939 0.72381 0.60156 0.0
H1249 H 0.95031 0.76194 0.58267 0.0
H1250 H 0.99248 0.69164 0.56014 0.0
H1251 H 0.97496 0.6801 0.57657 0.0
H1252 H 0.99774 0.69257 0.5863 0.0
H1253 H 0.93855 0.73809 0.53754 0.0
H1254 H 0.92759 0.7525 0.55714 0.0
H1255 H 0.92137 0.72607 0.55395 0.0
C1256 C 0.76232 0.92314 0.24117 0.0
C1257 C 0.77206 0.90575 0.243 0.0
C1258 C 0.7727 0.94195 0.24371 0.0
C1259 C 0.79317 0.94331 0.24849 0.0
C1260 C 0.80307 0.92577 0.2502 0.0
C1261 C 0.79241 0.90721 0.24732 0.0
C1262 C 0.76175 0.96034 0.24146 0.0
C1263 C 0.82484 0.9266 0.2555 0.0
C1264 C 0.82794 0.98918 0.24137 0.0
C1265 C 0.82996 0.99734 0.26079 0.0
C1266 C 0.81511 0.97218 0.23691 0.0
C1267 C 0.8043 0.96298 0.25231 0.0
C1268 C 0.80558 0.97167 0.27177 0.0
C1269 C 0.81829 0.98884 0.27575 0.0
C1270 C 0.81385 0.96354 0.21591 0.0
C1271 C 0.79438 0.9622 0.28861 0.0
H1272 H 0.74661 0.922 0.23768 0.0
H1273 H 0.79989 0.89377 0.24897 0.0
H1274 H 0.76197 0.96922 0.25569 0.0
H1275 H 0.76928 0.96985 0.2304 0.0
H1276 H 0.74607 0.9567 0.23679 0.0
H1277 H 0.83033 0.91158 0.25608 0.0
H1278 H 0.83374 0.93505 0.24452 0.0
H1279 H 0.82747 0.93454 0.27012 0.0
H1280 H 0.83676 0.99579 0.22969 0.0
H1281 H 0.81976 0.99505 0.2908 0.0
H1282 H 0.79812 0.96026 0.21131 0.0
H1283 H 0.82097 0.94929 0.21495 0.0
H1284 H 0.82131 0.9737 0.20534 0.0
H1285 H 0.77843 0.95929 0.28478 0.0
H1286 H 0.79576 0.97164 0.30253 0.0
H1287 H 0.8002 0.94766 0.29129 0.0
C1288 C 0.77878 0.16061 0.27529 0.0
C1289 C 0.78553 0.17976 0.28259 0.0
C1290 C 0.79103 0.14482 0.27564 0.0
C1291 C 0.81049 0.14824 0.28352 0.0
C1292 C 0.81765 0.16767 0.29023 0.0
C1293 C 0.80509 0.1832 0.28967 0.0
C1294 C 0.78286 0.1243 0.26832 0.0
C1295 C 0.83835 0.17192 0.29862 0.0
C1296 C 0.83155 0.10355 0.30504 0.0
C1297 C 0.84356 0.09694 0.28961 0.0
C1298 C 0.82115 0.12055 0.30343 0.0
C1299 C 0.82277 0.1312 0.28595 0.0
C1300 C 0.83537 0.125 0.27057 0.0
C1301 C 0.84563 0.10793 0.27258 0.0
C1302 C 0.80795 0.12676 0.32023 0.0
C1303 C 0.8375 0.13601 0.25174 0.0
H1304 H 0.76363 0.15777 0.27001 0.0
H1305 H 0.81049 0.19803 0.29506 0.0
H1306 H 0.79306 0.1179 0.25738 0.0
H1307 H 0.78167 0.11431 0.28086 0.0
H1308 H 0.76797 0.12439 0.26138 0.0
H1309 H 0.84217 0.18806 0.30181 0.0
H1310 H 0.83963 0.16411 0.31255 0.0
H1311 H 0.84941 0.16619 0.28818 0.0
H1312 H 0.82992 0.0952 0.31827 0.0
H1313 H 0.8549 0.10292 0.26059 0.0
H1314 H 0.79227 0.12561 0.31514 0.0
H1315 H 0.81191 0.14252 0.32503 0.0
H1316 H 0.80907 0.11745 0.33319 0.0
H1317 H 0.8231 0.13479 0.24371 0.0
H1318 H 0.84892 0.13011 0.24178 0.0
H1319 H 0.84154 0.15205 0.25518 0.0
C1320 C 0.35492 0.98617 0.97619 0.0
C1321 C 0.36492 -0.00043 0.98999 0.0
C1322 C 0.33978 0.97239 0.98213 0.0
C1323 C 0.33445 0.9721 0.00232 0.0
C1324 C 0.34502 0.98502 0.01643 0.0
C1325 C 0.36018 0.99858 0.0101 0.0
C1326 C 0.32887 0.95875 0.96666 0.0
C1327 C 0.33976 0.98512 0.03809 0.0
C1328 C 0.28102 0.95486 0.01266 0.0
C1329 C 0.28262 0.93527 0.01804 0.0
C1330 C 0.29785 0.96708 0.00787 0.0
C1331 C 0.31674 0.9595 0.00837 0.0
C1332 C 0.31855 0.93987 0.01411 0.0
C1333 C 0.30144 0.92798 0.01895 0.0
C1334 C 0.29535 0.98803 0.00198 0.0
C1335 C 0.33849 0.93132 0.01472 0.0
H1336 H 0.35838 0.98698 0.96062 0.0
H1337 H 0.36812 0.00866 0.02087 0.0
H1338 H 0.32818 0.94314 0.97113 0.0
H1339 H 0.31338 0.96286 0.96529 0.0
H1340 H 0.336 0.95956 0.95193 0.0
H1341 H 0.35045 0.99492 0.04735 0.0
H1342 H 0.32474 0.99037 0.0402 0.0
H1343 H 0.33933 0.96984 0.04346 0.0
H1344 H 0.26655 0.96066 0.01203 0.0
H1345 H 0.30279 0.91285 0.02307 0.0
H1346 H 0.30046 0.98982 0.98657 0.0
H1347 H 0.30464 0.99884 0.01161 0.0
H1348 H 0.2797 0.99185 0.00298 0.0
H1349 H 0.34495 0.93079 -0.00033 0.0
H1350 H 0.33746 0.91607 0.02027 0.0
H1351 H 0.34892 0.94099 0.02432 0.0
C1352 C 0.18987 0.37265 0.28959 0.0
C1353 C 0.20958 0.37687 0.28369 0.0
C1354 C 0.17605 0.38705 0.28894 0.0
C1355 C 0.18212 0.40608 0.28223 0.0
C1356 C 0.20166 0.41002 0.27517 0.0
C1357 C 0.21516 0.39539 0.27603 0.0
C1358 C 0.1553 0.38226 0.29644 0.0
C1359 C 0.20869 0.43012 0.26784 0.0
C1360 C 0.14581 0.44422 0.27101 0.0
C1361 C 0.14769 0.45685 0.28811 0.0
C1362 C 0.15635 0.42712 0.26911 0.0
C1363 C 0.16896 0.42261 0.28469 0.0
C1364 C 0.17019 0.43483 0.30231 0.0
C1365 C 0.15957 0.45181 0.30378 0.0
C1366 C 0.15464 0.41439 0.25013 0.0
C1367 C 0.18336 0.43045 0.31933 0.0
H1368 H 0.18537 0.35824 0.29521 0.0
H1369 H 0.23039 0.39888 0.27165 0.0
H1370 H 0.15336 0.3906 0.31075 0.0
H1371 H 0.14416 0.38696 0.28596 0.0
H1372 H 0.15217 0.36614 0.29872 0.0
H1373 H 0.2236 0.43012 0.26097 0.0
H1374 H 0.19807 0.43485 0.25685 0.0
H1375 H 0.20944 0.44136 0.28039 0.0
H1376 H 0.13662 0.44802 0.25885 0.0
H1377 H 0.16097 0.4614 0.31711 0.0
H1378 H 0.15177 0.39848 0.25332 0.0
H1379 H 0.16887 0.41594 0.24201 0.0
H1380 H 0.14263 0.41864 0.24036 0.0
H1381 H 0.17994 0.41496 0.32373 0.0
H1382 H 0.18167 0.44069 0.33246 0.0
H1383 H 0.19912 0.43185 0.31468 0.0
C1384 C 0.16021 0.04809 0.441 0.0
C1385 C 0.16157 0.0283 0.4459 0.0
C1386 C 0.17544 0.06281 0.44604 0.0
C1387 C 0.19225 0.05767 0.45652 0.0
C1388 C 0.19411 0.03762 0.46081 0.0
C1389 C 0.17883 0.02314 0.45528 0.0
C1390 C 0.1731 0.084 0.44092 0.0
C1391 C 0.21179 0.0316 0.47207 0.0
C1392 C 0.23822 0.09375 0.46105 0.0
C1393 C 0.23535 0.10331 0.47957 0.0
C1394 C 0.2242 0.079 0.4532 0.0
C1395 C 0.20713 0.07347 0.46432 0.0
C1396 C 0.20422 0.08298 0.48307 0.0
C1397 C 0.21829 0.09792 0.49039 0.0
C1398 C 0.22758 0.06941 0.433 0.0
C1399 C 0.18633 0.07726 0.49549 0.0
H1400 H 0.14688 0.05231 0.43396 0.0
H1401 H 0.1802 0.00782 0.45873 0.0
H1402 H 0.17085 0.0932 0.45464 0.0
H1403 H 0.18675 0.09041 0.4338 0.0
H1404 H 0.16029 0.08515 0.43086 0.0
H1405 H 0.21156 0.01523 0.47317 0.0
H1406 H 0.22578 0.03693 0.46483 0.0
H1407 H 0.21198 0.03862 0.48724 0.0
H1408 H 0.25133 0.09796 0.45256 0.0
H1409 H 0.21605 0.10517 0.50477 0.0
H1410 H 0.21492 0.07153 0.42308 0.0
H1411 H 0.22835 0.05316 0.43408 0.0
H1412 H 0.24147 0.07564 0.42612 0.0
H1413 H 0.17254 0.07974 0.4874 0.0
H1414 H 0.18644 0.08589 0.5099 0.0
H1415 H 0.1858 0.0612 0.49837 0.0
C1416 C 0.73113 0.12444 0.72512 0.0
C1417 C 0.7245 0.14325 0.72973 0.0
C1418 C 0.71904 0.10707 0.72842 0.0
C1419 C 0.69999 0.10863 0.73669 0.0
C1420 C 0.69318 0.1276 0.74124 0.0
C1421 C 0.7055 0.14469 0.73762 0.0
C1422 C 0.72668 0.08709 0.72319 0.0
C1423 C 0.67301 0.12984 0.75023 0.0
C1424 C 0.65986 0.06616 0.73169 0.0
C1425 C 0.66042 0.05822 0.75042 0.0
C1426 C 0.67315 0.08213 0.72675 0.0
C1427 C 0.6872 0.09046 0.74095 0.0
C1428 C 0.68828 0.08213 0.75965 0.0
C1429 C 0.67493 0.06604 0.76413 0.0
C1430 C 0.67174 0.09049 0.70657 0.0
C1431 C 0.70303 0.09069 0.77519 0.0
H1432 H 0.74576 0.12332 0.71884 0.0
H1433 H 0.70046 0.15923 0.74142 0.0
H1434 H 0.7275 0.07849 0.73666 0.0
H1435 H 0.71628 0.07837 0.71276 0.0
H1436 H 0.74162 0.08846 0.71635 0.0
H1437 H 0.66988 0.14566 0.75272 0.0
H1438 H 0.66128 0.12226 0.74043 0.0
H1439 H 0.67201 0.12262 0.76459 0.0
H1440 H 0.64879 0.06011 0.72095 0.0
H1441 H 0.67547 0.06 0.77863 0.0
H1442 H 0.68651 0.09142 0.6994 0.0
H1443 H 0.66694 0.10581 0.70809 0.0
H1444 H 0.66105 0.08136 0.69671 0.0
H1445 H 0.71828 0.09141 0.76912 0.0
H1446 H 0.70267 0.08184 0.78859 0.0
H1447 H 0.69977 0.10613 0.77963 0.0
C1448 C 0.37769 0.0448 0.56599 0.0
C1449 C 0.36728 0.0261 0.56266 0.0
C1450 C 0.36995 0.06212 0.55968 0.0
C1451 C 0.35141 0.06067 0.54976 0.0
C1452 C 0.34054 0.04194 0.54697 0.0
C1453 C 0.34859 0.0249 0.55348 0.0
C1454 C 0.38194 0.08184 0.56297 0.0
C1455 C 0.32066 0.03978 0.53654 0.0
C1456 C 0.32153 0.10499 0.54223 0.0
C1457 C 0.32522 0.10834 0.52224 0.0
C1458 C 0.33073 0.09013 0.55176 0.0
C1459 C 0.34388 0.0784 0.54102 0.0
C1460 C 0.34853 0.08253 0.52121 0.0
C1461 C 0.33916 0.09746 0.51207 0.0
C1462 C 0.32555 0.08628 0.57297 0.0
C1463 C 0.36256 0.07044 0.50928 0.0
H1464 H 0.39222 0.04582 0.57292 0.0
H1465 H 0.34032 0.01055 0.55118 0.0
H1466 H 0.38709 0.08735 0.54854 0.0
H1467 H 0.37263 0.09309 0.56981 0.0
H1468 H 0.39511 0.08074 0.57256 0.0
H1469 H 0.31364 0.02434 0.53647 0.0
H1470 H 0.31042 0.04991 0.54377 0.0
H1471 H 0.32252 0.04407 0.52101 0.0
H1472 H 0.31081 0.11337 0.55021 0.0
H1473 H 0.34219 0.10004 0.49666 0.0
H1474 H 0.33919 0.0851 0.58182 0.0
H1475 H 0.31647 0.0719 0.57357 0.0
H1476 H 0.31703 0.09816 0.57993 0.0
H1477 H 0.37671 0.06977 0.51745 0.0
H1478 H 0.36591 0.07661 0.49464 0.0
H1479 H 0.3559 0.05495 0.50684 0.0
C1480 C 0.6207 0.51118 0.59147 0.0
C1481 C 0.63147 0.5295 0.58887 0.0
C1482 C 0.62867 0.49319 0.58583 0.0
C1483 C 0.64778 0.49359 0.5773 0.0
C1484 C 0.65919 0.51196 0.57586 0.0
C1485 C 0.65091 0.52968 0.5817 0.0
C1486 C 0.61613 0.47389 0.58781 0.0
C1487 C 0.6797 0.51303 0.56697 0.0
C1488 C 0.67653 0.4481 0.56724 0.0
C1489 C 0.67346 0.44468 0.54682 0.0
C1490 C 0.66737 0.46331 0.57775 0.0
C1491 C 0.65492 0.47531 0.56754 0.0
C1492 C 0.65076 0.47101 0.54722 0.0
C1493 C 0.66006 0.45575 0.53713 0.0
C1494 C 0.67194 0.46729 0.59947 0.0
C1495 C 0.63745 0.48334 0.53579 0.0
H1496 H 0.60562 0.51091 0.59692 0.0
H1497 H 0.65943 0.54378 0.58004 0.0
H1498 H 0.61057 0.4682 0.57301 0.0
H1499 H 0.62507 0.46245 0.59378 0.0
H1500 H 0.60317 0.47578 0.59759 0.0
H1501 H 0.68732 0.52822 0.56862 0.0
H1502 H 0.68899 0.50252 0.57401 0.0
H1503 H 0.67861 0.5086 0.55098 0.0
H1504 H 0.68685 0.43957 0.57483 0.0
H1505 H 0.65745 0.45306 0.52139 0.0
H1506 H 0.65819 0.46971 0.60786 0.0
H1507 H 0.68199 0.48104 0.60154 0.0
H1508 H 0.67923 0.45487 0.60585 0.0
H1509 H 0.62307 0.48442 0.54346 0.0
H1510 H 0.63449 0.47707 0.5205 0.0
H1511 H 0.64453 0.49867 0.53496 0.0
C1512 C 0.72042 0.31737 0.39464 0.0
C1513 C 0.70555 0.3027 0.3886 0.0
C1514 C 0.71914 0.32815 0.41274 0.0
C1515 C 0.70271 0.32393 0.42522 0.0
C1516 C 0.68772 0.30899 0.41928 0.0
C1517 C 0.68923 0.29864 0.40091 0.0
C1518 C 0.73531 0.34416 0.41844 0.0
C1519 C 0.67018 0.30388 0.43235 0.0
C1520 C 0.71309 0.342 0.4783 0.0
C1521 C 0.70495 0.36048 0.47895 0.0
C1522 C 0.71129 0.32927 0.46128 0.0
C1523 C 0.70142 0.33533 0.44444 0.0
C1524 C 0.69216 0.35343 0.44541 0.0
C1525 C 0.69391 0.36572 0.46273 0.0
C1526 C 0.72099 0.30988 0.46095 0.0
C1527 C 0.68163 0.36048 0.4277 0.0
H1528 H 0.73292 0.32065 0.38501 0.0
H1529 H 0.6778 0.28717 0.39626 0.0
H1530 H 0.72883 0.35864 0.42105 0.0
H1531 H 0.74252 0.34066 0.43243 0.0
H1532 H 0.74689 0.34582 0.40688 0.0
H1533 H 0.65991 0.29172 0.42564 0.0
H1534 H 0.67542 0.29928 0.44684 0.0
H1535 H 0.66181 0.31717 0.4353 0.0
H1536 H 0.72146 0.33776 0.49087 0.0
H1537 H 0.6876 0.37999 0.46312 0.0
H1538 H 0.73428 0.31093 0.45136 0.0
H1539 H 0.7107 0.29755 0.45465 0.0
H1540 H 0.72569 0.30611 0.47594 0.0
H1541 H 0.69265 0.36433 0.4161 0.0
H1542 H 0.67346 0.37378 0.43148 0.0
H1543 H 0.67101 0.34851 0.42127 0.0
C1544 C 0.49771 0.04247 0.86441 0.0
C1545 C 0.50146 0.0578 0.879 0.0
C1546 C 0.51226 0.03783 0.85059 0.0
C1547 C 0.53092 0.04894 0.85125 0.0
C1548 C 0.5347 0.06465 0.86569 0.0
C1549 C 0.51996 0.06883 0.87946 0.0
C1550 C 0.50773 0.02092 0.83542 0.0
C1551 C 0.5544 0.0769 0.86673 0.0
C1552 C 0.57472 0.02511 0.82796 0.0
C1553 C 0.57569 0.03355 0.80945 0.0
C1554 C 0.56024 0.03004 0.84174 0.0
C1555 C 0.54658 0.04391 0.83697 0.0
C1556 C 0.54769 0.05275 0.81846 0.0
C1557 C 0.56217 0.04738 0.80487 0.0
C1558 C 0.55937 0.02019 0.86129 0.0
C1559 C 0.5335 0.06778 0.81298 0.0
H1560 H 0.48335 0.0341 0.86376 0.0
H1561 H 0.52309 0.08049 0.89086 0.0
H1562 H 0.5094 0.02641 0.8203 0.0
H1563 H 0.51846 0.00949 0.83694 0.0
H1564 H 0.49247 0.01375 0.83691 0.0
H1565 H 0.5547 0.08909 0.87839 0.0
H1566 H 0.56645 0.06724 0.86981 0.0
H1567 H 0.55769 0.08348 0.8523 0.0
H1568 H 0.58507 0.01436 0.83156 0.0
H1569 H 0.5629 0.05405 0.79064 0.0
H1570 H 0.54475 0.01174 0.86286 0.0
H1571 H 0.56086 0.03162 0.87366 0.0
H1572 H 0.57121 0.00985 0.86279 0.0
H1573 H 0.51805 0.06087 0.81292 0.0
H1574 H 0.53671 0.07369 0.79821 0.0
H1575 H 0.53429 0.0804 0.82415 0.0
C1576 C 0.30456 0.26991 0.41001 0.0
C1577 C 0.29062 0.26601 0.39468 0.0
C1578 C 0.30503 0.25728 0.42582 0.0
C1579 C 0.29142 0.24026 0.42608 0.0
C1580 C 0.27719 0.23639 0.41072 0.0
C1581 C 0.27691 0.24938 0.39525 0.0
C1582 C 0.3202 0.26201 0.44211 0.0
C1583 C 0.26255 0.21827 0.41037 0.0
C1584 C 0.3027 0.19493 0.45352 0.0
C1585 C 0.28969 0.19601 0.46957 0.0
C1586 C 0.30403 0.20971 0.43965 0.0
C1587 C 0.29226 0.22606 0.44205 0.0
C1588 C 0.27999 0.22784 0.45884 0.0
C1589 C 0.27876 0.21272 0.47236 0.0
C1590 C 0.3172 0.20724 0.42186 0.0
C1591 C 0.26746 0.24523 0.46206 0.0
H1592 H 0.31507 0.28287 0.40963 0.0
H1593 H 0.26629 0.24621 0.38327 0.0
H1594 H 0.31273 0.26276 0.45666 0.0
H1595 H 0.33043 0.24998 0.44246 0.0
H1596 H 0.32911 0.27632 0.44018 0.0
H1597 H 0.2523 0.21756 0.39747 0.0
H1598 H 0.27064 0.20459 0.40985 0.0
H1599 H 0.25361 0.21828 0.42408 0.0
H1600 H 0.3112 0.18207 0.45126 0.0
H1601 H 0.26881 0.21375 0.48483 0.0
H1602 H 0.32701 0.22097 0.42002 0.0
H1603 H 0.30789 0.20466 0.40832 0.0
H1604 H 0.32657 0.19455 0.42297 0.0
H1605 H 0.27657 0.25945 0.46036 0.0
H1606 H 0.26052 0.24558 0.47691 0.0
H1607 H 0.25551 0.24431 0.45073 0.0
C1608 C 0.46976 0.4857 0.87764 0.0
C1609 C 0.48939 0.49379 0.8756 0.0
C1610 C 0.45471 0.4904 0.86476 0.0
C1611 C 0.45932 0.50378 0.84971 0.0
C1612 C 0.47905 0.51205 0.84758 0.0
C1613 C 0.49385 0.50679 0.86039 0.0
C1614 C 0.43388 0.48105 0.86726 0.0
C1615 C 0.48453 0.5265 0.83178 0.0
C1616 C 0.42652 0.50394 0.80425 0.0
C1617 C 0.4154 0.52021 0.80877 0.0
C1618 C 0.44045 0.49808 0.81769 0.0
C1619 C 0.44362 0.50901 0.83595 0.0
C1620 C 0.43234 0.52536 0.84068 0.0
C1621 C 0.41819 0.53065 0.8271 0.0
C1622 C 0.45192 0.48032 0.81227 0.0
C1623 C 0.43556 0.53757 0.85987 0.0
H1624 H 0.46605 0.47588 0.88948 0.0
H1625 H 0.50901 0.51281 0.85837 0.0
H1626 H 0.42359 0.49278 0.87047 0.0
H1627 H 0.42873 0.47291 0.85333 0.0
H1628 H 0.43284 0.47054 0.8794 0.0
H1629 H 0.50041 0.53213 0.83255 0.0
H1630 H 0.48146 0.5192 0.81694 0.0
H1631 H 0.47531 0.53936 0.83327 0.0
H1632 H 0.42427 0.49568 0.79018 0.0
H1633 H 0.40968 0.54329 0.83063 0.0
H1634 H 0.45032 0.46942 0.82401 0.0
H1635 H 0.46795 0.48508 0.81114 0.0
H1636 H 0.44688 0.47275 0.798 0.0
H1637 H 0.43352 0.52789 0.87258 0.0
H1638 H 0.42526 0.54956 0.86151 0.0
H1639 H 0.45103 0.54444 0.86061 0.0
C1640 C 0.73292 0.7205 0.15882 0.0
C1641 C 0.74687 0.73632 0.16439 0.0
C1642 C 0.73564 0.70833 0.14178 0.0
C1643 C 0.75249 0.71233 0.12982 0.0
C1644 C 0.76715 0.72753 0.13593 0.0
C1645 C 0.76427 0.73917 0.15325 0.0
C1646 C 0.71988 0.69198 0.13596 0.0
C1647 C 0.78525 0.73241 0.12351 0.0
C1648 C 0.76553 0.67683 0.08725 0.0
C1649 C 0.75659 0.68513 0.07125 0.0
C1650 C 0.76394 0.68518 0.10657 0.0
C1651 C 0.75357 0.70246 0.10978 0.0
C1652 C 0.74456 0.71086 0.09363 0.0
C1653 C 0.74601 0.70197 0.07463 0.0
C1654 C 0.77334 0.67559 0.12351 0.0
C1655 C 0.73367 0.72949 0.09635 0.0
H1656 H 0.71938 0.71817 0.16721 0.0
H1657 H 0.77541 0.75097 0.15772 0.0
H1658 H 0.71124 0.69645 0.12321 0.0
H1659 H 0.72674 0.67813 0.13127 0.0
H1660 H 0.70944 0.68873 0.14825 0.0
H1661 H 0.7961 0.74341 0.13119 0.0
H1662 H 0.79275 0.71878 0.11952 0.0
H1663 H 0.78064 0.73863 0.10951 0.0
H1664 H 0.77362 0.66372 0.08469 0.0
H1665 H 0.73917 0.70853 0.0623 0.0
H1666 H 0.76207 0.67208 0.13497 0.0
H1667 H 0.78503 0.68606 0.13057 0.0
H1668 H 0.78007 0.66169 0.11866 0.0
H1669 H 0.7212 0.72702 0.10679 0.0
H1670 H 0.72764 0.7342 0.08221 0.0
H1671 H 0.74383 0.74183 0.10285 0.0
C1672 C 0.99546 0.10121 0.18222 0.0
C1673 C 0.99182 0.10508 0.16245 0.0
C1674 C 0.97988 0.09519 0.19477 0.0
C1675 C 0.96018 0.09307 0.18736 0.0
C1676 C 0.95627 0.09835 0.16786 0.0
C1677 C 0.97215 0.10424 0.15561 0.0
C1678 C 0.98466 0.08984 0.21553 0.0
C1679 C 0.93546 0.09643 0.15947 0.0
C1680 C 0.9272 0.05204 0.20941 0.0
C1681 C 0.91626 0.06264 0.22329 0.0
C1682 C 0.94116 0.06187 0.19731 0.0
C1683 C 0.94423 0.08286 0.19908 0.0
C1684 C 0.93274 0.09374 0.21255 0.0
C1685 C 0.91887 0.08348 0.22455 0.0
C1686 C 0.95307 0.04971 0.18307 0.0
C1687 C 0.93552 0.11614 0.2147 0.0
H1688 H 0.0106 0.10219 0.1877 0.0
H1689 H 0.9692 0.10707 0.14031 0.0
H1690 H 0.97474 0.09691 0.22632 0.0
H1691 H 0.98212 0.0735 0.21669 0.0
H1692 H 0.0003 0.09443 0.21973 0.0
H1693 H 0.93455 0.10392 0.1453 0.0
H1694 H 0.93053 0.08046 0.15676 0.0
H1695 H 0.92497 0.10283 0.17011 0.0
H1696 H 0.92523 0.03594 0.20828 0.0
H1697 H 0.91044 0.09177 0.23524 0.0
H1698 H 0.96903 0.05184 0.18714 0.0
H1699 H 0.95158 0.05479 0.16785 0.0
H1700 H 0.94834 0.03358 0.18298 0.0
H1701 H 0.95047 0.12074 0.22092 0.0
H1702 H 0.92425 0.12247 0.22454 0.0
H1703 H 0.93469 0.12265 0.20003 0.0
C1704 C 0.23652 0.79925 0.15356 0.0
C1705 C 0.24852 0.80625 0.16976 0.0
C1706 C 0.23311 0.81151 0.13802 0.0
C1707 C 0.24206 0.83119 0.13859 0.0
C1708 C 0.25308 0.83878 0.15548 0.0
C1709 C 0.25615 0.82621 0.1709 0.0
C1710 C 0.22118 0.80288 0.12031 0.0
C1711 C 0.26277 0.85972 0.15668 0.0
C1712 C 0.25716 0.8496 0.08856 0.0
C1713 C 0.24207 0.86187 0.0844 0.0
C1714 C 0.25753 0.84 0.10637 0.0
C1715 C 0.24236 0.84262 0.1204 0.0
C1716 C 0.22726 0.85529 0.11652 0.0
C1717 C 0.22732 0.86485 0.09853 0.0
C1718 C 0.27399 0.82671 0.10999 0.0
C1719 C 0.21083 0.85837 0.13114 0.0
H1720 H 0.23071 0.78382 0.15241 0.0
H1721 H 0.2651 0.83184 0.18356 0.0
H1722 H 0.21038 0.81333 0.11575 0.0
H1723 H 0.23127 0.80048 0.10767 0.0
H1724 H 0.21298 0.78843 0.1233 0.0
H1725 H 0.26826 0.86428 0.17183 0.0
H1726 H 0.27554 0.86074 0.14642 0.0
H1727 H 0.25223 0.87041 0.15206 0.0
H1728 H 0.26872 0.84735 0.0778 0.0
H1729 H 0.21563 0.87434 0.0954 0.0
H1730 H 0.26767 0.81117 0.11133 0.0
H1731 H 0.28175 0.83143 0.1241 0.0
H1732 H 0.28509 0.82691 0.09791 0.0
H1733 H 0.20172 0.84414 0.1327 0.0
H1734 H 0.20098 0.86972 0.12652 0.0
H1735 H 0.21714 0.86303 0.14593 0.0
C1736 C 0.98368 0.45688 0.18504 0.0
C1737 C 0.98564 0.44845 0.1659 0.0
C1738 C 0.0004 0.46198 0.19706 0.0
C1739 C 0.01951 0.45871 0.18966 0.0
C1740 C 0.02147 0.44907 0.17084 0.0
C1741 C 0.00449 0.44404 0.15917 0.0
C1742 C 0.9977 0.47202 0.21719 0.0
C1743 C 0.04158 0.44538 0.16241 0.0
C1744 C 0.05972 0.49702 0.20877 0.0
C1745 C 0.06874 0.48688 0.22345 0.0
C1746 C 0.04419 0.4877 0.19717 0.0
C1747 C 0.03738 0.46778 0.20047 0.0
C1748 C 0.04699 0.45715 0.21467 0.0
C1749 C 0.06268 0.46683 0.22598 0.0
C1750 C 0.03454 0.49946 0.18194 0.0
C1751 C 0.04011 0.43591 0.21856 0.0
H1752 H 0.9691 0.46006 0.19037 0.0
H1753 H 0.00614 0.4377 0.1443 0.0
H1754 H 0.00635 0.46505 0.22851 0.0
H1755 H 0.00337 0.48788 0.21697 0.0
H1756 H 0.98188 0.47131 0.2217 0.0
H1757 H 0.04042 0.43522 0.14897 0.0
H1758 H 0.04932 0.45971 0.15841 0.0
H1759 H 0.05092 0.43893 0.17352 0.0
H1760 H 0.06447 0.51247 0.20666 0.0
H1761 H 0.06957 0.45897 0.23739 0.0
H1762 H 0.01897 0.50149 0.18621 0.0
H1763 H 0.03416 0.49126 0.16732 0.0
H1764 H 0.04243 0.51436 0.18036 0.0
H1765 H 0.02521 0.43541 0.22544 0.0
H1766 H 0.0504 0.42911 0.22858 0.0
H1767 H 0.03869 0.42675 0.2045 0.0
C1768 C 0.37765 0.75157 0.29228 0.0
C1769 C 0.3757 0.73773 0.27616 0.0
C1770 C 0.39432 0.75269 0.30472 0.0
C1771 C 0.40949 0.73977 0.30081 0.0
C1772 C 0.40782 0.72604 0.2843 0.0
C1773 C 0.39084 0.72509 0.27221 0.0
C1774 C 0.39547 0.76741 0.3223 0.0
C1775 C 0.42385 0.71225 0.27954 0.0
C1776 C 0.45815 0.75698 0.32634 0.0
C1777 C 0.45689 0.74614 0.34349 0.0
C1778 C 0.44336 0.75422 0.31169 0.0
C1779 C 0.42681 0.74046 0.31441 0.0
C1780 C 0.42596 0.72873 0.33118 0.0
C1781 C 0.44109 0.73163 0.34548 0.0
C1782 C 0.44494 0.76676 0.29384 0.0
C1783 C 0.40849 0.71398 0.33464 0.0
H1784 H 0.36583 0.76116 0.29551 0.0
H1785 H 0.38939 0.71448 0.25965 0.0
H1786 H 0.39626 0.7594 0.33616 0.0
H1787 H 0.40916 0.77754 0.32156 0.0
H1788 H 0.3825 0.77651 0.32314 0.0
H1789 H 0.42068 0.70306 0.26566 0.0
H1790 H 0.43835 0.72095 0.27806 0.0
H1791 H 0.42535 0.70219 0.29181 0.0
H1792 H 0.47043 0.76809 0.3246 0.0
H1793 H 0.44001 0.72318 0.35868 0.0
H1794 H 0.4336 0.77775 0.29473 0.0
H1795 H 0.44199 0.75735 0.28009 0.0
H1796 H 0.45979 0.77493 0.29273 0.0
H1797 H 0.39503 0.72206 0.33745 0.0
H1798 H 0.41091 0.70479 0.34745 0.0
H1799 H 0.40547 0.70396 0.32132 0.0
C1800 C 0.96201 0.371 0.00849 0.0
C1801 C 0.94375 0.37921 0.00643 0.0
C1802 C 0.96921 0.35846 0.99354 0.0
C1803 C 0.95793 0.3541 0.97603 0.0
C1804 C 0.93957 0.36246 0.97374 0.0
C1805 C 0.93267 0.37492 0.98899 0.0
C1806 C 0.98887 0.34981 0.99652 0.0
C1807 C 0.92715 0.35813 0.95524 0.0
C1808 C 0.98494 0.33504 0.93073 0.0
C1809 C 0.97995 0.31449 0.93095 0.0
C1810 C 0.9777 0.34815 0.9452 0.0
C1811 C 0.96526 0.34051 0.96028 0.0
C1812 C 0.96017 0.31981 0.9606 0.0
C1813 C 0.96755 0.30705 0.94592 0.0
C1814 C 0.98339 0.37017 0.94439 0.0
C1815 C 0.94704 0.31111 0.97653 0.0
H1816 H 0.97083 0.37457 0.02176 0.0
H1817 H 0.91848 0.38109 0.98738 0.0
H1818 H 0.98677 0.33334 0.99566 0.0
H1819 H -0.00073 0.35426 0.98459 0.0
H1820 H 0.99583 0.35473 0.01099 0.0
H1821 H 0.91344 0.36617 0.95558 0.0
H1822 H 0.93592 0.36242 0.94208 0.0
H1823 H 0.92289 0.34194 0.95339 0.0
H1824 H 0.99445 0.34092 0.91919 0.0
H1825 H 0.96362 0.2912 0.94624 0.0
H1826 H 0.99149 0.37569 0.95809 0.0
H1827 H 0.96986 0.37837 0.94358 0.0
H1828 H 0.99291 0.37375 0.93149 0.0
H1829 H 0.95401 0.31473 0.99125 0.0
H1830 H 0.94427 0.2947 0.97452 0.0
H1831 H 0.93256 0.31778 0.97659 0.0
C1832 C 0.62651 0.77832 0.30113 0.0
C1833 C 0.64433 0.78787 0.3086 0.0
C1834 C 0.60944 0.77674 0.31285 0.0
C1835 C 0.6102 0.78494 0.33252 0.0
C1836 C 0.62832 0.79395 0.34039 0.0
C1837 C 0.64518 0.7953 0.32834 0.0
C1838 C 0.59038 0.76699 0.30393 0.0
C1839 C 0.62972 0.80276 0.36133 0.0
C1840 C 0.56117 0.80045 0.35259 0.0
C1841 C 0.55473 0.78416 0.36363 0.0
C1842 C 0.57951 0.80116 0.34292 0.0
C1843 C 0.5917 0.78519 0.34431 0.0
C1844 C 0.58565 0.76906 0.35605 0.0
C1845 C 0.56722 0.76874 0.36559 0.0
C1846 C 0.58551 0.81869 0.33064 0.0
C1847 C 0.59829 0.7518 0.35792 0.0
H1848 H 0.62567 0.77275 0.28584 0.0
H1849 H 0.659 0.80244 0.33428 0.0
H1850 H 0.584 0.75527 0.3135 0.0
H1851 H 0.57932 0.77819 0.30294 0.0
H1852 H 0.59258 0.7602 0.28889 0.0
H1853 H 0.6452 0.80791 0.36567 0.0
H1854 H 0.62049 0.81561 0.36283 0.0
H1855 H 0.62384 0.79168 0.37182 0.0
H1856 H 0.55165 0.81246 0.35107 0.0
H1857 H 0.56236 0.75612 0.37413 0.0
H1858 H 0.58635 0.81363 0.31484 0.0
H1859 H 0.60047 0.82533 0.33515 0.0
H1860 H 0.5749 0.83041 0.33201 0.0
H1861 H 0.59921 0.74365 0.34336 0.0
H1862 H 0.59224 0.74122 0.36885 0.0
H1863 H 0.61364 0.75725 0.3624 0.0
C1864 C 0.04978 0.15729 0.98423 0.0
C1865 C 0.05083 0.16656 0.00326 0.0
C1866 C 0.04433 0.16762 0.96784 0.0
C1867 C 0.03969 0.18762 0.97059 0.0
C1868 C 0.04153 0.1973 0.98961 0.0
C1869 C 0.04714 0.18667 0.00569 0.0
C1870 C 0.04269 0.15686 0.94776 0.0
C1871 C 0.03676 0.21864 0.99315 0.0
C1872 C 0.0351 0.2216 0.92804 0.0
C1873 C 0.01442 0.22116 0.92588 0.0
C1874 C 0.04366 0.21008 0.94199 0.0
C1875 C 0.03123 0.19799 0.95407 0.0
C1876 C 0.0104 0.19683 0.95131 0.0
C1877 C 0.00227 0.20838 0.93722 0.0
C1878 C 0.06594 0.2115 0.94435 0.0
C1879 C 0.99662 0.18409 0.9639 0.0
H1880 H 0.05245 0.14171 0.98224 0.0
H1881 H 0.04831 0.19403 0.02028 0.0
H1882 H 0.02685 0.15447 0.94329 0.0
H1883 H 0.05042 0.16594 0.93648 0.0
H1884 H 0.04902 0.14217 0.94766 0.0
H1885 H 0.04016 0.22436 0.00855 0.0
H1886 H 0.04526 0.2283 0.98285 0.0
H1887 H 0.02076 0.21988 0.9902 0.0
H1888 H 0.0446 0.23139 0.91928 0.0
H1889 H 0.98628 0.20789 0.9356 0.0
H1890 H 0.07139 0.19644 0.94433 0.0
H1891 H 0.07016 0.21916 0.95879 0.0
H1892 H 0.07358 0.21985 0.93245 0.0
H1893 H 0.00097 0.16859 0.96337 0.0
H1894 H 0.98089 0.1839 0.95908 0.0
H1895 H 0.99777 0.18981 0.97954 0.0
C1896 C 0.37119 0.30794 0.22408 0.0
C1897 C 0.37421 0.31681 0.24311 0.0
C1898 C 0.38722 0.30509 0.21146 0.0
C1899 C 0.40672 0.3114 0.21799 0.0
C1900 C 0.40984 0.3207 0.23705 0.0
C1901 C 0.39353 0.32322 0.24943 0.0
C1902 C 0.38333 0.29498 0.19127 0.0
C1903 C 0.43041 0.3278 0.24441 0.0
C1904 C 0.44819 0.28586 0.1922 0.0
C1905 C 0.45409 0.29942 0.17791 0.0
C1906 C 0.4331 0.2898 0.20567 0.0
C1907 C 0.42383 0.30781 0.20494 0.0
C1908 C 0.43023 0.3219 0.19107 0.0
C1909 C 0.44523 0.3175 0.17765 0.0
C1910 C 0.42661 0.27438 0.22023 0.0
C1911 C 0.42082 0.34136 0.19001 0.0
H1912 H 0.35629 0.30275 0.21925 0.0
H1913 H 0.39587 0.33027 0.26407 0.0
H1914 H 0.38939 0.3047 0.17964 0.0
H1915 H 0.39101 0.28106 0.18999 0.0
H1916 H 0.36725 0.29127 0.18833 0.0
H1917 H 0.43023 0.33534 0.25935 0.0
H1918 H 0.43968 0.315 0.24499 0.0
H1919 H 0.43767 0.33827 0.23403 0.0
H1920 H 0.45494 0.27185 0.19251 0.0
H1921 H 0.44979 0.32814 0.16675 0.0
H1922 H 0.41099 0.26873 0.21715 0.0
H1923 H 0.42719 0.28113 0.23551 0.0
H1924 H 0.43597 0.26158 0.21954 0.0
H1925 H 0.40505 0.33846 0.18545 0.0
H1926 H 0.42846 0.3513 0.17934 0.0
H1927 H 0.42107 0.34923 0.20479 0.0
C1928 C 0.53812 0.38148 0.01257 0.0
C1929 C 0.54732 0.40064 0.01618 0.0
C1930 C 0.53286 0.36933 0.02823 0.0
C1931 C 0.53676 0.37661 0.04795 0.0
C1932 C 0.54653 0.39574 0.05165 0.0
C1933 C 0.55172 0.40753 0.03571 0.0
C1934 C 0.52259 0.34892 0.02371 0.0
C1935 C 0.5508 0.40406 0.07247 0.0
C1936 C 0.50168 0.35401 0.08565 0.0
C1937 C 0.51292 0.33964 0.09344 0.0
C1938 C 0.50959 0.36667 0.0714 0.0
C1939 C 0.52917 0.36479 0.06464 0.0
C1940 C 0.54092 0.35091 0.07306 0.0
C1941 C 0.53266 0.33853 0.08748 0.0
C1942 C 0.49668 0.38148 0.06299 0.0
C1943 C 0.56185 0.34851 0.06618 0.0
H1944 H 0.53494 0.37603 0.99748 0.0
H1945 H 0.55864 0.42243 0.03857 0.0
H1946 H 0.53041 0.33753 0.03116 0.0
H1947 H 0.50723 0.34835 0.02951 0.0
H1948 H 0.52189 0.34495 0.00759 0.0
H1949 H 0.55996 0.41848 0.07277 0.0
H1950 H 0.53663 0.40634 0.08016 0.0
H1951 H 0.55863 0.39339 0.08095 0.0
H1952 H 0.48646 0.35504 0.09033 0.0
H1953 H 0.54138 0.32739 0.0934 0.0
H1954 H 0.49356 0.37744 0.04714 0.0
H1955 H 0.5045 0.39658 0.06385 0.0
H1956 H 0.48232 0.38205 0.07086 0.0
H1957 H 0.56155 0.34248 0.05063 0.0
H1958 H 0.56958 0.33831 0.07537 0.0
H1959 H 0.57059 0.36314 0.06653 0.0
C1960 C 0.63997 0.25864 0.20226 0.0
C1961 C 0.63874 0.26374 0.22254 0.0
C1962 C 0.62354 0.25949 0.18966 0.0
C1963 C 0.60552 0.26566 0.19755 0.0
C1964 C 0.60431 0.27114 0.21792 0.0
C1965 C 0.62086 0.27001 0.23015 0.0
C1966 C 0.62535 0.25347 0.16802 0.0
C1967 C 0.58535 0.27779 0.22692 0.0
C1968 C 0.56479 0.28308 0.16547 0.0
C1969 C 0.5509 0.2665 0.16503 0.0
C1970 C 0.58305 0.28279 0.17536 0.0
C1971 C 0.58752 0.26547 0.18487 0.0
C1972 C 0.57392 0.2484 0.18367 0.0
C1973 C 0.55575 0.24916 0.17385 0.0
C1974 C 0.59716 0.3013 0.17639 0.0
C1975 C 0.5782 0.22958 0.19347 0.0
H1976 H 0.65379 0.25399 0.19622 0.0
H1977 H 0.61962 0.27362 0.24585 0.0
H1978 H 0.61493 0.24028 0.16425 0.0
H1979 H 0.62116 0.26561 0.1588 0.0
H1980 H 0.64061 0.24981 0.16405 0.0
H1981 H 0.58718 0.28254 0.2428 0.0
H1982 H 0.58022 0.29034 0.21886 0.0
H1983 H 0.5735 0.26544 0.22554 0.0
H1984 H 0.56114 0.29652 0.15866 0.0
H1985 H 0.54517 0.23621 0.17342 0.0
H1986 H 0.61229 0.29766 0.17201 0.0
H1987 H 0.59811 0.3076 0.19184 0.0
H1988 H 0.59235 0.31287 0.16674 0.0
H1989 H 0.59299 0.22498 0.18898 0.0
H1990 H 0.56688 0.21712 0.18972 0.0
H1991 H 0.57853 0.23234 0.20976 0.0
C1992 C 0.46571 0.17691 0.01528 0.0
C1993 C 0.44606 0.16864 0.01333 0.0
C1994 C 0.47088 0.19239 0.02934 0.0
C1995 C 0.45609 0.1996 0.04191 0.0
C1996 C 0.43612 0.19185 0.03956 0.0
C1997 C 0.43132 0.17653 0.02521 0.0
C1998 C 0.49232 0.20045 0.03129 0.0
C1999 C 0.41995 0.19918 0.05271 0.0
C2000 C 0.47346 0.22179 0.09204 0.0
C2001 C 0.47357 0.24222 0.08926 0.0
C2002 C 0.4675 0.20777 0.07681 0.0
C2003 C 0.46175 0.21436 0.05829 0.0
C2004 C 0.46174 0.23494 0.05539 0.0
C2005 C 0.46756 0.24865 0.07096 0.0
C2006 C 0.46748 0.1859 0.0805 0.0
C2007 C 0.45591 0.24248 0.03575 0.0
H2008 H 0.47724 0.17076 0.00635 0.0
H2009 H 0.41605 0.17045 0.02354 0.0
H2010 H 0.49352 0.21691 0.0311 0.0
H2011 H 0.49838 0.19648 0.04568 0.0
H2012 H 0.50167 0.19448 0.01928 0.0
H2013 H 0.405 0.19244 0.0482 0.0
H2014 H 0.42277 0.19552 0.06821 0.0
H2015 H 0.41996 0.21558 0.05248 0.0
H2016 H 0.47799 0.21673 0.10617 0.0
H2017 H 0.4677 0.26442 0.06866 0.0
H2018 H 0.47793 0.17883 0.07026 0.0
H2019 H 0.4525 0.17839 0.07752 0.0
H2020 H 0.47183 0.18325 0.09592 0.0
H2021 H 0.46605 0.23735 0.02405 0.0
H2022 H 0.45638 0.25896 0.03602 0.0
H2023 H 0.4407 0.2363 0.03156 0.0
C2024 C 0.27267 0.41311 0.72449 0.0
C2025 C 0.27697 0.39914 0.73817 0.0
C2026 C 0.28259 0.43222 0.72536 0.0
C2027 C 0.29736 0.43721 0.74001 0.0
C2028 C 0.30183 0.42303 0.75373 0.0
C2029 C 0.29145 0.40422 0.75274 0.0
C2030 C 0.27721 0.44708 0.71073 0.0
C2031 C 0.31772 0.42766 0.76938 0.0
C2032 C 0.33843 0.47789 0.734 0.0
C2033 C 0.33301 0.49252 0.74793 0.0
C2034 C 0.32645 0.46013 0.73054 0.0
C2035 C 0.30847 0.45711 0.74102 0.0
C2036 C 0.30224 0.4724 0.75405 0.0
C2037 C 0.31468 0.48988 0.75749 0.0
C2038 C 0.33371 0.4441 0.71667 0.0
C2039 C 0.28294 0.46988 0.76517 0.0
H2040 H 0.26134 0.40918 0.71333 0.0
H2041 H 0.29488 0.39331 0.76318 0.0
H2042 H 0.27243 0.46061 0.71871 0.0
H2043 H 0.29039 0.45175 0.70186 0.0
H2044 H 0.26512 0.44097 0.7005 0.0
H2045 H 0.31957 0.41487 0.77871 0.0
H2046 H 0.33213 0.43187 0.7623 0.0
H2047 H 0.31398 0.44052 0.77909 0.0
H2048 H 0.35258 0.4798 0.72654 0.0
H2049 H 0.3103 0.50122 0.76812 0.0
H2050 H 0.32186 0.43841 0.70603 0.0
H2051 H 0.3376 0.4314 0.72529 0.0
H2052 H 0.34699 0.44948 0.70824 0.0
H2053 H 0.27067 0.4642 0.755 0.0
H2054 H 0.27902 0.48404 0.77265 0.0
H2055 H 0.28416 0.45877 0.77654 0.0
C2056 C 0.30376 0.67947 0.7896 0.0
C2057 C 0.28448 0.6771 0.78164 0.0
C2058 C 0.3159 0.66354 0.78931 0.0
C2059 C 0.30861 0.64482 0.7808 0.0
C2060 C 0.28942 0.6425 0.77215 0.0
C2061 C 0.27758 0.65865 0.77271 0.0
C2062 C 0.33629 0.66661 0.79862 0.0
C2063 C 0.28114 0.62276 0.7629 0.0
C2064 C 0.34386 0.60526 0.76717 0.0
C2065 C 0.34122 0.59271 0.78301 0.0
C2066 C 0.33364 0.62252 0.76641 0.0
C2067 C 0.32054 0.62733 0.78188 0.0
C2068 C 0.31826 0.61502 0.79817 0.0
C2069 C 0.3286 0.59785 0.79852 0.0
C2070 C 0.33645 0.6353 0.74882 0.0
C2071 C 0.30452 0.61972 0.81502 0.0
H2072 H 0.3093 0.69377 0.79625 0.0
H2073 H 0.26263 0.65663 0.76673 0.0
H2074 H 0.33699 0.65724 0.81156 0.0
H2075 H 0.34765 0.66189 0.78796 0.0
H2076 H 0.34019 0.68235 0.8036 0.0
H2077 H 0.26648 0.62374 0.75574 0.0
H2078 H 0.29155 0.6172 0.75167 0.0
H2079 H 0.27944 0.61161 0.77439 0.0
H2080 H 0.35359 0.60139 0.75513 0.0
H2081 H 0.32652 0.58827 0.81084 0.0
H2082 H 0.34077 0.65094 0.7538 0.0
H2083 H 0.32224 0.63519 0.74058 0.0
H2084 H 0.34795 0.63009 0.73854 0.0
H2085 H 0.3085 0.63496 0.82142 0.0
H2086 H 0.30504 0.60909 0.82697 0.0
H2087 H 0.28904 0.61931 0.80946 0.0
C2088 C 0.83384 0.51908 0.49333 0.0
C2089 C 0.84046 0.51856 0.4737 0.0
C2090 C 0.81902 0.50513 0.49959 0.0
C2091 C 0.81075 0.49019 0.48594 0.0
C2092 C 0.81726 0.48961 0.4661 0.0
C2093 C 0.83201 0.50386 0.46019 0.0
C2094 C 0.81237 0.50624 0.52087 0.0
C2095 C 0.80877 0.47385 0.45115 0.0
C2096 C 0.78631 0.44313 0.5065 0.0
C2097 C 0.76614 0.44639 0.50513 0.0
C2098 C 0.801 0.45723 0.5002 0.0
C2099 C 0.79536 0.47506 0.49251 0.0
C2100 C 0.77505 0.47851 0.4912 0.0
C2101 C 0.76067 0.4641 0.49746 0.0
C2102 C 0.82254 0.45302 0.5017 0.0
C2103 C 0.76852 0.49745 0.48323 0.0
H2104 H 0.84054 0.53018 0.50394 0.0
H2105 H 0.83688 0.50352 0.44495 0.0
H2106 H 0.79612 0.50742 0.52156 0.0
H2107 H 0.81549 0.49242 0.52808 0.0
H2108 H 0.81991 0.51912 0.52947 0.0
H2109 H 0.81545 0.47548 0.43629 0.0
H2110 H 0.81132 0.45888 0.45617 0.0
H2111 H 0.79249 0.4746 0.44984 0.0
H2112 H 0.79065 0.42946 0.51234 0.0
H2113 H 0.74512 0.46678 0.49642 0.0
H2114 H 0.83075 0.46475 0.51123 0.0
H2115 H 0.82946 0.4533 0.48686 0.0
H2116 H 0.82443 0.43836 0.50789 0.0
H2117 H 0.77514 0.51049 0.49225 0.0
H2118 H 0.75212 0.49787 0.48326 0.0
H2119 H 0.77388 0.49903 0.46788 0.0
C2120 C 0.7183 0.89983 0.77654 0.0
C2121 C 0.71262 0.8817 0.78495 0.0
C2122 C 0.7048 0.91434 0.77471 0.0
C2123 C 0.68514 0.91068 0.78153 0.0
C2124 C 0.67902 0.89206 0.78917 0.0
C2125 C 0.69285 0.87778 0.7908 0.0
C2126 C 0.71191 0.93401 0.76646 0.0
C2127 C 0.65814 0.88758 0.79646 0.0
C2128 C 0.66168 0.95726 0.79947 0.0
C2129 C 0.65023 0.96123 0.78306 0.0
C2130 C 0.67244 0.94039 0.79942 0.0
C2131 C 0.67178 0.92714 0.78254 0.0
C2132 C 0.6596 0.93057 0.76623 0.0
C2133 C 0.64892 0.94761 0.76669 0.0
C2134 C 0.68518 0.9372 0.81717 0.0
C2135 C 0.65848 0.91672 0.74801 0.0
H2136 H 0.73359 0.90311 0.7722 0.0
H2137 H 0.68829 0.86368 0.79704 0.0
H2138 H 0.70162 0.93795 0.75478 0.0
H2139 H 0.71213 0.94591 0.77838 0.0
H2140 H 0.72705 0.93382 0.76015 0.0
H2141 H 0.6551 0.8717 0.79981 0.0
H2142 H 0.65579 0.89685 0.81011 0.0
H2143 H 0.6472 0.89139 0.78532 0.0
H2144 H 0.66264 0.96762 0.81224 0.0
H2145 H 0.64006 0.95056 0.75397 0.0
H2146 H 0.70106 0.93848 0.81294 0.0
H2147 H 0.68174 0.92202 0.82243 0.0
H2148 H 0.68303 0.94816 0.82961 0.0
H2149 H 0.67295 0.91781 0.74029 0.0
H2150 H 0.64676 0.92028 0.73753 0.0
H2151 H 0.65552 0.90108 0.75214 0.0
C2152 C 0.64937 0.56134 0.95161 0.0
C2153 C 0.65045 0.54173 0.95719 0.0
C2154 C 0.66473 0.57603 0.9563 0.0
C2155 C 0.68139 0.57104 0.96712 0.0
C2156 C 0.6828 0.55121 0.97242 0.0
C2157 C 0.66742 0.53676 0.9672 0.0
C2158 C 0.66291 0.59698 0.95011 0.0
C2159 C 0.7003 0.54536 0.98408 0.0
C2160 C 0.72931 0.60431 0.96889 0.0
C2161 C 0.72764 0.61486 0.9871 0.0
C2162 C 0.71409 0.59039 0.96191 0.0
C2163 C 0.69703 0.58668 0.97362 0.0
C2164 C 0.69518 0.59741 0.99193 0.0
C2165 C 0.71045 0.61153 0.99837 0.0
C2166 C 0.71637 0.5795 0.94212 0.0
C2167 C 0.67732 0.5936 0.00496 0.0
H2168 H 0.63624 0.5654 0.94407 0.0
H2169 H 0.66859 0.52156 0.97119 0.0
H2170 H 0.66155 0.60705 0.9634 0.0
H2171 H 0.67645 0.60242 0.94217 0.0
H2172 H 0.64981 0.59806 0.94041 0.0
H2173 H 0.69927 0.52922 0.98676 0.0
H2174 H 0.7143 0.54918 0.97612 0.0
H2175 H 0.70123 0.55382 0.99857 0.0
H2176 H 0.7425 0.60698 0.96003 0.0
H2177 H 0.70915 0.61959 0.01249 0.0
H2178 H 0.70335 0.58126 0.93254 0.0
H2179 H 0.71691 0.56337 0.94417 0.0
H2180 H 0.73004 0.58494 0.93433 0.0
H2181 H 0.66355 0.59594 0.99677 0.0
H2182 H 0.67803 0.60342 0.01864 0.0
H2183 H 0.67619 0.5779 0.00921 0.0
C2184 C 0.20116 0.64132 0.24541 0.0
C2185 C 0.21953 0.63998 0.23609 0.0
C2186 C 0.18894 0.62419 0.24913 0.0
C2187 C 0.19521 0.60528 0.24329 0.0
C2188 C 0.21359 0.60384 0.23358 0.0
C2189 C 0.22559 0.62124 0.23016 0.0
C2190 C 0.16949 0.62631 0.25966 0.0
C2191 C 0.22064 0.58393 0.22698 0.0
C2192 C 0.172 0.56195 0.27094 0.0
C2193 C 0.15655 0.55458 0.25808 0.0
C2194 C 0.18504 0.57814 0.26606 0.0
C2195 C 0.18266 0.58706 0.24783 0.0
C2196 C 0.16757 0.57924 0.23446 0.0
C2197 C 0.15465 0.56312 0.23978 0.0
C2198 C 0.20094 0.58613 0.28072 0.0
C2199 C 0.16472 0.58827 0.2148 0.0
H2200 H 0.19656 0.65578 0.25024 0.0
H2201 H 0.2397 0.62019 0.22277 0.0
H2202 H 0.15705 0.61907 0.25053 0.0
H2203 H 0.1695 0.61868 0.27379 0.0
H2204 H 0.16664 0.64211 0.2629 0.0
H2205 H 0.23501 0.58541 0.21904 0.0
H2206 H 0.22243 0.57487 0.23998 0.0
H2207 H 0.20942 0.57563 0.21709 0.0
H2208 H 0.17361 0.55543 0.2851 0.0
H2209 H 0.14284 0.55744 0.22969 0.0
H2210 H 0.19815 0.60149 0.2859 0.0
H2211 H 0.2157 0.58687 0.27355 0.0
H2212 H 0.20147 0.57688 0.29379 0.0
H2213 H 0.16019 0.60362 0.21726 0.0
H2214 H 0.15325 0.57955 0.2055 0.0
H2215 H 0.17889 0.58928 0.20654 0.0
C2216 C 0.88409 0.5517 0.0567 0.0
C2217 C 0.87314 0.5356 0.06475 0.0
C2218 C 0.87467 0.56807 0.05044 0.0
C2219 C 0.85376 0.56799 0.05176 0.0
C2220 C 0.84274 0.55202 0.06054 0.0
C2221 C 0.85264 0.53608 0.06714 0.0
C2222 C 0.88697 0.58502 0.04162 0.0
C2223 C 0.8204 0.55118 0.06184 0.0
C2224 C 0.827 0.61438 0.04343 0.0
C2225 C 0.82178 0.61146 0.02339 0.0
C2226 C 0.83791 0.60064 0.05282 0.0
C2227 C 0.84324 0.58339 0.04201 0.0
C2228 C 0.8381 0.5805 0.02174 0.0
C2229 C 0.82766 0.59467 0.01264 0.0
C2230 C 0.84358 0.60445 0.07432 0.0
C2231 C 0.84318 0.56213 0.00975 0.0
H2232 H 0.9 0.55128 0.05499 0.0
H2233 H 0.84423 0.52351 0.07327 0.0
H2234 H 0.88418 0.58481 0.02547 0.0
H2235 H 0.88271 0.59949 0.04805 0.0
H2236 H 0.90312 0.58409 0.0441 0.0
H2237 H 0.81421 0.53854 0.07041 0.0
H2238 H 0.81564 0.56519 0.06885 0.0
H2239 H 0.81391 0.54957 0.04673 0.0
H2240 H 0.82253 0.62738 0.05177 0.0
H2241 H 0.82352 0.59224 0.99719 0.0
H2242 H 0.85981 0.60378 0.07623 0.0
H2243 H 0.83616 0.59271 0.08324 0.0
H2244 H 0.8394 0.61914 0.08029 0.0
H2245 H 0.85947 0.5611 0.00972 0.0
H2246 H 0.83794 0.56206 0.99419 0.0
H2247 H 0.83637 0.54863 0.01655 0.0
C2248 C 0.11268 0.00557 0.06224 0.0
C2249 C 0.1203 0.02178 0.07439 0.0
C2250 C 0.12401 0.98945 0.05781 0.0
C2251 C 0.14358 0.98983 0.06537 0.0
C2252 C 0.15099 0.00577 0.07841 0.0
C2253 C 0.13915 0.02152 0.08291 0.0
C2254 C 0.11543 0.97256 0.04417 0.0
C2255 C 0.17188 0.00687 0.08653 0.0
C2256 C 0.17214 0.94354 0.05939 0.0
C2257 C 0.18245 0.94711 0.04181 0.0
C2258 C 0.15929 0.95725 0.06729 0.0
C2259 C 0.15707 0.97502 0.05754 0.0
C2260 C 0.16762 0.97872 0.03991 0.0
C2261 C 0.18001 0.96466 0.03219 0.0
C2262 C 0.14799 0.95269 0.08593 0.0
C2263 C 0.16591 0.99762 0.0292 0.0
H2264 H 0.09797 0.00573 0.05585 0.0
H2265 H 0.14502 0.03413 0.09226 0.0
H2266 H 0.12287 0.97325 0.0296 0.0
H2267 H 0.11811 0.95803 0.05021 0.0
H2268 H 0.09923 0.97315 0.04181 0.0
H2269 H 0.1746 0.019 0.09813 0.0
H2270 H 0.17497 0.99258 0.09283 0.0
H2271 H 0.18257 0.00955 0.07436 0.0
H2272 H 0.17397 0.92998 0.06686 0.0
H2273 H 0.18808 0.96761 0.0187 0.0
H2274 H 0.13181 0.95242 0.08305 0.0
H2275 H 0.15171 0.96455 0.09757 0.0
H2276 H 0.15129 0.93818 0.09167 0.0
H2277 H 0.15035 0.99856 0.02434 0.0
H2278 H 0.17563 0.9985 0.01602 0.0
H2279 H 0.16992 0.01076 0.03932 0.0
loop_
_geom_bond_atom_site_label_1
_geom_bond_atom_site_label_2
_geom_bond_distance
_geom_bond_site_symmetry_2
_ccdc_geom_bond_type
C0 C1 1.384 . S
C0 H13 0.947 . S
C0 C35 1.382 . S
C1 C0 1.384 . S
C1 C2 1.378 . S
C2 C1 1.378 . S
C2 C3 1.378 . S
C2 H14 0.952 . S
C3 C2 1.378 . S
C3 H15 0.950 . S
C3 C34 1.383 . S
H4 C23 0.947 . S
H5 C24 0.946 . S
H6 C26 0.953 . S
H7 C27 0.945 . S
H8 C29 0.952 . S
H9 C30 0.949 . S
H10 C32 0.950 . S
H11 C33 0.948 . S
H12 C35 0.951 . S
H13 C0 0.947 . S
H14 C2 0.952 . S
H15 C3 0.950 . S
N16 C19 1.382 . S
N16 C21 1.363 . S
N17 C19 1.371 . S
N17 C20 1.372 . S
N18 C20 1.361 . S
N18 C21 1.377 . S
C19 N16 1.382 . S
C19 N17 1.371 . S
C19 C22 1.480 . S
C20 N17 1.372 . S
C20 N18 1.361 . S
C20 C28 1.457 . S
C21 N16 1.363 . S
C21 N18 1.377 . S
C21 C34 1.479 . S
C22 C19 1.480 . S
C22 C23 1.383 . S
C22 C27 1.385 . S
C23 H4 0.947 . S
C23 C22 1.383 . S
C23 C24 1.388 . S
C24 H5 0.946 . S
C24 C23 1.388 . S
C24 C25 1.384 . S
C25 C24 1.384 . S
C25 C26 1.377 . S
C26 H6 0.953 . S
C26 C25 1.377 . S
C26 C27 1.369 . S
C27 H7 0.945 . S
C27 C22 1.385 . S
C27 C26 1.369 . S
C28 C20 1.457 . S
C28 C29 1.372 . S
C28 C33 1.364 . S
C29 H8 0.952 . S
C29 C28 1.372 . S
C29 C30 1.389 . S
C30 H9 0.949 . S
C30 C29 1.389 . S
C30 C31 1.387 . S
C31 C30 1.387 . S
C31 C32 1.372 . S
C32 H10 0.950 . S
C32 C31 1.372 . S
C32 C33 1.379 . S
C33 H11 0.948 . S
C33 C28 1.364 . S
C33 C32 1.379 . S
C34 C3 1.383 . S
C34 C21 1.479 . S
C34 C35 1.398 . S
C35 C0 1.382 . S
C35 H12 0.951 . S
C35 C34 1.398 . S
C36 C37 1.384 . S
C36 H49 0.947 . S
C36 C71 1.382 . S
C37 C36 1.384 . S
C37 C38 1.378 . S
C38 C37 1.378 . S
C38 C39 1.378 . S
C38 H50 0.952 . S
C39 C38 1.378 . S
C39 H51 0.950 . S
C39 C70 1.383 . S
H40 C59 0.947 . S
H41 C60 0.946 . S
H42 C62 0.953 . S
H43 C63 0.945 . S
H44 C65 0.952 . S
H45 C66 0.949 . S
H46 C68 0.950 . S
H47 C69 0.948 . S
H48 C71 0.951 . S
H49 C36 0.947 . S
H50 C38 0.952 . S
H51 C39 0.950 . S
N52 C55 1.382 . S
N52 C57 1.363 . S
N53 C55 1.371 . S
N53 C56 1.372 . S
N54 C56 1.361 . S
N54 C57 1.377 . S
C55 N52 1.382 . S
C55 N53 1.371 . S
C55 C58 1.480 . S
C56 N53 1.372 . S
C56 N54 1.361 . S
C56 C64 1.457 . S
C57 N52 1.363 . S
C57 N54 1.377 . S
C57 C70 1.479 . S
C58 C55 1.480 . S
C58 C59 1.383 . S
C58 C63 1.385 . S
C59 H40 0.947 . S
C59 C58 1.383 . S
C59 C60 1.388 . S
C60 H41 0.946 . S
C60 C59 1.388 . S
C60 C61 1.384 . S
C61 C60 1.384 . S
C61 C62 1.377 . S
C62 H42 0.953 . S
C62 C61 1.377 . S
C62 C63 1.369 . S
C63 H43 0.945 . S
C63 C58 1.385 . S
C63 C62 1.369 . S
C64 C56 1.457 . S
C64 C65 1.372 . S
C64 C69 1.364 . S
C65 H44 0.952 . S
C65 C64 1.372 . S
C65 C66 1.389 . S
C66 H45 0.949 . S
C66 C65 1.389 . S
C66 C67 1.387 . S
C67 C66 1.387 . S
C67 C68 1.372 . S
C68 H46 0.950 . S
C68 C67 1.372 . S
C68 C69 1.379 . S
C69 H47 0.948 . S
C69 C64 1.364 . S
C69 C68 1.379 . S
C70 C39 1.383 . S
C70 C57 1.479 . S
C70 C71 1.398 . S
C71 C36 1.382 . S
C71 H48 0.951 . S
C71 C70 1.398 . S
C72 C73 1.384 . S
C72 H85 0.947 . S
C72 C107 1.382 . S
C73 C72 1.384 . S
C73 C74 1.378 . S
C74 C73 1.378 . S
C74 C75 1.378 . S
C74 H86 0.952 . S
C75 C74 1.378 . S
C75 H87 0.950 . S
C75 C106 1.383 . S
H76 C95 0.947 . S
H77 C96 0.946 . S
H78 C98 0.953 . S
H79 C99 0.945 . S
H80 C101 0.952 . S
H81 C102 0.949 . S
H82 C104 0.950 . S
H83 C105 0.948 . S
H84 C107 0.951 . S
H85 C72 0.947 . S
H86 C74 0.952 . S
H87 C75 0.950 . S
N88 C91 1.382 . S
N88 C93 1.363 . S
N89 C91 1.371 . S
N89 C92 1.372 . S
N90 C92 1.361 . S
N90 C93 1.377 . S
C91 N88 1.382 . S
C91 N89 1.371 . S
C91 C94 1.480 . S
C92 N89 1.372 . S
C92 N90 1.361 . S
C92 C100 1.457 . S
C93 N88 1.363 . S
C93 N90 1.377 . S
C93 C106 1.479 . S
C94 C91 1.480 . S
C94 C95 1.383 . S
C94 C99 1.385 . S
C95 H76 0.947 . S
C95 C94 1.383 . S
C95 C96 1.388 . S
C96 H77 0.946 . S
C96 C95 1.388 . S
C96 C97 1.384 . S
C97 C96 1.384 . S
C97 C98 1.377 . S
C98 H78 0.953 . S
C98 C97 1.377 . S
C98 C99 1.369 . S
C99 H79 0.945 . S
C99 C94 1.385 . S
C99 C98 1.369 . S
C100 C92 1.457 . S
C100 C101 1.372 . S
C100 C105 1.364 . S
C101 H80 0.952 . S
C101 C100 1.372 . S
C101 C102 1.389 . S
C102 H81 0.949 . S
C102 C101 1.389 . S
C102 C103 1.387 . S
C103 C102 1.387 . S
C103 C104 1.372 . S
C104 H82 0.950 . S
C104 C103 1.372 . S
C104 C105 1.379 . S
C105 H83 0.948 . S
C105 C100 1.364 . S
C105 C104 1.379 . S
C106 C75 1.383 . S
C106 C93 1.479 . S
C106 C107 1.398 . S
C107 C72 1.382 . S
C107 H84 0.951 . S
C107 C106 1.398 . S
C108 C109 1.384 . S
C108 H121 0.947 . S
C108 C143 1.382 . S
C109 C108 1.384 . S
C109 C110 1.378 . S
C110 C109 1.378 . S
C110 C111 1.378 . S
C110 H122 0.952 . S
C111 C110 1.378 . S
C111 H123 0.950 . S
C111 C142 1.383 . S
H112 C131 0.947 . S
H113 C132 0.946 . S
H114 C134 0.953 . S
H115 C135 0.945 . S
H116 C137 0.952 . S
H117 C138 0.949 . S
H118 C140 0.950 . S
H119 C141 0.948 . S
H120 C143 0.951 . S
H121 C108 0.947 . S
H122 C110 0.952 . S
H123 C111 0.950 . S
N124 C127 1.382 . S
N124 C129 1.363 . S
N125 C127 1.371 . S
N125 C128 1.372 . S
N126 C128 1.361 . S
N126 C129 1.377 . S
C127 N124 1.382 . S
C127 N125 1.371 . S
C127 C130 1.480 . S
C128 N125 1.372 . S
C128 N126 1.361 . S
C128 C136 1.457 . S
C129 N124 1.363 . S
C129 N126 1.377 . S
C129 C142 1.479 . S
C130 C127 1.480 . S
C130 C131 1.383 . S
C130 C135 1.385 . S
C131 H112 0.947 . S
C131 C130 1.383 . S
C131 C132 1.388 . S
C132 H113 0.946 . S
C132 C131 1.388 . S
C132 C133 1.384 . S
C133 C132 1.384 . S
C133 C134 1.377 . S
C134 H114 0.953 . S
C134 C133 1.377 . S
C134 C135 1.369 . S
C135 H115 0.945 . S
C135 C130 1.385 . S
C135 C134 1.369 . S
C136 C128 1.457 . S
C136 C137 1.372 . S
C136 C141 1.364 . S
C137 H116 0.952 . S
C137 C136 1.372 . S
C137 C138 1.389 . S
C138 H117 0.949 . S
C138 C137 1.389 . S
C138 C139 1.387 . S
C139 C138 1.387 . S
C139 C140 1.372 . S
C140 H118 0.950 . S
C140 C139 1.372 . S
C140 C141 1.379 . S
C141 H119 0.948 . S
C141 C136 1.364 . S
C141 C140 1.379 . S
C142 C111 1.383 . S
C142 C129 1.479 . S
C142 C143 1.398 . S
C143 C108 1.382 . S
C143 H120 0.951 . S
C143 C142 1.398 . S
C144 C145 1.384 . S
C144 H157 0.947 . S
C144 C179 1.382 . S
C145 C144 1.384 . S
C145 C146 1.378 . S
C146 C145 1.378 . S
C146 C147 1.378 . S
C146 H158 0.952 . S
C147 C146 1.378 . S
C147 H159 0.950 . S
C147 C178 1.383 . S
H148 C167 0.947 . S
H149 C168 0.946 . S
H150 C170 0.953 . S
H151 C171 0.945 . S
H152 C173 0.952 . S
H153 C174 0.949 . S
H154 C176 0.950 . S
H155 C177 0.948 . S
H156 C179 0.951 . S
H157 C144 0.947 . S
H158 C146 0.952 . S
H159 C147 0.950 . S
N160 C163 1.382 . S
N160 C165 1.363 . S
N161 C163 1.371 . S
N161 C164 1.372 . S
N162 C164 1.361 . S
N162 C165 1.377 . S
C163 N160 1.382 . S
C163 N161 1.371 . S
C163 C166 1.480 . S
C164 N161 1.372 . S
C164 N162 1.361 . S
C164 C172 1.457 . S
C165 N160 1.363 . S
C165 N162 1.377 . S
C165 C178 1.479 . S
C166 C163 1.480 . S
C166 C167 1.383 . S
C166 C171 1.385 . S
C167 H148 0.947 . S
C167 C166 1.383 . S
C167 C168 1.388 . S
C168 H149 0.946 . S
C168 C167 1.388 . S
C168 C169 1.384 . S
C169 C168 1.384 . S
C169 C170 1.377 . S
C170 H150 0.953 . S
C170 C169 1.377 . S
C170 C171 1.369 . S
C171 H151 0.945 . S
C171 C166 1.385 . S
C171 C170 1.369 . S
C172 C164 1.457 . S
C172 C173 1.372 . S
C172 C177 1.364 . S
C173 H152 0.952 . S
C173 C172 1.372 . S
C173 C174 1.389 1_565 S
C174 H153 0.949 . S
C174 C173 1.389 1_545 S
C174 C175 1.402 . S
C175 C174 1.402 . S
C175 C176 1.336 1_545 S
C176 H154 0.950 . S
C176 C175 1.336 1_565 S
C176 C177 1.379 . S
C177 H155 0.948 . S
C177 C172 1.364 . S
C177 C176 1.379 . S
C178 C147 1.383 . S
C178 C165 1.479 . S
C178 C179 1.398 . S
C179 C144 1.382 . S
C179 H156 0.951 . S
C179 C178 1.398 . S
C180 C181 1.384 . S
C180 H193 0.947 . S
C180 C215 1.382 . S
C181 C180 1.384 . S
C181 C182 1.378 . S
C182 C181 1.378 . S
C182 C183 1.378 . S
C182 H194 0.952 . S
C183 C182 1.378 . S
C183 H195 0.950 . S
C183 C214 1.383 . S
H184 C203 0.947 . S
H185 C204 0.946 . S
H186 C206 0.953 . S
H187 C207 0.945 . S
H188 C209 0.952 . S
H189 C210 0.949 . S
H190 C212 0.950 . S
H191 C213 0.948 . S
H192 C215 0.951 . S
H193 C180 0.947 . S
H194 C182 0.952 . S
H195 C183 0.950 . S
N196 C199 1.382 . S
N196 C201 1.363 . S
N197 C199 1.371 . S
N197 C200 1.372 . S
N198 C200 1.361 . S
N198 C201 1.377 . S
C199 N196 1.382 . S
C199 N197 1.371 . S
C199 C202 1.480 . S
C200 N197 1.372 . S
C200 N198 1.361 . S
C200 C208 1.457 . S
C201 N196 1.363 . S
C201 N198 1.377 . S
C201 C214 1.479 . S
C202 C199 1.480 . S
C202 C203 1.383 . S
C202 C207 1.385 . S
C203 H184 0.947 . S
C203 C202 1.383 . S
C203 C204 1.388 . S
C204 H185 0.946 . S
C204 C203 1.388 . S
C204 C205 1.384 . S
C205 C204 1.384 . S
C205 C206 1.377 . S
C206 H186 0.953 . S
C206 C205 1.377 . S
C206 C207 1.369 . S
C207 H187 0.945 . S
C207 C202 1.385 . S
C207 C206 1.369 . S
C208 C200 1.457 . S
C208 C209 1.372 . S
C208 C213 1.364 . S
C209 H188 0.952 . S
C209 C208 1.372 . S
C209 C210 1.389 . S
C210 H189 0.949 . S
C210 C209 1.389 . S
C210 C211 1.387 . S
C211 C210 1.387 . S
C211 C212 1.372 . S
C212 H190 0.950 . S
C212 C211 1.372 . S
C212 C213 1.379 . S
C213 H191 0.948 . S
C213 C208 1.364 . S
C213 C212 1.379 . S
C214 C183 1.383 . S
C214 C201 1.479 . S
C214 C215 1.398 . S
C215 C180 1.382 . S
C215 H192 0.951 . S
C215 C214 1.398 . S
C216 C217 1.384 . S
C216 H229 0.947 . S
C216 C251 1.382 . S
C217 C216 1.384 . S
C217 C218 1.378 . S
C218 C217 1.378 . S
C218 C219 1.378 . S
C218 H230 0.952 . S
C219 C218 1.378 . S
C219 H231 0.950 . S
C219 C250 1.383 . S
H220 C239 0.947 . S
H221 C240 0.946 . S
H222 C242 0.953 . S
H223 C243 0.945 . S
H224 C245 0.952 . S
H225 C246 0.949 . S
H226 C248 0.950 . S
H227 C249 0.948 . S
H228 C251 0.951 . S
H229 C216 0.947 . S
H230 C218 0.952 . S
H231 C219 0.950 . S
N232 C235 1.382 . S
N232 C237 1.363 . S
N233 C235 1.371 . S
N233 C236 1.372 . S
N234 C236 1.361 . S
N234 C237 1.377 . S
C235 N232 1.382 . S
C235 N233 1.371 . S
C235 C238 1.480 . S
C236 N233 1.372 . S
C236 N234 1.361 . S
C236 C244 1.457 . S
C237 N232 1.363 . S
C237 N234 1.377 . S
C237 C250 1.479 . S
C238 C235 1.480 . S
C238 C239 1.383 . S
C238 C243 1.385 . S
C239 H220 0.947 . S
C239 C238 1.383 . S
C239 C240 1.388 . S
C240 H221 0.946 . S
C240 C239 1.388 . S
C240 C241 1.384 . S
C241 C240 1.384 . S
C241 C242 1.377 . S
C242 H222 0.953 . S
C242 C241 1.377 . S
C242 C243 1.369 . S
C243 H223 0.945 . S
C243 C238 1.385 . S
C243 C242 1.369 . S
C244 C236 1.457 . S
C244 C245 1.372 . S
C244 C249 1.364 . S
C245 H224 0.952 . S
C245 C244 1.372 . S
C245 C246 1.389 . S
C246 H225 0.949 . S
C246 C245 1.389 . S
C246 C247 1.387 . S
C247 C246 1.387 . S
C247 C248 1.372 . S
C248 H226 0.950 . S
C248 C247 1.372 . S
C248 C249 1.379 . S
C249 H227 0.948 . S
C249 C244 1.364 . S
C249 C248 1.379 . S
C250 C219 1.383 . S
C250 C237 1.479 . S
C250 C251 1.398 . S
C251 C216 1.382 . S
C251 H228 0.951 . S
C251 C250 1.398 . S
C252 C253 1.384 . S
C252 H265 0.947 . S
C252 C287 1.382 . S
C253 C252 1.384 . S
C253 C254 1.378 . S
C254 C253 1.378 . S
C254 C255 1.378 . S
C254 H266 0.952 . S
C255 C254 1.378 . S
C255 H267 0.950 . S
C255 C286 1.383 . S
H256 C275 0.947 . S
H257 C276 0.946 . S
H258 C278 0.953 . S
H259 C279 0.945 . S
H260 C281 0.952 . S
H261 C282 0.949 . S
H262 C284 0.950 . S
H263 C285 0.948 . S
H264 C287 0.951 . S
H265 C252 0.947 . S
H266 C254 0.952 . S
H267 C255 0.950 . S
N268 C271 1.382 . S
N268 C273 1.363 . S
N269 C271 1.371 . S
N269 C272 1.372 . S
N270 C272 1.361 . S
N270 C273 1.377 . S
C271 N268 1.382 . S
C271 N269 1.371 . S
C271 C274 1.480 . S
C272 N269 1.372 . S
C272 N270 1.361 . S
C272 C280 1.457 . S
C273 N268 1.363 . S
C273 N270 1.377 . S
C273 C286 1.479 . S
C274 C271 1.480 . S
C274 C275 1.383 . S
C274 C279 1.385 . S
C275 H256 0.947 . S
C275 C274 1.383 . S
C275 C276 1.388 . S
C276 H257 0.946 . S
C276 C275 1.388 . S
C276 C277 1.384 . S
C277 C276 1.384 . S
C277 C278 1.377 . S
C278 H258 0.953 . S
C278 C277 1.377 . S
C278 C279 1.369 . S
C279 H259 0.945 . S
C279 C274 1.385 . S
C279 C278 1.369 . S
C280 C272 1.457 . S
C280 C281 1.372 . S
C280 C285 1.364 . S
C281 H260 0.952 . S
C281 C280 1.372 . S
C281 C282 1.389 . S
C282 H261 0.949 . S
C282 C281 1.389 . S
C282 C283 1.387 . S
C283 C282 1.387 . S
C283 C284 1.372 . S
C284 H262 0.950 . S
C284 C283 1.372 . S
C284 C285 1.379 . S
C285 H263 0.948 . S
C285 C280 1.364 . S
C285 C284 1.379 . S
C286 C255 1.383 . S
C286 C273 1.479 . S
C286 C287 1.398 . S
C287 C252 1.382 . S
C287 H264 0.951 . S
C287 C286 1.398 . S
C288 C289 1.384 . S
C288 H301 0.947 . S
C288 C323 1.382 . S
C289 C288 1.384 . S
C289 C290 1.378 . S
C290 C289 1.378 . S
C290 C291 1.378 . S
C290 H302 0.952 . S
C291 C290 1.378 . S
C291 H303 0.950 . S
C291 C322 1.383 . S
H292 C311 0.947 . S
H293 C312 0.946 . S
H294 C314 0.953 . S
H295 C315 0.945 . S
H296 C317 0.952 . S
H297 C318 0.949 . S
H298 C320 0.950 . S
H299 C321 0.948 . S
H300 C323 0.951 . S
H301 C288 0.947 . S
H302 C290 0.952 . S
H303 C291 0.950 . S
N304 C307 1.382 . S
N304 C309 1.363 . S
N305 C307 1.371 . S
N305 C308 1.372 . S
N306 C308 1.361 . S
N306 C309 1.377 . S
C307 N304 1.382 . S
C307 N305 1.371 . S
C307 C310 1.480 . S
C308 N305 1.372 . S
C308 N306 1.361 . S
C308 C316 1.457 . S
C309 N304 1.363 . S
C309 N306 1.377 . S
C309 C322 1.479 . S
C310 C307 1.480 . S
C310 C311 1.383 . S
C310 C315 1.385 . S
C311 H292 0.947 . S
C311 C310 1.383 . S
C311 C312 1.388 . S
C312 H293 0.946 . S
C312 C311 1.388 . S
C312 C313 1.384 . S
C313 C312 1.384 . S
C313 C314 1.377 . S
C314 H294 0.953 . S
C314 C313 1.377 . S
C314 C315 1.369 . S
C315 H295 0.945 . S
C315 C310 1.385 . S
C315 C314 1.369 . S
C316 C308 1.457 . S
C316 C317 1.372 . S
C316 C321 1.364 . S
C317 H296 0.952 . S
C317 C316 1.372 . S
C317 C318 1.389 . S
C318 H297 0.949 . S
C318 C317 1.389 . S
C318 C319 1.387 . S
C319 C318 1.387 . S
C319 C320 1.372 . S
C320 H298 0.950 . S
C320 C319 1.372 . S
C320 C321 1.379 . S
C321 H299 0.948 . S
C321 C316 1.364 . S
C321 C320 1.379 . S
C322 C291 1.383 . S
C322 C309 1.479 . S
C322 C323 1.398 . S
C323 C288 1.382 . S
C323 H300 0.951 . S
C323 C322 1.398 . S
C324 C325 1.384 . S
C324 H337 0.947 . S
C324 C359 1.382 . S
C325 C324 1.384 . S
C325 C326 1.378 . S
C326 C325 1.378 . S
C326 C327 1.378 . S
C326 H338 0.952 . S
C327 C326 1.378 . S
C327 H339 0.950 . S
C327 C358 1.383 . S
H328 C347 0.947 . S
H329 C348 0.946 . S
H330 C350 0.953 . S
H331 C351 0.945 . S
H332 C353 0.952 . S
H333 C354 0.949 . S
H334 C356 0.950 . S
H335 C357 0.948 . S
H336 C359 0.951 . S
H337 C324 0.947 . S
H338 C326 0.952 . S
H339 C327 0.950 . S
N340 C343 1.382 . S
N340 C345 1.363 . S
N341 C343 1.371 . S
N341 C344 1.372 . S
N342 C344 1.361 . S
N342 C345 1.377 . S
C343 N340 1.382 . S
C343 N341 1.371 . S
C343 C346 1.480 . S
C344 N341 1.372 . S
C344 N342 1.361 . S
C344 C352 1.457 . S
C345 N340 1.363 . S
C345 N342 1.377 . S
C345 C358 1.479 . S
C346 C343 1.480 . S
C346 C347 1.383 . S
C346 C351 1.385 . S
C347 H328 0.947 . S
C347 C346 1.383 . S
C347 C348 1.388 . S
C348 H329 0.946 . S
C348 C347 1.388 . S
C348 C349 1.384 . S
C349 C348 1.384 . S
C349 C350 1.377 . S
C350 H330 0.953 . S
C350 C349 1.377 . S
C350 C351 1.369 . S
C351 H331 0.945 . S
C351 C346 1.385 . S
C351 C350 1.369 . S
C352 C344 1.457 . S
C352 C353 1.372 . S
C352 C357 1.364 . S
C353 H332 0.952 . S
C353 C352 1.372 . S
C353 C354 1.389 . S
C354 H333 0.949 . S
C354 C353 1.389 . S
C354 C355 1.387 . S
C355 C354 1.387 . S
C355 C356 1.372 . S
C356 H334 0.950 . S
C356 C355 1.372 . S
C356 C357 1.379 . S
C357 H335 0.948 . S
C357 C352 1.364 . S
C357 C356 1.379 . S
C358 C327 1.383 . S
C358 C345 1.479 . S
C358 C359 1.398 . S
C359 C324 1.382 . S
C359 H336 0.951 . S
C359 C358 1.398 . S
C360 C361 1.384 . S
C360 H373 0.947 . S
C360 C395 1.382 . S
C361 C360 1.384 . S
C361 C362 1.378 . S
C362 C361 1.378 . S
C362 C363 1.378 . S
C362 H374 0.952 . S
C363 C362 1.378 . S
C363 H375 0.950 . S
C363 C394 1.383 . S
H364 C383 0.947 . S
H365 C384 0.946 . S
H366 C386 0.953 . S
H367 C387 0.945 . S
H368 C389 0.952 . S
H369 C390 0.949 . S
H370 C392 0.950 . S
H371 C393 0.948 . S
H372 C395 0.951 . S
H373 C360 0.947 . S
H374 C362 0.952 . S
H375 C363 0.950 . S
N376 C379 1.382 . S
N376 C381 1.363 . S
N377 C379 1.371 . S
N377 C380 1.372 . S
N378 C380 1.361 . S
N378 C381 1.377 . S
C379 N376 1.382 . S
C379 N377 1.371 . S
C379 C382 1.480 . S
C380 N377 1.372 . S
C380 N378 1.361 . S
C380 C388 1.457 . S
C381 N376 1.363 . S
C381 N378 1.377 . S
C381 C394 1.479 . S
C382 C379 1.480 . S
C382 C383 1.383 . S
C382 C387 1.385 . S
C383 H364 0.947 . S
C383 C382 1.383 . S
C383 C384 1.388 . S
C384 H365 0.946 . S
C384 C383 1.388 . S
C384 C385 1.384 . S
C385 C384 1.384 . S
C385 C386 1.377 . S
C386 H366 0.953 . S
C386 C385 1.377 . S
C386 C387 1.369 . S
C387 H367 0.945 . S
C387 C382 1.385 . S
C387 C386 1.369 . S
C388 C380 1.457 . S
C388 C389 1.372 . S
C388 C393 1.364 . S
C389 H368 0.952 . S
C389 C388 1.372 . S
C389 C390 1.389 . S
C390 H369 0.949 . S
C390 C389 1.389 . S
C390 C391 1.387 . S
C391 C390 1.387 . S
C391 C392 1.372 . S
C392 H370 0.950 . S
C392 C391 1.372 . S
C392 C393 1.379 . S
C393 H371 0.948 . S
C393 C388 1.364 . S
C393 C392 1.379 . S
C394 C363 1.383 . S
C394 C381 1.479 . S
C394 C395 1.398 . S
C395 C360 1.382 . S
C395 H372 0.951 . S
C395 C394 1.398 . S
C396 C397 1.384 . S
C396 H409 0.947 . S
C396 C431 1.382 . S
C397 C396 1.384 . S
C397 C398 1.378 . S
C398 C397 1.378 . S
C398 C399 1.378 . S
C398 H410 0.952 . S
C399 C398 1.378 . S
C399 H411 0.950 . S
C399 C430 1.383 . S
H400 C419 0.947 . S
H401 C420 0.946 . S
H402 C422 0.953 . S
H403 C423 0.945 . S
H404 C425 0.952 . S
H405 C426 0.949 . S
H406 C428 0.950 . S
H407 C429 0.948 . S
H408 C431 0.951 . S
H409 C396 0.947 . S
H410 C398 0.952 . S
H411 C399 0.950 . S
N412 C415 1.382 . S
N412 C417 1.363 . S
N413 C415 1.371 . S
N413 C416 1.372 . S
N414 C416 1.361 . S
N414 C417 1.377 . S
C415 N412 1.382 . S
C415 N413 1.371 . S
C415 C418 1.480 . S
C416 N413 1.372 . S
C416 N414 1.361 . S
C416 C424 1.457 . S
C417 N412 1.363 . S
C417 N414 1.377 . S
C417 C430 1.479 . S
C418 C415 1.480 . S
C418 C419 1.383 . S
C418 C423 1.385 . S
C419 H400 0.947 . S
C419 C418 1.383 . S
C419 C420 1.388 . S
C420 H401 0.946 . S
C420 C419 1.388 . S
C420 C421 1.384 . S
C421 C420 1.384 . S
C421 C422 1.377 . S
C422 H402 0.953 . S
C422 C421 1.377 . S
C422 C423 1.369 . S
C423 H403 0.945 . S
C423 C418 1.385 . S
C423 C422 1.369 . S
C424 C416 1.457 . S
C424 C425 1.372 . S
C424 C429 1.364 . S
C425 H404 0.952 . S
C425 C424 1.372 . S
C425 C426 1.389 . S
C426 H405 0.949 . S
C426 C425 1.389 . S
C426 C427 1.387 . S
C427 C426 1.387 . S
C427 C428 1.372 . S
C428 H406 0.950 . S
C428 C427 1.372 . S
C428 C429 1.379 . S
C429 H407 0.948 . S
C429 C424 1.364 . S
C429 C428 1.379 . S
C430 C399 1.383 . S
C430 C417 1.479 . S
C430 C431 1.398 . S
C431 C396 1.382 . S
C431 H408 0.951 . S
C431 C430 1.398 . S
C432 C433 1.384 . S
C432 H445 0.947 . S
C432 C467 1.382 . S
C433 C432 1.384 . S
C433 C434 1.378 . S
C434 C433 1.378 . S
C434 C435 1.378 . S
C434 H446 0.952 . S
C435 C434 1.378 . S
C435 H447 0.950 . S
C435 C466 1.383 . S
H436 C455 0.947 . S
H437 C456 0.946 . S
H438 C458 0.953 . S
H439 C459 0.945 . S
H440 C461 0.952 . S
H441 C462 0.949 . S
H442 C464 0.950 . S
H443 C465 0.948 . S
H444 C467 0.951 . S
H445 C432 0.947 . S
H446 C434 0.952 . S
H447 C435 0.950 . S
N448 C451 1.382 . S
N448 C453 1.363 . S
N449 C451 1.371 . S
N449 C452 1.372 . S
N450 C452 1.361 . S
N450 C453 1.377 . S
C451 N448 1.382 . S
C451 N449 1.371 . S
C451 C454 1.480 . S
C452 N449 1.372 . S
C452 N450 1.361 . S
C452 C460 1.457 . S
C453 N448 1.363 . S
C453 N450 1.377 . S
C453 C466 1.479 . S
C454 C451 1.480 . S
C454 C455 1.383 . S
C454 C459 1.385 . S
C455 H436 0.947 . S
C455 C454 1.383 . S
C455 C456 1.388 . S
C456 H437 0.946 . S
C456 C455 1.388 . S
C456 C457 1.384 . S
C457 C456 1.384 . S
C457 C458 1.377 . S
C458 H438 0.953 . S
C458 C457 1.377 . S
C458 C459 1.369 . S
C459 H439 0.945 . S
C459 C454 1.385 . S
C459 C458 1.369 . S
C460 C452 1.457 . S
C460 C461 1.372 . S
C460 C465 1.364 . S
C461 H440 0.952 . S
C461 C460 1.372 . S
C461 C462 1.389 . S
C462 H441 0.949 . S
C462 C461 1.389 . S
C462 C463 1.387 . S
C463 C462 1.387 . S
C463 C464 1.372 . S
C464 H442 0.950 . S
C464 C463 1.372 . S
C464 C465 1.379 . S
C465 H443 0.948 . S
C465 C460 1.364 . S
C465 C464 1.379 . S
C466 C435 1.383 . S
C466 C453 1.479 . S
C466 C467 1.398 . S
C467 C432 1.382 . S
C467 H444 0.951 . S
C467 C466 1.398 . S
C468 C469 1.384 . S
C468 H481 0.947 . S
C468 C503 1.382 . S
C469 C468 1.384 . S
C469 C470 1.378 . S
C470 C469 1.378 . S
C470 C471 1.378 . S
C470 H482 0.952 . S
C471 C470 1.378 . S
C471 H483 0.950 . S
C471 C502 1.383 . S
H472 C491 0.947 . S
H473 C492 0.946 . S
H474 C494 0.953 . S
H475 C495 0.945 . S
H476 C497 0.952 . S
H477 C498 0.949 . S
H478 C500 0.950 . S
H479 C501 0.948 . S
H480 C503 0.951 . S
H481 C468 0.947 . S
H482 C470 0.952 . S
H483 C471 0.950 . S
N484 C487 1.382 . S
N484 C489 1.363 . S
N485 C487 1.371 . S
N485 C488 1.372 . S
N486 C488 1.361 . S
N486 C489 1.377 . S
C487 N484 1.382 . S
C487 N485 1.371 . S
C487 C490 1.480 . S
C488 N485 1.372 . S
C488 N486 1.361 . S
C488 C496 1.457 . S
C489 N484 1.363 . S
C489 N486 1.377 . S
C489 C502 1.479 . S
C490 C487 1.480 . S
C490 C491 1.383 . S
C490 C495 1.385 . S
C491 H472 0.947 . S
C491 C490 1.383 . S
C491 C492 1.388 . S
C492 H473 0.946 . S
C492 C491 1.388 . S
C492 C493 1.384 . S
C493 C492 1.384 . S
C493 C494 1.377 . S
C494 H474 0.953 . S
C494 C493 1.377 . S
C494 C495 1.369 . S
C495 H475 0.945 . S
C495 C490 1.385 . S
C495 C494 1.369 . S
C496 C488 1.457 . S
C496 C497 1.372 . S
C496 C501 1.364 . S
C497 H476 0.952 . S
C497 C496 1.372 . S
C497 C498 1.389 . S
C498 H477 0.949 . S
C498 C497 1.389 . S
C498 C499 1.387 . S
C499 C498 1.387 . S
C499 C500 1.372 . S
C500 H478 0.950 . S
C500 C499 1.372 . S
C500 C501 1.379 . S
C501 H479 0.948 . S
C501 C496 1.364 . S
C501 C500 1.379 . S
C502 C471 1.383 . S
C502 C489 1.479 . S
C502 C503 1.398 . S
C503 C468 1.382 . S
C503 H480 0.951 . S
C503 C502 1.398 . S
C504 C505 1.384 . S
C504 H517 0.947 . S
C504 C539 1.382 . S
C505 C504 1.384 . S
C505 C506 1.378 . S
C506 C505 1.378 . S
C506 C507 1.378 . S
C506 H518 0.952 . S
C507 C506 1.378 . S
C507 H519 0.950 . S
C507 C538 1.383 . S
H508 C527 0.947 . S
H509 C528 0.946 . S
H510 C530 0.953 . S
H511 C531 0.945 . S
H512 C533 0.952 . S
H513 C534 0.949 . S
H514 C536 0.950 . S
H515 C537 0.948 . S
H516 C539 0.951 . S
H517 C504 0.947 . S
H518 C506 0.952 . S
H519 C507 0.950 . S
N520 C523 1.382 . S
N520 C525 1.363 . S
N521 C523 1.371 . S
N521 C524 1.372 . S
N522 C524 1.361 . S
N522 C525 1.377 . S
C523 N520 1.382 . S
C523 N521 1.371 . S
C523 C526 1.480 . S
C524 N521 1.372 . S
C524 N522 1.361 . S
C524 C532 1.457 . S
C525 N520 1.363 . S
C525 N522 1.377 . S
C525 C538 1.479 . S
C526 C523 1.480 . S
C526 C527 1.383 . S
C526 C531 1.385 . S
C527 H508 0.947 . S
C527 C526 1.383 . S
C527 C528 1.388 . S
C528 H509 0.946 . S
C528 C527 1.388 . S
C528 C529 1.384 . S
C529 C528 1.384 . S
C529 C530 1.377 . S
C530 H510 0.953 . S
C530 C529 1.377 . S
C530 C531 1.369 . S
C531 H511 0.945 . S
C531 C526 1.385 . S
C531 C530 1.369 . S
C532 C524 1.457 . S
C532 C533 1.372 . S
C532 C537 1.364 . S
C533 H512 0.952 . S
C533 C532 1.372 . S
C533 C534 1.389 . S
C534 H513 0.949 . S
C534 C533 1.389 . S
C534 C535 1.387 . S
C535 C534 1.387 . S
C535 C536 1.372 . S
C536 H514 0.950 . S
C536 C535 1.372 . S
C536 C537 1.379 . S
C537 H515 0.948 . S
C537 C532 1.364 . S
C537 C536 1.379 . S
C538 C507 1.383 . S
C538 C525 1.479 . S
C538 C539 1.398 . S
C539 C504 1.382 . S
C539 H516 0.951 . S
C539 C538 1.398 . S
C540 C541 1.384 . S
C540 H553 0.947 . S
C540 C575 1.382 . S
C541 C540 1.384 . S
C541 C542 1.378 . S
C542 C541 1.378 . S
C542 C543 1.378 . S
C542 H554 0.952 1_556 S
C543 C542 1.378 . S
C543 H555 0.950 . S
C543 C574 1.383 . S
H544 C563 0.947 . S
H545 C564 0.946 . S
H546 C566 0.953 . S
H547 C567 0.945 . S
H548 C569 0.952 . S
H549 C570 0.949 . S
H550 C572 0.950 . S
H551 C573 0.948 . S
H552 C575 0.951 . S
H553 C540 0.947 . S
H554 C542 0.952 1_554 S
H555 C543 0.950 . S
N556 C559 1.382 . S
N556 C561 1.363 . S
N557 C559 1.371 . S
N557 C560 1.372 . S
N558 C560 1.361 . S
N558 C561 1.377 . S
C559 N556 1.382 . S
C559 N557 1.371 . S
C559 C562 1.480 . S
C560 N557 1.372 . S
C560 N558 1.361 . S
C560 C568 1.457 . S
C561 N556 1.363 . S
C561 N558 1.377 . S
C561 C574 1.479 . S
C562 C559 1.480 . S
C562 C563 1.383 . S
C562 C567 1.385 . S
C563 H544 0.947 . S
C563 C562 1.383 . S
C563 C564 1.388 . S
C564 H545 0.946 . S
C564 C563 1.388 . S
C564 C565 1.384 . S
C565 C564 1.384 . S
C565 C566 1.377 . S
C566 H546 0.953 . S
C566 C565 1.377 . S
C566 C567 1.369 . S
C567 H547 0.945 . S
C567 C562 1.385 . S
C567 C566 1.369 . S
C568 C560 1.457 . S
C568 C569 1.372 . S
C568 C573 1.364 . S
C569 H548 0.952 . S
C569 C568 1.372 . S
C569 C570 1.389 . S
C570 H549 0.949 . S
C570 C569 1.389 . S
C570 C571 1.387 . S
C571 C570 1.387 . S
C571 C572 1.372 . S
C572 H550 0.950 . S
C572 C571 1.372 . S
C572 C573 1.379 . S
C573 H551 0.948 . S
C573 C568 1.364 . S
C573 C572 1.379 . S
C574 C543 1.383 . S
C574 C561 1.479 . S
C574 C575 1.398 . S
C575 C540 1.382 . S
C575 H552 0.951 . S
C575 C574 1.398 . S
O576 Cd577 2.223 . S
O576 C584 1.315 . S
Cd577 O576 2.223 . S
Cd577 O580 2.297 . S
Cd577 O581 2.439 . S
Cd577 O587 2.240 . S
Cd578 O579 2.240 . S
Cd578 O586 2.223 . S
Cd578 O588 2.297 . S
Cd578 O589 2.439 . S
O579 Cd578 2.240 . S
O579 C584 1.279 . S
O580 Cd577 2.297 . S
O580 C582 1.247 . S
O581 Cd577 2.439 . S
O581 C582 1.208 . S
C582 O580 1.247 . S
C582 O581 1.208 . S
C583 O588 1.247 . S
C583 O589 1.208 . S
C584 O576 1.315 . S
C584 O579 1.279 . S
C585 O586 1.315 . S
C585 O587 1.279 . S
O586 Cd578 2.223 . S
O586 C585 1.315 . S
O587 Cd577 2.240 . S
O587 C585 1.279 . S
O588 Cd578 2.297 . S
O588 C583 1.247 . S
O589 Cd578 2.439 . S
O589 C583 1.208 . S
O590 Cd591 2.223 . S
O590 C598 1.315 . S
Cd591 O590 2.223 . S
Cd591 O594 2.297 . S
Cd591 O595 2.439 . S
Cd591 O601 2.240 . S
Cd592 O593 2.240 . S
Cd592 O600 2.223 . S
Cd592 O602 2.297 . S
Cd592 O603 2.439 . S
O593 Cd592 2.240 . S
O593 C598 1.279 . S
O594 Cd591 2.297 . S
O594 C596 1.247 . S
O595 Cd591 2.439 . S
O595 C596 1.208 . S
C596 O594 1.247 . S
C596 O595 1.208 . S
C597 O602 1.247 . S
C597 O603 1.208 . S
C598 O590 1.315 . S
C598 O593 1.279 . S
C599 O600 1.315 . S
C599 O601 1.279 . S
O600 Cd592 2.223 . S
O600 C599 1.315 . S
O601 Cd591 2.240 . S
O601 C599 1.279 . S
O602 Cd592 2.297 . S
O602 C597 1.247 . S
O603 Cd592 2.439 . S
O603 C597 1.208 . S
O604 Cd605 2.223 1_556 S
O604 C612 1.315 . S
Cd605 O604 2.223 1_554 S
Cd605 O608 2.297 . S
Cd605 O609 2.439 . S
Cd605 O615 2.240 . S
Cd606 O607 2.240 . S
Cd606 O614 2.223 . S
Cd606 O616 2.297 1_556 S
Cd606 O617 2.439 1_556 S
O607 Cd606 2.240 . S
O607 C612 1.279 . S
O608 Cd605 2.297 . S
O608 C610 1.247 . S
O609 Cd605 2.439 . S
O609 C610 1.208 . S
C610 O608 1.247 . S
C610 O609 1.208 . S
C611 O616 1.247 . S
C611 O617 1.208 . S
C612 O604 1.315 . S
C612 O607 1.279 . S
C613 O614 1.315 . S
C613 O615 1.279 1_556 S
O614 Cd606 2.223 . S
O614 C613 1.315 . S
O615 Cd605 2.240 . S
O615 C613 1.279 1_554 S
O616 Cd606 2.297 1_554 S
O616 C611 1.247 . S
O617 Cd606 2.439 1_554 S
O617 C611 1.208 . S
O618 Cd619 2.223 . S
O618 C626 1.315 . S
Cd619 O618 2.223 . S
Cd619 O622 2.297 . S
Cd619 O623 2.439 . S
Cd619 O629 2.240 . S
Cd620 O621 2.240 . S
Cd620 O628 2.223 . S
Cd620 O630 2.297 . S
Cd620 O631 2.439 . S
O621 Cd620 2.240 . S
O621 C626 1.279 . S
O622 Cd619 2.297 . S
O622 C624 1.247 . S
O623 Cd619 2.439 . S
O623 C624 1.208 . S
C624 O622 1.247 . S
C624 O623 1.208 . S
C625 O630 1.247 . S
C625 O631 1.208 . S
C626 O618 1.315 . S
C626 O621 1.279 . S
C627 O628 1.315 . S
C627 O629 1.279 . S
O628 Cd620 2.223 . S
O628 C627 1.315 . S
O629 Cd619 2.240 . S
O629 C627 1.279 . S
O630 Cd620 2.297 . S
O630 C625 1.247 . S
O631 Cd620 2.439 . S
O631 C625 1.208 . S
O632 Cd633 2.223 . S
O632 C640 1.315 . S
Cd633 O632 2.223 . S
Cd633 O636 2.297 . S
Cd633 O637 2.439 . S
Cd633 O643 2.240 . S
Cd634 O635 2.240 . S
Cd634 O642 2.223 . S
Cd634 O644 2.297 . S
Cd634 O645 2.439 . S
O635 Cd634 2.240 . S
O635 C640 1.279 . S
O636 Cd633 2.297 . S
O636 C638 1.247 . S
O637 Cd633 2.439 . S
O637 C638 1.208 . S
C638 O636 1.247 . S
C638 O637 1.208 . S
C639 O644 1.247 . S
C639 O645 1.208 . S
C640 O632 1.315 . S
C640 O635 1.279 . S
C641 O642 1.315 . S
C641 O643 1.279 . S
O642 Cd634 2.223 . S
O642 C641 1.315 . S
O643 Cd633 2.240 . S
O643 C641 1.279 . S
O644 Cd634 2.297 . S
O644 C639 1.247 . S
O645 Cd634 2.439 . S
O645 C639 1.208 . S
O646 Cd647 2.223 . S
O646 C654 1.315 . S
Cd647 O646 2.223 . S
Cd647 O650 2.297 . S
Cd647 O651 2.439 . S
Cd647 O657 2.240 . S
Cd648 O649 2.240 . S
Cd648 O656 2.223 . S
Cd648 O658 2.297 . S
Cd648 O659 2.439 . S
O649 Cd648 2.240 . S
O649 C654 1.279 . S
O650 Cd647 2.297 . S
O650 C652 1.247 . S
O651 Cd647 2.439 . S
O651 C652 1.208 . S
C652 O650 1.247 . S
C652 O651 1.208 . S
C653 O658 1.247 . S
C653 O659 1.208 . S
C654 O646 1.315 . S
C654 O649 1.279 . S
C655 O656 1.315 . S
C655 O657 1.279 . S
O656 Cd648 2.223 . S
O656 C655 1.315 . S
O657 Cd647 2.240 . S
O657 C655 1.279 . S
O658 Cd648 2.297 . S
O658 C653 1.247 . S
O659 Cd648 2.439 . S
O659 C653 1.208 . S
O660 Cd661 2.223 . S
O660 C668 1.315 . S
Cd661 O660 2.223 . S
Cd661 O664 2.297 . S
Cd661 O665 2.439 . S
Cd661 O671 2.240 . S
Cd662 O663 2.240 . S
Cd662 O670 2.223 . S
Cd662 O672 2.297 . S
Cd662 O673 2.439 . S
O663 Cd662 2.240 . S
O663 C668 1.279 . S
O664 Cd661 2.297 . S
O664 C666 1.247 . S
O665 Cd661 2.439 . S
O665 C666 1.208 . S
C666 O664 1.247 . S
C666 O665 1.208 . S
C667 O672 1.247 . S
C667 O673 1.208 . S
C668 O660 1.315 . S
C668 O663 1.279 . S
C669 O670 1.315 . S
C669 O671 1.279 . S
O670 Cd662 2.223 . S
O670 C669 1.315 . S
O671 Cd661 2.240 . S
O671 C669 1.279 . S
O672 Cd662 2.297 . S
O672 C667 1.247 . S
O673 Cd662 2.439 . S
O673 C667 1.208 . S
O674 Cd675 2.223 1_545 S
O674 C682 1.315 . S
Cd675 O674 2.223 1_565 S
Cd675 O678 2.297 . S
Cd675 O679 2.439 . S
Cd675 O685 2.240 1_565 S
Cd676 O677 2.240 . S
Cd676 O684 2.223 . S
Cd676 O686 2.297 . S
Cd676 O687 2.439 1_545 S
O677 Cd676 2.240 . S
O677 C682 1.279 . S
O678 Cd675 2.297 . S
O678 C680 1.247 . S
O679 Cd675 2.439 . S
O679 C680 1.208 . S
C680 O678 1.247 . S
C680 O679 1.208 . S
C681 O686 1.247 1_565 S
C681 O687 1.208 . S
C682 O674 1.315 . S
C682 O677 1.279 . S
C683 O684 1.315 . S
C683 O685 1.279 . S
O684 Cd676 2.223 . S
O684 C683 1.315 . S
O685 Cd675 2.240 1_545 S
O685 C683 1.279 . S
O686 Cd676 2.297 . S
O686 C681 1.247 1_545 S
O687 Cd676 2.439 1_565 S
O687 C681 1.208 . S
O688 Cd689 2.223 . S
O688 C696 1.315 . S
Cd689 O688 2.223 . S
Cd689 O692 2.297 1_655 S
Cd689 O693 2.439 1_655 S
Cd689 O699 2.240 . S
Cd690 O691 2.240 . S
Cd690 O698 2.223 1_455 S
Cd690 O700 2.297 . S
Cd690 O701 2.439 . S
O691 Cd690 2.240 . S
O691 C696 1.279 1_455 S
O692 Cd689 2.297 1_455 S
O692 C694 1.247 . S
O693 Cd689 2.439 1_455 S
O693 C694 1.208 . S
C694 O692 1.247 . S
C694 O693 1.208 . S
C695 O700 1.247 . S
C695 O701 1.208 . S
C696 O688 1.315 . S
C696 O691 1.279 1_655 S
C697 O698 1.315 . S
C697 O699 1.279 . S
O698 Cd690 2.223 1_655 S
O698 C697 1.315 . S
O699 Cd689 2.240 . S
O699 C697 1.279 . S
O700 Cd690 2.297 . S
O700 C695 1.247 . S
O701 Cd690 2.439 . S
O701 C695 1.208 . S
O702 Cd703 2.223 . S
O702 C710 1.315 . S
Cd703 O702 2.223 . S
Cd703 O706 2.297 . S
Cd703 O707 2.439 . S
Cd703 O713 2.240 . S
Cd704 O705 2.240 . S
Cd704 O712 2.223 . S
Cd704 O714 2.297 . S
Cd704 O715 2.439 . S
O705 Cd704 2.240 . S
O705 C710 1.279 . S
O706 Cd703 2.297 . S
O706 C708 1.247 . S
O707 Cd703 2.439 . S
O707 C708 1.208 . S
C708 O706 1.247 . S
C708 O707 1.208 . S
C709 O714 1.247 . S
C709 O715 1.208 . S
C710 O702 1.315 . S
C710 O705 1.279 . S
C711 O712 1.315 . S
C711 O713 1.279 . S
O712 Cd704 2.223 . S
O712 C711 1.315 . S
O713 Cd703 2.240 . S
O713 C711 1.279 . S
O714 Cd704 2.297 . S
O714 C709 1.247 . S
O715 Cd704 2.439 . S
O715 C709 1.208 . S
O716 Cd717 2.223 1_655 S
O716 C724 1.315 . S
Cd717 O716 2.223 1_455 S
Cd717 O720 2.297 . S
Cd717 O721 2.439 . S
Cd717 O727 2.240 . S
Cd718 O719 2.240 . S
Cd718 O726 2.223 . S
Cd718 O728 2.297 1_655 S
Cd718 O729 2.439 1_655 S
O719 Cd718 2.240 . S
O719 C724 1.279 . S
O720 Cd717 2.297 . S
O720 C722 1.247 . S
O721 Cd717 2.439 . S
O721 C722 1.208 . S
C722 O720 1.247 . S
C722 O721 1.208 . S
C723 O728 1.247 . S
C723 O729 1.208 . S
C724 O716 1.315 . S
C724 O719 1.279 . S
C725 O726 1.315 . S
C725 O727 1.279 1_655 S
O726 Cd718 2.223 . S
O726 C725 1.315 . S
O727 Cd717 2.240 . S
O727 C725 1.279 1_455 S
O728 Cd718 2.297 1_455 S
O728 C723 1.247 . S
O729 Cd718 2.439 1_455 S
O729 C723 1.208 . S
O730 Cd731 2.223 . S
O730 C738 1.315 . S
Cd731 O730 2.223 . S
Cd731 O734 2.297 . S
Cd731 O735 2.439 . S
Cd731 O741 2.240 . S
Cd732 O733 2.240 . S
Cd732 O740 2.223 . S
Cd732 O742 2.297 . S
Cd732 O743 2.439 . S
O733 Cd732 2.240 . S
O733 C738 1.279 . S
O734 Cd731 2.297 . S
O734 C736 1.247 . S
O735 Cd731 2.439 . S
O735 C736 1.208 . S
C736 O734 1.247 . S
C736 O735 1.208 . S
C737 O742 1.247 . S
C737 O743 1.208 . S
C738 O730 1.315 . S
C738 O733 1.279 . S
C739 O740 1.315 . S
C739 O741 1.279 . S
O740 Cd732 2.223 . S
O740 C739 1.315 . S
O741 Cd731 2.240 . S
O741 C739 1.279 . S
O742 Cd732 2.297 . S
O742 C737 1.247 . S
O743 Cd732 2.439 . S
O743 C737 1.208 . S
C744 C745 1.391 . S
C744 C746 1.394 . S
C744 H760 0.931 . S
C745 C744 1.391 . S
C745 C749 1.376 . S
C746 C744 1.394 . S
C746 C747 1.369 . S
C746 C750 1.531 . S
C747 C746 1.369 . S
C747 C748 1.410 . S
C747 C755 1.503 . S
C748 C747 1.410 . S
C748 C749 1.392 . S
C748 C751 1.511 . S
C749 C745 1.376 . S
C749 C748 1.392 . S
C749 H761 0.929 . S
C750 C746 1.531 . S
C750 H762 0.960 . S
C750 H763 0.962 . S
C750 H764 0.960 . S
C751 C748 1.511 . S
C751 H765 0.961 . S
C751 H766 0.961 . S
C751 H767 0.961 . S
C752 C753 1.370 . S
C752 C754 1.363 . S
C752 H768 0.931 . S
C753 C752 1.370 . S
C753 C757 1.408 . S
C754 C752 1.363 . S
C754 C755 1.370 . S
C754 C758 1.524 . S
C755 C747 1.503 . S
C755 C754 1.370 . S
C755 C756 1.403 . S
C756 C755 1.403 . S
C756 C757 1.404 . S
C756 C759 1.539 . S
C757 C753 1.408 . S
C757 C756 1.404 . S
C757 H769 0.930 1_556 S
C758 C754 1.524 . S
C758 H770 0.956 . S
C758 H771 0.961 . S
C758 H772 0.961 . S
C759 C756 1.539 . S
C759 H773 0.958 . S
C759 H774 0.961 . S
C759 H775 0.960 . S
H760 C744 0.931 . S
H761 C749 0.929 . S
H762 C750 0.960 . S
H763 C750 0.962 . S
H764 C750 0.960 . S
H765 C751 0.961 . S
H766 C751 0.961 . S
H767 C751 0.961 . S
H768 C752 0.931 . S
H769 C757 0.930 1_554 S
H770 C758 0.956 . S
H771 C758 0.961 . S
H772 C758 0.961 . S
H773 C759 0.958 . S
H774 C759 0.961 . S
H775 C759 0.960 . S
C776 C777 1.391 . S
C776 C778 1.394 1_655 S
C776 H792 0.931 . S
C777 C776 1.391 . S
C777 C781 1.376 . S
C778 C776 1.394 1_455 S
C778 C779 1.369 . S
C778 C782 1.531 . S
C779 C778 1.369 . S
C779 C780 1.410 . S
C779 C787 1.503 . S
C780 C779 1.410 . S
C780 C781 1.392 1_455 S
C780 C783 1.511 . S
C781 C777 1.376 . S
C781 C780 1.392 1_655 S
C781 H793 0.929 . S
C782 C778 1.531 . S
C782 H794 0.960 . S
C782 H795 0.962 . S
C782 H796 0.960 1_455 S
C783 C780 1.511 . S
C783 H797 0.961 . S
C783 H798 0.961 . S
C783 H799 0.961 . S
C784 C785 1.370 . S
C784 C786 1.363 . S
C784 H800 0.931 . S
C785 C784 1.370 . S
C785 C789 1.408 . S
C786 C784 1.363 . S
C786 C787 1.370 . S
C786 C790 1.524 . S
C787 C779 1.503 . S
C787 C786 1.370 . S
C787 C788 1.403 . S
C788 C787 1.403 . S
C788 C789 1.404 . S
C788 C791 1.539 . S
C789 C785 1.408 . S
C789 C788 1.404 . S
C789 H801 0.930 . S
C790 C786 1.524 . S
C790 H802 0.956 . S
C790 H803 0.961 . S
C790 H804 0.961 . S
C791 C788 1.539 . S
C791 H805 0.958 . S
C791 H806 0.961 . S
C791 H807 0.960 . S
H792 C776 0.931 . S
H793 C781 0.929 . S
H794 C782 0.960 . S
H795 C782 0.962 . S
H796 C782 0.960 1_655 S
H797 C783 0.961 . S
H798 C783 0.961 . S
H799 C783 0.961 . S
H800 C784 0.931 . S
H801 C789 0.930 . S
H802 C790 0.956 . S
H803 C790 0.961 . S
H804 C790 0.961 . S
H805 C791 0.958 . S
H806 C791 0.961 . S
H807 C791 0.960 . S
C808 C809 1.391 . S
C808 C810 1.394 . S
C808 H824 0.931 . S
C809 C808 1.391 . S
C809 C813 1.376 . S
C810 C808 1.394 . S
C810 C811 1.369 . S
C810 C814 1.531 . S
C811 C810 1.369 . S
C811 C812 1.410 . S
C811 C819 1.503 . S
C812 C811 1.410 . S
C812 C813 1.392 . S
C812 C815 1.511 . S
C813 C809 1.376 . S
C813 C812 1.392 . S
C813 H825 0.929 . S
C814 C810 1.531 . S
C814 H826 0.960 . S
C814 H827 0.962 . S
C814 H828 0.960 . S
C815 C812 1.511 . S
C815 H829 0.961 . S
C815 H830 0.961 . S
C815 H831 0.961 . S
C816 C817 1.370 . S
C816 C818 1.363 . S
C816 H832 0.931 . S
C817 C816 1.370 . S
C817 C821 1.408 . S
C818 C816 1.363 . S
C818 C819 1.370 . S
C818 C822 1.524 . S
C819 C811 1.503 . S
C819 C818 1.370 . S
C819 C820 1.403 . S
C820 C819 1.403 . S
C820 C821 1.404 . S
C820 C823 1.539 . S
C821 C817 1.408 . S
C821 C820 1.404 . S
C821 H833 0.930 . S
C822 C818 1.524 . S
C822 H834 0.956 . S
C822 H835 0.961 . S
C822 H836 0.961 . S
C823 C820 1.539 . S
C823 H837 0.958 . S
C823 H838 0.961 . S
C823 H839 0.960 . S
H824 C808 0.931 . S
H825 C813 0.929 . S
H826 C814 0.960 . S
H827 C814 0.962 . S
H828 C814 0.960 . S
H829 C815 0.961 . S
H830 C815 0.961 . S
H831 C815 0.961 . S
H832 C816 0.931 . S
H833 C821 0.930 . S
H834 C822 0.956 . S
H835 C822 0.961 . S
H836 C822 0.961 . S
H837 C823 0.958 . S
H838 C823 0.961 . S
H839 C823 0.960 . S
C840 C841 1.391 . S
C840 C842 1.394 1_455 S
C840 H856 0.931 . S
C841 C840 1.391 . S
C841 C845 1.376 1_455 S
C842 C840 1.394 1_655 S
C842 C843 1.369 . S
C842 C846 1.531 . S
C843 C842 1.369 . S
C843 C844 1.410 . S
C843 C851 1.503 1_565 S
C844 C843 1.410 . S
C844 C845 1.392 . S
C844 C847 1.511 1_565 S
C845 C841 1.376 1_655 S
C845 C844 1.392 . S
C845 H857 0.929 . S
C846 C842 1.531 . S
C846 H858 0.960 . S
C846 H859 0.962 . S
C846 H860 0.960 . S
C847 C844 1.511 1_545 S
C847 H861 0.961 . S
C847 H862 0.961 . S
C847 H863 0.961 1_545 S
C848 C849 1.370 . S
C848 C850 1.363 . S
C848 H864 0.931 . S
C849 C848 1.370 . S
C849 C853 1.408 . S
C850 C848 1.363 . S
C850 C851 1.370 . S
C850 C854 1.524 . S
C851 C843 1.503 1_545 S
C851 C850 1.370 . S
C851 C852 1.403 1_545 S
C852 C851 1.403 1_565 S
C852 C853 1.404 1_565 S
C852 C855 1.539 . S
C853 C849 1.408 . S
C853 C852 1.404 1_545 S
C853 H865 0.930 1_545 S
C854 C850 1.524 . S
C854 H866 0.956 . S
C854 H867 0.961 . S
C854 H868 0.961 . S
C855 C852 1.539 . S
C855 H869 0.958 . S
C855 H870 0.961 . S
C855 H871 0.960 . S
H856 C840 0.931 . S
H857 C845 0.929 . S
H858 C846 0.960 . S
H859 C846 0.962 . S
H860 C846 0.960 . S
H861 C847 0.961 . S
H862 C847 0.961 . S
H863 C847 0.961 1_565 S
H864 C848 0.931 . S
H865 C853 0.930 1_565 S
H866 C854 0.956 . S
H867 C854 0.961 . S
H868 C854 0.961 . S
H869 C855 0.958 . S
H870 C855 0.961 . S
H871 C855 0.960 . S
C872 C873 1.391 . S
C872 C874 1.394 . S
C872 H888 0.931 . S
C873 C872 1.391 . S
C873 C877 1.376 . S
C874 C872 1.394 . S
C874 C875 1.369 . S
C874 C878 1.531 . S
C875 C874 1.369 . S
C875 C876 1.410 . S
C875 C883 1.503 . S
C876 C875 1.410 . S
C876 C877 1.392 . S
C876 C879 1.511 . S
C877 C873 1.376 . S
C877 C876 1.392 . S
C877 H889 0.929 . S
C878 C874 1.531 . S
C878 H890 0.960 . S
C878 H891 0.962 . S
C878 H892 0.960 . S
C879 C876 1.511 . S
C879 H893 0.961 . S
C879 H894 0.961 . S
C879 H895 0.961 . S
C880 C881 1.370 . S
C880 C882 1.363 . S
C880 H896 0.931 . S
C881 C880 1.370 . S
C881 C885 1.408 . S
C882 C880 1.363 . S
C882 C883 1.370 . S
C882 C886 1.524 . S
C883 C875 1.503 . S
C883 C882 1.370 . S
C883 C884 1.403 . S
C884 C883 1.403 . S
C884 C885 1.404 . S
C884 C887 1.539 . S
C885 C881 1.408 . S
C885 C884 1.404 . S
C885 H897 0.930 . S
C886 C882 1.524 . S
C886 H898 0.956 . S
C886 H899 0.961 . S
C886 H900 0.961 . S
C887 C884 1.539 . S
C887 H901 0.958 . S
C887 H902 0.961 . S
C887 H903 0.960 . S
H888 C872 0.931 . S
H889 C877 0.929 . S
H890 C878 0.960 . S
H891 C878 0.962 . S
H892 C878 0.960 . S
H893 C879 0.961 . S
H894 C879 0.961 . S
H895 C879 0.961 . S
H896 C880 0.931 . S
H897 C885 0.930 . S
H898 C886 0.956 . S
H899 C886 0.961 . S
H900 C886 0.961 . S
H901 C887 0.958 . S
H902 C887 0.961 . S
H903 C887 0.960 . S
C904 C905 1.391 . S
C904 C906 1.394 . S
C904 H920 0.931 . S
C905 C904 1.391 . S
C905 C909 1.376 . S
C906 C904 1.394 . S
C906 C907 1.369 . S
C906 C910 1.531 . S
C907 C906 1.369 . S
C907 C908 1.410 . S
C907 C915 1.503 . S
C908 C907 1.410 . S
C908 C909 1.392 . S
C908 C911 1.511 . S
C909 C905 1.376 . S
C909 C908 1.392 . S
C909 H921 0.929 . S
C910 C906 1.531 . S
C910 H922 0.960 . S
C910 H923 0.962 . S
C910 H924 0.960 . S
C911 C908 1.511 . S
C911 H925 0.961 . S
C911 H926 0.961 . S
C911 H927 0.961 . S
C912 C913 1.370 . S
C912 C914 1.363 . S
C912 H928 0.931 . S
C913 C912 1.370 . S
C913 C917 1.408 . S
C914 C912 1.363 . S
C914 C915 1.370 . S
C914 C918 1.524 . S
C915 C907 1.503 . S
C915 C914 1.370 . S
C915 C916 1.403 . S
C916 C915 1.403 . S
C916 C917 1.404 . S
C916 C919 1.539 . S
C917 C913 1.408 . S
C917 C916 1.404 . S
C917 H929 0.930 . S
C918 C914 1.524 . S
C918 H930 0.956 . S
C918 H931 0.961 . S
C918 H932 0.961 . S
C919 C916 1.539 . S
C919 H933 0.958 . S
C919 H934 0.961 . S
C919 H935 0.960 . S
H920 C904 0.931 . S
H921 C909 0.929 . S
H922 C910 0.960 . S
H923 C910 0.962 . S
H924 C910 0.960 . S
H925 C911 0.961 . S
H926 C911 0.961 . S
H927 C911 0.961 . S
H928 C912 0.931 . S
H929 C917 0.930 . S
H930 C918 0.956 . S
H931 C918 0.961 . S
H932 C918 0.961 . S
H933 C919 0.958 . S
H934 C919 0.961 . S
H935 C919 0.960 . S
C936 C937 1.391 . S
C936 C938 1.394 . S
C936 H952 0.931 . S
C937 C936 1.391 . S
C937 C941 1.376 . S
C938 C936 1.394 . S
C938 C939 1.369 . S
C938 C942 1.531 . S
C939 C938 1.369 . S
C939 C940 1.410 . S
C939 C947 1.503 . S
C940 C939 1.410 . S
C940 C941 1.392 . S
C940 C943 1.511 . S
C941 C937 1.376 . S
C941 C940 1.392 . S
C941 H953 0.929 . S
C942 C938 1.531 . S
C942 H954 0.960 . S
C942 H955 0.962 . S
C942 H956 0.960 . S
C943 C940 1.511 . S
C943 H957 0.961 . S
C943 H958 0.961 . S
C943 H959 0.961 . S
C944 C945 1.370 . S
C944 C946 1.363 . S
C944 H960 0.931 . S
C945 C944 1.370 . S
C945 C949 1.408 . S
C946 C944 1.363 . S
C946 C947 1.370 . S
C946 C950 1.524 . S
C947 C939 1.503 . S
C947 C946 1.370 . S
C947 C948 1.403 . S
C948 C947 1.403 . S
C948 C949 1.404 . S
C948 C951 1.539 . S
C949 C945 1.408 . S
C949 C948 1.404 . S
C949 H961 0.930 . S
C950 C946 1.524 . S
C950 H962 0.956 . S
C950 H963 0.961 . S
C950 H964 0.961 . S
C951 C948 1.539 . S
C951 H965 0.958 . S
C951 H966 0.961 . S
C951 H967 0.960 . S
H952 C936 0.931 . S
H953 C941 0.929 . S
H954 C942 0.960 . S
H955 C942 0.962 . S
H956 C942 0.960 . S
H957 C943 0.961 . S
H958 C943 0.961 . S
H959 C943 0.961 . S
H960 C944 0.931 . S
H961 C949 0.930 . S
H962 C950 0.956 . S
H963 C950 0.961 . S
H964 C950 0.961 . S
H965 C951 0.958 . S
H966 C951 0.961 . S
H967 C951 0.960 . S
C968 C969 1.391 . S
C968 C970 1.394 . S
C968 H984 0.931 . S
C969 C968 1.391 . S
C969 C973 1.376 . S
C970 C968 1.394 . S
C970 C971 1.369 . S
C970 C974 1.531 . S
C971 C970 1.369 . S
C971 C972 1.410 . S
C971 C979 1.503 . S
C972 C971 1.410 . S
C972 C973 1.392 . S
C972 C975 1.511 . S
C973 C969 1.376 . S
C973 C972 1.392 . S
C973 H985 0.929 . S
C974 C970 1.531 . S
C974 H986 0.960 . S
C974 H987 0.962 . S
C974 H988 0.960 . S
C975 C972 1.511 . S
C975 H989 0.961 . S
C975 H990 0.961 . S
C975 H991 0.962 . S
C976 C977 1.370 . S
C976 C978 1.363 . S
C976 H992 0.931 . S
C977 C976 1.370 . S
C977 C981 1.408 . S
C978 C976 1.363 . S
C978 C979 1.370 . S
C978 C982 1.524 . S
C979 C971 1.503 . S
C979 C978 1.370 . S
C979 C980 1.403 . S
C980 C979 1.403 . S
C980 C981 1.404 . S
C980 C983 1.539 . S
C981 C977 1.408 . S
C981 C980 1.404 . S
C981 H993 0.930 . S
C982 C978 1.524 . S
C982 H994 0.956 . S
C982 H995 0.961 . S
C982 H996 0.961 . S
C983 C980 1.539 . S
C983 H997 0.958 . S
C983 H998 0.961 1_565 S
C983 H999 0.960 . S
H984 C968 0.931 . S
H985 C973 0.929 . S
H986 C974 0.960 . S
H987 C974 0.962 . S
H988 C974 0.960 . S
H989 C975 0.961 . S
H990 C975 0.961 . S
H991 C975 0.962 . S
H992 C976 0.931 . S
H993 C981 0.930 . S
H994 C982 0.956 . S
H995 C982 0.961 . S
H996 C982 0.961 . S
H997 C983 0.958 . S
H998 C983 0.961 1_545 S
H999 C983 0.960 . S
C1000 C1001 1.391 . S
C1000 C1002 1.394 . S
C1000 H1016 0.931 . S
C1001 C1000 1.391 . S
C1001 C1005 1.376 . S
C1002 C1000 1.394 . S
C1002 C1003 1.369 . S
C1002 C1006 1.531 . S
C1003 C1002 1.369 . S
C1003 C1004 1.410 . S
C1003 C1011 1.503 . S
C1004 C1003 1.410 . S
C1004 C1005 1.392 . S
C1004 C1007 1.511 . S
C1005 C1001 1.376 . S
C1005 C1004 1.392 . S
C1005 H1017 0.929 . S
C1006 C1002 1.531 . S
C1006 H1018 0.960 . S
C1006 H1019 0.962 . S
C1006 H1020 0.960 . S
C1007 C1004 1.511 . S
C1007 H1021 0.961 . S
C1007 H1022 0.961 . S
C1007 H1023 0.961 . S
C1008 C1009 1.370 . S
C1008 C1010 1.363 . S
C1008 H1024 0.931 . S
C1009 C1008 1.370 . S
C1009 C1013 1.408 . S
C1010 C1008 1.363 . S
C1010 C1011 1.370 . S
C1010 C1014 1.524 . S
C1011 C1003 1.503 . S
C1011 C1010 1.370 . S
C1011 C1012 1.403 . S
C1012 C1011 1.403 . S
C1012 C1013 1.404 . S
C1012 C1015 1.539 . S
C1013 C1009 1.408 . S
C1013 C1012 1.404 . S
C1013 H1025 0.930 . S
C1014 C1010 1.524 . S
C1014 H1026 0.956 . S
C1014 H1027 0.961 . S
C1014 H1028 0.961 . S
C1015 C1012 1.539 . S
C1015 H1029 0.958 . S
C1015 H1030 0.961 . S
C1015 H1031 0.960 . S
H1016 C1000 0.931 . S
H1017 C1005 0.929 . S
H1018 C1006 0.960 . S
H1019 C1006 0.962 . S
H1020 C1006 0.960 . S
H1021 C1007 0.961 . S
H1022 C1007 0.961 . S
H1023 C1007 0.961 . S
H1024 C1008 0.931 . S
H1025 C1013 0.930 . S
H1026 C1014 0.956 . S
H1027 C1014 0.961 . S
H1028 C1014 0.961 . S
H1029 C1015 0.958 . S
H1030 C1015 0.961 . S
H1031 C1015 0.960 . S
C1032 C1033 1.391 . S
C1032 C1034 1.394 . S
C1032 H1048 0.931 . S
C1033 C1032 1.391 . S
C1033 C1037 1.376 . S
C1034 C1032 1.394 . S
C1034 C1035 1.369 . S
C1034 C1038 1.531 . S
C1035 C1034 1.369 . S
C1035 C1036 1.410 . S
C1035 C1043 1.503 . S
C1036 C1035 1.410 . S
C1036 C1037 1.392 . S
C1036 C1039 1.511 . S
C1037 C1033 1.376 . S
C1037 C1036 1.392 . S
C1037 H1049 0.929 . S
C1038 C1034 1.531 . S
C1038 H1050 0.960 . S
C1038 H1051 0.962 . S
C1038 H1052 0.960 . S
C1039 C1036 1.511 . S
C1039 H1053 0.961 . S
C1039 H1054 0.961 . S
C1039 H1055 0.961 . S
C1040 C1041 1.370 . S
C1040 C1042 1.363 . S
C1040 H1056 0.931 . S
C1041 C1040 1.370 . S
C1041 C1045 1.408 . S
C1042 C1040 1.363 . S
C1042 C1043 1.370 . S
C1042 C1046 1.524 . S
C1043 C1035 1.503 . S
C1043 C1042 1.370 . S
C1043 C1044 1.403 . S
C1044 C1043 1.403 . S
C1044 C1045 1.404 . S
C1044 C1047 1.539 . S
C1045 C1041 1.408 . S
C1045 C1044 1.404 . S
C1045 H1057 0.930 . S
C1046 C1042 1.524 . S
C1046 H1058 0.956 . S
C1046 H1059 0.961 . S
C1046 H1060 0.961 . S
C1047 C1044 1.539 . S
C1047 H1061 0.958 . S
C1047 H1062 0.961 . S
C1047 H1063 0.960 . S
H1048 C1032 0.931 . S
H1049 C1037 0.929 . S
H1050 C1038 0.960 . S
H1051 C1038 0.962 . S
H1052 C1038 0.960 . S
H1053 C1039 0.961 . S
H1054 C1039 0.961 . S
H1055 C1039 0.961 . S
H1056 C1040 0.931 . S
H1057 C1045 0.930 . S
H1058 C1046 0.956 . S
H1059 C1046 0.961 . S
H1060 C1046 0.961 . S
H1061 C1047 0.958 . S
H1062 C1047 0.961 . S
H1063 C1047 0.960 . S
C1064 C1065 1.391 . S
C1064 C1066 1.394 . S
C1064 H1080 0.931 . S
C1065 C1064 1.391 . S
C1065 C1069 1.376 . S
C1066 C1064 1.394 . S
C1066 C1067 1.369 . S
C1066 C1070 1.531 . S
C1067 C1066 1.369 . S
C1067 C1068 1.410 . S
C1067 C1075 1.503 . S
C1068 C1067 1.410 . S
C1068 C1069 1.392 . S
C1068 C1071 1.511 . S
C1069 C1065 1.376 . S
C1069 C1068 1.392 . S
C1069 H1081 0.929 . S
C1070 C1066 1.531 . S
C1070 H1082 0.960 . S
C1070 H1083 0.962 . S
C1070 H1084 0.960 . S
C1071 C1068 1.511 . S
C1071 H1085 0.961 . S
C1071 H1086 0.961 . S
C1071 H1087 0.961 . S
C1072 C1073 1.370 . S
C1072 C1074 1.363 . S
C1072 H1088 0.931 . S
C1073 C1072 1.370 . S
C1073 C1077 1.408 . S
C1074 C1072 1.363 . S
C1074 C1075 1.370 . S
C1074 C1078 1.524 . S
C1075 C1067 1.503 . S
C1075 C1074 1.370 . S
C1075 C1076 1.403 . S
C1076 C1075 1.403 . S
C1076 C1077 1.404 . S
C1076 C1079 1.539 . S
C1077 C1073 1.408 . S
C1077 C1076 1.404 . S
C1077 H1089 0.930 . S
C1078 C1074 1.524 . S
C1078 H1090 0.956 . S
C1078 H1091 0.961 . S
C1078 H1092 0.961 . S
C1079 C1076 1.539 . S
C1079 H1093 0.958 . S
C1079 H1094 0.961 . S
C1079 H1095 0.960 . S
H1080 C1064 0.931 . S
H1081 C1069 0.929 . S
H1082 C1070 0.960 . S
H1083 C1070 0.962 . S
H1084 C1070 0.960 . S
H1085 C1071 0.961 . S
H1086 C1071 0.961 . S
H1087 C1071 0.961 . S
H1088 C1072 0.931 . S
H1089 C1077 0.930 . S
H1090 C1078 0.956 . S
H1091 C1078 0.961 . S
H1092 C1078 0.961 . S
H1093 C1079 0.958 . S
H1094 C1079 0.961 . S
H1095 C1079 0.960 . S
C1096 C1097 1.391 . S
C1096 C1098 1.394 . S
C1096 H1112 0.931 . S
C1097 C1096 1.391 . S
C1097 C1101 1.376 . S
C1098 C1096 1.394 . S
C1098 C1099 1.369 . S
C1098 C1102 1.531 . S
C1099 C1098 1.369 . S
C1099 C1100 1.410 . S
C1099 C1107 1.503 . S
C1100 C1099 1.410 . S
C1100 C1101 1.392 . S
C1100 C1103 1.511 . S
C1101 C1097 1.376 . S
C1101 C1100 1.392 . S
C1101 H1113 0.929 . S
C1102 C1098 1.531 . S
C1102 H1114 0.960 . S
C1102 H1115 0.962 . S
C1102 H1116 0.960 . S
C1103 C1100 1.511 . S
C1103 H1117 0.961 . S
C1103 H1118 0.961 . S
C1103 H1119 0.961 . S
C1104 C1105 1.370 . S
C1104 C1106 1.363 . S
C1104 H1120 0.931 . S
C1105 C1104 1.370 . S
C1105 C1109 1.408 . S
C1106 C1104 1.363 . S
C1106 C1107 1.370 . S
C1106 C1110 1.524 . S
C1107 C1099 1.503 . S
C1107 C1106 1.370 . S
C1107 C1108 1.403 . S
C1108 C1107 1.403 . S
C1108 C1109 1.404 . S
C1108 C1111 1.539 . S
C1109 C1105 1.408 . S
C1109 C1108 1.404 . S
C1109 H1121 0.930 . S
C1110 C1106 1.524 . S
C1110 H1122 0.956 . S
C1110 H1123 0.961 . S
C1110 H1124 0.961 . S
C1111 C1108 1.539 . S
C1111 H1125 0.958 . S
C1111 H1126 0.961 . S
C1111 H1127 0.960 . S
H1112 C1096 0.931 . S
H1113 C1101 0.929 . S
H1114 C1102 0.960 . S
H1115 C1102 0.962 . S
H1116 C1102 0.960 . S
H1117 C1103 0.961 . S
H1118 C1103 0.961 . S
H1119 C1103 0.961 . S
H1120 C1104 0.931 . S
H1121 C1109 0.930 . S
H1122 C1110 0.956 . S
H1123 C1110 0.961 . S
H1124 C1110 0.961 . S
H1125 C1111 0.958 . S
H1126 C1111 0.961 . S
H1127 C1111 0.960 . S
C1128 C1129 1.391 . S
C1128 C1130 1.394 . S
C1128 H1144 0.931 . S
C1129 C1128 1.391 . S
C1129 C1133 1.376 . S
C1130 C1128 1.394 . S
C1130 C1131 1.369 . S
C1130 C1134 1.531 . S
C1131 C1130 1.369 . S
C1131 C1132 1.410 . S
C1131 C1139 1.503 . S
C1132 C1131 1.410 . S
C1132 C1133 1.392 . S
C1132 C1135 1.511 . S
C1133 C1129 1.376 . S
C1133 C1132 1.392 . S
C1133 H1145 0.929 . S
C1134 C1130 1.531 . S
C1134 H1146 0.960 . S
C1134 H1147 0.962 . S
C1134 H1148 0.960 . S
C1135 C1132 1.511 . S
C1135 H1149 0.961 . S
C1135 H1150 0.961 . S
C1135 H1151 0.961 . S
C1136 C1137 1.370 . S
C1136 C1138 1.363 . S
C1136 H1152 0.931 . S
C1137 C1136 1.370 . S
C1137 C1141 1.408 . S
C1138 C1136 1.363 . S
C1138 C1139 1.370 . S
C1138 C1142 1.524 . S
C1139 C1131 1.503 . S
C1139 C1138 1.370 . S
C1139 C1140 1.403 . S
C1140 C1139 1.403 . S
C1140 C1141 1.404 . S
C1140 C1143 1.539 . S
C1141 C1137 1.408 . S
C1141 C1140 1.404 . S
C1141 H1153 0.930 . S
C1142 C1138 1.524 . S
C1142 H1154 0.956 . S
C1142 H1155 0.961 . S
C1142 H1156 0.961 . S
C1143 C1140 1.539 . S
C1143 H1157 0.958 . S
C1143 H1158 0.961 . S
C1143 H1159 0.960 . S
H1144 C1128 0.931 . S
H1145 C1133 0.929 . S
H1146 C1134 0.960 . S
H1147 C1134 0.962 . S
H1148 C1134 0.960 . S
H1149 C1135 0.961 . S
H1150 C1135 0.961 . S
H1151 C1135 0.961 . S
H1152 C1136 0.931 . S
H1153 C1141 0.930 . S
H1154 C1142 0.956 . S
H1155 C1142 0.961 . S
H1156 C1142 0.961 . S
H1157 C1143 0.958 . S
H1158 C1143 0.961 . S
H1159 C1143 0.960 . S
C1160 C1161 1.391 . S
C1160 C1162 1.394 . S
C1160 H1176 0.931 . S
C1161 C1160 1.391 . S
C1161 C1165 1.376 . S
C1162 C1160 1.394 . S
C1162 C1163 1.369 . S
C1162 C1166 1.531 . S
C1163 C1162 1.369 . S
C1163 C1164 1.410 . S
C1163 C1171 1.503 . S
C1164 C1163 1.410 . S
C1164 C1165 1.392 . S
C1164 C1167 1.511 . S
C1165 C1161 1.376 . S
C1165 C1164 1.392 . S
C1165 H1177 0.929 . S
C1166 C1162 1.531 . S
C1166 H1178 0.960 . S
C1166 H1179 0.962 . S
C1166 H1180 0.960 . S
C1167 C1164 1.511 . S
C1167 H1181 0.961 . S
C1167 H1182 0.961 . S
C1167 H1183 0.961 . S
C1168 C1169 1.370 . S
C1168 C1170 1.363 . S
C1168 H1184 0.931 . S
C1169 C1168 1.370 . S
C1169 C1173 1.408 . S
C1170 C1168 1.363 . S
C1170 C1171 1.370 . S
C1170 C1174 1.524 . S
C1171 C1163 1.503 . S
C1171 C1170 1.370 . S
C1171 C1172 1.403 . S
C1172 C1171 1.403 . S
C1172 C1173 1.404 . S
C1172 C1175 1.539 . S
C1173 C1169 1.408 . S
C1173 C1172 1.404 . S
C1173 H1185 0.930 . S
C1174 C1170 1.524 . S
C1174 H1186 0.956 . S
C1174 H1187 0.961 . S
C1174 H1188 0.961 . S
C1175 C1172 1.539 . S
C1175 H1189 0.958 . S
C1175 H1190 0.961 1_455 S
C1175 H1191 0.960 . S
H1176 C1160 0.931 . S
H1177 C1165 0.929 . S
H1178 C1166 0.960 . S
H1179 C1166 0.962 . S
H1180 C1166 0.960 . S
H1181 C1167 0.961 . S
H1182 C1167 0.961 . S
H1183 C1167 0.961 . S
H1184 C1168 0.931 . S
H1185 C1173 0.930 . S
H1186 C1174 0.956 . S
H1187 C1174 0.961 . S
H1188 C1174 0.961 . S
H1189 C1175 0.958 . S
H1190 C1175 0.961 1_655 S
H1191 C1175 0.960 . S
C1192 C1193 1.391 . S
C1192 C1194 1.394 . S
C1192 H1208 0.931 . S
C1193 C1192 1.391 . S
C1193 C1197 1.376 . S
C1194 C1192 1.394 . S
C1194 C1195 1.369 . S
C1194 C1198 1.531 . S
C1195 C1194 1.369 . S
C1195 C1196 1.410 . S
C1195 C1203 1.503 . S
C1196 C1195 1.410 . S
C1196 C1197 1.392 . S
C1196 C1199 1.511 . S
C1197 C1193 1.376 . S
C1197 C1196 1.392 . S
C1197 H1209 0.929 . S
C1198 C1194 1.531 . S
C1198 H1210 0.960 . S
C1198 H1211 0.962 . S
C1198 H1212 0.960 . S
C1199 C1196 1.511 . S
C1199 H1213 0.961 . S
C1199 H1214 0.961 . S
C1199 H1215 0.961 . S
C1200 C1201 1.370 . S
C1200 C1202 1.363 . S
C1200 H1216 0.931 . S
C1201 C1200 1.370 . S
C1201 C1205 1.408 . S
C1202 C1200 1.363 . S
C1202 C1203 1.370 . S
C1202 C1206 1.524 . S
C1203 C1195 1.503 . S
C1203 C1202 1.370 . S
C1203 C1204 1.403 . S
C1204 C1203 1.403 . S
C1204 C1205 1.404 . S
C1204 C1207 1.539 . S
C1205 C1201 1.408 . S
C1205 C1204 1.404 . S
C1205 H1217 0.930 . S
C1206 C1202 1.524 . S
C1206 H1218 0.956 . S
C1206 H1219 0.961 . S
C1206 H1220 0.961 . S
C1207 C1204 1.539 . S
C1207 H1221 0.958 . S
C1207 H1222 0.961 . S
C1207 H1223 0.960 . S
H1208 C1192 0.931 . S
H1209 C1197 0.929 . S
H1210 C1198 0.960 . S
H1211 C1198 0.962 . S
H1212 C1198 0.960 . S
H1213 C1199 0.961 . S
H1214 C1199 0.961 . S
H1215 C1199 0.961 . S
H1216 C1200 0.931 . S
H1217 C1205 0.930 . S
H1218 C1206 0.956 . S
H1219 C1206 0.961 . S
H1220 C1206 0.961 . S
H1221 C1207 0.958 . S
H1222 C1207 0.961 . S
H1223 C1207 0.960 . S
C1224 C1225 1.391 . S
C1224 C1226 1.394 . S
C1224 H1240 0.931 . S
C1225 C1224 1.391 . S
C1225 C1229 1.376 . S
C1226 C1224 1.394 . S
C1226 C1227 1.369 . S
C1226 C1230 1.531 . S
C1227 C1226 1.369 . S
C1227 C1228 1.410 . S
C1227 C1235 1.503 . S
C1228 C1227 1.410 . S
C1228 C1229 1.392 . S
C1228 C1231 1.511 . S
C1229 C1225 1.376 . S
C1229 C1228 1.392 . S
C1229 H1241 0.929 . S
C1230 C1226 1.531 . S
C1230 H1242 0.960 . S
C1230 H1243 0.962 . S
C1230 H1244 0.960 . S
C1231 C1228 1.511 . S
C1231 H1245 0.961 . S
C1231 H1246 0.961 . S
C1231 H1247 0.961 . S
C1232 C1233 1.370 . S
C1232 C1234 1.363 . S
C1232 H1248 0.931 . S
C1233 C1232 1.370 . S
C1233 C1237 1.408 . S
C1234 C1232 1.363 . S
C1234 C1235 1.370 . S
C1234 C1238 1.524 . S
C1235 C1227 1.503 . S
C1235 C1234 1.370 . S
C1235 C1236 1.403 . S
C1236 C1235 1.403 . S
C1236 C1237 1.404 . S
C1236 C1239 1.539 . S
C1237 C1233 1.408 . S
C1237 C1236 1.404 . S
C1237 H1249 0.930 . S
C1238 C1234 1.524 . S
C1238 H1250 0.956 . S
C1238 H1251 0.961 . S
C1238 H1252 0.961 . S
C1239 C1236 1.539 . S
C1239 H1253 0.958 . S
C1239 H1254 0.961 . S
C1239 H1255 0.960 . S
H1240 C1224 0.931 . S
H1241 C1229 0.929 . S
H1242 C1230 0.960 . S
H1243 C1230 0.962 . S
H1244 C1230 0.960 . S
H1245 C1231 0.961 . S
H1246 C1231 0.961 . S
H1247 C1231 0.961 . S
H1248 C1232 0.931 . S
H1249 C1237 0.930 . S
H1250 C1238 0.956 . S
H1251 C1238 0.961 . S
H1252 C1238 0.961 . S
H1253 C1239 0.958 . S
H1254 C1239 0.961 . S
H1255 C1239 0.960 . S
C1256 C1257 1.391 . S
C1256 C1258 1.394 . S
C1256 H1272 0.931 . S
C1257 C1256 1.391 . S
C1257 C1261 1.376 . S
C1258 C1256 1.394 . S
C1258 C1259 1.369 . S
C1258 C1262 1.531 . S
C1259 C1258 1.369 . S
C1259 C1260 1.410 . S
C1259 C1267 1.503 . S
C1260 C1259 1.410 . S
C1260 C1261 1.392 . S
C1260 C1263 1.511 . S
C1261 C1257 1.376 . S
C1261 C1260 1.392 . S
C1261 H1273 0.929 . S
C1262 C1258 1.531 . S
C1262 H1274 0.960 . S
C1262 H1275 0.962 . S
C1262 H1276 0.960 . S
C1263 C1260 1.511 . S
C1263 H1277 0.961 . S
C1263 H1278 0.961 . S
C1263 H1279 0.961 . S
C1264 C1265 1.370 1_565 S
C1264 C1266 1.363 . S
C1264 H1280 0.931 1_565 S
C1265 C1264 1.370 1_545 S
C1265 C1269 1.408 1_545 S
C1266 C1264 1.363 . S
C1266 C1267 1.370 . S
C1266 C1270 1.524 . S
C1267 C1259 1.503 . S
C1267 C1266 1.370 . S
C1267 C1268 1.403 . S
C1268 C1267 1.403 . S
C1268 C1269 1.404 . S
C1268 C1271 1.539 . S
C1269 C1265 1.408 1_565 S
C1269 C1268 1.404 . S
C1269 H1281 0.930 1_565 S
C1270 C1266 1.524 . S
C1270 H1282 0.956 . S
C1270 H1283 0.961 . S
C1270 H1284 0.961 . S
C1271 C1268 1.539 . S
C1271 H1285 0.958 . S
C1271 H1286 0.961 . S
C1271 H1287 0.960 . S
H1272 C1256 0.931 . S
H1273 C1261 0.929 . S
H1274 C1262 0.960 . S
H1275 C1262 0.962 . S
H1276 C1262 0.960 . S
H1277 C1263 0.961 . S
H1278 C1263 0.961 . S
H1279 C1263 0.961 . S
H1280 C1264 0.931 1_545 S
H1281 C1269 0.930 1_545 S
H1282 C1270 0.956 . S
H1283 C1270 0.961 . S
H1284 C1270 0.961 . S
H1285 C1271 0.958 . S
H1286 C1271 0.961 . S
H1287 C1271 0.960 . S
C1288 C1289 1.391 . S
C1288 C1290 1.394 . S
C1288 H1304 0.931 . S
C1289 C1288 1.391 . S
C1289 C1293 1.376 . S
C1290 C1288 1.394 . S
C1290 C1291 1.369 . S
C1290 C1294 1.531 . S
C1291 C1290 1.369 . S
C1291 C1292 1.410 . S
C1291 C1299 1.503 . S
C1292 C1291 1.410 . S
C1292 C1293 1.392 . S
C1292 C1295 1.511 . S
C1293 C1289 1.376 . S
C1293 C1292 1.392 . S
C1293 H1305 0.929 . S
C1294 C1290 1.531 . S
C1294 H1306 0.960 . S
C1294 H1307 0.962 . S
C1294 H1308 0.960 . S
C1295 C1292 1.511 . S
C1295 H1309 0.961 . S
C1295 H1310 0.961 . S
C1295 H1311 0.961 . S
C1296 C1297 1.370 . S
C1296 C1298 1.363 . S
C1296 H1312 0.931 . S
C1297 C1296 1.370 . S
C1297 C1301 1.408 . S
C1298 C1296 1.363 . S
C1298 C1299 1.370 . S
C1298 C1302 1.524 . S
C1299 C1291 1.503 . S
C1299 C1298 1.370 . S
C1299 C1300 1.403 . S
C1300 C1299 1.403 . S
C1300 C1301 1.404 . S
C1300 C1303 1.539 . S
C1301 C1297 1.408 . S
C1301 C1300 1.404 . S
C1301 H1313 0.930 . S
C1302 C1298 1.524 . S
C1302 H1314 0.956 . S
C1302 H1315 0.961 . S
C1302 H1316 0.961 . S
C1303 C1300 1.539 . S
C1303 H1317 0.958 . S
C1303 H1318 0.961 . S
C1303 H1319 0.960 . S
H1304 C1288 0.931 . S
H1305 C1293 0.929 . S
H1306 C1294 0.960 . S
H1307 C1294 0.962 . S
H1308 C1294 0.960 . S
H1309 C1295 0.961 . S
H1310 C1295 0.961 . S
H1311 C1295 0.961 . S
H1312 C1296 0.931 . S
H1313 C1301 0.930 . S
H1314 C1302 0.956 . S
H1315 C1302 0.961 . S
H1316 C1302 0.961 . S
H1317 C1303 0.958 . S
H1318 C1303 0.961 . S
H1319 C1303 0.960 . S
C1320 C1321 1.391 . S
C1320 C1322 1.394 . S
C1320 H1336 0.931 . S
C1321 C1320 1.391 . S
C1321 C1325 1.376 . S
C1322 C1320 1.394 . S
C1322 C1323 1.369 1_545 S
C1322 C1326 1.531 1_545 S
C1323 C1322 1.369 1_565 S
C1323 C1324 1.410 1_565 S
C1323 C1331 1.503 . S
C1324 C1323 1.410 1_545 S
C1324 C1325 1.392 . S
C1324 C1327 1.511 1_546 S
C1325 C1321 1.376 . S
C1325 C1324 1.392 . S
C1325 H1337 0.929 . S
C1326 C1322 1.531 1_565 S
C1326 H1338 0.960 . S
C1326 H1339 0.962 1_565 S
C1326 H1340 0.957 1_565 S
C1327 C1324 1.511 1_564 S
C1327 H1341 0.961 1_565 S
C1327 H1342 0.961 . S
C1327 H1343 0.961 . S
C1328 C1329 1.370 . S
C1328 C1330 1.363 . S
C1328 H1344 0.931 . S
C1329 C1328 1.370 . S
C1329 C1333 1.408 1_554 S
C1330 C1328 1.363 . S
C1330 C1331 1.370 1_554 S
C1330 C1334 1.524 1_565 S
C1331 C1323 1.503 . S
C1331 C1330 1.370 1_556 S
C1331 C1332 1.403 . S
C1332 C1331 1.403 . S
C1332 C1333 1.404 . S
C1332 C1335 1.539 . S
C1333 C1329 1.408 1_556 S
C1333 C1332 1.404 . S
C1333 H1345 0.930 . S
C1334 C1330 1.524 1_545 S
C1334 H1346 0.956 . S
C1334 H1347 0.961 . S
C1334 H1348 0.961 . S
C1335 C1332 1.539 . S
C1335 H1349 0.958 . S
C1335 H1350 0.961 . S
C1335 H1351 0.960 . S
H1336 C1320 0.931 . S
H1337 C1325 0.929 . S
H1338 C1326 0.960 . S
H1339 C1326 0.962 1_545 S
H1340 C1326 0.957 1_545 S
H1341 C1327 0.961 1_545 S
H1342 C1327 0.961 . S
H1343 C1327 0.961 . S
H1344 C1328 0.931 . S
H1345 C1333 0.930 . S
H1346 C1334 0.956 . S
H1347 C1334 0.961 . S
H1348 C1334 0.961 . S
H1349 C1335 0.958 . S
H1350 C1335 0.961 . S
H1351 C1335 0.960 . S
C1352 C1353 1.391 . S
C1352 C1354 1.394 . S
C1352 H1368 0.931 . S
C1353 C1352 1.391 . S
C1353 C1357 1.376 . S
C1354 C1352 1.394 . S
C1354 C1355 1.369 . S
C1354 C1358 1.531 . S
C1355 C1354 1.369 . S
C1355 C1356 1.410 . S
C1355 C1363 1.503 . S
C1356 C1355 1.410 . S
C1356 C1357 1.392 . S
C1356 C1359 1.511 . S
C1357 C1353 1.376 . S
C1357 C1356 1.392 . S
C1357 H1369 0.929 . S
C1358 C1354 1.531 . S
C1358 H1370 0.960 . S
C1358 H1371 0.962 . S
C1358 H1372 0.960 . S
C1359 C1356 1.511 . S
C1359 H1373 0.961 . S
C1359 H1374 0.961 . S
C1359 H1375 0.961 . S
C1360 C1361 1.370 . S
C1360 C1362 1.363 . S
C1360 H1376 0.931 . S
C1361 C1360 1.370 . S
C1361 C1365 1.408 . S
C1362 C1360 1.363 . S
C1362 C1363 1.370 . S
C1362 C1366 1.524 . S
C1363 C1355 1.503 . S
C1363 C1362 1.370 . S
C1363 C1364 1.403 . S
C1364 C1363 1.403 . S
C1364 C1365 1.404 . S
C1364 C1367 1.539 . S
C1365 C1361 1.408 . S
C1365 C1364 1.404 . S
C1365 H1377 0.930 . S
C1366 C1362 1.524 . S
C1366 H1378 0.956 . S
C1366 H1379 0.961 . S
C1366 H1380 0.961 . S
C1367 C1364 1.539 . S
C1367 H1381 0.958 . S
C1367 H1382 0.961 . S
C1367 H1383 0.960 . S
H1368 C1352 0.931 . S
H1369 C1357 0.929 . S
H1370 C1358 0.960 . S
H1371 C1358 0.962 . S
H1372 C1358 0.960 . S
H1373 C1359 0.961 . S
H1374 C1359 0.961 . S
H1375 C1359 0.961 . S
H1376 C1360 0.931 . S
H1377 C1365 0.930 . S
H1378 C1366 0.956 . S
H1379 C1366 0.961 . S
H1380 C1366 0.961 . S
H1381 C1367 0.958 . S
H1382 C1367 0.961 . S
H1383 C1367 0.960 . S
C1384 C1385 1.391 . S
C1384 C1386 1.394 . S
C1384 H1400 0.931 . S
C1385 C1384 1.391 . S
C1385 C1389 1.376 . S
C1386 C1384 1.394 . S
C1386 C1387 1.369 . S
C1386 C1390 1.531 . S
C1387 C1386 1.369 . S
C1387 C1388 1.410 . S
C1387 C1395 1.503 . S
C1388 C1387 1.410 . S
C1388 C1389 1.392 . S
C1388 C1391 1.511 . S
C1389 C1385 1.376 . S
C1389 C1388 1.392 . S
C1389 H1401 0.929 . S
C1390 C1386 1.531 . S
C1390 H1402 0.960 . S
C1390 H1403 0.962 . S
C1390 H1404 0.960 . S
C1391 C1388 1.511 . S
C1391 H1405 0.961 . S
C1391 H1406 0.961 . S
C1391 H1407 0.961 . S
C1392 C1393 1.370 . S
C1392 C1394 1.363 . S
C1392 H1408 0.931 . S
C1393 C1392 1.370 . S
C1393 C1397 1.408 . S
C1394 C1392 1.363 . S
C1394 C1395 1.370 . S
C1394 C1398 1.524 . S
C1395 C1387 1.503 . S
C1395 C1394 1.370 . S
C1395 C1396 1.403 . S
C1396 C1395 1.403 . S
C1396 C1397 1.404 . S
C1396 C1399 1.539 . S
C1397 C1393 1.408 . S
C1397 C1396 1.404 . S
C1397 H1409 0.930 . S
C1398 C1394 1.524 . S
C1398 H1410 0.956 . S
C1398 H1411 0.961 . S
C1398 H1412 0.961 . S
C1399 C1396 1.539 . S
C1399 H1413 0.958 . S
C1399 H1414 0.961 . S
C1399 H1415 0.960 . S
H1400 C1384 0.931 . S
H1401 C1389 0.929 . S
H1402 C1390 0.960 . S
H1403 C1390 0.962 . S
H1404 C1390 0.960 . S
H1405 C1391 0.961 . S
H1406 C1391 0.961 . S
H1407 C1391 0.961 . S
H1408 C1392 0.931 . S
H1409 C1397 0.930 . S
H1410 C1398 0.956 . S
H1411 C1398 0.961 . S
H1412 C1398 0.961 . S
H1413 C1399 0.958 . S
H1414 C1399 0.961 . S
H1415 C1399 0.960 . S
C1416 C1417 1.391 . S
C1416 C1418 1.394 . S
C1416 H1432 0.931 . S
C1417 C1416 1.391 . S
C1417 C1421 1.376 . S
C1418 C1416 1.394 . S
C1418 C1419 1.369 . S
C1418 C1422 1.531 . S
C1419 C1418 1.369 . S
C1419 C1420 1.410 . S
C1419 C1427 1.503 . S
C1420 C1419 1.410 . S
C1420 C1421 1.392 . S
C1420 C1423 1.511 . S
C1421 C1417 1.376 . S
C1421 C1420 1.392 . S
C1421 H1433 0.929 . S
C1422 C1418 1.531 . S
C1422 H1434 0.960 . S
C1422 H1435 0.962 . S
C1422 H1436 0.960 . S
C1423 C1420 1.511 . S
C1423 H1437 0.961 . S
C1423 H1438 0.961 . S
C1423 H1439 0.961 . S
C1424 C1425 1.370 . S
C1424 C1426 1.363 . S
C1424 H1440 0.931 . S
C1425 C1424 1.370 . S
C1425 C1429 1.408 . S
C1426 C1424 1.363 . S
C1426 C1427 1.370 . S
C1426 C1430 1.524 . S
C1427 C1419 1.503 . S
C1427 C1426 1.370 . S
C1427 C1428 1.403 . S
C1428 C1427 1.403 . S
C1428 C1429 1.404 . S
C1428 C1431 1.539 . S
C1429 C1425 1.408 . S
C1429 C1428 1.404 . S
C1429 H1441 0.930 . S
C1430 C1426 1.524 . S
C1430 H1442 0.956 . S
C1430 H1443 0.961 . S
C1430 H1444 0.961 . S
C1431 C1428 1.539 . S
C1431 H1445 0.958 . S
C1431 H1446 0.961 . S
C1431 H1447 0.960 . S
H1432 C1416 0.931 . S
H1433 C1421 0.929 . S
H1434 C1422 0.960 . S
H1435 C1422 0.962 . S
H1436 C1422 0.960 . S
H1437 C1423 0.961 . S
H1438 C1423 0.961 . S
H1439 C1423 0.961 . S
H1440 C1424 0.931 . S
H1441 C1429 0.930 . S
H1442 C1430 0.956 . S
H1443 C1430 0.961 . S
H1444 C1430 0.961 . S
H1445 C1431 0.958 . S
H1446 C1431 0.961 . S
H1447 C1431 0.960 . S
C1448 C1449 1.391 1_545 S
C1448 C1450 1.394 . S
C1448 H1464 0.931 . S
C1449 C1448 1.391 1_565 S
C1449 C1453 1.376 . S
C1450 C1448 1.394 . S
C1450 C1451 1.369 . S
C1450 C1454 1.531 . S
C1451 C1450 1.369 . S
C1451 C1452 1.410 . S
C1451 C1459 1.503 . S
C1452 C1451 1.410 . S
C1452 C1453 1.392 1_545 S
C1452 C1455 1.511 . S
C1453 C1449 1.376 . S
C1453 C1452 1.392 1_565 S
C1453 H1465 0.929 . S
C1454 C1450 1.531 . S
C1454 H1466 0.960 . S
C1454 H1467 0.962 . S
C1454 H1468 0.960 . S
C1455 C1452 1.511 . S
C1455 H1469 0.961 . S
C1455 H1470 0.961 . S
C1455 H1471 0.961 . S
C1456 C1457 1.370 . S
C1456 C1458 1.363 . S
C1456 H1472 0.931 . S
C1457 C1456 1.370 . S
C1457 C1461 1.408 . S
C1458 C1456 1.363 . S
C1458 C1459 1.370 . S
C1458 C1462 1.524 . S
C1459 C1451 1.503 . S
C1459 C1458 1.370 . S
C1459 C1460 1.403 . S
C1460 C1459 1.403 . S
C1460 C1461 1.404 . S
C1460 C1463 1.539 . S
C1461 C1457 1.408 . S
C1461 C1460 1.404 . S
C1461 H1473 0.930 . S
C1462 C1458 1.524 . S
C1462 H1474 0.956 . S
C1462 H1475 0.961 . S
C1462 H1476 0.961 . S
C1463 C1460 1.539 . S
C1463 H1477 0.958 . S
C1463 H1478 0.961 . S
C1463 H1479 0.960 . S
H1464 C1448 0.931 . S
H1465 C1453 0.929 . S
H1466 C1454 0.960 . S
H1467 C1454 0.962 . S
H1468 C1454 0.960 . S
H1469 C1455 0.961 . S
H1470 C1455 0.961 . S
H1471 C1455 0.961 . S
H1472 C1456 0.931 . S
H1473 C1461 0.930 . S
H1474 C1462 0.956 . S
H1475 C1462 0.961 . S
H1476 C1462 0.961 . S
H1477 C1463 0.958 . S
H1478 C1463 0.961 . S
H1479 C1463 0.960 . S
C1480 C1481 1.391 . S
C1480 C1482 1.394 . S
C1480 H1496 0.931 . S
C1481 C1480 1.391 . S
C1481 C1485 1.376 . S
C1482 C1480 1.394 . S
C1482 C1483 1.369 . S
C1482 C1486 1.531 . S
C1483 C1482 1.369 . S
C1483 C1484 1.410 . S
C1483 C1491 1.503 . S
C1484 C1483 1.410 . S
C1484 C1485 1.392 . S
C1484 C1487 1.511 . S
C1485 C1481 1.376 . S
C1485 C1484 1.392 . S
C1485 H1497 0.929 . S
C1486 C1482 1.531 . S
C1486 H1498 0.960 . S
C1486 H1499 0.962 . S
C1486 H1500 0.960 . S
C1487 C1484 1.511 . S
C1487 H1501 0.961 . S
C1487 H1502 0.961 . S
C1487 H1503 0.961 . S
C1488 C1489 1.370 . S
C1488 C1490 1.363 . S
C1488 H1504 0.931 . S
C1489 C1488 1.370 . S
C1489 C1493 1.408 . S
C1490 C1488 1.363 . S
C1490 C1491 1.370 . S
C1490 C1494 1.524 . S
C1491 C1483 1.503 . S
C1491 C1490 1.370 . S
C1491 C1492 1.403 . S
C1492 C1491 1.403 . S
C1492 C1493 1.404 . S
C1492 C1495 1.539 . S
C1493 C1489 1.408 . S
C1493 C1492 1.404 . S
C1493 H1505 0.930 . S
C1494 C1490 1.524 . S
C1494 H1506 0.956 . S
C1494 H1507 0.961 . S
C1494 H1508 0.961 . S
C1495 C1492 1.539 . S
C1495 H1509 0.958 . S
C1495 H1510 0.961 . S
C1495 H1511 0.960 . S
H1496 C1480 0.931 . S
H1497 C1485 0.929 . S
H1498 C1486 0.960 . S
H1499 C1486 0.962 . S
H1500 C1486 0.960 . S
H1501 C1487 0.961 . S
H1502 C1487 0.961 . S
H1503 C1487 0.961 . S
H1504 C1488 0.931 . S
H1505 C1493 0.930 . S
H1506 C1494 0.956 . S
H1507 C1494 0.961 . S
H1508 C1494 0.961 . S
H1509 C1495 0.958 . S
H1510 C1495 0.961 . S
H1511 C1495 0.960 . S
C1512 C1513 1.391 . S
C1512 C1514 1.394 . S
C1512 H1528 0.931 . S
C1513 C1512 1.391 . S
C1513 C1517 1.376 . S
C1514 C1512 1.394 . S
C1514 C1515 1.369 . S
C1514 C1518 1.531 . S
C1515 C1514 1.369 . S
C1515 C1516 1.410 . S
C1515 C1523 1.503 . S
C1516 C1515 1.410 . S
C1516 C1517 1.392 . S
C1516 C1519 1.511 . S
C1517 C1513 1.376 . S
C1517 C1516 1.392 . S
C1517 H1529 0.929 . S
C1518 C1514 1.531 . S
C1518 H1530 0.960 . S
C1518 H1531 0.962 . S
C1518 H1532 0.960 . S
C1519 C1516 1.511 . S
C1519 H1533 0.961 . S
C1519 H1534 0.961 . S
C1519 H1535 0.961 . S
C1520 C1521 1.370 . S
C1520 C1522 1.363 . S
C1520 H1536 0.931 . S
C1521 C1520 1.370 . S
C1521 C1525 1.408 . S
C1522 C1520 1.363 . S
C1522 C1523 1.370 . S
C1522 C1526 1.524 . S
C1523 C1515 1.503 . S
C1523 C1522 1.370 . S
C1523 C1524 1.403 . S
C1524 C1523 1.403 . S
C1524 C1525 1.404 . S
C1524 C1527 1.539 . S
C1525 C1521 1.408 . S
C1525 C1524 1.404 . S
C1525 H1537 0.930 . S
C1526 C1522 1.524 . S
C1526 H1538 0.956 . S
C1526 H1539 0.961 . S
C1526 H1540 0.961 . S
C1527 C1524 1.539 . S
C1527 H1541 0.958 . S
C1527 H1542 0.961 . S
C1527 H1543 0.960 . S
H1528 C1512 0.931 . S
H1529 C1517 0.929 . S
H1530 C1518 0.960 . S
H1531 C1518 0.962 . S
H1532 C1518 0.960 . S
H1533 C1519 0.961 . S
H1534 C1519 0.961 . S
H1535 C1519 0.961 . S
H1536 C1520 0.931 . S
H1537 C1525 0.930 . S
H1538 C1526 0.956 . S
H1539 C1526 0.961 . S
H1540 C1526 0.961 . S
H1541 C1527 0.958 . S
H1542 C1527 0.961 . S
H1543 C1527 0.960 . S
C1544 C1545 1.391 . S
C1544 C1546 1.394 . S
C1544 H1560 0.931 . S
C1545 C1544 1.391 . S
C1545 C1549 1.376 . S
C1546 C1544 1.394 . S
C1546 C1547 1.369 . S
C1546 C1550 1.531 . S
C1547 C1546 1.369 . S
C1547 C1548 1.410 . S
C1547 C1555 1.503 . S
C1548 C1547 1.410 . S
C1548 C1549 1.392 . S
C1548 C1551 1.511 . S
C1549 C1545 1.376 . S
C1549 C1548 1.392 . S
C1549 H1561 0.929 . S
C1550 C1546 1.531 . S
C1550 H1562 0.960 . S
C1550 H1563 0.962 . S
C1550 H1564 0.960 . S
C1551 C1548 1.511 . S
C1551 H1565 0.961 . S
C1551 H1566 0.961 . S
C1551 H1567 0.961 . S
C1552 C1553 1.370 . S
C1552 C1554 1.363 . S
C1552 H1568 0.931 . S
C1553 C1552 1.370 . S
C1553 C1557 1.408 . S
C1554 C1552 1.363 . S
C1554 C1555 1.370 . S
C1554 C1558 1.524 . S
C1555 C1547 1.503 . S
C1555 C1554 1.370 . S
C1555 C1556 1.403 . S
C1556 C1555 1.403 . S
C1556 C1557 1.404 . S
C1556 C1559 1.539 . S
C1557 C1553 1.408 . S
C1557 C1556 1.404 . S
C1557 H1569 0.930 . S
C1558 C1554 1.524 . S
C1558 H1570 0.956 . S
C1558 H1571 0.961 . S
C1558 H1572 0.961 . S
C1559 C1556 1.539 . S
C1559 H1573 0.958 . S
C1559 H1574 0.961 . S
C1559 H1575 0.960 . S
H1560 C1544 0.931 . S
H1561 C1549 0.929 . S
H1562 C1550 0.960 . S
H1563 C1550 0.962 . S
H1564 C1550 0.960 . S
H1565 C1551 0.961 . S
H1566 C1551 0.961 . S
H1567 C1551 0.961 . S
H1568 C1552 0.931 . S
H1569 C1557 0.930 . S
H1570 C1558 0.956 . S
H1571 C1558 0.961 . S
H1572 C1558 0.961 . S
H1573 C1559 0.958 . S
H1574 C1559 0.961 . S
H1575 C1559 0.960 . S
C1576 C1577 1.391 . S
C1576 C1578 1.394 . S
C1576 H1592 0.931 . S
C1577 C1576 1.391 . S
C1577 C1581 1.376 . S
C1578 C1576 1.394 . S
C1578 C1579 1.369 . S
C1578 C1582 1.531 . S
C1579 C1578 1.369 . S
C1579 C1580 1.410 . S
C1579 C1587 1.503 . S
C1580 C1579 1.410 . S
C1580 C1581 1.392 . S
C1580 C1583 1.511 . S
C1581 C1577 1.376 . S
C1581 C1580 1.392 . S
C1581 H1593 0.929 . S
C1582 C1578 1.531 . S
C1582 H1594 0.960 . S
C1582 H1595 0.962 . S
C1582 H1596 0.960 . S
C1583 C1580 1.511 . S
C1583 H1597 0.961 . S
C1583 H1598 0.961 . S
C1583 H1599 0.961 . S
C1584 C1585 1.370 . S
C1584 C1586 1.363 . S
C1584 H1600 0.931 . S
C1585 C1584 1.370 . S
C1585 C1589 1.408 . S
C1586 C1584 1.363 . S
C1586 C1587 1.370 . S
C1586 C1590 1.524 . S
C1587 C1579 1.503 . S
C1587 C1586 1.370 . S
C1587 C1588 1.403 . S
C1588 C1587 1.403 . S
C1588 C1589 1.404 . S
C1588 C1591 1.539 . S
C1589 C1585 1.408 . S
C1589 C1588 1.404 . S
C1589 H1601 0.930 . S
C1590 C1586 1.524 . S
C1590 H1602 0.956 . S
C1590 H1603 0.961 . S
C1590 H1604 0.961 . S
C1591 C1588 1.539 . S
C1591 H1605 0.958 . S
C1591 H1606 0.961 . S
C1591 H1607 0.960 . S
H1592 C1576 0.931 . S
H1593 C1581 0.929 . S
H1594 C1582 0.960 . S
H1595 C1582 0.962 . S
H1596 C1582 0.960 . S
H1597 C1583 0.961 . S
H1598 C1583 0.961 . S
H1599 C1583 0.961 . S
H1600 C1584 0.931 . S
H1601 C1589 0.930 . S
H1602 C1590 0.956 . S
H1603 C1590 0.961 . S
H1604 C1590 0.961 . S
H1605 C1591 0.958 . S
H1606 C1591 0.961 . S
H1607 C1591 0.960 . S
C1608 C1609 1.391 . S
C1608 C1610 1.394 . S
C1608 H1624 0.931 . S
C1609 C1608 1.391 . S
C1609 C1613 1.376 . S
C1610 C1608 1.394 . S
C1610 C1611 1.369 . S
C1610 C1614 1.531 . S
C1611 C1610 1.369 . S
C1611 C1612 1.410 . S
C1611 C1619 1.503 . S
C1612 C1611 1.410 . S
C1612 C1613 1.392 . S
C1612 C1615 1.511 . S
C1613 C1609 1.376 . S
C1613 C1612 1.392 . S
C1613 H1625 0.929 . S
C1614 C1610 1.531 . S
C1614 H1626 0.960 . S
C1614 H1627 0.962 . S
C1614 H1628 0.960 . S
C1615 C1612 1.511 . S
C1615 H1629 0.961 . S
C1615 H1630 0.961 . S
C1615 H1631 0.961 . S
C1616 C1617 1.370 . S
C1616 C1618 1.363 . S
C1616 H1632 0.931 . S
C1617 C1616 1.370 . S
C1617 C1621 1.408 . S
C1618 C1616 1.363 . S
C1618 C1619 1.370 . S
C1618 C1622 1.524 . S
C1619 C1611 1.503 . S
C1619 C1618 1.370 . S
C1619 C1620 1.403 . S
C1620 C1619 1.403 . S
C1620 C1621 1.404 . S
C1620 C1623 1.539 . S
C1621 C1617 1.408 . S
C1621 C1620 1.404 . S
C1621 H1633 0.930 . S
C1622 C1618 1.524 . S
C1622 H1634 0.956 . S
C1622 H1635 0.961 . S
C1622 H1636 0.961 . S
C1623 C1620 1.539 . S
C1623 H1637 0.958 . S
C1623 H1638 0.961 . S
C1623 H1639 0.960 . S
H1624 C1608 0.931 . S
H1625 C1613 0.929 . S
H1626 C1614 0.960 . S
H1627 C1614 0.962 . S
H1628 C1614 0.960 . S
H1629 C1615 0.961 . S
H1630 C1615 0.961 . S
H1631 C1615 0.961 . S
H1632 C1616 0.931 . S
H1633 C1621 0.930 . S
H1634 C1622 0.956 . S
H1635 C1622 0.961 . S
H1636 C1622 0.961 . S
H1637 C1623 0.958 . S
H1638 C1623 0.961 . S
H1639 C1623 0.960 . S
C1640 C1641 1.391 . S
C1640 C1642 1.394 . S
C1640 H1656 0.931 . S
C1641 C1640 1.391 . S
C1641 C1645 1.376 . S
C1642 C1640 1.394 . S
C1642 C1643 1.369 . S
C1642 C1646 1.531 . S
C1643 C1642 1.369 . S
C1643 C1644 1.410 . S
C1643 C1651 1.503 . S
C1644 C1643 1.410 . S
C1644 C1645 1.392 . S
C1644 C1647 1.511 . S
C1645 C1641 1.376 . S
C1645 C1644 1.392 . S
C1645 H1657 0.929 . S
C1646 C1642 1.531 . S
C1646 H1658 0.960 . S
C1646 H1659 0.962 . S
C1646 H1660 0.960 . S
C1647 C1644 1.511 . S
C1647 H1661 0.961 . S
C1647 H1662 0.961 . S
C1647 H1663 0.961 . S
C1648 C1649 1.370 . S
C1648 C1650 1.363 . S
C1648 H1664 0.931 . S
C1649 C1648 1.370 . S
C1649 C1653 1.408 . S
C1650 C1648 1.363 . S
C1650 C1651 1.370 . S
C1650 C1654 1.524 . S
C1651 C1643 1.503 . S
C1651 C1650 1.370 . S
C1651 C1652 1.403 . S
C1652 C1651 1.403 . S
C1652 C1653 1.404 . S
C1652 C1655 1.539 . S
C1653 C1649 1.408 . S
C1653 C1652 1.404 . S
C1653 H1665 0.930 . S
C1654 C1650 1.524 . S
C1654 H1666 0.956 . S
C1654 H1667 0.961 . S
C1654 H1668 0.961 . S
C1655 C1652 1.539 . S
C1655 H1669 0.958 . S
C1655 H1670 0.961 . S
C1655 H1671 0.960 . S
H1656 C1640 0.931 . S
H1657 C1645 0.929 . S
H1658 C1646 0.960 . S
H1659 C1646 0.962 . S
H1660 C1646 0.960 . S
H1661 C1647 0.961 . S
H1662 C1647 0.961 . S
H1663 C1647 0.961 . S
H1664 C1648 0.931 . S
H1665 C1653 0.930 . S
H1666 C1654 0.956 . S
H1667 C1654 0.961 . S
H1668 C1654 0.961 . S
H1669 C1655 0.958 . S
H1670 C1655 0.961 . S
H1671 C1655 0.960 . S
C1672 C1673 1.391 . S
C1672 C1674 1.394 . S
C1672 H1688 0.931 . S
C1673 C1672 1.391 . S
C1673 C1677 1.376 . S
C1674 C1672 1.394 . S
C1674 C1675 1.369 1_455 S
C1674 C1678 1.531 . S
C1675 C1674 1.369 1_655 S
C1675 C1676 1.410 . S
C1675 C1683 1.503 . S
C1676 C1675 1.410 . S
C1676 C1677 1.392 1_655 S
C1676 C1679 1.511 . S
C1677 C1673 1.376 . S
C1677 C1676 1.392 1_455 S
C1677 H1689 0.929 . S
C1678 C1674 1.531 . S
C1678 H1690 0.960 . S
C1678 H1691 0.962 . S
C1678 H1692 0.960 . S
C1679 C1676 1.511 . S
C1679 H1693 0.961 . S
C1679 H1694 0.961 . S
C1679 H1695 0.961 . S
C1680 C1681 1.370 . S
C1680 C1682 1.363 . S
C1680 H1696 0.931 . S
C1681 C1680 1.370 . S
C1681 C1685 1.408 . S
C1682 C1680 1.363 . S
C1682 C1683 1.370 . S
C1682 C1686 1.524 . S
C1683 C1675 1.503 . S
C1683 C1682 1.370 . S
C1683 C1684 1.403 . S
C1684 C1683 1.403 . S
C1684 C1685 1.404 . S
C1684 C1687 1.539 . S
C1685 C1681 1.408 . S
C1685 C1684 1.404 . S
C1685 H1697 0.930 . S
C1686 C1682 1.524 . S
C1686 H1698 0.956 . S
C1686 H1699 0.961 . S
C1686 H1700 0.961 . S
C1687 C1684 1.539 . S
C1687 H1701 0.958 . S
C1687 H1702 0.961 . S
C1687 H1703 0.960 . S
H1688 C1672 0.931 . S
H1689 C1677 0.929 . S
H1690 C1678 0.960 . S
H1691 C1678 0.962 . S
H1692 C1678 0.960 . S
H1693 C1679 0.961 . S
H1694 C1679 0.961 . S
H1695 C1679 0.961 . S
H1696 C1680 0.931 . S
H1697 C1685 0.930 . S
H1698 C1686 0.956 . S
H1699 C1686 0.961 . S
H1700 C1686 0.961 . S
H1701 C1687 0.958 . S
H1702 C1687 0.961 . S
H1703 C1687 0.960 . S
C1704 C1705 1.391 . S
C1704 C1706 1.394 . S
C1704 H1720 0.931 . S
C1705 C1704 1.391 . S
C1705 C1709 1.376 . S
C1706 C1704 1.394 . S
C1706 C1707 1.369 . S
C1706 C1710 1.531 . S
C1707 C1706 1.369 . S
C1707 C1708 1.410 . S
C1707 C1715 1.503 . S
C1708 C1707 1.410 . S
C1708 C1709 1.392 . S
C1708 C1711 1.511 . S
C1709 C1705 1.376 . S
C1709 C1708 1.392 . S
C1709 H1721 0.929 . S
C1710 C1706 1.531 . S
C1710 H1722 0.960 . S
C1710 H1723 0.962 . S
C1710 H1724 0.960 . S
C1711 C1708 1.511 . S
C1711 H1725 0.961 . S
C1711 H1726 0.961 . S
C1711 H1727 0.961 . S
C1712 C1713 1.370 . S
C1712 C1714 1.363 . S
C1712 H1728 0.931 . S
C1713 C1712 1.370 . S
C1713 C1717 1.408 . S
C1714 C1712 1.363 . S
C1714 C1715 1.370 . S
C1714 C1718 1.524 . S
C1715 C1707 1.503 . S
C1715 C1714 1.370 . S
C1715 C1716 1.403 . S
C1716 C1715 1.403 . S
C1716 C1717 1.404 . S
C1716 C1719 1.539 . S
C1717 C1713 1.408 . S
C1717 C1716 1.404 . S
C1717 H1729 0.930 . S
C1718 C1714 1.524 . S
C1718 H1730 0.956 . S
C1718 H1731 0.961 . S
C1718 H1732 0.961 . S
C1719 C1716 1.539 . S
C1719 H1733 0.958 . S
C1719 H1734 0.961 . S
C1719 H1735 0.960 . S
H1720 C1704 0.931 . S
H1721 C1709 0.929 . S
H1722 C1710 0.960 . S
H1723 C1710 0.962 . S
H1724 C1710 0.960 . S
H1725 C1711 0.961 . S
H1726 C1711 0.961 . S
H1727 C1711 0.961 . S
H1728 C1712 0.931 . S
H1729 C1717 0.930 . S
H1730 C1718 0.956 . S
H1731 C1718 0.961 . S
H1732 C1718 0.961 . S
H1733 C1719 0.958 . S
H1734 C1719 0.961 . S
H1735 C1719 0.960 . S
C1736 C1737 1.391 . S
C1736 C1738 1.394 . S
C1736 H1752 0.931 . S
C1737 C1736 1.391 . S
C1737 C1741 1.376 . S
C1738 C1736 1.394 . S
C1738 C1739 1.392 . S
C1738 C1742 1.531 . S
C1739 C1738 1.392 . S
C1739 C1740 1.409 . S
C1739 C1747 1.480 1_655 S
C1740 C1739 1.409 . S
C1740 C1741 1.424 . S
C1740 C1743 1.482 1_655 S
C1741 C1737 1.376 . S
C1741 C1740 1.424 . S
C1741 H1753 0.929 . S
C1742 C1738 1.531 . S
C1742 H1754 0.960 . S
C1742 H1755 0.962 . S
C1742 H1756 0.960 . S
C1743 C1740 1.482 1_455 S
C1743 H1757 0.961 . S
C1743 H1758 0.961 . S
C1743 H1759 0.961 . S
C1744 C1745 1.370 . S
C1744 C1746 1.363 . S
C1744 H1760 0.931 . S
C1745 C1744 1.370 . S
C1745 C1749 1.408 . S
C1746 C1744 1.363 . S
C1746 C1747 1.370 . S
C1746 C1750 1.524 . S
C1747 C1739 1.480 1_455 S
C1747 C1746 1.370 . S
C1747 C1748 1.403 . S
C1748 C1747 1.403 . S
C1748 C1749 1.404 . S
C1748 C1751 1.539 . S
C1749 C1745 1.408 . S
C1749 C1748 1.404 . S
C1749 H1761 0.930 . S
C1750 C1746 1.524 . S
C1750 H1762 0.956 1_455 S
C1750 H1763 0.954 1_455 S
C1750 H1764 0.961 . S
C1751 C1748 1.539 . S
C1751 H1765 0.958 . S
C1751 H1766 0.961 . S
C1751 H1767 0.960 . S
H1752 C1736 0.931 . S
H1753 C1741 0.929 . S
H1754 C1742 0.960 . S
H1755 C1742 0.962 . S
H1756 C1742 0.960 . S
H1757 C1743 0.961 . S
H1758 C1743 0.961 . S
H1759 C1743 0.961 . S
H1760 C1744 0.931 . S
H1761 C1749 0.930 . S
H1762 C1750 0.956 1_655 S
H1763 C1750 0.954 1_655 S
H1764 C1750 0.961 . S
H1765 C1751 0.958 . S
H1766 C1751 0.961 . S
H1767 C1751 0.960 . S
C1768 C1769 1.391 . S
C1768 C1770 1.394 . S
C1768 H1784 0.931 . S
C1769 C1768 1.391 . S
C1769 C1773 1.376 . S
C1770 C1768 1.394 . S
C1770 C1771 1.369 . S
C1770 C1774 1.531 . S
C1771 C1770 1.369 . S
C1771 C1772 1.410 . S
C1771 C1779 1.503 . S
C1772 C1771 1.410 . S
C1772 C1773 1.392 . S
C1772 C1775 1.511 . S
C1773 C1769 1.376 . S
C1773 C1772 1.392 . S
C1773 H1785 0.929 . S
C1774 C1770 1.531 . S
C1774 H1786 0.960 . S
C1774 H1787 0.962 . S
C1774 H1788 0.960 . S
C1775 C1772 1.511 . S
C1775 H1789 0.961 . S
C1775 H1790 0.961 . S
C1775 H1791 0.961 . S
C1776 C1777 1.370 . S
C1776 C1778 1.363 . S
C1776 H1792 0.931 . S
C1777 C1776 1.370 . S
C1777 C1781 1.408 . S
C1778 C1776 1.363 . S
C1778 C1779 1.370 . S
C1778 C1782 1.524 . S
C1779 C1771 1.503 . S
C1779 C1778 1.370 . S
C1779 C1780 1.403 . S
C1780 C1779 1.403 . S
C1780 C1781 1.404 . S
C1780 C1783 1.539 . S
C1781 C1777 1.408 . S
C1781 C1780 1.404 . S
C1781 H1793 0.930 . S
C1782 C1778 1.524 . S
C1782 H1794 0.956 . S
C1782 H1795 0.961 . S
C1782 H1796 0.961 . S
C1783 C1780 1.539 . S
C1783 H1797 0.958 . S
C1783 H1798 0.961 . S
C1783 H1799 0.960 . S
H1784 C1768 0.931 . S
H1785 C1773 0.929 . S
H1786 C1774 0.960 . S
H1787 C1774 0.962 . S
H1788 C1774 0.960 . S
H1789 C1775 0.961 . S
H1790 C1775 0.961 . S
H1791 C1775 0.961 . S
H1792 C1776 0.931 . S
H1793 C1781 0.930 . S
H1794 C1782 0.956 . S
H1795 C1782 0.961 . S
H1796 C1782 0.961 . S
H1797 C1783 0.958 . S
H1798 C1783 0.961 . S
H1799 C1783 0.960 . S
C1800 C1801 1.391 . S
C1800 C1802 1.394 . S
C1800 H1816 0.931 . S
C1801 C1800 1.391 . S
C1801 C1805 1.336 1_554 S
C1802 C1800 1.394 . S
C1802 C1803 1.369 1_554 S
C1802 C1806 1.531 . S
C1803 C1802 1.369 1_556 S
C1803 C1804 1.410 . S
C1803 C1811 1.503 . S
C1804 C1803 1.410 . S
C1804 C1805 1.425 . S
C1804 C1807 1.511 . S
C1805 C1801 1.336 1_556 S
C1805 C1804 1.425 . S
C1805 H1817 0.938 . S
C1806 C1802 1.531 . S
C1806 H1818 0.960 . S
C1806 H1819 0.962 . S
C1806 H1820 0.960 . S
C1807 C1804 1.511 . S
C1807 H1821 0.961 . S
C1807 H1822 0.961 . S
C1807 H1823 0.961 . S
C1808 C1809 1.370 . S
C1808 C1810 1.363 . S
C1808 H1824 0.931 . S
C1809 C1808 1.370 . S
C1809 C1813 1.408 . S
C1810 C1808 1.363 . S
C1810 C1811 1.370 . S
C1810 C1814 1.524 . S
C1811 C1803 1.503 . S
C1811 C1810 1.370 . S
C1811 C1812 1.403 . S
C1812 C1811 1.403 . S
C1812 C1813 1.404 . S
C1812 C1815 1.539 . S
C1813 C1809 1.408 . S
C1813 C1812 1.404 . S
C1813 H1825 0.930 . S
C1814 C1810 1.524 . S
C1814 H1826 0.956 . S
C1814 H1827 0.961 . S
C1814 H1828 0.961 . S
C1815 C1812 1.539 . S
C1815 H1829 0.958 . S
C1815 H1830 0.961 . S
C1815 H1831 0.960 . S
H1816 C1800 0.931 . S
H1817 C1805 0.938 . S
H1818 C1806 0.960 . S
H1819 C1806 0.962 . S
H1820 C1806 0.960 . S
H1821 C1807 0.961 . S
H1822 C1807 0.961 . S
H1823 C1807 0.961 . S
H1824 C1808 0.931 . S
H1825 C1813 0.930 . S
H1826 C1814 0.956 . S
H1827 C1814 0.961 . S
H1828 C1814 0.961 . S
H1829 C1815 0.958 . S
H1830 C1815 0.961 . S
H1831 C1815 0.960 . S
C1832 C1833 1.391 . S
C1832 C1834 1.394 . S
C1832 H1848 0.931 . S
C1833 C1832 1.391 . S
C1833 C1837 1.376 . S
C1834 C1832 1.394 . S
C1834 C1835 1.369 . S
C1834 C1838 1.531 . S
C1835 C1834 1.369 . S
C1835 C1836 1.410 . S
C1835 C1843 1.503 . S
C1836 C1835 1.410 . S
C1836 C1837 1.392 . S
C1836 C1839 1.511 . S
C1837 C1833 1.376 . S
C1837 C1836 1.392 . S
C1837 H1849 0.929 . S
C1838 C1834 1.531 . S
C1838 H1850 0.960 . S
C1838 H1851 0.962 . S
C1838 H1852 0.960 . S
C1839 C1836 1.511 . S
C1839 H1853 0.961 . S
C1839 H1854 0.961 . S
C1839 H1855 0.961 . S
C1840 C1841 1.370 . S
C1840 C1842 1.363 . S
C1840 H1856 0.931 . S
C1841 C1840 1.370 . S
C1841 C1845 1.408 . S
C1842 C1840 1.363 . S
C1842 C1843 1.370 . S
C1842 C1846 1.524 . S
C1843 C1835 1.503 . S
C1843 C1842 1.370 . S
C1843 C1844 1.403 . S
C1844 C1843 1.403 . S
C1844 C1845 1.404 . S
C1844 C1847 1.539 . S
C1845 C1841 1.408 . S
C1845 C1844 1.404 . S
C1845 H1857 0.930 . S
C1846 C1842 1.524 . S
C1846 H1858 0.956 . S
C1846 H1859 0.961 . S
C1846 H1860 0.961 . S
C1847 C1844 1.539 . S
C1847 H1861 0.958 . S
C1847 H1862 0.961 . S
C1847 H1863 0.960 . S
H1848 C1832 0.931 . S
H1849 C1837 0.929 . S
H1850 C1838 0.960 . S
H1851 C1838 0.962 . S
H1852 C1838 0.960 . S
H1853 C1839 0.961 . S
H1854 C1839 0.961 . S
H1855 C1839 0.961 . S
H1856 C1840 0.931 . S
H1857 C1845 0.930 . S
H1858 C1846 0.956 . S
H1859 C1846 0.961 . S
H1860 C1846 0.961 . S
H1861 C1847 0.958 . S
H1862 C1847 0.961 . S
H1863 C1847 0.960 . S
C1864 C1865 1.391 . S
C1864 C1866 1.394 . S
C1864 H1880 0.931 . S
C1865 C1864 1.391 . S
C1865 C1869 1.376 . S
C1866 C1864 1.394 . S
C1866 C1867 1.369 . S
C1866 C1870 1.531 . S
C1867 C1866 1.369 . S
C1867 C1868 1.410 . S
C1867 C1875 1.503 1_554 S
C1868 C1867 1.410 . S
C1868 C1869 1.392 . S
C1868 C1871 1.511 . S
C1869 C1865 1.376 . S
C1869 C1868 1.392 . S
C1869 H1881 0.929 . S
C1870 C1866 1.531 . S
C1870 H1882 0.960 . S
C1870 H1883 0.962 . S
C1870 H1884 0.960 . S
C1871 C1868 1.511 . S
C1871 H1885 0.961 . S
C1871 H1886 0.961 1_554 S
C1871 H1887 0.961 . S
C1872 C1873 1.370 . S
C1872 C1874 1.363 . S
C1872 H1888 0.931 . S
C1873 C1872 1.370 . S
C1873 C1877 1.408 . S
C1874 C1872 1.363 . S
C1874 C1875 1.370 . S
C1874 C1878 1.524 . S
C1875 C1867 1.503 1_556 S
C1875 C1874 1.370 . S
C1875 C1876 1.403 . S
C1876 C1875 1.403 . S
C1876 C1877 1.404 . S
C1876 C1879 1.539 1_556 S
C1877 C1873 1.408 . S
C1877 C1876 1.404 . S
C1877 H1889 0.930 . S
C1878 C1874 1.524 . S
C1878 H1890 0.956 . S
C1878 H1891 0.961 . S
C1878 H1892 0.961 . S
C1879 C1876 1.539 1_554 S
C1879 H1893 0.958 . S
C1879 H1894 0.961 . S
C1879 H1895 0.960 . S
H1880 C1864 0.931 . S
H1881 C1869 0.929 . S
H1882 C1870 0.960 . S
H1883 C1870 0.962 . S
H1884 C1870 0.960 . S
H1885 C1871 0.961 . S
H1886 C1871 0.961 1_556 S
H1887 C1871 0.961 . S
H1888 C1872 0.931 . S
H1889 C1877 0.930 . S
H1890 C1878 0.956 . S
H1891 C1878 0.961 . S
H1892 C1878 0.961 . S
H1893 C1879 0.958 . S
H1894 C1879 0.961 . S
H1895 C1879 0.960 . S
C1896 C1897 1.391 . S
C1896 C1898 1.394 . S
C1896 H1912 0.931 . S
C1897 C1896 1.391 . S
C1897 C1901 1.376 . S
C1898 C1896 1.394 . S
C1898 C1899 1.369 . S
C1898 C1902 1.531 . S
C1899 C1898 1.369 . S
C1899 C1900 1.410 . S
C1899 C1907 1.503 . S
C1900 C1899 1.410 . S
C1900 C1901 1.392 . S
C1900 C1903 1.511 . S
C1901 C1897 1.376 . S
C1901 C1900 1.392 . S
C1901 H1913 0.929 . S
C1902 C1898 1.531 . S
C1902 H1914 0.960 . S
C1902 H1915 0.962 . S
C1902 H1916 0.960 . S
C1903 C1900 1.511 . S
C1903 H1917 0.961 . S
C1903 H1918 0.961 . S
C1903 H1919 0.961 . S
C1904 C1905 1.370 . S
C1904 C1906 1.363 . S
C1904 H1920 0.931 . S
C1905 C1904 1.370 . S
C1905 C1909 1.408 . S
C1906 C1904 1.363 . S
C1906 C1907 1.370 . S
C1906 C1910 1.524 . S
C1907 C1899 1.503 . S
C1907 C1906 1.370 . S
C1907 C1908 1.403 . S
C1908 C1907 1.403 . S
C1908 C1909 1.404 . S
C1908 C1911 1.539 . S
C1909 C1905 1.408 . S
C1909 C1908 1.404 . S
C1909 H1921 0.930 . S
C1910 C1906 1.524 . S
C1910 H1922 0.956 . S
C1910 H1923 0.961 . S
C1910 H1924 0.961 . S
C1911 C1908 1.539 . S
C1911 H1925 0.958 . S
C1911 H1926 0.961 . S
C1911 H1927 0.960 . S
H1912 C1896 0.931 . S
H1913 C1901 0.929 . S
H1914 C1902 0.960 . S
H1915 C1902 0.962 . S
H1916 C1902 0.960 . S
H1917 C1903 0.961 . S
H1918 C1903 0.961 . S
H1919 C1903 0.961 . S
H1920 C1904 0.931 . S
H1921 C1909 0.930 . S
H1922 C1910 0.956 . S
H1923 C1910 0.961 . S
H1924 C1910 0.961 . S
H1925 C1911 0.958 . S
H1926 C1911 0.961 . S
H1927 C1911 0.960 . S
C1928 C1929 1.391 . S
C1928 C1930 1.394 . S
C1928 H1944 0.931 . S
C1929 C1928 1.391 . S
C1929 C1933 1.376 . S
C1930 C1928 1.394 . S
C1930 C1931 1.369 1_556 S
C1930 C1934 1.531 . S
C1931 C1930 1.369 1_554 S
C1931 C1932 1.410 . S
C1931 C1939 1.503 . S
C1932 C1931 1.410 . S
C1932 C1933 1.392 1_554 S
C1932 C1935 1.511 . S
C1933 C1929 1.376 . S
C1933 C1932 1.392 1_556 S
C1933 H1945 0.929 . S
C1934 C1930 1.531 . S
C1934 H1946 0.960 1_556 S
C1934 H1947 0.952 1_556 S
C1934 H1948 0.960 . S
C1935 C1932 1.511 . S
C1935 H1949 0.961 . S
C1935 H1950 0.961 . S
C1935 H1951 0.961 . S
C1936 C1937 1.370 . S
C1936 C1938 1.363 . S
C1936 H1952 0.931 . S
C1937 C1936 1.370 . S
C1937 C1941 1.408 . S
C1938 C1936 1.363 . S
C1938 C1939 1.370 . S
C1938 C1942 1.524 . S
C1939 C1931 1.503 . S
C1939 C1938 1.370 . S
C1939 C1940 1.403 . S
C1940 C1939 1.403 . S
C1940 C1941 1.404 . S
C1940 C1943 1.539 . S
C1941 C1937 1.408 . S
C1941 C1940 1.404 . S
C1941 H1953 0.930 . S
C1942 C1938 1.524 . S
C1942 H1954 0.956 . S
C1942 H1955 0.961 . S
C1942 H1956 0.961 . S
C1943 C1940 1.539 . S
C1943 H1957 0.958 . S
C1943 H1958 0.961 . S
C1943 H1959 0.960 . S
H1944 C1928 0.931 . S
H1945 C1933 0.929 . S
H1946 C1934 0.960 1_554 S
H1947 C1934 0.952 1_554 S
H1948 C1934 0.960 . S
H1949 C1935 0.961 . S
H1950 C1935 0.961 . S
H1951 C1935 0.961 . S
H1952 C1936 0.931 . S
H1953 C1941 0.930 . S
H1954 C1942 0.956 . S
H1955 C1942 0.961 . S
H1956 C1942 0.961 . S
H1957 C1943 0.958 . S
H1958 C1943 0.961 . S
H1959 C1943 0.960 . S
C1960 C1961 1.391 . S
C1960 C1962 1.394 . S
C1960 H1976 0.931 . S
C1961 C1960 1.391 . S
C1961 C1965 1.376 . S
C1962 C1960 1.394 . S
C1962 C1963 1.369 . S
C1962 C1966 1.531 . S
C1963 C1962 1.369 . S
C1963 C1964 1.410 . S
C1963 C1971 1.503 . S
C1964 C1963 1.410 . S
C1964 C1965 1.392 . S
C1964 C1967 1.511 . S
C1965 C1961 1.376 . S
C1965 C1964 1.392 . S
C1965 H1977 0.929 . S
C1966 C1962 1.531 . S
C1966 H1978 0.960 . S
C1966 H1979 0.962 . S
C1966 H1980 0.960 . S
C1967 C1964 1.511 . S
C1967 H1981 0.961 . S
C1967 H1982 0.961 . S
C1967 H1983 0.961 . S
C1968 C1969 1.370 . S
C1968 C1970 1.363 . S
C1968 H1984 0.931 . S
C1969 C1968 1.370 . S
C1969 C1973 1.408 . S
C1970 C1968 1.363 . S
C1970 C1971 1.370 . S
C1970 C1974 1.524 . S
C1971 C1963 1.503 . S
C1971 C1970 1.370 . S
C1971 C1972 1.403 . S
C1972 C1971 1.403 . S
C1972 C1973 1.404 . S
C1972 C1975 1.539 . S
C1973 C1969 1.408 . S
C1973 C1972 1.404 . S
C1973 H1985 0.930 . S
C1974 C1970 1.524 . S
C1974 H1986 0.956 . S
C1974 H1987 0.961 . S
C1974 H1988 0.961 . S
C1975 C1972 1.539 . S
C1975 H1989 0.958 . S
C1975 H1990 0.961 . S
C1975 H1991 0.960 . S
H1976 C1960 0.931 . S
H1977 C1965 0.929 . S
H1978 C1966 0.960 . S
H1979 C1966 0.962 . S
H1980 C1966 0.960 . S
H1981 C1967 0.961 . S
H1982 C1967 0.961 . S
H1983 C1967 0.961 . S
H1984 C1968 0.931 . S
H1985 C1973 0.930 . S
H1986 C1974 0.956 . S
H1987 C1974 0.961 . S
H1988 C1974 0.961 . S
H1989 C1975 0.958 . S
H1990 C1975 0.961 . S
H1991 C1975 0.960 . S
C1992 C1993 1.388 1_556 S
C1992 C1994 1.397 1_556 S
C1992 H2008 0.927 . S
C1993 C1992 1.388 1_554 S
C1993 C1997 1.422 . S
C1994 C1992 1.397 1_554 S
C1994 C1995 1.369 . S
C1994 C1998 1.531 . S
C1995 C1994 1.369 . S
C1995 C1996 1.410 . S
C1995 C2003 1.503 . S
C1996 C1995 1.410 . S
C1996 C1997 1.392 . S
C1996 C1999 1.511 . S
C1997 C1993 1.422 . S
C1997 C1996 1.392 . S
C1997 H2009 0.929 . S
C1998 C1994 1.531 . S
C1998 H2010 0.960 . S
C1998 H2011 0.962 . S
C1998 H2012 0.960 . S
C1999 C1996 1.511 . S
C1999 H2013 0.961 . S
C1999 H2014 0.961 . S
C1999 H2015 0.961 . S
C2000 C2001 1.370 . S
C2000 C2002 1.363 . S
C2000 H2016 0.931 . S
C2001 C2000 1.370 . S
C2001 C2005 1.408 . S
C2002 C2000 1.363 . S
C2002 C2003 1.370 . S
C2002 C2006 1.524 . S
C2003 C1995 1.503 . S
C2003 C2002 1.370 . S
C2003 C2004 1.403 . S
C2004 C2003 1.403 . S
C2004 C2005 1.404 . S
C2004 C2007 1.539 . S
C2005 C2001 1.408 . S
C2005 C2004 1.404 . S
C2005 H2017 0.930 . S
C2006 C2002 1.524 . S
C2006 H2018 0.956 . S
C2006 H2019 0.961 . S
C2006 H2020 0.961 . S
C2007 C2004 1.539 . S
C2007 H2021 0.958 . S
C2007 H2022 0.961 . S
C2007 H2023 0.960 . S
H2008 C1992 0.927 . S
H2009 C1997 0.929 . S
H2010 C1998 0.960 . S
H2011 C1998 0.962 . S
H2012 C1998 0.960 . S
H2013 C1999 0.961 . S
H2014 C1999 0.961 . S
H2015 C1999 0.961 . S
H2016 C2000 0.931 . S
H2017 C2005 0.930 . S
H2018 C2006 0.956 . S
H2019 C2006 0.961 . S
H2020 C2006 0.961 . S
H2021 C2007 0.958 . S
H2022 C2007 0.961 . S
H2023 C2007 0.960 . S
C2024 C2025 1.391 . S
C2024 C2026 1.394 . S
C2024 H2040 0.931 . S
C2025 C2024 1.391 . S
C2025 C2029 1.376 . S
C2026 C2024 1.394 . S
C2026 C2027 1.369 . S
C2026 C2030 1.531 . S
C2027 C2026 1.369 . S
C2027 C2028 1.410 . S
C2027 C2035 1.503 . S
C2028 C2027 1.410 . S
C2028 C2029 1.392 . S
C2028 C2031 1.511 . S
C2029 C2025 1.376 . S
C2029 C2028 1.392 . S
C2029 H2041 0.929 . S
C2030 C2026 1.531 . S
C2030 H2042 0.960 . S
C2030 H2043 0.962 . S
C2030 H2044 0.960 . S
C2031 C2028 1.511 . S
C2031 H2045 0.961 . S
C2031 H2046 0.961 . S
C2031 H2047 0.961 . S
C2032 C2033 1.370 . S
C2032 C2034 1.363 . S
C2032 H2048 0.931 . S
C2033 C2032 1.370 . S
C2033 C2037 1.408 . S
C2034 C2032 1.363 . S
C2034 C2035 1.370 . S
C2034 C2038 1.524 . S
C2035 C2027 1.503 . S
C2035 C2034 1.370 . S
C2035 C2036 1.403 . S
C2036 C2035 1.403 . S
C2036 C2037 1.404 . S
C2036 C2039 1.539 . S
C2037 C2033 1.408 . S
C2037 C2036 1.404 . S
C2037 H2049 0.930 . S
C2038 C2034 1.524 . S
C2038 H2050 0.956 . S
C2038 H2051 0.961 . S
C2038 H2052 0.961 . S
C2039 C2036 1.539 . S
C2039 H2053 0.958 . S
C2039 H2054 0.961 . S
C2039 H2055 0.960 . S
H2040 C2024 0.931 . S
H2041 C2029 0.929 . S
H2042 C2030 0.960 . S
H2043 C2030 0.962 . S
H2044 C2030 0.960 . S
H2045 C2031 0.961 . S
H2046 C2031 0.961 . S
H2047 C2031 0.961 . S
H2048 C2032 0.931 . S
H2049 C2037 0.930 . S
H2050 C2038 0.956 . S
H2051 C2038 0.961 . S
H2052 C2038 0.961 . S
H2053 C2039 0.958 . S
H2054 C2039 0.961 . S
H2055 C2039 0.960 . S
C2056 C2057 1.391 . S
C2056 C2058 1.394 . S
C2056 H2072 0.931 . S
C2057 C2056 1.391 . S
C2057 C2061 1.376 . S
C2058 C2056 1.394 . S
C2058 C2059 1.369 . S
C2058 C2062 1.531 . S
C2059 C2058 1.369 . S
C2059 C2060 1.410 . S
C2059 C2067 1.503 . S
C2060 C2059 1.410 . S
C2060 C2061 1.392 . S
C2060 C2063 1.511 . S
C2061 C2057 1.376 . S
C2061 C2060 1.392 . S
C2061 H2073 0.929 . S
C2062 C2058 1.531 . S
C2062 H2074 0.960 . S
C2062 H2075 0.962 . S
C2062 H2076 0.960 . S
C2063 C2060 1.511 . S
C2063 H2077 0.961 . S
C2063 H2078 0.961 . S
C2063 H2079 0.961 . S
C2064 C2065 1.370 . S
C2064 C2066 1.363 . S
C2064 H2080 0.931 . S
C2065 C2064 1.370 . S
C2065 C2069 1.408 . S
C2066 C2064 1.363 . S
C2066 C2067 1.370 . S
C2066 C2070 1.524 . S
C2067 C2059 1.503 . S
C2067 C2066 1.370 . S
C2067 C2068 1.403 . S
C2068 C2067 1.403 . S
C2068 C2069 1.404 . S
C2068 C2071 1.539 . S
C2069 C2065 1.408 . S
C2069 C2068 1.404 . S
C2069 H2081 0.930 . S
C2070 C2066 1.524 . S
C2070 H2082 0.956 . S
C2070 H2083 0.961 . S
C2070 H2084 0.961 . S
C2071 C2068 1.539 . S
C2071 H2085 0.958 . S
C2071 H2086 0.961 . S
C2071 H2087 0.960 . S
H2072 C2056 0.931 . S
H2073 C2061 0.929 . S
H2074 C2062 0.960 . S
H2075 C2062 0.962 . S
H2076 C2062 0.960 . S
H2077 C2063 0.961 . S
H2078 C2063 0.961 . S
H2079 C2063 0.961 . S
H2080 C2064 0.931 . S
H2081 C2069 0.930 . S
H2082 C2070 0.956 . S
H2083 C2070 0.961 . S
H2084 C2070 0.961 . S
H2085 C2071 0.958 . S
H2086 C2071 0.961 . S
H2087 C2071 0.960 . S
C2088 C2089 1.391 . S
C2088 C2090 1.394 . S
C2088 H2104 0.931 . S
C2089 C2088 1.391 . S
C2089 C2093 1.376 . S
C2090 C2088 1.394 . S
C2090 C2091 1.369 . S
C2090 C2094 1.531 . S
C2091 C2090 1.369 . S
C2091 C2092 1.410 . S
C2091 C2099 1.503 . S
C2092 C2091 1.410 . S
C2092 C2093 1.392 . S
C2092 C2095 1.511 . S
C2093 C2089 1.376 . S
C2093 C2092 1.392 . S
C2093 H2105 0.929 . S
C2094 C2090 1.531 . S
C2094 H2106 0.960 . S
C2094 H2107 0.962 . S
C2094 H2108 0.960 . S
C2095 C2092 1.511 . S
C2095 H2109 0.961 . S
C2095 H2110 0.961 . S
C2095 H2111 0.961 . S
C2096 C2097 1.370 . S
C2096 C2098 1.363 . S
C2096 H2112 0.931 . S
C2097 C2096 1.370 . S
C2097 C2101 1.408 . S
C2098 C2096 1.363 . S
C2098 C2099 1.370 . S
C2098 C2102 1.524 . S
C2099 C2091 1.503 . S
C2099 C2098 1.370 . S
C2099 C2100 1.403 . S
C2100 C2099 1.403 . S
C2100 C2101 1.404 . S
C2100 C2103 1.539 . S
C2101 C2097 1.408 . S
C2101 C2100 1.404 . S
C2101 H2113 0.930 . S
C2102 C2098 1.524 . S
C2102 H2114 0.956 . S
C2102 H2115 0.961 . S
C2102 H2116 0.961 . S
C2103 C2100 1.539 . S
C2103 H2117 0.958 . S
C2103 H2118 0.961 . S
C2103 H2119 0.960 . S
H2104 C2088 0.931 . S
H2105 C2093 0.929 . S
H2106 C2094 0.960 . S
H2107 C2094 0.962 . S
H2108 C2094 0.960 . S
H2109 C2095 0.961 . S
H2110 C2095 0.961 . S
H2111 C2095 0.961 . S
H2112 C2096 0.931 . S
H2113 C2101 0.930 . S
H2114 C2102 0.956 . S
H2115 C2102 0.961 . S
H2116 C2102 0.961 . S
H2117 C2103 0.958 . S
H2118 C2103 0.961 . S
H2119 C2103 0.960 . S
C2120 C2121 1.391 . S
C2120 C2122 1.394 . S
C2120 H2136 0.931 . S
C2121 C2120 1.391 . S
C2121 C2125 1.376 . S
C2122 C2120 1.394 . S
C2122 C2123 1.369 . S
C2122 C2126 1.531 . S
C2123 C2122 1.369 . S
C2123 C2124 1.410 . S
C2123 C2131 1.503 . S
C2124 C2123 1.410 . S
C2124 C2125 1.392 . S
C2124 C2127 1.511 . S
C2125 C2121 1.376 . S
C2125 C2124 1.392 . S
C2125 H2137 0.929 . S
C2126 C2122 1.531 . S
C2126 H2138 0.960 . S
C2126 H2139 0.962 . S
C2126 H2140 0.960 . S
C2127 C2124 1.511 . S
C2127 H2141 0.961 . S
C2127 H2142 0.961 . S
C2127 H2143 0.961 . S
C2128 C2129 1.370 . S
C2128 C2130 1.363 . S
C2128 H2144 0.931 . S
C2129 C2128 1.370 . S
C2129 C2133 1.408 . S
C2130 C2128 1.363 . S
C2130 C2131 1.370 . S
C2130 C2134 1.524 . S
C2131 C2123 1.503 . S
C2131 C2130 1.370 . S
C2131 C2132 1.403 . S
C2132 C2131 1.403 . S
C2132 C2133 1.404 . S
C2132 C2135 1.539 . S
C2133 C2129 1.408 . S
C2133 C2132 1.404 . S
C2133 H2145 0.930 . S
C2134 C2130 1.524 . S
C2134 H2146 0.956 . S
C2134 H2147 0.961 . S
C2134 H2148 0.961 . S
C2135 C2132 1.539 . S
C2135 H2149 0.958 . S
C2135 H2150 0.961 . S
C2135 H2151 0.960 . S
H2136 C2120 0.931 . S
H2137 C2125 0.929 . S
H2138 C2126 0.960 . S
H2139 C2126 0.962 . S
H2140 C2126 0.960 . S
H2141 C2127 0.961 . S
H2142 C2127 0.961 . S
H2143 C2127 0.961 . S
H2144 C2128 0.931 . S
H2145 C2133 0.930 . S
H2146 C2134 0.956 . S
H2147 C2134 0.961 . S
H2148 C2134 0.961 . S
H2149 C2135 0.958 . S
H2150 C2135 0.961 . S
H2151 C2135 0.960 . S
C2152 C2153 1.391 . S
C2152 C2154 1.394 . S
C2152 H2168 0.931 . S
C2153 C2152 1.391 . S
C2153 C2157 1.376 . S
C2154 C2152 1.394 . S
C2154 C2155 1.369 . S
C2154 C2158 1.531 . S
C2155 C2154 1.369 . S
C2155 C2156 1.410 . S
C2155 C2163 1.503 . S
C2156 C2155 1.410 . S
C2156 C2157 1.392 . S
C2156 C2159 1.511 . S
C2157 C2153 1.376 . S
C2157 C2156 1.392 . S
C2157 H2169 0.929 . S
C2158 C2154 1.531 . S
C2158 H2170 0.960 . S
C2158 H2171 0.962 . S
C2158 H2172 0.960 . S
C2159 C2156 1.511 . S
C2159 H2173 0.961 . S
C2159 H2174 0.961 . S
C2159 H2175 0.961 . S
C2160 C2161 1.370 . S
C2160 C2162 1.363 . S
C2160 H2176 0.931 . S
C2161 C2160 1.370 . S
C2161 C2165 1.408 . S
C2162 C2160 1.363 . S
C2162 C2163 1.370 . S
C2162 C2166 1.524 . S
C2163 C2155 1.503 . S
C2163 C2162 1.370 . S
C2163 C2164 1.403 . S
C2164 C2163 1.403 . S
C2164 C2165 1.404 . S
C2164 C2167 1.539 . S
C2165 C2161 1.408 . S
C2165 C2164 1.404 . S
C2165 H2177 0.930 1_556 S
C2166 C2162 1.524 . S
C2166 H2178 0.956 . S
C2166 H2179 0.961 . S
C2166 H2180 0.961 . S
C2167 C2164 1.539 . S
C2167 H2181 0.958 1_556 S
C2167 H2182 0.961 1_556 S
C2167 H2183 0.960 . S
H2168 C2152 0.931 . S
H2169 C2157 0.929 . S
H2170 C2158 0.960 . S
H2171 C2158 0.962 . S
H2172 C2158 0.960 . S
H2173 C2159 0.961 . S
H2174 C2159 0.961 . S
H2175 C2159 0.961 . S
H2176 C2160 0.931 . S
H2177 C2165 0.930 1_554 S
H2178 C2166 0.956 . S
H2179 C2166 0.961 . S
H2180 C2166 0.961 . S
H2181 C2167 0.958 1_554 S
H2182 C2167 0.961 1_554 S
H2183 C2167 0.960 . S
C2184 C2185 1.391 . S
C2184 C2186 1.394 . S
C2184 H2200 0.931 . S
C2185 C2184 1.391 . S
C2185 C2189 1.376 . S
C2186 C2184 1.394 . S
C2186 C2187 1.369 . S
C2186 C2190 1.531 . S
C2187 C2186 1.369 . S
C2187 C2188 1.410 . S
C2187 C2195 1.503 . S
C2188 C2187 1.410 . S
C2188 C2189 1.392 . S
C2188 C2191 1.511 . S
C2189 C2185 1.376 . S
C2189 C2188 1.392 . S
C2189 H2201 0.929 . S
C2190 C2186 1.531 . S
C2190 H2202 0.960 . S
C2190 H2203 0.962 . S
C2190 H2204 0.960 . S
C2191 C2188 1.511 . S
C2191 H2205 0.961 . S
C2191 H2206 0.961 . S
C2191 H2207 0.961 . S
C2192 C2193 1.370 . S
C2192 C2194 1.363 . S
C2192 H2208 0.931 . S
C2193 C2192 1.370 . S
C2193 C2197 1.408 . S
C2194 C2192 1.363 . S
C2194 C2195 1.370 . S
C2194 C2198 1.524 . S
C2195 C2187 1.503 . S
C2195 C2194 1.370 . S
C2195 C2196 1.403 . S
C2196 C2195 1.403 . S
C2196 C2197 1.404 . S
C2196 C2199 1.539 . S
C2197 C2193 1.408 . S
C2197 C2196 1.404 . S
C2197 H2209 0.930 . S
C2198 C2194 1.524 . S
C2198 H2210 0.956 . S
C2198 H2211 0.961 . S
C2198 H2212 0.961 . S
C2199 C2196 1.539 . S
C2199 H2213 0.958 . S
C2199 H2214 0.961 . S
C2199 H2215 0.960 . S
H2200 C2184 0.931 . S
H2201 C2189 0.929 . S
H2202 C2190 0.960 . S
H2203 C2190 0.962 . S
H2204 C2190 0.960 . S
H2205 C2191 0.961 . S
H2206 C2191 0.961 . S
H2207 C2191 0.961 . S
H2208 C2192 0.931 . S
H2209 C2197 0.930 . S
H2210 C2198 0.956 . S
H2211 C2198 0.961 . S
H2212 C2198 0.961 . S
H2213 C2199 0.958 . S
H2214 C2199 0.961 . S
H2215 C2199 0.960 . S
C2216 C2217 1.391 . S
C2216 C2218 1.394 . S
C2216 H2232 0.931 . S
C2217 C2216 1.391 . S
C2217 C2221 1.376 . S
C2218 C2216 1.394 . S
C2218 C2219 1.369 . S
C2218 C2222 1.531 . S
C2219 C2218 1.369 . S
C2219 C2220 1.410 . S
C2219 C2227 1.503 . S
C2220 C2219 1.410 . S
C2220 C2221 1.392 . S
C2220 C2223 1.511 . S
C2221 C2217 1.376 . S
C2221 C2220 1.392 . S
C2221 H2233 0.929 . S
C2222 C2218 1.531 . S
C2222 H2234 0.960 . S
C2222 H2235 0.962 . S
C2222 H2236 0.960 . S
C2223 C2220 1.511 . S
C2223 H2237 0.961 . S
C2223 H2238 0.961 . S
C2223 H2239 0.961 . S
C2224 C2225 1.370 . S
C2224 C2226 1.363 . S
C2224 H2240 0.931 . S
C2225 C2224 1.370 . S
C2225 C2229 1.408 . S
C2226 C2224 1.363 . S
C2226 C2227 1.370 . S
C2226 C2230 1.524 . S
C2227 C2219 1.503 . S
C2227 C2226 1.370 . S
C2227 C2228 1.403 . S
C2228 C2227 1.403 . S
C2228 C2229 1.404 . S
C2228 C2231 1.539 . S
C2229 C2225 1.408 . S
C2229 C2228 1.404 . S
C2229 H2241 0.930 . S
C2230 C2226 1.524 . S
C2230 H2242 0.956 . S
C2230 H2243 0.961 . S
C2230 H2244 0.961 . S
C2231 C2228 1.539 . S
C2231 H2245 0.958 . S
C2231 H2246 0.961 . S
C2231 H2247 0.960 . S
H2232 C2216 0.931 . S
H2233 C2221 0.929 . S
H2234 C2222 0.960 . S
H2235 C2222 0.962 . S
H2236 C2222 0.960 . S
H2237 C2223 0.961 . S
H2238 C2223 0.961 . S
H2239 C2223 0.961 . S
H2240 C2224 0.931 . S
H2241 C2229 0.930 . S
H2242 C2230 0.956 . S
H2243 C2230 0.961 . S
H2244 C2230 0.961 . S
H2245 C2231 0.958 . S
H2246 C2231 0.961 . S
H2247 C2231 0.960 . S
C2248 C2249 1.391 . S
C2248 C2250 1.394 . S
C2248 H2264 0.931 . S
C2249 C2248 1.391 . S
C2249 C2253 1.376 . S
C2250 C2248 1.394 . S
C2250 C2251 1.369 . S
C2250 C2254 1.531 . S
C2251 C2250 1.369 . S
C2251 C2252 1.410 . S
C2251 C2259 1.503 . S
C2252 C2251 1.410 . S
C2252 C2253 1.392 . S
C2252 C2255 1.511 . S
C2253 C2249 1.376 . S
C2253 C2252 1.392 . S
C2253 H2265 0.929 . S
C2254 C2250 1.531 . S
C2254 H2266 0.960 . S
C2254 H2267 0.962 . S
C2254 H2268 0.960 . S
C2255 C2252 1.511 . S
C2255 H2269 0.961 . S
C2255 H2270 0.961 . S
C2255 H2271 0.961 . S
C2256 C2257 1.370 . S
C2256 C2258 1.363 . S
C2256 H2272 0.931 . S
C2257 C2256 1.370 . S
C2257 C2261 1.408 . S
C2258 C2256 1.363 . S
C2258 C2259 1.370 1_565 S
C2258 C2262 1.524 . S
C2259 C2251 1.503 . S
C2259 C2258 1.370 1_545 S
C2259 C2260 1.403 . S
C2260 C2259 1.403 . S
C2260 C2261 1.404 1_545 S
C2260 C2263 1.539 . S
C2261 C2257 1.408 . S
C2261 C2260 1.404 1_565 S
C2261 H2273 0.930 . S
C2262 C2258 1.524 . S
C2262 H2274 0.956 1_565 S
C2262 H2275 0.961 1_565 S
C2262 H2276 0.961 . S
C2263 C2260 1.539 . S
C2263 H2277 0.958 . S
C2263 H2278 0.961 . S
C2263 H2279 0.960 . S
H2264 C2248 0.931 . S
H2265 C2253 0.929 . S
H2266 C2254 0.960 . S
H2267 C2254 0.962 . S
H2268 C2254 0.960 . S
H2269 C2255 0.961 . S
H2270 C2255 0.961 . S
H2271 C2255 0.961 . S
H2272 C2256 0.931 . S
H2273 C2261 0.930 . S
H2274 C2262 0.956 1_545 S
H2275 C2262 0.961 1_545 S
H2276 C2262 0.961 . S
H2277 C2263 0.958 . S
H2278 C2263 0.961 . S
H2279 C2263 0.960 . S
C753 C584 1.609 1_556 S
C745 C181 1.615 . S
C785 C599 1.723 . S
C777 C247 1.761 . S
C809 C283 1.699 . S
C817 C612 1.704 . S
C849 C626 1.584 . S
C841 C169 1.634 . S
C881 C638 1.637 . S
C873 C361 1.707 . S
C913 C652 1.376 . S
C905 C433 1.350 . S
C937 C421 1.741 . S
C945 C666 1.727 . S
C977 C681 1.527 . S
C969 C355 1.466 . S
C1001 C427 1.664 . S
C1009 C697 1.681 . S
C1041 C710 1.548 . S
C1033 C325 1.574 . S
C1065 C385 1.602 . S
C1073 C695 1.566 . S
C1105 C708 1.575 . S
C1097 C463 1.544 . S
C1129 C253 1.853 . S
C1137 C724 1.846 . S
C1161 C145 1.616 . S
C1169 C723 1.596 . S
C1193 C205 1.719 . S
C1201 C722 1.664 . S
C1225 C217 1.642 . S
C1233 C725 1.621 . S
C1257 C139 1.707 . S
C1265 C627 1.701 . S
C1289 C535 1.509 . S
C1297 C625 1.488 . S
C1329 C585 1.554 . S
C1321 C565 1.531 . S
C1361 C596 1.746 . S
C1353 C313 1.737 . S
C1385 C175 1.683 . S
C1393 C641 1.638 . S
C1425 C682 1.883 . S
C1417 C397 1.886 . S
C1457 C639 1.555 . S
C1449 C349 1.514 . S
C1489 C667 1.550 . S
C1481 C457 1.568 . S
C1521 C668 1.618 . S
C1513 C505 1.617 . S
C1545 C571 1.754 . S
C1553 C683 1.730 . S
C1577 C319 1.696 . S
C1585 C640 1.704 . S
C1617 C654 1.575 . S
C1609 C493 1.616 . S
C1641 C109 1.710 . S
C1649 C610 1.653 . S
C1681 C624 1.390 . S
C1673 C1 1.394 . S
C1713 C582 1.736 . S
C1705 C61 1.766 . S
C1745 C597 1.542 . S
C1737 C103 1.495 . S
C1769 C67 1.684 . S
C1777 C711 1.683 . S
C1801 C73 1.573 . S
C1809 C696 1.547 . S
C1833 C133 1.598 . S
C1841 C709 1.564 . S
C1865 C31 1.569 . S
C1873 C694 1.571 . S
C1905 C738 1.853 . S
C1897 C289 1.841 . S
C1937 C737 1.612 . S
C1929 C469 1.641 . S
C1969 C736 1.662 . S
C1961 C529 1.723 . S
C1993 C541 1.613 1_554 S
C2001 C739 1.619 . S
C2025 C391 1.707 . S
C2033 C655 1.697 . S
C2065 C653 1.475 . S
C2057 C211 1.494 . S
C2097 C669 1.534 . S
C2089 C241 1.556 . S
C2129 C680 1.757 . S
C2121 C277 1.763 . S
C2153 C499 1.660 . S
C2161 C613 1.636 . S
C2193 C598 1.882 . S
C2185 C37 1.871 . S
C2217 C97 1.536 . S
C2225 C611 1.557 . S
C2257 C583 1.553 . S
C2249 C25 1.579 . S
