# Generated by pormake.
# Topology tsx, (6,3)-cn, num edge types: 1
# Building blocks:
#     Node 0, Type 0, BuildingBlock: VOLQOD_clean_sbu_1, # of connection points: 6
#     Node 1, Type 0, BuildingBlock: VOLQOD_clean_sbu_1, # of connection points: 6
#     Node 2, Type 1, BuildingBlock: MIDCAF_clean_linker_0, # of connection points: 3
#     Node 3, Type 1, BuildingBlock: MIDCAF_clean_linker_0, # of connection points: 3
#     Node 4, Type 1, BuildingBlock: MIDCAF_clean_linker_0, # of connection points: 3
#     Node 5, Type 1, BuildingBlock: MIDCAF_clean_linker_0, # of connection points: 3
#     Edge 6, Type (0, 1), BuildingBlock: FUNLAD_clean_linker_1, # of connection points: 2
#     Edge 7, Type (0, 1), BuildingBlock: FUNLAD_clean_linker_1, # of connection points: 2
#     Edge 8, Type (0, 1), BuildingBlock: FUNLAD_clean_linker_1, # of connection points: 2
#     Edge 9, Type (0, 1), BuildingBlock: FUNLAD_clean_linker_1, # of connection points: 2
#     Edge 10, Type (0, 1), BuildingBlock: FUNLAD_clean_linker_1, # of connection points: 2
#     Edge 11, Type (0, 1), BuildingBlock: FUNLAD_clean_linker_1, # of connection points: 2
#     Edge 12, Type (0, 1), BuildingBlock: FUNLAD_clean_linker_1, # of connection points: 2
#     Edge 13, Type (0, 1), BuildingBlock: FUNLAD_clean_linker_1, # of connection points: 2
#     Edge 14, Type (0, 1), BuildingBlock: FUNLAD_clean_linker_1, # of connection points: 2
#     Edge 15, Type (0, 1), BuildingBlock: FUNLAD_clean_linker_1, # of connection points: 2
#     Edge 16, Type (0, 1), BuildingBlock: FUNLAD_clean_linker_1, # of connection points: 2
#     Edge 17, Type (0, 1), BuildingBlock: FUNLAD_clean_linker_1, # of connection points: 2
# Relax obj value: 0.076
# Max RMSD: 0.108
# Mean RMSD: 0.083
data_MOF--net-tsx--node1-VOLQOD_clean_sbu_1--node2-MIDCAF_clean_linker_0--edge1-FUNLAD_clean_linker_1
_symmetry_space_group_name_H-M    P1
_symmetry_Int_Tables_number       1
_symmetry_cell_setting            triclinic
loop_
_symmetry_equiv_pos_as_xyz
'x, y, z'
_cell_length_a     25.688513
_cell_length_b     26.482877
_cell_length_c     50.790005
_cell_angle_alpha  90.442969
_cell_angle_beta   90.274541
_cell_angle_gamma 90.016603
loop_
_atom_site_label
_atom_site_type_symbol
_atom_site_fract_x
_atom_site_fract_y
_atom_site_fract_z
_atom_type_partial_charge
O0 O 0.02375 0.00698 0.07902 0.0
Zn1 Zn 0.05458 0.0057 0.04275 0.0
O2 O 0.00024 0.01183 0.01602 0.0
Zn3 Zn -0.00418 0.94811 0.99682 0.0
Zn4 Zn 0.9333 0.02618 0.03286 0.0
Zn5 Zn 0.0178 0.06603 0.99165 0.0
O6 O -0.00071 0.95938 0.95797 0.0
O7 O 0.02463 0.03935 0.9544 0.0
O8 O 0.09731 0.94213 0.0381 0.0
O9 O 0.05547 0.90236 0.00574 0.0
O10 O 0.92944 0.91178 0.00474 0.0
O11 O 0.88298 0.96872 0.0268 0.0
O12 O 0.90067 0.09015 0.01879 0.0
O13 O 0.10414 0.06391 0.04038 0.0
O14 O 0.96017 0.1175 0.9906 0.0
O15 O 0.08342 0.1026 0.00304 0.0
C16 C 0.97925 0.01987 0.08777 0.0
C17 C 0.0133 0.99667 0.94409 0.0
C18 C 0.88767 0.9253 0.01617 0.0
C19 C 0.0926 0.90477 0.02238 0.0
C20 C 0.91645 0.12224 0.00202 0.0
C21 C 0.1121 0.09813 0.02345 0.0
O22 O 0.94185 0.03132 0.07239 0.0
O23 O 0.55742 0.49063 0.56764 0.0
Zn24 Zn 0.57175 0.49499 0.52886 0.0
O25 O 0.50709 0.4998 0.50875 0.0
Zn26 Zn 0.49819 0.43886 0.48754 0.0
Zn27 Zn 0.4484 0.50684 0.53295 0.0
Zn28 Zn 0.51057 0.55804 0.48542 0.0
O29 O 0.49128 0.45523 0.44921 0.0
O30 O 0.51147 0.53674 0.44702 0.0
O31 O 0.61416 0.43463 0.51791 0.0
O32 O 0.56074 0.39422 0.49039 0.0
O33 O 0.43579 0.39894 0.49858 0.0
O34 O 0.39932 0.44794 0.52904 0.0
O35 O 0.40676 0.56951 0.52522 0.0
O36 O 0.61526 0.55699 0.52388 0.0
O37 O 0.44743 0.60135 0.4905 0.0
O38 O 0.57283 0.60193 0.49389 0.0
C39 C 0.51693 0.49821 0.58144 0.0
C40 C 0.50026 0.49475 0.43593 0.0
C41 C 0.39965 0.40796 0.51495 0.0
C42 C 0.60384 0.39755 0.50266 0.0
C43 C 0.4106 0.60235 0.50714 0.0
C44 C 0.61097 0.59616 0.50966 0.0
O45 O 0.47282 0.50736 0.57088 0.0
C46 C 0.88839 0.13926 0.42959 0.0
C47 C 0.89476 0.14653 0.45688 0.0
C48 C 0.92958 0.11566 0.47068 0.0
C49 C 0.95633 0.07701 0.45765 0.0
H50 H 0.02894 0.94097 0.471 0.0
H51 H 0.07996 0.88102 0.49647 0.0
H52 H 0.15231 0.82755 0.42475 0.0
H53 H 0.1008 0.88616 0.39945 0.0
H54 H 0.0601 0.92667 0.34427 0.0
H55 H 0.06205 0.92673 0.29623 0.0
H56 H 0.95083 0.04909 0.29545 0.0
H57 H 0.94825 0.04871 0.34308 0.0
H58 H 0.90935 0.09632 0.39553 0.0
H59 H 0.86317 0.16352 0.41817 0.0
H60 H 0.93554 0.12098 0.49166 0.0
H61 H 0.98261 0.05353 0.46893 0.0
N62 N 0.00447 0.99319 0.4303 0.0
N63 N 0.03064 0.95415 0.39094 0.0
N64 N 0.97734 0.0259 0.3898 0.0
C65 C 0.03097 0.95592 0.41771 0.0
C66 C 0.00375 0.98899 0.37683 0.0
C67 C 0.97761 0.02833 0.41651 0.0
C68 C 0.06063 0.91832 0.43311 0.0
C69 C 0.05539 0.91603 0.46064 0.0
C70 C 0.08454 0.88162 0.47527 0.0
C71 C 0.11952 0.84866 0.46281 0.0
C72 C 0.12475 0.85094 0.43523 0.0
C73 C 0.09537 0.88513 0.42058 0.0
C74 C 0.00388 0.98757 0.34763 0.0
C75 C 0.03561 0.95321 0.33385 0.0
C76 C 0.03679 0.95323 0.30633 0.0
C77 C 0.00592 0.98707 0.29195 0.0
C78 C 0.97405 0.02135 0.30571 0.0
C79 C 0.973 0.02151 0.33319 0.0
C80 C 0.94935 0.06914 0.43042 0.0
C81 C 0.91537 0.10097 0.41653 0.0
C82 C 0.87845 0.86665 0.60343 0.0
C83 C 0.88898 0.85155 0.5774 0.0
C84 C 0.93136 0.87295 0.56424 0.0
C85 C 0.96218 0.90963 0.57668 0.0
H86 H 0.02403 0.06671 0.56552 0.0
H87 H 0.06967 0.13538 0.5431 0.0
H88 H 0.17675 0.14745 0.60869 0.0
H89 H 0.1319 0.07966 0.63082 0.0
H90 H 0.08638 0.05335 0.68607 0.0
H91 H 0.09344 0.05602 0.73374 0.0
H92 H 0.9761 0.93963 0.73921 0.0
H93 H 0.96833 0.93742 0.69151 0.0
H94 H 0.90106 0.91309 0.63619 0.0
H95 H 0.84678 0.84985 0.6143 0.0
H96 H 0.94047 0.86145 0.54427 0.0
H97 H 0.99467 0.92553 0.56604 0.0
N98 N 0.0134 0.99583 0.60228 0.0
N99 N 0.049 0.02862 0.64138 0.0
N100 N 0.98975 0.96164 0.64312 0.0
C101 C 0.04508 0.02949 0.61476 0.0
C102 C 0.02156 0.995 0.65575 0.0
C103 C 0.98574 0.96167 0.61639 0.0
C104 C 0.07444 0.06776 0.59991 0.0
C105 C 0.05787 0.08357 0.57487 0.0
C106 C 0.08377 0.12287 0.5621 0.0
C107 C 0.1273 0.14603 0.57385 0.0
C108 C 0.1443 0.1295 0.59868 0.0
C109 C 0.11814 0.0909 0.61154 0.0
C110 C 0.02634 0.99547 0.68485 0.0
C111 C 0.06178 0.02843 0.69736 0.0
C112 C 0.06597 0.02998 0.72474 0.0
C113 C 0.03468 -0.00098 0.74037 0.0
C114 C -0.00016 0.96523 0.72794 0.0
C115 C -0.00431 0.96358 0.70046 0.0
C116 C 0.95198 0.92444 0.6028 0.0
C117 C 0.90986 0.90251 0.61605 0.0
C118 C 0.32385 0.60762 0.92313 0.0
C119 C 0.32934 0.62082 0.94978 0.0
C120 C 0.37199 0.60165 0.96407 0.0
C121 C 0.40912 0.57111 0.95157 0.0
H122 H 0.51525 0.44728 0.96273 0.0
H123 H 0.57524 0.39062 0.98551 0.0
H124 H 0.66316 0.3721 0.91379 0.0
H125 H 0.60413 0.4286 0.89122 0.0
H126 H 0.55175 0.45794 0.83669 0.0
H127 H 0.55395 0.46253 0.78898 0.0
H128 H 0.42207 0.56382 0.79003 0.0
H129 H 0.42025 0.55988 0.83781 0.0
H130 H 0.3558 0.56918 0.88989 0.0
H131 H 0.29121 0.62154 0.91169 0.0
H132 H 0.37682 0.61001 0.98482 0.0
H133 H 0.44195 0.55745 0.96293 0.0
N134 N 0.48013 0.50161 0.92392 0.0
N135 N 0.51892 0.47739 0.88397 0.0
N136 N 0.44727 0.53186 0.88389 0.0
C137 C 0.51722 0.47499 0.91071 0.0
C138 C 0.48407 0.50578 0.8704 0.0
C139 C 0.44497 0.53014 0.91056 0.0
C140 C 0.55484 0.44269 0.92511 0.0
C141 C 0.54779 0.43166 0.95192 0.0
C142 C 0.58207 0.39917 0.96498 0.0
C143 C 0.62457 0.37772 0.95171 0.0
C144 C 0.63189 0.38909 0.92497 0.0
C145 C 0.59748 0.42118 0.91187 0.0
C146 C 0.48565 0.50827 0.84122 0.0
C147 C 0.52303 0.48103 0.82678 0.0
C148 C 0.52397 0.48334 0.79926 0.0
C149 C 0.4873 0.51283 0.78555 0.0
C150 C 0.45053 0.5405 0.80001 0.0
C151 C 0.44953 0.53816 0.82745 0.0
C152 C 0.40447 0.55958 0.92458 0.0
C153 C 0.36106 0.57775 0.91062 0.0
C154 C 0.39454 0.36384 0.09334 0.0
C155 C 0.39383 0.36279 0.06561 0.0
C156 C 0.42982 0.39247 0.05196 0.0
C157 C 0.46524 0.42313 0.0656 0.0
H158 H 0.56777 0.54742 0.057 0.0
H159 H 0.62796 0.60421 0.03471 0.0
H160 H 0.72885 0.60354 0.10296 0.0
H161 H 0.66875 0.54722 0.12534 0.0
H162 H 0.60449 0.54151 0.17998 0.0
H163 H 0.60271 0.54892 0.22765 0.0
H164 H 0.47133 0.44702 0.22992 0.0
H165 H 0.4725 0.44022 0.18224 0.0
H166 H 0.42942 0.39415 0.12831 0.0
H167 H 0.36876 0.34031 0.10471 0.0
H168 H 0.43053 0.39203 0.03063 0.0
H169 H 0.49234 0.44555 0.05435 0.0
N170 N 0.53951 0.48399 0.09441 0.0
N171 N 0.57465 0.51392 0.13421 0.0
N172 N 0.5038 0.45827 0.13461 0.0
C173 C 0.57512 0.51262 0.10752 0.0
C174 C 0.53907 0.4871 0.14795 0.0
C175 C 0.50389 0.4564 0.10782 0.0
C176 C 0.61322 0.54344 0.09305 0.0
C177 C 0.60297 0.55917 0.06716 0.0
C178 C 0.63717 0.59199 0.05448 0.0
C179 C 0.68249 0.60898 0.06741 0.0
C180 C 0.69396 0.59119 0.0927 0.0
C181 C 0.65943 0.55919 0.10552 0.0
C182 C 0.53837 0.49048 0.17713 0.0
C183 C 0.57498 0.5208 0.19056 0.0
C184 C 0.57401 0.52513 0.21795 0.0
C185 C 0.53637 0.49958 0.23268 0.0
C186 C 0.50011 0.46856 0.21935 0.0
C187 C 0.50106 0.46421 0.19187 0.0
C188 C 0.46573 0.42451 0.09331 0.0
C189 C 0.4299 0.39451 0.10699 0.0
H190 H 0.17571 0.13038 0.04718 0.0
C191 C 0.15477 0.134 0.02861 0.0
H192 H 0.14645 0.17656 0.9938 0.0
H193 H 0.23919 0.37196 0.05046 0.0
H194 H 0.15238 0.39957 0.03816 0.0
H195 H 0.08993 0.34025 0.01762 0.0
H196 H 0.11397 0.25315 0.00905 0.0
C197 C 0.16775 0.17128 0.01211 0.0
C198 C 0.20797 0.20896 0.02013 0.0
C199 C 0.19326 0.2598 0.0248 0.0
C200 C 0.22897 0.29379 0.037 0.0
C201 C 0.21331 0.34438 0.04157 0.0
C202 C 0.16366 0.36076 0.03455 0.0
C203 C 0.12852 0.32737 0.02296 0.0
C204 C 0.14286 0.27742 0.01816 0.0
H205 H 0.36783 0.32051 0.03007 0.0
C206 C 0.35782 0.32967 0.05035 0.0
H207 H 0.29999 0.32218 0.07962 0.0
H208 H 0.25228 0.11788 0.00797 0.0
H209 H 0.33903 0.08987 0.02025 0.0
H210 H 0.39863 0.1464 0.04477 0.0
H211 H 0.37243 0.23136 0.05662 0.0
C212 C 0.31355 0.3108 0.06027 0.0
C213 C 0.27911 0.27679 0.0446 0.0
C214 C 0.29482 0.22665 0.03861 0.0
C215 C 0.2596 0.19317 0.02568 0.0
C216 C 0.27683 0.14405 0.01881 0.0
C217 C 0.3266 0.12764 0.02555 0.0
C218 C 0.36021 0.15953 0.03927 0.0
C219 C 0.34471 0.20843 0.04582 0.0
H220 H 0.16694 0.87022 0.03506 0.0
C221 C 0.13337 0.86547 0.02216 0.0
H222 H 0.09956 0.82264 0.99128 0.0
H223 H 0.31255 0.75007 0.94431 0.0
H224 H 0.29073 0.81736 0.91411 0.0
H225 H 0.21693 0.87445 0.92306 0.0
H226 H 0.16495 0.86492 0.96242 0.0
C227 C 0.13196 0.82664 0.00498 0.0
C228 C 0.1778 0.79345 0.00066 0.0
C229 C 0.20736 0.79917 0.97737 0.0
C230 C 0.24918 0.76565 0.97194 0.0
C231 C 0.27923 0.77338 0.94899 0.0
C232 C 0.26742 0.81215 0.93158 0.0
C233 C 0.22593 0.84433 0.93664 0.0
C234 C 0.19628 0.83828 0.95928 0.0
H235 H 0.2531 0.65908 0.95106 0.0
C236 C 0.29007 0.65535 0.96144 0.0
H237 H 0.33593 0.68525 0.99278 0.0
H238 H 0.12994 0.7731 0.04744 0.0
H239 H 0.15293 0.70665 0.07804 0.0
H240 H 0.22547 0.64836 0.06851 0.0
H241 H 0.27548 0.65609 0.02825 0.0
C242 C 0.29943 0.68645 0.98198 0.0
C243 C 0.26037 0.72551 0.98942 0.0
C244 C 0.23242 0.72121 0.01328 0.0
C245 C 0.19085 0.75512 0.01887 0.0
C246 C 0.16235 0.74887 0.0424 0.0
C247 C 0.17503 0.71078 0.06009 0.0
C248 C 0.21586 0.67793 0.05471 0.0
C249 C 0.24424 0.68277 0.03156 0.0
H250 H 0.80883 0.90188 0.02799 0.0
C251 C 0.84491 0.88881 0.01914 0.0
H252 H 0.88699 0.82568 0.00495 0.0
H253 H 0.71094 0.7293 0.08639 0.0
H254 H 0.7545 0.77759 0.12072 0.0
H255 H 0.827 0.83492 0.11007 0.0
H256 H 0.85507 0.84542 0.06506 0.0
C257 C 0.85137 0.83938 0.01398 0.0
C258 C 0.811 0.80159 0.02089 0.0
C259 C 0.79748 0.7937 0.04764 0.0
C260 C 0.75838 0.75797 0.05401 0.0
C261 C 0.74251 0.75378 0.0806 0.0
C262 C 0.76688 0.7816 0.1005 0.0
C263 C 0.80748 0.81406 0.09449 0.0
C264 C 0.82284 0.82011 0.06844 0.0
H265 H 0.75827 0.6466 0.06207 0.0
C266 C 0.71775 0.64668 0.05571 0.0
H267 H 0.66005 0.68752 0.03483 0.0
H268 H 0.82697 0.80823 0.96777 0.0
H269 H 0.78597 0.75688 0.93373 0.0
H270 H 0.72205 0.69114 0.94516 0.0
H271 H 0.69837 0.67661 0.99071 0.0
C272 C 0.70052 0.6852 0.04097 0.0
C273 C 0.73609 0.7272 0.03391 0.0
C274 C 0.74949 0.73507 0.00725 0.0
C275 C 0.78686 0.7725 0.00071 0.0
C276 C 0.79927 0.7799 0.97388 0.0
C277 C 0.77597 0.75075 0.95414 0.0
C278 C 0.73994 0.71375 0.96057 0.0
C279 C 0.72672 0.7058 0.98679 0.0
H280 H 0.89794 0.19098 0.97974 0.0
C281 C 0.88282 0.16475 0.9942 0.0
H282 H 0.81775 0.14514 0.01739 0.0
H283 H 0.72111 0.36624 0.00688 0.0
H284 H 0.74776 0.36709 0.05275 0.0
H285 H 0.7981 0.29641 0.07135 0.0
H286 H 0.82237 0.22452 0.04413 0.0
C287 C 0.83365 0.17025 0.00265 0.0
C288 C 0.79967 0.21085 0.99191 0.0
C289 C 0.78463 0.25192 0.00823 0.0
C290 C 0.75482 0.2923 0.99759 0.0
C291 C 0.7424 0.33391 0.01408 0.0
C292 C 0.75778 0.33504 0.04042 0.0
C293 C 0.78618 0.29528 0.05088 0.0
C294 C 0.79978 0.25421 0.03505 0.0
H295 H 0.64187 0.31988 0.98182 0.0
C296 C 0.65856 0.34113 0.96567 0.0
H297 H 0.72651 0.35416 0.94336 0.0
H298 H 0.81619 0.13464 0.95599 0.0
H299 H 0.78928 0.13351 0.91022 0.0
H300 H 0.73901 0.20416 0.89156 0.0
H301 H 0.7152 0.2762 0.9186 0.0
C302 C 0.70853 0.33293 0.95909 0.0
C303 C 0.73923 0.29093 0.97075 0.0
C304 C 0.75354 0.24939 0.95455 0.0
C305 C 0.78324 0.20904 0.96519 0.0
C306 C 0.79518 0.16713 0.94877 0.0
C307 C 0.77956 0.16575 0.92248 0.0
C308 C 0.75122 0.20548 0.91199 0.0
C309 C 0.73799 0.24674 0.92775 0.0
H310 H 0.63782 0.67485 0.5055 0.0
C311 C 0.64802 0.63814 0.51344 0.0
H312 H 0.70079 0.59672 0.53673 0.0
H313 H 0.81409 0.82213 0.51681 0.0
H314 H 0.81332 0.80113 0.47027 0.0
H315 H 0.77276 0.72218 0.4542 0.0
H316 H 0.73152 0.66449 0.48454 0.0
C317 C 0.69106 0.63318 0.52835 0.0
C318 C 0.72094 0.67795 0.53782 0.0
C319 C 0.74737 0.70976 0.51995 0.0
C320 C 0.77358 0.75369 0.5294 0.0
C321 C 0.79611 0.78687 0.51091 0.0
C322 C 0.79554 0.7755 0.48409 0.0
C323 C 0.7725 0.73118 0.47503 0.0
C324 C 0.74864 0.69855 0.49265 0.0
H325 H 0.87794 0.78487 0.55149 0.0
C326 C 0.85787 0.81162 0.56422 0.0
H327 H 0.78566 0.83498 0.57967 0.0
H328 H 0.67209 0.62629 0.57739 0.0
H329 H 0.67643 0.64508 0.62403 0.0
H330 H 0.7276 0.71745 0.64072 0.0
H331 H 0.774 0.77186 0.6108 0.0
C332 C 0.80612 0.8078 0.56737 0.0
C333 C 0.77622 0.76383 0.55687 0.0
C334 C 0.75036 0.7316 0.57475 0.0
C335 C 0.72218 0.68901 0.5652 0.0
C336 C 0.69521 0.65848 0.58349 0.0
C337 C 0.69719 0.6689 0.61039 0.0
C338 C 0.72589 0.70969 0.61977 0.0
C339 C 0.75225 0.74075 0.6023 0.0
H340 H 0.63319 0.3287 0.48353 0.0
C341 C 0.64325 0.35864 0.49745 0.0
H342 H 0.70309 0.3896 0.52157 0.0
H343 H 0.80127 0.16408 0.5107 0.0
H344 H 0.76742 0.15925 0.5551 0.0
H345 H 0.71708 0.22978 0.57422 0.0
H346 H 0.70003 0.30559 0.54887 0.0
C347 C 0.69154 0.36045 0.50756 0.0
C348 C 0.73072 0.32331 0.4984 0.0
C349 C 0.74197 0.28033 0.51378 0.0
C350 C 0.77186 0.24018 0.50291 0.0
C351 C 0.78004 0.19634 0.51817 0.0
C352 C 0.76055 0.19295 0.54366 0.0
C353 C 0.73212 0.23262 0.55442 0.0
C354 C 0.72259 0.27583 0.53968 0.0
H355 H 0.88466 0.20432 0.48824 0.0
C356 C 0.86627 0.18673 0.47116 0.0
H357 H 0.79845 0.18297 0.44749 0.0
H358 H 0.72226 0.40416 0.46542 0.0
H359 H 0.75827 0.4107 0.42146 0.0
H360 H 0.8104 0.34126 0.40249 0.0
H361 H 0.82679 0.26496 0.42733 0.0
C362 C 0.81802 0.2008 0.46413 0.0
C363 C 0.79128 0.244 0.47689 0.0
C364 C 0.78253 0.28841 0.46213 0.0
C365 C 0.75242 0.32827 0.47297 0.0
C366 C 0.74425 0.37238 0.4579 0.0
C367 C 0.76493 0.37674 0.43271 0.0
C368 C 0.79428 0.33765 0.42204 0.0
C369 C 0.80323 0.29398 0.43649 0.0
H370 H 0.3668 0.33156 0.51097 0.0
C371 C 0.3594 0.36924 0.51876 0.0
H372 H 0.30831 0.41565 0.54055 0.0
H373 H 0.19244 0.19221 0.51249 0.0
H374 H 0.19584 0.21746 0.46677 0.0
H375 H 0.23586 0.29844 0.4542 0.0
H376 H 0.27383 0.35406 0.48734 0.0
C377 C 0.3158 0.37823 0.53249 0.0
C378 C 0.28117 0.33589 0.5402 0.0
C379 C 0.25652 0.30528 0.52076 0.0
C380 C 0.23097 0.25995 0.52817 0.0
C381 C 0.21028 0.22815 0.50816 0.0
C382 C 0.21226 0.24204 0.48178 0.0
C383 C 0.23498 0.28753 0.47469 0.0
C384 C 0.25696 0.3189 0.49387 0.0
H385 H 0.12832 0.21534 0.5497 0.0
C386 C 0.15252 0.18955 0.56095 0.0
H387 H 0.22842 0.17263 0.57429 0.0
H388 H 0.32033 0.38864 0.58269 0.0
H389 H 0.31027 0.36739 0.6286 0.0
H390 H 0.26167 0.29132 0.64166 0.0
H391 H 0.22289 0.23608 0.60876 0.0
C392 C 0.20378 0.1986 0.56344 0.0
C393 C 0.22759 0.247 0.55515 0.0
C394 C 0.24894 0.2796 0.5747 0.0
C395 C 0.27607 0.32393 0.56722 0.0
C396 C 0.29856 0.35486 0.58716 0.0
C397 C 0.29323 0.34304 0.61367 0.0
C398 C 0.26589 0.30024 0.62101 0.0
C399 C 0.24396 0.26875 0.60187 0.0
H400 H 0.37434 0.66698 0.48752 0.0
C401 C 0.37036 0.64131 0.50402 0.0
H402 H 0.3222 0.61804 0.53533 0.0
H403 H 0.24929 0.84202 0.48356 0.0
H404 H 0.32796 0.87527 0.50352 0.0
H405 H 0.38684 0.82009 0.52884 0.0
H406 H 0.36761 0.73076 0.53374 0.0
C407 C 0.32796 0.64439 0.51932 0.0
C408 C 0.28537 0.67974 0.51209 0.0
C409 C 0.29524 0.73232 0.51089 0.0
C410 C 0.25991 0.76449 0.49748 0.0
C411 C 0.27328 0.81606 0.49454 0.0
C412 C 0.31864 0.83567 0.50577 0.0
C413 C 0.35189 0.80459 0.51994 0.0
C414 C 0.3406 0.75343 0.52247 0.0
H415 H 0.15381 0.82239 0.50041 0.0
C416 C 0.15172 0.81462 0.47936 0.0
H417 H 0.17528 0.76389 0.44925 0.0
H418 H 0.25107 0.58188 0.5147 0.0
H419 H 0.16872 0.5495 0.49823 0.0
H420 H 0.10525 0.60601 0.47683 0.0
H421 H 0.12405 0.69522 0.47157 0.0
C422 C 0.17912 0.77554 0.46967 0.0
C423 C 0.21325 0.74421 0.48664 0.0
C424 C 0.20101 0.69254 0.49024 0.0
C425 C 0.23721 0.66016 0.50293 0.0
C426 C 0.22484 0.60829 0.5054 0.0
C427 C 0.17765 0.5892 0.49605 0.0
C428 C 0.14194 0.621 0.48398 0.0
C429 C 0.15328 0.67208 0.48102 0.0
H430 H 0.93218 0.03303 0.12348 0.0
C431 C 0.96997 0.02053 0.11641 0.0
H432 H 0.04449 0.99341 0.12708 0.0
H433 H 0.03672 0.08052 0.24307 0.0
H434 H 0.09723 0.13883 0.223 0.0
H435 H 0.11241 0.13699 0.17508 0.0
H436 H 0.06696 0.07694 0.14693 0.0
C437 C 0.00612 0.00494 0.13373 0.0
C438 C -0.00361 0.0058 0.16255 0.0
C439 C 0.02388 0.04062 0.17876 0.0
C440 C 0.01556 0.04132 0.2064 0.0
C441 C 0.04239 0.07754 0.22203 0.0
C442 C 0.07703 0.11146 0.21074 0.0
C443 C 0.08554 0.11045 0.18376 0.0
C444 C 0.05928 0.07567 0.16785 0.0
H445 H 0.04488 0.97132 0.25399 0.0
C446 C 0.01003 0.98739 0.2628 0.0
H447 H 0.93597 0.0191 0.2545 0.0
H448 H 0.93992 0.93169 0.13737 0.0
H449 H 0.87881 0.87403 0.15744 0.0
H450 H 0.8631 0.87655 0.20532 0.0
H451 H 0.90874 0.93663 0.23343 0.0
C452 C 0.97296 0.00602 0.24681 0.0
C453 C 0.98033 0.00664 0.21781 0.0
C454 C 0.95237 0.97221 0.2016 0.0
C455 C 0.9608 0.97137 0.17395 0.0
C456 C 0.93402 0.93503 0.15837 0.0
C457 C 0.89905 0.90143 0.16967 0.0
C458 C 0.89025 0.9028 0.19663 0.0
C459 C 0.91664 0.93754 0.21252 0.0
H460 H 0.00397 0.9527 0.90745 0.0
C461 C 0.01484 0.98956 0.91534 0.0
H462 H 0.03654 0.06429 0.90603 0.0
H463 H 0.0766 0.92353 0.79751 0.0
H464 H 0.14559 0.88344 0.82251 0.0
H465 H 0.16102 0.90612 0.86912 0.0
H466 H 0.10693 0.96841 0.89107 0.0
C467 C 0.02742 0.02665 0.89869 0.0
C468 C 0.0235 0.01833 0.86976 0.0
C469 C 0.05703 0.98353 0.85693 0.0
C470 C 0.04967 0.97217 0.82977 0.0
C471 C 0.08174 0.93508 0.81783 0.0
C472 C 0.1213 0.91152 0.832 0.0
C473 C 0.12987 0.92415 0.85826 0.0
C474 C 0.09828 0.95972 0.87067 0.0
H475 H 0.07478 0.02178 0.7772 0.0
C476 C 0.0402 0.00304 0.76942 0.0
H477 H 0.96702 0.97225 0.77973 0.0
H478 H 0.95316 0.08762 0.88833 0.0
H479 H 0.88636 0.13015 0.86295 0.0
H480 H 0.87597 0.11314 0.81539 0.0
H481 H 0.93197 0.05312 0.79299 0.0
C482 C 0.00386 0.98767 0.78653 0.0
C483 C 0.01034 0.99741 0.81523 0.0
C484 C 0.97761 0.03305 0.82794 0.0
C485 C 0.98414 0.04346 0.85526 0.0
C486 C 0.95034 0.07863 0.86756 0.0
C487 C 0.91177 0.10333 0.85323 0.0
C488 C 0.90588 0.09371 0.82646 0.0
C489 C 0.93829 0.05907 0.81385 0.0
H490 H 0.56051 0.48812 0.6185 0.0
C491 C 0.52219 0.49605 0.61032 0.0
H492 H 0.44296 0.50952 0.61894 0.0
H493 H 0.45216 0.40609 0.7306 0.0
H494 H 0.40088 0.34521 0.70574 0.0
H495 H 0.38966 0.35348 0.65772 0.0
H496 H 0.42897 0.42314 0.63428 0.0
C497 C 0.48192 0.50328 0.62669 0.0
C498 C 0.48874 0.49882 0.65569 0.0
C499 C 0.46547 0.45787 0.66907 0.0
C500 C 0.47267 0.45262 0.69669 0.0
C501 C 0.44851 0.41162 0.70959 0.0
C502 C 0.41888 0.37641 0.69556 0.0
C503 C 0.41246 0.38113 0.66853 0.0
C504 C 0.43529 0.42132 0.65533 0.0
H505 H 0.46442 0.54772 0.74779 0.0
C506 C 0.48643 0.51677 0.75636 0.0
H507 H 0.52825 0.44988 0.74739 0.0
H508 H 0.5348 0.58447 0.63661 0.0
H509 H 0.58954 0.643 0.66106 0.0
H510 H 0.60691 0.63058 0.70838 0.0
H511 H 0.569 0.55994 0.73159 0.0
C512 C 0.50905 0.48336 0.73994 0.0
C513 C 0.50323 0.48826 0.71089 0.0
C514 C 0.52723 0.52879 0.69744 0.0
C515 C 0.51906 0.5347 0.66992 0.0
C516 C 0.54132 0.57698 0.65726 0.0
C517 C 0.57256 0.61112 0.67111 0.0
C518 C 0.58219 0.60422 0.69776 0.0
C519 C 0.5599 0.56365 0.71088 0.0
H520 H 0.48672 0.45417 0.39858 0.0
C521 C 0.49839 0.49034 0.40701 0.0
H522 H 0.52265 0.56485 0.39876 0.0
H523 H 0.56578 0.4249 0.29029 0.0
H524 H 0.6308 0.38182 0.31654 0.0
H525 H 0.6435 0.40356 0.36345 0.0
H526 H 0.59037 0.46767 0.38449 0.0
C527 C 0.51199 0.52799 0.39088 0.0
C528 C 0.51035 0.52063 0.36178 0.0
C529 C 0.54375 0.48499 0.34946 0.0
C530 C 0.53848 0.47452 0.32208 0.0
C531 C 0.56976 0.43614 0.31071 0.0
C532 C 0.60702 0.4108 0.32561 0.0
C533 C 0.61401 0.42287 0.35204 0.0
C534 C 0.58291 0.4595 0.36392 0.0
H535 H 0.5723 0.52208 0.27064 0.0
C536 C 0.53751 0.50554 0.26181 0.0
H537 H 0.46115 0.4798 0.26995 0.0
H538 H 0.44159 0.5924 0.3791 0.0
H539 H 0.37977 0.63885 0.35238 0.0
H540 H 0.37363 0.62379 0.30447 0.0
H541 H 0.42893 0.56188 0.28302 0.0
C542 C 0.49803 0.49313 0.27781 0.0
C543 C 0.50198 0.50194 0.30675 0.0
C544 C 0.46971 0.53864 0.31893 0.0
C545 C 0.47379 0.54789 0.34649 0.0
C546 C 0.4405 0.5842 0.3582 0.0
C547 C 0.4048 0.61113 0.3431 0.0
C548 C 0.40131 0.60262 0.31613 0.0
C549 C 0.43326 0.56689 0.30407 0.0
loop_
_geom_bond_atom_site_label_1
_geom_bond_atom_site_label_2
_geom_bond_distance
_geom_bond_site_symmetry_2
_ccdc_geom_bond_type
O0 Zn1 1.953 . S
O0 C16 1.225 1_565 S
Zn1 O0 1.953 . S
Zn1 O2 1.949 1_565 S
Zn1 O8 1.919 . S
Zn1 O13 1.924 1_565 S
O2 Zn1 1.949 1_545 S
O2 Zn3 1.923 1_444 S
O2 Zn4 1.950 1_455 S
O2 Zn5 1.945 1_554 S
Zn3 O2 1.923 1_666 S
Zn3 O6 1.933 . S
Zn3 O9 1.941 1_655 S
Zn3 O10 1.957 1_556 S
Zn4 O2 1.950 1_655 S
Zn4 O11 1.938 1_545 S
Zn4 O12 1.906 . S
Zn4 O22 1.953 . S
Zn5 O2 1.945 1_556 S
Zn5 O7 1.932 . S
Zn5 O14 1.977 1_455 S
Zn5 O15 1.910 1_556 S
O6 Zn3 1.933 . S
O6 C17 1.226 1_665 S
O7 Zn5 1.932 . S
O7 C17 1.307 . S
O8 Zn1 1.919 . S
O8 C19 1.253 . S
O9 Zn3 1.941 1_455 S
O9 C19 1.283 1_556 S
O10 Zn3 1.957 1_554 S
O10 C18 1.333 . S
O11 Zn4 1.938 1_565 S
O11 C18 1.247 . S
O12 Zn4 1.906 . S
O12 C20 1.304 . S
O13 Zn1 1.924 1_545 S
O13 C21 1.311 . S
O14 Zn5 1.977 1_655 S
O14 C20 1.272 1_556 S
O15 Zn5 1.910 1_554 S
O15 C21 1.231 . S
C16 O0 1.225 1_545 S
C16 O22 1.298 1_455 S
C17 O6 1.226 1_445 S
C17 O7 1.307 . S
C18 O10 1.333 . S
C18 O11 1.247 . S
C19 O8 1.253 . S
C19 O9 1.283 1_554 S
C20 O12 1.304 . S
C20 O14 1.272 1_554 S
C21 O13 1.311 . S
C21 O15 1.231 . S
O22 Zn4 1.953 . S
O22 C16 1.298 1_655 S
O23 Zn24 1.953 . S
O23 C39 1.225 . S
Zn24 O23 1.953 . S
Zn24 O25 1.949 . S
Zn24 O31 1.919 . S
Zn24 O36 1.924 . S
O25 Zn24 1.949 . S
O25 Zn26 1.923 . S
O25 Zn27 1.950 . S
O25 Zn28 1.945 . S
Zn26 O25 1.923 . S
Zn26 O29 1.933 . S
Zn26 O32 1.941 . S
Zn26 O33 1.965 . S
Zn27 O25 1.950 . S
Zn27 O34 1.938 . S
Zn27 O35 1.906 . S
Zn27 O45 1.953 . S
Zn28 O25 1.945 . S
Zn28 O30 1.932 . S
Zn28 O37 1.977 . S
Zn28 O38 1.910 . S
O29 Zn26 1.933 . S
O29 C40 1.226 . S
O30 Zn28 1.932 . S
O30 C40 1.307 . S
O31 Zn24 1.919 . S
O31 C42 1.253 . S
O32 Zn26 1.941 . S
O32 C42 1.283 . S
O33 Zn26 1.965 . S
O33 C41 1.303 . S
O34 Zn27 1.938 . S
O34 C41 1.247 . S
O35 Zn27 1.906 . S
O35 C43 1.304 . S
O36 Zn24 1.924 . S
O36 C44 1.311 . S
O37 Zn28 1.977 . S
O37 C43 1.272 . S
O38 Zn28 1.910 . S
O38 C44 1.231 . S
C39 O23 1.225 . S
C39 O45 1.298 . S
C40 O29 1.226 . S
C40 O30 1.307 . S
C41 O33 1.303 . S
C41 O34 1.247 . S
C42 O31 1.253 . S
C42 O32 1.283 . S
C43 O35 1.304 . S
C43 O37 1.272 . S
C44 O36 1.311 . S
C44 O38 1.231 . S
O45 Zn27 1.953 . S
O45 C39 1.298 . S
C46 C47 1.384 . S
C46 H59 0.947 . S
C46 C81 1.382 . S
C47 C46 1.384 . S
C47 C48 1.378 . S
C48 C47 1.378 . S
C48 C49 1.378 . S
C48 H60 0.952 . S
C49 C48 1.378 . S
C49 H61 0.950 . S
C49 C80 1.383 . S
H50 C69 0.947 . S
H51 C70 0.946 . S
H52 C72 0.953 . S
H53 C73 0.945 . S
H54 C75 0.952 . S
H55 C76 0.949 . S
H56 C78 0.950 . S
H57 C79 0.948 . S
H58 C81 0.951 . S
H59 C46 0.947 . S
H60 C48 0.952 . S
H61 C49 0.950 . S
N62 C65 1.382 1_545 S
N62 C67 1.363 1_455 S
N63 C65 1.371 . S
N63 C66 1.372 1_565 S
N64 C66 1.361 1_655 S
N64 C67 1.377 . S
C65 N62 1.382 1_565 S
C65 N63 1.371 . S
C65 C68 1.480 . S
C66 N63 1.372 1_545 S
C66 N64 1.361 1_455 S
C66 C74 1.457 . S
C67 N62 1.363 1_655 S
C67 N64 1.377 . S
C67 C80 1.479 . S
C68 C65 1.480 . S
C68 C69 1.383 . S
C68 C73 1.385 . S
C69 H50 0.947 . S
C69 C68 1.383 . S
C69 C70 1.388 . S
C70 H51 0.946 . S
C70 C69 1.388 . S
C70 C71 1.384 . S
C71 C70 1.384 . S
C71 C72 1.377 . S
C72 H52 0.953 . S
C72 C71 1.377 . S
C72 C73 1.369 . S
C73 H53 0.945 . S
C73 C68 1.385 . S
C73 C72 1.369 . S
C74 C66 1.457 . S
C74 C75 1.372 1_545 S
C74 C79 1.364 1_455 S
C75 H54 0.952 . S
C75 C74 1.372 1_565 S
C75 C76 1.389 . S
C76 H55 0.949 . S
C76 C75 1.389 . S
C76 C77 1.387 1_565 S
C77 C76 1.387 1_545 S
C77 C78 1.372 1_455 S
C78 H56 0.950 . S
C78 C77 1.372 1_655 S
C78 C79 1.379 . S
C79 H57 0.948 . S
C79 C74 1.364 1_655 S
C79 C78 1.379 . S
C80 C49 1.383 . S
C80 C67 1.479 . S
C80 C81 1.398 . S
C81 C46 1.382 . S
C81 H58 0.951 . S
C81 C80 1.398 . S
C82 C83 1.384 . S
C82 H95 0.947 . S
C82 C117 1.382 . S
C83 C82 1.384 . S
C83 C84 1.378 . S
C84 C83 1.378 . S
C84 C85 1.378 . S
C84 H96 0.952 . S
C85 C84 1.378 . S
C85 H97 0.950 . S
C85 C116 1.383 . S
H86 C105 0.947 . S
H87 C106 0.946 . S
H88 C108 0.953 . S
H89 C109 0.945 . S
H90 C111 0.952 . S
H91 C112 0.949 . S
H92 C114 0.950 . S
H93 C115 0.948 . S
H94 C117 0.951 . S
H95 C82 0.947 . S
H96 C84 0.952 . S
H97 C85 0.950 . S
N98 C101 1.382 1_565 S
N98 C103 1.363 1_455 S
N99 C101 1.371 . S
N99 C102 1.372 1_545 S
N100 C102 1.361 1_655 S
N100 C103 1.377 . S
C101 N98 1.382 1_545 S
C101 N99 1.371 . S
C101 C104 1.480 . S
C102 N99 1.372 1_565 S
C102 N100 1.361 1_455 S
C102 C110 1.457 . S
C103 N98 1.363 1_655 S
C103 N100 1.377 . S
C103 C116 1.479 . S
C104 C101 1.480 . S
C104 C105 1.383 . S
C104 C109 1.385 . S
C105 H86 0.947 . S
C105 C104 1.383 . S
C105 C106 1.388 . S
C106 H87 0.946 . S
C106 C105 1.388 . S
C106 C107 1.384 . S
C107 C106 1.384 . S
C107 C108 1.377 . S
C108 H88 0.953 . S
C108 C107 1.377 . S
C108 C109 1.369 . S
C109 H89 0.945 . S
C109 C104 1.385 . S
C109 C108 1.369 . S
C110 C102 1.457 . S
C110 C111 1.372 1_565 S
C110 C115 1.364 1_455 S
C111 H90 0.952 . S
C111 C110 1.372 1_545 S
C111 C112 1.389 . S
C112 H91 0.949 . S
C112 C111 1.389 . S
C112 C113 1.384 1_545 S
C113 C112 1.384 1_565 S
C113 C114 1.374 1_455 S
C114 H92 0.950 . S
C114 C113 1.374 1_655 S
C114 C115 1.379 . S
C115 H93 0.948 . S
C115 C110 1.364 1_655 S
C115 C114 1.379 . S
C116 C85 1.383 . S
C116 C103 1.479 . S
C116 C117 1.398 . S
C117 C82 1.382 . S
C117 H94 0.951 . S
C117 C116 1.398 . S
C118 C119 1.384 . S
C118 H131 0.947 . S
C118 C153 1.382 . S
C119 C118 1.384 . S
C119 C120 1.378 . S
C120 C119 1.378 . S
C120 C121 1.378 . S
C120 H132 0.952 . S
C121 C120 1.378 . S
C121 H133 0.950 . S
C121 C152 1.383 . S
H122 C141 0.947 . S
H123 C142 0.946 . S
H124 C144 0.953 . S
H125 C145 0.945 . S
H126 C147 0.952 . S
H127 C148 0.949 . S
H128 C150 0.950 . S
H129 C151 0.948 . S
H130 C153 0.951 . S
H131 C118 0.947 . S
H132 C120 0.952 . S
H133 C121 0.950 . S
N134 C137 1.382 . S
N134 C139 1.363 . S
N135 C137 1.371 . S
N135 C138 1.372 . S
N136 C138 1.361 . S
N136 C139 1.377 . S
C137 N134 1.382 . S
C137 N135 1.371 . S
C137 C140 1.480 . S
C138 N135 1.372 . S
C138 N136 1.361 . S
C138 C146 1.457 . S
C139 N134 1.363 . S
C139 N136 1.377 . S
C139 C152 1.479 . S
C140 C137 1.480 . S
C140 C141 1.383 . S
C140 C145 1.385 . S
C141 H122 0.947 . S
C141 C140 1.383 . S
C141 C142 1.388 . S
C142 H123 0.946 . S
C142 C141 1.388 . S
C142 C143 1.384 . S
C143 C142 1.384 . S
C143 C144 1.377 . S
C144 H124 0.953 . S
C144 C143 1.377 . S
C144 C145 1.369 . S
C145 H125 0.945 . S
C145 C140 1.385 . S
C145 C144 1.369 . S
C146 C138 1.457 . S
C146 C147 1.372 . S
C146 C151 1.364 . S
C147 H126 0.952 . S
C147 C146 1.372 . S
C147 C148 1.389 . S
C148 H127 0.949 . S
C148 C147 1.389 . S
C148 C149 1.387 . S
C149 C148 1.387 . S
C149 C150 1.372 . S
C150 H128 0.950 . S
C150 C149 1.372 . S
C150 C151 1.379 . S
C151 H129 0.948 . S
C151 C146 1.364 . S
C151 C150 1.379 . S
C152 C121 1.383 . S
C152 C139 1.479 . S
C152 C153 1.398 . S
C153 C118 1.382 . S
C153 H130 0.951 . S
C153 C152 1.398 . S
C154 C155 1.384 . S
C154 H167 0.947 . S
C154 C189 1.382 . S
C155 C154 1.384 . S
C155 C156 1.378 . S
C156 C155 1.378 . S
C156 C157 1.378 . S
C156 H168 0.952 . S
C157 C156 1.378 . S
C157 H169 0.950 . S
C157 C188 1.383 . S
H158 C177 0.947 . S
H159 C178 0.946 . S
H160 C180 0.953 . S
H161 C181 0.945 . S
H162 C183 0.952 . S
H163 C184 0.949 . S
H164 C186 0.950 . S
H165 C187 0.948 . S
H166 C189 0.951 . S
H167 C154 0.947 . S
H168 C156 0.952 . S
H169 C157 0.950 . S
N170 C173 1.382 . S
N170 C175 1.363 . S
N171 C173 1.371 . S
N171 C174 1.372 . S
N172 C174 1.361 . S
N172 C175 1.377 . S
C173 N170 1.382 . S
C173 N171 1.371 . S
C173 C176 1.480 . S
C174 N171 1.372 . S
C174 N172 1.361 . S
C174 C182 1.457 . S
C175 N170 1.363 . S
C175 N172 1.377 . S
C175 C188 1.479 . S
C176 C173 1.480 . S
C176 C177 1.383 . S
C176 C181 1.385 . S
C177 H158 0.947 . S
C177 C176 1.383 . S
C177 C178 1.388 . S
C178 H159 0.946 . S
C178 C177 1.388 . S
C178 C179 1.384 . S
C179 C178 1.384 . S
C179 C180 1.377 . S
C180 H160 0.953 . S
C180 C179 1.377 . S
C180 C181 1.369 . S
C181 H161 0.945 . S
C181 C176 1.385 . S
C181 C180 1.369 . S
C182 C174 1.457 . S
C182 C183 1.372 . S
C182 C187 1.364 . S
C183 H162 0.952 . S
C183 C182 1.372 . S
C183 C184 1.389 . S
C184 H163 0.949 . S
C184 C183 1.389 . S
C184 C185 1.387 . S
C185 C184 1.387 . S
C185 C186 1.372 . S
C186 H164 0.950 . S
C186 C185 1.372 . S
C186 C187 1.379 . S
C187 H165 0.948 . S
C187 C182 1.364 . S
C187 C186 1.379 . S
C188 C157 1.383 . S
C188 C175 1.479 . S
C188 C189 1.398 . S
C189 C154 1.382 . S
C189 H166 0.951 . S
C189 C188 1.398 . S
H190 C191 0.951 . S
C191 H190 0.951 . S
C191 C197 1.265 . S
H192 C197 0.950 . S
H193 C201 0.949 . S
H194 C202 0.950 . S
H195 C203 0.951 . S
H196 C204 0.951 . S
C197 C191 1.265 . S
C197 H192 0.950 . S
C197 C198 1.478 . S
C198 C197 1.478 . S
C198 C199 1.397 . S
C198 C215 1.394 . S
C199 C198 1.397 . S
C199 C200 1.438 . S
C199 C204 1.429 1_554 S
C200 C199 1.438 . S
C200 C201 1.428 . S
C200 C213 1.394 . S
C201 H193 0.949 . S
C201 C200 1.428 . S
C201 C202 1.345 1_554 S
C202 H194 0.950 . S
C202 C201 1.345 1_556 S
C202 C203 1.424 . S
C203 H195 0.951 . S
C203 C202 1.424 . S
C203 C204 1.347 . S
C204 H196 0.951 . S
C204 C199 1.429 1_556 S
C204 C203 1.347 . S
H205 C206 0.951 . S
C206 H205 0.951 . S
C206 C212 1.265 . S
H207 C212 0.950 . S
H208 C216 0.949 . S
H209 C217 0.950 . S
H210 C218 0.951 . S
H211 C219 0.951 . S
C212 C206 1.265 . S
C212 H207 0.950 . S
C212 C213 1.478 . S
C213 C200 1.394 . S
C213 C212 1.478 . S
C213 C214 1.397 . S
C214 C213 1.397 . S
C214 C215 1.438 . S
C214 C219 1.429 . S
C215 C198 1.394 . S
C215 C214 1.438 . S
C215 C216 1.428 . S
C216 H208 0.949 . S
C216 C215 1.428 . S
C216 C217 1.345 . S
C217 H209 0.950 . S
C217 C216 1.345 . S
C217 C218 1.424 . S
C218 H210 0.951 . S
C218 C217 1.424 . S
C218 C219 1.347 . S
C219 H211 0.951 . S
C219 C214 1.429 . S
C219 C218 1.347 . S
H220 C221 0.951 1_554 S
C221 H220 0.951 1_556 S
C221 C227 1.265 . S
H222 C227 0.950 . S
H223 C231 0.949 . S
H224 C232 0.950 . S
H225 C233 0.951 . S
H226 C234 0.951 . S
C227 C221 1.265 . S
C227 H222 0.950 . S
C227 C228 1.478 . S
C228 C227 1.478 . S
C228 C229 1.397 . S
C228 C245 1.394 1_556 S
C229 C228 1.397 . S
C229 C230 1.438 . S
C229 C234 1.429 . S
C230 C229 1.438 . S
C230 C231 1.428 . S
C230 C243 1.394 . S
C231 H223 0.949 . S
C231 C230 1.428 . S
C231 C232 1.345 . S
C232 H224 0.950 . S
C232 C231 1.345 . S
C232 C233 1.424 . S
C233 H225 0.951 . S
C233 C232 1.424 . S
C233 C234 1.347 . S
C234 H226 0.951 . S
C234 C229 1.429 . S
C234 C233 1.347 . S
H235 C236 0.951 . S
C236 H235 0.951 . S
C236 C242 1.265 . S
H237 C242 0.950 . S
H238 C246 0.949 . S
H239 C247 0.950 . S
H240 C248 0.951 . S
H241 C249 0.951 . S
C242 C236 1.265 . S
C242 H237 0.950 . S
C242 C243 1.478 . S
C243 C230 1.394 . S
C243 C242 1.478 . S
C243 C244 1.397 1_556 S
C244 C243 1.397 1_554 S
C244 C245 1.438 . S
C244 C249 1.429 . S
C245 C228 1.394 1_554 S
C245 C244 1.438 . S
C245 C246 1.428 . S
C246 H238 0.949 . S
C246 C245 1.428 . S
C246 C247 1.345 . S
C247 H239 0.950 . S
C247 C246 1.345 . S
C247 C248 1.424 . S
C248 H240 0.951 . S
C248 C247 1.424 . S
C248 C249 1.347 . S
C249 H241 0.951 . S
C249 C244 1.429 . S
C249 C248 1.347 . S
H250 C251 0.951 . S
C251 H250 0.951 . S
C251 C257 1.265 . S
H252 C257 0.950 . S
H253 C261 0.949 . S
H254 C262 0.950 . S
H255 C263 0.951 . S
H256 C264 0.951 . S
C257 C251 1.265 . S
C257 H252 0.950 . S
C257 C258 1.478 . S
C258 C257 1.478 . S
C258 C259 1.397 . S
C258 C275 1.394 . S
C259 C258 1.397 . S
C259 C260 1.438 . S
C259 C264 1.429 . S
C260 C259 1.438 . S
C260 C261 1.428 . S
C260 C273 1.394 . S
C261 H253 0.949 . S
C261 C260 1.428 . S
C261 C262 1.345 . S
C262 H254 0.950 . S
C262 C261 1.345 . S
C262 C263 1.424 . S
C263 H255 0.951 . S
C263 C262 1.424 . S
C263 C264 1.347 . S
C264 H256 0.951 . S
C264 C259 1.429 . S
C264 C263 1.347 . S
H265 C266 0.951 . S
C266 H265 0.951 . S
C266 C272 1.265 . S
H267 C272 0.950 . S
H268 C276 0.949 . S
H269 C277 0.950 . S
H270 C278 0.951 . S
H271 C279 0.951 . S
C272 C266 1.265 . S
C272 H267 0.950 . S
C272 C273 1.478 . S
C273 C260 1.394 . S
C273 C272 1.478 . S
C273 C274 1.397 . S
C274 C273 1.397 . S
C274 C275 1.438 . S
C274 C279 1.429 . S
C275 C258 1.394 . S
C275 C274 1.438 . S
C275 C276 1.431 1_554 S
C276 H268 0.949 . S
C276 C275 1.431 1_556 S
C276 C277 1.342 . S
C277 H269 0.950 . S
C277 C276 1.342 . S
C277 C278 1.424 . S
C278 H270 0.951 . S
C278 C277 1.424 . S
C278 C279 1.347 1_556 S
C279 H271 0.951 . S
C279 C274 1.429 . S
C279 C278 1.347 1_554 S
H280 C281 0.951 . S
C281 H280 0.951 . S
C281 C287 1.265 . S
H282 C287 0.950 1_554 S
H283 C291 0.949 . S
H284 C292 0.950 . S
H285 C293 0.951 . S
H286 C294 0.951 . S
C287 C281 1.265 . S
C287 H282 0.950 1_556 S
C287 C288 1.478 . S
C288 C287 1.478 . S
C288 C289 1.397 1_556 S
C288 C305 1.394 . S
C289 C288 1.397 1_554 S
C289 C290 1.438 1_554 S
C289 C294 1.429 . S
C290 C289 1.438 1_556 S
C290 C291 1.428 1_556 S
C290 C303 1.394 . S
C291 H283 0.949 . S
C291 C290 1.428 1_554 S
C291 C292 1.345 . S
C292 H284 0.950 . S
C292 C291 1.345 . S
C292 C293 1.424 . S
C293 H285 0.951 . S
C293 C292 1.424 . S
C293 C294 1.347 . S
C294 H286 0.951 . S
C294 C289 1.429 . S
C294 C293 1.347 . S
H295 C296 0.951 . S
C296 H295 0.951 . S
C296 C302 1.265 . S
H297 C302 0.950 . S
H298 C306 0.949 . S
H299 C307 0.950 . S
H300 C308 0.951 . S
H301 C309 0.951 . S
C302 C296 1.265 . S
C302 H297 0.950 . S
C302 C303 1.478 . S
C303 C290 1.394 . S
C303 C302 1.478 . S
C303 C304 1.397 . S
C304 C303 1.397 . S
C304 C305 1.438 . S
C304 C309 1.429 . S
C305 C288 1.394 . S
C305 C304 1.438 . S
C305 C306 1.428 . S
C306 H298 0.949 . S
C306 C305 1.428 . S
C306 C307 1.345 . S
C307 H299 0.950 . S
C307 C306 1.345 . S
C307 C308 1.424 . S
C308 H300 0.951 . S
C308 C307 1.424 . S
C308 C309 1.347 . S
C309 H301 0.951 . S
C309 C304 1.429 . S
C309 C308 1.347 . S
H310 C311 0.951 . S
C311 H310 0.951 . S
C311 C317 1.265 . S
H312 C317 0.950 . S
H313 C321 0.949 . S
H314 C322 0.950 . S
H315 C323 0.951 . S
H316 C324 0.951 . S
C317 C311 1.265 . S
C317 H312 0.950 . S
C317 C318 1.478 . S
C318 C317 1.478 . S
C318 C319 1.397 . S
C318 C335 1.394 . S
C319 C318 1.397 . S
C319 C320 1.438 . S
C319 C324 1.429 . S
C320 C319 1.438 . S
C320 C321 1.428 . S
C320 C333 1.394 . S
C321 H313 0.949 . S
C321 C320 1.428 . S
C321 C322 1.345 . S
C322 H314 0.950 . S
C322 C321 1.345 . S
C322 C323 1.424 . S
C323 H315 0.951 . S
C323 C322 1.424 . S
C323 C324 1.347 . S
C324 H316 0.951 . S
C324 C319 1.429 . S
C324 C323 1.347 . S
H325 C326 0.951 . S
C326 H325 0.951 . S
C326 C332 1.265 . S
H327 C332 0.950 . S
H328 C336 0.949 . S
H329 C337 0.950 . S
H330 C338 0.951 . S
H331 C339 0.951 . S
C332 C326 1.265 . S
C332 H327 0.950 . S
C332 C333 1.478 . S
C333 C320 1.394 . S
C333 C332 1.478 . S
C333 C334 1.397 . S
C334 C333 1.397 . S
C334 C335 1.438 . S
C334 C339 1.429 . S
C335 C318 1.394 . S
C335 C334 1.438 . S
C335 C336 1.428 . S
C336 H328 0.949 . S
C336 C335 1.428 . S
C336 C337 1.345 . S
C337 H329 0.950 . S
C337 C336 1.345 . S
C337 C338 1.424 . S
C338 H330 0.951 . S
C338 C337 1.424 . S
C338 C339 1.347 . S
C339 H331 0.951 . S
C339 C334 1.429 . S
C339 C338 1.347 . S
H340 C341 0.951 . S
C341 H340 0.951 . S
C341 C347 1.265 . S
H342 C347 0.950 . S
H343 C351 0.949 . S
H344 C352 0.950 . S
H345 C353 0.951 . S
H346 C354 0.951 . S
C347 C341 1.265 . S
C347 H342 0.950 . S
C347 C348 1.478 . S
C348 C347 1.478 . S
C348 C349 1.397 . S
C348 C365 1.394 . S
C349 C348 1.397 . S
C349 C350 1.438 . S
C349 C354 1.429 . S
C350 C349 1.438 . S
C350 C351 1.428 . S
C350 C363 1.394 . S
C351 H343 0.949 . S
C351 C350 1.428 . S
C351 C352 1.345 . S
C352 H344 0.950 . S
C352 C351 1.345 . S
C352 C353 1.424 . S
C353 H345 0.951 . S
C353 C352 1.424 . S
C353 C354 1.347 . S
C354 H346 0.951 . S
C354 C349 1.429 . S
C354 C353 1.347 . S
H355 C356 0.951 . S
C356 H355 0.951 . S
C356 C362 1.265 . S
H357 C362 0.950 . S
H358 C366 0.949 . S
H359 C367 0.950 . S
H360 C368 0.951 . S
H361 C369 0.951 . S
C362 C356 1.265 . S
C362 H357 0.950 . S
C362 C363 1.478 . S
C363 C350 1.394 . S
C363 C362 1.478 . S
C363 C364 1.397 . S
C364 C363 1.397 . S
C364 C365 1.438 . S
C364 C369 1.429 . S
C365 C348 1.394 . S
C365 C364 1.438 . S
C365 C366 1.428 . S
C366 H358 0.949 . S
C366 C365 1.428 . S
C366 C367 1.345 . S
C367 H359 0.950 . S
C367 C366 1.345 . S
C367 C368 1.424 . S
C368 H360 0.951 . S
C368 C367 1.424 . S
C368 C369 1.347 . S
C369 H361 0.951 . S
C369 C364 1.429 . S
C369 C368 1.347 . S
H370 C371 0.951 . S
C371 H370 0.951 . S
C371 C377 1.265 . S
H372 C377 0.950 . S
H373 C381 0.949 . S
H374 C382 0.950 . S
H375 C383 0.951 . S
H376 C384 0.951 . S
C377 C371 1.265 . S
C377 H372 0.950 . S
C377 C378 1.478 . S
C378 C377 1.478 . S
C378 C379 1.397 . S
C378 C395 1.394 . S
C379 C378 1.397 . S
C379 C380 1.438 . S
C379 C384 1.429 . S
C380 C379 1.438 . S
C380 C381 1.428 . S
C380 C393 1.394 . S
C381 H373 0.949 . S
C381 C380 1.428 . S
C381 C382 1.345 . S
C382 H374 0.950 . S
C382 C381 1.345 . S
C382 C383 1.424 . S
C383 H375 0.951 . S
C383 C382 1.424 . S
C383 C384 1.347 . S
C384 H376 0.951 . S
C384 C379 1.429 . S
C384 C383 1.347 . S
H385 C386 0.951 . S
C386 H385 0.951 . S
C386 C392 1.265 . S
H387 C392 0.950 . S
H388 C396 0.949 . S
H389 C397 0.950 . S
H390 C398 0.951 . S
H391 C399 0.951 . S
C392 C386 1.265 . S
C392 H387 0.950 . S
C392 C393 1.478 . S
C393 C380 1.394 . S
C393 C392 1.478 . S
C393 C394 1.397 . S
C394 C393 1.397 . S
C394 C395 1.438 . S
C394 C399 1.429 . S
C395 C378 1.394 . S
C395 C394 1.438 . S
C395 C396 1.428 . S
C396 H388 0.949 . S
C396 C395 1.428 . S
C396 C397 1.345 . S
C397 H389 0.950 . S
C397 C396 1.345 . S
C397 C398 1.424 . S
C398 H390 0.951 . S
C398 C397 1.424 . S
C398 C399 1.347 . S
C399 H391 0.951 . S
C399 C394 1.429 . S
C399 C398 1.347 . S
H400 C401 0.951 . S
C401 H400 0.951 . S
C401 C407 1.265 . S
H402 C407 0.950 . S
H403 C411 0.949 . S
H404 C412 0.950 . S
H405 C413 0.951 . S
H406 C414 0.951 . S
C407 C401 1.265 . S
C407 H402 0.950 . S
C407 C408 1.478 . S
C408 C407 1.478 . S
C408 C409 1.397 . S
C408 C425 1.394 . S
C409 C408 1.397 . S
C409 C410 1.438 . S
C409 C414 1.429 . S
C410 C409 1.438 . S
C410 C411 1.428 . S
C410 C423 1.394 . S
C411 H403 0.949 . S
C411 C410 1.428 . S
C411 C412 1.345 . S
C412 H404 0.950 . S
C412 C411 1.345 . S
C412 C413 1.424 . S
C413 H405 0.951 . S
C413 C412 1.424 . S
C413 C414 1.347 . S
C414 H406 0.951 . S
C414 C409 1.429 . S
C414 C413 1.347 . S
H415 C416 0.951 . S
C416 H415 0.951 . S
C416 C422 1.265 . S
H417 C422 0.950 . S
H418 C426 0.949 . S
H419 C427 0.950 . S
H420 C428 0.951 . S
H421 C429 0.951 . S
C422 C416 1.265 . S
C422 H417 0.950 . S
C422 C423 1.478 . S
C423 C410 1.394 . S
C423 C422 1.478 . S
C423 C424 1.397 . S
C424 C423 1.397 . S
C424 C425 1.438 . S
C424 C429 1.429 . S
C425 C408 1.394 . S
C425 C424 1.438 . S
C425 C426 1.428 . S
C426 H418 0.949 . S
C426 C425 1.428 . S
C426 C427 1.345 . S
C427 H419 0.950 . S
C427 C426 1.345 . S
C427 C428 1.424 . S
C428 H420 0.951 . S
C428 C427 1.424 . S
C428 C429 1.347 . S
C429 H421 0.951 . S
C429 C424 1.429 . S
C429 C428 1.347 . S
H430 C431 0.931 1_655 S
C431 H430 0.931 1_455 S
C431 C437 1.278 . S
H432 C437 0.950 . S
H433 C441 0.949 . S
H434 C442 0.950 . S
H435 C443 0.951 . S
H436 C444 0.951 . S
C437 C431 1.278 . S
C437 H432 0.950 . S
C437 C438 1.478 . S
C438 C437 1.478 . S
C438 C439 1.397 . S
C438 C455 1.394 1_445 S
C439 C438 1.397 . S
C439 C440 1.438 . S
C439 C444 1.429 . S
C440 C439 1.438 . S
C440 C441 1.428 . S
C440 C453 1.394 1_455 S
C441 H433 0.949 . S
C441 C440 1.428 . S
C441 C442 1.345 . S
C442 H434 0.950 . S
C442 C441 1.345 . S
C442 C443 1.424 . S
C443 H435 0.951 . S
C443 C442 1.424 . S
C443 C444 1.347 . S
C444 H436 0.951 . S
C444 C439 1.429 . S
C444 C443 1.347 . S
H445 C446 0.953 . S
C446 H445 0.953 . S
C446 C452 1.264 1_445 S
H447 C452 0.950 . S
H448 C456 0.949 . S
H449 C457 0.950 . S
H450 C458 0.951 . S
H451 C459 0.951 . S
C452 C446 1.264 1_665 S
C452 H447 0.950 . S
C452 C453 1.478 1_565 S
C453 C440 1.394 1_655 S
C453 C452 1.478 1_545 S
C453 C454 1.397 1_545 S
C454 C453 1.397 1_565 S
C454 C455 1.438 . S
C454 C459 1.429 . S
C455 C438 1.394 1_665 S
C455 C454 1.438 . S
C455 C456 1.428 . S
C456 H448 0.949 . S
C456 C455 1.428 . S
C456 C457 1.345 . S
C457 H449 0.950 . S
C457 C456 1.345 . S
C457 C458 1.424 . S
C458 H450 0.951 . S
C458 C457 1.424 . S
C458 C459 1.347 . S
C459 H451 0.951 . S
C459 C454 1.429 . S
C459 C458 1.347 . S
H460 C461 0.951 1_655 S
C461 H460 0.951 1_455 S
C461 C467 1.265 . S
H462 C467 0.950 1_565 S
H463 C471 0.949 . S
H464 C472 0.950 . S
H465 C473 0.951 . S
H466 C474 0.951 . S
C467 C461 1.265 . S
C467 H462 0.950 1_545 S
C467 C468 1.478 . S
C468 C467 1.478 . S
C468 C469 1.397 1_545 S
C468 C485 1.394 . S
C469 C468 1.397 1_565 S
C469 C470 1.438 . S
C469 C474 1.429 . S
C470 C469 1.438 . S
C470 C471 1.428 . S
C470 C483 1.394 1_565 S
C471 H463 0.949 . S
C471 C470 1.428 . S
C471 C472 1.345 . S
C472 H464 0.950 . S
C472 C471 1.345 . S
C472 C473 1.424 . S
C473 H465 0.951 . S
C473 C472 1.424 . S
C473 C474 1.347 . S
C474 H466 0.951 . S
C474 C469 1.429 . S
C474 C473 1.347 . S
H475 C476 0.950 1_565 S
C476 H475 0.950 1_545 S
C476 C482 1.265 1_455 S
H477 C482 0.950 . S
H478 C486 0.949 . S
H479 C487 0.950 . S
H480 C488 0.951 . S
H481 C489 0.951 . S
C482 C476 1.265 1_655 S
C482 H477 0.950 . S
C482 C483 1.478 1_655 S
C483 C470 1.394 1_545 S
C483 C482 1.478 1_455 S
C483 C484 1.397 1_455 S
C484 C483 1.397 1_655 S
C484 C485 1.438 1_655 S
C484 C489 1.429 . S
C485 C468 1.394 . S
C485 C484 1.438 1_455 S
C485 C486 1.428 1_455 S
C486 H478 0.949 . S
C486 C485 1.428 1_655 S
C486 C487 1.345 . S
C487 H479 0.950 . S
C487 C486 1.345 . S
C487 C488 1.424 . S
C488 H480 0.951 . S
C488 C487 1.424 . S
C488 C489 1.347 . S
C489 H481 0.951 . S
C489 C484 1.429 . S
C489 C488 1.347 . S
H490 C491 0.951 . S
C491 H490 0.951 . S
C491 C497 1.265 . S
H492 C497 0.950 . S
H493 C501 0.949 . S
H494 C502 0.950 . S
H495 C503 0.951 . S
H496 C504 0.951 . S
C497 C491 1.265 . S
C497 H492 0.950 . S
C497 C498 1.478 . S
C498 C497 1.478 . S
C498 C499 1.397 . S
C498 C515 1.394 . S
C499 C498 1.397 . S
C499 C500 1.438 . S
C499 C504 1.429 . S
C500 C499 1.438 . S
C500 C501 1.428 . S
C500 C513 1.394 . S
C501 H493 0.949 . S
C501 C500 1.428 . S
C501 C502 1.345 . S
C502 H494 0.950 . S
C502 C501 1.345 . S
C502 C503 1.424 . S
C503 H495 0.951 . S
C503 C502 1.424 . S
C503 C504 1.347 . S
C504 H496 0.951 . S
C504 C499 1.429 . S
C504 C503 1.347 . S
H505 C506 0.951 . S
C506 H505 0.951 . S
C506 C512 1.265 . S
H507 C512 0.950 . S
H508 C516 0.949 . S
H509 C517 0.950 . S
H510 C518 0.951 . S
H511 C519 0.951 . S
C512 C506 1.265 . S
C512 H507 0.950 . S
C512 C513 1.478 . S
C513 C500 1.394 . S
C513 C512 1.478 . S
C513 C514 1.397 . S
C514 C513 1.397 . S
C514 C515 1.438 . S
C514 C519 1.429 . S
C515 C498 1.394 . S
C515 C514 1.438 . S
C515 C516 1.428 . S
C516 H508 0.949 . S
C516 C515 1.428 . S
C516 C517 1.345 . S
C517 H509 0.950 . S
C517 C516 1.345 . S
C517 C518 1.424 . S
C518 H510 0.951 . S
C518 C517 1.424 . S
C518 C519 1.347 . S
C519 H511 0.951 . S
C519 C514 1.429 . S
C519 C518 1.347 . S
H520 C521 0.951 . S
C521 H520 0.951 . S
C521 C527 1.265 . S
H522 C527 0.950 . S
H523 C531 0.949 . S
H524 C532 0.950 . S
H525 C533 0.951 . S
H526 C534 0.951 . S
C527 C521 1.265 . S
C527 H522 0.950 . S
C527 C528 1.478 . S
C528 C527 1.478 . S
C528 C529 1.397 . S
C528 C545 1.394 . S
C529 C528 1.397 . S
C529 C530 1.438 . S
C529 C534 1.429 . S
C530 C529 1.438 . S
C530 C531 1.428 . S
C530 C543 1.394 . S
C531 H523 0.949 . S
C531 C530 1.428 . S
C531 C532 1.345 . S
C532 H524 0.950 . S
C532 C531 1.345 . S
C532 C533 1.424 . S
C533 H525 0.951 . S
C533 C532 1.424 . S
C533 C534 1.347 . S
C534 H526 0.951 . S
C534 C529 1.429 . S
C534 C533 1.347 . S
H535 C536 0.951 . S
C536 H535 0.951 . S
C536 C542 1.265 . S
H537 C542 0.950 . S
H538 C546 0.949 . S
H539 C547 0.950 . S
H540 C548 0.951 . S
H541 C549 0.951 . S
C542 C536 1.265 . S
C542 H537 0.950 . S
C542 C543 1.478 . S
C543 C530 1.394 . S
C543 C542 1.478 . S
C543 C544 1.397 . S
C544 C543 1.397 . S
C544 C545 1.438 . S
C544 C549 1.429 . S
C545 C528 1.394 . S
C545 C544 1.438 . S
C545 C546 1.428 . S
C546 H538 0.949 . S
C546 C545 1.428 . S
C546 C547 1.345 . S
C547 H539 0.950 . S
C547 C546 1.345 . S
C547 C548 1.424 . S
C548 H540 0.951 . S
C548 C547 1.424 . S
C548 C549 1.347 . S
C549 H541 0.951 . S
C549 C544 1.429 . S
C549 C548 1.347 . S
C206 C155 1.447 . S
C191 C21 1.458 . S
C221 C19 1.428 1_556 S
C236 C119 1.428 . S
C251 C18 1.366 . S
C266 C179 1.356 . S
C281 C20 1.406 1_556 S
C296 C143 1.423 . S
C311 C44 1.456 . S
C326 C83 1.440 . S
C341 C42 1.419 . S
C356 C47 1.426 . S
C386 C107 1.396 . S
C371 C41 1.420 . S
C416 C71 1.434 . S
C401 C43 1.432 . S
C431 C16 1.487 . S
C446 C77 1.469 . S
C461 C17 1.439 . S
C476 C113 1.438 1_545 S
C506 C149 1.485 . S
C491 C39 1.480 . S
C521 C40 1.439 . S
C536 C185 1.437 . S
