# Generated by pormake.
# Topology ftw, (4,12)-cn, num edge types: 1
# Building blocks:
#     Node 0, Type 0, BuildingBlock: MUDLON_clean_linker_0, # of connection points: 4
#     Node 1, Type 0, BuildingBlock: MUDLON_clean_linker_0, # of connection points: 4
#     Node 2, Type 0, BuildingBlock: MUDLON_clean_linker_0, # of connection points: 4
#     Node 3, Type 1, BuildingBlock: EZIPEK_clean_sbu_0, # of connection points: 12
#     Edge 4, Type (0, 1), BuildingBlock: XUDNAN_clean_linker_2, # of connection points: 2
#     Edge 5, Type (0, 1), BuildingBlock: XUDNAN_clean_linker_2, # of connection points: 2
#     Edge 6, Type (0, 1), BuildingBlock: XUDNAN_clean_linker_2, # of connection points: 2
#     Edge 7, Type (0, 1), BuildingBlock: XUDNAN_clean_linker_2, # of connection points: 2
#     Edge 8, Type (0, 1), BuildingBlock: XUDNAN_clean_linker_2, # of connection points: 2
#     Edge 9, Type (0, 1), BuildingBlock: XUDNAN_clean_linker_2, # of connection points: 2
#     Edge 10, Type (0, 1), BuildingBlock: XUDNAN_clean_linker_2, # of connection points: 2
#     Edge 11, Type (0, 1), BuildingBlock: XUDNAN_clean_linker_2, # of connection points: 2
#     Edge 12, Type (0, 1), BuildingBlock: XUDNAN_clean_linker_2, # of connection points: 2
#     Edge 13, Type (0, 1), BuildingBlock: XUDNAN_clean_linker_2, # of connection points: 2
#     Edge 14, Type (0, 1), BuildingBlock: XUDNAN_clean_linker_2, # of connection points: 2
#     Edge 15, Type (0, 1), BuildingBlock: XUDNAN_clean_linker_2, # of connection points: 2
# Relax obj value: 0.080
# Max RMSD: 0.225
# Mean RMSD: 0.171
data_MOF--net-ftw--node1-EZIPEK_clean_sbu_0--node2-MUDLON_clean_linker_0--edge1-XUDNAN_clean_linker_2
_symmetry_space_group_name_H-M    P1
_symmetry_Int_Tables_number       1
_symmetry_cell_setting            triclinic
loop_
_symmetry_equiv_pos_as_xyz
'x, y, z'
_cell_length_a     29.534098
_cell_length_b     32.128354
_cell_length_c     29.969625
_cell_angle_alpha  89.833993
_cell_angle_beta   89.916301
_cell_angle_gamma 90.055357
loop_
_atom_site_label
_atom_site_type_symbol
_atom_site_fract_x
_atom_site_fract_y
_atom_site_fract_z
_atom_type_partial_charge
H0 H 0.97805 0.70416 0.58566 0.0
N1 N 0.05658 0.70205 0.53722 0.0
H2 H 0.96503 0.74281 0.65503 0.0
H3 H 0.11367 0.75301 0.57864 0.0
H4 H 0.10115 0.79175 0.64793 0.0
H5 H 0.11905 0.72136 0.47643 0.0
H6 H 0.108 0.75776 0.40487 0.0
H7 H 0.97656 0.7328 0.50484 0.0
H8 H 0.96509 0.76745 0.43245 0.0
H9 H 0.98387 0.65869 0.50276 0.0
H10 H 0.10848 0.64452 0.57581 0.0
H11 H 0.97349 0.584 0.50244 0.0
H12 H 0.09662 0.56934 0.57895 0.0
H13 H 0.93501 0.386 0.59234 0.0
H14 H 0.92851 0.34891 0.66309 0.0
H15 H 0.06754 0.30833 0.6505 0.0
H16 H 0.07417 0.34809 0.58068 0.0
H17 H 0.08801 0.37043 0.50219 0.0
H18 H 0.10072 0.33069 0.43417 0.0
H19 H 0.95607 0.31808 0.41675 0.0
H20 H 0.94394 0.35973 0.48427 0.0
H21 H 0.94332 0.45019 0.5378 0.0
H22 H 0.95388 0.52544 0.54051 0.0
H23 H 0.09914 0.50744 0.54146 0.0
N24 N 0.00676 0.39128 0.53884 0.0
H25 H 0.0875 0.43221 0.54267 0.0
C26 C 0.0471 0.72539 0.57728 0.0
C27 C 0.00497 0.72328 0.59902 0.0
C28 C -0.00232 0.74534 0.63874 0.0
C29 C 0.03214 0.77033 0.65723 0.0
C30 C 0.07375 0.7732 0.63454 0.0
C31 C 0.08109 0.75088 0.59512 0.0
C32 C 0.04867 0.72373 0.49562 0.0
C33 C 0.08541 0.73153 0.4671 0.0
C34 C 0.07912 0.75235 0.42646 0.0
C35 C 0.03571 0.76514 0.41331 0.0
C36 C -0.00116 0.75767 0.44191 0.0
C37 C 0.00535 0.73772 0.48309 0.0
C38 C 0.04767 0.65764 0.53865 0.0
C39 C 0.00903 0.63969 0.51909 0.0
C40 C 0.00277 0.59643 0.51949 0.0
C41 C 0.0342 0.56979 0.54056 0.0
C42 C 0.07208 0.58817 0.56131 0.0
C43 C 0.07878 0.63138 0.56003 0.0
C44 C 0.00473 0.36939 0.58092 0.0
C45 C 0.96412 0.3693 0.60503 0.0
C46 C 0.96046 0.34762 0.6454 0.0
C47 C -0.00278 0.32462 0.66256 0.0
C48 C 0.03848 0.32565 0.63873 0.0
C49 C 0.04226 0.34805 0.59846 0.0
C50 C 0.01495 0.36817 0.49835 0.0
C51 C 0.05903 0.35956 0.48356 0.0
C52 C 0.06618 0.33637 0.44465 0.0
C53 C 0.02944 0.32066 0.41975 0.0
C54 C 0.98526 0.32993 0.43447 0.0
C55 C 0.9782 0.35344 0.47329 0.0
C56 C 0.0145 0.43561 0.53933 0.0
C57 C 0.97737 0.46268 0.53874 0.0
C58 C 0.98366 0.50588 0.53983 0.0
C59 C 0.02751 0.52332 0.54069 0.0
C60 C 0.06477 0.49575 0.5414 0.0
C61 C 0.0583 0.45245 0.54133 0.0
H62 H 0.47697 0.8816 0.30721 0.0
N63 N 0.52276 0.9168 0.37354 0.0
H64 H 0.4024 0.90144 0.27809 0.0
H65 H 0.46886 0.98077 0.40367 0.0
H66 H 0.39509 1.00059 0.37485 0.0
H67 H 0.53515 1.00027 0.35709 0.0
H68 H 0.60008 0.03253 0.32202 0.0
H69 H 0.59441 0.879 0.3382 0.0
H70 H 0.6588 0.91099 0.29965 0.0
H71 H 0.4989 0.85294 0.42534 0.0
H72 H 0.55389 0.97743 0.43128 0.0
H73 H 0.49562 0.85104 0.50729 0.0
H74 H 0.55154 0.97518 0.51161 0.0
H75 H 0.4467 0.88812 0.74371 0.0
H76 H 0.38249 0.92141 0.78106 0.0
H77 H 0.44119 0.0421 0.75287 0.0
H78 H 0.50579 1.0087 0.71855 0.0
H79 H 0.56432 0.89341 0.77495 0.0
H80 H 0.63871 0.91529 0.8027 0.0
H81 H 0.64577 1.00893 0.69922 0.0
H82 H 0.57201 0.98716 0.67182 0.0
H83 H 0.54198 0.85855 0.65853 0.0
H84 H 0.54485 0.85278 0.57681 0.0
H85 H 0.48848 0.97629 0.56525 0.0
N86 N 0.51832 0.92472 0.70647 0.0
H87 H 0.48658 0.98234 0.64541 0.0
C88 C 0.47853 0.92921 0.35778 0.0
C89 C 0.45909 0.90748 0.32214 0.0
C90 C 0.41669 0.91897 0.30549 0.0
C91 C 0.39284 0.95244 0.32439 0.0
C92 C 0.4123 0.97423 0.36011 0.0
C93 C 0.45472 0.96291 0.37654 0.0
C94 C 0.5599 0.93693 0.35058 0.0
C95 C 0.56188 0.98038 0.34484 0.0
C96 C 0.59918 0.99891 0.3243 0.0
C97 C 0.63493 0.97451 0.30765 0.0
C98 C 0.63249 0.93097 0.31275 0.0
C99 C 0.59549 0.91251 0.3343 0.0
C100 C 0.5266 0.91506 0.42163 0.0
C101 C 0.511 0.87944 0.44413 0.0
C102 C 0.50917 0.87839 0.4908 0.0
C103 C 0.52273 0.91321 0.51569 0.0
C104 C 0.54001 0.94818 0.49324 0.0
C105 C 0.54181 0.94925 0.44687 0.0
C106 C 0.48115 0.94561 0.72839 0.0
C107 C 0.44564 0.92174 0.746 0.0
C108 C 0.40877 0.9409 0.76688 0.0
C109 C 0.40647 0.98457 0.77006 0.0
C110 C 0.44206 1.00842 0.752 0.0
C111 C 0.47916 0.98924 0.73196 0.0
C112 C 0.56255 0.93816 0.72121 0.0
C113 C 0.58208 0.91853 0.75826 0.0
C114 C 0.62438 0.93119 0.77411 0.0
C115 C 0.64807 0.96375 0.75299 0.0
C116 C 0.62861 0.98336 0.71575 0.0
C117 C 0.58623 0.9709 0.70012 0.0
C118 C 0.51411 0.92064 0.6586 0.0
C119 C 0.52967 0.88406 0.63822 0.0
C120 C 0.53126 0.8808 0.59168 0.0
C121 C 0.51747 0.91433 0.56479 0.0
C122 C 0.50016 0.95025 0.58517 0.0
C123 C 0.49862 0.95351 0.63143 0.0
H124 H 0.48826 0.36089 0.08357 0.0
N125 N 0.5195 0.39177 1.00386 0.0
H126 H 0.41436 0.32815 0.09696 0.0
H127 H 0.45464 0.37668 0.94457 0.0
H128 H 0.38143 0.34197 0.95758 0.0
H129 H 0.53286 0.30907 0.99509 0.0
H130 H 0.59952 0.26893 1.01452 0.0
H131 H 0.59944 0.42112 0.04107 0.0
H132 H 0.66643 0.38148 0.05766 0.0
H133 H 0.50639 0.43023 0.08464 0.0
H134 H 0.53326 0.45276 0.94531 0.0
H135 H 0.50487 0.50463 0.09851 0.0
H136 H 0.53508 0.52769 0.95931 0.0
H137 H 0.45402 0.72069 0.11973 0.0
H138 H 0.38845 0.76437 0.10279 0.0
H139 H 0.43293 0.77294 0.96538 0.0
H140 H 0.4997 0.73234 0.98371 0.0
H141 H 0.57463 0.69497 0.99054 0.0
H142 H 0.64732 0.73013 0.97938 0.0
H143 H 0.63596 0.78526 0.1102 0.0
H144 H 0.56321 0.74982 0.12114 0.0
H145 H 0.54911 0.63856 0.11892 0.0
H146 H 0.55042 0.56375 0.10454 0.0
H147 H 0.48998 0.5854 0.97518 0.0
N148 N 0.52098 0.69899 0.06521 0.0
H149 H 0.49146 0.65959 0.98867 0.0
C150 C 0.47651 0.372 1.01306 0.0
C151 C 0.4648 0.35782 0.05609 0.0
C152 C 0.42288 0.33883 0.06367 0.0
C153 C 0.39261 0.33288 0.02826 0.0
C154 C 0.40445 0.34642 0.98528 0.0
C155 C 0.44598 0.36617 0.97787 0.0
C156 C 0.55912 0.36829 1.01826 0.0
C157 C 0.56127 0.32517 1.00997 0.0
C158 C 0.59996 0.30216 1.02043 0.0
C159 C 0.63851 0.32175 0.03807 0.0
C160 C 0.63703 0.36495 0.04542 0.0
C161 C 0.59811 0.38789 0.03567 0.0
C162 C 0.51892 0.43584 1.01351 0.0
C163 C 0.51167 0.45116 0.05688 0.0
C164 C 0.51165 0.49397 0.06492 0.0
C165 C 0.51977 0.5225 0.03006 0.0
C166 C 0.5277 0.5069 0.98687 0.0
C167 C 0.52702 0.46408 0.97876 0.0
C168 C 0.48156 0.72299 0.05313 0.0
C169 C 0.44936 0.7321 0.08601 0.0
C170 C 0.41168 0.75677 0.07606 0.0
C171 C 0.40507 0.77244 0.03261 0.0
C172 C 0.43709 0.76236 0.99945 0.0
C173 C 0.47522 0.73854 1.00972 0.0
C174 C 0.56371 0.71948 0.05705 0.0
C175 C 0.58778 0.71449 1.01687 0.0
C176 C 0.6294 0.73454 1.01056 0.0
C177 C 0.64742 0.76037 0.04397 0.0
C178 C 0.62281 0.76586 0.0837 0.0
C179 C 0.58146 0.7455 0.09013 0.0
C180 C 0.51968 0.65496 0.05548 0.0
C181 C 0.53615 0.627 0.08751 0.0
C182 C 0.53655 0.5842 0.07927 0.0
C183 C 0.51999 0.56823 0.03873 0.0
C184 C 0.50357 0.59638 1.00655 0.0
C185 C 0.50384 0.63921 1.01457 0.0
C186 C 0.01306 0.14979 0.9333 0.0
C187 C 0.02496 0.14172 0.15227 0.0
C188 C 0.02589 0.94811 0.92619 0.0
C189 C 0.02194 0.94056 0.14365 0.0
C190 C 0.13674 0.95175 0.02756 0.0
C191 C 0.12647 0.15114 0.04635 0.0
C192 C 0.91635 0.94137 0.03316 0.0
C193 C 0.90764 0.14198 0.04428 0.0
C194 C 0.90813 0.04383 0.14191 0.0
C195 C 0.12762 0.03634 0.14888 0.0
C196 C 0.916 0.04069 0.92724 0.0
C197 C 0.13495 0.05762 0.93538 0.0
Eu198 Eu 0.01806 0.12552 0.0421 0.0
O199 O 0.05807 0.08306 0.08134 0.0
O200 O 0.98195 0.08316 0.99883 0.0
Eu201 Eu 0.10589 0.04983 0.04135 0.0
Eu202 Eu 0.93732 0.04295 0.03561 0.0
O203 O 0.06081 0.08656 1.00126 0.0
O204 O 0.97913 0.07997 0.0786 0.0
Eu205 Eu 0.02472 0.04865 0.95361 0.0
Eu206 Eu 0.01873 0.04213 0.12323 0.0
O207 O 0.06438 1.01182 0.99896 0.0
O208 O 0.06197 1.00861 0.07806 0.0
O209 O 0.98204 1.00526 0.07554 0.0
O210 O 0.98553 1.00876 0.99653 0.0
Eu211 Eu 0.02562 0.96628 0.0357 0.0
O212 O 0.01194 0.16182 0.97614 0.0
O213 O 0.02188 0.15735 0.11079 0.0
O214 O 0.02446 0.93421 0.96828 0.0
O215 O 0.02512 0.92912 0.10081 0.0
O216 O 0.14705 0.99199 0.03041 0.0
O217 O 0.14147 0.11199 0.04752 0.0
O218 O 0.90142 0.98055 0.03512 0.0
O219 O 0.89614 0.1026 0.03577 0.0
O220 O 0.95014 0.04227 0.15833 0.0
O221 O 0.08437 0.03667 0.16185 0.0
O222 O 0.95919 0.0437 0.91432 0.0
O223 O 0.09331 0.05246 0.91894 0.0
O224 O 0.95981 0.92978 0.03256 0.0
O225 O 0.09521 0.93528 0.03092 0.0
O226 O 0.94968 0.15632 0.04944 0.0
O227 O 0.08322 0.16278 0.04328 0.0
O228 O 0.02399 0.10143 0.16313 0.0
O229 O 0.01867 0.97962 0.15836 0.0
O230 O 0.01813 0.11088 0.91866 0.0
O231 O 0.02789 0.98816 0.91387 0.0
O232 O 0.146 0.05904 0.97836 0.0
O233 O 0.14226 0.04131 0.10706 0.0
O234 O 0.90152 0.04074 0.96937 0.0
O235 O 0.89684 0.04398 0.09898 0.0
H236 H 0.98073 0.31567 0.34013 0.0
H237 H 0.09562 0.26171 0.40979 0.0
H238 H 0.10952 0.21543 0.34621 0.0
H239 H 0.94078 0.21978 0.29358 0.0
H240 H 0.92337 0.24222 0.24116 0.0
H241 H 0.92373 0.27359 0.29087 0.0
H242 H 0.97586 0.32719 0.25152 0.0
H243 H 0.97583 0.29582 0.20174 0.0
H244 H 0.02867 0.31011 0.22755 0.0
H245 H 0.10928 0.17211 0.2783 0.0
H246 H 0.0938 0.13273 0.20962 0.0
H247 H 0.97909 0.21267 0.18118 0.0
C248 C 0.00886 0.29418 0.34204 0.0
C249 C 0.03746 0.29307 0.38017 0.0
C250 C 0.07386 0.26429 0.38089 0.0
C251 C 0.08193 0.23754 0.3449 0.0
C252 C 0.05336 0.23957 0.30805 0.0
C253 C 0.01747 0.26699 0.30619 0.0
C254 C 0.99102 0.26131 0.26298 0.0
C255 C 0.94181 0.24846 0.27274 0.0
C256 C 0.99297 0.30098 0.23425 0.0
C257 C 0.01734 0.22599 0.24131 0.0
C258 C 0.0533 0.21427 0.26807 0.0
C259 C 0.08153 0.18126 0.25687 0.0
C260 C 0.07246 0.15908 0.21778 0.0
C261 C 0.03563 0.16992 0.18989 0.0
C262 C 0.00804 0.20431 0.20142 0.0
H263 H 0.72489 0.95006 0.30727 0.0
H264 H 0.63356 0.04384 0.25389 0.0
H265 H 0.69737 0.07742 0.21562 0.0
H266 H 0.82543 1.01589 0.31945 0.0
H267 H 0.86361 0.97599 0.3003 0.0
H268 H 0.81203 0.96181 0.3288 0.0
H269 H 0.78842 0.9156 0.2619 0.0
H270 H 0.84012 0.92927 0.23358 0.0
H271 H 0.78638 0.93808 0.20675 0.0
H272 H 0.76806 0.09771 0.178 0.0
H273 H 0.84101 0.10008 0.13798 0.0
H274 H 0.88745 0.99234 0.21227 0.0
C275 C 0.71816 0.97769 0.28766 0.0
C276 C 0.67398 0.99459 0.2845 0.0
C277 C 0.66706 0.03086 0.25827 0.0
C278 C 0.70315 0.05018 0.23614 0.0
C279 C 0.74606 0.03278 0.24011 0.0
C280 C 0.75377 0.99712 0.26475 0.0
C281 C 0.80241 0.98264 0.25984 0.0
C282 C 0.82734 0.98419 0.30479 0.0
C283 C 0.80443 0.93882 0.23928 0.0
C284 C 0.82049 1.01533 0.22786 0.0
C285 C 0.78741 0.04426 0.21754 0.0
C286 C 0.79448 0.07569 0.18627 0.0
C287 C 0.83593 0.07683 0.1638 0.0
C288 C 0.86973 0.0468 0.17278 0.0
C289 C 0.86249 1.01633 0.20599 0.0
H290 H 0.0637 0.8425 0.38613 0.0
H291 H 0.99224 0.73249 0.34152 0.0
H292 H 0.98277 0.76427 0.26657 0.0
H293 H 0.99239 0.91595 0.32708 0.0
H294 H 0.03821 0.95122 0.31456 0.0
H295 H 0.04051 0.91912 0.36387 0.0
H296 H 0.11785 0.88957 0.33801 0.0
H297 H 0.11556 0.92146 0.28853 0.0
H298 H 0.12245 0.86591 0.28372 0.0
H299 H 0.98389 0.80742 0.19549 0.0
H300 H 0.98835 0.86128 0.13632 0.0
H301 H 0.0544 0.94501 0.22908 0.0
C302 C 0.04611 0.82526 0.36044 0.0
C303 C 0.02884 0.78504 0.36918 0.0
C304 C 0.00561 0.76336 0.33518 0.0
C305 C 0.00027 0.7811 0.2926 0.0
C306 C 0.01783 0.8208 0.28482 0.0
C307 C 0.03973 0.84287 0.318 0.0
C308 C 0.05371 0.88569 0.30156 0.0
C309 C 0.02977 0.92002 0.32836 0.0
C310 C 0.10546 0.89095 0.30304 0.0
C311 C 0.03662 0.88415 0.25391 0.0
C312 C 0.01652 0.84629 0.2447 0.0
C313 C -0.00072 0.83728 0.20246 0.0
C314 C 0.00215 0.86795 0.16899 0.0
C315 C 0.02144 0.90737 0.17815 0.0
C316 C 0.039 0.91532 0.2212 0.0
H317 H 0.36833 0.96076 0.2367 0.0
H318 H 0.31674 0.9734 0.37163 0.0
H319 H 0.24315 0.99711 0.3417 0.0
H320 H 0.31448 0.05044 0.19156 0.0
H321 H 0.30247 1.0269 0.13835 0.0
H322 H 0.35058 1.0098 0.17033 0.0
H323 H 0.3208 0.93383 0.16812 0.0
H324 H 0.27279 0.95069 0.13582 0.0
H325 H 0.26419 0.9227 0.18734 0.0
H326 H 0.17502 1.01919 0.29673 0.0
H327 H 0.11795 0.03852 0.24014 0.0
H328 H 0.21534 1.01217 0.13516 0.0
C329 C 0.34138 0.96802 0.25994 0.0
C330 C 0.34818 0.96521 0.30648 0.0
C331 C 0.31233 0.9757 0.33584 0.0
C332 C 0.2704 0.98901 0.31918 0.0
C333 C 0.26497 0.99174 0.2731 0.0
C334 C 0.29946 0.98149 0.24391 0.0
C335 C 0.28522 0.98775 0.19589 0.0
C336 C 0.31496 1.02069 0.17269 0.0
C337 C 0.28577 0.94628 0.1703 0.0
C338 C 0.23742 1.00335 0.20266 0.0
C339 C 0.2262 1.00522 0.24736 0.0
C340 C 0.18348 1.01801 0.26161 0.0
C341 C 0.15131 0.02894 0.22922 0.0
C342 C 0.16221 1.02725 0.18318 0.0
C343 C 0.206 1.01445 0.17003 0.0
H344 H 0.05777 0.8501 0.68143 0.0
H345 H 0.99231 0.73868 0.73252 0.0
H346 H 0.98371 0.77216 0.80601 0.0
H347 H 0.12004 0.87501 0.78109 0.0
H348 H 0.11255 0.93046 0.77579 0.0
H349 H 0.11329 0.89825 0.72668 0.0
H350 H 0.03488 0.92706 0.70336 0.0
H351 H 0.03405 0.95954 0.75226 0.0
H352 H 0.98812 0.92386 0.74197 0.0
H353 H 0.98481 0.81624 0.87475 0.0
H354 H 0.99121 0.86958 0.93323 0.0
H355 H 0.05425 0.95396 0.83816 0.0
C356 C 0.04168 0.83273 0.7081 0.0
C357 C 0.02558 0.79167 0.70101 0.0
C358 C 0.00434 0.77027 0.73679 0.0
C359 C -0.00042 0.78894 0.77881 0.0
C360 C 0.01599 0.82924 0.7847 0.0
C361 C 0.03631 0.85109 0.75031 0.0
C362 C 0.05054 0.89424 0.76562 0.0
C363 C 0.10217 0.8998 0.76208 0.0
C364 C 0.02539 0.92818 0.73923 0.0
C365 C 0.03523 0.8931 0.81401 0.0
C366 C 0.01569 0.85516 0.82429 0.0
C367 C -0.00013 0.84612 0.86703 0.0
C368 C 0.00389 0.87666 0.90014 0.0
C369 C 0.02324 0.9161 0.89047 0.0
C370 C 0.03901 0.9243 0.84663 0.0
H371 H 0.31626 0.96097 0.77127 0.0
H372 H 0.40905 0.05466 0.82202 0.0
H373 H 0.34588 0.08927 0.86009 0.0
H374 H 0.21676 1.02801 0.75786 0.0
H375 H 0.17785 0.9889 0.77787 0.0
H376 H 0.22906 0.97362 0.74953 0.0
H377 H 0.25204 0.92786 0.81714 0.0
H378 H 0.20064 0.94247 0.84529 0.0
H379 H 0.25457 0.95085 0.87188 0.0
H380 H 0.27571 0.11033 0.89818 0.0
H381 H 0.20292 0.11369 0.93848 0.0
H382 H 0.15468 1.00613 0.86558 0.0
C383 C 0.32339 0.98883 0.79023 0.0
C384 C 0.3678 1.00536 0.79284 0.0
C385 C 0.37534 0.04192 0.8182 0.0
C386 C 0.33963 0.06182 0.84017 0.0
C387 C 0.29647 0.04477 0.83679 0.0
C388 C 0.28814 1.00893 0.81284 0.0
C389 C 0.23927 0.9951 0.81806 0.0
C390 C 0.21427 0.99651 0.77315 0.0
C391 C 0.23649 0.9515 0.83937 0.0
C392 C 0.22184 0.02832 0.8495 0.0
C393 C 0.25537 0.05695 0.85931 0.0
C394 C 0.2489 0.08861 0.89026 0.0
C395 C 0.20755 0.09031 0.9129 0.0
C396 C 0.17326 0.06064 0.90436 0.0
C397 C 0.17996 0.02995 0.87146 0.0
H398 H 0.06009 0.30685 0.72966 0.0
H399 H 0.92139 0.28181 0.68937 0.0
H400 H 0.90966 0.24075 0.75751 0.0
H401 H 0.08094 0.20389 0.7728 0.0
H402 H 0.11583 0.22133 0.81838 0.0
H403 H 0.11294 0.2515 0.76773 0.0
H404 H 0.0886 0.31604 0.81339 0.0
H405 H 0.09097 0.2859 0.86416 0.0
H406 H 0.03962 0.31278 0.84921 0.0
H407 H 0.91231 0.20071 0.82843 0.0
H408 H 0.93162 0.15937 0.89539 0.0
H409 H 0.06915 0.2062 0.89022 0.0
C410 C 0.02725 0.29272 0.73501 0.0
C411 C 0.99141 0.29871 0.70404 0.0
C412 C 0.9491 0.27926 0.71281 0.0
C413 C 0.94207 0.25548 0.75148 0.0
C414 C 0.97772 0.25076 0.78136 0.0
C415 C 0.01967 0.26836 0.77351 0.0
C416 C 0.05278 0.25639 0.81027 0.0
C417 C 0.093 0.23181 0.79115 0.0
C418 C 0.06894 0.29509 0.83576 0.0
C419 C 0.02292 0.22898 0.83959 0.0
C420 C 0.97958 0.2267 0.82237 0.0
C421 C 0.94599 0.20254 0.84245 0.0
C422 C 0.95714 0.17938 0.88058 0.0
C423 C 0.00141 0.18046 0.89839 0.0
C424 C 0.03471 0.20582 0.87786 0.0
H425 H 0.67159 0.97739 0.83994 0.0
H426 H 0.72474 0.98196 0.70499 0.0
H427 H 0.79879 1.00555 0.73413 0.0
H428 H 0.73027 0.06828 0.88067 0.0
H429 H 0.74005 0.04619 0.93515 0.0
H430 H 0.69116 0.03065 0.90341 0.0
H431 H 0.71555 0.95344 0.91028 0.0
H432 H 0.76463 0.96871 0.94182 0.0
H433 H 0.77126 0.93817 0.89191 0.0
H434 H 0.86818 1.02603 0.77901 0.0
H435 H 0.92651 0.04176 0.83568 0.0
H436 H 0.82604 1.02442 0.94023 0.0
C437 C 0.69887 0.98315 0.81652 0.0
C438 C 0.69253 0.97778 0.77024 0.0
C439 C 0.72885 0.98623 0.74059 0.0
C440 C 0.77099 0.99952 0.75681 0.0
C441 C 0.77608 1.00449 0.80271 0.0
C442 C 0.74092 0.99664 0.83209 0.0
C443 C 0.75508 1.00392 0.87986 0.0
C444 C 0.7275 0.03938 0.901 0.0
C445 C 0.75141 0.96365 0.90757 0.0
C446 C 0.80388 1.01653 0.87287 0.0
C447 C 0.8155 1.01681 0.82823 0.0
C448 C 0.85935 1.0262 0.81407 0.0
C449 C 0.89226 0.0351 0.84651 0.0
C450 C 0.881 0.03454 0.89251 0.0
C451 C 0.83598 1.02556 0.90545 0.0
H452 H 0.36763 0.25534 1.0015 0.0
H453 H 0.31987 0.36394 0.07268 0.0
H454 H 0.24549 0.32963 0.08466 0.0
H455 H 0.26332 0.22908 0.94685 0.0
H456 H 0.27057 0.17371 0.95335 0.0
H457 H 0.31942 0.20712 0.94953 0.0
H458 H 0.34916 0.1781 1.02474 0.0
H459 H 0.30053 0.14441 0.0286 0.0
H460 H 0.31323 0.17985 0.0734 0.0
H461 H 0.17565 0.28422 0.08598 0.0
H462 H 0.11737 0.22892 0.08214 0.0
H463 H 0.21312 0.14831 1.01463 0.0
C464 C 0.34132 0.27173 1.01952 0.0
C465 C 0.34881 0.31218 0.03601 0.0
C466 C 0.31425 0.33287 0.05986 0.0
C467 C 0.27209 0.31369 0.06668 0.0
C468 C 0.26556 0.27369 0.0499 0.0
C469 C 0.2994 0.25275 1.02727 0.0
C470 C 0.28425 0.20952 1.01392 0.0
C471 C 0.2844 0.2046 0.96288 0.0
C472 C 0.31353 0.176 0.03653 0.0
C473 C 0.23652 0.2095 0.03232 0.0
C474 C 0.22617 0.24692 0.05251 0.0
C475 C 0.18348 0.25466 0.07057 0.0
C476 C 0.15059 0.2232 0.06809 0.0
C477 C 0.1609 0.18437 0.04834 0.0
C478 C 0.20448 0.17755 0.03038 0.0
H479 H 0.31827 0.77165 0.06852 0.0
H480 H 0.40393 0.83853 0.97431 0.0
H481 H 0.34111 0.88583 0.95752 0.0
H482 H 0.2111 0.78371 1.00969 0.0
H483 H 0.17895 0.79271 0.05992 0.0
H484 H 0.22903 0.76073 0.06169 0.0
H485 H 0.26278 0.80779 0.12339 0.0
H486 H 0.2128 0.8398 0.12196 0.0
H487 H 0.26775 0.86299 0.11358 0.0
H488 H 0.27229 0.92876 0.95401 0.0
H489 H 0.2016 0.96748 0.96674 0.0
H490 H 0.1597 0.87597 0.06531 0.0
C491 C 0.32397 0.79616 0.0443 0.0
C492 C 0.36624 0.80058 1.02222 0.0
C493 C 0.37177 0.83328 0.99075 0.0
C494 C 0.33628 0.86065 0.98113 0.0
C495 C 0.29536 0.85538 1.00348 0.0
C496 C 0.28898 0.82424 0.03467 0.0
C497 C 0.24254 0.82758 0.05624 0.0
C498 C 0.2137 0.78887 0.04628 0.0
C499 C 0.24673 0.83499 0.10678 0.0
C500 C 0.2241 0.86574 0.03251 0.0
C501 C 0.25521 0.88092 1.00197 0.0
C502 C 0.24747 0.91702 0.97748 0.0
C503 C 0.2073 0.93881 0.98504 0.0
C504 C 0.17529 0.9245 1.01683 0.0
C505 C 0.1833 0.88703 0.04024 0.0
H506 H 0.67328 0.25472 0.99169 0.0
H507 H 0.69924 0.33371 0.1064 0.0
H508 H 0.7708 0.29651 0.1198 0.0
H509 H 0.7162 0.15951 0.04289 0.0
H510 H 0.73965 0.14041 0.9913 0.0
H511 H 0.6905 0.17357 0.99044 0.0
H512 H 0.73233 0.22452 0.93726 0.0
H513 H 0.78168 0.19166 0.93831 0.0
H514 H 0.78634 0.2457 0.95366 0.0
H515 H 0.84151 0.25366 0.11831 0.0
H516 H 0.90369 0.20353 0.10597 0.0
H517 H 0.82865 0.14818 0.99684 0.0
C518 C 0.69343 0.26387 1.02015 0.0
C519 C 0.68051 0.29762 0.04768 0.0
C520 C 0.70866 0.30873 0.08408 0.0
C521 C 0.74929 0.28756 0.09224 0.0
C522 C 0.76109 0.25487 0.06417 0.0
C523 C 0.73373 0.24263 0.02925 0.0
C524 C 0.75412 0.20613 1.00437 0.0
C525 C 0.72328 0.16763 1.00746 0.0
C526 C 0.76421 0.21772 0.95551 0.0
C527 C 0.79737 0.19998 0.03063 0.0
C528 C 0.80093 0.22875 0.06467 0.0
C529 C 0.8389 0.2307 0.0921 0.0
C530 C 0.87408 0.20232 0.08469 0.0
C531 C 0.87067 0.17207 0.05063 0.0
C532 C 0.83173 0.17076 1.02344 0.0
H533 H 0.67025 0.84132 0.06295 0.0
H534 H 0.72543 0.72596 1.01128 0.0
H535 H 0.80024 0.75965 1.00261 0.0
H536 H 0.73221 0.90904 0.98997 0.0
H537 H 0.74134 0.94904 0.03109 0.0
H538 H 0.69191 0.91627 0.03445 0.0
H539 H 0.71283 0.89385 0.1147 0.0
H540 H 0.76186 0.92716 0.11259 0.0
H541 H 0.76823 0.8727 0.1257 0.0
H542 H 0.86967 0.80533 1.00205 0.0
H543 H 0.92766 0.86061 1.00585 0.0
H544 H 0.82646 0.9466 0.05624 0.0
C545 C 0.69814 0.8231 0.05002 0.0
C546 C 0.69206 0.78098 0.03783 0.0
C547 C 0.72923 0.75837 1.02041 0.0
C548 C 0.77188 0.77716 1.01563 0.0
C549 C 0.77675 0.81866 0.02815 0.0
C550 C 0.74084 0.84144 0.04475 0.0
C551 C 0.75488 0.88576 0.05502 0.0
C552 C 0.72853 0.91688 1.0259 0.0
C553 C 0.74911 0.89541 0.10496 0.0
C554 C 0.8044 0.88424 0.04195 0.0
C555 C 0.81642 0.84522 1.02675 0.0
C556 C 0.86061 0.83606 1.01372 0.0
C557 C 0.89335 0.86765 1.01617 0.0
C558 C 0.88169 0.90802 0.03125 0.0
C559 C 0.8365 0.91622 0.0442 0.0
loop_
_geom_bond_atom_site_label_1
_geom_bond_atom_site_label_2
_geom_bond_distance
_geom_bond_site_symmetry_2
_ccdc_geom_bond_type
H0 C27 0.929 . S
N1 C26 1.433 . S
N1 C32 1.435 . S
N1 C38 1.423 . S
H2 C28 0.930 1_655 S
H3 C31 0.931 . S
H4 C30 0.929 . S
H5 C33 0.930 . S
H6 C34 0.932 . S
H7 C37 0.929 . S
H8 C36 0.931 . S
H9 C39 0.929 . S
H10 C43 0.932 . S
H11 C40 0.931 . S
H12 C42 0.929 . S
H13 C45 0.929 . S
H14 C46 0.930 1_655 S
H15 C48 0.929 . S
H16 C49 0.931 . S
H17 C51 0.930 . S
H18 C52 0.932 . S
H19 C54 0.931 . S
H20 C55 0.929 . S
H21 C57 0.929 . S
H22 C58 0.931 . S
H23 C60 0.929 . S
N24 C44 1.433 . S
N24 C50 1.435 . S
N24 C56 1.423 . S
H25 C61 0.932 . S
C26 N1 1.433 . S
C26 C27 1.363 1_455 S
C26 C31 1.370 . S
C27 H0 0.929 . S
C27 C26 1.363 1_655 S
C27 C28 1.385 1_655 S
C28 H2 0.930 1_455 S
C28 C27 1.385 1_455 S
C28 C29 1.357 . S
C29 C28 1.357 . S
C29 C30 1.406 . S
C30 H4 0.929 . S
C30 C29 1.406 . S
C30 C31 1.391 . S
C31 H3 0.931 . S
C31 C26 1.370 . S
C31 C30 1.391 . S
C32 N1 1.435 . S
C32 C33 1.358 . S
C32 C37 1.371 1_455 S
C33 H5 0.930 . S
C33 C32 1.358 . S
C33 C34 1.405 . S
C34 H6 0.932 . S
C34 C33 1.405 . S
C34 C35 1.383 . S
C35 C34 1.383 . S
C35 C36 1.393 1_455 S
C36 H8 0.931 . S
C36 C35 1.393 1_655 S
C36 C37 1.382 . S
C37 H7 0.929 . S
C37 C32 1.371 1_655 S
C37 C36 1.382 . S
C38 N1 1.423 . S
C38 C39 1.362 1_455 S
C38 C43 1.388 . S
C39 H9 0.929 . S
C39 C38 1.362 1_655 S
C39 C40 1.376 . S
C40 H11 0.931 . S
C40 C39 1.376 . S
C40 C41 1.396 . S
C41 C40 1.396 . S
C41 C42 1.348 1_655 S
C41 C59 1.472 . S
C42 H12 0.929 . S
C42 C41 1.348 1_455 S
C42 C43 1.443 . S
C43 H10 0.932 . S
C43 C38 1.388 . S
C43 C42 1.443 . S
C44 N24 1.433 . S
C44 C45 1.363 1_455 S
C44 C49 1.370 . S
C45 H13 0.929 . S
C45 C44 1.363 1_655 S
C45 C46 1.385 1_655 S
C46 H14 0.930 1_455 S
C46 C45 1.385 1_455 S
C46 C47 1.357 . S
C47 C46 1.357 . S
C47 C48 1.406 . S
C48 H15 0.929 . S
C48 C47 1.406 . S
C48 C49 1.391 . S
C49 H16 0.931 . S
C49 C44 1.370 . S
C49 C48 1.391 . S
C50 N24 1.435 . S
C50 C51 1.358 . S
C50 C55 1.371 1_455 S
C51 H17 0.930 . S
C51 C50 1.358 . S
C51 C52 1.405 . S
C52 H18 0.932 . S
C52 C51 1.405 . S
C52 C53 1.383 . S
C53 C52 1.383 . S
C53 C54 1.393 1_455 S
C54 H19 0.931 . S
C54 C53 1.393 1_655 S
C54 C55 1.382 . S
C55 H20 0.929 . S
C55 C50 1.371 1_655 S
C55 C54 1.382 . S
C56 N24 1.423 . S
C56 C57 1.362 1_455 S
C56 C61 1.388 . S
C57 H21 0.929 . S
C57 C56 1.362 1_655 S
C57 C58 1.376 . S
C58 H22 0.931 . S
C58 C57 1.376 . S
C58 C59 1.396 . S
C59 C41 1.472 . S
C59 C58 1.396 . S
C59 C60 1.348 1_655 S
C60 H23 0.929 . S
C60 C59 1.348 1_455 S
C60 C61 1.443 . S
C61 H25 0.932 . S
C61 C56 1.388 . S
C61 C60 1.443 . S
H62 C89 0.929 . S
N63 C88 1.433 . S
N63 C94 1.435 . S
N63 C100 1.423 . S
H64 C90 0.930 . S
H65 C93 0.931 . S
H66 C92 0.929 . S
H67 C95 0.930 . S
H68 C96 0.932 . S
H69 C99 0.929 . S
H70 C98 0.931 . S
H71 C101 0.929 . S
H72 C105 0.932 1_545 S
H73 C102 0.931 . S
H74 C104 0.929 1_545 S
H75 C107 0.929 . S
H76 C108 0.930 . S
H77 C110 0.929 . S
H78 C111 0.931 . S
H79 C113 0.930 . S
H80 C114 0.932 . S
H81 C116 0.931 . S
H82 C117 0.929 . S
H83 C119 0.929 . S
H84 C120 0.931 . S
H85 C122 0.929 1_545 S
N86 C106 1.433 . S
N86 C112 1.435 . S
N86 C118 1.423 . S
H87 C123 0.932 1_545 S
C88 N63 1.433 . S
C88 C89 1.363 . S
C88 C93 1.370 1_565 S
C89 H62 0.929 . S
C89 C88 1.363 . S
C89 C90 1.385 . S
C90 H64 0.930 . S
C90 C89 1.385 . S
C90 C91 1.357 . S
C91 C90 1.357 . S
C91 C92 1.406 1_565 S
C92 H66 0.929 . S
C92 C91 1.406 1_545 S
C92 C93 1.391 . S
C93 H65 0.931 . S
C93 C88 1.370 1_545 S
C93 C92 1.391 . S
C94 N63 1.435 . S
C94 C95 1.358 1_565 S
C94 C99 1.371 . S
C95 H67 0.930 . S
C95 C94 1.358 1_545 S
C95 C96 1.405 . S
C96 H68 0.932 . S
C96 C95 1.405 . S
C96 C97 1.383 1_545 S
C97 C96 1.383 1_565 S
C97 C98 1.393 . S
C98 H70 0.931 . S
C98 C97 1.393 . S
C98 C99 1.382 . S
C99 H69 0.929 . S
C99 C94 1.371 . S
C99 C98 1.382 . S
C100 N63 1.423 . S
C100 C101 1.362 . S
C100 C105 1.388 . S
C101 H71 0.929 . S
C101 C100 1.362 . S
C101 C102 1.376 . S
C102 H73 0.931 . S
C102 C101 1.376 . S
C102 C103 1.396 . S
C103 C102 1.396 . S
C103 C104 1.348 . S
C103 C121 1.472 . S
C104 H74 0.929 1_565 S
C104 C103 1.348 . S
C104 C105 1.443 . S
C105 H72 0.932 1_565 S
C105 C100 1.388 . S
C105 C104 1.443 . S
C106 N86 1.433 . S
C106 C107 1.363 . S
C106 C111 1.370 1_565 S
C107 H75 0.929 . S
C107 C106 1.363 . S
C107 C108 1.385 . S
C108 H76 0.930 . S
C108 C107 1.385 . S
C108 C109 1.357 . S
C109 C108 1.357 . S
C109 C110 1.406 1_565 S
C110 H77 0.929 . S
C110 C109 1.406 1_545 S
C110 C111 1.391 . S
C111 H78 0.931 . S
C111 C106 1.370 1_545 S
C111 C110 1.391 . S
C112 N86 1.435 . S
C112 C113 1.358 1_565 S
C112 C117 1.371 . S
C113 H79 0.930 . S
C113 C112 1.358 1_545 S
C113 C114 1.405 . S
C114 H80 0.932 . S
C114 C113 1.405 . S
C114 C115 1.383 1_545 S
C115 C114 1.383 1_565 S
C115 C116 1.393 . S
C116 H81 0.931 . S
C116 C115 1.393 . S
C116 C117 1.382 . S
C117 H82 0.929 . S
C117 C112 1.371 . S
C117 C116 1.382 . S
C118 N86 1.423 . S
C118 C119 1.362 . S
C118 C123 1.388 . S
C119 H83 0.929 . S
C119 C118 1.362 . S
C119 C120 1.376 . S
C120 H84 0.931 . S
C120 C119 1.376 . S
C120 C121 1.396 . S
C121 C103 1.472 . S
C121 C120 1.396 . S
C121 C122 1.348 . S
C122 H85 0.929 1_565 S
C122 C121 1.348 . S
C122 C123 1.443 . S
C123 H87 0.932 1_565 S
C123 C118 1.388 . S
C123 C122 1.443 . S
H124 C151 0.929 . S
N125 C150 1.433 . S
N125 C156 1.435 . S
N125 C162 1.423 . S
H126 C152 0.930 . S
H127 C155 0.931 . S
H128 C154 0.929 . S
H129 C157 0.930 . S
H130 C158 0.932 . S
H131 C161 0.929 . S
H132 C160 0.931 . S
H133 C163 0.929 . S
H134 C167 0.932 1_556 S
H135 C164 0.931 . S
H136 C166 0.929 . S
H137 C169 0.929 . S
H138 C170 0.930 . S
H139 C172 0.929 . S
H140 C173 0.931 . S
H141 C175 0.930 . S
H142 C176 0.932 . S
H143 C178 0.931 . S
H144 C179 0.929 . S
H145 C181 0.929 . S
H146 C182 0.931 . S
H147 C184 0.929 . S
N148 C168 1.433 . S
N148 C174 1.435 . S
N148 C180 1.423 . S
H149 C185 0.932 1_556 S
C150 N125 1.433 . S
C150 C151 1.363 . S
C150 C155 1.370 1_554 S
C151 H124 0.929 . S
C151 C150 1.363 . S
C151 C152 1.385 . S
C152 H126 0.930 . S
C152 C151 1.385 . S
C152 C153 1.357 . S
C153 C152 1.357 . S
C153 C154 1.406 1_554 S
C154 H128 0.929 . S
C154 C153 1.406 1_556 S
C154 C155 1.391 . S
C155 H127 0.931 . S
C155 C150 1.370 1_556 S
C155 C154 1.391 . S
C156 N125 1.435 . S
C156 C157 1.358 1_554 S
C156 C161 1.371 . S
C157 H129 0.930 . S
C157 C156 1.358 1_556 S
C157 C158 1.405 . S
C158 H130 0.932 . S
C158 C157 1.405 . S
C158 C159 1.383 1_556 S
C159 C158 1.383 1_554 S
C159 C160 1.393 . S
C160 H132 0.931 . S
C160 C159 1.393 . S
C160 C161 1.382 . S
C161 H131 0.929 . S
C161 C156 1.371 . S
C161 C160 1.382 . S
C162 N125 1.423 . S
C162 C163 1.362 . S
C162 C167 1.388 . S
C163 H133 0.929 . S
C163 C162 1.362 . S
C163 C164 1.376 . S
C164 H135 0.931 . S
C164 C163 1.376 . S
C164 C165 1.396 . S
C165 C164 1.396 . S
C165 C166 1.348 . S
C165 C183 1.472 . S
C166 H136 0.929 . S
C166 C165 1.348 . S
C166 C167 1.443 . S
C167 H134 0.932 1_554 S
C167 C162 1.388 . S
C167 C166 1.443 . S
C168 N148 1.433 . S
C168 C169 1.363 . S
C168 C173 1.370 1_554 S
C169 H137 0.929 . S
C169 C168 1.363 . S
C169 C170 1.385 . S
C170 H138 0.930 . S
C170 C169 1.385 . S
C170 C171 1.357 . S
C171 C170 1.357 . S
C171 C172 1.406 1_554 S
C172 H139 0.929 . S
C172 C171 1.406 1_556 S
C172 C173 1.391 . S
C173 H140 0.931 . S
C173 C168 1.370 1_556 S
C173 C172 1.391 . S
C174 N148 1.435 . S
C174 C175 1.358 1_554 S
C174 C179 1.371 . S
C175 H141 0.930 . S
C175 C174 1.358 1_556 S
C175 C176 1.405 . S
C176 H142 0.932 . S
C176 C175 1.405 . S
C176 C177 1.383 1_556 S
C177 C176 1.383 1_554 S
C177 C178 1.393 . S
C178 H143 0.931 . S
C178 C177 1.393 . S
C178 C179 1.382 . S
C179 H144 0.929 . S
C179 C174 1.371 . S
C179 C178 1.382 . S
C180 N148 1.423 . S
C180 C181 1.362 . S
C180 C185 1.388 . S
C181 H145 0.929 . S
C181 C180 1.362 . S
C181 C182 1.376 . S
C182 H146 0.931 . S
C182 C181 1.376 . S
C182 C183 1.396 . S
C183 C165 1.472 . S
C183 C182 1.396 . S
C183 C184 1.348 . S
C184 H147 0.929 . S
C184 C183 1.348 . S
C184 C185 1.443 . S
C185 H149 0.932 1_554 S
C185 C180 1.388 . S
C185 C184 1.443 . S
C186 O212 1.283 . S
C186 O230 1.283 . S
C187 O213 1.283 . S
C187 O228 1.283 . S
C188 O214 1.283 . S
C188 O231 1.283 . S
C189 O215 1.283 . S
C189 O229 1.283 . S
C190 O216 1.283 . S
C190 O225 1.283 . S
C191 O217 1.283 . S
C191 O227 1.283 . S
C192 O218 1.283 . S
C192 O224 1.283 . S
C193 O219 1.283 . S
C193 O226 1.283 . S
C194 O220 1.283 . S
C194 O235 1.283 . S
C195 O221 1.283 . S
C195 O233 1.283 . S
C196 O222 1.283 . S
C196 O234 1.283 . S
C197 O223 1.283 . S
C197 O232 1.283 . S
Eu198 O199 2.370 . S
Eu198 O200 2.370 1_454 S
Eu198 O203 2.370 1_554 S
Eu198 O204 2.370 1_455 S
Eu198 O212 2.363 1_554 S
Eu198 O213 2.363 . S
Eu198 O226 2.363 1_455 S
Eu198 O227 2.363 . S
O199 Eu198 2.370 . S
O199 Eu201 2.370 . S
O199 Eu206 2.370 . S
O200 Eu198 2.370 1_656 S
O200 Eu202 2.370 1_556 S
O200 Eu205 2.370 1_655 S
Eu201 O199 2.370 . S
Eu201 O203 2.370 1_554 S
Eu201 O207 2.370 1_544 S
Eu201 O208 2.370 1_545 S
Eu201 O216 2.363 1_545 S
Eu201 O217 2.363 . S
Eu201 O232 2.363 1_554 S
Eu201 O233 2.363 . S
Eu202 O200 2.370 1_554 S
Eu202 O204 2.370 . S
Eu202 O209 2.370 1_545 S
Eu202 O210 2.370 1_544 S
Eu202 O218 2.363 1_545 S
Eu202 O219 2.363 . S
Eu202 O234 2.363 1_554 S
Eu202 O235 2.363 . S
O203 Eu198 2.370 1_556 S
O203 Eu201 2.370 1_556 S
O203 Eu205 2.370 . S
O204 Eu198 2.370 1_655 S
O204 Eu202 2.370 . S
O204 Eu206 2.370 1_655 S
Eu205 O200 2.370 1_455 S
Eu205 O203 2.370 . S
Eu205 O207 2.370 1_545 S
Eu205 O210 2.370 1_445 S
Eu205 O222 2.363 1_455 S
Eu205 O223 2.363 . S
Eu205 O230 2.363 . S
Eu205 O231 2.363 1_545 S
Eu206 O199 2.370 . S
Eu206 O204 2.370 1_455 S
Eu206 O208 2.370 1_545 S
Eu206 O209 2.370 1_445 S
Eu206 O220 2.363 1_455 S
Eu206 O221 2.363 . S
Eu206 O228 2.363 . S
Eu206 O229 2.363 1_545 S
O207 Eu201 2.370 1_566 S
O207 Eu205 2.370 1_565 S
O207 Eu211 2.370 1_556 S
O208 Eu201 2.370 1_565 S
O208 Eu206 2.370 1_565 S
O208 Eu211 2.370 . S
O209 Eu202 2.370 1_565 S
O209 Eu206 2.370 1_665 S
O209 Eu211 2.370 1_655 S
O210 Eu202 2.370 1_566 S
O210 Eu205 2.370 1_665 S
O210 Eu211 2.370 1_656 S
Eu211 O207 2.370 1_554 S
Eu211 O208 2.370 . S
Eu211 O209 2.370 1_455 S
Eu211 O210 2.370 1_454 S
Eu211 O214 2.363 1_554 S
Eu211 O215 2.363 . S
Eu211 O224 2.363 1_455 S
Eu211 O225 2.363 . S
O212 C186 1.283 . S
O212 Eu198 2.363 1_556 S
O213 C187 1.283 . S
O213 Eu198 2.363 . S
O214 C188 1.283 . S
O214 Eu211 2.363 1_556 S
O215 C189 1.283 . S
O215 Eu211 2.363 . S
O216 C190 1.283 . S
O216 Eu201 2.363 1_565 S
O217 C191 1.283 . S
O217 Eu201 2.363 . S
O218 C192 1.283 . S
O218 Eu202 2.363 1_565 S
O219 C193 1.283 . S
O219 Eu202 2.363 . S
O220 C194 1.283 . S
O220 Eu206 2.363 1_655 S
O221 C195 1.283 . S
O221 Eu206 2.363 . S
O222 C196 1.283 . S
O222 Eu205 2.363 1_655 S
O223 C197 1.283 . S
O223 Eu205 2.363 . S
O224 C192 1.283 . S
O224 Eu211 2.363 1_655 S
O225 C190 1.283 . S
O225 Eu211 2.363 . S
O226 C193 1.283 . S
O226 Eu198 2.363 1_655 S
O227 C191 1.283 . S
O227 Eu198 2.363 . S
O228 C187 1.283 . S
O228 Eu206 2.363 . S
O229 C189 1.283 . S
O229 Eu206 2.363 1_565 S
O230 C186 1.283 . S
O230 Eu205 2.363 . S
O231 C188 1.283 . S
O231 Eu205 2.363 1_565 S
O232 C197 1.283 . S
O232 Eu201 2.363 1_556 S
O233 C195 1.283 . S
O233 Eu201 2.363 . S
O234 C196 1.283 . S
O234 Eu202 2.363 1_556 S
O235 C194 1.283 . S
O235 Eu202 2.363 . S
H236 C248 0.930 . S
H237 C250 0.930 . S
H238 C251 0.930 . S
H239 C255 0.959 1_655 S
H240 C255 0.959 . S
H241 C255 0.961 . S
H242 C256 0.960 . S
H243 C256 0.961 . S
H244 C256 0.959 . S
H245 C259 0.929 . S
H246 C260 0.931 . S
H247 C262 0.930 . S
C248 H236 0.930 . S
C248 C249 1.399 . S
C248 C253 1.399 . S
C249 C248 1.399 . S
C249 C250 1.376 . S
C250 H237 0.930 . S
C250 C249 1.376 . S
C250 C251 1.388 . S
C251 H238 0.930 . S
C251 C250 1.388 . S
C251 C252 1.390 . S
C252 C251 1.390 . S
C252 C253 1.394 . S
C252 C258 1.465 . S
C253 C248 1.399 . S
C253 C252 1.394 . S
C253 C254 1.516 . S
C254 C253 1.516 . S
C254 C255 1.502 . S
C254 C256 1.561 . S
C254 C257 1.526 . S
C255 H239 0.959 1_455 S
C255 H240 0.959 . S
C255 H241 0.961 . S
C255 C254 1.502 . S
C256 H242 0.960 . S
C256 H243 0.961 . S
C256 H244 0.959 . S
C256 C254 1.561 . S
C257 C254 1.526 . S
C257 C258 1.396 . S
C257 C262 1.390 . S
C258 C252 1.465 . S
C258 C257 1.396 . S
C258 C259 1.399 . S
C259 H245 0.929 . S
C259 C258 1.399 . S
C259 C260 1.385 . S
C260 H246 0.931 . S
C260 C259 1.385 . S
C260 C261 1.389 . S
C261 C260 1.389 . S
C261 C262 1.387 . S
C262 H247 0.930 . S
C262 C257 1.390 . S
C262 C261 1.387 . S
H263 C275 0.930 . S
H264 C277 0.930 . S
H265 C278 0.930 . S
H266 C282 0.959 1_545 S
H267 C282 0.959 . S
H268 C282 0.961 . S
H269 C283 0.960 . S
H270 C283 0.961 . S
H271 C283 0.959 . S
H272 C286 0.929 . S
H273 C287 0.931 . S
H274 C289 0.930 . S
C275 H263 0.930 . S
C275 C276 1.399 . S
C275 C280 1.399 . S
C276 C275 1.399 . S
C276 C277 1.376 1_565 S
C277 H264 0.930 . S
C277 C276 1.376 1_545 S
C277 C278 1.388 . S
C278 H265 0.930 . S
C278 C277 1.388 . S
C278 C279 1.390 . S
C279 C278 1.390 . S
C279 C280 1.394 1_545 S
C279 C285 1.465 . S
C280 C275 1.399 . S
C280 C279 1.394 1_565 S
C280 C281 1.516 . S
C281 C280 1.516 . S
C281 C282 1.502 . S
C281 C283 1.561 . S
C281 C284 1.526 . S
C282 H266 0.959 1_565 S
C282 H267 0.959 . S
C282 H268 0.961 . S
C282 C281 1.502 . S
C283 H269 0.960 . S
C283 H270 0.961 . S
C283 H271 0.959 . S
C283 C281 1.561 . S
C284 C281 1.526 . S
C284 C285 1.396 1_565 S
C284 C289 1.390 . S
C285 C279 1.465 . S
C285 C284 1.396 1_545 S
C285 C286 1.399 . S
C286 H272 0.929 . S
C286 C285 1.399 . S
C286 C287 1.385 . S
C287 H273 0.931 . S
C287 C286 1.385 . S
C287 C288 1.389 . S
C288 C287 1.389 . S
C288 C289 1.387 1_545 S
C289 H274 0.930 . S
C289 C284 1.390 . S
C289 C288 1.387 1_565 S
H290 C302 0.930 . S
H291 C304 0.930 . S
H292 C305 0.930 . S
H293 C309 0.959 . S
H294 C309 0.959 . S
H295 C309 0.961 . S
H296 C310 0.960 . S
H297 C310 0.961 . S
H298 C310 0.959 . S
H299 C313 0.929 . S
H300 C314 0.931 . S
H301 C316 0.930 . S
C302 H290 0.930 . S
C302 C303 1.399 . S
C302 C307 1.399 . S
C303 C302 1.399 . S
C303 C304 1.376 . S
C304 H291 0.930 . S
C304 C303 1.376 . S
C304 C305 1.388 . S
C305 H292 0.930 . S
C305 C304 1.388 . S
C305 C306 1.390 . S
C306 C305 1.390 . S
C306 C307 1.394 . S
C306 C312 1.465 . S
C307 C302 1.399 . S
C307 C306 1.394 . S
C307 C308 1.516 . S
C308 C307 1.516 . S
C308 C309 1.502 1_455 S
C308 C310 1.561 . S
C308 C311 1.526 . S
C309 H293 0.959 . S
C309 H294 0.959 . S
C309 H295 0.961 . S
C309 C308 1.502 1_655 S
C310 H296 0.960 . S
C310 H297 0.961 . S
C310 H298 0.959 . S
C310 C308 1.561 . S
C311 C308 1.526 . S
C311 C312 1.396 . S
C311 C316 1.390 . S
C312 C306 1.465 . S
C312 C311 1.396 . S
C312 C313 1.399 . S
C313 H299 0.929 . S
C313 C312 1.399 . S
C313 C314 1.385 . S
C314 H300 0.931 . S
C314 C313 1.385 . S
C314 C315 1.389 . S
C315 C314 1.389 . S
C315 C316 1.387 . S
C316 H301 0.930 . S
C316 C311 1.390 . S
C316 C315 1.387 . S
H317 C329 0.930 . S
H318 C331 0.930 . S
H319 C332 0.930 . S
H320 C336 0.959 . S
H321 C336 0.959 . S
H322 C336 0.961 . S
H323 C337 0.960 . S
H324 C337 0.961 . S
H325 C337 0.959 . S
H326 C340 0.929 . S
H327 C341 0.931 . S
H328 C343 0.930 . S
C329 H317 0.930 . S
C329 C330 1.399 1_545 S
C329 C334 1.399 . S
C330 C329 1.399 1_565 S
C330 C331 1.376 . S
C331 H318 0.930 . S
C331 C330 1.376 . S
C331 C332 1.388 . S
C332 H319 0.930 . S
C332 C331 1.388 . S
C332 C333 1.390 . S
C333 C332 1.390 . S
C333 C334 1.394 1_565 S
C333 C339 1.465 . S
C334 C329 1.399 . S
C334 C333 1.394 1_545 S
C334 C335 1.516 . S
C335 C334 1.516 . S
C335 C336 1.502 . S
C335 C337 1.561 . S
C335 C338 1.526 . S
C336 H320 0.959 . S
C336 H321 0.959 . S
C336 H322 0.961 . S
C336 C335 1.502 . S
C337 H323 0.960 . S
C337 H324 0.961 . S
C337 H325 0.959 . S
C337 C335 1.561 . S
C338 C335 1.526 . S
C338 C339 1.396 1_545 S
C338 C343 1.390 . S
C339 C333 1.465 . S
C339 C338 1.396 1_565 S
C339 C340 1.399 . S
C340 H326 0.929 . S
C340 C339 1.399 . S
C340 C341 1.385 . S
C341 H327 0.931 . S
C341 C340 1.385 . S
C341 C342 1.389 . S
C342 C341 1.389 . S
C342 C343 1.387 1_565 S
C343 H328 0.930 . S
C343 C338 1.390 . S
C343 C342 1.387 1_545 S
H344 C356 0.930 . S
H345 C358 0.930 . S
H346 C359 0.930 . S
H347 C363 0.959 . S
H348 C363 0.959 . S
H349 C363 0.961 . S
H350 C364 0.960 . S
H351 C364 0.961 . S
H352 C364 0.959 . S
H353 C367 0.929 . S
H354 C368 0.931 . S
H355 C370 0.930 . S
C356 H344 0.930 . S
C356 C357 1.399 . S
C356 C361 1.399 . S
C357 C356 1.399 . S
C357 C358 1.376 1_455 S
C358 H345 0.930 . S
C358 C357 1.376 1_655 S
C358 C359 1.388 . S
C359 H346 0.930 . S
C359 C358 1.388 . S
C359 C360 1.390 1_655 S
C360 C359 1.390 1_455 S
C360 C361 1.394 . S
C360 C366 1.465 . S
C361 C356 1.399 . S
C361 C360 1.394 . S
C361 C362 1.516 . S
C362 C361 1.516 . S
C362 C363 1.502 . S
C362 C364 1.561 . S
C362 C365 1.526 . S
C363 H347 0.959 . S
C363 H348 0.959 . S
C363 H349 0.961 . S
C363 C362 1.502 . S
C364 H350 0.960 . S
C364 H351 0.961 . S
C364 H352 0.959 . S
C364 C362 1.561 . S
C365 C362 1.526 . S
C365 C366 1.396 . S
C365 C370 1.390 . S
C366 C360 1.465 . S
C366 C365 1.396 . S
C366 C367 1.399 1_455 S
C367 H353 0.929 . S
C367 C366 1.399 1_655 S
C367 C368 1.385 . S
C368 H354 0.931 . S
C368 C367 1.385 . S
C368 C369 1.389 1_655 S
C369 C368 1.389 1_455 S
C369 C370 1.387 . S
C370 H355 0.930 . S
C370 C365 1.390 . S
C370 C369 1.387 . S
H371 C383 0.930 . S
H372 C385 0.930 . S
H373 C386 0.930 . S
H374 C390 0.959 . S
H375 C390 0.959 . S
H376 C390 0.961 . S
H377 C391 0.960 . S
H378 C391 0.961 . S
H379 C391 0.959 . S
H380 C394 0.929 . S
H381 C395 0.931 . S
H382 C397 0.930 . S
C383 H371 0.930 . S
C383 C384 1.399 1_565 S
C383 C388 1.399 . S
C384 C383 1.399 1_545 S
C384 C385 1.376 . S
C385 H372 0.930 . S
C385 C384 1.376 . S
C385 C386 1.388 . S
C386 H373 0.930 . S
C386 C385 1.388 . S
C386 C387 1.390 . S
C387 C386 1.390 . S
C387 C388 1.394 1_545 S
C387 C393 1.465 . S
C388 C383 1.399 . S
C388 C387 1.394 1_565 S
C388 C389 1.516 . S
C389 C388 1.516 . S
C389 C390 1.502 . S
C389 C391 1.561 . S
C389 C392 1.526 . S
C390 H374 0.959 . S
C390 H375 0.959 . S
C390 H376 0.961 . S
C390 C389 1.502 . S
C391 H377 0.960 . S
C391 H378 0.961 . S
C391 H379 0.959 . S
C391 C389 1.561 . S
C392 C389 1.526 . S
C392 C393 1.396 1_565 S
C392 C397 1.390 . S
C393 C387 1.465 . S
C393 C392 1.396 1_545 S
C393 C394 1.399 . S
C394 H380 0.929 . S
C394 C393 1.399 . S
C394 C395 1.385 . S
C395 H381 0.931 . S
C395 C394 1.385 . S
C395 C396 1.389 . S
C396 C395 1.389 . S
C396 C397 1.387 1_545 S
C397 H382 0.930 . S
C397 C392 1.390 . S
C397 C396 1.387 1_565 S
H398 C410 0.930 . S
H399 C412 0.930 . S
H400 C413 0.930 . S
H401 C417 0.959 . S
H402 C417 0.959 . S
H403 C417 0.961 . S
H404 C418 0.960 . S
H405 C418 0.961 . S
H406 C418 0.959 . S
H407 C421 0.929 . S
H408 C422 0.931 . S
H409 C424 0.930 . S
C410 H398 0.930 . S
C410 C411 1.399 . S
C410 C415 1.399 . S
C411 C410 1.399 . S
C411 C412 1.376 . S
C412 H399 0.930 . S
C412 C411 1.376 . S
C412 C413 1.388 . S
C413 H400 0.930 . S
C413 C412 1.388 . S
C413 C414 1.390 . S
C414 C413 1.390 . S
C414 C415 1.394 . S
C414 C420 1.465 . S
C415 C410 1.399 . S
C415 C414 1.394 . S
C415 C416 1.516 . S
C416 C415 1.516 . S
C416 C417 1.502 . S
C416 C418 1.561 1_455 S
C416 C419 1.526 . S
C417 H401 0.959 . S
C417 H402 0.959 . S
C417 H403 0.961 . S
C417 C416 1.502 . S
C418 H404 0.960 . S
C418 H405 0.961 . S
C418 H406 0.959 . S
C418 C416 1.561 1_655 S
C419 C416 1.526 . S
C419 C420 1.396 . S
C419 C424 1.390 . S
C420 C414 1.465 . S
C420 C419 1.396 . S
C420 C421 1.399 . S
C421 H407 0.929 . S
C421 C420 1.399 . S
C421 C422 1.385 . S
C422 H408 0.931 . S
C422 C421 1.385 . S
C422 C423 1.389 . S
C423 C422 1.389 . S
C423 C424 1.387 . S
C424 H409 0.930 . S
C424 C419 1.390 . S
C424 C423 1.387 . S
H425 C437 0.930 . S
H426 C439 0.930 . S
H427 C440 0.930 . S
H428 C444 0.959 . S
H429 C444 0.959 . S
H430 C444 0.961 . S
H431 C445 0.960 . S
H432 C445 0.961 . S
H433 C445 0.959 . S
H434 C448 0.929 . S
H435 C449 0.931 . S
H436 C451 0.930 . S
C437 H425 0.930 . S
C437 C438 1.399 1_545 S
C437 C442 1.399 . S
C438 C437 1.399 1_565 S
C438 C439 1.376 . S
C439 H426 0.930 . S
C439 C438 1.376 . S
C439 C440 1.388 . S
C440 H427 0.930 . S
C440 C439 1.388 . S
C440 C441 1.390 . S
C441 C440 1.390 . S
C441 C442 1.394 1_565 S
C441 C447 1.465 . S
C442 C437 1.399 . S
C442 C441 1.394 1_545 S
C442 C443 1.516 . S
C443 C442 1.516 . S
C443 C444 1.502 . S
C443 C445 1.561 . S
C443 C446 1.526 . S
C444 H428 0.959 . S
C444 H429 0.959 . S
C444 H430 0.961 . S
C444 C443 1.502 . S
C445 H431 0.960 . S
C445 H432 0.961 . S
C445 H433 0.959 . S
C445 C443 1.561 . S
C446 C443 1.526 . S
C446 C447 1.396 1_545 S
C446 C451 1.390 . S
C447 C441 1.465 . S
C447 C446 1.396 1_565 S
C447 C448 1.399 . S
C448 H434 0.929 . S
C448 C447 1.399 . S
C448 C449 1.385 . S
C449 H435 0.931 . S
C449 C448 1.385 . S
C449 C450 1.389 . S
C450 C449 1.389 . S
C450 C451 1.387 1_565 S
C451 H436 0.930 . S
C451 C446 1.390 . S
C451 C450 1.387 1_545 S
H452 C464 0.930 . S
H453 C466 0.930 . S
H454 C467 0.930 . S
H455 C471 0.959 . S
H456 C471 0.959 . S
H457 C471 0.961 . S
H458 C472 0.960 . S
H459 C472 0.961 . S
H460 C472 0.959 . S
H461 C475 0.929 . S
H462 C476 0.931 . S
H463 C478 0.930 . S
C464 H452 0.930 . S
C464 C465 1.399 1_556 S
C464 C469 1.399 . S
C465 C464 1.399 1_554 S
C465 C466 1.376 . S
C466 H453 0.930 . S
C466 C465 1.376 . S
C466 C467 1.388 . S
C467 H454 0.930 . S
C467 C466 1.388 . S
C467 C468 1.390 . S
C468 C467 1.390 . S
C468 C469 1.394 1_554 S
C468 C474 1.465 . S
C469 C464 1.399 . S
C469 C468 1.394 1_556 S
C469 C470 1.516 . S
C470 C469 1.516 . S
C470 C471 1.502 . S
C470 C472 1.561 . S
C470 C473 1.526 . S
C471 H455 0.959 . S
C471 H456 0.959 . S
C471 H457 0.961 . S
C471 C470 1.502 . S
C472 H458 0.960 . S
C472 H459 0.961 . S
C472 H460 0.959 . S
C472 C470 1.561 . S
C473 C470 1.526 . S
C473 C474 1.396 1_556 S
C473 C478 1.390 . S
C474 C468 1.465 . S
C474 C473 1.396 1_554 S
C474 C475 1.399 . S
C475 H461 0.929 . S
C475 C474 1.399 . S
C475 C476 1.385 . S
C476 H462 0.931 . S
C476 C475 1.385 . S
C476 C477 1.389 . S
C477 C476 1.389 . S
C477 C478 1.387 1_554 S
C478 H463 0.930 . S
C478 C473 1.390 . S
C478 C477 1.387 1_556 S
H479 C491 0.930 . S
H480 C493 0.930 . S
H481 C494 0.930 . S
H482 C498 0.959 . S
H483 C498 0.959 . S
H484 C498 0.961 . S
H485 C499 0.960 . S
H486 C499 0.961 . S
H487 C499 0.959 . S
H488 C502 0.929 . S
H489 C503 0.931 . S
H490 C505 0.930 . S
C491 H479 0.930 . S
C491 C492 1.399 . S
C491 C496 1.399 . S
C492 C491 1.399 . S
C492 C493 1.376 1_554 S
C493 H480 0.930 . S
C493 C492 1.376 1_556 S
C493 C494 1.388 . S
C494 H481 0.930 . S
C494 C493 1.388 . S
C494 C495 1.390 . S
C495 C494 1.390 . S
C495 C496 1.394 1_556 S
C495 C501 1.465 . S
C496 C491 1.399 . S
C496 C495 1.394 1_554 S
C496 C497 1.516 . S
C497 C496 1.516 . S
C497 C498 1.502 . S
C497 C499 1.561 . S
C497 C500 1.526 . S
C498 H482 0.959 . S
C498 H483 0.959 . S
C498 H484 0.961 . S
C498 C497 1.502 . S
C499 H485 0.960 . S
C499 H486 0.961 . S
C499 H487 0.959 . S
C499 C497 1.561 . S
C500 C497 1.526 . S
C500 C501 1.396 1_554 S
C500 C505 1.390 . S
C501 C495 1.465 . S
C501 C500 1.396 1_556 S
C501 C502 1.399 . S
C502 H488 0.929 . S
C502 C501 1.399 . S
C502 C503 1.385 . S
C503 H489 0.931 . S
C503 C502 1.385 . S
C503 C504 1.389 1_556 S
C504 C503 1.389 1_554 S
C504 C505 1.387 . S
C505 H490 0.930 . S
C505 C500 1.390 . S
C505 C504 1.387 . S
H506 C518 0.930 . S
H507 C520 0.930 . S
H508 C521 0.930 . S
H509 C525 0.959 . S
H510 C525 0.959 . S
H511 C525 0.961 . S
H512 C526 0.960 . S
H513 C526 0.961 . S
H514 C526 0.959 . S
H515 C529 0.929 . S
H516 C530 0.931 . S
H517 C532 0.930 . S
C518 H506 0.930 . S
C518 C519 1.399 1_556 S
C518 C523 1.399 . S
C519 C518 1.399 1_554 S
C519 C520 1.376 . S
C520 H507 0.930 . S
C520 C519 1.376 . S
C520 C521 1.388 . S
C521 H508 0.930 . S
C521 C520 1.388 . S
C521 C522 1.390 . S
C522 C521 1.390 . S
C522 C523 1.394 1_554 S
C522 C528 1.465 . S
C523 C518 1.399 . S
C523 C522 1.394 1_556 S
C523 C524 1.516 . S
C524 C523 1.516 . S
C524 C525 1.502 . S
C524 C526 1.561 . S
C524 C527 1.526 . S
C525 H509 0.959 . S
C525 H510 0.959 . S
C525 H511 0.961 . S
C525 C524 1.502 . S
C526 H512 0.960 . S
C526 H513 0.961 . S
C526 H514 0.959 . S
C526 C524 1.561 . S
C527 C524 1.526 . S
C527 C528 1.396 1_556 S
C527 C532 1.390 . S
C528 C522 1.465 . S
C528 C527 1.396 1_554 S
C528 C529 1.399 . S
C529 H515 0.929 . S
C529 C528 1.399 . S
C529 C530 1.385 . S
C530 H516 0.931 . S
C530 C529 1.385 . S
C530 C531 1.389 . S
C531 C530 1.389 . S
C531 C532 1.387 1_554 S
C532 H517 0.930 . S
C532 C527 1.390 . S
C532 C531 1.387 1_556 S
H533 C545 0.930 . S
H534 C547 0.930 . S
H535 C548 0.930 . S
H536 C552 0.959 . S
H537 C552 0.959 . S
H538 C552 0.961 . S
H539 C553 0.960 . S
H540 C553 0.961 . S
H541 C553 0.959 . S
H542 C556 0.929 . S
H543 C557 0.931 . S
H544 C559 0.930 . S
C545 H533 0.930 . S
C545 C546 1.399 . S
C545 C550 1.399 . S
C546 C545 1.399 . S
C546 C547 1.376 1_554 S
C547 H534 0.930 . S
C547 C546 1.376 1_556 S
C547 C548 1.388 . S
C548 H535 0.930 . S
C548 C547 1.388 . S
C548 C549 1.390 . S
C549 C548 1.390 . S
C549 C550 1.394 1_556 S
C549 C555 1.465 . S
C550 C545 1.399 . S
C550 C549 1.394 1_554 S
C550 C551 1.516 . S
C551 C550 1.516 . S
C551 C552 1.502 . S
C551 C553 1.561 . S
C551 C554 1.526 . S
C552 H536 0.959 . S
C552 H537 0.959 . S
C552 H538 0.961 . S
C552 C551 1.502 . S
C553 H539 0.960 . S
C553 H540 0.961 . S
C553 H541 0.959 . S
C553 C551 1.561 . S
C554 C551 1.526 . S
C554 C555 1.396 1_554 S
C554 C559 1.390 . S
C555 C549 1.465 . S
C555 C554 1.396 1_556 S
C555 C556 1.399 . S
C556 H542 0.929 . S
C556 C555 1.399 . S
C556 C557 1.385 . S
C557 H543 0.931 . S
C557 C556 1.385 . S
C557 C558 1.389 1_556 S
C558 C557 1.389 1_554 S
C558 C559 1.387 . S
C559 H544 0.930 . S
C559 C554 1.390 . S
C559 C558 1.387 . S
C261 C187 2.011 . S
C249 C53 2.033 . S
C288 C194 1.189 . S
C276 C97 1.226 . S
C315 C189 2.033 . S
C303 C35 2.033 . S
C342 C195 1.311 1_565 S
C330 C91 1.249 . S
C357 C29 2.122 . S
C369 C188 2.179 . S
C396 C197 1.310 . S
C384 C109 1.268 1_545 S
C411 C47 2.105 . S
C423 C186 2.170 . S
C438 C115 1.220 . S
C450 C196 1.199 1_565 S
C465 C153 1.629 . S
C477 C191 1.713 . S
C492 C171 1.643 . S
C504 C190 1.717 . S
C531 C193 1.537 . S
C519 C159 1.529 . S
C558 C192 1.530 . S
C546 C177 1.542 . S
