# Generated by pormake.
# Topology ctn, (3,4)-cn, num edge types: 1
# Building blocks:
#     Node 0, Type 0, BuildingBlock: PAMTOO_clean_linker_0, # of connection points: 3
#     Node 1, Type 0, BuildingBlock: PAMTOO_clean_linker_0, # of connection points: 3
#     Node 2, Type 0, BuildingBlock: PAMTOO_clean_linker_0, # of connection points: 3
#     Node 3, Type 0, BuildingBlock: PAMTOO_clean_linker_0, # of connection points: 3
#     Node 4, Type 0, BuildingBlock: PAMTOO_clean_linker_0, # of connection points: 3
#     Node 5, Type 0, BuildingBlock: PAMTOO_clean_linker_0, # of connection points: 3
#     Node 6, Type 0, BuildingBlock: PAMTOO_clean_linker_0, # of connection points: 3
#     Node 7, Type 0, BuildingBlock: PAMTOO_clean_linker_0, # of connection points: 3
#     Node 8, Type 0, BuildingBlock: PAMTOO_clean_linker_0, # of connection points: 3
#     Node 9, Type 0, BuildingBlock: PAMTOO_clean_linker_0, # of connection points: 3
#     Node 10, Type 0, BuildingBlock: PAMTOO_clean_linker_0, # of connection points: 3
#     Node 11, Type 0, BuildingBlock: PAMTOO_clean_linker_0, # of connection points: 3
#     Node 12, Type 0, BuildingBlock: PAMTOO_clean_linker_0, # of connection points: 3
#     Node 13, Type 0, BuildingBlock: PAMTOO_clean_linker_0, # of connection points: 3
#     Node 14, Type 0, BuildingBlock: PAMTOO_clean_linker_0, # of connection points: 3
#     Node 15, Type 0, BuildingBlock: PAMTOO_clean_linker_0, # of connection points: 3
#     Node 16, Type 1, BuildingBlock: QUQFOY_clean_sbu_1, # of connection points: 4
#     Node 17, Type 1, BuildingBlock: QUQFOY_clean_sbu_1, # of connection points: 4
#     Node 18, Type 1, BuildingBlock: QUQFOY_clean_sbu_1, # of connection points: 4
#     Node 19, Type 1, BuildingBlock: QUQFOY_clean_sbu_1, # of connection points: 4
#     Node 20, Type 1, BuildingBlock: QUQFOY_clean_sbu_1, # of connection points: 4
#     Node 21, Type 1, BuildingBlock: QUQFOY_clean_sbu_1, # of connection points: 4
#     Node 22, Type 1, BuildingBlock: QUQFOY_clean_sbu_1, # of connection points: 4
#     Node 23, Type 1, BuildingBlock: QUQFOY_clean_sbu_1, # of connection points: 4
#     Node 24, Type 1, BuildingBlock: QUQFOY_clean_sbu_1, # of connection points: 4
#     Node 25, Type 1, BuildingBlock: QUQFOY_clean_sbu_1, # of connection points: 4
#     Node 26, Type 1, BuildingBlock: QUQFOY_clean_sbu_1, # of connection points: 4
#     Node 27, Type 1, BuildingBlock: QUQFOY_clean_sbu_1, # of connection points: 4
#     Edge 28, Type (0, 1), BuildingBlock: TEMPAE_clean_linker_10, # of connection points: 2
#     Edge 29, Type (0, 1), BuildingBlock: TEMPAE_clean_linker_10, # of connection points: 2
#     Edge 30, Type (0, 1), BuildingBlock: TEMPAE_clean_linker_10, # of connection points: 2
#     Edge 31, Type (0, 1), BuildingBlock: TEMPAE_clean_linker_10, # of connection points: 2
#     Edge 32, Type (0, 1), BuildingBlock: TEMPAE_clean_linker_10, # of connection points: 2
#     Edge 33, Type (0, 1), BuildingBlock: TEMPAE_clean_linker_10, # of connection points: 2
#     Edge 34, Type (0, 1), BuildingBlock: TEMPAE_clean_linker_10, # of connection points: 2
#     Edge 35, Type (0, 1), BuildingBlock: TEMPAE_clean_linker_10, # of connection points: 2
#     Edge 36, Type (0, 1), BuildingBlock: TEMPAE_clean_linker_10, # of connection points: 2
#     Edge 37, Type (0, 1), BuildingBlock: TEMPAE_clean_linker_10, # of connection points: 2
#     Edge 38, Type (0, 1), BuildingBlock: TEMPAE_clean_linker_10, # of connection points: 2
#     Edge 39, Type (0, 1), BuildingBlock: TEMPAE_clean_linker_10, # of connection points: 2
#     Edge 40, Type (0, 1), BuildingBlock: TEMPAE_clean_linker_10, # of connection points: 2
#     Edge 41, Type (0, 1), BuildingBlock: TEMPAE_clean_linker_10, # of connection points: 2
#     Edge 42, Type (0, 1), BuildingBlock: TEMPAE_clean_linker_10, # of connection points: 2
#     Edge 43, Type (0, 1), BuildingBlock: TEMPAE_clean_linker_10, # of connection points: 2
#     Edge 44, Type (0, 1), BuildingBlock: TEMPAE_clean_linker_10, # of connection points: 2
#     Edge 45, Type (0, 1), BuildingBlock: TEMPAE_clean_linker_10, # of connection points: 2
#     Edge 46, Type (0, 1), BuildingBlock: TEMPAE_clean_linker_10, # of connection points: 2
#     Edge 47, Type (0, 1), BuildingBlock: TEMPAE_clean_linker_10, # of connection points: 2
#     Edge 48, Type (0, 1), BuildingBlock: TEMPAE_clean_linker_10, # of connection points: 2
#     Edge 49, Type (0, 1), BuildingBlock: TEMPAE_clean_linker_10, # of connection points: 2
#     Edge 50, Type (0, 1), BuildingBlock: TEMPAE_clean_linker_10, # of connection points: 2
#     Edge 51, Type (0, 1), BuildingBlock: TEMPAE_clean_linker_10, # of connection points: 2
#     Edge 52, Type (0, 1), BuildingBlock: TEMPAE_clean_linker_10, # of connection points: 2
#     Edge 53, Type (0, 1), BuildingBlock: TEMPAE_clean_linker_10, # of connection points: 2
#     Edge 54, Type (0, 1), BuildingBlock: TEMPAE_clean_linker_10, # of connection points: 2
#     Edge 55, Type (0, 1), BuildingBlock: TEMPAE_clean_linker_10, # of connection points: 2
#     Edge 56, Type (0, 1), BuildingBlock: TEMPAE_clean_linker_10, # of connection points: 2
#     Edge 57, Type (0, 1), BuildingBlock: TEMPAE_clean_linker_10, # of connection points: 2
#     Edge 58, Type (0, 1), BuildingBlock: TEMPAE_clean_linker_10, # of connection points: 2
#     Edge 59, Type (0, 1), BuildingBlock: TEMPAE_clean_linker_10, # of connection points: 2
#     Edge 60, Type (0, 1), BuildingBlock: TEMPAE_clean_linker_10, # of connection points: 2
#     Edge 61, Type (0, 1), BuildingBlock: TEMPAE_clean_linker_10, # of connection points: 2
#     Edge 62, Type (0, 1), BuildingBlock: TEMPAE_clean_linker_10, # of connection points: 2
#     Edge 63, Type (0, 1), BuildingBlock: TEMPAE_clean_linker_10, # of connection points: 2
#     Edge 64, Type (0, 1), BuildingBlock: TEMPAE_clean_linker_10, # of connection points: 2
#     Edge 65, Type (0, 1), BuildingBlock: TEMPAE_clean_linker_10, # of connection points: 2
#     Edge 66, Type (0, 1), BuildingBlock: TEMPAE_clean_linker_10, # of connection points: 2
#     Edge 67, Type (0, 1), BuildingBlock: TEMPAE_clean_linker_10, # of connection points: 2
#     Edge 68, Type (0, 1), BuildingBlock: TEMPAE_clean_linker_10, # of connection points: 2
#     Edge 69, Type (0, 1), BuildingBlock: TEMPAE_clean_linker_10, # of connection points: 2
#     Edge 70, Type (0, 1), BuildingBlock: TEMPAE_clean_linker_10, # of connection points: 2
#     Edge 71, Type (0, 1), BuildingBlock: TEMPAE_clean_linker_10, # of connection points: 2
#     Edge 72, Type (0, 1), BuildingBlock: TEMPAE_clean_linker_10, # of connection points: 2
#     Edge 73, Type (0, 1), BuildingBlock: TEMPAE_clean_linker_10, # of connection points: 2
#     Edge 74, Type (0, 1), BuildingBlock: TEMPAE_clean_linker_10, # of connection points: 2
#     Edge 75, Type (0, 1), BuildingBlock: TEMPAE_clean_linker_10, # of connection points: 2
# Relax obj value: 0.092
# Max RMSD: 0.209
# Mean RMSD: 0.144
data_MOF--net-ctn--node1-QUQFOY_clean_sbu_1--node2-PAMTOO_clean_linker_0--edge1-TEMPAE_clean_linker_10
_symmetry_space_group_name_H-M    P1
_symmetry_Int_Tables_number       1
_symmetry_cell_setting            triclinic
loop_
_symmetry_equiv_pos_as_xyz
'x, y, z'
_cell_length_a     54.540298
_cell_length_b     54.62881
_cell_length_c     55.579307
_cell_angle_alpha  87.685766
_cell_angle_beta   92.761491
_cell_angle_gamma 102.83531
loop_
_atom_site_label
_atom_site_type_symbol
_atom_site_fract_x
_atom_site_fract_y
_atom_site_fract_z
_atom_type_partial_charge
H0 H 0.02707 0.12716 0.05781 0.0
H1 H 0.05655 0.06193 0.07727 0.0
H2 H 0.07364 0.10018 0.00916 0.0
H3 H 0.05975 0.04576 0.0073 0.0
C4 C 0.06754 0.04046 0.02513 0.0
O5 O 0.0794 0.06186 0.03705 0.0
H6 H 0.05174 0.0299 0.03598 0.0
C7 C 0.03853 0.1141 0.05373 0.0
C8 C 0.05046 0.11645 0.03163 0.0
C9 C 0.04064 0.09457 0.07035 0.0
C10 C 0.05511 0.07741 0.06485 0.0
C11 C 0.06674 0.07933 0.04274 0.0
C12 C 0.06456 0.09889 0.02623 0.0
H13 H 0.29643 0.72054 0.25522 0.0
H14 H 0.24819 0.73823 0.19646 0.0
H15 H 0.31647 0.79102 0.21568 0.0
H16 H 0.27109 0.81296 0.20558 0.0
C17 C 0.26134 0.79958 0.19177 0.0
O18 O 0.27596 0.78281 0.18721 0.0
H19 H 0.24302 0.78938 0.19893 0.0
C20 C 0.29221 0.73338 0.24103 0.0
C21 C 0.30909 0.75645 0.23711 0.0
C22 C 0.27034 0.72645 0.22626 0.0
C23 C 0.26519 0.7431 0.20779 0.0
C24 C 0.28159 0.76649 0.20432 0.0
C25 C 0.30373 0.77298 0.21866 0.0
H26 H 0.94132 0.52754 0.10064 0.0
H27 H 0.91869 0.50445 0.02816 0.0
H28 H 0.97144 0.47026 0.06905 0.0
H29 H 0.98237 0.4912 0.01833 0.0
C30 C 0.96421 0.48076 0.01009 0.0
O31 O 0.94711 0.47184 0.02761 0.0
H32 H 0.95673 0.49408 0.99766 0.0
C33 C 0.94206 0.5156 0.08569 0.0
C34 C 0.95775 0.49832 0.08763 0.0
C35 C 0.92785 0.518 0.0643 0.0
C36 C 0.92916 0.50261 0.04496 0.0
C37 C 0.94499 0.48563 0.04669 0.0
C38 C 0.95918 0.48344 0.06797 0.0
H39 H 0.71309 0.85486 0.26831 0.0
H40 H 0.68372 0.7783 0.24781 0.0
H41 H 0.74965 0.82212 0.21509 0.0
H42 H 0.69831 0.79367 0.18699 0.0
C43 C 0.70195 0.77548 0.19442 0.0
O44 O 0.71695 0.77898 0.21527 0.0
H45 H 0.6834 0.76326 0.19872 0.0
C46 C 0.71422 0.83881 0.25789 0.0
C47 C 0.73368 0.84099 0.24181 0.0
C48 C 0.69611 0.81624 0.26038 0.0
C49 C 0.69761 0.79582 0.24636 0.0
C50 C 0.71673 0.79807 0.22992 0.0
C51 C 0.73493 0.82051 0.22787 0.0
H52 H 0.11077 0.95028 0.50418 0.0
H53 H 0.03799 0.92253 0.47 0.0
H54 H 0.08252 0.99334 0.44666 0.0
H55 H 0.02942 0.98828 0.46057 0.0
C56 C 0.02136 0.97285 0.44803 0.0
O57 O 0.03984 0.96146 0.44078 0.0
H58 H 0.0071 0.95883 0.45794 0.0
C59 C 0.09642 0.9525 0.4906 0.0
C60 C 0.09996 0.97407 0.4753 0.0
C61 C 0.07416 0.93383 0.48881 0.0
C62 C 0.05558 0.93642 0.47116 0.0
C63 C 0.05878 0.95788 0.45608 0.0
C64 C 0.0809 0.9765 0.45799 0.0
H65 H 0.20167 0.78569 0.78497 0.0
H66 H 0.23266 0.74395 0.73465 0.0
H67 H 0.2671 0.75696 0.80552 0.0
H68 H 0.30089 0.76211 0.76314 0.0
C69 C 0.29114 0.74435 0.75446 0.0
O70 O 0.26831 0.73492 0.76476 0.0
H71 H 0.28798 0.74855 0.73497 0.0
C72 C 0.21593 0.77583 0.78037 0.0
C73 C 0.2345 0.77276 0.79779 0.0
C74 C 0.21516 0.76587 0.7574 0.0
C75 C 0.23322 0.75232 0.75207 0.0
C76 C 0.252 0.74929 0.76938 0.0
C77 C 0.25278 0.75972 0.79212 0.0
H78 H 0.93922 0.56584 0.53271 0.0
H79 H 0.97135 0.53622 0.47413 0.0
H80 H 0.01956 0.58176 0.52606 0.0
H81 H 0.04134 0.59037 0.47793 0.0
C82 C 0.02725 0.57513 0.46911 0.0
O83 O 0.01785 0.55717 0.48651 0.0
H84 H 0.01202 0.5835 0.46049 0.0
C85 C 0.95556 0.56365 0.5234 0.0
C86 C 0.97967 0.57554 0.5321 0.0
C87 C 0.9522 0.54937 0.50256 0.0
C88 C 0.97345 0.5468 0.49046 0.0
C89 C 0.99761 0.55858 0.49897 0.0
C90 C 0.00073 0.5727 0.51981 0.0
H91 H 0.76672 0.83762 0.83826 0.0
H92 H 0.83966 0.83555 0.81314 0.0
H93 H 0.80258 0.8926 0.78565 0.0
H94 H 0.8431 0.88732 0.74805 0.0
C95 C 0.83984 0.86901 0.7582 0.0
O96 O 0.84175 0.87358 0.78255 0.0
H97 H 0.82051 0.85876 0.75251 0.0
C98 C 0.78229 0.84531 0.82684 0.0
C99 C 0.7814 0.86624 0.81145 0.0
C100 C 0.8035 0.83453 0.82811 0.0
C101 C 0.82341 0.84395 0.81282 0.0
C102 C 0.82265 0.86456 0.79733 0.0
C103 C 0.80215 0.87605 0.79716 0.0
H104 H 0.26408 0.33978 0.34881 0.0
H105 H 0.32589 0.31357 0.32197 0.0
H106 H 0.29546 0.36828 0.28054 0.0
H107 H 0.31166 0.32968 0.24912 0.0
C108 C 0.32275 0.32246 0.26402 0.0
O109 O 0.32815 0.34006 0.28176 0.0
H110 H 0.31131 0.30435 0.27109 0.0
C111 C 0.27774 0.3407 0.33511 0.0
C112 C 0.27723 0.3563 0.31432 0.0
C113 C 0.29533 0.32543 0.33805 0.0
C114 C 0.31236 0.32544 0.32001 0.0
C115 C 0.31198 0.34063 0.29925 0.0
C116 C 0.29479 0.3562 0.29653 0.0
H117 H 0.42977 0.01554 0.60835 0.0
H118 H 0.39813 0.99452 0.53765 0.0
H119 H 0.45016 0.95493 0.57229 0.0
H120 H 0.45598 0.98181 0.52065 0.0
C121 C 0.43838 0.96868 0.51425 0.0
O122 O 0.42307 0.95959 0.53314 0.0
H123 H 0.42833 0.97951 0.50135 0.0
C124 C 0.42768 0.00333 0.59313 0.0
C125 C 0.44155 0.98445 0.59305 0.0
C126 C 0.41183 0.00713 0.57328 0.0
C127 C 0.40965 0.99151 0.55346 0.0
C128 C 0.42361 0.97296 0.55313 0.0
C129 C 0.43935 0.96931 0.5729 0.0
H130 H 0.21905 0.36132 0.78315 0.0
H131 H 0.18701 0.29141 0.74831 0.0
H132 H 0.25617 0.33771 0.72478 0.0
H133 H 0.21376 0.31744 0.68917 0.0
C134 C 0.21036 0.29754 0.69594 0.0
O135 O 0.22269 0.29596 0.71801 0.0
H136 H 0.18973 0.29084 0.69795 0.0
C137 C 0.21945 0.34757 0.76975 0.0
C138 C 0.23947 0.35213 0.75408 0.0
C139 C 0.20018 0.32567 0.76812 0.0
C140 C 0.20184 0.30805 0.75077 0.0
C141 C 0.22207 0.31234 0.7354 0.0
C142 C 0.24094 0.33425 0.73718 0.0
H143 H 0.79149 0.20793 0.74993 0.0
H144 H 0.73861 0.23409 0.70102 0.0
H145 H 0.80461 0.28595 0.72714 0.0
H146 H 0.75707 0.30677 0.72173 0.0
C147 C 0.7478 0.29462 0.70682 0.0
O148 O 0.76397 0.28065 0.69917 0.0
H149 H 0.73044 0.28202 0.71367 0.0
C150 C 0.78606 0.22299 0.73913 0.0
C151 C 0.80103 0.24745 0.74017 0.0
C152 C 0.76345 0.21801 0.72524 0.0
C153 C 0.75594 0.23767 0.71198 0.0
C154 C 0.77078 0.26207 0.71277 0.0
C155 C 0.7932 0.26699 0.72687 0.0
H156 H 0.52746 0.63817 0.56252 0.0
H157 H 0.5562 0.57276 0.5822 0.0
H158 H 0.56841 0.60641 0.51174 0.0
H159 H 0.55712 0.55316 0.51271 0.0
C160 C 0.56578 0.5489 0.53047 0.0
O161 O 0.57734 0.57102 0.54136 0.0
H162 H 0.55071 0.53829 0.54212 0.0
C163 C 0.53745 0.62415 0.55767 0.0
C164 C 0.54733 0.62495 0.53461 0.0
C165 C 0.54014 0.60523 0.57479 0.0
C166 C 0.55407 0.58762 0.56929 0.0
C167 C 0.56443 0.5884 0.54667 0.0
C168 C 0.56098 0.60685 0.52939 0.0
H169 H 0.61264 0.46899 0.00624 0.0
H170 H 0.54963 0.42197 0.96854 0.0
H171 H 0.57879 0.49677 0.94232 0.0
H172 H 0.52112 0.47102 0.95951 0.0
C173 C 0.52005 0.46063 0.94248 0.0
O174 O 0.54324 0.45652 0.93708 0.0
H175 H 0.50689 0.44216 0.94542 0.0
C176 C 0.59885 0.46593 0.9914 0.0
C177 C 0.59871 0.48534 0.97397 0.0
C178 C 0.58099 0.44297 0.99013 0.0
C179 C 0.56339 0.43948 0.97051 0.0
C180 C 0.56238 0.45904 0.95377 0.0
C181 C 0.58007 0.48176 0.95533 0.0
H182 H 0.69152 0.26799 0.31419 0.0
H183 H 0.72188 0.22021 0.26949 0.0
H184 H 0.76227 0.24906 0.33422 0.0
H185 H 0.79417 0.24886 0.29139 0.0
C186 C 0.78273 0.2317 0.28289 0.0
O187 O 0.76249 0.22147 0.29679 0.0
H188 H 0.77601 0.23719 0.26466 0.0
C189 C 0.70594 0.2579 0.3107 0.0
C190 C 0.72669 0.25974 0.32694 0.0
C191 C 0.70379 0.24368 0.28992 0.0
C192 C 0.72322 0.23162 0.2852 0.0
C193 C 0.74437 0.23386 0.30102 0.0
C194 C 0.74611 0.24789 0.32184 0.0
H195 H 0.41396 0.11348 0.98751 0.0
H196 H 0.45027 0.0716 0.94192 0.0
H197 H 0.49324 0.13753 0.9751 0.0
H198 H 0.51171 0.13262 0.92511 0.0
C199 C 0.49981 0.11346 0.92266 0.0
O200 O 0.49403 0.10248 0.94506 0.0
H201 H 0.48246 0.11532 0.91198 0.0
C202 C 0.43074 0.11087 0.97924 0.0
C203 C 0.45376 0.12795 0.98366 0.0
C204 C 0.42923 0.0901 0.96468 0.0
C205 C 0.45078 0.08752 0.95307 0.0
C206 C 0.47348 0.10509 0.95638 0.0
C207 C 0.47511 0.12495 0.97188 0.0
O208 O 0.24067 0.87252 0.9604 0.0
Cd209 Cd 0.25073 0.89749 0.98766 0.0
Cd210 Cd 0.22171 0.92345 0.96105 0.0
O211 O 0.2166 0.89325 0.93869 0.0
O212 O 0.26685 0.87846 0.01252 0.0
O213 O 0.23283 0.89255 0.01898 0.0
C214 C 0.24967 0.88058 0.0269 0.0
C215 C 0.188 0.9378 0.97499 0.0
C216 C 0.22672 0.87445 0.94179 0.0
C217 C 0.27589 0.94851 0.96815 0.0
O218 O 0.25473 0.95009 0.95845 0.0
O219 O 0.27816 0.92917 0.98078 0.0
O220 O 0.19431 0.9414 0.95284 0.0
O221 O 0.20032 0.92502 0.98916 0.0
O222 O 0.16228 0.54478 0.27731 0.0
Cd223 Cd 0.14307 0.51251 0.29445 0.0
Cd224 Cd 0.10173 0.52717 0.26755 0.0
O225 O 0.13033 0.5569 0.25838 0.0
O226 O 0.17173 0.49959 0.30948 0.0
O227 O 0.14441 0.47813 0.28312 0.0
C228 C 0.16443 0.47985 0.29688 0.0
C229 C 0.0717 0.51577 0.23615 0.0
C230 C 0.15368 0.56051 0.26385 0.0
C231 C 0.09947 0.52146 0.32193 0.0
O232 O 0.08885 0.52575 0.30183 0.0
O233 O 0.121 0.516 0.32282 0.0
O234 O 0.07366 0.53616 0.24757 0.0
O235 O 0.08642 0.50108 0.24304 0.0
O236 O 0.7785 0.71375 0.98267 0.0
Cd237 Cd 0.76313 0.68934 0.00992 0.0
Cd238 Cd 0.7954 0.66159 0.99274 0.0
O239 O 0.80408 0.69194 0.96887 0.0
O240 O 0.74361 0.70908 0.02751 0.0
O241 O 0.77509 0.69455 0.04471 0.0
C242 C 0.7575 0.70671 0.04648 0.0
C243 C 0.82712 0.6439 0.01083 0.0
C244 C 0.79465 0.71127 0.96775 0.0
C245 C 0.74003 0.63797 0.99147 0.0
O246 O 0.76207 0.63595 0.98692 0.0
O247 O 0.73643 0.65775 0.0006 0.0
O248 O 0.82138 0.64203 0.98812 0.0
O249 O 0.8155 0.65689 0.02332 0.0
O250 O 0.93469 0.029 0.28305 0.0
Cd251 Cd 0.9146 0.03323 0.25127 0.0
Cd252 Cd 0.88487 0.05014 0.28269 0.0
O253 O 0.91278 0.04569 0.30761 0.0
O254 O 0.93645 0.02589 0.22617 0.0
O255 O 0.92673 0.06286 0.22862 0.0
C256 C 0.93835 0.04853 0.21784 0.0
C257 C 0.87 0.08711 0.28199 0.0
C258 C 0.93115 0.03567 0.30403 0.0
C259 C 0.86155 0.00346 0.25602 0.0
O260 O 0.85939 0.01801 0.27265 0.0
O261 O 0.88159 0.00718 0.24439 0.0
O262 O 0.86432 0.07006 0.29876 0.0
O263 O 0.88466 0.08336 0.26559 0.0
O264 O 0.26338 0.20385 0.49463 0.0
Cd265 Cd 0.25309 0.17945 0.5233 0.0
Cd266 Cd 0.29022 0.15887 0.50643 0.0
O267 O 0.29736 0.19141 0.48505 0.0
O268 O 0.231 0.19613 0.54113 0.0
O269 O 0.26663 0.18859 0.55696 0.0
C270 C 0.24701 0.1978 0.55912 0.0
C271 C 0.3227 0.14282 0.52518 0.0
C272 C 0.28257 0.20636 0.48194 0.0
C273 C 0.23706 0.12804 0.50394 0.0
O274 O 0.25952 0.13068 0.49741 0.0
O275 O 0.23078 0.14495 0.51574 0.0
O276 O 0.31895 0.14287 0.50211 0.0
O277 O 0.30885 0.15344 0.53771 0.0
O278 O 0.44002 0.54189 0.7893 0.0
Cd279 Cd 0.4185 0.54639 0.75854 0.0
Cd280 Cd 0.39166 0.56324 0.79099 0.0
O281 O 0.4203 0.55933 0.81526 0.0
O282 O 0.43899 0.53868 0.73244 0.0
O283 O 0.43006 0.5759 0.73559 0.0
C284 C 0.441 0.56139 0.72428 0.0
C285 C 0.37883 0.60101 0.78506 0.0
C286 C 0.43797 0.54874 0.81056 0.0
C287 C 0.36627 0.51626 0.76648 0.0
O288 O 0.36547 0.53078 0.78355 0.0
O289 O 0.38512 0.5203 0.75315 0.0
O290 O 0.37281 0.58674 0.80391 0.0
O291 O 0.39293 0.5941 0.76978 0.0
O292 O 0.7345 0.37654 0.47991 0.0
Cd293 Cd 0.74208 0.4014 0.5077 0.0
Cd294 Cd 0.72242 0.42985 0.47411 0.0
O295 O 0.71595 0.39844 0.45355 0.0
O296 O 0.7557 0.38067 0.5329 0.0
O297 O 0.72199 0.3956 0.53799 0.0
C298 C 0.73785 0.38274 0.54643 0.0
C299 C 0.68999 0.44735 0.486 0.0
C300 C 0.72368 0.37865 0.45942 0.0
C301 C 0.77558 0.44961 0.48897 0.0
O302 O 0.75813 0.45217 0.47375 0.0
O303 O 0.77212 0.4316 0.5045 0.0
O304 O 0.69776 0.4506 0.46427 0.0
O305 O 0.70039 0.43355 0.50095 0.0
O306 O 0.65658 0.03974 0.7829 0.0
Cd307 Cd 0.6347 0.00812 0.79852 0.0
Cd308 Cd 0.60036 0.01778 0.7608 0.0
O309 O 0.63261 0.04253 0.75029 0.0
O310 O 0.65991 0.99457 0.81872 0.0
O311 O 0.63753 0.97381 0.78868 0.0
C312 C 0.65505 0.97518 0.8054 0.0
C313 C 0.57123 0.0056 0.72869 0.0
C314 C 0.65291 0.05006 0.76259 0.0
C315 C 0.5886 0.02201 0.8139 0.0
O316 O 0.58372 0.02512 0.79153 0.0
O317 O 0.60777 0.01368 0.82102 0.0
O318 O 0.57667 0.02811 0.73628 0.0
O319 O 0.58237 0.98943 0.7394 0.0
O320 O 0.97713 0.31129 0.92297 0.0
Cd321 Cd 0.97633 0.27869 0.90517 0.0
Cd322 Cd 0.00207 0.31043 0.87269 0.0
O323 O -0.00053 0.3374 0.89681 0.0
O324 O 0.97057 0.25042 0.92944 0.0
O325 O 0.00559 0.26202 0.90939 0.0
C326 C 0.99273 0.24729 0.92526 0.0
C327 C 0.04062 0.31052 0.85662 0.0
C328 C 0.98783 0.33349 0.91637 0.0
C329 C 0.95142 0.27964 0.85646 0.0
O330 O 0.97078 0.2963 0.85115 0.0
O331 O 0.94974 0.26946 0.87745 0.0
O332 O 0.02734 0.32621 0.84888 0.0
O333 O 0.03236 0.29502 0.87407 0.0
O334 O 0.47782 0.81364 0.4196 0.0
Cd335 Cd 0.4842 0.7855 0.39846 0.0
Cd336 Cd 0.50819 0.82422 0.37242 0.0
O337 O 0.50429 0.84466 0.40169 0.0
O338 O 0.4774 0.75349 0.4181 0.0
O339 O 0.51543 0.77265 0.40658 0.0
C340 C 0.5012 0.75432 0.41805 0.0
C341 C 0.54706 0.82375 0.35731 0.0
C342 C 0.48917 0.83666 0.41841 0.0
C343 C 0.46165 0.79387 0.34965 0.0
O344 O 0.47734 0.81485 0.34919 0.0
O345 O 0.46261 0.77803 0.36687 0.0
O346 O 0.53676 0.84271 0.35316 0.0
O347 O 0.53551 0.80539 0.37078 0.0
O348 O 0.9745 0.76901 0.6952 0.0
Cd349 Cd -0.0 0.7524 0.67922 0.0
Cd350 Cd 0.98166 0.77055 0.63793 0.0
O351 O 0.95866 0.7822 0.66116 0.0
O352 O 0.02593 0.74775 0.70422 0.0
O353 O 0.03445 0.77197 0.67137 0.0
C354 C 0.04232 0.76222 0.69101 0.0
C355 C 0.00279 0.80026 0.61064 0.0
C356 C 0.95899 0.78011 0.68401 0.0
C357 C 0.97912 0.71521 0.64129 0.0
O358 O 0.97463 0.73363 0.62849 0.0
O359 O 0.98857 0.71847 0.66257 0.0
O360 O 0.97907 0.79061 0.60765 0.0
O361 O 0.01466 0.79298 0.62929 0.0
O362 O 0.48074 0.26396 0.19169 0.0
Cd363 Cd 0.50868 0.25494 0.17214 0.0
Cd364 Cd 0.50346 0.29422 0.14491 0.0
O365 O 0.48379 0.30108 0.1736 0.0
O366 O 0.52737 0.23385 0.19242 0.0
O367 O 0.54443 0.27242 0.17906 0.0
C368 C 0.54683 0.25219 0.19093 0.0
C369 C 0.53337 0.32595 0.12746 0.0
C370 C 0.47467 0.28514 0.18989 0.0
C371 C 0.48887 0.24515 0.12171 0.0
O372 O 0.486 0.26759 0.12072 0.0
O373 O 0.49922 0.23682 0.14027 0.0
O374 O 0.5098 0.32625 0.12581 0.0
O375 O 0.54032 0.30811 0.14003 0.0
C376 C 0.21189 0.7773 0.83464 0.0
C377 C 0.23409 0.78313 0.82187 0.0
C378 C 0.20977 0.78967 0.85578 0.0
C379 C 0.23024 0.80855 0.86409 0.0
C380 C 0.25312 0.81369 0.85183 0.0
C381 C 0.25482 0.80074 0.83088 0.0
C382 C 0.18525 0.78333 0.86859 0.0
C383 C 0.27531 0.8338 0.8601 0.0
C384 C 0.21664 0.86188 0.89909 0.0
C385 C 0.2246 0.85604 0.92256 0.0
C386 C 0.21798 0.84631 0.87997 0.0
C387 C 0.22715 0.82419 0.8845 0.0
C388 C 0.23406 0.81754 0.90832 0.0
C389 C 0.23285 0.83364 0.92706 0.0
C390 C 0.2105 0.85405 0.85476 0.0
C391 C 0.24342 0.79384 0.9139 0.0
H392 H 0.19593 0.7635 0.82767 0.0
H393 H 0.2719 0.80531 0.82086 0.0
H394 H 0.18877 0.78003 0.88815 0.0
H395 H 0.17584 0.79938 0.8666 0.0
H396 H 0.17219 0.76642 0.8613 0.0
H397 H 0.2922 0.83438 0.84951 0.0
H398 H 0.27031 0.85242 0.85826 0.0
H399 H 0.28015 0.83065 0.87941 0.0
H400 H 0.21035 0.87919 0.89544 0.0
H401 H 0.23889 0.82892 0.94519 0.0
H402 H 0.1959 0.8388 0.84668 0.0
H403 H 0.22703 0.85731 0.84322 0.0
H404 H 0.20308 0.87144 0.85438 0.0
H405 H 0.22995 0.7774 0.90633 0.0
H406 H 0.24616 0.79039 0.93358 0.0
H407 H 0.26163 0.79519 0.90529 0.0
C408 C 0.02833 0.53966 0.44152 0.0
C409 C 0.03904 0.56386 0.44958 0.0
C410 C 0.03801 0.53004 0.42189 0.0
C411 C 0.05837 0.54527 0.40965 0.0
C412 C 0.06925 0.56969 0.41776 0.0
C413 C 0.05941 0.57868 0.43762 0.0
C414 C 0.02602 0.50388 0.41382 0.0
C415 C 0.09071 0.58666 0.40496 0.0
C416 C 0.09774 0.51896 0.36704 0.0
C417 C 0.0874 0.52488 0.34451 0.0
C418 C 0.08781 0.52452 0.3885 0.0
C419 C 0.06727 0.53651 0.38737 0.0
C420 C 0.05621 0.54171 0.36473 0.0
C421 C 0.0663 0.5357 0.34361 0.0
C422 C 0.09981 0.51833 0.41235 0.0
C423 C 0.03439 0.55466 0.36275 0.0
H424 H 0.01216 0.52839 0.45035 0.0
H425 H 0.0673 0.59759 0.4435 0.0
H426 H 0.01657 0.50491 0.3958 0.0
H427 H 0.04061 0.49285 0.41207 0.0
H428 H 0.01188 0.49367 0.42653 0.0
H429 H 0.0977 0.60472 0.41414 0.0
H430 H 0.10657 0.57715 0.40383 0.0
H431 H 0.08446 0.5908 0.38623 0.0
H432 H 0.11393 0.51045 0.36792 0.0
H433 H 0.05814 0.54034 0.32632 0.0
H434 H 0.08524 0.50786 0.42448 0.0
H435 H 0.1091 0.53596 0.42133 0.0
H436 H 0.11408 0.50697 0.41023 0.0
H437 H 0.01879 0.54435 0.37383 0.0
H438 H 0.02709 0.55614 0.34386 0.0
H439 H 0.04043 0.57386 0.36982 0.0
C440 C 0.82705 0.81677 0.86166 0.0
C441 C 0.80539 0.81456 0.84652 0.0
C442 C 0.82806 0.79969 0.88104 0.0
C443 C 0.80696 0.77987 0.88523 0.0
C444 C 0.78549 0.77689 0.86932 0.0
C445 C 0.78492 0.79435 0.8502 0.0
C446 C 0.85121 0.80358 0.89769 0.0
C447 C 0.76273 0.7558 0.87301 0.0
C448 C 0.81189 0.72427 0.92707 0.0
C449 C 0.80073 0.73005 0.94773 0.0
C450 C 0.81472 0.74063 0.90674 0.0
C451 C 0.80643 0.76339 0.90723 0.0
C452 C 0.79628 0.76986 0.92843 0.0
C453 C 0.79345 0.75307 0.94837 0.0
C454 C 0.82556 0.73308 0.88442 0.0
C455 C 0.78756 0.79413 0.92978 0.0
H456 H 0.84281 0.83252 0.85899 0.0
H457 H 0.76828 0.79246 0.83835 0.0
H458 H 0.84649 0.80905 0.91561 0.0
H459 H 0.85786 0.78586 0.90038 0.0
H460 H 0.86683 0.81843 0.8907 0.0
H461 H 0.74841 0.75494 0.85798 0.0
H462 H 0.76841 0.73751 0.87474 0.0
H463 H 0.75389 0.75841 0.89002 0.0
H464 H 0.8175 0.70648 0.92639 0.0
H465 H 0.78499 0.75777 0.96432 0.0
H466 H 0.84098 0.74845 0.87801 0.0
H467 H 0.81077 0.72968 0.86975 0.0
H468 H 0.83294 0.71578 0.88757 0.0
H469 H 0.80279 0.81029 0.92454 0.0
H470 H 0.78173 0.79715 0.94811 0.0
H471 H 0.77135 0.79398 0.91689 0.0
C472 C 0.02048 0.0072 0.41669 0.0
C473 C 0.00935 0.98348 0.42636 0.0
C474 C 0.00945 0.01742 0.39647 0.0
C475 C 0.98692 0.00342 0.38565 0.0
C476 C 0.97595 0.97919 0.39509 0.0
C477 C 0.9874 0.96945 0.4153 0.0
C478 C 0.02175 0.04323 0.38682 0.0
C479 C 0.95201 0.96363 0.38396 0.0
C480 C 0.94252 0.03552 0.34821 0.0
C481 C 0.94735 0.02993 0.32471 0.0
C482 C 0.95589 0.02774 0.3682 0.0
C483 C 0.97455 0.01407 0.3646 0.0
C484 C 0.98027 0.00928 0.34091 0.0
C485 C 0.9666 0.01727 0.32125 0.0
C486 C 0.94937 0.03331 0.39321 0.0
C487 C 0.00014 0.99486 0.33637 0.0
H488 H 0.03772 0.01778 0.4251 0.0
H489 H 0.9791 0.95093 0.42261 0.0
H490 H 0.02603 0.04231 0.36761 0.0
H491 H 0.00863 0.05603 0.38766 0.0
H492 H 0.03946 0.05147 0.39707 0.0
H493 H 0.94608 0.94505 0.39333 0.0
H494 H 0.93659 0.97382 0.38457 0.0
H495 H 0.95463 0.96059 0.36473 0.0
H496 H 0.92777 0.04538 0.3511 0.0
H497 H 0.97056 0.01295 0.30317 0.0
H498 H 0.96659 0.04256 0.40359 0.0
H499 H 0.94122 0.01547 0.403 0.0
H500 H 0.93562 0.04559 0.39288 0.0
H501 H 0.01809 0.00334 0.34605 0.0
H502 H 0.00366 0.99438 0.31689 0.0
H503 H 0.99411 0.97526 0.34344 0.0
C504 C 0.21055 0.25545 0.67928 0.0
C505 C 0.21913 0.28159 0.6782 0.0
C506 C 0.21692 0.24044 0.66171 0.0
C507 C 0.23222 0.25194 0.64269 0.0
C508 C 0.24199 0.27824 0.64229 0.0
C509 C 0.23541 0.29275 0.66016 0.0
C510 C 0.20634 0.21245 0.66287 0.0
C511 C 0.25835 0.29121 0.62233 0.0
C512 C 0.26024 0.21277 0.60092 0.0
C513 C 0.24302 0.21058 0.58112 0.0
C514 C 0.25682 0.22582 0.62136 0.0
C515 C 0.23577 0.23699 0.62188 0.0
C516 C 0.21819 0.23452 0.60208 0.0
C517 C 0.222 0.22132 0.58201 0.0
C518 C 0.27585 0.22796 0.64223 0.0
C519 C 0.19552 0.2462 0.60188 0.0
H520 H 0.19825 0.24688 0.69349 0.0
H521 H 0.24234 0.31296 0.65959 0.0
H522 H 0.19222 0.20721 0.64785 0.0
H523 H 0.22144 0.20215 0.6607 0.0
H524 H 0.19712 0.20615 0.68013 0.0
H525 H 0.26622 0.31138 0.62581 0.0
H526 H 0.27413 0.28185 0.62003 0.0
H527 H 0.24709 0.28985 0.60507 0.0
H528 H 0.27651 0.20449 0.60037 0.0
H529 H 0.20857 0.21972 0.56682 0.0
H530 H 0.26629 0.22095 0.65914 0.0
H531 H 0.28516 0.24797 0.64472 0.0
H532 H 0.29054 0.21726 0.6395 0.0
H533 H 0.18402 0.23909 0.61766 0.0
H534 H 0.1834 0.24215 0.58524 0.0
H535 H 0.20175 0.26687 0.60333 0.0
C536 C 0.53894 0.59907 0.6197 0.0
C537 C 0.52665 0.60272 0.59758 0.0
C538 C 0.5257 0.59494 0.64108 0.0
C539 C 0.49949 0.59396 0.64014 0.0
C540 C 0.48716 0.5983 0.6179 0.0
C541 C 0.50093 0.60278 0.59692 0.0
C542 C 0.53957 0.59081 0.66452 0.0
C543 C 0.45918 0.59697 0.61606 0.0
C544 C 0.46081 0.55249 0.68717 0.0
C545 C 0.45555 0.57015 0.70263 0.0
C546 C 0.47496 0.56007 0.66675 0.0
C547 C 0.48452 0.58597 0.66186 0.0
C548 C 0.4794 0.60395 0.67745 0.0
C549 C 0.46472 0.59582 0.69758 0.0
C550 C 0.47958 0.54031 0.65032 0.0
C551 C 0.48962 0.6317 0.67297 0.0
H552 H 0.55888 0.59924 0.62023 0.0
H553 H 0.49134 0.60535 0.57976 0.0
H554 H 0.53527 0.60293 0.67857 0.0
H555 H 0.53322 0.57103 0.67098 0.0
H556 H 0.56028 0.59481 0.66263 0.0
H557 H 0.45281 0.6026 0.59779 0.0
H558 H 0.44886 0.57748 0.62029 0.0
H559 H 0.45391 0.60928 0.62939 0.0
H560 H 0.45363 0.53262 0.69092 0.0
H561 H 0.46082 0.60951 0.70959 0.0
H562 H 0.50008 0.54148 0.64942 0.0
H563 H 0.47233 0.54367 0.63177 0.0
H564 H 0.47041 0.52098 0.65646 0.0
H565 H 0.51045 0.63566 0.67256 0.0
H566 H 0.48426 0.64324 0.687 0.0
H567 H 0.48255 0.63766 0.65513 0.0
C568 C 0.75452 0.33491 0.68193 0.0
C569 C 0.741 0.31019 0.6857 0.0
C570 C 0.75116 0.34826 0.66037 0.0
C571 C 0.73421 0.33638 0.64207 0.0
C572 C 0.71968 0.3118 0.64629 0.0
C573 C 0.72334 0.29895 0.66807 0.0
C574 C 0.76697 0.37444 0.65659 0.0
C575 C 0.70155 0.29842 0.62719 0.0
C576 C 0.71876 0.375 0.5871 0.0
C577 C 0.73611 0.37071 0.57081 0.0
C578 C 0.71777 0.36393 0.61044 0.0
C579 C 0.73442 0.34815 0.61747 0.0
C580 C 0.75173 0.34357 0.60098 0.0
C581 C 0.75239 0.35493 0.57793 0.0
C582 C 0.69914 0.36925 0.62762 0.0
C583 C 0.76973 0.32674 0.60769 0.0
H584 H 0.76842 0.34344 0.69548 0.0
H585 H 0.71319 0.27968 0.67093 0.0
H586 H 0.78147 0.37409 0.64335 0.0
H587 H 0.75518 0.38729 0.64909 0.0
H588 H 0.77662 0.3822 0.67358 0.0
H589 H 0.68941 0.28081 0.63437 0.0
H590 H 0.68938 0.31078 0.61945 0.0
H591 H 0.71228 0.29361 0.61227 0.0
H592 H 0.70615 0.38721 0.58171 0.0
H593 H 0.76579 0.35141 0.56545 0.0
H594 H 0.70929 0.37836 0.64383 0.0
H595 H 0.68671 0.3514 0.63383 0.0
H596 H 0.68725 0.38165 0.61929 0.0
H597 H 0.78212 0.33438 0.6233 0.0
H598 H 0.78176 0.32483 0.59261 0.0
H599 H 0.75908 0.30775 0.6132 0.0
C600 C 0.48433 0.9804 0.60849 0.0
C601 C 0.45968 0.98187 0.61323 0.0
C602 C 0.50251 0.98072 0.62726 0.0
C603 C 0.49583 0.98247 0.65132 0.0
C604 C 0.47061 0.9825 0.65631 0.0
C605 C 0.45285 0.98234 0.63716 0.0
C606 C 0.52923 0.98086 0.62118 0.0
C607 C 0.4627 0.9841 0.68175 0.0
C608 C 0.54176 0.97398 0.70319 0.0
C609 C 0.55269 0.99905 0.70839 0.0
C610 C 0.5232 0.96813 0.68456 0.0
C611 C 0.51576 0.98783 0.67078 0.0
C612 C 0.52716 0.01311 0.67568 0.0
C613 C 0.54536 0.01838 0.69447 0.0
C614 C 0.51128 0.94098 0.67987 0.0
C615 C 0.51999 0.03469 0.66123 0.0
H616 H 0.48974 0.98023 0.58999 0.0
H617 H 0.43371 0.9831 0.64088 0.0
H618 H 0.54129 -0.00023 0.6243 0.0
H619 H 0.53688 0.96728 0.63303 0.0
H620 H 0.53066 0.97619 0.6021 0.0
H621 H 0.44192 0.98071 0.68285 0.0
H622 H 0.46969 0.97026 0.69383 0.0
H623 H 0.47111 0.00306 0.6886 0.0
H624 H 0.54732 0.95899 0.71397 0.0
H625 H 0.55386 0.0378 0.69826 0.0
H626 H 0.51342 0.93683 0.66081 0.0
H627 H 0.4908 0.93734 0.68287 0.0
H628 H 0.51967 0.92787 0.69172 0.0
H629 H 0.52276 0.0328 0.64181 0.0
H630 H 0.53119 0.05324 0.66695 0.0
H631 H 0.49976 0.03431 0.66323 0.0
C632 C 0.82947 0.27293 0.77102 0.0
C633 C 0.82433 0.25245 0.75575 0.0
C634 C 0.85061 0.27695 0.78696 0.0
C635 C 0.86702 0.26013 0.78755 0.0
C636 C 0.86219 0.2397 0.77186 0.0
C637 C 0.84088 0.23609 0.75615 0.0
C638 C 0.85515 0.29893 0.80347 0.0
C639 C 0.87938 0.22151 0.77184 0.0
C640 C 0.93267 0.28371 0.81493 0.0
C641 C 0.93032 0.27315 0.83839 0.0
C642 C 0.91236 0.27922 0.79805 0.0
C643 C 0.88911 0.26385 0.80478 0.0
C644 C 0.88676 0.25263 0.82821 0.0
C645 C 0.90742 0.25737 0.84473 0.0
C646 C 0.91562 0.29137 0.77317 0.0
C647 C 0.86223 0.23608 0.836 0.0
H648 H 0.81657 0.28543 0.77097 0.0
H649 H 0.83711 0.22041 0.74416 0.0
H650 H 0.85479 0.29205 0.82254 0.0
H651 H 0.87406 0.3111 0.80071 0.0
H652 H 0.84085 0.31051 0.80046 0.0
H653 H 0.87324 0.20689 0.75816 0.0
H654 H 0.89886 0.23178 0.76819 0.0
H655 H 0.87997 0.2121 0.78986 0.0
H656 H 0.95032 0.29584 0.8098 0.0
H657 H 0.90543 0.24912 0.8628 0.0
H658 H 0.90288 0.30456 0.77021 0.0
H659 H 0.91038 0.27691 0.75927 0.0
H660 H 0.93524 0.3019 0.77044 0.0
H661 H 0.84738 0.24709 0.83531 0.0
H662 H 0.86374 0.22808 0.85457 0.0
H663 H 0.856 0.22041 0.82346 0.0
C664 C 0.46425 0.93606 0.51245 0.0
C665 C 0.44534 0.94725 0.50211 0.0
C666 C 0.47181 0.91679 0.50081 0.0
C667 C 0.46004 0.90854 0.47841 0.0
C668 C 0.44028 0.91921 0.46837 0.0
C669 C 0.43309 0.9384 0.48043 0.0
C670 C 0.4928 0.90574 0.51215 0.0
C671 C 0.42719 0.91083 0.44458 0.0
C672 C 0.49504 0.8802 0.43346 0.0
C673 C 0.48345 0.8546 0.43549 0.0
C674 C 0.48811 0.89784 0.44787 0.0
C675 C 0.46916 0.8897 0.46476 0.0
C676 C 0.45805 0.86381 0.46757 0.0
C677 C 0.46532 0.84655 0.45289 0.0
C678 C 0.50045 0.9253 0.4444 0.0
C679 C 0.43788 0.85443 0.4855 0.0
H680 H 0.47341 0.94277 0.52943 0.0
H681 H 0.4182 0.94686 0.47267 0.0
H682 H 0.48675 0.88499 0.51369 0.0
H683 H 0.50926 0.91015 0.5005 0.0
H684 H 0.49887 0.91311 0.53034 0.0
H685 H 0.41146 0.92024 0.43979 0.0
H686 H 0.44089 0.91505 0.43004 0.0
H687 H 0.41966 0.89022 0.44519 0.0
H688 H 0.50914 0.88663 0.42016 0.0
H689 H 0.45631 0.82681 0.45465 0.0
H690 H 0.5083 0.93334 0.46188 0.0
H691 H 0.4862 0.93584 0.4376 0.0
H692 H 0.51583 0.9284 0.43147 0.0
H693 H 0.44434 0.86167 0.50362 0.0
H694 H 0.43256 0.83359 0.48683 0.0
H695 H 0.42084 0.86156 0.48007 0.0
C696 C 0.16892 0.34272 0.7906 0.0
C697 C 0.17783 0.32196 0.78352 0.0
C698 C 0.14758 0.33964 0.80444 0.0
C699 C 0.13399 0.31515 0.81049 0.0
C700 C 0.14275 0.29407 0.80356 0.0
C701 C 0.16481 0.29773 0.79059 0.0
C702 C 0.1392 0.36266 0.812 0.0
C703 C 0.12833 0.26764 0.80909 0.0
C704 C 0.08583 0.30812 0.859 0.0
C705 C 0.06419 0.30999 0.84513 0.0
C706 C 0.10879 0.30951 0.848 0.0
C707 C 0.10968 0.3118 0.82254 0.0
C708 C 0.08747 0.31246 0.80848 0.0
C709 C 0.0651 0.31208 0.82 0.0
C710 C 0.13226 0.30968 0.8636 0.0
C711 C 0.0874 0.314 0.78128 0.0
H712 H 0.17817 0.36154 0.78487 0.0
H713 H 0.17165 0.28149 0.78578 0.0
H714 H 0.12143 0.36406 0.80203 0.0
H715 H 0.1354 0.36122 0.8315 0.0
H716 H 0.15348 0.38023 0.80843 0.0
H717 H 0.13804 0.25324 0.80306 0.0
H718 H 0.12554 0.26478 0.82872 0.0
H719 H 0.10938 0.26459 0.79998 0.0
H720 H 0.08502 0.30663 0.87848 0.0
H721 H 0.04819 0.31323 0.80933 0.0
H722 H 0.14568 0.32805 0.86124 0.0
H723 H 0.14177 0.295 0.85804 0.0
H724 H 0.12817 0.30656 0.88301 0.0
H725 H 0.09874 0.33246 0.77517 0.0
H726 H 0.06809 0.31172 0.77304 0.0
H727 H 0.09615 0.29929 0.77443 0.0
C728 C 0.52012 0.65281 0.51579 0.0
C729 C 0.54248 0.64401 0.51593 0.0
C730 C 0.51546 0.67121 0.49899 0.0
C731 C 0.53292 0.68023 0.48093 0.0
C732 C 0.55512 0.67096 0.48033 0.0
C733 C 0.5599 0.65338 0.49811 0.0
C734 C 0.49182 0.68106 0.50067 0.0
C735 C 0.57374 0.67948 0.46081 0.0
C736 C 0.50334 0.71001 0.42756 0.0
C737 C 0.51186 0.73556 0.43205 0.0
C738 C 0.51155 0.69177 0.44239 0.0
C739 C 0.52765 0.69935 0.46278 0.0
C740 C 0.53668 0.72526 0.46703 0.0
C741 C 0.52902 0.74312 0.45127 0.0
C742 C 0.50231 0.66439 0.4367 0.0
C743 C 0.55307 0.73411 0.48905 0.0
H744 H 0.50597 0.64526 0.52874 0.0
H745 H 0.5774 0.64716 0.49805 0.0
H746 H 0.49664 0.70188 0.50124 0.0
H747 H 0.47932 0.67593 0.48448 0.0
H748 H 0.48117 0.67351 0.51688 0.0
H749 H 0.58932 0.66935 0.46202 0.0
H750 H 0.56401 0.67644 0.44282 0.0
H751 H 0.58191 0.6999 0.46203 0.0
H752 H 0.49009 0.70433 0.41256 0.0
H753 H 0.5353 0.76297 0.45475 0.0
H754 H 0.48855 0.65509 0.4501 0.0
H755 H 0.51818 0.65467 0.43786 0.0
H756 H 0.49304 0.66186 0.41845 0.0
H757 H 0.54223 0.72812 0.50548 0.0
H758 H 0.55974 0.75487 0.48892 0.0
H759 H 0.56966 0.72546 0.49037 0.0
C760 C 0.85201 0.82826 0.75048 0.0
C761 C 0.85883 0.85446 0.75174 0.0
C762 C 0.86875 0.81473 0.74203 0.0
C763 C 0.89289 0.82778 0.73495 0.0
C764 C 0.90038 0.85409 0.73773 0.0
C765 C 0.88322 0.86712 0.74617 0.0
C766 C 0.86011 0.78669 0.73946 0.0
C767 C 0.92602 0.86865 0.73059 0.0
C768 C 0.94329 0.7921 0.72267 0.0
C769 C 0.9415 0.79125 0.69742 0.0
C770 C 0.92738 0.80364 0.73526 0.0
C771 C 0.90925 0.81447 0.72228 0.0
C772 C 0.90706 0.81323 0.69687 0.0
C773 C 0.9232 0.80169 0.68477 0.0
C774 C 0.93024 0.80465 0.76238 0.0
C775 C 0.88787 0.82444 0.68236 0.0
H776 H 0.83323 0.8185 0.75526 0.0
H777 H 0.88854 0.88737 0.74759 0.0
H778 H 0.85765 0.78228 0.72006 0.0
H779 H 0.87449 0.77693 0.74745 0.0
H780 H 0.84198 0.77905 0.7482 0.0
H781 H 0.92983 0.88849 0.73614 0.0
H782 H 0.94094 0.85971 0.73877 0.0
H783 H 0.92731 0.86848 0.71074 0.0
H784 H 0.95737 0.7841 0.7326 0.0
H785 H 0.92155 0.80104 0.66528 0.0
H786 H 0.91198 0.79639 0.77058 0.0
H787 H 0.93588 0.82449 0.76784 0.0
H788 H 0.94454 0.79445 0.76987 0.0
H789 H 0.8687 0.81617 0.68861 0.0
H790 H 0.88814 0.82129 0.66276 0.0
H791 H 0.89158 0.84496 0.68508 0.0
C792 C 0.06997 0.91867 0.53153 0.0
C793 C 0.06891 0.91312 0.50707 0.0
C794 C 0.06157 0.8998 0.54897 0.0
C795 C 0.05235 0.87476 0.54175 0.0
C796 C 0.05269 0.86885 0.5172 0.0
C797 C 0.06067 0.88821 0.50006 0.0
C798 C 0.06104 0.90696 0.57488 0.0
C799 C 0.04355 0.84228 0.50889 0.0
C800 C 0.04183 0.82336 0.59079 0.0
C801 C 0.01575 0.81926 0.59319 0.0
C802 C 0.05405 0.84108 0.57379 0.0
C803 C 0.03989 0.85538 0.55939 0.0
C804 C 0.0136 0.85148 0.56202 0.0
C805 C 0.00182 0.83325 0.57868 0.0
C806 C 0.08201 0.84436 0.57108 0.0
C807 C 0.99792 0.86674 0.54738 0.0
H808 H 0.0761 0.93802 0.53687 0.0
H809 H 0.06 0.88398 0.48111 0.0
H810 H 0.04122 0.90439 0.58009 0.0
H811 H 0.06998 0.89459 0.58705 0.0
H812 H 0.07081 0.92679 0.57784 0.0
H813 H 0.0481 0.84034 0.48989 0.0
H814 H 0.05206 0.82913 0.52053 0.0
H815 H 0.02285 0.83651 0.51039 0.0
H816 H 0.0526 0.8124 0.6019 0.0
H817 H 0.98168 0.83023 0.58062 0.0
H818 H 0.09181 0.86393 0.57501 0.0
H819 H 0.08583 0.84101 0.5522 0.0
H820 H 0.09019 0.83136 0.58326 0.0
H821 H 0.00535 0.88706 0.55035 0.0
H822 H 0.97781 0.86181 0.55206 0.0
H823 H 0.99908 0.86371 0.52789 0.0
C824 C 0.18607 0.79098 0.73801 0.0
C825 C 0.19412 0.76828 0.74017 0.0
C826 C 0.1629 0.79218 0.72655 0.0
C827 C 0.14762 0.77021 0.7167 0.0
C828 C 0.15679 0.74789 0.71668 0.0
C829 C 0.17994 0.74715 0.72854 0.0
C830 C 0.15387 0.81636 0.72694 0.0
C831 C 0.14123 0.7242 0.70593 0.0
C832 C 0.07706 0.76048 0.72128 0.0
C833 C 0.06942 0.76624 0.69771 0.0
C834 C 0.10251 0.76219 0.72768 0.0
C835 C 0.12078 0.76948 0.70997 0.0
C836 C 0.11326 0.77574 0.6862 0.0
C837 C 0.08761 0.77421 0.68038 0.0
C838 C 0.1098 0.75582 0.75337 0.0
C839 C 0.13219 0.78332 0.66683 0.0
H840 H 0.19727 0.80752 0.74654 0.0
H841 H 0.18605 0.72955 0.73013 0.0
H842 H 0.14544 0.8206 0.70913 0.0
H843 H 0.13903 0.81434 0.74031 0.0
H844 H 0.16933 0.83253 0.73193 0.0
H845 H 0.15255 0.70989 0.70382 0.0
H846 H 0.12554 0.71604 0.71785 0.0
H847 H 0.13283 0.72836 0.68807 0.0
H848 H 0.06307 0.75444 0.73476 0.0
H849 H 0.08174 0.7785 0.66207 0.0
H850 H 0.12385 0.77178 0.76104 0.0
H851 H 0.11868 0.73939 0.75379 0.0
H852 H 0.09338 0.75136 0.76512 0.0
H853 H 0.14748 0.79916 0.6728 0.0
H854 H 0.12348 0.78896 0.64961 0.0
H855 H 0.14101 0.76739 0.66347 0.0
C856 C 0.96642 0.58611 0.57229 0.0
C857 C 0.9823 0.59245 0.55278 0.0
C858 C 0.96552 0.60367 0.58975 0.0
C859 C 0.98119 0.62798 0.58785 0.0
C860 C 0.99858 0.63388 0.56924 0.0
C861 C 0.99882 0.61609 0.55183 0.0
C862 C 0.94672 0.5967 0.60932 0.0
C863 C 0.01591 0.65952 0.56686 0.0
C864 C 0.9611 0.68514 0.60914 0.0
C865 C 0.97631 0.69062 0.63012 0.0
C866 C 0.9615 0.66394 0.59594 0.0
C867 C 0.97781 0.64808 0.60373 0.0
C868 C 0.99223 0.65275 0.62558 0.0
C869 C 0.99116 0.67392 0.63865 0.0
C870 C 0.94542 0.65926 0.57297 0.0
C871 C 0.00997 0.63637 0.63435 0.0
H872 H 0.95399 0.56766 0.57343 0.0
H873 H 0.01101 0.62124 0.53676 0.0
H874 H 0.9558 0.6021 0.62719 0.0
H875 H 0.93154 0.60714 0.60605 0.0
H876 H 0.93804 0.57627 0.60997 0.0
H877 H 0.03016 0.66019 0.55308 0.0
H878 H 0.00469 0.67368 0.56163 0.0
H879 H 0.02582 0.66504 0.58437 0.0
H880 H 0.94945 0.6979 0.60259 0.0
H881 H 0.00308 0.67815 0.65479 0.0
H882 H 0.93456 0.63951 0.5728 0.0
H883 H 0.95766 0.66225 0.55726 0.0
H884 H 0.93204 0.67191 0.57067 0.0
H885 H 0.00043 0.61623 0.63376 0.0
H886 H 0.01746 0.64066 0.65301 0.0
H887 H 0.02607 0.63935 0.62228 0.0
C888 C 0.74495 0.88713 0.23323 0.0
C889 C 0.75255 0.86484 0.23979 0.0
C890 C 0.7623 0.9103 0.23339 0.0
C891 C 0.78764 0.91115 0.24092 0.0
C892 C 0.79548 0.88855 0.24701 0.0
C893 C 0.77783 0.86557 0.2461 0.0
C894 C 0.75337 0.93392 0.22622 0.0
C895 C 0.82222 0.88874 0.25555 0.0
C896 C 0.83947 0.96895 0.22926 0.0
C897 C 0.84139 0.98098 0.25132 0.0
C898 C 0.82149 0.94659 0.22529 0.0
C899 C 0.80555 0.93573 0.24405 0.0
C900 C 0.80719 0.94799 0.26623 0.0
C901 C 0.82489 0.97063 0.26948 0.0
C902 C 0.81981 0.93439 0.2012 0.0
C903 C 0.7908 0.93678 0.28682 0.0
H904 H 0.72533 0.88639 0.22826 0.0
H905 H 0.78354 0.84826 0.25133 0.0
H906 H 0.75415 0.94562 0.2422 0.0
H907 H 0.7659 0.94524 0.21278 0.0
H908 H 0.73377 0.92978 0.21849 0.0
H909 H 0.82551 0.86948 0.25865 0.0
H910 H 0.83559 0.89884 0.24217 0.0
H911 H 0.82659 0.89893 0.27265 0.0
H912 H 0.8521 0.97699 0.21511 0.0
H913 H 0.82643 0.97974 0.28663 0.0
H914 H 0.80016 0.93085 0.19368 0.0
H915 H 0.82508 0.91594 0.20348 0.0
H916 H 0.83233 0.94613 0.18796 0.0
H917 H 0.77064 0.93405 0.28107 0.0
H918 H 0.79434 0.94876 0.30286 0.0
H919 H 0.7943 0.91802 0.29216 0.0
C920 C 0.78893 0.19162 0.26606 0.0
C921 C 0.7982 0.21237 0.28046 0.0
C922 C 0.80192 0.17222 0.26507 0.0
C923 C 0.8247 0.17366 0.27885 0.0
C924 C 0.83446 0.19493 0.29296 0.0
C925 C 0.82096 0.21397 0.29374 0.0
C926 C 0.79077 0.14977 0.24998 0.0
C927 C 0.85871 0.19718 0.30784 0.0
C928 C 0.84157 0.1119 0.2983 0.0
C929 C 0.85932 0.10982 0.28148 0.0
C930 C 0.83038 0.13268 0.29772 0.0
C931 C 0.8372 0.15201 0.27998 0.0
C932 C 0.85542 0.15028 0.26317 0.0
C933 C 0.86621 0.12913 0.26406 0.0
C934 C 0.81094 0.13373 0.3159 0.0
C935 C 0.86329 0.17065 0.24413 0.0
H936 H 0.77118 0.19035 0.25601 0.0
H937 H 0.82799 0.22993 0.30506 0.0
H938 H 0.80487 0.14629 0.23757 0.0
H939 H 0.78551 0.13277 0.26186 0.0
H940 H 0.77377 0.15226 0.23918 0.0
H941 H 0.86481 0.21581 0.31619 0.0
H942 H 0.85626 0.18243 0.32238 0.0
H943 H 0.87392 0.19419 0.2965 0.0
H944 H 0.83609 0.09707 0.31181 0.0
H945 H 0.87996 0.12769 0.25104 0.0
H946 H 0.7927 0.13438 0.30645 0.0
H947 H 0.81681 0.15109 0.32634 0.0
H948 H 0.80797 0.1173 0.32871 0.0
H949 H 0.84683 0.17231 0.23215 0.0
H950 H 0.87831 0.16691 0.23293 0.0
H951 H 0.87019 0.18903 0.25271 0.0
C952 C 0.39165 0.06299 0.98374 0.0
C953 C 0.40568 0.0703 0.96311 0.0
C954 C 0.36993 0.04372 0.98306 0.0
C955 C 0.36228 0.03106 0.96135 0.0
C956 C 0.37618 0.03835 0.9404 0.0
C957 C 0.39766 0.05803 0.94149 0.0
C958 C 0.35548 0.03658 0.00576 0.0
C959 C 0.36864 0.02505 0.91701 0.0
C960 C 0.32233 0.96544 0.96999 0.0
C961 C 0.29803 0.96936 0.96498 0.0
C962 C 0.34351 0.98521 0.96792 0.0
C963 C 0.34025 0.00954 0.96104 0.0
C964 C 0.31582 0.01355 0.9555 0.0
C965 C 0.29498 0.99333 0.95737 0.0
C966 C 0.36933 0.98017 0.97366 0.0
C967 C 0.31164 0.03934 0.94845 0.0
H968 H 0.39797 0.07193 0.00067 0.0
H969 H 0.40822 0.06373 0.92542 0.0
H970 H 0.33538 0.03698 0.0022 0.0
H971 H 0.35624 0.01712 0.0117 0.0
H972 H 0.36308 0.04931 0.02074 0.0
H973 H 0.38112 0.0334 0.9022 0.0
H974 H 0.3693 0.00495 0.91953 0.0
H975 H 0.34899 0.02575 0.91148 0.0
H976 H 0.32482 0.94689 0.97563 0.0
H977 H 0.27622 0.99647 0.95351 0.0
H978 H 0.37777 0.99041 0.98994 0.0
H979 H 0.38194 0.98719 0.95862 0.0
H980 H 0.36876 0.95986 0.97695 0.0
H981 H 0.31752 0.05207 0.96374 0.0
H982 H 0.29162 0.03902 0.94336 0.0
H983 H 0.32337 0.04744 0.93309 0.0
C984 C 0.25037 0.38306 0.33121 0.0
C985 C 0.25852 0.37259 0.31118 0.0
C986 C 0.23318 0.39875 0.32847 0.0
C987 C 0.22459 0.40499 0.30508 0.0
C988 C 0.23252 0.39445 0.28479 0.0
C989 C 0.24897 0.37804 0.28811 0.0
C990 C 0.22469 0.40913 0.35063 0.0
C991 C 0.2243 0.40117 0.2595 0.0
C992 C 0.16775 0.43486 0.29777 0.0
C993 C 0.17938 0.46043 0.29779 0.0
C994 C 0.18219 0.41647 0.30025 0.0
C995 C 0.20882 0.42397 0.30183 0.0
C996 C 0.22056 0.44983 0.30094 0.0
C997 C 0.20568 0.46773 0.2994 0.0
C998 C 0.169 0.3891 0.30195 0.0
C999 C 0.24887 0.45862 0.30174 0.0
H1000 H 0.2578 0.3795 0.34911 0.0
H1001 H 0.25444 0.36963 0.27248 0.0
H1002 H 0.23263 0.42964 0.35119 0.0
H1003 H 0.20388 0.4063 0.35003 0.0
H1004 H 0.23073 0.40019 0.36754 0.0
H1005 H 0.23174 0.39096 0.24564 0.0
H1006 H 0.20347 0.39685 0.2575 0.0
H1007 H 0.23095 0.42165 0.25593 0.0
H1008 H 0.14737 0.42929 0.29671 0.0
H1009 H 0.21464 0.48755 0.29917 0.0
H1010 H 0.17395 0.38085 0.3196 0.0
H1011 H 0.17538 0.37851 0.28778 0.0
H1012 H 0.1482 0.38638 0.30008 0.0
H1013 H 0.25682 0.45316 0.31937 0.0
H1014 H 0.25498 0.47932 0.2991 0.0
H1015 H 0.25702 0.44946 0.28758 0.0
C1016 C 0.13242 0.00157 0.50174 0.0
C1017 C 0.12251 0.99491 0.47853 0.0
C1018 C 0.15248 0.0223 0.50521 0.0
C1019 C 0.16253 0.03711 0.48504 0.0
C1020 C 0.15307 0.03025 0.46154 0.0
C1021 C 0.13335 0.00908 0.45855 0.0
C1022 C 0.16234 0.02883 0.53054 0.0
C1023 C 0.16316 0.04577 0.43961 0.0
C1024 C 0.19244 0.10505 0.49774 0.0
C1025 C 0.21814 0.105 0.49811 0.0
C1026 C 0.17418 0.0832 0.49285 0.0
C1027 C 0.18182 0.06065 0.48872 0.0
C1028 C 0.20774 0.06049 0.48892 0.0
C1029 C 0.22564 0.08277 0.49338 0.0
C1030 C 0.1467 0.08419 0.49233 0.0
C1031 C 0.21654 0.03667 0.48504 0.0
H1032 H 0.12397 0.9911 0.51736 0.0
H1033 H 0.12616 0.00384 0.44053 0.0
H1034 H 0.18312 0.03148 0.53178 0.0
H1035 H 0.15783 0.04682 0.53532 0.0
H1036 H 0.1541 0.01412 0.54404 0.0
H1037 H 0.15456 0.03725 0.42253 0.0
H1038 H 0.15934 0.06484 0.44043 0.0
H1039 H 0.18387 0.04806 0.4393 0.0
H1040 H 0.18658 0.12225 0.50118 0.0
H1041 H 0.2455 0.08264 0.49379 0.0
H1042 H 0.13707 0.07179 0.50692 0.0
H1043 H 0.13738 0.07716 0.47498 0.0
H1044 H 0.14397 0.1035 0.49465 0.0
H1045 H 0.20956 0.02253 0.49945 0.0
H1046 H 0.23738 0.03987 0.48511 0.0
H1047 H 0.20866 0.0285 0.46763 0.0
C1048 C 0.72202 0.18909 0.73214 0.0
C1049 C 0.74714 0.19251 0.7259 0.0
C1050 C 0.70713 0.16492 0.73588 0.0
C1051 C 0.71757 0.14375 0.73291 0.0
C1052 C 0.74255 0.14711 0.72537 0.0
C1053 C 0.75716 0.17152 0.72219 0.0
C1054 C 0.68067 0.16209 0.74422 0.0
C1055 C 0.75412 0.12498 0.72152 0.0
C1056 C 0.68922 0.08596 0.77048 0.0
C1057 C 0.67142 0.07244 0.75413 0.0
C1058 C 0.70486 0.10889 0.76358 0.0
C1059 C 0.70295 0.11829 0.73961 0.0
C1060 C 0.68597 0.10411 0.72266 0.0
C1061 C 0.6702 0.08142 0.73019 0.0
C1062 C 0.72257 0.12362 0.78225 0.0
C1063 C 0.68387 0.1133 0.69682 0.0
H1064 H 0.71439 0.20536 0.73521 0.0
H1065 H 0.77657 0.17426 0.71718 0.0
H1066 H 0.66711 0.14936 0.73232 0.0
H1067 H 0.67928 0.15349 0.76268 0.0
H1068 H 0.67496 0.18038 0.74445 0.0
H1069 H 0.77266 0.13072 0.71306 0.0
H1070 H 0.7568 0.11533 0.73908 0.0
H1071 H 0.74138 0.11114 0.70994 0.0
H1072 H 0.69022 0.07917 0.78903 0.0
H1073 H 0.65662 0.07094 0.7174 0.0
H1074 H 0.71709 0.14164 0.7851 0.0
H1075 H 0.74207 0.12826 0.77586 0.0
H1076 H 0.72251 0.1132 0.79984 0.0
H1077 H 0.6758 0.13026 0.69607 0.0
H1078 H 0.67172 0.09886 0.68536 0.0
H1079 H 0.70278 0.11875 0.68912 0.0
C1080 C 0.41245 0.0527 0.57822 0.0
C1081 C 0.39909 0.02854 0.57217 0.0
C1082 C 0.40166 0.07366 0.57417 0.0
C1083 C 0.37696 0.07033 0.56382 0.0
C1084 C 0.36292 0.04581 0.55895 0.0
C1085 C 0.37417 0.02524 0.56316 0.0
C1086 C 0.4172 0.09946 0.57968 0.0
C1087 C 0.33644 0.04141 0.5481 0.0
C1088 C 0.33824 0.12034 0.56095 0.0
C1089 C 0.34026 0.12832 0.53667 0.0
C1090 C 0.35124 0.10241 0.57059 0.0
C1091 C 0.36662 0.09241 0.55558 0.0
C1092 C 0.37013 0.10181 0.5316 0.0
C1093 C 0.35688 0.11961 0.52244 0.0
C1094 C 0.34719 0.09301 0.59631 0.0
C1095 C 0.3866 0.09189 0.51506 0.0
H1096 H 0.4318 0.05541 0.58501 0.0
H1097 H 0.36366 0.00655 0.5588 0.0
H1098 H 0.42285 0.10989 0.56257 0.0
H1099 H 0.40602 0.11036 0.58931 0.0
H1100 H 0.43449 0.09857 0.59078 0.0
H1101 H 0.32735 0.02112 0.54734 0.0
H1102 H 0.32468 0.05086 0.55868 0.0
H1103 H 0.33678 0.04966 0.52951 0.0
H1104 H 0.32541 0.12699 0.57206 0.0
H1105 H 0.35872 0.12587 0.50372 0.0
H1106 H 0.36536 0.09197 0.60571 0.0
H1107 H 0.33518 0.07374 0.59646 0.0
H1108 H 0.33786 0.10517 0.60657 0.0
H1109 H 0.40536 0.09232 0.5239 0.0
H1110 H 0.38924 0.10283 0.49773 0.0
H1111 H 0.37793 0.07202 0.51108 0.0
C1112 C 0.57612 0.5069 0.52496 0.0
C1113 C 0.58449 0.533 0.52637 0.0
C1114 C 0.5926 0.49169 0.51941 0.0
C1115 C 0.61807 0.5029 0.51511 0.0
C1116 C 0.62668 0.52925 0.51664 0.0
C1117 C 0.60971 0.54403 0.5219 0.0
C1118 C 0.5826 0.46372 0.51753 0.0
C1119 C 0.65373 0.5419 0.51228 0.0
C1120 C 0.66696 0.46271 0.51814 0.0
C1121 C 0.67041 0.45998 0.49363 0.0
C1122 C 0.64978 0.47641 0.52546 0.0
C1123 C 0.63547 0.48727 0.50783 0.0
C1124 C 0.63832 0.48388 0.48308 0.0
C1125 C 0.65588 0.47045 0.47629 0.0
C1126 C 0.64744 0.47985 0.552 0.0
C1127 C 0.62312 0.49481 0.46374 0.0
H1128 H 0.55651 0.49842 0.52786 0.0
H1129 H 0.61617 0.56426 0.52232 0.0
H1130 H 0.58437 0.45802 0.49887 0.0
H1131 H 0.59386 0.45341 0.52963 0.0
H1132 H 0.56253 0.45784 0.52227 0.0
H1133 H 0.65778 0.56235 0.51563 0.0
H1134 H 0.66656 0.53314 0.52413 0.0
H1135 H 0.65808 0.53933 0.49338 0.0
H1136 H 0.67822 0.45477 0.53163 0.0
H1137 H 0.65834 0.46828 0.45732 0.0
H1138 H 0.62757 0.47325 0.55703 0.0
H1139 H 0.65312 0.50011 0.55602 0.0
H1140 H 0.6593 0.46954 0.56345 0.0
H1141 H 0.60273 0.4885 0.46695 0.0
H1142 H 0.6266 0.48933 0.44539 0.0
H1143 H 0.62787 0.51561 0.46435 0.0
C1144 C 0.70613 0.27025 0.36305 0.0
C1145 C 0.72749 0.27409 0.34911 0.0
C1146 C 0.70515 0.28564 0.38238 0.0
C1147 C 0.72604 0.30538 0.38782 0.0
C1148 C 0.74809 0.30867 0.37447 0.0
C1149 C 0.74859 0.29287 0.35526 0.0
C1150 C 0.68142 0.28135 0.39636 0.0
C1151 C 0.77072 0.32955 0.37979 0.0
C1152 C 0.71393 0.36255 0.41772 0.0
C1153 C 0.72218 0.35885 0.44161 0.0
C1154 C 0.71491 0.34516 0.4001 0.0
C1155 C 0.72423 0.32348 0.40654 0.0
C1156 C 0.73189 0.31924 0.43073 0.0
C1157 C 0.73081 0.33699 0.44798 0.0
C1158 C 0.70647 0.35027 0.37446 0.0
C1159 C 0.74168 0.2962 0.4383 0.0
H1160 H 0.68991 0.25549 0.35846 0.0
H1161 H 0.76504 0.29591 0.3444 0.0
H1162 H 0.68595 0.27995 0.41597 0.0
H1163 H 0.6724 0.29758 0.39328 0.0
H1164 H 0.66764 0.26402 0.39102 0.0
H1165 H 0.78694 0.32855 0.3688 0.0
H1166 H 0.76573 0.34798 0.37602 0.0
H1167 H 0.77663 0.32882 0.39913 0.0
H1168 H 0.70728 0.37939 0.4126 0.0
H1169 H 0.73718 0.33392 0.4664 0.0
H1170 H 0.69137 0.33438 0.36823 0.0
H1171 H 0.72241 0.35187 0.36239 0.0
H1172 H 0.69933 0.3678 0.37249 0.0
H1173 H 0.72766 0.27897 0.43323 0.0
H1174 H 0.74599 0.2952 0.45801 0.0
H1175 H 0.75906 0.29623 0.42871 0.0
C1176 C 0.53565 0.10824 0.89784 0.0
C1177 C 0.51311 0.09747 0.90893 0.0
C1178 C 0.5474 0.09385 0.88375 0.0
C1179 C 0.53629 0.06808 0.8807 0.0
C1180 C 0.51372 0.05701 0.8922 0.0
C1181 C 0.50227 0.07193 0.90603 0.0
C1182 C 0.57133 0.10638 0.87157 0.0
C1183 C 0.50139 0.02961 0.88943 0.0
C1184 C 0.55311 0.04158 0.82343 0.0
C1185 C 0.57305 0.03057 0.83157 0.0
C1186 C 0.54035 0.05302 0.83941 0.0
C1187 C 0.54755 0.05329 0.86421 0.0
C1188 C 0.56668 0.04101 0.87279 0.0
C1189 C 0.57928 0.02983 0.85635 0.0
C1190 C 0.52003 0.06591 0.82954 0.0
C1191 C 0.57459 0.04065 0.89919 0.0
H1192 H 0.54387 0.12806 0.89989 0.0
H1193 H 0.48466 0.06373 0.9144 0.0
H1194 H 0.58641 0.09618 0.87646 0.0
H1195 H 0.56814 0.10569 0.85171 0.0
H1196 H 0.57805 0.12632 0.87654 0.0
H1197 H 0.48494 0.02348 0.901 0.0
H1198 H 0.49496 0.02615 0.87038 0.0
H1199 H 0.51515 0.01778 0.89407 0.0
H1200 H 0.54802 0.04213 0.80435 0.0
H1201 H 0.59457 0.02126 0.86284 0.0
H1202 H 0.52623 0.08646 0.83191 0.0
H1203 H 0.50259 0.05934 0.83961 0.0
H1204 H 0.51549 0.06249 0.8101 0.0
H1205 H 0.58385 0.05995 0.9046 0.0
H1206 H 0.5879 0.02818 0.90329 0.0
H1207 H 0.5579 0.0343 0.91034 0.0
C1208 C 0.29878 0.3191 0.38268 0.0
C1209 C 0.29552 0.30893 0.35972 0.0
C1210 C 0.29884 0.30355 0.4034 0.0
C1211 C 0.29485 0.27723 0.401 0.0
C1212 C 0.29167 0.26695 0.37777 0.0
C1213 C 0.29235 0.283 0.35737 0.0
C1214 C 0.30285 0.31523 0.42784 0.0
C1215 C 0.28678 0.23895 0.37448 0.0
C1216 C 0.3101 0.23422 0.45236 0.0
C1217 C 0.28645 0.22571 0.46227 0.0
C1218 C 0.31337 0.25169 0.43287 0.0
C1219 C 0.29233 0.26026 0.42274 0.0
C1220 C 0.26848 0.25186 0.43282 0.0
C1221 C 0.2659 0.23493 0.45263 0.0
C1222 C 0.3392 0.26075 0.42293 0.0
C1223 C 0.24548 0.26013 0.42223 0.0
H1224 H 0.30147 0.33923 0.38437 0.0
H1225 H 0.28973 0.27524 0.33953 0.0
H1226 H 0.28553 0.30923 0.43819 0.0
H1227 H 0.31817 0.30867 0.43828 0.0
H1228 H 0.30771 0.33608 0.4265 0.0
H1229 H 0.28525 0.23405 0.35517 0.0
H1230 H 0.30211 0.23119 0.38349 0.0
H1231 H 0.26902 0.2296 0.38307 0.0
H1232 H 0.32606 0.22724 0.45985 0.0
H1233 H 0.24751 0.22827 0.46007 0.0
H1234 H 0.34432 0.28159 0.42222 0.0
H1235 H 0.33918 0.25441 0.40422 0.0
H1236 H 0.35389 0.25369 0.43391 0.0
H1237 H 0.24858 0.28089 0.42219 0.0
H1238 H 0.22833 0.25197 0.43233 0.0
H1239 H 0.24204 0.25439 0.40321 0.0
C1240 C 0.49005 0.4645 0.9074 0.0
C1241 C 0.51044 0.47569 0.92243 0.0
C1242 C 0.48028 0.47865 0.88928 0.0
C1243 C 0.49138 0.50453 0.88601 0.0
C1244 C 0.51238 0.51578 0.90081 0.0
C1245 C 0.52164 0.50119 0.91893 0.0
C1246 C 0.45784 0.46597 0.87387 0.0
C1247 C 0.52484 0.54324 0.89768 0.0
C1248 C 0.47506 0.53154 0.82505 0.0
C1249 C 0.45443 0.54155 0.83032 0.0
C1250 C 0.48828 0.52071 0.84328 0.0
C1251 C 0.48054 0.5197 0.86729 0.0
C1252 C 0.46073 0.53113 0.87296 0.0
C1253 C 0.44798 0.54204 0.8544 0.0
C1254 C 0.50958 0.50907 0.8366 0.0
C1255 C 0.45193 0.53042 0.89838 0.0
H1256 H 0.48152 0.44473 0.91007 0.0
H1257 H 0.53747 0.50973 0.9306 0.0
H1258 H 0.4419 0.47519 0.87596 0.0
H1259 H 0.46251 0.46796 0.85458 0.0
H1260 H 0.45155 0.44566 0.87864 0.0
H1261 H 0.54167 0.54882 0.90997 0.0
H1262 H 0.53059 0.54748 0.87882 0.0
H1263 H 0.51127 0.55494 0.90125 0.0
H1264 H 0.48034 0.5313 0.80652 0.0
H1265 H 0.43209 0.54977 0.85865 0.0
H1266 H 0.50365 0.48831 0.83838 0.0
H1267 H 0.5262 0.51506 0.849 0.0
H1268 H 0.51529 0.51415 0.8178 0.0
H1269 H 0.44306 0.51079 0.90378 0.0
H1270 H 0.43803 0.54226 0.90019 0.0
H1271 H 0.46812 0.53688 0.91115 0.0
C1272 C 0.70524 0.73902 0.1693 0.0
C1273 C 0.71446 0.76405 0.1756 0.0
C1274 C 0.71489 0.72907 0.14986 0.0
C1275 C 0.73426 0.74453 0.13654 0.0
C1276 C 0.74467 0.76937 0.14382 0.0
C1277 C 0.73463 0.77884 0.16332 0.0
C1278 C 0.70333 0.70248 0.14275 0.0
C1279 C 0.76544 0.78639 0.13019 0.0
C1280 C 0.76644 0.71346 0.09082 0.0
C1281 C 0.75272 0.71724 0.06951 0.0
C1282 C 0.761 0.72258 0.11282 0.0
C1283 C 0.7414 0.73573 0.11343 0.0
C1284 C 0.72783 0.73995 0.09188 0.0
C1285 C 0.73365 0.73068 0.07025 0.0
C1286 C 0.7759 0.71781 0.13543 0.0
C1287 C 0.7068 0.75391 0.09173 0.0
H1288 H 0.68983 0.72752 0.17902 0.0
H1289 H 0.74186 0.79813 0.16844 0.0
H1290 H 0.69258 0.70277 0.12531 0.0
H1291 H 0.71821 0.69201 0.14017 0.0
H1292 H 0.69037 0.69213 0.1564 0.0
H1293 H 0.77352 0.80396 0.13985 0.0
H1294 H 0.78074 0.7766 0.12716 0.0
H1295 H 0.7579 0.79149 0.11224 0.0
H1296 H 0.78121 0.7031 0.09039 0.0
H1297 H 0.72299 0.73378 0.05388 0.0
H1298 H 0.76324 0.70588 0.1484 0.0
H1299 H 0.78415 0.73579 0.1443 0.0
H1300 H 0.79131 0.70834 0.13175 0.0
H1301 H 0.69167 0.7437 0.1034 0.0
H1302 H 0.69849 0.75612 0.07334 0.0
H1303 H 0.71387 0.77283 0.09917 0.0
C1304 C 0.03821 0.08764 0.11505 0.0
C1305 C 0.02633 0.09112 0.09266 0.0
C1306 C 0.02444 0.08309 0.13609 0.0
C1307 C 0.99812 0.08146 0.13454 0.0
C1308 C 0.98616 0.08548 0.11202 0.0
C1309 C 0.00046 0.09045 0.09137 0.0
C1310 C 0.03792 0.07931 0.15985 0.0
C1311 C 0.95809 0.08345 0.10954 0.0
C1312 C 0.9593 0.03977 0.18137 0.0
C1313 C 0.95334 0.05737 0.19647 0.0
C1314 C 0.97369 0.04743 0.1611 0.0
C1315 C 0.98277 0.07337 0.15602 0.0
C1316 C 0.97697 0.09129 0.17126 0.0
C1317 C 0.96206 0.08307 0.19123 0.0
C1318 C 0.97905 0.02772 0.14505 0.0
C1319 C 0.98669 0.11909 0.1666 0.0
H1320 H 0.05826 0.0884 0.11605 0.0
H1321 H 0.99123 0.09291 0.074 0.0
H1322 H 0.03311 0.09145 0.17362 0.0
H1323 H 0.0317 0.05956 0.16642 0.0
H1324 H 0.05869 0.08358 0.15837 0.0
H1325 H 0.95195 0.08864 0.09105 0.0
H1326 H 0.94811 0.06388 0.11391 0.0
H1327 H 0.95219 0.09575 0.12248 0.0
H1328 H 0.95246 0.01987 0.18524 0.0
H1329 H 0.95761 0.09672 0.20295 0.0
H1330 H -0.00035 0.02928 0.14453 0.0
H1331 H 0.97207 0.03078 0.12633 0.0
H1332 H 0.97012 0.00834 0.15124 0.0
H1333 H 0.00755 0.12348 0.16651 0.0
H1334 H 0.98079 0.13059 0.18034 0.0
H1335 H 0.97977 0.1247 0.14857 0.0
C1336 C 0.27043 0.83768 0.1638 0.0
C1337 C 0.25657 0.81331 0.16867 0.0
C1338 C 0.26762 0.84978 0.14142 0.0
C1339 C 0.25084 0.83699 0.12345 0.0
C1340 C 0.23641 0.81255 0.12853 0.0
C1341 C 0.23951 0.80098 0.15111 0.0
C1342 C 0.28331 0.87585 0.13668 0.0
C1343 C 0.21851 0.79824 0.10978 0.0
C1344 C 0.23264 0.87373 0.06838 0.0
C1345 C 0.24953 0.86946 0.05162 0.0
C1346 C 0.23281 0.86332 0.09193 0.0
C1347 C 0.25016 0.84821 0.0987 0.0
C1348 C 0.26711 0.84373 0.08178 0.0
C1349 C 0.26663 0.85446 0.05851 0.0
C1350 C 0.21456 0.86856 0.10958 0.0
C1351 C 0.2858 0.82759 0.08826 0.0
H1352 H 0.28382 0.84707 0.17734 0.0
H1353 H 0.22905 0.782 0.15491 0.0
H1354 H 0.29714 0.87519 0.12286 0.0
H1355 H 0.2712 0.88852 0.12946 0.0
H1356 H 0.29371 0.88404 0.15319 0.0
H1357 H 0.20726 0.78026 0.1172 0.0
H1358 H 0.20545 0.80979 0.10226 0.0
H1359 H 0.22929 0.79401 0.09464 0.0
H1360 H 0.21941 0.88533 0.06318 0.0
H1361 H 0.2797 0.85099 0.04565 0.0
H1362 H 0.22505 0.87793 0.12551 0.0
H1363 H 0.20251 0.85065 0.11614 0.0
H1364 H 0.20226 0.88068 0.10149 0.0
H1365 H 0.29845 0.83577 0.1035 0.0
H1366 H 0.29751 0.82575 0.0729 0.0
H1367 H 0.27574 0.80854 0.09424 0.0
C1368 C 0.96296 0.49335 0.13235 0.0
C1369 C 0.97364 0.49679 0.10971 0.0
C1370 C 0.97811 0.49333 0.15349 0.0
C1371 C 0.00456 0.49748 0.15188 0.0
C1372 C 0.01534 0.50032 0.12897 0.0
C1373 C -0.00031 0.49971 0.10813 0.0
C1374 C 0.9659 0.48973 0.17757 0.0
C1375 C 0.04348 0.5053 0.12649 0.0
C1376 C 0.04457 0.53003 0.20379 0.0
C1377 C 0.0539 0.51038 0.21514 0.0
C1378 C 0.02851 0.52599 0.18324 0.0
C1379 C 0.02113 0.50155 0.17404 0.0
C1380 C 0.03004 0.48147 0.18568 0.0
C1381 C 0.04661 0.48619 0.20599 0.0
C1382 C 0.01982 0.54802 0.1711 0.0
C1383 C 0.02211 0.45508 0.17664 0.0
H1384 H 0.94276 0.49083 0.1335 0.0
H1385 H 0.00792 0.50253 0.09058 0.0
H1386 H 0.9731 0.47545 0.18888 0.0
H1387 H 0.97073 0.5076 0.18732 0.0
H1388 H 0.94507 0.48379 0.17563 0.0
H1389 H 0.04871 0.50532 0.10741 0.0
H1390 H 0.05238 0.52384 0.13399 0.0
H1391 H 0.05143 0.49095 0.13692 0.0
H1392 H 0.05029 0.54882 0.21066 0.0
H1393 H 0.05372 0.47094 0.21479 0.0
H1394 H 0.99899 0.5445 0.17062 0.0
H1395 H 0.02574 0.55036 0.15216 0.0
H1396 H 0.02753 0.56588 0.18042 0.0
H1397 H 0.00127 0.44914 0.1757 0.0
H1398 H 0.0298 0.44137 0.18835 0.0
H1399 H 0.02863 0.45448 0.15812 0.0
C1400 C 0.35585 0.76707 0.24229 0.0
C1401 C 0.33225 0.76311 0.25245 0.0
C1402 C 0.37799 0.77197 0.25692 0.0
C1403 C 0.37634 0.77353 0.28214 0.0
C1404 C 0.35246 0.77006 0.29236 0.0
C1405 C 0.33066 0.76456 0.27737 0.0
C1406 C 0.40308 0.775 0.24548 0.0
C1407 C 0.34995 0.77214 0.3191 0.0
C1408 C 0.42909 0.76374 0.32596 0.0
C1409 C 0.44116 0.78855 0.33095 0.0
C1410 C 0.40855 0.75857 0.30933 0.0
C1411 C 0.39951 0.7787 0.29798 0.0
C1412 C 0.41186 0.80379 0.30271 0.0
C1413 C 0.43276 0.80841 0.31893 0.0
C1414 C 0.39623 0.73158 0.30427 0.0
C1415 C 0.40242 0.82573 0.29138 0.0
H1416 H 0.35691 0.76568 0.22298 0.0
H1417 H 0.3123 0.76153 0.28509 0.0
H1418 H 0.41515 0.79369 0.24944 0.0
H1419 H 0.41303 0.76068 0.25326 0.0
H1420 H 0.40109 0.77304 0.22562 0.0
H1421 H 0.33005 0.76993 0.324 0.0
H1422 H 0.3579 0.75754 0.32913 0.0
H1423 H 0.36082 0.79067 0.32516 0.0
H1424 H 0.43567 0.74836 0.33511 0.0
H1425 H 0.44193 0.82762 0.32289 0.0
H1426 H 0.39473 0.72867 0.28456 0.0
H1427 H 0.37684 0.72706 0.31091 0.0
H1428 H 0.4068 0.71821 0.31302 0.0
H1429 H 0.40136 0.82462 0.27147 0.0
H1430 H 0.41463 0.8441 0.29637 0.0
H1431 H 0.38309 0.82505 0.29721 0.0
C1432 C 0.98841 0.44756 0.00333 0.0
C1433 C 0.96856 0.45908 0.99636 0.0
C1434 C 0.99244 0.42705 0.99087 0.0
C1435 C 0.97598 0.41772 0.97122 0.0
C1436 C 0.95563 0.42907 0.96441 0.0
C1437 C 0.95211 0.4496 0.97715 0.0
C1438 C 0.01428 0.41539 0.9987 0.0
C1439 C 0.93756 0.41952 0.94368 0.0
C1440 C 0.99776 0.37958 0.9242 0.0
C1441 C 0.98587 0.35497 0.93109 0.0
C1442 C 0.99501 0.40016 0.93733 0.0
C1443 C 0.97997 0.39604 0.95778 0.0
C1444 C 0.96826 0.37125 0.96507 0.0
C1445 C 0.97138 0.35102 0.95167 0.0
C1446 C 0.00788 0.42634 0.92909 0.0
C1447 C 0.95205 0.36613 0.98679 0.0
H1448 H 0.00083 0.45469 0.0185 0.0
H1449 H 0.93651 0.45832 0.9721 0.0
H1450 H 0.00731 0.39527 0.00374 0.0
H1451 H 0.02698 0.41624 0.98354 0.0
H1452 H 0.02537 0.42494 0.01429 0.0
H1453 H 0.92267 0.4304 0.94074 0.0
H1454 H 0.94796 0.42057 0.92686 0.0
H1455 H 0.92845 0.3995 0.94712 0.0
H1456 H 0.00903 0.38284 0.90838 0.0
H1457 H 0.96211 0.33209 0.95715 0.0
H1458 H 0.02007 0.43601 0.94397 0.0
H1459 H 0.99359 0.43751 0.92419 0.0
H1460 H 0.01958 0.4263 0.91328 0.0
H1461 H 0.96294 0.37445 0.00298 0.0
H1462 H 0.94486 0.34572 0.99048 0.0
H1463 H 0.93576 0.37513 0.98392 0.0
C1464 C 0.65027 0.80437 0.2689 0.0
C1465 C 0.67509 0.81465 0.27678 0.0
C1466 C 0.63 0.80482 0.28337 0.0
C1467 C 0.6347 0.81577 0.30627 0.0
C1468 C 0.65977 0.82538 0.31468 0.0
C1469 C 0.67967 0.82474 0.29981 0.0
C1470 C 0.60351 0.79441 0.27376 0.0
C1471 C 0.66552 0.83704 0.33906 0.0
C1472 C 0.58202 0.84193 0.33 0.0
C1473 C 0.57066 0.82252 0.34583 0.0
C1474 C 0.60318 0.84015 0.3174 0.0
C1475 C 0.6133 0.81847 0.32075 0.0
C1476 C 0.6024 0.79913 0.33722 0.0
C1477 C 0.58117 0.80137 0.34956 0.0
C1478 C 0.61433 0.86121 0.30002 0.0
C1479 C 0.61277 0.77581 0.34135 0.0
H1480 H 0.64661 0.7968 0.25103 0.0
H1481 H 0.69887 0.8324 0.30609 0.0
H1482 H 0.59315 0.78053 0.28688 0.0
H1483 H 0.59327 0.80981 0.27128 0.0
H1484 H 0.60313 0.78521 0.25624 0.0
H1485 H 0.68605 0.8421 0.34358 0.0
H1486 H 0.65797 0.85427 0.33935 0.0
H1487 H 0.65617 0.82391 0.35329 0.0
H1488 H 0.57404 0.85834 0.32703 0.0
H1489 H 0.57252 0.78631 0.36179 0.0
H1490 H 0.61276 0.8541 0.28146 0.0
H1491 H 0.63463 0.86825 0.30457 0.0
H1492 H 0.6048 0.87719 0.30013 0.0
H1493 H 0.6107 0.76528 0.32445 0.0
H1494 H 0.60303 0.76317 0.35577 0.0
H1495 H 0.63316 0.78101 0.34632 0.0
C1496 C 0.03925 0.1306 0.98993 0.0
C1497 C 0.04677 0.13646 0.01387 0.0
C1498 C 0.03254 0.14868 0.97377 0.0
C1499 C 0.03354 0.17318 0.98177 0.0
C1500 C 0.04243 0.17954 0.00556 0.0
C1501 C 0.04885 0.16107 0.02135 0.0
C1502 C 0.02308 0.14116 0.94858 0.0
C1503 C 0.04403 0.20552 0.01471 0.0
C1504 C 0.02839 0.22649 0.93691 0.0
C1505 C 0.00311 0.22766 0.93871 0.0
C1506 C 0.03857 0.2086 0.95054 0.0
C1507 C 0.02302 0.19144 0.96616 0.0
C1508 C 0.99736 0.19221 0.96762 0.0
C1509 C 0.98775 0.21034 0.95395 0.0
C1510 C 0.06603 0.20841 0.94861 0.0
C1511 C 0.9801 0.17412 0.98396 0.0
H1512 H 0.03745 0.11154 0.98414 0.0
H1513 H 0.05498 0.16572 0.03978 0.0
H1514 H 0.00267 0.14083 0.94659 0.0
H1515 H 0.03274 0.15508 0.9351 0.0
H1516 H 0.02595 0.1223 0.94438 0.0
H1517 H 0.05359 0.2081 0.03284 0.0
H1518 H 0.05434 0.21996 0.00204 0.0
H1519 H 0.0248 0.20889 0.01582 0.0
H1520 H 0.04038 0.23983 0.92518 0.0
H1521 H 0.96817 0.21103 0.95536 0.0
H1522 H 0.06811 0.18944 0.94394 0.0
H1523 H 0.07607 0.21281 0.96628 0.0
H1524 H 0.0753 0.22225 0.93483 0.0
H1525 H 0.98021 0.15448 0.9797 0.0
H1526 H 0.96039 0.17655 0.98229 0.0
H1527 H 0.98693 0.17692 0.00299 0.0
C1528 C 0.36719 0.31624 0.27084 0.0
C1529 C 0.34667 0.31741 0.25494 0.0
C1530 C 0.38928 0.31092 0.26252 0.0
C1531 C 0.39056 0.30597 0.23786 0.0
C1532 C 0.36959 0.30636 0.2219 0.0
C1533 C 0.34789 0.31206 0.23066 0.0
C1534 C 0.4113 0.31079 0.28002 0.0
C1535 C 0.37008 0.3008 0.19555 0.0
C1536 C 0.45245 0.31545 0.20686 0.0
C1537 C 0.45522 0.29067 0.20518 0.0
C1538 C 0.43211 0.3208 0.21853 0.0
C1539 C 0.41392 0.30085 0.22847 0.0
C1540 C 0.41719 0.27588 0.22778 0.0
C1541 C 0.43794 0.2711 0.21628 0.0
C1542 C 0.42952 0.34772 0.21929 0.0
C1543 C 0.39807 0.25409 0.23802 0.0
H1544 H 0.36602 0.31966 0.28978 0.0
H1545 H 0.33178 0.31231 0.21851 0.0
H1546 H 0.4164 0.29222 0.28032 0.0
H1547 H 0.42798 0.32497 0.27409 0.0
H1548 H 0.40724 0.31494 0.29863 0.0
H1549 H 0.35193 0.30113 0.18571 0.0
H1550 H 0.38522 0.31483 0.18684 0.0
H1551 H 0.37436 0.28206 0.19364 0.0
H1552 H 0.46588 0.33069 0.1985 0.0
H1553 H 0.43993 0.2519 0.21497 0.0
H1554 H 0.42625 0.35241 0.23793 0.0
H1555 H 0.41298 0.35024 0.20783 0.0
H1556 H 0.44645 0.36121 0.21279 0.0
H1557 H 0.39409 0.25769 0.25678 0.0
H1558 H 0.40445 0.23614 0.23792 0.0
H1559 H 0.3801 0.25191 0.22723 0.0
C1560 C 0.6007 0.42098 0.02437 0.0
C1561 C 0.57927 0.42376 0.0103 0.0
C1562 C 0.5986 0.40519 0.04512 0.0
C1563 C 0.57465 0.39106 0.05141 0.0
C1564 C 0.5532 0.39259 0.03655 0.0
C1565 C 0.55568 0.40928 0.01661 0.0
C1566 C 0.62179 0.40453 0.06087 0.0
C1567 C 0.52733 0.37725 0.04219 0.0
C1568 C 0.56202 0.33417 0.09362 0.0
C1569 C 0.55085 0.34354 0.11233 0.0
C1570 C 0.57193 0.34994 0.07424 0.0
C1571 C 0.57124 0.37571 0.07417 0.0
C1572 C 0.56264 0.38566 0.09451 0.0
C1573 C 0.55191 0.36929 0.11313 0.0
C1574 C 0.58029 0.3384 0.05271 0.0
C1575 C 0.56252 0.4132 0.09557 0.0
H1576 H 0.61915 0.43148 0.01951 0.0
H1577 H 0.53879 0.41149 0.00651 0.0
H1578 H 0.62045 0.41353 0.07816 0.0
H1579 H 0.62317 0.38489 0.06526 0.0
H1580 H 0.63933 0.41455 0.05225 0.0
H1581 H 0.51321 0.37839 0.02734 0.0
H1582 H 0.52793 0.35723 0.04559 0.0
H1583 H 0.52087 0.3841 0.05877 0.0
H1584 H 0.56076 0.3141 0.09294 0.0
H1585 H 0.54314 0.3764 0.12765 0.0
H1586 H 0.5973 0.35072 0.04511 0.0
H1587 H 0.56509 0.33605 0.03842 0.0
H1588 H 0.58432 0.31967 0.05734 0.0
H1589 H 0.58029 0.42498 0.08884 0.0
H1590 H 0.56006 0.41867 0.11419 0.0
H1591 H 0.54678 0.41734 0.08388 0.0
C1592 C 0.65745 0.23982 0.28318 0.0
C1593 C 0.68113 0.24172 0.27352 0.0
C1594 C 0.63623 0.24081 0.26831 0.0
C1595 C 0.63852 0.24301 0.24303 0.0
C1596 C 0.66204 0.24361 0.23301 0.0
C1597 C 0.68317 0.24317 0.24841 0.0
C1598 C 0.61152 0.24026 0.27973 0.0
C1599 C 0.66501 0.24536 0.2061 0.0
C1600 C 0.5761 0.2262 0.20796 0.0
C1601 C 0.57113 0.24997 0.20264 0.0
C1602 C 0.59865 0.22367 0.21997 0.0
C1603 C 0.61631 0.24543 0.22735 0.0
C1604 C 0.61162 0.26952 0.22154 0.0
C1605 C 0.58918 0.2715 0.20897 0.0
C1606 C 0.60326 0.19771 0.22533 0.0
C1607 C 0.62979 0.29314 0.22953 0.0
H1608 H 0.65555 0.23798 0.30253 0.0
H1609 H 0.70139 0.24474 0.24078 0.0
H1610 H 0.60507 0.25773 0.27466 0.0
H1611 H 0.59685 0.22429 0.27297 0.0
H1612 H 0.61295 0.23852 0.29971 0.0
H1613 H 0.68395 0.24338 0.20114 0.0
H1614 H 0.65058 0.23058 0.19715 0.0
H1615 H 0.66206 0.26377 0.19891 0.0
H1616 H 0.5623 0.20952 0.20278 0.0
H1617 H 0.58535 0.2899 0.20487 0.0
H1618 H 0.6027 0.19357 0.24503 0.0
H1619 H 0.62223 0.19669 0.21967 0.0
H1620 H 0.58902 0.18294 0.21611 0.0
H1621 H 0.63101 0.29344 0.24951 0.0
H1622 H 0.624 0.31042 0.2225 0.0
H1623 H 0.64892 0.2935 0.22341 0.0
C1624 C 0.44229 0.14217 0.02307 0.0
C1625 C 0.45586 0.14756 0.00193 0.0
C1626 C 0.44551 0.15951 0.04145 0.0
C1627 C 0.46328 0.18253 0.03901 0.0
C1628 C 0.47649 0.18852 0.0175 0.0
C1629 C 0.47242 0.17106 -0.00091 0.0
C1630 C 0.43076 0.15262 0.064 0.0
C1631 C 0.49586 0.21279 0.01441 0.0
C1632 C 0.46377 0.23384 0.08329 0.0
C1633 C 0.48178 0.22911 0.10067 0.0
C1634 C 0.45743 0.21879 0.06304 0.0
C1635 C 0.46986 0.19905 0.05995 0.0
C1636 C 0.4883 0.19447 0.07729 0.0
C1637 C 0.49381 0.20937 0.09757 0.0
C1638 C 0.43725 0.22378 0.04517 0.0
C1639 C 0.5023 0.17386 0.07439 0.0
H1640 H 0.42979 0.12395 0.02578 0.0
H1641 H 0.48262 0.17563 0.98267 0.0
H1642 H 0.44357 0.149 0.07919 0.0
H1643 H 0.42242 0.16836 0.06903 0.0
H1644 H 0.41543 0.13558 0.06178 0.0
H1645 H 0.50306 0.21548 0.99591 0.0
H1646 H 0.48778 0.22903 0.01841 0.0
H1647 H 0.51198 0.21285 0.0274 0.0
H1648 H 0.45442 0.24908 0.08568 0.0
H1649 H 0.50799 0.20586 0.11082 0.0
H1650 H 0.42162 0.20689 0.04406 0.0
H1651 H 0.4449 0.22757 0.02693 0.0
H1652 H 0.4295 0.23997 0.05012 0.0
H1653 H 0.48889 0.15533 0.07442 0.0
H1654 H 0.51688 0.17352 0.08898 0.0
H1655 H 0.51153 0.17635 0.05682 0.0
C1656 C 0.24967 0.39875 0.75032 0.0
C1657 C 0.25792 0.37638 0.7545 0.0
C1658 C 0.26675 0.42207 0.7509 0.0
C1659 C 0.29254 0.42296 0.75638 0.0
C1660 C 0.30093 0.40033 0.76055 0.0
C1661 C 0.2835 0.37722 0.75925 0.0
C1662 C 0.25717 0.44574 0.74579 0.0
C1663 C 0.32821 0.40056 0.76692 0.0
C1664 C 0.34224 0.48142 0.74114 0.0
C1665 C 0.34616 0.49342 0.76327 0.0
C1666 C 0.32436 0.45876 0.73844 0.0
C1667 C 0.3106 0.44758 0.75852 0.0
C1668 C 0.31433 0.45974 0.78084 0.0
C1669 C 0.33186 0.48268 0.78286 0.0
C1670 C 0.32038 0.44666 0.7142 0.0
C1671 C 0.30033 0.44817 0.80278 0.0
H1672 H 0.22984 0.39793 0.74643 0.0
H1673 H 0.28972 0.35981 0.76252 0.0
H1674 H 0.26022 0.45737 0.76202 0.0
H1675 H 0.26783 0.45711 0.73114 0.0
H1676 H 0.23681 0.4417 0.74047 0.0
H1677 H 0.33166 0.38132 0.76956 0.0
H1678 H 0.34029 0.41051 0.75249 0.0
H1679 H 0.33413 0.41095 0.78373 0.0
H1680 H 0.35319 0.48974 0.72593 0.0
H1681 H 0.335 0.49177 0.80007 0.0
H1682 H 0.30018 0.44311 0.7084 0.0
H1683 H 0.32576 0.42821 0.71554 0.0
H1684 H 0.33158 0.45847 0.70008 0.0
H1685 H 0.27974 0.44521 0.79903 0.0
H1686 H 0.30545 0.46003 0.81881 0.0
H1687 H 0.3045 0.42948 0.80717 0.0
C1688 C 0.29879 0.7019 0.74598 0.0
C1689 C 0.30687 0.7249 0.75729 0.0
C1690 C 0.312 0.68268 0.74975 0.0
C1691 C 0.33394 0.68668 0.76509 0.0
C1692 C 0.34261 0.7102 0.776 0.0
C1693 C 0.32884 0.729 0.7721 0.0
C1694 C 0.30199 0.65781 0.73798 0.0
C1695 C 0.36602 0.71526 0.79229 0.0
C1696 C 0.35036 0.62866 0.79557 0.0
C1697 C 0.36875 0.62392 0.78069 0.0
C1698 C 0.3392 0.64923 0.79087 0.0
C1699 C 0.34677 0.66568 0.77094 0.0
C1700 C 0.36583 0.66144 0.75623 0.0
C1701 C 0.37651 0.64051 0.7612 0.0
C1702 C 0.3188 0.65297 0.80689 0.0
C1703 C 0.3746 0.67876 0.73501 0.0
H1704 H 0.28172 0.69878 0.7346 0.0
H1705 H 0.33506 0.74679 0.78091 0.0
H1706 H 0.31684 0.65267 0.72755 0.0
H1707 H 0.2965 0.64284 0.75205 0.0
H1708 H 0.28536 0.65812 0.72571 0.0
H1709 H 0.37135 0.73512 0.79781 0.0
H1710 H 0.36292 0.70297 0.80875 0.0
H1711 H 0.38202 0.71074 0.78311 0.0
H1712 H 0.3442 0.61593 0.81064 0.0
H1713 H 0.39076 0.63702 0.74968 0.0
H1714 H 0.30092 0.65167 0.79612 0.0
H1715 H 0.32387 0.67198 0.8145 0.0
H1716 H 0.31551 0.63884 0.822 0.0
H1717 H 0.35886 0.67803 0.72146 0.0
H1718 H 0.39059 0.67372 0.7262 0.0
H1719 H 0.38049 0.69845 0.74089 0.0
C1720 C 0.90666 0.54964 0.49504 0.0
C1721 C 0.92637 0.53704 0.49401 0.0
C1722 C 0.88156 0.53699 0.49116 0.0
C1723 C 0.87611 0.51127 0.48563 0.0
C1724 C 0.89601 0.49902 0.48249 0.0
C1725 C 0.92096 0.51203 0.48688 0.0
C1726 C 0.86089 0.55071 0.49475 0.0
C1727 C 0.8909 0.4717 0.47612 0.0
C1728 C 0.81644 0.46972 0.50892 0.0
C1729 C 0.80054 0.46685 0.4882 0.0
C1730 C 0.84089 0.48456 0.50833 0.0
C1731 C 0.84982 0.49642 0.48635 0.0
C1732 C 0.83378 0.49387 0.46538 0.0
C1733 C 0.80915 0.47926 0.46661 0.0
C1734 C 0.85725 0.48727 0.53122 0.0
C1735 C 0.84284 0.50596 0.44158 0.0
H1736 H 0.91079 0.5692 0.49986 0.0
H1737 H 0.93608 0.50219 0.48601 0.0
H1738 H 0.84655 0.54726 0.47971 0.0
H1739 H 0.85126 0.54352 0.51158 0.0
H1740 H 0.86823 0.57129 0.49612 0.0
H1741 H 0.9082 0.46607 0.47084 0.0
H1742 H 0.88332 0.45981 0.4919 0.0
H1743 H 0.87654 0.46778 0.46113 0.0
H1744 H 0.80976 0.46028 0.52567 0.0
H1745 H 0.79694 0.47688 0.45051 0.0
H1746 H 0.86418 0.50743 0.53519 0.0
H1747 H 0.87397 0.47928 0.52892 0.0
H1748 H 0.84708 0.47763 0.547 0.0
H1749 H 0.85024 0.52644 0.4435 0.0
H1750 H 0.8277 0.50302 0.4272 0.0
H1751 H 0.85857 0.49801 0.43579 0.0
C1752 C 0.75197 0.88952 0.78906 0.0
C1753 C 0.75934 0.87834 0.81063 0.0
C1754 C 0.73303 0.90321 0.78846 0.0
C1755 C 0.72037 0.90501 0.80972 0.0
C1756 C 0.72645 0.8924 0.83117 0.0
C1757 C 0.74615 0.87962 0.83149 0.0
C1758 C 0.7275 0.91683 0.76533 0.0
C1759 C 0.71285 0.89325 0.85404 0.0
C1760 C 0.69598 0.96407 0.81604 0.0
C1761 C 0.6708 0.95642 0.80797 0.0
C1762 C 0.7122 0.94744 0.81679 0.0
C1763 C 0.70279 0.92226 0.81009 0.0
C1764 C 0.67709 0.91412 0.80284 0.0
C1765 C 0.66146 0.93148 0.8014 0.0
C1766 C 0.73964 0.9571 0.82395 0.0
C1767 C 0.6662 0.88719 0.79643 0.0
H1768 H 0.76136 0.88803 0.77262 0.0
H1769 H 0.75167 0.87138 0.84837 0.0
H1770 H 0.70715 0.91161 0.76024 0.0
H1771 H 0.73235 0.9374 0.76801 0.0
H1772 H 0.73828 0.91269 0.75012 0.0
H1773 H 0.71697 0.87935 0.86793 0.0
H1774 H 0.7187 0.91225 0.86159 0.0
H1775 H 0.69222 0.88955 0.85026 0.0
H1776 H 0.70332 0.98343 0.82089 0.0
H1777 H 0.64193 0.92554 0.79528 0.0
H1778 H 0.75157 0.95458 0.80902 0.0
H1779 H 0.74499 0.9462 0.83983 0.0
H1780 H 0.74397 0.97729 0.82839 0.0
H1781 H 0.6747 0.88275 0.77987 0.0
H1782 H 0.64544 0.88336 0.79332 0.0
H1783 H 0.67079 0.8743 0.81106 0.0
C1784 C 0.62845 0.52167 0.95458 0.0
C1785 C 0.61775 0.50943 0.97552 0.0
C1786 C 0.64729 0.54377 0.95588 0.0
C1787 C 0.65598 0.55357 0.97869 0.0
C1788 C 0.64494 0.54163 -0.00016 0.0
C1789 C 0.62576 0.5199 0.99797 0.0
C1790 C 0.65834 0.55627 0.93291 0.0
C1791 C 0.65388 0.55141 0.02451 0.0
C1792 C 0.72261 0.59235 0.98536 0.0
C1793 C 0.71853 0.61667 0.98696 0.0
C1794 C 0.70238 0.57168 0.98245 0.0
C1795 C 0.67752 0.5755 0.98061 0.0
C1796 C 0.6733 0.60009 0.98149 0.0
C1797 C 0.69388 0.62039 0.98493 0.0
C1798 C 0.70759 0.54567 0.982 0.0
C1799 C 0.64707 0.60489 0.97906 0.0
H1800 H 0.62256 0.51365 0.93716 0.0
H1801 H 0.61715 0.511 0.0142 0.0
H1802 H 0.65811 0.57655 0.93242 0.0
H1803 H 0.67827 0.55485 0.93226 0.0
H1804 H 0.64795 0.54761 0.91658 0.0
H1805 H 0.64298 0.5402 0.03914 0.0
H1806 H 0.67403 0.55102 0.0277 0.0
H1807 H 0.65233 0.57123 0.02559 0.0
H1808 H 0.74162 0.58936 0.98706 0.0
H1809 H 0.69066 0.6392 0.98597 0.0
H1810 H 0.69954 0.53642 0.9651 0.0
H1811 H 0.69834 0.53395 0.9972 0.0
H1812 H 0.72804 0.54596 0.98337 0.0
H1813 H 0.63739 0.59662 0.9623 0.0
H1814 H 0.64712 0.62525 0.97868 0.0
H1815 H 0.63586 0.59565 0.99437 0.0
C1816 C 0.24455 0.69455 0.25352 0.0
C1817 C 0.25287 0.70192 0.23034 0.0
C1818 C 0.22827 0.67123 0.25783 0.0
C1819 C 0.22046 0.65476 0.23853 0.0
C1820 C 0.22889 0.66208 0.21507 0.0
C1821 C 0.24487 0.68572 0.21121 0.0
C1822 C 0.21936 0.66425 0.28302 0.0
C1823 C 0.22123 0.64484 0.19415 0.0
C1824 C 0.19695 0.5863 0.2571 0.0
C1825 C 0.17079 0.58394 0.25552 0.0
C1826 C 0.21337 0.60902 0.25075 0.0
C1827 C 0.20336 0.62995 0.24302 0.0
C1828 C 0.17698 0.62752 0.24085 0.0
C1829 C 0.16101 0.60448 0.24695 0.0
C1830 C 0.24141 0.61082 0.25289 0.0
C1831 C 0.16563 0.64952 0.23294 0.0
H1832 H 0.2506 0.70722 0.26825 0.0
H1833 H 0.25153 0.69138 0.19333 0.0
H1834 H 0.19849 0.66014 0.28287 0.0
H1835 H 0.22531 0.64695 0.28965 0.0
H1836 H 0.22684 0.67939 0.29591 0.0
H1837 H 0.22961 0.65329 0.17709 0.0
H1838 H 0.22718 0.6269 0.19811 0.0
H1839 H 0.20045 0.64023 0.19149 0.0
H1840 H 0.20463 0.57044 0.26352 0.0
H1841 H 0.14081 0.60283 0.24574 0.0
H1842 H 0.24993 0.62408 0.26716 0.0
H1843 H 0.25023 0.61834 0.23576 0.0
H1844 H 0.24611 0.59235 0.25738 0.0
H1845 H 0.17107 0.66457 0.24626 0.0
H1846 H 0.14476 0.64421 0.23116 0.0
H1847 H 0.17302 0.65751 0.21539 0.0
C1848 C 0.88816 0.5316 0.0518 0.0
C1849 C 0.91292 0.5376 0.06137 0.0
C1850 C 0.87471 0.55038 0.04651 0.0
C1851 C 0.88646 0.57582 0.05055 0.0
C1852 C 0.91113 0.58187 0.06109 0.0
C1853 C 0.92403 0.56264 0.0665 0.0
C1854 C 0.84828 0.54309 0.03565 0.0
C1855 C 0.92439 0.60876 0.06543 0.0
C1856 C 0.86174 0.62133 0.00784 0.0
C1857 C 0.84499 0.62971 0.02217 0.0
C1858 C 0.8763 0.60478 0.01728 0.0
C1859 C 0.87375 0.59605 0.04155 0.0
C1860 C 0.85769 0.6053 0.05644 0.0
C1861 C 0.84361 0.62223 0.04659 0.0
C1862 C 0.89356 0.59575 0.00091 0.0
C1863 C 0.85433 0.59628 0.08234 0.0
H1864 H 0.87948 0.5122 0.04805 0.0
H1865 H 0.94327 0.56733 0.07372 0.0
H1866 H 0.83534 0.55169 0.04561 0.0
H1867 H 0.84796 0.5503 0.01671 0.0
H1868 H 0.84102 0.52241 0.03583 0.0
H1869 H 0.94241 0.6101 0.07604 0.0
H1870 H 0.92845 0.61892 0.04788 0.0
H1871 H 0.91217 0.6185 0.07509 0.0
H1872 H 0.86301 0.62722 0.98899 0.0
H1873 H 0.83056 0.62854 0.05769 0.0
H1874 H 0.88635 0.57545 0.9977 0.0
H1875 H 0.91267 0.598 0.00954 0.0
H1876 H 0.89511 0.60605 0.9832 0.0
H1877 H 0.84439 0.57621 0.08293 0.0
H1878 H 0.84326 0.60718 0.09216 0.0
H1879 H 0.87287 0.5976 0.09192 0.0
C1880 C 0.11065 0.03456 0.0152 0.0
C1881 C 0.0857 0.024 0.02099 0.0
C1882 C 0.127 0.01931 0.00943 0.0
C1883 C 0.11799 0.99293 0.00879 0.0
C1884 C 0.09283 0.98217 0.01464 0.0
C1885 C 0.07698 0.99786 0.02061 0.0
C1886 C 0.15374 0.0315 0.00339 0.0
C1887 C 0.08241 0.95419 0.01382 0.0
C1888 C 0.15244 0.95942 0.96762 0.0
C1889 C 0.16834 0.94952 0.98399 0.0
C1890 C 0.13541 0.97288 0.97555 0.0
C1891 C 0.13447 0.97684 0.00047 0.0
C1892 C 0.14996 0.96629 0.01718 0.0
C1893 C 0.16663 0.95259 0.00874 0.0
C1894 C 0.11892 0.98348 0.95717 0.0
C1895 C 0.1496 0.97025 0.04387 0.0
H1896 H 0.1173 0.05479 0.01488 0.0
H1897 H 0.05753 0.98971 0.02455 0.0
H1898 H 0.16713 0.02274 0.01449 0.0
H1899 H 0.15671 0.02848 0.98422 0.0
H1900 H 0.15832 0.05202 0.0064 0.0
H1901 H 0.06289 0.94867 0.02018 0.0
H1902 H 0.08242 0.94793 0.99507 0.0
H1903 H 0.09451 0.94403 0.02509 0.0
H1904 H 0.15356 0.957 0.94847 0.0
H1905 H 0.17896 0.94509 0.02149 0.0
H1906 H 0.12401 0.0043 0.9572 0.0
H1907 H 0.0989 0.97755 0.9619 0.0
H1908 H 0.1208 0.97738 0.93865 0.0
H1909 H 0.15617 0.99054 0.04749 0.0
H1910 H 0.16179 0.9597 0.0546 0.0
H1911 H 0.13012 0.96432 0.05018 0.0
loop_
_geom_bond_atom_site_label_1
_geom_bond_atom_site_label_2
_geom_bond_distance
_geom_bond_site_symmetry_2
_ccdc_geom_bond_type
H0 C7 0.929 . S
H1 C10 0.930 . S
H2 C12 0.929 . S
H3 C4 0.969 . S
C4 H3 0.969 . S
C4 O5 1.550 . S
C4 H6 0.973 . S
O5 C4 1.550 . S
O5 C11 1.412 . S
H6 C4 0.973 . S
C7 H0 0.929 . S
C7 C8 1.400 . S
C7 C9 1.364 . S
C8 C7 1.400 . S
C8 C12 1.377 . S
C9 C7 1.364 . S
C9 C10 1.374 . S
C10 H1 0.930 . S
C10 C9 1.374 . S
C10 C11 1.383 . S
C11 O5 1.412 . S
C11 C10 1.383 . S
C11 C12 1.394 . S
C12 H2 0.929 . S
C12 C8 1.377 . S
C12 C11 1.394 . S
H13 C20 0.929 . S
H14 C23 0.930 . S
H15 C25 0.929 . S
H16 C17 0.969 . S
C17 H16 0.969 . S
C17 O18 1.550 . S
C17 H19 0.973 . S
O18 C17 1.550 . S
O18 C24 1.412 . S
H19 C17 0.973 . S
C20 H13 0.929 . S
C20 C21 1.400 . S
C20 C22 1.364 . S
C21 C20 1.400 . S
C21 C25 1.377 . S
C22 C20 1.364 . S
C22 C23 1.374 . S
C23 H14 0.930 . S
C23 C22 1.374 . S
C23 C24 1.383 . S
C24 O18 1.412 . S
C24 C23 1.383 . S
C24 C25 1.394 . S
C25 H15 0.929 . S
C25 C21 1.377 . S
C25 C24 1.394 . S
H26 C33 0.929 . S
H27 C36 0.930 . S
H28 C38 0.929 . S
H29 C30 0.969 . S
C30 H29 0.969 . S
C30 O31 1.550 . S
C30 H32 0.973 . S
O31 C30 1.550 . S
O31 C37 1.412 . S
H32 C30 0.973 . S
C33 H26 0.929 . S
C33 C34 1.400 . S
C33 C35 1.364 . S
C34 C33 1.400 . S
C34 C38 1.377 . S
C35 C33 1.364 . S
C35 C36 1.374 . S
C36 H27 0.930 . S
C36 C35 1.374 . S
C36 C37 1.383 . S
C37 O31 1.412 . S
C37 C36 1.383 . S
C37 C38 1.394 . S
C38 H28 0.929 . S
C38 C34 1.377 . S
C38 C37 1.394 . S
H39 C46 0.929 . S
H40 C49 0.930 . S
H41 C51 0.929 . S
H42 C43 0.969 . S
C43 H42 0.969 . S
C43 O44 1.550 . S
C43 H45 0.973 . S
O44 C43 1.550 . S
O44 C50 1.412 . S
H45 C43 0.973 . S
C46 H39 0.929 . S
C46 C47 1.400 . S
C46 C48 1.364 . S
C47 C46 1.400 . S
C47 C51 1.377 . S
C48 C46 1.364 . S
C48 C49 1.374 . S
C49 H40 0.930 . S
C49 C48 1.374 . S
C49 C50 1.383 . S
C50 O44 1.412 . S
C50 C49 1.383 . S
C50 C51 1.394 . S
C51 H41 0.929 . S
C51 C47 1.377 . S
C51 C50 1.394 . S
H52 C59 0.929 . S
H53 C62 0.930 . S
H54 C64 0.929 1_545 S
H55 C56 0.969 . S
C56 H55 0.969 . S
C56 O57 1.550 . S
C56 H58 0.973 . S
O57 C56 1.550 . S
O57 C63 1.412 . S
H58 C56 0.973 . S
C59 H52 0.929 . S
C59 C60 1.400 . S
C59 C61 1.364 . S
C60 C59 1.400 . S
C60 C64 1.377 . S
C61 C59 1.364 . S
C61 C62 1.374 . S
C62 H53 0.930 . S
C62 C61 1.374 . S
C62 C63 1.383 . S
C63 O57 1.412 . S
C63 C62 1.383 . S
C63 C64 1.394 . S
C64 H54 0.929 1_565 S
C64 C60 1.377 . S
C64 C63 1.394 . S
H65 C72 0.929 . S
H66 C75 0.930 . S
H67 C77 0.929 . S
H68 C69 0.969 . S
C69 H68 0.969 . S
C69 O70 1.550 . S
C69 H71 0.973 . S
O70 C69 1.550 . S
O70 C76 1.412 . S
H71 C69 0.973 . S
C72 H65 0.929 . S
C72 C73 1.400 . S
C72 C74 1.364 . S
C73 C72 1.400 . S
C73 C77 1.377 . S
C74 C72 1.364 . S
C74 C75 1.374 . S
C75 H66 0.930 . S
C75 C74 1.374 . S
C75 C76 1.383 . S
C76 O70 1.412 . S
C76 C75 1.383 . S
C76 C77 1.394 . S
C77 H67 0.929 . S
C77 C73 1.377 . S
C77 C76 1.394 . S
H78 C85 0.929 . S
H79 C88 0.930 . S
H80 C90 0.929 . S
H81 C82 0.969 . S
C82 H81 0.969 . S
C82 O83 1.550 . S
C82 H84 0.973 . S
O83 C82 1.550 . S
O83 C89 1.412 . S
H84 C82 0.973 . S
C85 H78 0.929 . S
C85 C86 1.400 . S
C85 C87 1.364 . S
C86 C85 1.400 . S
C86 C90 1.377 . S
C87 C85 1.364 . S
C87 C88 1.374 . S
C88 H79 0.930 . S
C88 C87 1.374 . S
C88 C89 1.383 . S
C89 O83 1.412 . S
C89 C88 1.383 . S
C89 C90 1.394 . S
C90 H80 0.929 . S
C90 C86 1.377 . S
C90 C89 1.394 . S
H91 C98 0.929 . S
H92 C101 0.930 . S
H93 C103 0.929 . S
H94 C95 0.969 . S
C95 H94 0.969 . S
C95 O96 1.550 . S
C95 H97 0.973 . S
O96 C95 1.550 . S
O96 C102 1.412 . S
H97 C95 0.973 . S
C98 H91 0.929 . S
C98 C99 1.400 . S
C98 C100 1.364 . S
C99 C98 1.400 . S
C99 C103 1.377 . S
C100 C98 1.364 . S
C100 C101 1.374 . S
C101 H92 0.930 . S
C101 C100 1.374 . S
C101 C102 1.383 . S
C102 O96 1.412 . S
C102 C101 1.383 . S
C102 C103 1.394 . S
C103 H93 0.929 . S
C103 C99 1.377 . S
C103 C102 1.394 . S
H104 C111 0.929 . S
H105 C114 0.930 . S
H106 C116 0.929 . S
H107 C108 0.969 . S
C108 H107 0.969 . S
C108 O109 1.550 . S
C108 H110 0.973 . S
O109 C108 1.550 . S
O109 C115 1.412 . S
H110 C108 0.973 . S
C111 H104 0.929 . S
C111 C112 1.400 . S
C111 C113 1.364 . S
C112 C111 1.400 . S
C112 C116 1.377 . S
C113 C111 1.364 . S
C113 C114 1.374 . S
C114 H105 0.930 . S
C114 C113 1.374 . S
C114 C115 1.383 . S
C115 O109 1.412 . S
C115 C114 1.383 . S
C115 C116 1.394 . S
C116 H106 0.929 . S
C116 C112 1.377 . S
C116 C115 1.394 . S
H117 C124 0.929 . S
H118 C127 0.930 . S
H119 C129 0.929 . S
H120 C121 0.969 . S
C121 H120 0.969 . S
C121 O122 1.550 . S
C121 H123 0.973 . S
O122 C121 1.550 . S
O122 C128 1.412 . S
H123 C121 0.973 . S
C124 H117 0.929 . S
C124 C125 1.400 . S
C124 C126 1.364 . S
C125 C124 1.400 . S
C125 C129 1.377 . S
C126 C124 1.364 . S
C126 C127 1.374 . S
C127 H118 0.930 . S
C127 C126 1.374 . S
C127 C128 1.383 . S
C128 O122 1.412 . S
C128 C127 1.383 . S
C128 C129 1.394 . S
C129 H119 0.929 . S
C129 C125 1.377 . S
C129 C128 1.394 . S
H130 C137 0.929 . S
H131 C140 0.930 . S
H132 C142 0.929 . S
H133 C134 0.969 . S
C134 H133 0.969 . S
C134 O135 1.550 . S
C134 H136 0.973 . S
O135 C134 1.550 . S
O135 C141 1.412 . S
H136 C134 0.973 . S
C137 H130 0.929 . S
C137 C138 1.400 . S
C137 C139 1.364 . S
C138 C137 1.400 . S
C138 C142 1.377 . S
C139 C137 1.364 . S
C139 C140 1.374 . S
C140 H131 0.930 . S
C140 C139 1.374 . S
C140 C141 1.383 . S
C141 O135 1.412 . S
C141 C140 1.383 . S
C141 C142 1.394 . S
C142 H132 0.929 . S
C142 C138 1.377 . S
C142 C141 1.394 . S
H143 C150 0.929 . S
H144 C153 0.930 . S
H145 C155 0.929 . S
H146 C147 0.969 . S
C147 H146 0.969 . S
C147 O148 1.550 . S
C147 H149 0.973 . S
O148 C147 1.550 . S
O148 C154 1.412 . S
H149 C147 0.973 . S
C150 H143 0.929 . S
C150 C151 1.400 . S
C150 C152 1.364 . S
C151 C150 1.400 . S
C151 C155 1.377 . S
C152 C150 1.364 . S
C152 C153 1.374 . S
C153 H144 0.930 . S
C153 C152 1.374 . S
C153 C154 1.383 . S
C154 O148 1.412 . S
C154 C153 1.383 . S
C154 C155 1.394 . S
C155 H145 0.929 . S
C155 C151 1.377 . S
C155 C154 1.394 . S
H156 C163 0.929 . S
H157 C166 0.930 . S
H158 C168 0.929 . S
H159 C160 0.969 . S
C160 H159 0.969 . S
C160 O161 1.550 . S
C160 H162 0.973 . S
O161 C160 1.550 . S
O161 C167 1.412 . S
H162 C160 0.973 . S
C163 H156 0.929 . S
C163 C164 1.400 . S
C163 C165 1.364 . S
C164 C163 1.400 . S
C164 C168 1.377 . S
C165 C163 1.364 . S
C165 C166 1.374 . S
C166 H157 0.930 . S
C166 C165 1.374 . S
C166 C167 1.383 . S
C167 O161 1.412 . S
C167 C166 1.383 . S
C167 C168 1.394 . S
C168 H158 0.929 . S
C168 C164 1.377 . S
C168 C167 1.394 . S
H169 C176 0.929 . S
H170 C179 0.930 . S
H171 C181 0.929 . S
H172 C173 0.969 . S
C173 H172 0.969 . S
C173 O174 1.550 . S
C173 H175 0.973 . S
O174 C173 1.550 . S
O174 C180 1.412 . S
H175 C173 0.973 . S
C176 H169 0.929 . S
C176 C177 1.400 . S
C176 C178 1.364 . S
C177 C176 1.400 . S
C177 C181 1.377 . S
C178 C176 1.364 . S
C178 C179 1.374 . S
C179 H170 0.930 . S
C179 C178 1.374 . S
C179 C180 1.383 . S
C180 O174 1.412 . S
C180 C179 1.383 . S
C180 C181 1.394 . S
C181 H171 0.929 . S
C181 C177 1.377 . S
C181 C180 1.394 . S
H182 C189 0.929 . S
H183 C192 0.930 . S
H184 C194 0.929 . S
H185 C186 0.969 . S
C186 H185 0.969 . S
C186 O187 1.550 . S
C186 H188 0.973 . S
O187 C186 1.550 . S
O187 C193 1.412 . S
H188 C186 0.973 . S
C189 H182 0.929 . S
C189 C190 1.400 . S
C189 C191 1.364 . S
C190 C189 1.400 . S
C190 C194 1.377 . S
C191 C189 1.364 . S
C191 C192 1.374 . S
C192 H183 0.930 . S
C192 C191 1.374 . S
C192 C193 1.383 . S
C193 O187 1.412 . S
C193 C192 1.383 . S
C193 C194 1.394 . S
C194 H184 0.929 . S
C194 C190 1.377 . S
C194 C193 1.394 . S
H195 C202 0.929 . S
H196 C205 0.930 . S
H197 C207 0.929 . S
H198 C199 0.969 . S
C199 H198 0.969 . S
C199 O200 1.550 . S
C199 H201 0.973 . S
O200 C199 1.550 . S
O200 C206 1.412 . S
H201 C199 0.973 . S
C202 H195 0.929 . S
C202 C203 1.400 . S
C202 C204 1.364 . S
C203 C202 1.400 . S
C203 C207 1.377 . S
C204 C202 1.364 . S
C204 C205 1.374 . S
C205 H196 0.930 . S
C205 C204 1.374 . S
C205 C206 1.383 . S
C206 O200 1.412 . S
C206 C205 1.383 . S
C206 C207 1.394 . S
C207 H197 0.929 . S
C207 C203 1.377 . S
C207 C206 1.394 . S
O208 Cd209 2.223 1_556 S
O208 C216 1.315 . S
Cd209 O208 2.223 1_554 S
Cd209 O212 2.297 . S
Cd209 O213 2.439 . S
Cd209 O219 2.240 . S
Cd210 O211 2.240 . S
Cd210 O218 2.223 1_554 S
Cd210 O220 2.297 . S
Cd210 O221 2.439 . S
O211 Cd210 2.240 . S
O211 C216 1.279 1_554 S
O212 Cd209 2.297 . S
O212 C214 1.247 . S
O213 Cd209 2.439 . S
O213 C214 1.208 . S
C214 O212 1.247 . S
C214 O213 1.208 . S
C215 O220 1.247 . S
C215 O221 1.208 . S
C216 O208 1.315 . S
C216 O211 1.279 1_556 S
C217 O218 1.345 . S
C217 O219 1.234 1_556 S
O218 Cd210 2.223 1_556 S
O218 C217 1.345 . S
O219 Cd209 2.240 . S
O219 C217 1.234 1_554 S
O220 Cd210 2.297 . S
O220 C215 1.247 . S
O221 Cd210 2.439 . S
O221 C215 1.208 . S
O222 Cd223 2.223 . S
O222 C230 1.315 . S
Cd223 O222 2.223 . S
Cd223 O226 2.297 . S
Cd223 O227 2.439 . S
Cd223 O233 2.240 . S
Cd224 O225 2.240 . S
Cd224 O232 2.223 . S
Cd224 O234 2.297 . S
Cd224 O235 2.439 . S
O225 Cd224 2.240 . S
O225 C230 1.279 . S
O226 Cd223 2.297 . S
O226 C228 1.247 . S
O227 Cd223 2.439 . S
O227 C228 1.208 . S
C228 O226 1.247 . S
C228 O227 1.208 . S
C229 O234 1.247 . S
C229 O235 1.208 . S
C230 O222 1.315 . S
C230 O225 1.279 . S
C231 O232 1.315 . S
C231 O233 1.279 . S
O232 Cd224 2.223 . S
O232 C231 1.315 . S
O233 Cd223 2.240 . S
O233 C231 1.279 . S
O234 Cd224 2.297 . S
O234 C229 1.247 . S
O235 Cd224 2.439 . S
O235 C229 1.208 . S
O236 Cd237 2.223 1_556 S
O236 C244 1.315 . S
Cd237 O236 2.223 1_554 S
Cd237 O240 2.297 . S
Cd237 O241 2.439 . S
Cd237 O247 2.240 . S
Cd238 O239 2.240 . S
Cd238 O246 2.223 1_554 S
Cd238 O248 2.297 . S
Cd238 O249 2.439 . S
O239 Cd238 2.240 . S
O239 C244 1.279 1_554 S
O240 Cd237 2.297 . S
O240 C242 1.247 . S
O241 Cd237 2.439 . S
O241 C242 1.208 . S
C242 O240 1.247 . S
C242 O241 1.208 . S
C243 O248 1.247 . S
C243 O249 1.208 . S
C244 O236 1.315 . S
C244 O239 1.279 1_556 S
C245 O246 1.315 . S
C245 O247 1.279 1_556 S
O246 Cd238 2.223 1_556 S
O246 C245 1.315 . S
O247 Cd237 2.240 . S
O247 C245 1.279 1_554 S
O248 Cd238 2.297 . S
O248 C243 1.247 . S
O249 Cd238 2.439 . S
O249 C243 1.208 . S
O250 Cd251 2.223 . S
O250 C258 1.315 . S
Cd251 O250 2.223 . S
Cd251 O254 2.297 . S
Cd251 O255 2.439 . S
Cd251 O261 2.240 . S
Cd252 O253 2.240 . S
Cd252 O260 2.223 . S
Cd252 O262 2.297 . S
Cd252 O263 2.439 . S
O253 Cd252 2.240 . S
O253 C258 1.279 . S
O254 Cd251 2.297 . S
O254 C256 1.247 . S
O255 Cd251 2.439 . S
O255 C256 1.208 . S
C256 O254 1.247 . S
C256 O255 1.208 . S
C257 O262 1.247 . S
C257 O263 1.208 . S
C258 O250 1.315 . S
C258 O253 1.279 . S
C259 O260 1.315 . S
C259 O261 1.279 . S
O260 Cd252 2.223 . S
O260 C259 1.315 . S
O261 Cd251 2.240 . S
O261 C259 1.279 . S
O262 Cd252 2.297 . S
O262 C257 1.247 . S
O263 Cd252 2.439 . S
O263 C257 1.208 . S
O264 Cd265 2.223 . S
O264 C272 1.315 . S
Cd265 O264 2.223 . S
Cd265 O268 2.297 . S
Cd265 O269 2.439 . S
Cd265 O275 2.240 . S
Cd266 O267 2.240 . S
Cd266 O274 2.223 . S
Cd266 O276 2.297 . S
Cd266 O277 2.439 . S
O267 Cd266 2.240 . S
O267 C272 1.279 . S
O268 Cd265 2.297 . S
O268 C270 1.247 . S
O269 Cd265 2.439 . S
O269 C270 1.208 . S
C270 O268 1.247 . S
C270 O269 1.208 . S
C271 O276 1.247 . S
C271 O277 1.208 . S
C272 O264 1.315 . S
C272 O267 1.279 . S
C273 O274 1.315 . S
C273 O275 1.279 . S
O274 Cd266 2.223 . S
O274 C273 1.315 . S
O275 Cd265 2.240 . S
O275 C273 1.279 . S
O276 Cd266 2.297 . S
O276 C271 1.247 . S
O277 Cd266 2.439 . S
O277 C271 1.208 . S
O278 Cd279 2.223 . S
O278 C286 1.315 . S
Cd279 O278 2.223 . S
Cd279 O282 2.297 . S
Cd279 O283 2.439 . S
Cd279 O289 2.240 . S
Cd280 O281 2.240 . S
Cd280 O288 2.223 . S
Cd280 O290 2.297 . S
Cd280 O291 2.439 . S
O281 Cd280 2.240 . S
O281 C286 1.279 . S
O282 Cd279 2.297 . S
O282 C284 1.247 . S
O283 Cd279 2.439 . S
O283 C284 1.208 . S
C284 O282 1.247 . S
C284 O283 1.208 . S
C285 O290 1.247 . S
C285 O291 1.208 . S
C286 O278 1.315 . S
C286 O281 1.279 . S
C287 O288 1.315 . S
C287 O289 1.279 . S
O288 Cd280 2.223 . S
O288 C287 1.315 . S
O289 Cd279 2.240 . S
O289 C287 1.279 . S
O290 Cd280 2.297 . S
O290 C285 1.247 . S
O291 Cd280 2.439 . S
O291 C285 1.208 . S
O292 Cd293 2.223 . S
O292 C300 1.315 . S
Cd293 O292 2.223 . S
Cd293 O296 2.297 . S
Cd293 O297 2.439 . S
Cd293 O303 2.240 . S
Cd294 O295 2.240 . S
Cd294 O302 2.223 . S
Cd294 O304 2.297 . S
Cd294 O305 2.439 . S
O295 Cd294 2.240 . S
O295 C300 1.279 . S
O296 Cd293 2.297 . S
O296 C298 1.247 . S
O297 Cd293 2.439 . S
O297 C298 1.208 . S
C298 O296 1.247 . S
C298 O297 1.208 . S
C299 O304 1.247 . S
C299 O305 1.208 . S
C300 O292 1.315 . S
C300 O295 1.279 . S
C301 O302 1.315 . S
C301 O303 1.279 . S
O302 Cd294 2.223 . S
O302 C301 1.315 . S
O303 Cd293 2.240 . S
O303 C301 1.279 . S
O304 Cd294 2.297 . S
O304 C299 1.247 . S
O305 Cd294 2.439 . S
O305 C299 1.208 . S
O306 Cd307 2.223 1_545 S
O306 C314 1.315 . S
Cd307 O306 2.223 1_565 S
Cd307 O310 2.297 . S
Cd307 O311 2.439 . S
Cd307 O317 2.240 1_565 S
Cd308 O309 2.240 . S
Cd308 O316 2.223 . S
Cd308 O318 2.297 . S
Cd308 O319 2.439 1_545 S
O309 Cd308 2.240 . S
O309 C314 1.279 . S
O310 Cd307 2.297 . S
O310 C312 1.247 . S
O311 Cd307 2.439 . S
O311 C312 1.208 . S
C312 O310 1.247 . S
C312 O311 1.208 . S
C313 O318 1.247 1_565 S
C313 O319 1.208 . S
C314 O306 1.315 . S
C314 O309 1.279 . S
C315 O316 1.315 . S
C315 O317 1.279 . S
O316 Cd308 2.223 . S
O316 C315 1.315 . S
O317 Cd307 2.240 1_545 S
O317 C315 1.279 . S
O318 Cd308 2.297 . S
O318 C313 1.247 1_545 S
O319 Cd308 2.439 1_565 S
O319 C313 1.208 . S
O320 Cd321 2.223 . S
O320 C328 1.315 . S
Cd321 O320 2.223 . S
Cd321 O324 2.297 . S
Cd321 O325 2.439 1_655 S
Cd321 O331 2.240 . S
Cd322 O323 2.240 . S
Cd322 O330 2.223 1_455 S
Cd322 O332 2.297 . S
Cd322 O333 2.439 . S
O323 Cd322 2.240 . S
O323 C328 1.279 1_455 S
O324 Cd321 2.297 . S
O324 C326 1.247 1_655 S
O325 Cd321 2.439 1_455 S
O325 C326 1.208 . S
C326 O324 1.247 1_455 S
C326 O325 1.208 . S
C327 O332 1.247 . S
C327 O333 1.208 . S
C328 O320 1.315 . S
C328 O323 1.279 1_655 S
C329 O330 1.315 . S
C329 O331 1.279 . S
O330 Cd322 2.223 1_655 S
O330 C329 1.315 . S
O331 Cd321 2.240 . S
O331 C329 1.279 . S
O332 Cd322 2.297 . S
O332 C327 1.247 . S
O333 Cd322 2.439 . S
O333 C327 1.208 . S
O334 Cd335 2.223 . S
O334 C342 1.315 . S
Cd335 O334 2.223 . S
Cd335 O338 2.297 . S
Cd335 O339 2.439 . S
Cd335 O345 2.240 . S
Cd336 O337 2.240 . S
Cd336 O344 2.223 . S
Cd336 O346 2.297 . S
Cd336 O347 2.439 . S
O337 Cd336 2.240 . S
O337 C342 1.279 . S
O338 Cd335 2.297 . S
O338 C340 1.247 . S
O339 Cd335 2.439 . S
O339 C340 1.208 . S
C340 O338 1.247 . S
C340 O339 1.208 . S
C341 O346 1.247 . S
C341 O347 1.208 . S
C342 O334 1.315 . S
C342 O337 1.279 . S
C343 O344 1.315 . S
C343 O345 1.279 . S
O344 Cd336 2.223 . S
O344 C343 1.315 . S
O345 Cd335 2.240 . S
O345 C343 1.279 . S
O346 Cd336 2.297 . S
O346 C341 1.247 . S
O347 Cd336 2.439 . S
O347 C341 1.208 . S
O348 Cd349 2.223 1_655 S
O348 C356 1.315 . S
Cd349 O348 2.223 1_455 S
Cd349 O352 2.297 . S
Cd349 O353 2.439 . S
Cd349 O359 2.240 . S
Cd350 O351 2.240 . S
Cd350 O358 2.223 1_455 S
Cd350 O360 2.297 . S
Cd350 O361 2.439 . S
O351 Cd350 2.240 . S
O351 C356 1.279 1_455 S
O352 Cd349 2.297 . S
O352 C354 1.247 . S
O353 Cd349 2.439 . S
O353 C354 1.208 . S
C354 O352 1.247 . S
C354 O353 1.208 . S
C355 O360 1.247 . S
C355 O361 1.208 . S
C356 O348 1.315 . S
C356 O351 1.279 1_655 S
C357 O358 1.315 . S
C357 O359 1.279 1_655 S
O358 Cd350 2.223 1_655 S
O358 C357 1.315 . S
O359 Cd349 2.240 . S
O359 C357 1.279 1_455 S
O360 Cd350 2.297 . S
O360 C355 1.247 . S
O361 Cd350 2.439 . S
O361 C355 1.208 . S
O362 Cd363 2.223 . S
O362 C370 1.315 . S
Cd363 O362 2.223 . S
Cd363 O366 2.297 . S
Cd363 O367 2.439 . S
Cd363 O373 2.240 . S
Cd364 O365 2.240 . S
Cd364 O372 2.223 . S
Cd364 O374 2.297 . S
Cd364 O375 2.439 . S
O365 Cd364 2.240 . S
O365 C370 1.279 . S
O366 Cd363 2.297 . S
O366 C368 1.247 . S
O367 Cd363 2.439 . S
O367 C368 1.208 . S
C368 O366 1.247 . S
C368 O367 1.208 . S
C369 O374 1.247 . S
C369 O375 1.208 . S
C370 O362 1.315 . S
C370 O365 1.279 . S
C371 O372 1.315 . S
C371 O373 1.279 . S
O372 Cd364 2.223 . S
O372 C371 1.315 . S
O373 Cd363 2.240 . S
O373 C371 1.279 . S
O374 Cd364 2.297 . S
O374 C369 1.247 . S
O375 Cd364 2.439 . S
O375 C369 1.208 . S
C376 C377 1.391 . S
C376 C378 1.394 . S
C376 H392 0.931 . S
C377 C376 1.391 . S
C377 C381 1.376 . S
C378 C376 1.394 . S
C378 C379 1.369 . S
C378 C382 1.531 . S
C379 C378 1.369 . S
C379 C380 1.410 . S
C379 C387 1.503 . S
C380 C379 1.410 . S
C380 C381 1.392 . S
C380 C383 1.511 . S
C381 C377 1.376 . S
C381 C380 1.392 . S
C381 H393 0.929 . S
C382 C378 1.531 . S
C382 H394 0.960 . S
C382 H395 0.962 . S
C382 H396 0.960 . S
C383 C380 1.511 . S
C383 H397 0.961 . S
C383 H398 0.961 . S
C383 H399 0.961 . S
C384 C385 1.370 . S
C384 C386 1.363 . S
C384 H400 0.931 . S
C385 C384 1.370 . S
C385 C389 1.408 . S
C386 C384 1.363 . S
C386 C387 1.370 . S
C386 C390 1.524 . S
C387 C379 1.503 . S
C387 C386 1.370 . S
C387 C388 1.403 . S
C388 C387 1.403 . S
C388 C389 1.404 . S
C388 C391 1.539 . S
C389 C385 1.408 . S
C389 C388 1.404 . S
C389 H401 0.930 . S
C390 C386 1.524 . S
C390 H402 0.956 . S
C390 H403 0.961 . S
C390 H404 0.961 . S
C391 C388 1.539 . S
C391 H405 0.958 . S
C391 H406 0.961 . S
C391 H407 0.960 . S
H392 C376 0.931 . S
H393 C381 0.929 . S
H394 C382 0.960 . S
H395 C382 0.962 . S
H396 C382 0.960 . S
H397 C383 0.961 . S
H398 C383 0.961 . S
H399 C383 0.961 . S
H400 C384 0.931 . S
H401 C389 0.930 . S
H402 C390 0.956 . S
H403 C390 0.961 . S
H404 C390 0.961 . S
H405 C391 0.958 . S
H406 C391 0.961 . S
H407 C391 0.960 . S
C408 C409 1.391 1_455 S
C408 C410 1.394 . S
C408 H424 0.931 . S
C409 C408 1.391 1_655 S
C409 C413 1.376 . S
C410 C408 1.394 . S
C410 C411 1.369 . S
C410 C414 1.531 . S
C411 C410 1.369 . S
C411 C412 1.410 1_455 S
C411 C419 1.503 . S
C412 C411 1.410 1_655 S
C412 C413 1.392 . S
C412 C415 1.511 . S
C413 C409 1.376 . S
C413 C412 1.392 . S
C413 H425 0.929 . S
C414 C410 1.531 . S
C414 H426 0.960 . S
C414 H427 0.962 . S
C414 H428 0.960 . S
C415 C412 1.511 . S
C415 H429 0.961 . S
C415 H430 0.961 1_655 S
C415 H431 0.961 . S
C416 C417 1.370 . S
C416 C418 1.363 . S
C416 H432 0.931 . S
C417 C416 1.370 . S
C417 C421 1.408 . S
C418 C416 1.363 . S
C418 C419 1.370 . S
C418 C422 1.524 . S
C419 C411 1.503 . S
C419 C418 1.370 . S
C419 C420 1.403 . S
C420 C419 1.403 . S
C420 C421 1.404 . S
C420 C423 1.539 . S
C421 C417 1.408 . S
C421 C420 1.404 . S
C421 H433 0.930 . S
C422 C418 1.524 . S
C422 H434 0.956 . S
C422 H435 0.961 . S
C422 H436 0.961 . S
C423 C420 1.539 . S
C423 H437 0.958 . S
C423 H438 0.961 . S
C423 H439 0.960 1_455 S
H424 C408 0.931 . S
H425 C413 0.929 . S
H426 C414 0.960 . S
H427 C414 0.962 . S
H428 C414 0.960 . S
H429 C415 0.961 . S
H430 C415 0.961 1_455 S
H431 C415 0.961 . S
H432 C416 0.931 . S
H433 C421 0.930 . S
H434 C422 0.956 . S
H435 C422 0.961 . S
H436 C422 0.961 . S
H437 C423 0.958 . S
H438 C423 0.961 . S
H439 C423 0.960 1_655 S
C440 C441 1.391 . S
C440 C442 1.394 . S
C440 H456 0.931 . S
C441 C440 1.391 . S
C441 C445 1.376 . S
C442 C440 1.394 . S
C442 C443 1.369 . S
C442 C446 1.531 . S
C443 C442 1.369 . S
C443 C444 1.410 . S
C443 C451 1.503 . S
C444 C443 1.410 . S
C444 C445 1.392 . S
C444 C447 1.511 . S
C445 C441 1.376 . S
C445 C444 1.392 . S
C445 H457 0.929 . S
C446 C442 1.531 . S
C446 H458 0.960 . S
C446 H459 0.962 . S
C446 H460 0.960 . S
C447 C444 1.511 . S
C447 H461 0.961 . S
C447 H462 0.961 . S
C447 H463 0.961 . S
C448 C449 1.370 . S
C448 C450 1.363 . S
C448 H464 0.931 . S
C449 C448 1.370 . S
C449 C453 1.408 . S
C450 C448 1.363 . S
C450 C451 1.370 . S
C450 C454 1.524 . S
C451 C443 1.503 . S
C451 C450 1.370 . S
C451 C452 1.403 . S
C452 C451 1.403 . S
C452 C453 1.404 . S
C452 C455 1.539 . S
C453 C449 1.408 . S
C453 C452 1.404 . S
C453 H465 0.930 . S
C454 C450 1.524 . S
C454 H466 0.956 . S
C454 H467 0.961 . S
C454 H468 0.961 . S
C455 C452 1.539 . S
C455 H469 0.958 . S
C455 H470 0.961 . S
C455 H471 0.960 . S
H456 C440 0.931 . S
H457 C445 0.929 . S
H458 C446 0.960 . S
H459 C446 0.962 . S
H460 C446 0.960 . S
H461 C447 0.961 . S
H462 C447 0.961 . S
H463 C447 0.961 . S
H464 C448 0.931 . S
H465 C453 0.930 . S
H466 C454 0.956 . S
H467 C454 0.961 . S
H468 C454 0.961 . S
H469 C455 0.958 . S
H470 C455 0.961 . S
H471 C455 0.960 . S
C472 C473 1.391 . S
C472 C474 1.394 . S
C472 H488 0.931 . S
C473 C472 1.391 . S
C473 C477 1.376 . S
C474 C472 1.394 . S
C474 C475 1.369 1_455 S
C474 C478 1.531 . S
C475 C474 1.369 1_655 S
C475 C476 1.410 . S
C475 C483 1.503 1_565 S
C476 C475 1.410 . S
C476 C477 1.392 1_655 S
C476 C479 1.511 1_565 S
C477 C473 1.376 . S
C477 C476 1.392 1_455 S
C477 H489 0.929 . S
C478 C474 1.531 . S
C478 H490 0.960 1_455 S
C478 H491 0.962 1_565 S
C478 H492 0.960 . S
C479 C476 1.511 1_545 S
C479 H493 0.961 . S
C479 H494 0.961 . S
C479 H495 0.961 1_545 S
C480 C481 1.370 . S
C480 C482 1.363 . S
C480 H496 0.931 . S
C481 C480 1.370 . S
C481 C485 1.408 . S
C482 C480 1.363 . S
C482 C483 1.370 . S
C482 C486 1.538 . S
C483 C475 1.503 1_545 S
C483 C482 1.370 . S
C483 C484 1.403 1_545 S
C484 C483 1.403 1_565 S
C484 C485 1.404 1_565 S
C484 C487 1.539 . S
C485 C481 1.408 . S
C485 C484 1.404 1_545 S
C485 H497 0.930 1_545 S
C486 C482 1.538 . S
C486 H498 0.941 1_655 S
C486 H499 0.957 1_655 S
C486 H500 0.964 . S
C487 C484 1.539 . S
C487 H501 0.958 . S
C487 H502 0.961 . S
C487 H503 0.960 . S
H488 C472 0.931 . S
H489 C477 0.929 . S
H490 C478 0.960 1_655 S
H491 C478 0.962 1_545 S
H492 C478 0.960 . S
H493 C479 0.961 . S
H494 C479 0.961 . S
H495 C479 0.961 1_565 S
H496 C480 0.931 . S
H497 C485 0.930 1_565 S
H498 C486 0.941 1_455 S
H499 C486 0.957 1_455 S
H500 C486 0.964 . S
H501 C487 0.958 . S
H502 C487 0.961 . S
H503 C487 0.960 . S
C504 C505 1.391 . S
C504 C506 1.394 . S
C504 H520 0.931 . S
C505 C504 1.391 . S
C505 C509 1.376 . S
C506 C504 1.394 . S
C506 C507 1.369 . S
C506 C510 1.531 . S
C507 C506 1.369 . S
C507 C508 1.410 . S
C507 C515 1.503 . S
C508 C507 1.410 . S
C508 C509 1.392 . S
C508 C511 1.511 . S
C509 C505 1.376 . S
C509 C508 1.392 . S
C509 H521 0.929 . S
C510 C506 1.531 . S
C510 H522 0.960 . S
C510 H523 0.962 . S
C510 H524 0.960 . S
C511 C508 1.511 . S
C511 H525 0.961 . S
C511 H526 0.961 . S
C511 H527 0.961 . S
C512 C513 1.370 . S
C512 C514 1.363 . S
C512 H528 0.931 . S
C513 C512 1.370 . S
C513 C517 1.408 . S
C514 C512 1.363 . S
C514 C515 1.370 . S
C514 C518 1.524 . S
C515 C507 1.503 . S
C515 C514 1.370 . S
C515 C516 1.403 . S
C516 C515 1.403 . S
C516 C517 1.404 . S
C516 C519 1.539 . S
C517 C513 1.408 . S
C517 C516 1.404 . S
C517 H529 0.930 . S
C518 C514 1.524 . S
C518 H530 0.956 . S
C518 H531 0.961 . S
C518 H532 0.961 . S
C519 C516 1.539 . S
C519 H533 0.958 . S
C519 H534 0.961 . S
C519 H535 0.960 . S
H520 C504 0.931 . S
H521 C509 0.929 . S
H522 C510 0.960 . S
H523 C510 0.962 . S
H524 C510 0.960 . S
H525 C511 0.961 . S
H526 C511 0.961 . S
H527 C511 0.961 . S
H528 C512 0.931 . S
H529 C517 0.930 . S
H530 C518 0.956 . S
H531 C518 0.961 . S
H532 C518 0.961 . S
H533 C519 0.958 . S
H534 C519 0.961 . S
H535 C519 0.960 . S
C536 C537 1.391 . S
C536 C538 1.394 . S
C536 H552 0.931 . S
C537 C536 1.391 . S
C537 C541 1.376 . S
C538 C536 1.394 . S
C538 C539 1.369 . S
C538 C542 1.531 . S
C539 C538 1.369 . S
C539 C540 1.410 . S
C539 C547 1.503 . S
C540 C539 1.410 . S
C540 C541 1.392 . S
C540 C543 1.511 . S
C541 C537 1.376 . S
C541 C540 1.392 . S
C541 H553 0.929 . S
C542 C538 1.531 . S
C542 H554 0.960 . S
C542 H555 0.962 . S
C542 H556 0.960 . S
C543 C540 1.511 . S
C543 H557 0.961 . S
C543 H558 0.961 . S
C543 H559 0.961 . S
C544 C545 1.370 . S
C544 C546 1.363 . S
C544 H560 0.931 . S
C545 C544 1.370 . S
C545 C549 1.408 . S
C546 C544 1.363 . S
C546 C547 1.370 . S
C546 C550 1.524 . S
C547 C539 1.503 . S
C547 C546 1.370 . S
C547 C548 1.403 . S
C548 C547 1.403 . S
C548 C549 1.404 . S
C548 C551 1.539 . S
C549 C545 1.408 . S
C549 C548 1.404 . S
C549 H561 0.930 . S
C550 C546 1.524 . S
C550 H562 0.956 . S
C550 H563 0.961 . S
C550 H564 0.961 . S
C551 C548 1.539 . S
C551 H565 0.958 . S
C551 H566 0.961 . S
C551 H567 0.960 . S
H552 C536 0.931 . S
H553 C541 0.929 . S
H554 C542 0.960 . S
H555 C542 0.962 . S
H556 C542 0.960 . S
H557 C543 0.961 . S
H558 C543 0.961 . S
H559 C543 0.961 . S
H560 C544 0.931 . S
H561 C549 0.930 . S
H562 C550 0.956 . S
H563 C550 0.961 . S
H564 C550 0.961 . S
H565 C551 0.958 . S
H566 C551 0.961 . S
H567 C551 0.960 . S
C568 C569 1.391 . S
C568 C570 1.394 . S
C568 H584 0.931 . S
C569 C568 1.391 . S
C569 C573 1.376 . S
C570 C568 1.394 . S
C570 C571 1.369 . S
C570 C574 1.531 . S
C571 C570 1.369 . S
C571 C572 1.410 . S
C571 C579 1.503 . S
C572 C571 1.410 . S
C572 C573 1.392 . S
C572 C575 1.511 . S
C573 C569 1.376 . S
C573 C572 1.392 . S
C573 H585 0.929 . S
C574 C570 1.531 . S
C574 H586 0.960 . S
C574 H587 0.962 . S
C574 H588 0.960 . S
C575 C572 1.511 . S
C575 H589 0.961 . S
C575 H590 0.961 . S
C575 H591 0.961 . S
C576 C577 1.370 . S
C576 C578 1.363 . S
C576 H592 0.931 . S
C577 C576 1.370 . S
C577 C581 1.408 . S
C578 C576 1.363 . S
C578 C579 1.370 . S
C578 C582 1.524 . S
C579 C571 1.503 . S
C579 C578 1.370 . S
C579 C580 1.403 . S
C580 C579 1.403 . S
C580 C581 1.404 . S
C580 C583 1.539 . S
C581 C577 1.408 . S
C581 C580 1.404 . S
C581 H593 0.930 . S
C582 C578 1.524 . S
C582 H594 0.956 . S
C582 H595 0.961 . S
C582 H596 0.961 . S
C583 C580 1.539 . S
C583 H597 0.958 . S
C583 H598 0.961 . S
C583 H599 0.960 . S
H584 C568 0.931 . S
H585 C573 0.929 . S
H586 C574 0.960 . S
H587 C574 0.962 . S
H588 C574 0.960 . S
H589 C575 0.961 . S
H590 C575 0.961 . S
H591 C575 0.961 . S
H592 C576 0.931 . S
H593 C581 0.930 . S
H594 C582 0.956 . S
H595 C582 0.961 . S
H596 C582 0.961 . S
H597 C583 0.958 . S
H598 C583 0.961 . S
H599 C583 0.960 . S
C600 C601 1.391 . S
C600 C602 1.394 . S
C600 H616 0.931 . S
C601 C600 1.391 . S
C601 C605 1.376 . S
C602 C600 1.394 . S
C602 C603 1.369 . S
C602 C606 1.531 . S
C603 C602 1.369 . S
C603 C604 1.410 . S
C603 C611 1.503 . S
C604 C603 1.410 . S
C604 C605 1.392 . S
C604 C607 1.511 . S
C605 C601 1.376 . S
C605 C604 1.392 . S
C605 H617 0.929 . S
C606 C602 1.531 . S
C606 H618 0.960 . S
C606 H619 0.962 . S
C606 H620 0.960 . S
C607 C604 1.511 . S
C607 H621 0.961 . S
C607 H622 0.961 . S
C607 H623 0.961 . S
C608 C609 1.370 . S
C608 C610 1.363 . S
C608 H624 0.931 . S
C609 C608 1.370 . S
C609 C613 1.408 . S
C610 C608 1.363 . S
C610 C611 1.370 . S
C610 C614 1.524 . S
C611 C603 1.503 . S
C611 C610 1.370 . S
C611 C612 1.403 . S
C612 C611 1.403 . S
C612 C613 1.404 . S
C612 C615 1.539 1_565 S
C613 C609 1.408 . S
C613 C612 1.404 . S
C613 H625 0.930 1_565 S
C614 C610 1.524 . S
C614 H626 0.956 . S
C614 H627 0.961 . S
C614 H628 0.961 . S
C615 C612 1.539 1_545 S
C615 H629 0.958 . S
C615 H630 0.961 . S
C615 H631 0.959 . S
H616 C600 0.931 . S
H617 C605 0.929 . S
H618 C606 0.960 . S
H619 C606 0.962 . S
H620 C606 0.960 . S
H621 C607 0.961 . S
H622 C607 0.961 . S
H623 C607 0.961 . S
H624 C608 0.931 . S
H625 C613 0.930 1_545 S
H626 C614 0.956 . S
H627 C614 0.961 . S
H628 C614 0.961 . S
H629 C615 0.958 . S
H630 C615 0.961 . S
H631 C615 0.959 . S
C632 C633 1.391 . S
C632 C634 1.394 . S
C632 H648 0.931 . S
C633 C632 1.391 . S
C633 C637 1.376 . S
C634 C632 1.394 . S
C634 C635 1.369 . S
C634 C638 1.531 . S
C635 C634 1.369 . S
C635 C636 1.410 . S
C635 C643 1.503 . S
C636 C635 1.410 . S
C636 C637 1.392 . S
C636 C639 1.511 . S
C637 C633 1.376 . S
C637 C636 1.392 . S
C637 H649 0.929 . S
C638 C634 1.531 . S
C638 H650 0.960 . S
C638 H651 0.962 . S
C638 H652 0.960 . S
C639 C636 1.511 . S
C639 H653 0.961 . S
C639 H654 0.961 . S
C639 H655 0.961 . S
C640 C641 1.370 . S
C640 C642 1.363 . S
C640 H656 0.931 . S
C641 C640 1.370 . S
C641 C645 1.408 . S
C642 C640 1.363 . S
C642 C643 1.370 . S
C642 C646 1.524 . S
C643 C635 1.503 . S
C643 C642 1.370 . S
C643 C644 1.403 . S
C644 C643 1.403 . S
C644 C645 1.404 . S
C644 C647 1.539 . S
C645 C641 1.408 . S
C645 C644 1.404 . S
C645 H657 0.930 . S
C646 C642 1.524 . S
C646 H658 0.956 . S
C646 H659 0.961 . S
C646 H660 0.961 . S
C647 C644 1.539 . S
C647 H661 0.958 . S
C647 H662 0.961 . S
C647 H663 0.960 . S
H648 C632 0.931 . S
H649 C637 0.929 . S
H650 C638 0.960 . S
H651 C638 0.962 . S
H652 C638 0.960 . S
H653 C639 0.961 . S
H654 C639 0.961 . S
H655 C639 0.961 . S
H656 C640 0.931 . S
H657 C645 0.930 . S
H658 C646 0.956 . S
H659 C646 0.961 . S
H660 C646 0.961 . S
H661 C647 0.958 . S
H662 C647 0.961 . S
H663 C647 0.960 . S
C664 C665 1.391 . S
C664 C666 1.394 . S
C664 H680 0.931 . S
C665 C664 1.391 . S
C665 C669 1.376 . S
C666 C664 1.394 . S
C666 C667 1.369 . S
C666 C670 1.531 . S
C667 C666 1.369 . S
C667 C668 1.410 . S
C667 C675 1.503 . S
C668 C667 1.410 . S
C668 C669 1.392 . S
C668 C671 1.511 . S
C669 C665 1.376 . S
C669 C668 1.392 . S
C669 H681 0.929 . S
C670 C666 1.531 . S
C670 H682 0.960 . S
C670 H683 0.962 . S
C670 H684 0.960 . S
C671 C668 1.511 . S
C671 H685 0.961 . S
C671 H686 0.961 . S
C671 H687 0.961 . S
C672 C673 1.370 . S
C672 C674 1.363 . S
C672 H688 0.931 . S
C673 C672 1.370 . S
C673 C677 1.408 . S
C674 C672 1.363 . S
C674 C675 1.370 . S
C674 C678 1.524 . S
C675 C667 1.503 . S
C675 C674 1.370 . S
C675 C676 1.403 . S
C676 C675 1.403 . S
C676 C677 1.404 . S
C676 C679 1.539 . S
C677 C673 1.408 . S
C677 C676 1.404 . S
C677 H689 0.930 . S
C678 C674 1.524 . S
C678 H690 0.956 . S
C678 H691 0.961 . S
C678 H692 0.961 . S
C679 C676 1.539 . S
C679 H693 0.958 . S
C679 H694 0.961 . S
C679 H695 0.960 . S
H680 C664 0.931 . S
H681 C669 0.929 . S
H682 C670 0.960 . S
H683 C670 0.962 . S
H684 C670 0.960 . S
H685 C671 0.961 . S
H686 C671 0.961 . S
H687 C671 0.961 . S
H688 C672 0.931 . S
H689 C677 0.930 . S
H690 C678 0.956 . S
H691 C678 0.961 . S
H692 C678 0.961 . S
H693 C679 0.958 . S
H694 C679 0.961 . S
H695 C679 0.960 . S
C696 C697 1.391 . S
C696 C698 1.394 . S
C696 H712 0.931 . S
C697 C696 1.391 . S
C697 C701 1.376 . S
C698 C696 1.394 . S
C698 C699 1.369 . S
C698 C702 1.531 . S
C699 C698 1.369 . S
C699 C700 1.410 . S
C699 C707 1.503 . S
C700 C699 1.410 . S
C700 C701 1.392 . S
C700 C703 1.511 . S
C701 C697 1.376 . S
C701 C700 1.392 . S
C701 H713 0.929 . S
C702 C698 1.531 . S
C702 H714 0.960 . S
C702 H715 0.962 . S
C702 H716 0.960 . S
C703 C700 1.511 . S
C703 H717 0.961 . S
C703 H718 0.961 . S
C703 H719 0.961 . S
C704 C705 1.370 . S
C704 C706 1.363 . S
C704 H720 0.931 . S
C705 C704 1.370 . S
C705 C709 1.408 . S
C706 C704 1.363 . S
C706 C707 1.370 . S
C706 C710 1.524 . S
C707 C699 1.503 . S
C707 C706 1.370 . S
C707 C708 1.403 . S
C708 C707 1.403 . S
C708 C709 1.404 . S
C708 C711 1.539 . S
C709 C705 1.408 . S
C709 C708 1.404 . S
C709 H721 0.930 . S
C710 C706 1.524 . S
C710 H722 0.956 . S
C710 H723 0.961 . S
C710 H724 0.961 . S
C711 C708 1.539 . S
C711 H725 0.958 . S
C711 H726 0.961 . S
C711 H727 0.960 . S
H712 C696 0.931 . S
H713 C701 0.929 . S
H714 C702 0.960 . S
H715 C702 0.962 . S
H716 C702 0.960 . S
H717 C703 0.961 . S
H718 C703 0.961 . S
H719 C703 0.961 . S
H720 C704 0.931 . S
H721 C709 0.930 . S
H722 C710 0.956 . S
H723 C710 0.961 . S
H724 C710 0.961 . S
H725 C711 0.958 . S
H726 C711 0.961 . S
H727 C711 0.960 . S
C728 C729 1.391 . S
C728 C730 1.394 . S
C728 H744 0.931 . S
C729 C728 1.391 . S
C729 C733 1.376 . S
C730 C728 1.394 . S
C730 C731 1.369 . S
C730 C734 1.531 . S
C731 C730 1.369 . S
C731 C732 1.410 . S
C731 C739 1.503 . S
C732 C731 1.410 . S
C732 C733 1.392 . S
C732 C735 1.511 . S
C733 C729 1.376 . S
C733 C732 1.392 . S
C733 H745 0.929 . S
C734 C730 1.531 . S
C734 H746 0.960 . S
C734 H747 0.962 . S
C734 H748 0.960 . S
C735 C732 1.511 . S
C735 H749 0.961 . S
C735 H750 0.961 . S
C735 H751 0.961 . S
C736 C737 1.370 . S
C736 C738 1.363 . S
C736 H752 0.931 . S
C737 C736 1.370 . S
C737 C741 1.408 . S
C738 C736 1.363 . S
C738 C739 1.370 . S
C738 C742 1.524 . S
C739 C731 1.503 . S
C739 C738 1.370 . S
C739 C740 1.403 . S
C740 C739 1.403 . S
C740 C741 1.404 . S
C740 C743 1.539 . S
C741 C737 1.408 . S
C741 C740 1.404 . S
C741 H753 0.930 . S
C742 C738 1.524 . S
C742 H754 0.956 . S
C742 H755 0.961 . S
C742 H756 0.961 . S
C743 C740 1.539 . S
C743 H757 0.958 . S
C743 H758 0.961 . S
C743 H759 0.960 . S
H744 C728 0.931 . S
H745 C733 0.929 . S
H746 C734 0.960 . S
H747 C734 0.962 . S
H748 C734 0.960 . S
H749 C735 0.961 . S
H750 C735 0.961 . S
H751 C735 0.961 . S
H752 C736 0.931 . S
H753 C741 0.930 . S
H754 C742 0.956 . S
H755 C742 0.961 . S
H756 C742 0.961 . S
H757 C743 0.958 . S
H758 C743 0.961 . S
H759 C743 0.960 . S
C760 C761 1.391 . S
C760 C762 1.394 . S
C760 H776 0.931 . S
C761 C760 1.391 . S
C761 C765 1.376 . S
C762 C760 1.394 . S
C762 C763 1.369 . S
C762 C766 1.531 . S
C763 C762 1.369 . S
C763 C764 1.410 . S
C763 C771 1.503 . S
C764 C763 1.410 . S
C764 C765 1.392 . S
C764 C767 1.511 . S
C765 C761 1.376 . S
C765 C764 1.392 . S
C765 H777 0.929 . S
C766 C762 1.531 . S
C766 H778 0.960 . S
C766 H779 0.962 . S
C766 H780 0.960 . S
C767 C764 1.511 . S
C767 H781 0.961 . S
C767 H782 0.961 . S
C767 H783 0.961 . S
C768 C769 1.370 . S
C768 C770 1.363 . S
C768 H784 0.931 . S
C769 C768 1.370 . S
C769 C773 1.408 . S
C770 C768 1.363 . S
C770 C771 1.370 . S
C770 C774 1.524 . S
C771 C763 1.503 . S
C771 C770 1.370 . S
C771 C772 1.403 . S
C772 C771 1.403 . S
C772 C773 1.404 . S
C772 C775 1.539 . S
C773 C769 1.408 . S
C773 C772 1.404 . S
C773 H785 0.930 . S
C774 C770 1.524 . S
C774 H786 0.956 . S
C774 H787 0.961 . S
C774 H788 0.961 . S
C775 C772 1.539 . S
C775 H789 0.958 . S
C775 H790 0.961 . S
C775 H791 0.960 . S
H776 C760 0.931 . S
H777 C765 0.929 . S
H778 C766 0.960 . S
H779 C766 0.962 . S
H780 C766 0.960 . S
H781 C767 0.961 . S
H782 C767 0.961 . S
H783 C767 0.961 . S
H784 C768 0.931 . S
H785 C773 0.930 . S
H786 C774 0.956 . S
H787 C774 0.961 . S
H788 C774 0.961 . S
H789 C775 0.958 . S
H790 C775 0.961 . S
H791 C775 0.960 . S
C792 C793 1.391 . S
C792 C794 1.394 . S
C792 H808 0.931 . S
C793 C792 1.391 . S
C793 C797 1.376 . S
C794 C792 1.394 . S
C794 C795 1.369 . S
C794 C798 1.531 . S
C795 C794 1.369 . S
C795 C796 1.410 . S
C795 C803 1.503 . S
C796 C795 1.410 . S
C796 C797 1.392 . S
C796 C799 1.511 . S
C797 C793 1.376 . S
C797 C796 1.392 . S
C797 H809 0.929 . S
C798 C794 1.531 . S
C798 H810 0.960 . S
C798 H811 0.962 . S
C798 H812 0.960 . S
C799 C796 1.511 . S
C799 H813 0.961 . S
C799 H814 0.961 . S
C799 H815 0.961 . S
C800 C801 1.370 . S
C800 C802 1.363 . S
C800 H816 0.931 . S
C801 C800 1.370 . S
C801 C805 1.408 . S
C802 C800 1.363 . S
C802 C803 1.370 . S
C802 C806 1.524 . S
C803 C795 1.503 . S
C803 C802 1.370 . S
C803 C804 1.403 . S
C804 C803 1.403 . S
C804 C805 1.404 . S
C804 C807 1.539 . S
C805 C801 1.408 . S
C805 C804 1.404 . S
C805 H817 0.930 . S
C806 C802 1.524 . S
C806 H818 0.956 . S
C806 H819 0.961 . S
C806 H820 0.961 . S
C807 C804 1.539 . S
C807 H821 0.958 . S
C807 H822 0.961 . S
C807 H823 0.960 . S
H808 C792 0.931 . S
H809 C797 0.929 . S
H810 C798 0.960 . S
H811 C798 0.962 . S
H812 C798 0.960 . S
H813 C799 0.961 . S
H814 C799 0.961 . S
H815 C799 0.961 . S
H816 C800 0.931 . S
H817 C805 0.930 . S
H818 C806 0.956 . S
H819 C806 0.961 . S
H820 C806 0.961 . S
H821 C807 0.958 . S
H822 C807 0.961 . S
H823 C807 0.960 . S
C824 C825 1.391 . S
C824 C826 1.394 . S
C824 H840 0.931 . S
C825 C824 1.391 . S
C825 C829 1.376 . S
C826 C824 1.394 . S
C826 C827 1.369 . S
C826 C830 1.531 . S
C827 C826 1.369 . S
C827 C828 1.410 . S
C827 C835 1.503 . S
C828 C827 1.410 . S
C828 C829 1.392 . S
C828 C831 1.511 . S
C829 C825 1.376 . S
C829 C828 1.392 . S
C829 H841 0.929 . S
C830 C826 1.531 . S
C830 H842 0.960 . S
C830 H843 0.962 . S
C830 H844 0.960 . S
C831 C828 1.511 . S
C831 H845 0.961 . S
C831 H846 0.961 . S
C831 H847 0.961 . S
C832 C833 1.370 . S
C832 C834 1.363 . S
C832 H848 0.931 . S
C833 C832 1.370 . S
C833 C837 1.408 . S
C834 C832 1.363 . S
C834 C835 1.370 . S
C834 C838 1.524 . S
C835 C827 1.503 . S
C835 C834 1.370 . S
C835 C836 1.403 . S
C836 C835 1.403 . S
C836 C837 1.404 . S
C836 C839 1.539 . S
C837 C833 1.408 . S
C837 C836 1.404 . S
C837 H849 0.930 . S
C838 C834 1.524 . S
C838 H850 0.956 . S
C838 H851 0.961 . S
C838 H852 0.961 . S
C839 C836 1.539 . S
C839 H853 0.958 . S
C839 H854 0.961 . S
C839 H855 0.960 . S
H840 C824 0.931 . S
H841 C829 0.929 . S
H842 C830 0.960 . S
H843 C830 0.962 . S
H844 C830 0.960 . S
H845 C831 0.961 . S
H846 C831 0.961 . S
H847 C831 0.961 . S
H848 C832 0.931 . S
H849 C837 0.930 . S
H850 C838 0.956 . S
H851 C838 0.961 . S
H852 C838 0.961 . S
H853 C839 0.958 . S
H854 C839 0.961 . S
H855 C839 0.960 . S
C856 C857 1.391 . S
C856 C858 1.394 . S
C856 H872 0.931 . S
C857 C856 1.391 . S
C857 C861 1.376 . S
C858 C856 1.394 . S
C858 C859 1.369 . S
C858 C862 1.531 . S
C859 C858 1.369 . S
C859 C860 1.410 . S
C859 C867 1.503 . S
C860 C859 1.410 . S
C860 C861 1.392 . S
C860 C863 1.511 1_655 S
C861 C857 1.376 . S
C861 C860 1.392 . S
C861 H873 0.929 . S
C862 C858 1.531 . S
C862 H874 0.960 . S
C862 H875 0.962 . S
C862 H876 0.960 . S
C863 C860 1.511 1_455 S
C863 H877 0.961 . S
C863 H878 0.960 1_455 S
C863 H879 0.961 . S
C864 C865 1.370 . S
C864 C866 1.363 . S
C864 H880 0.931 . S
C865 C864 1.370 . S
C865 C869 1.408 . S
C866 C864 1.363 . S
C866 C867 1.370 . S
C866 C870 1.524 . S
C867 C859 1.503 . S
C867 C866 1.370 . S
C867 C868 1.403 . S
C868 C867 1.403 . S
C868 C869 1.404 . S
C868 C871 1.539 1_655 S
C869 C865 1.408 . S
C869 C868 1.404 . S
C869 H881 0.930 1_655 S
C870 C866 1.524 . S
C870 H882 0.956 . S
C870 H883 0.961 . S
C870 H884 0.961 . S
C871 C868 1.539 1_455 S
C871 H885 0.958 1_455 S
C871 H886 0.961 . S
C871 H887 0.960 . S
H872 C856 0.931 . S
H873 C861 0.929 . S
H874 C862 0.960 . S
H875 C862 0.962 . S
H876 C862 0.960 . S
H877 C863 0.961 . S
H878 C863 0.960 1_655 S
H879 C863 0.961 . S
H880 C864 0.931 . S
H881 C869 0.930 1_455 S
H882 C870 0.956 . S
H883 C870 0.961 . S
H884 C870 0.961 . S
H885 C871 0.958 1_655 S
H886 C871 0.961 . S
H887 C871 0.960 . S
C888 C889 1.391 . S
C888 C890 1.394 . S
C888 H904 0.931 . S
C889 C888 1.391 . S
C889 C893 1.376 . S
C890 C888 1.394 . S
C890 C891 1.369 . S
C890 C894 1.531 . S
C891 C890 1.369 . S
C891 C892 1.410 . S
C891 C899 1.503 . S
C892 C891 1.410 . S
C892 C893 1.392 . S
C892 C895 1.511 . S
C893 C889 1.376 . S
C893 C892 1.392 . S
C893 H905 0.929 . S
C894 C890 1.531 . S
C894 H906 0.960 . S
C894 H907 0.962 . S
C894 H908 0.960 . S
C895 C892 1.511 . S
C895 H909 0.961 . S
C895 H910 0.961 . S
C895 H911 0.961 . S
C896 C897 1.376 . S
C896 C898 1.329 1_545 S
C896 H912 0.962 . S
C897 C896 1.376 . S
C897 C901 1.408 1_545 S
C898 C896 1.329 1_565 S
C898 C899 1.370 . S
C898 C902 1.524 . S
C899 C891 1.503 . S
C899 C898 1.370 . S
C899 C900 1.403 . S
C900 C899 1.403 . S
C900 C901 1.404 . S
C900 C903 1.539 . S
C901 C897 1.408 1_565 S
C901 C900 1.404 . S
C901 H913 0.930 . S
C902 C898 1.524 . S
C902 H914 0.956 . S
C902 H915 0.961 . S
C902 H916 0.961 . S
C903 C900 1.539 . S
C903 H917 0.958 . S
C903 H918 0.961 . S
C903 H919 0.960 . S
H904 C888 0.931 . S
H905 C893 0.929 . S
H906 C894 0.960 . S
H907 C894 0.962 . S
H908 C894 0.960 . S
H909 C895 0.961 . S
H910 C895 0.961 . S
H911 C895 0.961 . S
H912 C896 0.962 . S
H913 C901 0.930 . S
H914 C902 0.956 . S
H915 C902 0.961 . S
H916 C902 0.961 . S
H917 C903 0.958 . S
H918 C903 0.961 . S
H919 C903 0.960 . S
C920 C921 1.391 . S
C920 C922 1.394 . S
C920 H936 0.931 . S
C921 C920 1.391 . S
C921 C925 1.376 . S
C922 C920 1.394 . S
C922 C923 1.369 . S
C922 C926 1.531 . S
C923 C922 1.369 . S
C923 C924 1.410 . S
C923 C931 1.503 . S
C924 C923 1.410 . S
C924 C925 1.392 . S
C924 C927 1.511 . S
C925 C921 1.376 . S
C925 C924 1.392 . S
C925 H937 0.929 . S
C926 C922 1.531 . S
C926 H938 0.960 . S
C926 H939 0.962 . S
C926 H940 0.960 . S
C927 C924 1.511 . S
C927 H941 0.961 . S
C927 H942 0.961 . S
C927 H943 0.961 . S
C928 C929 1.370 . S
C928 C930 1.363 . S
C928 H944 0.931 . S
C929 C928 1.370 . S
C929 C933 1.408 . S
C930 C928 1.363 . S
C930 C931 1.370 . S
C930 C934 1.524 . S
C931 C923 1.503 . S
C931 C930 1.370 . S
C931 C932 1.403 . S
C932 C931 1.403 . S
C932 C933 1.404 . S
C932 C935 1.539 . S
C933 C929 1.408 . S
C933 C932 1.404 . S
C933 H945 0.930 . S
C934 C930 1.524 . S
C934 H946 0.956 . S
C934 H947 0.961 . S
C934 H948 0.961 . S
C935 C932 1.539 . S
C935 H949 0.958 . S
C935 H950 0.961 . S
C935 H951 0.960 . S
H936 C920 0.931 . S
H937 C925 0.929 . S
H938 C926 0.960 . S
H939 C926 0.962 . S
H940 C926 0.960 . S
H941 C927 0.961 . S
H942 C927 0.961 . S
H943 C927 0.961 . S
H944 C928 0.931 . S
H945 C933 0.930 . S
H946 C934 0.956 . S
H947 C934 0.961 . S
H948 C934 0.961 . S
H949 C935 0.958 . S
H950 C935 0.961 . S
H951 C935 0.960 . S
C952 C953 1.391 . S
C952 C954 1.394 . S
C952 H968 0.931 . S
C953 C952 1.391 . S
C953 C957 1.376 . S
C954 C952 1.394 . S
C954 C955 1.369 . S
C954 C958 1.531 1_556 S
C955 C954 1.369 . S
C955 C956 1.410 . S
C955 C963 1.503 . S
C956 C955 1.410 . S
C956 C957 1.392 . S
C956 C959 1.511 . S
C957 C953 1.376 . S
C957 C956 1.392 . S
C957 H969 0.929 . S
C958 C954 1.531 1_554 S
C958 H970 0.960 . S
C958 H971 0.962 . S
C958 H972 0.960 . S
C959 C956 1.511 . S
C959 H973 0.961 . S
C959 H974 0.961 . S
C959 H975 0.961 . S
C960 C961 1.370 . S
C960 C962 1.363 1_565 S
C960 H976 0.931 . S
C961 C960 1.370 . S
C961 C965 1.408 1_565 S
C962 C960 1.363 1_545 S
C962 C963 1.370 . S
C962 C966 1.524 1_545 S
C963 C955 1.503 . S
C963 C962 1.370 . S
C963 C964 1.403 . S
C964 C963 1.403 . S
C964 C965 1.404 . S
C964 C967 1.539 . S
C965 C961 1.408 1_545 S
C965 C964 1.404 . S
C965 H977 0.930 1_556 S
C966 C962 1.524 1_565 S
C966 H978 0.956 1_565 S
C966 H979 0.961 1_565 S
C966 H980 0.961 . S
C967 C964 1.539 . S
C967 H981 0.958 1_556 S
C967 H982 0.961 . S
C967 H983 0.960 . S
H968 C952 0.931 . S
H969 C957 0.929 . S
H970 C958 0.960 . S
H971 C958 0.962 . S
H972 C958 0.960 . S
H973 C959 0.961 . S
H974 C959 0.961 . S
H975 C959 0.961 . S
H976 C960 0.931 . S
H977 C965 0.930 1_554 S
H978 C966 0.956 1_545 S
H979 C966 0.961 1_545 S
H980 C966 0.961 . S
H981 C967 0.958 1_554 S
H982 C967 0.961 . S
H983 C967 0.960 . S
C984 C985 1.391 . S
C984 C986 1.394 . S
C984 H1000 0.931 . S
C985 C984 1.391 . S
C985 C989 1.376 . S
C986 C984 1.394 . S
C986 C987 1.369 . S
C986 C990 1.531 . S
C987 C986 1.369 . S
C987 C988 1.410 . S
C987 C995 1.503 . S
C988 C987 1.410 . S
C988 C989 1.392 . S
C988 C991 1.511 . S
C989 C985 1.376 . S
C989 C988 1.392 . S
C989 H1001 0.929 . S
C990 C986 1.531 . S
C990 H1002 0.960 . S
C990 H1003 0.962 . S
C990 H1004 0.960 . S
C991 C988 1.511 . S
C991 H1005 0.961 . S
C991 H1006 0.961 . S
C991 H1007 0.961 . S
C992 C993 1.370 . S
C992 C994 1.363 . S
C992 H1008 0.931 . S
C993 C992 1.370 . S
C993 C997 1.408 . S
C994 C992 1.363 . S
C994 C995 1.370 . S
C994 C998 1.524 . S
C995 C987 1.503 . S
C995 C994 1.370 . S
C995 C996 1.403 . S
C996 C995 1.403 . S
C996 C997 1.404 . S
C996 C999 1.539 . S
C997 C993 1.408 . S
C997 C996 1.404 . S
C997 H1009 0.930 . S
C998 C994 1.524 . S
C998 H1010 0.956 . S
C998 H1011 0.961 . S
C998 H1012 0.961 . S
C999 C996 1.539 . S
C999 H1013 0.958 . S
C999 H1014 0.961 . S
C999 H1015 0.960 . S
H1000 C984 0.931 . S
H1001 C989 0.929 . S
H1002 C990 0.960 . S
H1003 C990 0.962 . S
H1004 C990 0.960 . S
H1005 C991 0.961 . S
H1006 C991 0.961 . S
H1007 C991 0.961 . S
H1008 C992 0.931 . S
H1009 C997 0.930 . S
H1010 C998 0.956 . S
H1011 C998 0.961 . S
H1012 C998 0.961 . S
H1013 C999 0.958 . S
H1014 C999 0.961 . S
H1015 C999 0.960 . S
C1016 C1017 1.391 . S
C1016 C1018 1.394 1_565 S
C1016 H1032 0.931 . S
C1017 C1016 1.391 . S
C1017 C1021 1.376 1_565 S
C1018 C1016 1.394 1_545 S
C1018 C1019 1.369 . S
C1018 C1022 1.531 . S
C1019 C1018 1.369 . S
C1019 C1020 1.410 . S
C1019 C1027 1.503 . S
C1020 C1019 1.410 . S
C1020 C1021 1.392 . S
C1020 C1023 1.511 . S
C1021 C1017 1.376 1_545 S
C1021 C1020 1.392 . S
C1021 H1033 0.929 . S
C1022 C1018 1.531 . S
C1022 H1034 0.960 . S
C1022 H1035 0.962 . S
C1022 H1036 0.960 1_545 S
C1023 C1020 1.511 . S
C1023 H1037 0.961 . S
C1023 H1038 0.961 . S
C1023 H1039 0.961 . S
C1024 C1025 1.370 . S
C1024 C1026 1.363 . S
C1024 H1040 0.931 . S
C1025 C1024 1.370 . S
C1025 C1029 1.408 . S
C1026 C1024 1.363 . S
C1026 C1027 1.370 . S
C1026 C1030 1.524 . S
C1027 C1019 1.503 . S
C1027 C1026 1.370 . S
C1027 C1028 1.403 . S
C1028 C1027 1.403 . S
C1028 C1029 1.404 . S
C1028 C1031 1.539 . S
C1029 C1025 1.408 . S
C1029 C1028 1.404 . S
C1029 H1041 0.930 . S
C1030 C1026 1.524 . S
C1030 H1042 0.956 . S
C1030 H1043 0.961 . S
C1030 H1044 0.961 . S
C1031 C1028 1.539 . S
C1031 H1045 0.958 . S
C1031 H1046 0.961 . S
C1031 H1047 0.960 . S
H1032 C1016 0.931 . S
H1033 C1021 0.929 . S
H1034 C1022 0.960 . S
H1035 C1022 0.962 . S
H1036 C1022 0.960 1_565 S
H1037 C1023 0.961 . S
H1038 C1023 0.961 . S
H1039 C1023 0.961 . S
H1040 C1024 0.931 . S
H1041 C1029 0.930 . S
H1042 C1030 0.956 . S
H1043 C1030 0.961 . S
H1044 C1030 0.961 . S
H1045 C1031 0.958 . S
H1046 C1031 0.961 . S
H1047 C1031 0.960 . S
C1048 C1049 1.391 . S
C1048 C1050 1.394 . S
C1048 H1064 0.931 . S
C1049 C1048 1.391 . S
C1049 C1053 1.376 . S
C1050 C1048 1.394 . S
C1050 C1051 1.369 . S
C1050 C1054 1.531 . S
C1051 C1050 1.369 . S
C1051 C1052 1.410 . S
C1051 C1059 1.503 . S
C1052 C1051 1.410 . S
C1052 C1053 1.392 . S
C1052 C1055 1.511 . S
C1053 C1049 1.376 . S
C1053 C1052 1.392 . S
C1053 H1065 0.929 . S
C1054 C1050 1.531 . S
C1054 H1066 0.960 . S
C1054 H1067 0.962 . S
C1054 H1068 0.960 . S
C1055 C1052 1.511 . S
C1055 H1069 0.961 . S
C1055 H1070 0.961 . S
C1055 H1071 0.961 . S
C1056 C1057 1.370 . S
C1056 C1058 1.363 . S
C1056 H1072 0.931 . S
C1057 C1056 1.370 . S
C1057 C1061 1.408 . S
C1058 C1056 1.363 . S
C1058 C1059 1.370 . S
C1058 C1062 1.524 . S
C1059 C1051 1.503 . S
C1059 C1058 1.370 . S
C1059 C1060 1.403 . S
C1060 C1059 1.403 . S
C1060 C1061 1.404 . S
C1060 C1063 1.539 . S
C1061 C1057 1.408 . S
C1061 C1060 1.404 . S
C1061 H1073 0.930 . S
C1062 C1058 1.524 . S
C1062 H1074 0.956 . S
C1062 H1075 0.961 . S
C1062 H1076 0.961 . S
C1063 C1060 1.539 . S
C1063 H1077 0.958 . S
C1063 H1078 0.961 . S
C1063 H1079 0.960 . S
H1064 C1048 0.931 . S
H1065 C1053 0.929 . S
H1066 C1054 0.960 . S
H1067 C1054 0.962 . S
H1068 C1054 0.960 . S
H1069 C1055 0.961 . S
H1070 C1055 0.961 . S
H1071 C1055 0.961 . S
H1072 C1056 0.931 . S
H1073 C1061 0.930 . S
H1074 C1062 0.956 . S
H1075 C1062 0.961 . S
H1076 C1062 0.961 . S
H1077 C1063 0.958 . S
H1078 C1063 0.961 . S
H1079 C1063 0.960 . S
C1080 C1081 1.391 . S
C1080 C1082 1.359 1_565 S
C1080 H1096 0.931 . S
C1081 C1080 1.391 . S
C1081 C1085 1.376 . S
C1082 C1080 1.359 1_545 S
C1082 C1083 1.377 . S
C1082 C1086 1.558 . S
C1083 C1082 1.377 . S
C1083 C1084 1.408 1_545 S
C1083 C1091 1.506 . S
C1084 C1083 1.408 1_565 S
C1084 C1085 1.392 . S
C1084 C1087 1.511 . S
C1085 C1081 1.376 . S
C1085 C1084 1.392 . S
C1085 H1097 0.929 . S
C1086 C1082 1.558 . S
C1086 H1098 0.960 . S
C1086 H1099 0.962 . S
C1086 H1100 0.960 . S
C1087 C1084 1.511 . S
C1087 H1101 0.961 . S
C1087 H1102 0.961 . S
C1087 H1103 0.961 . S
C1088 C1089 1.370 . S
C1088 C1090 1.363 . S
C1088 H1104 0.931 . S
C1089 C1088 1.370 . S
C1089 C1093 1.408 . S
C1090 C1088 1.363 . S
C1090 C1091 1.370 . S
C1090 C1094 1.524 . S
C1091 C1083 1.506 . S
C1091 C1090 1.370 . S
C1091 C1092 1.403 . S
C1092 C1091 1.403 . S
C1092 C1093 1.404 . S
C1092 C1095 1.539 . S
C1093 C1089 1.408 . S
C1093 C1092 1.404 . S
C1093 H1105 0.930 . S
C1094 C1090 1.524 . S
C1094 H1106 0.956 . S
C1094 H1107 0.961 . S
C1094 H1108 0.961 . S
C1095 C1092 1.539 . S
C1095 H1109 0.958 . S
C1095 H1110 0.961 . S
C1095 H1111 0.960 1_545 S
H1096 C1080 0.931 . S
H1097 C1085 0.929 . S
H1098 C1086 0.960 . S
H1099 C1086 0.962 . S
H1100 C1086 0.960 . S
H1101 C1087 0.961 . S
H1102 C1087 0.961 . S
H1103 C1087 0.961 . S
H1104 C1088 0.931 . S
H1105 C1093 0.930 . S
H1106 C1094 0.956 . S
H1107 C1094 0.961 . S
H1108 C1094 0.961 . S
H1109 C1095 0.958 . S
H1110 C1095 0.961 . S
H1111 C1095 0.960 1_565 S
C1112 C1113 1.391 . S
C1112 C1114 1.394 . S
C1112 H1128 0.931 . S
C1113 C1112 1.391 . S
C1113 C1117 1.376 . S
C1114 C1112 1.394 . S
C1114 C1115 1.369 . S
C1114 C1118 1.531 . S
C1115 C1114 1.369 . S
C1115 C1116 1.410 . S
C1115 C1123 1.503 . S
C1116 C1115 1.410 . S
C1116 C1117 1.392 . S
C1116 C1119 1.511 . S
C1117 C1113 1.376 . S
C1117 C1116 1.392 . S
C1117 H1129 0.929 . S
C1118 C1114 1.531 . S
C1118 H1130 0.960 . S
C1118 H1131 0.962 . S
C1118 H1132 0.960 . S
C1119 C1116 1.511 . S
C1119 H1133 0.961 . S
C1119 H1134 0.961 . S
C1119 H1135 0.961 . S
C1120 C1121 1.370 . S
C1120 C1122 1.363 . S
C1120 H1136 0.931 . S
C1121 C1120 1.370 . S
C1121 C1125 1.408 . S
C1122 C1120 1.363 . S
C1122 C1123 1.370 . S
C1122 C1126 1.524 . S
C1123 C1115 1.503 . S
C1123 C1122 1.370 . S
C1123 C1124 1.403 . S
C1124 C1123 1.403 . S
C1124 C1125 1.404 . S
C1124 C1127 1.539 . S
C1125 C1121 1.408 . S
C1125 C1124 1.404 . S
C1125 H1137 0.930 . S
C1126 C1122 1.524 . S
C1126 H1138 0.956 . S
C1126 H1139 0.961 . S
C1126 H1140 0.961 . S
C1127 C1124 1.539 . S
C1127 H1141 0.958 . S
C1127 H1142 0.961 . S
C1127 H1143 0.960 . S
H1128 C1112 0.931 . S
H1129 C1117 0.929 . S
H1130 C1118 0.960 . S
H1131 C1118 0.962 . S
H1132 C1118 0.960 . S
H1133 C1119 0.961 . S
H1134 C1119 0.961 . S
H1135 C1119 0.961 . S
H1136 C1120 0.931 . S
H1137 C1125 0.930 . S
H1138 C1126 0.956 . S
H1139 C1126 0.961 . S
H1140 C1126 0.961 . S
H1141 C1127 0.958 . S
H1142 C1127 0.961 . S
H1143 C1127 0.960 . S
C1144 C1145 1.391 . S
C1144 C1146 1.394 . S
C1144 H1160 0.931 . S
C1145 C1144 1.391 . S
C1145 C1149 1.376 . S
C1146 C1144 1.394 . S
C1146 C1147 1.369 . S
C1146 C1150 1.531 . S
C1147 C1146 1.369 . S
C1147 C1148 1.410 . S
C1147 C1155 1.503 . S
C1148 C1147 1.410 . S
C1148 C1149 1.392 . S
C1148 C1151 1.511 . S
C1149 C1145 1.376 . S
C1149 C1148 1.392 . S
C1149 H1161 0.929 . S
C1150 C1146 1.531 . S
C1150 H1162 0.960 . S
C1150 H1163 0.962 . S
C1150 H1164 0.960 . S
C1151 C1148 1.511 . S
C1151 H1165 0.961 . S
C1151 H1166 0.961 . S
C1151 H1167 0.961 . S
C1152 C1153 1.370 . S
C1152 C1154 1.363 . S
C1152 H1168 0.931 . S
C1153 C1152 1.370 . S
C1153 C1157 1.408 . S
C1154 C1152 1.363 . S
C1154 C1155 1.370 . S
C1154 C1158 1.524 . S
C1155 C1147 1.503 . S
C1155 C1154 1.370 . S
C1155 C1156 1.403 . S
C1156 C1155 1.403 . S
C1156 C1157 1.404 . S
C1156 C1159 1.539 . S
C1157 C1153 1.408 . S
C1157 C1156 1.404 . S
C1157 H1169 0.930 . S
C1158 C1154 1.524 . S
C1158 H1170 0.956 . S
C1158 H1171 0.961 . S
C1158 H1172 0.961 . S
C1159 C1156 1.539 . S
C1159 H1173 0.958 . S
C1159 H1174 0.961 . S
C1159 H1175 0.960 . S
H1160 C1144 0.931 . S
H1161 C1149 0.929 . S
H1162 C1150 0.960 . S
H1163 C1150 0.962 . S
H1164 C1150 0.960 . S
H1165 C1151 0.961 . S
H1166 C1151 0.961 . S
H1167 C1151 0.961 . S
H1168 C1152 0.931 . S
H1169 C1157 0.930 . S
H1170 C1158 0.956 . S
H1171 C1158 0.961 . S
H1172 C1158 0.961 . S
H1173 C1159 0.958 . S
H1174 C1159 0.961 . S
H1175 C1159 0.960 . S
C1176 C1177 1.391 . S
C1176 C1178 1.394 . S
C1176 H1192 0.931 . S
C1177 C1176 1.391 . S
C1177 C1181 1.376 . S
C1178 C1176 1.394 . S
C1178 C1179 1.369 . S
C1178 C1182 1.531 . S
C1179 C1178 1.369 . S
C1179 C1180 1.410 . S
C1179 C1187 1.503 . S
C1180 C1179 1.410 . S
C1180 C1181 1.392 . S
C1180 C1183 1.511 . S
C1181 C1177 1.376 . S
C1181 C1180 1.392 . S
C1181 H1193 0.929 . S
C1182 C1178 1.531 . S
C1182 H1194 0.960 . S
C1182 H1195 0.962 . S
C1182 H1196 0.960 . S
C1183 C1180 1.511 . S
C1183 H1197 0.961 . S
C1183 H1198 0.961 . S
C1183 H1199 0.961 . S
C1184 C1185 1.370 . S
C1184 C1186 1.363 . S
C1184 H1200 0.931 . S
C1185 C1184 1.370 . S
C1185 C1189 1.408 . S
C1186 C1184 1.363 . S
C1186 C1187 1.370 . S
C1186 C1190 1.524 . S
C1187 C1179 1.503 . S
C1187 C1186 1.370 . S
C1187 C1188 1.403 . S
C1188 C1187 1.403 . S
C1188 C1189 1.404 . S
C1188 C1191 1.539 . S
C1189 C1185 1.408 . S
C1189 C1188 1.404 . S
C1189 H1201 0.930 . S
C1190 C1186 1.524 . S
C1190 H1202 0.956 . S
C1190 H1203 0.961 . S
C1190 H1204 0.961 . S
C1191 C1188 1.539 . S
C1191 H1205 0.958 . S
C1191 H1206 0.961 1_545 S
C1191 H1207 0.960 . S
H1192 C1176 0.931 . S
H1193 C1181 0.929 . S
H1194 C1182 0.960 . S
H1195 C1182 0.962 . S
H1196 C1182 0.960 . S
H1197 C1183 0.961 . S
H1198 C1183 0.961 . S
H1199 C1183 0.961 . S
H1200 C1184 0.931 . S
H1201 C1189 0.930 . S
H1202 C1190 0.956 . S
H1203 C1190 0.961 . S
H1204 C1190 0.961 . S
H1205 C1191 0.958 . S
H1206 C1191 0.961 1_565 S
H1207 C1191 0.960 . S
C1208 C1209 1.391 . S
C1208 C1210 1.394 . S
C1208 H1224 0.931 . S
C1209 C1208 1.391 . S
C1209 C1213 1.376 . S
C1210 C1208 1.394 . S
C1210 C1211 1.369 . S
C1210 C1214 1.531 . S
C1211 C1210 1.369 . S
C1211 C1212 1.410 . S
C1211 C1219 1.503 . S
C1212 C1211 1.410 . S
C1212 C1213 1.392 . S
C1212 C1215 1.511 . S
C1213 C1209 1.376 . S
C1213 C1212 1.392 . S
C1213 H1225 0.929 . S
C1214 C1210 1.531 . S
C1214 H1226 0.960 . S
C1214 H1227 0.962 . S
C1214 H1228 0.960 . S
C1215 C1212 1.511 . S
C1215 H1229 0.961 . S
C1215 H1230 0.961 . S
C1215 H1231 0.961 . S
C1216 C1217 1.370 . S
C1216 C1218 1.363 . S
C1216 H1232 0.931 . S
C1217 C1216 1.370 . S
C1217 C1221 1.408 . S
C1218 C1216 1.363 . S
C1218 C1219 1.370 . S
C1218 C1222 1.524 . S
C1219 C1211 1.503 . S
C1219 C1218 1.370 . S
C1219 C1220 1.403 . S
C1220 C1219 1.403 . S
C1220 C1221 1.404 . S
C1220 C1223 1.539 . S
C1221 C1217 1.408 . S
C1221 C1220 1.404 . S
C1221 H1233 0.930 . S
C1222 C1218 1.524 . S
C1222 H1234 0.956 . S
C1222 H1235 0.961 . S
C1222 H1236 0.961 . S
C1223 C1220 1.539 . S
C1223 H1237 0.958 . S
C1223 H1238 0.961 . S
C1223 H1239 0.960 . S
H1224 C1208 0.931 . S
H1225 C1213 0.929 . S
H1226 C1214 0.960 . S
H1227 C1214 0.962 . S
H1228 C1214 0.960 . S
H1229 C1215 0.961 . S
H1230 C1215 0.961 . S
H1231 C1215 0.961 . S
H1232 C1216 0.931 . S
H1233 C1221 0.930 . S
H1234 C1222 0.956 . S
H1235 C1222 0.961 . S
H1236 C1222 0.961 . S
H1237 C1223 0.958 . S
H1238 C1223 0.961 . S
H1239 C1223 0.960 . S
C1240 C1241 1.391 . S
C1240 C1242 1.394 . S
C1240 H1256 0.931 . S
C1241 C1240 1.391 . S
C1241 C1245 1.376 . S
C1242 C1240 1.394 . S
C1242 C1243 1.369 . S
C1242 C1246 1.531 . S
C1243 C1242 1.369 . S
C1243 C1244 1.410 . S
C1243 C1251 1.503 . S
C1244 C1243 1.410 . S
C1244 C1245 1.392 . S
C1244 C1247 1.511 . S
C1245 C1241 1.376 . S
C1245 C1244 1.392 . S
C1245 H1257 0.929 . S
C1246 C1242 1.531 . S
C1246 H1258 0.960 . S
C1246 H1259 0.962 . S
C1246 H1260 0.960 . S
C1247 C1244 1.511 . S
C1247 H1261 0.961 . S
C1247 H1262 0.961 . S
C1247 H1263 0.961 . S
C1248 C1249 1.370 . S
C1248 C1250 1.363 . S
C1248 H1264 0.931 . S
C1249 C1248 1.370 . S
C1249 C1253 1.408 . S
C1250 C1248 1.363 . S
C1250 C1251 1.370 . S
C1250 C1254 1.524 . S
C1251 C1243 1.503 . S
C1251 C1250 1.370 . S
C1251 C1252 1.403 . S
C1252 C1251 1.403 . S
C1252 C1253 1.404 . S
C1252 C1255 1.539 . S
C1253 C1249 1.408 . S
C1253 C1252 1.404 . S
C1253 H1265 0.930 . S
C1254 C1250 1.524 . S
C1254 H1266 0.956 . S
C1254 H1267 0.961 . S
C1254 H1268 0.961 . S
C1255 C1252 1.539 . S
C1255 H1269 0.958 . S
C1255 H1270 0.961 . S
C1255 H1271 0.960 . S
H1256 C1240 0.931 . S
H1257 C1245 0.929 . S
H1258 C1246 0.960 . S
H1259 C1246 0.962 . S
H1260 C1246 0.960 . S
H1261 C1247 0.961 . S
H1262 C1247 0.961 . S
H1263 C1247 0.961 . S
H1264 C1248 0.931 . S
H1265 C1253 0.930 . S
H1266 C1254 0.956 . S
H1267 C1254 0.961 . S
H1268 C1254 0.961 . S
H1269 C1255 0.958 . S
H1270 C1255 0.961 . S
H1271 C1255 0.960 . S
C1272 C1273 1.391 . S
C1272 C1274 1.394 . S
C1272 H1288 0.931 . S
C1273 C1272 1.391 . S
C1273 C1277 1.376 . S
C1274 C1272 1.394 . S
C1274 C1275 1.369 . S
C1274 C1278 1.531 . S
C1275 C1274 1.369 . S
C1275 C1276 1.410 . S
C1275 C1283 1.503 . S
C1276 C1275 1.410 . S
C1276 C1277 1.392 . S
C1276 C1279 1.511 . S
C1277 C1273 1.376 . S
C1277 C1276 1.392 . S
C1277 H1289 0.929 . S
C1278 C1274 1.531 . S
C1278 H1290 0.960 . S
C1278 H1291 0.962 . S
C1278 H1292 0.960 . S
C1279 C1276 1.511 . S
C1279 H1293 0.961 . S
C1279 H1294 0.961 . S
C1279 H1295 0.961 . S
C1280 C1281 1.370 . S
C1280 C1282 1.363 . S
C1280 H1296 0.931 . S
C1281 C1280 1.370 . S
C1281 C1285 1.408 . S
C1282 C1280 1.363 . S
C1282 C1283 1.370 . S
C1282 C1286 1.524 . S
C1283 C1275 1.503 . S
C1283 C1282 1.370 . S
C1283 C1284 1.403 . S
C1284 C1283 1.403 . S
C1284 C1285 1.404 . S
C1284 C1287 1.539 . S
C1285 C1281 1.408 . S
C1285 C1284 1.404 . S
C1285 H1297 0.930 . S
C1286 C1282 1.524 . S
C1286 H1298 0.956 . S
C1286 H1299 0.961 . S
C1286 H1300 0.961 . S
C1287 C1284 1.539 . S
C1287 H1301 0.958 . S
C1287 H1302 0.961 . S
C1287 H1303 0.960 . S
H1288 C1272 0.931 . S
H1289 C1277 0.929 . S
H1290 C1278 0.960 . S
H1291 C1278 0.962 . S
H1292 C1278 0.960 . S
H1293 C1279 0.961 . S
H1294 C1279 0.961 . S
H1295 C1279 0.961 . S
H1296 C1280 0.931 . S
H1297 C1285 0.930 . S
H1298 C1286 0.956 . S
H1299 C1286 0.961 . S
H1300 C1286 0.961 . S
H1301 C1287 0.958 . S
H1302 C1287 0.961 . S
H1303 C1287 0.960 . S
C1304 C1305 1.391 . S
C1304 C1306 1.394 . S
C1304 H1320 0.931 . S
C1305 C1304 1.391 . S
C1305 C1309 1.376 . S
C1306 C1304 1.394 . S
C1306 C1307 1.369 . S
C1306 C1310 1.531 . S
C1307 C1306 1.369 . S
C1307 C1308 1.410 . S
C1307 C1315 1.503 . S
C1308 C1307 1.410 . S
C1308 C1309 1.392 . S
C1308 C1311 1.511 . S
C1309 C1305 1.376 . S
C1309 C1308 1.392 . S
C1309 H1321 0.929 . S
C1310 C1306 1.531 . S
C1310 H1322 0.960 . S
C1310 H1323 0.962 . S
C1310 H1324 0.960 . S
C1311 C1308 1.511 . S
C1311 H1325 0.961 . S
C1311 H1326 0.961 1_455 S
C1311 H1327 0.961 1_455 S
C1312 C1313 1.370 . S
C1312 C1314 1.363 . S
C1312 H1328 0.931 . S
C1313 C1312 1.370 . S
C1313 C1317 1.408 . S
C1314 C1312 1.363 . S
C1314 C1315 1.370 1_655 S
C1314 C1318 1.524 1_655 S
C1315 C1307 1.503 . S
C1315 C1314 1.370 1_455 S
C1315 C1316 1.403 1_455 S
C1316 C1315 1.403 1_655 S
C1316 C1317 1.404 . S
C1316 C1319 1.539 1_655 S
C1317 C1313 1.408 . S
C1317 C1316 1.404 . S
C1317 H1329 0.930 . S
C1318 C1314 1.524 1_455 S
C1318 H1330 0.956 . S
C1318 H1331 0.961 . S
C1318 H1332 0.961 1_455 S
C1319 C1316 1.539 1_455 S
C1319 H1333 0.958 . S
C1319 H1334 0.961 1_455 S
C1319 H1335 0.960 . S
H1320 C1304 0.931 . S
H1321 C1309 0.929 . S
H1322 C1310 0.960 . S
H1323 C1310 0.962 . S
H1324 C1310 0.960 . S
H1325 C1311 0.961 . S
H1326 C1311 0.961 1_655 S
H1327 C1311 0.961 1_655 S
H1328 C1312 0.931 . S
H1329 C1317 0.930 . S
H1330 C1318 0.956 . S
H1331 C1318 0.961 . S
H1332 C1318 0.961 1_655 S
H1333 C1319 0.958 . S
H1334 C1319 0.961 1_655 S
H1335 C1319 0.960 . S
C1336 C1337 1.391 . S
C1336 C1338 1.394 . S
C1336 H1352 0.931 . S
C1337 C1336 1.391 . S
C1337 C1341 1.376 . S
C1338 C1336 1.394 . S
C1338 C1339 1.369 . S
C1338 C1342 1.531 . S
C1339 C1338 1.369 . S
C1339 C1340 1.410 . S
C1339 C1347 1.503 . S
C1340 C1339 1.410 . S
C1340 C1341 1.392 . S
C1340 C1343 1.511 . S
C1341 C1337 1.376 . S
C1341 C1340 1.392 . S
C1341 H1353 0.929 . S
C1342 C1338 1.531 . S
C1342 H1354 0.960 . S
C1342 H1355 0.962 . S
C1342 H1356 0.960 . S
C1343 C1340 1.511 . S
C1343 H1357 0.961 . S
C1343 H1358 0.961 . S
C1343 H1359 0.961 . S
C1344 C1345 1.370 . S
C1344 C1346 1.363 . S
C1344 H1360 0.931 . S
C1345 C1344 1.370 . S
C1345 C1349 1.408 . S
C1346 C1344 1.363 . S
C1346 C1347 1.370 . S
C1346 C1350 1.524 . S
C1347 C1339 1.503 . S
C1347 C1346 1.370 . S
C1347 C1348 1.403 . S
C1348 C1347 1.403 . S
C1348 C1349 1.404 . S
C1348 C1351 1.539 . S
C1349 C1345 1.408 . S
C1349 C1348 1.404 . S
C1349 H1361 0.930 . S
C1350 C1346 1.524 . S
C1350 H1362 0.956 . S
C1350 H1363 0.961 . S
C1350 H1364 0.961 . S
C1351 C1348 1.539 . S
C1351 H1365 0.958 . S
C1351 H1366 0.961 . S
C1351 H1367 0.960 . S
H1352 C1336 0.931 . S
H1353 C1341 0.929 . S
H1354 C1342 0.960 . S
H1355 C1342 0.962 . S
H1356 C1342 0.960 . S
H1357 C1343 0.961 . S
H1358 C1343 0.961 . S
H1359 C1343 0.961 . S
H1360 C1344 0.931 . S
H1361 C1349 0.930 . S
H1362 C1350 0.956 . S
H1363 C1350 0.961 . S
H1364 C1350 0.961 . S
H1365 C1351 0.958 . S
H1366 C1351 0.961 . S
H1367 C1351 0.960 . S
C1368 C1369 1.391 . S
C1368 C1370 1.394 . S
C1368 H1384 0.931 . S
C1369 C1368 1.391 . S
C1369 C1373 1.376 . S
C1370 C1368 1.394 . S
C1370 C1371 1.369 . S
C1370 C1374 1.531 . S
C1371 C1370 1.369 . S
C1371 C1372 1.410 . S
C1371 C1379 1.504 . S
C1372 C1371 1.410 . S
C1372 C1373 1.392 . S
C1372 C1375 1.511 1_655 S
C1373 C1369 1.376 . S
C1373 C1372 1.392 . S
C1373 H1385 0.929 . S
C1374 C1370 1.531 . S
C1374 H1386 0.960 . S
C1374 H1387 0.962 . S
C1374 H1388 0.960 . S
C1375 C1372 1.511 1_455 S
C1375 H1389 0.961 . S
C1375 H1390 0.961 . S
C1375 H1391 0.961 . S
C1376 C1377 1.370 . S
C1376 C1378 1.363 . S
C1376 H1392 0.931 . S
C1377 C1376 1.370 . S
C1377 C1381 1.408 . S
C1378 C1376 1.363 . S
C1378 C1379 1.370 1_455 S
C1378 C1382 1.524 . S
C1379 C1371 1.504 . S
C1379 C1378 1.370 1_655 S
C1379 C1380 1.402 1_655 S
C1380 C1379 1.402 1_455 S
C1380 C1381 1.404 . S
C1380 C1383 1.539 1_455 S
C1381 C1377 1.408 . S
C1381 C1380 1.404 . S
C1381 H1393 0.930 . S
C1382 C1378 1.524 . S
C1382 H1394 0.956 1_455 S
C1382 H1395 0.961 . S
C1382 H1396 0.961 . S
C1383 C1380 1.539 1_655 S
C1383 H1397 0.958 . S
C1383 H1398 0.961 . S
C1383 H1399 0.960 . S
H1384 C1368 0.931 . S
H1385 C1373 0.929 . S
H1386 C1374 0.960 . S
H1387 C1374 0.962 . S
H1388 C1374 0.960 . S
H1389 C1375 0.961 . S
H1390 C1375 0.961 . S
H1391 C1375 0.961 . S
H1392 C1376 0.931 . S
H1393 C1381 0.930 . S
H1394 C1382 0.956 1_655 S
H1395 C1382 0.961 . S
H1396 C1382 0.961 . S
H1397 C1383 0.958 . S
H1398 C1383 0.961 . S
H1399 C1383 0.960 . S
C1400 C1401 1.391 . S
C1400 C1402 1.394 . S
C1400 H1416 0.931 . S
C1401 C1400 1.391 . S
C1401 C1405 1.376 . S
C1402 C1400 1.394 . S
C1402 C1403 1.369 . S
C1402 C1406 1.531 . S
C1403 C1402 1.369 . S
C1403 C1404 1.410 . S
C1403 C1411 1.503 . S
C1404 C1403 1.410 . S
C1404 C1405 1.392 . S
C1404 C1407 1.511 . S
C1405 C1401 1.376 . S
C1405 C1404 1.392 . S
C1405 H1417 0.929 . S
C1406 C1402 1.531 . S
C1406 H1418 0.960 . S
C1406 H1419 0.962 . S
C1406 H1420 0.960 . S
C1407 C1404 1.511 . S
C1407 H1421 0.961 . S
C1407 H1422 0.961 . S
C1407 H1423 0.961 . S
C1408 C1409 1.370 . S
C1408 C1410 1.363 . S
C1408 H1424 0.931 . S
C1409 C1408 1.370 . S
C1409 C1413 1.408 . S
C1410 C1408 1.363 . S
C1410 C1411 1.370 . S
C1410 C1414 1.524 . S
C1411 C1403 1.503 . S
C1411 C1410 1.370 . S
C1411 C1412 1.403 . S
C1412 C1411 1.403 . S
C1412 C1413 1.404 . S
C1412 C1415 1.539 . S
C1413 C1409 1.408 . S
C1413 C1412 1.404 . S
C1413 H1425 0.930 . S
C1414 C1410 1.524 . S
C1414 H1426 0.956 . S
C1414 H1427 0.961 . S
C1414 H1428 0.961 . S
C1415 C1412 1.539 . S
C1415 H1429 0.958 . S
C1415 H1430 0.961 . S
C1415 H1431 0.960 . S
H1416 C1400 0.931 . S
H1417 C1405 0.929 . S
H1418 C1406 0.960 . S
H1419 C1406 0.962 . S
H1420 C1406 0.960 . S
H1421 C1407 0.961 . S
H1422 C1407 0.961 . S
H1423 C1407 0.961 . S
H1424 C1408 0.931 . S
H1425 C1413 0.930 . S
H1426 C1414 0.956 . S
H1427 C1414 0.961 . S
H1428 C1414 0.961 . S
H1429 C1415 0.958 . S
H1430 C1415 0.961 . S
H1431 C1415 0.960 . S
C1432 C1433 1.391 . S
C1432 C1434 1.394 . S
C1432 H1448 0.931 . S
C1433 C1432 1.391 . S
C1433 C1437 1.376 . S
C1434 C1432 1.394 . S
C1434 C1435 1.369 . S
C1434 C1438 1.523 1_554 S
C1435 C1434 1.369 . S
C1435 C1436 1.410 . S
C1435 C1443 1.503 1_554 S
C1436 C1435 1.410 . S
C1436 C1437 1.392 . S
C1436 C1439 1.511 . S
C1437 C1433 1.376 . S
C1437 C1436 1.392 . S
C1437 H1449 0.929 . S
C1438 C1434 1.523 1_556 S
C1438 H1450 0.966 . S
C1438 H1451 0.977 . S
C1438 H1452 0.946 1_556 S
C1439 C1436 1.511 . S
C1439 H1453 0.961 . S
C1439 H1454 0.961 1_554 S
C1439 H1455 0.961 . S
C1440 C1441 1.370 . S
C1440 C1442 1.363 . S
C1440 H1456 0.931 . S
C1441 C1440 1.370 . S
C1441 C1445 1.408 . S
C1442 C1440 1.363 . S
C1442 C1443 1.370 . S
C1442 C1446 1.524 . S
C1443 C1435 1.503 1_556 S
C1443 C1442 1.370 . S
C1443 C1444 1.403 . S
C1444 C1443 1.403 . S
C1444 C1445 1.404 . S
C1444 C1447 1.539 1_556 S
C1445 C1441 1.408 . S
C1445 C1444 1.404 . S
C1445 H1457 0.930 . S
C1446 C1442 1.524 . S
C1446 H1458 0.956 . S
C1446 H1459 0.961 . S
C1446 H1460 0.961 . S
C1447 C1444 1.539 1_554 S
C1447 H1461 0.958 . S
C1447 H1462 0.961 . S
C1447 H1463 0.960 . S
H1448 C1432 0.931 . S
H1449 C1437 0.929 . S
H1450 C1438 0.966 . S
H1451 C1438 0.977 . S
H1452 C1438 0.946 1_554 S
H1453 C1439 0.961 . S
H1454 C1439 0.961 1_556 S
H1455 C1439 0.961 . S
H1456 C1440 0.931 . S
H1457 C1445 0.930 . S
H1458 C1446 0.956 . S
H1459 C1446 0.961 . S
H1460 C1446 0.961 . S
H1461 C1447 0.958 . S
H1462 C1447 0.961 . S
H1463 C1447 0.960 . S
C1464 C1465 1.391 . S
C1464 C1466 1.394 . S
C1464 H1480 0.931 . S
C1465 C1464 1.391 . S
C1465 C1469 1.376 . S
C1466 C1464 1.394 . S
C1466 C1467 1.369 . S
C1466 C1470 1.531 . S
C1467 C1466 1.369 . S
C1467 C1468 1.410 . S
C1467 C1475 1.503 . S
C1468 C1467 1.410 . S
C1468 C1469 1.392 . S
C1468 C1471 1.511 . S
C1469 C1465 1.376 . S
C1469 C1468 1.392 . S
C1469 H1481 0.929 . S
C1470 C1466 1.531 . S
C1470 H1482 0.960 . S
C1470 H1483 0.962 . S
C1470 H1484 0.960 . S
C1471 C1468 1.511 . S
C1471 H1485 0.961 . S
C1471 H1486 0.961 . S
C1471 H1487 0.961 . S
C1472 C1473 1.370 . S
C1472 C1474 1.363 . S
C1472 H1488 0.931 . S
C1473 C1472 1.370 . S
C1473 C1477 1.408 . S
C1474 C1472 1.363 . S
C1474 C1475 1.370 . S
C1474 C1478 1.524 . S
C1475 C1467 1.503 . S
C1475 C1474 1.370 . S
C1475 C1476 1.403 . S
C1476 C1475 1.403 . S
C1476 C1477 1.404 . S
C1476 C1479 1.539 . S
C1477 C1473 1.408 . S
C1477 C1476 1.404 . S
C1477 H1489 0.930 . S
C1478 C1474 1.524 . S
C1478 H1490 0.956 . S
C1478 H1491 0.961 . S
C1478 H1492 0.961 . S
C1479 C1476 1.539 . S
C1479 H1493 0.958 . S
C1479 H1494 0.961 . S
C1479 H1495 0.960 . S
H1480 C1464 0.931 . S
H1481 C1469 0.929 . S
H1482 C1470 0.960 . S
H1483 C1470 0.962 . S
H1484 C1470 0.960 . S
H1485 C1471 0.961 . S
H1486 C1471 0.961 . S
H1487 C1471 0.961 . S
H1488 C1472 0.931 . S
H1489 C1477 0.930 . S
H1490 C1478 0.956 . S
H1491 C1478 0.961 . S
H1492 C1478 0.961 . S
H1493 C1479 0.958 . S
H1494 C1479 0.961 . S
H1495 C1479 0.960 . S
C1496 C1497 1.391 . S
C1496 C1498 1.394 . S
C1496 H1512 0.931 . S
C1497 C1496 1.391 . S
C1497 C1501 1.376 . S
C1498 C1496 1.394 . S
C1498 C1499 1.369 . S
C1498 C1502 1.531 1_554 S
C1499 C1498 1.369 . S
C1499 C1500 1.410 . S
C1499 C1507 1.503 . S
C1500 C1499 1.410 . S
C1500 C1501 1.392 . S
C1500 C1503 1.511 . S
C1501 C1497 1.376 . S
C1501 C1500 1.392 . S
C1501 H1513 0.929 . S
C1502 C1498 1.531 1_556 S
C1502 H1514 0.960 . S
C1502 H1515 0.962 . S
C1502 H1516 0.960 . S
C1503 C1500 1.511 . S
C1503 H1517 0.961 . S
C1503 H1518 0.961 . S
C1503 H1519 0.961 . S
C1504 C1505 1.370 . S
C1504 C1506 1.363 . S
C1504 H1520 0.931 . S
C1505 C1504 1.370 . S
C1505 C1509 1.408 . S
C1506 C1504 1.363 . S
C1506 C1507 1.370 1_556 S
C1506 C1510 1.524 1_556 S
C1507 C1499 1.503 . S
C1507 C1506 1.370 1_554 S
C1507 C1508 1.403 1_554 S
C1508 C1507 1.403 1_556 S
C1508 C1509 1.404 . S
C1508 C1511 1.539 1_556 S
C1509 C1505 1.408 . S
C1509 C1508 1.404 . S
C1509 H1521 0.930 . S
C1510 C1506 1.524 1_554 S
C1510 H1522 0.956 . S
C1510 H1523 0.961 . S
C1510 H1524 0.961 1_554 S
C1511 C1508 1.539 1_554 S
C1511 H1525 0.958 1_554 S
C1511 H1526 0.958 1_454 S
C1511 H1527 0.960 . S
H1512 C1496 0.931 . S
H1513 C1501 0.929 . S
H1514 C1502 0.960 . S
H1515 C1502 0.962 . S
H1516 C1502 0.960 . S
H1517 C1503 0.961 . S
H1518 C1503 0.961 . S
H1519 C1503 0.961 . S
H1520 C1504 0.931 . S
H1521 C1509 0.930 . S
H1522 C1510 0.956 . S
H1523 C1510 0.961 . S
H1524 C1510 0.961 1_556 S
H1525 C1511 0.958 1_556 S
H1526 C1511 0.958 1_656 S
H1527 C1511 0.960 . S
C1528 C1529 1.391 . S
C1528 C1530 1.394 . S
C1528 H1544 0.931 . S
C1529 C1528 1.391 . S
C1529 C1533 1.376 . S
C1530 C1528 1.394 . S
C1530 C1531 1.369 . S
C1530 C1534 1.531 . S
C1531 C1530 1.369 . S
C1531 C1532 1.410 . S
C1531 C1539 1.503 . S
C1532 C1531 1.410 . S
C1532 C1533 1.392 . S
C1532 C1535 1.511 . S
C1533 C1529 1.376 . S
C1533 C1532 1.392 . S
C1533 H1545 0.929 . S
C1534 C1530 1.531 . S
C1534 H1546 0.960 . S
C1534 H1547 0.962 . S
C1534 H1548 0.960 . S
C1535 C1532 1.511 . S
C1535 H1549 0.961 . S
C1535 H1550 0.961 . S
C1535 H1551 0.961 . S
C1536 C1537 1.370 . S
C1536 C1538 1.363 . S
C1536 H1552 0.931 . S
C1537 C1536 1.370 . S
C1537 C1541 1.408 . S
C1538 C1536 1.363 . S
C1538 C1539 1.370 . S
C1538 C1542 1.524 . S
C1539 C1531 1.503 . S
C1539 C1538 1.370 . S
C1539 C1540 1.403 . S
C1540 C1539 1.403 . S
C1540 C1541 1.404 . S
C1540 C1543 1.539 . S
C1541 C1537 1.408 . S
C1541 C1540 1.404 . S
C1541 H1553 0.930 . S
C1542 C1538 1.524 . S
C1542 H1554 0.956 . S
C1542 H1555 0.961 . S
C1542 H1556 0.961 . S
C1543 C1540 1.539 . S
C1543 H1557 0.958 . S
C1543 H1558 0.961 . S
C1543 H1559 0.960 . S
H1544 C1528 0.931 . S
H1545 C1533 0.929 . S
H1546 C1534 0.960 . S
H1547 C1534 0.962 . S
H1548 C1534 0.960 . S
H1549 C1535 0.961 . S
H1550 C1535 0.961 . S
H1551 C1535 0.961 . S
H1552 C1536 0.931 . S
H1553 C1541 0.930 . S
H1554 C1542 0.956 . S
H1555 C1542 0.961 . S
H1556 C1542 0.961 . S
H1557 C1543 0.958 . S
H1558 C1543 0.961 . S
H1559 C1543 0.960 . S
C1560 C1561 1.391 . S
C1560 C1562 1.394 . S
C1560 H1576 0.931 . S
C1561 C1560 1.391 . S
C1561 C1565 1.376 . S
C1562 C1560 1.394 . S
C1562 C1563 1.369 . S
C1562 C1566 1.531 1_556 S
C1563 C1562 1.369 . S
C1563 C1564 1.410 . S
C1563 C1571 1.503 1_556 S
C1564 C1563 1.410 . S
C1564 C1565 1.392 . S
C1564 C1567 1.511 . S
C1565 C1561 1.376 . S
C1565 C1564 1.392 . S
C1565 H1577 0.929 . S
C1566 C1562 1.531 1_554 S
C1566 H1578 0.960 . S
C1566 H1579 0.962 . S
C1566 H1580 0.960 . S
C1567 C1564 1.511 . S
C1567 H1581 0.961 . S
C1567 H1582 0.961 . S
C1567 H1583 0.961 . S
C1568 C1569 1.370 . S
C1568 C1570 1.363 . S
C1568 H1584 0.931 . S
C1569 C1568 1.370 . S
C1569 C1573 1.408 . S
C1570 C1568 1.363 . S
C1570 C1571 1.370 . S
C1570 C1574 1.524 1_554 S
C1571 C1563 1.503 1_554 S
C1571 C1570 1.370 . S
C1571 C1572 1.403 . S
C1572 C1571 1.403 . S
C1572 C1573 1.404 . S
C1572 C1575 1.539 . S
C1573 C1569 1.408 . S
C1573 C1572 1.404 . S
C1573 H1585 0.930 . S
C1574 C1570 1.524 1_556 S
C1574 H1586 0.956 . S
C1574 H1587 0.961 . S
C1574 H1588 0.961 . S
C1575 C1572 1.539 . S
C1575 H1589 0.958 . S
C1575 H1590 0.961 . S
C1575 H1591 0.960 . S
H1576 C1560 0.931 . S
H1577 C1565 0.929 . S
H1578 C1566 0.960 . S
H1579 C1566 0.962 . S
H1580 C1566 0.960 . S
H1581 C1567 0.961 . S
H1582 C1567 0.961 . S
H1583 C1567 0.961 . S
H1584 C1568 0.931 . S
H1585 C1573 0.930 . S
H1586 C1574 0.956 . S
H1587 C1574 0.961 . S
H1588 C1574 0.961 . S
H1589 C1575 0.958 . S
H1590 C1575 0.961 . S
H1591 C1575 0.960 . S
C1592 C1593 1.391 . S
C1592 C1594 1.394 . S
C1592 H1608 0.931 . S
C1593 C1592 1.391 . S
C1593 C1597 1.376 . S
C1594 C1592 1.394 . S
C1594 C1595 1.369 . S
C1594 C1598 1.531 . S
C1595 C1594 1.369 . S
C1595 C1596 1.410 . S
C1595 C1603 1.503 . S
C1596 C1595 1.410 . S
C1596 C1597 1.392 . S
C1596 C1599 1.511 . S
C1597 C1593 1.376 . S
C1597 C1596 1.392 . S
C1597 H1609 0.929 . S
C1598 C1594 1.531 . S
C1598 H1610 0.960 . S
C1598 H1611 0.962 . S
C1598 H1612 0.960 . S
C1599 C1596 1.511 . S
C1599 H1613 0.961 . S
C1599 H1614 0.961 . S
C1599 H1615 0.961 . S
C1600 C1601 1.370 . S
C1600 C1602 1.363 . S
C1600 H1616 0.931 . S
C1601 C1600 1.370 . S
C1601 C1605 1.408 . S
C1602 C1600 1.363 . S
C1602 C1603 1.370 . S
C1602 C1606 1.524 . S
C1603 C1595 1.503 . S
C1603 C1602 1.370 . S
C1603 C1604 1.403 . S
C1604 C1603 1.403 . S
C1604 C1605 1.404 . S
C1604 C1607 1.539 . S
C1605 C1601 1.408 . S
C1605 C1604 1.404 . S
C1605 H1617 0.930 . S
C1606 C1602 1.524 . S
C1606 H1618 0.956 . S
C1606 H1619 0.961 . S
C1606 H1620 0.961 . S
C1607 C1604 1.539 . S
C1607 H1621 0.958 . S
C1607 H1622 0.961 . S
C1607 H1623 0.960 . S
H1608 C1592 0.931 . S
H1609 C1597 0.929 . S
H1610 C1598 0.960 . S
H1611 C1598 0.962 . S
H1612 C1598 0.960 . S
H1613 C1599 0.961 . S
H1614 C1599 0.961 . S
H1615 C1599 0.961 . S
H1616 C1600 0.931 . S
H1617 C1605 0.930 . S
H1618 C1606 0.956 . S
H1619 C1606 0.961 . S
H1620 C1606 0.961 . S
H1621 C1607 0.958 . S
H1622 C1607 0.961 . S
H1623 C1607 0.960 . S
C1624 C1625 1.391 1_554 S
C1624 C1626 1.394 . S
C1624 H1640 0.931 . S
C1625 C1624 1.391 1_556 S
C1625 C1629 1.376 . S
C1626 C1624 1.394 . S
C1626 C1627 1.369 . S
C1626 C1630 1.531 . S
C1627 C1626 1.369 . S
C1627 C1628 1.410 . S
C1627 C1635 1.503 . S
C1628 C1627 1.410 . S
C1628 C1629 1.392 1_554 S
C1628 C1631 1.511 . S
C1629 C1625 1.376 . S
C1629 C1628 1.392 1_556 S
C1629 H1641 0.929 . S
C1630 C1626 1.531 . S
C1630 H1642 0.960 . S
C1630 H1643 0.962 . S
C1630 H1644 0.960 . S
C1631 C1628 1.511 . S
C1631 H1645 0.961 1_554 S
C1631 H1646 0.961 . S
C1631 H1647 0.961 . S
C1632 C1633 1.370 . S
C1632 C1634 1.363 . S
C1632 H1648 0.931 . S
C1633 C1632 1.370 . S
C1633 C1637 1.408 . S
C1634 C1632 1.363 . S
C1634 C1635 1.370 . S
C1634 C1638 1.524 . S
C1635 C1627 1.503 . S
C1635 C1634 1.370 . S
C1635 C1636 1.403 . S
C1636 C1635 1.403 . S
C1636 C1637 1.404 . S
C1636 C1639 1.539 . S
C1637 C1633 1.408 . S
C1637 C1636 1.404 . S
C1637 H1649 0.930 . S
C1638 C1634 1.524 . S
C1638 H1650 0.956 . S
C1638 H1651 0.961 . S
C1638 H1652 0.961 . S
C1639 C1636 1.539 . S
C1639 H1653 0.958 . S
C1639 H1654 0.961 . S
C1639 H1655 0.960 . S
H1640 C1624 0.931 . S
H1641 C1629 0.929 . S
H1642 C1630 0.960 . S
H1643 C1630 0.962 . S
H1644 C1630 0.960 . S
H1645 C1631 0.961 1_556 S
H1646 C1631 0.961 . S
H1647 C1631 0.961 . S
H1648 C1632 0.931 . S
H1649 C1637 0.930 . S
H1650 C1638 0.956 . S
H1651 C1638 0.961 . S
H1652 C1638 0.961 . S
H1653 C1639 0.958 . S
H1654 C1639 0.961 . S
H1655 C1639 0.960 . S
C1656 C1657 1.391 . S
C1656 C1658 1.394 . S
C1656 H1672 0.931 . S
C1657 C1656 1.391 . S
C1657 C1661 1.376 . S
C1658 C1656 1.394 . S
C1658 C1659 1.369 . S
C1658 C1662 1.531 . S
C1659 C1658 1.369 . S
C1659 C1660 1.410 . S
C1659 C1667 1.503 . S
C1660 C1659 1.410 . S
C1660 C1661 1.392 . S
C1660 C1663 1.511 . S
C1661 C1657 1.376 . S
C1661 C1660 1.392 . S
C1661 H1673 0.929 . S
C1662 C1658 1.531 . S
C1662 H1674 0.960 . S
C1662 H1675 0.962 . S
C1662 H1676 0.960 . S
C1663 C1660 1.511 . S
C1663 H1677 0.961 . S
C1663 H1678 0.961 . S
C1663 H1679 0.961 . S
C1664 C1665 1.370 . S
C1664 C1666 1.363 . S
C1664 H1680 0.931 . S
C1665 C1664 1.370 . S
C1665 C1669 1.408 . S
C1666 C1664 1.363 . S
C1666 C1667 1.370 . S
C1666 C1670 1.524 . S
C1667 C1659 1.503 . S
C1667 C1666 1.370 . S
C1667 C1668 1.403 . S
C1668 C1667 1.403 . S
C1668 C1669 1.404 . S
C1668 C1671 1.539 . S
C1669 C1665 1.408 . S
C1669 C1668 1.404 . S
C1669 H1681 0.930 . S
C1670 C1666 1.524 . S
C1670 H1682 0.956 . S
C1670 H1683 0.961 . S
C1670 H1684 0.961 . S
C1671 C1668 1.539 . S
C1671 H1685 0.958 . S
C1671 H1686 0.961 . S
C1671 H1687 0.960 . S
H1672 C1656 0.931 . S
H1673 C1661 0.929 . S
H1674 C1662 0.960 . S
H1675 C1662 0.962 . S
H1676 C1662 0.960 . S
H1677 C1663 0.961 . S
H1678 C1663 0.961 . S
H1679 C1663 0.961 . S
H1680 C1664 0.931 . S
H1681 C1669 0.930 . S
H1682 C1670 0.956 . S
H1683 C1670 0.961 . S
H1684 C1670 0.961 . S
H1685 C1671 0.958 . S
H1686 C1671 0.961 . S
H1687 C1671 0.960 . S
C1688 C1689 1.391 . S
C1688 C1690 1.394 . S
C1688 H1704 0.931 . S
C1689 C1688 1.391 . S
C1689 C1693 1.376 . S
C1690 C1688 1.394 . S
C1690 C1691 1.369 . S
C1690 C1694 1.531 . S
C1691 C1690 1.369 . S
C1691 C1692 1.410 . S
C1691 C1699 1.503 . S
C1692 C1691 1.410 . S
C1692 C1693 1.392 . S
C1692 C1695 1.511 . S
C1693 C1689 1.376 . S
C1693 C1692 1.392 . S
C1693 H1705 0.929 . S
C1694 C1690 1.531 . S
C1694 H1706 0.960 . S
C1694 H1707 0.962 . S
C1694 H1708 0.960 . S
C1695 C1692 1.511 . S
C1695 H1709 0.961 . S
C1695 H1710 0.961 . S
C1695 H1711 0.961 . S
C1696 C1697 1.370 . S
C1696 C1698 1.363 . S
C1696 H1712 0.931 . S
C1697 C1696 1.370 . S
C1697 C1701 1.408 . S
C1698 C1696 1.363 . S
C1698 C1699 1.370 . S
C1698 C1702 1.524 . S
C1699 C1691 1.503 . S
C1699 C1698 1.370 . S
C1699 C1700 1.403 . S
C1700 C1699 1.403 . S
C1700 C1701 1.404 . S
C1700 C1703 1.539 . S
C1701 C1697 1.408 . S
C1701 C1700 1.404 . S
C1701 H1713 0.930 . S
C1702 C1698 1.524 . S
C1702 H1714 0.956 . S
C1702 H1715 0.961 . S
C1702 H1716 0.961 . S
C1703 C1700 1.539 . S
C1703 H1717 0.958 . S
C1703 H1718 0.961 . S
C1703 H1719 0.960 . S
H1704 C1688 0.931 . S
H1705 C1693 0.929 . S
H1706 C1694 0.960 . S
H1707 C1694 0.962 . S
H1708 C1694 0.960 . S
H1709 C1695 0.961 . S
H1710 C1695 0.961 . S
H1711 C1695 0.961 . S
H1712 C1696 0.931 . S
H1713 C1701 0.930 . S
H1714 C1702 0.956 . S
H1715 C1702 0.961 . S
H1716 C1702 0.961 . S
H1717 C1703 0.958 . S
H1718 C1703 0.961 . S
H1719 C1703 0.960 . S
C1720 C1721 1.391 . S
C1720 C1722 1.394 . S
C1720 H1736 0.931 . S
C1721 C1720 1.391 . S
C1721 C1725 1.376 . S
C1722 C1720 1.394 . S
C1722 C1723 1.369 . S
C1722 C1726 1.531 . S
C1723 C1722 1.369 . S
C1723 C1724 1.410 . S
C1723 C1731 1.503 . S
C1724 C1723 1.410 . S
C1724 C1725 1.392 . S
C1724 C1727 1.511 . S
C1725 C1721 1.376 . S
C1725 C1724 1.392 . S
C1725 H1737 0.929 . S
C1726 C1722 1.531 . S
C1726 H1738 0.960 . S
C1726 H1739 0.962 . S
C1726 H1740 0.960 . S
C1727 C1724 1.511 . S
C1727 H1741 0.961 . S
C1727 H1742 0.961 . S
C1727 H1743 0.961 . S
C1728 C1729 1.370 . S
C1728 C1730 1.363 . S
C1728 H1744 0.931 . S
C1729 C1728 1.370 . S
C1729 C1733 1.408 . S
C1730 C1728 1.363 . S
C1730 C1731 1.370 . S
C1730 C1734 1.524 . S
C1731 C1723 1.503 . S
C1731 C1730 1.370 . S
C1731 C1732 1.403 . S
C1732 C1731 1.403 . S
C1732 C1733 1.404 . S
C1732 C1735 1.539 . S
C1733 C1729 1.408 . S
C1733 C1732 1.404 . S
C1733 H1745 0.930 . S
C1734 C1730 1.524 . S
C1734 H1746 0.956 . S
C1734 H1747 0.961 . S
C1734 H1748 0.961 . S
C1735 C1732 1.539 . S
C1735 H1749 0.958 . S
C1735 H1750 0.961 . S
C1735 H1751 0.960 . S
H1736 C1720 0.931 . S
H1737 C1725 0.929 . S
H1738 C1726 0.960 . S
H1739 C1726 0.962 . S
H1740 C1726 0.960 . S
H1741 C1727 0.961 . S
H1742 C1727 0.961 . S
H1743 C1727 0.961 . S
H1744 C1728 0.931 . S
H1745 C1733 0.930 . S
H1746 C1734 0.956 . S
H1747 C1734 0.961 . S
H1748 C1734 0.961 . S
H1749 C1735 0.958 . S
H1750 C1735 0.961 . S
H1751 C1735 0.960 . S
C1752 C1753 1.391 . S
C1752 C1754 1.394 . S
C1752 H1768 0.931 . S
C1753 C1752 1.391 . S
C1753 C1757 1.376 . S
C1754 C1752 1.394 . S
C1754 C1755 1.369 . S
C1754 C1758 1.531 . S
C1755 C1754 1.369 . S
C1755 C1756 1.410 . S
C1755 C1763 1.503 . S
C1756 C1755 1.410 . S
C1756 C1757 1.392 . S
C1756 C1759 1.511 . S
C1757 C1753 1.376 . S
C1757 C1756 1.392 . S
C1757 H1769 0.929 . S
C1758 C1754 1.531 . S
C1758 H1770 0.960 . S
C1758 H1771 0.962 . S
C1758 H1772 0.960 . S
C1759 C1756 1.511 . S
C1759 H1773 0.961 . S
C1759 H1774 0.961 . S
C1759 H1775 0.961 . S
C1760 C1761 1.370 . S
C1760 C1762 1.363 . S
C1760 H1776 0.931 . S
C1761 C1760 1.370 . S
C1761 C1765 1.408 . S
C1762 C1760 1.363 . S
C1762 C1763 1.370 . S
C1762 C1766 1.524 . S
C1763 C1755 1.503 . S
C1763 C1762 1.370 . S
C1763 C1764 1.403 . S
C1764 C1763 1.403 . S
C1764 C1765 1.404 . S
C1764 C1767 1.539 . S
C1765 C1761 1.408 . S
C1765 C1764 1.404 . S
C1765 H1777 0.930 . S
C1766 C1762 1.524 . S
C1766 H1778 0.956 . S
C1766 H1779 0.961 . S
C1766 H1780 0.961 . S
C1767 C1764 1.539 . S
C1767 H1781 0.958 . S
C1767 H1782 0.961 . S
C1767 H1783 0.960 . S
H1768 C1752 0.931 . S
H1769 C1757 0.929 . S
H1770 C1758 0.960 . S
H1771 C1758 0.962 . S
H1772 C1758 0.960 . S
H1773 C1759 0.961 . S
H1774 C1759 0.961 . S
H1775 C1759 0.961 . S
H1776 C1760 0.931 . S
H1777 C1765 0.930 . S
H1778 C1766 0.956 . S
H1779 C1766 0.961 . S
H1780 C1766 0.961 . S
H1781 C1767 0.958 . S
H1782 C1767 0.961 . S
H1783 C1767 0.960 . S
C1784 C1785 1.391 . S
C1784 C1786 1.394 . S
C1784 H1800 0.931 . S
C1785 C1784 1.391 . S
C1785 C1789 1.376 . S
C1786 C1784 1.394 . S
C1786 C1787 1.369 . S
C1786 C1790 1.531 . S
C1787 C1786 1.369 . S
C1787 C1788 1.410 . S
C1787 C1795 1.503 . S
C1788 C1787 1.410 . S
C1788 C1789 1.392 . S
C1788 C1791 1.511 . S
C1789 C1785 1.376 . S
C1789 C1788 1.392 . S
C1789 H1801 0.929 . S
C1790 C1786 1.531 . S
C1790 H1802 0.960 . S
C1790 H1803 0.962 . S
C1790 H1804 0.960 . S
C1791 C1788 1.511 . S
C1791 H1805 0.961 . S
C1791 H1806 0.961 . S
C1791 H1807 0.961 . S
C1792 C1793 1.370 . S
C1792 C1794 1.363 . S
C1792 H1808 0.931 . S
C1793 C1792 1.370 . S
C1793 C1797 1.408 . S
C1794 C1792 1.363 . S
C1794 C1795 1.370 . S
C1794 C1798 1.524 . S
C1795 C1787 1.503 . S
C1795 C1794 1.370 . S
C1795 C1796 1.403 . S
C1796 C1795 1.403 . S
C1796 C1797 1.404 . S
C1796 C1799 1.539 . S
C1797 C1793 1.408 . S
C1797 C1796 1.404 . S
C1797 H1809 0.930 . S
C1798 C1794 1.524 . S
C1798 H1810 0.956 . S
C1798 H1811 0.961 . S
C1798 H1812 0.961 . S
C1799 C1796 1.539 . S
C1799 H1813 0.958 . S
C1799 H1814 0.961 . S
C1799 H1815 0.960 . S
H1800 C1784 0.931 . S
H1801 C1789 0.929 . S
H1802 C1790 0.960 . S
H1803 C1790 0.962 . S
H1804 C1790 0.960 . S
H1805 C1791 0.961 . S
H1806 C1791 0.961 . S
H1807 C1791 0.961 . S
H1808 C1792 0.931 . S
H1809 C1797 0.930 . S
H1810 C1798 0.956 . S
H1811 C1798 0.961 . S
H1812 C1798 0.961 . S
H1813 C1799 0.958 . S
H1814 C1799 0.961 . S
H1815 C1799 0.960 . S
C1816 C1817 1.391 . S
C1816 C1818 1.394 . S
C1816 H1832 0.931 . S
C1817 C1816 1.391 . S
C1817 C1821 1.376 . S
C1818 C1816 1.394 . S
C1818 C1819 1.369 . S
C1818 C1822 1.531 . S
C1819 C1818 1.369 . S
C1819 C1820 1.410 . S
C1819 C1827 1.503 . S
C1820 C1819 1.410 . S
C1820 C1821 1.392 . S
C1820 C1823 1.511 . S
C1821 C1817 1.376 . S
C1821 C1820 1.392 . S
C1821 H1833 0.929 . S
C1822 C1818 1.531 . S
C1822 H1834 0.960 . S
C1822 H1835 0.962 . S
C1822 H1836 0.960 . S
C1823 C1820 1.511 . S
C1823 H1837 0.961 . S
C1823 H1838 0.961 . S
C1823 H1839 0.961 . S
C1824 C1825 1.370 . S
C1824 C1826 1.363 . S
C1824 H1840 0.931 . S
C1825 C1824 1.370 . S
C1825 C1829 1.408 . S
C1826 C1824 1.363 . S
C1826 C1827 1.370 . S
C1826 C1830 1.524 . S
C1827 C1819 1.503 . S
C1827 C1826 1.370 . S
C1827 C1828 1.403 . S
C1828 C1827 1.403 . S
C1828 C1829 1.404 . S
C1828 C1831 1.539 . S
C1829 C1825 1.408 . S
C1829 C1828 1.404 . S
C1829 H1841 0.930 . S
C1830 C1826 1.524 . S
C1830 H1842 0.956 . S
C1830 H1843 0.961 . S
C1830 H1844 0.961 . S
C1831 C1828 1.539 . S
C1831 H1845 0.958 . S
C1831 H1846 0.961 . S
C1831 H1847 0.960 . S
H1832 C1816 0.931 . S
H1833 C1821 0.929 . S
H1834 C1822 0.960 . S
H1835 C1822 0.962 . S
H1836 C1822 0.960 . S
H1837 C1823 0.961 . S
H1838 C1823 0.961 . S
H1839 C1823 0.961 . S
H1840 C1824 0.931 . S
H1841 C1829 0.930 . S
H1842 C1830 0.956 . S
H1843 C1830 0.961 . S
H1844 C1830 0.961 . S
H1845 C1831 0.958 . S
H1846 C1831 0.961 . S
H1847 C1831 0.960 . S
C1848 C1849 1.391 . S
C1848 C1850 1.394 . S
C1848 H1864 0.931 . S
C1849 C1848 1.391 . S
C1849 C1853 1.376 . S
C1850 C1848 1.394 . S
C1850 C1851 1.369 . S
C1850 C1854 1.531 . S
C1851 C1850 1.369 . S
C1851 C1852 1.410 . S
C1851 C1859 1.503 . S
C1852 C1851 1.410 . S
C1852 C1853 1.392 . S
C1852 C1855 1.511 . S
C1853 C1849 1.376 . S
C1853 C1852 1.392 . S
C1853 H1865 0.929 . S
C1854 C1850 1.531 . S
C1854 H1866 0.960 . S
C1854 H1867 0.962 . S
C1854 H1868 0.960 . S
C1855 C1852 1.511 . S
C1855 H1869 0.961 . S
C1855 H1870 0.961 . S
C1855 H1871 0.961 . S
C1856 C1857 1.370 . S
C1856 C1858 1.363 . S
C1856 H1872 0.931 . S
C1857 C1856 1.370 . S
C1857 C1861 1.408 . S
C1858 C1856 1.363 . S
C1858 C1859 1.370 . S
C1858 C1862 1.524 . S
C1859 C1851 1.503 . S
C1859 C1858 1.370 . S
C1859 C1860 1.403 . S
C1860 C1859 1.403 . S
C1860 C1861 1.404 . S
C1860 C1863 1.539 . S
C1861 C1857 1.408 . S
C1861 C1860 1.404 . S
C1861 H1873 0.930 . S
C1862 C1858 1.524 . S
C1862 H1874 0.956 . S
C1862 H1875 0.961 . S
C1862 H1876 0.961 . S
C1863 C1860 1.539 . S
C1863 H1877 0.958 . S
C1863 H1878 0.961 . S
C1863 H1879 0.960 . S
H1864 C1848 0.931 . S
H1865 C1853 0.929 . S
H1866 C1854 0.960 . S
H1867 C1854 0.962 . S
H1868 C1854 0.960 . S
H1869 C1855 0.961 . S
H1870 C1855 0.961 . S
H1871 C1855 0.961 . S
H1872 C1856 0.931 . S
H1873 C1861 0.930 . S
H1874 C1862 0.956 . S
H1875 C1862 0.961 . S
H1876 C1862 0.961 . S
H1877 C1863 0.958 . S
H1878 C1863 0.961 . S
H1879 C1863 0.960 . S
C1880 C1881 1.391 . S
C1880 C1882 1.394 . S
C1880 H1896 0.931 . S
C1881 C1880 1.391 . S
C1881 C1885 1.376 . S
C1882 C1880 1.394 . S
C1882 C1883 1.369 . S
C1882 C1886 1.531 . S
C1883 C1882 1.369 . S
C1883 C1884 1.410 . S
C1883 C1891 1.503 . S
C1884 C1883 1.410 . S
C1884 C1885 1.392 . S
C1884 C1887 1.511 . S
C1885 C1881 1.376 . S
C1885 C1884 1.392 . S
C1885 H1897 0.929 . S
C1886 C1882 1.531 . S
C1886 H1898 0.960 . S
C1886 H1899 0.962 . S
C1886 H1900 0.960 . S
C1887 C1884 1.511 . S
C1887 H1901 0.961 . S
C1887 H1902 0.961 . S
C1887 H1903 0.961 . S
C1888 C1889 1.370 1_545 S
C1888 C1890 1.363 . S
C1888 H1904 0.931 . S
C1889 C1888 1.370 1_565 S
C1889 C1893 1.408 . S
C1890 C1888 1.363 . S
C1890 C1891 1.370 . S
C1890 C1894 1.524 . S
C1891 C1883 1.503 . S
C1891 C1890 1.370 . S
C1891 C1892 1.403 . S
C1892 C1891 1.403 . S
C1892 C1893 1.404 1_545 S
C1892 C1895 1.539 . S
C1893 C1889 1.408 . S
C1893 C1892 1.404 1_565 S
C1893 H1905 0.930 . S
C1894 C1890 1.524 . S
C1894 H1906 0.956 . S
C1894 H1907 0.961 . S
C1894 H1908 0.961 . S
C1895 C1892 1.539 . S
C1895 H1909 0.958 . S
C1895 H1910 0.961 1_545 S
C1895 H1911 0.960 . S
H1896 C1880 0.931 . S
H1897 C1885 0.929 . S
H1898 C1886 0.960 . S
H1899 C1886 0.962 . S
H1900 C1886 0.960 . S
H1901 C1887 0.961 . S
H1902 C1887 0.961 . S
H1903 C1887 0.961 . S
H1904 C1888 0.931 . S
H1905 C1893 0.930 . S
H1906 C1894 0.956 . S
H1907 C1894 0.961 . S
H1908 C1894 0.961 . S
H1909 C1895 0.958 . S
H1910 C1895 0.961 1_565 S
H1911 C1895 0.960 . S
C385 C216 1.761 . S
C377 C73 1.779 . S
C417 C231 1.472 . S
C409 C82 1.462 . S
C441 C100 2.022 . S
C449 C244 2.008 . S
C481 C258 1.434 . S
C473 C56 1.353 . S
C513 C270 1.463 . S
C505 C134 1.533 . S
C545 C284 1.465 . S
C537 C165 1.469 . S
C569 C147 1.428 . S
C577 C298 1.426 . S
C609 C313 1.713 . S
C601 C125 1.763 . S
C633 C151 1.440 . S
C641 C329 1.432 . S
C673 C342 1.432 . S
C665 C121 1.432 . S
C697 C139 1.767 . S
C705 C327 1.750 . S
C737 C340 1.237 . S
C729 C164 1.243 . S
C761 C95 1.638 . S
C769 C356 1.669 . S
C793 C61 1.424 . S
C801 C355 1.452 . S
C825 C74 1.725 . S
C833 C354 1.647 . S
C857 C86 1.881 . S
C865 C357 1.859 . S
C889 C47 1.625 . S
C897 C259 1.626 . S
C921 C186 1.289 . S
C929 C257 1.369 . S
C961 C217 1.437 . S
C953 C204 1.442 . S
C993 C228 2.022 . S
C985 C112 2.024 . S
C1017 C60 1.419 . S
C1025 C273 1.395 . S
C1057 C314 1.784 . S
C1049 C152 1.773 . S
C1089 C271 1.780 . S
C1081 C126 1.815 . S
C1121 C299 1.276 . S
C1113 C160 1.152 . S
C1153 C300 1.761 . S
C1145 C190 1.780 . S
C1177 C199 1.472 . S
C1185 C315 1.480 . S
C1209 C113 2.029 . S
C1217 C272 2.012 . S
C1249 C286 1.435 . S
C1241 C173 1.339 . S
C1273 C43 1.535 . S
C1281 C242 1.465 . S
C1313 C256 1.465 . S
C1305 C9 1.467 . S
C1345 C214 1.414 . S
C1337 C17 1.451 . S
C1377 C229 1.735 . S
C1369 C34 1.775 . S
C1401 C21 1.435 . S
C1409 C343 1.426 . S
C1433 C30 1.420 . S
C1441 C328 1.433 . S
C1465 C48 1.769 . S
C1473 C341 1.753 . S
C1497 C8 1.179 . S
C1505 C326 1.230 . S
C1537 C370 1.664 . S
C1529 C108 1.581 . S
C1569 C369 1.453 . S
C1561 C178 1.424 . S
C1601 C368 1.665 . S
C1593 C191 1.708 . S
C1625 C203 1.879 . S
C1633 C371 1.861 . S
C1657 C138 1.624 . S
C1665 C287 1.627 . S
C1697 C285 1.352 . S
C1689 C69 1.338 . S
C1729 C301 1.434 . S
C1721 C87 1.444 . S
C1761 C312 2.015 . S
C1753 C99 2.032 . S
C1785 C177 1.381 . S
C1793 C245 1.413 . S
C1825 C230 1.787 . S
C1817 C22 1.784 . S
C1849 C35 1.795 . S
C1857 C243 1.797 . S
C1889 C215 1.289 . S
C1881 C4 1.145 . S
