# Generated by pormake.
# Topology ctn, (3,4)-cn, num edge types: 1
# Building blocks:
#     Node 0, Type 0, BuildingBlock: MIDCAF_clean_linker_0, # of connection points: 3
#     Node 1, Type 0, BuildingBlock: MIDCAF_clean_linker_0, # of connection points: 3
#     Node 2, Type 0, BuildingBlock: MIDCAF_clean_linker_0, # of connection points: 3
#     Node 3, Type 0, BuildingBlock: MIDCAF_clean_linker_0, # of connection points: 3
#     Node 4, Type 0, BuildingBlock: MIDCAF_clean_linker_0, # of connection points: 3
#     Node 5, Type 0, BuildingBlock: MIDCAF_clean_linker_0, # of connection points: 3
#     Node 6, Type 0, BuildingBlock: MIDCAF_clean_linker_0, # of connection points: 3
#     Node 7, Type 0, BuildingBlock: MIDCAF_clean_linker_0, # of connection points: 3
#     Node 8, Type 0, BuildingBlock: MIDCAF_clean_linker_0, # of connection points: 3
#     Node 9, Type 0, BuildingBlock: MIDCAF_clean_linker_0, # of connection points: 3
#     Node 10, Type 0, BuildingBlock: MIDCAF_clean_linker_0, # of connection points: 3
#     Node 11, Type 0, BuildingBlock: MIDCAF_clean_linker_0, # of connection points: 3
#     Node 12, Type 0, BuildingBlock: MIDCAF_clean_linker_0, # of connection points: 3
#     Node 13, Type 0, BuildingBlock: MIDCAF_clean_linker_0, # of connection points: 3
#     Node 14, Type 0, BuildingBlock: MIDCAF_clean_linker_0, # of connection points: 3
#     Node 15, Type 0, BuildingBlock: MIDCAF_clean_linker_0, # of connection points: 3
#     Node 16, Type 1, BuildingBlock: NAHDIM_clean_sbu_0, # of connection points: 4
#     Node 17, Type 1, BuildingBlock: NAHDIM_clean_sbu_0, # of connection points: 4
#     Node 18, Type 1, BuildingBlock: NAHDIM_clean_sbu_0, # of connection points: 4
#     Node 19, Type 1, BuildingBlock: NAHDIM_clean_sbu_0, # of connection points: 4
#     Node 20, Type 1, BuildingBlock: NAHDIM_clean_sbu_0, # of connection points: 4
#     Node 21, Type 1, BuildingBlock: NAHDIM_clean_sbu_0, # of connection points: 4
#     Node 22, Type 1, BuildingBlock: NAHDIM_clean_sbu_0, # of connection points: 4
#     Node 23, Type 1, BuildingBlock: NAHDIM_clean_sbu_0, # of connection points: 4
#     Node 24, Type 1, BuildingBlock: NAHDIM_clean_sbu_0, # of connection points: 4
#     Node 25, Type 1, BuildingBlock: NAHDIM_clean_sbu_0, # of connection points: 4
#     Node 26, Type 1, BuildingBlock: NAHDIM_clean_sbu_0, # of connection points: 4
#     Node 27, Type 1, BuildingBlock: NAHDIM_clean_sbu_0, # of connection points: 4
#     Edge 28, Type (0, 1), BuildingBlock: EZIPEK_clean_linker_0, # of connection points: 2
#     Edge 29, Type (0, 1), BuildingBlock: EZIPEK_clean_linker_0, # of connection points: 2
#     Edge 30, Type (0, 1), BuildingBlock: EZIPEK_clean_linker_0, # of connection points: 2
#     Edge 31, Type (0, 1), BuildingBlock: EZIPEK_clean_linker_0, # of connection points: 2
#     Edge 32, Type (0, 1), BuildingBlock: EZIPEK_clean_linker_0, # of connection points: 2
#     Edge 33, Type (0, 1), BuildingBlock: EZIPEK_clean_linker_0, # of connection points: 2
#     Edge 34, Type (0, 1), BuildingBlock: EZIPEK_clean_linker_0, # of connection points: 2
#     Edge 35, Type (0, 1), BuildingBlock: EZIPEK_clean_linker_0, # of connection points: 2
#     Edge 36, Type (0, 1), BuildingBlock: EZIPEK_clean_linker_0, # of connection points: 2
#     Edge 37, Type (0, 1), BuildingBlock: EZIPEK_clean_linker_0, # of connection points: 2
#     Edge 38, Type (0, 1), BuildingBlock: EZIPEK_clean_linker_0, # of connection points: 2
#     Edge 39, Type (0, 1), BuildingBlock: EZIPEK_clean_linker_0, # of connection points: 2
#     Edge 40, Type (0, 1), BuildingBlock: EZIPEK_clean_linker_0, # of connection points: 2
#     Edge 41, Type (0, 1), BuildingBlock: EZIPEK_clean_linker_0, # of connection points: 2
#     Edge 42, Type (0, 1), BuildingBlock: EZIPEK_clean_linker_0, # of connection points: 2
#     Edge 43, Type (0, 1), BuildingBlock: EZIPEK_clean_linker_0, # of connection points: 2
#     Edge 44, Type (0, 1), BuildingBlock: EZIPEK_clean_linker_0, # of connection points: 2
#     Edge 45, Type (0, 1), BuildingBlock: EZIPEK_clean_linker_0, # of connection points: 2
#     Edge 46, Type (0, 1), BuildingBlock: EZIPEK_clean_linker_0, # of connection points: 2
#     Edge 47, Type (0, 1), BuildingBlock: EZIPEK_clean_linker_0, # of connection points: 2
#     Edge 48, Type (0, 1), BuildingBlock: EZIPEK_clean_linker_0, # of connection points: 2
#     Edge 49, Type (0, 1), BuildingBlock: EZIPEK_clean_linker_0, # of connection points: 2
#     Edge 50, Type (0, 1), BuildingBlock: EZIPEK_clean_linker_0, # of connection points: 2
#     Edge 51, Type (0, 1), BuildingBlock: EZIPEK_clean_linker_0, # of connection points: 2
#     Edge 52, Type (0, 1), BuildingBlock: EZIPEK_clean_linker_0, # of connection points: 2
#     Edge 53, Type (0, 1), BuildingBlock: EZIPEK_clean_linker_0, # of connection points: 2
#     Edge 54, Type (0, 1), BuildingBlock: EZIPEK_clean_linker_0, # of connection points: 2
#     Edge 55, Type (0, 1), BuildingBlock: EZIPEK_clean_linker_0, # of connection points: 2
#     Edge 56, Type (0, 1), BuildingBlock: EZIPEK_clean_linker_0, # of connection points: 2
#     Edge 57, Type (0, 1), BuildingBlock: EZIPEK_clean_linker_0, # of connection points: 2
#     Edge 58, Type (0, 1), BuildingBlock: EZIPEK_clean_linker_0, # of connection points: 2
#     Edge 59, Type (0, 1), BuildingBlock: EZIPEK_clean_linker_0, # of connection points: 2
#     Edge 60, Type (0, 1), BuildingBlock: EZIPEK_clean_linker_0, # of connection points: 2
#     Edge 61, Type (0, 1), BuildingBlock: EZIPEK_clean_linker_0, # of connection points: 2
#     Edge 62, Type (0, 1), BuildingBlock: EZIPEK_clean_linker_0, # of connection points: 2
#     Edge 63, Type (0, 1), BuildingBlock: EZIPEK_clean_linker_0, # of connection points: 2
#     Edge 64, Type (0, 1), BuildingBlock: EZIPEK_clean_linker_0, # of connection points: 2
#     Edge 65, Type (0, 1), BuildingBlock: EZIPEK_clean_linker_0, # of connection points: 2
#     Edge 66, Type (0, 1), BuildingBlock: EZIPEK_clean_linker_0, # of connection points: 2
#     Edge 67, Type (0, 1), BuildingBlock: EZIPEK_clean_linker_0, # of connection points: 2
#     Edge 68, Type (0, 1), BuildingBlock: EZIPEK_clean_linker_0, # of connection points: 2
#     Edge 69, Type (0, 1), BuildingBlock: EZIPEK_clean_linker_0, # of connection points: 2
#     Edge 70, Type (0, 1), BuildingBlock: EZIPEK_clean_linker_0, # of connection points: 2
#     Edge 71, Type (0, 1), BuildingBlock: EZIPEK_clean_linker_0, # of connection points: 2
#     Edge 72, Type (0, 1), BuildingBlock: EZIPEK_clean_linker_0, # of connection points: 2
#     Edge 73, Type (0, 1), BuildingBlock: EZIPEK_clean_linker_0, # of connection points: 2
#     Edge 74, Type (0, 1), BuildingBlock: EZIPEK_clean_linker_0, # of connection points: 2
#     Edge 75, Type (0, 1), BuildingBlock: EZIPEK_clean_linker_0, # of connection points: 2
# Relax obj value: 0.002
# Max RMSD: 0.032
# Mean RMSD: 0.017
data_MOF--net-ctn--node1-NAHDIM_clean_sbu_0--node2-MIDCAF_clean_linker_0--edge1-EZIPEK_clean_linker_0
_symmetry_space_group_name_H-M    P1
_symmetry_Int_Tables_number       1
_symmetry_cell_setting            triclinic
loop_
_symmetry_equiv_pos_as_xyz
'x, y, z'
_cell_length_a     52.171405
_cell_length_b     52.501609
_cell_length_c     51.89572
_cell_angle_alpha  91.275084
_cell_angle_beta   90.051365
_cell_angle_gamma 92.455838
loop_
_atom_site_label
_atom_site_type_symbol
_atom_site_fract_x
_atom_site_fract_y
_atom_site_fract_z
_atom_type_partial_charge
C0 C 0.97601 0.05606 0.10544 0.0
C1 C 0.97848 0.03512 0.1214 0.0
C2 C 0.99587 0.01644 0.11488 0.0
C3 C 0.01089 0.01879 0.09273 0.0
H4 H 0.07008 0.98605 0.05494 0.0
H5 H 0.10607 0.9582 0.04879 0.0
H6 H 0.1348 0.00512 0.98723 0.0
H7 H 0.09882 0.03312 0.99296 0.0
H8 H 0.05923 0.07079 0.96819 0.0
H9 H 0.05211 0.10452 0.9376 0.0
H10 H 0.99645 0.13661 0.98881 0.0
H11 H 0.00317 0.10289 0.01957 0.0
H12 H 0.98873 0.07484 0.07129 0.0
H13 H 0.96263 0.07063 0.1103 0.0
H14 H 0.99794 0.00017 0.12707 0.0
H15 H 0.02425 0.00409 0.0883 0.0
N16 N 0.04453 0.02657 0.04932 0.0
N17 N 0.05569 0.0477 0.01139 0.0
N18 N 0.02108 0.06115 0.03628 0.0
C19 C 0.05997 0.02905 0.02839 0.0
C20 C 0.03625 0.06379 0.01513 0.0
C21 C 0.02507 0.04253 0.05344 0.0
C22 C 0.08152 0.01188 0.02445 0.0
C23 C 0.08399 0.99052 0.04006 0.0
C24 C 0.1045 0.97455 0.0366 0.0
C25 C 0.12295 0.97975 0.01763 0.0
C26 C 0.12065 0.00093 0.00198 0.0
C27 C 0.10005 0.01683 0.00528 0.0
C28 C 0.03181 0.0841 0.99643 0.0
C29 C 0.04545 0.08497 0.97303 0.0
C30 C 0.04141 0.10419 0.95547 0.0
C31 C 0.02381 0.12297 0.96104 0.0
C32 C 0.0101 0.12221 0.98425 0.0
C33 C 0.01399 0.1029 0.00177 0.0
C34 C 0.00868 0.03983 0.07664 0.0
C35 C 0.99093 0.05837 0.08317 0.0
C36 C 0.2458 0.62482 0.24393 0.0
C37 C 0.22403 0.6221 0.22809 0.0
C38 C 0.21961 0.64051 0.20966 0.0
C39 C 0.23669 0.66153 0.20714 0.0
H40 H 0.24959 0.72535 0.16457 0.0
H41 H 0.24476 0.75449 0.12893 0.0
H42 H 0.31537 0.79483 0.15086 0.0
H43 H 0.32043 0.76601 0.18669 0.0
H44 H 0.33502 0.75758 0.25109 0.0
H45 H 0.37052 0.76488 0.2816 0.0
H46 H 0.37428 0.68379 0.29153 0.0
H47 H 0.33812 0.67635 0.26169 0.0
H48 H 0.27946 0.6475 0.25408 0.0
H49 H 0.24947 0.61068 0.25822 0.0
H50 H 0.20287 0.63863 0.19727 0.0
H51 H 0.23264 0.67547 0.19278 0.0
N52 N 0.27289 0.70422 0.20186 0.0
N53 N 0.30855 0.72895 0.21674 0.0
N54 N 0.29629 0.69108 0.23743 0.0
C55 C 0.28894 0.72513 0.19967 0.0
C56 C 0.31235 0.71201 0.23562 0.0
C57 C 0.27638 0.68712 0.2207 0.0
C58 C 0.28545 0.74325 0.17854 0.0
C59 C 0.26409 0.74045 0.16194 0.0
C60 C 0.26125 0.75706 0.14156 0.0
C61 C 0.27974 0.77669 0.13733 0.0
C62 C 0.30093 0.77976 0.1539 0.0
C63 C 0.30374 0.76325 0.17437 0.0
C64 C 0.33381 0.71639 0.25403 0.0
C65 C 0.34337 0.7413 0.2598 0.0
C66 C 0.36359 0.74552 0.27724 0.0
C67 C 0.375 0.72488 0.28876 0.0
C68 C 0.36564 0.69995 0.28288 0.0
C69 C 0.345 0.69576 0.26589 0.0
C70 C 0.25851 0.66454 0.22309 0.0
C71 C 0.26287 0.64588 0.2415 0.0
C72 C 0.99526 0.39611 0.98451 0.0
C73 C 0.98558 0.3969 0.95934 0.0
C74 C 0.97275 0.41835 0.95155 0.0
C75 C 0.96895 0.43848 0.96895 0.0
H76 H 0.92015 0.49529 0.98119 0.0
H77 H 0.88443 0.52236 0.97246 0.0
H78 H 0.89231 0.55698 0.04827 0.0
H79 H 0.92822 0.52997 0.05743 0.0
H80 H 0.96602 0.50461 0.0979 0.0
H81 H 0.98848 0.50643 0.13943 0.0
H82 H 0.04634 0.45844 0.10812 0.0
H83 H 0.02399 0.45613 0.0667 0.0
H84 H 0.99904 0.41506 0.02132 0.0
H85 H 0.00523 0.37965 0.99078 0.0
H86 H 0.96524 0.41924 0.93213 0.0
H87 H 0.95859 0.45461 0.9625 0.0
N88 N 0.95415 0.47476 0.00821 0.0
N89 N 0.96069 0.49476 0.04864 0.0
N90 N 0.98526 0.46016 0.03618 0.0
C91 C 0.948 0.49307 0.02574 0.0
C92 C 0.97945 0.47844 0.05394 0.0
C93 C 0.97268 0.45822 0.01326 0.0
C94 C 0.92707 0.51034 0.0201 0.0
C95 C 0.91446 0.50869 0.99607 0.0
C96 C 0.89405 0.52414 0.99097 0.0
C97 C 0.88586 0.54152 0.00974 0.0
C98 C 0.8985 0.54361 0.03359 0.0
C99 C 0.91899 0.52816 0.03874 0.0
C100 C 0.99318 0.48018 0.07895 0.0
C101 C 0.98357 0.4945 0.09978 0.0
C102 C 0.99632 0.49556 0.12353 0.0
C103 C 0.01903 0.48261 0.12671 0.0
C104 C 0.02882 0.46855 0.10595 0.0
C105 C 0.01597 0.46724 0.08233 0.0
C106 C 0.97818 0.43761 0.9944 0.0
C107 C 0.99173 0.41638 0.00188 0.0
C108 C 0.74296 0.769 0.11663 0.0
C109 C 0.72913 0.74568 0.1133 0.0
C110 C 0.712 0.7374 0.13248 0.0
C111 C 0.70882 0.75224 0.15485 0.0
H112 H 0.65698 0.76658 0.21293 0.0
H113 H 0.62061 0.75815 0.24152 0.0
H114 H 0.65293 0.81229 0.29748 0.0
H115 H 0.68947 0.82115 0.26897 0.0
H116 H 0.73595 0.8589 0.25099 0.0
H117 H 0.76688 0.89463 0.25917 0.0
H118 H 0.80826 0.8744 0.19042 0.0
H119 H 0.77767 0.83876 0.18191 0.0
H120 H 0.75108 0.80157 0.14114 0.0
H121 H 0.75624 0.77565 0.10195 0.0
H122 H 0.70122 0.71939 0.13017 0.0
H123 H 0.69558 0.74529 0.16941 0.0
N124 N 0.70059 0.7859 0.19897 0.0
N125 N 0.71549 0.81945 0.22644 0.0
N126 N 0.73741 0.81036 0.18815 0.0
C127 C 0.69804 0.80007 0.22099 0.0
C128 C 0.73527 0.82468 0.21008 0.0
C129 C 0.72022 0.79094 0.18245 0.0
C130 C 0.6762 0.79461 0.23859 0.0
C131 C 0.6565 0.77672 0.23132 0.0
C132 C 0.63566 0.77185 0.24759 0.0
C133 C 0.63416 0.78464 0.27149 0.0
C134 C 0.65382 0.8023 0.27903 0.0
C135 C 0.67464 0.80732 0.26269 0.0
C136 C 0.75422 0.84594 0.21573 0.0
C137 C 0.75167 0.86194 0.23764 0.0
C138 C 0.76929 0.88234 0.24239 0.0
C139 C 0.78973 0.887 0.22537 0.0
C140 C 0.79256 0.87098 0.20372 0.0
C141 C 0.77499 0.85065 0.19892 0.0
C142 C 0.72296 0.77548 0.15849 0.0
C143 C 0.74 0.78372 0.13907 0.0
C144 C 0.03913 0.91749 0.53652 0.0
C145 C 0.02012 0.89827 0.53194 0.0
C146 C 0.00406 0.89955 0.51036 0.0
C147 C 0.0071 0.91982 0.49344 0.0
H148 H 0.97576 0.952 0.42901 0.0
H149 H 0.94527 0.95845 0.39411 0.0
H150 H 0.98372 0.03046 0.37746 0.0
H151 H 0.01446 0.02429 0.41214 0.0
H152 H 0.06623 0.04081 0.44121 0.0
H153 H 0.10483 0.06875 0.44611 0.0
H154 H 0.13618 0.01659 0.49953 0.0
H155 H 0.09774 0.98863 0.49508 0.0
H156 H 0.0573 0.95207 0.5236 0.0
H157 H 0.05167 0.91674 0.55312 0.0
H158 H 0.98931 0.88479 0.50657 0.0
H159 H 0.99454 0.92025 0.47684 0.0
N160 N 0.01293 0.96399 0.46065 0.0
N161 N 0.03782 -0.00069 0.44662 0.0
N162 N 0.05145 0.97606 0.48171 0.0
C163 C 0.01654 0.98357 0.44412 0.0
C164 C 0.05541 0.99561 0.46532 0.0
C165 C 0.03028 0.9602 0.47959 0.0
C166 C 0.99765 0.9876 0.42339 0.0
C167 C 0.97774 0.96927 0.41803 0.0
C168 C 0.96031 0.97287 0.39811 0.0
C169 C 0.96237 0.9949 0.38337 0.0
C170 C 0.98193 0.01336 0.38875 0.0
C171 C -0.00052 0.00972 0.40854 0.0
C172 C 0.07881 0.01249 0.46782 0.0
C173 C 0.08133 0.03521 0.45397 0.0
C174 C 0.10333 0.0512 0.45671 0.0
C175 C 0.12322 0.04462 0.47315 0.0
C176 C 0.12095 0.0219 0.48677 0.0
C177 C 0.09892 0.00602 0.48422 0.0
C178 C 0.02641 0.939 0.49774 0.0
C179 C 0.04232 0.93762 0.51956 0.0
C180 C 0.24156 0.76286 0.8783 0.0
C181 C 0.22641 0.78395 0.8823 0.0
C182 C 0.20652 0.78843 0.865 0.0
C183 C 0.20183 0.77189 0.84386 0.0
H184 H 0.16354 0.76465 0.77326 0.0
H185 H 0.12889 0.77189 0.74281 0.0
H186 H 0.13301 0.69475 0.71341 0.0
H187 H 0.16788 0.68731 0.74347 0.0
H188 H 0.22397 0.66138 0.75366 0.0
H189 H 0.25091 0.62441 0.74935 0.0
H190 H 0.2805 0.63912 0.82605 0.0
H191 H 0.25398 0.67613 0.8306 0.0
H192 H 0.24895 0.73016 0.85479 0.0
H193 H 0.25699 0.7592 0.89152 0.0
H194 H 0.19466 0.80467 0.86792 0.0
H195 H 0.18631 0.77576 0.83084 0.0
N196 N 0.19355 0.73718 0.79996 0.0
N197 N 0.20293 0.69943 0.77746 0.0
N198 N 0.22571 0.71147 0.81499 0.0
C199 C 0.18891 0.72061 0.77981 0.0
C200 C 0.22139 0.69475 0.795 0.0
C201 C 0.21195 0.73271 0.81765 0.0
C202 C 0.16846 0.72535 0.76089 0.0
C203 C 0.15717 0.74921 0.76028 0.0
C204 C 0.13742 0.75344 0.74288 0.0
C205 C 0.12843 0.73382 0.726 0.0
C206 C 0.13977 0.71009 0.72633 0.0
C207 C 0.15969 0.70592 0.74352 0.0
C208 C 0.23686 0.67182 0.79244 0.0
C209 C 0.2361 0.65671 0.76968 0.0
C210 C 0.25145 0.63561 0.76715 0.0
C211 C 0.26761 0.62917 0.78739 0.0
C212 C 0.26812 0.64389 0.81025 0.0
C213 C 0.25297 0.66506 0.81274 0.0
C214 C 0.21694 0.75057 0.83979 0.0
C215 C 0.23688 0.7463 0.85727 0.0
C216 C 0.00597 0.61386 0.51733 0.0
C217 C 0.9875 0.61958 0.53592 0.0
C218 C 0.96565 0.60344 0.53855 0.0
C219 C 0.9622 0.58176 0.52267 0.0
H220 H 0.91581 0.51923 0.51258 0.0
H221 H 0.88023 0.48911 0.52155 0.0
H222 H 0.90507 0.43913 0.46039 0.0
H223 H 0.94086 0.46924 0.45097 0.0
H224 H 0.98552 0.48985 0.41365 0.0
H225 H 0.01161 0.48558 0.37474 0.0
H226 H 0.05261 0.55646 0.39395 0.0
H227 H 0.02684 0.56102 0.43292 0.0
H228 H 0.01697 0.58835 0.48697 0.0
H229 H 0.02294 0.62624 0.51513 0.0
H230 H 0.95123 0.60769 0.55284 0.0
H231 H 0.94502 0.56973 0.5251 0.0
N232 N 0.95704 0.53594 0.49125 0.0
N233 N 0.96819 0.51185 0.45472 0.0
N234 N 0.99167 0.54967 0.46568 0.0
C235 C 0.95279 0.51518 0.47554 0.0
C236 C 0.98768 0.52905 0.44964 0.0
C237 C 0.97643 0.55324 0.48654 0.0
C238 C 0.93128 0.4967 0.481 0.0
C239 C 0.91385 0.50186 0.50097 0.0
C240 C 0.89346 0.4847 0.50617 0.0
C241 C 0.89011 0.46201 0.49162 0.0
C242 C 0.90742 0.45663 0.47176 0.0
C243 C 0.92782 0.47387 0.46643 0.0
C244 C 0.00398 0.52583 0.42647 0.0
C245 C 0.00013 0.50453 0.40973 0.0
C246 C 0.015 0.50201 0.38749 0.0
C247 C 0.03392 0.52073 0.38158 0.0
C248 C 0.03806 0.54184 0.39828 0.0
C249 C 0.02327 0.54437 0.42054 0.0
C250 C 0.98049 0.57597 0.50372 0.0
C251 C 0.00247 0.59226 0.50127 0.0
C252 C 0.86185 0.75679 0.71637 0.0
C253 C 0.87438 0.7778 0.70488 0.0
C254 C 0.86715 0.80252 0.71157 0.0
C255 C 0.84772 0.80618 0.72963 0.0
H256 H 0.78123 0.85001 0.74364 0.0
H257 H 0.75285 0.88596 0.74303 0.0
H258 H 0.72404 0.86618 0.8181 0.0
H259 H 0.75209 0.83015 0.81898 0.0
H260 H 0.76648 0.77942 0.84337 0.0
H261 H 0.75933 0.74773 0.87661 0.0
H262 H 0.80444 0.69467 0.83361 0.0
H263 H 0.81202 0.72632 0.80017 0.0
H264 H 0.83369 0.7439 0.74362 0.0
H265 H 0.86716 0.73758 0.71137 0.0
H266 H 0.87668 0.81895 0.70292 0.0
H267 H 0.84266 0.82547 0.73463 0.0
N268 N 0.80238 0.81053 0.76244 0.0
N269 N 0.78076 0.79628 0.79932 0.0
N270 N 0.81176 0.77118 0.78003 0.0
C271 C 0.78459 0.81422 0.78112 0.0
C272 C 0.79424 0.77474 0.79895 0.0
C273 C 0.81602 0.78904 0.7618 0.0
C274 C 0.76885 0.83705 0.78129 0.0
C275 C 0.76904 0.85339 0.76014 0.0
C276 C 0.75285 0.87392 0.75971 0.0
C277 C 0.73639 0.87854 0.78048 0.0
C278 C 0.73663 0.86279 0.8019 0.0
C279 C 0.75266 0.84219 0.8023 0.0
C280 C 0.78985 0.75545 0.81905 0.0
C281 C 0.77492 0.76104 0.84087 0.0
C282 C 0.77082 0.743 0.85993 0.0
C283 C 0.78142 0.719 0.85749 0.0
C284 C 0.79621 0.71319 0.83577 0.0
C285 C 0.80051 0.73131 0.81674 0.0
C286 C 0.8356 0.78519 0.74168 0.0
C287 C 0.8428 0.76045 0.73481 0.0
C288 C 0.36984 0.25876 0.24379 0.0
C289 C 0.37214 0.27252 0.22105 0.0
C290 C 0.35428 0.29086 0.21558 0.0
C291 C 0.33423 0.29537 0.23272 0.0
H292 H 0.27053 0.33855 0.24385 0.0
H293 H 0.23869 0.36839 0.23453 0.0
H294 H 0.20039 0.35041 0.30618 0.0
H295 H 0.23242 0.32074 0.31532 0.0
H296 H 0.25374 0.28039 0.3515 0.0
H297 H 0.24916 0.25417 0.3897 0.0
H298 H 0.31386 0.21125 0.36565 0.0
H299 H 0.31881 0.2373 0.32733 0.0
H300 H 0.34865 0.25224 0.27834 0.0
H301 H 0.38354 0.24456 0.24826 0.0
H302 H 0.35591 0.30166 0.19807 0.0
H303 H 0.32071 0.30964 0.22799 0.0
N304 N 0.2928 0.30361 0.26884 0.0
N305 N 0.27146 0.29379 0.30735 0.0
N306 N 0.30844 0.27256 0.29582 0.0
C307 C 0.2732 0.30757 0.28552 0.0
C308 C 0.289 0.27627 0.31266 0.0
C309 C 0.31053 0.28614 0.2739 0.0
C310 C 0.25346 0.32614 0.27972 0.0
C311 C 0.25463 0.34022 0.2571 0.0
C312 C 0.23544 0.357 0.25131 0.0
C313 C 0.2136 0.3594 0.26726 0.0
C314 C 0.21421 0.34701 0.2912 0.0
C315 C 0.23336 0.33026 0.29702 0.0
C316 C 0.28661 0.26094 0.33624 0.0
C317 C 0.26709 0.26545 0.35427 0.0
C318 C 0.26442 0.25054 0.37613 0.0
C319 C 0.28115 0.23088 0.38029 0.0
C320 C 0.30081 0.22641 0.36261 0.0
C321 C 0.30356 0.24134 0.34076 0.0
C322 C 0.33178 0.28159 0.25563 0.0
C323 C 0.34986 0.26323 0.26094 0.0
C324 C 0.5082 0.89261 0.48005 0.0
C325 C 0.49035 0.88591 0.46061 0.0
C326 C 0.46863 0.90035 0.45763 0.0
C327 C 0.46468 0.92125 0.47405 0.0
H328 H 0.41535 0.97823 0.4874 0.0
H329 H 0.37909 0.00527 0.48026 0.0
H330 H 0.40586 0.05635 0.54159 0.0
H331 H 0.44218 0.02949 0.54912 0.0
H332 H 0.4867 0.01337 0.58479 0.0
H333 H 0.51181 0.01947 0.6244 0.0
H334 H 0.55109 0.95058 0.60732 0.0
H335 H 0.52619 0.94416 0.56753 0.0
H336 H 0.51824 0.91806 0.51156 0.0
H337 H 0.52505 0.88154 0.48256 0.0
H338 H 0.45468 0.89532 0.4427 0.0
H339 H 0.44761 0.93192 0.47135 0.0
N340 N 0.45806 0.96523 0.50729 0.0
N341 N 0.46872 0.98927 0.54463 0.0
N342 N 0.49279 0.95418 0.53284 0.0
C343 C 0.45346 0.98508 0.52362 0.0
C344 C 0.4884 0.97391 0.54942 0.0
C345 C 0.47773 0.94974 0.51169 0.0
C346 C 0.43173 0.00165 0.51887 0.0
C347 C 0.41365 0.99523 0.49937 0.0
C348 C 0.39289 0.0106 0.49525 0.0
C349 C 0.38994 0.03267 0.51043 0.0
C350 C 0.40794 0.03932 0.52974 0.0
C351 C 0.42863 0.02391 0.53399 0.0
C352 C 0.50433 0.9782 0.57293 0.0
C353 C 0.50071 -0.0005 0.58931 0.0
C354 C 0.51503 0.00308 0.61195 0.0
C355 C 0.53315 0.98544 0.61864 0.0
C356 C 0.53712 0.96435 0.60233 0.0
C357 C 0.52287 0.96077 0.57962 0.0
C358 C 0.48233 0.92795 0.49386 0.0
C359 C 0.50421 0.91343 0.4966 0.0
C360 C 0.24624 0.24543 0.64023 0.0
C361 C 0.22908 0.22451 0.63594 0.0
C362 C 0.20869 0.22008 0.65302 0.0
C363 C 0.20497 0.23691 0.67377 0.0
H364 H 0.15064 0.25632 0.72564 0.0
H365 H 0.10959 0.25466 0.74617 0.0
H366 H 0.13097 0.32339 0.7898 0.0
H367 H 0.17182 0.32508 0.76892 0.0
H368 H 0.22476 0.35511 0.75641 0.0
H369 H 0.25237 0.39392 0.7601 0.0
H370 H 0.29571 0.36954 0.69405 0.0
H371 H 0.26852 0.33061 0.69019 0.0
H372 H 0.25586 0.27856 0.66346 0.0
H373 H 0.26206 0.24907 0.62711 0.0
H374 H 0.19527 0.20398 0.64986 0.0
H375 H 0.1887 0.23329 0.68631 0.0
N376 N 0.19459 0.27535 0.71249 0.0
N377 N 0.20527 0.31409 0.73401 0.0
N378 N 0.23253 0.29827 0.70212 0.0
C379 C 0.18889 0.29348 0.73042 0.0
C380 C 0.22718 0.31659 0.71997 0.0
C381 C 0.21641 0.27754 0.69834 0.0
C382 C 0.16411 0.29172 0.74437 0.0
C383 C 0.14614 0.27173 0.73888 0.0
C384 C 0.12189 0.27132 0.75024 0.0
C385 C 0.11413 0.29155 0.76654 0.0
C386 C 0.13366 0.30963 0.77445 0.0
C387 C 0.15792 0.31015 0.76303 0.0
C388 C 0.24436 0.33969 0.72298 0.0
C389 C 0.2402 0.3579 0.7427 0.0
C390 C 0.25592 0.38008 0.74487 0.0
C391 C 0.27593 0.3845 0.72729 0.0
C392 C 0.28031 0.36637 0.70775 0.0
C393 C 0.26474 0.34413 0.70565 0.0
C394 C 0.22163 0.25846 0.67775 0.0
C395 C 0.24261 0.26225 0.661 0.0
C396 C 0.73943 0.1242 0.74999 0.0
C397 C 0.72189 0.11813 0.73008 0.0
C398 C 0.71953 0.13491 0.70968 0.0
C399 C 0.73439 0.15766 0.70927 0.0
H400 H 0.74773 0.22067 0.66668 0.0
H401 H 0.74407 0.2492 0.63046 0.0
H402 H 0.79595 0.30426 0.66811 0.0
H403 H 0.8 0.27585 0.70453 0.0
H404 H 0.81586 0.26295 0.76689 0.0
H405 H 0.85042 0.27217 0.79819 0.0
H406 H 0.86302 0.19177 0.80311 0.0
H407 H 0.82783 0.18233 0.77262 0.0
H408 H 0.76767 0.15113 0.7653 0.0
H409 H 0.74143 0.11139 0.76588 0.0
H410 H 0.70606 0.13043 0.69416 0.0
H411 H 0.73202 0.17027 0.69329 0.0
N412 N 0.76381 0.20544 0.71021 0.0
N413 N 0.79526 0.23334 0.72872 0.0
N414 N 0.78535 0.1939 0.74754 0.0
C415 C 0.77764 0.22795 0.70987 0.0
C416 C 0.79925 0.21638 0.74756 0.0
C417 C 0.76742 0.18837 0.72902 0.0
C418 C 0.77428 0.24587 0.68855 0.0
C419 C 0.75829 0.23889 0.66745 0.0
C420 C 0.75615 0.25514 0.64669 0.0
C421 C 0.76981 0.2787 0.64667 0.0
C422 C 0.78533 0.28607 0.66785 0.0
C423 C 0.7876 0.26978 0.6886 0.0
C424 C 0.81923 0.22194 0.76729 0.0
C425 C 0.82586 0.24724 0.77483 0.0
C426 C 0.84551 0.25253 0.79272 0.0
C427 C 0.85932 0.23265 0.80283 0.0
C428 C 0.85254 0.20735 0.79555 0.0
C429 C 0.83246 0.20201 0.77816 0.0
C430 C 0.75196 0.164 0.72926 0.0
C431 C 0.75438 0.14692 0.74958 0.0
C432 C 0.46935 0.54051 0.61302 0.0
C433 C 0.4729 0.5189 0.62775 0.0
C434 C 0.49192 0.50203 0.62078 0.0
C435 C 0.50751 0.5069 0.59944 0.0
H436 H 0.56969 0.48085 0.56156 0.0
H437 H 0.60708 0.45517 0.55426 0.0
H438 H 0.63479 0.50735 0.49666 0.0
H439 H 0.59739 0.53329 0.50361 0.0
H440 H 0.56057 0.57558 0.48485 0.0
H441 H 0.55282 0.61209 0.45786 0.0
H442 H 0.48727 0.63009 0.50421 0.0
H443 H 0.49468 0.59368 0.53141 0.0
H444 H 0.48181 0.56234 0.58072 0.0
H445 H 0.45471 0.5537 0.61825 0.0
H446 H 0.49484 0.48527 0.63204 0.0
H447 H 0.52218 0.4936 0.59466 0.0
N448 N 0.54183 0.51975 0.55771 0.0
N449 N 0.55346 0.54502 0.52259 0.0
N450 N 0.51713 0.55425 0.54708 0.0
C451 C 0.55798 0.52498 0.53784 0.0
C452 C 0.53303 0.55972 0.52704 0.0
C453 C 0.52138 0.53428 0.5625 0.0
C454 C 0.58048 0.5092 0.53317 0.0
C455 C 0.58367 0.48696 0.54731 0.0
C456 C 0.60499 0.47222 0.5432 0.0
C457 C 0.62355 0.47949 0.52501 0.0
C458 C 0.62056 0.50156 0.51081 0.0
C459 C 0.59916 0.51628 0.5148 0.0
C460 C 0.52827 0.58164 0.51039 0.0
C461 C 0.54446 0.58722 0.48937 0.0
C462 C 0.54009 0.60804 0.47388 0.0
C463 C 0.51951 0.62363 0.47914 0.0
C464 C 0.50324 0.61816 0.49994 0.0
C465 C 0.50755 0.59735 0.51543 0.0
C466 C 0.50428 0.52871 0.58466 0.0
C467 C 0.48486 0.54537 0.5916 0.0
C468 C 0.53992 0.41388 0.04465 0.0
C469 C 0.52061 0.39502 0.03983 0.0
C470 C 0.50458 0.39681 0.01831 0.0
C471 C 0.50794 0.41725 0.00165 0.0
H472 H 0.47607 0.45106 0.93907 0.0
H473 H 0.44811 0.45518 0.90168 0.0
H474 H 0.4961 0.51815 0.87536 0.0
H475 H 0.52428 0.51438 0.91264 0.0
H476 H 0.57166 0.53454 0.94602 0.0
H477 H 0.60929 0.56346 0.95276 0.0
H478 H 0.62905 0.52302 0.02083 0.0
H479 H 0.59167 0.49401 0.01446 0.0
H480 H 0.55853 0.44844 0.03225 0.0
H481 H 0.55241 0.41272 0.06124 0.0
H482 H 0.48959 0.38233 0.01437 0.0
H483 H 0.49537 0.41807 0.9851 0.0
N484 N 0.5157 0.46027 0.96794 0.0
N485 N 0.54014 0.49639 0.95523 0.0
N486 N 0.55177 0.47444 0.99195 0.0
C487 C 0.5198 0.47967 0.9513 0.0
C488 C 0.5562 0.4939 0.97555 0.0
C489 C 0.53161 0.45755 0.98833 0.0
C490 C 0.50252 0.48237 0.92891 0.0
C491 C 0.48074 0.46585 0.92541 0.0
C492 C 0.4647 0.46815 0.9041 0.0
C493 C 0.47015 0.48694 0.88592 0.0
C494 C 0.49168 0.50356 0.8893 0.0
C495 C 0.50772 0.50133 0.91063 0.0
C496 C 0.5786 0.51187 0.97967 0.0
C497 C 0.58393 0.53179 0.96247 0.0
C498 C 0.60538 0.54834 0.96626 0.0
C499 C 0.62178 0.54525 0.98726 0.0
C500 C 0.61651 0.5256 0.00453 0.0
C501 C 0.59512 0.50906 0.00079 0.0
C502 C 0.52746 0.43616 0.00624 0.0
C503 C 0.54334 0.43426 0.02802 0.0
C504 C 0.73498 0.2637 0.38688 0.0
C505 C 0.72065 0.28541 0.39066 0.0
C506 C 0.70118 0.29062 0.37315 0.0
C507 C 0.69638 0.27444 0.35176 0.0
H508 H 0.64125 0.25195 0.29499 0.0
H509 H 0.60507 0.25695 0.26574 0.0
H510 H 0.64334 0.21397 0.20661 0.0
H511 H 0.67943 0.20841 0.2358 0.0
H512 H 0.72667 0.17456 0.25302 0.0
H513 H 0.75534 0.13938 0.24563 0.0
H514 H 0.78051 0.14563 0.32473 0.0
H515 H 0.75232 0.18099 0.33231 0.0
H516 H 0.74188 0.23108 0.36307 0.0
H517 H 0.75005 0.25946 0.4003 0.0
H518 H 0.68996 0.30736 0.3759 0.0
H519 H 0.68145 0.27909 0.33837 0.0
N520 N 0.68774 0.24035 0.30746 0.0
N521 N 0.70072 0.20631 0.28117 0.0
N522 N 0.72282 0.21685 0.3195 0.0
C523 C 0.68451 0.22547 0.28582 0.0
C524 C 0.71986 0.20182 0.298 0.0
C525 C 0.70697 0.23621 0.32434 0.0
C526 C 0.66318 0.22967 0.26777 0.0
C527 C 0.64208 0.24368 0.27572 0.0
C528 C 0.62138 0.24655 0.25907 0.0
C529 C 0.6216 0.23579 0.2341 0.0
C530 C 0.64287 0.22235 0.22586 0.0
C531 C 0.66341 0.21916 0.2426 0.0
C532 C 0.73719 0.18061 0.29326 0.0
C533 C 0.7383 0.16849 0.26885 0.0
C534 C 0.75467 0.14844 0.26456 0.0
C535 C 0.76994 0.14 0.28466 0.0
C536 C 0.76887 0.15198 0.30901 0.0
C537 C 0.75276 0.17219 0.31325 0.0
C538 C 0.71106 0.25283 0.34757 0.0
C539 C 0.73026 0.24756 0.36554 0.0
C540 C 0.50814 0.11386 0.01594 0.0
C541 C 0.49168 0.12042 0.03613 0.0
C542 C 0.46964 0.10505 0.04084 0.0
C543 C 0.46405 0.08335 0.02549 0.0
H544 H 0.41198 0.0252 0.01662 0.0
H545 H 0.37446 0.99812 0.02713 0.0
H546 H 0.39382 0.94469 0.96677 0.0
H547 H 0.43159 0.97171 0.9558 0.0
H548 H 0.47506 0.99048 0.91461 0.0
H549 H 0.5009 0.98337 0.87587 0.0
H550 H 0.55249 0.04612 0.89866 0.0
H551 H 0.52704 0.05352 0.9373 0.0
H552 H 0.51558 0.08765 0.985 0.0
H553 H 0.52525 0.12558 0.01212 0.0
H554 H 0.45675 0.10993 0.05638 0.0
H555 H 0.44682 0.07192 0.02959 0.0
N556 N 0.45367 0.03819 0.99401 0.0
N557 N 0.46233 0.01222 0.95798 0.0
N558 N 0.48877 0.04848 0.96764 0.0
C559 C 0.44758 0.01734 0.97893 0.0
C560 C 0.483 0.02775 0.95222 0.0
C561 C 0.47421 0.05383 0.98856 0.0
C562 C 0.42489 0.00068 0.9853 0.0
C563 C 0.40842 0.0077 0.00551 0.0
C564 C 0.38693 0.99229 0.0116 0.0
C565 C 0.38153 0.96953 0.99773 0.0
C566 C 0.39783 0.96226 0.97765 0.0
C567 C 0.41934 0.97775 0.97143 0.0
C568 C 0.49887 0.02264 0.92911 0.0
C569 C 0.49195 0.00273 0.91148 0.0
C570 C 0.50663 0.99862 0.88934 0.0
C571 C 0.52846 0.01429 0.88452 0.0
C572 C 0.53565 0.0339 0.90214 0.0
C573 C 0.521 0.03807 0.9242 0.0
C574 C 0.48039 0.07668 0.00507 0.0
C575 C 0.50254 0.09219 0.0005 0.0
C576 C 0.20779 0.91344 0.00472 0.0
O577 O 0.21758 0.90955 0.98173 0.0
O578 O 0.23502 0.8552 0.98725 0.0
Zn579 Zn 0.24482 0.87795 0.01762 0.0
O580 O 0.27716 0.89832 0.00931 0.0
C581 C 0.2695 0.84341 0.05085 0.0
O582 O 0.2873 0.8447 0.03299 0.0
O583 O 0.2165 0.90194 0.02392 0.0
C584 C 0.29057 0.91022 0.02647 0.0
O585 O 0.28348 0.90947 0.05072 0.0
C586 C 0.25178 0.84847 0.97103 0.0
O587 O 0.27586 0.85624 0.97417 0.0
O588 O 0.24958 0.85629 0.04864 0.0
C589 C 0.15702 0.44939 0.26481 0.0
O590 O 0.16245 0.46438 0.28484 0.0
O591 O 0.1057 0.49329 0.2829 0.0
Zn592 Zn 0.12533 0.49027 0.24973 0.0
O593 O 0.15266 0.51852 0.24805 0.0
C594 C 0.07822 0.48282 0.22092 0.0
O595 O 0.06975 0.4728 0.24243 0.0
O596 O 0.14165 0.45642 0.24766 0.0
C597 C 0.14899 0.53848 0.23539 0.0
O598 O 0.12727 0.54085 0.22309 0.0
C599 C 0.09363 0.51329 0.28799 0.0
O600 O 0.0943 0.53204 0.27163 0.0
O601 O 0.10117 0.49181 0.21966 0.0
C602 C 0.79833 0.60056 0.9862 0.0
O603 O 0.78728 0.59788 0.96352 0.0
O604 O 0.7677 0.65809 0.96351 0.0
Zn605 Zn 0.7599 0.63738 0.99483 0.0
O606 O 0.72835 0.61483 0.98841 0.0
C607 C 0.74488 0.68268 0.02231 0.0
O608 O 0.73939 0.69045 0.99915 0.0
O609 O 0.78986 0.61618 0.00281 0.0
C610 C 0.71229 0.61021 0.00625 0.0
O611 O 0.71633 0.62003 0.02947 0.0
C612 C 0.76095 0.65027 0.94108 0.0
O613 O 0.74889 0.62794 0.93793 0.0
O614 O 0.75394 0.66083 0.02506 0.0
C615 C 0.83631 0.05531 0.27052 0.0
O616 O 0.83165 0.03442 0.28348 0.0
O617 O 0.89951 0.02148 0.27972 0.0
Zn618 Zn 0.87632 0.02587 0.24918 0.0
O619 O 0.85272 0.99499 0.2445 0.0
C620 C 0.92028 0.02383 0.21546 0.0
O621 O 0.93123 0.01402 0.23552 0.0
O622 O 0.85488 0.05638 0.25471 0.0
C623 C 0.8614 0.97307 0.24031 0.0
O624 O 0.88627 0.97037 0.23894 0.0
C625 C 0.89206 0.00914 0.29933 0.0
O626 O 0.86859 -0.00084 0.30022 0.0
O627 O 0.89717 0.03044 0.21687 0.0
C628 C 0.30361 0.09574 0.49395 0.0
O629 O 0.29474 0.09858 0.47054 0.0
O630 O 0.27209 0.14969 0.47479 0.0
Zn631 Zn 0.26362 0.12914 0.50638 0.0
O632 O 0.23211 0.10591 0.50059 0.0
C633 C 0.23772 0.16123 0.54401 0.0
O634 O 0.2173 0.15591 0.52978 0.0
O635 O 0.29329 0.10706 0.5129 0.0
C636 C 0.21304 0.11186 0.48707 0.0
O637 O 0.21317 0.13402 0.47589 0.0
C638 C 0.26169 0.17056 0.4703 0.0
O639 O 0.24486 0.1795 0.48651 0.0
O640 O 0.25913 0.15229 0.53761 0.0
C641 C 0.33469 0.54452 0.77854 0.0
O642 O 0.33308 0.52583 0.79496 0.0
O643 O 0.39697 0.51372 0.78873 0.0
Zn644 Zn 0.37431 0.51472 0.75741 0.0
O645 O 0.35243 0.48245 0.75433 0.0
C646 C 0.4107 0.50172 0.7182 0.0
O647 O 0.41179 0.48055 0.73106 0.0
O648 O 0.35125 0.5441 0.76066 0.0
C649 C 0.34021 0.47696 0.73366 0.0
O650 O 0.34211 0.49242 0.71412 0.0
C651 C 0.40409 0.49254 0.79697 0.0
O652 O 0.39659 0.4712 0.78501 0.0
O653 O 0.39606 0.51905 0.72581 0.0
C654 C 0.71075 0.41643 0.51089 0.0
O655 O 0.72006 0.41204 0.48778 0.0
O656 O 0.73732 0.35859 0.49423 0.0
Zn657 Zn 0.74875 0.38195 0.52398 0.0
O658 O 0.78063 0.40318 0.51518 0.0
C659 C 0.76208 0.33935 0.55545 0.0
O660 O 0.7679 0.32873 0.5332 0.0
O661 O 0.72024 0.40577 0.53023 0.0
C662 C 0.80315 0.395 0.51668 0.0
O663 O 0.8064 0.37163 0.52413 0.0
C664 C 0.7525 0.34944 0.47767 0.0
O665 O 0.77725 0.3547 0.47956 0.0
O666 O 0.75406 0.36188 0.55621 0.0
C667 C 0.6645 0.95918 0.77579 0.0
O668 O 0.6641 0.97749 0.79343 0.0
O669 O 0.60095 0.98721 0.78503 0.0
Zn670 Zn 0.62446 0.98728 0.75426 0.0
O671 O 0.64529 0.02027 0.75291 0.0
C672 C 0.5891 -0.00074 0.71438 0.0
O673 O 0.5868 0.02012 0.72844 0.0
O674 O 0.64885 0.95906 0.75703 0.0
C675 C 0.65871 0.02497 0.73303 0.0
O676 O 0.65838 0.00845 0.71363 0.0
C677 C 0.59275 0.00793 0.79427 0.0
O678 O 0.59944 0.02963 0.78354 0.0
O679 O 0.60396 0.98227 0.72163 0.0
C680 C 0.00774 0.20512 0.89111 0.0
O681 O 0.00023 0.20087 0.86717 0.0
O682 O 0.96986 0.24961 0.85857 0.0
Zn683 Zn 0.003 0.25742 0.8776 0.0
O684 O -0.00052 0.28853 0.90029 0.0
C685 C 0.02623 0.27079 0.82942 0.0
O686 O 0.00216 0.27199 0.8224 0.0
O687 O 0.01071 0.22788 0.89975 0.0
C688 C 0.99525 0.30991 0.89055 0.0
O689 O 0.99287 0.31179 0.86549 0.0
C690 C 0.94799 0.25266 0.86864 0.0
O691 O 0.94642 0.26076 0.89269 0.0
O692 O 0.03164 0.26447 0.85223 0.0
C693 C 0.5029 0.71092 0.41633 0.0
O694 O 0.48388 0.72583 0.42138 0.0
O695 O 0.48265 0.74016 0.35308 0.0
Zn696 Zn 0.51321 0.74697 0.37675 0.0
O697 O 0.50825 0.77701 0.40082 0.0
C698 C 0.54396 0.76257 0.33317 0.0
O699 O 0.52151 0.76631 0.32283 0.0
O700 O 0.51816 0.71602 0.39793 0.0
C701 C 0.50133 0.79825 0.39258 0.0
O702 O 0.49692 0.80073 0.36785 0.0
C703 C 0.45987 0.74517 0.3595 0.0
O704 O 0.4555 0.75536 0.3823 0.0
O705 O 0.54519 0.75426 0.35593 0.0
C706 C 0.01183 0.81418 0.60203 0.0
O707 O 0.00762 0.81823 0.62671 0.0
O708 O 0.98041 0.76669 0.64012 0.0
Zn709 Zn 0.01084 0.76192 0.61697 0.0
O710 O 0.007 0.72981 0.595 0.0
C711 C 0.04241 0.74477 0.65728 0.0
O712 O 0.022 0.72984 0.66105 0.0
O713 O 0.01415 0.79158 0.59342 0.0
C714 C 0.99591 0.70924 0.60241 0.0
O715 O 0.98598 0.70803 0.62559 0.0
C716 C 0.95742 0.76163 0.63302 0.0
O717 O 0.95278 0.75262 0.6096 0.0
O718 O 0.04244 0.76063 0.63914 0.0
C719 C 0.50951 0.31058 0.10913 0.0
O720 O 0.50694 0.31479 0.13403 0.0
O721 O 0.47276 0.26675 0.14653 0.0
Zn722 Zn 0.50326 0.259 0.12445 0.0
O723 O 0.49627 0.22669 0.10353 0.0
C724 C 0.53324 0.24356 0.1675 0.0
O725 O 0.51149 0.23187 0.17386 0.0
O726 O 0.50896 0.28784 0.10024 0.0
C727 C 0.51337 0.2105 0.09982 0.0
O728 O 0.53624 0.21442 0.11011 0.0
C729 C 0.45687 0.24946 0.15397 0.0
O730 O 0.46 0.22559 0.14702 0.0
O731 O 0.53452 0.25624 0.14694 0.0
C732 C 0.22423 0.79306 0.9298 0.0
C733 C 0.23146 0.80123 0.90487 0.0
C734 C 0.24857 0.84184 0.92321 0.0
C735 C 0.24412 0.83244 0.94831 0.0
N736 N 0.23111 0.79775 0.97584 0.0
N737 N 0.25352 0.83177 0.87775 0.0
C738 C 0.23272 0.80772 0.95174 0.0
C739 C 0.24442 0.82522 0.90151 0.0
N740 N 0.20879 0.77157 0.93244 0.0
N741 N 0.25582 0.86692 0.92005 0.0
H742 H 0.25064 0.82021 0.86131 0.0
H743 H 0.26564 0.84769 0.8747 0.0
H744 H 0.25857 0.87984 0.93547 0.0
H745 H 0.25672 0.8755 0.90216 0.0
H746 H 0.20065 0.76613 0.94989 0.0
H747 H 0.20224 0.76032 0.91676 0.0
H748 H 0.22567 0.7788 0.97921 0.0
H749 H 0.23732 0.80776 0.99243 0.0
C750 C 0.07516 0.5118 0.35888 0.0
C751 C 0.04916 0.51853 0.35757 0.0
C752 C 0.0517 0.51937 0.31045 0.0
C753 C 0.07836 0.51516 0.31194 0.0
N754 N 0.11655 0.51199 0.33778 0.0
N755 N 0.01372 0.53303 0.33273 0.0
C756 C 0.09042 0.51256 0.33622 0.0
C757 C 0.0377 0.52355 0.33351 0.0
N758 N 0.08509 0.50407 0.38166 0.0
N759 N 0.03947 0.51825 0.2871 0.0
H760 H 0.00278 0.53627 0.3492 0.0
H761 H 0.00555 0.53974 0.316 0.0
H762 H 0.04887 0.51474 0.26975 0.0
H763 H 0.01961 0.51839 0.28513 0.0
H764 H 0.10304 0.49628 0.3832 0.0
H765 H 0.07451 0.50335 0.3987 0.0
H766 H 0.12658 0.51285 0.35516 0.0
H767 H 0.12849 0.51311 0.3217 0.0
C768 C 0.79673 0.69406 0.89487 0.0
C769 C 0.77669 0.69992 0.87777 0.0
C770 C 0.74605 0.67394 0.90274 0.0
C771 C 0.76644 0.66652 0.91867 0.0
N772 N 0.81197 0.66491 0.92639 0.0
N773 N 0.73366 0.69124 0.86192 0.0
C774 C 0.79205 0.67524 0.91373 0.0
C775 C 0.75176 0.68853 0.88062 0.0
N776 N 0.81993 0.70713 0.89376 0.0
N777 N 0.72114 0.66829 0.90946 0.0
H778 H 0.73721 0.7017 0.84534 0.0
H779 H 0.71601 0.68119 0.86166 0.0
H780 H 0.716 0.65828 0.92592 0.0
H781 H 0.70552 0.67563 0.90007 0.0
H782 H 0.83424 0.70566 0.90758 0.0
H783 H 0.82413 0.7211 0.88024 0.0
H784 H 0.83115 0.66868 0.9217 0.0
H785 H 0.80936 0.6506 0.93989 0.0
C786 C 0.94991 0.98862 0.33695 0.0
C787 C 0.94424 0.99846 0.36188 0.0
C788 C 0.90532 0.01696 0.34531 0.0
C789 C 0.91 0.00549 0.32085 0.0
N790 N 0.93417 0.97701 0.29414 0.0
N791 N 0.91528 0.01905 0.39101 0.0
C792 C 0.93165 0.99044 0.31683 0.0
C793 C 0.92153 0.01178 0.36643 0.0
N794 N 0.97299 0.97794 0.33243 0.0
N795 N 0.88601 0.03364 0.34807 0.0
H796 H 0.92706 0.0162 0.40685 0.0
H797 H 0.89763 0.02623 0.39605 0.0
H798 H 0.8738 0.03797 0.33301 0.0
H799 H 0.88334 0.04477 0.36462 0.0
H800 H 0.97954 0.97313 0.3141 0.0
H801 H 0.98655 0.97555 0.34687 0.0
H802 H 0.94794 0.96351 0.29106 0.0
H803 H 0.9211 0.97773 0.27899 0.0
C804 C 0.2428 0.18427 0.614 0.0
C805 C 0.23143 0.20822 0.61249 0.0
C806 C 0.22641 0.20239 0.56581 0.0
C807 C 0.2357 0.17744 0.56758 0.0
N808 N 0.24815 0.14272 0.594 0.0
N809 N 0.20838 0.23845 0.58808 0.0
C810 C 0.24275 0.16785 0.59185 0.0
C811 C 0.22205 0.21681 0.5887 0.0
N812 N 0.25405 0.17744 0.63647 0.0
N813 N 0.22283 0.21279 0.54223 0.0
H814 H 0.20506 0.2498 0.6044 0.0
H815 H 0.1985 0.24402 0.57185 0.0
H816 H 0.22601 0.20303 0.52494 0.0
H817 H 0.21897 0.23188 0.53975 0.0
H818 H 0.26515 0.16152 0.63797 0.0
H819 H 0.25403 0.18883 0.65321 0.0
H820 H 0.25075 0.13403 0.61159 0.0
H821 H 0.24767 0.12986 0.57839 0.0
C822 C 0.43471 0.49794 0.64916 0.0
C823 C 0.45706 0.51424 0.65099 0.0
C824 C 0.44849 0.52302 0.6967 0.0
C825 C 0.42689 0.50567 0.6952 0.0
N826 N 0.40068 0.47433 0.67139 0.0
N827 N 0.4875 0.53971 0.67658 0.0
C828 C 0.42041 0.49238 0.67183 0.0
C829 C 0.46457 0.52611 0.6748 0.0
N830 N 0.42677 0.48845 0.62558 0.0
N831 N 0.45347 0.53668 0.71905 0.0
H832 H 0.49955 0.54281 0.66083 0.0
H833 H 0.49557 0.54647 0.69389 0.0
H834 H 0.4431 0.53383 0.73599 0.0
H835 H 0.46693 0.55184 0.72055 0.0
H836 H 0.40919 0.47878 0.62234 0.0
H837 H 0.43705 0.49173 0.60865 0.0
H838 H 0.39677 0.4619 0.65585 0.0
H839 H 0.38898 0.47061 0.68727 0.0
C840 C 0.74545 0.30817 0.61925 0.0
C841 C 0.76828 0.29533 0.62402 0.0
C842 C 0.78817 0.31449 0.58592 0.0
C843 C 0.76436 0.32485 0.57946 0.0
N844 N 0.71895 0.32768 0.58758 0.0
N845 N 0.81004 0.2828 0.60982 0.0
C846 C 0.74261 0.32078 0.59554 0.0
C847 C 0.78932 0.29755 0.6068 0.0
N848 N 0.72669 0.30874 0.6376 0.0
N849 N 0.80991 0.32158 0.57275 0.0
H850 H 0.81166 0.27012 0.62487 0.0
H851 H 0.8246 0.28151 0.5962 0.0
H852 H 0.80999 0.33437 0.55768 0.0
H853 H 0.82822 0.31677 0.57837 0.0
H854 H 0.71084 0.32005 0.63635 0.0
H855 H 0.72813 0.2997 0.65521 0.0
H856 H 0.70204 0.32269 0.59724 0.0
H857 H 0.71579 0.33627 0.57 0.0
C858 C 0.53878 0.97588 0.66535 0.0
C859 C 0.54765 0.98883 0.64314 0.0
C860 C 0.58271 0.00992 0.66813 0.0
C861 C 0.57479 0.99573 0.68992 0.0
N862 N 0.54726 0.96339 0.70918 0.0
N863 N 0.57947 0.01554 0.62194 0.0
C864 C 0.55342 0.97811 0.68847 0.0
C865 C 0.57 0.00519 0.64414 0.0
N866 N 0.51589 0.96214 0.6645 0.0
N867 N 0.60228 0.02803 0.67048 0.0
H868 H 0.57041 0.0128 0.6041 0.0
H869 H 0.59716 0.02534 0.62069 0.0
H870 H 0.61295 0.03113 0.68735 0.0
H871 H 0.60706 0.04109 0.65629 0.0
H872 H 0.50683 0.95461 0.68065 0.0
H873 H 0.50487 0.95969 0.64777 0.0
H874 H 0.53391 0.94808 0.70847 0.0
H875 H 0.55662 0.96546 0.72692 0.0
C876 C 0.88125 0.22958 0.84589 0.0
C877 C 0.8816 0.23839 0.82022 0.0
C878 C 0.92319 0.26035 0.82844 0.0
C879 C 0.92456 0.24849 0.85267 0.0
N880 N 0.90656 0.21802 0.88261 0.0
N881 N 0.90565 0.25766 0.78535 0.0
C882 C 0.904 0.23211 0.861 0.0
C883 C 0.90336 0.25252 0.81098 0.0
N884 N 0.85904 0.21946 0.85612 0.0
N885 N 0.94016 0.27988 0.82248 0.0
H886 H 0.892 0.2515 0.77164 0.0
H887 H 0.92235 0.2657 0.77737 0.0
H888 H 0.95404 0.28724 0.8354 0.0
H889 H 0.93849 0.29068 0.806 0.0
H890 H 0.8571 0.21507 0.87552 0.0
H891 H 0.84184 0.2178 0.84583 0.0
H892 H 0.89317 0.20383 0.88797 0.0
H893 H 0.92317 0.21871 0.89384 0.0
C894 C 0.50904 0.86555 0.4211 0.0
C895 C 0.49397 0.86324 0.4437 0.0
C896 C 0.48279 0.81859 0.43241 0.0
C897 C 0.4992 0.82038 0.4106 0.0
N898 N 0.53238 0.84379 0.38749 0.0
N899 N 0.47011 0.8369 0.47352 0.0
C900 C 0.51354 0.8434 0.4058 0.0
C901 C 0.48196 0.83952 0.45017 0.0
N902 N 0.51867 0.88898 0.41401 0.0
N903 N 0.46706 0.79739 0.43555 0.0
H904 H 0.46857 0.85197 0.48679 0.0
H905 H 0.46363 0.8194 0.48065 0.0
H906 H 0.46697 0.78159 0.42309 0.0
H907 H 0.45254 0.79623 0.44928 0.0
H908 H 0.52724 0.89235 0.39623 0.0
H909 H 0.51637 0.90553 0.42512 0.0
H910 H 0.5452 0.85926 0.38491 0.0
H911 H 0.53697 0.82773 0.37654 0.0
C912 C 0.07988 0.30932 0.79693 0.0
C913 C 0.08698 0.29176 0.77737 0.0
C914 C 0.04931 0.26458 0.78759 0.0
C915 C 0.04671 0.27844 0.81117 0.0
N916 N 0.05832 0.31578 0.83755 0.0
N917 N 0.06502 0.26694 0.74395 0.0
C918 C 0.06165 0.30136 0.81568 0.0
C919 C 0.0678 0.27328 0.76945 0.0
N920 N 0.08663 0.33456 0.79474 0.0
N921 N 0.03492 0.24264 0.78281 0.0
H922 H 0.07603 0.27621 0.7299 0.0
H923 H 0.04984 0.25534 0.73672 0.0
H924 H 0.0213 0.23536 0.79572 0.0
H925 H 0.0381 0.23068 0.76693 0.0
H926 H 0.08004 0.34869 0.80718 0.0
H927 H 0.09557 0.34148 0.77814 0.0
H928 H 0.07069 0.33117 0.84274 0.0
H929 H 0.04415 0.31153 0.85111 0.0
C930 C 0.52359 0.67068 0.472 0.0
C931 C 0.51517 0.646 0.46301 0.0
C932 C 0.50006 0.66377 0.42269 0.0
C933 C 0.50693 0.6886 0.43243 0.0
N934 N 0.52238 0.71647 0.46715 0.0
N935 N 0.49241 0.61892 0.43178 0.0
C936 C 0.5178 0.69229 0.45738 0.0
C937 C 0.50262 0.64248 0.43884 0.0
N938 N 0.53793 0.67332 0.49406 0.0
N939 N 0.49129 0.66056 0.39793 0.0
H940 H 0.49417 0.60285 0.443 0.0
H941 H 0.4806 0.61553 0.41579 0.0
H942 H 0.48794 0.67578 0.38597 0.0
H943 H 0.48879 0.64287 0.38862 0.0
H944 H 0.54711 0.69038 0.50018 0.0
H945 H 0.54234 0.65796 0.50542 0.0
H946 H 0.5274 0.72052 0.48627 0.0
H947 H 0.51958 0.73278 0.45657 0.0
C948 C 0.91854 0.76308 0.69496 0.0
C949 C 0.89566 0.77387 0.68639 0.0
C950 C 0.91456 0.77945 0.6436 0.0
C951 C 0.93602 0.76566 0.65127 0.0
N952 N 0.95543 0.73929 0.68289 0.0
N953 N 0.86988 0.78776 0.65111 0.0
C954 C 0.93722 0.75606 0.6766 0.0
C955 C 0.89305 0.78074 0.66026 0.0
N956 N 0.92286 0.76026 0.7207 0.0
N957 N 0.91513 0.79242 0.62103 0.0
H958 H 0.85353 0.78851 0.66259 0.0
H959 H 0.86633 0.79043 0.63161 0.0
H960 H 0.93094 0.793 0.60876 0.0
H961 H 0.90102 0.80481 0.61588 0.0
H962 H 0.94037 0.75491 0.72806 0.0
H963 H 0.90993 0.76575 0.73488 0.0
H964 H 0.95551 0.72988 0.70036 0.0
H965 H 0.96875 0.73258 0.66972 0.0
C966 C 0.99638 0.87438 0.56664 0.0
C967 C 0.01755 0.87645 0.54957 0.0
C968 C 0.03622 0.83938 0.56894 0.0
C969 C 0.01387 0.8358 0.58423 0.0
N970 N 0.97043 0.84689 0.59402 0.0
N971 N 0.05515 0.85824 0.53089 0.0
C972 C 0.99331 0.8525 0.58214 0.0
C973 C 0.03677 0.85814 0.54966 0.0
N974 N 0.97964 0.89366 0.56861 0.0
N975 N 0.05738 0.82566 0.57357 0.0
H976 H 0.05609 0.87159 0.51629 0.0
H977 H 0.06798 0.84373 0.52839 0.0
H978 H 0.05806 0.81222 0.58803 0.0
H979 H 0.07507 0.82939 0.56484 0.0
H980 H 0.96552 0.89447 0.58274 0.0
H981 H 0.98124 0.91 0.55755 0.0
H982 H 0.95395 0.85691 0.59092 0.0
H983 H 0.96716 0.83074 0.60509 0.0
C984 C 0.11086 0.73868 0.68136 0.0
C985 C 0.10664 0.73785 0.70834 0.0
C986 C 0.06127 0.74595 0.70169 0.0
C987 C 0.06483 0.74347 0.67465 0.0
N988 N 0.09226 0.73309 0.63877 0.0
N989 N 0.07703 0.7363 0.74407 0.0
C990 C 0.08946 0.73877 0.66442 0.0
C991 C 0.08161 0.7403 0.71851 0.0
N992 N 0.13534 0.73996 0.67196 0.0
N993 N 0.03878 0.75463 0.71131 0.0
H994 H 0.09134 0.73183 0.75705 0.0
H995 H 0.05866 0.7351 0.75191 0.0
H996 H 0.02368 0.75978 0.6996 0.0
H997 H 0.03613 0.75924 0.73073 0.0
H998 H 0.13961 0.74327 0.65269 0.0
H999 H 0.15151 0.74008 0.68381 0.0
H1000 H 0.10926 0.72682 0.63082 0.0
H1001 H 0.077 0.73227 0.62575 0.0
C1002 C 0.00325 0.64163 0.57663 0.0
C1003 C 0.99068 0.64284 0.55247 0.0
C1004 C 0.98057 0.68729 0.56149 0.0
C1005 C 0.99447 0.68656 0.58498 0.0
N1006 N 0.02306 0.66492 0.61284 0.0
N1007 N 0.9708 0.66736 0.51983 0.0
C1008 C 0.00689 0.66422 0.59203 0.0
C1009 C 0.98041 0.66588 0.54425 0.0
N1010 N 0.01124 0.61878 0.58504 0.0
N1011 N 0.96655 0.70798 0.55621 0.0
H1012 H 0.96965 0.65185 0.50691 0.0
H1013 H 0.96576 0.68436 0.51162 0.0
H1014 H 0.96614 0.72406 0.56831 0.0
H1015 H 0.95367 0.70846 0.54092 0.0
H1016 H 0.01776 0.61601 0.60369 0.0
H1017 H 0.00974 0.602 0.57388 0.0
H1018 H 0.0348 0.65012 0.61737 0.0
H1019 H 0.02651 0.68123 0.62439 0.0
C1020 C 0.82757 0.90809 0.24846 0.0
C1021 C 0.8079 0.90916 0.22967 0.0
C1022 C 0.82524 0.95078 0.21604 0.0
C1023 C 0.8434 0.95081 0.23641 0.0
N1024 N 0.85934 0.93156 0.27474 0.0
N1025 N 0.78511 0.93309 0.19853 0.0
C1026 C 0.84395 0.92999 0.25337 0.0
C1027 C 0.80588 0.93099 0.21431 0.0
N1028 N 0.83101 0.88592 0.2611 0.0
N1029 N 0.82718 0.96904 0.19767 0.0
H1030 H 0.77053 0.91893 0.19667 0.0
H1031 H 0.78116 0.94974 0.18902 0.0
H1032 H 0.84149 0.98355 0.19788 0.0
H1033 H 0.81618 0.96844 0.18089 0.0
H1034 H 0.84676 0.88306 0.27287 0.0
H1035 H 0.81918 0.86957 0.25824 0.0
H1036 H 0.85848 0.91821 0.28929 0.0
H1037 H 0.87148 0.94736 0.27915 0.0
C1038 C 0.81399 0.12283 0.28088 0.0
C1039 C 0.78698 0.1184 0.28036 0.0
C1040 C 0.79255 0.07325 0.27004 0.0
C1041 C 0.81943 0.07711 0.27365 0.0
N1042 N 0.85534 0.10473 0.28731 0.0
N1043 N 0.75038 0.08864 0.27918 0.0
C1044 C 0.8301 0.1017 0.28032 0.0
C1045 C 0.77618 0.09338 0.27627 0.0
N1046 N 0.82428 0.14722 0.28122 0.0
N1047 N 0.78271 0.05078 0.25959 0.0
H1048 H 0.73771 0.10282 0.284 0.0
H1049 H 0.74191 0.07031 0.27916 0.0
H1050 H 0.7941 0.03582 0.25388 0.0
H1051 H 0.76356 0.04796 0.25411 0.0
H1052 H 0.8438 0.15156 0.2789 0.0
H1053 H 0.81309 0.16322 0.28137 0.0
H1054 H 0.86342 0.12176 0.29494 0.0
H1055 H 0.86767 0.08964 0.2879 0.0
C1056 C 0.33439 0.95919 0.99357 0.0
C1057 C 0.35846 0.95352 0.00425 0.0
C1058 C 0.33831 0.91803 0.02783 0.0
C1059 C 0.31394 0.92517 0.01897 0.0
N1060 N 0.28807 0.9547 0.99666 0.0
N1061 N 0.38345 0.92978 0.03372 0.0
C1062 C 0.31177 0.94628 0.00261 0.0
C1063 C 0.36047 0.93354 0.022 0.0
N1064 N 0.33324 0.97666 0.97449 0.0
N1065 N 0.34038 0.8959 0.04094 0.0
H1066 H 0.40027 0.94024 0.02932 0.0
H1067 H 0.38554 0.91756 0.04903 0.0
H1068 H 0.3246 0.88403 0.04559 0.0
H1069 H 0.35783 0.88816 0.04541 0.0
H1070 H 0.31671 0.97961 0.96391 0.0
H1071 H 0.34937 0.98688 0.96775 0.0
H1072 H 0.28524 0.97165 0.98723 0.0
H1073 H 0.27102 0.94591 0.00309 0.0
C1074 C 0.17112 0.38034 0.27765 0.0
C1075 C 0.19223 0.37717 0.26089 0.0
C1076 C 0.18391 0.41786 0.24137 0.0
C1077 C 0.16789 0.4239 0.26256 0.0
N1078 N 0.14365 0.4097 0.29967 0.0
N1079 N 0.19965 0.3831 0.21566 0.0
C1080 C 0.16056 0.40474 0.28032 0.0
C1081 C 0.19345 0.39305 0.2392 0.0
N1082 N 0.15884 0.35939 0.28773 0.0
N1083 N 0.19083 0.43587 0.22381 0.0
H1084 H 0.20212 0.36358 0.21294 0.0
H1085 H 0.1986 0.39328 0.19869 0.0
H1086 H 0.18454 0.45446 0.22475 0.0
H1087 H 0.20445 0.43271 0.20953 0.0
H1088 H 0.14182 0.36012 0.29816 0.0
H1089 H 0.16409 0.34098 0.2826 0.0
H1090 H 0.14002 0.39721 0.31471 0.0
H1091 H 0.13425 0.42679 0.30139 0.0
C1092 C 0.16486 0.06369 0.45665 0.0
C1093 C 0.14635 0.06178 0.47661 0.0
C1094 C 0.17342 0.08989 0.50458 0.0
C1095 C 0.19067 0.09384 0.48379 0.0
N1096 N 0.2021 0.08655 0.43927 0.0
N1097 N 0.13061 0.07618 0.51788 0.0
C1098 C 0.18612 0.08141 0.45954 0.0
C1099 C 0.14999 0.0757 0.50016 0.0
N1100 N 0.16265 0.04784 0.43542 0.0
N1101 N 0.1795 0.09946 0.52864 0.0
H1102 H 0.11304 0.06622 0.51525 0.0
H1103 H 0.13099 0.08822 0.53411 0.0
H1104 H 0.19622 0.11037 0.53264 0.0
H1105 H 0.16906 0.09479 0.5451 0.0
H1106 H 0.1769 0.04631 0.42151 0.0
H1107 H 0.14738 0.03457 0.43268 0.0
H1108 H 0.19808 0.0806 0.42037 0.0
H1109 H 0.21882 0.09808 0.44103 0.0
C1110 C 0.71675 0.07053 0.72506 0.0
C1111 C 0.70572 0.09423 0.73073 0.0
C1112 C 0.66339 0.07271 0.73498 0.0
C1113 C 0.67485 0.0488 0.73191 0.0
N1114 N 0.71313 0.02462 0.7286 0.0
N1115 N 0.66957 0.11776 0.74536 0.0
C1116 C 0.70173 0.04758 0.72812 0.0
C1117 C 0.67931 0.0953 0.73692 0.0
N1118 N 0.74135 0.06998 0.71609 0.0
N1119 N 0.63727 0.07397 0.73491 0.0
H1120 H 0.68062 0.13476 0.747 0.0
H1121 H 0.65115 0.1191 0.75285 0.0
H1122 H 0.62491 0.05791 0.73292 0.0
H1123 H 0.62786 0.09105 0.73431 0.0
H1124 H 0.74947 0.05348 0.70895 0.0
H1125 H 0.753 0.0864 0.7137 0.0
H1126 H 0.73294 0.02287 0.72887 0.0
H1127 H 0.70292 0.00736 0.73112 0.0
C1128 C 0.37048 0.06991 0.48965 0.0
C1129 C 0.36781 0.04883 0.50619 0.0
C1130 C 0.32248 0.05732 0.51304 0.0
C1131 C 0.32569 0.0796 0.49819 0.0
N1132 N 0.35346 0.10961 0.47578 0.0
N1133 N 0.34274 0.02416 0.53652 0.0
C1134 C 0.34988 0.08656 0.48733 0.0
C1135 C 0.34421 0.04303 0.51876 0.0
N1136 N 0.39256 0.07371 0.47581 0.0
N1137 N 0.29847 0.04921 0.52071 0.0
H1138 H 0.35808 0.01283 0.54071 0.0
H1139 H 0.32698 0.02096 0.54849 0.0
H1140 H 0.28202 0.05903 0.51669 0.0
H1141 H 0.29447 0.03167 0.52913 0.0
H1142 H 0.3946 0.08695 0.46123 0.0
H1143 H 0.40833 0.0623 0.47754 0.0
H1144 H 0.37132 0.11701 0.47001 0.0
H1145 H 0.33891 0.12247 0.47393 0.0
C1146 C 0.64413 0.44214 0.50403 0.0
C1147 C 0.64617 0.46379 0.52084 0.0
C1148 C 0.69133 0.45576 0.52915 0.0
C1149 C 0.6886 0.43284 0.5142 0.0
N1150 N 0.66153 0.40186 0.4908 0.0
N1151 N 0.67026 0.48976 0.55205 0.0
C1152 C 0.66478 0.42542 0.50244 0.0
C1153 C 0.66938 0.47021 0.53417 0.0
N1154 N 0.62259 0.43783 0.48925 0.0
N1155 N 0.71507 0.46422 0.53767 0.0
H1156 H 0.65475 0.50118 0.55577 0.0
H1157 H 0.68566 0.49351 0.56454 0.0
H1158 H 0.73163 0.45424 0.53421 0.0
H1159 H 0.71878 0.48211 0.54625 0.0
H1160 H 0.6211 0.42405 0.47453 0.0
H1161 H 0.60684 0.4494 0.49029 0.0
H1162 H 0.64385 0.39424 0.48439 0.0
H1163 H 0.67607 0.38886 0.48954 0.0
C1164 C 0.71831 0.2964 0.43778 0.0
C1165 C 0.72672 0.303 0.41274 0.0
C1166 C 0.74768 0.34231 0.4301 0.0
C1167 C 0.74229 0.33403 0.45544 0.0
N1168 N 0.72472 0.30189 0.48382 0.0
N1169 N 0.7518 0.33058 0.38495 0.0
C1170 C 0.72799 0.31082 0.45944 0.0
C1171 C 0.742 0.32556 0.40883 0.0
N1172 N 0.70078 0.27658 0.44077 0.0
N1173 N 0.7573 0.36658 0.4263 0.0
H1174 H 0.74775 0.31899 0.36874 0.0
H1175 H 0.76551 0.34513 0.38159 0.0
H1176 H 0.76092 0.37971 0.44138 0.0
H1177 H 0.7592 0.37456 0.40817 0.0
H1178 H 0.69182 0.2725 0.4582 0.0
H1179 H 0.69348 0.2655 0.42529 0.0
H1180 H 0.71711 0.28373 0.48771 0.0
H1181 H 0.73143 0.31182 0.50024 0.0
C1182 C 0.56744 0.99825 0.86234 0.0
C1183 C 0.54386 0.01059 0.86083 0.0
C1184 C 0.55061 0.0172 0.81469 0.0
C1185 C 0.57556 0.00772 0.81694 0.0
N1186 N 0.60929 0.9922 0.84352 0.0
N1187 N 0.51396 0.03444 0.83658 0.0
C1188 C 0.58437 -0.00117 0.84089 0.0
C1189 C 0.53563 0.02072 0.83724 0.0
N1190 N 0.57347 0.98568 0.88418 0.0
N1191 N 0.54089 0.02198 0.79088 0.0
H1192 H 0.50219 0.03704 0.85258 0.0
H1193 H 0.50864 0.04483 0.82072 0.0
H1194 H 0.55115 0.01921 0.77387 0.0
H1195 H 0.52189 0.02637 0.78773 0.0
H1196 H 0.58906 0.97404 0.8855 0.0
H1197 H 0.56159 0.98508 0.90034 0.0
H1198 H 0.6176 0.98832 0.86117 0.0
H1199 H 0.62242 0.99264 0.82839 0.0
C1200 C 0.26378 0.19087 0.40052 0.0
C1201 C 0.27769 0.21461 0.40308 0.0
C1202 C 0.28172 0.20913 0.44965 0.0
C1203 C 0.26853 0.18499 0.44699 0.0
N1204 N 0.2504 0.15085 0.41984 0.0
N1205 N 0.30357 0.24474 0.42859 0.0
C1206 C 0.26073 0.17517 0.42236 0.0
C1207 C 0.28773 0.22329 0.42725 0.0
N1208 N 0.2526 0.18387 0.37743 0.0
N1209 N 0.28831 0.21859 0.47364 0.0
H1210 H 0.30811 0.25572 0.41258 0.0
H1211 H 0.31378 0.25071 0.44503 0.0
H1212 H 0.28597 0.20806 0.49035 0.0
H1213 H 0.29498 0.23729 0.47728 0.0
H1214 H 0.23967 0.16835 0.37496 0.0
H1215 H 0.25482 0.19463 0.36086 0.0
H1216 H 0.2471 0.14153 0.40216 0.0
H1217 H 0.2467 0.13912 0.43545 0.0
C1218 C 0.42995 0.50143 0.86532 0.0
C1219 C 0.45344 0.48894 0.86301 0.0
C1220 C 0.44587 0.48171 0.81679 0.0
C1221 C 0.42123 0.49186 0.81962 0.0
N1222 N 0.38802 0.50799 0.84708 0.0
N1223 N 0.4824 0.46399 0.83773 0.0
C1224 C 0.41279 0.50093 0.84401 0.0
C1225 C 0.46104 0.47817 0.83906 0.0
N1226 N 0.42432 0.51421 0.88771 0.0
N1227 N 0.45521 0.47645 0.79272 0.0
H1228 H 0.49424 0.46128 0.85356 0.0
H1229 H 0.48728 0.45325 0.82149 0.0
H1230 H 0.44485 0.47923 0.77589 0.0
H1231 H 0.47406 0.4716 0.78925 0.0
H1232 H 0.40889 0.52603 0.88964 0.0
H1233 H 0.43628 0.51467 0.90385 0.0
H1234 H 0.37992 0.51208 0.86495 0.0
H1235 H 0.37478 0.50769 0.83201 0.0
C1236 C 0.71333 0.7265 0.07112 0.0
C1237 C 0.73308 0.72965 0.08987 0.0
C1238 C 0.76153 0.70491 0.06254 0.0
C1239 C 0.74088 0.69932 0.04522 0.0
N1240 N 0.69564 0.70076 0.03561 0.0
N1241 N 0.77429 0.71787 0.10588 0.0
C1242 C 0.71634 0.70906 0.05015 0.0
C1243 C 0.75673 0.7177 0.0863 0.0
N1244 N 0.69201 0.74068 0.07295 0.0
N1245 N 0.78596 0.69902 0.05586 0.0
H1246 H 0.77137 0.72679 0.12373 0.0
H1247 H 0.79063 0.70714 0.10527 0.0
H1248 H 0.7905 0.69045 0.03822 0.0
H1249 H 0.80206 0.70501 0.06664 0.0
H1250 H 0.6783 0.74115 0.05838 0.0
H1251 H 0.68916 0.75377 0.08798 0.0
H1252 H 0.67686 0.70516 0.04012 0.0
H1253 H 0.69683 0.68748 0.02047 0.0
C1254 C 0.93972 0.01811 0.14498 0.0
C1255 C 0.96313 0.03286 0.14531 0.0
C1256 C 0.95697 0.0438 0.19098 0.0
C1257 C 0.93482 0.02716 0.19123 0.0
N1258 N 0.90699 0.99548 0.16975 0.0
N1259 N 0.99603 0.05722 0.16888 0.0
C1260 C 0.92659 0.01357 0.16854 0.0
C1261 C 0.97233 0.04501 0.1684 0.0
N1262 N 0.92985 0.00879 0.12207 0.0
N1263 N 0.96273 0.05924 0.21195 0.0
H1264 H 0.00755 0.05912 0.15255 0.0
H1265 H 0.0051 0.06385 0.18575 0.0
H1266 H 0.95178 0.05911 0.22876 0.0
H1267 H 0.97698 0.07374 0.21196 0.0
H1268 H 0.9115 0.00035 0.12013 0.0
H1269 H 0.93924 0.01127 0.1045 0.0
H1270 H 0.90195 0.98298 0.15456 0.0
H1271 H 0.89702 0.9914 0.18669 0.0
C1272 C 0.27056 0.8195 0.1196 0.0
C1273 C 0.27713 0.79383 0.1152 0.0
C1274 C 0.27614 0.80006 0.06857 0.0
C1275 C 0.27222 0.8264 0.07303 0.0
N1276 N 0.27052 0.86219 0.10294 0.0
N1277 N 0.29082 0.76079 0.08591 0.0
C1278 C 0.2707 0.83642 0.0986 0.0
C1279 C 0.28128 0.78442 0.08978 0.0
N1280 N 0.26349 0.82753 0.1437 0.0
N1281 N 0.27376 0.78968 0.04424 0.0
H1282 H 0.29489 0.74874 0.10095 0.0
H1283 H 0.29687 0.75408 0.06797 0.0
H1284 H 0.26929 0.80027 0.02822 0.0
H1285 H 0.27368 0.77013 0.04032 0.0
H1286 H 0.25581 0.84522 0.14749 0.0
H1287 H 0.26314 0.81568 0.15958 0.0
H1288 H 0.2722 0.87069 0.12123 0.0
H1289 H 0.2712 0.8753 0.08815 0.0
C1290 C 0.04558 0.50601 0.16093 0.0
C1291 C 0.03252 0.48327 0.15193 0.0
C1292 C 0.04998 0.45994 0.18783 0.0
C1293 C 0.06144 0.48308 0.19792 0.0
N1294 N 0.06497 0.52905 0.19743 0.0
N1295 N 0.01734 0.44012 0.15989 0.0
C1296 C 0.05772 0.50642 0.18545 0.0
C1297 C 0.03317 0.46069 0.16637 0.0
N1298 N 0.04726 0.52692 0.14569 0.0
N1299 N 0.05621 0.43709 0.19773 0.0
H1300 H 0.00455 0.44006 0.14442 0.0
H1301 H 0.01511 0.4241 0.17131 0.0
H1302 H 0.06911 0.43549 0.2129 0.0
H1303 H 0.05054 0.41957 0.18926 0.0
H1304 H 0.05892 0.54303 0.15012 0.0
H1305 H 0.03878 0.52737 0.12752 0.0
H1306 H 0.06048 0.54673 0.19036 0.0
H1307 H 0.07314 0.53014 0.2158 0.0
C1308 C 0.42024 0.74103 0.29785 0.0
C1309 C 0.39695 0.72946 0.30683 0.0
C1310 C 0.41631 0.72509 0.34945 0.0
C1311 C 0.43829 0.73963 0.34133 0.0
N1312 N 0.45832 0.76659 0.30933 0.0
N1313 N 0.37106 0.71515 0.34272 0.0
C1314 C 0.43954 0.749 0.31591 0.0
C1315 C 0.39445 0.72279 0.3331 0.0
N1316 N 0.42429 0.74378 0.27203 0.0
N1317 N 0.4166 0.7126 0.37227 0.0
H1318 H 0.35441 0.71381 0.33156 0.0
H1319 H 0.36773 0.71258 0.36231 0.0
H1320 H 0.43256 0.71297 0.3844 0.0
H1321 H 0.40199 0.69973 0.37783 0.0
H1322 H 0.44193 0.74983 0.2644 0.0
H1323 H 0.41089 0.73757 0.25808 0.0
H1324 H 0.45862 0.77579 0.29173 0.0
H1325 H 0.47187 0.77416 0.32246 0.0
C1326 C 0.96604 0.35932 0.9346 0.0
C1327 C 0.98811 0.37482 0.94133 0.0
C1328 C 0.01514 0.34676 0.91583 0.0
C1329 C 0.9928 0.33259 0.90748 0.0
N1330 N 0.9467 0.32763 0.90507 0.0
N1331 N 0.03292 0.38618 0.93503 0.0
C1332 C 0.96813 0.33959 0.91566 0.0
C1333 C 0.0125 0.36935 0.93103 0.0
N1334 N 0.94334 0.36275 0.94709 0.0
N1335 N 0.03886 0.33841 0.90958 0.0
H1336 H 0.03166 0.40302 0.94592 0.0
H1337 H 0.05051 0.38463 0.9258 0.0
H1338 H 0.04151 0.3223 0.89793 0.0
H1339 H 0.05585 0.34631 0.91743 0.0
H1340 H 0.92735 0.35031 0.94501 0.0
H1341 H 0.94107 0.37678 0.96136 0.0
H1342 H 0.92821 0.33374 0.90821 0.0
H1343 H 0.94751 0.31285 0.89137 0.0
C1344 C 0.59285 0.798 0.29146 0.0
C1345 C 0.61175 0.77953 0.28849 0.0
C1346 C 0.58561 0.74936 0.31379 0.0
C1347 C 0.5677 0.76853 0.31848 0.0
N1348 N 0.55714 0.81279 0.31661 0.0
N1349 N 0.62882 0.73965 0.30096 0.0
C1350 C 0.57212 0.79337 0.30868 0.0
C1351 C 0.60896 0.7558 0.30094 0.0
N1352 N 0.59417 0.81956 0.27714 0.0
N1353 N 0.57981 0.72471 0.32039 0.0
H1354 H 0.64626 0.74378 0.2918 0.0
H1355 H 0.6289 0.72332 0.31199 0.0
H1356 H 0.56266 0.719 0.32928 0.0
H1357 H 0.59091 0.70949 0.31491 0.0
H1358 H 0.57941 0.83228 0.27638 0.0
H1359 H 0.60903 0.82369 0.26426 0.0
H1360 H 0.56117 0.8318 0.31222 0.0
H1361 H 0.54213 0.81033 0.32969 0.0
C1362 C 0.99677 0.14391 0.92826 0.0
C1363 C 0.01991 0.14367 0.94261 0.0
C1364 C 0.03629 0.18173 0.92045 0.0
C1365 C 0.0121 0.18357 0.90826 0.0
N1366 N 0.96767 0.16911 0.90418 0.0
N1367 N 0.06007 0.16457 0.95572 0.0
C1368 C 0.99187 0.16534 0.91305 0.0
C1369 C 0.03926 0.1632 0.93964 0.0
N1370 N 0.97976 0.12338 0.92866 0.0
N1371 N 0.05671 0.19701 0.913 0.0
H1372 H 0.06292 0.15141 0.9701 0.0
H1373 H 0.07335 0.17997 0.95631 0.0
H1374 H 0.05547 0.21045 0.8986 0.0
H1375 H 0.07542 0.19468 0.91928 0.0
H1376 H 0.96391 0.12131 0.91645 0.0
H1377 H 0.98269 0.1073 0.93956 0.0
H1378 H 0.95165 0.1579 0.90946 0.0
H1379 H 0.96305 0.18486 0.89349 0.0
C1380 C 0.38907 0.25292 0.18027 0.0
C1381 C 0.39359 0.26774 0.20312 0.0
C1382 C 0.43977 0.26935 0.19456 0.0
C1383 C 0.43508 0.25618 0.17069 0.0
N1384 N 0.40492 0.24021 0.13827 0.0
N1385 N 0.42224 0.29429 0.22969 0.0
C1386 C 0.40961 0.24926 0.16281 0.0
C1387 C 0.41866 0.27727 0.20955 0.0
N1388 N 0.36533 0.24171 0.1756 0.0
N1389 N 0.46429 0.27321 0.20359 0.0
H1390 H 0.40722 0.30044 0.24119 0.0
H1391 H 0.43967 0.30404 0.23356 0.0
H1392 H 0.48036 0.26734 0.19353 0.0
H1393 H 0.46864 0.28011 0.22211 0.0
H1394 H 0.36164 0.22834 0.16079 0.0
H1395 H 0.34969 0.24419 0.18778 0.0
H1396 H 0.38654 0.23738 0.1306 0.0
H1397 H 0.41938 0.23786 0.12467 0.0
C1398 C 0.49682 0.37219 0.07507 0.0
C1399 C 0.51746 0.37316 0.05731 0.0
C1400 C 0.53421 0.33446 0.07528 0.0
C1401 C 0.51232 0.33219 0.09141 0.0
N1402 N 0.47026 0.34603 0.10315 0.0
N1403 N 0.55331 0.35313 0.03718 0.0
C1404 C 0.49292 0.3503 0.09041 0.0
C1405 C 0.53545 0.35366 0.05643 0.0
N1406 N 0.48138 0.39246 0.07779 0.0
N1407 N 0.55432 0.319 0.07871 0.0
H1408 H 0.55484 0.36692 0.02303 0.0
H1409 H 0.56511 0.33789 0.0339 0.0
H1410 H 0.5544 0.30502 0.09267 0.0
H1411 H 0.57189 0.32159 0.0694 0.0
H1412 H 0.46786 0.39403 0.09242 0.0
H1413 H 0.48353 0.40879 0.06676 0.0
H1414 H 0.4544 0.35717 0.10088 0.0
H1415 H 0.46636 0.32994 0.11415 0.0
C1416 C 0.58379 0.21576 0.21015 0.0
C1417 C 0.59913 0.23789 0.21681 0.0
C1418 C 0.56983 0.26415 0.19309 0.0
C1419 C 0.55618 0.24169 0.18412 0.0
N1420 N 0.55388 0.19575 0.17958 0.0
N1421 N 0.60968 0.28253 0.21062 0.0
C1422 C 0.56418 0.21735 0.19139 0.0
C1423 C 0.59302 0.26194 0.20709 0.0
N1424 N 0.58736 0.19336 0.22236 0.0
N1425 N 0.56009 0.28755 0.18939 0.0
H1426 H 0.62699 0.28161 0.22056 0.0
H1427 H 0.60747 0.29986 0.20164 0.0
H1428 H 0.5427 0.29004 0.18004 0.0
H1429 H 0.56793 0.3043 0.19785 0.0
H1430 H 0.57492 0.17739 0.22016 0.0
H1431 H 0.60124 0.19145 0.23657 0.0
H1432 H 0.5609 0.17772 0.18227 0.0
H1433 H 0.54016 0.19611 0.16501 0.0
C1434 C 0.50637 0.141 0.07795 0.0
C1435 C 0.49742 0.14355 0.05236 0.0
C1436 C 0.50108 0.19008 0.05721 0.0
C1437 C 0.50766 0.18749 0.08354 0.0
N1438 N 0.51168 0.16069 0.12035 0.0
N1439 N 0.482 0.17011 0.01883 0.0
C1440 C 0.50903 0.16299 0.09431 0.0
C1441 C 0.49356 0.168 0.0423 0.0
N1442 N 0.51293 0.11768 0.0864 0.0
N1443 N 0.50302 0.21348 0.04616 0.0
H1444 H 0.47628 0.15437 0.00729 0.0
H1445 H 0.47611 0.18734 0.01178 0.0
H1446 H 0.50879 0.23011 0.05633 0.0
H1447 H 0.50118 0.21612 0.02642 0.0
H1448 H 0.52216 0.11512 0.10391 0.0
H1449 H 0.51122 0.1011 0.07496 0.0
H1450 H 0.51018 0.14331 0.12962 0.0
H1451 H 0.51283 0.17638 0.13303 0.0
C1452 C 0.31811 0.40723 0.73747 0.0
C1453 C 0.29229 0.40828 0.72915 0.0
C1454 C 0.29726 0.45471 0.72602 0.0
C1455 C 0.32377 0.45333 0.73175 0.0
N1456 N 0.36055 0.42774 0.73802 0.0
N1457 N 0.25839 0.43219 0.71106 0.0
C1458 C 0.33453 0.42943 0.73618 0.0
C1459 C 0.28215 0.4318 0.72214 0.0
N1460 N 0.32676 0.38522 0.74728 0.0
N1461 N 0.28623 0.47786 0.72542 0.0
H1462 H 0.24673 0.4158 0.70783 0.0
H1463 H 0.2512 0.44842 0.703 0.0
H1464 H 0.29649 0.49511 0.72863 0.0
H1465 H 0.2665 0.47986 0.72415 0.0
H1466 H 0.34456 0.38412 0.7562 0.0
H1467 H 0.31525 0.36855 0.74864 0.0
H1468 H 0.3696 0.41046 0.73853 0.0
H1469 H 0.37332 0.44344 0.73646 0.0
C1470 C 0.31147 0.61211 0.7822 0.0
C1471 C 0.28462 0.60737 0.78455 0.0
C1472 C 0.2904 0.56141 0.78039 0.0
C1473 C 0.31741 0.56608 0.78088 0.0
N1474 N 0.35372 0.59564 0.78742 0.0
N1475 N 0.24865 0.5776 0.79022 0.0
C1476 C 0.328 0.59139 0.78316 0.0
C1477 C 0.27408 0.58202 0.78486 0.0
N1478 N 0.32115 0.63634 0.77836 0.0
N1479 N 0.28029 0.53752 0.77453 0.0
H1480 H 0.23606 0.59221 0.79359 0.0
H1481 H 0.24052 0.55949 0.7935 0.0
H1482 H 0.29156 0.52197 0.77061 0.0
H1483 H 0.26082 0.53361 0.77115 0.0
H1484 H 0.34028 0.64052 0.77378 0.0
H1485 H 0.30962 0.65205 0.77735 0.0
H1486 H 0.36204 0.61358 0.79192 0.0
H1487 H 0.36644 0.58097 0.78903 0.0
C1488 C 0.86862 0.42979 0.52028 0.0
C1489 C 0.86832 0.44396 0.49735 0.0
C1490 C 0.82671 0.42359 0.48559 0.0
C1491 C 0.82565 0.41171 0.50992 0.0
N1492 N 0.84351 0.40743 0.55252 0.0
N1493 N 0.84539 0.45769 0.46009 0.0
C1494 C 0.84609 0.41577 0.52784 0.0
C1495 C 0.84689 0.44179 0.4805 0.0
N1496 N 0.89062 0.42929 0.53457 0.0
N1497 N 0.8091 0.41673 0.4669 0.0
H1498 H 0.8598 0.47126 0.45565 0.0
H1499 H 0.82892 0.45894 0.4489 0.0
H1500 H 0.79433 0.40307 0.46957 0.0
H1501 H 0.81058 0.42274 0.44795 0.0
H1502 H 0.89277 0.41716 0.54995 0.0
H1503 H 0.90754 0.43929 0.52958 0.0
H1504 H 0.85671 0.41221 0.56709 0.0
H1505 H 0.82698 0.39788 0.55921 0.0
C1506 C 0.69157 0.89319 0.77577 0.0
C1507 C 0.71808 0.89934 0.77943 0.0
C1508 C 0.70973 0.94488 0.77891 0.0
C1509 C 0.68298 0.93869 0.77771 0.0
N1510 N 0.64816 0.90706 0.78052 0.0
N1511 N 0.75211 0.93067 0.78898 0.0
C1512 C 0.67379 0.91285 0.77765 0.0
C1513 C 0.7271 0.92511 0.78231 0.0
N1514 N 0.68343 0.86868 0.76973 0.0
N1515 N 0.71867 0.96946 0.77561 0.0
H1516 H 0.76543 0.91668 0.79155 0.0
H1517 H 0.7591 0.94897 0.7941 0.0
H1518 H 0.70666 0.9845 0.77272 0.0
H1519 H 0.73804 0.97459 0.77341 0.0
H1520 H 0.66469 0.86362 0.7641 0.0
H1521 H 0.69587 0.8537 0.76804 0.0
H1522 H 0.6407 0.88861 0.78332 0.0
H1523 H 0.63454 0.92091 0.78274 0.0
C1524 C 0.66933 0.55337 0.98476 0.0
C1525 C 0.64483 0.56236 0.99114 0.0
C1526 C 0.66445 0.60373 0.00462 0.0
C1527 C 0.68908 0.59381 0.00086 0.0
N1528 N 0.71523 0.55792 0.99151 0.0
N1529 N 0.61893 0.59458 0.01045 0.0
C1530 C 0.69163 0.56829 0.99194 0.0
C1531 C 0.64232 0.58715 0.00198 0.0
N1532 N 0.67123 0.5308 0.97138 0.0
N1533 N 0.66214 0.62921 0.00966 0.0
H1534 H 0.6022 0.58308 0.00853 0.0
H1535 H 0.61641 0.61129 0.02117 0.0
H1536 H 0.67788 0.64207 0.01128 0.0
H1537 H 0.64463 0.63802 0.00988 0.0
H1538 H 0.68839 0.52459 0.96376 0.0
H1539 H 0.65528 0.51926 0.96591 0.0
H1540 H 0.71795 0.53864 0.98783 0.0
H1541 H 0.73198 0.56805 0.9972 0.0
C1542 C 0.20541 0.57988 0.21194 0.0
C1543 C 0.20569 0.59992 0.23076 0.0
C1544 C 0.17119 0.57762 0.2545 0.0
C1545 C 0.16918 0.559 0.23431 0.0
N1546 N 0.18235 0.54311 0.19266 0.0
N1547 N 0.18707 0.61985 0.26823 0.0
C1548 C 0.18574 0.56032 0.21268 0.0
C1549 C 0.18818 0.59928 0.25168 0.0
N1550 N 0.22444 0.57918 0.19385 0.0
N1551 N 0.157 0.57445 0.27643 0.0
H1552 H 0.19926 0.63603 0.26686 0.0
H1553 H 0.17285 0.6218 0.2821 0.0
H1554 H 0.14385 0.55917 0.27886 0.0
H1555 H 0.15963 0.58583 0.29299 0.0
H1556 H 0.22692 0.56376 0.18129 0.0
H1557 H 0.23916 0.59319 0.19275 0.0
H1558 H 0.19173 0.5448 0.17505 0.0
H1559 H 0.16884 0.52788 0.193 0.0
C1560 C 0.83839 0.54556 0.00612 0.0
C1561 C 0.86344 0.55702 0.00451 0.0
C1562 C 0.84562 0.59762 0.99275 0.0
C1563 C 0.82074 0.58558 0.99239 0.0
N1564 N 0.79324 0.54768 0.99564 0.0
N1565 N 0.89166 0.59261 0.99335 0.0
C1566 C 0.81707 0.55939 0.99812 0.0
C1567 C 0.86729 0.58274 0.99712 0.0
N1568 N 0.83496 0.52175 0.01609 0.0
N1569 N 0.84849 0.6233 0.98903 0.0
H1570 H 0.90799 0.58237 0.9967 0.0
H1571 H 0.89579 0.61024 0.98519 0.0
H1572 H 0.83325 0.6346 0.98442 0.0
H1573 H 0.86566 0.63378 0.99203 0.0
H1574 H 0.81708 0.5134 0.02043 0.0
H1575 H 0.85015 0.511 0.02205 0.0
H1576 H 0.7898 0.52805 0.99659 0.0
H1577 H 0.77696 0.5574 0.99083 0.0
C1578 C 0.16794 0.96839 0.02798 0.0
C1579 C 0.14481 0.9629 0.01418 0.0
C1580 C 0.16232 0.92393 0.99584 0.0
C1581 C 0.18614 0.93045 0.00805 0.0
N1582 N 0.21318 0.96056 0.03252 0.0
N1583 N 0.12071 0.93773 0.98235 0.0
C1584 C 0.18938 0.95311 0.02334 0.0
C1585 C 0.14223 0.94133 0.99729 0.0
N1586 N 0.16923 0.98794 0.04586 0.0
N1587 N 0.15854 0.9006 0.98386 0.0
H1588 H 0.10525 0.94966 0.98345 0.0
H1589 H 0.11893 0.92408 0.96752 0.0
H1590 H 0.17269 0.88718 0.98263 0.0
H1591 H 0.14078 0.89357 0.97707 0.0
H1592 H 0.18446 0.99109 0.05868 0.0
H1593 H 0.15419 5e-05 0.0492 0.0
H1594 H 0.21742 0.97825 0.04132 0.0
H1595 H 0.22936 0.94989 0.0295 0.0
loop_
_geom_bond_atom_site_label_1
_geom_bond_atom_site_label_2
_geom_bond_distance
_geom_bond_site_symmetry_2
_ccdc_geom_bond_type
C0 C1 1.384 . S
C0 H13 0.947 . S
C0 C35 1.382 . S
C1 C0 1.384 . S
C1 C2 1.378 . S
C2 C1 1.378 . S
C2 C3 1.378 1_655 S
C2 H14 0.952 . S
C3 C2 1.378 1_455 S
C3 H15 0.950 . S
C3 C34 1.383 . S
H4 C23 0.947 . S
H5 C24 0.946 . S
H6 C26 0.956 . S
H7 C27 0.945 . S
H8 C29 0.952 . S
H9 C30 0.949 . S
H10 C32 0.950 1_655 S
H11 C33 0.948 . S
H12 C35 0.951 . S
H13 C0 0.947 . S
H14 C2 0.952 . S
H15 C3 0.950 . S
N16 C19 1.382 . S
N16 C21 1.363 . S
N17 C19 1.371 . S
N17 C20 1.372 . S
N18 C20 1.361 . S
N18 C21 1.377 . S
C19 N16 1.382 . S
C19 N17 1.371 . S
C19 C22 1.480 . S
C20 N17 1.372 . S
C20 N18 1.361 . S
C20 C28 1.457 . S
C21 N16 1.363 . S
C21 N18 1.377 . S
C21 C34 1.479 . S
C22 C19 1.480 . S
C22 C23 1.383 1_545 S
C22 C27 1.385 . S
C23 H4 0.947 . S
C23 C22 1.383 1_565 S
C23 C24 1.388 . S
C24 H5 0.946 . S
C24 C23 1.388 . S
C24 C25 1.384 . S
C25 C24 1.384 . S
C25 C26 1.377 1_565 S
C26 H6 0.956 . S
C26 C25 1.377 1_545 S
C26 C27 1.369 . S
C27 H7 0.945 . S
C27 C22 1.385 . S
C27 C26 1.369 . S
C28 C20 1.457 . S
C28 C29 1.372 1_554 S
C28 C33 1.364 . S
C29 H8 0.952 . S
C29 C28 1.372 1_556 S
C29 C30 1.389 . S
C30 H9 0.949 . S
C30 C29 1.389 . S
C30 C31 1.387 . S
C31 C30 1.387 . S
C31 C32 1.372 1_556 S
C32 H10 0.950 1_455 S
C32 C31 1.372 1_554 S
C32 C33 1.379 . S
C33 H11 0.948 . S
C33 C28 1.364 . S
C33 C32 1.379 . S
C34 C3 1.383 . S
C34 C21 1.479 . S
C34 C35 1.398 1_455 S
C35 C0 1.382 . S
C35 H12 0.951 . S
C35 C34 1.398 1_655 S
C36 C37 1.384 . S
C36 H49 0.947 . S
C36 C71 1.382 . S
C37 C36 1.384 . S
C37 C38 1.378 . S
C38 C37 1.378 . S
C38 C39 1.378 . S
C38 H50 0.952 . S
C39 C38 1.378 . S
C39 H51 0.950 . S
C39 C70 1.383 . S
H40 C59 0.947 . S
H41 C60 0.946 . S
H42 C62 0.953 . S
H43 C63 0.945 . S
H44 C65 0.952 . S
H45 C66 0.949 . S
H46 C68 0.950 . S
H47 C69 0.948 . S
H48 C71 0.951 . S
H49 C36 0.947 . S
H50 C38 0.952 . S
H51 C39 0.950 . S
N52 C55 1.382 . S
N52 C57 1.363 . S
N53 C55 1.371 . S
N53 C56 1.372 . S
N54 C56 1.361 . S
N54 C57 1.377 . S
C55 N52 1.382 . S
C55 N53 1.371 . S
C55 C58 1.480 . S
C56 N53 1.372 . S
C56 N54 1.361 . S
C56 C64 1.457 . S
C57 N52 1.363 . S
C57 N54 1.377 . S
C57 C70 1.479 . S
C58 C55 1.480 . S
C58 C59 1.383 . S
C58 C63 1.385 . S
C59 H40 0.947 . S
C59 C58 1.383 . S
C59 C60 1.388 . S
C60 H41 0.946 . S
C60 C59 1.388 . S
C60 C61 1.384 . S
C61 C60 1.384 . S
C61 C62 1.377 . S
C62 H42 0.953 . S
C62 C61 1.377 . S
C62 C63 1.369 . S
C63 H43 0.945 . S
C63 C58 1.385 . S
C63 C62 1.369 . S
C64 C56 1.457 . S
C64 C65 1.372 . S
C64 C69 1.364 . S
C65 H44 0.952 . S
C65 C64 1.372 . S
C65 C66 1.389 . S
C66 H45 0.949 . S
C66 C65 1.389 . S
C66 C67 1.387 . S
C67 C66 1.387 . S
C67 C68 1.372 . S
C68 H46 0.950 . S
C68 C67 1.372 . S
C68 C69 1.379 . S
C69 H47 0.948 . S
C69 C64 1.364 . S
C69 C68 1.379 . S
C70 C39 1.383 . S
C70 C57 1.479 . S
C70 C71 1.398 . S
C71 C36 1.382 . S
C71 H48 0.951 . S
C71 C70 1.398 . S
C72 C73 1.384 . S
C72 H85 0.947 1_655 S
C72 C107 1.382 1_556 S
C73 C72 1.384 . S
C73 C74 1.378 . S
C74 C73 1.378 . S
C74 C75 1.378 . S
C74 H86 0.952 . S
C75 C74 1.378 . S
C75 H87 0.950 . S
C75 C106 1.363 1_556 S
H76 C95 0.947 1_556 S
H77 C96 0.946 1_556 S
H78 C98 0.953 . S
H79 C99 0.945 . S
H80 C101 0.952 . S
H81 C102 0.949 . S
H82 C104 0.950 . S
H83 C105 0.948 . S
H84 C107 0.951 1_455 S
H85 C72 0.947 1_455 S
H86 C74 0.952 . S
H87 C75 0.950 . S
N88 C91 1.382 . S
N88 C93 1.363 . S
N89 C91 1.371 . S
N89 C92 1.372 . S
N90 C92 1.361 . S
N90 C93 1.377 . S
C91 N88 1.382 . S
C91 N89 1.371 . S
C91 C94 1.480 . S
C92 N89 1.372 . S
C92 N90 1.361 . S
C92 C100 1.457 1_655 S
C93 N88 1.363 . S
C93 N90 1.377 . S
C93 C106 1.494 . S
C94 C91 1.480 . S
C94 C95 1.383 . S
C94 C99 1.385 . S
C95 H76 0.947 1_554 S
C95 C94 1.383 . S
C95 C96 1.388 . S
C96 H77 0.946 1_554 S
C96 C95 1.388 . S
C96 C97 1.384 . S
C97 C96 1.384 . S
C97 C98 1.377 . S
C98 H78 0.953 . S
C98 C97 1.377 . S
C98 C99 1.369 . S
C99 H79 0.945 . S
C99 C94 1.385 . S
C99 C98 1.369 . S
C100 C92 1.457 1_455 S
C100 C101 1.372 1_455 S
C100 C105 1.364 . S
C101 H80 0.952 . S
C101 C100 1.372 1_655 S
C101 C102 1.389 1_655 S
C102 H81 0.949 . S
C102 C101 1.389 1_455 S
C102 C103 1.387 . S
C103 C102 1.387 . S
C103 C104 1.372 . S
C104 H82 0.950 . S
C104 C103 1.372 . S
C104 C105 1.379 . S
C105 H83 0.948 . S
C105 C100 1.364 . S
C105 C104 1.379 . S
C106 C75 1.363 1_554 S
C106 C93 1.494 . S
C106 C107 1.404 . S
C107 C72 1.382 1_554 S
C107 H84 0.951 1_655 S
C107 C106 1.404 . S
C108 C109 1.384 . S
C108 H121 0.947 . S
C108 C143 1.382 . S
C109 C108 1.384 . S
C109 C110 1.378 . S
C110 C109 1.378 . S
C110 C111 1.378 . S
C110 H122 0.952 . S
C111 C110 1.378 . S
C111 H123 0.950 . S
C111 C142 1.383 . S
H112 C131 0.947 . S
H113 C132 0.946 . S
H114 C134 0.953 . S
H115 C135 0.945 . S
H116 C137 0.952 . S
H117 C138 0.949 . S
H118 C140 0.950 . S
H119 C141 0.948 . S
H120 C143 0.951 . S
H121 C108 0.947 . S
H122 C110 0.952 . S
H123 C111 0.950 . S
N124 C127 1.382 . S
N124 C129 1.363 . S
N125 C127 1.371 . S
N125 C128 1.372 . S
N126 C128 1.361 . S
N126 C129 1.377 . S
C127 N124 1.382 . S
C127 N125 1.371 . S
C127 C130 1.480 . S
C128 N125 1.372 . S
C128 N126 1.361 . S
C128 C136 1.457 . S
C129 N124 1.363 . S
C129 N126 1.377 . S
C129 C142 1.479 . S
C130 C127 1.480 . S
C130 C131 1.383 . S
C130 C135 1.385 . S
C131 H112 0.947 . S
C131 C130 1.383 . S
C131 C132 1.388 . S
C132 H113 0.946 . S
C132 C131 1.388 . S
C132 C133 1.384 . S
C133 C132 1.384 . S
C133 C134 1.377 . S
C134 H114 0.953 . S
C134 C133 1.377 . S
C134 C135 1.369 . S
C135 H115 0.945 . S
C135 C130 1.385 . S
C135 C134 1.369 . S
C136 C128 1.457 . S
C136 C137 1.372 . S
C136 C141 1.364 . S
C137 H116 0.952 . S
C137 C136 1.372 . S
C137 C138 1.389 . S
C138 H117 0.949 . S
C138 C137 1.389 . S
C138 C139 1.387 . S
C139 C138 1.387 . S
C139 C140 1.372 . S
C140 H118 0.950 . S
C140 C139 1.372 . S
C140 C141 1.379 . S
C141 H119 0.948 . S
C141 C136 1.364 . S
C141 C140 1.379 . S
C142 C111 1.383 . S
C142 C129 1.479 . S
C142 C143 1.398 . S
C143 C108 1.382 . S
C143 H120 0.951 . S
C143 C142 1.398 . S
C144 C145 1.384 . S
C144 H157 0.947 . S
C144 C179 1.382 . S
C145 C144 1.384 . S
C145 C146 1.378 . S
C146 C145 1.378 . S
C146 C147 1.378 . S
C146 H158 0.952 1_455 S
C147 C146 1.378 . S
C147 H159 0.950 . S
C147 C178 1.383 . S
H148 C167 0.947 . S
H149 C168 0.946 . S
H150 C170 0.958 . S
H151 C171 0.945 1_545 S
H152 C173 0.952 . S
H153 C174 0.949 . S
H154 C176 0.950 . S
H155 C177 0.948 . S
H156 C179 0.951 . S
H157 C144 0.947 . S
H158 C146 0.952 1_655 S
H159 C147 0.950 . S
N160 C163 1.382 . S
N160 C165 1.363 . S
N161 C163 1.371 . S
N161 C164 1.372 . S
N162 C164 1.361 . S
N162 C165 1.377 . S
C163 N160 1.382 . S
C163 N161 1.371 . S
C163 C166 1.480 . S
C164 N161 1.372 . S
C164 N162 1.361 . S
C164 C172 1.457 1_565 S
C165 N160 1.363 . S
C165 N162 1.377 . S
C165 C178 1.479 . S
C166 C163 1.480 . S
C166 C167 1.383 1_455 S
C166 C171 1.385 . S
C167 H148 0.947 . S
C167 C166 1.383 1_655 S
C167 C168 1.388 . S
C168 H149 0.946 . S
C168 C167 1.388 . S
C168 C169 1.384 . S
C169 C168 1.384 . S
C169 C170 1.377 1_565 S
C170 H150 0.958 . S
C170 C169 1.377 1_545 S
C170 C171 1.369 1_645 S
C171 H151 0.945 1_565 S
C171 C166 1.385 . S
C171 C170 1.369 1_465 S
C172 C164 1.457 1_545 S
C172 C173 1.372 . S
C172 C177 1.364 1_545 S
C173 H152 0.952 . S
C173 C172 1.372 . S
C173 C174 1.389 . S
C174 H153 0.949 . S
C174 C173 1.389 . S
C174 C175 1.387 . S
C175 C174 1.387 . S
C175 C176 1.372 . S
C176 H154 0.950 . S
C176 C175 1.372 . S
C176 C177 1.379 1_545 S
C177 H155 0.948 . S
C177 C172 1.364 1_565 S
C177 C176 1.379 1_565 S
C178 C147 1.383 . S
C178 C165 1.479 . S
C178 C179 1.398 . S
C179 C144 1.382 . S
C179 H156 0.951 . S
C179 C178 1.398 . S
C180 C181 1.384 . S
C180 H193 0.947 . S
C180 C215 1.382 . S
C181 C180 1.384 . S
C181 C182 1.378 . S
C182 C181 1.378 . S
C182 C183 1.378 . S
C182 H194 0.952 . S
C183 C182 1.378 . S
C183 H195 0.950 . S
C183 C214 1.383 . S
H184 C203 0.947 . S
H185 C204 0.946 . S
H186 C206 0.953 . S
H187 C207 0.945 . S
H188 C209 0.952 . S
H189 C210 0.949 . S
H190 C212 0.950 . S
H191 C213 0.948 . S
H192 C215 0.951 . S
H193 C180 0.947 . S
H194 C182 0.952 . S
H195 C183 0.950 . S
N196 C199 1.382 . S
N196 C201 1.363 . S
N197 C199 1.371 . S
N197 C200 1.372 . S
N198 C200 1.361 . S
N198 C201 1.377 . S
C199 N196 1.382 . S
C199 N197 1.371 . S
C199 C202 1.480 . S
C200 N197 1.372 . S
C200 N198 1.361 . S
C200 C208 1.457 . S
C201 N196 1.363 . S
C201 N198 1.377 . S
C201 C214 1.479 . S
C202 C199 1.480 . S
C202 C203 1.383 . S
C202 C207 1.385 . S
C203 H184 0.947 . S
C203 C202 1.383 . S
C203 C204 1.388 . S
C204 H185 0.946 . S
C204 C203 1.388 . S
C204 C205 1.384 . S
C205 C204 1.384 . S
C205 C206 1.377 . S
C206 H186 0.953 . S
C206 C205 1.377 . S
C206 C207 1.369 . S
C207 H187 0.945 . S
C207 C202 1.385 . S
C207 C206 1.369 . S
C208 C200 1.457 . S
C208 C209 1.372 . S
C208 C213 1.364 . S
C209 H188 0.952 . S
C209 C208 1.372 . S
C209 C210 1.389 . S
C210 H189 0.949 . S
C210 C209 1.389 . S
C210 C211 1.387 . S
C211 C210 1.387 . S
C211 C212 1.372 . S
C212 H190 0.950 . S
C212 C211 1.372 . S
C212 C213 1.379 . S
C213 H191 0.948 . S
C213 C208 1.364 . S
C213 C212 1.379 . S
C214 C183 1.383 . S
C214 C201 1.479 . S
C214 C215 1.398 . S
C215 C180 1.382 . S
C215 H192 0.951 . S
C215 C214 1.398 . S
C216 C217 1.407 . S
C216 H229 0.920 1_655 S
C216 C251 1.388 . S
C217 C216 1.407 . S
C217 C218 1.378 . S
C218 C217 1.378 . S
C218 C219 1.378 . S
C218 H230 0.952 . S
C219 C218 1.378 . S
C219 H231 0.950 . S
C219 C250 1.383 . S
H220 C239 0.947 . S
H221 C240 0.946 . S
H222 C242 0.953 . S
H223 C243 0.945 . S
H224 C245 0.952 . S
H225 C246 0.949 . S
H226 C248 0.950 . S
H227 C249 0.948 . S
H228 C251 0.951 1_455 S
H229 C216 0.920 1_455 S
H230 C218 0.952 . S
H231 C219 0.950 . S
N232 C235 1.382 . S
N232 C237 1.363 . S
N233 C235 1.371 . S
N233 C236 1.372 . S
N234 C236 1.361 . S
N234 C237 1.377 . S
C235 N232 1.382 . S
C235 N233 1.371 . S
C235 C238 1.480 . S
C236 N233 1.372 . S
C236 N234 1.361 . S
C236 C244 1.457 1_655 S
C237 N232 1.363 . S
C237 N234 1.377 . S
C237 C250 1.479 . S
C238 C235 1.480 . S
C238 C239 1.383 . S
C238 C243 1.385 . S
C239 H220 0.947 . S
C239 C238 1.383 . S
C239 C240 1.388 . S
C240 H221 0.946 . S
C240 C239 1.388 . S
C240 C241 1.384 . S
C241 C240 1.384 . S
C241 C242 1.377 . S
C242 H222 0.953 . S
C242 C241 1.377 . S
C242 C243 1.369 . S
C243 H223 0.945 . S
C243 C238 1.385 . S
C243 C242 1.369 . S
C244 C236 1.457 1_455 S
C244 C245 1.372 1_455 S
C244 C249 1.364 . S
C245 H224 0.952 . S
C245 C244 1.372 1_655 S
C245 C246 1.389 1_655 S
C246 H225 0.949 . S
C246 C245 1.389 1_455 S
C246 C247 1.387 . S
C247 C246 1.387 . S
C247 C248 1.372 . S
C248 H226 0.950 . S
C248 C247 1.372 . S
C248 C249 1.379 . S
C249 H227 0.948 . S
C249 C244 1.364 . S
C249 C248 1.379 . S
C250 C219 1.383 . S
C250 C237 1.479 . S
C250 C251 1.398 . S
C251 C216 1.388 . S
C251 H228 0.951 1_655 S
C251 C250 1.398 . S
C252 C253 1.384 . S
C252 H265 0.947 . S
C252 C287 1.382 . S
C253 C252 1.384 . S
C253 C254 1.378 . S
C254 C253 1.378 . S
C254 C255 1.378 . S
C254 H266 0.952 . S
C255 C254 1.378 . S
C255 H267 0.950 . S
C255 C286 1.383 . S
H256 C275 0.947 . S
H257 C276 0.946 . S
H258 C278 0.953 . S
H259 C279 0.945 . S
H260 C281 0.952 . S
H261 C282 0.949 . S
H262 C284 0.950 . S
H263 C285 0.948 . S
H264 C287 0.951 . S
H265 C252 0.947 . S
H266 C254 0.952 . S
H267 C255 0.950 . S
N268 C271 1.382 . S
N268 C273 1.363 . S
N269 C271 1.371 . S
N269 C272 1.372 . S
N270 C272 1.361 . S
N270 C273 1.377 . S
C271 N268 1.382 . S
C271 N269 1.371 . S
C271 C274 1.480 . S
C272 N269 1.372 . S
C272 N270 1.361 . S
C272 C280 1.457 . S
C273 N268 1.363 . S
C273 N270 1.377 . S
C273 C286 1.479 . S
C274 C271 1.480 . S
C274 C275 1.383 . S
C274 C279 1.385 . S
C275 H256 0.947 . S
C275 C274 1.383 . S
C275 C276 1.388 . S
C276 H257 0.946 . S
C276 C275 1.388 . S
C276 C277 1.384 . S
C277 C276 1.384 . S
C277 C278 1.377 . S
C278 H258 0.953 . S
C278 C277 1.377 . S
C278 C279 1.369 . S
C279 H259 0.945 . S
C279 C274 1.385 . S
C279 C278 1.369 . S
C280 C272 1.457 . S
C280 C281 1.372 . S
C280 C285 1.364 . S
C281 H260 0.952 . S
C281 C280 1.372 . S
C281 C282 1.389 . S
C282 H261 0.949 . S
C282 C281 1.389 . S
C282 C283 1.387 . S
C283 C282 1.387 . S
C283 C284 1.372 . S
C284 H262 0.950 . S
C284 C283 1.372 . S
C284 C285 1.379 . S
C285 H263 0.948 . S
C285 C280 1.364 . S
C285 C284 1.379 . S
C286 C255 1.383 . S
C286 C273 1.479 . S
C286 C287 1.398 . S
C287 C252 1.382 . S
C287 H264 0.951 . S
C287 C286 1.398 . S
C288 C289 1.384 . S
C288 H301 0.947 . S
C288 C323 1.382 . S
C289 C288 1.384 . S
C289 C290 1.378 . S
C290 C289 1.378 . S
C290 C291 1.378 . S
C290 H302 0.952 . S
C291 C290 1.378 . S
C291 H303 0.950 . S
C291 C322 1.383 . S
H292 C311 0.947 . S
H293 C312 0.946 . S
H294 C314 0.953 . S
H295 C315 0.945 . S
H296 C317 0.952 . S
H297 C318 0.949 . S
H298 C320 0.950 . S
H299 C321 0.948 . S
H300 C323 0.951 . S
H301 C288 0.947 . S
H302 C290 0.952 . S
H303 C291 0.950 . S
N304 C307 1.382 . S
N304 C309 1.363 . S
N305 C307 1.371 . S
N305 C308 1.372 . S
N306 C308 1.361 . S
N306 C309 1.377 . S
C307 N304 1.382 . S
C307 N305 1.371 . S
C307 C310 1.480 . S
C308 N305 1.372 . S
C308 N306 1.361 . S
C308 C316 1.457 . S
C309 N304 1.363 . S
C309 N306 1.377 . S
C309 C322 1.479 . S
C310 C307 1.480 . S
C310 C311 1.383 . S
C310 C315 1.385 . S
C311 H292 0.947 . S
C311 C310 1.383 . S
C311 C312 1.388 . S
C312 H293 0.946 . S
C312 C311 1.388 . S
C312 C313 1.384 . S
C313 C312 1.384 . S
C313 C314 1.377 . S
C314 H294 0.953 . S
C314 C313 1.377 . S
C314 C315 1.369 . S
C315 H295 0.945 . S
C315 C310 1.385 . S
C315 C314 1.369 . S
C316 C308 1.457 . S
C316 C317 1.372 . S
C316 C321 1.364 . S
C317 H296 0.952 . S
C317 C316 1.372 . S
C317 C318 1.389 . S
C318 H297 0.949 . S
C318 C317 1.389 . S
C318 C319 1.387 . S
C319 C318 1.387 . S
C319 C320 1.372 . S
C320 H298 0.950 . S
C320 C319 1.372 . S
C320 C321 1.379 . S
C321 H299 0.948 . S
C321 C316 1.364 . S
C321 C320 1.379 . S
C322 C291 1.383 . S
C322 C309 1.479 . S
C322 C323 1.398 . S
C323 C288 1.382 . S
C323 H300 0.951 . S
C323 C322 1.398 . S
C324 C325 1.384 . S
C324 H337 0.947 . S
C324 C359 1.382 . S
C325 C324 1.384 . S
C325 C326 1.378 . S
C326 C325 1.378 . S
C326 C327 1.378 . S
C326 H338 0.952 . S
C327 C326 1.378 . S
C327 H339 0.950 . S
C327 C358 1.383 . S
H328 C347 0.947 . S
H329 C348 0.946 . S
H330 C350 0.953 . S
H331 C351 0.945 . S
H332 C353 0.952 1_545 S
H333 C354 0.949 1_545 S
H334 C356 0.950 . S
H335 C357 0.948 . S
H336 C359 0.951 . S
H337 C324 0.947 . S
H338 C326 0.952 . S
H339 C327 0.950 . S
N340 C343 1.382 . S
N340 C345 1.363 . S
N341 C343 1.371 . S
N341 C344 1.372 . S
N342 C344 1.361 . S
N342 C345 1.377 . S
C343 N340 1.382 . S
C343 N341 1.371 . S
C343 C346 1.480 1_565 S
C344 N341 1.372 . S
C344 N342 1.361 . S
C344 C352 1.457 . S
C345 N340 1.363 . S
C345 N342 1.377 . S
C345 C358 1.479 . S
C346 C343 1.480 1_545 S
C346 C347 1.383 1_545 S
C346 C351 1.385 . S
C347 H328 0.947 . S
C347 C346 1.383 1_565 S
C347 C348 1.388 1_565 S
C348 H329 0.946 . S
C348 C347 1.388 1_545 S
C348 C349 1.384 . S
C349 C348 1.384 . S
C349 C350 1.377 . S
C350 H330 0.953 . S
C350 C349 1.377 . S
C350 C351 1.369 . S
C351 H331 0.945 . S
C351 C346 1.385 . S
C351 C350 1.369 . S
C352 C344 1.457 . S
C352 C353 1.372 . S
C352 C357 1.364 . S
C353 H332 0.952 1_565 S
C353 C352 1.372 . S
C353 C354 1.389 . S
C354 H333 0.949 1_565 S
C354 C353 1.389 . S
C354 C355 1.387 . S
C355 C354 1.387 . S
C355 C356 1.372 . S
C356 H334 0.950 . S
C356 C355 1.372 . S
C356 C357 1.379 . S
C357 H335 0.948 . S
C357 C352 1.364 . S
C357 C356 1.379 . S
C358 C327 1.383 . S
C358 C345 1.479 . S
C358 C359 1.398 . S
C359 C324 1.382 . S
C359 H336 0.951 . S
C359 C358 1.398 . S
C360 C361 1.384 . S
C360 H373 0.947 . S
C360 C395 1.382 . S
C361 C360 1.384 . S
C361 C362 1.378 . S
C362 C361 1.378 . S
C362 C363 1.378 . S
C362 H374 0.952 . S
C363 C362 1.378 . S
C363 H375 0.950 . S
C363 C394 1.383 . S
H364 C383 0.947 . S
H365 C384 0.946 . S
H366 C386 0.953 . S
H367 C387 0.945 . S
H368 C389 0.952 . S
H369 C390 0.949 . S
H370 C392 0.950 . S
H371 C393 0.948 . S
H372 C395 0.951 . S
H373 C360 0.947 . S
H374 C362 0.952 . S
H375 C363 0.950 . S
N376 C379 1.382 . S
N376 C381 1.363 . S
N377 C379 1.371 . S
N377 C380 1.372 . S
N378 C380 1.361 . S
N378 C381 1.377 . S
C379 N376 1.382 . S
C379 N377 1.371 . S
C379 C382 1.480 . S
C380 N377 1.372 . S
C380 N378 1.361 . S
C380 C388 1.457 . S
C381 N376 1.363 . S
C381 N378 1.377 . S
C381 C394 1.479 . S
C382 C379 1.480 . S
C382 C383 1.383 . S
C382 C387 1.385 . S
C383 H364 0.947 . S
C383 C382 1.383 . S
C383 C384 1.388 . S
C384 H365 0.946 . S
C384 C383 1.388 . S
C384 C385 1.384 . S
C385 C384 1.384 . S
C385 C386 1.377 . S
C386 H366 0.953 . S
C386 C385 1.377 . S
C386 C387 1.369 . S
C387 H367 0.945 . S
C387 C382 1.385 . S
C387 C386 1.369 . S
C388 C380 1.457 . S
C388 C389 1.372 . S
C388 C393 1.364 . S
C389 H368 0.952 . S
C389 C388 1.372 . S
C389 C390 1.389 . S
C390 H369 0.949 . S
C390 C389 1.389 . S
C390 C391 1.387 . S
C391 C390 1.387 . S
C391 C392 1.372 . S
C392 H370 0.950 . S
C392 C391 1.372 . S
C392 C393 1.379 . S
C393 H371 0.948 . S
C393 C388 1.364 . S
C393 C392 1.379 . S
C394 C363 1.383 . S
C394 C381 1.479 . S
C394 C395 1.398 . S
C395 C360 1.382 . S
C395 H372 0.951 . S
C395 C394 1.398 . S
C396 C397 1.384 . S
C396 H409 0.947 . S
C396 C431 1.382 . S
C397 C396 1.384 . S
C397 C398 1.378 . S
C398 C397 1.378 . S
C398 C399 1.378 . S
C398 H410 0.952 . S
C399 C398 1.378 . S
C399 H411 0.950 . S
C399 C430 1.383 . S
H400 C419 0.947 . S
H401 C420 0.946 . S
H402 C422 0.953 . S
H403 C423 0.945 . S
H404 C425 0.952 . S
H405 C426 0.949 . S
H406 C428 0.950 . S
H407 C429 0.948 . S
H408 C431 0.951 . S
H409 C396 0.947 . S
H410 C398 0.952 . S
H411 C399 0.950 . S
N412 C415 1.382 . S
N412 C417 1.363 . S
N413 C415 1.371 . S
N413 C416 1.372 . S
N414 C416 1.361 . S
N414 C417 1.377 . S
C415 N412 1.382 . S
C415 N413 1.371 . S
C415 C418 1.480 . S
C416 N413 1.372 . S
C416 N414 1.361 . S
C416 C424 1.457 . S
C417 N412 1.363 . S
C417 N414 1.377 . S
C417 C430 1.479 . S
C418 C415 1.480 . S
C418 C419 1.383 . S
C418 C423 1.385 . S
C419 H400 0.947 . S
C419 C418 1.383 . S
C419 C420 1.388 . S
C420 H401 0.946 . S
C420 C419 1.388 . S
C420 C421 1.384 . S
C421 C420 1.384 . S
C421 C422 1.377 . S
C422 H402 0.953 . S
C422 C421 1.377 . S
C422 C423 1.369 . S
C423 H403 0.945 . S
C423 C418 1.385 . S
C423 C422 1.369 . S
C424 C416 1.457 . S
C424 C425 1.372 . S
C424 C429 1.364 . S
C425 H404 0.952 . S
C425 C424 1.372 . S
C425 C426 1.389 . S
C426 H405 0.949 . S
C426 C425 1.389 . S
C426 C427 1.387 . S
C427 C426 1.387 . S
C427 C428 1.372 . S
C428 H406 0.950 . S
C428 C427 1.372 . S
C428 C429 1.379 . S
C429 H407 0.948 . S
C429 C424 1.364 . S
C429 C428 1.379 . S
C430 C399 1.383 . S
C430 C417 1.479 . S
C430 C431 1.398 . S
C431 C396 1.382 . S
C431 H408 0.951 . S
C431 C430 1.398 . S
C432 C433 1.384 . S
C432 H445 0.947 . S
C432 C467 1.382 . S
C433 C432 1.384 . S
C433 C434 1.378 . S
C434 C433 1.378 . S
C434 C435 1.378 . S
C434 H446 0.952 . S
C435 C434 1.378 . S
C435 H447 0.950 . S
C435 C466 1.383 . S
H436 C455 0.947 . S
H437 C456 0.946 . S
H438 C458 0.953 . S
H439 C459 0.945 . S
H440 C461 0.952 . S
H441 C462 0.949 . S
H442 C464 0.950 . S
H443 C465 0.948 . S
H444 C467 0.951 . S
H445 C432 0.947 . S
H446 C434 0.952 . S
H447 C435 0.950 . S
N448 C451 1.382 . S
N448 C453 1.363 . S
N449 C451 1.371 . S
N449 C452 1.372 . S
N450 C452 1.361 . S
N450 C453 1.377 . S
C451 N448 1.382 . S
C451 N449 1.371 . S
C451 C454 1.480 . S
C452 N449 1.372 . S
C452 N450 1.361 . S
C452 C460 1.457 . S
C453 N448 1.363 . S
C453 N450 1.377 . S
C453 C466 1.479 . S
C454 C451 1.480 . S
C454 C455 1.383 . S
C454 C459 1.385 . S
C455 H436 0.947 . S
C455 C454 1.383 . S
C455 C456 1.388 . S
C456 H437 0.946 . S
C456 C455 1.388 . S
C456 C457 1.384 . S
C457 C456 1.384 . S
C457 C458 1.377 . S
C458 H438 0.953 . S
C458 C457 1.377 . S
C458 C459 1.369 . S
C459 H439 0.945 . S
C459 C454 1.385 . S
C459 C458 1.369 . S
C460 C452 1.457 . S
C460 C461 1.372 . S
C460 C465 1.364 . S
C461 H440 0.952 . S
C461 C460 1.372 . S
C461 C462 1.389 . S
C462 H441 0.949 . S
C462 C461 1.389 . S
C462 C463 1.387 . S
C463 C462 1.387 . S
C463 C464 1.372 . S
C464 H442 0.950 . S
C464 C463 1.372 . S
C464 C465 1.379 . S
C465 H443 0.948 . S
C465 C460 1.364 . S
C465 C464 1.379 . S
C466 C435 1.383 . S
C466 C453 1.479 . S
C466 C467 1.398 . S
C467 C432 1.382 . S
C467 H444 0.951 . S
C467 C466 1.398 . S
C468 C469 1.384 . S
C468 H481 0.947 . S
C468 C503 1.382 . S
C469 C468 1.384 . S
C469 C470 1.378 . S
C470 C469 1.378 . S
C470 C471 1.378 1_554 S
C470 H482 0.952 1_554 S
C471 C470 1.378 1_556 S
C471 H483 0.950 . S
C471 C502 1.383 . S
H472 C491 0.947 . S
H473 C492 0.946 . S
H474 C494 0.953 . S
H475 C495 0.945 . S
H476 C497 0.952 . S
H477 C498 0.949 . S
H478 C500 0.932 1_554 S
H479 C501 0.948 . S
H480 C503 0.951 . S
H481 C468 0.947 . S
H482 C470 0.952 1_556 S
H483 C471 0.950 . S
N484 C487 1.382 . S
N484 C489 1.363 . S
N485 C487 1.371 . S
N485 C488 1.372 . S
N486 C488 1.361 . S
N486 C489 1.377 . S
C487 N484 1.382 . S
C487 N485 1.371 . S
C487 C490 1.480 . S
C488 N485 1.372 . S
C488 N486 1.361 . S
C488 C496 1.457 . S
C489 N484 1.363 . S
C489 N486 1.377 . S
C489 C502 1.479 . S
C490 C487 1.480 . S
C490 C491 1.383 . S
C490 C495 1.385 . S
C491 H472 0.947 . S
C491 C490 1.383 . S
C491 C492 1.388 . S
C492 H473 0.946 . S
C492 C491 1.388 . S
C492 C493 1.384 . S
C493 C492 1.384 . S
C493 C494 1.377 . S
C494 H474 0.953 . S
C494 C493 1.377 . S
C494 C495 1.369 . S
C495 H475 0.945 . S
C495 C490 1.385 . S
C495 C494 1.369 . S
C496 C488 1.457 . S
C496 C497 1.372 . S
C496 C501 1.364 . S
C497 H476 0.952 . S
C497 C496 1.372 . S
C497 C498 1.389 . S
C498 H477 0.949 . S
C498 C497 1.389 . S
C498 C499 1.387 . S
C499 C498 1.387 . S
C499 C500 1.372 . S
C500 H478 0.932 1_556 S
C500 C499 1.372 . S
C500 C501 1.379 . S
C501 H479 0.948 . S
C501 C496 1.364 . S
C501 C500 1.379 . S
C502 C471 1.383 . S
C502 C489 1.479 . S
C502 C503 1.398 1_556 S
C503 C468 1.382 . S
C503 H480 0.951 . S
C503 C502 1.398 1_554 S
C504 C505 1.384 . S
C504 H517 0.947 . S
C504 C539 1.382 . S
C505 C504 1.384 . S
C505 C506 1.378 . S
C506 C505 1.378 . S
C506 C507 1.378 . S
C506 H518 0.952 . S
C507 C506 1.378 . S
C507 H519 0.950 . S
C507 C538 1.383 . S
H508 C527 0.947 . S
H509 C528 0.946 . S
H510 C530 0.953 . S
H511 C531 0.945 . S
H512 C533 0.952 . S
H513 C534 0.949 . S
H514 C536 0.950 . S
H515 C537 0.948 . S
H516 C539 0.951 . S
H517 C504 0.947 . S
H518 C506 0.952 . S
H519 C507 0.950 . S
N520 C523 1.382 . S
N520 C525 1.363 . S
N521 C523 1.371 . S
N521 C524 1.372 . S
N522 C524 1.361 . S
N522 C525 1.377 . S
C523 N520 1.382 . S
C523 N521 1.371 . S
C523 C526 1.480 . S
C524 N521 1.372 . S
C524 N522 1.361 . S
C524 C532 1.457 . S
C525 N520 1.363 . S
C525 N522 1.377 . S
C525 C538 1.479 . S
C526 C523 1.480 . S
C526 C527 1.383 . S
C526 C531 1.385 . S
C527 H508 0.947 . S
C527 C526 1.383 . S
C527 C528 1.388 . S
C528 H509 0.946 . S
C528 C527 1.388 . S
C528 C529 1.384 . S
C529 C528 1.384 . S
C529 C530 1.377 . S
C530 H510 0.953 . S
C530 C529 1.377 . S
C530 C531 1.369 . S
C531 H511 0.945 . S
C531 C526 1.385 . S
C531 C530 1.369 . S
C532 C524 1.457 . S
C532 C533 1.372 . S
C532 C537 1.364 . S
C533 H512 0.952 . S
C533 C532 1.372 . S
C533 C534 1.389 . S
C534 H513 0.949 . S
C534 C533 1.389 . S
C534 C535 1.387 . S
C535 C534 1.387 . S
C535 C536 1.372 . S
C536 H514 0.950 . S
C536 C535 1.372 . S
C536 C537 1.379 . S
C537 H515 0.948 . S
C537 C532 1.364 . S
C537 C536 1.379 . S
C538 C507 1.383 . S
C538 C525 1.479 . S
C538 C539 1.398 . S
C539 C504 1.382 . S
C539 H516 0.951 . S
C539 C538 1.398 . S
C540 C541 1.384 . S
C540 H553 0.947 . S
C540 C575 1.382 1_554 S
C541 C540 1.384 . S
C541 C542 1.378 . S
C542 C541 1.378 . S
C542 C543 1.378 . S
C542 H554 0.952 . S
C543 C542 1.378 . S
C543 H555 0.950 . S
C543 C574 1.383 . S
H544 C563 0.947 1_554 S
H545 C564 0.944 1_544 S
H546 C566 0.953 . S
H547 C567 0.945 . S
H548 C569 0.952 . S
H549 C570 0.949 1_565 S
H550 C572 0.950 . S
H551 C573 0.948 . S
H552 C575 0.951 . S
H553 C540 0.947 . S
H554 C542 0.952 . S
H555 C543 0.950 . S
N556 C559 1.382 . S
N556 C561 1.363 . S
N557 C559 1.371 . S
N557 C560 1.372 . S
N558 C560 1.361 . S
N558 C561 1.377 . S
C559 N556 1.382 . S
C559 N557 1.371 . S
C559 C562 1.480 . S
C560 N557 1.372 . S
C560 N558 1.361 . S
C560 C568 1.457 . S
C561 N556 1.363 . S
C561 N558 1.377 . S
C561 C574 1.479 1_556 S
C562 C559 1.480 . S
C562 C563 1.383 . S
C562 C567 1.385 1_545 S
C563 H544 0.947 1_556 S
C563 C562 1.383 . S
C563 C564 1.388 1_545 S
C564 H545 0.944 1_566 S
C564 C563 1.388 1_565 S
C564 C565 1.384 . S
C565 C564 1.384 . S
C565 C566 1.377 . S
C566 H546 0.953 . S
C566 C565 1.377 . S
C566 C567 1.369 . S
C567 H547 0.945 . S
C567 C562 1.385 1_565 S
C567 C566 1.369 . S
C568 C560 1.457 . S
C568 C569 1.372 . S
C568 C573 1.364 . S
C569 H548 0.952 . S
C569 C568 1.372 . S
C569 C570 1.389 . S
C570 H549 0.949 1_545 S
C570 C569 1.389 . S
C570 C571 1.387 . S
C571 C570 1.387 . S
C571 C572 1.372 . S
C572 H550 0.950 . S
C572 C571 1.372 . S
C572 C573 1.379 . S
C573 H551 0.948 . S
C573 C568 1.364 . S
C573 C572 1.379 . S
C574 C543 1.383 . S
C574 C561 1.479 1_554 S
C574 C575 1.398 1_554 S
C575 C540 1.382 1_556 S
C575 H552 0.951 . S
C575 C574 1.398 1_556 S
C576 O577 1.160 1_554 S
C576 O583 1.185 . S
O577 C576 1.160 1_556 S
O578 Zn579 1.899 1_556 S
O578 C586 1.284 . S
Zn579 O578 1.899 1_554 S
Zn579 O580 2.032 . S
Zn579 O583 2.086 . S
Zn579 O588 1.977 . S
O580 Zn579 2.032 . S
O580 C584 1.278 . S
C581 O582 1.203 . S
C581 O588 1.267 . S
O582 C581 1.203 . S
O583 C576 1.185 . S
O583 Zn579 2.086 . S
C584 O580 1.278 . S
C584 O585 1.211 . S
O585 C584 1.211 . S
C586 O578 1.284 . S
C586 O587 1.273 . S
O587 C586 1.273 . S
O588 Zn579 1.977 . S
O588 C581 1.267 . S
C589 O590 1.160 . S
C589 O596 1.185 . S
O590 C589 1.160 . S
O591 Zn592 1.899 . S
O591 C599 1.284 . S
Zn592 O591 1.899 . S
Zn592 O593 2.032 . S
Zn592 O596 2.086 . S
Zn592 O601 1.977 . S
O593 Zn592 2.032 . S
O593 C597 1.278 . S
C594 O595 1.203 . S
C594 O601 1.267 . S
O595 C594 1.203 . S
O596 C589 1.185 . S
O596 Zn592 2.086 . S
C597 O593 1.278 . S
C597 O598 1.211 . S
O598 C597 1.211 . S
C599 O591 1.284 . S
C599 O600 1.273 . S
O600 C599 1.273 . S
O601 Zn592 1.977 . S
O601 C594 1.267 . S
C602 O603 1.160 1_554 S
C602 O609 1.185 . S
O603 C602 1.160 1_556 S
O604 Zn605 1.899 1_556 S
O604 C612 1.284 . S
Zn605 O604 1.899 1_554 S
Zn605 O606 2.032 1_554 S
Zn605 O609 2.086 . S
Zn605 O614 1.977 . S
O606 Zn605 2.032 1_556 S
O606 C610 1.278 . S
C607 O608 1.203 . S
C607 O614 1.267 . S
O608 C607 1.203 . S
O609 C602 1.185 . S
O609 Zn605 2.086 . S
C610 O606 1.278 . S
C610 O611 1.211 1_556 S
O611 C610 1.211 1_554 S
C612 O604 1.284 . S
C612 O613 1.273 . S
O613 C612 1.273 . S
O614 Zn605 1.977 . S
O614 C607 1.267 . S
C615 O616 1.160 . S
C615 O622 1.185 . S
O616 C615 1.160 . S
O617 Zn618 1.899 . S
O617 C625 1.284 . S
Zn618 O617 1.899 . S
Zn618 O619 2.032 1_545 S
Zn618 O622 2.086 . S
Zn618 O627 1.977 . S
O619 Zn618 2.032 1_565 S
O619 C623 1.278 . S
C620 O621 1.203 . S
C620 O627 1.267 . S
O621 C620 1.203 . S
O622 C615 1.185 . S
O622 Zn618 2.086 . S
C623 O619 1.278 . S
C623 O624 1.211 . S
O624 C623 1.211 . S
C625 O617 1.284 . S
C625 O626 1.273 1_545 S
O626 C625 1.273 1_565 S
O627 Zn618 1.977 . S
O627 C620 1.267 . S
C628 O629 1.160 . S
C628 O635 1.185 . S
O629 C628 1.160 . S
O630 Zn631 1.899 . S
O630 C638 1.284 . S
Zn631 O630 1.899 . S
Zn631 O632 2.032 . S
Zn631 O635 2.086 . S
Zn631 O640 1.977 . S
O632 Zn631 2.032 . S
O632 C636 1.278 . S
C633 O634 1.203 . S
C633 O640 1.267 . S
O634 C633 1.203 . S
O635 C628 1.185 . S
O635 Zn631 2.086 . S
C636 O632 1.278 . S
C636 O637 1.211 . S
O637 C636 1.211 . S
C638 O630 1.284 . S
C638 O639 1.273 . S
O639 C638 1.273 . S
O640 Zn631 1.977 . S
O640 C633 1.267 . S
C641 O642 1.160 . S
C641 O648 1.185 . S
O642 C641 1.160 . S
O643 Zn644 1.899 . S
O643 C651 1.284 . S
Zn644 O643 1.899 . S
Zn644 O645 2.032 . S
Zn644 O648 2.086 . S
Zn644 O653 1.977 . S
O645 Zn644 2.032 . S
O645 C649 1.278 . S
C646 O647 1.203 . S
C646 O653 1.267 . S
O647 C646 1.203 . S
O648 C641 1.185 . S
O648 Zn644 2.086 . S
C649 O645 1.278 . S
C649 O650 1.211 . S
O650 C649 1.211 . S
C651 O643 1.284 . S
C651 O652 1.273 . S
O652 C651 1.273 . S
O653 Zn644 1.977 . S
O653 C646 1.267 . S
C654 O655 1.160 . S
C654 O661 1.185 . S
O655 C654 1.160 . S
O656 Zn657 1.899 . S
O656 C664 1.284 . S
Zn657 O656 1.899 . S
Zn657 O658 2.032 . S
Zn657 O661 2.086 . S
Zn657 O666 1.977 . S
O658 Zn657 2.032 . S
O658 C662 1.278 . S
C659 O660 1.203 . S
C659 O666 1.267 . S
O660 C659 1.203 . S
O661 C654 1.185 . S
O661 Zn657 2.086 . S
C662 O658 1.278 . S
C662 O663 1.211 . S
O663 C662 1.211 . S
C664 O656 1.284 . S
C664 O665 1.273 . S
O665 C664 1.273 . S
O666 Zn657 1.977 . S
O666 C659 1.267 . S
C667 O668 1.160 . S
C667 O674 1.185 . S
O668 C667 1.160 . S
O669 Zn670 1.899 . S
O669 C677 1.284 1_565 S
Zn670 O669 1.899 . S
Zn670 O671 2.032 1_565 S
Zn670 O674 2.086 . S
Zn670 O679 1.977 . S
O671 Zn670 2.032 1_545 S
O671 C675 1.278 . S
C672 O673 1.203 1_565 S
C672 O679 1.267 . S
O673 C672 1.203 1_545 S
O674 C667 1.185 . S
O674 Zn670 2.086 . S
C675 O671 1.278 . S
C675 O676 1.211 . S
O676 C675 1.211 . S
C677 O669 1.284 1_545 S
C677 O678 1.273 . S
O678 C677 1.273 . S
O679 Zn670 1.977 . S
O679 C672 1.267 . S
C680 O681 1.160 1_455 S
C680 O687 1.185 . S
O681 C680 1.160 1_655 S
O682 Zn683 1.899 1_655 S
O682 C690 1.284 . S
Zn683 O682 1.899 1_455 S
Zn683 O684 2.032 1_455 S
Zn683 O687 2.086 . S
Zn683 O692 1.977 . S
O684 Zn683 2.032 1_655 S
O684 C688 1.277 1_655 S
C685 O686 1.203 . S
C685 O692 1.267 . S
O686 C685 1.203 . S
O687 C680 1.185 . S
O687 Zn683 2.086 . S
C688 O684 1.277 1_455 S
C688 O689 1.212 . S
O689 C688 1.212 . S
C690 O682 1.284 . S
C690 O691 1.273 . S
O691 C690 1.273 . S
O692 Zn683 1.977 . S
O692 C685 1.267 . S
C693 O694 1.160 . S
C693 O700 1.185 . S
O694 C693 1.160 . S
O695 Zn696 1.899 . S
O695 C703 1.284 . S
Zn696 O695 1.899 . S
Zn696 O697 2.032 . S
Zn696 O700 2.086 . S
Zn696 O705 1.977 . S
O697 Zn696 2.032 . S
O697 C701 1.278 . S
C698 O699 1.203 . S
C698 O705 1.267 . S
O699 C698 1.203 . S
O700 C693 1.185 . S
O700 Zn696 2.086 . S
C701 O697 1.278 . S
C701 O702 1.211 . S
O702 C701 1.211 . S
C703 O695 1.284 . S
C703 O704 1.273 . S
O704 C703 1.273 . S
O705 Zn696 1.977 . S
O705 C698 1.267 . S
C706 O707 1.160 1_455 S
C706 O713 1.185 . S
O707 C706 1.160 1_655 S
O708 Zn709 1.899 1_655 S
O708 C716 1.284 . S
Zn709 O708 1.899 1_455 S
Zn709 O710 2.032 1_455 S
Zn709 O713 2.086 . S
Zn709 O718 1.977 . S
O710 Zn709 2.032 1_655 S
O710 C714 1.277 . S
C711 O712 1.203 . S
C711 O718 1.267 . S
O712 C711 1.203 . S
O713 C706 1.185 . S
O713 Zn709 2.086 . S
C714 O710 1.277 . S
C714 O715 1.213 1_655 S
O715 C714 1.213 1_455 S
C716 O708 1.284 . S
C716 O717 1.273 . S
O717 C716 1.273 . S
O718 Zn709 1.977 . S
O718 C711 1.267 . S
C719 O720 1.160 . S
C719 O726 1.185 . S
O720 C719 1.160 . S
O721 Zn722 1.899 . S
O721 C729 1.284 . S
Zn722 O721 1.899 . S
Zn722 O723 2.032 . S
Zn722 O726 2.086 . S
Zn722 O731 1.977 . S
O723 Zn722 2.032 . S
O723 C727 1.278 . S
C724 O725 1.203 . S
C724 O731 1.267 . S
O725 C724 1.203 . S
O726 C719 1.185 . S
O726 Zn722 2.086 . S
C727 O723 1.278 . S
C727 O728 1.211 . S
O728 C727 1.211 . S
C729 O721 1.284 . S
C729 O730 1.273 . S
O730 C729 1.273 . S
O731 Zn722 1.977 . S
O731 C724 1.267 . S
C732 C733 1.363 . S
C732 C738 1.379 . S
C732 N740 1.356 . S
C733 C732 1.363 . S
C733 C739 1.363 . S
C734 C735 1.363 . S
C734 C739 1.379 . S
C734 N741 1.356 . S
C735 C734 1.363 . S
C735 C738 1.363 . S
N736 C738 1.356 . S
N736 H748 0.984 . S
N736 H749 0.985 . S
N737 C739 1.356 . S
N737 H742 0.984 . S
N737 H743 0.985 . S
C738 C732 1.379 . S
C738 C735 1.363 . S
C738 N736 1.356 . S
C739 C733 1.363 . S
C739 C734 1.379 . S
C739 N737 1.356 . S
N740 C732 1.356 . S
N740 H746 0.984 . S
N740 H747 0.984 . S
N741 C734 1.356 . S
N741 H744 0.984 . S
N741 H745 0.985 . S
H742 N737 0.984 . S
H743 N737 0.985 . S
H744 N741 0.984 . S
H745 N741 0.985 . S
H746 N740 0.984 . S
H747 N740 0.984 . S
H748 N736 0.984 . S
H749 N736 0.985 . S
C750 C751 1.363 . S
C750 C756 1.379 . S
C750 N758 1.356 . S
C751 C750 1.363 . S
C751 C757 1.363 . S
C752 C753 1.363 . S
C752 C757 1.379 . S
C752 N759 1.356 . S
C753 C752 1.363 . S
C753 C756 1.363 . S
N754 C756 1.356 . S
N754 H766 0.984 . S
N754 H767 0.985 . S
N755 C757 1.356 . S
N755 H760 0.984 . S
N755 H761 0.985 . S
C756 C750 1.379 . S
C756 C753 1.363 . S
C756 N754 1.356 . S
C757 C751 1.363 . S
C757 C752 1.379 . S
C757 N755 1.356 . S
N758 C750 1.356 . S
N758 H764 0.984 . S
N758 H765 0.984 . S
N759 C752 1.356 . S
N759 H762 0.984 . S
N759 H763 0.985 . S
H760 N755 0.984 . S
H761 N755 0.985 . S
H762 N759 0.984 . S
H763 N759 0.985 . S
H764 N758 0.984 . S
H765 N758 0.984 . S
H766 N754 0.984 . S
H767 N754 0.985 . S
C768 C769 1.363 . S
C768 C774 1.379 . S
C768 N776 1.356 . S
C769 C768 1.363 . S
C769 C775 1.363 . S
C770 C771 1.363 . S
C770 C775 1.379 . S
C770 N777 1.356 . S
C771 C770 1.363 . S
C771 C774 1.363 . S
N772 C774 1.356 . S
N772 H784 0.984 . S
N772 H785 0.985 . S
N773 C775 1.356 . S
N773 H778 0.984 . S
N773 H779 0.985 . S
C774 C768 1.379 . S
C774 C771 1.363 . S
C774 N772 1.356 . S
C775 C769 1.363 . S
C775 C770 1.379 . S
C775 N773 1.356 . S
N776 C768 1.356 . S
N776 H782 0.984 . S
N776 H783 0.984 . S
N777 C770 1.356 . S
N777 H780 0.984 . S
N777 H781 0.985 . S
H778 N773 0.984 . S
H779 N773 0.985 . S
H780 N777 0.984 . S
H781 N777 0.985 . S
H782 N776 0.984 . S
H783 N776 0.984 . S
H784 N772 0.984 . S
H785 N772 0.985 . S
C786 C787 1.363 . S
C786 C792 1.379 . S
C786 N794 1.356 . S
C787 C786 1.363 . S
C787 C793 1.363 1_565 S
C788 C789 1.363 . S
C788 C793 1.379 . S
C788 N795 1.356 . S
C789 C788 1.363 . S
C789 C792 1.363 1_545 S
N790 C792 1.356 . S
N790 H802 0.984 . S
N790 H803 0.985 . S
N791 C793 1.356 . S
N791 H796 0.984 . S
N791 H797 0.985 . S
C792 C786 1.379 . S
C792 C789 1.363 1_565 S
C792 N790 1.356 . S
C793 C787 1.363 1_545 S
C793 C788 1.379 . S
C793 N791 1.356 . S
N794 C786 1.356 . S
N794 H800 0.984 . S
N794 H801 0.984 . S
N795 C788 1.356 . S
N795 H798 0.984 . S
N795 H799 0.985 . S
H796 N791 0.984 . S
H797 N791 0.985 . S
H798 N795 0.984 . S
H799 N795 0.985 . S
H800 N794 0.984 . S
H801 N794 0.984 . S
H802 N790 0.984 . S
H803 N790 0.985 . S
C804 C805 1.363 . S
C804 C810 1.379 . S
C804 N812 1.356 . S
C805 C804 1.363 . S
C805 C811 1.363 . S
C806 C807 1.363 . S
C806 C811 1.379 . S
C806 N813 1.356 . S
C807 C806 1.363 . S
C807 C810 1.363 . S
N808 C810 1.356 . S
N808 H820 0.984 . S
N808 H821 0.985 . S
N809 C811 1.356 . S
N809 H814 0.984 . S
N809 H815 0.985 . S
C810 C804 1.379 . S
C810 C807 1.363 . S
C810 N808 1.356 . S
C811 C805 1.363 . S
C811 C806 1.379 . S
C811 N809 1.356 . S
N812 C804 1.356 . S
N812 H818 0.984 . S
N812 H819 0.984 . S
N813 C806 1.356 . S
N813 H816 0.984 . S
N813 H817 0.985 . S
H814 N809 0.984 . S
H815 N809 0.985 . S
H816 N813 0.984 . S
H817 N813 0.985 . S
H818 N812 0.984 . S
H819 N812 0.984 . S
H820 N808 0.984 . S
H821 N808 0.985 . S
C822 C823 1.363 . S
C822 C828 1.379 . S
C822 N830 1.356 . S
C823 C822 1.363 . S
C823 C829 1.363 . S
C824 C825 1.363 . S
C824 C829 1.379 . S
C824 N831 1.356 . S
C825 C824 1.363 . S
C825 C828 1.363 . S
N826 C828 1.356 . S
N826 H838 0.984 . S
N826 H839 0.985 . S
N827 C829 1.356 . S
N827 H832 0.984 . S
N827 H833 0.985 . S
C828 C822 1.379 . S
C828 C825 1.363 . S
C828 N826 1.356 . S
C829 C823 1.363 . S
C829 C824 1.379 . S
C829 N827 1.356 . S
N830 C822 1.356 . S
N830 H836 0.984 . S
N830 H837 0.984 . S
N831 C824 1.356 . S
N831 H834 0.984 . S
N831 H835 0.985 . S
H832 N827 0.984 . S
H833 N827 0.985 . S
H834 N831 0.984 . S
H835 N831 0.985 . S
H836 N830 0.984 . S
H837 N830 0.984 . S
H838 N826 0.984 . S
H839 N826 0.985 . S
C840 C841 1.363 . S
C840 C846 1.379 . S
C840 N848 1.356 . S
C841 C840 1.363 . S
C841 C847 1.363 . S
C842 C843 1.363 . S
C842 C847 1.379 . S
C842 N849 1.356 . S
C843 C842 1.363 . S
C843 C846 1.363 . S
N844 C846 1.356 . S
N844 H856 0.984 . S
N844 H857 0.985 . S
N845 C847 1.356 . S
N845 H850 0.984 . S
N845 H851 0.985 . S
C846 C840 1.379 . S
C846 C843 1.363 . S
C846 N844 1.356 . S
C847 C841 1.363 . S
C847 C842 1.379 . S
C847 N845 1.356 . S
N848 C840 1.356 . S
N848 H854 0.984 . S
N848 H855 0.984 . S
N849 C842 1.356 . S
N849 H852 0.984 . S
N849 H853 0.985 . S
H850 N845 0.984 . S
H851 N845 0.985 . S
H852 N849 0.984 . S
H853 N849 0.985 . S
H854 N848 0.984 . S
H855 N848 0.984 . S
H856 N844 0.984 . S
H857 N844 0.985 . S
C858 C859 1.363 . S
C858 C864 1.379 . S
C858 N866 1.356 . S
C859 C858 1.363 . S
C859 C865 1.363 1_565 S
C860 C861 1.363 1_545 S
C860 C865 1.379 . S
C860 N867 1.356 . S
C861 C860 1.363 1_565 S
C861 C864 1.363 . S
N862 C864 1.356 . S
N862 H874 0.984 . S
N862 H875 0.985 . S
N863 C865 1.356 . S
N863 H868 0.984 . S
N863 H869 0.985 . S
C864 C858 1.379 . S
C864 C861 1.363 . S
C864 N862 1.356 . S
C865 C859 1.363 1_545 S
C865 C860 1.379 . S
C865 N863 1.356 . S
N866 C858 1.356 . S
N866 H872 0.984 . S
N866 H873 0.984 . S
N867 C860 1.356 . S
N867 H870 0.984 . S
N867 H871 0.985 . S
H868 N863 0.984 . S
H869 N863 0.985 . S
H870 N867 0.984 . S
H871 N867 0.985 . S
H872 N866 0.984 . S
H873 N866 0.984 . S
H874 N862 0.984 . S
H875 N862 0.985 . S
C876 C877 1.363 . S
C876 C882 1.379 . S
C876 N884 1.356 . S
C877 C876 1.363 . S
C877 C883 1.363 . S
C878 C879 1.363 . S
C878 C883 1.379 . S
C878 N885 1.356 . S
C879 C878 1.363 . S
C879 C882 1.363 . S
N880 C882 1.356 . S
N880 H892 0.984 . S
N880 H893 0.985 . S
N881 C883 1.356 . S
N881 H886 0.984 . S
N881 H887 0.985 . S
C882 C876 1.379 . S
C882 C879 1.363 . S
C882 N880 1.356 . S
C883 C877 1.363 . S
C883 C878 1.379 . S
C883 N881 1.356 . S
N884 C876 1.356 . S
N884 H890 0.984 . S
N884 H891 0.984 . S
N885 C878 1.356 . S
N885 H888 0.984 . S
N885 H889 0.985 . S
H886 N881 0.984 . S
H887 N881 0.985 . S
H888 N885 0.984 . S
H889 N885 0.985 . S
H890 N884 0.984 . S
H891 N884 0.984 . S
H892 N880 0.984 . S
H893 N880 0.985 . S
C894 C895 1.363 . S
C894 C900 1.379 . S
C894 N902 1.356 . S
C895 C894 1.363 . S
C895 C901 1.363 . S
C896 C897 1.363 . S
C896 C901 1.379 . S
C896 N903 1.356 . S
C897 C896 1.363 . S
C897 C900 1.363 . S
N898 C900 1.356 . S
N898 H910 0.984 . S
N898 H911 0.985 . S
N899 C901 1.356 . S
N899 H904 0.984 . S
N899 H905 0.985 . S
C900 C894 1.379 . S
C900 C897 1.363 . S
C900 N898 1.356 . S
C901 C895 1.363 . S
C901 C896 1.379 . S
C901 N899 1.356 . S
N902 C894 1.356 . S
N902 H908 0.984 . S
N902 H909 0.984 . S
N903 C896 1.356 . S
N903 H906 0.984 . S
N903 H907 0.985 . S
H904 N899 0.984 . S
H905 N899 0.985 . S
H906 N903 0.984 . S
H907 N903 0.985 . S
H908 N902 0.984 . S
H909 N902 0.984 . S
H910 N898 0.984 . S
H911 N898 0.985 . S
C912 C913 1.363 . S
C912 C918 1.379 . S
C912 N920 1.356 . S
C913 C912 1.363 . S
C913 C919 1.363 . S
C914 C915 1.363 . S
C914 C919 1.379 . S
C914 N921 1.356 . S
C915 C914 1.363 . S
C915 C918 1.363 . S
N916 C918 1.356 . S
N916 H928 0.984 . S
N916 H929 0.985 . S
N917 C919 1.356 . S
N917 H922 0.984 . S
N917 H923 0.985 . S
C918 C912 1.379 . S
C918 C915 1.363 . S
C918 N916 1.356 . S
C919 C913 1.363 . S
C919 C914 1.379 . S
C919 N917 1.356 . S
N920 C912 1.356 . S
N920 H926 0.984 . S
N920 H927 0.984 . S
N921 C914 1.356 . S
N921 H924 0.984 . S
N921 H925 0.985 . S
H922 N917 0.984 . S
H923 N917 0.985 . S
H924 N921 0.984 . S
H925 N921 0.985 . S
H926 N920 0.984 . S
H927 N920 0.984 . S
H928 N916 0.984 . S
H929 N916 0.985 . S
C930 C931 1.363 . S
C930 C936 1.379 . S
C930 N938 1.356 . S
C931 C930 1.363 . S
C931 C937 1.363 . S
C932 C933 1.363 . S
C932 C937 1.379 . S
C932 N939 1.356 . S
C933 C932 1.363 . S
C933 C936 1.363 . S
N934 C936 1.356 . S
N934 H946 0.984 . S
N934 H947 0.985 . S
N935 C937 1.356 . S
N935 H940 0.984 . S
N935 H941 0.985 . S
C936 C930 1.379 . S
C936 C933 1.363 . S
C936 N934 1.356 . S
C937 C931 1.363 . S
C937 C932 1.379 . S
C937 N935 1.356 . S
N938 C930 1.356 . S
N938 H944 0.984 . S
N938 H945 0.984 . S
N939 C932 1.356 . S
N939 H942 0.984 . S
N939 H943 0.985 . S
H940 N935 0.984 . S
H941 N935 0.985 . S
H942 N939 0.984 . S
H943 N939 0.985 . S
H944 N938 0.984 . S
H945 N938 0.984 . S
H946 N934 0.984 . S
H947 N934 0.985 . S
C948 C949 1.363 . S
C948 C954 1.379 . S
C948 N956 1.356 . S
C949 C948 1.363 . S
C949 C955 1.363 . S
C950 C951 1.363 . S
C950 C955 1.379 . S
C950 N957 1.356 . S
C951 C950 1.363 . S
C951 C954 1.363 . S
N952 C954 1.356 . S
N952 H964 0.984 . S
N952 H965 0.985 . S
N953 C955 1.356 . S
N953 H958 0.984 . S
N953 H959 0.985 . S
C954 C948 1.379 . S
C954 C951 1.363 . S
C954 N952 1.356 . S
C955 C949 1.363 . S
C955 C950 1.379 . S
C955 N953 1.356 . S
N956 C948 1.356 . S
N956 H962 0.984 . S
N956 H963 0.984 . S
N957 C950 1.356 . S
N957 H960 0.984 . S
N957 H961 0.985 . S
H958 N953 0.984 . S
H959 N953 0.985 . S
H960 N957 0.984 . S
H961 N957 0.985 . S
H962 N956 0.984 . S
H963 N956 0.984 . S
H964 N952 0.984 . S
H965 N952 0.985 . S
C966 C967 1.337 1_655 S
C966 C972 1.382 . S
C966 N974 1.375 . S
C967 C966 1.337 1_455 S
C967 C973 1.363 . S
C968 C969 1.363 . S
C968 C973 1.379 . S
C968 N975 1.356 . S
C969 C968 1.363 . S
C969 C972 1.363 1_455 S
N970 C972 1.356 . S
N970 H982 0.984 . S
N970 H983 0.985 . S
N971 C973 1.356 . S
N971 H976 0.984 . S
N971 H977 0.985 . S
C972 C966 1.382 . S
C972 C969 1.363 1_655 S
C972 N970 1.356 . S
C973 C967 1.363 . S
C973 C968 1.379 . S
C973 N971 1.356 . S
N974 C966 1.375 . S
N974 H980 0.984 . S
N974 H981 0.984 . S
N975 C968 1.356 . S
N975 H978 0.984 . S
N975 H979 0.985 . S
H976 N971 0.984 . S
H977 N971 0.985 . S
H978 N975 0.984 . S
H979 N975 0.985 . S
H980 N974 0.984 . S
H981 N974 0.984 . S
H982 N970 0.984 . S
H983 N970 0.985 . S
C984 C985 1.363 . S
C984 C990 1.379 . S
C984 N992 1.356 . S
C985 C984 1.363 . S
C985 C991 1.363 . S
C986 C987 1.363 . S
C986 C991 1.379 . S
C986 N993 1.356 . S
C987 C986 1.363 . S
C987 C990 1.363 . S
N988 C990 1.356 . S
N988 H1000 0.984 . S
N988 H1001 0.985 . S
N989 C991 1.356 . S
N989 H994 0.984 . S
N989 H995 0.985 . S
C990 C984 1.379 . S
C990 C987 1.363 . S
C990 N988 1.356 . S
C991 C985 1.363 . S
C991 C986 1.379 . S
C991 N989 1.356 . S
N992 C984 1.356 . S
N992 H998 0.984 . S
N992 H999 0.984 . S
N993 C986 1.356 . S
N993 H996 0.984 . S
N993 H997 0.985 . S
H994 N989 0.984 . S
H995 N989 0.985 . S
H996 N993 0.984 . S
H997 N993 0.985 . S
H998 N992 0.984 . S
H999 N992 0.984 . S
H1000 N988 0.984 . S
H1001 N988 0.985 . S
C1002 C1003 1.363 . S
C1002 C1008 1.379 1_655 S
C1002 N1010 1.356 1_655 S
C1003 C1002 1.363 . S
C1003 C1009 1.363 . S
C1004 C1005 1.363 . S
C1004 C1009 1.379 . S
C1004 N1011 1.356 . S
C1005 C1004 1.363 . S
C1005 C1008 1.363 1_655 S
N1006 C1008 1.356 . S
N1006 H1018 0.984 . S
N1006 H1019 0.985 . S
N1007 C1009 1.356 . S
N1007 H1012 0.984 . S
N1007 H1013 0.985 . S
C1008 C1002 1.379 1_455 S
C1008 C1005 1.363 1_455 S
C1008 N1006 1.356 . S
C1009 C1003 1.363 . S
C1009 C1004 1.379 . S
C1009 N1007 1.356 . S
N1010 C1002 1.356 1_455 S
N1010 H1016 0.984 . S
N1010 H1017 0.985 . S
N1011 C1004 1.356 . S
N1011 H1014 0.984 . S
N1011 H1015 0.985 . S
H1012 N1007 0.984 . S
H1013 N1007 0.985 . S
H1014 N1011 0.984 . S
H1015 N1011 0.985 . S
H1016 N1010 0.984 . S
H1017 N1010 0.985 . S
H1018 N1006 0.984 . S
H1019 N1006 0.985 . S
C1020 C1021 1.363 . S
C1020 C1026 1.379 . S
C1020 N1028 1.356 . S
C1021 C1020 1.363 . S
C1021 C1027 1.363 . S
C1022 C1023 1.363 . S
C1022 C1027 1.379 . S
C1022 N1029 1.356 . S
C1023 C1022 1.363 . S
C1023 C1026 1.363 . S
N1024 C1026 1.356 . S
N1024 H1036 0.984 . S
N1024 H1037 0.985 . S
N1025 C1027 1.356 . S
N1025 H1030 0.984 . S
N1025 H1031 0.985 . S
C1026 C1020 1.379 . S
C1026 C1023 1.363 . S
C1026 N1024 1.356 . S
C1027 C1021 1.363 . S
C1027 C1022 1.379 . S
C1027 N1025 1.356 . S
N1028 C1020 1.356 . S
N1028 H1034 0.984 . S
N1028 H1035 0.984 . S
N1029 C1022 1.356 . S
N1029 H1032 0.984 . S
N1029 H1033 0.985 . S
H1030 N1025 0.984 . S
H1031 N1025 0.985 . S
H1032 N1029 0.984 . S
H1033 N1029 0.985 . S
H1034 N1028 0.984 . S
H1035 N1028 0.984 . S
H1036 N1024 0.984 . S
H1037 N1024 0.985 . S
C1038 C1039 1.363 . S
C1038 C1044 1.379 . S
C1038 N1046 1.356 . S
C1039 C1038 1.363 . S
C1039 C1045 1.363 . S
C1040 C1041 1.363 . S
C1040 C1045 1.379 . S
C1040 N1047 1.356 . S
C1041 C1040 1.363 . S
C1041 C1044 1.363 . S
N1042 C1044 1.356 . S
N1042 H1054 0.984 . S
N1042 H1055 0.985 . S
N1043 C1045 1.356 . S
N1043 H1048 0.984 . S
N1043 H1049 0.985 . S
C1044 C1038 1.379 . S
C1044 C1041 1.363 . S
C1044 N1042 1.356 . S
C1045 C1039 1.363 . S
C1045 C1040 1.379 . S
C1045 N1043 1.356 . S
N1046 C1038 1.356 . S
N1046 H1052 0.984 . S
N1046 H1053 0.984 . S
N1047 C1040 1.356 . S
N1047 H1050 0.984 . S
N1047 H1051 0.985 . S
H1048 N1043 0.984 . S
H1049 N1043 0.985 . S
H1050 N1047 0.984 . S
H1051 N1047 0.985 . S
H1052 N1046 0.984 . S
H1053 N1046 0.984 . S
H1054 N1042 0.984 . S
H1055 N1042 0.985 . S
C1056 C1057 1.362 1_554 S
C1056 C1062 1.379 . S
C1056 N1064 1.356 . S
C1057 C1056 1.362 1_556 S
C1057 C1063 1.363 . S
C1058 C1059 1.374 . S
C1058 C1063 1.379 . S
C1058 N1065 1.356 . S
C1059 C1058 1.374 . S
C1059 C1062 1.358 1_556 S
N1060 C1062 1.356 . S
N1060 H1072 0.984 . S
N1060 H1073 0.985 . S
N1061 C1063 1.356 . S
N1061 H1066 0.984 . S
N1061 H1067 0.985 . S
C1062 C1056 1.379 . S
C1062 C1059 1.358 1_554 S
C1062 N1060 1.356 . S
C1063 C1057 1.363 . S
C1063 C1058 1.379 . S
C1063 N1061 1.356 . S
N1064 C1056 1.356 . S
N1064 H1070 0.984 1_565 S
N1064 H1071 0.984 1_554 S
N1065 C1058 1.356 . S
N1065 H1068 0.984 . S
N1065 H1069 0.985 . S
H1066 N1061 0.984 . S
H1067 N1061 0.985 . S
H1068 N1065 0.984 . S
H1069 N1065 0.985 . S
H1070 N1064 0.984 1_545 S
H1071 N1064 0.984 1_556 S
H1072 N1060 0.984 . S
H1073 N1060 0.985 . S
C1074 C1075 1.363 . S
C1074 C1080 1.379 . S
C1074 N1082 1.356 . S
C1075 C1074 1.363 . S
C1075 C1081 1.363 . S
C1076 C1077 1.363 . S
C1076 C1081 1.379 . S
C1076 N1083 1.356 . S
C1077 C1076 1.363 . S
C1077 C1080 1.363 . S
N1078 C1080 1.356 . S
N1078 H1090 0.984 . S
N1078 H1091 0.985 . S
N1079 C1081 1.356 . S
N1079 H1084 0.984 . S
N1079 H1085 0.985 . S
C1080 C1074 1.379 . S
C1080 C1077 1.363 . S
C1080 N1078 1.356 . S
C1081 C1075 1.363 . S
C1081 C1076 1.379 . S
C1081 N1079 1.356 . S
N1082 C1074 1.356 . S
N1082 H1088 0.984 . S
N1082 H1089 0.984 . S
N1083 C1076 1.356 . S
N1083 H1086 0.984 . S
N1083 H1087 0.985 . S
H1084 N1079 0.984 . S
H1085 N1079 0.985 . S
H1086 N1083 0.984 . S
H1087 N1083 0.985 . S
H1088 N1082 0.984 . S
H1089 N1082 0.984 . S
H1090 N1078 0.984 . S
H1091 N1078 0.985 . S
C1092 C1093 1.363 . S
C1092 C1098 1.379 . S
C1092 N1100 1.356 . S
C1093 C1092 1.363 . S
C1093 C1099 1.363 . S
C1094 C1095 1.363 . S
C1094 C1099 1.379 . S
C1094 N1101 1.356 . S
C1095 C1094 1.363 . S
C1095 C1098 1.363 . S
N1096 C1098 1.356 . S
N1096 H1108 0.984 . S
N1096 H1109 0.985 . S
N1097 C1099 1.356 . S
N1097 H1102 0.984 . S
N1097 H1103 0.985 . S
C1098 C1092 1.379 . S
C1098 C1095 1.363 . S
C1098 N1096 1.356 . S
C1099 C1093 1.363 . S
C1099 C1094 1.379 . S
C1099 N1097 1.356 . S
N1100 C1092 1.356 . S
N1100 H1106 0.984 . S
N1100 H1107 0.984 . S
N1101 C1094 1.356 . S
N1101 H1104 0.984 . S
N1101 H1105 0.985 . S
H1102 N1097 0.984 . S
H1103 N1097 0.985 . S
H1104 N1101 0.984 . S
H1105 N1101 0.985 . S
H1106 N1100 0.984 . S
H1107 N1100 0.984 . S
H1108 N1096 0.984 . S
H1109 N1096 0.985 . S
C1110 C1111 1.363 . S
C1110 C1116 1.379 . S
C1110 N1118 1.356 . S
C1111 C1110 1.363 . S
C1111 C1117 1.363 . S
C1112 C1113 1.363 . S
C1112 C1117 1.379 . S
C1112 N1119 1.356 . S
C1113 C1112 1.363 . S
C1113 C1116 1.363 . S
N1114 C1116 1.356 . S
N1114 H1126 0.984 . S
N1114 H1127 0.985 . S
N1115 C1117 1.356 . S
N1115 H1120 0.984 . S
N1115 H1121 0.985 . S
C1116 C1110 1.379 . S
C1116 C1113 1.363 . S
C1116 N1114 1.356 . S
C1117 C1111 1.363 . S
C1117 C1112 1.379 . S
C1117 N1115 1.356 . S
N1118 C1110 1.356 . S
N1118 H1124 0.984 . S
N1118 H1125 0.984 . S
N1119 C1112 1.356 . S
N1119 H1122 0.984 . S
N1119 H1123 0.985 . S
H1120 N1115 0.984 . S
H1121 N1115 0.985 . S
H1122 N1119 0.984 . S
H1123 N1119 0.985 . S
H1124 N1118 0.984 . S
H1125 N1118 0.984 . S
H1126 N1114 0.984 . S
H1127 N1114 0.985 . S
C1128 C1129 1.363 . S
C1128 C1134 1.379 . S
C1128 N1136 1.356 . S
C1129 C1128 1.363 . S
C1129 C1135 1.363 . S
C1130 C1131 1.363 . S
C1130 C1135 1.379 . S
C1130 N1137 1.356 . S
C1131 C1130 1.363 . S
C1131 C1134 1.363 . S
N1132 C1134 1.356 . S
N1132 H1144 0.984 . S
N1132 H1145 0.985 . S
N1133 C1135 1.356 . S
N1133 H1138 0.984 . S
N1133 H1139 0.985 . S
C1134 C1128 1.379 . S
C1134 C1131 1.363 . S
C1134 N1132 1.356 . S
C1135 C1129 1.363 . S
C1135 C1130 1.379 . S
C1135 N1133 1.356 . S
N1136 C1128 1.356 . S
N1136 H1142 0.984 . S
N1136 H1143 0.984 . S
N1137 C1130 1.356 . S
N1137 H1140 0.984 . S
N1137 H1141 0.985 . S
H1138 N1133 0.984 . S
H1139 N1133 0.985 . S
H1140 N1137 0.984 . S
H1141 N1137 0.985 . S
H1142 N1136 0.984 . S
H1143 N1136 0.984 . S
H1144 N1132 0.984 . S
H1145 N1132 0.985 . S
C1146 C1147 1.363 . S
C1146 C1152 1.379 . S
C1146 N1154 1.356 . S
C1147 C1146 1.363 . S
C1147 C1153 1.363 . S
C1148 C1149 1.363 . S
C1148 C1153 1.379 . S
C1148 N1155 1.356 . S
C1149 C1148 1.363 . S
C1149 C1152 1.363 . S
N1150 C1152 1.356 . S
N1150 H1162 0.984 . S
N1150 H1163 0.985 . S
N1151 C1153 1.356 . S
N1151 H1156 0.984 . S
N1151 H1157 0.985 . S
C1152 C1146 1.379 . S
C1152 C1149 1.363 . S
C1152 N1150 1.356 . S
C1153 C1147 1.363 . S
C1153 C1148 1.379 . S
C1153 N1151 1.356 . S
N1154 C1146 1.356 . S
N1154 H1160 0.984 . S
N1154 H1161 0.984 . S
N1155 C1148 1.356 . S
N1155 H1158 0.984 . S
N1155 H1159 0.985 . S
H1156 N1151 0.984 . S
H1157 N1151 0.985 . S
H1158 N1155 0.984 . S
H1159 N1155 0.985 . S
H1160 N1154 0.984 . S
H1161 N1154 0.984 . S
H1162 N1150 0.984 . S
H1163 N1150 0.985 . S
C1164 C1165 1.363 . S
C1164 C1170 1.379 . S
C1164 N1172 1.356 . S
C1165 C1164 1.363 . S
C1165 C1171 1.363 . S
C1166 C1167 1.363 . S
C1166 C1171 1.379 . S
C1166 N1173 1.356 . S
C1167 C1166 1.363 . S
C1167 C1170 1.363 . S
N1168 C1170 1.356 . S
N1168 H1180 0.984 . S
N1168 H1181 0.985 . S
N1169 C1171 1.356 . S
N1169 H1174 0.984 . S
N1169 H1175 0.985 . S
C1170 C1164 1.379 . S
C1170 C1167 1.363 . S
C1170 N1168 1.356 . S
C1171 C1165 1.363 . S
C1171 C1166 1.379 . S
C1171 N1169 1.356 . S
N1172 C1164 1.356 . S
N1172 H1178 0.984 . S
N1172 H1179 0.984 . S
N1173 C1166 1.356 . S
N1173 H1176 0.984 . S
N1173 H1177 0.985 . S
H1174 N1169 0.984 . S
H1175 N1169 0.985 . S
H1176 N1173 0.984 . S
H1177 N1173 0.985 . S
H1178 N1172 0.984 . S
H1179 N1172 0.984 . S
H1180 N1168 0.984 . S
H1181 N1168 0.985 . S
C1182 C1183 1.397 . S
C1182 C1188 1.373 1_545 S
C1182 N1190 1.338 1_545 S
C1183 C1182 1.397 . S
C1183 C1189 1.363 . S
C1184 C1185 1.363 . S
C1184 C1189 1.379 . S
C1184 N1191 1.356 . S
C1185 C1184 1.363 . S
C1185 C1188 1.363 1_545 S
N1186 C1188 1.356 . S
N1186 H1198 0.984 . S
N1186 H1199 0.985 . S
N1187 C1189 1.356 . S
N1187 H1192 0.984 . S
N1187 H1193 0.985 . S
C1188 C1182 1.373 1_565 S
C1188 C1185 1.363 1_565 S
C1188 N1186 1.356 . S
C1189 C1183 1.363 . S
C1189 C1184 1.379 . S
C1189 N1187 1.356 . S
N1190 C1182 1.338 1_565 S
N1190 H1196 0.984 . S
N1190 H1197 0.984 . S
N1191 C1184 1.356 . S
N1191 H1194 0.984 . S
N1191 H1195 0.985 . S
H1192 N1187 0.984 . S
H1193 N1187 0.985 . S
H1194 N1191 0.984 . S
H1195 N1191 0.985 . S
H1196 N1190 0.984 . S
H1197 N1190 0.984 . S
H1198 N1186 0.984 . S
H1199 N1186 0.985 . S
C1200 C1201 1.363 . S
C1200 C1206 1.379 . S
C1200 N1208 1.356 . S
C1201 C1200 1.363 . S
C1201 C1207 1.363 . S
C1202 C1203 1.363 . S
C1202 C1207 1.379 . S
C1202 N1209 1.356 . S
C1203 C1202 1.363 . S
C1203 C1206 1.363 . S
N1204 C1206 1.356 . S
N1204 H1216 0.984 . S
N1204 H1217 0.985 . S
N1205 C1207 1.356 . S
N1205 H1210 0.984 . S
N1205 H1211 0.985 . S
C1206 C1200 1.379 . S
C1206 C1203 1.363 . S
C1206 N1204 1.356 . S
C1207 C1201 1.363 . S
C1207 C1202 1.379 . S
C1207 N1205 1.356 . S
N1208 C1200 1.356 . S
N1208 H1214 0.984 . S
N1208 H1215 0.984 . S
N1209 C1202 1.356 . S
N1209 H1212 0.984 . S
N1209 H1213 0.985 . S
H1210 N1205 0.984 . S
H1211 N1205 0.985 . S
H1212 N1209 0.984 . S
H1213 N1209 0.985 . S
H1214 N1208 0.984 . S
H1215 N1208 0.984 . S
H1216 N1204 0.984 . S
H1217 N1204 0.985 . S
C1218 C1219 1.363 . S
C1218 C1224 1.379 . S
C1218 N1226 1.356 . S
C1219 C1218 1.363 . S
C1219 C1225 1.363 . S
C1220 C1221 1.363 . S
C1220 C1225 1.379 . S
C1220 N1227 1.356 . S
C1221 C1220 1.363 . S
C1221 C1224 1.363 . S
N1222 C1224 1.356 . S
N1222 H1234 0.984 . S
N1222 H1235 0.985 . S
N1223 C1225 1.356 . S
N1223 H1228 0.984 . S
N1223 H1229 0.985 . S
C1224 C1218 1.379 . S
C1224 C1221 1.363 . S
C1224 N1222 1.356 . S
C1225 C1219 1.363 . S
C1225 C1220 1.379 . S
C1225 N1223 1.356 . S
N1226 C1218 1.356 . S
N1226 H1232 0.984 . S
N1226 H1233 0.984 . S
N1227 C1220 1.356 . S
N1227 H1230 0.984 . S
N1227 H1231 0.985 . S
H1228 N1223 0.984 . S
H1229 N1223 0.985 . S
H1230 N1227 0.984 . S
H1231 N1227 0.985 . S
H1232 N1226 0.984 . S
H1233 N1226 0.984 . S
H1234 N1222 0.984 . S
H1235 N1222 0.985 . S
C1236 C1237 1.363 . S
C1236 C1242 1.379 . S
C1236 N1244 1.356 . S
C1237 C1236 1.363 . S
C1237 C1243 1.363 . S
C1238 C1239 1.363 . S
C1238 C1243 1.379 . S
C1238 N1245 1.356 . S
C1239 C1238 1.363 . S
C1239 C1242 1.363 . S
N1240 C1242 1.356 . S
N1240 H1252 0.984 . S
N1240 H1253 0.985 . S
N1241 C1243 1.356 . S
N1241 H1246 0.984 . S
N1241 H1247 0.985 . S
C1242 C1236 1.379 . S
C1242 C1239 1.363 . S
C1242 N1240 1.356 . S
C1243 C1237 1.363 . S
C1243 C1238 1.379 . S
C1243 N1241 1.356 . S
N1244 C1236 1.356 . S
N1244 H1250 0.984 . S
N1244 H1251 0.984 . S
N1245 C1238 1.356 . S
N1245 H1248 0.984 . S
N1245 H1249 0.985 . S
H1246 N1241 0.984 . S
H1247 N1241 0.985 . S
H1248 N1245 0.984 . S
H1249 N1245 0.985 . S
H1250 N1244 0.984 . S
H1251 N1244 0.984 . S
H1252 N1240 0.984 . S
H1253 N1240 0.985 . S
C1254 C1255 1.363 . S
C1254 C1260 1.379 . S
C1254 N1262 1.356 1_545 S
C1255 C1254 1.363 . S
C1255 C1261 1.363 . S
C1256 C1257 1.363 . S
C1256 C1261 1.379 . S
C1256 N1263 1.356 . S
C1257 C1256 1.363 . S
C1257 C1260 1.363 . S
N1258 C1260 1.356 1_565 S
N1258 H1270 0.984 . S
N1258 H1271 0.985 . S
N1259 C1261 1.356 . S
N1259 H1264 0.984 . S
N1259 H1265 0.985 . S
C1260 C1254 1.379 . S
C1260 C1257 1.363 . S
C1260 N1258 1.356 1_545 S
C1261 C1255 1.363 . S
C1261 C1256 1.379 . S
C1261 N1259 1.356 . S
N1262 C1254 1.356 1_565 S
N1262 H1268 0.984 . S
N1262 H1269 0.984 1_565 S
N1263 C1256 1.356 . S
N1263 H1266 0.984 . S
N1263 H1267 0.985 . S
H1264 N1259 0.984 . S
H1265 N1259 0.985 . S
H1266 N1263 0.984 . S
H1267 N1263 0.985 . S
H1268 N1262 0.984 . S
H1269 N1262 0.984 1_545 S
H1270 N1258 0.984 . S
H1271 N1258 0.985 . S
C1272 C1273 1.363 . S
C1272 C1278 1.379 . S
C1272 N1280 1.356 . S
C1273 C1272 1.363 . S
C1273 C1279 1.363 . S
C1274 C1275 1.363 . S
C1274 C1279 1.379 . S
C1274 N1281 1.356 . S
C1275 C1274 1.363 . S
C1275 C1278 1.363 . S
N1276 C1278 1.356 . S
N1276 H1288 0.984 . S
N1276 H1289 0.985 . S
N1277 C1279 1.356 . S
N1277 H1282 0.984 . S
N1277 H1283 0.985 . S
C1278 C1272 1.379 . S
C1278 C1275 1.363 . S
C1278 N1276 1.356 . S
C1279 C1273 1.363 . S
C1279 C1274 1.379 . S
C1279 N1277 1.356 . S
N1280 C1272 1.356 . S
N1280 H1286 0.984 . S
N1280 H1287 0.984 . S
N1281 C1274 1.356 . S
N1281 H1284 0.984 . S
N1281 H1285 0.985 . S
H1282 N1277 0.984 . S
H1283 N1277 0.985 . S
H1284 N1281 0.984 . S
H1285 N1281 0.985 . S
H1286 N1280 0.984 . S
H1287 N1280 0.984 . S
H1288 N1276 0.984 . S
H1289 N1276 0.985 . S
C1290 C1291 1.363 . S
C1290 C1296 1.379 . S
C1290 N1298 1.356 . S
C1291 C1290 1.363 . S
C1291 C1297 1.363 . S
C1292 C1293 1.363 . S
C1292 C1297 1.379 . S
C1292 N1299 1.356 . S
C1293 C1292 1.363 . S
C1293 C1296 1.363 . S
N1294 C1296 1.356 . S
N1294 H1306 0.984 . S
N1294 H1307 0.985 . S
N1295 C1297 1.356 . S
N1295 H1300 0.984 . S
N1295 H1301 0.985 . S
C1296 C1290 1.379 . S
C1296 C1293 1.363 . S
C1296 N1294 1.356 . S
C1297 C1291 1.363 . S
C1297 C1292 1.379 . S
C1297 N1295 1.356 . S
N1298 C1290 1.356 . S
N1298 H1304 0.984 . S
N1298 H1305 0.984 . S
N1299 C1292 1.356 . S
N1299 H1302 0.984 . S
N1299 H1303 0.985 . S
H1300 N1295 0.984 . S
H1301 N1295 0.985 . S
H1302 N1299 0.984 . S
H1303 N1299 0.985 . S
H1304 N1298 0.984 . S
H1305 N1298 0.984 . S
H1306 N1294 0.984 . S
H1307 N1294 0.985 . S
C1308 C1309 1.363 . S
C1308 C1314 1.379 . S
C1308 N1316 1.356 . S
C1309 C1308 1.363 . S
C1309 C1315 1.363 . S
C1310 C1311 1.363 . S
C1310 C1315 1.379 . S
C1310 N1317 1.356 . S
C1311 C1310 1.363 . S
C1311 C1314 1.363 . S
N1312 C1314 1.356 . S
N1312 H1324 0.984 . S
N1312 H1325 0.985 . S
N1313 C1315 1.356 . S
N1313 H1318 0.984 . S
N1313 H1319 0.985 . S
C1314 C1308 1.379 . S
C1314 C1311 1.363 . S
C1314 N1312 1.356 . S
C1315 C1309 1.363 . S
C1315 C1310 1.379 . S
C1315 N1313 1.356 . S
N1316 C1308 1.356 . S
N1316 H1322 0.984 . S
N1316 H1323 0.984 . S
N1317 C1310 1.356 . S
N1317 H1320 0.984 . S
N1317 H1321 0.985 . S
H1318 N1313 0.984 . S
H1319 N1313 0.985 . S
H1320 N1317 0.984 . S
H1321 N1317 0.985 . S
H1322 N1316 0.984 . S
H1323 N1316 0.984 . S
H1324 N1312 0.984 . S
H1325 N1312 0.985 . S
C1326 C1327 1.363 . S
C1326 C1332 1.379 . S
C1326 N1334 1.356 . S
C1327 C1326 1.363 . S
C1327 C1333 1.363 1_655 S
C1328 C1329 1.363 1_455 S
C1328 C1333 1.379 . S
C1328 N1335 1.356 . S
C1329 C1328 1.363 1_655 S
C1329 C1332 1.363 . S
N1330 C1332 1.356 . S
N1330 H1342 0.984 . S
N1330 H1343 0.985 . S
N1331 C1333 1.356 . S
N1331 H1336 0.984 . S
N1331 H1337 0.985 . S
C1332 C1326 1.379 . S
C1332 C1329 1.363 . S
C1332 N1330 1.356 . S
C1333 C1327 1.363 1_455 S
C1333 C1328 1.379 . S
C1333 N1331 1.356 . S
N1334 C1326 1.356 . S
N1334 H1340 0.984 . S
N1334 H1341 0.984 . S
N1335 C1328 1.356 . S
N1335 H1338 0.984 . S
N1335 H1339 0.985 . S
H1336 N1331 0.984 . S
H1337 N1331 0.985 . S
H1338 N1335 0.984 . S
H1339 N1335 0.985 . S
H1340 N1334 0.984 . S
H1341 N1334 0.984 . S
H1342 N1330 0.984 . S
H1343 N1330 0.985 . S
C1344 C1345 1.363 . S
C1344 C1350 1.379 . S
C1344 N1352 1.356 . S
C1345 C1344 1.363 . S
C1345 C1351 1.363 . S
C1346 C1347 1.363 . S
C1346 C1351 1.379 . S
C1346 N1353 1.356 . S
C1347 C1346 1.363 . S
C1347 C1350 1.363 . S
N1348 C1350 1.356 . S
N1348 H1360 0.984 . S
N1348 H1361 0.985 . S
N1349 C1351 1.356 . S
N1349 H1354 0.984 . S
N1349 H1355 0.985 . S
C1350 C1344 1.379 . S
C1350 C1347 1.363 . S
C1350 N1348 1.356 . S
C1351 C1345 1.363 . S
C1351 C1346 1.379 . S
C1351 N1349 1.356 . S
N1352 C1344 1.356 . S
N1352 H1358 0.984 . S
N1352 H1359 0.984 . S
N1353 C1346 1.356 . S
N1353 H1356 0.984 . S
N1353 H1357 0.985 . S
H1354 N1349 0.984 . S
H1355 N1349 0.985 . S
H1356 N1353 0.984 . S
H1357 N1353 0.985 . S
H1358 N1352 0.984 . S
H1359 N1352 0.984 . S
H1360 N1348 0.984 . S
H1361 N1348 0.985 . S
C1362 C1363 1.363 1_655 S
C1362 C1368 1.379 . S
C1362 N1370 1.356 . S
C1363 C1362 1.363 1_455 S
C1363 C1369 1.363 . S
C1364 C1365 1.363 . S
C1364 C1369 1.379 . S
C1364 N1371 1.356 . S
C1365 C1364 1.363 . S
C1365 C1368 1.363 1_455 S
N1366 C1368 1.356 . S
N1366 H1378 0.984 . S
N1366 H1379 0.985 . S
N1367 C1369 1.356 . S
N1367 H1372 0.984 . S
N1367 H1373 0.985 . S
C1368 C1362 1.379 . S
C1368 C1365 1.363 1_655 S
C1368 N1366 1.356 . S
C1369 C1363 1.363 . S
C1369 C1364 1.379 . S
C1369 N1367 1.356 . S
N1370 C1362 1.356 . S
N1370 H1376 0.984 . S
N1370 H1377 0.984 . S
N1371 C1364 1.356 . S
N1371 H1374 0.984 . S
N1371 H1375 0.985 . S
H1372 N1367 0.984 . S
H1373 N1367 0.985 . S
H1374 N1371 0.984 . S
H1375 N1371 0.985 . S
H1376 N1370 0.984 . S
H1377 N1370 0.984 . S
H1378 N1366 0.984 . S
H1379 N1366 0.985 . S
C1380 C1381 1.363 . S
C1380 C1386 1.379 . S
C1380 N1388 1.356 . S
C1381 C1380 1.363 . S
C1381 C1387 1.363 . S
C1382 C1383 1.363 . S
C1382 C1387 1.379 . S
C1382 N1389 1.356 . S
C1383 C1382 1.363 . S
C1383 C1386 1.363 . S
N1384 C1386 1.356 . S
N1384 H1396 0.984 . S
N1384 H1397 0.985 . S
N1385 C1387 1.356 . S
N1385 H1390 0.984 . S
N1385 H1391 0.985 . S
C1386 C1380 1.379 . S
C1386 C1383 1.363 . S
C1386 N1384 1.356 . S
C1387 C1381 1.363 . S
C1387 C1382 1.379 . S
C1387 N1385 1.356 . S
N1388 C1380 1.356 . S
N1388 H1394 0.984 . S
N1388 H1395 0.984 . S
N1389 C1382 1.356 . S
N1389 H1392 0.984 . S
N1389 H1393 0.985 . S
H1390 N1385 0.984 . S
H1391 N1385 0.985 . S
H1392 N1389 0.984 . S
H1393 N1389 0.985 . S
H1394 N1388 0.984 . S
H1395 N1388 0.984 . S
H1396 N1384 0.984 . S
H1397 N1384 0.985 . S
C1398 C1399 1.363 . S
C1398 C1404 1.379 . S
C1398 N1406 1.356 . S
C1399 C1398 1.363 . S
C1399 C1405 1.363 . S
C1400 C1401 1.363 . S
C1400 C1405 1.379 . S
C1400 N1407 1.356 . S
C1401 C1400 1.363 . S
C1401 C1404 1.363 . S
N1402 C1404 1.356 . S
N1402 H1414 0.984 . S
N1402 H1415 0.985 . S
N1403 C1405 1.356 . S
N1403 H1408 0.984 . S
N1403 H1409 0.985 . S
C1404 C1398 1.379 . S
C1404 C1401 1.363 . S
C1404 N1402 1.356 . S
C1405 C1399 1.363 . S
C1405 C1400 1.379 . S
C1405 N1403 1.356 . S
N1406 C1398 1.356 . S
N1406 H1412 0.984 . S
N1406 H1413 0.984 . S
N1407 C1400 1.356 . S
N1407 H1410 0.984 . S
N1407 H1411 0.985 . S
H1408 N1403 0.984 . S
H1409 N1403 0.985 . S
H1410 N1407 0.984 . S
H1411 N1407 0.985 . S
H1412 N1406 0.984 . S
H1413 N1406 0.984 . S
H1414 N1402 0.984 . S
H1415 N1402 0.985 . S
C1416 C1417 1.363 . S
C1416 C1422 1.379 . S
C1416 N1424 1.356 . S
C1417 C1416 1.363 . S
C1417 C1423 1.363 . S
C1418 C1419 1.363 . S
C1418 C1423 1.379 . S
C1418 N1425 1.356 . S
C1419 C1418 1.363 . S
C1419 C1422 1.363 . S
N1420 C1422 1.356 . S
N1420 H1432 0.984 . S
N1420 H1433 0.985 . S
N1421 C1423 1.356 . S
N1421 H1426 0.984 . S
N1421 H1427 0.985 . S
C1422 C1416 1.379 . S
C1422 C1419 1.363 . S
C1422 N1420 1.356 . S
C1423 C1417 1.363 . S
C1423 C1418 1.379 . S
C1423 N1421 1.356 . S
N1424 C1416 1.356 . S
N1424 H1430 0.984 . S
N1424 H1431 0.984 . S
N1425 C1418 1.356 . S
N1425 H1428 0.984 . S
N1425 H1429 0.985 . S
H1426 N1421 0.984 . S
H1427 N1421 0.985 . S
H1428 N1425 0.984 . S
H1429 N1425 0.985 . S
H1430 N1424 0.984 . S
H1431 N1424 0.984 . S
H1432 N1420 0.984 . S
H1433 N1420 0.985 . S
C1434 C1435 1.363 . S
C1434 C1440 1.379 . S
C1434 N1442 1.356 . S
C1435 C1434 1.363 . S
C1435 C1441 1.363 . S
C1436 C1437 1.363 . S
C1436 C1441 1.379 . S
C1436 N1443 1.356 . S
C1437 C1436 1.363 . S
C1437 C1440 1.363 . S
N1438 C1440 1.356 . S
N1438 H1450 0.984 . S
N1438 H1451 0.985 . S
N1439 C1441 1.356 . S
N1439 H1444 0.984 . S
N1439 H1445 0.985 . S
C1440 C1434 1.379 . S
C1440 C1437 1.363 . S
C1440 N1438 1.356 . S
C1441 C1435 1.363 . S
C1441 C1436 1.379 . S
C1441 N1439 1.356 . S
N1442 C1434 1.356 . S
N1442 H1448 0.984 . S
N1442 H1449 0.984 . S
N1443 C1436 1.356 . S
N1443 H1446 0.984 . S
N1443 H1447 0.985 . S
H1444 N1439 0.984 . S
H1445 N1439 0.985 . S
H1446 N1443 0.984 . S
H1447 N1443 0.985 . S
H1448 N1442 0.984 . S
H1449 N1442 0.984 . S
H1450 N1438 0.984 . S
H1451 N1438 0.985 . S
C1452 C1453 1.363 . S
C1452 C1458 1.379 . S
C1452 N1460 1.356 . S
C1453 C1452 1.363 . S
C1453 C1459 1.363 . S
C1454 C1455 1.363 . S
C1454 C1459 1.379 . S
C1454 N1461 1.356 . S
C1455 C1454 1.363 . S
C1455 C1458 1.363 . S
N1456 C1458 1.356 . S
N1456 H1468 0.984 . S
N1456 H1469 0.985 . S
N1457 C1459 1.356 . S
N1457 H1462 0.984 . S
N1457 H1463 0.985 . S
C1458 C1452 1.379 . S
C1458 C1455 1.363 . S
C1458 N1456 1.356 . S
C1459 C1453 1.363 . S
C1459 C1454 1.379 . S
C1459 N1457 1.356 . S
N1460 C1452 1.356 . S
N1460 H1466 0.984 . S
N1460 H1467 0.984 . S
N1461 C1454 1.356 . S
N1461 H1464 0.984 . S
N1461 H1465 0.985 . S
H1462 N1457 0.984 . S
H1463 N1457 0.985 . S
H1464 N1461 0.984 . S
H1465 N1461 0.985 . S
H1466 N1460 0.984 . S
H1467 N1460 0.984 . S
H1468 N1456 0.984 . S
H1469 N1456 0.985 . S
C1470 C1471 1.363 . S
C1470 C1476 1.379 . S
C1470 N1478 1.356 . S
C1471 C1470 1.363 . S
C1471 C1477 1.363 . S
C1472 C1473 1.363 . S
C1472 C1477 1.379 . S
C1472 N1479 1.356 . S
C1473 C1472 1.363 . S
C1473 C1476 1.363 . S
N1474 C1476 1.356 . S
N1474 H1486 0.984 . S
N1474 H1487 0.985 . S
N1475 C1477 1.356 . S
N1475 H1480 0.984 . S
N1475 H1481 0.985 . S
C1476 C1470 1.379 . S
C1476 C1473 1.363 . S
C1476 N1474 1.356 . S
C1477 C1471 1.363 . S
C1477 C1472 1.379 . S
C1477 N1475 1.356 . S
N1478 C1470 1.356 . S
N1478 H1484 0.984 . S
N1478 H1485 0.984 . S
N1479 C1472 1.356 . S
N1479 H1482 0.984 . S
N1479 H1483 0.985 . S
H1480 N1475 0.984 . S
H1481 N1475 0.985 . S
H1482 N1479 0.984 . S
H1483 N1479 0.985 . S
H1484 N1478 0.984 . S
H1485 N1478 0.984 . S
H1486 N1474 0.984 . S
H1487 N1474 0.985 . S
C1488 C1489 1.363 . S
C1488 C1494 1.379 . S
C1488 N1496 1.356 . S
C1489 C1488 1.363 . S
C1489 C1495 1.363 . S
C1490 C1491 1.363 . S
C1490 C1495 1.379 . S
C1490 N1497 1.356 . S
C1491 C1490 1.363 . S
C1491 C1494 1.363 . S
N1492 C1494 1.356 . S
N1492 H1504 0.984 . S
N1492 H1505 0.985 . S
N1493 C1495 1.356 . S
N1493 H1498 0.984 . S
N1493 H1499 0.985 . S
C1494 C1488 1.379 . S
C1494 C1491 1.363 . S
C1494 N1492 1.356 . S
C1495 C1489 1.363 . S
C1495 C1490 1.379 . S
C1495 N1493 1.356 . S
N1496 C1488 1.356 . S
N1496 H1502 0.984 . S
N1496 H1503 0.984 . S
N1497 C1490 1.356 . S
N1497 H1500 0.984 . S
N1497 H1501 0.985 . S
H1498 N1493 0.984 . S
H1499 N1493 0.985 . S
H1500 N1497 0.984 . S
H1501 N1497 0.985 . S
H1502 N1496 0.984 . S
H1503 N1496 0.984 . S
H1504 N1492 0.984 . S
H1505 N1492 0.985 . S
C1506 C1507 1.363 . S
C1506 C1512 1.379 . S
C1506 N1514 1.356 . S
C1507 C1506 1.363 . S
C1507 C1513 1.363 . S
C1508 C1509 1.363 . S
C1508 C1513 1.379 . S
C1508 N1515 1.356 . S
C1509 C1508 1.363 . S
C1509 C1512 1.363 . S
N1510 C1512 1.356 . S
N1510 H1522 0.984 . S
N1510 H1523 0.985 . S
N1511 C1513 1.356 . S
N1511 H1516 0.984 . S
N1511 H1517 0.985 . S
C1512 C1506 1.379 . S
C1512 C1509 1.363 . S
C1512 N1510 1.356 . S
C1513 C1507 1.363 . S
C1513 C1508 1.379 . S
C1513 N1511 1.356 . S
N1514 C1506 1.356 . S
N1514 H1520 0.984 . S
N1514 H1521 0.984 . S
N1515 C1508 1.356 . S
N1515 H1518 0.984 . S
N1515 H1519 0.985 . S
H1516 N1511 0.984 . S
H1517 N1511 0.985 . S
H1518 N1515 0.984 . S
H1519 N1515 0.985 . S
H1520 N1514 0.984 . S
H1521 N1514 0.984 . S
H1522 N1510 0.984 . S
H1523 N1510 0.985 . S
C1524 C1525 1.363 . S
C1524 C1530 1.379 . S
C1524 N1532 1.356 . S
C1525 C1524 1.363 . S
C1525 C1531 1.363 . S
C1526 C1527 1.363 . S
C1526 C1531 1.379 . S
C1526 N1533 1.356 1_556 S
C1527 C1526 1.363 . S
C1527 C1530 1.363 . S
N1528 C1530 1.356 . S
N1528 H1540 0.984 . S
N1528 H1541 0.985 . S
N1529 C1531 1.356 . S
N1529 H1534 0.984 . S
N1529 H1535 0.985 1_556 S
C1530 C1524 1.379 . S
C1530 C1527 1.363 . S
C1530 N1528 1.356 . S
C1531 C1525 1.363 . S
C1531 C1526 1.379 . S
C1531 N1529 1.356 . S
N1532 C1524 1.356 . S
N1532 H1538 0.984 . S
N1532 H1539 0.984 . S
N1533 C1526 1.356 1_554 S
N1533 H1536 0.984 . S
N1533 H1537 0.985 . S
H1534 N1529 0.984 . S
H1535 N1529 0.985 1_554 S
H1536 N1533 0.984 . S
H1537 N1533 0.985 . S
H1538 N1532 0.984 . S
H1539 N1532 0.984 . S
H1540 N1528 0.984 . S
H1541 N1528 0.985 . S
C1542 C1543 1.363 . S
C1542 C1548 1.379 . S
C1542 N1550 1.356 . S
C1543 C1542 1.363 . S
C1543 C1549 1.363 . S
C1544 C1545 1.363 . S
C1544 C1549 1.379 . S
C1544 N1551 1.356 . S
C1545 C1544 1.363 . S
C1545 C1548 1.363 . S
N1546 C1548 1.356 . S
N1546 H1558 0.984 . S
N1546 H1559 0.985 . S
N1547 C1549 1.356 . S
N1547 H1552 0.984 . S
N1547 H1553 0.985 . S
C1548 C1542 1.379 . S
C1548 C1545 1.363 . S
C1548 N1546 1.356 . S
C1549 C1543 1.363 . S
C1549 C1544 1.379 . S
C1549 N1547 1.356 . S
N1550 C1542 1.356 . S
N1550 H1556 0.984 . S
N1550 H1557 0.984 . S
N1551 C1544 1.356 . S
N1551 H1554 0.984 . S
N1551 H1555 0.985 . S
H1552 N1547 0.984 . S
H1553 N1547 0.985 . S
H1554 N1551 0.984 . S
H1555 N1551 0.985 . S
H1556 N1550 0.984 . S
H1557 N1550 0.984 . S
H1558 N1546 0.984 . S
H1559 N1546 0.985 . S
C1560 C1561 1.363 . S
C1560 C1566 1.379 . S
C1560 N1568 1.356 . S
C1561 C1560 1.363 . S
C1561 C1567 1.363 . S
C1562 C1563 1.363 . S
C1562 C1567 1.379 . S
C1562 N1569 1.356 . S
C1563 C1562 1.363 . S
C1563 C1566 1.363 . S
N1564 C1566 1.356 1_556 S
N1564 H1576 0.984 . S
N1564 H1577 0.985 . S
N1565 C1567 1.356 . S
N1565 H1570 0.984 . S
N1565 H1571 0.985 . S
C1566 C1560 1.379 . S
C1566 C1563 1.363 . S
C1566 N1564 1.356 1_554 S
C1567 C1561 1.363 . S
C1567 C1562 1.379 . S
C1567 N1565 1.356 . S
N1568 C1560 1.356 . S
N1568 H1574 0.984 1_554 S
N1568 H1575 0.984 . S
N1569 C1562 1.356 . S
N1569 H1572 0.984 . S
N1569 H1573 0.985 . S
H1570 N1565 0.984 . S
H1571 N1565 0.985 . S
H1572 N1569 0.984 . S
H1573 N1569 0.985 . S
H1574 N1568 0.984 1_556 S
H1575 N1568 0.984 . S
H1576 N1564 0.984 . S
H1577 N1564 0.985 . S
C1578 C1579 1.363 . S
C1578 C1584 1.379 . S
C1578 N1586 1.356 . S
C1579 C1578 1.363 . S
C1579 C1585 1.363 . S
C1580 C1581 1.353 1_556 S
C1580 C1585 1.378 1_556 S
C1580 N1587 1.365 . S
C1581 C1580 1.353 1_554 S
C1581 C1584 1.363 . S
N1582 C1584 1.356 . S
N1582 H1594 0.984 . S
N1582 H1595 0.985 . S
N1583 C1585 1.356 1_556 S
N1583 H1588 0.984 . S
N1583 H1589 0.985 . S
C1584 C1578 1.379 . S
C1584 C1581 1.363 . S
C1584 N1582 1.356 . S
C1585 C1579 1.363 . S
C1585 C1580 1.378 1_554 S
C1585 N1583 1.356 1_554 S
N1586 C1578 1.356 . S
N1586 H1592 0.984 . S
N1586 H1593 0.984 . S
N1587 C1580 1.365 . S
N1587 H1590 0.984 . S
N1587 H1591 0.985 . S
H1588 N1583 0.984 . S
H1589 N1583 0.985 . S
H1590 N1587 0.984 . S
H1591 N1587 0.985 . S
H1592 N1586 0.984 . S
H1593 N1586 0.984 . S
H1594 N1582 0.984 . S
H1595 N1582 0.985 . S
C735 C586 1.425 . S
C733 C181 1.430 . S
C753 C599 1.585 . S
C751 C247 1.597 . S
C769 C283 1.468 . S
C771 C612 1.462 . S
C789 C625 1.515 . S
C787 C169 1.520 . S
C807 C633 1.466 . S
C805 C361 1.499 . S
C825 C646 1.423 . S
C823 C433 1.434 . S
C841 C421 1.516 . S
C843 C659 1.494 . S
C861 C672 1.509 . S
C859 C355 1.525 . S
C877 C427 1.460 . S
C879 C690 1.451 . S
C897 C701 1.504 . S
C895 C325 1.538 . S
C913 C385 1.467 . S
C915 C685 1.438 . S
C933 C693 1.462 . S
C931 C463 1.483 . S
C949 C253 1.509 . S
C951 C716 1.502 . S
C967 C145 1.512 . S
C969 C706 1.482 . S
C985 C205 1.496 . S
C987 C711 1.464 . S
C1003 C217 1.555 . S
C1005 C714 1.519 . S
C1021 C139 1.473 . S
C1023 C623 1.444 . S
C1039 C535 1.438 . S
C1041 C615 1.421 . S
C1059 C584 1.511 1_556 S
C1057 C565 1.548 . S
C1077 C589 1.497 . S
C1075 C313 1.510 . S
C1093 C175 1.539 . S
C1095 C636 1.514 . S
C1113 C675 1.501 . S
C1111 C397 1.526 . S
C1131 C628 1.479 . S
C1129 C349 1.509 . S
C1149 C654 1.452 . S
C1147 C457 1.480 . S
C1167 C664 1.425 . S
C1165 C505 1.431 . S
C1183 C571 1.597 . S
C1185 C677 1.585 . S
C1201 C319 1.468 . S
C1203 C638 1.459 . S
C1221 C651 1.515 . S
C1219 C493 1.520 . S
C1237 C109 1.499 . S
C1239 C607 1.463 . S
C1257 C620 1.423 . S
C1255 C1 1.434 . S
C1275 C581 1.494 . S
C1273 C61 1.515 . S
C1293 C594 1.509 . S
C1291 C103 1.525 . S
C1309 C67 1.460 . S
C1311 C703 1.451 . S
C1327 C73 1.538 . S
C1329 C688 1.503 1_655 S
C1345 C133 1.467 . S
C1347 C698 1.438 . S
C1363 C31 1.483 . S
C1365 C680 1.462 . S
C1383 C729 1.502 . S
C1381 C289 1.509 . S
C1401 C719 1.482 . S
C1399 C469 1.512 . S
C1419 C724 1.464 . S
C1417 C529 1.496 . S
C1435 C541 1.555 . S
C1437 C727 1.520 . S
C1453 C391 1.473 . S
C1455 C649 1.444 . S
C1473 C641 1.420 . S
C1471 C211 1.438 . S
C1491 C662 1.519 . S
C1489 C241 1.548 . S
C1509 C667 1.497 . S
C1507 C277 1.512 . S
C1525 C499 1.539 . S
C1527 C610 1.515 . S
C1545 C597 1.501 . S
C1543 C37 1.528 . S
C1561 C97 1.509 . S
C1563 C602 1.478 . S
C1581 C576 1.452 . S
C1579 C25 1.480 . S
