# Generated by pormake.
# Topology eea, (3,6)-cn, num edge types: 1
# Building blocks:
#     Node 0, Type 0, BuildingBlock: ESEHIV_clean_linker_0, # of connection points: 3
#     Node 1, Type 0, BuildingBlock: ESEHIV_clean_linker_0, # of connection points: 3
#     Node 2, Type 0, BuildingBlock: ESEHIV_clean_linker_0, # of connection points: 3
#     Node 3, Type 0, BuildingBlock: ESEHIV_clean_linker_0, # of connection points: 3
#     Node 4, Type 0, BuildingBlock: ESEHIV_clean_linker_0, # of connection points: 3
#     Node 5, Type 0, BuildingBlock: ESEHIV_clean_linker_0, # of connection points: 3
#     Node 6, Type 0, BuildingBlock: ESEHIV_clean_linker_0, # of connection points: 3
#     Node 7, Type 0, BuildingBlock: ESEHIV_clean_linker_0, # of connection points: 3
#     Node 8, Type 0, BuildingBlock: ESEHIV_clean_linker_0, # of connection points: 3
#     Node 9, Type 0, BuildingBlock: ESEHIV_clean_linker_0, # of connection points: 3
#     Node 10, Type 0, BuildingBlock: ESEHIV_clean_linker_0, # of connection points: 3
#     Node 11, Type 0, BuildingBlock: ESEHIV_clean_linker_0, # of connection points: 3
#     Node 12, Type 0, BuildingBlock: ESEHIV_clean_linker_0, # of connection points: 3
#     Node 13, Type 0, BuildingBlock: ESEHIV_clean_linker_0, # of connection points: 3
#     Node 14, Type 0, BuildingBlock: ESEHIV_clean_linker_0, # of connection points: 3
#     Node 15, Type 0, BuildingBlock: ESEHIV_clean_linker_0, # of connection points: 3
#     Node 16, Type 0, BuildingBlock: ESEHIV_clean_linker_0, # of connection points: 3
#     Node 17, Type 0, BuildingBlock: ESEHIV_clean_linker_0, # of connection points: 3
#     Node 18, Type 1, BuildingBlock: KUMBOL_clean_sbu_0, # of connection points: 6
#     Node 19, Type 1, BuildingBlock: KUMBOL_clean_sbu_0, # of connection points: 6
#     Node 20, Type 1, BuildingBlock: KUMBOL_clean_sbu_0, # of connection points: 6
#     Node 21, Type 1, BuildingBlock: KUMBOL_clean_sbu_0, # of connection points: 6
#     Node 22, Type 1, BuildingBlock: KUMBOL_clean_sbu_0, # of connection points: 6
#     Node 23, Type 1, BuildingBlock: KUMBOL_clean_sbu_0, # of connection points: 6
#     Node 24, Type 1, BuildingBlock: KUMBOL_clean_sbu_0, # of connection points: 6
#     Node 25, Type 1, BuildingBlock: KUMBOL_clean_sbu_0, # of connection points: 6
#     Node 26, Type 1, BuildingBlock: KUMBOL_clean_sbu_0, # of connection points: 6
#     Edge 27, Type (0, 1), BuildingBlock: XIVTED_clean_linker_0, # of connection points: 2
#     Edge 28, Type (0, 1), BuildingBlock: XIVTED_clean_linker_0, # of connection points: 2
#     Edge 29, Type (0, 1), BuildingBlock: XIVTED_clean_linker_0, # of connection points: 2
#     Edge 30, Type (0, 1), BuildingBlock: XIVTED_clean_linker_0, # of connection points: 2
#     Edge 31, Type (0, 1), BuildingBlock: XIVTED_clean_linker_0, # of connection points: 2
#     Edge 32, Type (0, 1), BuildingBlock: XIVTED_clean_linker_0, # of connection points: 2
#     Edge 33, Type (0, 1), BuildingBlock: XIVTED_clean_linker_0, # of connection points: 2
#     Edge 34, Type (0, 1), BuildingBlock: XIVTED_clean_linker_0, # of connection points: 2
#     Edge 35, Type (0, 1), BuildingBlock: XIVTED_clean_linker_0, # of connection points: 2
#     Edge 36, Type (0, 1), BuildingBlock: XIVTED_clean_linker_0, # of connection points: 2
#     Edge 37, Type (0, 1), BuildingBlock: XIVTED_clean_linker_0, # of connection points: 2
#     Edge 38, Type (0, 1), BuildingBlock: XIVTED_clean_linker_0, # of connection points: 2
#     Edge 39, Type (0, 1), BuildingBlock: XIVTED_clean_linker_0, # of connection points: 2
#     Edge 40, Type (0, 1), BuildingBlock: XIVTED_clean_linker_0, # of connection points: 2
#     Edge 41, Type (0, 1), BuildingBlock: XIVTED_clean_linker_0, # of connection points: 2
#     Edge 42, Type (0, 1), BuildingBlock: XIVTED_clean_linker_0, # of connection points: 2
#     Edge 43, Type (0, 1), BuildingBlock: XIVTED_clean_linker_0, # of connection points: 2
#     Edge 44, Type (0, 1), BuildingBlock: XIVTED_clean_linker_0, # of connection points: 2
#     Edge 45, Type (0, 1), BuildingBlock: XIVTED_clean_linker_0, # of connection points: 2
#     Edge 46, Type (0, 1), BuildingBlock: XIVTED_clean_linker_0, # of connection points: 2
#     Edge 47, Type (0, 1), BuildingBlock: XIVTED_clean_linker_0, # of connection points: 2
#     Edge 48, Type (0, 1), BuildingBlock: XIVTED_clean_linker_0, # of connection points: 2
#     Edge 49, Type (0, 1), BuildingBlock: XIVTED_clean_linker_0, # of connection points: 2
#     Edge 50, Type (0, 1), BuildingBlock: XIVTED_clean_linker_0, # of connection points: 2
#     Edge 51, Type (0, 1), BuildingBlock: XIVTED_clean_linker_0, # of connection points: 2
#     Edge 52, Type (0, 1), BuildingBlock: XIVTED_clean_linker_0, # of connection points: 2
#     Edge 53, Type (0, 1), BuildingBlock: XIVTED_clean_linker_0, # of connection points: 2
#     Edge 54, Type (0, 1), BuildingBlock: XIVTED_clean_linker_0, # of connection points: 2
#     Edge 55, Type (0, 1), BuildingBlock: XIVTED_clean_linker_0, # of connection points: 2
#     Edge 56, Type (0, 1), BuildingBlock: XIVTED_clean_linker_0, # of connection points: 2
#     Edge 57, Type (0, 1), BuildingBlock: XIVTED_clean_linker_0, # of connection points: 2
#     Edge 58, Type (0, 1), BuildingBlock: XIVTED_clean_linker_0, # of connection points: 2
#     Edge 59, Type (0, 1), BuildingBlock: XIVTED_clean_linker_0, # of connection points: 2
#     Edge 60, Type (0, 1), BuildingBlock: XIVTED_clean_linker_0, # of connection points: 2
#     Edge 61, Type (0, 1), BuildingBlock: XIVTED_clean_linker_0, # of connection points: 2
#     Edge 62, Type (0, 1), BuildingBlock: XIVTED_clean_linker_0, # of connection points: 2
#     Edge 63, Type (0, 1), BuildingBlock: XIVTED_clean_linker_0, # of connection points: 2
#     Edge 64, Type (0, 1), BuildingBlock: XIVTED_clean_linker_0, # of connection points: 2
#     Edge 65, Type (0, 1), BuildingBlock: XIVTED_clean_linker_0, # of connection points: 2
#     Edge 66, Type (0, 1), BuildingBlock: XIVTED_clean_linker_0, # of connection points: 2
#     Edge 67, Type (0, 1), BuildingBlock: XIVTED_clean_linker_0, # of connection points: 2
#     Edge 68, Type (0, 1), BuildingBlock: XIVTED_clean_linker_0, # of connection points: 2
#     Edge 69, Type (0, 1), BuildingBlock: XIVTED_clean_linker_0, # of connection points: 2
#     Edge 70, Type (0, 1), BuildingBlock: XIVTED_clean_linker_0, # of connection points: 2
#     Edge 71, Type (0, 1), BuildingBlock: XIVTED_clean_linker_0, # of connection points: 2
#     Edge 72, Type (0, 1), BuildingBlock: XIVTED_clean_linker_0, # of connection points: 2
#     Edge 73, Type (0, 1), BuildingBlock: XIVTED_clean_linker_0, # of connection points: 2
#     Edge 74, Type (0, 1), BuildingBlock: XIVTED_clean_linker_0, # of connection points: 2
#     Edge 75, Type (0, 1), BuildingBlock: XIVTED_clean_linker_0, # of connection points: 2
#     Edge 76, Type (0, 1), BuildingBlock: XIVTED_clean_linker_0, # of connection points: 2
#     Edge 77, Type (0, 1), BuildingBlock: XIVTED_clean_linker_0, # of connection points: 2
#     Edge 78, Type (0, 1), BuildingBlock: XIVTED_clean_linker_0, # of connection points: 2
#     Edge 79, Type (0, 1), BuildingBlock: XIVTED_clean_linker_0, # of connection points: 2
#     Edge 80, Type (0, 1), BuildingBlock: XIVTED_clean_linker_0, # of connection points: 2
# Relax obj value: 0.008
# Max RMSD: 0.088
# Mean RMSD: 0.073
data_MOF--net-eea--node1-KUMBOL_clean_sbu_0--node2-ESEHIV_clean_linker_0--edge1-XIVTED_clean_linker_0
_symmetry_space_group_name_H-M    P1
_symmetry_Int_Tables_number       1
_symmetry_cell_setting            triclinic
loop_
_symmetry_equiv_pos_as_xyz
'x, y, z'
_cell_length_a     47.638408
_cell_length_b     48.983703
_cell_length_c     71.349779
_cell_angle_alpha  90.021811
_cell_angle_beta   89.781533
_cell_angle_gamma 119.96207
loop_
_atom_site_label
_atom_site_type_symbol
_atom_site_fract_x
_atom_site_fract_y
_atom_site_fract_z
_atom_type_partial_charge
H0 H 0.26764 0.17595 0.44782 0.0
H1 H 0.27064 0.08981 0.44617 0.0
H2 H 0.21905 0.10917 0.40371 0.0
C3 C 0.26097 0.15366 0.44115 0.0
C4 C 0.24247 0.1451 0.42465 0.0
C5 C 0.27105 0.13372 0.44907 0.0
C6 C 0.26256 0.10501 0.4402 0.0
C7 C 0.24367 0.09573 0.42384 0.0
C8 C 0.23363 0.11596 0.41627 0.0
H9 H 0.84134 0.09282 0.45081 0.0
H10 H 0.92636 0.18437 0.44523 0.0
H11 H 0.90086 0.11607 0.40127 0.0
C12 C 0.86243 0.10941 0.44284 0.0
C13 C 0.86869 0.10055 0.42521 0.0
C14 C 0.88297 0.13969 0.45016 0.0
C15 C 0.91016 0.16117 0.43961 0.0
C16 C 0.9171 0.15263 0.42208 0.0
C17 C 0.89623 0.12232 0.41505 0.0
H18 H 0.83193 0.75289 0.44255 0.0
H19 H 0.92225 0.75298 0.44225 0.0
H20 H 0.8956 0.78969 0.3949 0.0
C21 C 0.85432 0.7581 0.43559 0.0
C22 C 0.86103 0.77196 0.41767 0.0
C23 C 0.87621 0.75121 0.44469 0.0
C24 C 0.90541 0.75862 0.43553 0.0
C25 C 0.91278 0.77263 0.41757 0.0
C26 C 0.89059 0.77966 0.40888 0.0
H27 H 0.08405 0.24236 0.58078 0.0
H28 H 0.17667 0.24709 0.5813 0.0
H29 H 0.11116 0.20554 0.62781 0.0
C30 C 0.10138 0.2375 0.58759 0.0
C31 C 0.09377 0.22247 0.60522 0.0
C32 C 0.13132 0.24664 0.57882 0.0
C33 C 0.15373 0.24062 0.58802 0.0
C34 C 0.14674 0.22581 0.60566 0.0
C35 C 0.11648 0.2164 0.61405 0.0
H36 H 0.72935 0.90369 0.58338 0.0
H37 H 0.73337 0.81809 0.58213 0.0
H38 H 0.77109 0.88042 0.62959 0.0
C39 C 0.73623 0.88791 0.58992 0.0
C40 C 0.7513 0.8955 0.60748 0.0
C41 C 0.72963 0.86006 0.58074 0.0
C42 C 0.73774 0.83926 0.58943 0.0
C43 C 0.7529 0.8465 0.60706 0.0
C44 C 0.75936 0.87459 0.61603 0.0
H45 H 0.08276 0.81729 0.58405 0.0
H46 H 0.16797 0.9089 0.58141 0.0
H47 H 0.10514 0.88225 0.62966 0.0
C48 C 0.09859 0.84002 0.59036 0.0
C49 C 0.09096 0.84697 0.60815 0.0
C50 C 0.12595 0.86254 0.58044 0.0
C51 C 0.1461 0.89204 0.58868 0.0
C52 C 0.13898 0.89947 0.60646 0.0
C53 C 0.11108 0.87683 0.616 0.0
H54 H 0.95599 0.51373 0.77394 0.0
H55 H 0.96175 0.42909 0.77149 0.0
H56 H 0.91523 0.45067 0.72711 0.0
C57 C 0.95119 0.49246 0.76661 0.0
C58 C 0.93539 0.48522 0.74916 0.0
C59 C 0.96005 0.47187 0.77491 0.0
C60 C 0.95405 0.44448 0.76531 0.0
C61 C 0.93823 0.43678 0.74793 0.0
C62 C 0.92888 0.45723 0.74004 0.0
H63 H 0.50577 0.41745 0.78068 0.0
H64 H 0.59191 0.50856 0.77799 0.0
H65 H 0.56727 0.44404 0.7319 0.0
C66 C 0.52736 0.43449 0.77324 0.0
C67 C 0.53411 0.42705 0.75536 0.0
C68 C 0.54794 0.46387 0.78152 0.0
C69 C 0.57569 0.48596 0.77165 0.0
C70 C 0.58309 0.47879 0.75384 0.0
C71 C 0.56223 0.44925 0.74586 0.0
H72 H 0.49875 0.08149 0.77405 0.0
H73 H 0.58976 0.08279 0.77398 0.0
H74 H 0.56157 0.11634 0.72591 0.0
C75 C 0.52092 0.08633 0.76694 0.0
C76 C 0.52725 0.09949 0.74883 0.0
C77 C 0.54312 0.08002 0.77619 0.0
C78 C 0.5726 0.08789 0.76717 0.0
C79 C 0.57937 0.10092 0.74898 0.0
C80 C 0.55652 0.10652 0.73994 0.0
H81 H 0.75057 0.58093 0.91831 0.0
H82 H 0.83988 0.5792 0.91676 0.0
H83 H 0.77897 0.54629 0.96584 0.0
C84 C 0.76775 0.57572 0.925 0.0
C85 C 0.76124 0.56283 0.94322 0.0
C86 C 0.79586 0.58139 0.91522 0.0
C87 C 0.81784 0.57436 0.92404 0.0
C88 C 0.81206 0.56174 0.9423 0.0
C89 C 0.78335 0.55548 0.95166 0.0
H90 H 0.41209 0.25009 0.91273 0.0
H91 H 0.40565 0.15949 0.91231 0.0
H92 H 0.45408 0.22442 0.95759 0.0
C93 C 0.41724 0.2331 0.91926 0.0
C94 C 0.43363 0.24033 0.93642 0.0
C95 C 0.40742 0.20415 0.91041 0.0
C96 C 0.41377 0.18203 0.91903 0.0
C97 C 0.43081 0.18907 0.93608 0.0
C98 C 0.44079 0.21846 0.94455 0.0
H99 H 0.75079 0.1532 0.91426 0.0
H100 H 0.83589 0.245 0.91135 0.0
H101 H 0.77324 0.21877 0.95959 0.0
C102 C 0.7663 0.1762 0.92035 0.0
C103 C 0.75835 0.18357 0.93795 0.0
C104 C 0.79442 0.19814 0.91072 0.0
C105 C 0.81452 0.22775 0.91886 0.0
C106 C 0.80703 0.23554 0.93643 0.0
C107 C 0.77874 0.21335 0.9458 0.0
H108 H 0.60195 0.84117 0.11569 0.0
H109 H 0.59981 0.75234 0.11604 0.0
H110 H 0.55757 0.77596 0.07024 0.0
C111 C 0.5951 0.81873 0.10916 0.0
C112 C 0.57807 0.81075 0.09213 0.0
C113 C 0.60351 0.798 0.11775 0.0
C114 C 0.59434 0.76888 0.10921 0.0
C115 C 0.57741 0.76059 0.09218 0.0
C116 C 0.56956 0.78174 0.08373 0.0
H117 H 0.17137 0.7561 0.11059 0.0
H118 H 0.26049 0.84465 0.10834 0.0
H119 H 0.23401 0.7793 0.06254 0.0
C120 C 0.19373 0.77206 0.10339 0.0
C121 C 0.20019 0.76391 0.08566 0.0
C122 C 0.21527 0.80113 0.11168 0.0
C123 C 0.24354 0.82241 0.10189 0.0
C124 C 0.25054 0.81472 0.08412 0.0
C125 C 0.22875 0.78538 0.07619 0.0
H126 H 0.16508 0.41805 0.10785 0.0
H127 H 0.25472 0.4169 0.10867 0.0
H128 H 0.23063 0.45508 0.06098 0.0
C129 C 0.18764 0.42313 0.10115 0.0
C130 C 0.19518 0.43733 0.08332 0.0
C131 C 0.2089 0.41569 0.1105 0.0
C132 C 0.23835 0.42294 0.10173 0.0
C133 C 0.24655 0.43729 0.08388 0.0
C134 C 0.22497 0.44481 0.0749 0.0
H135 H 0.41799 0.91535 0.24977 0.0
H136 H 0.50735 0.91372 0.25112 0.0
H137 H 0.44239 0.87923 0.29833 0.0
C138 C 0.43433 0.90948 0.2569 0.0
C139 C 0.4263 0.89601 0.27499 0.0
C140 C 0.46363 0.91616 0.24816 0.0
C141 C 0.48488 0.90903 0.25777 0.0
C142 C 0.47754 0.89575 0.27584 0.0
C143 C 0.44789 0.88877 0.28424 0.0
H144 H 0.07124 0.58098 0.24493 0.0
H145 H 0.06978 0.49275 0.24412 0.0
H146 H 0.12281 0.561 0.28695 0.0
C147 C 0.07907 0.56557 0.25089 0.0
C148 C 0.09759 0.57436 0.26736 0.0
C149 C 0.06986 0.53665 0.24213 0.0
C150 C 0.07779 0.51546 0.25057 0.0
C151 C 0.09627 0.52371 0.26712 0.0
C152 C 0.10685 0.55361 0.27496 0.0
H153 H 0.41858 0.49006 0.2517 0.0
H154 H 0.50451 0.58122 0.25036 0.0
H155 H 0.43899 0.55448 0.29739 0.0
C156 C 0.43421 0.51266 0.25822 0.0
C157 C 0.42567 0.51944 0.2758 0.0
C158 C 0.46227 0.53509 0.24877 0.0
C159 C 0.48215 0.56445 0.25725 0.0
C160 C 0.47418 0.5718 0.27484 0.0
C161 C 0.4456 0.54917 0.2839 0.0
Gd162 Gd 0.5206 0.02385 0.03388 0.0
Gd163 Gd 0.49118 0.97488 0.99083 0.0
C164 C 0.39173 0.88583 0.98837 0.0
C165 C 0.40598 0.84478 0.98546 0.0
C166 C 0.44813 0.89984 0.98697 0.0
C167 C 0.42494 0.90873 0.98861 0.0
C168 C 0.43897 0.86783 0.98496 0.0
C169 C 0.38239 0.85377 0.98718 0.0
C170 C 0.36894 0.89589 0.98887 0.0
C171 C 0.37952 0.9281 0.98895 0.0
N172 N 0.43486 0.93991 0.98962 0.0
C173 C 0.41275 0.9499 0.98906 0.0
H174 H 0.42047 0.97468 0.98921 0.0
C175 C 0.50335 0.91544 0.98263 0.0
N176 N 0.4797 0.92272 0.98641 0.0
C177 C 0.49552 0.88401 0.98066 0.0
C178 C 0.46321 0.86004 0.98205 0.0
H179 H 0.52839 0.93387 0.98167 0.0
H180 H 0.357 0.83581 0.98715 0.0
H181 H 0.59257 0.02662 0.03425 0.0
H182 H 0.3432 0.87905 0.98877 0.0
H183 H 0.36211 0.93616 0.98899 0.0
H184 H 0.39844 0.82002 0.98411 0.0
H185 H 0.4817 0.06198 0.04612 0.0
H186 H 0.66768 0.12314 0.03551 0.0
H187 H 0.65054 0.06646 0.03425 0.0
H188 H 0.60937 0.17864 0.04379 0.0
H189 H 0.5144 0.87828 0.9781 0.0
H190 H 0.45718 0.83571 0.98046 0.0
H191 H 0.65205 0.16495 0.03883 0.0
H192 H 0.49397 0.11657 0.05189 0.0
N193 N 0.57664 0.06022 0.03476 0.0
C194 C 0.64211 0.10571 0.03543 0.0
C195 C 0.63253 0.07375 0.03478 0.0
C196 C 0.61855 0.11474 0.03667 0.0
C197 C 0.58561 0.0911 0.03642 0.0
C198 C 0.59953 0.05119 0.03479 0.0
N199 N 0.53053 0.07514 0.03981 0.0
C200 C 0.56173 0.09882 0.03908 0.0
C201 C 0.51326 0.11193 0.04819 0.0
C202 C 0.54511 0.13678 0.04654 0.0
C203 C 0.5064 0.08104 0.04494 0.0
C204 C 0.56991 0.13035 0.04222 0.0
H205 H 0.55038 0.16068 0.0491 0.0
O206 O 0.4959 0.01566 0.06075 0.0
O207 O 0.48082 0.98179 0.02017 0.0
O208 O 0.47735 0.01309 0.9919 0.0
O209 O 0.51297 0.0529 0.01217 0.0
O210 O 0.4672 0.00723 0.03705 0.0
O211 O 0.53898 0.01172 0.05847 0.0
O212 O 0.51574 0.98037 0.96417 0.0
O213 O 0.53105 0.0173 1.00433 0.0
O214 O 0.53578 0.98669 0.03209 0.0
O215 O 0.49775 0.94621 0.01326 0.0
O216 O 0.54432 0.99091 0.98791 0.0
O217 O 0.47422 0.98706 0.96566 0.0
C218 C 0.45659 0.98245 0.02675 0.0
C219 C 0.60259 0.15422 0.0416 0.0
C220 C 0.62688 0.14642 0.03878 0.0
C221 C 0.51687 0.0109 0.06966 0.0
C222 C 0.5281 0.02702 0.0878 0.0
C223 C 0.54909 0.05967 0.08848 0.0
C224 C 0.51764 0.00964 0.10463 0.0
C225 C 0.5283 0.0248 0.12213 0.0
C226 C 0.55951 0.07487 0.1057 0.0
C227 C 0.54925 0.05768 0.12238 0.0
C228 C 0.49188 0.04252 0.99819 0.0
C229 C 0.55509 0.01616 0.99781 0.0
C230 C 0.49588 0.98621 0.95483 0.0
C231 C 0.48437 0.9698 0.93679 0.0
C232 C 0.46375 0.93709 0.93628 0.0
C233 C 0.49419 0.98702 0.91988 0.0
C234 C 0.48331 0.97164 0.90247 0.0
C235 C 0.45309 0.92166 0.91914 0.0
C236 C 0.46275 0.93869 0.90237 0.0
C237 C 0.52013 0.9569 0.0265 0.0
H238 H 0.5574 0.07338 0.07572 0.0
H239 H 0.50168 0.98434 0.10405 0.0
H240 H 0.5756 0.10013 0.10612 0.0
H241 H 0.55748 0.07024 0.13552 0.0
H242 H 0.45597 0.9235 0.94911 0.0
H243 H 0.50985 0.01238 0.92035 0.0
H244 H 0.4373 0.89635 0.91884 0.0
H245 H 0.45435 0.92595 0.8893 0.0
Gd246 Gd 0.97681 0.49026 0.0308 0.0
Gd247 Gd 0.03277 0.50842 0.99042 0.0
C248 C 0.12298 0.49839 0.99531 0.0
C249 C 0.16645 0.55258 0.99174 0.0
C250 C 0.11018 0.53976 0.99015 0.0
C251 C 0.10008 0.50845 0.99334 0.0
C252 C 0.14347 0.56206 0.98862 0.0
C253 C 0.1562 0.52076 0.99511 0.0
C254 C 0.11182 0.46608 0.99668 0.0
C255 C 0.07869 0.44472 0.99523 0.0
N256 N 0.06782 0.48752 0.99311 0.0
C257 C 0.05697 0.45588 0.99315 0.0
H258 H 0.03147 0.43901 0.99217 0.0
C259 C 0.09596 0.57711 0.98006 0.0
N260 N 0.08732 0.54785 0.98681 0.0
C261 C 0.12866 0.60021 0.97848 0.0
C262 C 0.15255 0.59283 0.98314 0.0
H263 H 0.07752 0.58289 0.97646 0.0
H264 H 0.17415 0.51355 0.99687 0.0
H265 H 0.97836 0.55975 0.03041 0.0
H266 H 0.12859 0.45738 0.99827 0.0
H267 H 0.06983 0.41964 0.99581 0.0
H268 H 0.19215 0.56943 0.99088 0.0
H269 H 0.93207 0.41318 0.03966 0.0
H270 H 0.88096 0.54149 0.0266 0.0
H271 H 0.93981 0.5792 0.02835 0.0
H272 H 0.81759 0.42894 0.03085 0.0
H273 H 0.13539 0.62366 0.97367 0.0
H274 H 0.17786 0.61067 0.98177 0.0
H275 H 0.83549 0.4853 0.02728 0.0
H276 H 0.87419 0.37221 0.0415 0.0
N277 N 0.94192 0.51129 0.02939 0.0
C278 C 0.8978 0.53276 0.02753 0.0
C279 C 0.93099 0.55411 0.02856 0.0
C280 C 0.88669 0.5004 0.02823 0.0
C281 C 0.90965 0.49028 0.02933 0.0
C282 C 0.9528 0.54292 0.02974 0.0
N283 N 0.92239 0.45003 0.03315 0.0
C284 C 0.89956 0.45863 0.03121 0.0
C285 C 0.88099 0.3964 0.0385 0.0
C286 C 0.85715 0.4046 0.0356 0.0
C287 C 0.9137 0.41963 0.0375 0.0
C288 C 0.86628 0.43612 0.0322 0.0
H289 H 0.83183 0.38659 0.03645 0.0
O290 O 0.97744 0.47118 0.05811 0.0
O291 O 0.02234 0.49343 0.02024 0.0
O292 O 0.99265 0.4569 0.99157 0.0
O293 O 0.94949 0.45551 0.00791 0.0
O294 O 0.99248 0.45445 0.03635 0.0
O295 O 0.98442 0.51837 0.05581 0.0
O296 O 0.02999 0.52477 0.96257 0.0
O297 O 0.98815 0.50627 1.00137 0.0
O298 O 0.01716 0.54159 0.03102 0.0
O299 O 0.05946 0.54739 0.01132 0.0
O300 O 0.01652 0.54374 0.98404 0.0
O301 O 0.02459 0.47853 0.96618 0.0
C302 C 0.01995 0.46903 0.02775 0.0
C303 C 0.84329 0.4459 0.03032 0.0
C304 C 0.85348 0.47799 0.02831 0.0
C305 C 0.98125 0.496 0.06706 0.0
C306 C 0.9609 0.49003 0.08375 0.0
C307 C 0.92741 0.47796 0.08233 0.0
C308 C 0.97532 0.49574 0.10147 0.0
C309 C 0.9565 0.48931 0.11785 0.0
C310 C 0.90851 0.47143 0.09852 0.0
C311 C 0.92289 0.47694 0.1162 0.0
C312 C 0.96139 0.44331 0.99588 0.0
C313 C 0.98994 0.53019 0.99358 0.0
C314 C 0.02707 0.49982 0.95429 0.0
C315 C 0.0482 0.50564 0.93797 0.0
C316 C 0.08111 0.51537 0.94015 0.0
C317 C 0.03536 0.50222 0.91992 0.0
C318 C 0.05528 0.50872 0.90401 0.0
C319 C 0.10107 0.52201 0.92445 0.0
C320 C 0.08833 0.51885 0.90646 0.0
C321 C 0.04745 0.55745 0.02469 0.0
H322 H 0.91589 0.47346 0.06878 0.0
H323 H 1.00119 0.50473 0.10248 0.0
H324 H 0.88265 0.46208 0.09736 0.0
H325 H 0.90781 0.47198 0.12856 0.0
H326 H 0.09138 0.51787 0.95393 0.0
H327 H 0.00994 0.49491 0.91827 0.0
H328 H 0.12648 0.52957 0.92622 0.0
H329 H 0.10417 0.52376 0.89446 0.0
Gd330 Gd 0.48852 0.50949 0.99429 0.0
Gd331 Gd 0.52104 0.48971 0.036 0.0
C332 C 0.61924 0.49439 0.03669 0.0
C333 C 0.60363 0.43917 0.03979 0.0
C334 C 0.5625 0.45471 0.03894 0.0
C335 C 0.58624 0.48587 0.03695 0.0
C336 C 0.57089 0.43101 0.04075 0.0
C337 C 0.62776 0.47081 0.03775 0.0
C338 C 0.64266 0.52637 0.03583 0.0
C339 C 0.63293 0.54894 0.03585 0.0
N340 N 0.57712 0.50801 0.03607 0.0
C341 C 0.5999 0.53931 0.03624 0.0
H342 H 0.59282 0.55704 0.03616 0.0
C343 C 0.50713 0.41775 0.04394 0.0
N344 N 0.5312 0.44774 0.03996 0.0
C345 C 0.51419 0.39338 0.04573 0.0
C346 C 0.54618 0.39997 0.04393 0.0
H347 H 0.48232 0.41245 0.04525 0.0
H348 H 0.65297 0.47686 0.03741 0.0
H349 H 0.4168 0.44206 0.99381 0.0
H350 H 0.66825 0.5339 0.03555 0.0
H351 H 0.65085 0.57377 0.03551 0.0
H352 H 0.61056 0.42128 0.041 0.0
H353 H 0.52712 0.58674 0.98508 0.0
H354 H 0.34123 0.46501 0.99446 0.0
H355 H 0.35875 0.42523 0.99438 0.0
H356 H 0.39875 0.57765 0.98917 0.0
H357 H 0.49497 0.36954 0.04848 0.0
H358 H 0.55162 0.38107 0.04538 0.0
H359 H 0.35641 0.52203 0.99269 0.0
H360 H 0.51438 0.62958 0.98181 0.0
N361 N 0.43241 0.49108 0.99409 0.0
C362 C 0.36684 0.47259 0.99421 0.0
C363 C 0.37663 0.45007 0.99412 0.0
C364 C 0.39022 0.50459 0.99344 0.0
C365 C 0.42323 0.51317 0.99325 0.0
C366 C 0.40967 0.45977 0.99379 0.0
N367 N 0.47826 0.55139 0.99033 0.0
C368 C 0.44693 0.54436 0.9913 0.0
C369 C 0.49518 0.60573 0.98455 0.0
C370 C 0.46316 0.59908 0.98632 0.0
C371 C 0.5023 0.5814 0.98636 0.0
C372 C 0.43848 0.56801 0.98947 0.0
H373 H 0.45768 0.61794 0.98485 0.0
O374 O 0.51114 0.52637 0.96708 0.0
O375 O 0.52949 0.50607 1.00647 0.0
O376 O 0.53596 0.54161 0.03437 0.0
O377 O 0.4962 0.5445 0.01692 0.0
O378 O 0.54171 0.54456 0.98967 0.0
O379 O 0.46879 0.4799 0.96966 0.0
O380 O 0.49863 0.47296 0.06327 0.0
O381 O 0.48007 0.49305 0.02379 0.0
O382 O 0.47364 0.45758 0.9959 0.0
O383 O 0.51337 0.45469 0.01339 0.0
O384 O 0.46785 0.45466 0.04068 0.0
O385 O 0.54096 0.51942 0.06056 0.0
C386 C 0.55317 0.53013 0.99931 0.0
C387 C 0.40573 0.55979 0.99039 0.0
C388 C 0.38163 0.52813 0.99239 0.0
C389 C 0.48994 0.50114 0.95831 0.0
C390 C 0.47758 0.50629 0.94062 0.0
C391 C 0.45569 0.51752 0.9405 0.0
C392 C 0.48864 0.50063 0.92358 0.0
C393 C 0.4781 0.50631 0.90636 0.0
C394 C 0.44505 0.52315 0.92349 0.0
C395 C 0.45619 0.51768 0.90652 0.0
C396 C 0.51972 0.55597 0.02947 0.0
C397 C 0.45639 0.469 0.03096 0.0
C398 C 0.51994 0.49822 0.07198 0.0
C399 C 0.53254 0.49313 0.08959 0.0
C400 C 0.55439 0.48185 0.08956 0.0
C401 C 0.5218 0.49892 0.1067 0.0
C402 C 0.53261 0.4933 0.12385 0.0
C403 C 0.5653 0.47629 0.10649 0.0
C404 C 0.55448 0.48188 0.12353 0.0
C405 C 0.48991 0.44325 1.0008 0.0
H406 H 0.44697 0.52202 0.9535 0.0
H407 H 0.50591 0.49234 0.92377 0.0
H408 H 0.42812 0.5318 0.92345 0.0
H409 H 0.44733 0.52197 0.89353 0.0
H410 H 0.56288 0.47725 0.07651 0.0
H411 H 0.50457 0.50725 0.10663 0.0
H412 H 0.5822 0.4676 0.10641 0.0
H413 H 0.56354 0.47764 0.13646 0.0
Gd414 Gd 0.18368 0.35828 0.36645 0.0
Gd415 Gd 0.15326 0.30788 0.32413 0.0
C416 C 0.05384 0.21879 0.32238 0.0
C417 C 0.06806 0.17769 0.31978 0.0
C418 C 0.11023 0.23278 0.32091 0.0
C419 C 0.08705 0.2417 0.32248 0.0
C420 C 0.10105 0.20072 0.31916 0.0
C421 C 0.04449 0.18671 0.32141 0.0
C422 C 0.03105 0.22887 0.32277 0.0
C423 C 0.04163 0.26107 0.32259 0.0
N424 N 0.09696 0.27289 0.32324 0.0
C425 C 0.07485 0.28288 0.32253 0.0
H426 H 0.08261 0.30766 0.32245 0.0
C427 C 0.16544 0.24827 0.31662 0.0
N428 N 0.1418 0.25564 0.32022 0.0
C429 C 0.15759 0.21679 0.31491 0.0
C430 C 0.12527 0.19287 0.31639 0.0
H431 H 0.19048 0.26666 0.31558 0.0
H432 H 0.0191 0.16875 0.32147 0.0
H433 H 0.25476 0.35914 0.36735 0.0
H434 H 0.00531 0.21203 0.32277 0.0
H435 H 0.02422 0.26914 0.32252 0.0
H436 H 0.06051 0.1529 0.31862 0.0
H437 H 0.14642 0.39852 0.37743 0.0
H438 H 0.33159 0.4549 0.36816 0.0
H439 H 0.31301 0.39788 0.36745 0.0
H440 H 0.27576 0.51307 0.37486 0.0
H441 H 0.17645 0.21101 0.31247 0.0
H442 H 0.11923 0.1685 0.315 0.0
H443 H 0.31743 0.49782 0.37068 0.0
H444 H 0.16011 0.4537 0.38239 0.0
N445 N 0.24001 0.39364 0.36734 0.0
C446 C 0.30587 0.43795 0.36806 0.0
C447 C 0.29548 0.4058 0.36772 0.0
C448 C 0.28293 0.44779 0.36893 0.0
C449 C 0.24977 0.42474 0.36866 0.0
C450 C 0.2623 0.38385 0.36768 0.0
N451 N 0.195 0.41024 0.37159 0.0
C452 C 0.22646 0.43333 0.37088 0.0
C453 C 0.17901 0.44833 0.37905 0.0
C454 C 0.21116 0.47255 0.37743 0.0
C455 C 0.17135 0.41709 0.37625 0.0
C456 C 0.23545 0.46518 0.37358 0.0
H457 H 0.21706 0.49673 0.37964 0.0
O458 O 0.15964 0.3522 0.39336 0.0
O459 O 0.14304 0.31582 0.35337 0.0
O460 O 0.13978 0.3463 0.32465 0.0
O461 O 0.17648 0.38685 0.3441 0.0
O462 O 0.1307 0.34315 0.36948 0.0
O463 O 0.20112 0.34557 0.39121 0.0
O464 O 0.17722 0.31249 0.29736 0.0
O465 O 0.19356 0.35054 0.3371 0.0
O466 O 0.19797 0.32039 0.36521 0.0
O467 O 0.15922 0.27947 0.34697 0.0
O468 O 0.20647 0.32375 0.32088 0.0
O469 O 0.13572 0.31924 0.29891 0.0
C470 C 0.11931 0.31771 0.35973 0.0
C471 C 0.26836 0.48843 0.373 0.0
C472 C 0.29208 0.47975 0.37063 0.0
C473 C 0.17981 0.34636 0.40235 0.0
C474 C 0.19196 0.36281 0.42032 0.0
C475 C 0.21268 0.39551 0.42076 0.0
C476 C 0.18273 0.34561 0.43721 0.0
C477 C 0.19424 0.36098 0.45456 0.0
C478 C 0.224 0.41094 0.43785 0.0
C479 C 0.21489 0.39391 0.45462 0.0
C480 C 0.15509 0.37611 0.33026 0.0
C481 C 0.21749 0.34925 0.33055 0.0
C482 C 0.15727 0.31825 0.28805 0.0
C483 C 0.14568 0.30187 0.27002 0.0
C484 C 0.12481 0.2692 0.26945 0.0
C485 C 0.15575 0.31916 0.25316 0.0
C486 C 0.14492 0.30394 0.2357 0.0
C487 C 0.11411 0.25392 0.25226 0.0
C488 C 0.12403 0.27105 0.23553 0.0
C489 C 0.18183 0.29037 0.36008 0.0
H490 H 0.22007 0.40909 0.40793 0.0
H491 H 0.16702 0.32025 0.43678 0.0
H492 H 0.23987 0.43624 0.4381 0.0
H493 H 0.22377 0.40663 0.46766 0.0
H494 H 0.11685 0.25556 0.28227 0.0
H495 H 0.17162 0.34448 0.25369 0.0
H496 H 0.0981 0.22865 0.2519 0.0
H497 H 0.11562 0.25842 0.22242 0.0
Gd498 Gd 0.6428 0.82854 0.3689 0.0
Gd499 Gd 0.69858 0.84745 0.32852 0.0
C500 C 0.78887 0.83755 0.33055 0.0
C501 C 0.83216 0.89209 0.32843 0.0
C502 C 0.77583 0.87925 0.32785 0.0
C503 C 0.76584 0.84761 0.32968 0.0
C504 C 0.80909 0.90182 0.32677 0.0
C505 C 0.82206 0.86001 0.33033 0.0
C506 C 0.77784 0.8052 0.33116 0.0
C507 C 0.74465 0.78381 0.33029 0.0
N508 N 0.73359 0.82654 0.32974 0.0
C509 C 0.72276 0.79493 0.32933 0.0
H510 H 0.6972 0.77807 0.32875 0.0
C511 C 0.7615 0.9182 0.32188 0.0
N512 N 0.75293 0.88777 0.32608 0.0
C513 C 0.79418 0.94149 0.32081 0.0
C514 C 0.8181 0.93334 0.3235 0.0
H515 H 0.74305 0.92459 0.31988 0.0
H516 H 0.84011 0.85276 0.33118 0.0
H517 H 0.64305 0.89745 0.3671 0.0
H518 H 0.79473 0.79652 0.3319 0.0
H519 H 0.73588 0.75873 0.33043 0.0
H520 H 0.85784 0.90911 0.32781 0.0
H521 H 0.59925 0.75407 0.38307 0.0
H522 H 0.54534 0.87774 0.36189 0.0
H523 H 0.60402 0.91608 0.36379 0.0
H524 H 0.48323 0.76575 0.36997 0.0
H525 H 0.80088 0.9657 0.31793 0.0
H526 H 0.8434 0.9514 0.32259 0.0
H527 H 0.50034 0.82138 0.36378 0.0
H528 H 0.54167 0.71291 0.38653 0.0
N529 N 0.60715 0.84877 0.36649 0.0
C530 C 0.56241 0.86937 0.36333 0.0
C531 C 0.59549 0.89107 0.36446 0.0
C532 C 0.5517 0.83716 0.36482 0.0
C533 C 0.57497 0.82753 0.36657 0.0
C534 C 0.6176 0.88033 0.36635 0.0
N535 N 0.58857 0.78863 0.37291 0.0
C536 C 0.56534 0.79634 0.36986 0.0
C537 C 0.54797 0.73621 0.38166 0.0
C538 C 0.52366 0.74318 0.37729 0.0
C539 C 0.58051 0.75955 0.37971 0.0
C540 C 0.5322 0.77377 0.37172 0.0
H541 H 0.49848 0.72514 0.37893 0.0
O542 O 0.64722 0.81263 0.39652 0.0
O543 O 0.68779 0.83137 0.35794 0.0
O544 O 0.65817 0.79599 0.32809 0.0
O545 O 0.61587 0.78972 0.34795 0.0
O546 O 0.65926 0.79325 0.37481 0.0
O547 O 0.64975 0.85777 0.39327 0.0
O548 O 0.69887 0.86686 0.30114 0.0
O549 O 0.65303 0.84387 0.33917 0.0
O550 O 0.68249 0.88029 0.36802 0.0
O551 O 0.72578 0.88237 0.35148 0.0
O552 O 0.6824 0.88295 0.32308 0.0
O553 O 0.68981 0.81892 0.30364 0.0
C554 C 0.68602 0.80728 0.36546 0.0
C555 C 0.50883 0.78282 0.36885 0.0
C556 C 0.51858 0.81449 0.36535 0.0
C557 C 0.64884 0.83691 0.40496 0.0
C558 C 0.62814 0.82996 0.42155 0.0
C559 C 0.59499 0.81968 0.42003 0.0
C560 C 0.64184 0.83277 0.43924 0.0
C561 C 0.6227 0.82534 0.45552 0.0
C562 C 0.57571 0.81196 0.43613 0.0
C563 C 0.5894 0.81464 0.45382 0.0
C564 C 0.62785 0.77991 0.33441 0.0
C565 C 0.65501 0.86813 0.33174 0.0
C566 C 0.69396 0.84155 0.29231 0.0
C567 C 0.71404 0.84642 0.27565 0.0
C568 C 0.74683 0.8553 0.27712 0.0
C569 C 0.69991 0.84211 0.25793 0.0
C570 C 0.7183 0.84667 0.24156 0.0
C571 C 0.76531 0.85985 0.26096 0.0
C572 C 0.7512 0.85557 0.24326 0.0
C573 C 0.71379 0.89419 0.36373 0.0
H574 H 0.58405 0.81755 0.40649 0.0
H575 H 0.66743 0.84041 0.4403 0.0
H576 H 0.55011 0.80396 0.43491 0.0
H577 H 0.57413 0.80892 0.46615 0.0
H578 H 0.75809 0.85865 0.29068 0.0
H579 H 0.67438 0.83475 0.25694 0.0
H580 H 0.79065 0.86677 0.26214 0.0
H581 H 0.76611 0.85956 0.23094 0.0
Gd582 Gd 0.15368 0.84485 0.32444 0.0
Gd583 Gd 0.18441 0.82437 0.36648 0.0
C584 C 0.28315 0.83026 0.36752 0.0
C585 C 0.26817 0.77535 0.37157 0.0
C586 C 0.22658 0.79023 0.37007 0.0
C587 C 0.25006 0.8214 0.36767 0.0
C588 C 0.23536 0.76693 0.37258 0.0
C589 C 0.29203 0.80697 0.369 0.0
C590 C 0.30631 0.86232 0.36651 0.0
C591 C 0.29623 0.88463 0.36642 0.0
N592 N 0.24061 0.84328 0.36659 0.0
C593 C 0.26313 0.87466 0.36678 0.0
H594 H 0.25575 0.8922 0.36667 0.0
C595 C 0.17154 0.75338 0.37616 0.0
N596 N 0.19522 0.78303 0.37119 0.0
C597 C 0.17902 0.72942 0.37879 0.0
C598 C 0.21101 0.73611 0.37671 0.0
H599 H 0.14675 0.74803 0.37768 0.0
H600 H 0.31731 0.81328 0.36873 0.0
H601 H 0.08198 0.77742 0.32434 0.0
H602 H 0.33196 0.8701 0.36629 0.0
H603 H 0.31395 0.90952 0.36604 0.0
H604 H 0.27539 0.75775 0.37327 0.0
H605 H 0.19196 0.92103 0.31276 0.0
H606 H 0.00644 0.80046 0.32466 0.0
H607 H 0.02391 0.76064 0.32504 0.0
H608 H 0.06395 0.91272 0.31707 0.0
H609 H 0.1601 0.70582 0.38235 0.0
H610 H 0.21675 0.71754 0.37879 0.0
H611 H 0.02166 0.85741 0.32191 0.0
H612 H 0.17915 0.96354 0.30781 0.0
N613 N 0.09759 0.82644 0.3243 0.0
C614 C 0.03205 0.80801 0.32442 0.0
C615 C 0.0418 0.78546 0.32458 0.0
C616 C 0.05544 0.83998 0.32326 0.0
C617 C 0.08844 0.84852 0.3231 0.0
C618 C 0.07484 0.79513 0.32418 0.0
N619 N 0.1434 0.88645 0.31939 0.0
C620 C 0.11213 0.87957 0.32051 0.0
C621 C 0.16008 0.94006 0.31149 0.0
C622 C 0.12821 0.93372 0.31357 0.0
C623 C 0.16725 0.91593 0.31428 0.0
C624 C 0.10366 0.90305 0.31784 0.0
H625 H 0.1227 0.95243 0.31137 0.0
O626 O 0.17768 0.86115 0.29748 0.0
O627 O 0.19412 0.84093 0.33701 0.0
O628 O 0.19852 0.87617 0.36564 0.0
O629 O 0.16142 0.8808 0.34647 0.0
O630 O 0.20695 0.88017 0.32077 0.0
O631 O 0.13349 0.81603 0.29958 0.0
O632 O 0.16097 0.80729 0.39351 0.0
O633 O 0.14387 0.82823 0.35397 0.0
O634 O 0.13915 0.79302 0.32549 0.0
O635 O 0.17675 0.78864 0.34428 0.0
O636 O 0.13124 0.78893 0.37014 0.0
O637 O 0.20419 0.85319 0.39136 0.0
C638 C 0.21806 0.86531 0.33029 0.0
C639 C 0.07094 0.89496 0.31888 0.0
C640 C 0.04687 0.86347 0.32163 0.0
C641 C 0.15571 0.83672 0.28846 0.0
C642 C 0.14468 0.84325 0.27071 0.0
C643 C 0.12359 0.85542 0.27047 0.0
C644 C 0.15614 0.83788 0.25374 0.0
C645 C 0.14679 0.84476 0.23648 0.0
C646 C 0.1142 0.86233 0.25342 0.0
C647 C 0.12573 0.85713 0.23652 0.0
C648 C 0.18328 0.89118 0.36001 0.0
C649 C 0.12 0.80372 0.36067 0.0
C650 C 0.18265 0.83191 0.40253 0.0
C651 C 0.19472 0.82564 0.41997 0.0
C652 C 0.21679 0.81462 0.41964 0.0
C653 C 0.18346 0.83025 0.43722 0.0
C654 C 0.19402 0.82378 0.45419 0.0
C655 C 0.22734 0.80808 0.43639 0.0
C656 C 0.21602 0.81254 0.45357 0.0
C657 C 0.15475 0.77824 0.33081 0.0
H658 H 0.11447 0.85963 0.2834 0.0
H659 H 0.17274 0.8288 0.25403 0.0
H660 H 0.09789 0.87171 0.2533 0.0
H661 H 0.11779 0.86235 0.22349 0.0
H662 H 0.22583 0.81107 0.4065 0.0
H663 H 0.16613 0.83846 0.43739 0.0
H664 H 0.2444 0.79959 0.43607 0.0
H665 H 0.22489 0.80767 0.46637 0.0
Gd666 Gd 0.85206 0.6857 0.70089 0.0
Gd667 Gd 0.82131 0.63682 0.65776 0.0
C668 C 0.72164 0.54747 0.65609 0.0
C669 C 0.73578 0.50688 0.6504 0.0
C670 C 0.77788 0.56189 0.65256 0.0
C671 C 0.75484 0.57045 0.65588 0.0
C672 C 0.76863 0.53014 0.64918 0.0
C673 C 0.7123 0.51554 0.65389 0.0
C674 C 0.69885 0.55739 0.65777 0.0
C675 C 0.70937 0.58956 0.65832 0.0
N676 N 0.76482 0.60155 0.65754 0.0
C677 C 0.74258 0.61142 0.65784 0.0
H678 H 0.75018 0.63613 0.65836 0.0
C679 C 0.83231 0.57844 0.64491 0.0
N680 N 0.80921 0.58504 0.65117 0.0
C681 C 0.82444 0.54729 0.64147 0.0
C682 C 0.79254 0.52294 0.64393 0.0
H683 H 0.85704 0.59716 0.64306 0.0
H684 H 0.68694 0.4975 0.65422 0.0
H685 H 0.92243 0.68523 0.70202 0.0
H686 H 0.67312 0.5405 0.65805 0.0
H687 H 0.69194 0.59756 0.65914 0.0
H688 H 0.7282 0.4823 0.64807 0.0
H689 H 0.81546 0.72707 0.71066 0.0
H690 H 1.00026 0.78059 0.70288 0.0
H691 H 0.9809 0.7234 0.70228 0.0
H692 H 0.94587 0.8403 0.7084 0.0
H693 H 0.84299 0.5421 0.63696 0.0
H694 H 0.78645 0.49885 0.64117 0.0
H695 H 0.98695 0.82412 0.70496 0.0
H696 H 0.82996 0.78272 0.71472 0.0
N697 N 0.90845 0.7203 0.7019 0.0
C698 C 0.97448 0.76391 0.70275 0.0
C699 C 0.96364 0.73165 0.70246 0.0
C700 C 0.95189 0.77421 0.70343 0.0
C701 C 0.91862 0.75151 0.70313 0.0
C702 C 0.93037 0.71005 0.70232 0.0
N703 N 0.86397 0.73793 0.70556 0.0
C704 C 0.89562 0.76063 0.705 0.0
C705 C 0.84866 0.77685 0.71191 0.0
C706 C 0.88104 0.80065 0.7105 0.0
C707 C 0.84054 0.74538 0.70965 0.0
C708 C 0.90506 0.79267 0.7073 0.0
H709 H 0.88729 0.825 0.71233 0.0
O710 O 0.82761 0.67982 0.72763 0.0
O711 O 0.81175 0.64307 0.68762 0.0
O712 O 0.80688 0.67442 0.66017 0.0
O713 O 0.84557 0.71481 0.67875 0.0
O714 O 0.79917 0.67007 0.70413 0.0
O715 O 0.86984 0.67428 0.72601 0.0
O716 O 0.8455 0.64511 0.63069 0.0
O717 O 0.86164 0.6785 0.67144 0.0
O718 O 0.86521 0.64716 0.69987 0.0
O719 O 0.83178 0.60807 0.67837 0.0
O720 O 0.87442 0.65279 0.65413 0.0
O721 O 0.80331 0.65029 0.63353 0.0
C722 C 0.78804 0.64461 0.69439 0.0
C723 C 0.93812 0.81552 0.70683 0.0
C724 C 0.9615 0.80631 0.70488 0.0
C725 C 0.84797 0.67461 0.7369 0.0
C726 C 0.85925 0.69109 0.75494 0.0
C727 C 0.88054 0.7237 0.75545 0.0
C728 C 0.84803 0.67412 0.77186 0.0
C729 C 0.85769 0.68972 0.78927 0.0
C730 C 0.89036 0.73927 0.77261 0.0
C731 C 0.87901 0.7225 0.7894 0.0
C732 C 0.82269 0.70416 0.66581 0.0
C733 C 0.88551 0.67743 0.6646 0.0
C734 C 0.82494 0.6508 0.62208 0.0
C735 C 0.81311 0.63519 0.60383 0.0
C736 C 0.79195 0.60259 0.60297 0.0
C737 C 0.82305 0.65297 0.58711 0.0
C738 C 0.81166 0.63824 0.56956 0.0
C739 C 0.78087 0.58781 0.5857 0.0
C740 C 0.79059 0.60539 0.56914 0.0
C741 C 0.85223 0.61839 0.69269 0.0
H742 H 0.88946 0.7371 0.74261 0.0
H743 H 0.83135 0.64893 0.77143 0.0
H744 H 0.90684 0.76446 0.77292 0.0
H745 H 0.88725 0.73518 0.8025 0.0
H746 H 0.78401 0.58858 0.61564 0.0
H747 H 0.83914 0.67824 0.58782 0.0
H748 H 0.76466 0.56258 0.58514 0.0
H749 H 0.7818 0.59313 0.55595 0.0
Gd750 Gd 0.30945 0.15677 0.70001 0.0
Gd751 Gd 0.36423 0.17274 0.65924 0.0
C752 C 0.45394 0.16202 0.66254 0.0
C753 C 0.49758 0.21629 0.65963 0.0
C754 C 0.44142 0.20388 0.65858 0.0
C755 C 0.43114 0.1723 0.6611 0.0
C756 C 0.47474 0.22618 0.65736 0.0
C757 C 0.4872 0.18426 0.66223 0.0
C758 C 0.44261 0.12966 0.66379 0.0
C759 C 0.40936 0.10844 0.66298 0.0
N760 N 0.39883 0.15145 0.66127 0.0
C761 C 0.38771 0.11979 0.66148 0.0
H762 H 0.36209 0.10309 0.66099 0.0
C763 C 0.42756 0.24278 0.65134 0.0
N764 N 0.41872 0.21256 0.65628 0.0
C765 C 0.46032 0.26581 0.65009 0.0
C766 C 0.48404 0.25756 0.65336 0.0
H767 H 0.40927 0.24925 0.64891 0.0
H768 H 0.50506 0.17685 0.66354 0.0
H769 H 0.31079 0.22607 0.69673 0.0
H770 H 0.45932 0.12081 0.66499 0.0
H771 H 0.40037 0.08334 0.66362 0.0
H772 H 0.52331 0.2331 0.65894 0.0
H773 H 0.26542 0.08296 0.7152 0.0
H774 H 0.21339 0.2075 0.69221 0.0
H775 H 0.27229 0.24528 0.69313 0.0
H776 H 0.15017 0.09604 0.70234 0.0
H777 H 0.46725 0.28988 0.64663 0.0
H778 H 0.5094 0.27542 0.65232 0.0
H779 H 0.16788 0.15153 0.69526 0.0
H780 H 0.20773 0.04249 0.71931 0.0
N781 N 0.27435 0.17756 0.69722 0.0
C782 C 0.23022 0.19886 0.69376 0.0
C783 C 0.26343 0.22025 0.69434 0.0
C784 C 0.21911 0.16667 0.6959 0.0
C785 C 0.24208 0.15669 0.69778 0.0
C786 C 0.28524 0.20918 0.69639 0.0
N787 N 0.25512 0.11759 0.70471 0.0
C788 C 0.23212 0.12559 0.7016 0.0
C789 C 0.21422 0.06571 0.71417 0.0
C790 C 0.19011 0.07295 0.70982 0.0
C791 C 0.24683 0.08864 0.71185 0.0
C792 C 0.19893 0.10343 0.70386 0.0
H793 H 0.16488 0.05523 0.71174 0.0
O794 O 0.31369 0.14206 0.72803 0.0
O795 O 0.35354 0.15812 0.68889 0.0
O796 O 0.32334 0.1216 0.65983 0.0
O797 O 0.28176 0.11712 0.67971 0.0
O798 O 0.32571 0.12156 0.70687 0.0
O799 O 0.31864 0.18802 0.72364 0.0
O800 O 0.36342 0.19053 0.63152 0.0
O801 O 0.31933 0.17044 0.66999 0.0
O802 O 0.34956 0.20818 0.69794 0.0
O803 O 0.39216 0.20869 0.68145 0.0
O804 O 0.34851 0.20832 0.65299 0.0
O805 O 0.35578 0.14322 0.63483 0.0
C806 C 0.35199 0.1346 0.69705 0.0
C807 C 0.17581 0.11279 0.70091 0.0
C808 C 0.1859 0.14439 0.6969 0.0
C809 C 0.31707 0.16752 0.73585 0.0
C810 C 0.29731 0.16283 0.75264 0.0
C811 C 0.2642 0.15283 0.75139 0.0
C812 C 0.31184 0.16766 0.77027 0.0
C813 C 0.29353 0.16245 0.78673 0.0
C814 C 0.24577 0.14744 0.76768 0.0
C815 C 0.26026 0.15209 0.78529 0.0
C816 C 0.29317 0.10633 0.66641 0.0
C817 C 0.32142 0.19437 0.66202 0.0
C818 C 0.35928 0.16516 0.62311 0.0
C819 C 0.37971 0.17011 0.60659 0.0
C820 C 0.41217 0.17794 0.60835 0.0
C821 C 0.36642 0.16732 0.58873 0.0
C822 C 0.38536 0.17244 0.57252 0.0
C823 C 0.43118 0.18304 0.59236 0.0
C824 C 0.41794 0.18035 0.57454 0.0
C825 C 0.38071 0.2214 0.69342 0.0
H826 H 0.25262 0.14914 0.73791 0.0
H827 H 0.33739 0.17504 0.77114 0.0
H828 H 0.2202 0.13967 0.76666 0.0
H829 H 0.24561 0.14808 0.79773 0.0
H830 H 0.42279 0.18011 0.622 0.0
H831 H 0.34113 0.16076 0.58751 0.0
H832 H 0.45627 0.1892 0.59378 0.0
H833 H 0.43331 0.18481 0.56237 0.0
Gd834 Gd 0.82392 0.17588 0.65436 0.0
Gd835 Gd 0.85014 0.15502 0.69756 0.0
C836 C 0.94709 0.15721 0.6945 0.0
C837 C 0.9308 0.10208 0.69909 0.0
C838 C 0.89052 0.11873 0.6993 0.0
C839 C 0.91438 0.1494 0.69596 0.0
C840 C 0.89852 0.09483 0.70152 0.0
C841 C 0.95507 0.13325 0.69555 0.0
C842 C 0.97083 0.18895 0.6926 0.0
C843 C 0.96173 0.21199 0.69281 0.0
N844 N 0.90577 0.17189 0.69524 0.0
C845 C 0.92892 0.20301 0.69428 0.0
H846 H 0.92223 0.22102 0.69421 0.0
C847 C 0.83645 0.08419 0.70859 0.0
N848 N 0.85979 0.11279 0.70188 0.0
C849 C 0.843 0.05954 0.71078 0.0
C850 C 0.87407 0.06473 0.7069 0.0
H851 H 0.81247 0.08024 0.7117 0.0
H852 H 0.98001 0.13871 0.69424 0.0
H853 H 0.80218 0.12969 0.61687 0.0
H854 H 0.99623 0.19596 0.69139 0.0
H855 H 0.97993 0.23665 0.69166 0.0
H856 H 0.9374 0.08398 0.70051 0.0
H857 H 0.80531 0.22134 0.6812 0.0
H858 H 0.69983 0.08861 0.60899 0.0
H859 H 0.75232 0.09393 0.59934 0.0
H860 H 0.6714 0.14392 0.6537 0.0
H861 H 0.82416 0.03664 0.71552 0.0
H862 H 0.87919 0.0457 0.70877 0.0
H863 H 0.6697 0.10727 0.62951 0.0
H864 H 0.7576 0.22572 0.68934 0.0
N865 N 0.77746 0.14167 0.63717 0.0
C866 C 0.72151 0.10376 0.61689 0.0
C867 C 0.75106 0.10667 0.61141 0.0
C868 C 0.72066 0.12188 0.63183 0.0
C869 C 0.74961 0.1413 0.64161 0.0
C870 C 0.77911 0.12656 0.62145 0.0
N871 N 0.77961 0.18208 0.66302 0.0
C872 C 0.75075 0.16231 0.65489 0.0
C873 C 0.7553 0.20773 0.67964 0.0
C874 C 0.7252 0.18677 0.67195 0.0
C875 C 0.78242 0.20516 0.67493 0.0
C876 C 0.72269 0.16395 0.65921 0.0
H877 H 0.70421 0.18873 0.67568 0.0
O878 O 0.82761 0.21635 0.63945 0.0
O879 O 0.86599 0.17805 0.66959 0.0
O880 O 0.86517 0.20624 0.69874 0.0
O881 O 0.8535 0.22144 0.67019 0.0
O882 O 0.85696 0.16003 0.64242 0.0
O883 O 0.84857 0.19029 0.62741 0.0
O884 O 0.82547 0.14028 0.72455 0.0
O885 O 0.81308 0.16442 0.68469 0.0
O886 O 0.8022 0.12284 0.65503 0.0
O887 O 0.83241 0.11369 0.67769 0.0
O888 O 0.79651 0.12296 0.69995 0.0
O889 O 0.87348 0.18059 0.723 0.0
C890 C 0.87605 0.16731 0.65659 0.0
C891 C 0.69328 0.14327 0.6504 0.0
C892 C 0.69228 0.12232 0.63669 0.0
C893 C 0.84019 0.21137 0.62449 0.0
C894 C 0.82467 0.20953 0.60617 0.0
C895 C 0.79793 0.21422 0.60498 0.0
C896 C 0.83641 0.20264 0.58965 0.0
C897 C 0.82185 0.20079 0.57216 0.0
C898 C 0.78341 0.21234 0.58772 0.0
C899 C 0.79527 0.20579 0.57143 0.0
C900 C 0.86565 0.22762 0.68731 0.0
C901 C 0.78781 0.14003 0.69066 0.0
C902 C 0.8497 0.16187 0.73392 0.0
C903 C 0.85836 0.15172 0.75128 0.0
C904 C 0.87722 0.13708 0.75082 0.0
C905 C 0.84795 0.15723 0.76859 0.0
C906 C 0.85651 0.14844 0.78549 0.0
C907 C 0.88552 0.12799 0.76748 0.0
C908 C 0.87533 0.13364 0.78471 0.0
C909 C 0.81178 0.10476 0.6635 0.0
H910 H 0.78811 0.21926 0.61736 0.0
H911 H 0.85708 0.19906 0.59038 0.0
H912 H 0.76278 0.21591 0.58696 0.0
H913 H 0.78332 0.20419 0.55825 0.0
H914 H 0.88567 0.13288 0.73764 0.0
H915 H 0.8338 0.169 0.76889 0.0
H916 H 0.90001 0.11662 0.76705 0.0
H917 H 0.88201 0.12623 0.79742 0.0
H918 H 0.29144 0.80204 0.06332 0.0
H919 H 0.4413 0.92066 0.0301 0.0
H920 H 0.27769 0.87886 0.08094 0.0
H921 H 0.40055 0.9816 0.03447 0.0
H922 H 0.39083 0.87708 0.04204 0.0
H923 H 0.33965 0.83922 0.04597 0.0
C924 C 0.29862 0.82678 0.06359 0.0
C925 C 0.28049 0.83729 0.07376 0.0
C926 C 0.39231 0.89961 0.03994 0.0
C927 C 0.33668 0.88049 0.05434 0.0
C928 C 0.4213 0.92459 0.03304 0.0
C929 C 0.42482 0.9546 0.03094 0.0
C930 C 0.36679 0.90485 0.04501 0.0
C931 C 0.39859 0.95868 0.03569 0.0
C932 C 0.32654 0.84817 0.05384 0.0
C933 C 0.29116 0.86969 0.07363 0.0
N934 N 0.37079 0.93417 0.04261 0.0
N935 N 0.31848 0.89005 0.0641 0.0
H936 H 0.20476 0.49016 0.06395 0.0
H937 H 0.01714 0.41417 0.03676 0.0
H938 H 0.13029 0.39655 0.07973 0.0
H939 H 0.084 0.51404 0.03334 0.0
H940 H 0.06062 0.40642 0.0488 0.0
H941 H 0.16321 0.49843 0.04881 0.0
C942 C 0.17975 0.47132 0.06414 0.0
C943 C 0.17094 0.44273 0.0733 0.0
C944 C 0.06596 0.43005 0.04531 0.0
C945 C 0.12344 0.45199 0.05604 0.0
C946 C 0.04114 0.43444 0.0384 0.0
C947 C 0.04719 0.46466 0.03369 0.0
C948 C 0.09713 0.45613 0.04777 0.0
C949 C 0.07858 0.49024 0.03639 0.0
C950 C 0.15606 0.47612 0.0556 0.0
C951 C 0.13815 0.41915 0.07314 0.0
N952 N 0.10246 0.4854 0.0432 0.0
N953 N 0.11571 0.42431 0.06469 0.0
H954 H 0.52063 0.7205 0.07427 0.0
H955 H 0.57269 0.5923 0.05118 0.0
H956 H 0.61331 0.7311 0.08921 0.0
H957 H 0.48718 0.58896 0.02832 0.0
H958 H 0.58661 0.64191 0.06647 0.0
H959 H 0.50668 0.67104 0.05856 0.0
C960 C 0.53811 0.71251 0.07419 0.0
C961 C 0.56824 0.73005 0.08305 0.0
C962 C 0.56487 0.6304 0.05805 0.0
C963 C 0.55224 0.67325 0.06528 0.0
C964 C 0.55685 0.60201 0.04932 0.0
C965 C 0.52876 0.58646 0.03838 0.0
C966 C 0.54456 0.64331 0.05596 0.0
C967 C 0.50921 0.60024 0.0365 0.0
C968 C 0.53007 0.68421 0.06527 0.0
C969 C 0.58967 0.7182 0.08278 0.0
N970 N 0.51744 0.62786 0.04525 0.0
N971 N 0.58125 0.69055 0.07403 0.0
H972 H 0.79147 0.27459 0.95598 0.0
H973 H 0.9764 0.4052 0.97515 0.0
H974 H 0.87343 0.26695 0.93702 0.0
H975 H 0.89489 0.41184 0.99617 0.0
H976 H 0.93887 0.3549 0.96068 0.0
H977 H 0.82878 0.32507 0.97061 0.0
C978 C 0.8173 0.28346 0.95494 0.0
C979 C 0.8293 0.26648 0.94521 0.0
C980 C 0.92917 0.3673 0.9685 0.0
C981 C 0.87218 0.32441 0.9618 0.0
C982 C 0.95062 0.39609 0.97678 0.0
C983 C 0.93884 0.41272 0.98706 0.0
C984 C 0.89562 0.355 0.97043 0.0
C985 C 0.90512 0.39969 0.98861 0.0
C986 C 0.83859 0.31235 0.96323 0.0
C987 C 0.86304 0.27938 0.94412 0.0
N988 N 0.88471 0.37161 0.98039 0.0
N989 N 0.88324 0.3075 0.95231 0.0
H990 H 0.73916 0.60445 0.94652 0.0
H991 H 0.57131 0.48483 0.996 0.0
H992 H 0.71674 0.51123 0.96357 0.0
H993 H 0.6077 0.58464 0.99097 0.0
H994 H 0.62361 0.49289 0.98446 0.0
H995 H 0.69023 0.59663 0.9624 0.0
C996 C 0.72386 0.58226 0.95359 0.0
C997 C 0.73197 0.55838 0.95357 0.0
C998 C 0.62028 0.51307 0.98612 0.0
C999 C 0.6756 0.54918 0.97193 0.0
C1000 C 0.59052 0.5085 0.99284 0.0
C1001 C 0.58542 0.53423 0.99477 0.0
C1002 C 0.64475 0.54346 0.98085 0.0
C1003 C 0.61077 0.56423 0.98987 0.0
C1004 C 0.69599 0.57787 0.96279 0.0
C1005 C 0.71144 0.5303 0.96327 0.0
N1006 N 0.63918 0.56799 0.98307 0.0
N1007 N 0.68404 0.52634 0.9719 0.0
H1008 H 0.44525 0.14705 0.91889 0.0
H1009 H 0.50951 0.10311 0.00851 0.0
H1010 H 0.43456 0.17856 0.97373 0.0
H1011 H 0.45563 0.03265 0.96657 0.0
H1012 H 0.49335 0.13808 0.9936 0.0
H1013 H 0.45946 0.11082 0.93397 0.0
C1014 C 0.44558 0.14631 0.93405 0.0
C1015 C 0.4387 0.16618 0.94498 0.0
C1016 C 0.48504 0.11485 0.9878 0.0
C1017 C 0.45629 0.12563 0.96215 0.0
C1018 C 0.49409 0.09481 0.99633 0.0
C1019 C 0.48331 0.06453 0.98911 0.0
C1020 C 0.46602 0.10493 0.97158 0.0
C1021 C 0.46424 0.05559 0.97282 0.0
C1022 C 0.45397 0.12578 0.94259 0.0
C1023 C 0.44042 0.16446 0.96461 0.0
N1024 N 0.45639 0.0758 0.96451 0.0
N1025 N 0.44938 0.14481 0.97255 0.0
H1026 H 0.73883 0.12138 0.94344 0.0
H1027 H 0.57242 0.07871 0.99451 0.0
H1028 H 0.71255 0.19165 0.95675 0.0
H1029 H 0.60984 0.015 0.98997 0.0
H1030 H 0.62386 0.12123 0.98196 0.0
H1031 H 0.69143 0.08237 0.96079 0.0
C1032 C 0.72295 0.12855 0.94994 0.0
C1033 C 0.7295 0.15974 0.94851 0.0
C1034 C 0.62097 0.09806 0.98396 0.0
C1035 C 0.67518 0.11519 0.96861 0.0
C1036 C 0.59174 0.07389 0.99126 0.0
C1037 C 0.58713 0.04345 0.99343 0.0
C1038 C 0.64534 0.09144 0.97846 0.0
C1039 C 0.61257 0.03822 0.98857 0.0
C1040 C 0.69602 0.10633 0.96001 0.0
C1041 C 0.70841 0.16784 0.95755 0.0
N1042 N 0.64045 0.06186 0.98119 0.0
N1043 N 0.68204 0.14565 0.9671 0.0
H1044 H 0.80351 0.51005 0.96245 0.0
H1045 H 0.99256 0.58535 0.9856 0.0
H1046 H 0.87739 0.6021 0.94383 0.0
H1047 H 0.92549 0.48555 0.98908 0.0
H1048 H 0.94854 0.59338 0.97468 0.0
H1049 H 0.84584 0.50215 0.9768 0.0
C1050 C 0.82857 0.52863 0.96147 0.0
C1051 C 0.83695 0.55665 0.95175 0.0
C1052 C 0.94332 0.56973 0.978 0.0
C1053 C 0.88536 0.54784 0.96815 0.0
C1054 C 0.96841 0.56518 0.98428 0.0
C1055 C 0.96248 0.53487 0.98869 0.0
C1056 C 0.912 0.54372 0.9759 0.0
C1057 C 0.9309 0.50941 0.98636 0.0
C1058 C 0.8527 0.52405 0.96956 0.0
C1059 C 0.86984 0.57992 0.95089 0.0
N1060 N 0.90678 0.5144 0.98018 0.0
N1061 N 0.89274 0.57501 0.95897 0.0
H1062 H 0.49033 0.27995 0.95472 0.0
H1063 H 0.43709 0.40692 0.97902 0.0
H1064 H 0.39752 0.26932 0.94009 0.0
H1065 H 0.52277 0.41055 1.00182 0.0
H1066 H 0.42358 0.35763 0.96349 0.0
H1067 H 0.50394 0.32894 0.971 0.0
C1068 C 0.47276 0.28783 0.955 0.0
C1069 C 0.44272 0.27049 0.94601 0.0
C1070 C 0.44527 0.36911 0.97195 0.0
C1071 C 0.45831 0.32667 0.96442 0.0
C1072 C 0.45305 0.39733 0.98082 0.0
C1073 C 0.48107 0.41288 0.99181 0.0
C1074 C 0.46574 0.35638 0.97395 0.0
C1075 C 0.50079 0.39925 0.99361 0.0
C1076 C 0.4806 0.31585 0.96423 0.0
C1077 C 0.42113 0.28213 0.94657 0.0
N1078 N 0.49279 0.3718 0.98471 0.0
N1079 N 0.42936 0.30948 0.9556 0.0
H1080 H 0.16448 0.70609 0.10277 0.0
H1081 H 0.09197 0.61203 0.00756 0.0
H1082 H 0.18262 0.75137 0.04862 0.0
H1083 H 0.05162 0.57292 0.06168 0.0
H1084 H 0.12914 0.66212 0.02243 0.0
H1085 H 0.12625 0.65605 0.08811 0.0
C1086 C 0.16034 0.70564 0.08783 0.0
C1087 C 0.17694 0.73315 0.07694 0.0
C1088 C 0.11221 0.64259 0.03108 0.0
C1089 C 0.13358 0.67567 0.06005 0.0
C1090 C 0.09128 0.61386 0.02259 0.0
C1091 C 0.0692 0.58817 0.03342 0.0
C1092 C 0.11119 0.64559 0.05061 0.0
C1093 C 0.06839 0.59223 0.05284 0.0
C1094 C 0.13859 0.67698 0.07948 0.0
C1095 C 0.17093 0.7308 0.05757 0.0
N1096 N 0.08929 0.62036 0.06086 0.0
N1097 N 0.14987 0.70259 0.04976 0.0
H1098 H 0.29166 0.48997 0.06456 0.0
H1099 H 0.40188 0.41399 0.03822 0.0
H1100 H 0.27024 0.39679 0.08104 0.0
H1101 H 0.43761 0.51382 0.03458 0.0
H1102 H 0.34978 0.40612 0.04938 0.0
H1103 H 0.34168 0.49805 0.04931 0.0
C1104 C 0.2974 0.47119 0.06491 0.0
C1105 C 0.27684 0.44275 0.07427 0.0
C1106 C 0.36884 0.42976 0.04597 0.0
C1107 C 0.33384 0.45177 0.05676 0.0
C1108 C 0.39852 0.43421 0.03952 0.0
C1109 C 0.42389 0.4645 0.03519 0.0
C1110 C 0.36441 0.45584 0.04835 0.0
C1111 C 0.41845 0.49 0.03738 0.0
C1112 C 0.32598 0.47586 0.05627 0.0
C1113 C 0.28556 0.41927 0.0743 0.0
N1114 N 0.38928 0.48511 0.04383 0.0
N1115 N 0.31326 0.42429 0.0657 0.0
H1116 H 0.61513 0.87508 0.08892 0.0
H1117 H 0.48765 0.89231 0.02457 0.0
H1118 H 0.52175 0.79663 0.07398 0.0
H1119 H 0.57188 0.97125 0.04908 0.0
H1120 H 0.50168 0.85654 0.0405 0.0
H1121 H 0.60114 0.91055 0.07275 0.0
C1122 C 0.59158 0.86532 0.08239 0.0
C1123 C 0.5696 0.83279 0.08283 0.0
C1124 C 0.51707 0.88171 0.04236 0.0
C1125 C 0.55367 0.87324 0.06397 0.0
C1126 C 0.50918 0.90214 0.03318 0.0
C1127 C 0.52864 0.93484 0.03546 0.0
C1128 C 0.54467 0.89409 0.05381 0.0
C1129 C 0.5561 0.94623 0.04694 0.0
C1130 C 0.58369 0.88557 0.07305 0.0
C1131 C 0.53965 0.82147 0.07378 0.0
N1132 N 0.56329 0.92589 0.05566 0.0
N1133 N 0.53261 0.84165 0.06468 0.0
H1134 H 0.961 0.1421 0.40294 0.0
H1135 H 0.06505 0.32037 0.36658 0.0
H1136 H 0.93844 0.21516 0.41557 0.0
H1137 H 0.10054 0.25492 0.36441 0.0
H1138 H 0.01402 0.27894 0.3798 0.0
H1139 H 0.00811 0.18026 0.38466 0.0
C1140 C 0.96586 0.16612 0.40179 0.0
C1141 C 0.94581 0.17548 0.41091 0.0
C1142 C 0.03276 0.27344 0.37623 0.0
C1143 C 0.99961 0.21921 0.38996 0.0
C1144 C 0.06178 0.29702 0.36857 0.0
C1145 C 0.08687 0.29096 0.36425 0.0
C1146 C 0.0288 0.24353 0.3798 0.0
C1147 C 0.0816 0.26043 0.36728 0.0
C1148 C 0.99279 0.18789 0.3914 0.0
C1149 C 0.95343 0.20698 0.40903 0.0
N1150 N 0.05317 0.23784 0.37498 0.0
N1151 N 0.97964 0.22764 0.39878 0.0
H1152 H 0.79636 0.73017 0.41435 0.0
H1153 H 0.75033 0.85235 0.36998 0.0
H1154 H 0.86898 0.8247 0.39894 0.0
H1155 H 0.68403 0.75241 0.37371 0.0
H1156 H 0.79422 0.84381 0.38078 0.0
H1157 H 0.75497 0.73875 0.40003 0.0
C1158 C 0.80359 0.7528 0.40794 0.0
C1159 C 0.83618 0.77685 0.408 0.0
C1160 C 0.77016 0.82371 0.37904 0.0
C1161 C 0.78868 0.78693 0.39149 0.0
C1162 C 0.74514 0.82857 0.37275 0.0
C1163 C 0.71368 0.80292 0.37048 0.0
C1164 C 0.76344 0.79308 0.38354 0.0
C1165 C 0.70806 0.77275 0.37501 0.0
C1166 C 0.77994 0.75765 0.39967 0.0
C1167 C 0.84416 0.80552 0.3992 0.0
N1168 N 0.73261 0.76867 0.38132 0.0
N1169 N 0.82054 0.80989 0.39145 0.0
H1170 H 0.23018 0.03951 0.44042 0.0
H1171 H 0.16275 0.93296 0.35111 0.0
H1172 H 0.236 0.08136 0.38612 0.0
H1173 H 0.22184 0.91765 0.39075 0.0
H1174 H 0.17806 0.98315 0.36637 0.0
H1175 H 0.21614 0.9899 0.42489 0.0
C1176 C 0.22878 0.03853 0.42528 0.0
C1177 C 0.2345 0.06503 0.41464 0.0
C1178 C 0.18771 0.96874 0.37159 0.0
C1179 C 0.21707 0.00776 0.39698 0.0
C1180 C 0.17918 0.94019 0.36283 0.0
C1181 C 0.19164 0.92131 0.3693 0.0
C1182 C 0.20792 0.97793 0.3873 0.0
C1183 C 0.21192 0.93152 0.38509 0.0
C1184 C 0.22051 0.01008 0.41649 0.0
C1185 C 0.23122 0.06164 0.39505 0.0
N1186 N 0.21924 0.95906 0.39365 0.0
N1187 N 0.22245 0.03347 0.38686 0.0
H1188 H 0.4893 0.58412 0.31224 0.0
H1189 H 0.62483 0.76449 0.2974 0.0
H1190 H 0.51001 0.63018 0.25824 0.0
H1191 H 0.58177 0.72542 0.35105 0.0
H1192 H 0.58719 0.71395 0.28268 0.0
H1193 H 0.52654 0.63459 0.32668 0.0
C1194 C 0.50137 0.60481 0.3034 0.0
C1195 C 0.49629 0.60268 0.28393 0.0
C1196 C 0.58589 0.71654 0.29768 0.0
C1197 C 0.53979 0.66061 0.30043 0.0
C1198 C 0.60745 0.74527 0.30609 0.0
C1199 C 0.606 0.74929 0.32547 0.0
C1200 C 0.56311 0.6915 0.30879 0.0
C1201 C 0.58307 0.72367 0.33606 0.0
C1202 C 0.52285 0.63363 0.31167 0.0
C1203 C 0.51342 0.63041 0.27324 0.0
N1204 N 0.56261 0.69585 0.32762 0.0
N1205 N 0.53446 0.65814 0.28161 0.0
H1206 H 0.40384 0.93748 0.27716 0.0
H1207 H 0.23532 0.81936 0.32674 0.0
H1208 H 0.38073 0.84436 0.29489 0.0
H1209 H 0.27281 0.91932 0.32142 0.0
H1210 H 0.28722 0.82667 0.31495 0.0
H1211 H 0.35456 0.92993 0.29245 0.0
C1212 C 0.38827 0.91534 0.2842 0.0
C1213 C 0.39635 0.89143 0.28459 0.0
C1214 C 0.2842 0.84703 0.31658 0.0
C1215 C 0.33962 0.8826 0.30233 0.0
C1216 C 0.25467 0.8429 0.32343 0.0
C1217 C 0.25 0.86889 0.32538 0.0
C1218 C 0.30886 0.87727 0.3112 0.0
C1219 C 0.27553 0.89871 0.3203 0.0
C1220 C 0.36021 0.91111 0.29308 0.0
C1221 C 0.37547 0.86344 0.29427 0.0
N1222 N 0.3037 0.90205 0.31339 0.0
N1223 N 0.34793 0.85968 0.30262 0.0
H1224 H 0.10255 0.51639 0.30483 0.0
H1225 H 0.11896 0.36514 0.29847 0.0
H1226 H 0.109 0.4797 0.25083 0.0
H1227 H 0.17353 0.43744 0.33934 0.0
H1228 H 0.1054 0.4012 0.28267 0.0
H1229 H 0.11882 0.48176 0.31977 0.0
C1230 C 0.10762 0.50135 0.29602 0.0
C1231 C 0.10474 0.50148 0.2764 0.0
C1232 C 0.12029 0.40902 0.29513 0.0
C1233 C 0.1221 0.46082 0.2937 0.0
C1234 C 0.12799 0.38848 0.30425 0.0
C1235 C 0.14706 0.39803 0.32054 0.0
C1236 C 0.13109 0.43908 0.30255 0.0
C1237 C 0.15822 0.42875 0.32714 0.0
C1238 C 0.11672 0.48147 0.30465 0.0
C1239 C 0.11046 0.48034 0.26596 0.0
N1240 N 0.14972 0.44808 0.31826 0.0
N1241 N 0.11867 0.46071 0.27476 0.0
H1242 H 0.40577 0.45701 0.28053 0.0
H1243 H 0.23531 0.41195 0.32729 0.0
H1244 H 0.37865 0.52663 0.29394 0.0
H1245 H 0.27228 0.34788 0.32276 0.0
H1246 H 0.28762 0.45483 0.31603 0.0
H1247 H 0.35677 0.41697 0.29621 0.0
C1248 C 0.38942 0.46385 0.28675 0.0
C1249 C 0.39623 0.49518 0.2858 0.0
C1250 C 0.28442 0.43147 0.31772 0.0
C1251 C 0.33993 0.44936 0.30393 0.0
C1252 C 0.25465 0.40707 0.32428 0.0
C1253 C 0.24972 0.37647 0.32622 0.0
C1254 C 0.30908 0.42499 0.31268 0.0
C1255 C 0.27525 0.37122 0.32159 0.0
C1256 C 0.36153 0.44101 0.29583 0.0
C1257 C 0.37441 0.50277 0.29441 0.0
N1258 N 0.30371 0.39515 0.31496 0.0
N1259 N 0.3471 0.47998 0.30298 0.0
H1260 H 0.46867 0.84377 0.29589 0.0
H1261 H 0.6568 0.92247 0.32257 0.0
H1262 H 0.5422 0.93727 0.27929 0.0
H1263 H 0.59113 0.82241 0.32646 0.0
H1264 H 0.61267 0.9293 0.31061 0.0
H1265 H 0.51077 0.83652 0.31123 0.0
C1266 C 0.49359 0.8628 0.29558 0.0
C1267 C 0.50199 0.89104 0.28612 0.0
C1268 C 0.60775 0.90583 0.31419 0.0
C1269 C 0.55009 0.88298 0.3036 0.0
C1270 C 0.63293 0.90196 0.32104 0.0
C1271 C 0.62742 0.87196 0.32585 0.0
C1272 C 0.57674 0.87943 0.31189 0.0
C1273 C 0.59616 0.84605 0.32332 0.0
C1274 C 0.51758 0.8586 0.30422 0.0
C1275 C 0.53466 0.91492 0.28613 0.0
N1276 N 0.57192 0.85037 0.31656 0.0
N1277 N 0.5574 0.91034 0.29469 0.0
H1278 H 0.10494 0.58767 0.30514 0.0
H1279 H 0.11647 0.7525 0.29991 0.0
H1280 H 0.11148 0.63114 0.2513 0.0
H1281 H 0.17559 0.7365 0.33917 0.0
H1282 H 0.10376 0.70343 0.28406 0.0
H1283 H 0.12068 0.63791 0.32026 0.0
C1284 C 0.10993 0.60767 0.29641 0.0
C1285 C 0.10699 0.60492 0.27678 0.0
C1286 C 0.11941 0.71076 0.29621 0.0
C1287 C 0.12365 0.66209 0.29428 0.0
C1288 C 0.1266 0.73865 0.30535 0.0
C1289 C 0.14673 0.74847 0.32119 0.0
C1290 C 0.1318 0.69222 0.3032 0.0
C1291 C 0.15936 0.72958 0.32737 0.0
C1292 C 0.11869 0.63626 0.30514 0.0
C1293 C 0.11278 0.63171 0.26644 0.0
N1294 N 0.15136 0.70211 0.31851 0.0
N1295 N 0.12054 0.65911 0.27533 0.0
H1296 H 0.88366 0.06115 0.40559 0.0
H1297 H 0.69862 0.93094 0.38583 0.0
H1298 H 0.80203 0.06807 0.42598 0.0
H1299 H 0.78037 0.92626 0.3633 0.0
H1300 H 0.73604 0.98031 0.40138 0.0
H1301 H 0.8462 0.01099 0.39078 0.0
C1302 C 0.85786 0.05217 0.40695 0.0
C1303 C 0.84607 0.06904 0.41703 0.0
C1304 C 0.74581 0.96853 0.393 0.0
C1305 C 0.80288 0.01128 0.40016 0.0
C1306 C 0.72442 0.94028 0.38409 0.0
C1307 C 0.73628 0.92444 0.37306 0.0
C1308 C 0.7794 0.98111 0.39097 0.0
C1309 C 0.77003 0.93777 0.37142 0.0
C1310 C 0.83646 0.02342 0.39853 0.0
C1311 C 0.81231 0.05583 0.41855 0.0
N1312 N 0.79035 0.96528 0.38026 0.0
N1313 N 0.79196 0.02785 0.41017 0.0
H1314 H 0.95676 0.82512 0.3976 0.0
H1315 H 0.06568 0.74897 0.36856 0.0
H1316 H 0.93694 0.73255 0.41435 0.0
H1317 H 0.10155 0.84883 0.36479 0.0
H1318 H 0.01432 0.74142 0.3808 0.0
H1319 H 0.0061 0.8332 0.38143 0.0
C1320 C 0.96271 0.80648 0.39783 0.0
C1321 C 0.94278 0.7782 0.40752 0.0
C1322 C 0.03324 0.765 0.37714 0.0
C1323 C 0.99898 0.7872 0.38893 0.0
C1324 C 0.06251 0.76928 0.37007 0.0
C1325 C 0.08775 0.79949 0.36545 0.0
C1326 C 0.02905 0.79115 0.37983 0.0
C1327 C 0.08249 0.82507 0.36787 0.0
C1328 C 0.9909 0.81116 0.38866 0.0
C1329 C 0.95176 0.75491 0.40736 0.0
N1330 N 0.05371 0.82034 0.37494 0.0
N1331 N 0.97904 0.75991 0.39823 0.0
H1332 H 0.27897 0.20931 0.42101 0.0
H1333 H 0.14897 0.22567 0.35869 0.0
H1334 H 0.18465 0.13057 0.40796 0.0
H1335 H 0.23368 0.30486 0.38263 0.0
H1336 H 0.16322 0.19005 0.37464 0.0
H1337 H 0.26395 0.24445 0.40543 0.0
C1338 C 0.25497 0.1994 0.41504 0.0
C1339 C 0.23307 0.16687 0.41583 0.0
C1340 C 0.17864 0.21523 0.37638 0.0
C1341 C 0.21595 0.20701 0.39759 0.0
C1342 C 0.17064 0.23559 0.3672 0.0
C1343 C 0.19022 0.26834 0.36925 0.0
C1344 C 0.20651 0.22773 0.38761 0.0
C1345 C 0.21782 0.27982 0.38062 0.0
C1346 C 0.2465 0.21949 0.40603 0.0
C1347 C 0.20253 0.1554 0.40747 0.0
N1348 N 0.22516 0.25956 0.38931 0.0
N1349 N 0.19492 0.17542 0.39864 0.0
H1350 H 0.60421 0.54147 0.74907 0.0
H1351 H 0.7697 0.58177 0.69759 0.0
H1352 H 0.62788 0.46982 0.73455 0.0
H1353 H 0.73406 0.64684 0.70273 0.0
H1354 H 0.71788 0.53969 0.71014 0.0
H1355 H 0.65217 0.58022 0.73199 0.0
C1356 C 0.61961 0.53393 0.74234 0.0
C1357 C 0.61215 0.50243 0.74334 0.0
C1358 C 0.72126 0.56308 0.70828 0.0
C1359 C 0.66716 0.54667 0.7236 0.0
C1360 C 0.7507 0.58698 0.701 0.0
C1361 C 0.75589 0.61765 0.69898 0.0
C1362 C 0.69729 0.5702 0.7139 0.0
C1363 C 0.73088 0.62343 0.70402 0.0
C1364 C 0.64687 0.556 0.73244 0.0
C1365 C 0.6327 0.49387 0.73406 0.0
N1366 N 0.7028 0.60003 0.71135 0.0
N1367 N 0.65942 0.51591 0.72469 0.0
H1368 H 0.53858 0.15056 0.72714 0.0
H1369 H 0.41542 0.18086 0.70153 0.0
H1370 H 0.4609 0.06259 0.74852 0.0
H1371 H 0.35156 0.08062 0.70625 0.0
H1372 H 0.46017 0.17448 0.71251 0.0
H1373 H 0.49862 0.16079 0.71236 0.0
C1374 C 0.51311 0.13339 0.72876 0.0
C1375 C 0.50318 0.10581 0.73931 0.0
C1376 C 0.43669 0.15367 0.71072 0.0
C1377 C 0.45694 0.11794 0.72294 0.0
C1378 C 0.41103 0.15737 0.70443 0.0
C1379 C 0.37999 0.13108 0.70235 0.0
C1380 C 0.43116 0.1234 0.71524 0.0
C1381 C 0.37532 0.10139 0.70727 0.0
C1382 C 0.49018 0.1395 0.72053 0.0
C1383 C 0.46976 0.0845 0.7409 0.0
N1384 N 0.4006 0.09835 0.71348 0.0
N1385 N 0.44794 0.09102 0.73284 0.0
H1386 H 0.91835 0.37931 0.76422 0.0
H1387 H 0.87327 0.28106 0.66961 0.0
H1388 H 0.93833 0.42505 0.71013 0.0
H1389 H 0.88971 0.24796 0.72233 0.0
H1390 H 0.89321 0.33326 0.68375 0.0
H1391 H 0.90357 0.32978 0.74872 0.0
C1392 C 0.92006 0.37911 0.74909 0.0
C1393 C 0.92987 0.40658 0.73851 0.0
C1394 C 0.8926 0.3145 0.69208 0.0
C1395 C 0.91202 0.34946 0.72059 0.0
C1396 C 0.88122 0.28475 0.68405 0.0
C1397 C 0.87959 0.25997 0.69479 0.0
C1398 C 0.90197 0.31923 0.711 0.0
C1399 C 0.89028 0.26615 0.71345 0.0
C1400 C 0.91138 0.3507 0.74023 0.0
C1401 C 0.93057 0.40443 0.71886 0.0
N1402 N 0.90072 0.29501 0.72096 0.0
N1403 N 0.92159 0.3763 0.71051 0.0
H1404 H 0.17255 0.95757 0.58941 0.0
H1405 H 0.24773 0.05263 0.68396 0.0
H1406 H 0.15639 0.91243 0.64351 0.0
H1407 H 0.28814 0.09002 0.62956 0.0
H1408 H 0.20938 0.00258 0.66943 0.0
H1409 H 0.21064 0.0078 0.6039 0.0
C1410 C 0.17705 0.95811 0.60431 0.0
C1411 C 0.1612 0.93053 0.61521 0.0
C1412 C 0.2266 0.02173 0.66066 0.0
C1413 C 0.20439 0.98822 0.63192 0.0
C1414 C 0.24823 0.05042 0.66894 0.0
C1415 C 0.27073 0.0756 0.65793 0.0
C1416 C 0.22729 0.0183 0.64116 0.0
C1417 C 0.27114 0.07109 0.63854 0.0
C1418 C 0.19872 0.98686 0.61257 0.0
C1419 C 0.16755 0.93301 0.63455 0.0
N1420 N 0.24955 0.04304 0.63072 0.0
N1421 N 0.18859 0.96132 0.64227 0.0
H1422 H 0.05131 0.1672 0.6231 0.0
H1423 H 0.92745 0.22606 0.65227 0.0
H1424 H 0.06528 0.25883 0.60909 0.0
H1425 H 0.90043 0.12806 0.65137 0.0
H1426 H 0.98192 0.24006 0.64133 0.0
H1427 H 0.99958 0.15394 0.63818 0.0
C1428 C 0.04357 0.18456 0.62328 0.0
C1429 C 0.06253 0.21408 0.61468 0.0
C1430 C 0.96427 0.21551 0.64376 0.0
C1431 C 0.00353 0.19914 0.63197 0.0
C1432 C 0.93338 0.2076 0.65017 0.0
C1433 C 0.90999 0.176 0.65325 0.0
C1434 C 0.9717 0.19158 0.64019 0.0
C1435 C 0.91823 0.15275 0.6496 0.0
C1436 C 0.01402 0.17694 0.63181 0.0
C1437 C 0.05124 0.23563 0.61527 0.0
N1438 N 0.9485 0.16099 0.64335 0.0
N1439 N 0.02256 0.22776 0.62377 0.0
H1440 H 0.71931 0.78199 0.60846 0.0
H1441 H 0.85334 0.76868 0.66882 0.0
H1442 H 0.80931 0.86274 0.62575 0.0
H1443 H 0.76994 0.68917 0.64405 0.0
H1444 H 0.83625 0.80369 0.65492 0.0
H1445 H 0.73637 0.74757 0.623 0.0
C1446 C 0.74272 0.79248 0.61524 0.0
C1447 C 0.76288 0.82529 0.6159 0.0
C1448 C 0.82172 0.77856 0.65257 0.0
C1449 C 0.78243 0.78605 0.63277 0.0
C1450 C 0.83137 0.75855 0.66058 0.0
C1451 C 0.81296 0.7259 0.6577 0.0
C1452 C 0.79346 0.76577 0.64167 0.0
C1453 C 0.78493 0.71414 0.64669 0.0
C1454 C 0.7524 0.77283 0.62362 0.0
C1455 C 0.79277 0.83758 0.62514 0.0
N1456 N 0.77605 0.73405 0.63911 0.0
N1457 N 0.80164 0.81795 0.63323 0.0
H1458 H 0.07192 0.78483 0.61324 0.0
H1459 H 0.90322 0.74006 0.66184 0.0
H1460 H 0.04476 0.8543 0.62702 0.0
H1461 H 0.94041 0.67617 0.65719 0.0
H1462 H 0.95532 0.78296 0.65047 0.0
H1463 H 0.02396 0.74503 0.62987 0.0
C1464 C 0.05578 0.79167 0.61974 0.0
C1465 C 0.06221 0.82285 0.61863 0.0
C1466 C 0.95226 0.75966 0.6522 0.0
C1467 C 0.00722 0.77741 0.63782 0.0
C1468 C 0.92262 0.73525 0.65884 0.0
C1469 C 0.9178 0.7047 0.66073 0.0
C1470 C 0.97685 0.7532 0.64699 0.0
C1471 C 0.94334 0.69951 0.65607 0.0
C1472 C 0.02852 0.769 0.62938 0.0
C1473 C 0.04075 0.83053 0.6276 0.0
N1474 N 0.97167 0.72343 0.64931 0.0
N1475 N 0.01405 0.80791 0.63669 0.0
H1476 H 0.21113 0.26843 0.60951 0.0
H1477 H 0.25737 0.14879 0.65782 0.0
H1478 H 0.13926 0.17324 0.62429 0.0
H1479 H 0.32355 0.24838 0.65152 0.0
H1480 H 0.21353 0.1563 0.64556 0.0
H1481 H 0.25252 0.26071 0.62456 0.0
C1482 C 0.20407 0.24582 0.61589 0.0
C1483 C 0.17171 0.22136 0.61548 0.0
C1484 C 0.23758 0.17655 0.64702 0.0
C1485 C 0.21915 0.21232 0.6329 0.0
C1486 C 0.26251 0.17228 0.6541 0.0
C1487 C 0.29389 0.19816 0.65605 0.0
C1488 C 0.24432 0.2068 0.64149 0.0
C1489 C 0.29957 0.22791 0.65046 0.0
C1490 C 0.22771 0.24148 0.6246 0.0
C1491 C 0.16391 0.19276 0.62431 0.0
N1492 N 0.27508 0.23141 0.64344 0.0
N1493 N 0.1875 0.18893 0.63254 0.0
H1494 H 0.74475 0.90697 0.64449 0.0
H1495 H 0.81205 0.09061 0.62693 0.0
H1496 H 0.77704 0.95319 0.59082 0.0
H1497 H 0.78833 0.04849 0.68187 0.0
H1498 H 0.7961 0.03932 0.6134 0.0
H1499 H 0.75861 0.95775 0.65863 0.0
C1500 C 0.75486 0.9278 0.63571 0.0
C1501 C 0.7596 0.92586 0.61644 0.0
C1502 C 0.7942 0.04114 0.62842 0.0
C1503 C 0.77514 0.98374 0.63242 0.0
C1504 C 0.80287 0.07037 0.63609 0.0
C1505 C 0.80102 0.07356 0.65546 0.0
C1506 C 0.78371 0.01488 0.64025 0.0
C1507 C 0.79033 0.0469 0.66687 0.0
C1508 C 0.76259 0.9567 0.64376 0.0
C1509 C 0.77244 0.95349 0.60567 0.0
N1510 N 0.78198 0.01852 0.65908 0.0
N1511 N 0.77972 0.98124 0.6138 0.0
H1512 H 0.46772 0.39668 0.75522 0.0
H1513 H 0.44715 0.25213 0.69259 0.0
H1514 H 0.5483 0.38794 0.73483 0.0
H1515 H 0.36687 0.26006 0.71449 0.0
H1516 H 0.48461 0.3022 0.70741 0.0
H1517 H 0.4305 0.34678 0.74019 0.0
C1518 C 0.47761 0.38415 0.7477 0.0
C1519 C 0.51124 0.39651 0.74637 0.0
C1520 C 0.4588 0.29302 0.70893 0.0
C1521 C 0.46864 0.33943 0.72884 0.0
C1522 C 0.43734 0.26448 0.70037 0.0
C1523 C 0.40373 0.25193 0.70213 0.0
C1524 C 0.44661 0.30915 0.7194 0.0
C1525 C 0.39254 0.26879 0.7127 0.0
C1526 C 0.45632 0.35573 0.73901 0.0
C1527 C 0.52259 0.37948 0.73609 0.0
N1528 N 0.41392 0.2965 0.72091 0.0
N1529 N 0.50135 0.35182 0.72774 0.0
H1530 H 0.58695 0.08469 0.7133 0.0
H1531 H 0.78074 0.17746 0.71595 0.0
H1532 H 0.64153 0.13374 0.76233 0.0
H1533 H 0.72629 0.09784 0.6798 0.0
H1534 H 0.72974 0.16955 0.72957 0.0
H1535 H 0.63773 0.09674 0.69746 0.0
C1536 C 0.60965 0.09813 0.72069 0.0
C1537 C 0.61002 0.10814 0.73919 0.0
C1538 C 0.72891 0.1541 0.71846 0.0
C1539 C 0.66814 0.12223 0.72109 0.0
C1540 C 0.75792 0.15882 0.71057 0.0
C1541 C 0.75747 0.13889 0.69634 0.0
C1542 C 0.69927 0.12913 0.71213 0.0
C1543 C 0.72745 0.11419 0.6904 0.0
C1544 C 0.63855 0.10487 0.71167 0.0
C1545 C 0.64012 0.12532 0.74814 0.0
N1546 N 0.69948 0.11013 0.69821 0.0
N1547 N 0.66796 0.13195 0.73898 0.0
H1548 H 0.9355 0.50006 0.71206 0.0
H1549 H 0.86736 0.61678 0.7292 0.0
H1550 H 0.90925 0.5172 0.76704 0.0
H1551 H 0.86078 0.57261 0.67588 0.0
H1552 H 0.88777 0.5846 0.74318 0.0
H1553 H 0.91349 0.53103 0.69833 0.0
C1554 C 0.92506 0.51024 0.72126 0.0
C1555 C 0.92411 0.50582 0.74077 0.0
C1556 C 0.88163 0.58179 0.72844 0.0
C1557 C 0.89937 0.54174 0.72509 0.0
C1558 C 0.87009 0.6002 0.72043 0.0
C1559 C 0.86227 0.59728 0.70131 0.0
C1560 C 0.88591 0.56067 0.71718 0.0
C1561 C 0.86605 0.5753 0.69066 0.0
C1562 C 0.91256 0.52796 0.71339 0.0
C1563 C 0.91094 0.52026 0.75198 0.0
N1564 N 0.8779 0.55799 0.6987 0.0
N1565 N 0.89912 0.5376 0.74397 0.0
H1566 H 0.52323 0.96325 0.23649 0.0
H1567 H 0.46799 0.9757 0.13217 0.0
H1568 H 0.42526 0.90501 0.2169 0.0
H1569 H 0.56514 0.03267 0.15327 0.0
H1570 H 0.45168 0.94838 0.1625 0.0
H1571 H 0.53865 0.98799 0.20571 0.0
C1572 C 0.50494 0.95545 0.22567 0.0
C1573 C 0.47289 0.93176 0.22935 0.0
C1574 C 0.47656 0.96685 0.16046 0.0
C1575 C 0.49043 0.96054 0.19385 0.0
C1576 C 0.48596 0.98233 0.1431 0.0
C1577 C 0.51798 0.00676 0.14013 0.0
C1578 C 0.49936 0.97573 0.17498 0.0
C1579 C 0.54007 0.01446 0.15493 0.0
C1580 C 0.51376 0.96978 0.20807 0.0
C1581 C 0.45019 0.9233 0.2148 0.0
N1582 N 0.53035 -0.00091 0.17163 0.0
N1583 N 0.45939 0.93761 0.1977 0.0
H1584 H 0.08438 0.5755 0.21193 0.0
H1585 H 0.93582 0.45198 0.14934 0.0
H1586 H 0.01679 0.48117 0.23068 0.0
H1587 H 0.01275 0.54118 0.12889 0.0
H1588 H 0.96285 0.46294 0.17984 0.0
H1589 H 0.05626 0.56398 0.182 0.0
C1590 C 0.06346 0.55237 0.20976 0.0
C1591 C 0.05281 0.5293 0.22386 0.0
C1592 C 0.97379 0.48007 0.16866 0.0
C1593 C 0.02054 0.51582 0.18947 0.0
C1594 C 0.95829 0.47393 0.1513 0.0
C1595 C 0.97211 0.49567 0.13654 0.0
C1596 C 0.00318 0.50827 0.17131 0.0
C1597 C 1.00144 0.52358 0.1398 0.0
C1598 C 0.04752 0.54574 0.19262 0.0
C1599 C 0.02592 0.49956 0.22015 0.0
N1600 N 0.01593 0.52908 0.15681 0.0
N1601 N 0.0106 0.49369 0.20332 0.0
H1602 H 0.46008 0.48052 0.2373 0.0
H1603 H 0.52512 0.54358 0.13346 0.0
H1604 H 0.48474 0.57323 0.21774 0.0
H1605 H 0.51386 0.45669 0.15562 0.0
H1606 H 0.50669 0.55318 0.1635 0.0
H1607 H 0.47591 0.4697 0.20674 0.0
C1608 C 0.46861 0.49853 0.22654 0.0
C1609 C 0.47115 0.52786 0.23013 0.0
C1610 C 0.50824 0.53201 0.1618 0.0
C1611 C 0.48952 0.5157 0.1951 0.0
C1612 C 0.51859 0.52642 0.1446 0.0
C1613 C 0.52112 0.49931 0.142 0.0
C1614 C 0.50013 0.51025 0.17652 0.0
C1615 C 0.51269 0.4781 0.15705 0.0
C1616 C 0.47785 0.49241 0.20912 0.0
C1617 C 0.48276 0.55044 0.21569 0.0
N1618 N 0.50254 0.48399 0.17363 0.0
N1619 N 0.49146 0.54388 0.19884 0.0
H1620 H 0.94203 0.43021 0.80388 0.0
H1621 H 0.08029 0.54833 0.87372 0.0
H1622 H 0.00927 0.52702 0.78948 0.0
H1623 H 0.99888 0.45939 0.8909 0.0
H1624 H 0.05714 0.54017 0.8422 0.0
H1625 H 0.96507 0.43963 0.83529 0.0
C1626 C 0.9618 0.45345 0.80733 0.0
C1627 C 0.97392 0.47783 0.79404 0.0
C1628 C 0.04431 0.52252 0.8529 0.0
C1629 C 1.00033 0.48887 0.83004 0.0
C1630 C 0.05759 0.52707 0.87083 0.0
C1631 C 0.04146 0.50449 0.88493 0.0
C1632 C 0.01489 0.49504 0.849 0.0
C1633 C 0.01196 0.47753 0.8805 0.0
C1634 C 0.9748 0.45887 0.8253 0.0
C1635 C 0.99917 0.50762 0.79935 0.0
N1636 N 0.99972 0.4735 0.86292 0.0
N1637 N 0.01171 0.51228 0.81694 0.0
H1638 H 0.55098 0.51879 0.79299 0.0
H1639 H 0.48593 0.45618 0.89692 0.0
H1640 H 0.52662 0.4263 0.81283 0.0
H1641 H 0.49724 0.54299 0.8746 0.0
H1642 H 0.50481 0.44666 0.86701 0.0
H1643 H 0.53561 0.52995 0.82361 0.0
C1644 C 0.54266 0.50092 0.80384 0.0
C1645 C 0.53998 0.47151 0.8003 0.0
C1646 C 0.50319 0.46781 0.86865 0.0
C1647 C 0.5221 0.48405 0.83537 0.0
C1648 C 0.49258 0.47335 0.88577 0.0
C1649 C 0.48991 0.5004 0.88829 0.0
C1650 C 0.51141 0.48956 0.85391 0.0
C1651 C 0.4985 0.52162 0.87323 0.0
C1652 C 0.53368 0.50723 0.82128 0.0
C1653 C 0.52867 0.44913 0.81484 0.0
N1654 N 0.50888 0.51577 0.85672 0.0
N1655 N 0.52017 0.45586 0.8317 0.0
H1656 H 0.48448 0.03184 0.78821 0.0
H1657 H 0.54299 0.02138 0.892 0.0
H1658 H 0.58255 0.09204 0.8071 0.0
H1659 H 0.44565 0.96278 0.87156 0.0
H1660 H 0.55823 0.04853 0.86159 0.0
H1661 H 0.47031 0.00705 0.819 0.0
C1662 C 0.50306 0.04005 0.79887 0.0
C1663 C 0.53476 0.06434 0.79499 0.0
C1664 C 0.53354 0.02973 0.86379 0.0
C1665 C 0.51864 0.0355 0.83052 0.0
C1666 C 0.52475 0.01434 0.8812 0.0
C1667 C 0.49299 0.98952 0.88438 0.0
C1668 C 0.5104 0.02037 0.84944 0.0
C1669 C 0.47055 0.98132 0.86973 0.0
C1670 C 0.49495 0.0257 0.81649 0.0
C1671 C 0.55787 0.07331 0.80936 0.0
N1672 N 0.47968 0.9966 0.85299 0.0
N1673 N 0.54935 0.05897 0.82648 0.0
H1674 H 0.09211 0.23439 0.54793 0.0
H1675 H 0.23276 0.36968 0.48503 0.0
H1676 H 0.18953 0.29635 0.56726 0.0
H1677 H 0.13488 0.31126 0.46534 0.0
H1678 H 0.21716 0.34195 0.51496 0.0
H1679 H 0.10692 0.26136 0.51753 0.0
C1680 C 0.11655 0.25375 0.54585 0.0
C1681 C 0.13961 0.26298 0.56024 0.0
C1682 C 0.19903 0.33512 0.50412 0.0
C1683 C 0.15682 0.29378 0.52532 0.0
C1684 C 0.2079 0.3511 0.48701 0.0
C1685 C 0.18507 0.34304 0.4726 0.0
C1686 C 0.16701 0.31075 0.50702 0.0
C1687 C 0.15339 0.31819 0.47594 0.0
C1688 C 0.12504 0.26901 0.52843 0.0
C1689 C 0.17103 0.28799 0.55656 0.0
N1690 N 0.14528 0.30303 0.4928 0.0
N1691 N 0.17865 0.30244 0.53954 0.0
H1692 H 0.74842 0.90032 0.55109 0.0
H1693 H 0.60045 0.78484 0.48557 0.0
H1694 H 0.6782 0.8054 0.56743 0.0
H1695 H 0.67948 0.87487 0.46776 0.0
H1696 H 0.62709 0.79193 0.51599 0.0
H1697 H 0.72246 0.89123 0.52059 0.0
C1698 C 0.72748 0.87751 0.5482 0.0
C1699 C 0.71522 0.85364 0.5618 0.0
C1700 C 0.63859 0.81006 0.50538 0.0
C1701 C 0.68531 0.84299 0.52689 0.0
C1702 C 0.62331 0.80613 0.48811 0.0
C1703 C 0.63785 0.82928 0.47414 0.0
C1704 C 0.66844 0.83744 0.5087 0.0
C1705 C 0.66762 0.85626 0.47805 0.0
C1706 C 0.71272 0.87228 0.53077 0.0
C1707 C 0.68838 0.82436 0.55726 0.0
N1708 N 0.68186 0.85961 0.49496 0.0
N1709 N 0.67411 0.8199 0.54019 0.0
H1710 H 0.12388 0.80826 0.56844 0.0
H1711 H 0.18629 0.87352 0.46462 0.0
H1712 H 0.14606 0.90053 0.54937 0.0
H1713 H 0.17515 0.78593 0.48544 0.0
H1714 H 0.16784 0.88205 0.49491 0.0
H1715 H 0.13872 0.79786 0.53745 0.0
C1716 C 0.13164 0.82624 0.5577 0.0
C1717 C 0.13385 0.85537 0.56154 0.0
C1718 C 0.16939 0.86094 0.49287 0.0
C1719 C 0.15109 0.84372 0.52607 0.0
C1720 C 0.17974 0.85596 0.47552 0.0
C1721 C 0.18233 0.82898 0.47248 0.0
C1722 C 0.1614 0.83873 0.50731 0.0
C1723 C 0.17392 0.80725 0.48724 0.0
C1724 C 0.1403 0.82037 0.54004 0.0
C1725 C 0.14441 0.87792 0.54712 0.0
N1726 N 0.16382 0.81258 0.50399 0.0
N1727 N 0.15262 0.87163 0.53006 0.0
H1728 H 0.65359 0.78859 0.12764 0.0
H1729 H 0.6747 0.86404 0.22978 0.0
H1730 H 0.59551 0.82715 0.14855 0.0
H1731 H 0.72679 0.81808 0.21067 0.0
H1732 H 0.64764 0.8534 0.19947 0.0
H1733 H 0.6827 0.80172 0.15735 0.0
C1734 C 0.64686 0.79971 0.13851 0.0
C1735 C 0.62193 0.80663 0.13561 0.0
C1736 C 0.66504 0.8457 0.20188 0.0
C1737 C 0.65549 0.82209 0.16962 0.0
C1738 C 0.6804 0.85163 0.21922 0.0
C1739 C 0.70293 0.84176 0.22284 0.0
C1740 C 0.67222 0.82978 0.18799 0.0
C1741 C 0.70982 0.82637 0.20847 0.0
C1742 C 0.66363 0.80736 0.15544 0.0
C1743 C 0.61473 0.82164 0.15008 0.0
N1744 N 0.69444 0.82075 0.19171 0.0
N1745 N 0.63137 0.82878 0.16646 0.0
H1746 H 0.22104 0.8571 0.12347 0.0
H1747 H 0.15265 0.79364 0.22678 0.0
H1748 H 0.19255 0.76329 0.14276 0.0
H1749 H 0.16826 0.88245 0.20517 0.0
H1750 H 0.17155 0.78399 0.19694 0.0
H1751 H 0.20632 0.86872 0.15418 0.0
C1752 C 0.21194 0.83904 0.13421 0.0
C1753 C 0.20786 0.80912 0.1305 0.0
C1754 C 0.17089 0.80562 0.19872 0.0
C1755 C 0.19077 0.82218 0.16564 0.0
C1756 C 0.16027 0.81122 0.2158 0.0
C1757 C 0.15878 0.83887 0.21849 0.0
C1758 C 0.18028 0.82787 0.18418 0.0
C1759 C 0.16859 0.86062 0.20365 0.0
C1760 C 0.20335 0.84562 0.1517 0.0
C1761 C 0.19566 0.78652 0.14491 0.0
N1762 N 0.17893 0.85467 0.18715 0.0
N1763 N 0.18755 0.7935 0.1618 0.0
H1764 H 0.14935 0.36796 0.12186 0.0
H1765 H 0.20498 0.3534 0.22569 0.0
H1766 H 0.24722 0.42599 0.14165 0.0
H1767 H 0.108 0.29579 0.20449 0.0
H1768 H 0.22101 0.38125 0.19556 0.0
H1769 H 0.13404 0.34212 0.15236 0.0
C1770 C 0.16764 0.37547 0.13266 0.0
C1771 C 0.19964 0.39942 0.12912 0.0
C1772 C 0.19623 0.36251 0.19752 0.0
C1773 C 0.18222 0.36942 0.16429 0.0
C1774 C 0.18698 0.34672 0.21478 0.0
C1775 C 0.15507 0.32201 0.21769 0.0
C1776 C 0.17341 0.35368 0.18302 0.0
C1777 C 0.13298 0.31425 0.20288 0.0
C1778 C 0.15889 0.36052 0.1501 0.0
C1779 C 0.22234 0.40752 0.14364 0.0
N1780 N 0.14255 0.32995 0.18627 0.0
N1781 N 0.21319 0.39262 0.16057 0.0
H1782 H 0.81924 0.56492 0.88451 0.0
H1783 H 0.83615 0.70666 0.82043 0.0
H1784 H 0.78855 0.63023 0.90213 0.0
H1785 H 0.85203 0.63289 0.79937 0.0
H1786 H 0.81949 0.67933 0.85056 0.0
H1787 H 0.83235 0.58978 0.85349 0.0
C1788 C 0.81528 0.58451 0.88187 0.0
C1789 C 0.80282 0.59551 0.89602 0.0
C1790 C 0.82647 0.669 0.83935 0.0
C1791 C 0.81776 0.62411 0.86044 0.0
C1792 C 0.83616 0.68469 0.82214 0.0
C1793 C 0.84572 0.67218 0.80733 0.0
C1794 C 0.82655 0.64061 0.84195 0.0
C1795 C 0.8447 0.64334 0.81033 0.0
C1796 C 0.82261 0.59858 0.86411 0.0
C1797 C 0.79781 0.62073 0.89166 0.0
N1798 N 0.83555 0.62867 0.82732 0.0
N1799 N 0.80546 0.63425 0.87434 0.0
H1800 H 0.42472 0.24297 0.87998 0.0
H1801 H 0.27157 0.12534 0.81824 0.0
H1802 H 0.3528 0.15033 0.899 0.0
H1803 H 0.35156 0.21229 0.79741 0.0
H1804 H 0.29912 0.13484 0.84849 0.0
H1805 H 0.39662 0.23277 0.85007 0.0
C1806 C 0.40291 0.22047 0.87785 0.0
C1807 C 0.39096 0.1975 0.89201 0.0
C1808 C 0.31063 0.1518 0.83728 0.0
C1809 C 0.35868 0.18556 0.85774 0.0
C1810 C 0.29483 0.1465 0.82008 0.0
C1811 C 0.30936 0.16803 0.80529 0.0
C1812 C 0.34103 0.17894 0.83973 0.0
C1813 C 0.33967 0.19488 0.80835 0.0
C1814 C 0.38695 0.2146 0.86074 0.0
C1815 C 0.36291 0.16859 0.8884 0.0
N1816 N 0.35445 0.19959 0.82522 0.0
N1817 N 0.34759 0.16347 0.87163 0.0
H1818 H 0.85417 0.20964 0.8991 0.0
H1819 H 0.79736 0.14122 0.79554 0.0
H1820 H 0.75514 0.16827 0.88054 0.0
H1821 H 0.89273 0.17117 0.81739 0.0
H1822 H 0.7817 0.15281 0.82598 0.0
H1823 H 0.86897 0.19746 0.86872 0.0
C1824 C 0.83554 0.19809 0.88859 0.0
C1825 C 0.80337 0.19009 0.89236 0.0
C1826 C 0.80602 0.15677 0.82411 0.0
C1827 C 0.82015 0.17585 0.85747 0.0
C1828 C 0.81504 0.15034 0.80671 0.0
C1829 C 0.84641 0.15517 0.80389 0.0
C1830 C 0.8286 0.16837 0.8388 0.0
C1831 C 0.86818 0.16669 0.81896 0.0
C1832 C 0.84398 0.19098 0.87126 0.0
C1833 C 0.78017 0.17466 0.87829 0.0
N1834 N 0.8589 0.17296 0.8357 0.0
N1835 N 0.78903 0.16817 0.86144 0.0
H1836 H 0.26214 0.16085 0.48049 0.0
H1837 H 0.39497 0.14606 0.54091 0.0
H1838 H 0.32299 0.12648 0.45806 0.0
H1839 H 0.34279 0.19138 0.561 0.0
H1840 H 0.36937 0.13922 0.51035 0.0
H1841 H 0.29187 0.17282 0.50996 0.0
C1842 C 0.28196 0.15611 0.48168 0.0
C1843 C 0.28996 0.1425 0.46676 0.0
C1844 C 0.36362 0.15078 0.52143 0.0
C1845 C 0.32382 0.15571 0.50062 0.0
C1846 C 0.37837 0.15485 0.53887 0.0
C1847 C 0.37094 0.16919 0.55362 0.0
C1848 C 0.34114 0.16102 0.51869 0.0
C1849 C 0.34884 0.17968 0.55017 0.0
C1850 C 0.29882 0.16279 0.49856 0.0
C1851 C 0.31559 0.13645 0.46926 0.0
N1852 N 0.33465 0.17527 0.53311 0.0
N1853 N 0.3315 0.14297 0.48588 0.0
H1854 H 0.86452 0.10577 0.48305 0.0
H1855 H 0.83369 0.23064 0.53823 0.0
H1856 H 0.88488 0.19494 0.45952 0.0
H1857 H 0.83713 0.15424 0.56604 0.0
H1858 H 0.85004 0.21649 0.50893 0.0
H1859 H 0.85175 0.12139 0.51314 0.0
C1860 C 0.86625 0.12861 0.4842 0.0
C1861 C 0.87576 0.14905 0.46869 0.0
C1862 C 0.84741 0.20289 0.52144 0.0
C1863 C 0.86115 0.16709 0.50313 0.0
C1864 C 0.83795 0.21089 0.53817 0.0
C1865 C 0.83393 0.19354 0.55461 0.0
C1866 C 0.85255 0.17703 0.521 0.0
C1867 C 0.84014 0.16838 0.55373 0.0
C1868 C 0.85915 0.13759 0.50141 0.0
C1869 C 0.87793 0.17852 0.4711 0.0
N1870 N 0.84885 0.1607 0.53718 0.0
N1871 N 0.87049 0.18654 0.4879 0.0
H1872 H 0.91595 0.76238 0.4753 0.0
H1873 H 0.77334 0.63123 0.53932 0.0
H1874 H 0.81724 0.70364 0.45702 0.0
H1875 H 0.87166 0.68728 0.55882 0.0
H1876 H 0.78942 0.65887 0.50939 0.0
H1877 H 0.90087 0.7362 0.50599 0.0
C1878 C 0.89117 0.74392 0.47767 0.0
C1879 C 0.86784 0.73539 0.46347 0.0
C1880 C 0.80756 0.66524 0.52018 0.0
C1881 C 0.85034 0.70547 0.49872 0.0
C1882 C 0.7984 0.64931 0.53731 0.0
C1883 C 0.82121 0.65663 0.55165 0.0
C1884 C 0.83989 0.68884 0.51716 0.0
C1885 C 0.85318 0.68089 0.54825 0.0
C1886 C 0.88253 0.72911 0.49526 0.0
C1887 C 0.83601 0.7115 0.46753 0.0
N1888 N 0.86161 0.696 0.53135 0.0
N1889 N 0.82828 0.69748 0.48468 0.0
loop_
_geom_bond_atom_site_label_1
_geom_bond_atom_site_label_2
_geom_bond_distance
_geom_bond_site_symmetry_2
_ccdc_geom_bond_type
H0 C3 0.931 . S
H1 C6 0.928 . S
H2 C8 0.930 . S
C3 H0 0.931 . S
C3 C4 1.413 . S
C3 C5 1.360 . S
C4 C3 1.413 . S
C4 C8 1.429 . S
C5 C3 1.360 . S
C5 C6 1.372 . S
C6 H1 0.928 . S
C6 C5 1.372 . S
C6 C7 1.404 . S
C7 C6 1.404 . S
C7 C8 1.391 . S
C8 H2 0.930 . S
C8 C4 1.429 . S
C8 C7 1.391 . S
H9 C12 0.931 . S
H10 C15 0.928 . S
H11 C17 0.930 . S
C12 H9 0.931 . S
C12 C13 1.413 . S
C12 C14 1.360 . S
C13 C12 1.413 . S
C13 C17 1.429 . S
C14 C12 1.360 . S
C14 C15 1.372 . S
C15 H10 0.928 . S
C15 C14 1.372 . S
C15 C16 1.404 . S
C16 C15 1.404 . S
C16 C17 1.391 . S
C17 H11 0.930 . S
C17 C13 1.429 . S
C17 C16 1.391 . S
H18 C21 0.931 . S
H19 C24 0.928 . S
H20 C26 0.930 . S
C21 H18 0.931 . S
C21 C22 1.413 . S
C21 C23 1.360 . S
C22 C21 1.413 . S
C22 C26 1.429 . S
C23 C21 1.360 . S
C23 C24 1.372 . S
C24 H19 0.928 . S
C24 C23 1.372 . S
C24 C25 1.404 . S
C25 C24 1.404 . S
C25 C26 1.391 . S
C26 H20 0.930 . S
C26 C22 1.429 . S
C26 C25 1.391 . S
H27 C30 0.931 . S
H28 C33 0.928 . S
H29 C35 0.930 . S
C30 H27 0.931 . S
C30 C31 1.413 . S
C30 C32 1.360 . S
C31 C30 1.413 . S
C31 C35 1.429 . S
C32 C30 1.360 . S
C32 C33 1.372 . S
C33 H28 0.928 . S
C33 C32 1.372 . S
C33 C34 1.404 . S
C34 C33 1.404 . S
C34 C35 1.391 . S
C35 H29 0.930 . S
C35 C31 1.429 . S
C35 C34 1.391 . S
H36 C39 0.931 . S
H37 C42 0.928 . S
H38 C44 0.930 . S
C39 H36 0.931 . S
C39 C40 1.413 . S
C39 C41 1.360 . S
C40 C39 1.413 . S
C40 C44 1.429 . S
C41 C39 1.360 . S
C41 C42 1.372 . S
C42 H37 0.928 . S
C42 C41 1.372 . S
C42 C43 1.404 . S
C43 C42 1.404 . S
C43 C44 1.391 . S
C44 H38 0.930 . S
C44 C40 1.429 . S
C44 C43 1.391 . S
H45 C48 0.931 . S
H46 C51 0.928 . S
H47 C53 0.930 . S
C48 H45 0.931 . S
C48 C49 1.413 . S
C48 C50 1.360 . S
C49 C48 1.413 . S
C49 C53 1.429 . S
C50 C48 1.360 . S
C50 C51 1.372 . S
C51 H46 0.928 . S
C51 C50 1.372 . S
C51 C52 1.404 . S
C52 C51 1.404 . S
C52 C53 1.391 . S
C53 H47 0.930 . S
C53 C49 1.429 . S
C53 C52 1.391 . S
H54 C57 0.931 . S
H55 C60 0.928 . S
H56 C62 0.930 . S
C57 H54 0.931 . S
C57 C58 1.413 . S
C57 C59 1.360 . S
C58 C57 1.413 . S
C58 C62 1.429 . S
C59 C57 1.360 . S
C59 C60 1.372 . S
C60 H55 0.928 . S
C60 C59 1.372 . S
C60 C61 1.404 . S
C61 C60 1.404 . S
C61 C62 1.391 . S
C62 H56 0.930 . S
C62 C58 1.429 . S
C62 C61 1.391 . S
H63 C66 0.931 . S
H64 C69 0.928 . S
H65 C71 0.930 . S
C66 H63 0.931 . S
C66 C67 1.413 . S
C66 C68 1.360 . S
C67 C66 1.413 . S
C67 C71 1.429 . S
C68 C66 1.360 . S
C68 C69 1.372 . S
C69 H64 0.928 . S
C69 C68 1.372 . S
C69 C70 1.404 . S
C70 C69 1.404 . S
C70 C71 1.391 . S
C71 H65 0.930 . S
C71 C67 1.429 . S
C71 C70 1.391 . S
H72 C75 0.931 . S
H73 C78 0.928 . S
H74 C80 0.930 . S
C75 H72 0.931 . S
C75 C76 1.413 . S
C75 C77 1.360 . S
C76 C75 1.413 . S
C76 C80 1.429 . S
C77 C75 1.360 . S
C77 C78 1.372 . S
C78 H73 0.928 . S
C78 C77 1.372 . S
C78 C79 1.404 . S
C79 C78 1.404 . S
C79 C80 1.391 . S
C80 H74 0.930 . S
C80 C76 1.429 . S
C80 C79 1.391 . S
H81 C84 0.931 . S
H82 C87 0.928 . S
H83 C89 0.930 . S
C84 H81 0.931 . S
C84 C85 1.413 . S
C84 C86 1.360 . S
C85 C84 1.413 . S
C85 C89 1.429 . S
C86 C84 1.360 . S
C86 C87 1.372 . S
C87 H82 0.928 . S
C87 C86 1.372 . S
C87 C88 1.404 . S
C88 C87 1.404 . S
C88 C89 1.391 . S
C89 H83 0.930 . S
C89 C85 1.429 . S
C89 C88 1.391 . S
H90 C93 0.931 . S
H91 C96 0.928 . S
H92 C98 0.930 . S
C93 H90 0.931 . S
C93 C94 1.413 . S
C93 C95 1.360 . S
C94 C93 1.413 . S
C94 C98 1.429 . S
C95 C93 1.360 . S
C95 C96 1.372 . S
C96 H91 0.928 . S
C96 C95 1.372 . S
C96 C97 1.404 . S
C97 C96 1.404 . S
C97 C98 1.391 . S
C98 H92 0.930 . S
C98 C94 1.429 . S
C98 C97 1.391 . S
H99 C102 0.931 . S
H100 C105 0.928 . S
H101 C107 0.930 . S
C102 H99 0.931 . S
C102 C103 1.413 . S
C102 C104 1.360 . S
C103 C102 1.413 . S
C103 C107 1.429 . S
C104 C102 1.360 . S
C104 C105 1.372 . S
C105 H100 0.928 . S
C105 C104 1.372 . S
C105 C106 1.404 . S
C106 C105 1.404 . S
C106 C107 1.391 . S
C107 H101 0.930 . S
C107 C103 1.429 . S
C107 C106 1.391 . S
H108 C111 0.931 . S
H109 C114 0.928 . S
H110 C116 0.930 . S
C111 H108 0.931 . S
C111 C112 1.413 . S
C111 C113 1.360 . S
C112 C111 1.413 . S
C112 C116 1.429 . S
C113 C111 1.360 . S
C113 C114 1.372 . S
C114 H109 0.928 . S
C114 C113 1.372 . S
C114 C115 1.404 . S
C115 C114 1.404 . S
C115 C116 1.391 . S
C116 H110 0.930 . S
C116 C112 1.429 . S
C116 C115 1.391 . S
H117 C120 0.931 . S
H118 C123 0.928 . S
H119 C125 0.930 . S
C120 H117 0.931 . S
C120 C121 1.413 . S
C120 C122 1.360 . S
C121 C120 1.413 . S
C121 C125 1.429 . S
C122 C120 1.360 . S
C122 C123 1.372 . S
C123 H118 0.928 . S
C123 C122 1.372 . S
C123 C124 1.404 . S
C124 C123 1.404 . S
C124 C125 1.391 . S
C125 H119 0.930 . S
C125 C121 1.429 . S
C125 C124 1.391 . S
H126 C129 0.931 . S
H127 C132 0.928 . S
H128 C134 0.930 . S
C129 H126 0.931 . S
C129 C130 1.413 . S
C129 C131 1.360 . S
C130 C129 1.413 . S
C130 C134 1.429 . S
C131 C129 1.360 . S
C131 C132 1.372 . S
C132 H127 0.928 . S
C132 C131 1.372 . S
C132 C133 1.404 . S
C133 C132 1.404 . S
C133 C134 1.391 . S
C134 H128 0.930 . S
C134 C130 1.429 . S
C134 C133 1.391 . S
H135 C138 0.931 . S
H136 C141 0.928 . S
H137 C143 0.930 . S
C138 H135 0.931 . S
C138 C139 1.413 . S
C138 C140 1.360 . S
C139 C138 1.413 . S
C139 C143 1.429 . S
C140 C138 1.360 . S
C140 C141 1.372 . S
C141 H136 0.928 . S
C141 C140 1.372 . S
C141 C142 1.404 . S
C142 C141 1.404 . S
C142 C143 1.391 . S
C143 H137 0.930 . S
C143 C139 1.429 . S
C143 C142 1.391 . S
H144 C147 0.931 . S
H145 C150 0.928 . S
H146 C152 0.930 . S
C147 H144 0.931 . S
C147 C148 1.413 . S
C147 C149 1.360 . S
C148 C147 1.413 . S
C148 C152 1.429 . S
C149 C147 1.360 . S
C149 C150 1.372 . S
C150 H145 0.928 . S
C150 C149 1.372 . S
C150 C151 1.404 . S
C151 C150 1.404 . S
C151 C152 1.391 . S
C152 H146 0.930 . S
C152 C148 1.429 . S
C152 C151 1.391 . S
H153 C156 0.931 . S
H154 C159 0.928 . S
H155 C161 0.930 . S
C156 H153 0.931 . S
C156 C157 1.413 . S
C156 C158 1.360 . S
C157 C156 1.413 . S
C157 C161 1.429 . S
C158 C156 1.360 . S
C158 C159 1.372 . S
C159 H154 0.928 . S
C159 C158 1.372 . S
C159 C160 1.404 . S
C160 C159 1.404 . S
C160 C161 1.391 . S
C161 H155 0.930 . S
C161 C157 1.429 . S
C161 C160 1.391 . S
Gd162 N193 2.661 . S
Gd162 N199 2.601 . S
Gd162 O206 2.545 . S
Gd162 O207 2.606 1_545 S
Gd162 O209 2.429 . S
Gd162 O210 2.545 1_545 S
Gd162 O211 2.412 . S
Gd162 O213 2.361 . S
Gd162 O214 2.324 1_545 S
Gd162 C221 2.828 . S
Gd163 N172 2.661 . S
Gd163 N176 2.601 . S
Gd163 O207 2.362 1_556 S
Gd163 O208 2.324 1_565 S
Gd163 O212 2.545 . S
Gd163 O213 2.607 1_566 S
Gd163 O215 2.466 . S
Gd163 O216 2.545 1_565 S
Gd163 O217 2.412 . S
Gd163 C230 2.828 . S
C164 C167 1.417 . S
C164 C169 1.431 . S
C164 C170 1.412 . S
C165 C168 1.437 . S
C165 C169 1.317 . S
C165 H184 0.929 . S
C166 C167 1.426 . S
C166 C168 1.413 . S
C166 N176 1.359 . S
C167 C164 1.417 . S
C167 C166 1.426 . S
C167 N172 1.350 . S
C168 C165 1.437 . S
C168 C166 1.413 . S
C168 C178 1.391 . S
C169 C164 1.431 . S
C169 C165 1.317 . S
C169 H180 0.930 . S
C170 C164 1.412 . S
C170 C171 1.355 . S
C170 H182 0.930 . S
C171 C170 1.355 . S
C171 C173 1.402 . S
C171 H183 0.930 . S
N172 Gd163 2.661 . S
N172 C167 1.350 . S
N172 C173 1.307 . S
C173 C171 1.402 . S
C173 N172 1.307 . S
C173 H174 0.930 . S
H174 C173 0.930 . S
C175 N176 1.334 . S
C175 C177 1.394 . S
C175 H179 0.930 . S
N176 Gd163 2.601 . S
N176 C166 1.359 . S
N176 C175 1.334 . S
C177 C175 1.394 . S
C177 C178 1.359 . S
C177 H189 0.930 . S
C178 C168 1.391 . S
C178 C177 1.359 . S
C178 H190 0.929 . S
H179 C175 0.930 . S
H180 C169 0.930 . S
H181 C198 0.930 . S
H182 C170 0.930 . S
H183 C171 0.930 . S
H184 C165 0.929 . S
H185 C203 0.930 . S
H186 C194 0.930 . S
H187 C195 0.930 . S
H188 C219 0.929 . S
H189 C177 0.930 . S
H190 C178 0.929 . S
H191 C220 0.930 . S
H192 C201 0.930 . S
N193 Gd162 2.661 . S
N193 C197 1.350 . S
N193 C198 1.307 . S
C194 H186 0.930 . S
C194 C195 1.355 . S
C194 C196 1.412 . S
C195 H187 0.930 . S
C195 C194 1.355 . S
C195 C198 1.402 . S
C196 C194 1.412 . S
C196 C197 1.417 . S
C196 C220 1.431 . S
C197 N193 1.350 . S
C197 C196 1.417 . S
C197 C200 1.426 . S
C198 H181 0.930 . S
C198 N193 1.307 . S
C198 C195 1.402 . S
N199 Gd162 2.601 . S
N199 C200 1.359 . S
N199 C203 1.334 . S
C200 C197 1.426 . S
C200 N199 1.359 . S
C200 C204 1.413 . S
C201 H192 0.930 . S
C201 C202 1.359 . S
C201 C203 1.394 . S
C202 C201 1.359 . S
C202 C204 1.391 . S
C202 H205 0.929 . S
C203 H185 0.930 . S
C203 N199 1.334 . S
C203 C201 1.394 . S
C204 C200 1.413 . S
C204 C202 1.391 . S
C204 C219 1.437 . S
H205 C202 0.929 . S
O206 Gd162 2.545 . S
O206 C221 1.258 . S
O207 Gd162 2.606 1_565 S
O207 Gd163 2.362 1_554 S
O207 C218 1.284 . S
O208 Gd163 2.324 1_545 S
O208 C228 1.254 . S
O209 Gd162 2.429 . S
O209 C228 1.268 1_554 S
O210 Gd162 2.545 1_565 S
O210 C218 1.250 . S
O211 Gd162 2.412 . S
O211 C221 1.252 . S
O212 Gd163 2.545 . S
O212 C230 1.258 . S
O213 Gd162 2.361 . S
O213 Gd163 2.607 1_544 S
O213 C229 1.285 1_554 S
O214 Gd162 2.324 1_565 S
O214 C237 1.254 . S
O215 Gd163 2.466 . S
O215 C237 1.204 1_556 S
O216 Gd163 2.545 1_545 S
O216 C229 1.250 . S
O217 Gd163 2.412 . S
O217 C230 1.252 . S
C218 O207 1.284 . S
C218 O210 1.250 . S
C219 H188 0.929 . S
C219 C204 1.437 . S
C219 C220 1.317 . S
C220 H191 0.930 . S
C220 C196 1.431 . S
C220 C219 1.317 . S
C221 Gd162 2.828 . S
C221 O206 1.258 . S
C221 O211 1.252 . S
C221 C222 1.497 . S
C222 C221 1.497 . S
C222 C223 1.395 . S
C222 C224 1.380 1_545 S
C223 C222 1.395 . S
C223 C226 1.398 . S
C223 H238 0.930 . S
C224 C222 1.380 1_565 S
C224 C225 1.391 . S
C224 H239 0.930 . S
C225 C224 1.391 . S
C225 C227 1.387 1_565 S
C226 C223 1.398 . S
C226 C227 1.380 . S
C226 H240 0.930 . S
C227 C225 1.387 1_545 S
C227 C226 1.380 . S
C227 H241 0.930 . S
C228 O208 1.254 . S
C228 O209 1.268 1_556 S
C229 O213 1.285 1_556 S
C229 O216 1.250 . S
C230 Gd163 2.828 . S
C230 O212 1.258 . S
C230 O217 1.252 . S
C230 C231 1.497 . S
C231 C230 1.497 . S
C231 C232 1.395 . S
C231 C233 1.380 1_565 S
C232 C231 1.395 . S
C232 C235 1.398 . S
C232 H242 0.930 . S
C233 C231 1.380 1_545 S
C233 C234 1.391 . S
C233 H243 0.930 . S
C234 C233 1.391 . S
C234 C236 1.387 1_545 S
C235 C232 1.398 . S
C235 C236 1.380 . S
C235 H244 0.930 . S
C236 C234 1.387 1_565 S
C236 C235 1.380 . S
C236 H245 0.930 . S
C237 O214 1.254 . S
C237 O215 1.204 1_554 S
H238 C223 0.930 . S
H239 C224 0.930 . S
H240 C226 0.930 . S
H241 C227 0.930 . S
H242 C232 0.930 . S
H243 C233 0.930 . S
H244 C235 0.930 . S
H245 C236 0.930 . S
Gd246 N277 2.661 . S
Gd246 N283 2.601 . S
Gd246 O290 2.545 . S
Gd246 O291 2.606 1_655 S
Gd246 O293 2.429 . S
Gd246 O294 2.545 1_655 S
Gd246 O295 2.412 . S
Gd246 O297 2.361 1_554 S
Gd246 O298 2.324 1_655 S
Gd246 C305 2.828 . S
Gd247 N256 2.661 . S
Gd247 N260 2.601 . S
Gd247 O291 2.362 1_556 S
Gd247 O292 2.324 1_455 S
Gd247 O296 2.545 . S
Gd247 O297 2.606 1_455 S
Gd247 O299 2.425 1_556 S
Gd247 O300 2.545 1_455 S
Gd247 O301 2.412 . S
Gd247 C314 2.828 . S
C248 C251 1.417 . S
C248 C253 1.431 . S
C248 C254 1.412 . S
C249 C252 1.437 . S
C249 C253 1.317 . S
C249 H268 0.929 . S
C250 C251 1.426 . S
C250 C252 1.413 . S
C250 N260 1.359 . S
C251 C248 1.417 . S
C251 C250 1.426 . S
C251 N256 1.350 . S
C252 C249 1.437 . S
C252 C250 1.413 . S
C252 C262 1.391 . S
C253 C248 1.431 . S
C253 C249 1.317 . S
C253 H264 0.930 . S
C254 C248 1.412 . S
C254 C255 1.355 . S
C254 H266 0.930 . S
C255 C254 1.355 . S
C255 C257 1.402 . S
C255 H267 0.930 . S
N256 Gd247 2.661 . S
N256 C251 1.350 . S
N256 C257 1.307 . S
C257 C255 1.402 . S
C257 N256 1.307 . S
C257 H258 0.930 . S
H258 C257 0.930 . S
C259 N260 1.334 . S
C259 C261 1.394 . S
C259 H263 0.930 . S
N260 Gd247 2.601 . S
N260 C250 1.359 . S
N260 C259 1.334 . S
C261 C259 1.394 . S
C261 C262 1.359 . S
C261 H273 0.930 . S
C262 C252 1.391 . S
C262 C261 1.359 . S
C262 H274 0.929 . S
H263 C259 0.930 . S
H264 C253 0.930 . S
H265 C282 0.930 . S
H266 C254 0.930 . S
H267 C255 0.930 . S
H268 C249 0.929 . S
H269 C287 0.930 . S
H270 C278 0.930 . S
H271 C279 0.930 . S
H272 C303 0.929 . S
H273 C261 0.930 . S
H274 C262 0.929 . S
H275 C304 0.930 . S
H276 C285 0.930 . S
N277 Gd246 2.661 . S
N277 C281 1.350 . S
N277 C282 1.307 . S
C278 H270 0.930 . S
C278 C279 1.355 . S
C278 C280 1.412 . S
C279 H271 0.930 . S
C279 C278 1.355 . S
C279 C282 1.402 . S
C280 C278 1.412 . S
C280 C281 1.417 . S
C280 C304 1.431 . S
C281 N277 1.350 . S
C281 C280 1.417 . S
C281 C284 1.426 . S
C282 H265 0.930 . S
C282 N277 1.307 . S
C282 C279 1.402 . S
N283 Gd246 2.601 . S
N283 C284 1.359 . S
N283 C287 1.334 . S
C284 C281 1.426 . S
C284 N283 1.359 . S
C284 C288 1.413 . S
C285 H276 0.930 . S
C285 C286 1.359 . S
C285 C287 1.394 . S
C286 C285 1.359 . S
C286 C288 1.391 . S
C286 H289 0.929 . S
C287 H269 0.930 . S
C287 N283 1.334 . S
C287 C285 1.394 . S
C288 C284 1.413 . S
C288 C286 1.391 . S
C288 C303 1.437 . S
H289 C286 0.929 . S
O290 Gd246 2.545 . S
O290 C305 1.258 . S
O291 Gd246 2.606 1_455 S
O291 Gd247 2.362 1_554 S
O291 C302 1.284 . S
O292 Gd247 2.324 1_655 S
O292 C312 1.254 . S
O293 Gd246 2.429 . S
O293 C312 1.268 1_554 S
O294 Gd246 2.545 1_455 S
O294 C302 1.250 . S
O295 Gd246 2.412 . S
O295 C305 1.252 . S
O296 Gd247 2.545 . S
O296 C314 1.258 . S
O297 Gd246 2.361 1_556 S
O297 Gd247 2.606 1_655 S
O297 C313 1.285 . S
O298 Gd246 2.324 1_455 S
O298 C321 1.254 . S
O299 Gd247 2.425 1_554 S
O299 C321 1.274 . S
O300 Gd247 2.545 1_655 S
O300 C313 1.250 . S
O301 Gd247 2.412 . S
O301 C314 1.252 . S
C302 O291 1.284 . S
C302 O294 1.250 . S
C303 H272 0.929 . S
C303 C288 1.437 . S
C303 C304 1.317 . S
C304 H275 0.930 . S
C304 C280 1.431 . S
C304 C303 1.317 . S
C305 Gd246 2.828 . S
C305 O290 1.258 . S
C305 O295 1.252 . S
C305 C306 1.497 . S
C306 C305 1.497 . S
C306 C307 1.395 . S
C306 C308 1.380 1_655 S
C307 C306 1.395 . S
C307 C310 1.398 . S
C307 H322 0.930 . S
C308 C306 1.380 1_455 S
C308 C309 1.391 . S
C308 H323 0.930 . S
C309 C308 1.391 . S
C309 C311 1.387 1_455 S
C310 C307 1.398 . S
C310 C311 1.380 . S
C310 H324 0.930 . S
C311 C309 1.387 1_655 S
C311 C310 1.380 . S
C311 H325 0.930 . S
C312 O292 1.254 . S
C312 O293 1.268 1_556 S
C313 O297 1.285 . S
C313 O300 1.250 . S
C314 Gd247 2.828 . S
C314 O296 1.258 . S
C314 O301 1.252 . S
C314 C315 1.497 . S
C315 C314 1.497 . S
C315 C316 1.395 . S
C315 C317 1.380 1_455 S
C316 C315 1.395 . S
C316 C319 1.398 . S
C316 H326 0.930 . S
C317 C315 1.380 1_655 S
C317 C318 1.391 . S
C317 H327 0.930 . S
C318 C317 1.391 . S
C318 C320 1.387 1_655 S
C319 C316 1.398 . S
C319 C320 1.380 . S
C319 H328 0.930 . S
C320 C318 1.387 1_455 S
C320 C319 1.380 . S
C320 H329 0.930 . S
C321 O298 1.254 . S
C321 O299 1.274 . S
H322 C307 0.930 . S
H323 C308 0.930 . S
H324 C310 0.930 . S
H325 C311 0.930 . S
H326 C316 0.930 . S
H327 C317 0.930 . S
H328 C319 0.930 . S
H329 C320 0.930 . S
Gd330 N361 2.661 . S
Gd330 N367 2.601 . S
Gd330 O374 2.545 . S
Gd330 O375 2.625 . S
Gd330 O377 2.465 . S
Gd330 O378 2.545 . S
Gd330 O379 2.412 . S
Gd330 O381 2.362 1_556 S
Gd330 O382 2.324 . S
Gd330 C389 2.828 . S
Gd331 N340 2.661 . S
Gd331 N344 2.601 . S
Gd331 O375 2.329 1_554 S
Gd331 O376 2.324 . S
Gd331 O380 2.545 . S
Gd331 O381 2.606 . S
Gd331 O383 2.429 . S
Gd331 O384 2.545 . S
Gd331 O385 2.412 . S
Gd331 C398 2.828 . S
C332 C335 1.417 . S
C332 C337 1.431 . S
C332 C338 1.412 . S
C333 C336 1.437 . S
C333 C337 1.317 . S
C333 H352 0.929 . S
C334 C335 1.426 . S
C334 C336 1.413 . S
C334 N344 1.359 . S
C335 C332 1.417 . S
C335 C334 1.426 . S
C335 N340 1.350 . S
C336 C333 1.437 . S
C336 C334 1.413 . S
C336 C346 1.391 . S
C337 C332 1.431 . S
C337 C333 1.317 . S
C337 H348 0.930 . S
C338 C332 1.412 . S
C338 C339 1.355 . S
C338 H350 0.930 . S
C339 C338 1.355 . S
C339 C341 1.402 . S
C339 H351 0.930 . S
N340 Gd331 2.661 . S
N340 C335 1.350 . S
N340 C341 1.307 . S
C341 C339 1.402 . S
C341 N340 1.307 . S
C341 H342 0.930 . S
H342 C341 0.930 . S
C343 N344 1.334 . S
C343 C345 1.394 . S
C343 H347 0.930 . S
N344 Gd331 2.601 . S
N344 C334 1.359 . S
N344 C343 1.334 . S
C345 C343 1.394 . S
C345 C346 1.359 . S
C345 H357 0.930 . S
C346 C336 1.391 . S
C346 C345 1.359 . S
C346 H358 0.929 . S
H347 C343 0.930 . S
H348 C337 0.930 . S
H349 C366 0.930 . S
H350 C338 0.930 . S
H351 C339 0.930 . S
H352 C333 0.929 . S
H353 C371 0.930 . S
H354 C362 0.930 . S
H355 C363 0.930 . S
H356 C387 0.929 . S
H357 C345 0.930 . S
H358 C346 0.929 . S
H359 C388 0.930 . S
H360 C369 0.930 . S
N361 Gd330 2.661 . S
N361 C365 1.350 . S
N361 C366 1.307 . S
C362 H354 0.930 . S
C362 C363 1.355 . S
C362 C364 1.412 . S
C363 H355 0.930 . S
C363 C362 1.355 . S
C363 C366 1.402 . S
C364 C362 1.412 . S
C364 C365 1.417 . S
C364 C388 1.431 . S
C365 N361 1.350 . S
C365 C364 1.417 . S
C365 C368 1.426 . S
C366 H349 0.930 . S
C366 N361 1.307 . S
C366 C363 1.402 . S
N367 Gd330 2.601 . S
N367 C368 1.359 . S
N367 C371 1.334 . S
C368 C365 1.426 . S
C368 N367 1.359 . S
C368 C372 1.413 . S
C369 H360 0.930 . S
C369 C370 1.359 . S
C369 C371 1.394 . S
C370 C369 1.359 . S
C370 C372 1.391 . S
C370 H373 0.929 . S
C371 H353 0.930 . S
C371 N367 1.334 . S
C371 C369 1.394 . S
C372 C368 1.413 . S
C372 C370 1.391 . S
C372 C387 1.437 . S
H373 C370 0.929 . S
O374 Gd330 2.545 . S
O374 C389 1.258 . S
O375 Gd330 2.625 . S
O375 Gd331 2.329 1_556 S
O375 C386 1.312 . S
O376 Gd331 2.324 . S
O376 C396 1.254 . S
O377 Gd330 2.465 . S
O377 C396 1.205 1_556 S
O378 Gd330 2.545 . S
O378 C386 1.250 . S
O379 Gd330 2.412 . S
O379 C389 1.252 . S
O380 Gd331 2.545 . S
O380 C398 1.258 . S
O381 Gd330 2.362 1_554 S
O381 Gd331 2.606 . S
O381 C397 1.284 . S
O382 Gd330 2.324 . S
O382 C405 1.254 . S
O383 Gd331 2.429 . S
O383 C405 1.268 1_554 S
O384 Gd331 2.545 . S
O384 C397 1.250 . S
O385 Gd331 2.412 . S
O385 C398 1.252 . S
C386 O375 1.312 . S
C386 O378 1.250 . S
C387 H356 0.929 . S
C387 C372 1.437 . S
C387 C388 1.317 . S
C388 H359 0.930 . S
C388 C364 1.431 . S
C388 C387 1.317 . S
C389 Gd330 2.828 . S
C389 O374 1.258 . S
C389 O379 1.252 . S
C389 C390 1.497 . S
C390 C389 1.497 . S
C390 C391 1.395 . S
C390 C392 1.380 . S
C391 C390 1.395 . S
C391 C394 1.398 . S
C391 H406 0.930 . S
C392 C390 1.380 . S
C392 C393 1.391 . S
C392 H407 0.930 . S
C393 C392 1.391 . S
C393 C395 1.387 . S
C394 C391 1.398 . S
C394 C395 1.380 . S
C394 H408 0.930 . S
C395 C393 1.387 . S
C395 C394 1.380 . S
C395 H409 0.930 . S
C396 O376 1.254 . S
C396 O377 1.205 1_554 S
C397 O381 1.284 . S
C397 O384 1.250 . S
C398 Gd331 2.828 . S
C398 O380 1.258 . S
C398 O385 1.252 . S
C398 C399 1.497 . S
C399 C398 1.497 . S
C399 C400 1.395 . S
C399 C401 1.380 . S
C400 C399 1.395 . S
C400 C403 1.398 . S
C400 H410 0.930 . S
C401 C399 1.380 . S
C401 C402 1.391 . S
C401 H411 0.930 . S
C402 C401 1.391 . S
C402 C404 1.387 . S
C403 C400 1.398 . S
C403 C404 1.380 . S
C403 H412 0.930 . S
C404 C402 1.387 . S
C404 C403 1.380 . S
C404 H413 0.930 . S
C405 O382 1.254 . S
C405 O383 1.268 1_556 S
H406 C391 0.930 . S
H407 C392 0.930 . S
H408 C394 0.930 . S
H409 C395 0.930 . S
H410 C400 0.930 . S
H411 C401 0.930 . S
H412 C403 0.930 . S
H413 C404 0.930 . S
Gd414 N445 2.661 . S
Gd414 N451 2.601 . S
Gd414 O458 2.545 . S
Gd414 O459 2.606 . S
Gd414 O461 2.429 . S
Gd414 O462 2.545 . S
Gd414 O463 2.412 . S
Gd414 O465 2.362 . S
Gd414 O466 2.324 . S
Gd414 C473 2.828 . S
Gd415 N424 2.661 . S
Gd415 N428 2.601 . S
Gd415 O459 2.362 . S
Gd415 O460 2.324 . S
Gd415 O464 2.545 . S
Gd415 O465 2.606 . S
Gd415 O467 2.429 . S
Gd415 O468 2.545 . S
Gd415 O469 2.412 . S
Gd415 C482 2.828 . S
C416 C419 1.417 . S
C416 C421 1.431 . S
C416 C422 1.412 . S
C417 C420 1.437 . S
C417 C421 1.317 . S
C417 H436 0.929 . S
C418 C419 1.426 . S
C418 C420 1.413 . S
C418 N428 1.359 . S
C419 C416 1.417 . S
C419 C418 1.426 . S
C419 N424 1.350 . S
C420 C417 1.437 . S
C420 C418 1.413 . S
C420 C430 1.391 . S
C421 C416 1.431 . S
C421 C417 1.317 . S
C421 H432 0.930 . S
C422 C416 1.412 . S
C422 C423 1.355 . S
C422 H434 0.930 . S
C423 C422 1.355 . S
C423 C425 1.402 . S
C423 H435 0.930 . S
N424 Gd415 2.661 . S
N424 C419 1.350 . S
N424 C425 1.307 . S
C425 C423 1.402 . S
C425 N424 1.307 . S
C425 H426 0.930 . S
H426 C425 0.930 . S
C427 N428 1.334 . S
C427 C429 1.394 . S
C427 H431 0.930 . S
N428 Gd415 2.601 . S
N428 C418 1.359 . S
N428 C427 1.334 . S
C429 C427 1.394 . S
C429 C430 1.359 . S
C429 H441 0.930 . S
C430 C420 1.391 . S
C430 C429 1.359 . S
C430 H442 0.929 . S
H431 C427 0.930 . S
H432 C421 0.930 . S
H433 C450 0.930 . S
H434 C422 0.930 . S
H435 C423 0.930 . S
H436 C417 0.929 . S
H437 C455 0.930 . S
H438 C446 0.930 . S
H439 C447 0.930 . S
H440 C471 0.929 . S
H441 C429 0.930 . S
H442 C430 0.929 . S
H443 C472 0.930 . S
H444 C453 0.930 . S
N445 Gd414 2.661 . S
N445 C449 1.350 . S
N445 C450 1.307 . S
C446 H438 0.930 . S
C446 C447 1.355 . S
C446 C448 1.412 . S
C447 H439 0.930 . S
C447 C446 1.355 . S
C447 C450 1.402 . S
C448 C446 1.412 . S
C448 C449 1.417 . S
C448 C472 1.431 . S
C449 N445 1.350 . S
C449 C448 1.417 . S
C449 C452 1.426 . S
C450 H433 0.930 . S
C450 N445 1.307 . S
C450 C447 1.402 . S
N451 Gd414 2.601 . S
N451 C452 1.359 . S
N451 C455 1.334 . S
C452 C449 1.426 . S
C452 N451 1.359 . S
C452 C456 1.413 . S
C453 H444 0.930 . S
C453 C454 1.359 . S
C453 C455 1.394 . S
C454 C453 1.359 . S
C454 C456 1.391 . S
C454 H457 0.929 . S
C455 H437 0.930 . S
C455 N451 1.334 . S
C455 C453 1.394 . S
C456 C452 1.413 . S
C456 C454 1.391 . S
C456 C471 1.437 . S
H457 C454 0.929 . S
O458 Gd414 2.545 . S
O458 C473 1.258 . S
O459 Gd414 2.606 . S
O459 Gd415 2.362 . S
O459 C470 1.284 . S
O460 Gd415 2.324 . S
O460 C480 1.254 . S
O461 Gd414 2.429 . S
O461 C480 1.268 . S
O462 Gd414 2.545 . S
O462 C470 1.250 . S
O463 Gd414 2.412 . S
O463 C473 1.252 . S
O464 Gd415 2.545 . S
O464 C482 1.258 . S
O465 Gd414 2.362 . S
O465 Gd415 2.606 . S
O465 C481 1.284 . S
O466 Gd414 2.324 . S
O466 C489 1.254 . S
O467 Gd415 2.429 . S
O467 C489 1.268 . S
O468 Gd415 2.545 . S
O468 C481 1.250 . S
O469 Gd415 2.412 . S
O469 C482 1.252 . S
C470 O459 1.284 . S
C470 O462 1.250 . S
C471 H440 0.929 . S
C471 C456 1.437 . S
C471 C472 1.317 . S
C472 H443 0.930 . S
C472 C448 1.431 . S
C472 C471 1.317 . S
C473 Gd414 2.828 . S
C473 O458 1.258 . S
C473 O463 1.252 . S
C473 C474 1.497 . S
C474 C473 1.497 . S
C474 C475 1.395 . S
C474 C476 1.380 . S
C475 C474 1.395 . S
C475 C478 1.398 . S
C475 H490 0.930 . S
C476 C474 1.380 . S
C476 C477 1.391 . S
C476 H491 0.930 . S
C477 C476 1.391 . S
C477 C479 1.387 . S
C478 C475 1.398 . S
C478 C479 1.380 . S
C478 H492 0.930 . S
C479 C477 1.387 . S
C479 C478 1.380 . S
C479 H493 0.930 . S
C480 O460 1.254 . S
C480 O461 1.268 . S
C481 O465 1.284 . S
C481 O468 1.250 . S
C482 Gd415 2.828 . S
C482 O464 1.258 . S
C482 O469 1.252 . S
C482 C483 1.497 . S
C483 C482 1.497 . S
C483 C484 1.395 . S
C483 C485 1.380 . S
C484 C483 1.395 . S
C484 C487 1.398 . S
C484 H494 0.930 . S
C485 C483 1.380 . S
C485 C486 1.391 . S
C485 H495 0.930 . S
C486 C485 1.391 . S
C486 C488 1.387 . S
C487 C484 1.398 . S
C487 C488 1.380 . S
C487 H496 0.930 . S
C488 C486 1.387 . S
C488 C487 1.380 . S
C488 H497 0.930 . S
C489 O466 1.254 . S
C489 O467 1.268 . S
H490 C475 0.930 . S
H491 C476 0.930 . S
H492 C478 0.930 . S
H493 C479 0.930 . S
H494 C484 0.930 . S
H495 C485 0.930 . S
H496 C487 0.930 . S
H497 C488 0.930 . S
Gd498 N529 2.661 . S
Gd498 N535 2.601 . S
Gd498 O542 2.545 . S
Gd498 O543 2.606 . S
Gd498 O545 2.429 . S
Gd498 O546 2.545 . S
Gd498 O547 2.412 . S
Gd498 O549 2.362 . S
Gd498 O550 2.324 . S
Gd498 C557 2.828 . S
Gd499 N508 2.661 . S
Gd499 N512 2.601 . S
Gd499 O543 2.362 . S
Gd499 O544 2.324 . S
Gd499 O548 2.545 . S
Gd499 O549 2.606 . S
Gd499 O551 2.429 . S
Gd499 O552 2.545 . S
Gd499 O553 2.412 . S
Gd499 C566 2.828 . S
C500 C503 1.417 . S
C500 C505 1.431 . S
C500 C506 1.412 . S
C501 C504 1.437 . S
C501 C505 1.317 . S
C501 H520 0.929 . S
C502 C503 1.426 . S
C502 C504 1.413 . S
C502 N512 1.359 . S
C503 C500 1.417 . S
C503 C502 1.426 . S
C503 N508 1.350 . S
C504 C501 1.437 . S
C504 C502 1.413 . S
C504 C514 1.391 . S
C505 C500 1.431 . S
C505 C501 1.317 . S
C505 H516 0.930 . S
C506 C500 1.412 . S
C506 C507 1.355 . S
C506 H518 0.930 . S
C507 C506 1.355 . S
C507 C509 1.402 . S
C507 H519 0.930 . S
N508 Gd499 2.661 . S
N508 C503 1.350 . S
N508 C509 1.307 . S
C509 C507 1.402 . S
C509 N508 1.307 . S
C509 H510 0.930 . S
H510 C509 0.930 . S
C511 N512 1.334 . S
C511 C513 1.394 . S
C511 H515 0.930 . S
N512 Gd499 2.601 . S
N512 C502 1.359 . S
N512 C511 1.334 . S
C513 C511 1.394 . S
C513 C514 1.359 . S
C513 H525 0.930 . S
C514 C504 1.391 . S
C514 C513 1.359 . S
C514 H526 0.929 . S
H515 C511 0.930 . S
H516 C505 0.930 . S
H517 C534 0.930 . S
H518 C506 0.930 . S
H519 C507 0.930 . S
H520 C501 0.929 . S
H521 C539 0.930 . S
H522 C530 0.930 . S
H523 C531 0.930 . S
H524 C555 0.929 . S
H525 C513 0.930 . S
H526 C514 0.929 . S
H527 C556 0.930 . S
H528 C537 0.930 . S
N529 Gd498 2.661 . S
N529 C533 1.350 . S
N529 C534 1.307 . S
C530 H522 0.930 . S
C530 C531 1.355 . S
C530 C532 1.412 . S
C531 H523 0.930 . S
C531 C530 1.355 . S
C531 C534 1.402 . S
C532 C530 1.412 . S
C532 C533 1.417 . S
C532 C556 1.431 . S
C533 N529 1.350 . S
C533 C532 1.417 . S
C533 C536 1.426 . S
C534 H517 0.930 . S
C534 N529 1.307 . S
C534 C531 1.402 . S
N535 Gd498 2.601 . S
N535 C536 1.359 . S
N535 C539 1.334 . S
C536 C533 1.426 . S
C536 N535 1.359 . S
C536 C540 1.413 . S
C537 H528 0.930 . S
C537 C538 1.359 . S
C537 C539 1.394 . S
C538 C537 1.359 . S
C538 C540 1.391 . S
C538 H541 0.929 . S
C539 H521 0.930 . S
C539 N535 1.334 . S
C539 C537 1.394 . S
C540 C536 1.413 . S
C540 C538 1.391 . S
C540 C555 1.437 . S
H541 C538 0.929 . S
O542 Gd498 2.545 . S
O542 C557 1.258 . S
O543 Gd498 2.606 . S
O543 Gd499 2.362 . S
O543 C554 1.284 . S
O544 Gd499 2.324 . S
O544 C564 1.254 . S
O545 Gd498 2.429 . S
O545 C564 1.268 . S
O546 Gd498 2.545 . S
O546 C554 1.250 . S
O547 Gd498 2.412 . S
O547 C557 1.252 . S
O548 Gd499 2.545 . S
O548 C566 1.258 . S
O549 Gd498 2.362 . S
O549 Gd499 2.606 . S
O549 C565 1.284 . S
O550 Gd498 2.324 . S
O550 C573 1.254 . S
O551 Gd499 2.429 . S
O551 C573 1.268 . S
O552 Gd499 2.545 . S
O552 C565 1.250 . S
O553 Gd499 2.412 . S
O553 C566 1.252 . S
C554 O543 1.284 . S
C554 O546 1.250 . S
C555 H524 0.929 . S
C555 C540 1.437 . S
C555 C556 1.317 . S
C556 H527 0.930 . S
C556 C532 1.431 . S
C556 C555 1.317 . S
C557 Gd498 2.828 . S
C557 O542 1.258 . S
C557 O547 1.252 . S
C557 C558 1.497 . S
C558 C557 1.497 . S
C558 C559 1.395 . S
C558 C560 1.380 . S
C559 C558 1.395 . S
C559 C562 1.398 . S
C559 H574 0.930 . S
C560 C558 1.380 . S
C560 C561 1.391 . S
C560 H575 0.930 . S
C561 C560 1.391 . S
C561 C563 1.387 . S
C562 C559 1.398 . S
C562 C563 1.380 . S
C562 H576 0.930 . S
C563 C561 1.387 . S
C563 C562 1.380 . S
C563 H577 0.930 . S
C564 O544 1.254 . S
C564 O545 1.268 . S
C565 O549 1.284 . S
C565 O552 1.250 . S
C566 Gd499 2.828 . S
C566 O548 1.258 . S
C566 O553 1.252 . S
C566 C567 1.497 . S
C567 C566 1.497 . S
C567 C568 1.395 . S
C567 C569 1.380 . S
C568 C567 1.395 . S
C568 C571 1.398 . S
C568 H578 0.930 . S
C569 C567 1.380 . S
C569 C570 1.391 . S
C569 H579 0.930 . S
C570 C569 1.391 . S
C570 C572 1.387 . S
C571 C568 1.398 . S
C571 C572 1.380 . S
C571 H580 0.930 . S
C572 C570 1.387 . S
C572 C571 1.380 . S
C572 H581 0.930 . S
C573 O550 1.254 . S
C573 O551 1.268 . S
H574 C559 0.930 . S
H575 C560 0.930 . S
H576 C562 0.930 . S
H577 C563 0.930 . S
H578 C568 0.930 . S
H579 C569 0.930 . S
H580 C571 0.930 . S
H581 C572 0.930 . S
Gd582 N613 2.661 . S
Gd582 N619 2.601 . S
Gd582 O626 2.545 . S
Gd582 O627 2.606 . S
Gd582 O629 2.429 . S
Gd582 O630 2.545 . S
Gd582 O631 2.412 . S
Gd582 O633 2.362 . S
Gd582 O634 2.324 . S
Gd582 C641 2.828 . S
Gd583 N592 2.661 . S
Gd583 N596 2.601 . S
Gd583 O627 2.362 . S
Gd583 O628 2.324 . S
Gd583 O632 2.545 . S
Gd583 O633 2.606 . S
Gd583 O635 2.429 . S
Gd583 O636 2.545 . S
Gd583 O637 2.412 . S
Gd583 C650 2.828 . S
C584 C587 1.417 . S
C584 C589 1.431 . S
C584 C590 1.412 . S
C585 C588 1.437 . S
C585 C589 1.317 . S
C585 H604 0.929 . S
C586 C587 1.426 . S
C586 C588 1.413 . S
C586 N596 1.359 . S
C587 C584 1.417 . S
C587 C586 1.426 . S
C587 N592 1.350 . S
C588 C585 1.437 . S
C588 C586 1.413 . S
C588 C598 1.391 . S
C589 C584 1.431 . S
C589 C585 1.317 . S
C589 H600 0.930 . S
C590 C584 1.412 . S
C590 C591 1.355 . S
C590 H602 0.930 . S
C591 C590 1.355 . S
C591 C593 1.402 . S
C591 H603 0.930 . S
N592 Gd583 2.661 . S
N592 C587 1.350 . S
N592 C593 1.307 . S
C593 C591 1.402 . S
C593 N592 1.307 . S
C593 H594 0.930 . S
H594 C593 0.930 . S
C595 N596 1.334 . S
C595 C597 1.394 . S
C595 H599 0.930 . S
N596 Gd583 2.601 . S
N596 C586 1.359 . S
N596 C595 1.334 . S
C597 C595 1.394 . S
C597 C598 1.359 . S
C597 H609 0.930 . S
C598 C588 1.391 . S
C598 C597 1.359 . S
C598 H610 0.929 . S
H599 C595 0.930 . S
H600 C589 0.930 . S
H601 C618 0.930 . S
H602 C590 0.930 . S
H603 C591 0.930 . S
H604 C585 0.929 . S
H605 C623 0.930 . S
H606 C614 0.930 . S
H607 C615 0.930 . S
H608 C639 0.929 . S
H609 C597 0.930 . S
H610 C598 0.929 . S
H611 C640 0.930 . S
H612 C621 0.930 . S
N613 Gd582 2.661 . S
N613 C617 1.350 . S
N613 C618 1.307 . S
C614 H606 0.930 . S
C614 C615 1.355 . S
C614 C616 1.412 . S
C615 H607 0.930 . S
C615 C614 1.355 . S
C615 C618 1.402 . S
C616 C614 1.412 . S
C616 C617 1.417 . S
C616 C640 1.431 . S
C617 N613 1.350 . S
C617 C616 1.417 . S
C617 C620 1.426 . S
C618 H601 0.930 . S
C618 N613 1.307 . S
C618 C615 1.402 . S
N619 Gd582 2.601 . S
N619 C620 1.359 . S
N619 C623 1.334 . S
C620 C617 1.426 . S
C620 N619 1.359 . S
C620 C624 1.413 . S
C621 H612 0.930 . S
C621 C622 1.359 . S
C621 C623 1.394 . S
C622 C621 1.359 . S
C622 C624 1.391 . S
C622 H625 0.929 . S
C623 H605 0.930 . S
C623 N619 1.334 . S
C623 C621 1.394 . S
C624 C620 1.413 . S
C624 C622 1.391 . S
C624 C639 1.437 . S
H625 C622 0.929 . S
O626 Gd582 2.545 . S
O626 C641 1.258 . S
O627 Gd582 2.606 . S
O627 Gd583 2.362 . S
O627 C638 1.284 . S
O628 Gd583 2.324 . S
O628 C648 1.254 . S
O629 Gd582 2.429 . S
O629 C648 1.268 . S
O630 Gd582 2.545 . S
O630 C638 1.250 . S
O631 Gd582 2.412 . S
O631 C641 1.252 . S
O632 Gd583 2.545 . S
O632 C650 1.258 . S
O633 Gd582 2.362 . S
O633 Gd583 2.606 . S
O633 C649 1.284 . S
O634 Gd582 2.324 . S
O634 C657 1.254 . S
O635 Gd583 2.429 . S
O635 C657 1.268 . S
O636 Gd583 2.545 . S
O636 C649 1.250 . S
O637 Gd583 2.412 . S
O637 C650 1.252 . S
C638 O627 1.284 . S
C638 O630 1.250 . S
C639 H608 0.929 . S
C639 C624 1.437 . S
C639 C640 1.317 . S
C640 H611 0.930 . S
C640 C616 1.431 . S
C640 C639 1.317 . S
C641 Gd582 2.828 . S
C641 O626 1.258 . S
C641 O631 1.252 . S
C641 C642 1.497 . S
C642 C641 1.497 . S
C642 C643 1.395 . S
C642 C644 1.380 . S
C643 C642 1.395 . S
C643 C646 1.398 . S
C643 H658 0.930 . S
C644 C642 1.380 . S
C644 C645 1.391 . S
C644 H659 0.930 . S
C645 C644 1.391 . S
C645 C647 1.387 . S
C646 C643 1.398 . S
C646 C647 1.380 . S
C646 H660 0.930 . S
C647 C645 1.387 . S
C647 C646 1.380 . S
C647 H661 0.930 . S
C648 O628 1.254 . S
C648 O629 1.268 . S
C649 O633 1.284 . S
C649 O636 1.250 . S
C650 Gd583 2.828 . S
C650 O632 1.258 . S
C650 O637 1.252 . S
C650 C651 1.497 . S
C651 C650 1.497 . S
C651 C652 1.395 . S
C651 C653 1.380 . S
C652 C651 1.395 . S
C652 C655 1.398 . S
C652 H662 0.930 . S
C653 C651 1.380 . S
C653 C654 1.391 . S
C653 H663 0.930 . S
C654 C653 1.391 . S
C654 C656 1.387 . S
C655 C652 1.398 . S
C655 C656 1.380 . S
C655 H664 0.930 . S
C656 C654 1.387 . S
C656 C655 1.380 . S
C656 H665 0.930 . S
C657 O634 1.254 . S
C657 O635 1.268 . S
H658 C643 0.930 . S
H659 C644 0.930 . S
H660 C646 0.930 . S
H661 C647 0.930 . S
H662 C652 0.930 . S
H663 C653 0.930 . S
H664 C655 0.930 . S
H665 C656 0.930 . S
Gd666 N697 2.661 . S
Gd666 N703 2.601 . S
Gd666 O710 2.545 . S
Gd666 O711 2.606 . S
Gd666 O713 2.429 . S
Gd666 O714 2.545 . S
Gd666 O715 2.412 . S
Gd666 O717 2.362 . S
Gd666 O718 2.324 . S
Gd666 C725 2.828 . S
Gd667 N676 2.661 . S
Gd667 N680 2.601 . S
Gd667 O711 2.362 . S
Gd667 O712 2.324 . S
Gd667 O716 2.545 . S
Gd667 O717 2.606 . S
Gd667 O719 2.429 . S
Gd667 O720 2.545 . S
Gd667 O721 2.412 . S
Gd667 C734 2.828 . S
C668 C671 1.417 . S
C668 C673 1.431 . S
C668 C674 1.412 . S
C669 C672 1.437 . S
C669 C673 1.317 . S
C669 H688 0.929 . S
C670 C671 1.426 . S
C670 C672 1.413 . S
C670 N680 1.359 . S
C671 C668 1.417 . S
C671 C670 1.426 . S
C671 N676 1.350 . S
C672 C669 1.437 . S
C672 C670 1.413 . S
C672 C682 1.391 . S
C673 C668 1.431 . S
C673 C669 1.317 . S
C673 H684 0.930 . S
C674 C668 1.412 . S
C674 C675 1.355 . S
C674 H686 0.930 . S
C675 C674 1.355 . S
C675 C677 1.402 . S
C675 H687 0.930 . S
N676 Gd667 2.661 . S
N676 C671 1.350 . S
N676 C677 1.307 . S
C677 C675 1.402 . S
C677 N676 1.307 . S
C677 H678 0.930 . S
H678 C677 0.930 . S
C679 N680 1.334 . S
C679 C681 1.394 . S
C679 H683 0.930 . S
N680 Gd667 2.601 . S
N680 C670 1.359 . S
N680 C679 1.334 . S
C681 C679 1.394 . S
C681 C682 1.359 . S
C681 H693 0.930 . S
C682 C672 1.391 . S
C682 C681 1.359 . S
C682 H694 0.929 . S
H683 C679 0.930 . S
H684 C673 0.930 . S
H685 C702 0.930 . S
H686 C674 0.930 . S
H687 C675 0.930 . S
H688 C669 0.929 . S
H689 C707 0.930 . S
H690 C698 0.930 . S
H691 C699 0.930 . S
H692 C723 0.929 . S
H693 C681 0.930 . S
H694 C682 0.929 . S
H695 C724 0.930 . S
H696 C705 0.930 . S
N697 Gd666 2.661 . S
N697 C701 1.350 . S
N697 C702 1.307 . S
C698 H690 0.930 . S
C698 C699 1.355 . S
C698 C700 1.412 . S
C699 H691 0.930 . S
C699 C698 1.355 . S
C699 C702 1.402 . S
C700 C698 1.412 . S
C700 C701 1.417 . S
C700 C724 1.431 . S
C701 N697 1.350 . S
C701 C700 1.417 . S
C701 C704 1.426 . S
C702 H685 0.930 . S
C702 N697 1.307 . S
C702 C699 1.402 . S
N703 Gd666 2.601 . S
N703 C704 1.359 . S
N703 C707 1.334 . S
C704 C701 1.426 . S
C704 N703 1.359 . S
C704 C708 1.413 . S
C705 H696 0.930 . S
C705 C706 1.359 . S
C705 C707 1.394 . S
C706 C705 1.359 . S
C706 C708 1.391 . S
C706 H709 0.929 . S
C707 H689 0.930 . S
C707 N703 1.334 . S
C707 C705 1.394 . S
C708 C704 1.413 . S
C708 C706 1.391 . S
C708 C723 1.437 . S
H709 C706 0.929 . S
O710 Gd666 2.545 . S
O710 C725 1.258 . S
O711 Gd666 2.606 . S
O711 Gd667 2.362 . S
O711 C722 1.284 . S
O712 Gd667 2.324 . S
O712 C732 1.254 . S
O713 Gd666 2.429 . S
O713 C732 1.268 . S
O714 Gd666 2.545 . S
O714 C722 1.250 . S
O715 Gd666 2.412 . S
O715 C725 1.252 . S
O716 Gd667 2.545 . S
O716 C734 1.258 . S
O717 Gd666 2.362 . S
O717 Gd667 2.606 . S
O717 C733 1.284 . S
O718 Gd666 2.324 . S
O718 C741 1.254 . S
O719 Gd667 2.429 . S
O719 C741 1.268 . S
O720 Gd667 2.545 . S
O720 C733 1.250 . S
O721 Gd667 2.412 . S
O721 C734 1.252 . S
C722 O711 1.284 . S
C722 O714 1.250 . S
C723 H692 0.929 . S
C723 C708 1.437 . S
C723 C724 1.317 . S
C724 H695 0.930 . S
C724 C700 1.431 . S
C724 C723 1.317 . S
C725 Gd666 2.828 . S
C725 O710 1.258 . S
C725 O715 1.252 . S
C725 C726 1.497 . S
C726 C725 1.497 . S
C726 C727 1.395 . S
C726 C728 1.380 . S
C727 C726 1.395 . S
C727 C730 1.398 . S
C727 H742 0.930 . S
C728 C726 1.380 . S
C728 C729 1.391 . S
C728 H743 0.930 . S
C729 C728 1.391 . S
C729 C731 1.387 . S
C730 C727 1.398 . S
C730 C731 1.380 . S
C730 H744 0.930 . S
C731 C729 1.387 . S
C731 C730 1.380 . S
C731 H745 0.930 . S
C732 O712 1.254 . S
C732 O713 1.268 . S
C733 O717 1.284 . S
C733 O720 1.250 . S
C734 Gd667 2.828 . S
C734 O716 1.258 . S
C734 O721 1.252 . S
C734 C735 1.497 . S
C735 C734 1.497 . S
C735 C736 1.395 . S
C735 C737 1.380 . S
C736 C735 1.395 . S
C736 C739 1.398 . S
C736 H746 0.930 . S
C737 C735 1.380 . S
C737 C738 1.391 . S
C737 H747 0.930 . S
C738 C737 1.391 . S
C738 C740 1.387 . S
C739 C736 1.398 . S
C739 C740 1.380 . S
C739 H748 0.930 . S
C740 C738 1.387 . S
C740 C739 1.380 . S
C740 H749 0.930 . S
C741 O718 1.254 . S
C741 O719 1.268 . S
H742 C727 0.930 . S
H743 C728 0.930 . S
H744 C730 0.930 . S
H745 C731 0.930 . S
H746 C736 0.930 . S
H747 C737 0.930 . S
H748 C739 0.930 . S
H749 C740 0.930 . S
Gd750 N781 2.661 . S
Gd750 N787 2.601 . S
Gd750 O794 2.545 . S
Gd750 O795 2.606 . S
Gd750 O797 2.429 . S
Gd750 O798 2.545 . S
Gd750 O799 2.412 . S
Gd750 O801 2.362 . S
Gd750 O802 2.324 . S
Gd750 C809 2.828 . S
Gd751 N760 2.661 . S
Gd751 N764 2.601 . S
Gd751 O795 2.362 . S
Gd751 O796 2.324 . S
Gd751 O800 2.545 . S
Gd751 O801 2.606 . S
Gd751 O803 2.429 . S
Gd751 O804 2.545 . S
Gd751 O805 2.412 . S
Gd751 C818 2.828 . S
C752 C755 1.417 . S
C752 C757 1.431 . S
C752 C758 1.412 . S
C753 C756 1.437 . S
C753 C757 1.317 . S
C753 H772 0.929 . S
C754 C755 1.426 . S
C754 C756 1.413 . S
C754 N764 1.359 . S
C755 C752 1.417 . S
C755 C754 1.426 . S
C755 N760 1.350 . S
C756 C753 1.437 . S
C756 C754 1.413 . S
C756 C766 1.391 . S
C757 C752 1.431 . S
C757 C753 1.317 . S
C757 H768 0.930 . S
C758 C752 1.412 . S
C758 C759 1.355 . S
C758 H770 0.930 . S
C759 C758 1.355 . S
C759 C761 1.402 . S
C759 H771 0.930 . S
N760 Gd751 2.661 . S
N760 C755 1.350 . S
N760 C761 1.307 . S
C761 C759 1.402 . S
C761 N760 1.307 . S
C761 H762 0.930 . S
H762 C761 0.930 . S
C763 N764 1.334 . S
C763 C765 1.394 . S
C763 H767 0.930 . S
N764 Gd751 2.601 . S
N764 C754 1.359 . S
N764 C763 1.334 . S
C765 C763 1.394 . S
C765 C766 1.359 . S
C765 H777 0.930 . S
C766 C756 1.391 . S
C766 C765 1.359 . S
C766 H778 0.929 . S
H767 C763 0.930 . S
H768 C757 0.930 . S
H769 C786 0.930 . S
H770 C758 0.930 . S
H771 C759 0.930 . S
H772 C753 0.929 . S
H773 C791 0.930 . S
H774 C782 0.930 . S
H775 C783 0.930 . S
H776 C807 0.929 . S
H777 C765 0.930 . S
H778 C766 0.929 . S
H779 C808 0.930 . S
H780 C789 0.930 . S
N781 Gd750 2.661 . S
N781 C785 1.350 . S
N781 C786 1.307 . S
C782 H774 0.930 . S
C782 C783 1.355 . S
C782 C784 1.412 . S
C783 H775 0.930 . S
C783 C782 1.355 . S
C783 C786 1.402 . S
C784 C782 1.412 . S
C784 C785 1.417 . S
C784 C808 1.431 . S
C785 N781 1.350 . S
C785 C784 1.417 . S
C785 C788 1.426 . S
C786 H769 0.930 . S
C786 N781 1.307 . S
C786 C783 1.402 . S
N787 Gd750 2.601 . S
N787 C788 1.359 . S
N787 C791 1.334 . S
C788 C785 1.426 . S
C788 N787 1.359 . S
C788 C792 1.413 . S
C789 H780 0.930 . S
C789 C790 1.359 . S
C789 C791 1.394 . S
C790 C789 1.359 . S
C790 C792 1.391 . S
C790 H793 0.929 . S
C791 H773 0.930 . S
C791 N787 1.334 . S
C791 C789 1.394 . S
C792 C788 1.413 . S
C792 C790 1.391 . S
C792 C807 1.437 . S
H793 C790 0.929 . S
O794 Gd750 2.545 . S
O794 C809 1.258 . S
O795 Gd750 2.606 . S
O795 Gd751 2.362 . S
O795 C806 1.284 . S
O796 Gd751 2.324 . S
O796 C816 1.254 . S
O797 Gd750 2.429 . S
O797 C816 1.268 . S
O798 Gd750 2.545 . S
O798 C806 1.250 . S
O799 Gd750 2.412 . S
O799 C809 1.252 . S
O800 Gd751 2.545 . S
O800 C818 1.258 . S
O801 Gd750 2.362 . S
O801 Gd751 2.606 . S
O801 C817 1.284 . S
O802 Gd750 2.324 . S
O802 C825 1.254 . S
O803 Gd751 2.429 . S
O803 C825 1.268 . S
O804 Gd751 2.545 . S
O804 C817 1.250 . S
O805 Gd751 2.412 . S
O805 C818 1.252 . S
C806 O795 1.284 . S
C806 O798 1.250 . S
C807 H776 0.929 . S
C807 C792 1.437 . S
C807 C808 1.317 . S
C808 H779 0.930 . S
C808 C784 1.431 . S
C808 C807 1.317 . S
C809 Gd750 2.828 . S
C809 O794 1.258 . S
C809 O799 1.252 . S
C809 C810 1.497 . S
C810 C809 1.497 . S
C810 C811 1.395 . S
C810 C812 1.380 . S
C811 C810 1.395 . S
C811 C814 1.398 . S
C811 H826 0.930 . S
C812 C810 1.380 . S
C812 C813 1.391 . S
C812 H827 0.930 . S
C813 C812 1.391 . S
C813 C815 1.387 . S
C814 C811 1.398 . S
C814 C815 1.380 . S
C814 H828 0.930 . S
C815 C813 1.387 . S
C815 C814 1.380 . S
C815 H829 0.930 . S
C816 O796 1.254 . S
C816 O797 1.268 . S
C817 O801 1.284 . S
C817 O804 1.250 . S
C818 Gd751 2.828 . S
C818 O800 1.258 . S
C818 O805 1.252 . S
C818 C819 1.497 . S
C819 C818 1.497 . S
C819 C820 1.395 . S
C819 C821 1.380 . S
C820 C819 1.395 . S
C820 C823 1.398 . S
C820 H830 0.930 . S
C821 C819 1.380 . S
C821 C822 1.391 . S
C821 H831 0.930 . S
C822 C821 1.391 . S
C822 C824 1.387 . S
C823 C820 1.398 . S
C823 C824 1.380 . S
C823 H832 0.930 . S
C824 C822 1.387 . S
C824 C823 1.380 . S
C824 H833 0.930 . S
C825 O802 1.254 . S
C825 O803 1.268 . S
H826 C811 0.930 . S
H827 C812 0.930 . S
H828 C814 0.930 . S
H829 C815 0.930 . S
H830 C820 0.930 . S
H831 C821 0.930 . S
H832 C823 0.930 . S
H833 C824 0.930 . S
Gd834 N865 2.661 . S
Gd834 N871 2.601 . S
Gd834 O878 2.545 . S
Gd834 O879 2.606 . S
Gd834 O881 2.429 . S
Gd834 O882 2.545 . S
Gd834 O883 2.412 . S
Gd834 O885 2.362 . S
Gd834 O886 2.324 . S
Gd834 C893 2.828 . S
Gd835 N844 2.661 . S
Gd835 N848 2.601 . S
Gd835 O879 2.362 . S
Gd835 O880 2.324 . S
Gd835 O884 2.545 . S
Gd835 O885 2.606 . S
Gd835 O887 2.429 . S
Gd835 O888 2.545 . S
Gd835 O889 2.412 . S
Gd835 C902 2.828 . S
C836 C839 1.417 . S
C836 C841 1.431 . S
C836 C842 1.412 . S
C837 C840 1.437 . S
C837 C841 1.317 . S
C837 H856 0.929 . S
C838 C839 1.426 . S
C838 C840 1.413 . S
C838 N848 1.359 . S
C839 C836 1.417 . S
C839 C838 1.426 . S
C839 N844 1.350 . S
C840 C837 1.437 . S
C840 C838 1.413 . S
C840 C850 1.391 . S
C841 C836 1.431 . S
C841 C837 1.317 . S
C841 H852 0.930 . S
C842 C836 1.412 . S
C842 C843 1.355 . S
C842 H854 0.930 . S
C843 C842 1.355 . S
C843 C845 1.402 . S
C843 H855 0.930 . S
N844 Gd835 2.661 . S
N844 C839 1.350 . S
N844 C845 1.307 . S
C845 C843 1.402 . S
C845 N844 1.307 . S
C845 H846 0.930 . S
H846 C845 0.930 . S
C847 N848 1.334 . S
C847 C849 1.394 . S
C847 H851 0.930 . S
N848 Gd835 2.601 . S
N848 C838 1.359 . S
N848 C847 1.334 . S
C849 C847 1.394 . S
C849 C850 1.359 . S
C849 H861 0.930 . S
C850 C840 1.391 . S
C850 C849 1.359 . S
C850 H862 0.929 . S
H851 C847 0.930 . S
H852 C841 0.930 . S
H853 C870 0.930 . S
H854 C842 0.930 . S
H855 C843 0.930 . S
H856 C837 0.929 . S
H857 C875 0.930 . S
H858 C866 0.930 . S
H859 C867 0.930 . S
H860 C891 0.929 . S
H861 C849 0.930 . S
H862 C850 0.929 . S
H863 C892 0.930 . S
H864 C873 0.930 . S
N865 Gd834 2.661 . S
N865 C869 1.350 . S
N865 C870 1.307 . S
C866 H858 0.930 . S
C866 C867 1.355 . S
C866 C868 1.412 . S
C867 H859 0.930 . S
C867 C866 1.355 . S
C867 C870 1.402 . S
C868 C866 1.412 . S
C868 C869 1.417 . S
C868 C892 1.431 . S
C869 N865 1.350 . S
C869 C868 1.417 . S
C869 C872 1.426 . S
C870 H853 0.930 . S
C870 N865 1.307 . S
C870 C867 1.402 . S
N871 Gd834 2.601 . S
N871 C872 1.359 . S
N871 C875 1.334 . S
C872 C869 1.426 . S
C872 N871 1.359 . S
C872 C876 1.413 . S
C873 H864 0.930 . S
C873 C874 1.359 . S
C873 C875 1.394 . S
C874 C873 1.359 . S
C874 C876 1.391 . S
C874 H877 0.929 . S
C875 H857 0.930 . S
C875 N871 1.334 . S
C875 C873 1.394 . S
C876 C872 1.413 . S
C876 C874 1.391 . S
C876 C891 1.437 . S
H877 C874 0.929 . S
O878 Gd834 2.545 . S
O878 C893 1.258 . S
O879 Gd834 2.606 . S
O879 Gd835 2.362 . S
O879 C890 1.284 . S
O880 Gd835 2.324 . S
O880 C900 1.254 . S
O881 Gd834 2.429 . S
O881 C900 1.268 . S
O882 Gd834 2.545 . S
O882 C890 1.250 . S
O883 Gd834 2.412 . S
O883 C893 1.252 . S
O884 Gd835 2.545 . S
O884 C902 1.258 . S
O885 Gd834 2.362 . S
O885 Gd835 2.606 . S
O885 C901 1.284 . S
O886 Gd834 2.324 . S
O886 C909 1.254 . S
O887 Gd835 2.429 . S
O887 C909 1.268 . S
O888 Gd835 2.545 . S
O888 C901 1.250 . S
O889 Gd835 2.412 . S
O889 C902 1.252 . S
C890 O879 1.284 . S
C890 O882 1.250 . S
C891 H860 0.929 . S
C891 C876 1.437 . S
C891 C892 1.317 . S
C892 H863 0.930 . S
C892 C868 1.431 . S
C892 C891 1.317 . S
C893 Gd834 2.828 . S
C893 O878 1.258 . S
C893 O883 1.252 . S
C893 C894 1.497 . S
C894 C893 1.497 . S
C894 C895 1.395 . S
C894 C896 1.380 . S
C895 C894 1.395 . S
C895 C898 1.398 . S
C895 H910 0.930 . S
C896 C894 1.380 . S
C896 C897 1.391 . S
C896 H911 0.930 . S
C897 C896 1.391 . S
C897 C899 1.387 . S
C898 C895 1.398 . S
C898 C899 1.380 . S
C898 H912 0.930 . S
C899 C897 1.387 . S
C899 C898 1.380 . S
C899 H913 0.930 . S
C900 O880 1.254 . S
C900 O881 1.268 . S
C901 O885 1.284 . S
C901 O888 1.250 . S
C902 Gd835 2.828 . S
C902 O884 1.258 . S
C902 O889 1.252 . S
C902 C903 1.497 . S
C903 C902 1.497 . S
C903 C904 1.395 . S
C903 C905 1.380 . S
C904 C903 1.395 . S
C904 C907 1.398 . S
C904 H914 0.930 . S
C905 C903 1.380 . S
C905 C906 1.391 . S
C905 H915 0.930 . S
C906 C905 1.391 . S
C906 C908 1.387 . S
C907 C904 1.398 . S
C907 C908 1.380 . S
C907 H916 0.930 . S
C908 C906 1.387 . S
C908 C907 1.380 . S
C908 H917 0.930 . S
C909 O886 1.254 . S
C909 O887 1.268 . S
H910 C895 0.930 . S
H911 C896 0.930 . S
H912 C898 0.930 . S
H913 C899 0.930 . S
H914 C904 0.930 . S
H915 C905 0.930 . S
H916 C907 0.930 . S
H917 C908 0.930 . S
H918 C924 0.930 . S
H919 C928 0.930 . S
H920 C933 0.929 . S
H921 C931 0.929 . S
H922 C926 0.929 . S
H923 C932 0.929 . S
C924 H918 0.930 . S
C924 C925 1.367 . S
C924 C932 1.378 . S
C925 C924 1.367 . S
C925 C933 1.433 . S
C926 H922 0.929 . S
C926 C928 1.378 . S
C926 C930 1.350 . S
C927 C930 1.463 . S
C927 C932 1.350 . S
C927 N935 1.427 . S
C928 H919 0.930 . S
C928 C926 1.378 . S
C928 C929 1.367 . S
C929 C928 1.367 . S
C929 C931 1.433 . S
C930 C926 1.350 . S
C930 C927 1.463 . S
C930 N934 1.427 . S
C931 H921 0.929 . S
C931 C929 1.433 . S
C931 N934 1.384 . S
C932 H923 0.929 . S
C932 C924 1.378 . S
C932 C927 1.350 . S
C933 H920 0.929 . S
C933 C925 1.433 . S
C933 N935 1.384 . S
N934 C930 1.427 . S
N934 C931 1.384 . S
N935 C927 1.427 . S
N935 C933 1.384 . S
H936 C942 0.930 . S
H937 C946 0.930 . S
H938 C951 0.929 . S
H939 C949 0.929 . S
H940 C944 0.929 . S
H941 C950 0.929 . S
C942 H936 0.930 . S
C942 C943 1.367 . S
C942 C950 1.378 . S
C943 C942 1.367 . S
C943 C951 1.433 . S
C944 H940 0.929 . S
C944 C946 1.378 . S
C944 C948 1.350 . S
C945 C948 1.463 . S
C945 C950 1.350 . S
C945 N953 1.427 . S
C946 H937 0.930 . S
C946 C944 1.378 . S
C946 C947 1.367 . S
C947 C946 1.367 . S
C947 C949 1.433 . S
C948 C944 1.350 . S
C948 C945 1.463 . S
C948 N952 1.427 . S
C949 H939 0.929 . S
C949 C947 1.433 . S
C949 N952 1.384 . S
C950 H941 0.929 . S
C950 C942 1.378 . S
C950 C945 1.350 . S
C951 H938 0.929 . S
C951 C943 1.433 . S
C951 N953 1.384 . S
N952 C948 1.427 . S
N952 C949 1.384 . S
N953 C945 1.427 . S
N953 C951 1.384 . S
H954 C960 0.930 . S
H955 C964 0.930 . S
H956 C969 0.929 . S
H957 C967 0.929 . S
H958 C962 0.929 . S
H959 C968 0.929 . S
C960 H954 0.930 . S
C960 C961 1.367 . S
C960 C968 1.378 . S
C961 C960 1.367 . S
C961 C969 1.433 . S
C962 H958 0.929 . S
C962 C964 1.378 . S
C962 C966 1.350 . S
C963 C966 1.463 . S
C963 C968 1.350 . S
C963 N971 1.427 . S
C964 H955 0.930 . S
C964 C962 1.378 . S
C964 C965 1.367 . S
C965 C964 1.367 . S
C965 C967 1.433 . S
C966 C962 1.350 . S
C966 C963 1.463 . S
C966 N970 1.427 . S
C967 H957 0.929 . S
C967 C965 1.433 . S
C967 N970 1.384 . S
C968 H959 0.929 . S
C968 C960 1.378 . S
C968 C963 1.350 . S
C969 H956 0.929 . S
C969 C961 1.433 . S
C969 N971 1.384 . S
N970 C966 1.427 . S
N970 C967 1.384 . S
N971 C963 1.427 . S
N971 C969 1.384 . S
H972 C978 0.930 . S
H973 C982 0.930 . S
H974 C987 0.929 . S
H975 C985 0.929 1_554 S
H976 C980 0.929 . S
H977 C986 0.929 . S
C978 H972 0.930 . S
C978 C979 1.367 . S
C978 C986 1.378 . S
C979 C978 1.367 . S
C979 C987 1.433 . S
C980 H976 0.929 . S
C980 C982 1.378 . S
C980 C984 1.350 . S
C981 C984 1.463 . S
C981 C986 1.350 . S
C981 N989 1.427 . S
C982 H973 0.930 . S
C982 C980 1.378 . S
C982 C983 1.367 . S
C983 C982 1.367 . S
C983 C985 1.433 . S
C984 C980 1.350 . S
C984 C981 1.463 . S
C984 N988 1.427 . S
C985 H975 0.929 1_556 S
C985 C983 1.433 . S
C985 N988 1.384 . S
C986 H977 0.929 . S
C986 C978 1.378 . S
C986 C981 1.350 . S
C987 H974 0.929 . S
C987 C979 1.433 . S
C987 N989 1.384 . S
N988 C984 1.427 . S
N988 C985 1.384 . S
N989 C981 1.427 . S
N989 C987 1.384 . S
H990 C996 0.930 . S
H991 C1000 0.930 . S
H992 C1005 0.929 . S
H993 C1003 0.929 . S
H994 C998 0.929 . S
H995 C1004 0.929 . S
C996 H990 0.930 . S
C996 C997 1.367 . S
C996 C1004 1.378 . S
C997 C996 1.367 . S
C997 C1005 1.433 . S
C998 H994 0.929 . S
C998 C1000 1.378 . S
C998 C1002 1.350 . S
C999 C1002 1.463 . S
C999 C1004 1.350 . S
C999 N1007 1.427 . S
C1000 H991 0.930 . S
C1000 C998 1.378 . S
C1000 C1001 1.367 . S
C1001 C1000 1.367 . S
C1001 C1003 1.433 . S
C1002 C998 1.350 . S
C1002 C999 1.463 . S
C1002 N1006 1.427 . S
C1003 H993 0.929 . S
C1003 C1001 1.433 . S
C1003 N1006 1.384 . S
C1004 H995 0.929 . S
C1004 C996 1.378 . S
C1004 C999 1.350 . S
C1005 H992 0.929 . S
C1005 C997 1.433 . S
C1005 N1007 1.384 . S
N1006 C1002 1.427 . S
N1006 C1003 1.384 . S
N1007 C999 1.427 . S
N1007 C1005 1.384 . S
H1008 C1014 0.930 . S
H1009 C1018 0.930 1_554 S
H1010 C1023 0.929 . S
H1011 C1021 0.929 . S
H1012 C1016 0.929 . S
H1013 C1022 0.929 . S
C1014 H1008 0.930 . S
C1014 C1015 1.367 . S
C1014 C1022 1.378 . S
C1015 C1014 1.367 . S
C1015 C1023 1.433 . S
C1016 H1012 0.929 . S
C1016 C1018 1.378 . S
C1016 C1020 1.350 . S
C1017 C1020 1.463 . S
C1017 C1022 1.350 . S
C1017 N1025 1.427 . S
C1018 H1009 0.930 1_556 S
C1018 C1016 1.378 . S
C1018 C1019 1.367 . S
C1019 C1018 1.367 . S
C1019 C1021 1.433 . S
C1020 C1016 1.350 . S
C1020 C1017 1.463 . S
C1020 N1024 1.427 . S
C1021 H1011 0.929 . S
C1021 C1019 1.433 . S
C1021 N1024 1.384 . S
C1022 H1013 0.929 . S
C1022 C1014 1.378 . S
C1022 C1017 1.350 . S
C1023 H1010 0.929 . S
C1023 C1015 1.433 . S
C1023 N1025 1.384 . S
N1024 C1020 1.427 . S
N1024 C1021 1.384 . S
N1025 C1017 1.427 . S
N1025 C1023 1.384 . S
H1026 C1032 0.930 . S
H1027 C1036 0.930 . S
H1028 C1041 0.929 . S
H1029 C1039 0.929 . S
H1030 C1034 0.929 . S
H1031 C1040 0.929 . S
C1032 H1026 0.930 . S
C1032 C1033 1.367 . S
C1032 C1040 1.378 . S
C1033 C1032 1.367 . S
C1033 C1041 1.433 . S
C1034 H1030 0.929 . S
C1034 C1036 1.378 . S
C1034 C1038 1.350 . S
C1035 C1038 1.463 . S
C1035 C1040 1.350 . S
C1035 N1043 1.427 . S
C1036 H1027 0.930 . S
C1036 C1034 1.378 . S
C1036 C1037 1.367 . S
C1037 C1036 1.367 . S
C1037 C1039 1.433 . S
C1038 C1034 1.350 . S
C1038 C1035 1.463 . S
C1038 N1042 1.427 . S
C1039 H1029 0.929 . S
C1039 C1037 1.433 . S
C1039 N1042 1.384 . S
C1040 H1031 0.929 . S
C1040 C1032 1.378 . S
C1040 C1035 1.350 . S
C1041 H1028 0.929 . S
C1041 C1033 1.433 . S
C1041 N1043 1.384 . S
N1042 C1038 1.427 . S
N1042 C1039 1.384 . S
N1043 C1035 1.427 . S
N1043 C1041 1.384 . S
H1044 C1050 0.930 . S
H1045 C1054 0.930 . S
H1046 C1059 0.929 . S
H1047 C1057 0.929 . S
H1048 C1052 0.929 . S
H1049 C1058 0.929 . S
C1050 H1044 0.930 . S
C1050 C1051 1.367 . S
C1050 C1058 1.378 . S
C1051 C1050 1.367 . S
C1051 C1059 1.433 . S
C1052 H1048 0.929 . S
C1052 C1054 1.378 . S
C1052 C1056 1.350 . S
C1053 C1056 1.463 . S
C1053 C1058 1.350 . S
C1053 N1061 1.427 . S
C1054 H1045 0.930 . S
C1054 C1052 1.378 . S
C1054 C1055 1.367 . S
C1055 C1054 1.367 . S
C1055 C1057 1.433 . S
C1056 C1052 1.350 . S
C1056 C1053 1.463 . S
C1056 N1060 1.427 . S
C1057 H1047 0.929 . S
C1057 C1055 1.433 . S
C1057 N1060 1.384 . S
C1058 H1049 0.929 . S
C1058 C1050 1.378 . S
C1058 C1053 1.350 . S
C1059 H1046 0.929 . S
C1059 C1051 1.433 . S
C1059 N1061 1.384 . S
N1060 C1056 1.427 . S
N1060 C1057 1.384 . S
N1061 C1053 1.427 . S
N1061 C1059 1.384 . S
H1062 C1068 0.930 . S
H1063 C1072 0.930 . S
H1064 C1077 0.929 . S
H1065 C1075 0.929 1_554 S
H1066 C1070 0.929 . S
H1067 C1076 0.929 . S
C1068 H1062 0.930 . S
C1068 C1069 1.367 . S
C1068 C1076 1.378 . S
C1069 C1068 1.367 . S
C1069 C1077 1.433 . S
C1070 H1066 0.929 . S
C1070 C1072 1.378 . S
C1070 C1074 1.350 . S
C1071 C1074 1.463 . S
C1071 C1076 1.350 . S
C1071 N1079 1.427 . S
C1072 H1063 0.930 . S
C1072 C1070 1.378 . S
C1072 C1073 1.367 . S
C1073 C1072 1.367 . S
C1073 C1075 1.433 . S
C1074 C1070 1.350 . S
C1074 C1071 1.463 . S
C1074 N1078 1.427 . S
C1075 H1065 0.929 1_556 S
C1075 C1073 1.433 . S
C1075 N1078 1.384 . S
C1076 H1067 0.929 . S
C1076 C1068 1.378 . S
C1076 C1071 1.350 . S
C1077 H1064 0.929 . S
C1077 C1069 1.433 . S
C1077 N1079 1.384 . S
N1078 C1074 1.427 . S
N1078 C1075 1.384 . S
N1079 C1071 1.427 . S
N1079 C1077 1.384 . S
H1080 C1086 0.930 . S
H1081 C1090 0.930 . S
H1082 C1095 0.929 . S
H1083 C1093 0.929 . S
H1084 C1088 0.929 . S
H1085 C1094 0.929 . S
C1086 H1080 0.930 . S
C1086 C1087 1.367 . S
C1086 C1094 1.378 . S
C1087 C1086 1.367 . S
C1087 C1095 1.433 . S
C1088 H1084 0.929 . S
C1088 C1090 1.378 . S
C1088 C1092 1.350 . S
C1089 C1092 1.463 . S
C1089 C1094 1.350 . S
C1089 N1097 1.427 . S
C1090 H1081 0.930 . S
C1090 C1088 1.378 . S
C1090 C1091 1.367 . S
C1091 C1090 1.367 . S
C1091 C1093 1.433 . S
C1092 C1088 1.350 . S
C1092 C1089 1.463 . S
C1092 N1096 1.427 . S
C1093 H1083 0.929 . S
C1093 C1091 1.433 . S
C1093 N1096 1.384 . S
C1094 H1085 0.929 . S
C1094 C1086 1.378 . S
C1094 C1089 1.350 . S
C1095 H1082 0.929 . S
C1095 C1087 1.433 . S
C1095 N1097 1.384 . S
N1096 C1092 1.427 . S
N1096 C1093 1.384 . S
N1097 C1089 1.427 . S
N1097 C1095 1.384 . S
H1098 C1104 0.930 . S
H1099 C1108 0.930 . S
H1100 C1113 0.929 . S
H1101 C1111 0.929 . S
H1102 C1106 0.929 . S
H1103 C1112 0.929 . S
C1104 H1098 0.930 . S
C1104 C1105 1.367 . S
C1104 C1112 1.378 . S
C1105 C1104 1.367 . S
C1105 C1113 1.433 . S
C1106 H1102 0.929 . S
C1106 C1108 1.378 . S
C1106 C1110 1.350 . S
C1107 C1110 1.463 . S
C1107 C1112 1.350 . S
C1107 N1115 1.427 . S
C1108 H1099 0.930 . S
C1108 C1106 1.378 . S
C1108 C1109 1.367 . S
C1109 C1108 1.367 . S
C1109 C1111 1.433 . S
C1110 C1106 1.350 . S
C1110 C1107 1.463 . S
C1110 N1114 1.427 . S
C1111 H1101 0.929 . S
C1111 C1109 1.433 . S
C1111 N1114 1.384 . S
C1112 H1103 0.929 . S
C1112 C1104 1.378 . S
C1112 C1107 1.350 . S
C1113 H1100 0.929 . S
C1113 C1105 1.433 . S
C1113 N1115 1.384 . S
N1114 C1110 1.427 . S
N1114 C1111 1.384 . S
N1115 C1107 1.427 . S
N1115 C1113 1.384 . S
H1116 C1122 0.930 . S
H1117 C1126 0.930 . S
H1118 C1131 0.929 . S
H1119 C1129 0.929 . S
H1120 C1124 0.929 . S
H1121 C1130 0.929 . S
C1122 H1116 0.930 . S
C1122 C1123 1.367 . S
C1122 C1130 1.378 . S
C1123 C1122 1.367 . S
C1123 C1131 1.433 . S
C1124 H1120 0.929 . S
C1124 C1126 1.378 . S
C1124 C1128 1.350 . S
C1125 C1128 1.463 . S
C1125 C1130 1.350 . S
C1125 N1133 1.427 . S
C1126 H1117 0.930 . S
C1126 C1124 1.378 . S
C1126 C1127 1.367 . S
C1127 C1126 1.367 . S
C1127 C1129 1.433 . S
C1128 C1124 1.350 . S
C1128 C1125 1.463 . S
C1128 N1132 1.427 . S
C1129 H1119 0.929 . S
C1129 C1127 1.433 . S
C1129 N1132 1.384 . S
C1130 H1121 0.929 . S
C1130 C1122 1.378 . S
C1130 C1125 1.350 . S
C1131 H1118 0.929 . S
C1131 C1123 1.433 . S
C1131 N1133 1.384 . S
N1132 C1128 1.427 . S
N1132 C1129 1.384 . S
N1133 C1125 1.427 . S
N1133 C1131 1.384 . S
H1134 C1140 0.930 . S
H1135 C1144 0.930 . S
H1136 C1149 0.929 . S
H1137 C1147 0.929 . S
H1138 C1142 0.929 . S
H1139 C1148 0.929 1_455 S
C1140 H1134 0.930 . S
C1140 C1141 1.367 . S
C1140 C1148 1.378 . S
C1141 C1140 1.367 . S
C1141 C1149 1.433 . S
C1142 H1138 0.929 . S
C1142 C1144 1.378 . S
C1142 C1146 1.350 . S
C1143 C1146 1.463 1_655 S
C1143 C1148 1.350 . S
C1143 N1151 1.427 . S
C1144 H1135 0.930 . S
C1144 C1142 1.378 . S
C1144 C1145 1.367 . S
C1145 C1144 1.367 . S
C1145 C1147 1.433 . S
C1146 C1142 1.350 . S
C1146 C1143 1.463 1_455 S
C1146 N1150 1.427 . S
C1147 H1137 0.929 . S
C1147 C1145 1.433 . S
C1147 N1150 1.384 . S
C1148 H1139 0.929 1_655 S
C1148 C1140 1.378 . S
C1148 C1143 1.350 . S
C1149 H1136 0.929 . S
C1149 C1141 1.433 . S
C1149 N1151 1.384 . S
N1150 C1146 1.427 . S
N1150 C1147 1.384 . S
N1151 C1143 1.427 . S
N1151 C1149 1.384 . S
H1152 C1158 0.930 . S
H1153 C1162 0.930 . S
H1154 C1167 0.929 . S
H1155 C1165 0.929 . S
H1156 C1160 0.929 . S
H1157 C1166 0.929 . S
C1158 H1152 0.930 . S
C1158 C1159 1.367 . S
C1158 C1166 1.378 . S
C1159 C1158 1.367 . S
C1159 C1167 1.433 . S
C1160 H1156 0.929 . S
C1160 C1162 1.378 . S
C1160 C1164 1.350 . S
C1161 C1164 1.463 . S
C1161 C1166 1.350 . S
C1161 N1169 1.427 . S
C1162 H1153 0.930 . S
C1162 C1160 1.378 . S
C1162 C1163 1.367 . S
C1163 C1162 1.367 . S
C1163 C1165 1.433 . S
C1164 C1160 1.350 . S
C1164 C1161 1.463 . S
C1164 N1168 1.427 . S
C1165 H1155 0.929 . S
C1165 C1163 1.433 . S
C1165 N1168 1.384 . S
C1166 H1157 0.929 . S
C1166 C1158 1.378 . S
C1166 C1161 1.350 . S
C1167 H1154 0.929 . S
C1167 C1159 1.433 . S
C1167 N1169 1.384 . S
N1168 C1164 1.427 . S
N1168 C1165 1.384 . S
N1169 C1161 1.427 . S
N1169 C1167 1.384 . S
H1170 C1176 0.930 . S
H1171 C1180 0.930 . S
H1172 C1185 0.929 . S
H1173 C1183 0.929 . S
H1174 C1178 0.929 . S
H1175 C1184 0.929 1_565 S
C1176 H1170 0.930 . S
C1176 C1177 1.367 . S
C1176 C1184 1.378 . S
C1177 C1176 1.367 . S
C1177 C1185 1.433 . S
C1178 H1174 0.929 . S
C1178 C1180 1.378 . S
C1178 C1182 1.350 . S
C1179 C1182 1.463 1_545 S
C1179 C1184 1.350 . S
C1179 N1187 1.427 . S
C1180 H1171 0.930 . S
C1180 C1178 1.378 . S
C1180 C1181 1.367 . S
C1181 C1180 1.367 . S
C1181 C1183 1.433 . S
C1182 C1178 1.350 . S
C1182 C1179 1.463 1_565 S
C1182 N1186 1.427 . S
C1183 H1173 0.929 . S
C1183 C1181 1.433 . S
C1183 N1186 1.384 . S
C1184 H1175 0.929 1_545 S
C1184 C1176 1.378 . S
C1184 C1179 1.350 . S
C1185 H1172 0.929 . S
C1185 C1177 1.433 . S
C1185 N1187 1.384 . S
N1186 C1182 1.427 . S
N1186 C1183 1.384 . S
N1187 C1179 1.427 . S
N1187 C1185 1.384 . S
H1188 C1194 0.930 . S
H1189 C1198 0.930 . S
H1190 C1203 0.929 . S
H1191 C1201 0.929 . S
H1192 C1196 0.929 . S
H1193 C1202 0.929 . S
C1194 H1188 0.930 . S
C1194 C1195 1.367 . S
C1194 C1202 1.378 . S
C1195 C1194 1.367 . S
C1195 C1203 1.433 . S
C1196 H1192 0.929 . S
C1196 C1198 1.378 . S
C1196 C1200 1.350 . S
C1197 C1200 1.463 . S
C1197 C1202 1.350 . S
C1197 N1205 1.427 . S
C1198 H1189 0.930 . S
C1198 C1196 1.378 . S
C1198 C1199 1.367 . S
C1199 C1198 1.367 . S
C1199 C1201 1.433 . S
C1200 C1196 1.350 . S
C1200 C1197 1.463 . S
C1200 N1204 1.427 . S
C1201 H1191 0.929 . S
C1201 C1199 1.433 . S
C1201 N1204 1.384 . S
C1202 H1193 0.929 . S
C1202 C1194 1.378 . S
C1202 C1197 1.350 . S
C1203 H1190 0.929 . S
C1203 C1195 1.433 . S
C1203 N1205 1.384 . S
N1204 C1200 1.427 . S
N1204 C1201 1.384 . S
N1205 C1197 1.427 . S
N1205 C1203 1.384 . S
H1206 C1212 0.930 . S
H1207 C1216 0.930 . S
H1208 C1221 0.929 . S
H1209 C1219 0.929 . S
H1210 C1214 0.929 . S
H1211 C1220 0.929 . S
C1212 H1206 0.930 . S
C1212 C1213 1.367 . S
C1212 C1220 1.378 . S
C1213 C1212 1.367 . S
C1213 C1221 1.433 . S
C1214 H1210 0.929 . S
C1214 C1216 1.378 . S
C1214 C1218 1.350 . S
C1215 C1218 1.463 . S
C1215 C1220 1.350 . S
C1215 N1223 1.427 . S
C1216 H1207 0.930 . S
C1216 C1214 1.378 . S
C1216 C1217 1.367 . S
C1217 C1216 1.367 . S
C1217 C1219 1.433 . S
C1218 C1214 1.350 . S
C1218 C1215 1.463 . S
C1218 N1222 1.427 . S
C1219 H1209 0.929 . S
C1219 C1217 1.433 . S
C1219 N1222 1.384 . S
C1220 H1211 0.929 . S
C1220 C1212 1.378 . S
C1220 C1215 1.350 . S
C1221 H1208 0.929 . S
C1221 C1213 1.433 . S
C1221 N1223 1.384 . S
N1222 C1218 1.427 . S
N1222 C1219 1.384 . S
N1223 C1215 1.427 . S
N1223 C1221 1.384 . S
H1224 C1230 0.930 . S
H1225 C1234 0.930 . S
H1226 C1239 0.929 . S
H1227 C1237 0.929 . S
H1228 C1232 0.929 . S
H1229 C1238 0.929 . S
C1230 H1224 0.930 . S
C1230 C1231 1.367 . S
C1230 C1238 1.378 . S
C1231 C1230 1.367 . S
C1231 C1239 1.433 . S
C1232 H1228 0.929 . S
C1232 C1234 1.378 . S
C1232 C1236 1.350 . S
C1233 C1236 1.463 . S
C1233 C1238 1.350 . S
C1233 N1241 1.427 . S
C1234 H1225 0.930 . S
C1234 C1232 1.378 . S
C1234 C1235 1.367 . S
C1235 C1234 1.367 . S
C1235 C1237 1.433 . S
C1236 C1232 1.350 . S
C1236 C1233 1.463 . S
C1236 N1240 1.427 . S
C1237 H1227 0.929 . S
C1237 C1235 1.433 . S
C1237 N1240 1.384 . S
C1238 H1229 0.929 . S
C1238 C1230 1.378 . S
C1238 C1233 1.350 . S
C1239 H1226 0.929 . S
C1239 C1231 1.433 . S
C1239 N1241 1.384 . S
N1240 C1236 1.427 . S
N1240 C1237 1.384 . S
N1241 C1233 1.427 . S
N1241 C1239 1.384 . S
H1242 C1248 0.930 . S
H1243 C1252 0.930 . S
H1244 C1257 0.929 . S
H1245 C1255 0.929 . S
H1246 C1250 0.929 . S
H1247 C1256 0.929 . S
C1248 H1242 0.930 . S
C1248 C1249 1.367 . S
C1248 C1256 1.378 . S
C1249 C1248 1.367 . S
C1249 C1257 1.433 . S
C1250 H1246 0.929 . S
C1250 C1252 1.378 . S
C1250 C1254 1.350 . S
C1251 C1254 1.463 . S
C1251 C1256 1.350 . S
C1251 N1259 1.427 . S
C1252 H1243 0.930 . S
C1252 C1250 1.378 . S
C1252 C1253 1.367 . S
C1253 C1252 1.367 . S
C1253 C1255 1.433 . S
C1254 C1250 1.350 . S
C1254 C1251 1.463 . S
C1254 N1258 1.427 . S
C1255 H1245 0.929 . S
C1255 C1253 1.433 . S
C1255 N1258 1.384 . S
C1256 H1247 0.929 . S
C1256 C1248 1.378 . S
C1256 C1251 1.350 . S
C1257 H1244 0.929 . S
C1257 C1249 1.433 . S
C1257 N1259 1.384 . S
N1258 C1254 1.427 . S
N1258 C1255 1.384 . S
N1259 C1251 1.427 . S
N1259 C1257 1.384 . S
H1260 C1266 0.930 . S
H1261 C1270 0.930 . S
H1262 C1275 0.929 . S
H1263 C1273 0.929 . S
H1264 C1268 0.929 . S
H1265 C1274 0.929 . S
C1266 H1260 0.930 . S
C1266 C1267 1.367 . S
C1266 C1274 1.378 . S
C1267 C1266 1.367 . S
C1267 C1275 1.433 . S
C1268 H1264 0.929 . S
C1268 C1270 1.378 . S
C1268 C1272 1.350 . S
C1269 C1272 1.463 . S
C1269 C1274 1.350 . S
C1269 N1277 1.427 . S
C1270 H1261 0.930 . S
C1270 C1268 1.378 . S
C1270 C1271 1.367 . S
C1271 C1270 1.367 . S
C1271 C1273 1.433 . S
C1272 C1268 1.350 . S
C1272 C1269 1.463 . S
C1272 N1276 1.427 . S
C1273 H1263 0.929 . S
C1273 C1271 1.433 . S
C1273 N1276 1.384 . S
C1274 H1265 0.929 . S
C1274 C1266 1.378 . S
C1274 C1269 1.350 . S
C1275 H1262 0.929 . S
C1275 C1267 1.433 . S
C1275 N1277 1.384 . S
N1276 C1272 1.427 . S
N1276 C1273 1.384 . S
N1277 C1269 1.427 . S
N1277 C1275 1.384 . S
H1278 C1284 0.930 . S
H1279 C1288 0.930 . S
H1280 C1293 0.929 . S
H1281 C1291 0.929 . S
H1282 C1286 0.929 . S
H1283 C1292 0.929 . S
C1284 H1278 0.930 . S
C1284 C1285 1.367 . S
C1284 C1292 1.378 . S
C1285 C1284 1.367 . S
C1285 C1293 1.433 . S
C1286 H1282 0.929 . S
C1286 C1288 1.378 . S
C1286 C1290 1.350 . S
C1287 C1290 1.463 . S
C1287 C1292 1.350 . S
C1287 N1295 1.427 . S
C1288 H1279 0.930 . S
C1288 C1286 1.378 . S
C1288 C1289 1.367 . S
C1289 C1288 1.367 . S
C1289 C1291 1.433 . S
C1290 C1286 1.350 . S
C1290 C1287 1.463 . S
C1290 N1294 1.427 . S
C1291 H1281 0.929 . S
C1291 C1289 1.433 . S
C1291 N1294 1.384 . S
C1292 H1283 0.929 . S
C1292 C1284 1.378 . S
C1292 C1287 1.350 . S
C1293 H1280 0.929 . S
C1293 C1285 1.433 . S
C1293 N1295 1.384 . S
N1294 C1290 1.427 . S
N1294 C1291 1.384 . S
N1295 C1287 1.427 . S
N1295 C1293 1.384 . S
H1296 C1302 0.930 . S
H1297 C1306 0.930 . S
H1298 C1311 0.929 . S
H1299 C1309 0.929 . S
H1300 C1304 0.929 . S
H1301 C1310 0.929 . S
C1302 H1296 0.930 . S
C1302 C1303 1.367 . S
C1302 C1310 1.378 . S
C1303 C1302 1.367 . S
C1303 C1311 1.433 . S
C1304 H1300 0.929 . S
C1304 C1306 1.378 . S
C1304 C1308 1.350 . S
C1305 C1308 1.463 1_545 S
C1305 C1310 1.350 . S
C1305 N1313 1.427 . S
C1306 H1297 0.930 . S
C1306 C1304 1.378 . S
C1306 C1307 1.367 . S
C1307 C1306 1.367 . S
C1307 C1309 1.433 . S
C1308 C1304 1.350 . S
C1308 C1305 1.463 1_565 S
C1308 N1312 1.427 . S
C1309 H1299 0.929 . S
C1309 C1307 1.433 . S
C1309 N1312 1.384 . S
C1310 H1301 0.929 . S
C1310 C1302 1.378 . S
C1310 C1305 1.350 . S
C1311 H1298 0.929 . S
C1311 C1303 1.433 . S
C1311 N1313 1.384 . S
N1312 C1308 1.427 . S
N1312 C1309 1.384 . S
N1313 C1305 1.427 . S
N1313 C1311 1.384 . S
H1314 C1320 0.930 . S
H1315 C1324 0.930 . S
H1316 C1329 0.929 . S
H1317 C1327 0.929 . S
H1318 C1322 0.929 . S
H1319 C1328 0.942 . S
C1320 H1314 0.930 . S
C1320 C1321 1.367 . S
C1320 C1328 1.357 1_655 S
C1321 C1320 1.367 . S
C1321 C1329 1.433 . S
C1322 H1318 0.929 . S
C1322 C1324 1.378 . S
C1322 C1326 1.350 . S
C1323 C1326 1.488 . S
C1323 C1328 1.348 . S
C1323 N1331 1.412 1_455 S
C1324 H1315 0.930 . S
C1324 C1322 1.378 . S
C1324 C1325 1.367 . S
C1325 C1324 1.367 . S
C1325 C1327 1.433 . S
C1326 C1322 1.350 . S
C1326 C1323 1.488 . S
C1326 N1330 1.427 . S
C1327 H1317 0.929 . S
C1327 C1325 1.433 . S
C1327 N1330 1.384 . S
C1328 H1319 0.942 . S
C1328 C1320 1.357 1_455 S
C1328 C1323 1.348 . S
C1329 H1316 0.929 . S
C1329 C1321 1.433 . S
C1329 N1331 1.384 . S
N1330 C1326 1.427 . S
N1330 C1327 1.384 . S
N1331 C1323 1.412 1_655 S
N1331 C1329 1.384 . S
H1332 C1338 0.930 . S
H1333 C1342 0.930 . S
H1334 C1347 0.929 . S
H1335 C1345 0.929 . S
H1336 C1340 0.929 . S
H1337 C1346 0.929 . S
C1338 H1332 0.930 . S
C1338 C1339 1.367 . S
C1338 C1346 1.378 . S
C1339 C1338 1.367 . S
C1339 C1347 1.433 . S
C1340 H1336 0.929 . S
C1340 C1342 1.378 . S
C1340 C1344 1.350 . S
C1341 C1344 1.463 . S
C1341 C1346 1.350 . S
C1341 N1349 1.427 . S
C1342 H1333 0.930 . S
C1342 C1340 1.378 . S
C1342 C1343 1.367 . S
C1343 C1342 1.367 . S
C1343 C1345 1.433 . S
C1344 C1340 1.350 . S
C1344 C1341 1.463 . S
C1344 N1348 1.427 . S
C1345 H1335 0.929 . S
C1345 C1343 1.433 . S
C1345 N1348 1.384 . S
C1346 H1337 0.929 . S
C1346 C1338 1.378 . S
C1346 C1341 1.350 . S
C1347 H1334 0.929 . S
C1347 C1339 1.433 . S
C1347 N1349 1.384 . S
N1348 C1344 1.427 . S
N1348 C1345 1.384 . S
N1349 C1341 1.427 . S
N1349 C1347 1.384 . S
H1350 C1356 0.930 . S
H1351 C1360 0.930 . S
H1352 C1365 0.929 . S
H1353 C1363 0.929 . S
H1354 C1358 0.929 . S
H1355 C1364 0.929 . S
C1356 H1350 0.930 . S
C1356 C1357 1.367 . S
C1356 C1364 1.378 . S
C1357 C1356 1.367 . S
C1357 C1365 1.433 . S
C1358 H1354 0.929 . S
C1358 C1360 1.378 . S
C1358 C1362 1.350 . S
C1359 C1362 1.463 . S
C1359 C1364 1.350 . S
C1359 N1367 1.427 . S
C1360 H1351 0.930 . S
C1360 C1358 1.378 . S
C1360 C1361 1.367 . S
C1361 C1360 1.367 . S
C1361 C1363 1.433 . S
C1362 C1358 1.350 . S
C1362 C1359 1.463 . S
C1362 N1366 1.427 . S
C1363 H1353 0.929 . S
C1363 C1361 1.433 . S
C1363 N1366 1.384 . S
C1364 H1355 0.929 . S
C1364 C1356 1.378 . S
C1364 C1359 1.350 . S
C1365 H1352 0.929 . S
C1365 C1357 1.433 . S
C1365 N1367 1.384 . S
N1366 C1362 1.427 . S
N1366 C1363 1.384 . S
N1367 C1359 1.427 . S
N1367 C1365 1.384 . S
H1368 C1374 0.930 . S
H1369 C1378 0.930 . S
H1370 C1383 0.929 . S
H1371 C1381 0.929 . S
H1372 C1376 0.929 . S
H1373 C1382 0.929 . S
C1374 H1368 0.930 . S
C1374 C1375 1.367 . S
C1374 C1382 1.378 . S
C1375 C1374 1.367 . S
C1375 C1383 1.433 . S
C1376 H1372 0.929 . S
C1376 C1378 1.378 . S
C1376 C1380 1.350 . S
C1377 C1380 1.463 . S
C1377 C1382 1.350 . S
C1377 N1385 1.427 . S
C1378 H1369 0.930 . S
C1378 C1376 1.378 . S
C1378 C1379 1.367 . S
C1379 C1378 1.367 . S
C1379 C1381 1.433 . S
C1380 C1376 1.350 . S
C1380 C1377 1.463 . S
C1380 N1384 1.427 . S
C1381 H1371 0.929 . S
C1381 C1379 1.433 . S
C1381 N1384 1.384 . S
C1382 H1373 0.929 . S
C1382 C1374 1.378 . S
C1382 C1377 1.350 . S
C1383 H1370 0.929 . S
C1383 C1375 1.433 . S
C1383 N1385 1.384 . S
N1384 C1380 1.427 . S
N1384 C1381 1.384 . S
N1385 C1377 1.427 . S
N1385 C1383 1.384 . S
H1386 C1392 0.930 . S
H1387 C1396 0.930 . S
H1388 C1401 0.929 . S
H1389 C1399 0.929 . S
H1390 C1394 0.929 . S
H1391 C1400 0.929 . S
C1392 H1386 0.930 . S
C1392 C1393 1.367 . S
C1392 C1400 1.378 . S
C1393 C1392 1.367 . S
C1393 C1401 1.433 . S
C1394 H1390 0.929 . S
C1394 C1396 1.378 . S
C1394 C1398 1.350 . S
C1395 C1398 1.463 . S
C1395 C1400 1.350 . S
C1395 N1403 1.427 . S
C1396 H1387 0.930 . S
C1396 C1394 1.378 . S
C1396 C1397 1.367 . S
C1397 C1396 1.367 . S
C1397 C1399 1.433 . S
C1398 C1394 1.350 . S
C1398 C1395 1.463 . S
C1398 N1402 1.427 . S
C1399 H1389 0.929 . S
C1399 C1397 1.433 . S
C1399 N1402 1.384 . S
C1400 H1391 0.929 . S
C1400 C1392 1.378 . S
C1400 C1395 1.350 . S
C1401 H1388 0.929 . S
C1401 C1393 1.433 . S
C1401 N1403 1.384 . S
N1402 C1398 1.427 . S
N1402 C1399 1.384 . S
N1403 C1395 1.427 . S
N1403 C1401 1.384 . S
H1404 C1410 0.930 . S
H1405 C1414 0.930 . S
H1406 C1419 0.929 . S
H1407 C1417 0.929 . S
H1408 C1412 0.929 . S
H1409 C1418 0.929 1_545 S
C1410 H1404 0.930 . S
C1410 C1411 1.367 . S
C1410 C1418 1.378 . S
C1411 C1410 1.367 . S
C1411 C1419 1.433 . S
C1412 H1408 0.929 . S
C1412 C1414 1.378 . S
C1412 C1416 1.350 . S
C1413 C1416 1.463 1_565 S
C1413 C1418 1.350 . S
C1413 N1421 1.427 . S
C1414 H1405 0.930 . S
C1414 C1412 1.378 . S
C1414 C1415 1.367 . S
C1415 C1414 1.367 . S
C1415 C1417 1.433 . S
C1416 C1412 1.350 . S
C1416 C1413 1.463 1_545 S
C1416 N1420 1.427 . S
C1417 H1407 0.929 . S
C1417 C1415 1.433 . S
C1417 N1420 1.384 . S
C1418 H1409 0.929 1_565 S
C1418 C1410 1.378 . S
C1418 C1413 1.350 . S
C1419 H1406 0.929 . S
C1419 C1411 1.433 . S
C1419 N1421 1.384 . S
N1420 C1416 1.427 . S
N1420 C1417 1.384 . S
N1421 C1413 1.427 . S
N1421 C1419 1.384 . S
H1422 C1428 0.930 . S
H1423 C1432 0.930 . S
H1424 C1437 0.929 . S
H1425 C1435 0.929 . S
H1426 C1430 0.929 . S
H1427 C1436 0.929 . S
C1428 H1422 0.930 . S
C1428 C1429 1.367 . S
C1428 C1436 1.378 . S
C1429 C1428 1.367 . S
C1429 C1437 1.433 . S
C1430 H1426 0.929 . S
C1430 C1432 1.378 . S
C1430 C1434 1.350 . S
C1431 C1434 1.463 1_455 S
C1431 C1436 1.350 . S
C1431 N1439 1.427 . S
C1432 H1423 0.930 . S
C1432 C1430 1.378 . S
C1432 C1433 1.367 . S
C1433 C1432 1.367 . S
C1433 C1435 1.433 . S
C1434 C1430 1.350 . S
C1434 C1431 1.463 1_655 S
C1434 N1438 1.427 . S
C1435 H1425 0.929 . S
C1435 C1433 1.433 . S
C1435 N1438 1.384 . S
C1436 H1427 0.929 . S
C1436 C1428 1.378 . S
C1436 C1431 1.350 . S
C1437 H1424 0.929 . S
C1437 C1429 1.433 . S
C1437 N1439 1.384 . S
N1438 C1434 1.427 . S
N1438 C1435 1.384 . S
N1439 C1431 1.427 . S
N1439 C1437 1.384 . S
H1440 C1446 0.930 . S
H1441 C1450 0.930 . S
H1442 C1455 0.929 . S
H1443 C1453 0.929 . S
H1444 C1448 0.929 . S
H1445 C1454 0.929 . S
C1446 H1440 0.930 . S
C1446 C1447 1.367 . S
C1446 C1454 1.378 . S
C1447 C1446 1.367 . S
C1447 C1455 1.433 . S
C1448 H1444 0.929 . S
C1448 C1450 1.378 . S
C1448 C1452 1.350 . S
C1449 C1452 1.463 . S
C1449 C1454 1.350 . S
C1449 N1457 1.427 . S
C1450 H1441 0.930 . S
C1450 C1448 1.378 . S
C1450 C1451 1.367 . S
C1451 C1450 1.367 . S
C1451 C1453 1.433 . S
C1452 C1448 1.350 . S
C1452 C1449 1.463 . S
C1452 N1456 1.427 . S
C1453 H1443 0.929 . S
C1453 C1451 1.433 . S
C1453 N1456 1.384 . S
C1454 H1445 0.929 . S
C1454 C1446 1.378 . S
C1454 C1449 1.350 . S
C1455 H1442 0.929 . S
C1455 C1447 1.433 . S
C1455 N1457 1.384 . S
N1456 C1452 1.427 . S
N1456 C1453 1.384 . S
N1457 C1449 1.427 . S
N1457 C1455 1.384 . S
H1458 C1464 0.930 . S
H1459 C1468 0.930 . S
H1460 C1473 0.929 . S
H1461 C1471 0.929 . S
H1462 C1466 0.929 . S
H1463 C1472 0.925 1_655 S
C1464 H1458 0.930 . S
C1464 C1465 1.367 . S
C1464 C1472 1.378 . S
C1465 C1464 1.367 . S
C1465 C1473 1.433 . S
C1466 H1462 0.929 . S
C1466 C1468 1.378 . S
C1466 C1470 1.350 . S
C1467 C1470 1.463 1_455 S
C1467 C1472 1.350 . S
C1467 N1475 1.427 . S
C1468 H1459 0.930 . S
C1468 C1466 1.378 . S
C1468 C1469 1.367 . S
C1469 C1468 1.367 . S
C1469 C1471 1.433 . S
C1470 C1466 1.350 . S
C1470 C1467 1.463 1_655 S
C1470 N1474 1.427 . S
C1471 H1461 0.929 . S
C1471 C1469 1.433 . S
C1471 N1474 1.384 . S
C1472 H1463 0.925 1_455 S
C1472 C1464 1.378 . S
C1472 C1467 1.350 . S
C1473 H1460 0.929 . S
C1473 C1465 1.433 . S
C1473 N1475 1.384 . S
N1474 C1470 1.427 . S
N1474 C1471 1.384 . S
N1475 C1467 1.427 . S
N1475 C1473 1.384 . S
H1476 C1482 0.930 . S
H1477 C1486 0.930 . S
H1478 C1491 0.929 . S
H1479 C1489 0.929 . S
H1480 C1484 0.929 . S
H1481 C1490 0.929 . S
C1482 H1476 0.930 . S
C1482 C1483 1.367 . S
C1482 C1490 1.378 . S
C1483 C1482 1.367 . S
C1483 C1491 1.433 . S
C1484 H1480 0.929 . S
C1484 C1486 1.378 . S
C1484 C1488 1.350 . S
C1485 C1488 1.463 . S
C1485 C1490 1.350 . S
C1485 N1493 1.427 . S
C1486 H1477 0.930 . S
C1486 C1484 1.378 . S
C1486 C1487 1.367 . S
C1487 C1486 1.367 . S
C1487 C1489 1.433 . S
C1488 C1484 1.350 . S
C1488 C1485 1.463 . S
C1488 N1492 1.427 . S
C1489 H1479 0.929 . S
C1489 C1487 1.433 . S
C1489 N1492 1.384 . S
C1490 H1481 0.929 . S
C1490 C1482 1.378 . S
C1490 C1485 1.350 . S
C1491 H1478 0.929 . S
C1491 C1483 1.433 . S
C1491 N1493 1.384 . S
N1492 C1488 1.427 . S
N1492 C1489 1.384 . S
N1493 C1485 1.427 . S
N1493 C1491 1.384 . S
H1494 C1500 0.930 . S
H1495 C1504 0.930 . S
H1496 C1509 0.929 . S
H1497 C1507 0.929 . S
H1498 C1502 0.929 . S
H1499 C1508 0.929 . S
C1500 H1494 0.930 . S
C1500 C1501 1.367 . S
C1500 C1508 1.378 . S
C1501 C1500 1.367 . S
C1501 C1509 1.433 . S
C1502 H1498 0.929 . S
C1502 C1504 1.378 . S
C1502 C1506 1.350 . S
C1503 C1506 1.463 1_565 S
C1503 C1508 1.350 . S
C1503 N1511 1.427 . S
C1504 H1495 0.930 . S
C1504 C1502 1.378 . S
C1504 C1505 1.367 . S
C1505 C1504 1.367 . S
C1505 C1507 1.433 . S
C1506 C1502 1.350 . S
C1506 C1503 1.463 1_545 S
C1506 N1510 1.427 . S
C1507 H1497 0.929 . S
C1507 C1505 1.433 . S
C1507 N1510 1.384 . S
C1508 H1499 0.929 . S
C1508 C1500 1.378 . S
C1508 C1503 1.350 . S
C1509 H1496 0.929 . S
C1509 C1501 1.433 . S
C1509 N1511 1.384 . S
N1510 C1506 1.427 . S
N1510 C1507 1.384 . S
N1511 C1503 1.427 . S
N1511 C1509 1.384 . S
H1512 C1518 0.930 . S
H1513 C1522 0.930 . S
H1514 C1527 0.929 . S
H1515 C1525 0.929 . S
H1516 C1520 0.929 . S
H1517 C1526 0.929 . S
C1518 H1512 0.930 . S
C1518 C1519 1.367 . S
C1518 C1526 1.378 . S
C1519 C1518 1.367 . S
C1519 C1527 1.433 . S
C1520 H1516 0.929 . S
C1520 C1522 1.378 . S
C1520 C1524 1.350 . S
C1521 C1524 1.463 . S
C1521 C1526 1.350 . S
C1521 N1529 1.427 . S
C1522 H1513 0.930 . S
C1522 C1520 1.378 . S
C1522 C1523 1.367 . S
C1523 C1522 1.367 . S
C1523 C1525 1.433 . S
C1524 C1520 1.350 . S
C1524 C1521 1.463 . S
C1524 N1528 1.427 . S
C1525 H1515 0.929 . S
C1525 C1523 1.433 . S
C1525 N1528 1.384 . S
C1526 H1517 0.929 . S
C1526 C1518 1.378 . S
C1526 C1521 1.350 . S
C1527 H1514 0.929 . S
C1527 C1519 1.433 . S
C1527 N1529 1.384 . S
N1528 C1524 1.427 . S
N1528 C1525 1.384 . S
N1529 C1521 1.427 . S
N1529 C1527 1.384 . S
H1530 C1536 0.930 . S
H1531 C1540 0.930 . S
H1532 C1545 0.929 . S
H1533 C1543 0.929 . S
H1534 C1538 0.929 . S
H1535 C1544 0.929 . S
C1536 H1530 0.930 . S
C1536 C1537 1.367 . S
C1536 C1544 1.378 . S
C1537 C1536 1.367 . S
C1537 C1545 1.433 . S
C1538 H1534 0.929 . S
C1538 C1540 1.378 . S
C1538 C1542 1.350 . S
C1539 C1542 1.463 . S
C1539 C1544 1.350 . S
C1539 N1547 1.427 . S
C1540 H1531 0.930 . S
C1540 C1538 1.378 . S
C1540 C1541 1.367 . S
C1541 C1540 1.367 . S
C1541 C1543 1.433 . S
C1542 C1538 1.350 . S
C1542 C1539 1.463 . S
C1542 N1546 1.427 . S
C1543 H1533 0.929 . S
C1543 C1541 1.433 . S
C1543 N1546 1.384 . S
C1544 H1535 0.929 . S
C1544 C1536 1.378 . S
C1544 C1539 1.350 . S
C1545 H1532 0.929 . S
C1545 C1537 1.433 . S
C1545 N1547 1.384 . S
N1546 C1542 1.427 . S
N1546 C1543 1.384 . S
N1547 C1539 1.427 . S
N1547 C1545 1.384 . S
H1548 C1554 0.930 . S
H1549 C1558 0.930 . S
H1550 C1563 0.929 . S
H1551 C1561 0.929 . S
H1552 C1556 0.929 . S
H1553 C1562 0.929 . S
C1554 H1548 0.930 . S
C1554 C1555 1.367 . S
C1554 C1562 1.378 . S
C1555 C1554 1.367 . S
C1555 C1563 1.433 . S
C1556 H1552 0.929 . S
C1556 C1558 1.378 . S
C1556 C1560 1.350 . S
C1557 C1560 1.463 . S
C1557 C1562 1.350 . S
C1557 N1565 1.427 . S
C1558 H1549 0.930 . S
C1558 C1556 1.378 . S
C1558 C1559 1.367 . S
C1559 C1558 1.367 . S
C1559 C1561 1.433 . S
C1560 C1556 1.350 . S
C1560 C1557 1.463 . S
C1560 N1564 1.427 . S
C1561 H1551 0.929 . S
C1561 C1559 1.433 . S
C1561 N1564 1.384 . S
C1562 H1553 0.929 . S
C1562 C1554 1.378 . S
C1562 C1557 1.350 . S
C1563 H1550 0.929 . S
C1563 C1555 1.433 . S
C1563 N1565 1.384 . S
N1564 C1560 1.427 . S
N1564 C1561 1.384 . S
N1565 C1557 1.427 . S
N1565 C1563 1.384 . S
H1566 C1572 0.930 . S
H1567 C1576 0.930 . S
H1568 C1581 0.929 . S
H1569 C1579 0.929 1_545 S
H1570 C1574 0.929 . S
H1571 C1580 0.929 . S
C1572 H1566 0.930 . S
C1572 C1573 1.367 . S
C1572 C1580 1.378 . S
C1573 C1572 1.367 . S
C1573 C1581 1.433 . S
C1574 H1570 0.929 . S
C1574 C1576 1.378 . S
C1574 C1578 1.350 . S
C1575 C1578 1.463 . S
C1575 C1580 1.350 . S
C1575 N1583 1.427 . S
C1576 H1567 0.930 . S
C1576 C1574 1.378 . S
C1576 C1577 1.367 . S
C1577 C1576 1.367 . S
C1577 C1579 1.433 . S
C1578 C1574 1.350 . S
C1578 C1575 1.463 . S
C1578 N1582 1.427 . S
C1579 H1569 0.929 1_565 S
C1579 C1577 1.433 . S
C1579 N1582 1.384 . S
C1580 H1571 0.929 . S
C1580 C1572 1.378 . S
C1580 C1575 1.350 . S
C1581 H1568 0.929 . S
C1581 C1573 1.433 . S
C1581 N1583 1.384 . S
N1582 C1578 1.427 . S
N1582 C1579 1.384 . S
N1583 C1575 1.427 . S
N1583 C1581 1.384 . S
H1584 C1590 0.930 . S
H1585 C1594 0.930 1_655 S
H1586 C1599 0.929 . S
H1587 C1597 0.929 . S
H1588 C1592 0.929 . S
H1589 C1598 0.929 . S
C1590 H1584 0.930 . S
C1590 C1591 1.367 . S
C1590 C1598 1.378 . S
C1591 C1590 1.367 . S
C1591 C1599 1.433 . S
C1592 H1588 0.929 . S
C1592 C1594 1.378 . S
C1592 C1596 1.350 . S
C1593 C1596 1.463 . S
C1593 C1598 1.350 . S
C1593 N1601 1.427 . S
C1594 H1585 0.930 1_455 S
C1594 C1592 1.378 . S
C1594 C1595 1.367 . S
C1595 C1594 1.367 . S
C1595 C1597 1.433 . S
C1596 C1592 1.350 . S
C1596 C1593 1.463 . S
C1596 N1600 1.427 . S
C1597 H1587 0.929 . S
C1597 C1595 1.433 . S
C1597 N1600 1.384 . S
C1598 H1589 0.929 . S
C1598 C1590 1.378 . S
C1598 C1593 1.350 . S
C1599 H1586 0.929 . S
C1599 C1591 1.433 . S
C1599 N1601 1.384 . S
N1600 C1596 1.427 . S
N1600 C1597 1.384 . S
N1601 C1593 1.427 . S
N1601 C1599 1.384 . S
H1602 C1608 0.930 . S
H1603 C1612 0.930 . S
H1604 C1617 0.929 . S
H1605 C1615 0.929 . S
H1606 C1610 0.929 . S
H1607 C1616 0.929 . S
C1608 H1602 0.930 . S
C1608 C1609 1.367 . S
C1608 C1616 1.378 . S
C1609 C1608 1.367 . S
C1609 C1617 1.433 . S
C1610 H1606 0.929 . S
C1610 C1612 1.378 . S
C1610 C1614 1.350 . S
C1611 C1614 1.463 . S
C1611 C1616 1.350 . S
C1611 N1619 1.427 . S
C1612 H1603 0.930 . S
C1612 C1610 1.378 . S
C1612 C1613 1.367 . S
C1613 C1612 1.367 . S
C1613 C1615 1.433 . S
C1614 C1610 1.350 . S
C1614 C1611 1.463 . S
C1614 N1618 1.427 . S
C1615 H1605 0.929 . S
C1615 C1613 1.433 . S
C1615 N1618 1.384 . S
C1616 H1607 0.929 . S
C1616 C1608 1.378 . S
C1616 C1611 1.350 . S
C1617 H1604 0.929 . S
C1617 C1609 1.433 . S
C1617 N1619 1.384 . S
N1618 C1614 1.427 . S
N1618 C1615 1.384 . S
N1619 C1611 1.427 . S
N1619 C1617 1.384 . S
H1620 C1626 0.930 . S
H1621 C1630 0.930 . S
H1622 C1635 0.929 . S
H1623 C1633 0.929 . S
H1624 C1628 0.929 . S
H1625 C1634 0.929 . S
C1626 H1620 0.930 . S
C1626 C1627 1.367 . S
C1626 C1634 1.378 . S
C1627 C1626 1.367 . S
C1627 C1635 1.433 . S
C1628 H1624 0.929 . S
C1628 C1630 1.378 . S
C1628 C1632 1.350 . S
C1629 C1632 1.463 . S
C1629 C1634 1.350 . S
C1629 N1637 1.427 . S
C1630 H1621 0.930 . S
C1630 C1628 1.378 . S
C1630 C1631 1.367 . S
C1631 C1630 1.367 . S
C1631 C1633 1.433 . S
C1632 C1628 1.350 . S
C1632 C1629 1.463 . S
C1632 N1636 1.427 . S
C1633 H1623 0.929 . S
C1633 C1631 1.433 . S
C1633 N1636 1.384 . S
C1634 H1625 0.929 . S
C1634 C1626 1.378 . S
C1634 C1629 1.350 . S
C1635 H1622 0.929 . S
C1635 C1627 1.433 . S
C1635 N1637 1.384 . S
N1636 C1632 1.427 . S
N1636 C1633 1.384 . S
N1637 C1629 1.427 . S
N1637 C1635 1.384 . S
H1638 C1644 0.930 . S
H1639 C1648 0.930 . S
H1640 C1653 0.929 . S
H1641 C1651 0.929 . S
H1642 C1646 0.929 . S
H1643 C1652 0.929 . S
C1644 H1638 0.930 . S
C1644 C1645 1.367 . S
C1644 C1652 1.378 . S
C1645 C1644 1.367 . S
C1645 C1653 1.433 . S
C1646 H1642 0.929 . S
C1646 C1648 1.378 . S
C1646 C1650 1.350 . S
C1647 C1650 1.463 . S
C1647 C1652 1.350 . S
C1647 N1655 1.427 . S
C1648 H1639 0.930 . S
C1648 C1646 1.378 . S
C1648 C1649 1.367 . S
C1649 C1648 1.367 . S
C1649 C1651 1.433 . S
C1650 C1646 1.350 . S
C1650 C1647 1.463 . S
C1650 N1654 1.427 . S
C1651 H1641 0.929 . S
C1651 C1649 1.433 . S
C1651 N1654 1.384 . S
C1652 H1643 0.929 . S
C1652 C1644 1.378 . S
C1652 C1647 1.350 . S
C1653 H1640 0.929 . S
C1653 C1645 1.433 . S
C1653 N1655 1.384 . S
N1654 C1650 1.427 . S
N1654 C1651 1.384 . S
N1655 C1647 1.427 . S
N1655 C1653 1.384 . S
H1656 C1662 0.930 . S
H1657 C1666 0.930 . S
H1658 C1671 0.929 . S
H1659 C1669 0.929 1_565 S
H1660 C1664 0.929 . S
H1661 C1670 0.929 . S
C1662 H1656 0.930 . S
C1662 C1663 1.367 . S
C1662 C1670 1.378 . S
C1663 C1662 1.367 . S
C1663 C1671 1.433 . S
C1664 H1660 0.929 . S
C1664 C1666 1.378 . S
C1664 C1668 1.350 . S
C1665 C1668 1.463 . S
C1665 C1670 1.350 . S
C1665 N1673 1.427 . S
C1666 H1657 0.930 . S
C1666 C1664 1.378 . S
C1666 C1667 1.367 . S
C1667 C1666 1.367 . S
C1667 C1669 1.433 . S
C1668 C1664 1.350 . S
C1668 C1665 1.463 . S
C1668 N1672 1.427 . S
C1669 H1659 0.929 1_545 S
C1669 C1667 1.433 . S
C1669 N1672 1.384 . S
C1670 H1661 0.929 . S
C1670 C1662 1.378 . S
C1670 C1665 1.350 . S
C1671 H1658 0.929 . S
C1671 C1663 1.433 . S
C1671 N1673 1.384 . S
N1672 C1668 1.427 . S
N1672 C1669 1.384 . S
N1673 C1665 1.427 . S
N1673 C1671 1.384 . S
H1674 C1680 0.930 . S
H1675 C1684 0.930 . S
H1676 C1689 0.929 . S
H1677 C1687 0.929 . S
H1678 C1682 0.929 . S
H1679 C1688 0.929 . S
C1680 H1674 0.930 . S
C1680 C1681 1.367 . S
C1680 C1688 1.378 . S
C1681 C1680 1.367 . S
C1681 C1689 1.433 . S
C1682 H1678 0.929 . S
C1682 C1684 1.378 . S
C1682 C1686 1.350 . S
C1683 C1686 1.463 . S
C1683 C1688 1.350 . S
C1683 N1691 1.427 . S
C1684 H1675 0.930 . S
C1684 C1682 1.378 . S
C1684 C1685 1.367 . S
C1685 C1684 1.367 . S
C1685 C1687 1.433 . S
C1686 C1682 1.350 . S
C1686 C1683 1.463 . S
C1686 N1690 1.427 . S
C1687 H1677 0.929 . S
C1687 C1685 1.433 . S
C1687 N1690 1.384 . S
C1688 H1679 0.929 . S
C1688 C1680 1.378 . S
C1688 C1683 1.350 . S
C1689 H1676 0.929 . S
C1689 C1681 1.433 . S
C1689 N1691 1.384 . S
N1690 C1686 1.427 . S
N1690 C1687 1.384 . S
N1691 C1683 1.427 . S
N1691 C1689 1.384 . S
H1692 C1698 0.930 . S
H1693 C1702 0.930 . S
H1694 C1707 0.929 . S
H1695 C1705 0.929 . S
H1696 C1700 0.929 . S
H1697 C1706 0.929 . S
C1698 H1692 0.930 . S
C1698 C1699 1.367 . S
C1698 C1706 1.378 . S
C1699 C1698 1.367 . S
C1699 C1707 1.433 . S
C1700 H1696 0.929 . S
C1700 C1702 1.378 . S
C1700 C1704 1.350 . S
C1701 C1704 1.463 . S
C1701 C1706 1.350 . S
C1701 N1709 1.427 . S
C1702 H1693 0.930 . S
C1702 C1700 1.378 . S
C1702 C1703 1.367 . S
C1703 C1702 1.367 . S
C1703 C1705 1.433 . S
C1704 C1700 1.350 . S
C1704 C1701 1.463 . S
C1704 N1708 1.427 . S
C1705 H1695 0.929 . S
C1705 C1703 1.433 . S
C1705 N1708 1.384 . S
C1706 H1697 0.929 . S
C1706 C1698 1.378 . S
C1706 C1701 1.350 . S
C1707 H1694 0.929 . S
C1707 C1699 1.433 . S
C1707 N1709 1.384 . S
N1708 C1704 1.427 . S
N1708 C1705 1.384 . S
N1709 C1701 1.427 . S
N1709 C1707 1.384 . S
H1710 C1716 0.930 . S
H1711 C1720 0.930 . S
H1712 C1725 0.929 . S
H1713 C1723 0.929 . S
H1714 C1718 0.929 . S
H1715 C1724 0.929 . S
C1716 H1710 0.930 . S
C1716 C1717 1.367 . S
C1716 C1724 1.378 . S
C1717 C1716 1.367 . S
C1717 C1725 1.433 . S
C1718 H1714 0.929 . S
C1718 C1720 1.378 . S
C1718 C1722 1.350 . S
C1719 C1722 1.463 . S
C1719 C1724 1.350 . S
C1719 N1727 1.427 . S
C1720 H1711 0.930 . S
C1720 C1718 1.378 . S
C1720 C1721 1.367 . S
C1721 C1720 1.367 . S
C1721 C1723 1.433 . S
C1722 C1718 1.350 . S
C1722 C1719 1.463 . S
C1722 N1726 1.427 . S
C1723 H1713 0.929 . S
C1723 C1721 1.433 . S
C1723 N1726 1.384 . S
C1724 H1715 0.929 . S
C1724 C1716 1.378 . S
C1724 C1719 1.350 . S
C1725 H1712 0.929 . S
C1725 C1717 1.433 . S
C1725 N1727 1.384 . S
N1726 C1722 1.427 . S
N1726 C1723 1.384 . S
N1727 C1719 1.427 . S
N1727 C1725 1.384 . S
H1728 C1734 0.930 . S
H1729 C1738 0.930 . S
H1730 C1743 0.929 . S
H1731 C1741 0.929 . S
H1732 C1736 0.929 . S
H1733 C1742 0.929 . S
C1734 H1728 0.930 . S
C1734 C1735 1.367 . S
C1734 C1742 1.378 . S
C1735 C1734 1.367 . S
C1735 C1743 1.433 . S
C1736 H1732 0.929 . S
C1736 C1738 1.378 . S
C1736 C1740 1.350 . S
C1737 C1740 1.463 . S
C1737 C1742 1.350 . S
C1737 N1745 1.427 . S
C1738 H1729 0.930 . S
C1738 C1736 1.378 . S
C1738 C1739 1.367 . S
C1739 C1738 1.367 . S
C1739 C1741 1.433 . S
C1740 C1736 1.350 . S
C1740 C1737 1.463 . S
C1740 N1744 1.427 . S
C1741 H1731 0.929 . S
C1741 C1739 1.433 . S
C1741 N1744 1.384 . S
C1742 H1733 0.929 . S
C1742 C1734 1.378 . S
C1742 C1737 1.350 . S
C1743 H1730 0.929 . S
C1743 C1735 1.433 . S
C1743 N1745 1.384 . S
N1744 C1740 1.427 . S
N1744 C1741 1.384 . S
N1745 C1737 1.427 . S
N1745 C1743 1.384 . S
H1746 C1752 0.930 . S
H1747 C1756 0.930 . S
H1748 C1761 0.929 . S
H1749 C1759 0.929 . S
H1750 C1754 0.929 . S
H1751 C1760 0.929 . S
C1752 H1746 0.930 . S
C1752 C1753 1.367 . S
C1752 C1760 1.378 . S
C1753 C1752 1.367 . S
C1753 C1761 1.433 . S
C1754 H1750 0.929 . S
C1754 C1756 1.378 . S
C1754 C1758 1.350 . S
C1755 C1758 1.463 . S
C1755 C1760 1.350 . S
C1755 N1763 1.427 . S
C1756 H1747 0.930 . S
C1756 C1754 1.378 . S
C1756 C1757 1.367 . S
C1757 C1756 1.367 . S
C1757 C1759 1.433 . S
C1758 C1754 1.350 . S
C1758 C1755 1.463 . S
C1758 N1762 1.427 . S
C1759 H1749 0.929 . S
C1759 C1757 1.433 . S
C1759 N1762 1.384 . S
C1760 H1751 0.929 . S
C1760 C1752 1.378 . S
C1760 C1755 1.350 . S
C1761 H1748 0.929 . S
C1761 C1753 1.433 . S
C1761 N1763 1.384 . S
N1762 C1758 1.427 . S
N1762 C1759 1.384 . S
N1763 C1755 1.427 . S
N1763 C1761 1.384 . S
H1764 C1770 0.930 . S
H1765 C1774 0.930 . S
H1766 C1779 0.929 . S
H1767 C1777 0.929 . S
H1768 C1772 0.929 . S
H1769 C1778 0.929 . S
C1770 H1764 0.930 . S
C1770 C1771 1.367 . S
C1770 C1778 1.378 . S
C1771 C1770 1.367 . S
C1771 C1779 1.433 . S
C1772 H1768 0.929 . S
C1772 C1774 1.378 . S
C1772 C1776 1.350 . S
C1773 C1776 1.463 . S
C1773 C1778 1.350 . S
C1773 N1781 1.427 . S
C1774 H1765 0.930 . S
C1774 C1772 1.378 . S
C1774 C1775 1.367 . S
C1775 C1774 1.367 . S
C1775 C1777 1.433 . S
C1776 C1772 1.350 . S
C1776 C1773 1.463 . S
C1776 N1780 1.427 . S
C1777 H1767 0.929 . S
C1777 C1775 1.433 . S
C1777 N1780 1.384 . S
C1778 H1769 0.929 . S
C1778 C1770 1.378 . S
C1778 C1773 1.350 . S
C1779 H1766 0.929 . S
C1779 C1771 1.433 . S
C1779 N1781 1.384 . S
N1780 C1776 1.427 . S
N1780 C1777 1.384 . S
N1781 C1773 1.427 . S
N1781 C1779 1.384 . S
H1782 C1788 0.930 . S
H1783 C1792 0.930 . S
H1784 C1797 0.929 . S
H1785 C1795 0.929 . S
H1786 C1790 0.929 . S
H1787 C1796 0.929 . S
C1788 H1782 0.930 . S
C1788 C1789 1.367 . S
C1788 C1796 1.378 . S
C1789 C1788 1.367 . S
C1789 C1797 1.433 . S
C1790 H1786 0.929 . S
C1790 C1792 1.378 . S
C1790 C1794 1.350 . S
C1791 C1794 1.463 . S
C1791 C1796 1.350 . S
C1791 N1799 1.427 . S
C1792 H1783 0.930 . S
C1792 C1790 1.378 . S
C1792 C1793 1.367 . S
C1793 C1792 1.367 . S
C1793 C1795 1.433 . S
C1794 C1790 1.350 . S
C1794 C1791 1.463 . S
C1794 N1798 1.427 . S
C1795 H1785 0.929 . S
C1795 C1793 1.433 . S
C1795 N1798 1.384 . S
C1796 H1787 0.929 . S
C1796 C1788 1.378 . S
C1796 C1791 1.350 . S
C1797 H1784 0.929 . S
C1797 C1789 1.433 . S
C1797 N1799 1.384 . S
N1798 C1794 1.427 . S
N1798 C1795 1.384 . S
N1799 C1791 1.427 . S
N1799 C1797 1.384 . S
H1800 C1806 0.930 . S
H1801 C1810 0.930 . S
H1802 C1815 0.929 . S
H1803 C1813 0.929 . S
H1804 C1808 0.929 . S
H1805 C1814 0.929 . S
C1806 H1800 0.930 . S
C1806 C1807 1.367 . S
C1806 C1814 1.378 . S
C1807 C1806 1.367 . S
C1807 C1815 1.433 . S
C1808 H1804 0.929 . S
C1808 C1810 1.378 . S
C1808 C1812 1.350 . S
C1809 C1812 1.463 . S
C1809 C1814 1.350 . S
C1809 N1817 1.427 . S
C1810 H1801 0.930 . S
C1810 C1808 1.378 . S
C1810 C1811 1.367 . S
C1811 C1810 1.367 . S
C1811 C1813 1.433 . S
C1812 C1808 1.350 . S
C1812 C1809 1.463 . S
C1812 N1816 1.427 . S
C1813 H1803 0.929 . S
C1813 C1811 1.433 . S
C1813 N1816 1.384 . S
C1814 H1805 0.929 . S
C1814 C1806 1.378 . S
C1814 C1809 1.350 . S
C1815 H1802 0.929 . S
C1815 C1807 1.433 . S
C1815 N1817 1.384 . S
N1816 C1812 1.427 . S
N1816 C1813 1.384 . S
N1817 C1809 1.427 . S
N1817 C1815 1.384 . S
H1818 C1824 0.930 . S
H1819 C1828 0.930 . S
H1820 C1833 0.929 . S
H1821 C1831 0.929 . S
H1822 C1826 0.929 . S
H1823 C1832 0.929 . S
C1824 H1818 0.930 . S
C1824 C1825 1.367 . S
C1824 C1832 1.378 . S
C1825 C1824 1.367 . S
C1825 C1833 1.433 . S
C1826 H1822 0.929 . S
C1826 C1828 1.378 . S
C1826 C1830 1.350 . S
C1827 C1830 1.463 . S
C1827 C1832 1.350 . S
C1827 N1835 1.427 . S
C1828 H1819 0.930 . S
C1828 C1826 1.378 . S
C1828 C1829 1.367 . S
C1829 C1828 1.367 . S
C1829 C1831 1.433 . S
C1830 C1826 1.350 . S
C1830 C1827 1.463 . S
C1830 N1834 1.427 . S
C1831 H1821 0.929 . S
C1831 C1829 1.433 . S
C1831 N1834 1.384 . S
C1832 H1823 0.929 . S
C1832 C1824 1.378 . S
C1832 C1827 1.350 . S
C1833 H1820 0.929 . S
C1833 C1825 1.433 . S
C1833 N1835 1.384 . S
N1834 C1830 1.427 . S
N1834 C1831 1.384 . S
N1835 C1827 1.427 . S
N1835 C1833 1.384 . S
H1836 C1842 0.930 . S
H1837 C1846 0.930 . S
H1838 C1851 0.929 . S
H1839 C1849 0.929 . S
H1840 C1844 0.929 . S
H1841 C1850 0.929 . S
C1842 H1836 0.930 . S
C1842 C1843 1.367 . S
C1842 C1850 1.378 . S
C1843 C1842 1.367 . S
C1843 C1851 1.433 . S
C1844 H1840 0.929 . S
C1844 C1846 1.378 . S
C1844 C1848 1.350 . S
C1845 C1848 1.463 . S
C1845 C1850 1.350 . S
C1845 N1853 1.427 . S
C1846 H1837 0.930 . S
C1846 C1844 1.378 . S
C1846 C1847 1.367 . S
C1847 C1846 1.367 . S
C1847 C1849 1.433 . S
C1848 C1844 1.350 . S
C1848 C1845 1.463 . S
C1848 N1852 1.427 . S
C1849 H1839 0.929 . S
C1849 C1847 1.433 . S
C1849 N1852 1.384 . S
C1850 H1841 0.929 . S
C1850 C1842 1.378 . S
C1850 C1845 1.350 . S
C1851 H1838 0.929 . S
C1851 C1843 1.433 . S
C1851 N1853 1.384 . S
N1852 C1848 1.427 . S
N1852 C1849 1.384 . S
N1853 C1845 1.427 . S
N1853 C1851 1.384 . S
H1854 C1860 0.930 . S
H1855 C1864 0.930 . S
H1856 C1869 0.929 . S
H1857 C1867 0.929 . S
H1858 C1862 0.929 . S
H1859 C1868 0.929 . S
C1860 H1854 0.930 . S
C1860 C1861 1.367 . S
C1860 C1868 1.378 . S
C1861 C1860 1.367 . S
C1861 C1869 1.433 . S
C1862 H1858 0.929 . S
C1862 C1864 1.378 . S
C1862 C1866 1.350 . S
C1863 C1866 1.463 . S
C1863 C1868 1.350 . S
C1863 N1871 1.427 . S
C1864 H1855 0.930 . S
C1864 C1862 1.378 . S
C1864 C1865 1.367 . S
C1865 C1864 1.367 . S
C1865 C1867 1.433 . S
C1866 C1862 1.350 . S
C1866 C1863 1.463 . S
C1866 N1870 1.427 . S
C1867 H1857 0.929 . S
C1867 C1865 1.433 . S
C1867 N1870 1.384 . S
C1868 H1859 0.929 . S
C1868 C1860 1.378 . S
C1868 C1863 1.350 . S
C1869 H1856 0.929 . S
C1869 C1861 1.433 . S
C1869 N1871 1.384 . S
N1870 C1866 1.427 . S
N1870 C1867 1.384 . S
N1871 C1863 1.427 . S
N1871 C1869 1.384 . S
H1872 C1878 0.930 . S
H1873 C1882 0.930 . S
H1874 C1887 0.929 . S
H1875 C1885 0.929 . S
H1876 C1880 0.929 . S
H1877 C1886 0.929 . S
C1878 H1872 0.930 . S
C1878 C1879 1.367 . S
C1878 C1886 1.378 . S
C1879 C1878 1.367 . S
C1879 C1887 1.433 . S
C1880 H1876 0.929 . S
C1880 C1882 1.378 . S
C1880 C1884 1.350 . S
C1881 C1884 1.463 . S
C1881 C1886 1.350 . S
C1881 N1889 1.427 . S
C1882 H1873 0.930 . S
C1882 C1880 1.378 . S
C1882 C1883 1.367 . S
C1883 C1882 1.367 . S
C1883 C1885 1.433 . S
C1884 C1880 1.350 . S
C1884 C1881 1.463 . S
C1884 N1888 1.427 . S
C1885 H1875 0.929 . S
C1885 C1883 1.433 . S
C1885 N1888 1.384 . S
C1886 H1877 0.929 . S
C1886 C1878 1.378 . S
C1886 C1881 1.350 . S
C1887 H1874 0.929 . S
C1887 C1879 1.433 . S
C1887 N1889 1.384 . S
N1888 C1884 1.427 . S
N1888 C1885 1.384 . S
N1889 C1881 1.427 . S
N1889 C1887 1.384 . S
C925 C124 1.432 . S
C929 C218 1.364 . S
C943 C130 1.482 . S
C947 C302 1.401 . S
C961 C115 1.461 . S
C965 C396 1.420 . S
C979 C106 1.439 . S
C983 C312 1.401 . S
C1001 C386 1.360 . S
C997 C85 1.434 . S
C1015 C97 1.399 . S
C1019 C228 1.363 . S
C1037 C229 1.379 . S
C1033 C103 1.458 . S
C1055 C313 1.377 . S
C1051 C88 1.457 . S
C1069 C94 1.461 . S
C1073 C405 1.424 . S
C1087 C121 1.435 . S
C1091 C321 1.396 . S
C1105 C133 1.405 . S
C1109 C397 1.331 . S
C1127 C237 1.395 . S
C1123 C112 1.427 . S
C1145 C470 1.362 . S
C1141 C16 1.431 . S
C1159 C22 1.484 . S
C1163 C554 1.402 . S
C1177 C7 1.461 . S
C1181 C648 1.424 . S
C1195 C160 1.440 . S
C1199 C564 1.404 . S
C1213 C139 1.433 . S
C1217 C638 1.347 . S
C1231 C151 1.403 . S
C1235 C480 1.368 . S
C1249 C157 1.457 . S
C1253 C481 1.387 . S
C1267 C142 1.458 . S
C1271 C565 1.376 . S
C1289 C657 1.426 . S
C1285 C148 1.462 . S
C1303 C13 1.437 . S
C1307 C573 1.401 . S
C1325 C649 1.334 . S
C1321 C25 1.405 . S
C1339 C4 1.426 . S
C1343 C489 1.393 . S
C1361 C722 1.365 . S
C1357 C70 1.432 . S
C1375 C76 1.482 . S
C1379 C806 1.417 . S
C1397 C900 1.420 . S
C1393 C61 1.461 . S
C1415 C816 1.401 . S
C1411 C52 1.437 . S
C1433 C890 1.345 . S
C1429 C31 1.431 . S
C1447 C43 1.401 . S
C1451 C732 1.368 . S
C1465 C49 1.457 . S
C1469 C733 1.386 . S
C1483 C34 1.460 . S
C1487 C817 1.385 . S
C1505 C909 1.431 . S
C1501 C40 1.464 . S
C1519 C67 1.438 . S
C1523 C825 1.408 . S
C1537 C79 1.409 . S
C1541 C901 1.330 . S
C1555 C58 1.426 . S
C1559 C741 1.390 . S
C1573 C140 1.481 . S
C1577 C225 1.374 . S
C1595 C309 1.357 . S
C1591 C149 1.505 . S
C1609 C158 1.504 . S
C1613 C402 1.381 . S
C1627 C59 1.523 . S
C1631 C318 1.377 . S
C1645 C68 1.486 . S
C1649 C393 1.370 . S
C1667 C234 1.377 . S
C1663 C77 1.481 . S
C1681 C32 1.481 . S
C1685 C477 1.364 . S
C1699 C41 1.505 . S
C1703 C561 1.359 . S
C1717 C50 1.504 . S
C1721 C654 1.379 . S
C1735 C113 1.523 . S
C1739 C570 1.390 . S
C1757 C645 1.370 . S
C1753 C122 1.486 . S
C1771 C131 1.481 . S
C1775 C486 1.375 . S
C1789 C86 1.481 . S
C1793 C729 1.354 . S
C1807 C95 1.505 . S
C1811 C813 1.357 . S
C1829 C906 1.385 . S
C1825 C104 1.503 . S
C1843 C5 1.522 . S
C1847 C822 1.373 . S
C1861 C14 1.487 . S
C1865 C897 1.350 . S
C1879 C23 1.481 . S
C1883 C738 1.355 . S
