# Generated by pormake.
# Topology pyr, (3,6)-cn, num edge types: 1
# Building blocks:
#     Node 0, Type 0, BuildingBlock: MIDCAF_clean_linker_0, # of connection points: 3
#     Node 1, Type 0, BuildingBlock: MIDCAF_clean_linker_0, # of connection points: 3
#     Node 2, Type 0, BuildingBlock: MIDCAF_clean_linker_0, # of connection points: 3
#     Node 3, Type 0, BuildingBlock: MIDCAF_clean_linker_0, # of connection points: 3
#     Node 4, Type 0, BuildingBlock: MIDCAF_clean_linker_0, # of connection points: 3
#     Node 5, Type 0, BuildingBlock: MIDCAF_clean_linker_0, # of connection points: 3
#     Node 6, Type 0, BuildingBlock: MIDCAF_clean_linker_0, # of connection points: 3
#     Node 7, Type 0, BuildingBlock: MIDCAF_clean_linker_0, # of connection points: 3
#     Node 8, Type 1, BuildingBlock: BETDEL_clean_sbu_0, # of connection points: 6
#     Node 9, Type 1, BuildingBlock: BETDEL_clean_sbu_0, # of connection points: 6
#     Node 10, Type 1, BuildingBlock: BETDEL_clean_sbu_0, # of connection points: 6
#     Node 11, Type 1, BuildingBlock: BETDEL_clean_sbu_0, # of connection points: 6
#     Edge 12, Type (0, 1), BuildingBlock: KIFKEQ_clean_linker_1, # of connection points: 2
#     Edge 13, Type (0, 1), BuildingBlock: KIFKEQ_clean_linker_1, # of connection points: 2
#     Edge 14, Type (0, 1), BuildingBlock: KIFKEQ_clean_linker_1, # of connection points: 2
#     Edge 15, Type (0, 1), BuildingBlock: KIFKEQ_clean_linker_1, # of connection points: 2
#     Edge 16, Type (0, 1), BuildingBlock: KIFKEQ_clean_linker_1, # of connection points: 2
#     Edge 17, Type (0, 1), BuildingBlock: KIFKEQ_clean_linker_1, # of connection points: 2
#     Edge 18, Type (0, 1), BuildingBlock: KIFKEQ_clean_linker_1, # of connection points: 2
#     Edge 19, Type (0, 1), BuildingBlock: KIFKEQ_clean_linker_1, # of connection points: 2
#     Edge 20, Type (0, 1), BuildingBlock: KIFKEQ_clean_linker_1, # of connection points: 2
#     Edge 21, Type (0, 1), BuildingBlock: KIFKEQ_clean_linker_1, # of connection points: 2
#     Edge 22, Type (0, 1), BuildingBlock: KIFKEQ_clean_linker_1, # of connection points: 2
#     Edge 23, Type (0, 1), BuildingBlock: KIFKEQ_clean_linker_1, # of connection points: 2
#     Edge 24, Type (0, 1), BuildingBlock: KIFKEQ_clean_linker_1, # of connection points: 2
#     Edge 25, Type (0, 1), BuildingBlock: KIFKEQ_clean_linker_1, # of connection points: 2
#     Edge 26, Type (0, 1), BuildingBlock: KIFKEQ_clean_linker_1, # of connection points: 2
#     Edge 27, Type (0, 1), BuildingBlock: KIFKEQ_clean_linker_1, # of connection points: 2
#     Edge 28, Type (0, 1), BuildingBlock: KIFKEQ_clean_linker_1, # of connection points: 2
#     Edge 29, Type (0, 1), BuildingBlock: KIFKEQ_clean_linker_1, # of connection points: 2
#     Edge 30, Type (0, 1), BuildingBlock: KIFKEQ_clean_linker_1, # of connection points: 2
#     Edge 31, Type (0, 1), BuildingBlock: KIFKEQ_clean_linker_1, # of connection points: 2
#     Edge 32, Type (0, 1), BuildingBlock: KIFKEQ_clean_linker_1, # of connection points: 2
#     Edge 33, Type (0, 1), BuildingBlock: KIFKEQ_clean_linker_1, # of connection points: 2
#     Edge 34, Type (0, 1), BuildingBlock: KIFKEQ_clean_linker_1, # of connection points: 2
#     Edge 35, Type (0, 1), BuildingBlock: KIFKEQ_clean_linker_1, # of connection points: 2
# Relax obj value: 0.028
# Max RMSD: 0.091
# Mean RMSD: 0.039
data_MOF--net-pyr--node1-BETDEL_clean_sbu_0--node2-MIDCAF_clean_linker_0--edge1-KIFKEQ_clean_linker_1
_symmetry_space_group_name_H-M    P1
_symmetry_Int_Tables_number       1
_symmetry_cell_setting            triclinic
loop_
_symmetry_equiv_pos_as_xyz
'x, y, z'
_cell_length_a     45.651854
_cell_length_b     47.483315
_cell_length_c     43.806297
_cell_angle_alpha  91.592867
_cell_angle_beta   89.15827
_cell_angle_gamma 94.904172
loop_
_atom_site_label
_atom_site_type_symbol
_atom_site_fract_x
_atom_site_fract_y
_atom_site_fract_z
_atom_type_partial_charge
C0 C 0.15942 0.19842 0.2791 0.0
C1 C 0.16622 0.17229 0.29015 0.0
C2 C 0.1925 0.16126 0.28041 0.0
C3 C 0.21083 0.17531 0.25896 0.0
H4 H 0.28389 0.16638 0.20781 0.0
H5 H 0.32146 0.1391 0.1848 0.0
H6 H 0.32535 0.19217 0.10608 0.0
H7 H 0.2872 0.21926 0.12874 0.0
H8 H 0.22062 0.24591 0.11624 0.0
H9 H 0.19065 0.27508 0.08675 0.0
H10 H 0.16352 0.31679 0.17027 0.0
H11 H 0.19211 0.28642 0.19964 0.0
H12 H 0.17128 0.23207 0.24873 0.0
H13 H 0.13961 0.20773 0.28661 0.0
H14 H 0.19829 0.14104 0.28822 0.0
H15 H 0.23029 0.16556 0.25114 0.0
N16 N 0.24395 0.20087 0.20915 0.0
N17 N 0.24619 0.23059 0.16718 0.0
N18 N 0.20938 0.23409 0.2047 0.0
C19 C 0.25737 0.2097 0.18281 0.0
C20 C 0.22238 0.24306 0.17825 0.0
C21 C 0.21997 0.21294 0.22027 0.0
C22 C 0.28225 0.1949 0.17002 0.0
C23 C 0.29284 0.17246 0.18569 0.0
C24 C 0.31457 0.15688 0.17259 0.0
C25 C 0.32626 0.16338 0.14356 0.0
C26 C 0.31642 0.1864 0.12831 0.0
C27 C 0.29467 0.20201 0.1414 0.0
C28 C 0.20842 0.26378 0.16019 0.0
C29 C 0.20855 0.26162 0.12817 0.0
C30 C 0.19138 0.2784 0.11128 0.0
C31 C 0.1742 0.29802 0.12611 0.0
C32 C 0.17566 0.30129 0.1581 0.0
C33 C 0.19229 0.28412 0.17496 0.0
C34 C 0.2032 0.20063 0.24657 0.0
C35 C 0.17771 0.21245 0.25753 0.0
C36 C 0.21076 0.88175 0.61744 0.0
C37 C 0.18873 0.86454 0.60212 0.0
C38 C 0.19108 0.83512 0.60026 0.0
C39 C 0.21466 0.8233 0.61377 0.0
H40 H 0.27424 0.75328 0.6085 0.0
H41 H 0.29976 0.71268 0.58941 0.0
H42 H 0.3761 0.74263 0.64178 0.0
H43 H 0.35107 0.78269 0.66071 0.0
H44 H 0.34498 0.82303 0.71486 0.0
H45 H 0.36627 0.84804 0.75947 0.0
H46 H 0.29365 0.90065 0.76414 0.0
H47 H 0.27198 0.87551 0.71941 0.0
H48 H 0.25023 0.88386 0.64322 0.0
H49 H 0.21043 0.90452 0.61854 0.0
H50 H 0.17446 0.82112 0.5889 0.0
H51 H 0.21577 0.8006 0.61234 0.0
N52 N 0.27223 0.80515 0.63451 0.0
N53 N 0.30642 0.80932 0.67421 0.0
N54 N 0.27133 0.8421 0.67134 0.0
C55 C 0.29565 0.79555 0.64869 0.0
C56 C 0.29433 0.83243 0.68582 0.0
C57 C 0.26014 0.82863 0.64576 0.0
C58 C 0.31055 0.77116 0.6362 0.0
C59 C 0.2965 0.75118 0.61578 0.0
C60 C 0.311 0.72793 0.60499 0.0
C61 C 0.33992 0.72465 0.61404 0.0
C62 C 0.35395 0.74479 0.63415 0.0
C63 C 0.33944 0.76766 0.64518 0.0
C64 C 0.30678 0.84731 0.71343 0.0
C65 C 0.33338 0.83983 0.72537 0.0
C66 C 0.3457 0.85424 0.75086 0.0
C67 C 0.33166 0.87634 0.76512 0.0
C68 C 0.30481 0.88355 0.75365 0.0
C69 C 0.29254 0.86926 0.72794 0.0
C70 C 0.23596 0.8406 0.62988 0.0
C71 C 0.23382 0.86991 0.63142 0.0
C72 C 0.62248 0.24621 0.90652 0.0
C73 C 0.60354 0.2272 0.88943 0.0
C74 C 0.59743 0.23366 0.85915 0.0
C75 C 0.60984 0.25878 0.84634 0.0
H76 H 0.59532 0.32157 0.78046 0.0
H77 H 0.5741 0.34472 0.73789 0.0
H78 H 0.64183 0.41368 0.74589 0.0
H79 H 0.66274 0.391 0.78848 0.0
H80 H 0.70647 0.39494 0.84432 0.0
H81 H 0.75141 0.41673 0.86717 0.0
H82 H 0.76444 0.33825 0.91075 0.0
H83 H 0.71889 0.31692 0.88896 0.0
H84 H 0.64989 0.28503 0.90748 0.0
H85 H 0.62773 0.24173 0.92983 0.0
H86 H 0.58276 0.21945 0.84551 0.0
H87 H 0.60469 0.26321 0.823 0.0
N88 N 0.63111 0.31604 0.82577 0.0
N89 N 0.66898 0.35282 0.8272 0.0
N90 N 0.66823 0.31656 0.86241 0.0
C91 C 0.64392 0.34061 0.81428 0.0
C92 C 0.68136 0.34089 0.85114 0.0
C93 C 0.64313 0.304 0.85 0.0
C94 C 0.63079 0.35433 0.7881 0.0
C95 C 0.60569 0.34169 0.7732 0.0
C96 C 0.59358 0.3549 0.74864 0.0
C97 C 0.60617 0.38115 0.73847 0.0
C98 C 0.63125 0.39372 0.75336 0.0
C99 C 0.64338 0.38052 0.77776 0.0
C100 C 0.70896 0.35417 0.86481 0.0
C101 C 0.71891 0.38234 0.8588 0.0
C102 C 0.74486 0.3948 0.8718 0.0
C103 C 0.76178 0.37933 0.89087 0.0
C104 C 0.75184 0.35108 0.8967 0.0
C105 C 0.72571 0.33874 0.88401 0.0
C106 C 0.62909 0.27765 0.86338 0.0
C107 C 0.63528 0.27098 0.8936 0.0
C108 C 0.73572 0.6448 0.38833 0.0
C109 C 0.73052 0.61525 0.38945 0.0
C110 C 0.75064 0.59831 0.37496 0.0
C111 C 0.77531 0.61067 0.35938 0.0
H112 H 0.83161 0.59635 0.28465 0.0
H113 H 0.85379 0.57156 0.24203 0.0
H114 H 0.91082 0.6466 0.22325 0.0
H115 H 0.88927 0.67116 0.26638 0.0
H116 H 0.89871 0.7165 0.3261 0.0
H117 H 0.92051 0.76239 0.34488 0.0
H118 H 0.83855 0.77825 0.38979 0.0
H119 H 0.81669 0.73229 0.37127 0.0
H120 H 0.76414 0.68002 0.37309 0.0
H121 H 0.72063 0.65835 0.39943 0.0
H122 H 0.74708 0.57547 0.37535 0.0
H123 H 0.79035 0.59703 0.34835 0.0
N124 N 0.82049 0.63921 0.31966 0.0
N125 N 0.85596 0.67757 0.31397 0.0
N126 N 0.81853 0.67994 0.35101 0.0
C127 C 0.84475 0.65119 0.30499 0.0
C128 C 0.84303 0.69208 0.33698 0.0
C129 C 0.80721 0.65347 0.34263 0.0
C130 C 0.85858 0.63585 0.27913 0.0
C131 C 0.84892 0.60761 0.27151 0.0
C132 C 0.86155 0.59339 0.24685 0.0
C133 C 0.88411 0.60701 0.22897 0.0
C134 C 0.89382 0.63522 0.23667 0.0
C135 C 0.8813 0.6494 0.26142 0.0
C136 C 0.85593 0.72058 0.34723 0.0
C137 C 0.88523 0.72979 0.33982 0.0
C138 C 0.8978 0.75604 0.3507 0.0
C139 C 0.88126 0.77392 0.36885 0.0
C140 C 0.85179 0.76503 0.37568 0.0
C141 C 0.83934 0.7386 0.3652 0.0
C142 C 0.78073 0.64027 0.35856 0.0
C143 C 0.7607 0.65718 0.37335 0.0
C144 C 0.69572 0.84891 0.85123 0.0
C145 C 0.68294 0.84057 0.87927 0.0
C146 C 0.69523 0.81938 0.89543 0.0
C147 C 0.72089 0.80814 0.88479 0.0
H148 H 0.78521 0.74095 0.89202 0.0
H149 H 0.81376 0.70815 0.91867 0.0
H150 H 0.8932 0.76181 0.90072 0.0
H151 H 0.86492 0.7935 0.87291 0.0
H152 H 0.8628 0.80913 0.79761 0.0
H153 H 0.88962 0.8327 0.75588 0.0
H154 H 0.8139 0.87767 0.73669 0.0
H155 H 0.78672 0.85379 0.77812 0.0
H156 H 0.7312 0.84553 0.81949 0.0
H157 H 0.68695 0.86534 0.83832 0.0
H158 H 0.68555 0.81215 0.91685 0.0
H159 H 0.73041 0.79268 0.89845 0.0
N160 N 0.7786 0.79239 0.86691 0.0
N161 N 0.82072 0.79919 0.83582 0.0
N162 N 0.77861 0.82137 0.82435 0.0
C163 C 0.80685 0.78722 0.8604 0.0
C164 C 0.80674 0.8161 0.81753 0.0
C165 C 0.76435 0.80961 0.84896 0.0
C166 C 0.82299 0.76937 0.87998 0.0
C167 C 0.80873 0.74576 0.89414 0.0
C168 C 0.82509 0.7271 0.90952 0.0
C169 C 0.85588 0.73209 0.91138 0.0
C170 C 0.86968 0.75684 0.89893 0.0
C171 C 0.85347 0.77508 0.88311 0.0
C172 C 0.82258 0.82963 0.79135 0.0
C173 C 0.85174 0.82395 0.78447 0.0
C174 C 0.86722 0.83755 0.76064 0.0
C175 C 0.85391 0.85711 0.74313 0.0
C176 C 0.82463 0.86247 0.74961 0.0
C177 C 0.80911 0.84886 0.77347 0.0
C178 C 0.73478 0.81789 0.85776 0.0
C179 C 0.72131 0.83766 0.84056 0.0
C180 C 0.71626 0.13445 0.23949 0.0
C181 C 0.68797 0.13949 0.22999 0.0
C182 C 0.67392 0.16181 0.24377 0.0
C183 C 0.68747 0.17832 0.26717 0.0
H184 H 0.66801 0.23387 0.33203 0.0
H185 H 0.64007 0.27096 0.35363 0.0
H186 H 0.71575 0.3046 0.405 0.0
H187 H 0.74417 0.26714 0.38325 0.0
H188 H 0.78775 0.21261 0.39782 0.0
H189 H 0.82743 0.19239 0.42417 0.0
H190 H 0.84046 0.13725 0.34594 0.0
H191 H 0.80137 0.15763 0.31942 0.0
H192 H 0.75138 0.14614 0.27044 0.0
H193 H 0.72752 0.1173 0.22926 0.0
H194 H 0.65229 0.16644 0.23654 0.0
H195 H 0.67568 0.19507 0.2775 0.0
N196 N 0.71447 0.21061 0.31676 0.0
N197 N 0.75042 0.21771 0.35448 0.0
N198 N 0.75373 0.18211 0.31654 0.0
C199 C 0.72517 0.22503 0.34191 0.0
C200 C 0.76486 0.19622 0.34181 0.0
C201 C 0.72857 0.18924 0.30385 0.0
C202 C 0.70843 0.24756 0.35584 0.0
C203 C 0.67886 0.2491 0.34792 0.0
C204 C 0.6627 0.27024 0.36046 0.0
C205 C 0.67571 0.29056 0.38105 0.0
C206 C 0.70527 0.2892 0.38905 0.0
C207 C 0.72144 0.26773 0.37673 0.0
C208 C 0.79109 0.18655 0.3566 0.0
C209 C 0.79936 0.19649 0.38604 0.0
C210 C 0.822 0.1848 0.40122 0.0
C211 C 0.83693 0.16308 0.38723 0.0
C212 C 0.82959 0.15413 0.35727 0.0
C213 C 0.80695 0.1657 0.34216 0.0
C214 C 0.7154 0.17283 0.27749 0.0
C215 C 0.72982 0.1509 0.26314 0.0
C216 C 0.2606 0.60659 0.13804 0.0
C217 C 0.24436 0.62126 0.11764 0.0
C218 C 0.25443 0.64916 0.1106 0.0
C219 C 0.2802 0.66206 0.12357 0.0
H220 H 0.35053 0.72154 0.10508 0.0
H221 H 0.37271 0.76504 0.08376 0.0
H222 H 0.42345 0.78188 0.1658 0.0
H223 H 0.40208 0.73756 0.18662 0.0
H224 H 0.40898 0.68142 0.22953 0.0
H225 H 0.43036 0.6584 0.27207 0.0
H226 H 0.36357 0.58866 0.26341 0.0
H227 H 0.34253 0.61122 0.22082 0.0
H228 H 0.29805 0.60763 0.16698 0.0
H229 H 0.25326 0.58515 0.14413 0.0
H230 H 0.24255 0.66094 0.09476 0.0
H231 H 0.28729 0.68357 0.11756 0.0
N232 N 0.33619 0.68605 0.14746 0.0
N233 N 0.37308 0.68686 0.18438 0.0
N234 N 0.33605 0.64938 0.18213 0.0
C235 C 0.36093 0.69899 0.16028 0.0
C236 C 0.36076 0.66194 0.19541 0.0
C237 C 0.32356 0.66129 0.15825 0.0
C238 C 0.37449 0.72592 0.14764 0.0
C239 C 0.36641 0.73449 0.11867 0.0
C240 C 0.37903 0.75967 0.10646 0.0
C241 C 0.39989 0.77729 0.12298 0.0
C242 C 0.40786 0.76877 0.15208 0.0
C243 C 0.39546 0.74335 0.16416 0.0
C244 C 0.37399 0.64826 0.22155 0.0
C245 C 0.39886 0.66116 0.23664 0.0
C246 C 0.41105 0.64802 0.26118 0.0
C247 C 0.39878 0.62159 0.27117 0.0
C248 C 0.37392 0.60876 0.25609 0.0
C249 C 0.3617 0.62189 0.23169 0.0
C250 C 0.29638 0.64746 0.14416 0.0
C251 C 0.2862 0.61957 0.15126 0.0
C252 C 0.15209 0.2376 0.62568 0.0
C253 C 0.12223 0.22935 0.63127 0.0
C254 C 0.10562 0.24732 0.6492 0.0
C255 C 0.11852 0.27304 0.66114 0.0
H256 H 0.11511 0.32945 0.73736 0.0
H257 H 0.09351 0.35357 0.78095 0.0
H258 H 0.15347 0.42737 0.76593 0.0
H259 H 0.17491 0.40349 0.72218 0.0
H260 H 0.21544 0.40433 0.65816 0.0
H261 H 0.259 0.42624 0.63197 0.0
H262 H 0.28477 0.34367 0.60542 0.0
H263 H 0.24093 0.32166 0.63095 0.0
H264 H 0.18784 0.2694 0.63204 0.0
H265 H 0.1654 0.22429 0.61177 0.0
H266 H 0.08261 0.24144 0.65405 0.0
H267 H 0.105 0.28645 0.67468 0.0
N268 N 0.14878 0.32365 0.68978 0.0
N269 N 0.18491 0.36164 0.68552 0.0
N270 N 0.1863 0.32181 0.65275 0.0
C271 C 0.16042 0.34959 0.69972 0.0
C272 C 0.19802 0.34787 0.66209 0.0
C273 C 0.16155 0.30963 0.66629 0.0
C274 C 0.14682 0.36445 0.72608 0.0
C275 C 0.12369 0.35085 0.74323 0.0
C276 C 0.1114 0.36462 0.76841 0.0
C277 C 0.12175 0.39242 0.77702 0.0
C278 C 0.14472 0.40608 0.75978 0.0
C279 C 0.15714 0.39227 0.73472 0.0
C280 C 0.22468 0.36123 0.64665 0.0
C281 C 0.23039 0.39083 0.64676 0.0
C282 C 0.25522 0.4034 0.63165 0.0
C283 C 0.27523 0.38664 0.6167 0.0
C284 C 0.26976 0.35707 0.61689 0.0
C285 C 0.2446 0.34451 0.6314 0.0
C286 C 0.14824 0.28165 0.65497 0.0
C287 C 0.16488 0.26354 0.63716 0.0
Dy288 Dy 0.01386 0.0124 0.46769 0.0
C289 C 0.96117 0.96779 0.57727 0.0
C290 C 0.03499 0.04189 0.41842 0.0
Dy291 Dy 0.98547 0.99455 0.52765 0.0
O292 O 0.04428 0.01846 0.42734 0.0
O293 O 0.01359 0.04898 0.43606 0.0
O294 O 0.04134 0.97563 0.46729 0.0
O295 O 0.02994 0.99463 0.50923 0.0
C296 C 0.04196 0.97419 0.4968 0.0
C297 C 0.95913 0.0338 0.49834 0.0
O298 O 0.01685 0.02907 0.54674 0.0
O299 O 0.02838 0.04892 0.49977 0.0
O300 O 0.94777 0.98389 0.55971 0.0
O301 O 0.98814 0.96634 0.56793 0.0
O302 O 0.96099 0.03344 0.52785 0.0
O303 O 0.96968 0.01246 0.48618 0.0
O304 O 0.9813 0.97832 0.44959 0.0
O305 O 0.97457 0.95675 0.49625 0.0
C306 C 0.02901 0.04998 0.5301 0.0
C307 C 0.97178 0.95632 0.46611 0.0
Dy308 Dy 0.52601 0.00925 0.02877 0.0
C309 C 0.44012 0.97467 0.94054 0.0
C310 C 0.56668 0.03234 0.06927 0.0
Dy311 Dy 0.47909 0.99592 0.98363 0.0
O312 O 0.54627 0.01253 0.07522 0.0
O313 O 0.5649 0.03976 0.04111 0.0
O314 O 0.52584 0.96351 0.03941 0.0
O315 O 0.48591 0.97995 0.02905 0.0
C316 C 0.49789 0.95774 0.0351 0.0
C317 C 0.50751 0.04744 0.97784 0.0
O318 O 0.45149 0.01476 0.01957 0.0
O319 O 0.49126 0.03712 0.04515 0.0
O320 O 0.46132 0.99409 0.93622 0.0
O321 O 0.44003 0.96661 0.96865 0.0
O322 O 0.47947 0.042 0.97411 0.0
O323 O 0.51927 0.02499 0.98331 0.0
O324 O 0.55314 0.98959 0.99304 0.0
O325 O 0.51319 0.96701 0.96807 0.0
C326 C 0.4626 0.03329 0.04026 0.0
C327 C 0.54185 0.97066 0.97287 0.0
Dy328 Dy 0.513 0.47813 0.48443 0.0
C329 C 0.45896 0.56272 0.55314 0.0
C330 C 0.54837 0.44202 0.45569 0.0
Dy331 Dy 0.49358 0.52561 0.52487 0.0
O332 O 0.51981 0.43952 0.45497 0.0
O333 O 0.55748 0.46437 0.4717 0.0
O334 O 0.4664 0.45863 0.48146 0.0
O335 O 0.48068 0.4805 0.52147 0.0
C336 C 0.45862 0.46834 0.50815 0.0
C337 C 0.54794 0.53519 0.50078 0.0
O338 O 0.50842 0.49873 0.56193 0.0
O339 O 0.53374 0.46965 0.52958 0.0
O340 O 0.48751 0.56455 0.55404 0.0
O341 O 0.44943 0.54039 0.53732 0.0
O342 O 0.54042 0.54485 0.52756 0.0
O343 O 0.52567 0.52322 0.48772 0.0
O344 O 0.4978 0.50485 0.44743 0.0
O345 O 0.47246 0.53381 0.47987 0.0
C346 C 0.52695 0.47891 0.55749 0.0
C347 C 0.47916 0.52455 0.45195 0.0
Dy348 Dy 0.01088 0.47045 0.01664 0.0
C349 C 0.97009 0.57311 0.97809 0.0
C350 C 0.04067 0.42449 0.02714 0.0
Dy351 Dy 0.99613 0.52573 0.99206 0.0
O352 O 0.01496 0.42869 0.03866 0.0
O353 O 0.0498 0.44516 0.00975 0.0
O354 O 0.97658 0.47236 0.05376 0.0
O355 O 0.99848 0.50989 0.03803 0.0
C356 C 0.97783 0.49981 0.05498 0.0
C357 C 0.03019 0.49618 0.9549 0.0
O358 O 0.03666 0.54275 0.01643 0.0
O359 O 0.05172 0.49891 0.02805 0.0
O360 O 0.98301 0.5571 0.95859 0.0
O361 O 0.97159 0.56344 0.00538 0.0
O362 O 0.03273 0.52361 0.95751 0.0
O363 O 0.00863 0.48619 0.97072 0.0
O364 O 0.97214 0.45442 0.98865 0.0
O365 O 0.95386 0.49818 0.9855 0.0
C366 C 0.0564 0.52688 0.02724 0.0
C367 C 0.95065 0.47025 0.98213 0.0
H368 H 0.17855 0.14105 0.33915 0.0
H369 H 0.10624 0.16529 0.28587 0.0
H370 H 0.14451 0.10932 0.36807 0.0
H371 H 0.07214 0.13393 0.31539 0.0
H372 H 0.02182 0.0942 0.40145 0.0
H373 H 0.05243 0.12735 0.37004 0.0
H374 H 0.11384 0.06405 0.35396 0.0
H375 H 0.08342 0.03109 0.38521 0.0
C376 C 0.15541 0.13968 0.33367 0.0
C377 C 0.14516 0.15553 0.31005 0.0
C378 C 0.13594 0.12152 0.35021 0.0
C379 C 0.1058 0.11895 0.34364 0.0
C380 C 0.09529 0.13561 0.32093 0.0
C381 C 0.11481 0.15366 0.30418 0.0
C382 C 0.04159 0.0873 0.39071 0.0
C383 C 0.05043 0.06024 0.39582 0.0
C384 C 0.05907 0.10622 0.37282 0.0
C385 C 0.08569 0.09835 0.36007 0.0
C386 C 0.0937 0.0708 0.36405 0.0
C387 C 0.07618 0.05189 0.38169 0.0
H388 H 0.38875 0.89709 0.76994 0.0
H389 H 0.30597 0.89139 0.81936 0.0
H390 H 0.41251 0.92212 0.81338 0.0
H391 H 0.32979 0.91703 0.86294 0.0
H392 H 0.39717 0.93098 0.94424 0.0
H393 H 0.36852 0.9084 0.90192 0.0
H394 H 0.41101 0.96879 0.84001 0.0
H395 H 0.43965 0.991 0.88197 0.0
C396 C 0.37566 0.90121 0.79015 0.0
C397 C 0.34557 0.89222 0.79138 0.0
C398 C 0.38918 0.91577 0.81489 0.0
C399 C 0.37294 0.9216 0.84146 0.0
C400 C 0.34281 0.91267 0.84276 0.0
C401 C 0.32918 0.89824 0.81781 0.0
C402 C 0.40006 0.93952 0.92161 0.0
C403 C 0.42074 0.96249 0.91621 0.0
C404 C 0.38363 0.92672 0.89748 0.0
C405 C 0.38781 0.93671 0.86768 0.0
C406 C 0.40771 0.96038 0.86266 0.0
C407 C 0.424 0.97314 0.88669 0.0
H408 H 0.58447 0.35717 0.68471 0.0
H409 H 0.59907 0.43758 0.73297 0.0
H410 H 0.56484 0.38078 0.64164 0.0
H411 H 0.58037 0.46127 0.68956 0.0
H412 H 0.5173 0.49054 0.61841 0.0
H413 H 0.53541 0.46677 0.66214 0.0
H414 H 0.5817 0.41244 0.60112 0.0
H415 H 0.5633 0.43585 0.55742 0.0
C416 C 0.58338 0.37986 0.68622 0.0
C417 C 0.59345 0.39543 0.71236 0.0
C418 C 0.57243 0.39346 0.66135 0.0
C419 C 0.57111 0.42299 0.66199 0.0
C420 C 0.58081 0.4385 0.6883 0.0
C421 C 0.59185 0.42492 0.71311 0.0
C422 C 0.5314 0.47357 0.61428 0.0
C423 C 0.53878 0.46516 0.58429 0.0
C424 C 0.5419 0.45999 0.63941 0.0
C425 C 0.55998 0.43759 0.63524 0.0
C426 C 0.56747 0.4293 0.60524 0.0
C427 C 0.55706 0.44291 0.58013 0.0
H428 H 0.94195 0.61037 0.2098 0.0
H429 H 0.85646 0.56932 0.18769 0.0
H430 H 0.96354 0.58554 0.16672 0.0
H431 H 0.87822 0.5442 0.14492 0.0
H432 H 0.93459 0.48053 0.09457 0.0
H433 H 0.91158 0.5069 0.13574 0.0
H434 H 0.96421 0.58281 0.11045 0.0
H435 H 0.98744 0.55627 0.06943 0.0
C436 C 0.92765 0.59628 0.19564 0.0
C437 C 0.89738 0.5919 0.20242 0.0
C438 C 0.94009 0.58201 0.17089 0.0
C439 C 0.92265 0.56283 0.15232 0.0
C440 C 0.89239 0.55851 0.15899 0.0
C441 C 0.87992 0.57289 0.18363 0.0
C442 C 0.94113 0.50288 0.09773 0.0
C443 C 0.96287 0.51631 0.07884 0.0
C444 C 0.92784 0.51804 0.12123 0.0
C445 C 0.93607 0.54699 0.12651 0.0
C446 C 0.9576 0.56048 0.10729 0.0
C447 C 0.97077 0.54533 0.08365 0.0
H448 H 0.37305 0.141 0.16938 0.0
H449 H 0.32716 0.14452 0.08417 0.0
H450 H 0.40583 0.10861 0.14552 0.0
H451 H 0.36059 0.11308 0.06006 0.0
H452 H 0.40278 0.0319 0.03655 0.0
H453 H 0.37043 0.06348 0.06218 0.0
H454 H 0.44517 0.10773 0.10708 0.0
H455 H 0.47753 0.07584 0.08194 0.0
C456 C 0.37006 0.13496 0.14553 0.0
C457 C 0.3475 0.14528 0.12867 0.0
C458 C 0.38898 0.11661 0.13181 0.0
C459 C 0.38569 0.10819 0.10096 0.0
C460 C 0.36342 0.11887 0.08399 0.0
C461 C 0.34453 0.1372 0.0977 0.0
C462 C 0.41233 0.04824 0.05202 0.0
C463 C 0.44276 0.05139 0.05712 0.0
C464 C 0.3938 0.06646 0.06654 0.0
C465 C 0.40529 0.08823 0.08645 0.0
C466 C 0.43563 0.09102 0.09205 0.0
C467 C 0.45418 0.07279 0.07754 0.0
H468 H 0.15915 0.84828 0.54924 0.0
H469 H 0.16103 0.91029 0.62352 0.0
H470 H 0.12004 0.87123 0.52559 0.0
H471 H 0.12434 0.93481 0.59844 0.0
H472 H 0.04523 0.96721 0.55823 0.0
H473 H 0.07638 0.93694 0.58475 0.0
H474 H 0.11304 0.9106 0.49791 0.0
H475 H 0.08009 0.93904 0.47166 0.0
C476 C 0.15125 0.86674 0.56063 0.0
C477 C 0.16368 0.87755 0.58818 0.0
C478 C 0.12907 0.88026 0.54675 0.0
C479 C 0.1191 0.90523 0.55976 0.0
C480 C 0.13101 0.91552 0.58773 0.0
C481 C 0.15267 0.9017 0.6019 0.0
C482 C 0.05956 0.95448 0.54491 0.0
C483 C 0.06018 0.95537 0.51295 0.0
C484 C 0.07775 0.93736 0.56008 0.0
C485 C 0.09759 0.92133 0.54361 0.0
C486 C 0.09779 0.92208 0.5115 0.0
C487 C 0.07909 0.93867 0.49637 0.0
H488 H 0.80288 0.4177 0.86523 0.0
H489 H 0.78419 0.37098 0.94762 0.0
H490 H 0.84799 0.43962 0.88782 0.0
H491 H 0.82991 0.39224 0.96958 0.0
H492 H 0.93081 0.41408 0.98156 0.0
H493 H 0.88515 0.39195 0.95977 0.0
H494 H 0.86201 0.47361 0.93198 0.0
H495 H 0.90742 0.49579 0.95381 0.0
C496 C 0.80818 0.41219 0.8882 0.0
C497 C 0.78965 0.39253 0.90454 0.0
C498 C 0.83415 0.4247 0.90108 0.0
C499 C 0.84249 0.41764 0.93045 0.0
C500 C 0.82423 0.39785 0.94674 0.0
C501 C 0.79805 0.38559 0.93404 0.0
C502 C 0.91596 0.42732 0.97084 0.0
C503 C 0.92279 0.4567 0.96944 0.0
C504 C 0.88977 0.41465 0.9585 0.0
C505 C 0.87006 0.43105 0.9441 0.0
C506 C 0.8769 0.4604 0.94268 0.0
C507 C 0.90285 0.4731 0.95537 0.0
H508 H 0.72819 0.57529 0.43339 0.0
H509 H 0.67331 0.62588 0.38197 0.0
H510 H 0.68455 0.5545 0.4607 0.0
H511 H 0.6297 0.6047 0.40877 0.0
H512 H 0.55853 0.53446 0.43933 0.0
H513 H 0.60307 0.553 0.4123 0.0
H514 H 0.64466 0.57512 0.49851 0.0
H515 H 0.59974 0.55719 0.52564 0.0
C516 C 0.70677 0.58179 0.42782 0.0
C517 C 0.7041 0.6022 0.40561 0.0
C518 C 0.68188 0.57003 0.44352 0.0
C519 C 0.65377 0.57796 0.43679 0.0
C520 C 0.65108 0.59808 0.41427 0.0
C521 C 0.67601 0.61029 0.39908 0.0
C522 C 0.57722 0.54315 0.45252 0.0
C523 C 0.57564 0.54452 0.4846 0.0
C524 C 0.60264 0.55385 0.43704 0.0
C525 C 0.62726 0.56557 0.45331 0.0
C526 C 0.62603 0.56611 0.48542 0.0
C527 C 0.60035 0.55594 0.50091 0.0
H528 H 0.1196 0.31251 0.14369 0.0
H529 H 0.18212 0.31956 0.06859 0.0
H530 H 0.08714 0.34051 0.11668 0.0
H531 H 0.14826 0.34546 0.04024 0.0
H532 H 0.0993 0.42292 0.01817 0.0
H533 H 0.13092 0.3901 0.03959 0.0
H534 H 0.05442 0.34204 0.07679 0.0
H535 H 0.02306 0.37617 0.05681 0.0
C536 C 0.12646 0.31997 0.12135 0.0
C537 C 0.15381 0.31412 0.10862 0.0
C538 C 0.10744 0.33556 0.10549 0.0
C539 C 0.11492 0.34527 0.07614 0.0
C540 C 0.1419 0.33872 0.06298 0.0
C541 C 0.16121 0.32351 0.07911 0.0
C542 C 0.08928 0.40512 0.03063 0.0
C543 C 0.05886 0.40214 0.03617 0.0
C544 C 0.10739 0.38614 0.04278 0.0
C545 C 0.09535 0.36348 0.06026 0.0
C546 C 0.06458 0.35965 0.06416 0.0
C547 C 0.04654 0.37899 0.0525 0.0
H548 H 0.60201 0.17305 0.86597 0.0
H549 H 0.57523 0.22183 0.94455 0.0
H550 H 0.58065 0.1296 0.88955 0.0
H551 H 0.55363 0.1785 0.96792 0.0
H552 H 0.48573 0.09853 0.97433 0.0
H553 H 0.51008 0.14211 0.95417 0.0
H554 H 0.58934 0.10019 0.93811 0.0
H555 H 0.56505 0.05655 0.95893 0.0
C556 C 0.59146 0.17447 0.8882 0.0
C557 C 0.59023 0.20082 0.90339 0.0
C558 C 0.5795 0.14961 0.90181 0.0
C559 C 0.56556 0.15067 0.93061 0.0
C560 C 0.56418 0.17705 0.94569 0.0
C561 C 0.57661 0.20181 0.93236 0.0
C562 C 0.50847 0.09872 0.96681 0.0
C563 C 0.5235 0.07419 0.96814 0.0
C564 C 0.52241 0.12367 0.95534 0.0
C565 C 0.55155 0.1245 0.94442 0.0
C566 C 0.56678 0.10006 0.94616 0.0
C567 C 0.55298 0.07519 0.95824 0.0
H568 H 0.93413 0.78378 0.39727 0.0
H569 H 0.85929 0.82591 0.36905 0.0
H570 H 0.95604 0.82829 0.41963 0.0
H571 H 0.88133 0.87057 0.39138 0.0
H572 H 0.94906 0.94971 0.40828 0.0
H573 H 0.92719 0.90603 0.3836 0.0
H574 H 0.94252 0.86013 0.46468 0.0
H575 H 0.96397 0.90351 0.48941 0.0
C576 C 0.92249 0.80262 0.3956 0.0
C577 C 0.89497 0.80132 0.38142 0.0
C578 C 0.93494 0.82805 0.40859 0.0
C579 C 0.92038 0.85291 0.40732 0.0
C580 C 0.89314 0.85179 0.39256 0.0
C581 C 0.88044 0.82621 0.37999 0.0
C582 C 0.94772 0.9303 0.42082 0.0
C583 C 0.95825 0.93015 0.45084 0.0
C584 C 0.93509 0.90534 0.40674 0.0
C585 C 0.93325 0.87964 0.42217 0.0
C586 C 0.94388 0.87953 0.4521 0.0
C587 C 0.95601 0.90447 0.46632 0.0
H588 H 0.31996 0.66868 0.61312 0.0
H589 H 0.3956 0.72562 0.59095 0.0
H590 H 0.34803 0.62828 0.60017 0.0
H591 H 0.42345 0.68552 0.57734 0.0
H592 H 0.47577 0.61019 0.5869 0.0
H593 H 0.44579 0.64856 0.60184 0.0
H594 H 0.37045 0.60346 0.55867 0.0
H595 H 0.4003 0.56475 0.54472 0.0
C596 C 0.34243 0.67251 0.60498 0.0
C597 C 0.3557 0.70021 0.6032 0.0
C598 C 0.35854 0.64942 0.5976 0.0
C599 C 0.38815 0.65364 0.5881 0.0
C600 C 0.40098 0.68146 0.58536 0.0
C601 C 0.38498 0.70445 0.59293 0.0
C602 C 0.45271 0.60839 0.58098 0.0
C603 C 0.44033 0.58461 0.56464 0.0
C604 C 0.43558 0.63046 0.58925 0.0
C605 C 0.40577 0.62928 0.5811 0.0
C606 C 0.39324 0.605 0.56553 0.0
C607 C 0.41035 0.58285 0.55744 0.0
H608 H 0.83512 0.86789 0.6861 0.0
H609 H 0.91062 0.88067 0.74478 0.0
H610 H 0.86215 0.89445 0.64635 0.0
H611 H 0.93768 0.90729 0.70498 0.0
H612 H 0.98459 0.92952 0.61316 0.0
H613 H 0.95924 0.90165 0.65338 0.0
H614 H 0.88046 0.94361 0.63869 0.0
H615 H 0.90554 0.97088 0.59835 0.0
C616 C 0.85744 0.87649 0.69053 0.0
C617 C 0.87071 0.87232 0.71858 0.0
C618 C 0.87292 0.89169 0.6678 0.0
C619 C 0.90197 0.9031 0.67266 0.0
C620 C 0.91544 0.8985 0.70048 0.0
C621 C 0.89995 0.88327 0.72324 0.0
C622 C 0.96191 0.93279 0.61873 0.0
C623 C 0.94692 0.95219 0.6027 0.0
C624 C 0.94744 0.91695 0.64174 0.0
C625 C 0.9178 0.9203 0.64896 0.0
C626 C 0.90312 0.94017 0.63323 0.0
C627 C 0.91753 0.95593 0.61031 0.0
H628 H 0.7094 0.12163 0.17469 0.0
H629 H 0.63166 0.11604 0.23231 0.0
H630 H 0.68251 0.09305 0.13503 0.0
H631 H 0.60478 0.08815 0.19275 0.0
H632 H 0.57149 0.01799 0.1283 0.0
H633 H 0.60358 0.04136 0.16703 0.0
H634 H 0.64084 0.09956 0.09994 0.0
H635 H 0.60889 0.07582 0.06099 0.0
C636 C 0.68667 0.11411 0.17891 0.0
C637 C 0.67251 0.12116 0.20642 0.0
C638 C 0.67126 0.09799 0.1562 0.0
C639 C 0.64157 0.0884 0.16083 0.0
C640 C 0.62771 0.09497 0.18864 0.0
C641 C 0.643 0.11119 0.21116 0.0
C642 C 0.58673 0.03562 0.12179 0.0
C643 C 0.58761 0.04531 0.0918 0.0
C644 C 0.60501 0.04903 0.14395 0.0
C645 C 0.62453 0.07241 0.13654 0.0
C646 C 0.62617 0.08145 0.10623 0.0
C647 C 0.6078 0.06801 0.08402 0.0
H648 H 0.41996 0.64566 0.32508 0.0
H649 H 0.40658 0.56529 0.27651 0.0
H650 H 0.43984 0.62221 0.36812 0.0
H651 H 0.42548 0.54174 0.31991 0.0
H652 H 0.48892 0.51313 0.39102 0.0
H653 H 0.47047 0.53672 0.34735 0.0
H654 H 0.4234 0.5903 0.4085 0.0
H655 H 0.44216 0.56708 0.45215 0.0
C656 C 0.42137 0.62302 0.3235 0.0
C657 C 0.41158 0.60741 0.29728 0.0
C658 C 0.43245 0.6095 0.34836 0.0
C659 C 0.43417 0.58002 0.34762 0.0
C660 C 0.42473 0.56448 0.32124 0.0
C661 C 0.41357 0.57797 0.29644 0.0
C662 C 0.47457 0.52989 0.39519 0.0
C663 C 0.46708 0.53815 0.4252 0.0
C664 C 0.46388 0.54337 0.3701 0.0
C665 C 0.44548 0.56552 0.37433 0.0
C666 C 0.43787 0.57364 0.40434 0.0
C667 C 0.44849 0.56014 0.42942 0.0
H668 H 0.10771 0.44734 0.78172 0.0
H669 H 0.10607 0.3709 0.83305 0.0
H670 H 0.08654 0.47158 0.82536 0.0
H671 H 0.08523 0.39524 0.87699 0.0
H672 H 0.01944 0.44031 0.93818 0.0
H673 H 0.04167 0.41492 0.89572 0.0
H674 H 0.09763 0.49028 0.87519 0.0
H675 H 0.07472 0.51571 0.917 0.0
C676 C 0.10312 0.43577 0.80245 0.0
C677 C 0.10867 0.40716 0.80383 0.0
C678 C 0.09101 0.4497 0.82758 0.0
C679 C 0.08424 0.43549 0.85492 0.0
C680 C 0.08974 0.40682 0.85626 0.0
C681 C 0.10173 0.39284 0.83104 0.0
C682 C 0.03658 0.45136 0.92463 0.0
C683 C 0.04517 0.48006 0.93075 0.0
C684 C 0.04947 0.43678 0.90036 0.0
C685 C 0.07135 0.45054 0.88171 0.0
C686 C 0.08044 0.47909 0.88853 0.0
C687 C 0.06747 0.49365 0.91269 0.0
H688 H 0.67742 0.8584 0.93853 0.0
H689 H 0.6349 0.85871 0.85104 0.0
H690 H 0.64182 0.88877 0.96025 0.0
H691 H 0.5998 0.89014 0.87265 0.0
H692 H 0.52671 0.92652 0.93301 0.0
H693 H 0.55897 0.89301 0.9103 0.0
H694 H 0.63357 0.93859 0.95407 0.0
H695 H 0.60149 0.97175 0.9771 0.0
C696 C 0.66018 0.86456 0.92403 0.0
C697 C 0.65902 0.85617 0.89303 0.0
C698 C 0.64005 0.88233 0.93638 0.0
C699 C 0.61833 0.89218 0.91802 0.0
C700 C 0.61631 0.88286 0.88734 0.0
C701 C 0.63651 0.86504 0.87494 0.0
C702 C 0.55003 0.92949 0.93763 0.0
C703 C 0.56151 0.95172 0.95702 0.0
C704 C 0.56848 0.91032 0.92456 0.0
C705 C 0.59871 0.91298 0.93072 0.0
C706 C 0.61025 0.93564 0.94943 0.0
C707 C 0.59187 0.95479 0.96244 0.0
H708 H 0.83216 0.14599 0.44613 0.0
H709 H 0.88984 0.14582 0.36708 0.0
H710 H 0.86439 0.11703 0.47282 0.0
H711 H 0.92234 0.11684 0.39393 0.0
H712 H 0.94757 0.03421 0.4374 0.0
H713 H 0.92076 0.06837 0.41082 0.0
H714 H 0.91212 0.11618 0.49542 0.0
H715 H 0.93826 0.08167 0.52198 0.0
C716 C 0.85209 0.1403 0.43469 0.0
C717 C 0.85841 0.14816 0.40446 0.0
C718 C 0.87059 0.12365 0.44999 0.0
C719 C 0.8959 0.1145 0.43546 0.0
C720 C 0.90275 0.12314 0.40557 0.0
C721 C 0.88419 0.13978 0.39023 0.0
C722 C 0.94005 0.05213 0.45019 0.0
C723 C 0.94465 0.0552 0.48175 0.0
C724 C 0.92489 0.0718 0.43497 0.0
C725 C 0.91415 0.09494 0.45104 0.0
C726 C 0.91965 0.09836 0.48247 0.0
C727 C 0.9347 0.07867 0.49767 0.0
H728 H 0.23525 0.56788 0.09259 0.0
H729 H 0.19156 0.64366 0.11152 0.0
H730 H 0.19042 0.54534 0.06996 0.0
H731 H 0.14641 0.62098 0.08968 0.0
H732 H 0.07816 0.58222 0.02265 0.0
H733 H 0.12372 0.60489 0.04344 0.0
H734 H 0.14254 0.5258 0.08228 0.0
H735 H 0.09759 0.50297 0.06054 0.0
C736 C 0.21594 0.57962 0.09216 0.0
C737 C 0.21696 0.60755 0.10384 0.0
C738 C 0.19016 0.56668 0.07926 0.0
C739 C 0.16462 0.58125 0.07797 0.0
C740 C 0.16571 0.60922 0.08972 0.0
C741 C 0.19159 0.62223 0.10236 0.0
C742 C 0.09205 0.56965 0.03558 0.0
C743 C 0.08417 0.54075 0.03987 0.0
C744 C 0.11815 0.58271 0.0477 0.0
C745 C 0.13694 0.56727 0.06466 0.0
C746 C 0.12897 0.53834 0.06894 0.0
C747 C 0.10302 0.52523 0.0566 0.0
H748 H 0.33231 0.37561 0.62421 0.0
H749 H 0.27798 0.42751 0.57377 0.0
H750 H 0.37618 0.39725 0.59819 0.0
H751 H 0.32186 0.44873 0.54721 0.0
H752 H 0.40705 0.44667 0.48264 0.0
H753 H 0.36195 0.42834 0.50917 0.0
H754 H 0.40286 0.44931 0.59596 0.0
H755 H 0.4476 0.46827 0.56954 0.0
C756 C 0.32979 0.39159 0.60749 0.0
C757 C 0.30179 0.39991 0.601 0.0
C758 C 0.35486 0.40405 0.59274 0.0
C759 C 0.35238 0.42466 0.57071 0.0
C760 C 0.32435 0.43283 0.56402 0.0
C761 C 0.29933 0.42081 0.57929 0.0
C762 C 0.40625 0.44759 0.50737 0.0
C763 C 0.43082 0.45882 0.52402 0.0
C764 C 0.38047 0.43719 0.52252 0.0
C765 C 0.37901 0.43729 0.5546 0.0
C766 C 0.40348 0.44881 0.57122 0.0
C767 C 0.42901 0.45975 0.55609 0.0
H768 H 0.84373 0.69834 0.96087 0.0
H769 H 0.90871 0.7168 0.88977 0.0
H770 H 0.87197 0.66051 0.9782 0.0
H771 H 0.9376 0.68056 0.90825 0.0
H772 H 0.96086 0.59102 0.92124 0.0
H773 H 0.93352 0.63026 0.90695 0.0
H774 H 0.91731 0.6501 0.00234 0.0
H775 H 0.94403 0.60995 0.01655 0.0
C776 C 0.86411 0.69454 0.94913 0.0
C777 C 0.87388 0.71061 0.9239 0.0
C778 C 0.88047 0.6731 0.95929 0.0
C779 C 0.90693 0.66741 0.94446 0.0
C780 C 0.91707 0.68407 0.91987 0.0
C781 C 0.90068 0.70522 0.90958 0.0
C782 C 0.95155 0.60385 0.93914 0.0
C783 C 0.95456 0.59762 0.96995 0.0
C784 C 0.93603 0.62643 0.931 0.0
C785 C 0.92341 0.64345 0.95353 0.0
C786 C 0.92654 0.63723 0.98445 0.0
C787 C 0.94197 0.61442 0.9926 0.0
H788 H 0.37422 0.81436 0.08638 0.0
H789 H 0.45652 0.80146 0.12922 0.0
H790 H 0.397 0.85669 0.06285 0.0
H791 H 0.47861 0.84485 0.10763 0.0
H792 H 0.52083 0.90765 0.0423 0.0
H793 H 0.49663 0.86414 0.06203 0.0
H794 H 0.4152 0.9041 0.07125 0.0
H795 H 0.43941 0.94731 0.05001 0.0
C796 C 0.39717 0.82049 0.09087 0.0
C797 C 0.41347 0.80414 0.10967 0.0
C798 C 0.41017 0.84513 0.07767 0.0
C799 C 0.4398 0.85436 0.08309 0.0
C800 C 0.45593 0.83827 0.10231 0.0
C801 C 0.44304 0.81349 0.11523 0.0
C802 C 0.49768 0.90702 0.0483 0.0
C803 C 0.48205 0.93089 0.04478 0.0
C804 C 0.48381 0.88212 0.05993 0.0
C805 C 0.45396 0.88052 0.06883 0.0
C806 C 0.43811 0.90431 0.06448 0.0
C807 C 0.45197 0.92917 0.0524 0.0
H808 H 0.14229 0.1766 0.6317 0.0
H809 H 0.07076 0.2215 0.6 0.0
H810 H 0.11978 0.1327 0.60808 0.0
H811 H 0.04844 0.17775 0.57621 0.0
H812 H 0.04095 0.10226 0.50629 0.0
H813 H 0.06318 0.14509 0.53166 0.0
H814 H 0.07183 0.09911 0.61419 0.0
H815 H 0.04913 0.05611 0.58892 0.0
C816 C 0.12178 0.17706 0.61969 0.0
C817 C 0.10828 0.20248 0.6177 0.0
C818 C 0.10882 0.15193 0.60635 0.0
C819 C 0.08239 0.15182 0.59025 0.0
C820 C 0.0689 0.17723 0.58831 0.0
C821 C 0.08157 0.20222 0.60209 0.0
C822 C 0.04765 0.10118 0.52982 0.0
C823 C 0.04327 0.07571 0.54557 0.0
C824 C 0.06022 0.12579 0.54439 0.0
C825 C 0.06917 0.12547 0.57492 0.0
C826 C 0.06525 0.09995 0.59059 0.0
C827 C 0.05215 0.07538 0.57617 0.0
H828 H 0.69163 0.34732 0.38459 0.0
H829 H 0.62036 0.28482 0.40534 0.0
H830 H 0.66117 0.38489 0.40125 0.0
H831 H 0.59013 0.32212 0.42268 0.0
H832 H 0.53269 0.39499 0.42068 0.0
H833 H 0.56431 0.35898 0.40242 0.0
H834 H 0.63892 0.40566 0.44524 0.0
H835 H 0.60741 0.44204 0.46249 0.0
C836 C 0.6696 0.34165 0.39318 0.0
C837 C 0.65828 0.31322 0.39356 0.0
C838 C 0.65213 0.36312 0.4027 0.0
C839 C 0.62307 0.35655 0.41303 0.0
C840 C 0.61213 0.328 0.41416 0.0
C841 C 0.62949 0.30661 0.40442 0.0
C842 C 0.5559 0.39761 0.42589 0.0
C843 C 0.56765 0.4212 0.44297 0.0
C844 C 0.57399 0.37689 0.41569 0.0
C845 C 0.60414 0.37928 0.42261 0.0
C846 C 0.6159 0.40327 0.43922 0.0
C847 C 0.59784 0.42406 0.44922 0.0
loop_
_geom_bond_atom_site_label_1
_geom_bond_atom_site_label_2
_geom_bond_distance
_geom_bond_site_symmetry_2
_ccdc_geom_bond_type
C0 C1 1.384 . S
C0 H13 0.947 . S
C0 C35 1.382 . S
C1 C0 1.384 . S
C1 C2 1.378 . S
C2 C1 1.378 . S
C2 C3 1.378 . S
C2 H14 0.952 . S
C3 C2 1.378 . S
C3 H15 0.950 . S
C3 C34 1.383 . S
H4 C23 0.947 . S
H5 C24 0.946 . S
H6 C26 0.953 . S
H7 C27 0.945 . S
H8 C29 0.952 . S
H9 C30 0.949 . S
H10 C32 0.950 . S
H11 C33 0.948 . S
H12 C35 0.951 . S
H13 C0 0.947 . S
H14 C2 0.952 . S
H15 C3 0.950 . S
N16 C19 1.382 . S
N16 C21 1.363 . S
N17 C19 1.371 . S
N17 C20 1.372 . S
N18 C20 1.361 . S
N18 C21 1.377 . S
C19 N16 1.382 . S
C19 N17 1.371 . S
C19 C22 1.480 . S
C20 N17 1.372 . S
C20 N18 1.361 . S
C20 C28 1.457 . S
C21 N16 1.363 . S
C21 N18 1.377 . S
C21 C34 1.479 . S
C22 C19 1.480 . S
C22 C23 1.383 . S
C22 C27 1.385 . S
C23 H4 0.947 . S
C23 C22 1.383 . S
C23 C24 1.388 . S
C24 H5 0.946 . S
C24 C23 1.388 . S
C24 C25 1.384 . S
C25 C24 1.384 . S
C25 C26 1.377 . S
C26 H6 0.953 . S
C26 C25 1.377 . S
C26 C27 1.369 . S
C27 H7 0.945 . S
C27 C22 1.385 . S
C27 C26 1.369 . S
C28 C20 1.457 . S
C28 C29 1.372 . S
C28 C33 1.364 . S
C29 H8 0.952 . S
C29 C28 1.372 . S
C29 C30 1.389 . S
C30 H9 0.949 . S
C30 C29 1.389 . S
C30 C31 1.387 . S
C31 C30 1.387 . S
C31 C32 1.372 . S
C32 H10 0.950 . S
C32 C31 1.372 . S
C32 C33 1.379 . S
C33 H11 0.948 . S
C33 C28 1.364 . S
C33 C32 1.379 . S
C34 C3 1.383 . S
C34 C21 1.479 . S
C34 C35 1.398 . S
C35 C0 1.382 . S
C35 H12 0.951 . S
C35 C34 1.398 . S
C36 C37 1.384 . S
C36 H49 0.947 . S
C36 C71 1.382 . S
C37 C36 1.384 . S
C37 C38 1.378 . S
C38 C37 1.378 . S
C38 C39 1.378 . S
C38 H50 0.952 . S
C39 C38 1.378 . S
C39 H51 0.950 . S
C39 C70 1.383 . S
H40 C59 0.947 . S
H41 C60 0.946 . S
H42 C62 0.953 . S
H43 C63 0.945 . S
H44 C65 0.952 . S
H45 C66 0.949 . S
H46 C68 0.950 . S
H47 C69 0.948 . S
H48 C71 0.951 . S
H49 C36 0.947 . S
H50 C38 0.952 . S
H51 C39 0.950 . S
N52 C55 1.382 . S
N52 C57 1.363 . S
N53 C55 1.371 . S
N53 C56 1.372 . S
N54 C56 1.361 . S
N54 C57 1.377 . S
C55 N52 1.382 . S
C55 N53 1.371 . S
C55 C58 1.480 . S
C56 N53 1.372 . S
C56 N54 1.361 . S
C56 C64 1.457 . S
C57 N52 1.363 . S
C57 N54 1.377 . S
C57 C70 1.479 . S
C58 C55 1.480 . S
C58 C59 1.383 . S
C58 C63 1.385 . S
C59 H40 0.947 . S
C59 C58 1.383 . S
C59 C60 1.388 . S
C60 H41 0.946 . S
C60 C59 1.388 . S
C60 C61 1.384 . S
C61 C60 1.384 . S
C61 C62 1.377 . S
C62 H42 0.953 . S
C62 C61 1.377 . S
C62 C63 1.369 . S
C63 H43 0.945 . S
C63 C58 1.385 . S
C63 C62 1.369 . S
C64 C56 1.457 . S
C64 C65 1.372 . S
C64 C69 1.364 . S
C65 H44 0.952 . S
C65 C64 1.372 . S
C65 C66 1.389 . S
C66 H45 0.949 . S
C66 C65 1.389 . S
C66 C67 1.387 . S
C67 C66 1.387 . S
C67 C68 1.372 . S
C68 H46 0.950 . S
C68 C67 1.372 . S
C68 C69 1.379 . S
C69 H47 0.948 . S
C69 C64 1.364 . S
C69 C68 1.379 . S
C70 C39 1.383 . S
C70 C57 1.479 . S
C70 C71 1.398 . S
C71 C36 1.382 . S
C71 H48 0.951 . S
C71 C70 1.398 . S
C72 C73 1.384 . S
C72 H85 0.947 . S
C72 C107 1.382 . S
C73 C72 1.384 . S
C73 C74 1.378 . S
C74 C73 1.378 . S
C74 C75 1.378 . S
C74 H86 0.952 . S
C75 C74 1.378 . S
C75 H87 0.950 . S
C75 C106 1.383 . S
H76 C95 0.947 . S
H77 C96 0.946 . S
H78 C98 0.953 . S
H79 C99 0.945 . S
H80 C101 0.952 . S
H81 C102 0.949 . S
H82 C104 0.950 . S
H83 C105 0.948 . S
H84 C107 0.951 . S
H85 C72 0.947 . S
H86 C74 0.952 . S
H87 C75 0.950 . S
N88 C91 1.382 . S
N88 C93 1.363 . S
N89 C91 1.371 . S
N89 C92 1.372 . S
N90 C92 1.361 . S
N90 C93 1.377 . S
C91 N88 1.382 . S
C91 N89 1.371 . S
C91 C94 1.480 . S
C92 N89 1.372 . S
C92 N90 1.361 . S
C92 C100 1.457 . S
C93 N88 1.363 . S
C93 N90 1.377 . S
C93 C106 1.479 . S
C94 C91 1.480 . S
C94 C95 1.383 . S
C94 C99 1.385 . S
C95 H76 0.947 . S
C95 C94 1.383 . S
C95 C96 1.388 . S
C96 H77 0.946 . S
C96 C95 1.388 . S
C96 C97 1.384 . S
C97 C96 1.384 . S
C97 C98 1.377 . S
C98 H78 0.953 . S
C98 C97 1.377 . S
C98 C99 1.369 . S
C99 H79 0.945 . S
C99 C94 1.385 . S
C99 C98 1.369 . S
C100 C92 1.457 . S
C100 C101 1.372 . S
C100 C105 1.364 . S
C101 H80 0.952 . S
C101 C100 1.372 . S
C101 C102 1.389 . S
C102 H81 0.949 . S
C102 C101 1.389 . S
C102 C103 1.387 . S
C103 C102 1.387 . S
C103 C104 1.372 . S
C104 H82 0.950 . S
C104 C103 1.372 . S
C104 C105 1.379 . S
C105 H83 0.948 . S
C105 C100 1.364 . S
C105 C104 1.379 . S
C106 C75 1.383 . S
C106 C93 1.479 . S
C106 C107 1.398 . S
C107 C72 1.382 . S
C107 H84 0.951 . S
C107 C106 1.398 . S
C108 C109 1.384 . S
C108 H121 0.947 . S
C108 C143 1.382 . S
C109 C108 1.384 . S
C109 C110 1.378 . S
C110 C109 1.378 . S
C110 C111 1.378 . S
C110 H122 0.952 . S
C111 C110 1.378 . S
C111 H123 0.950 . S
C111 C142 1.383 . S
H112 C131 0.947 . S
H113 C132 0.946 . S
H114 C134 0.953 . S
H115 C135 0.945 . S
H116 C137 0.952 . S
H117 C138 0.949 . S
H118 C140 0.950 . S
H119 C141 0.948 . S
H120 C143 0.951 . S
H121 C108 0.947 . S
H122 C110 0.952 . S
H123 C111 0.950 . S
N124 C127 1.382 . S
N124 C129 1.363 . S
N125 C127 1.371 . S
N125 C128 1.372 . S
N126 C128 1.361 . S
N126 C129 1.377 . S
C127 N124 1.382 . S
C127 N125 1.371 . S
C127 C130 1.480 . S
C128 N125 1.372 . S
C128 N126 1.361 . S
C128 C136 1.457 . S
C129 N124 1.363 . S
C129 N126 1.377 . S
C129 C142 1.479 . S
C130 C127 1.480 . S
C130 C131 1.383 . S
C130 C135 1.385 . S
C131 H112 0.947 . S
C131 C130 1.383 . S
C131 C132 1.388 . S
C132 H113 0.946 . S
C132 C131 1.388 . S
C132 C133 1.384 . S
C133 C132 1.384 . S
C133 C134 1.377 . S
C134 H114 0.953 . S
C134 C133 1.377 . S
C134 C135 1.369 . S
C135 H115 0.945 . S
C135 C130 1.385 . S
C135 C134 1.369 . S
C136 C128 1.457 . S
C136 C137 1.372 . S
C136 C141 1.364 . S
C137 H116 0.952 . S
C137 C136 1.372 . S
C137 C138 1.389 . S
C138 H117 0.949 . S
C138 C137 1.389 . S
C138 C139 1.387 . S
C139 C138 1.387 . S
C139 C140 1.372 . S
C140 H118 0.950 . S
C140 C139 1.372 . S
C140 C141 1.379 . S
C141 H119 0.948 . S
C141 C136 1.364 . S
C141 C140 1.379 . S
C142 C111 1.383 . S
C142 C129 1.479 . S
C142 C143 1.398 . S
C143 C108 1.382 . S
C143 H120 0.951 . S
C143 C142 1.398 . S
C144 C145 1.384 . S
C144 H157 0.947 . S
C144 C179 1.382 . S
C145 C144 1.384 . S
C145 C146 1.378 . S
C146 C145 1.378 . S
C146 C147 1.378 . S
C146 H158 0.952 . S
C147 C146 1.378 . S
C147 H159 0.950 . S
C147 C178 1.383 . S
H148 C167 0.947 . S
H149 C168 0.946 . S
H150 C170 0.953 . S
H151 C171 0.945 . S
H152 C173 0.952 . S
H153 C174 0.949 . S
H154 C176 0.950 . S
H155 C177 0.948 . S
H156 C179 0.951 . S
H157 C144 0.947 . S
H158 C146 0.952 . S
H159 C147 0.950 . S
N160 C163 1.382 . S
N160 C165 1.363 . S
N161 C163 1.371 . S
N161 C164 1.372 . S
N162 C164 1.361 . S
N162 C165 1.377 . S
C163 N160 1.382 . S
C163 N161 1.371 . S
C163 C166 1.480 . S
C164 N161 1.372 . S
C164 N162 1.361 . S
C164 C172 1.457 . S
C165 N160 1.363 . S
C165 N162 1.377 . S
C165 C178 1.479 . S
C166 C163 1.480 . S
C166 C167 1.383 . S
C166 C171 1.385 . S
C167 H148 0.947 . S
C167 C166 1.383 . S
C167 C168 1.388 . S
C168 H149 0.946 . S
C168 C167 1.388 . S
C168 C169 1.384 . S
C169 C168 1.384 . S
C169 C170 1.377 . S
C170 H150 0.953 . S
C170 C169 1.377 . S
C170 C171 1.369 . S
C171 H151 0.945 . S
C171 C166 1.385 . S
C171 C170 1.369 . S
C172 C164 1.457 . S
C172 C173 1.372 . S
C172 C177 1.364 . S
C173 H152 0.952 . S
C173 C172 1.372 . S
C173 C174 1.389 . S
C174 H153 0.949 . S
C174 C173 1.389 . S
C174 C175 1.387 . S
C175 C174 1.387 . S
C175 C176 1.372 . S
C176 H154 0.950 . S
C176 C175 1.372 . S
C176 C177 1.379 . S
C177 H155 0.948 . S
C177 C172 1.364 . S
C177 C176 1.379 . S
C178 C147 1.383 . S
C178 C165 1.479 . S
C178 C179 1.398 . S
C179 C144 1.382 . S
C179 H156 0.951 . S
C179 C178 1.398 . S
C180 C181 1.384 . S
C180 H193 0.947 . S
C180 C215 1.382 . S
C181 C180 1.384 . S
C181 C182 1.378 . S
C182 C181 1.378 . S
C182 C183 1.378 . S
C182 H194 0.952 . S
C183 C182 1.378 . S
C183 H195 0.950 . S
C183 C214 1.383 . S
H184 C203 0.947 . S
H185 C204 0.946 . S
H186 C206 0.953 . S
H187 C207 0.945 . S
H188 C209 0.952 . S
H189 C210 0.949 . S
H190 C212 0.950 . S
H191 C213 0.948 . S
H192 C215 0.951 . S
H193 C180 0.947 . S
H194 C182 0.952 . S
H195 C183 0.950 . S
N196 C199 1.382 . S
N196 C201 1.363 . S
N197 C199 1.371 . S
N197 C200 1.372 . S
N198 C200 1.361 . S
N198 C201 1.377 . S
C199 N196 1.382 . S
C199 N197 1.371 . S
C199 C202 1.480 . S
C200 N197 1.372 . S
C200 N198 1.361 . S
C200 C208 1.457 . S
C201 N196 1.363 . S
C201 N198 1.377 . S
C201 C214 1.479 . S
C202 C199 1.480 . S
C202 C203 1.383 . S
C202 C207 1.385 . S
C203 H184 0.947 . S
C203 C202 1.383 . S
C203 C204 1.388 . S
C204 H185 0.946 . S
C204 C203 1.388 . S
C204 C205 1.384 . S
C205 C204 1.384 . S
C205 C206 1.377 . S
C206 H186 0.953 . S
C206 C205 1.377 . S
C206 C207 1.369 . S
C207 H187 0.945 . S
C207 C202 1.385 . S
C207 C206 1.369 . S
C208 C200 1.457 . S
C208 C209 1.372 . S
C208 C213 1.364 . S
C209 H188 0.952 . S
C209 C208 1.372 . S
C209 C210 1.389 . S
C210 H189 0.949 . S
C210 C209 1.389 . S
C210 C211 1.387 . S
C211 C210 1.387 . S
C211 C212 1.372 . S
C212 H190 0.950 . S
C212 C211 1.372 . S
C212 C213 1.379 . S
C213 H191 0.948 . S
C213 C208 1.364 . S
C213 C212 1.379 . S
C214 C183 1.383 . S
C214 C201 1.479 . S
C214 C215 1.398 . S
C215 C180 1.382 . S
C215 H192 0.951 . S
C215 C214 1.398 . S
C216 C217 1.384 . S
C216 H229 0.947 . S
C216 C251 1.382 . S
C217 C216 1.384 . S
C217 C218 1.378 . S
C218 C217 1.378 . S
C218 C219 1.378 . S
C218 H230 0.952 . S
C219 C218 1.378 . S
C219 H231 0.950 . S
C219 C250 1.383 . S
H220 C239 0.947 . S
H221 C240 0.946 . S
H222 C242 0.953 . S
H223 C243 0.945 . S
H224 C245 0.952 . S
H225 C246 0.949 . S
H226 C248 0.950 . S
H227 C249 0.948 . S
H228 C251 0.951 . S
H229 C216 0.947 . S
H230 C218 0.952 . S
H231 C219 0.950 . S
N232 C235 1.382 . S
N232 C237 1.363 . S
N233 C235 1.371 . S
N233 C236 1.372 . S
N234 C236 1.361 . S
N234 C237 1.377 . S
C235 N232 1.382 . S
C235 N233 1.371 . S
C235 C238 1.480 . S
C236 N233 1.372 . S
C236 N234 1.361 . S
C236 C244 1.457 . S
C237 N232 1.363 . S
C237 N234 1.377 . S
C237 C250 1.479 . S
C238 C235 1.480 . S
C238 C239 1.383 . S
C238 C243 1.385 . S
C239 H220 0.947 . S
C239 C238 1.383 . S
C239 C240 1.388 . S
C240 H221 0.946 . S
C240 C239 1.388 . S
C240 C241 1.384 . S
C241 C240 1.384 . S
C241 C242 1.377 . S
C242 H222 0.953 . S
C242 C241 1.377 . S
C242 C243 1.369 . S
C243 H223 0.945 . S
C243 C238 1.385 . S
C243 C242 1.369 . S
C244 C236 1.457 . S
C244 C245 1.372 . S
C244 C249 1.364 . S
C245 H224 0.952 . S
C245 C244 1.372 . S
C245 C246 1.389 . S
C246 H225 0.949 . S
C246 C245 1.389 . S
C246 C247 1.387 . S
C247 C246 1.387 . S
C247 C248 1.372 . S
C248 H226 0.950 . S
C248 C247 1.372 . S
C248 C249 1.379 . S
C249 H227 0.948 . S
C249 C244 1.364 . S
C249 C248 1.379 . S
C250 C219 1.383 . S
C250 C237 1.479 . S
C250 C251 1.398 . S
C251 C216 1.382 . S
C251 H228 0.951 . S
C251 C250 1.398 . S
C252 C253 1.384 . S
C252 H265 0.947 . S
C252 C287 1.382 . S
C253 C252 1.384 . S
C253 C254 1.378 . S
C254 C253 1.378 . S
C254 C255 1.378 . S
C254 H266 0.952 . S
C255 C254 1.378 . S
C255 H267 0.950 . S
C255 C286 1.383 . S
H256 C275 0.947 . S
H257 C276 0.946 . S
H258 C278 0.953 . S
H259 C279 0.945 . S
H260 C281 0.952 . S
H261 C282 0.949 . S
H262 C284 0.950 . S
H263 C285 0.948 . S
H264 C287 0.951 . S
H265 C252 0.947 . S
H266 C254 0.952 . S
H267 C255 0.950 . S
N268 C271 1.382 . S
N268 C273 1.363 . S
N269 C271 1.371 . S
N269 C272 1.372 . S
N270 C272 1.361 . S
N270 C273 1.377 . S
C271 N268 1.382 . S
C271 N269 1.371 . S
C271 C274 1.480 . S
C272 N269 1.372 . S
C272 N270 1.361 . S
C272 C280 1.457 . S
C273 N268 1.363 . S
C273 N270 1.377 . S
C273 C286 1.479 . S
C274 C271 1.480 . S
C274 C275 1.383 . S
C274 C279 1.385 . S
C275 H256 0.947 . S
C275 C274 1.383 . S
C275 C276 1.388 . S
C276 H257 0.946 . S
C276 C275 1.388 . S
C276 C277 1.384 . S
C277 C276 1.384 . S
C277 C278 1.377 . S
C278 H258 0.953 . S
C278 C277 1.377 . S
C278 C279 1.369 . S
C279 H259 0.945 . S
C279 C274 1.385 . S
C279 C278 1.369 . S
C280 C272 1.457 . S
C280 C281 1.372 . S
C280 C285 1.364 . S
C281 H260 0.952 . S
C281 C280 1.372 . S
C281 C282 1.389 . S
C282 H261 0.949 . S
C282 C281 1.389 . S
C282 C283 1.387 . S
C283 C282 1.387 . S
C283 C284 1.372 . S
C284 H262 0.950 . S
C284 C283 1.372 . S
C284 C285 1.379 . S
C285 H263 0.948 . S
C285 C280 1.364 . S
C285 C284 1.379 . S
C286 C255 1.383 . S
C286 C273 1.479 . S
C286 C287 1.398 . S
C287 C252 1.382 . S
C287 H264 0.951 . S
C287 C286 1.398 . S
Dy288 O292 2.398 . S
Dy288 O293 2.491 . S
Dy288 O294 2.403 1_545 S
Dy288 O295 2.664 1_545 S
Dy288 O299 2.326 . S
Dy288 O303 2.310 1_455 S
Dy288 O304 2.351 1_445 S
C289 O300 1.185 . S
C289 O301 1.355 . S
C290 O292 1.185 . S
C290 O293 1.355 . S
Dy291 O295 2.310 1_655 S
Dy291 O298 2.351 1_665 S
Dy291 O300 2.398 . S
Dy291 O301 2.491 . S
Dy291 O302 2.403 1_565 S
Dy291 O303 2.664 1_565 S
Dy291 O305 2.326 . S
O292 Dy288 2.398 . S
O292 C290 1.185 . S
O293 Dy288 2.491 . S
O293 C290 1.355 . S
O294 Dy288 2.403 1_565 S
O294 C296 1.254 . S
O295 Dy288 2.664 1_565 S
O295 Dy291 2.310 1_455 S
O295 C296 1.268 . S
C296 O294 1.254 . S
C296 O295 1.268 . S
C297 O302 1.254 . S
C297 O303 1.268 . S
O298 Dy291 2.351 1_445 S
O298 C306 1.249 . S
O299 Dy288 2.326 . S
O299 C306 1.267 . S
O300 C289 1.185 . S
O300 Dy291 2.398 . S
O301 C289 1.355 . S
O301 Dy291 2.491 . S
O302 Dy291 2.403 1_545 S
O302 C297 1.254 . S
O303 Dy288 2.310 1_655 S
O303 Dy291 2.664 1_545 S
O303 C297 1.268 . S
O304 Dy288 2.351 1_665 S
O304 C307 1.249 . S
O305 Dy291 2.326 . S
O305 C307 1.267 . S
C306 O298 1.249 . S
C306 O299 1.267 . S
C307 O304 1.249 . S
C307 O305 1.267 . S
Dy308 O312 2.398 . S
Dy308 O313 2.491 . S
Dy308 O314 2.403 1_545 S
Dy308 O315 2.664 1_545 S
Dy308 O319 2.326 . S
Dy308 O323 2.310 1_554 S
Dy308 O324 2.351 1_544 S
C309 O320 1.185 . S
C309 O321 1.355 . S
C310 O312 1.185 . S
C310 O313 1.355 . S
Dy311 O315 2.304 1_546 S
Dy311 O318 2.356 1_556 S
Dy311 O320 2.397 1_545 S
Dy311 O321 2.483 1_545 S
Dy311 O322 2.410 . S
Dy311 O323 2.669 . S
Dy311 O325 2.322 1_545 S
O312 Dy308 2.398 . S
O312 C310 1.185 . S
O313 Dy308 2.491 . S
O313 C310 1.355 . S
O314 Dy308 2.403 1_565 S
O314 C316 1.254 . S
O315 Dy308 2.664 1_565 S
O315 Dy311 2.304 1_564 S
O315 C316 1.268 . S
C316 O314 1.254 . S
C316 O315 1.268 . S
C317 O322 1.254 . S
C317 O323 1.268 . S
O318 Dy311 2.356 1_554 S
O318 C326 1.249 . S
O319 Dy308 2.326 . S
O319 C326 1.267 . S
O320 C309 1.185 . S
O320 Dy311 2.397 1_565 S
O321 C309 1.355 . S
O321 Dy311 2.483 1_565 S
O322 Dy311 2.410 . S
O322 C317 1.254 . S
O323 Dy308 2.310 1_556 S
O323 Dy311 2.669 . S
O323 C317 1.268 . S
O324 Dy308 2.351 1_566 S
O324 C327 1.249 . S
O325 Dy311 2.322 1_565 S
O325 C327 1.267 . S
C326 O318 1.249 . S
C326 O319 1.267 . S
C327 O324 1.249 . S
C327 O325 1.267 . S
Dy328 O332 2.398 . S
Dy328 O333 2.491 . S
Dy328 O334 2.403 . S
Dy328 O335 2.664 . S
Dy328 O339 2.326 . S
Dy328 O343 2.310 . S
Dy328 O344 2.351 . S
C329 O340 1.185 . S
C329 O341 1.355 . S
C330 O332 1.185 . S
C330 O333 1.355 . S
Dy331 O335 2.310 . S
Dy331 O338 2.351 . S
Dy331 O340 2.398 . S
Dy331 O341 2.491 . S
Dy331 O342 2.403 . S
Dy331 O343 2.664 . S
Dy331 O345 2.326 . S
O332 Dy328 2.398 . S
O332 C330 1.185 . S
O333 Dy328 2.491 . S
O333 C330 1.355 . S
O334 Dy328 2.403 . S
O334 C336 1.254 . S
O335 Dy328 2.664 . S
O335 Dy331 2.310 . S
O335 C336 1.268 . S
C336 O334 1.254 . S
C336 O335 1.268 . S
C337 O342 1.254 . S
C337 O343 1.268 . S
O338 Dy331 2.351 . S
O338 C346 1.249 . S
O339 Dy328 2.326 . S
O339 C346 1.267 . S
O340 C329 1.185 . S
O340 Dy331 2.398 . S
O341 C329 1.355 . S
O341 Dy331 2.491 . S
O342 Dy331 2.403 . S
O342 C337 1.254 . S
O343 Dy328 2.310 . S
O343 Dy331 2.664 . S
O343 C337 1.268 . S
O344 Dy328 2.351 . S
O344 C347 1.249 . S
O345 Dy331 2.326 . S
O345 C347 1.267 . S
C346 O338 1.249 . S
C346 O339 1.267 . S
C347 O344 1.249 . S
C347 O345 1.267 . S
Dy348 O352 2.398 . S
Dy348 O353 2.491 . S
Dy348 O354 2.403 1_455 S
Dy348 O355 2.664 1_455 S
Dy348 O359 2.326 . S
Dy348 O363 2.310 1_554 S
Dy348 O364 2.351 1_454 S
C349 O360 1.185 . S
C349 O361 1.355 . S
C350 O352 1.185 . S
C350 O353 1.355 . S
Dy351 O355 2.310 1_556 S
Dy351 O358 2.351 1_656 S
Dy351 O360 2.398 . S
Dy351 O361 2.491 . S
Dy351 O362 2.403 1_655 S
Dy351 O363 2.664 1_655 S
Dy351 O365 2.326 . S
O352 Dy348 2.398 . S
O352 C350 1.185 . S
O353 Dy348 2.491 . S
O353 C350 1.355 . S
O354 Dy348 2.403 1_655 S
O354 C356 1.254 . S
O355 Dy348 2.664 1_655 S
O355 Dy351 2.310 1_554 S
O355 C356 1.268 . S
C356 O354 1.254 . S
C356 O355 1.268 . S
C357 O362 1.254 . S
C357 O363 1.268 . S
O358 Dy351 2.351 1_454 S
O358 C366 1.249 . S
O359 Dy348 2.326 . S
O359 C366 1.267 . S
O360 C349 1.185 . S
O360 Dy351 2.398 . S
O361 C349 1.355 . S
O361 Dy351 2.491 . S
O362 Dy351 2.403 1_455 S
O362 C357 1.254 . S
O363 Dy348 2.310 1_556 S
O363 Dy351 2.664 1_455 S
O363 C357 1.268 . S
O364 Dy348 2.351 1_656 S
O364 C367 1.249 . S
O365 Dy351 2.326 . S
O365 C367 1.267 . S
C366 O358 1.249 . S
C366 O359 1.267 . S
C367 O364 1.249 . S
C367 O365 1.267 . S
H368 C376 0.950 . S
H369 C381 0.950 . S
H370 C378 0.950 . S
H371 C380 0.950 . S
H372 C382 0.950 . S
H373 C384 0.950 . S
H374 C386 0.950 . S
H375 C387 0.950 . S
C376 H368 0.950 . S
C376 C377 1.386 . S
C376 C378 1.391 . S
C377 C376 1.386 . S
C377 C381 1.393 . S
C378 H370 0.950 . S
C378 C376 1.391 . S
C378 C379 1.400 . S
C379 C378 1.400 . S
C379 C380 1.398 . S
C379 C385 1.491 . S
C380 H371 0.950 . S
C380 C379 1.398 . S
C380 C381 1.391 . S
C381 H369 0.950 . S
C381 C377 1.393 . S
C381 C380 1.391 . S
C382 H372 0.950 . S
C382 C383 1.386 . S
C382 C384 1.391 . S
C383 C382 1.386 . S
C383 C387 1.393 . S
C384 H373 0.950 . S
C384 C382 1.391 . S
C384 C385 1.400 . S
C385 C379 1.491 . S
C385 C384 1.400 . S
C385 C386 1.398 . S
C386 H374 0.950 . S
C386 C385 1.398 . S
C386 C387 1.391 . S
C387 H375 0.950 . S
C387 C383 1.393 . S
C387 C386 1.391 . S
H388 C396 0.950 . S
H389 C401 0.950 . S
H390 C398 0.950 . S
H391 C400 0.950 . S
H392 C402 0.950 . S
H393 C404 0.950 . S
H394 C406 0.950 . S
H395 C407 0.950 . S
C396 H388 0.950 . S
C396 C397 1.386 . S
C396 C398 1.391 . S
C397 C396 1.386 . S
C397 C401 1.393 . S
C398 H390 0.950 . S
C398 C396 1.391 . S
C398 C399 1.400 . S
C399 C398 1.400 . S
C399 C400 1.398 . S
C399 C405 1.491 . S
C400 H391 0.950 . S
C400 C399 1.398 . S
C400 C401 1.391 . S
C401 H389 0.950 . S
C401 C397 1.393 . S
C401 C400 1.391 . S
C402 H392 0.950 . S
C402 C403 1.386 . S
C402 C404 1.391 . S
C403 C402 1.386 . S
C403 C407 1.393 . S
C404 H393 0.950 . S
C404 C402 1.391 . S
C404 C405 1.400 . S
C405 C399 1.491 . S
C405 C404 1.400 . S
C405 C406 1.398 . S
C406 H394 0.950 . S
C406 C405 1.398 . S
C406 C407 1.391 . S
C407 H395 0.950 . S
C407 C403 1.393 . S
C407 C406 1.391 . S
H408 C416 0.950 . S
H409 C421 0.950 . S
H410 C418 0.950 . S
H411 C420 0.950 . S
H412 C422 0.950 . S
H413 C424 0.950 . S
H414 C426 0.950 . S
H415 C427 0.950 . S
C416 H408 0.950 . S
C416 C417 1.386 . S
C416 C418 1.391 . S
C417 C416 1.386 . S
C417 C421 1.393 . S
C418 H410 0.950 . S
C418 C416 1.391 . S
C418 C419 1.400 . S
C419 C418 1.400 . S
C419 C420 1.398 . S
C419 C425 1.491 . S
C420 H411 0.950 . S
C420 C419 1.398 . S
C420 C421 1.391 . S
C421 H409 0.950 . S
C421 C417 1.393 . S
C421 C420 1.391 . S
C422 H412 0.950 . S
C422 C423 1.386 . S
C422 C424 1.391 . S
C423 C422 1.386 . S
C423 C427 1.393 . S
C424 H413 0.950 . S
C424 C422 1.391 . S
C424 C425 1.400 . S
C425 C419 1.491 . S
C425 C424 1.400 . S
C425 C426 1.398 . S
C426 H414 0.950 . S
C426 C425 1.398 . S
C426 C427 1.391 . S
C427 H415 0.950 . S
C427 C423 1.393 . S
C427 C426 1.391 . S
H428 C436 0.950 . S
H429 C441 0.950 . S
H430 C438 0.950 . S
H431 C440 0.950 . S
H432 C442 0.950 . S
H433 C444 0.950 . S
H434 C446 0.950 . S
H435 C447 0.950 1_455 S
C436 H428 0.950 . S
C436 C437 1.386 . S
C436 C438 1.391 . S
C437 C436 1.386 . S
C437 C441 1.393 . S
C438 H430 0.950 . S
C438 C436 1.391 . S
C438 C439 1.400 . S
C439 C438 1.400 . S
C439 C440 1.398 . S
C439 C445 1.491 . S
C440 H431 0.950 . S
C440 C439 1.398 . S
C440 C441 1.391 . S
C441 H429 0.950 . S
C441 C437 1.393 . S
C441 C440 1.391 . S
C442 H432 0.950 . S
C442 C443 1.386 . S
C442 C444 1.391 . S
C443 C442 1.386 . S
C443 C447 1.393 . S
C444 H433 0.950 . S
C444 C442 1.391 . S
C444 C445 1.400 . S
C445 C439 1.491 . S
C445 C444 1.400 . S
C445 C446 1.398 . S
C446 H434 0.950 . S
C446 C445 1.398 . S
C446 C447 1.391 . S
C447 H435 0.950 1_655 S
C447 C443 1.393 . S
C447 C446 1.391 . S
H448 C456 0.950 . S
H449 C461 0.950 . S
H450 C458 0.950 . S
H451 C460 0.950 . S
H452 C462 0.950 . S
H453 C464 0.950 . S
H454 C466 0.950 . S
H455 C467 0.950 . S
C456 H448 0.950 . S
C456 C457 1.386 . S
C456 C458 1.391 . S
C457 C456 1.386 . S
C457 C461 1.393 . S
C458 H450 0.950 . S
C458 C456 1.391 . S
C458 C459 1.400 . S
C459 C458 1.400 . S
C459 C460 1.398 . S
C459 C465 1.491 . S
C460 H451 0.950 . S
C460 C459 1.398 . S
C460 C461 1.391 . S
C461 H449 0.950 . S
C461 C457 1.393 . S
C461 C460 1.391 . S
C462 H452 0.950 . S
C462 C463 1.386 . S
C462 C464 1.391 . S
C463 C462 1.386 . S
C463 C467 1.393 . S
C464 H453 0.950 . S
C464 C462 1.391 . S
C464 C465 1.400 . S
C465 C459 1.491 . S
C465 C464 1.400 . S
C465 C466 1.398 . S
C466 H454 0.950 . S
C466 C465 1.398 . S
C466 C467 1.391 . S
C467 H455 0.950 . S
C467 C463 1.393 . S
C467 C466 1.391 . S
H468 C476 0.950 . S
H469 C481 0.950 . S
H470 C478 0.950 . S
H471 C480 0.950 . S
H472 C482 0.950 . S
H473 C484 0.950 . S
H474 C486 0.950 . S
H475 C487 0.950 . S
C476 H468 0.950 . S
C476 C477 1.386 . S
C476 C478 1.391 . S
C477 C476 1.386 . S
C477 C481 1.393 . S
C478 H470 0.950 . S
C478 C476 1.391 . S
C478 C479 1.400 . S
C479 C478 1.400 . S
C479 C480 1.398 . S
C479 C485 1.491 . S
C480 H471 0.950 . S
C480 C479 1.398 . S
C480 C481 1.391 . S
C481 H469 0.950 . S
C481 C477 1.393 . S
C481 C480 1.391 . S
C482 H472 0.950 . S
C482 C483 1.386 . S
C482 C484 1.391 . S
C483 C482 1.386 . S
C483 C487 1.393 . S
C484 H473 0.950 . S
C484 C482 1.391 . S
C484 C485 1.400 . S
C485 C479 1.491 . S
C485 C484 1.400 . S
C485 C486 1.398 . S
C486 H474 0.950 . S
C486 C485 1.398 . S
C486 C487 1.391 . S
C487 H475 0.950 . S
C487 C483 1.393 . S
C487 C486 1.391 . S
H488 C496 0.950 . S
H489 C501 0.950 . S
H490 C498 0.950 . S
H491 C500 0.950 . S
H492 C502 0.950 1_554 S
H493 C504 0.950 . S
H494 C506 0.950 . S
H495 C507 0.950 . S
C496 H488 0.950 . S
C496 C497 1.386 . S
C496 C498 1.391 . S
C497 C496 1.386 . S
C497 C501 1.393 . S
C498 H490 0.950 . S
C498 C496 1.391 . S
C498 C499 1.400 . S
C499 C498 1.400 . S
C499 C500 1.398 . S
C499 C505 1.491 . S
C500 H491 0.950 . S
C500 C499 1.398 . S
C500 C501 1.391 . S
C501 H489 0.950 . S
C501 C497 1.393 . S
C501 C500 1.391 . S
C502 H492 0.950 1_556 S
C502 C503 1.386 . S
C502 C504 1.391 . S
C503 C502 1.386 . S
C503 C507 1.393 . S
C504 H493 0.950 . S
C504 C502 1.391 . S
C504 C505 1.400 . S
C505 C499 1.491 . S
C505 C504 1.400 . S
C505 C506 1.398 . S
C506 H494 0.950 . S
C506 C505 1.398 . S
C506 C507 1.391 . S
C507 H495 0.950 . S
C507 C503 1.393 . S
C507 C506 1.391 . S
H508 C516 0.950 . S
H509 C521 0.950 . S
H510 C518 0.950 . S
H511 C520 0.950 . S
H512 C522 0.950 . S
H513 C524 0.950 . S
H514 C526 0.950 . S
H515 C527 0.950 . S
C516 H508 0.950 . S
C516 C517 1.386 . S
C516 C518 1.391 . S
C517 C516 1.386 . S
C517 C521 1.393 . S
C518 H510 0.950 . S
C518 C516 1.391 . S
C518 C519 1.400 . S
C519 C518 1.400 . S
C519 C520 1.398 . S
C519 C525 1.491 . S
C520 H511 0.950 . S
C520 C519 1.398 . S
C520 C521 1.391 . S
C521 H509 0.950 . S
C521 C517 1.393 . S
C521 C520 1.391 . S
C522 H512 0.950 . S
C522 C523 1.386 . S
C522 C524 1.391 . S
C523 C522 1.386 . S
C523 C527 1.393 . S
C524 H513 0.950 . S
C524 C522 1.391 . S
C524 C525 1.400 . S
C525 C519 1.491 . S
C525 C524 1.400 . S
C525 C526 1.398 . S
C526 H514 0.950 . S
C526 C525 1.398 . S
C526 C527 1.391 . S
C527 H515 0.950 . S
C527 C523 1.393 . S
C527 C526 1.391 . S
H528 C536 0.950 . S
H529 C541 0.950 . S
H530 C538 0.950 . S
H531 C540 0.950 . S
H532 C542 0.950 . S
H533 C544 0.950 . S
H534 C546 0.950 . S
H535 C547 0.950 . S
C536 H528 0.950 . S
C536 C537 1.386 . S
C536 C538 1.391 . S
C537 C536 1.386 . S
C537 C541 1.393 . S
C538 H530 0.950 . S
C538 C536 1.391 . S
C538 C539 1.400 . S
C539 C538 1.400 . S
C539 C540 1.398 . S
C539 C545 1.491 . S
C540 H531 0.950 . S
C540 C539 1.398 . S
C540 C541 1.391 . S
C541 H529 0.950 . S
C541 C537 1.393 . S
C541 C540 1.391 . S
C542 H532 0.950 . S
C542 C543 1.386 . S
C542 C544 1.391 . S
C543 C542 1.386 . S
C543 C547 1.393 . S
C544 H533 0.950 . S
C544 C542 1.391 . S
C544 C545 1.400 . S
C545 C539 1.491 . S
C545 C544 1.400 . S
C545 C546 1.398 . S
C546 H534 0.950 . S
C546 C545 1.398 . S
C546 C547 1.391 . S
C547 H535 0.950 . S
C547 C543 1.393 . S
C547 C546 1.391 . S
H548 C556 0.950 . S
H549 C561 0.950 . S
H550 C558 0.950 . S
H551 C560 0.950 . S
H552 C562 0.950 . S
H553 C564 0.950 . S
H554 C566 0.950 . S
H555 C567 0.950 . S
C556 H548 0.950 . S
C556 C557 1.386 . S
C556 C558 1.391 . S
C557 C556 1.386 . S
C557 C561 1.393 . S
C558 H550 0.950 . S
C558 C556 1.391 . S
C558 C559 1.400 . S
C559 C558 1.400 . S
C559 C560 1.398 . S
C559 C565 1.491 . S
C560 H551 0.950 . S
C560 C559 1.398 . S
C560 C561 1.391 . S
C561 H549 0.950 . S
C561 C557 1.393 . S
C561 C560 1.391 . S
C562 H552 0.950 . S
C562 C563 1.386 . S
C562 C564 1.391 . S
C563 C562 1.386 . S
C563 C567 1.393 . S
C564 H553 0.950 . S
C564 C562 1.391 . S
C564 C565 1.400 . S
C565 C559 1.491 . S
C565 C564 1.400 . S
C565 C566 1.398 . S
C566 H554 0.950 . S
C566 C565 1.398 . S
C566 C567 1.391 . S
C567 H555 0.950 . S
C567 C563 1.393 . S
C567 C566 1.391 . S
H568 C576 0.950 . S
H569 C581 0.950 . S
H570 C578 0.950 . S
H571 C580 0.950 . S
H572 C582 0.950 . S
H573 C584 0.950 . S
H574 C586 0.950 . S
H575 C587 0.950 1_455 S
C576 H568 0.950 . S
C576 C577 1.386 . S
C576 C578 1.391 . S
C577 C576 1.386 . S
C577 C581 1.393 . S
C578 H570 0.950 . S
C578 C576 1.391 . S
C578 C579 1.400 . S
C579 C578 1.400 . S
C579 C580 1.398 . S
C579 C585 1.491 . S
C580 H571 0.950 . S
C580 C579 1.398 . S
C580 C581 1.391 . S
C581 H569 0.950 . S
C581 C577 1.393 . S
C581 C580 1.391 . S
C582 H572 0.950 . S
C582 C583 1.386 . S
C582 C584 1.391 . S
C583 C582 1.386 . S
C583 C587 1.393 . S
C584 H573 0.950 . S
C584 C582 1.391 . S
C584 C585 1.400 . S
C585 C579 1.491 . S
C585 C584 1.400 . S
C585 C586 1.398 . S
C586 H574 0.950 . S
C586 C585 1.398 . S
C586 C587 1.391 . S
C587 H575 0.950 1_655 S
C587 C583 1.393 . S
C587 C586 1.391 . S
H588 C596 0.950 . S
H589 C601 0.950 . S
H590 C598 0.950 . S
H591 C600 0.950 . S
H592 C602 0.950 . S
H593 C604 0.950 . S
H594 C606 0.950 . S
H595 C607 0.950 . S
C596 H588 0.950 . S
C596 C597 1.386 . S
C596 C598 1.391 . S
C597 C596 1.386 . S
C597 C601 1.393 . S
C598 H590 0.950 . S
C598 C596 1.391 . S
C598 C599 1.400 . S
C599 C598 1.400 . S
C599 C600 1.398 . S
C599 C605 1.491 . S
C600 H591 0.950 . S
C600 C599 1.398 . S
C600 C601 1.391 . S
C601 H589 0.950 . S
C601 C597 1.393 . S
C601 C600 1.391 . S
C602 H592 0.950 . S
C602 C603 1.386 . S
C602 C604 1.391 . S
C603 C602 1.386 . S
C603 C607 1.393 . S
C604 H593 0.950 . S
C604 C602 1.391 . S
C604 C605 1.400 . S
C605 C599 1.491 . S
C605 C604 1.400 . S
C605 C606 1.398 . S
C606 H594 0.950 . S
C606 C605 1.398 . S
C606 C607 1.391 . S
C607 H595 0.950 . S
C607 C603 1.393 . S
C607 C606 1.391 . S
H608 C616 0.950 . S
H609 C621 0.950 . S
H610 C618 0.950 . S
H611 C620 0.950 . S
H612 C622 0.950 . S
H613 C624 0.950 . S
H614 C626 0.950 . S
H615 C627 0.950 . S
C616 H608 0.950 . S
C616 C617 1.386 . S
C616 C618 1.391 . S
C617 C616 1.386 . S
C617 C621 1.393 . S
C618 H610 0.950 . S
C618 C616 1.391 . S
C618 C619 1.400 . S
C619 C618 1.400 . S
C619 C620 1.398 . S
C619 C625 1.491 . S
C620 H611 0.950 . S
C620 C619 1.398 . S
C620 C621 1.391 . S
C621 H609 0.950 . S
C621 C617 1.393 . S
C621 C620 1.391 . S
C622 H612 0.950 . S
C622 C623 1.386 . S
C622 C624 1.391 . S
C623 C622 1.386 . S
C623 C627 1.393 . S
C624 H613 0.950 . S
C624 C622 1.391 . S
C624 C625 1.400 . S
C625 C619 1.491 . S
C625 C624 1.400 . S
C625 C626 1.398 . S
C626 H614 0.950 . S
C626 C625 1.398 . S
C626 C627 1.391 . S
C627 H615 0.950 . S
C627 C623 1.393 . S
C627 C626 1.391 . S
H628 C636 0.950 . S
H629 C641 0.950 . S
H630 C638 0.950 . S
H631 C640 0.950 . S
H632 C642 0.950 . S
H633 C644 0.950 . S
H634 C646 0.950 . S
H635 C647 0.950 . S
C636 H628 0.950 . S
C636 C637 1.386 . S
C636 C638 1.391 . S
C637 C636 1.386 . S
C637 C641 1.393 . S
C638 H630 0.950 . S
C638 C636 1.391 . S
C638 C639 1.400 . S
C639 C638 1.400 . S
C639 C640 1.398 . S
C639 C645 1.491 . S
C640 H631 0.950 . S
C640 C639 1.398 . S
C640 C641 1.391 . S
C641 H629 0.950 . S
C641 C637 1.393 . S
C641 C640 1.391 . S
C642 H632 0.950 . S
C642 C643 1.386 . S
C642 C644 1.391 . S
C643 C642 1.386 . S
C643 C647 1.393 . S
C644 H633 0.950 . S
C644 C642 1.391 . S
C644 C645 1.400 . S
C645 C639 1.491 . S
C645 C644 1.400 . S
C645 C646 1.398 . S
C646 H634 0.950 . S
C646 C645 1.398 . S
C646 C647 1.391 . S
C647 H635 0.950 . S
C647 C643 1.393 . S
C647 C646 1.391 . S
H648 C656 0.950 . S
H649 C661 0.950 . S
H650 C658 0.950 . S
H651 C660 0.950 . S
H652 C662 0.950 . S
H653 C664 0.950 . S
H654 C666 0.950 . S
H655 C667 0.950 . S
C656 H648 0.950 . S
C656 C657 1.386 . S
C656 C658 1.391 . S
C657 C656 1.386 . S
C657 C661 1.393 . S
C658 H650 0.950 . S
C658 C656 1.391 . S
C658 C659 1.400 . S
C659 C658 1.400 . S
C659 C660 1.398 . S
C659 C665 1.491 . S
C660 H651 0.950 . S
C660 C659 1.398 . S
C660 C661 1.391 . S
C661 H649 0.950 . S
C661 C657 1.393 . S
C661 C660 1.391 . S
C662 H652 0.950 . S
C662 C663 1.386 . S
C662 C664 1.391 . S
C663 C662 1.386 . S
C663 C667 1.393 . S
C664 H653 0.950 . S
C664 C662 1.391 . S
C664 C665 1.400 . S
C665 C659 1.491 . S
C665 C664 1.400 . S
C665 C666 1.398 . S
C666 H654 0.950 . S
C666 C665 1.398 . S
C666 C667 1.391 . S
C667 H655 0.950 . S
C667 C663 1.393 . S
C667 C666 1.391 . S
H668 C676 0.950 . S
H669 C681 0.950 . S
H670 C678 0.950 . S
H671 C680 0.950 . S
H672 C682 0.950 . S
H673 C684 0.950 . S
H674 C686 0.950 . S
H675 C687 0.950 . S
C676 H668 0.950 . S
C676 C677 1.386 . S
C676 C678 1.391 . S
C677 C676 1.386 . S
C677 C681 1.393 . S
C678 H670 0.950 . S
C678 C676 1.391 . S
C678 C679 1.400 . S
C679 C678 1.400 . S
C679 C680 1.398 . S
C679 C685 1.491 . S
C680 H671 0.950 . S
C680 C679 1.398 . S
C680 C681 1.391 . S
C681 H669 0.950 . S
C681 C677 1.393 . S
C681 C680 1.391 . S
C682 H672 0.950 . S
C682 C683 1.386 . S
C682 C684 1.391 . S
C683 C682 1.386 . S
C683 C687 1.393 . S
C684 H673 0.950 . S
C684 C682 1.391 . S
C684 C685 1.400 . S
C685 C679 1.491 . S
C685 C684 1.400 . S
C685 C686 1.398 . S
C686 H674 0.950 . S
C686 C685 1.398 . S
C686 C687 1.391 . S
C687 H675 0.950 . S
C687 C683 1.393 . S
C687 C686 1.391 . S
H688 C696 0.950 . S
H689 C701 0.950 . S
H690 C698 0.950 . S
H691 C700 0.950 . S
H692 C702 0.950 . S
H693 C704 0.950 . S
H694 C706 0.950 . S
H695 C707 0.950 . S
C696 H688 0.950 . S
C696 C697 1.386 . S
C696 C698 1.391 . S
C697 C696 1.386 . S
C697 C701 1.393 . S
C698 H690 0.950 . S
C698 C696 1.391 . S
C698 C699 1.400 . S
C699 C698 1.400 . S
C699 C700 1.398 . S
C699 C705 1.491 . S
C700 H691 0.950 . S
C700 C699 1.398 . S
C700 C701 1.391 . S
C701 H689 0.950 . S
C701 C697 1.393 . S
C701 C700 1.391 . S
C702 H692 0.950 . S
C702 C703 1.386 . S
C702 C704 1.391 . S
C703 C702 1.386 . S
C703 C707 1.393 . S
C704 H693 0.950 . S
C704 C702 1.391 . S
C704 C705 1.400 . S
C705 C699 1.491 . S
C705 C704 1.400 . S
C705 C706 1.398 . S
C706 H694 0.950 . S
C706 C705 1.398 . S
C706 C707 1.391 . S
C707 H695 0.950 . S
C707 C703 1.393 . S
C707 C706 1.391 . S
H708 C716 0.950 . S
H709 C721 0.950 . S
H710 C718 0.950 . S
H711 C720 0.950 . S
H712 C722 0.950 . S
H713 C724 0.950 . S
H714 C726 0.950 . S
H715 C727 0.950 . S
C716 H708 0.950 . S
C716 C717 1.386 . S
C716 C718 1.391 . S
C717 C716 1.386 . S
C717 C721 1.393 . S
C718 H710 0.950 . S
C718 C716 1.391 . S
C718 C719 1.400 . S
C719 C718 1.400 . S
C719 C720 1.398 . S
C719 C725 1.491 . S
C720 H711 0.950 . S
C720 C719 1.398 . S
C720 C721 1.391 . S
C721 H709 0.950 . S
C721 C717 1.393 . S
C721 C720 1.391 . S
C722 H712 0.950 . S
C722 C723 1.386 . S
C722 C724 1.391 . S
C723 C722 1.386 . S
C723 C727 1.393 . S
C724 H713 0.950 . S
C724 C722 1.391 . S
C724 C725 1.400 . S
C725 C719 1.491 . S
C725 C724 1.400 . S
C725 C726 1.398 . S
C726 H714 0.950 . S
C726 C725 1.398 . S
C726 C727 1.391 . S
C727 H715 0.950 . S
C727 C723 1.393 . S
C727 C726 1.391 . S
H728 C736 0.950 . S
H729 C741 0.950 . S
H730 C738 0.950 . S
H731 C740 0.950 . S
H732 C742 0.950 . S
H733 C744 0.950 . S
H734 C746 0.950 . S
H735 C747 0.950 . S
C736 H728 0.950 . S
C736 C737 1.386 . S
C736 C738 1.391 . S
C737 C736 1.386 . S
C737 C741 1.393 . S
C738 H730 0.950 . S
C738 C736 1.391 . S
C738 C739 1.400 . S
C739 C738 1.400 . S
C739 C740 1.398 . S
C739 C745 1.491 . S
C740 H731 0.950 . S
C740 C739 1.398 . S
C740 C741 1.391 . S
C741 H729 0.950 . S
C741 C737 1.393 . S
C741 C740 1.391 . S
C742 H732 0.950 . S
C742 C743 1.386 . S
C742 C744 1.391 . S
C743 C742 1.386 . S
C743 C747 1.393 . S
C744 H733 0.950 . S
C744 C742 1.391 . S
C744 C745 1.400 . S
C745 C739 1.491 . S
C745 C744 1.400 . S
C745 C746 1.398 . S
C746 H734 0.950 . S
C746 C745 1.398 . S
C746 C747 1.391 . S
C747 H735 0.950 . S
C747 C743 1.393 . S
C747 C746 1.391 . S
H748 C756 0.950 . S
H749 C761 0.950 . S
H750 C758 0.950 . S
H751 C760 0.950 . S
H752 C762 0.950 . S
H753 C764 0.950 . S
H754 C766 0.950 . S
H755 C767 0.950 . S
C756 H748 0.950 . S
C756 C757 1.386 . S
C756 C758 1.391 . S
C757 C756 1.386 . S
C757 C761 1.393 . S
C758 H750 0.950 . S
C758 C756 1.391 . S
C758 C759 1.400 . S
C759 C758 1.400 . S
C759 C760 1.398 . S
C759 C765 1.491 . S
C760 H751 0.950 . S
C760 C759 1.398 . S
C760 C761 1.391 . S
C761 H749 0.950 . S
C761 C757 1.393 . S
C761 C760 1.391 . S
C762 H752 0.950 . S
C762 C763 1.386 . S
C762 C764 1.391 . S
C763 C762 1.386 . S
C763 C767 1.393 . S
C764 H753 0.950 . S
C764 C762 1.391 . S
C764 C765 1.400 . S
C765 C759 1.491 . S
C765 C764 1.400 . S
C765 C766 1.398 . S
C766 H754 0.950 . S
C766 C765 1.398 . S
C766 C767 1.391 . S
C767 H755 0.950 . S
C767 C763 1.393 . S
C767 C766 1.391 . S
H768 C776 0.950 . S
H769 C781 0.950 . S
H770 C778 0.950 . S
H771 C780 0.950 . S
H772 C782 0.950 . S
H773 C784 0.950 . S
H774 C786 0.950 . S
H775 C787 0.950 . S
C776 H768 0.950 . S
C776 C777 1.386 . S
C776 C778 1.391 . S
C777 C776 1.386 . S
C777 C781 1.393 . S
C778 H770 0.950 . S
C778 C776 1.391 . S
C778 C779 1.400 . S
C779 C778 1.400 . S
C779 C780 1.398 . S
C779 C785 1.491 . S
C780 H771 0.950 . S
C780 C779 1.398 . S
C780 C781 1.391 . S
C781 H769 0.950 . S
C781 C777 1.393 . S
C781 C780 1.391 . S
C782 H772 0.950 . S
C782 C783 1.386 . S
C782 C784 1.391 . S
C783 C782 1.386 . S
C783 C787 1.393 . S
C784 H773 0.950 . S
C784 C782 1.391 . S
C784 C785 1.400 . S
C785 C779 1.491 . S
C785 C784 1.400 . S
C785 C786 1.398 . S
C786 H774 0.950 . S
C786 C785 1.398 . S
C786 C787 1.391 . S
C787 H775 0.950 . S
C787 C783 1.393 . S
C787 C786 1.391 . S
H788 C796 0.950 . S
H789 C801 0.950 . S
H790 C798 0.950 . S
H791 C800 0.950 . S
H792 C802 0.950 . S
H793 C804 0.950 . S
H794 C806 0.950 . S
H795 C807 0.950 . S
C796 H788 0.950 . S
C796 C797 1.386 . S
C796 C798 1.391 . S
C797 C796 1.386 . S
C797 C801 1.393 . S
C798 H790 0.950 . S
C798 C796 1.391 . S
C798 C799 1.400 . S
C799 C798 1.400 . S
C799 C800 1.398 . S
C799 C805 1.491 . S
C800 H791 0.950 . S
C800 C799 1.398 . S
C800 C801 1.391 . S
C801 H789 0.950 . S
C801 C797 1.393 . S
C801 C800 1.391 . S
C802 H792 0.950 . S
C802 C803 1.386 . S
C802 C804 1.391 . S
C803 C802 1.386 . S
C803 C807 1.393 . S
C804 H793 0.950 . S
C804 C802 1.391 . S
C804 C805 1.400 . S
C805 C799 1.491 . S
C805 C804 1.400 . S
C805 C806 1.398 . S
C806 H794 0.950 . S
C806 C805 1.398 . S
C806 C807 1.391 . S
C807 H795 0.950 . S
C807 C803 1.393 . S
C807 C806 1.391 . S
H808 C816 0.950 . S
H809 C821 0.950 . S
H810 C818 0.950 . S
H811 C820 0.950 . S
H812 C822 0.950 . S
H813 C824 0.950 . S
H814 C826 0.950 . S
H815 C827 0.950 . S
C816 H808 0.950 . S
C816 C817 1.386 . S
C816 C818 1.391 . S
C817 C816 1.386 . S
C817 C821 1.393 . S
C818 H810 0.950 . S
C818 C816 1.391 . S
C818 C819 1.400 . S
C819 C818 1.400 . S
C819 C820 1.398 . S
C819 C825 1.491 . S
C820 H811 0.950 . S
C820 C819 1.398 . S
C820 C821 1.391 . S
C821 H809 0.950 . S
C821 C817 1.393 . S
C821 C820 1.391 . S
C822 H812 0.950 . S
C822 C823 1.386 . S
C822 C824 1.391 . S
C823 C822 1.386 . S
C823 C827 1.393 . S
C824 H813 0.950 . S
C824 C822 1.391 . S
C824 C825 1.400 . S
C825 C819 1.491 . S
C825 C824 1.400 . S
C825 C826 1.398 . S
C826 H814 0.950 . S
C826 C825 1.398 . S
C826 C827 1.391 . S
C827 H815 0.950 . S
C827 C823 1.393 . S
C827 C826 1.391 . S
H828 C836 0.950 . S
H829 C841 0.950 . S
H830 C838 0.950 . S
H831 C840 0.950 . S
H832 C842 0.950 . S
H833 C844 0.950 . S
H834 C846 0.950 . S
H835 C847 0.950 . S
C836 H828 0.950 . S
C836 C837 1.386 . S
C836 C838 1.391 . S
C837 C836 1.386 . S
C837 C841 1.393 . S
C838 H830 0.950 . S
C838 C836 1.391 . S
C838 C839 1.400 . S
C839 C838 1.400 . S
C839 C840 1.398 . S
C839 C845 1.491 . S
C840 H831 0.950 . S
C840 C839 1.398 . S
C840 C841 1.391 . S
C841 H829 0.950 . S
C841 C837 1.393 . S
C841 C840 1.391 . S
C842 H832 0.950 . S
C842 C843 1.386 . S
C842 C844 1.391 . S
C843 C842 1.386 . S
C843 C847 1.393 . S
C844 H833 0.950 . S
C844 C842 1.391 . S
C844 C845 1.400 . S
C845 C839 1.491 . S
C845 C844 1.400 . S
C845 C846 1.398 . S
C846 H834 0.950 . S
C846 C845 1.398 . S
C846 C847 1.391 . S
C847 H835 0.950 . S
C847 C843 1.393 . S
C847 C846 1.391 . S
C377 C1 1.548 . S
C383 C290 1.542 . S
C397 C67 1.367 . S
C403 C309 1.354 . S
C423 C346 1.733 . S
C417 C97 1.749 . S
C437 C133 1.724 . S
C443 C356 1.672 . S
C463 C326 2.013 . S
C457 C25 1.986 . S
C483 C296 1.418 . S
C477 C37 1.475 . S
C503 C367 1.496 . S
C497 C103 1.530 . S
C523 C337 1.409 . S
C517 C109 1.428 . S
C537 C31 1.769 . S
C543 C350 1.776 . S
C563 C317 1.679 . S
C557 C73 1.741 . S
C577 C139 1.759 . S
C583 C307 1.755 . S
C597 C61 1.230 . S
C603 C329 1.226 . S
C623 C289 1.552 . S
C617 C175 1.491 . S
C637 C181 1.353 . S
C643 C310 1.338 . S
C657 C247 1.772 . S
C663 C347 1.740 . S
C677 C277 1.714 . S
C683 C357 1.662 . S
C697 C145 1.927 . S
C703 C327 2.005 . S
C723 C297 1.429 . S
C717 C211 1.476 . S
C743 C366 1.500 . S
C737 C217 1.516 . S
C763 C336 1.425 . S
C757 C283 1.443 . S
C777 C169 1.720 . S
C783 C349 1.767 . S
C803 C316 1.704 . S
C797 C241 1.748 . S
C823 C306 1.740 . S
C817 C253 1.742 . S
C837 C205 1.230 . S
C843 C330 1.250 . S
