# Generated by pormake.
# Topology pyr, (3,6)-cn, num edge types: 1
# Building blocks:
#     Node 0, Type 0, BuildingBlock: MIDCAF_clean_linker_0, # of connection points: 3
#     Node 1, Type 0, BuildingBlock: MIDCAF_clean_linker_0, # of connection points: 3
#     Node 2, Type 0, BuildingBlock: MIDCAF_clean_linker_0, # of connection points: 3
#     Node 3, Type 0, BuildingBlock: MIDCAF_clean_linker_0, # of connection points: 3
#     Node 4, Type 0, BuildingBlock: MIDCAF_clean_linker_0, # of connection points: 3
#     Node 5, Type 0, BuildingBlock: MIDCAF_clean_linker_0, # of connection points: 3
#     Node 6, Type 0, BuildingBlock: MIDCAF_clean_linker_0, # of connection points: 3
#     Node 7, Type 0, BuildingBlock: MIDCAF_clean_linker_0, # of connection points: 3
#     Node 8, Type 1, BuildingBlock: BETGAK_clean_sbu_0, # of connection points: 6
#     Node 9, Type 1, BuildingBlock: BETGAK_clean_sbu_0, # of connection points: 6
#     Node 10, Type 1, BuildingBlock: BETGAK_clean_sbu_0, # of connection points: 6
#     Node 11, Type 1, BuildingBlock: BETGAK_clean_sbu_0, # of connection points: 6
#     Edge 12, Type (0, 1), BuildingBlock: XIVTED_clean_linker_0, # of connection points: 2
#     Edge 13, Type (0, 1), BuildingBlock: XIVTED_clean_linker_0, # of connection points: 2
#     Edge 14, Type (0, 1), BuildingBlock: XIVTED_clean_linker_0, # of connection points: 2
#     Edge 15, Type (0, 1), BuildingBlock: XIVTED_clean_linker_0, # of connection points: 2
#     Edge 16, Type (0, 1), BuildingBlock: XIVTED_clean_linker_0, # of connection points: 2
#     Edge 17, Type (0, 1), BuildingBlock: XIVTED_clean_linker_0, # of connection points: 2
#     Edge 18, Type (0, 1), BuildingBlock: XIVTED_clean_linker_0, # of connection points: 2
#     Edge 19, Type (0, 1), BuildingBlock: XIVTED_clean_linker_0, # of connection points: 2
#     Edge 20, Type (0, 1), BuildingBlock: XIVTED_clean_linker_0, # of connection points: 2
#     Edge 21, Type (0, 1), BuildingBlock: XIVTED_clean_linker_0, # of connection points: 2
#     Edge 22, Type (0, 1), BuildingBlock: XIVTED_clean_linker_0, # of connection points: 2
#     Edge 23, Type (0, 1), BuildingBlock: XIVTED_clean_linker_0, # of connection points: 2
#     Edge 24, Type (0, 1), BuildingBlock: XIVTED_clean_linker_0, # of connection points: 2
#     Edge 25, Type (0, 1), BuildingBlock: XIVTED_clean_linker_0, # of connection points: 2
#     Edge 26, Type (0, 1), BuildingBlock: XIVTED_clean_linker_0, # of connection points: 2
#     Edge 27, Type (0, 1), BuildingBlock: XIVTED_clean_linker_0, # of connection points: 2
#     Edge 28, Type (0, 1), BuildingBlock: XIVTED_clean_linker_0, # of connection points: 2
#     Edge 29, Type (0, 1), BuildingBlock: XIVTED_clean_linker_0, # of connection points: 2
#     Edge 30, Type (0, 1), BuildingBlock: XIVTED_clean_linker_0, # of connection points: 2
#     Edge 31, Type (0, 1), BuildingBlock: XIVTED_clean_linker_0, # of connection points: 2
#     Edge 32, Type (0, 1), BuildingBlock: XIVTED_clean_linker_0, # of connection points: 2
#     Edge 33, Type (0, 1), BuildingBlock: XIVTED_clean_linker_0, # of connection points: 2
#     Edge 34, Type (0, 1), BuildingBlock: XIVTED_clean_linker_0, # of connection points: 2
#     Edge 35, Type (0, 1), BuildingBlock: XIVTED_clean_linker_0, # of connection points: 2
# Relax obj value: 0.097
# Max RMSD: 0.121
# Mean RMSD: 0.058
data_MOF--net-pyr--node1-BETGAK_clean_sbu_0--node2-MIDCAF_clean_linker_0--edge1-XIVTED_clean_linker_0
_symmetry_space_group_name_H-M    P1
_symmetry_Int_Tables_number       1
_symmetry_cell_setting            triclinic
loop_
_symmetry_equiv_pos_as_xyz
'x, y, z'
_cell_length_a     47.149611
_cell_length_b     48.355967
_cell_length_c     43.711139
_cell_angle_alpha  90.372331
_cell_angle_beta   88.487259
_cell_angle_gamma 100.66901
loop_
_atom_site_label
_atom_site_type_symbol
_atom_site_fract_x
_atom_site_fract_y
_atom_site_fract_z
_atom_type_partial_charge
C0 C 0.27326 0.29032 0.31979 0.0
C1 C 0.28105 0.26788 0.33588 0.0
C2 C 0.30831 0.26091 0.32967 0.0
C3 C 0.32596 0.274 0.30578 0.0
H4 H 0.39012 0.25757 0.24421 0.0
H5 H 0.41372 0.22165 0.22082 0.0
H6 H 0.39188 0.24704 0.13124 0.0
H7 H 0.36809 0.28303 0.15456 0.0
H8 H 0.32843 0.33005 0.14953 0.0
H9 H 0.29971 0.3574 0.12041 0.0
H10 H 0.27882 0.39888 0.20358 0.0
H11 H 0.30754 0.37192 0.23253 0.0
H12 H 0.28339 0.31956 0.28303 0.0
H13 H 0.25243 0.29627 0.32378 0.0
H14 H 0.31538 0.24429 0.34223 0.0
H15 H 0.34599 0.26689 0.30036 0.0
N16 N 0.34993 0.28783 0.24518 0.0
N17 N 0.3505 0.31256 0.19908 0.0
N18 N 0.32302 0.32363 0.24137 0.0
C19 C 0.35964 0.29238 0.21577 0.0
C20 C 0.33251 0.32859 0.21197 0.0
C21 C 0.33158 0.30332 0.25816 0.0
C22 C 0.37704 0.27308 0.20127 0.0
C23 C 0.39059 0.25575 0.21949 0.0
C24 C 0.40424 0.23523 0.20611 0.0
C25 C 0.40443 0.23141 0.17424 0.0
C26 C 0.39174 0.24932 0.15592 0.0
C27 C 0.37834 0.27008 0.16928 0.0
C28 C 0.31995 0.34856 0.1934 0.0
C29 C 0.31829 0.34551 0.16146 0.0
C30 C 0.30169 0.36102 0.14481 0.0
C31 C 0.28679 0.38009 0.15975 0.0
C32 C 0.29018 0.38452 0.19133 0.0
C33 C 0.30649 0.36888 0.20798 0.0
C34 C 0.31685 0.29457 0.28782 0.0
C35 C 0.29104 0.30363 0.29617 0.0
C36 C 0.21569 0.92792 0.6517 0.0
C37 C 0.2103 0.93211 0.62081 0.0
C38 C 0.21879 0.91399 0.59857 0.0
C39 C 0.23146 0.89142 0.60719 0.0
H40 H 0.2645 0.82183 0.57344 0.0
H41 H 0.27647 0.78638 0.53759 0.0
H42 H 0.27547 0.72848 0.61264 0.0
H43 H 0.26365 0.7636 0.64821 0.0
H44 H 0.30528 0.80514 0.70621 0.0
H45 H 0.32656 0.80688 0.75679 0.0
H46 H 0.27505 0.86775 0.78617 0.0
H47 H 0.25386 0.86615 0.73591 0.0
H48 H 0.23193 0.90259 0.6844 0.0
H49 H 0.2095 0.94173 0.66926 0.0
H50 H 0.21461 0.9166 0.57461 0.0
H51 H 0.23719 0.87746 0.58953 0.0
N52 N 0.25017 0.841 0.62724 0.0
N53 N 0.26925 0.81617 0.66518 0.0
N54 N 0.25643 0.85965 0.67675 0.0
C55 C 0.26057 0.81799 0.63598 0.0
C56 C 0.26724 0.83694 0.68569 0.0
C57 C 0.24792 0.86188 0.64759 0.0
C58 C 0.26366 0.79561 0.6137 0.0
C59 C 0.26623 0.80129 0.58213 0.0
C60 C 0.27304 0.78105 0.5616 0.0
C61 C 0.27686 0.75469 0.57229 0.0
C62 C 0.27226 0.74844 0.60359 0.0
C63 C 0.26588 0.76873 0.62409 0.0
C64 C 0.27803 0.83568 0.717 0.0
C65 C 0.29818 0.81858 0.72363 0.0
C66 C 0.31045 0.81961 0.75249 0.0
C67 C 0.30241 0.83739 0.77537 0.0
C68 C 0.2814 0.85357 0.7691 0.0
C69 C 0.26945 0.85284 0.7402 0.0
C70 C 0.23608 0.88668 0.63821 0.0
C71 C 0.22858 0.90552 0.66032 0.0
C72 C 0.6445 0.27885 0.91361 0.0
C73 C 0.61427 0.26996 0.91306 0.0
C74 C 0.59793 0.28848 0.90017 0.0
C75 C 0.6113 0.31471 0.88822 0.0
H76 H 0.6106 0.36967 0.80967 0.0
H77 H 0.59064 0.3925 0.76783 0.0
H78 H 0.65503 0.46738 0.78059 0.0
H79 H 0.67486 0.44473 0.8226 0.0
H80 H 0.72886 0.44195 0.86608 0.0
H81 H 0.77372 0.46428 0.88972 0.0
H82 H 0.76603 0.39475 0.9528 0.0
H83 H 0.72183 0.37219 0.92884 0.0
H84 H 0.681 0.31135 0.9034 0.0
H85 H 0.65821 0.26531 0.92247 0.0
H86 H 0.57464 0.28312 0.89974 0.0
H87 H 0.59796 0.32835 0.87873 0.0
N88 N 0.64385 0.36517 0.85548 0.0
N89 N 0.68219 0.40384 0.85814 0.0
N90 N 0.68076 0.36505 0.89048 0.0
C91 C 0.65707 0.39109 0.84518 0.0
C92 C 0.69417 0.39102 0.88087 0.0
C93 C 0.65563 0.35198 0.87809 0.0
C94 C 0.64446 0.40522 0.81975 0.0
C95 C 0.62053 0.39104 0.80369 0.0
C96 C 0.60914 0.40411 0.77945 0.0
C97 C 0.62117 0.43186 0.77061 0.0
C98 C 0.64492 0.44613 0.78684 0.0
C99 C 0.65645 0.43301 0.81094 0.0
C100 C 0.72156 0.4051 0.89533 0.0
C101 C 0.73673 0.43137 0.88496 0.0
C102 C 0.76246 0.44431 0.8987 0.0
C103 C 0.77378 0.43137 0.92321 0.0
C104 C 0.75844 0.40522 0.93366 0.0
C105 C 0.73283 0.39229 0.91994 0.0
C106 C 0.64136 0.32361 0.88943 0.0
C107 C 0.65774 0.30533 0.90234 0.0
C108 C 0.76598 0.68112 0.43224 0.0
C109 C 0.75087 0.65505 0.42187 0.0
C110 C 0.76194 0.6428 0.39592 0.0
C111 C 0.78759 0.65611 0.38104 0.0
H112 H 0.84124 0.65232 0.30456 0.0
H113 H 0.86102 0.62945 0.26158 0.0
H114 H 0.94158 0.6884 0.26792 0.0
H115 H 0.92131 0.71199 0.31049 0.0
H116 H 0.91767 0.77199 0.35206 0.0
H117 H 0.94072 0.81688 0.3746 0.0
H118 H 0.87763 0.80476 0.44897 0.0
H119 H 0.85496 0.7603 0.42699 0.0
H120 H 0.80234 0.71443 0.42631 0.0
H121 H 0.75793 0.69153 0.45175 0.0
H122 H 0.75106 0.62264 0.38738 0.0
H123 H 0.79555 0.64591 0.36133 0.0
N124 N 0.8419 0.6847 0.35176 0.0
N125 N 0.8811 0.72279 0.3497 0.0
N126 N 0.8445 0.72132 0.38744 0.0
C127 C 0.86725 0.69766 0.33819 0.0
C128 C 0.86975 0.7348 0.3744 0.0
C129 C 0.83036 0.69637 0.37643 0.0
C130 C 0.87961 0.68408 0.31131 0.0
C131 C 0.86319 0.66054 0.29687 0.0
C132 C 0.87469 0.6472 0.27217 0.0
C133 C 0.90314 0.65673 0.26112 0.0
C134 C 0.91951 0.6805 0.27536 0.0
C135 C 0.90789 0.69401 0.30001 0.0
C136 C 0.88441 0.76225 0.38761 0.0
C137 C 0.90877 0.77887 0.37326 0.0
C138 C 0.9219 0.80473 0.3861 0.0
C139 C 0.91119 0.81448 0.41377 0.0
C140 C 0.88684 0.79784 0.42796 0.0
C141 C 0.87368 0.77225 0.41512 0.0
C142 C 0.80281 0.68209 0.39167 0.0
C143 C 0.79149 0.69441 0.41741 0.0
C144 C 0.61868 0.84418 0.86967 0.0
C145 C 0.61552 0.84602 0.9016 0.0
C146 C 0.62669 0.82708 0.92006 0.0
C147 C 0.64184 0.80753 0.90689 0.0
H148 H 0.692 0.74732 0.92778 0.0
H149 H 0.71873 0.71855 0.95762 0.0
H150 H 0.75104 0.68628 0.87388 0.0
H151 H 0.72421 0.71446 0.84426 0.0
H152 H 0.74865 0.76804 0.79812 0.0
H153 H 0.78233 0.79386 0.76103 0.0
H154 H 0.72198 0.84886 0.74384 0.0
H155 H 0.68849 0.82356 0.78188 0.0
H156 H 0.63696 0.82471 0.83186 0.0
H157 H 0.61047 0.85858 0.85485 0.0
H158 H 0.62425 0.82781 0.94475 0.0
H159 H 0.65104 0.79391 0.92181 0.0
N160 N 0.67464 0.76852 0.87743 0.0
N161 N 0.70688 0.76184 0.83744 0.0
N162 N 0.67864 0.7965 0.83327 0.0
C163 C 0.69471 0.75433 0.86537 0.0
C164 C 0.69904 0.78289 0.82122 0.0
C165 C 0.66618 0.78939 0.86119 0.0
C166 C 0.70628 0.73345 0.88364 0.0
C167 C 0.70425 0.73355 0.91579 0.0
C168 C 0.71972 0.71724 0.93288 0.0
C169 C 0.73722 0.70033 0.91813 0.0
C170 C 0.7376 0.69886 0.88602 0.0
C171 C 0.72237 0.71524 0.869 0.0
C172 C 0.71611 0.79413 0.7936 0.0
C173 C 0.74219 0.78525 0.78603 0.0
C174 C 0.76154 0.80001 0.76453 0.0
C175 C 0.75515 0.82383 0.74988 0.0
C176 C 0.7279 0.83107 0.75534 0.0
C177 C 0.70862 0.81644 0.77704 0.0
C178 C 0.6464 0.80678 0.87501 0.0
C179 C 0.63404 0.82485 0.85653 0.0
C180 C 0.69379 0.1739 0.37293 0.0
C181 C 0.66774 0.18131 0.36424 0.0
C182 C 0.65021 0.19133 0.38667 0.0
C183 C 0.65852 0.19363 0.4172 0.0
H184 H 0.63021 0.20756 0.50658 0.0
H185 H 0.60684 0.23821 0.53854 0.0
H186 H 0.67997 0.25212 0.59795 0.0
H187 H 0.70374 0.22151 0.56551 0.0
H188 H 0.74503 0.16799 0.55149 0.0
H189 H 0.78831 0.14907 0.56254 0.0
H190 H 0.81335 0.15459 0.46669 0.0
H191 H 0.77053 0.17355 0.4556 0.0
H192 H 0.72221 0.16998 0.40904 0.0
H193 H 0.70753 0.16559 0.35636 0.0
H194 H 0.63009 0.19738 0.38061 0.0
H195 H 0.6445 0.2013 0.43397 0.0
N196 N 0.67714 0.19753 0.48031 0.0
N197 N 0.71077 0.19127 0.51716 0.0
N198 N 0.71825 0.17958 0.46587 0.0
C199 C 0.6857 0.19942 0.50985 0.0
C200 C 0.7271 0.18124 0.49517 0.0
C201 C 0.69335 0.18761 0.45818 0.0
C202 C 0.66915 0.21271 0.53303 0.0
C203 C 0.6411 0.21661 0.52682 0.0
C204 C 0.62749 0.23394 0.54546 0.0
C205 C 0.64171 0.24788 0.57063 0.0
C206 C 0.66865 0.2419 0.57849 0.0
C207 C 0.68223 0.22435 0.5599 0.0
C208 C 0.75422 0.172 0.50265 0.0
C209 C 0.75996 0.16546 0.53286 0.0
C210 C 0.78461 0.15453 0.53917 0.0
C211 C 0.80405 0.15031 0.51544 0.0
C212 C 0.79885 0.15786 0.48546 0.0
C213 C 0.77416 0.16849 0.47911 0.0
C214 C 0.68447 0.18587 0.42589 0.0
C215 C 0.70207 0.17617 0.40331 0.0
C216 C 0.27147 0.64359 0.18276 0.0
C217 C 0.25415 0.65922 0.16676 0.0
C218 C 0.26298 0.68869 0.16569 0.0
C219 C 0.28842 0.70198 0.17947 0.0
H220 H 0.35031 0.77138 0.16754 0.0
H221 H 0.37182 0.81709 0.14694 0.0
H222 H 0.44289 0.82175 0.20822 0.0
H223 H 0.42097 0.77581 0.22946 0.0
H224 H 0.41264 0.72581 0.28471 0.0
H225 H 0.43331 0.7031 0.32632 0.0
H226 H 0.37879 0.62397 0.30431 0.0
H227 H 0.35811 0.64652 0.26281 0.0
H228 H 0.3096 0.64422 0.20884 0.0
H229 H 0.26587 0.62087 0.18389 0.0
H230 H 0.2501 0.70176 0.15446 0.0
H231 H 0.29434 0.72467 0.17794 0.0
N232 N 0.34558 0.72707 0.19988 0.0
N233 N 0.38264 0.72834 0.23496 0.0
N234 N 0.34568 0.68839 0.23188 0.0
C235 C 0.37039 0.741 0.21222 0.0
C236 C 0.37039 0.70198 0.24498 0.0
C237 C 0.33303 0.70087 0.20942 0.0
C238 C 0.38383 0.76956 0.20027 0.0
C239 C 0.37053 0.78199 0.17681 0.0
C240 C 0.38303 0.80832 0.16472 0.0
C241 C 0.40932 0.82325 0.1756 0.0
C242 C 0.42253 0.81107 0.19935 0.0
C243 C 0.40999 0.78458 0.21148 0.0
C244 C 0.3836 0.68812 0.27019 0.0
C245 C 0.40507 0.70355 0.28862 0.0
C246 C 0.41683 0.69054 0.31269 0.0
C247 C 0.40779 0.66163 0.3188 0.0
C248 C 0.38654 0.64617 0.30018 0.0
C249 C 0.37453 0.65923 0.2764 0.0
C250 C 0.30572 0.68636 0.1953 0.0
C251 C 0.29676 0.65698 0.19701 0.0
C252 C 0.15542 0.28969 0.67764 0.0
C253 C 0.12548 0.28001 0.68047 0.0
C254 C 0.10852 0.29724 0.69563 0.0
C255 C 0.12129 0.32348 0.70777 0.0
H256 H 0.113 0.38557 0.77774 0.0
H257 H 0.09229 0.40924 0.81987 0.0
H258 H 0.17213 0.46932 0.82565 0.0
H259 H 0.19236 0.44631 0.78299 0.0
H260 H 0.24863 0.43941 0.73494 0.0
H261 H 0.2938 0.46046 0.70868 0.0
H262 H 0.26415 0.41605 0.62589 0.0
H263 H 0.22026 0.39397 0.65267 0.0
H264 H 0.19117 0.32286 0.68615 0.0
H265 H 0.16907 0.27706 0.6659 0.0
H266 H 0.0854 0.29032 0.69827 0.0
H267 H 0.10767 0.33627 0.71926 0.0
N268 N 0.15346 0.37446 0.73958 0.0
N269 N 0.19232 0.41282 0.73636 0.0
N270 N 0.19015 0.37501 0.7021 0.0
C271 C 0.16702 0.40002 0.75022 0.0
C272 C 0.20387 0.40054 0.71209 0.0
C273 C 0.16511 0.3617 0.71567 0.0
C274 C 0.1544 0.41399 0.77664 0.0
C275 C 0.12618 0.40383 0.78799 0.0
C276 C 0.1143 0.41739 0.8124 0.0
C277 C 0.13034 0.44145 0.82641 0.0
C278 C 0.15871 0.45131 0.81526 0.0
C279 C 0.17048 0.43791 0.79074 0.0
C280 C 0.23091 0.41475 0.69605 0.0
C281 C 0.25189 0.43418 0.71113 0.0
C282 C 0.2778 0.4464 0.6959 0.0
C283 C 0.28319 0.43991 0.66499 0.0
C284 C 0.2616 0.42108 0.64985 0.0
C285 C 0.23611 0.40848 0.6652 0.0
C286 C 0.15121 0.33337 0.70434 0.0
C287 C 0.16805 0.31607 0.68912 0.0
La288 La 0.02813 0.06119 0.51699 0.0
La289 La 0.0107 1.03369 0.57703 0.0
C290 C 0.0362 0.08304 0.46476 0.0
C291 C 0.0616 0.10204 0.45166 0.0
C292 C 0.08954 0.09739 0.45732 0.0
C293 C 0.11369 0.11617 0.44652 0.0
C294 C 0.11052 0.1401 0.42988 0.0
C295 C 0.08256 0.14483 0.42425 0.0
C296 C 0.05827 0.12589 0.43504 0.0
C297 C 0.07016 0.04376 0.54557 0.0
C298 C 0.04331 0.09724 0.57526 0.0
C299 C 1.00213 1.01241 0.62952 0.0
C300 C 0.97644 0.99396 0.64283 0.0
C301 C 0.94869 0.99931 0.6375 0.0
C302 C 0.92427 0.98088 0.64829 0.0
C303 C 0.92698 0.95659 0.66454 0.0
C304 C 0.95476 0.95124 0.66996 0.0
C305 C 0.97931 0.96983 0.65921 0.0
C306 C 0.96859 0.05125 0.54846 0.0
C307 C 0.99525 0.99749 0.51882 0.0
O308 O 0.03983 0.05747 0.4708 0.0
O309 O 0.02242 0.09355 0.48705 0.0
O310 O 0.07388 0.06566 0.52818 0.0
O311 O 0.04437 1.03147 0.54453 0.0
O312 O 0.03617 0.09816 0.54631 0.0
O313 O 0.03982 0.07295 0.59009 0.0
O314 O 0.99909 1.03809 0.62316 0.0
O315 O 0.01557 1.00135 0.60737 0.0
O316 O 0.96521 1.02923 0.56563 0.0
O317 O 0.99439 0.06355 0.5496 0.0
O318 O 1.00187 0.99666 0.54795 0.0
O319 O 0.99955 1.02167 0.50367 0.0
H320 H 0.09284 0.07936 0.47039 0.0
H321 H 0.13491 0.11216 0.45167 0.0
H322 H 0.07947 0.163 0.41128 0.0
H323 H 0.03691 0.12998 0.43066 0.0
H324 H 0.94575 1.01757 0.6246 0.0
H325 H 0.90319 0.98537 0.64334 0.0
H326 H 0.9575 0.93278 0.68263 0.0
H327 H 1.0005 0.9652 0.66334 0.0
La328 La 0.53841 0.04944 0.05168 0.0
La329 La 0.48359 1.03379 1.01854 0.0
C330 C 0.58768 0.0688 0.0714 0.0
C331 C 0.59728 0.08141 0.10086 0.0
C332 C 0.58235 0.07197 0.12814 0.0
C333 C 0.58976 0.08583 0.15567 0.0
C334 C 0.61199 0.10962 0.15641 0.0
C335 C 0.62713 0.11879 0.12905 0.0
C336 C 0.61981 0.10477 0.10151 0.0
C337 C 0.49937 1.0097 0.07892 0.0
C338 C 0.48584 0.07569 0.07316 0.0
C339 C 0.4372 1.0103 0.99499 0.0
C340 C 0.42464 0.98331 0.98116 0.0
C341 C 0.39595 0.97911 0.97208 0.0
C342 C 0.38404 0.95472 0.9564 0.0
C343 C 0.4007 0.93408 0.94942 0.0
C344 C 0.42926 0.93794 0.9595 0.0
C345 C 0.44112 0.96238 0.97543 0.0
C346 C 0.51409 0.08395 1.00347 0.0
C347 C 0.53658 1.00587 0.99752 0.0
O348 O 0.57622 0.04195 0.07171 0.0
O349 O 0.57273 0.08357 0.05543 0.0
O350 O 0.51683 1.02904 0.0932 0.0
O351 O 0.505 1.0126 0.05072 0.0
O352 O 0.51419 0.08011 0.06991 0.0
O353 O 0.46934 0.05474 0.0589 0.0
O354 O 0.45863 1.02558 0.97952 0.0
O355 O 0.44181 1.0101 1.02443 0.0
O356 O 0.48624 0.07763 1.00476 0.0
O357 O 0.52398 0.06196 1.00883 0.0
O358 O 0.50874 1.00606 0.99508 0.0
O359 O 0.55284 1.02255 1.0168 0.0
H360 H 0.56464 0.05416 0.12815 0.0
H361 H 0.57802 0.07788 0.17637 0.0
H362 H 0.64414 0.13722 0.12876 0.0
H363 H 0.63126 0.11259 0.08057 0.0
H364 H 0.38298 0.99512 0.97634 0.0
H365 H 0.36216 0.95265 0.94852 0.0
H366 H 0.44254 0.92233 0.95464 0.0
H367 H 0.46326 0.96522 0.98262 0.0
La368 La 0.52104 0.52505 0.52435 0.0
La369 La 0.51366 0.5728 0.56336 0.0
C370 C 0.54334 0.48729 0.49892 0.0
C371 C 0.55569 0.46445 0.5124 0.0
C372 C 0.54487 0.43647 0.50433 0.0
C373 C 0.55379 0.41442 0.51962 0.0
C374 C 0.57367 0.41998 0.54336 0.0
C375 C 0.58506 0.44805 0.55083 0.0
C376 C 0.57619 0.47007 0.5355 0.0
C377 C 0.4691 0.51959 0.55038 0.0
C378 C 0.54071 0.52722 0.59517 0.0
C379 C 0.49143 0.6107 0.58836 0.0
C380 C 0.46657 0.62231 0.57829 0.0
C381 C 0.46731 0.65136 0.57946 0.0
C382 C 0.44491 0.66272 0.56721 0.0
C383 C 0.42145 0.64515 0.55354 0.0
C384 C 0.4208 0.61602 0.55244 0.0
C385 C 0.44316 0.60471 0.56465 0.0
C386 C 0.56543 0.57757 0.5373 0.0
C387 C 0.49223 0.56951 0.49394 0.0
O388 O 0.51549 0.4853 0.50328 0.0
O389 O 0.55738 0.51293 0.50344 0.0
O390 O 0.47437 0.51052 0.52321 0.0
O391 O 0.49276 0.52979 0.56254 0.0
O392 O 0.54036 0.51526 0.56772 0.0
O393 O 0.52971 0.55014 0.59992 0.0
O394 O 0.51421 0.61596 0.57014 0.0
O395 O 0.48578 0.58441 0.59722 0.0
O396 O 0.5605 0.58626 0.56473 0.0
O397 O 0.54164 0.56807 0.52509 0.0
O398 O 0.48838 0.57781 0.52246 0.0
O399 O 0.5082 0.5503 0.48801 0.0
H400 H 0.52903 0.43166 0.48663 0.0
H401 H 0.54512 0.39302 0.51281 0.0
H402 H 0.60024 0.45307 0.56911 0.0
H403 H 0.58482 0.49144 0.54244 0.0
H404 H 0.48535 0.66528 0.58953 0.0
H405 H 0.44575 0.68521 0.56887 0.0
H406 H 0.40316 0.60201 0.54185 0.0
H407 H 0.44234 0.58222 0.56293 0.0
La408 La 0.01602 0.51909 0.05763 0.0
La409 La 0.01208 0.57424 1.0304 0.0
C410 C 0.03227 0.47414 0.07208 0.0
C411 C 0.05997 0.4659 0.0784 0.0
C412 C 0.0602 0.44001 0.09244 0.0
C413 C 0.08637 0.43157 0.09804 0.0
C414 C 0.11275 0.44901 0.08981 0.0
C415 C 0.11241 0.47507 0.07591 0.0
C416 C 0.08622 0.48338 0.0701 0.0
C417 C 0.98547 0.54946 0.09103 0.0
C418 C 0.06772 0.57222 0.06592 0.0
C419 C 0.99415 0.61808 1.01553 0.0
C420 C 0.96536 0.62442 1.00893 0.0
C421 C 0.95458 0.62133 0.97918 0.0
C422 C 0.92726 0.62696 0.97312 0.0
C423 C 0.91013 0.63595 0.99662 0.0
C424 C 0.92097 0.63919 1.02634 0.0
C425 C 0.94829 0.63355 1.03241 0.0
C426 C 0.04271 0.54389 0.99707 0.0
C427 C 0.9604 0.52128 1.02208 0.0
O428 O 0.02316 0.49105 0.09197 0.0
O429 O 0.02908 0.4817 1.0439 0.0
O430 O 0.97968 0.52222 0.08895 0.0
O431 O 0.00852 0.55843 0.07597 0.0
O432 O 0.05909 0.54451 0.06608 0.0
O433 O 0.05137 0.58912 0.05504 0.0
O434 O 1.00495 0.60201 0.9959 0.0
O435 O 0.99826 0.61139 1.04383 0.0
O436 O 0.0484 0.57114 0.99903 0.0
O437 O 0.01961 0.53494 1.01206 0.0
O438 O 0.96877 0.54901 1.02254 0.0
O439 O 0.97703 0.50444 1.03245 0.0
H440 H 0.04013 0.42627 0.09898 0.0
H441 H 0.08597 0.41153 0.10912 0.0
H442 H 0.13237 0.48881 0.06905 0.0
H443 H 0.08651 0.50329 0.05884 0.0
H444 H 0.96726 0.61461 0.96048 0.0
H445 H 0.91979 0.62475 0.94986 0.0
H446 H 0.90824 0.64588 1.04501 0.0
H447 H 0.95599 0.63628 0.05557 0.0
H448 H 0.27231 0.21057 0.34097 0.0
H449 H 0.1208 0.19792 0.43055 0.0
H450 H 0.23932 0.28288 0.37488 0.0
H451 H 0.15942 0.12703 0.40329 0.0
H452 H 0.16437 0.22969 0.41184 0.0
H453 H 0.23244 0.17999 0.36685 0.0
C454 C 0.25707 0.22013 0.35441 0.0
C455 C 0.25927 0.24948 0.35557 0.0
C456 C 0.16333 0.20718 0.41012 0.0
C457 C 0.21267 0.21424 0.38457 0.0
C458 C 0.13839 0.18906 0.42053 0.0
C459 C 0.13648 0.15979 0.41843 0.0
C460 C 0.1864 0.19591 0.39736 0.0
C461 C 0.16007 0.14944 0.40567 0.0
C462 C 0.23401 0.20254 0.36893 0.0
C463 C 0.23828 0.2604 0.37287 0.0
N464 N 0.18395 0.16746 0.39555 0.0
N465 N 0.21569 0.24277 0.38643 0.0
H466 H 0.27862 0.83881 0.83299 0.0
H467 H 0.42785 0.91239 0.90122 0.0
H468 H 0.36047 0.84521 0.78456 0.0
H469 H 0.34641 0.90171 0.95121 0.0
H470 H 0.40517 0.87981 0.86228 0.0
H471 H 0.30418 0.85387 0.87986 0.0
C472 C 0.30201 0.843 0.83238 0.0
C473 C 0.31747 0.84118 0.80482 0.0
C474 C 0.39236 0.88419 0.88203 0.0
C475 C 0.3469 0.85871 0.85822 0.0
C476 C 0.40536 0.90266 0.90441 0.0
C477 C 0.38885 0.91018 0.92922 0.0
C478 C 0.3626 0.87335 0.8844 0.0
C479 C 0.35976 0.89703 0.93204 0.0
C480 C 0.31661 0.85154 0.85913 0.0
C481 C 0.34773 0.8464 0.80534 0.0
N482 N 0.34746 0.87961 0.90965 0.0
N483 N 0.36148 0.85541 0.83151 0.0
H484 H 0.60149 0.40872 0.71552 0.0
H485 H 0.5555 0.54942 0.65208 0.0
H486 H 0.61335 0.48689 0.76582 0.0
H487 H 0.55303 0.47396 0.59835 0.0
H488 H 0.57502 0.52655 0.6946 0.0
H489 H 0.58202 0.43175 0.67327 0.0
C490 C 0.59986 0.43068 0.71784 0.0
C491 C 0.60914 0.44576 0.74451 0.0
C492 C 0.57031 0.51502 0.67346 0.0
C493 C 0.58686 0.47251 0.69575 0.0
C494 C 0.55909 0.52807 0.64914 0.0
C495 C 0.5528 0.51375 0.62133 0.0
C496 C 0.57511 0.48726 0.67021 0.0
C497 C 0.55794 0.48606 0.61905 0.0
C498 C 0.58888 0.44391 0.69354 0.0
C499 C 0.60683 0.47438 0.74572 0.0
N500 N 0.56868 0.47377 0.64307 0.0
N501 N 0.59589 0.48673 0.72184 0.0
H502 H 0.94183 0.67893 0.21473 0.0
H503 H 0.94002 0.53057 0.13019 0.0
H504 H 0.89314 0.59986 0.24793 0.0
H505 H 1.00096 0.60564 0.106 0.0
H506 H 0.91991 0.55681 0.17081 0.0
H507 H 0.96151 0.65365 0.17289 0.0
C508 C 0.93531 0.65629 0.21346 0.0
C509 C 0.91558 0.6417 0.23519 0.0
C510 C 0.93762 0.56764 0.1566 0.0
C511 C 0.93786 0.61255 0.18663 0.0
C512 C 0.94908 0.55265 0.1333 0.0
C513 C 0.97223 0.56588 0.11459 0.0
C514 C 0.94922 0.59626 0.16131 0.0
C515 C 0.98304 0.59459 0.11974 0.0
C516 C 0.94648 0.64187 0.18934 0.0
C517 C 0.90776 0.61231 0.23166 0.0
N518 N 0.97148 0.60879 0.14258 0.0
N519 N 0.91883 0.59884 0.20797 0.0
H520 H 0.4556 0.21524 0.18683 0.0
H521 H 0.42931 0.08227 0.07413 0.0
H522 H 0.38086 0.19405 0.13052 0.0
H523 H 0.512 0.11599 0.11262 0.0
H524 H 0.40895 0.11944 0.10002 0.0
H525 H 0.47461 0.17556 0.1646 0.0
C526 C 0.4432 0.2022 0.16981 0.0
C527 C 0.4167 0.20801 0.16036 0.0
C528 C 0.43151 0.11859 0.10289 0.0
C529 C 0.43819 0.16255 0.135 0.0
C530 C 0.44311 0.09728 0.08829 0.0
C531 C 0.47244 0.09612 0.09108 0.0
C532 C 0.44932 0.13873 0.1206 0.0
C533 C 0.48932 0.1162 0.10964 0.0
C534 C 0.45407 0.17962 0.15709 0.0
C535 C 0.40157 0.19054 0.13812 0.0
N536 N 0.47753 0.1367 0.12364 0.0
N537 N 0.41248 0.16855 0.12626 0.0
H538 H 0.22145 0.96986 0.57348 0.0
H539 H 0.12842 0.06278 0.54016 0.0
H540 H 0.16074 0.94266 0.64769 0.0
H541 H 0.0645 0.99695 0.5807 0.0
H542 H 0.16653 0.04011 0.56028 0.0
H543 H 0.19011 1.00152 0.55626 0.0
C544 C 0.20175 0.97093 0.58639 0.0
C545 C 0.19363 0.95372 0.61204 0.0
C546 C 0.14415 1.03063 0.56465 0.0
C547 C 0.15796 0.98985 0.59277 0.0
C548 C 0.12246 0.04364 0.5534 0.0
C549 C 0.09337 1.03157 0.55877 0.0
C550 C 0.13646 1.00558 0.58146 0.0
C551 C 0.08666 1.00691 0.57616 0.0
C552 C 0.18405 0.98918 0.57676 0.0
C553 C 0.16793 0.95582 0.62801 0.0
N554 N 0.10807 0.99475 0.58695 0.0
N555 N 0.15079 0.97324 0.61782 0.0
H556 H 0.81671 0.40574 0.94503 0.0
H557 H 0.91936 0.5485 0.99836 0.0
H558 H 0.79449 0.48779 0.93467 0.0
H559 H 0.93692 0.46537 1.0144 0.0
H560 H 0.87404 0.52716 0.97445 0.0
H561 H 0.86107 0.42761 0.96974 0.0
C562 C 0.82097 0.42836 0.94809 0.0
C563 C 0.80147 0.44481 0.93777 0.0
C564 C 0.88778 0.5136 0.98328 0.0
C565 C 0.85297 0.47024 0.96594 0.0
C566 C 0.91371 0.52577 0.997 0.0
C567 C 0.93215 0.50876 1.00852 0.0
C568 C 0.88016 0.48415 0.98088 0.0
C569 C 0.92353 0.47942 1.00595 0.0
C570 C 0.84652 0.44088 0.96212 0.0
C571 C 0.80884 0.47416 0.94189 0.0
N572 N 0.89831 0.46813 0.9924 0.0
N573 N 0.83389 0.48588 0.95563 0.0
H574 H 0.70058 0.62552 0.3976 0.0
H575 H 0.61722 0.60165 0.5606 0.0
H576 H 0.73926 0.65209 0.48385 0.0
H577 H 0.57742 0.57266 0.4757 0.0
H578 H 0.66263 0.6184 0.53261 0.0
H579 H 0.65608 0.60421 0.42532 0.0
C580 C 0.69987 0.62671 0.42235 0.0
C581 C 0.72382 0.64089 0.4383 0.0
C582 C 0.64407 0.60828 0.52001 0.0
C583 C 0.67265 0.61665 0.47025 0.0
C584 C 0.6181 0.59867 0.53603 0.0
C585 C 0.59345 0.58586 0.52046 0.0
C586 C 0.64554 0.60519 0.48803 0.0
C587 C 0.5959 0.58247 0.48861 0.0
C588 C 0.67435 0.61464 0.43816 0.0
C589 C 0.72131 0.64192 0.47041 0.0
N590 N 0.62142 0.59222 0.47342 0.0
N591 N 0.6963 0.6301 0.48521 0.0
H592 H 0.27732 0.43438 0.16369 0.0
H593 H 0.12675 0.39722 0.07978 0.0
H594 H 0.24662 0.35478 0.11957 0.0
H595 H 0.16184 0.48027 0.1134 0.0
H596 H 0.1717 0.38203 0.09214 0.0
H597 H 0.23677 0.45265 0.14291 0.0
C598 C 0.26223 0.42087 0.14933 0.0
C599 C 0.26526 0.39297 0.14349 0.0
C600 C 0.16969 0.40364 0.09663 0.0
C601 C 0.21871 0.41362 0.11986 0.0
C602 C 0.14395 0.41226 0.08978 0.0
C603 C 0.14048 0.43998 0.09581 0.0
C604 C 0.19209 0.42281 0.1099 0.0
C605 C 0.16366 0.45873 0.10827 0.0
C606 C 0.23912 0.43131 0.13744 0.0
C607 C 0.24527 0.37647 0.12448 0.0
N608 N 0.18839 0.44974 0.11516 0.0
N609 N 0.22267 0.38694 0.11365 0.0
H610 H 0.56305 0.23576 0.89613 0.0
H611 H 0.5732 0.10309 0.99914 0.0
H612 H 0.6324 0.23865 0.95956 0.0
H613 H 0.4919 0.12589 0.97734 0.0
H614 H 0.59839 0.14828 0.9775 0.0
H615 H 0.53958 0.19102 0.91836 0.0
C616 C 0.57343 0.22735 0.9148 0.0
C617 C 0.59994 0.24173 0.9259 0.0
C618 C 0.57503 0.1433 0.97757 0.0
C619 C 0.57322 0.18927 0.95077 0.0
C620 C 0.56066 0.11757 0.98995 0.0
C621 C 0.53037 0.11078 0.99036 0.0
C622 C 0.55901 0.16196 0.96475 0.0
C623 C 0.51525 0.13023 0.97766 0.0
C624 C 0.55998 0.20151 0.92731 0.0
C625 C 0.61236 0.22859 0.9496 0.0
N626 N 0.52968 0.15472 0.96519 0.0
N627 N 0.59902 0.20316 0.96107 0.0
H628 H 0.93298 0.86547 0.38591 0.0
H629 H 0.97879 0.94503 0.54404 0.0
H630 H 0.92116 0.82581 0.47462 0.0
H631 H 0.9834 0.98839 0.45757 0.0
H632 H 0.95941 0.90101 0.51821 0.0
H633 H 0.95366 0.91012 0.41074 0.0
C634 C 0.9349 0.86604 0.41055 0.0
C635 C 0.92509 0.84172 0.42813 0.0
C636 C 0.96461 0.92011 0.5048 0.0
C637 C 0.94864 0.89296 0.45679 0.0
C638 C 0.97574 0.94538 0.51959 0.0
C639 C 0.98281 0.97065 0.50305 0.0
C640 C 0.96052 0.9198 0.47305 0.0
C641 C 0.97823 0.96953 0.47134 0.0
C642 C 0.94654 0.89163 0.42474 0.0
C643 C 0.92794 0.84397 0.46006 0.0
N644 N 0.96747 0.94457 0.45739 0.0
N645 N 0.93939 0.869 0.47324 0.0
H646 H 0.26199 0.69727 0.56762 0.0
H647 H 0.42344 0.69324 0.52005 0.0
H648 H 0.32307 0.76844 0.53291 0.0
H649 H 0.36375 0.62413 0.561 0.0
H650 H 0.38296 0.71657 0.50959 0.0
H651 H 0.29402 0.66609 0.54916 0.0
C652 C 0.28177 0.70623 0.55532 0.0
C653 C 0.29032 0.73549 0.55255 0.0
C654 C 0.37865 0.69604 0.52033 0.0
C655 C 0.32724 0.70015 0.53196 0.0
C656 C 0.40177 0.68284 0.5265 0.0
C657 C 0.397 0.6571 0.54215 0.0
C658 C 0.35064 0.68354 0.53023 0.0
C659 C 0.36844 0.6441 0.54914 0.0
C660 C 0.30009 0.68846 0.54484 0.0
C661 C 0.31581 0.74601 0.53586 0.0
N662 N 0.34639 0.65773 0.54367 0.0
N663 N 0.33377 0.7284 0.52689 0.0
H664 H 0.7971 0.80993 0.71058 0.0
H665 H 0.87828 0.96981 0.69154 0.0
H666 H 0.76607 0.88137 0.74966 0.0
H667 H 0.9159 0.89883 0.66241 0.0
H668 H 0.83474 0.93754 0.70839 0.0
H669 H 0.8384 0.84209 0.68789 0.0
C670 C 0.79881 0.83234 0.7142 0.0
C671 C 0.77806 0.84289 0.7322 0.0
C672 C 0.85247 0.92897 0.69829 0.0
C673 C 0.82522 0.87976 0.70626 0.0
C674 C 0.87732 0.94741 0.68857 0.0
C675 C 0.90077 0.937 0.67557 0.0
C676 C 0.85096 0.89984 0.695 0.0
C677 C 0.89845 0.90773 0.67266 0.0
C678 C 0.82238 0.85068 0.70122 0.0
C679 C 0.78121 0.87219 0.73567 0.0
N680 N 0.87396 0.89015 0.68229 0.0
N681 N 0.8044 0.88953 0.72301 0.0
H682 H 0.70083 0.19237 0.31172 0.0
H683 H 0.57483 0.12088 0.20219 0.0
H684 H 0.61357 0.16029 0.34363 0.0
H685 H 0.66553 0.13305 0.17725 0.0
H686 H 0.58733 0.14305 0.25158 0.0
H687 H 0.68659 0.17901 0.25958 0.0
C688 C 0.67863 0.18267 0.30773 0.0
C689 C 0.65846 0.17704 0.33215 0.0
C690 C 0.60446 0.14099 0.2352 0.0
C691 C 0.64201 0.16193 0.27253 0.0
C692 C 0.59738 0.12816 0.20708 0.0
C693 C 0.61919 0.12472 0.18565 0.0
C694 C 0.63355 0.15061 0.24193 0.0
C695 C 0.64798 0.13534 0.19296 0.0
C696 C 0.67051 0.17512 0.27797 0.0
C697 C 0.62982 0.16509 0.32553 0.0
N698 N 0.65433 0.14766 0.22056 0.0
N699 N 0.6225 0.15769 0.29636 0.0
H700 H 0.42423 0.60981 0.31908 0.0
H701 H 0.46517 0.61525 0.49644 0.0
H702 H 0.41988 0.68131 0.37732 0.0
H703 H 0.48894 0.55419 0.43301 0.0
H704 H 0.44463 0.63743 0.45428 0.0
H705 H 0.44409 0.58709 0.36142 0.0
C706 C 0.42732 0.62073 0.34079 0.0
C707 C 0.4203 0.64762 0.34447 0.0
C708 C 0.45432 0.61918 0.44955 0.0
C709 C 0.44313 0.62153 0.39335 0.0
C710 C 0.46599 0.60636 0.4737 0.0
C711 C 0.4789 0.5827 0.46843 0.0
C712 C 0.45523 0.60822 0.41973 0.0
C713 C 0.47932 0.57237 0.43828 0.0
C714 C 0.43883 0.60776 0.36495 0.0
C715 C 0.42519 0.66075 0.37318 0.0
N716 N 0.46763 0.5851 0.41519 0.0
N717 N 0.43611 0.64756 0.39644 0.0
H718 H 0.13951 0.49838 0.83922 0.0
H719 H 0.02747 0.4877 0.982 0.0
H720 H 0.09163 0.41907 0.87278 0.0
H721 H 0.08823 0.56296 0.95807 0.0
H722 H 0.04896 0.46221 0.94134 0.0
H723 H 0.11929 0.52232 0.88139 0.0
C724 C 0.12496 0.48584 0.85551 0.0
C725 C 0.11758 0.45642 0.85219 0.0
C726 C 0.05769 0.48427 0.94509 0.0
C727 C 0.09362 0.4842 0.90075 0.0
C728 C 0.04548 0.49881 0.96839 0.0
C729 C 0.05612 0.52752 0.97358 0.0
C730 C 0.08056 0.49858 0.92656 0.0
C731 C 0.0793 0.54087 0.95494 0.0
C732 C 0.11323 0.49966 0.87962 0.0
C733 C 0.09785 0.44173 0.87392 0.0
N734 N 0.09059 0.52638 0.93228 0.0
N735 N 0.08659 0.45573 0.89713 0.0
H736 H 0.5665 0.86471 0.88506 0.0
H737 H 0.59059 0.99365 1.00296 0.0
H738 H 0.6356 0.88016 0.94931 0.0
H739 H 0.51163 0.96863 0.95383 0.0
H740 H 0.60952 0.95492 0.97914 0.0
H741 H 0.54768 0.90489 0.90649 0.0
C742 C 0.57764 0.87651 0.90372 0.0
C743 C 0.60258 0.86902 0.91552 0.0
C744 C 0.58808 0.95794 0.97349 0.0
C745 C 0.58137 0.91506 0.93991 0.0
C746 C 0.57729 0.98021 0.98694 0.0
C747 C 0.54936 0.98437 0.98056 0.0
C748 C 0.57093 0.9397 0.95334 0.0
C749 C 0.53319 0.96615 0.95959 0.0
C750 C 0.56688 0.89938 0.91596 0.0
C751 C 0.61609 0.88493 0.93981 0.0
N752 N 0.54419 0.94455 0.94679 0.0
N753 N 0.6054 0.90726 0.95108 0.0
H754 H 0.80415 0.10337 0.5496 0.0
H755 H 0.97188 0.10221 0.52077 0.0
H756 H 0.85988 0.16544 0.49416 0.0
H757 H 0.91121 1.03205 0.55832 0.0
H758 H 0.93187 0.12696 0.51243 0.0
H759 H 0.8443 0.07869 0.55616 0.0
C760 C 0.82496 0.11196 0.53911 0.0
C761 C 0.82878 0.13647 0.52137 0.0
C762 C 0.92731 0.10607 0.52228 0.0
C763 C 0.87464 0.10817 0.52834 0.0
C764 C 0.95008 0.09194 0.52693 0.0
C765 C 0.94471 0.06517 0.54031 0.0
C766 C 0.89914 0.09333 0.53135 0.0
C767 C 0.9162 0.05273 0.548 0.0
C768 C 0.84778 0.09772 0.54257 0.0
C769 C 0.85604 0.14647 0.50784 0.0
N770 N 0.89446 0.06703 0.54362 0.0
N771 N 0.878 0.13228 0.51164 0.0
H772 H 0.21582 0.61061 0.18354 0.0
H773 H 0.09881 0.62589 0.05914 0.0
H774 H 0.23016 0.67524 0.11409 0.0
H775 H 0.10124 0.54694 0.10351 0.0
H776 H 0.14449 0.64628 0.0828 0.0
H777 H 0.17173 0.58869 0.15804 0.0
C778 C 0.21001 0.6202 0.16288 0.0
C779 C 0.2271 0.6451 0.15125 0.0
C780 C 0.13508 0.62446 0.08727 0.0
C781 C 0.1758 0.62019 0.12227 0.0
C782 C 0.10893 0.6128 0.07381 0.0
C783 C 0.09605 0.5846 0.07927 0.0
C784 C 0.14837 0.60803 0.10684 0.0
C785 C 0.11034 0.56872 0.09851 0.0
C786 C 0.18461 0.60766 0.14842 0.0
C787 C 0.21766 0.65654 0.12459 0.0
N788 N 0.13555 0.58069 0.11177 0.0
N789 N 0.1927 0.64416 0.11123 0.0
H790 H 0.312 0.41619 0.61877 0.0
H791 H 0.45347 0.53424 0.60863 0.0
H792 H 0.3191 0.49182 0.67352 0.0
H793 H 0.42176 0.48274 0.53148 0.0
H794 H 0.40808 0.51608 0.63693 0.0
H795 H 0.356 0.43697 0.59088 0.0
C796 C 0.32246 0.43727 0.62489 0.0
C797 C 0.31109 0.45226 0.64853 0.0
C798 C 0.41107 0.50894 0.61374 0.0
C799 C 0.36272 0.47587 0.6169 0.0
C800 C 0.43692 0.51932 0.59756 0.0
C801 C 0.4414 0.51011 0.56757 0.0
C802 C 0.38986 0.4887 0.60008 0.0
C803 C 0.41928 0.49049 0.5545 0.0
C804 C 0.34785 0.44903 0.60896 0.0
C805 C 0.32684 0.47914 0.65581 0.0
N806 N 0.39468 0.48025 0.5709 0.0
N807 N 0.35183 0.49 0.64018 0.0
H808 H 0.75064 0.64784 0.90947 0.0
H809 H 0.8863 0.68004 1.01849 0.0
H810 H 0.77058 0.72205 0.96602 0.0
H811 H 0.86856 0.60738 0.95935 0.0
H812 H 0.84048 0.6925 1.0046 0.0
H813 H 0.79002 0.62948 0.93257 0.0
C814 C 0.76309 0.66013 0.927 0.0
C815 C 0.75747 0.68667 0.93558 0.0
C816 C 0.84649 0.67371 0.99482 0.0
C817 C 0.80265 0.66582 0.96206 0.0
C818 C 0.87262 0.66649 1.00287 0.0
C819 C 0.88145 0.64273 0.98988 0.0
C820 C 0.82902 0.65712 0.97355 0.0
C821 C 0.86291 0.62618 0.96948 0.0
C822 C 0.78556 0.64963 0.9402 0.0
C823 C 0.77399 0.70144 0.95879 0.0
N824 N 0.83768 0.63378 0.9618 0.0
N825 N 0.79603 0.69097 0.97095 0.0
H826 H 0.43835 0.87082 0.20458 0.0
H827 H 0.46875 0.96325 0.05071 0.0
H828 H 0.41105 0.83986 0.11525 0.0
H829 H 0.49542 0.99524 0.13976 0.0
H830 H 0.44663 0.91828 0.07424 0.0
H831 H 0.4592 0.9164 0.18161 0.0
C832 C 0.43684 0.87346 0.18013 0.0
C833 C 0.42273 0.85124 0.16197 0.0
C834 C 0.4572 0.93513 0.08871 0.0
C835 C 0.44645 0.9038 0.13542 0.0
C836 C 0.46978 0.96087 0.07527 0.0
C837 C 0.48401 0.98307 0.09328 0.0
C838 C 0.45885 0.93138 0.12049 0.0
C839 C 0.48468 0.97872 0.12499 0.0
C840 C 0.44861 0.89964 0.16704 0.0
C841 C 0.42123 0.85632 0.1304 0.0
N842 N 0.47242 0.95342 0.13754 0.0
N843 N 0.43289 0.8819 0.11823 0.0
H844 H 0.14244 0.22903 0.68647 0.0
H845 H 0.03869 0.15081 0.55909 0.0
H846 H 0.07863 0.26793 0.64337 0.0
H847 H 0.0745 0.10495 0.6281 0.0
H848 H 0.05748 0.19478 0.58582 0.0
H849 H 0.122 0.18424 0.66184 0.0
C850 C 0.12408 0.22812 0.67187 0.0
C851 C 0.11222 0.25229 0.66701 0.0
C852 C 0.06118 0.1751 0.59515 0.0
C853 C 0.08896 0.20113 0.63838 0.0
C854 C 0.0506 0.14995 0.57981 0.0
C855 C 0.05501 0.12404 0.59132 0.0
C856 C 0.07682 0.17455 0.62198 0.0
C857 C 0.07049 0.12437 0.61842 0.0
C858 C 0.11237 0.20253 0.65791 0.0
C859 C 0.08833 0.24981 0.64796 0.0
N860 N 0.08102 0.1492 0.63267 0.0
N861 N 0.0777 0.22482 0.63411 0.0
H862 H 0.58584 0.25234 0.58641 0.0
H863 H 0.62788 0.41661 0.56243 0.0
H864 H 0.67308 0.29943 0.5847 0.0
H865 H 0.54044 0.36997 0.5621 0.0
H866 H 0.64354 0.37581 0.58406 0.0
H867 H 0.56792 0.29646 0.59191 0.0
C868 C 0.60123 0.27189 0.58802 0.0
C869 C 0.63095 0.27226 0.58423 0.0
C870 C 0.62085 0.37459 0.57967 0.0
C871 C 0.61068 0.32274 0.59009 0.0
C872 C 0.61186 0.39795 0.56737 0.0
C873 C 0.58289 0.3965 0.55975 0.0
C874 C 0.6008 0.34948 0.5841 0.0
C875 C 0.56315 0.37171 0.56667 0.0
C876 C 0.59101 0.29708 0.5911 0.0
C877 C 0.64997 0.2981 0.58724 0.0
N878 N 0.57255 0.34903 0.578 0.0
N879 N 0.63949 0.32236 0.58925 0.0
loop_
_geom_bond_atom_site_label_1
_geom_bond_atom_site_label_2
_geom_bond_distance
_geom_bond_site_symmetry_2
_ccdc_geom_bond_type
C0 C1 1.384 . S
C0 H13 0.947 . S
C0 C35 1.382 . S
C1 C0 1.384 . S
C1 C2 1.378 . S
C2 C1 1.378 . S
C2 C3 1.378 . S
C2 H14 0.952 . S
C3 C2 1.378 . S
C3 H15 0.950 . S
C3 C34 1.383 . S
H4 C23 0.947 . S
H5 C24 0.946 . S
H6 C26 0.953 . S
H7 C27 0.945 . S
H8 C29 0.952 . S
H9 C30 0.949 . S
H10 C32 0.950 . S
H11 C33 0.948 . S
H12 C35 0.951 . S
H13 C0 0.947 . S
H14 C2 0.952 . S
H15 C3 0.950 . S
N16 C19 1.382 . S
N16 C21 1.363 . S
N17 C19 1.371 . S
N17 C20 1.372 . S
N18 C20 1.361 . S
N18 C21 1.377 . S
C19 N16 1.382 . S
C19 N17 1.371 . S
C19 C22 1.480 . S
C20 N17 1.372 . S
C20 N18 1.361 . S
C20 C28 1.457 . S
C21 N16 1.363 . S
C21 N18 1.377 . S
C21 C34 1.479 . S
C22 C19 1.480 . S
C22 C23 1.383 . S
C22 C27 1.385 . S
C23 H4 0.947 . S
C23 C22 1.383 . S
C23 C24 1.388 . S
C24 H5 0.946 . S
C24 C23 1.388 . S
C24 C25 1.384 . S
C25 C24 1.384 . S
C25 C26 1.377 . S
C26 H6 0.953 . S
C26 C25 1.377 . S
C26 C27 1.369 . S
C27 H7 0.945 . S
C27 C22 1.385 . S
C27 C26 1.369 . S
C28 C20 1.457 . S
C28 C29 1.372 . S
C28 C33 1.364 . S
C29 H8 0.952 . S
C29 C28 1.372 . S
C29 C30 1.389 . S
C30 H9 0.949 . S
C30 C29 1.389 . S
C30 C31 1.387 . S
C31 C30 1.387 . S
C31 C32 1.372 . S
C32 H10 0.950 . S
C32 C31 1.372 . S
C32 C33 1.379 . S
C33 H11 0.948 . S
C33 C28 1.364 . S
C33 C32 1.379 . S
C34 C3 1.383 . S
C34 C21 1.479 . S
C34 C35 1.398 . S
C35 C0 1.382 . S
C35 H12 0.951 . S
C35 C34 1.398 . S
C36 C37 1.384 . S
C36 H49 0.947 . S
C36 C71 1.382 . S
C37 C36 1.384 . S
C37 C38 1.378 . S
C38 C37 1.378 . S
C38 C39 1.378 . S
C38 H50 0.952 . S
C39 C38 1.378 . S
C39 H51 0.950 . S
C39 C70 1.383 . S
H40 C59 0.947 . S
H41 C60 0.946 . S
H42 C62 0.953 . S
H43 C63 0.945 . S
H44 C65 0.952 . S
H45 C66 0.949 . S
H46 C68 0.950 . S
H47 C69 0.948 . S
H48 C71 0.951 . S
H49 C36 0.947 . S
H50 C38 0.952 . S
H51 C39 0.950 . S
N52 C55 1.382 . S
N52 C57 1.363 . S
N53 C55 1.371 . S
N53 C56 1.372 . S
N54 C56 1.361 . S
N54 C57 1.377 . S
C55 N52 1.382 . S
C55 N53 1.371 . S
C55 C58 1.480 . S
C56 N53 1.372 . S
C56 N54 1.361 . S
C56 C64 1.457 . S
C57 N52 1.363 . S
C57 N54 1.377 . S
C57 C70 1.479 . S
C58 C55 1.480 . S
C58 C59 1.383 . S
C58 C63 1.385 . S
C59 H40 0.947 . S
C59 C58 1.383 . S
C59 C60 1.388 . S
C60 H41 0.946 . S
C60 C59 1.388 . S
C60 C61 1.384 . S
C61 C60 1.384 . S
C61 C62 1.377 . S
C62 H42 0.953 . S
C62 C61 1.377 . S
C62 C63 1.369 . S
C63 H43 0.945 . S
C63 C58 1.385 . S
C63 C62 1.369 . S
C64 C56 1.457 . S
C64 C65 1.372 . S
C64 C69 1.364 . S
C65 H44 0.952 . S
C65 C64 1.372 . S
C65 C66 1.389 . S
C66 H45 0.949 . S
C66 C65 1.389 . S
C66 C67 1.387 . S
C67 C66 1.387 . S
C67 C68 1.372 . S
C68 H46 0.950 . S
C68 C67 1.372 . S
C68 C69 1.379 . S
C69 H47 0.948 . S
C69 C64 1.364 . S
C69 C68 1.379 . S
C70 C39 1.383 . S
C70 C57 1.479 . S
C70 C71 1.398 . S
C71 C36 1.382 . S
C71 H48 0.951 . S
C71 C70 1.398 . S
C72 C73 1.384 . S
C72 H85 0.947 . S
C72 C107 1.382 . S
C73 C72 1.384 . S
C73 C74 1.378 . S
C74 C73 1.378 . S
C74 C75 1.378 . S
C74 H86 0.952 . S
C75 C74 1.378 . S
C75 H87 0.950 . S
C75 C106 1.383 . S
H76 C95 0.947 . S
H77 C96 0.946 . S
H78 C98 0.953 . S
H79 C99 0.945 . S
H80 C101 0.952 . S
H81 C102 0.949 . S
H82 C104 0.950 . S
H83 C105 0.948 . S
H84 C107 0.951 . S
H85 C72 0.947 . S
H86 C74 0.952 . S
H87 C75 0.950 . S
N88 C91 1.382 . S
N88 C93 1.363 . S
N89 C91 1.371 . S
N89 C92 1.372 . S
N90 C92 1.361 . S
N90 C93 1.377 . S
C91 N88 1.382 . S
C91 N89 1.371 . S
C91 C94 1.480 . S
C92 N89 1.372 . S
C92 N90 1.361 . S
C92 C100 1.457 . S
C93 N88 1.363 . S
C93 N90 1.377 . S
C93 C106 1.479 . S
C94 C91 1.480 . S
C94 C95 1.383 . S
C94 C99 1.385 . S
C95 H76 0.947 . S
C95 C94 1.383 . S
C95 C96 1.388 . S
C96 H77 0.946 . S
C96 C95 1.388 . S
C96 C97 1.384 . S
C97 C96 1.384 . S
C97 C98 1.377 . S
C98 H78 0.953 . S
C98 C97 1.377 . S
C98 C99 1.369 . S
C99 H79 0.945 . S
C99 C94 1.385 . S
C99 C98 1.369 . S
C100 C92 1.457 . S
C100 C101 1.372 . S
C100 C105 1.364 . S
C101 H80 0.952 . S
C101 C100 1.372 . S
C101 C102 1.389 . S
C102 H81 0.949 . S
C102 C101 1.389 . S
C102 C103 1.387 . S
C103 C102 1.387 . S
C103 C104 1.372 . S
C104 H82 0.950 . S
C104 C103 1.372 . S
C104 C105 1.379 . S
C105 H83 0.948 . S
C105 C100 1.364 . S
C105 C104 1.379 . S
C106 C75 1.383 . S
C106 C93 1.479 . S
C106 C107 1.398 . S
C107 C72 1.382 . S
C107 H84 0.951 . S
C107 C106 1.398 . S
C108 C109 1.384 . S
C108 H121 0.947 . S
C108 C143 1.382 . S
C109 C108 1.384 . S
C109 C110 1.378 . S
C110 C109 1.378 . S
C110 C111 1.378 . S
C110 H122 0.952 . S
C111 C110 1.378 . S
C111 H123 0.950 . S
C111 C142 1.383 . S
H112 C131 0.947 . S
H113 C132 0.946 . S
H114 C134 0.953 . S
H115 C135 0.945 . S
H116 C137 0.952 . S
H117 C138 0.949 . S
H118 C140 0.950 . S
H119 C141 0.948 . S
H120 C143 0.951 . S
H121 C108 0.947 . S
H122 C110 0.952 . S
H123 C111 0.950 . S
N124 C127 1.382 . S
N124 C129 1.363 . S
N125 C127 1.371 . S
N125 C128 1.372 . S
N126 C128 1.361 . S
N126 C129 1.377 . S
C127 N124 1.382 . S
C127 N125 1.371 . S
C127 C130 1.480 . S
C128 N125 1.372 . S
C128 N126 1.361 . S
C128 C136 1.457 . S
C129 N124 1.363 . S
C129 N126 1.377 . S
C129 C142 1.479 . S
C130 C127 1.480 . S
C130 C131 1.383 . S
C130 C135 1.385 . S
C131 H112 0.947 . S
C131 C130 1.383 . S
C131 C132 1.388 . S
C132 H113 0.946 . S
C132 C131 1.388 . S
C132 C133 1.384 . S
C133 C132 1.384 . S
C133 C134 1.377 . S
C134 H114 0.953 . S
C134 C133 1.377 . S
C134 C135 1.369 . S
C135 H115 0.945 . S
C135 C130 1.385 . S
C135 C134 1.369 . S
C136 C128 1.457 . S
C136 C137 1.372 . S
C136 C141 1.364 . S
C137 H116 0.952 . S
C137 C136 1.372 . S
C137 C138 1.389 . S
C138 H117 0.949 . S
C138 C137 1.389 . S
C138 C139 1.387 . S
C139 C138 1.387 . S
C139 C140 1.372 . S
C140 H118 0.950 . S
C140 C139 1.372 . S
C140 C141 1.379 . S
C141 H119 0.948 . S
C141 C136 1.364 . S
C141 C140 1.379 . S
C142 C111 1.383 . S
C142 C129 1.479 . S
C142 C143 1.398 . S
C143 C108 1.382 . S
C143 H120 0.951 . S
C143 C142 1.398 . S
C144 C145 1.384 . S
C144 H157 0.947 . S
C144 C179 1.382 . S
C145 C144 1.384 . S
C145 C146 1.378 . S
C146 C145 1.378 . S
C146 C147 1.378 . S
C146 H158 0.952 . S
C147 C146 1.378 . S
C147 H159 0.950 . S
C147 C178 1.383 . S
H148 C167 0.947 . S
H149 C168 0.946 . S
H150 C170 0.953 . S
H151 C171 0.945 . S
H152 C173 0.952 . S
H153 C174 0.949 . S
H154 C176 0.950 . S
H155 C177 0.948 . S
H156 C179 0.951 . S
H157 C144 0.947 . S
H158 C146 0.952 . S
H159 C147 0.950 . S
N160 C163 1.382 . S
N160 C165 1.363 . S
N161 C163 1.371 . S
N161 C164 1.372 . S
N162 C164 1.361 . S
N162 C165 1.377 . S
C163 N160 1.382 . S
C163 N161 1.371 . S
C163 C166 1.480 . S
C164 N161 1.372 . S
C164 N162 1.361 . S
C164 C172 1.457 . S
C165 N160 1.363 . S
C165 N162 1.377 . S
C165 C178 1.479 . S
C166 C163 1.480 . S
C166 C167 1.383 . S
C166 C171 1.385 . S
C167 H148 0.947 . S
C167 C166 1.383 . S
C167 C168 1.388 . S
C168 H149 0.946 . S
C168 C167 1.388 . S
C168 C169 1.384 . S
C169 C168 1.384 . S
C169 C170 1.377 . S
C170 H150 0.953 . S
C170 C169 1.377 . S
C170 C171 1.369 . S
C171 H151 0.945 . S
C171 C166 1.385 . S
C171 C170 1.369 . S
C172 C164 1.457 . S
C172 C173 1.372 . S
C172 C177 1.364 . S
C173 H152 0.952 . S
C173 C172 1.372 . S
C173 C174 1.389 . S
C174 H153 0.949 . S
C174 C173 1.389 . S
C174 C175 1.387 . S
C175 C174 1.387 . S
C175 C176 1.372 . S
C176 H154 0.950 . S
C176 C175 1.372 . S
C176 C177 1.379 . S
C177 H155 0.948 . S
C177 C172 1.364 . S
C177 C176 1.379 . S
C178 C147 1.383 . S
C178 C165 1.479 . S
C178 C179 1.398 . S
C179 C144 1.382 . S
C179 H156 0.951 . S
C179 C178 1.398 . S
C180 C181 1.384 . S
C180 H193 0.947 . S
C180 C215 1.382 . S
C181 C180 1.384 . S
C181 C182 1.378 . S
C182 C181 1.378 . S
C182 C183 1.378 . S
C182 H194 0.952 . S
C183 C182 1.378 . S
C183 H195 0.950 . S
C183 C214 1.383 . S
H184 C203 0.947 . S
H185 C204 0.946 . S
H186 C206 0.953 . S
H187 C207 0.945 . S
H188 C209 0.952 . S
H189 C210 0.949 . S
H190 C212 0.950 . S
H191 C213 0.948 . S
H192 C215 0.951 . S
H193 C180 0.947 . S
H194 C182 0.952 . S
H195 C183 0.950 . S
N196 C199 1.382 . S
N196 C201 1.363 . S
N197 C199 1.371 . S
N197 C200 1.372 . S
N198 C200 1.361 . S
N198 C201 1.377 . S
C199 N196 1.382 . S
C199 N197 1.371 . S
C199 C202 1.480 . S
C200 N197 1.372 . S
C200 N198 1.361 . S
C200 C208 1.457 . S
C201 N196 1.363 . S
C201 N198 1.377 . S
C201 C214 1.479 . S
C202 C199 1.480 . S
C202 C203 1.383 . S
C202 C207 1.385 . S
C203 H184 0.947 . S
C203 C202 1.383 . S
C203 C204 1.388 . S
C204 H185 0.946 . S
C204 C203 1.388 . S
C204 C205 1.384 . S
C205 C204 1.384 . S
C205 C206 1.377 . S
C206 H186 0.953 . S
C206 C205 1.377 . S
C206 C207 1.369 . S
C207 H187 0.945 . S
C207 C202 1.385 . S
C207 C206 1.369 . S
C208 C200 1.457 . S
C208 C209 1.372 . S
C208 C213 1.364 . S
C209 H188 0.952 . S
C209 C208 1.372 . S
C209 C210 1.389 . S
C210 H189 0.949 . S
C210 C209 1.389 . S
C210 C211 1.387 . S
C211 C210 1.387 . S
C211 C212 1.372 . S
C212 H190 0.950 . S
C212 C211 1.372 . S
C212 C213 1.379 . S
C213 H191 0.948 . S
C213 C208 1.364 . S
C213 C212 1.379 . S
C214 C183 1.383 . S
C214 C201 1.479 . S
C214 C215 1.398 . S
C215 C180 1.382 . S
C215 H192 0.951 . S
C215 C214 1.398 . S
C216 C217 1.384 . S
C216 H229 0.947 . S
C216 C251 1.382 . S
C217 C216 1.384 . S
C217 C218 1.378 . S
C218 C217 1.378 . S
C218 C219 1.378 . S
C218 H230 0.952 . S
C219 C218 1.378 . S
C219 H231 0.950 . S
C219 C250 1.383 . S
H220 C239 0.947 . S
H221 C240 0.946 . S
H222 C242 0.953 . S
H223 C243 0.945 . S
H224 C245 0.952 . S
H225 C246 0.949 . S
H226 C248 0.950 . S
H227 C249 0.948 . S
H228 C251 0.951 . S
H229 C216 0.947 . S
H230 C218 0.952 . S
H231 C219 0.950 . S
N232 C235 1.382 . S
N232 C237 1.363 . S
N233 C235 1.371 . S
N233 C236 1.372 . S
N234 C236 1.361 . S
N234 C237 1.377 . S
C235 N232 1.382 . S
C235 N233 1.371 . S
C235 C238 1.480 . S
C236 N233 1.372 . S
C236 N234 1.361 . S
C236 C244 1.457 . S
C237 N232 1.363 . S
C237 N234 1.377 . S
C237 C250 1.479 . S
C238 C235 1.480 . S
C238 C239 1.383 . S
C238 C243 1.385 . S
C239 H220 0.947 . S
C239 C238 1.383 . S
C239 C240 1.388 . S
C240 H221 0.946 . S
C240 C239 1.388 . S
C240 C241 1.384 . S
C241 C240 1.384 . S
C241 C242 1.377 . S
C242 H222 0.953 . S
C242 C241 1.377 . S
C242 C243 1.369 . S
C243 H223 0.945 . S
C243 C238 1.385 . S
C243 C242 1.369 . S
C244 C236 1.457 . S
C244 C245 1.372 . S
C244 C249 1.364 . S
C245 H224 0.952 . S
C245 C244 1.372 . S
C245 C246 1.389 . S
C246 H225 0.949 . S
C246 C245 1.389 . S
C246 C247 1.387 . S
C247 C246 1.387 . S
C247 C248 1.372 . S
C248 H226 0.950 . S
C248 C247 1.372 . S
C248 C249 1.379 . S
C249 H227 0.948 . S
C249 C244 1.364 . S
C249 C248 1.379 . S
C250 C219 1.383 . S
C250 C237 1.479 . S
C250 C251 1.398 . S
C251 C216 1.382 . S
C251 H228 0.951 . S
C251 C250 1.398 . S
C252 C253 1.384 . S
C252 H265 0.947 . S
C252 C287 1.382 . S
C253 C252 1.384 . S
C253 C254 1.378 . S
C254 C253 1.378 . S
C254 C255 1.378 . S
C254 H266 0.952 . S
C255 C254 1.378 . S
C255 H267 0.950 . S
C255 C286 1.383 . S
H256 C275 0.947 . S
H257 C276 0.946 . S
H258 C278 0.953 . S
H259 C279 0.945 . S
H260 C281 0.952 . S
H261 C282 0.949 . S
H262 C284 0.950 . S
H263 C285 0.948 . S
H264 C287 0.951 . S
H265 C252 0.947 . S
H266 C254 0.952 . S
H267 C255 0.950 . S
N268 C271 1.382 . S
N268 C273 1.363 . S
N269 C271 1.371 . S
N269 C272 1.372 . S
N270 C272 1.361 . S
N270 C273 1.377 . S
C271 N268 1.382 . S
C271 N269 1.371 . S
C271 C274 1.480 . S
C272 N269 1.372 . S
C272 N270 1.361 . S
C272 C280 1.457 . S
C273 N268 1.363 . S
C273 N270 1.377 . S
C273 C286 1.479 . S
C274 C271 1.480 . S
C274 C275 1.383 . S
C274 C279 1.385 . S
C275 H256 0.947 . S
C275 C274 1.383 . S
C275 C276 1.388 . S
C276 H257 0.946 . S
C276 C275 1.388 . S
C276 C277 1.384 . S
C277 C276 1.384 . S
C277 C278 1.377 . S
C278 H258 0.953 . S
C278 C277 1.377 . S
C278 C279 1.369 . S
C279 H259 0.945 . S
C279 C274 1.385 . S
C279 C278 1.369 . S
C280 C272 1.457 . S
C280 C281 1.372 . S
C280 C285 1.364 . S
C281 H260 0.952 . S
C281 C280 1.372 . S
C281 C282 1.389 . S
C282 H261 0.949 . S
C282 C281 1.389 . S
C282 C283 1.387 . S
C283 C282 1.387 . S
C283 C284 1.372 . S
C284 H262 0.950 . S
C284 C283 1.372 . S
C284 C285 1.379 . S
C285 H263 0.948 . S
C285 C280 1.364 . S
C285 C284 1.379 . S
C286 C255 1.383 . S
C286 C273 1.479 . S
C286 C287 1.398 . S
C287 C252 1.382 . S
C287 H264 0.951 . S
C287 C286 1.398 . S
La288 C290 2.928 . S
La288 O308 2.521 . S
La288 O309 2.628 . S
La288 O310 2.554 1_545 S
La288 O311 2.757 1_545 S
La288 O312 2.470 . S
La288 O317 2.482 1_455 S
La288 O319 2.503 1_445 S
La289 C299 2.928 . S
La289 O311 2.482 1_655 S
La289 O313 2.503 1_665 S
La289 O314 2.521 . S
La289 O315 2.628 . S
La289 O316 2.554 1_565 S
La289 O317 2.757 1_565 S
La289 O318 2.470 . S
C290 La288 2.928 . S
C290 C291 1.503 . S
C290 O308 1.261 . S
C290 O309 1.243 . S
C291 C290 1.503 . S
C291 C292 1.394 . S
C291 C296 1.373 . S
C292 C291 1.394 . S
C292 C293 1.380 . S
C292 H320 0.930 . S
C293 C292 1.380 . S
C293 C294 1.376 . S
C293 H321 0.930 . S
C294 C293 1.376 . S
C294 C295 1.370 . S
C295 C294 1.370 . S
C295 C296 1.396 . S
C295 H322 0.929 . S
C296 C291 1.373 . S
C296 C295 1.396 . S
C296 H323 0.929 . S
C297 O310 1.240 . S
C297 O311 1.289 . S
C298 O312 1.258 . S
C298 O313 1.256 . S
C299 La289 2.928 . S
C299 C300 1.503 . S
C299 O314 1.261 . S
C299 O315 1.243 . S
C300 C299 1.503 . S
C300 C301 1.394 . S
C300 C305 1.373 . S
C301 C300 1.394 . S
C301 C302 1.380 . S
C301 H324 0.930 . S
C302 C301 1.380 . S
C302 C303 1.376 . S
C302 H325 0.930 . S
C303 C302 1.376 . S
C303 C304 1.370 . S
C304 C303 1.370 . S
C304 C305 1.396 . S
C304 H326 0.929 . S
C305 C300 1.373 . S
C305 C304 1.396 . S
C305 H327 0.929 . S
C306 O316 1.240 . S
C306 O317 1.289 . S
C307 O318 1.258 . S
C307 O319 1.256 . S
O308 La288 2.521 . S
O308 C290 1.261 . S
O309 La288 2.628 . S
O309 C290 1.243 . S
O310 La288 2.554 1_565 S
O310 C297 1.240 . S
O311 La288 2.757 1_565 S
O311 La289 2.482 1_455 S
O311 C297 1.289 . S
O312 La288 2.470 . S
O312 C298 1.258 . S
O313 La289 2.503 1_445 S
O313 C298 1.256 . S
O314 La289 2.521 . S
O314 C299 1.261 . S
O315 La289 2.628 . S
O315 C299 1.243 . S
O316 La289 2.554 1_545 S
O316 C306 1.240 . S
O317 La288 2.482 1_655 S
O317 La289 2.757 1_545 S
O317 C306 1.289 . S
O318 La289 2.470 . S
O318 C307 1.258 . S
O319 La288 2.503 1_665 S
O319 C307 1.256 . S
H320 C292 0.930 . S
H321 C293 0.930 . S
H322 C295 0.929 . S
H323 C296 0.929 . S
H324 C301 0.930 . S
H325 C302 0.930 . S
H326 C304 0.929 . S
H327 C305 0.929 . S
La328 C330 2.915 1_565 S
La328 O348 2.519 1_565 S
La328 O349 2.606 1_565 S
La328 O350 2.573 . S
La328 O351 2.767 . S
La328 O352 2.457 1_565 S
La328 O357 2.464 1_564 S
La328 O359 2.517 1_554 S
La329 C339 2.928 1_545 S
La329 O351 2.482 1_546 S
La329 O353 2.503 1_556 S
La329 O354 2.521 1_545 S
La329 O355 2.628 1_545 S
La329 O356 2.554 . S
La329 O357 2.757 . S
La329 O358 2.470 1_545 S
C330 La328 2.915 1_545 S
C330 C331 1.503 . S
C330 O348 1.261 . S
C330 O349 1.243 . S
C331 C330 1.503 . S
C331 C332 1.394 . S
C331 C336 1.373 . S
C332 C331 1.394 . S
C332 C333 1.380 . S
C332 H360 0.930 . S
C333 C332 1.380 . S
C333 C334 1.376 . S
C333 H361 0.930 . S
C334 C333 1.376 . S
C334 C335 1.370 . S
C335 C334 1.370 . S
C335 C336 1.396 . S
C335 H362 0.929 . S
C336 C331 1.373 . S
C336 C335 1.396 . S
C336 H363 0.929 . S
C337 O350 1.240 . S
C337 O351 1.289 . S
C338 O352 1.258 . S
C338 O353 1.256 . S
C339 La329 2.928 1_565 S
C339 C340 1.503 . S
C339 O354 1.261 . S
C339 O355 1.243 . S
C340 C339 1.503 . S
C340 C341 1.394 . S
C340 C345 1.373 . S
C341 C340 1.394 . S
C341 C342 1.380 . S
C341 H364 0.930 . S
C342 C341 1.380 . S
C342 C343 1.376 . S
C342 H365 0.930 . S
C343 C342 1.376 . S
C343 C344 1.370 . S
C344 C343 1.370 . S
C344 C345 1.396 . S
C344 H366 0.929 . S
C345 C340 1.373 . S
C345 C344 1.396 . S
C345 H367 0.929 . S
C346 O356 1.240 . S
C346 O357 1.289 . S
C347 O358 1.258 . S
C347 O359 1.256 . S
O348 La328 2.519 1_545 S
O348 C330 1.261 . S
O349 La328 2.606 1_545 S
O349 C330 1.243 . S
O350 La328 2.573 . S
O350 C337 1.240 . S
O351 La328 2.767 . S
O351 La329 2.482 1_564 S
O351 C337 1.289 . S
O352 La328 2.457 1_545 S
O352 C338 1.258 . S
O353 La329 2.503 1_554 S
O353 C338 1.256 . S
O354 La329 2.521 1_565 S
O354 C339 1.261 . S
O355 La329 2.628 1_565 S
O355 C339 1.243 . S
O356 La329 2.554 . S
O356 C346 1.240 . S
O357 La328 2.464 1_546 S
O357 La329 2.757 . S
O357 C346 1.289 . S
O358 La329 2.470 1_565 S
O358 C347 1.258 . S
O359 La328 2.517 1_556 S
O359 C347 1.256 . S
H360 C332 0.930 . S
H361 C333 0.930 . S
H362 C335 0.929 . S
H363 C336 0.929 . S
H364 C341 0.930 . S
H365 C342 0.930 . S
H366 C344 0.929 . S
H367 C345 0.929 . S
La368 C370 2.928 . S
La368 O388 2.521 . S
La368 O389 2.628 . S
La368 O390 2.554 . S
La368 O391 2.757 . S
La368 O392 2.470 . S
La368 O397 2.482 . S
La368 O399 2.503 . S
La369 C379 2.928 . S
La369 O391 2.482 . S
La369 O393 2.503 . S
La369 O394 2.521 . S
La369 O395 2.628 . S
La369 O396 2.554 . S
La369 O397 2.757 . S
La369 O398 2.470 . S
C370 La368 2.928 . S
C370 C371 1.503 . S
C370 O388 1.261 . S
C370 O389 1.243 . S
C371 C370 1.503 . S
C371 C372 1.394 . S
C371 C376 1.373 . S
C372 C371 1.394 . S
C372 C373 1.380 . S
C372 H400 0.930 . S
C373 C372 1.380 . S
C373 C374 1.376 . S
C373 H401 0.930 . S
C374 C373 1.376 . S
C374 C375 1.370 . S
C375 C374 1.370 . S
C375 C376 1.396 . S
C375 H402 0.929 . S
C376 C371 1.373 . S
C376 C375 1.396 . S
C376 H403 0.929 . S
C377 O390 1.240 . S
C377 O391 1.289 . S
C378 O392 1.258 . S
C378 O393 1.256 . S
C379 La369 2.928 . S
C379 C380 1.503 . S
C379 O394 1.261 . S
C379 O395 1.243 . S
C380 C379 1.503 . S
C380 C381 1.394 . S
C380 C385 1.373 . S
C381 C380 1.394 . S
C381 C382 1.380 . S
C381 H404 0.930 . S
C382 C381 1.380 . S
C382 C383 1.376 . S
C382 H405 0.930 . S
C383 C382 1.376 . S
C383 C384 1.370 . S
C384 C383 1.370 . S
C384 C385 1.396 . S
C384 H406 0.929 . S
C385 C380 1.373 . S
C385 C384 1.396 . S
C385 H407 0.929 . S
C386 O396 1.240 . S
C386 O397 1.289 . S
C387 O398 1.258 . S
C387 O399 1.256 . S
O388 La368 2.521 . S
O388 C370 1.261 . S
O389 La368 2.628 . S
O389 C370 1.243 . S
O390 La368 2.554 . S
O390 C377 1.240 . S
O391 La368 2.757 . S
O391 La369 2.482 . S
O391 C377 1.289 . S
O392 La368 2.470 . S
O392 C378 1.258 . S
O393 La369 2.503 . S
O393 C378 1.256 . S
O394 La369 2.521 . S
O394 C379 1.261 . S
O395 La369 2.628 . S
O395 C379 1.243 . S
O396 La369 2.554 . S
O396 C386 1.240 . S
O397 La368 2.482 . S
O397 La369 2.757 . S
O397 C386 1.289 . S
O398 La369 2.470 . S
O398 C387 1.258 . S
O399 La368 2.503 . S
O399 C387 1.256 . S
H400 C372 0.930 . S
H401 C373 0.930 . S
H402 C375 0.929 . S
H403 C376 0.929 . S
H404 C381 0.930 . S
H405 C382 0.930 . S
H406 C384 0.929 . S
H407 C385 0.929 . S
La408 C410 2.928 . S
La408 O428 2.521 . S
La408 O429 2.628 . S
La408 O430 2.554 1_455 S
La408 O431 2.757 1_455 S
La408 O432 2.470 . S
La408 O437 2.482 1_554 S
La408 O439 2.503 1_454 S
La409 C419 2.940 . S
La409 O431 2.486 1_556 S
La409 O433 2.491 1_656 S
La409 O434 2.528 . S
La409 O435 2.641 . S
La409 O436 2.547 1_655 S
La409 O437 2.749 1_655 S
La409 O438 2.478 . S
C410 La408 2.928 . S
C410 C411 1.503 . S
C410 O428 1.261 . S
C410 O429 1.243 . S
C411 C410 1.503 . S
C411 C412 1.394 . S
C411 C416 1.373 . S
C412 C411 1.394 . S
C412 C413 1.380 . S
C412 H440 0.930 . S
C413 C412 1.380 . S
C413 C414 1.376 . S
C413 H441 0.930 . S
C414 C413 1.376 . S
C414 C415 1.370 . S
C415 C414 1.370 . S
C415 C416 1.396 . S
C415 H442 0.929 . S
C416 C411 1.373 . S
C416 C415 1.396 . S
C416 H443 0.929 . S
C417 O430 1.240 . S
C417 O431 1.289 . S
C418 O432 1.258 . S
C418 O433 1.256 . S
C419 La409 2.940 . S
C419 C420 1.503 . S
C419 O434 1.261 . S
C419 O435 1.243 . S
C420 C419 1.503 . S
C420 C421 1.394 . S
C420 C425 1.373 . S
C421 C420 1.394 . S
C421 C422 1.380 . S
C421 H444 0.930 . S
C422 C421 1.380 . S
C422 C423 1.376 . S
C422 H445 0.930 . S
C423 C422 1.376 . S
C423 C424 1.370 . S
C424 C423 1.370 . S
C424 C425 1.396 . S
C424 H446 0.929 . S
C425 C420 1.373 . S
C425 C424 1.396 . S
C425 H447 0.929 . S
C426 O436 1.240 . S
C426 O437 1.289 . S
C427 O438 1.258 . S
C427 O439 1.256 . S
O428 La408 2.521 . S
O428 C410 1.261 . S
O429 La408 2.628 . S
O429 C410 1.243 . S
O430 La408 2.554 1_655 S
O430 C417 1.240 . S
O431 La408 2.757 1_655 S
O431 La409 2.486 1_554 S
O431 C417 1.289 . S
O432 La408 2.470 . S
O432 C418 1.258 . S
O433 La409 2.491 1_454 S
O433 C418 1.256 . S
O434 La409 2.528 . S
O434 C419 1.261 . S
O435 La409 2.641 . S
O435 C419 1.243 . S
O436 La409 2.547 1_455 S
O436 C426 1.240 . S
O437 La408 2.482 1_556 S
O437 La409 2.749 1_455 S
O437 C426 1.289 . S
O438 La409 2.478 . S
O438 C427 1.258 . S
O439 La408 2.503 1_656 S
O439 C427 1.256 . S
H440 C412 0.930 . S
H441 C413 0.930 . S
H442 C415 0.929 . S
H443 C416 0.929 . S
H444 C421 0.930 . S
H445 C422 0.930 . S
H446 C424 0.929 . S
H447 C425 0.929 . S
H448 C454 0.930 . S
H449 C458 0.930 . S
H450 C463 0.929 . S
H451 C461 0.929 . S
H452 C456 0.929 . S
H453 C462 0.929 . S
C454 H448 0.930 . S
C454 C455 1.367 . S
C454 C462 1.378 . S
C455 C454 1.367 . S
C455 C463 1.433 . S
C456 H452 0.929 . S
C456 C458 1.378 . S
C456 C460 1.350 . S
C457 C460 1.463 . S
C457 C462 1.350 . S
C457 N465 1.427 . S
C458 H449 0.930 . S
C458 C456 1.378 . S
C458 C459 1.367 . S
C459 C458 1.367 . S
C459 C461 1.433 . S
C460 C456 1.350 . S
C460 C457 1.463 . S
C460 N464 1.427 . S
C461 H451 0.929 . S
C461 C459 1.433 . S
C461 N464 1.384 . S
C462 H453 0.929 . S
C462 C454 1.378 . S
C462 C457 1.350 . S
C463 H450 0.929 . S
C463 C455 1.433 . S
C463 N465 1.384 . S
N464 C460 1.427 . S
N464 C461 1.384 . S
N465 C457 1.427 . S
N465 C463 1.384 . S
H466 C472 0.930 . S
H467 C476 0.930 . S
H468 C481 0.929 . S
H469 C479 0.929 . S
H470 C474 0.929 . S
H471 C480 0.929 . S
C472 H466 0.930 . S
C472 C473 1.367 . S
C472 C480 1.378 . S
C473 C472 1.367 . S
C473 C481 1.433 . S
C474 H470 0.929 . S
C474 C476 1.378 . S
C474 C478 1.350 . S
C475 C478 1.463 . S
C475 C480 1.350 . S
C475 N483 1.427 . S
C476 H467 0.930 . S
C476 C474 1.378 . S
C476 C477 1.367 . S
C477 C476 1.367 . S
C477 C479 1.433 . S
C478 C474 1.350 . S
C478 C475 1.463 . S
C478 N482 1.427 . S
C479 H469 0.929 . S
C479 C477 1.433 . S
C479 N482 1.384 . S
C480 H471 0.929 . S
C480 C472 1.378 . S
C480 C475 1.350 . S
C481 H468 0.929 . S
C481 C473 1.433 . S
C481 N483 1.384 . S
N482 C478 1.427 . S
N482 C479 1.384 . S
N483 C475 1.427 . S
N483 C481 1.384 . S
H484 C490 0.930 . S
H485 C494 0.930 . S
H486 C499 0.929 . S
H487 C497 0.929 . S
H488 C492 0.929 . S
H489 C498 0.929 . S
C490 H484 0.930 . S
C490 C491 1.367 . S
C490 C498 1.378 . S
C491 C490 1.367 . S
C491 C499 1.433 . S
C492 H488 0.929 . S
C492 C494 1.378 . S
C492 C496 1.350 . S
C493 C496 1.463 . S
C493 C498 1.350 . S
C493 N501 1.427 . S
C494 H485 0.930 . S
C494 C492 1.378 . S
C494 C495 1.367 . S
C495 C494 1.367 . S
C495 C497 1.433 . S
C496 C492 1.350 . S
C496 C493 1.463 . S
C496 N500 1.427 . S
C497 H487 0.929 . S
C497 C495 1.433 . S
C497 N500 1.384 . S
C498 H489 0.929 . S
C498 C490 1.378 . S
C498 C493 1.350 . S
C499 H486 0.929 . S
C499 C491 1.433 . S
C499 N501 1.384 . S
N500 C496 1.427 . S
N500 C497 1.384 . S
N501 C493 1.427 . S
N501 C499 1.384 . S
H502 C508 0.930 . S
H503 C512 0.930 . S
H504 C517 0.929 . S
H505 C515 0.929 . S
H506 C510 0.929 . S
H507 C516 0.929 . S
C508 H502 0.930 . S
C508 C509 1.367 . S
C508 C516 1.378 . S
C509 C508 1.367 . S
C509 C517 1.433 . S
C510 H506 0.929 . S
C510 C512 1.378 . S
C510 C514 1.350 . S
C511 C514 1.463 . S
C511 C516 1.350 . S
C511 N519 1.427 . S
C512 H503 0.930 . S
C512 C510 1.378 . S
C512 C513 1.367 . S
C513 C512 1.367 . S
C513 C515 1.433 . S
C514 C510 1.350 . S
C514 C511 1.463 . S
C514 N518 1.427 . S
C515 H505 0.929 . S
C515 C513 1.433 . S
C515 N518 1.384 . S
C516 H507 0.929 . S
C516 C508 1.378 . S
C516 C511 1.350 . S
C517 H504 0.929 . S
C517 C509 1.433 . S
C517 N519 1.384 . S
N518 C514 1.427 . S
N518 C515 1.384 . S
N519 C511 1.427 . S
N519 C517 1.384 . S
H520 C526 0.930 . S
H521 C530 0.930 . S
H522 C535 0.929 . S
H523 C533 0.929 . S
H524 C528 0.929 . S
H525 C534 0.929 . S
C526 H520 0.930 . S
C526 C527 1.367 . S
C526 C534 1.378 . S
C527 C526 1.367 . S
C527 C535 1.433 . S
C528 H524 0.929 . S
C528 C530 1.378 . S
C528 C532 1.350 . S
C529 C532 1.463 . S
C529 C534 1.350 . S
C529 N537 1.427 . S
C530 H521 0.930 . S
C530 C528 1.378 . S
C530 C531 1.367 . S
C531 C530 1.367 . S
C531 C533 1.433 . S
C532 C528 1.350 . S
C532 C529 1.463 . S
C532 N536 1.427 . S
C533 H523 0.929 . S
C533 C531 1.433 . S
C533 N536 1.384 . S
C534 H525 0.929 . S
C534 C526 1.378 . S
C534 C529 1.350 . S
C535 H522 0.929 . S
C535 C527 1.433 . S
C535 N537 1.384 . S
N536 C532 1.427 . S
N536 C533 1.384 . S
N537 C529 1.427 . S
N537 C535 1.384 . S
H538 C544 0.930 . S
H539 C548 0.930 . S
H540 C553 0.929 . S
H541 C551 0.929 . S
H542 C546 0.929 . S
H543 C552 0.929 . S
C544 H538 0.930 . S
C544 C545 1.367 . S
C544 C552 1.378 . S
C545 C544 1.367 . S
C545 C553 1.433 . S
C546 H542 0.929 . S
C546 C548 1.378 . S
C546 C550 1.350 . S
C547 C550 1.463 . S
C547 C552 1.350 . S
C547 N555 1.427 . S
C548 H539 0.930 . S
C548 C546 1.378 . S
C548 C549 1.367 . S
C549 C548 1.367 . S
C549 C551 1.433 . S
C550 C546 1.350 . S
C550 C547 1.463 . S
C550 N554 1.427 . S
C551 H541 0.929 . S
C551 C549 1.433 . S
C551 N554 1.384 . S
C552 H543 0.929 . S
C552 C544 1.378 . S
C552 C547 1.350 . S
C553 H540 0.929 . S
C553 C545 1.433 . S
C553 N555 1.384 . S
N554 C550 1.427 . S
N554 C551 1.384 . S
N555 C547 1.427 . S
N555 C553 1.384 . S
H556 C562 0.930 . S
H557 C566 0.930 . S
H558 C571 0.929 . S
H559 C569 0.929 . S
H560 C564 0.929 . S
H561 C570 0.929 . S
C562 H556 0.930 . S
C562 C563 1.367 . S
C562 C570 1.378 . S
C563 C562 1.367 . S
C563 C571 1.433 . S
C564 H560 0.929 . S
C564 C566 1.378 . S
C564 C568 1.350 . S
C565 C568 1.463 . S
C565 C570 1.350 . S
C565 N573 1.427 . S
C566 H557 0.930 . S
C566 C564 1.378 . S
C566 C567 1.367 . S
C567 C566 1.367 . S
C567 C569 1.433 . S
C568 C564 1.350 . S
C568 C565 1.463 . S
C568 N572 1.427 . S
C569 H559 0.929 . S
C569 C567 1.433 . S
C569 N572 1.384 . S
C570 H561 0.929 . S
C570 C562 1.378 . S
C570 C565 1.350 . S
C571 H558 0.929 . S
C571 C563 1.433 . S
C571 N573 1.384 . S
N572 C568 1.427 . S
N572 C569 1.384 . S
N573 C565 1.427 . S
N573 C571 1.384 . S
H574 C580 0.930 . S
H575 C584 0.930 . S
H576 C589 0.929 . S
H577 C587 0.929 . S
H578 C582 0.929 . S
H579 C588 0.929 . S
C580 H574 0.930 . S
C580 C581 1.367 . S
C580 C588 1.378 . S
C581 C580 1.367 . S
C581 C589 1.433 . S
C582 H578 0.929 . S
C582 C584 1.378 . S
C582 C586 1.350 . S
C583 C586 1.463 . S
C583 C588 1.350 . S
C583 N591 1.427 . S
C584 H575 0.930 . S
C584 C582 1.378 . S
C584 C585 1.367 . S
C585 C584 1.367 . S
C585 C587 1.433 . S
C586 C582 1.350 . S
C586 C583 1.463 . S
C586 N590 1.427 . S
C587 H577 0.929 . S
C587 C585 1.433 . S
C587 N590 1.384 . S
C588 H579 0.929 . S
C588 C580 1.378 . S
C588 C583 1.350 . S
C589 H576 0.929 . S
C589 C581 1.433 . S
C589 N591 1.384 . S
N590 C586 1.427 . S
N590 C587 1.384 . S
N591 C583 1.427 . S
N591 C589 1.384 . S
H592 C598 0.930 . S
H593 C602 0.930 . S
H594 C607 0.929 . S
H595 C605 0.929 . S
H596 C600 0.929 . S
H597 C606 0.929 . S
C598 H592 0.930 . S
C598 C599 1.367 . S
C598 C606 1.378 . S
C599 C598 1.367 . S
C599 C607 1.433 . S
C600 H596 0.929 . S
C600 C602 1.378 . S
C600 C604 1.350 . S
C601 C604 1.463 . S
C601 C606 1.350 . S
C601 N609 1.427 . S
C602 H593 0.930 . S
C602 C600 1.378 . S
C602 C603 1.367 . S
C603 C602 1.367 . S
C603 C605 1.433 . S
C604 C600 1.350 . S
C604 C601 1.463 . S
C604 N608 1.427 . S
C605 H595 0.929 . S
C605 C603 1.433 . S
C605 N608 1.384 . S
C606 H597 0.929 . S
C606 C598 1.378 . S
C606 C601 1.350 . S
C607 H594 0.929 . S
C607 C599 1.433 . S
C607 N609 1.384 . S
N608 C604 1.427 . S
N608 C605 1.384 . S
N609 C601 1.427 . S
N609 C607 1.384 . S
H610 C616 0.930 . S
H611 C620 0.930 . S
H612 C625 0.929 . S
H613 C623 0.929 . S
H614 C618 0.929 . S
H615 C624 0.929 . S
C616 H610 0.930 . S
C616 C617 1.367 . S
C616 C624 1.378 . S
C617 C616 1.367 . S
C617 C625 1.433 . S
C618 H614 0.929 . S
C618 C620 1.378 . S
C618 C622 1.350 . S
C619 C622 1.463 . S
C619 C624 1.350 . S
C619 N627 1.427 . S
C620 H611 0.930 . S
C620 C618 1.378 . S
C620 C621 1.367 . S
C621 C620 1.367 . S
C621 C623 1.433 . S
C622 C618 1.350 . S
C622 C619 1.463 . S
C622 N626 1.427 . S
C623 H613 0.929 . S
C623 C621 1.433 . S
C623 N626 1.384 . S
C624 H615 0.929 . S
C624 C616 1.378 . S
C624 C619 1.350 . S
C625 H612 0.929 . S
C625 C617 1.433 . S
C625 N627 1.384 . S
N626 C622 1.427 . S
N626 C623 1.384 . S
N627 C619 1.427 . S
N627 C625 1.384 . S
H628 C634 0.930 . S
H629 C638 0.930 . S
H630 C643 0.929 . S
H631 C641 0.929 . S
H632 C636 0.929 . S
H633 C642 0.929 . S
C634 H628 0.930 . S
C634 C635 1.367 . S
C634 C642 1.378 . S
C635 C634 1.367 . S
C635 C643 1.433 . S
C636 H632 0.929 . S
C636 C638 1.378 . S
C636 C640 1.350 . S
C637 C640 1.463 . S
C637 C642 1.350 . S
C637 N645 1.427 . S
C638 H629 0.930 . S
C638 C636 1.378 . S
C638 C639 1.367 . S
C639 C638 1.367 . S
C639 C641 1.433 . S
C640 C636 1.350 . S
C640 C637 1.463 . S
C640 N644 1.427 . S
C641 H631 0.929 . S
C641 C639 1.433 . S
C641 N644 1.384 . S
C642 H633 0.929 . S
C642 C634 1.378 . S
C642 C637 1.350 . S
C643 H630 0.929 . S
C643 C635 1.433 . S
C643 N645 1.384 . S
N644 C640 1.427 . S
N644 C641 1.384 . S
N645 C637 1.427 . S
N645 C643 1.384 . S
H646 C652 0.930 . S
H647 C656 0.930 . S
H648 C661 0.929 . S
H649 C659 0.929 . S
H650 C654 0.929 . S
H651 C660 0.929 . S
C652 H646 0.930 . S
C652 C653 1.367 . S
C652 C660 1.378 . S
C653 C652 1.367 . S
C653 C661 1.433 . S
C654 H650 0.929 . S
C654 C656 1.378 . S
C654 C658 1.350 . S
C655 C658 1.463 . S
C655 C660 1.350 . S
C655 N663 1.427 . S
C656 H647 0.930 . S
C656 C654 1.378 . S
C656 C657 1.367 . S
C657 C656 1.367 . S
C657 C659 1.433 . S
C658 C654 1.350 . S
C658 C655 1.463 . S
C658 N662 1.427 . S
C659 H649 0.929 . S
C659 C657 1.433 . S
C659 N662 1.384 . S
C660 H651 0.929 . S
C660 C652 1.378 . S
C660 C655 1.350 . S
C661 H648 0.929 . S
C661 C653 1.433 . S
C661 N663 1.384 . S
N662 C658 1.427 . S
N662 C659 1.384 . S
N663 C655 1.427 . S
N663 C661 1.384 . S
H664 C670 0.930 . S
H665 C674 0.930 . S
H666 C679 0.929 . S
H667 C677 0.929 . S
H668 C672 0.929 . S
H669 C678 0.929 . S
C670 H664 0.930 . S
C670 C671 1.367 . S
C670 C678 1.378 . S
C671 C670 1.367 . S
C671 C679 1.433 . S
C672 H668 0.929 . S
C672 C674 1.378 . S
C672 C676 1.350 . S
C673 C676 1.463 . S
C673 C678 1.350 . S
C673 N681 1.427 . S
C674 H665 0.930 . S
C674 C672 1.378 . S
C674 C675 1.367 . S
C675 C674 1.367 . S
C675 C677 1.433 . S
C676 C672 1.350 . S
C676 C673 1.463 . S
C676 N680 1.427 . S
C677 H667 0.929 . S
C677 C675 1.433 . S
C677 N680 1.384 . S
C678 H669 0.929 . S
C678 C670 1.378 . S
C678 C673 1.350 . S
C679 H666 0.929 . S
C679 C671 1.433 . S
C679 N681 1.384 . S
N680 C676 1.427 . S
N680 C677 1.384 . S
N681 C673 1.427 . S
N681 C679 1.384 . S
H682 C688 0.930 . S
H683 C692 0.930 . S
H684 C697 0.929 . S
H685 C695 0.929 . S
H686 C690 0.929 . S
H687 C696 0.929 . S
C688 H682 0.930 . S
C688 C689 1.367 . S
C688 C696 1.378 . S
C689 C688 1.367 . S
C689 C697 1.433 . S
C690 H686 0.929 . S
C690 C692 1.378 . S
C690 C694 1.350 . S
C691 C694 1.463 . S
C691 C696 1.350 . S
C691 N699 1.427 . S
C692 H683 0.930 . S
C692 C690 1.378 . S
C692 C693 1.367 . S
C693 C692 1.367 . S
C693 C695 1.433 . S
C694 C690 1.350 . S
C694 C691 1.463 . S
C694 N698 1.427 . S
C695 H685 0.929 . S
C695 C693 1.433 . S
C695 N698 1.384 . S
C696 H687 0.929 . S
C696 C688 1.378 . S
C696 C691 1.350 . S
C697 H684 0.929 . S
C697 C689 1.433 . S
C697 N699 1.384 . S
N698 C694 1.427 . S
N698 C695 1.384 . S
N699 C691 1.427 . S
N699 C697 1.384 . S
H700 C706 0.930 . S
H701 C710 0.930 . S
H702 C715 0.929 . S
H703 C713 0.929 . S
H704 C708 0.929 . S
H705 C714 0.929 . S
C706 H700 0.930 . S
C706 C707 1.367 . S
C706 C714 1.378 . S
C707 C706 1.367 . S
C707 C715 1.433 . S
C708 H704 0.929 . S
C708 C710 1.378 . S
C708 C712 1.350 . S
C709 C712 1.463 . S
C709 C714 1.350 . S
C709 N717 1.427 . S
C710 H701 0.930 . S
C710 C708 1.378 . S
C710 C711 1.367 . S
C711 C710 1.367 . S
C711 C713 1.433 . S
C712 C708 1.350 . S
C712 C709 1.463 . S
C712 N716 1.427 . S
C713 H703 0.929 . S
C713 C711 1.433 . S
C713 N716 1.384 . S
C714 H705 0.929 . S
C714 C706 1.378 . S
C714 C709 1.350 . S
C715 H702 0.929 . S
C715 C707 1.433 . S
C715 N717 1.384 . S
N716 C712 1.427 . S
N716 C713 1.384 . S
N717 C709 1.427 . S
N717 C715 1.384 . S
H718 C724 0.930 . S
H719 C728 0.930 . S
H720 C733 0.929 . S
H721 C731 0.929 . S
H722 C726 0.929 . S
H723 C732 0.929 . S
C724 H718 0.930 . S
C724 C725 1.367 . S
C724 C732 1.378 . S
C725 C724 1.367 . S
C725 C733 1.433 . S
C726 H722 0.929 . S
C726 C728 1.378 . S
C726 C730 1.350 . S
C727 C730 1.463 . S
C727 C732 1.350 . S
C727 N735 1.427 . S
C728 H719 0.930 . S
C728 C726 1.378 . S
C728 C729 1.367 . S
C729 C728 1.367 . S
C729 C731 1.433 . S
C730 C726 1.350 . S
C730 C727 1.463 . S
C730 N734 1.427 . S
C731 H721 0.929 . S
C731 C729 1.433 . S
C731 N734 1.384 . S
C732 H723 0.929 . S
C732 C724 1.378 . S
C732 C727 1.350 . S
C733 H720 0.929 . S
C733 C725 1.433 . S
C733 N735 1.384 . S
N734 C730 1.427 . S
N734 C731 1.384 . S
N735 C727 1.427 . S
N735 C733 1.384 . S
H736 C742 0.930 . S
H737 C746 0.930 . S
H738 C751 0.929 . S
H739 C749 0.929 . S
H740 C744 0.929 . S
H741 C750 0.929 . S
C742 H736 0.930 . S
C742 C743 1.367 . S
C742 C750 1.378 . S
C743 C742 1.367 . S
C743 C751 1.433 . S
C744 H740 0.929 . S
C744 C746 1.378 . S
C744 C748 1.350 . S
C745 C748 1.463 . S
C745 C750 1.350 . S
C745 N753 1.427 . S
C746 H737 0.930 . S
C746 C744 1.378 . S
C746 C747 1.367 . S
C747 C746 1.367 . S
C747 C749 1.433 . S
C748 C744 1.350 . S
C748 C745 1.463 . S
C748 N752 1.427 . S
C749 H739 0.929 . S
C749 C747 1.433 . S
C749 N752 1.384 . S
C750 H741 0.929 . S
C750 C742 1.378 . S
C750 C745 1.350 . S
C751 H738 0.929 . S
C751 C743 1.433 . S
C751 N753 1.384 . S
N752 C748 1.427 . S
N752 C749 1.384 . S
N753 C745 1.427 . S
N753 C751 1.384 . S
H754 C760 0.930 . S
H755 C764 0.930 . S
H756 C769 0.929 . S
H757 C767 0.929 . S
H758 C762 0.929 . S
H759 C768 0.929 . S
C760 H754 0.930 . S
C760 C761 1.367 . S
C760 C768 1.378 . S
C761 C760 1.367 . S
C761 C769 1.433 . S
C762 H758 0.929 . S
C762 C764 1.378 . S
C762 C766 1.350 . S
C763 C766 1.463 . S
C763 C768 1.350 . S
C763 N771 1.427 . S
C764 H755 0.930 . S
C764 C762 1.378 . S
C764 C765 1.367 . S
C765 C764 1.367 . S
C765 C767 1.433 . S
C766 C762 1.350 . S
C766 C763 1.463 . S
C766 N770 1.427 . S
C767 H757 0.929 . S
C767 C765 1.433 . S
C767 N770 1.384 . S
C768 H759 0.929 . S
C768 C760 1.378 . S
C768 C763 1.350 . S
C769 H756 0.929 . S
C769 C761 1.433 . S
C769 N771 1.384 . S
N770 C766 1.427 . S
N770 C767 1.384 . S
N771 C763 1.427 . S
N771 C769 1.384 . S
H772 C778 0.930 . S
H773 C782 0.930 . S
H774 C787 0.929 . S
H775 C785 0.929 . S
H776 C780 0.929 . S
H777 C786 0.929 . S
C778 H772 0.930 . S
C778 C779 1.367 . S
C778 C786 1.378 . S
C779 C778 1.367 . S
C779 C787 1.433 . S
C780 H776 0.929 . S
C780 C782 1.378 . S
C780 C784 1.350 . S
C781 C784 1.463 . S
C781 C786 1.350 . S
C781 N789 1.427 . S
C782 H773 0.930 . S
C782 C780 1.378 . S
C782 C783 1.367 . S
C783 C782 1.367 . S
C783 C785 1.433 . S
C784 C780 1.350 . S
C784 C781 1.463 . S
C784 N788 1.427 . S
C785 H775 0.929 . S
C785 C783 1.433 . S
C785 N788 1.384 . S
C786 H777 0.929 . S
C786 C778 1.378 . S
C786 C781 1.350 . S
C787 H774 0.929 . S
C787 C779 1.433 . S
C787 N789 1.384 . S
N788 C784 1.427 . S
N788 C785 1.384 . S
N789 C781 1.427 . S
N789 C787 1.384 . S
H790 C796 0.930 . S
H791 C800 0.930 . S
H792 C805 0.929 . S
H793 C803 0.929 . S
H794 C798 0.929 . S
H795 C804 0.929 . S
C796 H790 0.930 . S
C796 C797 1.367 . S
C796 C804 1.378 . S
C797 C796 1.367 . S
C797 C805 1.433 . S
C798 H794 0.929 . S
C798 C800 1.378 . S
C798 C802 1.350 . S
C799 C802 1.463 . S
C799 C804 1.350 . S
C799 N807 1.427 . S
C800 H791 0.930 . S
C800 C798 1.378 . S
C800 C801 1.367 . S
C801 C800 1.367 . S
C801 C803 1.433 . S
C802 C798 1.350 . S
C802 C799 1.463 . S
C802 N806 1.427 . S
C803 H793 0.929 . S
C803 C801 1.433 . S
C803 N806 1.384 . S
C804 H795 0.929 . S
C804 C796 1.378 . S
C804 C799 1.350 . S
C805 H792 0.929 . S
C805 C797 1.433 . S
C805 N807 1.384 . S
N806 C802 1.427 . S
N806 C803 1.384 . S
N807 C799 1.427 . S
N807 C805 1.384 . S
H808 C814 0.930 . S
H809 C818 0.930 . S
H810 C823 0.929 . S
H811 C821 0.929 . S
H812 C816 0.929 . S
H813 C822 0.929 . S
C814 H808 0.930 . S
C814 C815 1.367 . S
C814 C822 1.378 . S
C815 C814 1.367 . S
C815 C823 1.433 . S
C816 H812 0.929 . S
C816 C818 1.378 . S
C816 C820 1.350 . S
C817 C820 1.463 . S
C817 C822 1.350 . S
C817 N825 1.427 . S
C818 H809 0.930 . S
C818 C816 1.378 . S
C818 C819 1.367 . S
C819 C818 1.367 . S
C819 C821 1.433 . S
C820 C816 1.350 . S
C820 C817 1.463 . S
C820 N824 1.427 . S
C821 H811 0.929 . S
C821 C819 1.433 . S
C821 N824 1.384 . S
C822 H813 0.929 . S
C822 C814 1.378 . S
C822 C817 1.350 . S
C823 H810 0.929 . S
C823 C815 1.433 . S
C823 N825 1.384 . S
N824 C820 1.427 . S
N824 C821 1.384 . S
N825 C817 1.427 . S
N825 C823 1.384 . S
H826 C832 0.930 . S
H827 C836 0.930 . S
H828 C841 0.929 . S
H829 C839 0.929 . S
H830 C834 0.929 . S
H831 C840 0.929 . S
C832 H826 0.930 . S
C832 C833 1.367 . S
C832 C840 1.378 . S
C833 C832 1.367 . S
C833 C841 1.433 . S
C834 H830 0.929 . S
C834 C836 1.378 . S
C834 C838 1.350 . S
C835 C838 1.463 . S
C835 C840 1.350 . S
C835 N843 1.427 . S
C836 H827 0.930 . S
C836 C834 1.378 . S
C836 C837 1.367 . S
C837 C836 1.367 . S
C837 C839 1.433 . S
C838 C834 1.350 . S
C838 C835 1.463 . S
C838 N842 1.427 . S
C839 H829 0.929 . S
C839 C837 1.433 . S
C839 N842 1.384 . S
C840 H831 0.929 . S
C840 C832 1.378 . S
C840 C835 1.350 . S
C841 H828 0.929 . S
C841 C833 1.433 . S
C841 N843 1.384 . S
N842 C838 1.427 . S
N842 C839 1.384 . S
N843 C835 1.427 . S
N843 C841 1.384 . S
H844 C850 0.930 . S
H845 C854 0.930 . S
H846 C859 0.929 . S
H847 C857 0.929 . S
H848 C852 0.929 . S
H849 C858 0.929 . S
C850 H844 0.930 . S
C850 C851 1.367 . S
C850 C858 1.378 . S
C851 C850 1.367 . S
C851 C859 1.433 . S
C852 H848 0.929 . S
C852 C854 1.378 . S
C852 C856 1.350 . S
C853 C856 1.463 . S
C853 C858 1.350 . S
C853 N861 1.427 . S
C854 H845 0.930 . S
C854 C852 1.378 . S
C854 C855 1.367 . S
C855 C854 1.367 . S
C855 C857 1.433 . S
C856 C852 1.350 . S
C856 C853 1.463 . S
C856 N860 1.427 . S
C857 H847 0.929 . S
C857 C855 1.433 . S
C857 N860 1.384 . S
C858 H849 0.929 . S
C858 C850 1.378 . S
C858 C853 1.350 . S
C859 H846 0.929 . S
C859 C851 1.433 . S
C859 N861 1.384 . S
N860 C856 1.427 . S
N860 C857 1.384 . S
N861 C853 1.427 . S
N861 C859 1.384 . S
H862 C868 0.930 . S
H863 C872 0.930 . S
H864 C877 0.929 . S
H865 C875 0.929 . S
H866 C870 0.929 . S
H867 C876 0.929 . S
C868 H862 0.930 . S
C868 C869 1.367 . S
C868 C876 1.378 . S
C869 C868 1.367 . S
C869 C877 1.433 . S
C870 H866 0.929 . S
C870 C872 1.378 . S
C870 C874 1.350 . S
C871 C874 1.463 . S
C871 C876 1.350 . S
C871 N879 1.427 . S
C872 H863 0.930 . S
C872 C870 1.378 . S
C872 C873 1.367 . S
C873 C872 1.367 . S
C873 C875 1.433 . S
C874 C870 1.350 . S
C874 C871 1.463 . S
C874 N878 1.427 . S
C875 H865 0.929 . S
C875 C873 1.433 . S
C875 N878 1.384 . S
C876 H867 0.929 . S
C876 C868 1.378 . S
C876 C871 1.350 . S
C877 H864 0.929 . S
C877 C869 1.433 . S
C877 N879 1.384 . S
N878 C874 1.427 . S
N878 C875 1.384 . S
N879 C871 1.427 . S
N879 C877 1.384 . S
C455 C1 1.230 . S
C459 C294 1.258 . S
C473 C67 0.945 . S
C477 C343 0.947 . S
C495 C378 2.467 . S
C491 C97 2.515 . S
C509 C133 2.428 . S
C513 C417 2.358 . S
C531 C338 2.470 . S
C527 C25 2.395 . S
C549 C297 0.835 . S
C545 C37 0.846 . S
C567 C427 1.895 . S
C563 C103 1.950 . S
C585 C386 1.618 . S
C581 C109 1.653 . S
C599 C31 1.676 . S
C603 C414 1.722 . S
C621 C346 2.322 . S
C617 C73 2.409 . S
C635 C139 2.373 . S
C639 C307 2.359 . S
C653 C61 0.829 . S
C657 C383 0.847 . S
C675 C303 1.258 . S
C671 C175 1.197 . S
C689 C181 0.923 . S
C693 C334 0.931 . S
C707 C247 2.540 . S
C711 C387 2.492 . S
C725 C277 2.412 . S
C729 C426 2.352 . S
C743 C145 2.304 . S
C747 C347 2.459 . S
C765 C306 0.843 . S
C761 C211 0.852 . S
C783 C418 1.882 . S
C779 C217 1.930 . S
C801 C377 1.643 . S
C797 C283 1.667 . S
C815 C169 1.604 . S
C819 C423 1.713 . S
C837 C337 2.327 . S
C833 C241 2.415 . S
C855 C298 2.343 . S
C851 C253 2.361 . S
C869 C205 0.848 . S
C873 C374 0.846 . S
