# Generated by pormake.
# Topology tsx, (6,3)-cn, num edge types: 1
# Building blocks:
#     Node 0, Type 0, BuildingBlock: LEVNOQ01_clean_sbu_1, # of connection points: 6
#     Node 1, Type 0, BuildingBlock: LEVNOQ01_clean_sbu_1, # of connection points: 6
#     Node 2, Type 1, BuildingBlock: CUQRIR_clean_linker_1, # of connection points: 3
#     Node 3, Type 1, BuildingBlock: CUQRIR_clean_linker_1, # of connection points: 3
#     Node 4, Type 1, BuildingBlock: CUQRIR_clean_linker_1, # of connection points: 3
#     Node 5, Type 1, BuildingBlock: CUQRIR_clean_linker_1, # of connection points: 3
#     Edge 6, Type (0, 1), BuildingBlock: KIFKEQ_clean_linker_1, # of connection points: 2
#     Edge 7, Type (0, 1), BuildingBlock: KIFKEQ_clean_linker_1, # of connection points: 2
#     Edge 8, Type (0, 1), BuildingBlock: KIFKEQ_clean_linker_1, # of connection points: 2
#     Edge 9, Type (0, 1), BuildingBlock: KIFKEQ_clean_linker_1, # of connection points: 2
#     Edge 10, Type (0, 1), BuildingBlock: KIFKEQ_clean_linker_1, # of connection points: 2
#     Edge 11, Type (0, 1), BuildingBlock: KIFKEQ_clean_linker_1, # of connection points: 2
#     Edge 12, Type (0, 1), BuildingBlock: KIFKEQ_clean_linker_1, # of connection points: 2
#     Edge 13, Type (0, 1), BuildingBlock: KIFKEQ_clean_linker_1, # of connection points: 2
#     Edge 14, Type (0, 1), BuildingBlock: KIFKEQ_clean_linker_1, # of connection points: 2
#     Edge 15, Type (0, 1), BuildingBlock: KIFKEQ_clean_linker_1, # of connection points: 2
#     Edge 16, Type (0, 1), BuildingBlock: KIFKEQ_clean_linker_1, # of connection points: 2
#     Edge 17, Type (0, 1), BuildingBlock: KIFKEQ_clean_linker_1, # of connection points: 2
# Relax obj value: 0.161
# Max RMSD: 0.177
# Mean RMSD: 0.163
data_MOF--net-tsx--node1-LEVNOQ01_clean_sbu_1--node2-CUQRIR_clean_linker_1--edge1-KIFKEQ_clean_linker_1
_symmetry_space_group_name_H-M    P1
_symmetry_Int_Tables_number       1
_symmetry_cell_setting            triclinic
loop_
_symmetry_equiv_pos_as_xyz
'x, y, z'
_cell_length_a     17.531838
_cell_length_b     21.043481
_cell_length_c     34.311768
_cell_angle_alpha  86.698354
_cell_angle_beta   90.233784
_cell_angle_gamma 90.930204
loop_
_atom_site_label
_atom_site_type_symbol
_atom_site_fract_x
_atom_site_fract_y
_atom_site_fract_z
_atom_type_partial_charge
O0 O 0.19345 0.05134 0.06849 0.0
Mg1 Mg 0.23341 0.06977 0.01155 0.0
O2 O 0.07724 0.03589 0.04543 0.0
Mg3 Mg 0.08888 0.05539 -0.02288 0.0
O4 O 0.17841 0.14277 -0.0197 0.0
O5 O 0.29655 0.14968 0.00609 0.0
O6 O 0.10973 0.0831 0.90966 0.0
O7 O 0.99436 0.13327 -0.02355 0.0
Mg8 Mg 1.00583 0.01216 0.92783 0.0
O9 O 0.99469 0.96905 -0.01841 0.0
O10 O 0.09351 0.98877 0.88908 0.0
O11 O 0.94564 0.09967 0.92167 0.0
O12 O 0.92952 0.94001 0.92875 0.0
C13 C 0.24459 0.95641 -0.02761 0.0
C14 C 0.12387 0.03717 0.07414 0.0
C15 C 0.24022 0.17591 -0.01254 0.0
C16 C 0.11899 0.0446 0.88293 0.0
C17 C 0.94741 0.13991 0.94786 0.0
C18 C 0.94402 0.93261 0.96555 0.0
O19 O 0.29026 0.99641 -0.01409 0.0
O20 O 0.17385 0.96955 -0.03011 0.0
O21 O 0.67919 0.51183 0.54884 0.0
Mg22 Mg 0.70541 0.55355 0.49196 0.0
O23 O 0.5583 0.5357 0.54077 0.0
Mg24 Mg 0.57042 0.54925 0.47356 0.0
O25 O 0.65772 0.64003 0.47795 0.0
O26 O 0.77938 0.626 0.49731 0.0
O27 O 0.59925 0.57139 0.4061 0.0
O28 O 0.47737 0.62849 0.46872 0.0
Mg29 Mg 0.49351 0.50453 0.42335 0.0
O30 O 0.47414 0.46502 0.47757 0.0
O31 O 0.58239 0.47612 0.38682 0.0
O32 O 0.44064 0.59433 0.41205 0.0
O33 O 0.41236 0.43602 0.42376 0.0
C34 C 0.7111 0.44884 0.45569 0.0
C35 C 0.61257 0.51541 0.5628 0.0
C36 C 0.72513 0.66334 0.48604 0.0
C37 C 0.60919 0.5315 0.38018 0.0
C38 C 0.4373 0.63563 0.43752 0.0
C39 C 0.42327 0.42961 0.46093 0.0
O40 O 0.75238 0.49761 0.44909 0.0
O41 O 0.64718 0.45567 0.47229 0.0
C42 C 0.9862 0.98962 0.41376 0.0
N43 N 0.01967 0.95392 0.38714 0.0
N44 N 0.9325 0.02756 0.39671 0.0
C45 C 1.00418 0.98663 0.4566 0.0
C46 C 0.93427 0.01377 0.35874 0.0
N47 N 0.98629 0.96829 0.35289 0.0
C48 C 0.89291 0.05117 0.32653 0.0
H49 H 0.95538 1.0038 0.47327 0.0
H50 H 0.05469 0.01736 0.4618 0.0
H51 H 0.01749 0.93718 0.46712 0.0
H52 H 0.86604 0.09441 0.33686 0.0
H53 H 0.84741 0.02065 0.31452 0.0
H54 H 0.93291 0.06549 0.30249 0.0
C55 C 0.96761 0.12056 0.55166 0.0
N56 N 0.01315 0.14885 0.57769 0.0
N57 N 0.91918 0.0777 0.56978 0.0
C58 C 0.97359 0.13222 0.50835 0.0
C59 C 0.93677 0.08173 0.60808 0.0
N60 N 0.99319 0.12527 0.61286 0.0
C61 C 0.9062 0.03704 0.64027 0.0
H62 H 0.98475 0.18356 0.50093 0.0
H63 H 0.92047 0.11672 0.49388 0.0
H64 H 0.02217 0.1054 0.49754 0.0
H65 H 0.85302 0.01267 0.63111 0.0
H66 H 0.89476 0.06342 0.66664 0.0
H67 H 0.94978 1.00078 0.6481 0.0
C68 C 0.51857 0.50887 0.90696 0.0
N69 N 0.55163 0.47144 0.88106 0.0
N70 N 0.46402 0.5455 0.88946 0.0
C71 C 0.53693 0.50838 0.94968 0.0
C72 C 0.46469 0.52904 0.85199 0.0
N73 N 0.5168 0.48341 0.84694 0.0
C74 C 0.42049 0.56247 0.81934 0.0
H75 H 0.48733 0.52482 0.96595 0.0
H76 H 0.58588 0.54115 0.95423 0.0
H77 H 0.55222 0.45987 0.96118 0.0
H78 H 0.38787 0.60312 0.8294 0.0
H79 H 0.3799 0.52816 0.80678 0.0
H80 H 0.46011 0.57978 0.79576 0.0
C81 C 0.48347 0.62966 0.04538 0.0
N82 N 0.52766 0.65374 0.07355 0.0
N83 N 0.43283 0.58576 0.06069 0.0
C84 C 0.49284 0.64677 0.00272 0.0
C85 C 0.44816 0.58444 0.09947 0.0
N86 N 0.50519 0.62593 0.10725 0.0
C87 C 0.41477 0.53637 0.12899 0.0
H88 H 0.49757 0.69928 -0.00217 0.0
H89 H 0.44393 0.62859 -0.01399 0.0
H90 H 0.54641 0.62648 -0.0077 0.0
H91 H 0.45525 0.49667 0.13386 0.0
H92 H 0.35958 0.51695 0.11858 0.0
H93 H 0.40629 0.55822 0.15729 0.0
H94 H 0.14619 0.26938 0.00984 0.0
H95 H 0.35418 0.23757 0.94785 0.0
H96 H 0.18775 0.37951 0.01892 0.0
H97 H 0.39502 0.34732 0.95605 0.0
H98 H 0.49347 0.47199 0.05272 0.0
H99 H 0.43572 0.3811 0.02196 0.0
H100 H 0.23607 0.49211 -0.00706 0.0
H101 H 0.29578 0.58393 0.02385 0.0
C102 C 0.19865 0.28701 -0.00376 0.0
C103 C 0.24708 0.24511 -0.02181 0.0
C104 C 0.22278 0.34995 0.00166 0.0
C105 C 0.29553 0.37153 -0.01098 0.0
C106 C 0.33936 0.33169 0.96678 0.0
C107 C 0.31559 0.26906 0.96166 0.0
C108 C 0.43761 0.47683 0.03939 0.0
C109 C 0.3988 0.53429 0.0405 0.0
C110 C 0.40465 0.42521 0.0215 0.0
C111 C 0.33145 0.42952 0.00466 0.0
C112 C 0.29252 0.48744 0.0056 0.0
C113 C 0.32638 0.53974 0.02315 0.0
H114 H 0.38753 0.90994 -0.01596 0.0
H115 H 0.16825 0.86159 0.93497 0.0
H116 H 0.43753 0.80911 0.96587 0.0
H117 H 0.21945 0.76044 0.9156 0.0
H118 H 0.3231 0.55799 0.91918 0.0
H119 H 0.26613 0.65675 0.9399 0.0
H120 H 0.47493 0.75924 0.90869 0.0
H121 H 0.53117 0.6602 0.88952 0.0
C122 C 0.34996 0.87797 0.96905 0.0
C123 C 0.27387 0.8943 0.96073 0.0
C124 C 0.3789 0.82002 0.95844 0.0
C125 C 0.33294 0.77665 0.93884 0.0
C126 C 0.25639 0.79244 0.93091 0.0
C127 C 0.22714 0.8506 0.94178 0.0
C128 C 0.35634 0.60187 0.91729 0.0
C129 C 0.43155 0.60208 0.90355 0.0
C130 C 0.32379 0.65843 0.92867 0.0
C131 C 0.36596 0.71616 0.92617 0.0
C132 C 0.44113 0.71574 0.9118 0.0
C133 C 0.47352 0.6593 0.90078 0.0
H134 H 0.87938 0.82539 0.93984 0.0
H135 H 0.90465 0.93154 0.04326 0.0
H136 H 0.78765 0.75438 -0.02682 0.0
H137 H 0.81179 0.85926 0.07725 0.0
H138 H 0.65642 0.61023 0.04407 0.0
H139 H 0.77115 0.67246 0.02555 0.0
H140 H 0.6702 0.8396 0.07011 0.0
H141 H 0.55596 0.7759 0.08923 0.0
C142 C 0.86628 0.8328 -0.02994 0.0
C143 C 0.89892 0.88422 -0.01113 0.0
C144 C 0.81392 0.79176 -0.01069 0.0
C145 C 0.79223 0.80112 0.0279 0.0
C146 C 0.82706 0.85111 0.04742 0.0
C147 C 0.8806 0.89207 0.02813 0.0
C148 C 0.65982 0.66007 0.05031 0.0
C149 C 0.59786 0.689 0.06735 0.0
C150 C 0.72507 0.69571 0.03976 0.0
C151 C 0.72943 0.76121 0.04589 0.0
C152 C 0.66887 0.78921 0.06521 0.0
C153 C 0.60348 0.75319 0.07592 0.0
H154 H 0.79488 0.12642 0.94288 0.0
H155 H 0.97378 0.26908 0.94343 0.0
H156 H 0.70137 0.20807 0.92722 0.0
H157 H 0.8812 0.35157 0.92506 0.0
H158 H 0.68451 0.49255 0.91938 0.0
H159 H 0.77959 0.41426 0.93975 0.0
H160 H 0.65673 0.27273 0.87647 0.0
H161 H 0.55837 0.35026 0.85949 0.0
C162 C 0.81389 0.17572 0.93993 0.0
C163 C 0.89123 0.19162 0.94481 0.0
C164 C 0.76048 0.22266 0.9302 0.0
C165 C 0.78316 0.28695 0.92386 0.0
C166 C 0.86078 0.30298 0.92995 0.0
C167 C 0.91414 0.25581 0.94059 0.0
C168 C 0.6774 0.44435 0.91045 0.0
C169 C 0.61293 0.42706 0.88872 0.0
C170 C 0.73271 0.39946 0.92159 0.0
C171 C 0.72602 0.33618 0.91051 0.0
C172 C 0.66324 0.32011 0.88685 0.0
C173 C 0.60725 0.36481 0.87638 0.0
H174 H 0.85645 0.7225 0.46319 0.0
H175 H 0.63264 0.75973 0.50761 0.0
H176 H 0.89847 0.82978 0.47681 0.0
H177 H 0.6755 0.86774 0.5222 0.0
H178 H 0.78818 0.07284 0.52767 0.0
H179 H 0.73269 0.97819 0.49805 0.0
H180 H 0.92139 0.86669 0.54353 0.0
H181 H 0.97566 0.96065 0.57241 0.0
C182 C 0.81565 0.7543 0.47506 0.0
C183 C 0.74158 0.7326 0.4848 0.0
C184 C 0.83987 0.81563 0.48307 0.0
C185 C 0.79091 0.8566 0.5015 0.0
C186 C 0.71454 0.83712 0.50804 0.0
C187 C 0.68992 0.77542 0.49964 0.0
C188 C 0.81704 0.02776 0.53115 0.0
C189 C 0.88552 0.02322 0.55242 0.0
C190 C 0.78557 0.97385 0.51435 0.0
C191 C 0.82292 0.91509 0.51824 0.0
C192 C 0.89169 0.91134 0.53947 0.0
C193 C 0.92251 0.96473 0.55633 0.0
H194 H 0.66222 0.33227 0.48663 0.0
H195 H 0.82459 0.42159 0.40573 0.0
H196 H 0.71638 0.22842 0.47608 0.0
H197 H 0.87619 0.31817 0.3936 0.0
H198 H 0.00722 0.13725 0.40597 0.0
H199 H 0.95219 0.2385 0.42174 0.0
H200 H 0.72987 0.14683 0.43244 0.0
H201 H 0.78709 0.04529 0.41785 0.0
C202 C 0.70882 0.32957 0.46619 0.0
C203 C 0.73954 0.38516 0.44724 0.0
C204 C 0.73978 0.26997 0.46 0.0
C205 C 0.80148 0.26453 0.43428 0.0
C206 C 0.83033 0.32026 0.41449 0.0
C207 C 0.80023 0.37973 0.42114 0.0
C208 C 0.94695 0.13909 0.41253 0.0
C209 C 0.90128 0.08405 0.41146 0.0
C210 C 0.91491 0.19709 0.42089 0.0
C211 C 0.83608 0.20147 0.42795 0.0
C212 C 0.7908 0.14546 0.42771 0.0
C213 C 0.82319 0.08732 0.4194 0.0
H214 H 0.34556 0.32915 0.43373 0.0
H215 H 0.39055 0.42513 0.53961 0.0
H216 H 0.25463 0.25877 0.46806 0.0
H217 H 0.29848 0.35332 0.57453 0.0
H218 H 0.04414 0.26997 0.59499 0.0
H219 H 0.15489 0.3354 0.57246 0.0
H220 H 0.24723 0.17248 0.51893 0.0
H221 H 0.13643 0.10842 0.54113 0.0
C222 C 0.33669 0.33473 0.46457 0.0
C223 C 0.37505 0.38294 0.48391 0.0
C224 C 0.28481 0.29396 0.48436 0.0
C225 C 0.26942 0.3003 0.52406 0.0
C226 C 0.30899 0.34755 0.54386 0.0
C227 C 0.36196 0.38826 0.52399 0.0
C228 C 0.08898 0.24856 0.57883 0.0
C229 C 0.08166 0.18517 0.56874 0.0
C230 C 0.15237 0.28556 0.56617 0.0
C231 C 0.20922 0.25929 0.54341 0.0
C232 C 0.20368 0.19446 0.5357 0.0
C233 C 0.1405 0.15785 0.54823 0.0
H234 H 0.36305 0.66816 0.36988 0.0
H235 H 0.38819 0.72372 0.48862 0.0
H236 H 0.2649 0.74665 0.35811 0.0
H237 H 0.2883 0.80322 0.47657 0.0
H238 H 0.02779 0.83299 0.36586 0.0
H239 H 0.13236 0.75876 0.37891 0.0
H240 H 0.25816 0.90431 0.43694 0.0
H241 H 0.15397 0.97842 0.42304 0.0
C242 C 0.34785 0.69729 0.3936 0.0
C243 C 0.38325 0.68896 0.43044 0.0
C244 C 0.29099 0.74219 0.38679 0.0
C245 C 0.26767 0.7805 0.41652 0.0
C246 C 0.305 0.77433 0.45301 0.0
C247 C 0.3622 0.72886 0.45995 0.0
C248 C 0.07807 0.84891 0.38117 0.0
C249 C 0.08241 0.91092 0.39394 0.0
C250 C 0.13794 0.80663 0.38871 0.0
C251 C 0.20359 0.82551 0.40922 0.0
C252 C 0.20796 0.88787 0.42175 0.0
C253 C 0.14828 0.93023 0.4139 0.0
H254 H 0.17291 0.09191 0.13897 0.0
H255 H 0.02165 0.94437 0.10039 0.0
H256 H 0.14409 0.0607 0.20635 0.0
H257 H 0.99587 0.9095 0.16847 0.0
H258 H 0.90282 0.92137 0.29482 0.0
H259 H 0.93558 0.93151 0.2258 0.0
H260 H 0.16587 0.9869 0.25666 0.0
H261 H 0.1296 0.98286 0.3252 0.0
C262 C 0.13355 0.05238 0.1451 0.0
C263 C 0.09921 0.02075 0.11457 0.0
C264 C 0.11792 0.03356 0.18386 0.0
C265 C 0.06897 0.9813 0.19334 0.0
C266 C 0.03358 0.9501 0.16255 0.0
C267 C 0.04803 0.97008 0.12351 0.0
C268 C 0.96073 0.93456 0.28658 0.0
C269 C 0.01322 0.95267 0.31505 0.0
C270 C 0.97985 0.94017 0.247 0.0
C271 C 0.0528 0.96238 0.23521 0.0
C272 C 0.10808 0.97243 0.26434 0.0
C273 C 0.08813 0.96856 0.30381 0.0
H274 H 0.12338 0.16778 0.85271 0.0
H275 H 0.15391 0.97374 0.82172 0.0
H276 H 0.1171 0.20217 0.78357 0.0
H277 H 0.14689 0.00785 0.75296 0.0
H278 H 0.94982 0.18693 0.67484 0.0
H279 H 0.00912 0.18014 0.73957 0.0
H280 H 0.1918 0.07013 0.69455 0.0
H281 H 0.13075 0.0768 0.62992 0.0
C282 C 0.13127 0.1328 0.83118 0.0
C283 C 0.1375 0.06784 0.84258 0.0
C284 C 0.12721 0.15247 0.79161 0.0
C285 C 0.13008 0.1076 0.76285 0.0
C286 C 0.14469 0.04373 0.77432 0.0
C287 C 0.14826 0.02404 0.8138 0.0
C288 C 1.00383 0.16313 0.67885 0.0
C289 C 0.03608 0.13226 0.64806 0.0
C290 C 0.03815 0.15945 0.71567 0.0
C291 C 0.10511 0.12431 0.72222 0.0
C292 C 0.14004 0.09715 0.69044 0.0
C293 C 0.10565 0.10114 0.65358 0.0
H294 H 0.47943 0.51948 0.60439 0.0
H295 H 0.7171 0.47024 0.61631 0.0
H296 H 0.46184 0.49628 0.6743 0.0
H297 H 0.69911 0.446 0.6859 0.0
H298 H 0.65137 0.51082 0.81247 0.0
H299 H 0.67735 0.50736 0.74259 0.0
H300 H 0.4597 0.41275 0.72664 0.0
H301 H 0.43441 0.41732 0.7966 0.0
C302 C 0.52768 0.50308 0.62179 0.0
C303 C 0.59978 0.49742 0.60475 0.0
C304 C 0.51752 0.48922 0.66185 0.0
C305 C 0.57918 0.46931 0.68576 0.0
C306 C 0.65068 0.46192 0.66845 0.0
C307 C 0.66084 0.47572 0.62847 0.0
C308 C 0.61085 0.48711 0.79408 0.0
C309 C 0.54114 0.46428 0.80949 0.0
C310 C 0.62523 0.48539 0.75408 0.0
C311 C 0.5699 0.46078 0.72887 0.0
C312 C 0.50276 0.43321 0.74509 0.0
C313 C 0.48862 0.43498 0.78505 0.0
H314 H 0.62619 0.65395 0.34985 0.0
H315 H 0.63787 0.45811 0.31908 0.0
H316 H 0.62501 0.68861 0.28075 0.0
H317 H 0.63577 0.49265 0.25025 0.0
H318 H 0.63433 0.56517 0.12671 0.0
H319 H 0.68942 0.55156 0.19257 0.0
H320 H 0.51759 0.67516 0.23511 0.0
H321 H 0.46422 0.68861 0.1692 0.0
C322 C 0.63087 0.61841 0.32841 0.0
C323 C 0.63048 0.55316 0.33987 0.0
C324 C 0.6297 0.6383 0.28882 0.0
C325 C 0.62881 0.59334 0.26006 0.0
C326 C 0.63658 0.52857 0.27162 0.0
C327 C 0.63736 0.50868 0.31114 0.0
C328 C 0.61046 0.59072 0.15018 0.0
C329 C 0.54565 0.62791 0.14354 0.0
C330 C 0.64139 0.58281 0.18773 0.0
C331 C 0.60772 0.61209 0.2191 0.0
C332 C 0.54567 0.6527 0.21157 0.0
C333 C 0.51476 0.66028 0.17407 0.0
loop_
_geom_bond_atom_site_label_1
_geom_bond_atom_site_label_2
_geom_bond_distance
_geom_bond_site_symmetry_2
_ccdc_geom_bond_type
O0 Mg1 1.990 . S
O0 C14 1.253 . S
Mg1 O0 1.990 . S
Mg1 O4 2.180 . S
Mg1 O5 2.117 . S
Mg1 O19 2.030 1_545 S
O2 Mg3 2.072 1_554 S
O2 C14 1.260 . S
Mg3 O2 2.072 1_556 S
Mg3 O4 2.099 1_556 S
Mg3 O6 2.079 . S
Mg3 O7 2.073 . S
Mg3 O9 2.099 1_445 S
Mg3 O20 2.079 1_545 S
O4 Mg1 2.180 . S
O4 Mg3 2.099 1_554 S
O4 C15 1.279 . S
O5 Mg1 2.117 . S
O5 C15 1.250 . S
O6 Mg3 2.079 . S
O6 C16 1.264 . S
O7 Mg3 2.073 . S
O7 C17 1.261 1_455 S
Mg8 O9 2.180 1_545 S
Mg8 O10 2.030 . S
Mg8 O11 1.990 . S
Mg8 O12 2.117 1_545 S
O9 Mg3 2.099 1_665 S
O9 Mg8 2.180 1_565 S
O9 C18 1.279 1_556 S
O10 Mg8 2.030 . S
O10 C16 1.248 1_655 S
O11 Mg8 1.990 . S
O11 C17 1.253 . S
O12 Mg8 2.117 1_565 S
O12 C18 1.250 1_556 S
C13 O19 1.248 . S
C13 O20 1.264 1_554 S
C14 O0 1.253 . S
C14 O2 1.260 . S
C15 O4 1.279 . S
C15 O5 1.250 . S
C16 O6 1.264 . S
C16 O10 1.248 1_455 S
C17 O7 1.261 1_655 S
C17 O11 1.253 . S
C18 O9 1.279 1_554 S
C18 O12 1.250 1_554 S
O19 Mg1 2.030 1_565 S
O19 C13 1.248 . S
O20 Mg3 2.079 1_565 S
O20 C13 1.264 1_556 S
O21 Mg22 1.990 . S
O21 C35 1.253 . S
Mg22 O21 1.990 . S
Mg22 O25 2.180 . S
Mg22 O26 2.117 . S
Mg22 O40 2.030 . S
O23 Mg24 2.072 . S
O23 C35 1.260 . S
Mg24 O23 2.072 . S
Mg24 O25 2.099 . S
Mg24 O27 2.079 . S
Mg24 O28 2.072 . S
Mg24 O30 2.099 . S
Mg24 O41 2.079 . S
O25 Mg22 2.180 . S
O25 Mg24 2.099 . S
O25 C36 1.279 . S
O26 Mg22 2.117 . S
O26 C36 1.250 . S
O27 Mg24 2.079 . S
O27 C37 1.264 . S
O28 Mg24 2.072 . S
O28 C38 1.260 . S
Mg29 O30 2.180 . S
Mg29 O31 2.030 . S
Mg29 O32 1.990 . S
Mg29 O33 2.117 . S
O30 Mg24 2.099 . S
O30 Mg29 2.180 . S
O30 C39 1.279 . S
O31 Mg29 2.030 . S
O31 C37 1.248 . S
O32 Mg29 1.990 . S
O32 C38 1.253 . S
O33 Mg29 2.117 . S
O33 C39 1.250 . S
C34 O40 1.248 . S
C34 O41 1.264 . S
C35 O21 1.253 . S
C35 O23 1.260 . S
C36 O25 1.279 . S
C36 O26 1.250 . S
C37 O27 1.264 . S
C37 O31 1.248 . S
C38 O28 1.260 . S
C38 O32 1.253 . S
C39 O30 1.279 . S
C39 O33 1.250 . S
O40 Mg22 2.030 . S
O40 C34 1.248 . S
O41 Mg24 2.079 . S
O41 C34 1.264 . S
C42 N43 1.317 1_545 S
C42 N44 1.348 1_455 S
C42 C45 1.483 1_545 S
N43 C42 1.317 1_565 S
N43 N47 1.370 1_565 S
N44 C42 1.348 1_655 S
N44 C46 1.346 . S
C45 C42 1.483 1_565 S
C45 H49 0.969 . S
C45 H50 0.949 1_565 S
C45 H51 0.966 . S
C46 N44 1.346 . S
C46 N47 1.307 1_655 S
C46 C48 1.486 . S
N47 N43 1.370 1_545 S
N47 C46 1.307 1_455 S
C48 C46 1.486 . S
C48 H52 0.960 . S
C48 H53 0.960 . S
C48 H54 0.959 . S
H49 C45 0.969 . S
H50 C45 0.949 1_545 S
H51 C45 0.966 . S
H52 C48 0.960 . S
H53 C48 0.960 . S
H54 C48 0.959 . S
C55 N56 1.317 . S
C55 N57 1.348 1_455 S
C55 C58 1.485 . S
N56 C55 1.317 . S
N56 N60 1.370 . S
N57 C55 1.348 1_655 S
N57 C59 1.346 . S
C58 C55 1.485 . S
C58 H62 0.960 1_455 S
C58 H63 0.961 . S
C58 H64 0.960 . S
C59 N57 1.346 . S
C59 N60 1.307 1_655 S
C59 C61 1.486 . S
N60 N56 1.370 . S
N60 C59 1.307 1_455 S
C61 C59 1.486 . S
C61 H65 0.960 1_545 S
C61 H66 0.960 . S
C61 H67 0.959 . S
H62 C58 0.960 1_655 S
H63 C58 0.961 . S
H64 C58 0.960 . S
H65 C61 0.960 1_565 S
H66 C61 0.960 . S
H67 C61 0.959 . S
C68 N69 1.317 . S
C68 N70 1.348 . S
C68 C71 1.485 1_556 S
N69 C68 1.317 . S
N69 N73 1.370 . S
N70 C68 1.348 . S
N70 C72 1.346 . S
C71 C68 1.485 1_554 S
C71 H75 0.960 . S
C71 H76 0.961 . S
C71 H77 0.960 . S
C72 N70 1.346 . S
C72 N73 1.307 . S
C72 C74 1.486 . S
N73 N69 1.370 . S
N73 C72 1.307 . S
C74 C72 1.486 . S
C74 H78 0.960 . S
C74 H79 0.960 . S
C74 H80 0.959 . S
H75 C71 0.960 . S
H76 C71 0.961 . S
H77 C71 0.960 . S
H78 C74 0.960 . S
H79 C74 0.960 . S
H80 C74 0.959 . S
C81 N82 1.317 . S
C81 N83 1.348 . S
C81 C84 1.485 1_554 S
N82 C81 1.317 . S
N82 N86 1.370 . S
N83 C81 1.348 . S
N83 C85 1.346 . S
C84 C81 1.485 1_556 S
C84 H88 0.960 . S
C84 H89 0.961 . S
C84 H90 0.960 . S
C85 N83 1.346 . S
C85 N86 1.307 . S
C85 C87 1.486 . S
N86 N82 1.370 . S
N86 C85 1.307 . S
C87 C85 1.486 . S
C87 H91 0.960 . S
C87 H92 0.960 . S
C87 H93 0.959 . S
H88 C84 0.960 . S
H89 C84 0.961 . S
H90 C84 0.960 . S
H91 C87 0.960 . S
H92 C87 0.960 . S
H93 C87 0.959 . S
H94 C102 0.950 . S
H95 C107 0.957 . S
H96 C104 0.950 . S
H97 C106 0.950 . S
H98 C108 0.950 . S
H99 C110 0.950 . S
H100 C112 0.950 . S
H101 C113 0.950 . S
C102 H94 0.950 . S
C102 C103 1.386 . S
C102 C104 1.391 . S
C103 C102 1.386 . S
C103 C107 1.390 1_554 S
C104 H96 0.950 . S
C104 C102 1.391 . S
C104 C105 1.400 . S
C105 C104 1.400 . S
C105 C106 1.398 . S
C105 C111 1.491 . S
C106 H97 0.950 . S
C106 C105 1.398 . S
C106 C107 1.387 1_554 S
C107 H95 0.957 . S
C107 C103 1.390 1_556 S
C107 C106 1.387 1_556 S
C108 H98 0.950 . S
C108 C109 1.386 . S
C108 C110 1.391 . S
C109 C108 1.386 . S
C109 C113 1.393 . S
C110 H99 0.950 . S
C110 C108 1.391 . S
C110 C111 1.400 . S
C111 C105 1.491 . S
C111 C110 1.400 . S
C111 C112 1.398 . S
C112 H100 0.950 . S
C112 C111 1.398 . S
C112 C113 1.391 . S
C113 H101 0.950 . S
C113 C109 1.393 . S
C113 C112 1.391 . S
H114 C122 0.950 . S
H115 C127 0.949 1_556 S
H116 C124 0.950 . S
H117 C126 0.950 . S
H118 C128 0.950 . S
H119 C130 0.950 . S
H120 C132 0.950 . S
H121 C133 0.950 . S
C122 H114 0.950 . S
C122 C123 1.386 . S
C122 C124 1.391 . S
C123 C122 1.386 . S
C123 C127 1.393 . S
C124 H116 0.950 . S
C124 C122 1.391 . S
C124 C125 1.400 1_554 S
C125 C124 1.400 1_556 S
C125 C126 1.398 . S
C125 C131 1.491 . S
C126 H117 0.950 . S
C126 C125 1.398 . S
C126 C127 1.391 1_556 S
C127 H115 0.949 1_554 S
C127 C123 1.393 . S
C127 C126 1.391 1_554 S
C128 H118 0.950 . S
C128 C129 1.386 . S
C128 C130 1.391 . S
C129 C128 1.386 . S
C129 C133 1.393 . S
C130 H119 0.950 . S
C130 C128 1.391 . S
C130 C131 1.400 . S
C131 C125 1.491 . S
C131 C130 1.400 . S
C131 C132 1.398 . S
C132 H120 0.950 . S
C132 C131 1.398 . S
C132 C133 1.391 . S
C133 H121 0.950 . S
C133 C129 1.393 . S
C133 C132 1.391 . S
H134 C142 0.950 . S
H135 C147 0.950 . S
H136 C144 0.950 . S
H137 C146 0.950 . S
H138 C148 0.950 . S
H139 C150 0.950 . S
H140 C152 0.950 1_556 S
H141 C153 0.950 1_556 S
C142 H134 0.950 . S
C142 C143 1.386 1_556 S
C142 C144 1.391 . S
C143 C142 1.386 1_554 S
C143 C147 1.393 . S
C144 H136 0.950 . S
C144 C142 1.391 . S
C144 C145 1.400 1_556 S
C145 C144 1.400 1_554 S
C145 C146 1.398 . S
C145 C151 1.491 . S
C146 H137 0.950 . S
C146 C145 1.398 . S
C146 C147 1.391 . S
C147 H135 0.950 . S
C147 C143 1.393 . S
C147 C146 1.391 . S
C148 H138 0.950 . S
C148 C149 1.386 . S
C148 C150 1.391 . S
C149 C148 1.386 . S
C149 C153 1.393 . S
C150 H139 0.950 . S
C150 C148 1.391 . S
C150 C151 1.400 . S
C151 C145 1.491 . S
C151 C150 1.400 . S
C151 C152 1.398 . S
C152 H140 0.950 1_554 S
C152 C151 1.398 . S
C152 C153 1.391 . S
C153 H141 0.950 1_554 S
C153 C149 1.393 . S
C153 C152 1.391 . S
H154 C162 0.950 . S
H155 C167 0.950 . S
H156 C164 0.950 . S
H157 C166 0.950 . S
H158 C168 0.950 . S
H159 C170 0.950 . S
H160 C172 0.950 1_554 S
H161 C173 0.958 . S
C162 H154 0.950 . S
C162 C163 1.386 1_554 S
C162 C164 1.391 . S
C163 C162 1.386 1_556 S
C163 C167 1.393 . S
C164 H156 0.950 . S
C164 C162 1.391 . S
C164 C165 1.400 1_554 S
C165 C164 1.400 1_556 S
C165 C166 1.398 . S
C165 C171 1.491 . S
C166 H157 0.950 . S
C166 C165 1.398 . S
C166 C167 1.391 . S
C167 H155 0.950 . S
C167 C163 1.393 . S
C167 C166 1.391 . S
C168 H158 0.950 . S
C168 C169 1.386 . S
C168 C170 1.391 . S
C169 C168 1.386 . S
C169 C173 1.393 . S
C170 H159 0.950 . S
C170 C168 1.391 . S
C170 C171 1.400 . S
C171 C165 1.491 . S
C171 C170 1.400 . S
C171 C172 1.398 . S
C172 H160 0.950 1_556 S
C172 C171 1.398 . S
C172 C173 1.391 . S
C173 H161 0.958 . S
C173 C169 1.393 . S
C173 C172 1.391 . S
H174 C182 0.950 . S
H175 C187 0.950 . S
H176 C184 0.950 . S
H177 C186 0.950 . S
H178 C188 0.950 1_545 S
H179 C190 0.950 . S
H180 C192 0.950 . S
H181 C193 0.950 . S
C182 H174 0.950 . S
C182 C183 1.386 . S
C182 C184 1.391 . S
C183 C182 1.386 . S
C183 C187 1.393 . S
C184 H176 0.950 . S
C184 C182 1.391 . S
C184 C185 1.400 . S
C185 C184 1.400 . S
C185 C186 1.398 . S
C185 C191 1.491 . S
C186 H177 0.950 . S
C186 C185 1.398 . S
C186 C187 1.391 . S
C187 H175 0.950 . S
C187 C183 1.393 . S
C187 C186 1.391 . S
C188 H178 0.950 1_565 S
C188 C189 1.386 . S
C188 C190 1.391 . S
C189 C188 1.386 . S
C189 C193 1.393 . S
C190 H179 0.950 . S
C190 C188 1.391 . S
C190 C191 1.400 . S
C191 C185 1.491 . S
C191 C190 1.400 . S
C191 C192 1.398 . S
C192 H180 0.950 . S
C192 C191 1.398 . S
C192 C193 1.391 . S
C193 H181 0.950 . S
C193 C189 1.393 . S
C193 C192 1.391 . S
H194 C202 0.950 . S
H195 C207 0.950 . S
H196 C204 0.950 . S
H197 C206 0.950 . S
H198 C208 0.950 . S
H199 C210 0.950 . S
H200 C212 0.950 . S
H201 C213 0.950 . S
C202 H194 0.950 . S
C202 C203 1.386 . S
C202 C204 1.391 . S
C203 C202 1.386 . S
C203 C207 1.393 . S
C204 H196 0.950 . S
C204 C202 1.391 . S
C204 C205 1.400 . S
C205 C204 1.400 . S
C205 C206 1.398 . S
C205 C211 1.491 . S
C206 H197 0.950 . S
C206 C205 1.398 . S
C206 C207 1.391 . S
C207 H195 0.950 . S
C207 C203 1.393 . S
C207 C206 1.391 . S
C208 H198 0.950 . S
C208 C209 1.386 . S
C208 C210 1.391 . S
C209 C208 1.386 . S
C209 C213 1.393 . S
C210 H199 0.950 . S
C210 C208 1.391 . S
C210 C211 1.400 . S
C211 C205 1.491 . S
C211 C210 1.400 . S
C211 C212 1.398 . S
C212 H200 0.950 . S
C212 C211 1.398 . S
C212 C213 1.391 . S
C213 H201 0.950 . S
C213 C209 1.393 . S
C213 C212 1.391 . S
H214 C222 0.950 . S
H215 C227 0.950 . S
H216 C224 0.950 . S
H217 C226 0.950 . S
H218 C228 0.950 . S
H219 C230 0.950 . S
H220 C232 0.950 . S
H221 C233 0.950 . S
C222 H214 0.950 . S
C222 C223 1.386 . S
C222 C224 1.391 . S
C223 C222 1.386 . S
C223 C227 1.393 . S
C224 H216 0.950 . S
C224 C222 1.391 . S
C224 C225 1.400 . S
C225 C224 1.400 . S
C225 C226 1.398 . S
C225 C231 1.491 . S
C226 H217 0.950 . S
C226 C225 1.398 . S
C226 C227 1.391 . S
C227 H215 0.950 . S
C227 C223 1.393 . S
C227 C226 1.391 . S
C228 H218 0.950 . S
C228 C229 1.386 . S
C228 C230 1.391 . S
C229 C228 1.386 . S
C229 C233 1.393 . S
C230 H219 0.950 . S
C230 C228 1.391 . S
C230 C231 1.400 . S
C231 C225 1.491 . S
C231 C230 1.400 . S
C231 C232 1.398 . S
C232 H220 0.950 . S
C232 C231 1.398 . S
C232 C233 1.391 . S
C233 H221 0.950 . S
C233 C229 1.393 . S
C233 C232 1.391 . S
H234 C242 0.950 . S
H235 C247 0.950 . S
H236 C244 0.950 . S
H237 C246 0.950 . S
H238 C248 0.950 . S
H239 C250 0.950 . S
H240 C252 0.950 . S
H241 C253 0.950 . S
C242 H234 0.950 . S
C242 C243 1.386 . S
C242 C244 1.391 . S
C243 C242 1.386 . S
C243 C247 1.393 . S
C244 H236 0.950 . S
C244 C242 1.391 . S
C244 C245 1.400 . S
C245 C244 1.400 . S
C245 C246 1.398 . S
C245 C251 1.491 . S
C246 H237 0.950 . S
C246 C245 1.398 . S
C246 C247 1.391 . S
C247 H235 0.950 . S
C247 C243 1.393 . S
C247 C246 1.391 . S
C248 H238 0.950 . S
C248 C249 1.386 . S
C248 C250 1.391 . S
C249 C248 1.386 . S
C249 C253 1.393 . S
C250 H239 0.950 . S
C250 C248 1.391 . S
C250 C251 1.400 . S
C251 C245 1.491 . S
C251 C250 1.400 . S
C251 C252 1.398 . S
C252 H240 0.950 . S
C252 C251 1.398 . S
C252 C253 1.391 . S
C253 H241 0.950 . S
C253 C249 1.393 . S
C253 C252 1.391 . S
H254 C262 0.950 . S
H255 C267 0.950 1_655 S
H256 C264 0.950 . S
H257 C266 0.950 1_655 S
H258 C268 0.949 1_655 S
H259 C270 0.950 1_655 S
H260 C272 0.950 . S
H261 C273 0.950 . S
C262 H254 0.950 . S
C262 C263 1.386 . S
C262 C264 1.391 . S
C263 C262 1.386 . S
C263 C267 1.393 1_545 S
C264 H256 0.950 . S
C264 C262 1.391 . S
C264 C265 1.400 . S
C265 C264 1.400 . S
C265 C266 1.398 1_545 S
C265 C271 1.491 1_545 S
C266 H257 0.950 1_455 S
C266 C265 1.398 1_565 S
C266 C267 1.391 . S
C267 H255 0.950 1_455 S
C267 C263 1.393 1_565 S
C267 C266 1.391 . S
C268 H258 0.949 1_455 S
C268 C269 1.386 . S
C268 C270 1.391 . S
C269 C268 1.386 . S
C269 C273 1.393 1_565 S
C270 H259 0.950 1_455 S
C270 C268 1.391 . S
C270 C271 1.400 . S
C271 C265 1.491 1_565 S
C271 C270 1.400 . S
C271 C272 1.398 1_565 S
C272 H260 0.950 . S
C272 C271 1.398 1_545 S
C272 C273 1.391 . S
C273 H261 0.950 . S
C273 C269 1.393 1_545 S
C273 C272 1.391 . S
H274 C282 0.950 . S
H275 C287 0.950 . S
H276 C284 0.950 . S
H277 C286 0.950 . S
H278 C288 0.950 . S
H279 C290 0.950 . S
H280 C292 0.950 . S
H281 C293 0.950 . S
C282 H274 0.950 . S
C282 C283 1.386 . S
C282 C284 1.391 . S
C283 C282 1.386 . S
C283 C287 1.393 1_455 S
C284 H276 0.950 . S
C284 C282 1.391 . S
C284 C285 1.400 . S
C285 C284 1.400 . S
C285 C286 1.398 1_455 S
C285 C291 1.491 . S
C286 H277 0.950 . S
C286 C285 1.398 1_655 S
C286 C287 1.391 . S
C287 H275 0.950 . S
C287 C283 1.393 1_655 S
C287 C286 1.391 . S
C288 H278 0.950 . S
C288 C289 1.386 1_655 S
C288 C290 1.391 . S
C289 C288 1.386 1_455 S
C289 C293 1.393 . S
C290 H279 0.950 . S
C290 C288 1.391 . S
C290 C291 1.400 1_655 S
C291 C285 1.491 . S
C291 C290 1.400 1_455 S
C291 C292 1.398 . S
C292 H280 0.950 . S
C292 C291 1.398 . S
C292 C293 1.391 . S
C293 H281 0.950 . S
C293 C289 1.393 . S
C293 C292 1.391 . S
H294 C302 0.950 . S
H295 C307 0.950 . S
H296 C304 0.950 . S
H297 C306 0.950 . S
H298 C308 0.950 . S
H299 C310 0.950 . S
H300 C312 0.950 . S
H301 C313 0.950 . S
C302 H294 0.950 . S
C302 C303 1.386 . S
C302 C304 1.391 . S
C303 C302 1.386 . S
C303 C307 1.393 . S
C304 H296 0.950 . S
C304 C302 1.391 . S
C304 C305 1.400 . S
C305 C304 1.400 . S
C305 C306 1.398 . S
C305 C311 1.491 . S
C306 H297 0.950 . S
C306 C305 1.398 . S
C306 C307 1.391 . S
C307 H295 0.950 . S
C307 C303 1.393 . S
C307 C306 1.391 . S
C308 H298 0.950 . S
C308 C309 1.386 . S
C308 C310 1.391 . S
C309 C308 1.386 . S
C309 C313 1.393 . S
C310 H299 0.950 . S
C310 C308 1.391 . S
C310 C311 1.400 . S
C311 C305 1.491 . S
C311 C310 1.400 . S
C311 C312 1.398 . S
C312 H300 0.950 . S
C312 C311 1.398 . S
C312 C313 1.391 . S
C313 H301 0.950 . S
C313 C309 1.393 . S
C313 C312 1.391 . S
H314 C322 0.950 . S
H315 C327 0.950 . S
H316 C324 0.950 . S
H317 C326 0.950 . S
H318 C328 0.950 . S
H319 C330 0.950 . S
H320 C332 0.950 . S
H321 C333 0.950 . S
C322 H314 0.950 . S
C322 C323 1.386 . S
C322 C324 1.391 . S
C323 C322 1.386 . S
C323 C327 1.393 . S
C324 H316 0.950 . S
C324 C322 1.391 . S
C324 C325 1.400 . S
C325 C324 1.400 . S
C325 C326 1.398 . S
C325 C331 1.491 . S
C326 H317 0.950 . S
C326 C325 1.398 . S
C326 C327 1.391 . S
C327 H315 0.950 . S
C327 C323 1.393 . S
C327 C326 1.391 . S
C328 H318 0.950 . S
C328 C329 1.386 . S
C328 C330 1.391 . S
C329 C328 1.386 . S
C329 C333 1.393 . S
C330 H319 0.950 . S
C330 C328 1.391 . S
C330 C331 1.400 . S
C331 C325 1.491 . S
C331 C330 1.400 . S
C331 C332 1.398 . S
C332 H320 0.950 . S
C332 C331 1.398 . S
C332 C333 1.391 . S
C333 H321 0.950 . S
C333 C329 1.393 . S
C333 C332 1.391 . S
C109 N83 1.385 . S
C103 C15 1.181 . S
C123 C13 1.429 . S
C129 N70 1.411 . S
C143 C18 1.333 . S
C149 N82 1.545 . S
C163 C17 1.425 . S
C169 N69 1.485 . S
C183 C36 1.233 . S
C189 N57 1.365 1_565 S
C203 C34 1.423 . S
C209 N44 1.427 . S
C229 N56 1.537 . S
C223 C39 1.330 . S
C249 N43 1.477 . S
C243 C38 1.396 . S
C263 C14 1.549 . S
C269 N47 1.593 1_565 S
C283 C16 1.408 . S
C289 N60 1.451 . S
C309 N73 1.579 . S
C303 C35 1.563 . S
C323 C37 1.424 . S
C329 N86 1.436 . S
