# Generated by pormake.
# Topology apo, (3,6)-cn, num edge types: 1
# Building blocks:
#     Node 0, Type 0, BuildingBlock: MIDCAF_clean_linker_0, # of connection points: 3
#     Node 1, Type 0, BuildingBlock: MIDCAF_clean_linker_0, # of connection points: 3
#     Node 2, Type 0, BuildingBlock: MIDCAF_clean_linker_0, # of connection points: 3
#     Node 3, Type 0, BuildingBlock: MIDCAF_clean_linker_0, # of connection points: 3
#     Node 4, Type 0, BuildingBlock: MIDCAF_clean_linker_0, # of connection points: 3
#     Node 5, Type 0, BuildingBlock: MIDCAF_clean_linker_0, # of connection points: 3
#     Node 6, Type 0, BuildingBlock: MIDCAF_clean_linker_0, # of connection points: 3
#     Node 7, Type 0, BuildingBlock: MIDCAF_clean_linker_0, # of connection points: 3
#     Node 8, Type 1, BuildingBlock: MIDCAF_clean_sbu_0, # of connection points: 6
#     Node 9, Type 1, BuildingBlock: MIDCAF_clean_sbu_0, # of connection points: 6
#     Node 10, Type 1, BuildingBlock: MIDCAF_clean_sbu_0, # of connection points: 6
#     Node 11, Type 1, BuildingBlock: MIDCAF_clean_sbu_0, # of connection points: 6
#     Edge 12, Type (0, 1), BuildingBlock: MIFKUJ_clean_linker_0, # of connection points: 2
#     Edge 13, Type (0, 1), BuildingBlock: MIFKUJ_clean_linker_0, # of connection points: 2
#     Edge 14, Type (0, 1), BuildingBlock: MIFKUJ_clean_linker_0, # of connection points: 2
#     Edge 15, Type (0, 1), BuildingBlock: MIFKUJ_clean_linker_0, # of connection points: 2
#     Edge 16, Type (0, 1), BuildingBlock: MIFKUJ_clean_linker_0, # of connection points: 2
#     Edge 17, Type (0, 1), BuildingBlock: MIFKUJ_clean_linker_0, # of connection points: 2
#     Edge 18, Type (0, 1), BuildingBlock: MIFKUJ_clean_linker_0, # of connection points: 2
#     Edge 19, Type (0, 1), BuildingBlock: MIFKUJ_clean_linker_0, # of connection points: 2
#     Edge 20, Type (0, 1), BuildingBlock: MIFKUJ_clean_linker_0, # of connection points: 2
#     Edge 21, Type (0, 1), BuildingBlock: MIFKUJ_clean_linker_0, # of connection points: 2
#     Edge 22, Type (0, 1), BuildingBlock: MIFKUJ_clean_linker_0, # of connection points: 2
#     Edge 23, Type (0, 1), BuildingBlock: MIFKUJ_clean_linker_0, # of connection points: 2
#     Edge 24, Type (0, 1), BuildingBlock: MIFKUJ_clean_linker_0, # of connection points: 2
#     Edge 25, Type (0, 1), BuildingBlock: MIFKUJ_clean_linker_0, # of connection points: 2
#     Edge 26, Type (0, 1), BuildingBlock: MIFKUJ_clean_linker_0, # of connection points: 2
#     Edge 27, Type (0, 1), BuildingBlock: MIFKUJ_clean_linker_0, # of connection points: 2
#     Edge 28, Type (0, 1), BuildingBlock: MIFKUJ_clean_linker_0, # of connection points: 2
#     Edge 29, Type (0, 1), BuildingBlock: MIFKUJ_clean_linker_0, # of connection points: 2
#     Edge 30, Type (0, 1), BuildingBlock: MIFKUJ_clean_linker_0, # of connection points: 2
#     Edge 31, Type (0, 1), BuildingBlock: MIFKUJ_clean_linker_0, # of connection points: 2
#     Edge 32, Type (0, 1), BuildingBlock: MIFKUJ_clean_linker_0, # of connection points: 2
#     Edge 33, Type (0, 1), BuildingBlock: MIFKUJ_clean_linker_0, # of connection points: 2
#     Edge 34, Type (0, 1), BuildingBlock: MIFKUJ_clean_linker_0, # of connection points: 2
#     Edge 35, Type (0, 1), BuildingBlock: MIFKUJ_clean_linker_0, # of connection points: 2
# Relax obj value: 0.088
# Max RMSD: 0.101
# Mean RMSD: 0.091
data_MOF--net-apo--node1-MIDCAF_clean_sbu_0--node2-MIDCAF_clean_linker_0--edge1-MIFKUJ_clean_linker_0
_symmetry_space_group_name_H-M    P1
_symmetry_Int_Tables_number       1
_symmetry_cell_setting            triclinic
loop_
_symmetry_equiv_pos_as_xyz
'x, y, z'
_cell_length_a     52.629242
_cell_length_b     62.648296
_cell_length_c     56.453449
_cell_angle_alpha  90.122306
_cell_angle_beta   89.917052
_cell_angle_gamma 90.250775
loop_
_atom_site_label
_atom_site_type_symbol
_atom_site_fract_x
_atom_site_fract_y
_atom_site_fract_z
_atom_type_partial_charge
C0 C 0.37089 0.33647 0.47198 0.0
C1 C 0.35658 0.322 0.48557 0.0
C2 C 0.33834 0.30915 0.4741 0.0
C3 C 0.33415 0.31116 0.44965 0.0
H4 H 0.2948 0.28533 0.38982 0.0
H5 H 0.26089 0.26637 0.36882 0.0
H6 H 0.2667 0.31123 0.31113 0.0
H7 H 0.3004 0.33019 0.3319 0.0
H8 H 0.34282 0.36554 0.33154 0.0
H9 H 0.36421 0.39588 0.3131 0.0
H10 H 0.41659 0.39907 0.37186 0.0
H11 H 0.39493 0.36922 0.39056 0.0
H12 H 0.37824 0.34989 0.43802 0.0
H13 H 0.38549 0.34626 0.48011 0.0
H14 H 0.327 0.29786 0.4841 0.0
H15 H 0.31972 0.30127 0.4414 0.0
N16 N 0.32532 0.31763 0.39875 0.0
N17 N 0.33425 0.33657 0.36378 0.0
N18 N 0.35703 0.34404 0.39838 0.0
C19 C 0.32061 0.32132 0.37537 0.0
C20 C 0.35259 0.34793 0.37513 0.0
C21 C 0.34354 0.32901 0.4104 0.0
C22 C 0.30034 0.30936 0.36263 0.0
C23 C 0.28889 0.29114 0.37265 0.0
C24 C 0.26957 0.28019 0.36056 0.0
C25 C 0.2611 0.28735 0.33836 0.0
C26 C 0.27265 0.30545 0.32831 0.0
C27 C 0.29208 0.31625 0.34022 0.0
C28 C 0.3669 0.36507 0.36272 0.0
C29 C 0.35904 0.37259 0.34044 0.0
C30 C 0.37141 0.38993 0.32977 0.0
C31 C 0.39197 0.40008 0.3411 0.0
C32 C 0.40048 0.39194 0.36287 0.0
C33 C 0.38807 0.37473 0.37357 0.0
C34 C 0.34826 0.32595 0.43616 0.0
C35 C 0.36681 0.33841 0.44769 0.0
C36 C 0.145 0.1502 0.97216 0.0
C37 C 0.15574 0.16687 0.98551 0.0
C38 C 0.17349 0.18054 0.97461 0.0
C39 C 0.17953 0.17806 0.95054 0.0
H40 H 0.23849 0.18635 0.89387 0.0
H41 H 0.27165 0.2058 0.87212 0.0
H42 H 0.22633 0.2025 0.80857 0.0
H43 H 0.19349 0.1828 0.83 0.0
H44 H 0.1692 0.13032 0.82892 0.0
H45 H 0.14544 0.10298 0.80739 0.0
H46 H 0.09503 0.09539 0.8672 0.0
H47 H 0.11863 0.12272 0.88881 0.0
H48 H 0.14192 0.13484 0.93858 0.0
H49 H 0.13168 0.13912 0.98016 0.0
H50 H 0.18203 0.19357 0.98445 0.0
H51 H 0.19274 0.18919 0.94247 0.0
N52 N 0.19058 0.17185 0.89995 0.0
N53 N 0.17926 0.15632 0.8635 0.0
N54 N 0.15807 0.14614 0.89812 0.0
C55 C 0.19393 0.17015 0.87608 0.0
C56 C 0.16132 0.14422 0.87439 0.0
C57 C 0.17252 0.15987 0.91108 0.0
C58 C 0.21344 0.183 0.86363 0.0
C59 C 0.23557 0.1899 0.8753 0.0
C60 C 0.25458 0.20089 0.86286 0.0
C61 C 0.25148 0.20557 0.83871 0.0
C62 C 0.2291 0.19915 0.82721 0.0
C63 C 0.21039 0.1878 0.83947 0.0
C64 C 0.14595 0.12864 0.86068 0.0
C65 C 0.15291 0.123 0.83744 0.0
C66 C 0.13938 0.10729 0.82511 0.0
C67 C 0.11843 0.09707 0.83564 0.0
C68 C 0.11095 0.10316 0.85856 0.0
C69 C 0.12463 0.11871 0.87099 0.0
C70 C 0.16795 0.16184 0.93698 0.0
C71 C 0.15098 0.14773 0.94826 0.0
C72 C 0.84869 0.12349 0.53071 0.0
C73 C 0.84544 0.14055 0.51491 0.0
C74 C 0.83429 0.15951 0.5234 0.0
C75 C 0.82777 0.16165 0.54742 0.0
H76 H 0.7656 0.17908 0.60255 0.0
H77 H 0.73285 0.20072 0.62193 0.0
H78 H 0.77705 0.20147 0.68627 0.0
H79 H 0.80954 0.17993 0.66716 0.0
H80 H 0.83162 0.12591 0.67379 0.0
H81 H 0.85522 0.10028 0.69781 0.0
H82 H 0.9096 0.09261 0.64113 0.0
H83 H 0.88612 0.11802 0.61711 0.0
H84 H 0.84591 0.11233 0.56629 0.0
H85 H 0.8565 0.10845 0.52472 0.0
H86 H 0.83158 0.17299 0.51172 0.0
H87 H 0.82013 0.17667 0.55368 0.0
N88 N 0.81178 0.1614 0.59859 0.0
N89 N 0.82402 0.15118 0.63701 0.0
N90 N 0.84368 0.1358 0.60406 0.0
C91 C 0.80922 0.16324 0.62258 0.0
C92 C 0.84134 0.1375 0.62787 0.0
C93 C 0.82907 0.14757 0.58927 0.0
C94 C 0.79014 0.1777 0.63332 0.0
C95 C 0.76841 0.18405 0.62074 0.0
C96 C 0.7496 0.1963 0.63187 0.0
C97 C 0.7524 0.20273 0.65562 0.0
C98 C 0.77445 0.19689 0.66792 0.0
C99 C 0.793 0.18443 0.65696 0.0
C100 C 0.85687 0.12383 0.64347 0.0
C101 C 0.84881 0.11899 0.6666 0.0
C102 C 0.86224 0.10429 0.68032 0.0
C103 C 0.88419 0.09448 0.6713 0.0
C104 C 0.89288 0.10009 0.64862 0.0
C105 C 0.87929 0.1145 0.6348 0.0
C106 C 0.83251 0.14494 0.56337 0.0
C107 C 0.84247 0.1257 0.55459 0.0
C108 C 0.62535 0.33736 0.03003 0.0
C109 C 0.64289 0.32642 0.01572 0.0
C110 C 0.66614 0.32012 0.02567 0.0
C111 C 0.67165 0.32457 0.04944 0.0
H112 H 0.7293 0.32035 0.10222 0.0
H113 H 0.76617 0.30506 0.1224 0.0
H114 H 0.72978 0.31537 0.18998 0.0
H115 H 0.69318 0.3309 0.17004 0.0
H116 H 0.66431 0.38189 0.16336 0.0
H117 H 0.64027 0.40956 0.18381 0.0
H118 H 0.57704 0.39921 0.13658 0.0
H119 H 0.60126 0.37163 0.11558 0.0
H120 H 0.61693 0.35048 0.06412 0.0
H121 H 0.6074 0.34266 0.02282 0.0
H122 H 0.67997 0.31153 0.01514 0.0
H123 H 0.68973 0.31944 0.05652 0.0
N124 N 0.68068 0.3319 0.09961 0.0
N125 N 0.67083 0.35 0.13482 0.0
N126 N 0.64483 0.35406 0.1015 0.0
C127 C 0.68608 0.33644 0.12263 0.0
C128 C 0.65024 0.35892 0.12443 0.0
C129 C 0.65998 0.34058 0.08893 0.0
C130 C 0.70832 0.32685 0.13453 0.0
C131 C 0.72917 0.31933 0.12137 0.0
C132 C 0.75031 0.31073 0.13289 0.0
C133 C 0.75074 0.30909 0.15771 0.0
C134 C 0.72984 0.31639 0.17082 0.0
C135 C 0.70896 0.32535 0.15938 0.0
C136 C 0.63475 0.37462 0.13772 0.0
C137 C 0.6452 0.3853 0.1574 0.0
C138 C 0.6315 0.40116 0.16912 0.0
C139 C 0.60688 0.40642 0.16174 0.0
C140 C 0.59597 0.39528 0.14266 0.0
C141 C 0.60989 0.37964 0.13059 0.0
C142 C 0.65412 0.3356 0.06376 0.0
C143 C 0.63092 0.34196 0.05371 0.0
C144 C 0.65309 0.66063 0.51708 0.0
C145 C 0.66711 0.67531 0.50354 0.0
C146 C 0.6896 0.68396 0.51301 0.0
C147 C 0.69767 0.6782 0.53582 0.0
H148 H 0.72874 0.70451 0.60285 0.0
H149 H 0.75499 0.72629 0.62942 0.0
H150 H 0.76611 0.67166 0.67467 0.0
H151 H 0.7403 0.64995 0.64832 0.0
H152 H 0.69649 0.61555 0.64907 0.0
H153 H 0.67637 0.5844 0.66673 0.0
H154 H 0.63778 0.57126 0.60077 0.0
H155 H 0.6574 0.6027 0.58317 0.0
H156 H 0.6499 0.64325 0.54938 0.0
H157 H 0.63583 0.65351 0.51013 0.0
H158 H 0.70074 0.69534 0.50292 0.0
H159 H 0.71503 0.68514 0.54275 0.0
N160 N 0.70835 0.66868 0.58628 0.0
N161 N 0.70576 0.64375 0.61721 0.0
N162 N 0.68264 0.63811 0.58245 0.0
C163 C 0.71531 0.66228 0.60839 0.0
C164 C 0.68946 0.63156 0.60441 0.0
C165 C 0.692 0.65656 0.57318 0.0
C166 C 0.73235 0.67548 0.62343 0.0
C167 C 0.73697 0.69712 0.61836 0.0
C168 C 0.75181 0.70963 0.63366 0.0
C169 C 0.76256 0.70068 0.65415 0.0
C170 C 0.75829 0.67898 0.65893 0.0
C171 C 0.74334 0.66657 0.64383 0.0
C172 C 0.67845 0.6118 0.6147 0.0
C173 C 0.68383 0.60599 0.63823 0.0
C174 C 0.67241 0.58802 0.64836 0.0
C175 C 0.65538 0.57538 0.63521 0.0
C176 C 0.6505 0.58086 0.61151 0.0
C177 C 0.66187 0.59886 0.60138 0.0
C178 C 0.68363 0.66337 0.54928 0.0
C179 C 0.66128 0.65466 0.53956 0.0
C180 C 0.8725 0.84381 0.04314 0.0
C181 C 0.85693 0.83101 0.02864 0.0
C182 C 0.83614 0.82037 0.03905 0.0
C183 C 0.83074 0.82291 0.06323 0.0
H184 H 0.78984 0.79631 0.12234 0.0
H185 H 0.75652 0.7767 0.14324 0.0
H186 H 0.75657 0.82467 0.19838 0.0
H187 H 0.79027 0.84377 0.17803 0.0
H188 H 0.83121 0.87975 0.17855 0.0
H189 H 0.85367 0.90705 0.20087 0.0
H190 H 0.91758 0.90178 0.15299 0.0
H191 H 0.89445 0.87513 0.12996 0.0
H192 H 0.87949 0.85654 0.07765 0.0
H193 H 0.88899 0.85189 0.03588 0.0
H194 H 0.82364 0.8105 0.0284 0.0
H195 H 0.81431 0.81477 0.07053 0.0
N196 N 0.82022 0.82912 0.11361 0.0
N197 N 0.82728 0.84818 0.14882 0.0
N198 N 0.85299 0.85466 0.11571 0.0
C199 C 0.81395 0.8332 0.13659 0.0
C200 C 0.84685 0.85892 0.13862 0.0
C201 C 0.83971 0.83988 0.103 0.0
C202 C 0.79289 0.82157 0.14852 0.0
C203 C 0.78269 0.80268 0.1389 0.0
C204 C 0.7635 0.79147 0.15087 0.0
C205 C 0.75389 0.799 0.17264 0.0
C206 C 0.76384 0.81809 0.18198 0.0
C207 C 0.78312 0.82915 0.17016 0.0
C208 C 0.86099 0.87528 0.1524 0.0
C209 C 0.85009 0.88438 0.17278 0.0
C210 C 0.86311 0.89997 0.18574 0.0
C211 C 0.88758 0.90669 0.1789 0.0
C212 C 0.89861 0.89735 0.15864 0.0
C213 C 0.8854 0.88196 0.14545 0.0
C214 C 0.84601 0.83614 0.07759 0.0
C215 C 0.8671 0.84638 0.06722 0.0
C216 C 0.13402 0.84724 0.4779 0.0
C217 C 0.1452 0.83 0.48982 0.0
C218 C 0.16342 0.81767 0.47775 0.0
C219 C 0.17009 0.82242 0.45424 0.0
H220 H 0.20901 0.79973 0.39262 0.0
H221 H 0.23945 0.77919 0.36939 0.0
H222 H 0.24378 0.83035 0.31829 0.0
H223 H 0.21286 0.8505 0.34098 0.0
H224 H 0.17577 0.88949 0.34421 0.0
H225 H 0.15747 0.9219 0.32756 0.0
H226 H 0.10329 0.92424 0.38499 0.0
H227 H 0.12134 0.89188 0.40161 0.0
H228 H 0.13156 0.86547 0.4462 0.0
H229 H 0.12033 0.85737 0.48674 0.0
H230 H 0.17231 0.80422 0.48639 0.0
H231 H 0.18414 0.81261 0.44545 0.0
N232 N 0.18301 0.83363 0.40506 0.0
N233 N 0.17889 0.857 0.37279 0.0
N234 N 0.1553 0.86279 0.40733 0.0
C235 C 0.18961 0.83938 0.38258 0.0
C236 C 0.16165 0.86875 0.385 0.0
C237 C 0.16586 0.84535 0.41759 0.0
C238 C 0.20839 0.82679 0.36873 0.0
C239 C 0.21643 0.80659 0.37642 0.0
C240 C 0.23401 0.79484 0.36311 0.0
C241 C 0.24414 0.80305 0.34188 0.0
C242 C 0.23609 0.82328 0.33427 0.0
C243 C 0.21842 0.83494 0.34744 0.0
C244 C 0.15012 0.88806 0.37433 0.0
C245 C 0.15987 0.89683 0.35324 0.0
C246 C 0.14947 0.91546 0.34374 0.0
C247 C 0.12895 0.92562 0.35496 0.0
C248 C 0.11892 0.91667 0.37579 0.0
C249 C 0.12943 0.89817 0.3854 0.0
C250 C 0.15879 0.83969 0.44236 0.0
C251 C 0.14066 0.85198 0.45457 0.0
C252 C 0.3494 0.65815 0.98526 0.0
C253 C 0.33442 0.67248 0.99829 0.0
C254 C 0.3124 0.68085 0.98785 0.0
C255 C 0.30589 0.67536 0.9645 0.0
H256 H 0.25833 0.69138 0.90458 0.0
H257 H 0.22955 0.7119 0.87942 0.0
H258 H 0.26383 0.6841 0.81713 0.0
H259 H 0.29246 0.66366 0.84202 0.0
H260 H 0.31657 0.61808 0.848 0.0
H261 H 0.33743 0.58763 0.82978 0.0
H262 H 0.3742 0.57332 0.8962 0.0
H263 H 0.35375 0.60405 0.91444 0.0
H264 H 0.35492 0.64142 0.95274 0.0
H265 H 0.36633 0.65127 0.99298 0.0
H266 H 0.30056 0.69195 0.99755 0.0
H267 H 0.28899 0.68224 0.95676 0.0
N268 N 0.29887 0.66747 0.91338 0.0
N269 N 0.30563 0.64502 0.88063 0.0
N270 N 0.3259 0.63787 0.91654 0.0
C271 C 0.29434 0.66245 0.89027 0.0
C272 C 0.32131 0.63257 0.89362 0.0
C273 C 0.31481 0.65525 0.92659 0.0
C274 C 0.27758 0.67577 0.87535 0.0
C275 C 0.25983 0.68977 0.88553 0.0
C276 C 0.24329 0.70143 0.87114 0.0
C277 C 0.24447 0.69955 0.84633 0.0
C278 C 0.26263 0.686 0.83618 0.0
C279 C 0.2789 0.67416 0.8505 0.0
C280 C 0.33353 0.61364 0.88272 0.0
C281 C 0.32905 0.60846 0.85881 0.0
C282 C 0.34089 0.59088 0.84835 0.0
C283 C 0.35749 0.57805 0.86152 0.0
C284 C 0.36177 0.58306 0.88548 0.0
C285 C 0.34993 0.60064 0.89596 0.0
C286 C 0.32104 0.66108 0.95142 0.0
C287 C 0.34274 0.65242 0.96221 0.0
Zn288 Zn 0.00792 0.16987 0.28224 0.0
Zn289 Zn 0.97006 0.14504 0.21497 0.0
Zn290 Zn 0.9959 0.15356 0.24796 0.0
C291 C 0.01952 0.15683 0.19847 0.0
C292 C 0.97505 0.10661 0.23947 0.0
O293 O 0.97683 0.13501 0.27605 0.0
O294 O 0.97132 0.16597 0.29383 0.0
C295 C 0.0386 0.18635 0.25155 0.0
O296 O 0.02479 0.15531 0.22055 0.0
O297 O 0.99666 0.15491 0.19179 0.0
O298 O 0.96747 0.11367 0.21979 0.0
O299 O 0.98507 0.11951 0.25473 0.0
O300 O 0.02254 0.19529 0.26499 0.0
O301 O 0.03411 0.16722 0.2444 0.0
O302 O 0.00389 0.12695 0.27198 0.0
O303 O 0.03331 0.1455 0.29052 0.0
C304 C 0.024 0.12749 0.28502 0.0
O305 O 0.96863 0.17899 0.24874 0.0
O306 O 0.94123 0.16433 0.22427 0.0
C307 C 0.96445 0.14671 0.29093 0.0
C308 C 0.94696 0.17904 0.2387 0.0
Zn309 Zn 0.52734 0.35338 0.70875 0.0
Zn310 Zn 0.47896 0.35521 0.78959 0.0
Zn311 Zn 0.50367 0.35309 0.74961 0.0
C312 C 0.48711 0.39679 0.77729 0.0
C313 C 0.44705 0.3344 0.7579 0.0
O314 O 0.53942 0.33523 0.75479 0.0
O315 O 0.55895 0.33998 0.72041 0.0
C316 C 0.52179 0.39555 0.72048 0.0
O317 O 0.49611 0.38706 0.75898 0.0
O318 O 0.47955 0.38632 0.79501 0.0
O319 O 0.44664 0.34244 0.77841 0.0
O320 O 0.46698 0.33624 0.74477 0.0
O321 O 0.5281 0.3845 0.70274 0.0
O322 O 0.5129 0.38649 0.73925 0.0
O323 O 0.47934 0.33661 0.72278 0.0
O324 O 0.50333 0.33533 0.69064 0.0
C325 C 0.48278 0.33083 0.70107 0.0
O326 O 0.52714 0.33673 0.777 0.0
O327 O 0.50205 0.33729 0.80842 0.0
C328 C 0.5588 0.33251 0.74115 0.0
C329 C 0.52275 0.33191 0.79884 0.0
Zn330 Zn 0.02372 0.85376 0.79309 0.0
Zn331 Zn 0.97315 0.84593 0.71718 0.0
Zn332 Zn 0.99909 0.8504 0.75659 0.0
C333 C 0.9748 0.88948 0.7282 0.0
C334 C 0.94745 0.82269 0.75132 0.0
O335 O 0.03386 0.83084 0.75237 0.0
O336 O 0.043 0.8268 0.79021 0.0
C337 C 0.02666 0.893 0.77409 0.0
O338 O 0.99055 0.88273 0.74388 0.0
O339 O 0.96288 0.87648 0.71514 0.0
O340 O 0.94824 0.82513 0.72917 0.0
O341 O 0.96392 0.8319 0.76483 0.0
O342 O 0.04101 0.88135 0.78636 0.0
O343 O 0.00758 0.88466 0.76311 0.0
O344 O 0.97465 0.83832 0.78607 0.0
O345 O 0.99465 0.8544 0.81545 0.0
C346 C 0.97554 0.84423 0.80796 0.0
O347 O 0.0243 0.83487 0.7299 0.0
O348 O 0.00132 0.83534 0.69705 0.0
C349 C 0.04645 0.82151 0.76889 0.0
C350 C 0.02199 0.83141 0.70745 0.0
Zn351 Zn 0.51611 0.65073 0.21062 0.0
Zn352 Zn 0.47385 0.65138 0.29601 0.0
Zn353 Zn 0.49483 0.65146 0.25322 0.0
C354 C 0.52086 0.67191 0.30029 0.0
C355 C 0.47765 0.60895 0.28245 0.0
O356 O 0.4688 0.66804 0.2285 0.0
O357 O 0.48989 0.66811 0.19458 0.0
C358 C 0.55029 0.67149 0.24031 0.0
O359 O 0.52194 0.66691 0.27814 0.0
O360 O 0.50122 0.66759 0.31226 0.0
O361 O 0.47173 0.62007 0.30028 0.0
O362 O 0.48657 0.61795 0.26364 0.0
O363 O 0.54861 0.66452 0.21938 0.0
O364 O 0.53203 0.66839 0.25519 0.0
O365 O 0.50089 0.61769 0.2424 0.0
O366 O 0.51618 0.61939 0.20591 0.0
C367 C 0.50931 0.60842 0.22354 0.0
O368 O 0.45863 0.66959 0.25138 0.0
O369 O 0.44222 0.66635 0.28734 0.0
C370 C 0.47045 0.67315 0.20645 0.0
C371 C 0.4407 0.67327 0.26642 0.0
H372 H 0.07897 0.93665 0.34987 0.0
H373 H 0.06187 0.97091 0.33667 0.0
H374 H 0.13802 0.99458 0.32553 0.0
H375 H 0.15526 0.96045 0.33898 0.0
H376 H 0.10855 0.02229 0.35135 0.0
H377 H 0.10125 0.98164 0.27936 0.0
H378 H 0.08775 0.95144 0.25422 0.0
H379 H 0.00953 0.96545 0.26906 0.0
H380 H 0.02254 0.99552 0.29457 0.0
H381 H 0.07383 0.11934 0.29466 0.0
H382 H 0.09248 0.08501 0.30572 0.0
H383 H 0.01764 0.05645 0.30681 0.0
H384 H 0.9993 0.09053 0.29507 0.0
H385 H 0.04759 0.03103 0.28522 0.0
H386 H 0.05298 0.06923 0.35871 0.0
H387 H 0.0646 0.09902 0.38523 0.0
H388 H 0.14357 0.08922 0.36959 0.0
H389 H 0.13239 0.05953 0.34272 0.0
C390 C 0.09206 0.94915 0.34455 0.0
C391 C 0.11847 0.94587 0.34549 0.0
C392 C 0.08226 0.96865 0.33685 0.0
C393 C 0.09868 0.98525 0.32999 0.0
C394 C 0.12503 0.98195 0.33068 0.0
C395 C 0.13484 0.96241 0.33821 0.0
C396 C 0.08841 0.00638 0.32318 0.0
C397 C 0.0955 0.02428 0.33667 0.0
C398 C 0.07076 0.00883 0.30449 0.0
C399 C 0.06291 0.99068 0.28916 0.0
C400 C 0.08118 0.97815 0.27747 0.0
C401 C 0.07361 0.96108 0.26309 0.0
C402 C 0.04781 0.95648 0.26012 0.0
C403 C 0.02951 0.969 0.2714 0.0
C404 C 0.03698 0.98606 0.28583 0.0
C405 C 0.06142 0.10575 0.29753 0.0
C406 C 0.03513 0.10748 0.29388 0.0
C407 C 0.07205 0.08614 0.3039 0.0
C408 C 0.05648 0.06809 0.30732 0.0
C409 C 0.03013 0.07003 0.30415 0.0
C410 C 0.01961 0.0895 0.29742 0.0
C411 C 0.06755 0.04701 0.31352 0.0
C412 C 0.06065 0.0291 0.29991 0.0
C413 C 0.08504 0.04448 0.33235 0.0
C414 C 0.09182 0.0623 0.34852 0.0
C415 C 0.07281 0.07353 0.36079 0.0
C416 C 0.07932 0.09038 0.37591 0.0
C417 C 0.1048 0.09605 0.37904 0.0
C418 C 0.12383 0.08484 0.36712 0.0
C419 C 0.11742 0.06798 0.35196 0.0
H420 H 0.1098 0.1091 0.39076 0.0
H421 H 0.04204 0.94319 0.24908 0.0
H422 H 0.33807 0.5487 0.83021 0.0
H423 H 0.36064 0.51954 0.8105 0.0
H424 H 0.42928 0.53686 0.84769 0.0
H425 H 0.40711 0.56639 0.86684 0.0
H426 H 0.43809 0.53005 0.80132 0.0
H427 H 0.39325 0.49378 0.86436 0.0
H428 H 0.35527 0.48305 0.88712 0.0
H429 H 0.32335 0.45397 0.82491 0.0
H430 H 0.36102 0.46478 0.80169 0.0
H431 H 0.50541 0.42884 0.80508 0.0
H432 H 0.48417 0.46309 0.81237 0.0
H433 H 0.4297 0.44829 0.75771 0.0
H434 H 0.45184 0.41472 0.74945 0.0
H435 H 0.41112 0.45437 0.80768 0.0
H436 H 0.45935 0.48129 0.7433 0.0
H437 H 0.49849 0.49179 0.7134 0.0
H438 H 0.52611 0.54824 0.78857 0.0
H439 H 0.48413 0.52941 0.80862 0.0
C440 C 0.35801 0.54636 0.83409 0.0
C441 C 0.37079 0.55985 0.85013 0.0
C442 C 0.37081 0.52958 0.82297 0.0
C443 C 0.39659 0.52593 0.82777 0.0
C444 C 0.40937 0.53937 0.84376 0.0
C445 C 0.39661 0.55612 0.85486 0.0
C446 C 0.41053 0.50836 0.81594 0.0
C447 C 0.43251 0.51344 0.80302 0.0
C448 C 0.40243 0.48683 0.81728 0.0
C449 C 0.37982 0.4803 0.83124 0.0
C450 C 0.37803 0.48525 0.85549 0.0
C451 C 0.35658 0.47913 0.86848 0.0
C452 C 0.33687 0.4679 0.85745 0.0
C453 C 0.33861 0.46271 0.83342 0.0
C454 C 0.36001 0.46881 0.82034 0.0
C455 C 0.48976 0.43351 0.79382 0.0
C456 C 0.48049 0.41949 0.77642 0.0
C457 C 0.47751 0.45293 0.7981 0.0
C458 C 0.45539 0.45816 0.78556 0.0
C459 C 0.44688 0.44459 0.7674 0.0
C460 C 0.45967 0.42558 0.76254 0.0
C461 C 0.43929 0.47603 0.79376 0.0
C462 C 0.41682 0.47097 0.80598 0.0
C463 C 0.44699 0.49757 0.7919 0.0
C464 C 0.46949 0.50417 0.77805 0.0
C465 C 0.47319 0.49267 0.7497 0.0
C466 C 0.4983 0.5001 0.73049 0.0
C467 C 0.52754 0.52985 0.74983 0.0
C468 C 0.51607 0.53628 0.77837 0.0
C469 C 0.48914 0.52408 0.79099 0.0
H470 H 0.52308 0.52277 0.7417 0.0
H471 H 0.32028 0.46317 0.86754 0.0
H472 H 0.67468 0.54567 0.66597 0.0
H473 H 0.65171 0.51668 0.68577 0.0
H474 H 0.58303 0.53454 0.64936 0.0
H475 H 0.60555 0.56393 0.63022 0.0
H476 H 0.57443 0.52818 0.69541 0.0
H477 H 0.61819 0.49074 0.63263 0.0
H478 H 0.65582 0.47933 0.60989 0.0
H479 H 0.68708 0.45055 0.6723 0.0
H480 H 0.64977 0.46205 0.69548 0.0
H481 H 0.50542 0.42695 0.69108 0.0
H482 H 0.52735 0.46102 0.68372 0.0
H483 H 0.57977 0.44728 0.74022 0.0
H484 H 0.55688 0.41393 0.74858 0.0
H485 H 0.59936 0.45215 0.68961 0.0
H486 H 0.55147 0.4805 0.75372 0.0
H487 H 0.51274 0.49227 0.78344 0.0
H488 H 0.48724 0.54792 0.70734 0.0
H489 H 0.5285 0.52795 0.68762 0.0
C490 C 0.65466 0.54346 0.66226 0.0
C491 C 0.64196 0.55709 0.64645 0.0
C492 C 0.64162 0.52678 0.67343 0.0
C493 C 0.6157 0.52335 0.6689 0.0
C494 C 0.60304 0.53687 0.65308 0.0
C495 C 0.61601 0.55354 0.64196 0.0
C496 C 0.60141 0.50604 0.68095 0.0
C497 C 0.57956 0.51149 0.69382 0.0
C498 C 0.60893 0.48441 0.67977 0.0
C499 C 0.63134 0.47747 0.66584 0.0
C500 C 0.63319 0.48214 0.64154 0.0
C501 C 0.65444 0.47562 0.62857 0.0
C502 C 0.67387 0.46428 0.63966 0.0
C503 C 0.67205 0.45937 0.66374 0.0
C504 C 0.65085 0.46587 0.6768 0.0
C505 C 0.5208 0.43181 0.70266 0.0
C506 C 0.52928 0.41815 0.72063 0.0
C507 C 0.5334 0.45114 0.69838 0.0
C508 C 0.55511 0.45664 0.71148 0.0
C509 C 0.56288 0.44341 0.73012 0.0
C510 C 0.54969 0.4245 0.735 0.0
C511 C 0.57173 0.47426 0.70331 0.0
C512 C 0.59411 0.46883 0.69118 0.0
C513 C 0.56459 0.4959 0.70497 0.0
C514 C 0.54218 0.50295 0.7186 0.0
C515 C 0.53804 0.49201 0.74712 0.0
C516 C 0.51323 0.50026 0.7662 0.0
C517 C 0.48512 0.53023 0.74637 0.0
C518 C 0.49682 0.53594 0.71773 0.0
C519 C 0.52327 0.523 0.70532 0.0
H520 H 0.48931 0.52321 0.75462 0.0
H521 H 0.6903 0.45924 0.62958 0.0
H522 H 0.91891 0.93822 0.16158 0.0
H523 H 0.93943 0.96708 0.18341 0.0
H524 H 0.90662 0.94398 0.24853 0.0
H525 H 0.88688 0.9143 0.22704 0.0
H526 H 0.89848 0.98806 0.23964 0.0
H527 H 0.9665 0.93897 0.24303 0.0
H528 H 0.9968 0.91251 0.22754 0.0
H529 H 0.03009 0.9601 0.18239 0.0
H530 H 0.99958 0.98675 0.19714 0.0
H531 H 0.95679 0.08503 0.27853 0.0
H532 H 0.94813 0.04637 0.28093 0.0
H533 H 0.97948 0.03818 0.21077 0.0
H534 H 0.98872 0.07616 0.20879 0.0
H535 H 0.99065 0.00469 0.2363 0.0
H536 H 0.91486 0.04864 0.22289 0.0
H537 H 0.88263 0.07513 0.23464 0.0
H538 H 0.86303 0.03718 0.2953 0.0
H539 H 0.8956 0.01075 0.2842 0.0
C540 C 0.91649 0.93884 0.18062 0.0
C541 C 0.90113 0.9238 0.19245 0.0
C542 C 0.92818 0.95547 0.19307 0.0
C543 C 0.92466 0.95758 0.2176 0.0
C544 C 0.90957 0.9426 0.22959 0.0
C545 C 0.89813 0.92575 0.21719 0.0
C546 C 0.93551 0.97633 0.23016 0.0
C547 C 0.91871 0.9915 0.23949 0.0
C548 C 0.96188 0.98078 0.22985 0.0
C549 C 0.98056 0.96486 0.2211 0.0
C550 C 0.98009 0.94377 0.22962 0.0
C551 C 0.99731 0.92872 0.22095 0.0
C552 C 0.01529 0.93459 0.20392 0.0
C553 C 0.01612 0.95556 0.19556 0.0
C554 C 0.99887 0.97065 0.20408 0.0
C555 C 0.96256 0.07474 0.26407 0.0
C556 C 0.97344 0.08343 0.24349 0.0
C557 C 0.95744 0.05273 0.26533 0.0
C558 C 0.96287 0.03935 0.24589 0.0
C559 C 0.97516 0.04804 0.22604 0.0
C560 C 0.98028 0.0698 0.22483 0.0
C561 C 0.95344 0.01697 0.24434 0.0
C562 C 0.97051 0.001 0.23717 0.0
C563 C 0.92725 0.01189 0.2462 0.0
C564 C 0.90793 0.02793 0.25296 0.0
C565 C 0.90387 0.04608 0.23888 0.0
C566 C 0.88554 0.06109 0.24542 0.0
C567 C 0.8709 0.05792 0.26579 0.0
C568 C 0.87451 0.03971 0.27962 0.0
C569 C 0.89294 0.02475 0.27326 0.0
H570 H 0.85669 0.06952 0.27081 0.0
H571 H 0.02865 0.92293 0.19727 0.0
H572 H 0.86174 0.06008 0.69191 0.0
H573 H 0.88247 0.02859 0.70802 0.0
H574 H 0.95586 0.05778 0.69624 0.0
H575 H 0.93503 0.08917 0.67936 0.0
H576 H 0.95619 0.01998 0.67898 0.0
H577 H 0.93162 0.0476 0.75376 0.0
H578 H 0.90328 0.06339 0.78381 0.0
H579 H 0.85479 0.00818 0.78045 0.0
H580 H 0.88262 0.99217 0.75014 0.0
H581 H 0.00855 0.92254 0.72465 0.0
H582 H 0.9984 0.96063 0.72069 0.0
H583 H 0.91842 0.94546 0.72206 0.0
H584 H 0.92847 0.90757 0.72621 0.0
H585 H 0.92899 0.97943 0.75002 0.0
H586 H 0.9514 0.95506 0.67074 0.0
H587 H 0.97996 0.94011 0.64033 0.0
H588 H 0.03357 0.99074 0.65285 0.0
H589 H 0.00561 0.00568 0.68377 0.0
C590 C 0.88226 0.06 0.69332 0.0
C591 C 0.89679 0.07704 0.68441 0.0
C592 C 0.89414 0.042 0.70261 0.0
C593 C 0.92078 0.04085 0.70364 0.0
C594 C 0.9353 0.05828 0.69565 0.0
C595 C 0.92341 0.07619 0.68604 0.0
C596 C 0.93326 0.0206 0.71066 0.0
C597 C 0.95071 0.01138 0.69486 0.0
C598 C 0.92596 0.00921 0.73122 0.0
C599 C 0.90918 0.01872 0.74957 0.0
C600 C 0.91483 0.03887 0.75931 0.0
C601 C 0.89887 0.04786 0.77641 0.0
C602 C 0.87724 0.03681 0.78401 0.0
C603 C 0.87155 0.01672 0.77456 0.0
C604 C 0.88745 0.00767 0.75745 0.0
C605 C 0.98885 0.92749 0.72442 0.0
C606 C 0.96924 0.91234 0.72609 0.0
C607 C 0.9831 0.94916 0.72207 0.0
C608 C 0.9577 0.95589 0.72123 0.0
C609 C 0.93816 0.94066 0.7229 0.0
C610 C 0.94389 0.91905 0.72511 0.0
C611 C 0.9511 0.97866 0.71792 0.0
C612 C 0.93484 0.98833 0.73446 0.0
C613 C 0.95963 0.99054 0.69814 0.0
C614 C 0.97657 0.98132 0.67979 0.0
C615 C 0.96942 0.96286 0.66721 0.0
C616 C 0.98548 0.9544 0.64986 0.0
C617 C 0.0086 0.96443 0.64471 0.0
C618 C 0.01567 0.98297 0.65686 0.0
C619 C 0.99976 0.9914 0.67436 0.0
H620 H 0.021 0.95787 0.63125 0.0
H621 H 0.86489 0.0438 0.79724 0.0
H622 H 0.56003 0.40668 0.183 0.0
H623 H 0.5384 0.43739 0.2011 0.0
H624 H 0.60194 0.47778 0.18209 0.0
H625 H 0.62389 0.44704 0.16534 0.0
H626 H 0.58741 0.48898 0.22279 0.0
H627 H 0.54343 0.47274 0.14949 0.0
H628 H 0.51841 0.45024 0.12214 0.0
H629 H 0.45847 0.44575 0.17362 0.0
H630 H 0.48325 0.46811 0.20131 0.0
H631 H 0.50589 0.58332 0.18452 0.0
H632 H 0.51676 0.54569 0.18097 0.0
H633 H 0.52997 0.54271 0.25637 0.0
H634 H 0.52109 0.58097 0.25958 0.0
H635 H 0.5014 0.50921 0.19529 0.0
H636 H 0.57769 0.50848 0.26755 0.0
H637 H 0.6056 0.53344 0.28938 0.0
H638 H 0.60574 0.57621 0.23003 0.0
H639 H 0.57806 0.55139 0.2078 0.0
C640 C 0.56928 0.42216 0.18289 0.0
C641 C 0.59355 0.42461 0.17283 0.0
C642 C 0.55694 0.43968 0.19315 0.0
C643 C 0.56838 0.46003 0.19278 0.0
C644 C 0.59273 0.46229 0.18282 0.0
C645 C 0.60524 0.44476 0.17313 0.0
C646 C 0.55506 0.47931 0.20191 0.0
C647 C 0.56849 0.49326 0.21691 0.0
C648 C 0.53033 0.48503 0.19437 0.0
C649 C 0.5154 0.47172 0.17765 0.0
C650 C 0.52501 0.46679 0.15504 0.0
C651 C 0.51085 0.45411 0.13946 0.0
C652 C 0.48693 0.44647 0.14619 0.0
C653 C 0.47706 0.45159 0.16847 0.0
C654 C 0.49115 0.46426 0.18412 0.0
C655 C 0.51094 0.5746 0.20037 0.0
C656 C 0.5124 0.58502 0.22237 0.0
C657 C 0.51692 0.55301 0.19838 0.0
C658 C 0.52444 0.54131 0.21835 0.0
C659 C 0.52461 0.55143 0.24061 0.0
C660 C 0.51919 0.57322 0.24251 0.0
C661 C 0.53431 0.51927 0.2151 0.0
C662 C 0.52011 0.50469 0.20152 0.0
C663 C 0.55876 0.51331 0.2231 0.0
C664 C 0.57558 0.52823 0.23619 0.0
C665 C 0.58373 0.5232 0.25918 0.0
C666 C 0.5995 0.53731 0.27161 0.0
C667 C 0.60735 0.55643 0.26114 0.0
C668 C 0.59956 0.56143 0.23816 0.0
C669 C 0.58384 0.54736 0.22564 0.0
H670 H 0.61953 0.56735 0.2708 0.0
H671 H 0.47599 0.43665 0.1341 0.0
H672 H 0.40292 0.40955 0.29447 0.0
H673 H 0.4194 0.44335 0.2786 0.0
H674 H 0.42364 0.46896 0.34948 0.0
H675 H 0.40653 0.43579 0.36528 0.0
H676 H 0.40008 0.49572 0.32074 0.0
H677 H 0.47598 0.45295 0.31826 0.0
H678 H 0.50345 0.42307 0.30618 0.0
H679 H 0.49644 0.4416 0.23333 0.0
H680 H 0.46843 0.47138 0.24492 0.0
H681 H 0.48139 0.58336 0.32085 0.0
H682 H 0.46854 0.54594 0.32415 0.0
H683 H 0.45007 0.5446 0.24979 0.0
H684 H 0.46211 0.58248 0.24653 0.0
H685 H 0.47844 0.50539 0.27286 0.0
H686 H 0.40322 0.549 0.27628 0.0
H687 H 0.37848 0.58012 0.28965 0.0
H688 H 0.38653 0.56012 0.36195 0.0
H689 H 0.41171 0.52906 0.34902 0.0
C690 C 0.40737 0.42241 0.30664 0.0
C691 C 0.40344 0.41992 0.33117 0.0
C692 C 0.417 0.44163 0.29756 0.0
C693 C 0.42286 0.45866 0.31287 0.0
C694 C 0.41928 0.45605 0.33733 0.0
C695 C 0.4097 0.43695 0.34637 0.0
C696 C 0.43139 0.47972 0.30372 0.0
C697 C 0.41725 0.49774 0.3103 0.0
C698 C 0.45339 0.48239 0.28945 0.0
C699 C 0.4697 0.46417 0.28243 0.0
C700 C 0.47994 0.45047 0.29963 0.0
C701 C 0.49569 0.4336 0.29287 0.0
C702 C 0.50157 0.43038 0.26899 0.0
C703 C 0.49175 0.44407 0.2518 0.0
C704 C 0.47592 0.46092 0.25846 0.0
C705 C 0.47491 0.57503 0.30513 0.0
C706 C 0.47299 0.58572 0.28338 0.0
C707 C 0.46771 0.55367 0.30701 0.0
C708 C 0.45845 0.54259 0.28721 0.0
C709 C 0.45741 0.5529 0.2652 0.0
C710 C 0.46432 0.57446 0.26336 0.0
C711 C 0.44744 0.52106 0.2905 0.0
C712 C 0.46102 0.50312 0.28286 0.0
C713 C 0.42496 0.51832 0.30385 0.0
C714 C 0.40952 0.53681 0.31169 0.0
C715 C 0.39989 0.55134 0.29504 0.0
C716 C 0.38576 0.56895 0.30254 0.0
C717 C 0.38098 0.57213 0.32664 0.0
C718 C 0.39027 0.55765 0.34329 0.0
C719 C 0.40445 0.54003 0.33588 0.0
H720 H 0.37003 0.58577 0.33241 0.0
H721 H 0.51382 0.41735 0.2638 0.0
H722 H 0.06726 0.09034 0.83089 0.0
H723 H 0.04603 0.05902 0.81379 0.0
H724 H 0.11903 0.03189 0.79661 0.0
H725 H 0.1402 0.0633 0.81313 0.0
H726 H 0.08683 0.02352 0.76233 0.0
H727 H 0.0854 0.01845 0.84784 0.0
H728 H 0.07523 0.03062 0.88833 0.0
H729 H 0.99576 0.0311 0.8712 0.0
H730 H 0.00551 0.0192 0.83048 0.0
H731 H 0.07255 0.9122 0.77036 0.0
H732 H 0.0822 0.95023 0.77403 0.0
H733 H 0.00222 0.9639 0.78083 0.0
H734 H 0.99253 0.92556 0.77748 0.0
H735 H 0.03059 0.98208 0.81601 0.0
H736 H 0.03361 0.98005 0.73199 0.0
H737 H 0.0456 0.96444 0.69342 0.0
H738 H 0.12433 0.97625 0.70857 0.0
H739 H 0.11281 0.99088 0.74773 0.0
C740 C 0.0787 0.07774 0.82326 0.0
C741 C 0.10536 0.07917 0.82344 0.0
C742 C 0.06658 0.05987 0.81352 0.0
C743 C 0.08094 0.04294 0.80424 0.0
C744 C 0.10754 0.04475 0.8036 0.0
C745 C 0.11963 0.06271 0.81306 0.0
C746 C 0.06861 0.02273 0.79652 0.0
C747 C 0.07457 0.01443 0.77408 0.0
C748 C 0.05208 0.0111 0.8116 0.0
C749 C 0.0462 0.01821 0.83606 0.0
C750 C 0.06577 0.02131 0.85267 0.0
C751 C 0.06009 0.02814 0.87566 0.0
C752 C 0.03487 0.0317 0.88231 0.0
C753 C 0.01529 0.02838 0.866 0.0
C754 C 0.02088 0.0216 0.84297 0.0
C755 C 0.05702 0.92338 0.77223 0.0
C756 C 0.0318 0.91609 0.77332 0.0
C757 C 0.06252 0.9451 0.77419 0.0
C758 C 0.04291 0.95994 0.7774 0.0
C759 C 0.01761 0.95272 0.77818 0.0
C760 C 0.01209 0.93091 0.77612 0.0
C761 C 0.04934 0.98263 0.78209 0.0
C762 C 0.04232 0.99139 0.804 0.0
C763 C 0.06518 0.99451 0.76666 0.0
C764 C 0.07229 0.98634 0.74286 0.0
C765 C 0.05346 0.97906 0.72715 0.0
C766 C 0.06017 0.97044 0.70519 0.0
C767 C 0.0857 0.96946 0.69848 0.0
C768 C 0.10455 0.97703 0.71378 0.0
C769 C 0.09793 0.98543 0.73591 0.0
H770 H 0.09086 0.96281 0.68143 0.0
H771 H 0.0305 0.03697 0.90012 0.0
H772 H 0.10732 0.16572 1.00223 0.0
H773 H 0.09276 0.16993 0.04287 0.0
H774 H 0.16988 0.18072 0.06589 0.0
H775 H 0.18481 0.17601 0.02486 0.0
H776 H 0.14345 0.15228 0.09502 0.0
H777 H 0.13096 0.22227 0.06543 0.0
H778 H 0.11774 0.24963 0.03669 0.0
H779 H 0.04023 0.22867 0.04279 0.0
H780 H 0.053 0.20098 0.07129 0.0
H781 H 0.07093 0.16479 0.20468 0.0
H782 H 0.10242 0.17273 0.17358 0.0
H783 H 0.04396 0.16625 0.12051 0.0
H784 H 0.01282 0.1588 0.15096 0.0
H785 H 0.07204 0.20121 0.11278 0.0
H786 H 0.08728 0.12591 0.13314 0.0
H787 H 0.09989 0.09753 0.16094 0.0
H788 H 0.17178 0.12866 0.17199 0.0
H789 H 0.15944 0.15735 0.14443 0.0
C790 C 0.12127 0.16889 0.0159 0.0
C791 C 0.14725 0.1704 0.01033 0.0
C792 C 0.11288 0.17151 0.03912 0.0
C793 C 0.1302 0.17591 0.05739 0.0
C794 C 0.1562 0.17746 0.05202 0.0
C795 C 0.16466 0.1749 0.0286 0.0
C796 C 0.1206 0.17819 0.082 0.0
C797 C 0.1283 0.16337 0.09917 0.0
C798 C 0.10087 0.19267 0.08744 0.0
C799 C 0.09298 0.20951 0.07051 0.0
C800 C 0.11111 0.22343 0.06057 0.0
C801 C 0.10369 0.23901 0.04432 0.0
C802 C 0.07816 0.24089 0.03792 0.0
C803 C 0.05999 0.22722 0.04779 0.0
C804 C 0.06731 0.21161 0.06404 0.0
C805 C 0.06487 0.16513 0.18638 0.0
C806 C 0.03931 0.16123 0.18037 0.0
C807 C 0.08287 0.16964 0.16864 0.0
C808 C 0.07551 0.17016 0.14469 0.0
C809 C 0.05007 0.16618 0.13884 0.0
C810 C 0.03225 0.16179 0.15637 0.0
C811 C 0.09376 0.17442 0.12515 0.0
C812 C 0.08777 0.1906 0.10895 0.0
C813 C 0.11493 0.16117 0.12062 0.0
C814 C 0.12234 0.14386 0.13699 0.0
C815 C 0.1057 0.12676 0.14163 0.0
C816 C 0.11281 0.11061 0.15731 0.0
C817 C 0.13659 0.11133 0.16828 0.0
C818 C 0.15334 0.12815 0.16352 0.0
C819 C 0.14631 0.14435 0.14787 0.0
H820 H 0.14205 0.09882 0.18042 0.0
H821 H 0.07246 0.25295 0.02532 0.0
H822 H 0.36024 0.28591 0.51304 0.0
H823 H 0.37341 0.28388 0.55467 0.0
H824 H 0.37667 0.35261 0.55816 0.0
H825 H 0.36332 0.35476 0.51687 0.0
H826 H 0.42069 0.33489 0.57142 0.0
H827 H 0.33244 0.32584 0.58895 0.0
H828 H 0.28988 0.30948 0.58604 0.0
H829 H 0.31966 0.24983 0.61068 0.0
H830 H 0.36252 0.26575 0.6134 0.0
H831 H 0.43197 0.34 0.70231 0.0
H832 H 0.4018 0.33306 0.67005 0.0
H833 H 0.45747 0.29379 0.63496 0.0
H834 H 0.48764 0.30086 0.66684 0.0
H835 H 0.38093 0.29752 0.63961 0.0
H836 H 0.46766 0.31779 0.58273 0.0
H837 H 0.50961 0.33515 0.58704 0.0
H838 H 0.47996 0.3757 0.64182 0.0
H839 H 0.43777 0.35885 0.63752 0.0
C840 C 0.36319 0.30058 0.52286 0.0
C841 C 0.36113 0.32049 0.51154 0.0
C842 C 0.37071 0.2994 0.54665 0.0
C843 C 0.37613 0.3181 0.5595 0.0
C844 C 0.37276 0.33797 0.54856 0.0
C845 C 0.36527 0.33916 0.5249 0.0
C846 C 0.38794 0.31713 0.58338 0.0
C847 C 0.41185 0.32675 0.58627 0.0
C848 C 0.37647 0.30659 0.60287 0.0
C849 C 0.35076 0.29693 0.60114 0.0
C850 C 0.32998 0.30917 0.59352 0.0
C851 C 0.30578 0.29999 0.59195 0.0
C852 C 0.30208 0.27861 0.5981 0.0
C853 C 0.32256 0.26638 0.60588 0.0
C854 C 0.34681 0.27548 0.60746 0.0
C855 C 0.43729 0.32906 0.68829 0.0
C856 C 0.4622 0.32116 0.68686 0.0
C857 C 0.42004 0.32512 0.66986 0.0
C858 C 0.42759 0.3132 0.64996 0.0
C859 C 0.45135 0.30315 0.65008 0.0
C860 C 0.46859 0.30724 0.66828 0.0
C861 C 0.41359 0.31505 0.62728 0.0
C862 C 0.38952 0.30563 0.62464 0.0
C863 C 0.42466 0.32603 0.60794 0.0
C864 C 0.44966 0.33692 0.60994 0.0
C865 C 0.47008 0.33052 0.59556 0.0
C866 C 0.49389 0.34025 0.59802 0.0
C867 C 0.49747 0.35647 0.61474 0.0
C868 C 0.47719 0.3631 0.62892 0.0
C869 C 0.45332 0.35347 0.62648 0.0
H870 H 0.51594 0.36393 0.61667 0.0
H871 H 0.28332 0.27153 0.5969 0.0
H872 H 0.59825 0.31127 0.99752 0.0
H873 H 0.58732 0.30562 0.95594 0.0
H874 H 0.66281 0.32513 0.93518 0.0
H875 H 0.6738 0.33113 0.9769 0.0
H876 H 0.62603 0.34543 0.90977 0.0
H877 H 0.64583 0.2735 0.92919 0.0
H878 H 0.64463 0.24055 0.95297 0.0
H879 H 0.56411 0.2354 0.94206 0.0
H880 H 0.56474 0.26849 0.91849 0.0
H881 H 0.57488 0.33455 0.79518 0.0
H882 H 0.60551 0.32579 0.82636 0.0
H883 H 0.5446 0.30021 0.86917 0.0
H884 H 0.51447 0.30787 0.83782 0.0
H885 H 0.58554 0.27937 0.87889 0.0
H886 H 0.5641 0.35501 0.87058 0.0
H887 H 0.56271 0.38905 0.8487 0.0
H888 H 0.64384 0.38786 0.84059 0.0
H889 H 0.64564 0.35368 0.86223 0.0
C890 C 0.61256 0.31431 0.98412 0.0
C891 C 0.63686 0.32173 0.9905 0.0
C892 C 0.60638 0.31085 0.96036 0.0
C893 C 0.62434 0.3147 0.94243 0.0
C894 C 0.64872 0.32191 0.94873 0.0
C895 C 0.65499 0.32524 0.97256 0.0
C896 C 0.61684 0.31258 0.91716 0.0
C897 C 0.61779 0.33081 0.90279 0.0
C898 C 0.60579 0.2936 0.90814 0.0
C899 C 0.60534 0.27355 0.92213 0.0
C900 C 0.62784 0.26542 0.93197 0.0
C901 C 0.62726 0.2467 0.9454 0.0
C902 C 0.6043 0.2359 0.94904 0.0
C903 C 0.58188 0.24377 0.93921 0.0
C904 C 0.58235 0.26249 0.92577 0.0
C905 C 0.56827 0.32619 0.81078 0.0
C906 C 0.54225 0.32206 0.81414 0.0
C907 C 0.58573 0.32146 0.82877 0.0
C908 C 0.57729 0.31287 0.85045 0.0
C909 C 0.55167 0.30694 0.85276 0.0
C910 C 0.53438 0.31145 0.83481 0.0
C911 C 0.59376 0.31247 0.87189 0.0
C912 C 0.5945 0.29378 0.88559 0.0
C913 C 0.60603 0.33112 0.8805 0.0
C914 C 0.60497 0.35172 0.86773 0.0
C915 C 0.58161 0.36198 0.86402 0.0
C916 C 0.58075 0.38128 0.85168 0.0
C917 C 0.60316 0.39058 0.84319 0.0
C918 C 0.62649 0.38062 0.84712 0.0
C919 C 0.62745 0.36129 0.85941 0.0
H920 H 0.60246 0.40552 0.83363 0.0
H921 H 0.60389 0.22142 0.95946 0.0
H922 H 0.88947 0.1219 0.50005 0.0
H923 H 0.90572 0.11856 0.45988 0.0
H924 H 0.84065 0.15252 0.43327 0.0
H925 H 0.82357 0.15519 0.47367 0.0
H926 H 0.85272 0.11902 0.40448 0.0
H927 H 0.89679 0.17784 0.43938 0.0
H928 H 0.92186 0.19711 0.46953 0.0
H929 H 0.98327 0.15295 0.46031 0.0
H930 H 0.9584 0.13322 0.43034 0.0
H931 H 0.91739 0.1613 0.30061 0.0
H932 H 0.8928 0.15414 0.33666 0.0
H933 H 0.94764 0.10685 0.35748 0.0
H934 H 0.97183 0.1135 0.32095 0.0
H935 H 0.94003 0.14553 0.38845 0.0
H936 H 0.89539 0.08793 0.35139 0.0
H937 H 0.87024 0.0707 0.31997 0.0
H938 H 0.80961 0.11515 0.33167 0.0
H939 H 0.83463 0.13291 0.36302 0.0
C940 C 0.87832 0.12839 0.48569 0.0
C941 C 0.8551 0.13874 0.49015 0.0
C942 C 0.8878 0.12664 0.4627 0.0
C943 C 0.87456 0.13547 0.44356 0.0
C944 C 0.85121 0.1456 0.44778 0.0
C945 C 0.8416 0.1473 0.4709 0.0
C946 C 0.88567 0.13457 0.41934 0.0
C947 C 0.87169 0.12504 0.40091 0.0
C948 C 0.9106 0.14212 0.41472 0.0
C949 C 0.92562 0.15391 0.43279 0.0
C950 C 0.91555 0.17212 0.44394 0.0
C951 C 0.92974 0.18315 0.46096 0.0
C952 C 0.95411 0.17623 0.46688 0.0
C953 C 0.96437 0.15828 0.45574 0.0
C954 C 0.95024 0.14717 0.43872 0.0
C955 C 0.92348 0.14868 0.31237 0.0
C956 C 0.94624 0.13774 0.30799 0.0
C957 C 0.90953 0.14467 0.33296 0.0
C958 C 0.91848 0.13003 0.34971 0.0
C959 C 0.94038 0.11811 0.34465 0.0
C960 C 0.95403 0.12175 0.32372 0.0
C961 C 0.90723 0.12978 0.37376 0.0
C962 C 0.92115 0.13933 0.39212 0.0
C963 C 0.8822 0.12254 0.37814 0.0
C964 C 0.86701 0.1119 0.35939 0.0
C965 C 0.8768 0.09419 0.34711 0.0
C966 C 0.86254 0.08428 0.32933 0.0
C967 C 0.83836 0.09185 0.32374 0.0
C968 C 0.82836 0.10932 0.33599 0.0
C969 C 0.84257 0.1193 0.35379 0.0
H970 H 0.82734 0.08414 0.30996 0.0
H971 H 0.96508 0.1848 0.48006 0.0
H972 H 0.85376 0.79534 1.00008 0.0
H973 H 0.86428 0.79256 0.95787 0.0
H974 H 0.88334 0.85958 0.95664 0.0
H975 H 0.87198 0.86265 0.99835 0.0
H976 H 0.85822 0.84902 0.91754 0.0
H977 H 0.92896 0.81946 0.96231 0.0
H978 H 0.94867 0.79413 0.9901 0.0
H979 H 0.92463 0.74157 0.94648 0.0
H980 H 0.90451 0.76662 0.91857 0.0
H981 H 0.95906 0.87063 0.84225 0.0
H982 H 0.92896 0.86299 0.87389 0.0
H983 H 0.91497 0.8005 0.84428 0.0
H984 H 0.94526 0.80833 0.81195 0.0
H985 H 0.92841 0.80093 0.89362 0.0
H986 H 0.86746 0.83273 0.84373 0.0
H987 H 0.85052 0.85918 0.8157 0.0
H988 H 0.8575 0.90829 0.86848 0.0
H989 H 0.87491 0.88224 0.89673 0.0
C990 C 0.85984 0.80955 0.99073 0.0
C991 C 0.86229 0.82918 1.00274 0.0
C992 C 0.86603 0.80789 0.96662 0.0
C993 C 0.8749 0.82581 0.95407 0.0
C994 C 0.87659 0.84551 0.96588 0.0
C995 C 0.87037 0.84718 0.98986 0.0
C996 C 0.88356 0.8242 0.92898 0.0
C997 C 0.87352 0.83846 0.9123 0.0
C998 C 0.90288 0.80988 0.92179 0.0
C999 C 0.91495 0.79487 0.93856 0.0
C1000 C 0.92771 0.80249 0.95876 0.0
C1001 C 0.93898 0.78819 0.97451 0.0
C1002 C 0.93782 0.76625 0.97011 0.0
C1003 C 0.92545 0.75857 0.9499 0.0
C1004 C 0.91412 0.7728 0.93412 0.0
C1005 C 0.94925 0.85538 0.84219 0.0
C1006 C 0.9545 0.84005 0.8247 0.0
C1007 C 0.93196 0.85106 0.86025 0.0
C1008 C 0.91963 0.83122 0.86143 0.0
C1009 C 0.92422 0.81596 0.84361 0.0
C1010 C 0.94135 0.82047 0.82513 0.0
C1011 C 0.9038 0.82637 0.88256 0.0
C1012 C 0.91251 0.81096 0.89858 0.0
C1013 C 0.88335 0.83972 0.88917 0.0
C1014 C 0.87256 0.85549 0.87237 0.0
C1015 C 0.86553 0.84919 0.84934 0.0
C1016 C 0.85582 0.86412 0.8334 0.0
C1017 C 0.85293 0.8854 0.8403 0.0
C1018 C 0.85972 0.89179 0.86317 0.0
C1019 C 0.86946 0.87693 0.87917 0.0
H1020 H 0.84543 0.89694 0.82793 0.0
H1021 H 0.94657 0.7552 0.98231 0.0
H1022 H 0.69368 0.67568 0.46163 0.0
H1023 H 0.67612 0.68006 0.42158 0.0
H1024 H 0.60227 0.69249 0.45176 0.0
H1025 H 0.61958 0.68788 0.49148 0.0
H1026 H 0.59998 0.66116 0.42015 0.0
H1027 H 0.63859 0.73135 0.42446 0.0
H1028 H 0.67403 0.75693 0.42874 0.0
H1029 H 0.71081 0.72975 0.36787 0.0
H1030 H 0.67576 0.70378 0.36343 0.0
H1031 H 0.52021 0.69973 0.33694 0.0
H1032 H 0.55435 0.70592 0.36532 0.0
H1033 H 0.60567 0.66958 0.32163 0.0
H1034 H 0.57131 0.66311 0.29307 0.0
H1035 H 0.6251 0.71059 0.35553 0.0
H1036 H 0.58722 0.63885 0.35295 0.0
H1037 H 0.55011 0.61511 0.3477 0.0
H1038 H 0.51205 0.64633 0.40543 0.0
H1039 H 0.54881 0.6705 0.4107 0.0
C1040 C 0.67383 0.6798 0.45964 0.0
C1041 C 0.65789 0.68121 0.4796 0.0
C1042 C 0.66383 0.6823 0.43678 0.0
C1043 C 0.63783 0.68648 0.43365 0.0
C1044 C 0.62232 0.68907 0.4537 0.0
C1045 C 0.63221 0.68643 0.47639 0.0
C1046 C 0.6259 0.68624 0.40979 0.0
C1047 C 0.60565 0.67198 0.4061 0.0
C1048 C 0.63363 0.69988 0.39107 0.0
C1049 C 0.65472 0.71542 0.39383 0.0
C1050 C 0.65437 0.73066 0.41215 0.0
C1051 C 0.67436 0.74528 0.41456 0.0
C1052 C 0.69471 0.74491 0.39864 0.0
C1053 C 0.69507 0.72998 0.38023 0.0
C1054 C 0.67515 0.71531 0.37775 0.0
C1055 C 0.53902 0.69375 0.33289 0.0
C1056 C 0.54308 0.6808 0.31293 0.0
C1057 C 0.55855 0.69742 0.34905 0.0
C1058 C 0.58243 0.6881 0.3456 0.0
C1059 C 0.5874 0.67707 0.32444 0.0
C1060 C 0.56775 0.67339 0.30815 0.0
C1061 C 0.59927 0.68576 0.36638 0.0
C1062 C 0.62014 0.69946 0.3695 0.0
C1063 C 0.59238 0.67151 0.38468 0.0
C1064 C 0.57064 0.65655 0.38208 0.0
C1065 C 0.57087 0.64071 0.36442 0.0
C1066 C 0.54991 0.62719 0.36144 0.0
C1067 C 0.52871 0.62924 0.37619 0.0
C1068 C 0.52848 0.64477 0.39401 0.0
C1069 C 0.54937 0.65837 0.397 0.0
H1070 H 0.51249 0.61877 0.37385 0.0
H1071 H 0.71015 0.75625 0.40053 0.0
H1072 H 0.30621 0.67169 0.03924 0.0
H1073 H 0.32186 0.67711 0.07987 0.0
H1074 H 0.39615 0.69269 0.05223 0.0
H1075 H 0.38076 0.68691 0.01198 0.0
H1076 H 0.39925 0.66226 0.08403 0.0
H1077 H 0.35576 0.72993 0.07815 0.0
H1078 H 0.3188 0.75343 0.07262 0.0
H1079 H 0.28173 0.72457 0.1324 0.0
H1080 H 0.31833 0.70066 0.13807 0.0
H1081 H 0.47312 0.70165 0.17069 0.0
H1082 H 0.44042 0.70786 0.141 0.0
H1083 H 0.38669 0.6716 0.18245 0.0
H1084 H 0.41957 0.66529 0.21244 0.0
H1085 H 0.36777 0.71012 0.14772 0.0
H1086 H 0.41082 0.64114 0.15203 0.0
H1087 H 0.44929 0.61961 0.1587 0.0
H1088 H 0.4871 0.65207 0.10166 0.0
H1089 H 0.44899 0.67409 0.09499 0.0
C1090 C 0.32573 0.67667 0.04193 0.0
C1091 C 0.34239 0.67865 0.02255 0.0
C1092 C 0.33464 0.67979 0.06511 0.0
C1093 C 0.36023 0.68523 0.06913 0.0
C1094 C 0.3764 0.68832 0.04962 0.0
C1095 C 0.36762 0.68501 0.02662 0.0
C1096 C 0.37116 0.6858 0.09341 0.0
C1097 C 0.39224 0.67277 0.09785 0.0
C1098 C 0.36166 0.69899 0.11184 0.0
C1099 C 0.33963 0.71328 0.10831 0.0
C1100 C 0.33961 0.72842 0.08995 0.0
C1101 C 0.31875 0.74186 0.08683 0.0
C1102 C 0.29788 0.74044 0.10209 0.0
C1103 C 0.29787 0.72561 0.12055 0.0
C1104 C 0.31867 0.71212 0.12372 0.0
C1105 C 0.45405 0.69579 0.17401 0.0
C1106 C 0.44893 0.68275 0.19366 0.0
C1107 C 0.43534 0.69945 0.15709 0.0
C1108 C 0.4113 0.68995 0.15942 0.0
C1109 C 0.40513 0.67913 0.18043 0.0
C1110 C 0.42393 0.67553 0.19754 0.0
C1111 C 0.39586 0.68693 0.13779 0.0
C1112 C 0.37418 0.69935 0.13391 0.0
C1113 C 0.40457 0.6731 0.11975 0.0
C1114 C 0.42716 0.65936 0.12315 0.0
C1115 C 0.4274 0.64376 0.14101 0.0
C1116 C 0.44913 0.63148 0.14479 0.0
C1117 C 0.47064 0.6345 0.13064 0.0
C1118 C 0.47043 0.64976 0.11262 0.0
C1119 C 0.44877 0.66214 0.10882 0.0
H1120 H 0.48746 0.62499 0.13361 0.0
H1121 H 0.28176 0.75087 0.09965 0.0
H1122 H 0.0976 0.83078 0.50913 0.0
H1123 H 0.08584 0.82767 0.55078 0.0
H1124 H 0.16387 0.81519 0.56901 0.0
H1125 H 0.17601 0.81871 0.52715 0.0
H1126 H 0.1269 0.78945 0.59469 0.0
H1127 H 0.14594 0.86258 0.57809 0.0
H1128 H 0.14394 0.896 0.55518 0.0
H1129 H 0.06332 0.89891 0.56637 0.0
H1130 H 0.06476 0.86531 0.58901 0.0
H1131 H 0.06887 0.84969 0.70634 0.0
H1132 H 0.10058 0.84577 0.67467 0.0
H1133 H 0.05498 0.79612 0.64275 0.0
H1134 H 0.02324 0.80024 0.67414 0.0
H1135 H 0.08704 0.85438 0.62861 0.0
H1136 H 0.09517 0.76249 0.61164 0.0
H1137 H 0.09796 0.72957 0.63534 0.0
H1138 H 0.12759 0.76541 0.69412 0.0
H1139 H 0.1255 0.79846 0.67065 0.0
C1140 C 0.11232 0.82735 0.52193 0.0
C1141 C 0.13784 0.82537 0.51481 0.0
C1142 C 0.10553 0.82545 0.54573 0.0
C1143 C 0.12403 0.82148 0.56302 0.0
C1144 C 0.14931 0.81828 0.55593 0.0
C1145 C 0.15619 0.82027 0.53201 0.0
C1146 C 0.11685 0.82224 0.58846 0.0
C1147 C 0.11835 0.80365 0.60224 0.0
C1148 C 0.10638 0.84097 0.59849 0.0
C1149 C 0.10545 0.86135 0.58514 0.0
C1150 C 0.12776 0.87027 0.57554 0.0
C1151 C 0.12673 0.88926 0.56261 0.0
C1152 C 0.10351 0.89956 0.55929 0.0
C1153 C 0.08129 0.89091 0.56895 0.0
C1154 C 0.08221 0.87191 0.58186 0.0
C1155 C 0.06622 0.83736 0.69308 0.0
C1156 C 0.04386 0.82507 0.69276 0.0
C1157 C 0.0842 0.83525 0.67492 0.0
C1158 C 0.08018 0.82062 0.65638 0.0
C1159 C 0.05866 0.80731 0.65701 0.0
C1160 C 0.04054 0.80965 0.67494 0.0
C1161 C 0.09605 0.82134 0.63462 0.0
C1162 C 0.09606 0.84025 0.62138 0.0
C1163 C 0.10812 0.80298 0.62532 0.0
C1164 C 0.11 0.78302 0.63937 0.0
C1165 C 0.10247 0.76334 0.62955 0.0
C1166 C 0.10391 0.74465 0.64296 0.0
C1167 C 0.11291 0.7454 0.66623 0.0
C1168 C 0.12058 0.76485 0.67611 0.0
C1169 C 0.11924 0.78357 0.66276 0.0
H1170 H 0.11395 0.73092 0.67659 0.0
H1171 H 0.10275 0.91425 0.54927 0.0
H1172 H 0.25413 0.24439 0.33131 0.0
H1173 H 0.2186 0.22664 0.311 0.0
H1174 H 0.18468 0.28789 0.29715 0.0
H1175 H 0.21999 0.30567 0.31741 0.0
H1176 H 0.15114 0.25819 0.31678 0.0
H1177 H 0.21255 0.26204 0.25327 0.0
H1178 H 0.25425 0.25571 0.23465 0.0
H1179 H 0.24415 0.18808 0.24292 0.0
H1180 H 0.20252 0.19403 0.26192 0.0
H1181 H 0.04958 0.22857 0.24761 0.0
H1182 H 0.09058 0.24548 0.25579 0.0
H1183 H 0.12549 0.18347 0.2607 0.0
H1184 H 0.0846 0.16652 0.25152 0.0
H1185 H 0.15963 0.21248 0.24529 0.0
H1186 H 0.10096 0.20697 0.30966 0.0
H1187 H 0.05982 0.21128 0.33003 0.0
H1188 H 0.06581 0.27937 0.32316 0.0
H1189 H 0.10682 0.27544 0.30238 0.0
C1190 C 0.23907 0.25404 0.32393 0.0
C1191 C 0.23985 0.27642 0.32591 0.0
C1192 C 0.21892 0.2439 0.31218 0.0
C1193 C 0.19912 0.25598 0.3024 0.0
C1194 C 0.19983 0.27829 0.30446 0.0
C1195 C 0.22006 0.28842 0.31595 0.0
C1196 C 0.17704 0.24542 0.29091 0.0
C1197 C 0.15296 0.24846 0.30094 0.0
C1198 C 0.17957 0.23209 0.27076 0.0
C1199 C 0.20453 0.22849 0.25924 0.0
C1200 C 0.21931 0.24583 0.25131 0.0
C1201 C 0.24292 0.2423 0.24065 0.0
C1202 C 0.25187 0.22151 0.23766 0.0
C1203 C 0.2372 0.20418 0.24528 0.0
C1204 C 0.21359 0.20762 0.25598 0.0
C1205 C 0.06622 0.2186 0.24953 0.0
C1206 C 0.06393 0.19627 0.24913 0.0
C1207 C 0.0896 0.22824 0.25438 0.0
C1208 C 0.11092 0.21572 0.25966 0.0
C1209 C 0.10926 0.19346 0.25691 0.0
C1210 C 0.0859 0.18378 0.25157 0.0
C1211 C 0.13365 0.22564 0.2709 0.0
C1212 C 0.15782 0.22233 0.26102 0.0
C1213 C 0.13135 0.23845 0.29152 0.0
C1214 C 0.10684 0.2409 0.30427 0.0
C1215 C 0.09342 0.22286 0.31236 0.0
C1216 C 0.07013 0.22523 0.32399 0.0
C1217 C 0.06018 0.24558 0.32784 0.0
C1218 C 0.07353 0.26361 0.32013 0.0
C1219 C 0.0968 0.26132 0.30844 0.0
H1220 H 0.04214 0.24739 0.33684 0.0
H1221 H 0.27015 0.21881 0.2294 0.0
H1222 H 0.24662 0.24127 0.8117 0.0
H1223 H 0.27983 0.25997 0.78952 0.0
H1224 H 0.33466 0.21325 0.81236 0.0
H1225 H 0.30159 0.19519 0.83552 0.0
H1226 H 0.35528 0.24919 0.81587 0.0
H1227 H 0.31002 0.21611 0.75321 0.0
H1228 H 0.27308 0.20532 0.72912 0.0
H1229 H 0.25772 0.271 0.71325 0.0
H1230 H 0.29435 0.28222 0.73753 0.0
H1231 H 0.44898 0.29352 0.74215 0.0
H1232 H 0.41414 0.26752 0.74556 0.0
H1233 H 0.36218 0.3184 0.76223 0.0
H1234 H 0.3971 0.34423 0.75985 0.0
H1235 H 0.34296 0.27601 0.73398 0.0
H1236 H 0.38339 0.30596 0.8074 0.0
H1237 H 0.42279 0.3153 0.8288 0.0
H1238 H 0.44955 0.25105 0.82049 0.0
H1239 H 0.41043 0.24148 0.79868 0.0
C1240 C 0.26578 0.23502 0.81189 0.0
C1241 C 0.27163 0.21685 0.8253 0.0
C1242 C 0.28472 0.24557 0.79903 0.0
C1243 C 0.30975 0.23781 0.79877 0.0
C1244 C 0.31554 0.21957 0.81218 0.0
C1245 C 0.29669 0.20928 0.82544 0.0
C1246 C 0.33012 0.24942 0.78566 0.0
C1247 C 0.35262 0.25457 0.79779 0.0
C1248 C 0.32692 0.25665 0.76202 0.0
C1249 C 0.30485 0.25001 0.74736 0.0
C1250 C 0.29866 0.22827 0.74473 0.0
C1251 C 0.27779 0.22207 0.73102 0.0
C1252 C 0.26303 0.23747 0.7197 0.0
C1253 C 0.26915 0.25909 0.72204 0.0
C1254 C 0.28999 0.26538 0.73575 0.0
C1255 C 0.42987 0.29921 0.7454 0.0
C1256 C 0.42559 0.32074 0.75091 0.0
C1257 C 0.41003 0.28437 0.74735 0.0
C1258 C 0.3857 0.29111 0.75424 0.0
C1259 C 0.3808 0.31297 0.75672 0.0
C1260 C 0.40073 0.32769 0.75542 0.0
C1261 C 0.36742 0.27568 0.7644 0.0
C1262 C 0.34547 0.27005 0.75184 0.0
C1263 C 0.37122 0.26757 0.78744 0.0
C1264 C 0.39418 0.27307 0.80131 0.0
C1265 C 0.39775 0.29387 0.81008 0.0
C1266 C 0.42001 0.29921 0.82226 0.0
C1267 C 0.43869 0.28379 0.82596 0.0
C1268 C 0.43508 0.26298 0.81758 0.0
C1269 C 0.41288 0.25759 0.80532 0.0
H1270 H 0.45594 0.28795 0.83535 0.0
H1271 H 0.24688 0.23264 0.70909 0.0
H1272 H 0.75797 0.23842 0.68301 0.0
H1273 H 0.72504 0.25775 0.70467 0.0
H1274 H 0.66844 0.21361 0.67845 0.0
H1275 H 0.70133 0.19462 0.65617 0.0
H1276 H 0.6501 0.25117 0.67636 0.0
H1277 H 0.69129 0.21251 0.73726 0.0
H1278 H 0.72688 0.19899 0.76119 0.0
H1279 H 0.74561 0.26293 0.78267 0.0
H1280 H 0.71034 0.27688 0.75858 0.0
H1281 H 0.55567 0.2906 0.75225 0.0
H1282 H 0.59009 0.26482 0.74636 0.0
H1283 H 0.64341 0.31659 0.73731 0.0
H1284 H 0.60888 0.34231 0.74218 0.0
H1285 H 0.66099 0.27167 0.76079 0.0
H1286 H 0.62369 0.30832 0.69064 0.0
H1287 H 0.58544 0.32024 0.66928 0.0
H1288 H 0.55688 0.25593 0.66831 0.0
H1289 H 0.59483 0.24373 0.69006 0.0
C1290 C 0.73849 0.23285 0.6819 0.0
C1291 C 0.73221 0.21499 0.66794 0.0
C1292 C 0.71968 0.24381 0.69443 0.0
C1293 C 0.69425 0.2369 0.69368 0.0
C1294 C 0.6879 0.21924 0.67943 0.0
C1295 C 0.70668 0.20843 0.66663 0.0
C1296 C 0.67422 0.24854 0.70711 0.0
C1297 C 0.65244 0.25525 0.69492 0.0
C1298 C 0.67704 0.25405 0.7314 0.0
C1299 C 0.69829 0.24576 0.74594 0.0
C1300 C 0.70312 0.22371 0.74694 0.0
C1301 C 0.72322 0.21596 0.76055 0.0
C1302 C 0.73853 0.23009 0.7734 0.0
C1303 C 0.73374 0.252 0.77269 0.0
C1304 C 0.71368 0.25984 0.75907 0.0
C1305 C 0.57497 0.29642 0.75025 0.0
C1306 C 0.57978 0.31834 0.74766 0.0
C1307 C 0.59457 0.28171 0.74681 0.0
C1308 C 0.6192 0.28887 0.74129 0.0
C1309 C 0.62456 0.3108 0.74172 0.0
C1310 C 0.60487 0.32547 0.74453 0.0
C1311 C 0.63751 0.27426 0.72985 0.0
C1312 C 0.65881 0.26717 0.74234 0.0
C1313 C 0.63415 0.26803 0.70599 0.0
C1314 C 0.61191 0.27517 0.69211 0.0
C1315 C 0.60918 0.29676 0.68595 0.0
C1316 C 0.58757 0.30356 0.67379 0.0
C1317 C 0.5687 0.28886 0.66748 0.0
C1318 C 0.57149 0.2673 0.67323 0.0
C1319 C 0.59304 0.26043 0.68547 0.0
H1320 H 0.55196 0.29416 0.65811 0.0
H1321 H 0.75408 0.22406 0.78394 0.0
H1322 H 0.80085 0.31963 0.15286 0.0
H1323 H 0.8372 0.30353 0.17305 0.0
H1324 H 0.78642 0.26044 0.20968 0.0
H1325 H 0.75008 0.27719 0.19032 0.0
H1326 H 0.82133 0.27191 0.23879 0.0
H1327 H 0.8217 0.24612 0.15844 0.0
H1328 H 0.82239 0.24895 0.11488 0.0
H1329 H 0.8938 0.28225 0.11809 0.0
H1330 H 0.89337 0.27985 0.16173 0.0
H1331 H 0.89606 0.1769 0.24486 0.0
H1332 H 0.8657 0.20589 0.23894 0.0
H1333 H 0.92772 0.25039 0.23008 0.0
H1334 H 0.95825 0.22143 0.23688 0.0
H1335 H 0.89198 0.24376 0.18977 0.0
H1336 H 0.89307 0.26186 0.27192 0.0
H1337 H 0.89102 0.25476 0.31481 0.0
H1338 H 0.81487 0.23084 0.30729 0.0
H1339 H 0.81659 0.23748 0.26428 0.0
C1340 C 0.79755 0.30674 0.16527 0.0
C1341 C 0.77276 0.29952 0.16995 0.0
C1342 C 0.81829 0.29753 0.17678 0.0
C1343 C 0.81465 0.2805 0.19265 0.0
C1344 C 0.78978 0.27357 0.1976 0.0
C1345 C 0.76903 0.28306 0.18646 0.0
C1346 C 0.83665 0.26931 0.20344 0.0
C1347 C 0.83672 0.2657 0.22803 0.0
C1348 C 0.85708 0.26153 0.18955 0.0
C1349 C 0.85733 0.26306 0.16334 0.0
C1350 C 0.83744 0.25421 0.14986 0.0
C1351 C 0.8378 0.2557 0.12516 0.0
C1352 C 0.85808 0.26584 0.11373 0.0
C1353 C 0.87807 0.27445 0.12697 0.0
C1354 C 0.87779 0.27303 0.15169 0.0
C1355 C 0.90315 0.19303 0.24256 0.0
C1356 C 0.92938 0.19704 0.24134 0.0
C1357 C 0.88585 0.20955 0.2392 0.0
C1358 C 0.89453 0.23022 0.23405 0.0
C1359 C 0.92073 0.23453 0.2342 0.0
C1360 C 0.93809 0.21806 0.23819 0.0
C1361 C 0.87632 0.2461 0.2249 0.0
C1362 C 0.87688 0.25044 0.20057 0.0
C1363 C 0.85621 0.25402 0.23892 0.0
C1364 C 0.85504 0.25005 0.26481 0.0
C1365 C 0.87596 0.25491 0.27936 0.0
C1366 C 0.87484 0.25101 0.30372 0.0
C1367 C 0.85285 0.24232 0.31376 0.0
C1368 C 0.8319 0.23756 0.29948 0.0
C1369 C 0.83293 0.24143 0.27511 0.0
H1370 H 0.85201 0.23931 0.33262 0.0
H1371 H 0.85833 0.26698 0.0946 0.0
H1372 H 0.80779 0.69018 0.67451 0.0
H1373 H 0.8331 0.71133 0.70219 0.0
H1374 H 0.77766 0.7618 0.69923 0.0
H1375 H 0.75237 0.74073 0.67115 0.0
H1376 H 0.82311 0.77779 0.69532 0.0
H1377 H 0.78451 0.72971 0.74947 0.0
H1378 H 0.77055 0.69492 0.76525 0.0
H1379 H 0.84819 0.67473 0.77043 0.0
H1380 H 0.86263 0.70929 0.75436 0.0
H1381 H 0.90199 0.83565 0.76841 0.0
H1382 H 0.86293 0.81442 0.76493 0.0
H1383 H 0.90753 0.75862 0.74887 0.0
H1384 H 0.9464 0.7798 0.75247 0.0
H1385 H 0.86006 0.74823 0.7691 0.0
H1386 H 0.89583 0.79218 0.70526 0.0
H1387 H 0.91059 0.82656 0.68887 0.0
H1388 H 0.83733 0.85403 0.70226 0.0
H1389 H 0.82225 0.81983 0.71898 0.0
C1390 C 0.80087 0.70571 0.67993 0.0
C1391 C 0.77806 0.71378 0.6707 0.0
C1392 C 0.81528 0.71774 0.69588 0.0
C1393 C 0.80704 0.73799 0.70325 0.0
C1394 C 0.78433 0.74616 0.69394 0.0
C1395 C 0.76998 0.73418 0.6778 0.0
C1396 C 0.82311 0.75111 0.71937 0.0
C1397 C 0.83057 0.7715 0.71179 0.0
C1398 C 0.8332 0.74288 0.74075 0.0
C1399 C 0.82465 0.72209 0.75059 0.0
C1400 C 0.79861 0.71781 0.75383 0.0
C1401 C 0.79061 0.69813 0.76285 0.0
C1402 C 0.80847 0.68261 0.76881 0.0
C1403 C 0.83438 0.68677 0.76581 0.0
C1404 C 0.84249 0.70642 0.75679 0.0
C1405 C 0.90341 0.81858 0.76563 0.0
C1406 C 0.92701 0.80924 0.76073 0.0
C1407 C 0.88111 0.80649 0.76345 0.0
C1408 C 0.88235 0.78507 0.75608 0.0
C1409 C 0.90613 0.77512 0.75452 0.0
C1410 C 0.92836 0.7872 0.75668 0.0
C1411 C 0.86016 0.77458 0.74476 0.0
C1412 C 0.85179 0.75467 0.75306 0.0
C1413 C 0.84914 0.78319 0.72401 0.0
C1414 C 0.85802 0.80358 0.71358 0.0
C1415 C 0.88293 0.8056 0.70479 0.0
C1416 C 0.89135 0.82503 0.69545 0.0
C1417 C 0.87494 0.84249 0.6946 0.0
C1418 C 0.85004 0.84051 0.70299 0.0
C1419 C 0.84154 0.82111 0.71239 0.0
H1420 H 0.8815 0.85753 0.68739 0.0
H1421 H 0.80223 0.66738 0.77578 0.0
H1422 H 0.71286 0.77759 0.15399 0.0
H1423 H 0.67936 0.75862 0.17523 0.0
H1424 H 0.71426 0.77535 0.24186 0.0
H1425 H 0.7487 0.79336 0.22069 0.0
H1426 H 0.69835 0.7361 0.24411 0.0
H1427 H 0.66034 0.80147 0.22197 0.0
H1428 H 0.64828 0.83097 0.19548 0.0
H1429 H 0.60461 0.78756 0.15274 0.0
H1430 H 0.61669 0.75772 0.17877 0.0
H1431 H 0.55184 0.70948 0.26413 0.0
H1432 H 0.58778 0.73474 0.26467 0.0
H1433 H 0.63485 0.68782 0.2301 0.0
H1434 H 0.59907 0.66293 0.22912 0.0
H1435 H 0.60832 0.74902 0.22274 0.0
H1436 H 0.6964 0.69579 0.24598 0.0
H1437 H 0.70765 0.66847 0.27548 0.0
H1438 H 0.64959 0.69172 0.32223 0.0
H1439 H 0.63821 0.71941 0.29324 0.0
C1440 C 0.71367 0.77703 0.17314 0.0
C1441 C 0.7335 0.78716 0.18557 0.0
C1442 C 0.69425 0.76641 0.18531 0.0
C1443 C 0.69394 0.76592 0.21021 0.0
C1444 C 0.71393 0.77565 0.22268 0.0
C1445 C 0.7335 0.78614 0.21051 0.0
C1446 C 0.67285 0.75503 0.22304 0.0
C1447 C 0.67866 0.73902 0.23957 0.0
C1448 C 0.64705 0.75941 0.21792 0.0
C1449 C 0.63953 0.77733 0.20228 0.0
C1450 C 0.64827 0.79819 0.20685 0.0
C1451 C 0.64142 0.81498 0.19192 0.0
C1452 C 0.62571 0.81114 0.17243 0.0
C1453 C 0.61677 0.79051 0.16785 0.0
C1454 C 0.62358 0.77366 0.18271 0.0
C1455 C 0.57013 0.7044 0.2574 0.0
C1456 C 0.57279 0.68437 0.24649 0.0
C1457 C 0.59057 0.71883 0.25761 0.0
C1458 C 0.61397 0.71315 0.2474 0.0
C1459 C 0.61708 0.69248 0.23829 0.0
C1460 C 0.59663 0.67829 0.23767 0.0
C1461 C 0.63396 0.72938 0.24275 0.0
C1462 C 0.62798 0.7464 0.22768 0.0
C1463 C 0.65947 0.72624 0.24968 0.0
C1464 C 0.66637 0.70966 0.2673 0.0
C1465 C 0.68612 0.69519 0.2626 0.0
C1466 C 0.69249 0.67961 0.27925 0.0
C1467 C 0.67931 0.67835 0.3007 0.0
C1468 C 0.65973 0.69269 0.30558 0.0
C1469 C 0.65328 0.7083 0.28902 0.0
H1470 H 0.68428 0.66628 0.31356 0.0
H1471 H 0.62044 0.82415 0.16088 0.0
H1472 H 0.28301 0.77827 0.35865 0.0
H1473 H 0.31506 0.75909 0.33596 0.0
H1474 H 0.28207 0.78171 0.27084 0.0
H1475 H 0.249 0.80007 0.29341 0.0
H1476 H 0.29561 0.74163 0.2655 0.0
H1477 H 0.33703 0.80439 0.2929 0.0
H1478 H 0.35037 0.83176 0.32184 0.0
H1479 H 0.39099 0.78441 0.36132 0.0
H1480 H 0.3776 0.75669 0.33282 0.0
H1481 H 0.44083 0.71195 0.24421 0.0
H1482 H 0.40598 0.73803 0.24497 0.0
H1483 H 0.35675 0.69085 0.27675 0.0
H1484 H 0.3915 0.66517 0.27656 0.0
H1485 H 0.38607 0.75054 0.28825 0.0
H1486 H 0.29536 0.70152 0.26065 0.0
H1487 H 0.28314 0.67605 0.22928 0.0
H1488 H 0.34314 0.69973 0.18481 0.0
H1489 H 0.35545 0.72562 0.21567 0.0
C1490 C 0.28225 0.77895 0.33951 0.0
C1491 C 0.26339 0.79087 0.32794 0.0
C1492 C 0.30085 0.76818 0.32652 0.0
C1493 C 0.30135 0.7693 0.30166 0.0
C1494 C 0.28224 0.78074 0.28999 0.0
C1495 C 0.26347 0.79141 0.30298 0.0
C1496 C 0.32191 0.75851 0.28807 0.0
C1497 C 0.3154 0.74367 0.27035 0.0
C1498 C 0.34788 0.76179 0.29366 0.0
C1499 C 0.35621 0.77844 0.31075 0.0
C1500 C 0.3487 0.79979 0.30782 0.0
C1501 C 0.35628 0.81537 0.32414 0.0
C1502 C 0.37149 0.80982 0.34342 0.0
C1503 C 0.37921 0.78869 0.34638 0.0
C1504 C 0.37167 0.77304 0.33012 0.0
C1505 C 0.42228 0.70702 0.25055 0.0
C1506 C 0.41874 0.68668 0.26042 0.0
C1507 C 0.40247 0.72191 0.25109 0.0
C1508 C 0.3788 0.71638 0.26095 0.0
C1509 C 0.37475 0.69543 0.26886 0.0
C1510 C 0.3946 0.68077 0.26879 0.0
C1511 C 0.35961 0.73288 0.26668 0.0
C1512 C 0.36634 0.74881 0.28301 0.0
C1513 C 0.334 0.73089 0.25941 0.0
C1514 C 0.32641 0.71548 0.24062 0.0
C1515 C 0.30585 0.70143 0.24413 0.0
C1516 C 0.29892 0.68688 0.22643 0.0
C1517 C 0.31238 0.68626 0.20508 0.0
C1518 C 0.33277 0.7002 0.20137 0.0
C1519 C 0.33975 0.71479 0.21899 0.0
H1520 H 0.307 0.67498 0.19141 0.0
H1521 H 0.37732 0.82191 0.35604 0.0
H1522 H 0.19316 0.70211 0.85181 0.0
H1523 H 0.16268 0.71999 0.82602 0.0
H1524 H 0.22378 0.74046 0.78029 0.0
H1525 H 0.2545 0.72255 0.80616 0.0
H1526 H 0.18969 0.77305 0.79186 0.0
H1527 H 0.18665 0.7034 0.75957 0.0
H1528 H 0.18442 0.6641 0.75985 0.0
H1529 H 0.11047 0.66667 0.79193 0.0
H1530 H 0.11241 0.706 0.7922 0.0
H1531 H 0.08477 0.82184 0.73599 0.0
H1532 H 0.12123 0.79743 0.73482 0.0
H1533 H 0.08712 0.76005 0.79069 0.0
H1534 H 0.05086 0.78406 0.79151 0.0
H1535 H 0.11413 0.73485 0.7603 0.0
H1536 H 0.12504 0.80264 0.80376 0.0
H1537 H 0.12688 0.84198 0.80552 0.0
H1538 H 0.18602 0.84236 0.75301 0.0
H1539 H 0.18427 0.80299 0.75078 0.0
C1540 C 0.20012 0.71052 0.83634 0.0
C1541 C 0.22618 0.71099 0.83101 0.0
C1542 C 0.18269 0.72052 0.82149 0.0
C1543 C 0.19097 0.73127 0.80106 0.0
C1544 C 0.21702 0.73208 0.79585 0.0
C1545 C 0.23449 0.72184 0.81059 0.0
C1546 C 0.17221 0.74235 0.78596 0.0
C1547 C 0.17354 0.76465 0.78431 0.0
C1548 C 0.15113 0.73138 0.77617 0.0
C1549 C 0.14974 0.70769 0.77598 0.0
C1550 C 0.16998 0.6956 0.76683 0.0
C1551 C 0.16875 0.67331 0.76687 0.0
C1552 C 0.14732 0.66289 0.77592 0.0
C1553 C 0.12705 0.67476 0.78491 0.0
C1554 C 0.12819 0.69706 0.78493 0.0
C1555 C 0.08464 0.80786 0.74717 0.0
C1556 C 0.06513 0.80473 0.7638 0.0
C1557 C 0.10554 0.79405 0.74669 0.0
C1558 C 0.10702 0.77708 0.7629 0.0
C1559 C 0.0864 0.77298 0.778 0.0
C1560 C 0.06574 0.78677 0.77856 0.0
C1561 C 0.1311 0.76555 0.76724 0.0
C1562 C 0.13079 0.74315 0.76696 0.0
C1563 C 0.15309 0.7764 0.77536 0.0
C1564 C 0.15433 0.79997 0.7769 0.0
C1565 C 0.13834 0.81115 0.79252 0.0
C1566 C 0.13936 0.83343 0.7936 0.0
C1567 C 0.15651 0.84467 0.77933 0.0
C1568 C 0.17271 0.83364 0.76401 0.0
C1569 C 0.17171 0.81135 0.76282 0.0
H1570 H 0.15728 0.86192 0.78019 0.0
H1571 H 0.14641 0.64563 0.77594 0.0
loop_
_geom_bond_atom_site_label_1
_geom_bond_atom_site_label_2
_geom_bond_distance
_geom_bond_site_symmetry_2
_ccdc_geom_bond_type
C0 C1 1.384 . S
C0 H13 0.947 . S
C0 C35 1.382 . S
C1 C0 1.384 . S
C1 C2 1.378 . S
C2 C1 1.378 . S
C2 C3 1.378 . S
C2 H14 0.952 . S
C3 C2 1.378 . S
C3 H15 0.950 . S
C3 C34 1.383 . S
H4 C23 0.947 . S
H5 C24 0.946 . S
H6 C26 0.953 . S
H7 C27 0.945 . S
H8 C29 0.952 . S
H9 C30 0.949 . S
H10 C32 0.950 . S
H11 C33 0.948 . S
H12 C35 0.951 . S
H13 C0 0.947 . S
H14 C2 0.952 . S
H15 C3 0.950 . S
N16 C19 1.382 . S
N16 C21 1.363 . S
N17 C19 1.371 . S
N17 C20 1.372 . S
N18 C20 1.361 . S
N18 C21 1.377 . S
C19 N16 1.382 . S
C19 N17 1.371 . S
C19 C22 1.480 . S
C20 N17 1.372 . S
C20 N18 1.361 . S
C20 C28 1.457 . S
C21 N16 1.363 . S
C21 N18 1.377 . S
C21 C34 1.479 . S
C22 C19 1.480 . S
C22 C23 1.383 . S
C22 C27 1.385 . S
C23 H4 0.947 . S
C23 C22 1.383 . S
C23 C24 1.388 . S
C24 H5 0.946 . S
C24 C23 1.388 . S
C24 C25 1.384 . S
C25 C24 1.384 . S
C25 C26 1.377 . S
C26 H6 0.953 . S
C26 C25 1.377 . S
C26 C27 1.369 . S
C27 H7 0.945 . S
C27 C22 1.385 . S
C27 C26 1.369 . S
C28 C20 1.457 . S
C28 C29 1.372 . S
C28 C33 1.364 . S
C29 H8 0.952 . S
C29 C28 1.372 . S
C29 C30 1.389 . S
C30 H9 0.949 . S
C30 C29 1.389 . S
C30 C31 1.387 . S
C31 C30 1.387 . S
C31 C32 1.372 . S
C32 H10 0.950 . S
C32 C31 1.372 . S
C32 C33 1.379 . S
C33 H11 0.948 . S
C33 C28 1.364 . S
C33 C32 1.379 . S
C34 C3 1.383 . S
C34 C21 1.479 . S
C34 C35 1.398 . S
C35 C0 1.382 . S
C35 H12 0.951 . S
C35 C34 1.398 . S
C36 C37 1.384 . S
C36 H49 0.947 . S
C36 C71 1.382 . S
C37 C36 1.384 . S
C37 C38 1.378 . S
C38 C37 1.378 . S
C38 C39 1.378 . S
C38 H50 0.952 . S
C39 C38 1.378 . S
C39 H51 0.950 . S
C39 C70 1.383 . S
H40 C59 0.947 . S
H41 C60 0.946 . S
H42 C62 0.953 . S
H43 C63 0.945 . S
H44 C65 0.952 . S
H45 C66 0.949 . S
H46 C68 0.950 . S
H47 C69 0.948 . S
H48 C71 0.951 . S
H49 C36 0.947 . S
H50 C38 0.952 . S
H51 C39 0.950 . S
N52 C55 1.382 . S
N52 C57 1.363 . S
N53 C55 1.371 . S
N53 C56 1.372 . S
N54 C56 1.361 . S
N54 C57 1.377 . S
C55 N52 1.382 . S
C55 N53 1.371 . S
C55 C58 1.480 . S
C56 N53 1.372 . S
C56 N54 1.361 . S
C56 C64 1.457 . S
C57 N52 1.363 . S
C57 N54 1.377 . S
C57 C70 1.479 . S
C58 C55 1.480 . S
C58 C59 1.383 . S
C58 C63 1.385 . S
C59 H40 0.947 . S
C59 C58 1.383 . S
C59 C60 1.388 . S
C60 H41 0.946 . S
C60 C59 1.388 . S
C60 C61 1.384 . S
C61 C60 1.384 . S
C61 C62 1.377 . S
C62 H42 0.953 . S
C62 C61 1.377 . S
C62 C63 1.369 . S
C63 H43 0.945 . S
C63 C58 1.385 . S
C63 C62 1.369 . S
C64 C56 1.457 . S
C64 C65 1.372 . S
C64 C69 1.364 . S
C65 H44 0.952 . S
C65 C64 1.372 . S
C65 C66 1.389 . S
C66 H45 0.949 . S
C66 C65 1.389 . S
C66 C67 1.387 . S
C67 C66 1.387 . S
C67 C68 1.372 . S
C68 H46 0.950 . S
C68 C67 1.372 . S
C68 C69 1.379 . S
C69 H47 0.948 . S
C69 C64 1.364 . S
C69 C68 1.379 . S
C70 C39 1.383 . S
C70 C57 1.479 . S
C70 C71 1.398 . S
C71 C36 1.382 . S
C71 H48 0.951 . S
C71 C70 1.398 . S
C72 C73 1.384 . S
C72 H85 0.947 . S
C72 C107 1.382 . S
C73 C72 1.384 . S
C73 C74 1.378 . S
C74 C73 1.378 . S
C74 C75 1.378 . S
C74 H86 0.952 . S
C75 C74 1.378 . S
C75 H87 0.950 . S
C75 C106 1.383 . S
H76 C95 0.947 . S
H77 C96 0.946 . S
H78 C98 0.953 . S
H79 C99 0.945 . S
H80 C101 0.952 . S
H81 C102 0.949 . S
H82 C104 0.950 . S
H83 C105 0.948 . S
H84 C107 0.951 . S
H85 C72 0.947 . S
H86 C74 0.952 . S
H87 C75 0.950 . S
N88 C91 1.382 . S
N88 C93 1.363 . S
N89 C91 1.371 . S
N89 C92 1.372 . S
N90 C92 1.361 . S
N90 C93 1.377 . S
C91 N88 1.382 . S
C91 N89 1.371 . S
C91 C94 1.480 . S
C92 N89 1.372 . S
C92 N90 1.361 . S
C92 C100 1.457 . S
C93 N88 1.363 . S
C93 N90 1.377 . S
C93 C106 1.479 . S
C94 C91 1.480 . S
C94 C95 1.383 . S
C94 C99 1.385 . S
C95 H76 0.947 . S
C95 C94 1.383 . S
C95 C96 1.388 . S
C96 H77 0.946 . S
C96 C95 1.388 . S
C96 C97 1.384 . S
C97 C96 1.384 . S
C97 C98 1.377 . S
C98 H78 0.953 . S
C98 C97 1.377 . S
C98 C99 1.369 . S
C99 H79 0.945 . S
C99 C94 1.385 . S
C99 C98 1.369 . S
C100 C92 1.457 . S
C100 C101 1.372 . S
C100 C105 1.364 . S
C101 H80 0.952 . S
C101 C100 1.372 . S
C101 C102 1.389 . S
C102 H81 0.949 . S
C102 C101 1.389 . S
C102 C103 1.387 . S
C103 C102 1.387 . S
C103 C104 1.372 . S
C104 H82 0.950 . S
C104 C103 1.372 . S
C104 C105 1.379 . S
C105 H83 0.948 . S
C105 C100 1.364 . S
C105 C104 1.379 . S
C106 C75 1.383 . S
C106 C93 1.479 . S
C106 C107 1.398 . S
C107 C72 1.382 . S
C107 H84 0.951 . S
C107 C106 1.398 . S
C108 C109 1.384 . S
C108 H121 0.947 . S
C108 C143 1.382 . S
C109 C108 1.384 . S
C109 C110 1.378 . S
C110 C109 1.378 . S
C110 C111 1.378 . S
C110 H122 0.952 . S
C111 C110 1.378 . S
C111 H123 0.950 . S
C111 C142 1.383 . S
H112 C131 0.947 . S
H113 C132 0.946 . S
H114 C134 0.953 . S
H115 C135 0.945 . S
H116 C137 0.952 . S
H117 C138 0.949 . S
H118 C140 0.950 . S
H119 C141 0.948 . S
H120 C143 0.951 . S
H121 C108 0.947 . S
H122 C110 0.952 . S
H123 C111 0.950 . S
N124 C127 1.382 . S
N124 C129 1.363 . S
N125 C127 1.371 . S
N125 C128 1.372 . S
N126 C128 1.361 . S
N126 C129 1.377 . S
C127 N124 1.382 . S
C127 N125 1.371 . S
C127 C130 1.480 . S
C128 N125 1.372 . S
C128 N126 1.361 . S
C128 C136 1.457 . S
C129 N124 1.363 . S
C129 N126 1.377 . S
C129 C142 1.479 . S
C130 C127 1.480 . S
C130 C131 1.383 . S
C130 C135 1.385 . S
C131 H112 0.947 . S
C131 C130 1.383 . S
C131 C132 1.388 . S
C132 H113 0.946 . S
C132 C131 1.388 . S
C132 C133 1.384 . S
C133 C132 1.384 . S
C133 C134 1.377 . S
C134 H114 0.953 . S
C134 C133 1.377 . S
C134 C135 1.369 . S
C135 H115 0.945 . S
C135 C130 1.385 . S
C135 C134 1.369 . S
C136 C128 1.457 . S
C136 C137 1.372 . S
C136 C141 1.364 . S
C137 H116 0.952 . S
C137 C136 1.372 . S
C137 C138 1.389 . S
C138 H117 0.949 . S
C138 C137 1.389 . S
C138 C139 1.387 . S
C139 C138 1.387 . S
C139 C140 1.372 . S
C140 H118 0.950 . S
C140 C139 1.372 . S
C140 C141 1.379 . S
C141 H119 0.948 . S
C141 C136 1.364 . S
C141 C140 1.379 . S
C142 C111 1.383 . S
C142 C129 1.479 . S
C142 C143 1.398 . S
C143 C108 1.382 . S
C143 H120 0.951 . S
C143 C142 1.398 . S
C144 C145 1.384 . S
C144 H157 0.947 . S
C144 C179 1.382 . S
C145 C144 1.384 . S
C145 C146 1.378 . S
C146 C145 1.378 . S
C146 C147 1.378 . S
C146 H158 0.952 . S
C147 C146 1.378 . S
C147 H159 0.950 . S
C147 C178 1.383 . S
H148 C167 0.947 . S
H149 C168 0.946 . S
H150 C170 0.953 . S
H151 C171 0.945 . S
H152 C173 0.952 . S
H153 C174 0.949 . S
H154 C176 0.950 . S
H155 C177 0.948 . S
H156 C179 0.951 . S
H157 C144 0.947 . S
H158 C146 0.952 . S
H159 C147 0.950 . S
N160 C163 1.382 . S
N160 C165 1.363 . S
N161 C163 1.371 . S
N161 C164 1.372 . S
N162 C164 1.361 . S
N162 C165 1.377 . S
C163 N160 1.382 . S
C163 N161 1.371 . S
C163 C166 1.480 . S
C164 N161 1.372 . S
C164 N162 1.361 . S
C164 C172 1.457 . S
C165 N160 1.363 . S
C165 N162 1.377 . S
C165 C178 1.479 . S
C166 C163 1.480 . S
C166 C167 1.383 . S
C166 C171 1.385 . S
C167 H148 0.947 . S
C167 C166 1.383 . S
C167 C168 1.388 . S
C168 H149 0.946 . S
C168 C167 1.388 . S
C168 C169 1.384 . S
C169 C168 1.384 . S
C169 C170 1.377 . S
C170 H150 0.953 . S
C170 C169 1.377 . S
C170 C171 1.369 . S
C171 H151 0.945 . S
C171 C166 1.385 . S
C171 C170 1.369 . S
C172 C164 1.457 . S
C172 C173 1.372 . S
C172 C177 1.364 . S
C173 H152 0.952 . S
C173 C172 1.372 . S
C173 C174 1.389 . S
C174 H153 0.949 . S
C174 C173 1.389 . S
C174 C175 1.387 . S
C175 C174 1.387 . S
C175 C176 1.372 . S
C176 H154 0.950 . S
C176 C175 1.372 . S
C176 C177 1.379 . S
C177 H155 0.948 . S
C177 C172 1.364 . S
C177 C176 1.379 . S
C178 C147 1.383 . S
C178 C165 1.479 . S
C178 C179 1.398 . S
C179 C144 1.382 . S
C179 H156 0.951 . S
C179 C178 1.398 . S
C180 C181 1.384 . S
C180 H193 0.947 . S
C180 C215 1.382 . S
C181 C180 1.384 . S
C181 C182 1.378 . S
C182 C181 1.378 . S
C182 C183 1.378 . S
C182 H194 0.952 . S
C183 C182 1.378 . S
C183 H195 0.950 . S
C183 C214 1.383 . S
H184 C203 0.947 . S
H185 C204 0.946 . S
H186 C206 0.953 . S
H187 C207 0.945 . S
H188 C209 0.952 . S
H189 C210 0.949 . S
H190 C212 0.950 . S
H191 C213 0.948 . S
H192 C215 0.951 . S
H193 C180 0.947 . S
H194 C182 0.952 . S
H195 C183 0.950 . S
N196 C199 1.382 . S
N196 C201 1.363 . S
N197 C199 1.371 . S
N197 C200 1.372 . S
N198 C200 1.361 . S
N198 C201 1.377 . S
C199 N196 1.382 . S
C199 N197 1.371 . S
C199 C202 1.480 . S
C200 N197 1.372 . S
C200 N198 1.361 . S
C200 C208 1.457 . S
C201 N196 1.363 . S
C201 N198 1.377 . S
C201 C214 1.479 . S
C202 C199 1.480 . S
C202 C203 1.383 . S
C202 C207 1.385 . S
C203 H184 0.947 . S
C203 C202 1.383 . S
C203 C204 1.388 . S
C204 H185 0.946 . S
C204 C203 1.388 . S
C204 C205 1.384 . S
C205 C204 1.384 . S
C205 C206 1.377 . S
C206 H186 0.953 . S
C206 C205 1.377 . S
C206 C207 1.369 . S
C207 H187 0.945 . S
C207 C202 1.385 . S
C207 C206 1.369 . S
C208 C200 1.457 . S
C208 C209 1.372 . S
C208 C213 1.364 . S
C209 H188 0.952 . S
C209 C208 1.372 . S
C209 C210 1.389 . S
C210 H189 0.949 . S
C210 C209 1.389 . S
C210 C211 1.387 . S
C211 C210 1.387 . S
C211 C212 1.372 . S
C212 H190 0.950 . S
C212 C211 1.372 . S
C212 C213 1.379 . S
C213 H191 0.948 . S
C213 C208 1.364 . S
C213 C212 1.379 . S
C214 C183 1.383 . S
C214 C201 1.479 . S
C214 C215 1.398 . S
C215 C180 1.382 . S
C215 H192 0.951 . S
C215 C214 1.398 . S
C216 C217 1.384 . S
C216 H229 0.947 . S
C216 C251 1.382 . S
C217 C216 1.384 . S
C217 C218 1.378 . S
C218 C217 1.378 . S
C218 C219 1.378 . S
C218 H230 0.952 . S
C219 C218 1.378 . S
C219 H231 0.950 . S
C219 C250 1.383 . S
H220 C239 0.947 . S
H221 C240 0.946 . S
H222 C242 0.953 . S
H223 C243 0.945 . S
H224 C245 0.952 . S
H225 C246 0.949 . S
H226 C248 0.950 . S
H227 C249 0.948 . S
H228 C251 0.951 . S
H229 C216 0.947 . S
H230 C218 0.952 . S
H231 C219 0.950 . S
N232 C235 1.382 . S
N232 C237 1.363 . S
N233 C235 1.371 . S
N233 C236 1.372 . S
N234 C236 1.361 . S
N234 C237 1.377 . S
C235 N232 1.382 . S
C235 N233 1.371 . S
C235 C238 1.480 . S
C236 N233 1.372 . S
C236 N234 1.361 . S
C236 C244 1.457 . S
C237 N232 1.363 . S
C237 N234 1.377 . S
C237 C250 1.479 . S
C238 C235 1.480 . S
C238 C239 1.383 . S
C238 C243 1.385 . S
C239 H220 0.947 . S
C239 C238 1.383 . S
C239 C240 1.388 . S
C240 H221 0.946 . S
C240 C239 1.388 . S
C240 C241 1.384 . S
C241 C240 1.384 . S
C241 C242 1.377 . S
C242 H222 0.953 . S
C242 C241 1.377 . S
C242 C243 1.369 . S
C243 H223 0.945 . S
C243 C238 1.385 . S
C243 C242 1.369 . S
C244 C236 1.457 . S
C244 C245 1.372 . S
C244 C249 1.364 . S
C245 H224 0.952 . S
C245 C244 1.372 . S
C245 C246 1.389 . S
C246 H225 0.949 . S
C246 C245 1.389 . S
C246 C247 1.387 . S
C247 C246 1.387 . S
C247 C248 1.372 . S
C248 H226 0.950 . S
C248 C247 1.372 . S
C248 C249 1.379 . S
C249 H227 0.948 . S
C249 C244 1.364 . S
C249 C248 1.379 . S
C250 C219 1.383 . S
C250 C237 1.479 . S
C250 C251 1.398 . S
C251 C216 1.382 . S
C251 H228 0.951 . S
C251 C250 1.398 . S
C252 C253 1.384 . S
C252 H265 0.947 . S
C252 C287 1.382 . S
C253 C252 1.384 . S
C253 C254 1.378 . S
C254 C253 1.378 . S
C254 C255 1.378 . S
C254 H266 0.952 . S
C255 C254 1.378 . S
C255 H267 0.950 . S
C255 C286 1.383 . S
H256 C275 0.947 . S
H257 C276 0.946 . S
H258 C278 0.953 . S
H259 C279 0.945 . S
H260 C281 0.952 . S
H261 C282 0.949 . S
H262 C284 0.950 . S
H263 C285 0.948 . S
H264 C287 0.951 . S
H265 C252 0.947 . S
H266 C254 0.952 . S
H267 C255 0.950 . S
N268 C271 1.382 . S
N268 C273 1.363 . S
N269 C271 1.371 . S
N269 C272 1.372 . S
N270 C272 1.361 . S
N270 C273 1.377 . S
C271 N268 1.382 . S
C271 N269 1.371 . S
C271 C274 1.480 . S
C272 N269 1.372 . S
C272 N270 1.361 . S
C272 C280 1.457 . S
C273 N268 1.363 . S
C273 N270 1.377 . S
C273 C286 1.479 . S
C274 C271 1.480 . S
C274 C275 1.383 . S
C274 C279 1.385 . S
C275 H256 0.947 . S
C275 C274 1.383 . S
C275 C276 1.388 . S
C276 H257 0.946 . S
C276 C275 1.388 . S
C276 C277 1.384 . S
C277 C276 1.384 . S
C277 C278 1.377 . S
C278 H258 0.953 . S
C278 C277 1.377 . S
C278 C279 1.369 . S
C279 H259 0.945 . S
C279 C274 1.385 . S
C279 C278 1.369 . S
C280 C272 1.457 . S
C280 C281 1.372 . S
C280 C285 1.364 . S
C281 H260 0.952 . S
C281 C280 1.372 . S
C281 C282 1.389 . S
C282 H261 0.949 . S
C282 C281 1.389 . S
C282 C283 1.387 . S
C283 C282 1.387 . S
C283 C284 1.372 . S
C284 H262 0.950 . S
C284 C283 1.372 . S
C284 C285 1.379 . S
C285 H263 0.948 . S
C285 C280 1.364 . S
C285 C284 1.379 . S
C286 C255 1.383 . S
C286 C273 1.479 . S
C286 C287 1.398 . S
C287 C252 1.382 . S
C287 H264 0.951 . S
C287 C286 1.398 . S
Zn288 O294 1.920 1_455 S
Zn288 O300 1.898 . S
Zn288 O303 1.905 . S
Zn289 O297 1.905 1_655 S
Zn289 O298 1.898 . S
Zn289 O306 1.920 . S
Zn290 O293 2.061 1_455 S
Zn290 O296 2.134 . S
Zn290 O299 2.093 1_455 S
Zn290 O301 2.143 . S
Zn290 O302 2.140 . S
Zn290 O305 2.057 1_455 S
C291 O296 1.166 . S
C291 O297 1.182 . S
C292 O298 1.167 . S
C292 O299 1.299 . S
O293 Zn290 2.061 1_655 S
O293 C307 1.305 . S
O294 Zn288 1.920 1_655 S
O294 C307 1.234 . S
C295 O300 1.167 . S
C295 O301 1.299 . S
O296 Zn290 2.134 . S
O296 C291 1.166 . S
O297 Zn289 1.905 1_455 S
O297 C291 1.182 . S
O298 Zn289 1.898 . S
O298 C292 1.167 . S
O299 Zn290 2.093 1_655 S
O299 C292 1.299 . S
O300 Zn288 1.898 . S
O300 C295 1.167 . S
O301 Zn290 2.143 . S
O301 C295 1.299 . S
O302 Zn290 2.140 . S
O302 C304 1.166 . S
O303 Zn288 1.905 . S
O303 C304 1.182 . S
C304 O302 1.166 . S
C304 O303 1.182 . S
O305 Zn290 2.057 1_655 S
O305 C308 1.305 . S
O306 Zn289 1.920 . S
O306 C308 1.234 . S
C307 O293 1.305 . S
C307 O294 1.234 . S
C308 O305 1.305 . S
C308 O306 1.234 . S
Zn309 O315 1.920 . S
Zn309 O321 1.898 . S
Zn309 O324 1.905 . S
Zn310 O318 1.905 . S
Zn310 O319 1.898 . S
Zn310 O327 1.920 . S
Zn311 O314 2.080 . S
Zn311 O317 2.114 . S
Zn311 O320 2.120 . S
Zn311 O322 2.120 . S
Zn311 O323 2.114 . S
Zn311 O326 2.080 . S
C312 O317 1.166 . S
C312 O318 1.182 . S
C313 O319 1.167 . S
C313 O320 1.299 . S
O314 Zn311 2.080 . S
O314 C328 1.305 . S
O315 Zn309 1.920 . S
O315 C328 1.234 . S
C316 O321 1.167 . S
C316 O322 1.299 . S
O317 Zn311 2.114 . S
O317 C312 1.166 . S
O318 Zn310 1.905 . S
O318 C312 1.182 . S
O319 Zn310 1.898 . S
O319 C313 1.167 . S
O320 Zn311 2.120 . S
O320 C313 1.299 . S
O321 Zn309 1.898 . S
O321 C316 1.167 . S
O322 Zn311 2.120 . S
O322 C316 1.299 . S
O323 Zn311 2.114 . S
O323 C325 1.166 . S
O324 Zn309 1.905 . S
O324 C325 1.182 . S
C325 O323 1.166 . S
C325 O324 1.182 . S
O326 Zn311 2.080 . S
O326 C329 1.305 . S
O327 Zn310 1.920 . S
O327 C329 1.234 . S
C328 O314 1.305 . S
C328 O315 1.234 . S
C329 O326 1.305 . S
C329 O327 1.234 . S
Zn330 O336 1.920 . S
Zn330 O342 1.898 . S
Zn330 O345 1.905 1_455 S
Zn331 O339 1.905 . S
Zn331 O340 1.898 . S
Zn331 O348 1.920 1_655 S
Zn332 O335 2.080 . S
Zn332 O338 2.114 1_455 S
Zn332 O341 2.120 1_455 S
Zn332 O343 2.120 . S
Zn332 O344 2.114 1_455 S
Zn332 O347 2.080 . S
C333 O338 1.166 . S
C333 O339 1.182 . S
C334 O340 1.167 . S
C334 O341 1.299 . S
O335 Zn332 2.080 . S
O335 C349 1.305 . S
O336 Zn330 1.920 . S
O336 C349 1.234 . S
C337 O342 1.167 . S
C337 O343 1.299 . S
O338 Zn332 2.114 1_655 S
O338 C333 1.166 . S
O339 Zn331 1.905 . S
O339 C333 1.182 . S
O340 Zn331 1.898 . S
O340 C334 1.167 . S
O341 Zn332 2.120 1_655 S
O341 C334 1.299 . S
O342 Zn330 1.898 . S
O342 C337 1.167 . S
O343 Zn332 2.120 . S
O343 C337 1.299 . S
O344 Zn332 2.114 1_655 S
O344 C346 1.166 . S
O345 Zn330 1.905 1_655 S
O345 C346 1.182 . S
C346 O344 1.166 . S
C346 O345 1.182 . S
O347 Zn332 2.080 . S
O347 C350 1.305 . S
O348 Zn331 1.920 1_455 S
O348 C350 1.234 . S
C349 O335 1.305 . S
C349 O336 1.234 . S
C350 O347 1.305 . S
C350 O348 1.234 . S
Zn351 O357 1.920 . S
Zn351 O363 1.898 . S
Zn351 O366 1.905 . S
Zn352 O360 1.905 . S
Zn352 O361 1.898 . S
Zn352 O369 1.920 . S
Zn353 O356 2.080 . S
Zn353 O359 2.114 . S
Zn353 O362 2.120 . S
Zn353 O364 2.120 . S
Zn353 O365 2.114 . S
Zn353 O368 2.080 . S
C354 O359 1.166 . S
C354 O360 1.182 . S
C355 O361 1.167 . S
C355 O362 1.299 . S
O356 Zn353 2.080 . S
O356 C370 1.305 . S
O357 Zn351 1.920 . S
O357 C370 1.234 . S
C358 O363 1.167 . S
C358 O364 1.299 . S
O359 Zn353 2.114 . S
O359 C354 1.166 . S
O360 Zn352 1.905 . S
O360 C354 1.182 . S
O361 Zn352 1.898 . S
O361 C355 1.167 . S
O362 Zn353 2.120 . S
O362 C355 1.299 . S
O363 Zn351 1.898 . S
O363 C358 1.167 . S
O364 Zn353 2.120 . S
O364 C358 1.299 . S
O365 Zn353 2.114 . S
O365 C367 1.166 . S
O366 Zn351 1.905 . S
O366 C367 1.182 . S
C367 O365 1.166 . S
C367 O366 1.182 . S
O368 Zn353 2.080 . S
O368 C371 1.305 . S
O369 Zn352 1.920 . S
O369 C371 1.234 . S
C370 O356 1.305 . S
C370 O357 1.234 . S
C371 O368 1.305 . S
C371 O369 1.234 . S
H372 C390 0.951 . S
H373 C392 0.951 . S
H374 C394 0.950 . S
H375 C395 0.950 . S
H376 C397 0.950 . S
H377 C400 0.950 . S
H378 C401 0.950 . S
H379 C403 0.950 . S
H380 C404 0.950 . S
H381 C405 0.951 . S
H382 C407 0.951 . S
H383 C409 0.950 . S
H384 C410 0.950 . S
H385 C412 0.950 . S
H386 C415 0.950 . S
H387 C416 0.950 . S
H388 C418 0.950 . S
H389 C419 0.950 . S
C390 H372 0.951 . S
C390 C391 1.366 . S
C390 C392 1.388 . S
C391 C390 1.366 . S
C391 C395 1.385 . S
C392 H373 0.951 . S
C392 C390 1.388 . S
C392 C393 1.366 . S
C393 C392 1.366 . S
C393 C394 1.414 . S
C393 C396 1.499 . S
C394 H374 0.950 . S
C394 C393 1.414 . S
C394 C395 1.374 . S
C395 H375 0.950 . S
C395 C391 1.385 . S
C395 C394 1.374 . S
C396 C393 1.499 . S
C396 C397 1.373 1_565 S
C396 C398 1.389 . S
C397 H376 0.950 . S
C397 C396 1.373 1_545 S
C397 C413 1.377 . S
C398 C396 1.389 . S
C398 C399 1.524 . S
C398 C412 1.377 1_565 S
C399 C398 1.524 . S
C399 C400 1.397 . S
C399 C404 1.363 . S
C400 H377 0.950 . S
C400 C399 1.397 . S
C400 C401 1.334 . S
C401 H378 0.950 . S
C401 C400 1.334 . S
C401 C402 1.287 . S
C402 C401 1.287 . S
C402 C403 1.524 . S
C402 H421 0.913 . S
C403 H379 0.950 . S
C403 C402 1.524 . S
C403 C404 1.415 . S
C404 H380 0.950 . S
C404 C399 1.363 . S
C404 C403 1.415 . S
C405 H381 0.951 . S
C405 C406 1.366 . S
C405 C407 1.388 . S
C406 C405 1.366 . S
C406 C410 1.385 . S
C407 H382 0.951 . S
C407 C405 1.388 . S
C407 C408 1.366 . S
C408 C407 1.366 . S
C408 C409 1.414 . S
C408 C411 1.499 . S
C409 H383 0.950 . S
C409 C408 1.414 . S
C409 C410 1.374 . S
C410 H384 0.950 . S
C410 C406 1.385 . S
C410 C409 1.374 . S
C411 C408 1.499 . S
C411 C412 1.373 . S
C411 C413 1.389 . S
C412 H385 0.950 . S
C412 C398 1.377 1_545 S
C412 C411 1.373 . S
C413 C397 1.377 . S
C413 C411 1.389 . S
C413 C414 1.524 . S
C414 C413 1.524 . S
C414 C415 1.397 . S
C414 C419 1.363 . S
C415 H386 0.950 . S
C415 C414 1.397 . S
C415 C416 1.334 . S
C416 H387 0.950 . S
C416 C415 1.334 . S
C416 C417 1.287 . S
C417 C416 1.287 . S
C417 C418 1.524 . S
C417 H420 0.999 . S
C418 H388 0.950 . S
C418 C417 1.524 . S
C418 C419 1.415 . S
C419 H389 0.950 . S
C419 C414 1.363 . S
C419 C418 1.415 . S
H420 C417 0.999 . S
H421 C402 0.913 . S
H422 C440 0.951 . S
H423 C442 0.951 . S
H424 C444 0.950 . S
H425 C445 0.950 . S
H426 C447 0.950 . S
H427 C450 0.950 . S
H428 C451 0.950 . S
H429 C453 0.950 . S
H430 C454 0.950 . S
H431 C455 0.951 . S
H432 C457 0.951 . S
H433 C459 0.950 . S
H434 C460 0.950 . S
H435 C462 0.950 . S
H436 C465 0.950 . S
H437 C466 0.950 . S
H438 C468 0.950 . S
H439 C469 0.950 . S
C440 H422 0.951 . S
C440 C441 1.366 . S
C440 C442 1.388 . S
C441 C440 1.366 . S
C441 C445 1.385 . S
C442 H423 0.951 . S
C442 C440 1.388 . S
C442 C443 1.366 . S
C443 C442 1.366 . S
C443 C444 1.414 . S
C443 C446 1.499 . S
C444 H424 0.950 . S
C444 C443 1.414 . S
C444 C445 1.374 . S
C445 H425 0.950 . S
C445 C441 1.385 . S
C445 C444 1.374 . S
C446 C443 1.499 . S
C446 C447 1.373 . S
C446 C448 1.389 . S
C447 H426 0.950 . S
C447 C446 1.373 . S
C447 C463 1.377 . S
C448 C446 1.389 . S
C448 C449 1.524 . S
C448 C462 1.377 . S
C449 C448 1.524 . S
C449 C450 1.397 . S
C449 C454 1.363 . S
C450 H427 0.950 . S
C450 C449 1.397 . S
C450 C451 1.334 . S
C451 H428 0.950 . S
C451 C450 1.334 . S
C451 C452 1.287 . S
C452 C451 1.287 . S
C452 C453 1.524 . S
C452 H471 0.913 . S
C453 H429 0.950 . S
C453 C452 1.524 . S
C453 C454 1.415 . S
C454 H430 0.950 . S
C454 C449 1.363 . S
C454 C453 1.415 . S
C455 H431 0.951 . S
C455 C456 1.366 . S
C455 C457 1.388 . S
C456 C455 1.366 . S
C456 C460 1.385 . S
C457 H432 0.951 . S
C457 C455 1.388 . S
C457 C458 1.366 . S
C458 C457 1.366 . S
C458 C459 1.414 . S
C458 C461 1.499 . S
C459 H433 0.950 . S
C459 C458 1.414 . S
C459 C460 1.374 . S
C460 H434 0.950 . S
C460 C456 1.385 . S
C460 C459 1.374 . S
C461 C458 1.499 . S
C461 C462 1.373 . S
C461 C463 1.389 . S
C462 H435 0.950 . S
C462 C448 1.377 . S
C462 C461 1.373 . S
C463 C447 1.377 . S
C463 C461 1.389 . S
C463 C464 1.524 . S
C464 C463 1.524 . S
C464 C465 1.397 . S
C464 C469 1.363 . S
C465 H436 0.950 . S
C465 C464 1.397 . S
C465 C466 1.334 . S
C466 H437 0.950 . S
C466 C465 1.334 . S
C466 C467 1.287 . S
C467 C466 1.287 . S
C467 C468 1.524 . S
C467 H470 0.999 . S
C468 H438 0.950 . S
C468 C467 1.524 . S
C468 C469 1.415 . S
C469 H439 0.950 . S
C469 C464 1.363 . S
C469 C468 1.415 . S
H470 C467 0.999 . S
H471 C452 0.913 . S
H472 C490 0.951 . S
H473 C492 0.951 . S
H474 C494 0.950 . S
H475 C495 0.950 . S
H476 C497 0.950 . S
H477 C500 0.950 . S
H478 C501 0.950 . S
H479 C503 0.950 . S
H480 C504 0.950 . S
H481 C505 0.951 . S
H482 C507 0.951 . S
H483 C509 0.950 . S
H484 C510 0.950 . S
H485 C512 0.950 . S
H486 C515 0.950 . S
H487 C516 0.950 . S
H488 C518 0.950 . S
H489 C519 0.950 . S
C490 H472 0.951 . S
C490 C491 1.366 . S
C490 C492 1.388 . S
C491 C490 1.366 . S
C491 C495 1.385 . S
C492 H473 0.951 . S
C492 C490 1.388 . S
C492 C493 1.366 . S
C493 C492 1.366 . S
C493 C494 1.414 . S
C493 C496 1.499 . S
C494 H474 0.950 . S
C494 C493 1.414 . S
C494 C495 1.374 . S
C495 H475 0.950 . S
C495 C491 1.385 . S
C495 C494 1.374 . S
C496 C493 1.499 . S
C496 C497 1.373 . S
C496 C498 1.389 . S
C497 H476 0.950 . S
C497 C496 1.373 . S
C497 C513 1.377 . S
C498 C496 1.389 . S
C498 C499 1.524 . S
C498 C512 1.377 . S
C499 C498 1.524 . S
C499 C500 1.397 . S
C499 C504 1.363 . S
C500 H477 0.950 . S
C500 C499 1.397 . S
C500 C501 1.334 . S
C501 H478 0.950 . S
C501 C500 1.334 . S
C501 C502 1.287 . S
C502 C501 1.287 . S
C502 C503 1.524 . S
C502 H521 0.913 . S
C503 H479 0.950 . S
C503 C502 1.524 . S
C503 C504 1.415 . S
C504 H480 0.950 . S
C504 C499 1.363 . S
C504 C503 1.415 . S
C505 H481 0.951 . S
C505 C506 1.366 . S
C505 C507 1.388 . S
C506 C505 1.366 . S
C506 C510 1.385 . S
C507 H482 0.951 . S
C507 C505 1.388 . S
C507 C508 1.366 . S
C508 C507 1.366 . S
C508 C509 1.414 . S
C508 C511 1.499 . S
C509 H483 0.950 . S
C509 C508 1.414 . S
C509 C510 1.374 . S
C510 H484 0.950 . S
C510 C506 1.385 . S
C510 C509 1.374 . S
C511 C508 1.499 . S
C511 C512 1.373 . S
C511 C513 1.389 . S
C512 H485 0.950 . S
C512 C498 1.377 . S
C512 C511 1.373 . S
C513 C497 1.377 . S
C513 C511 1.389 . S
C513 C514 1.524 . S
C514 C513 1.524 . S
C514 C515 1.397 . S
C514 C519 1.363 . S
C515 H486 0.950 . S
C515 C514 1.397 . S
C515 C516 1.334 . S
C516 H487 0.950 . S
C516 C515 1.334 . S
C516 C517 1.287 . S
C517 C516 1.287 . S
C517 C518 1.524 . S
C517 H520 0.999 . S
C518 H488 0.950 . S
C518 C517 1.524 . S
C518 C519 1.415 . S
C519 H489 0.950 . S
C519 C514 1.363 . S
C519 C518 1.415 . S
H520 C517 0.999 . S
H521 C502 0.913 . S
H522 C540 0.951 . S
H523 C542 0.951 . S
H524 C544 0.950 . S
H525 C545 0.950 . S
H526 C547 0.950 1_565 S
H527 C550 0.950 . S
H528 C551 0.950 . S
H529 C553 0.950 . S
H530 C554 0.950 1_545 S
H531 C555 0.951 . S
H532 C557 0.951 . S
H533 C559 0.950 . S
H534 C560 0.950 . S
H535 C562 0.950 . S
H536 C565 0.950 . S
H537 C566 0.950 . S
H538 C568 0.950 . S
H539 C569 0.950 . S
C540 H522 0.951 . S
C540 C541 1.366 . S
C540 C542 1.388 . S
C541 C540 1.366 . S
C541 C545 1.385 . S
C542 H523 0.951 . S
C542 C540 1.388 . S
C542 C543 1.366 . S
C543 C542 1.366 . S
C543 C544 1.414 . S
C543 C546 1.499 . S
C544 H524 0.950 . S
C544 C543 1.414 . S
C544 C545 1.374 . S
C545 H525 0.950 . S
C545 C541 1.385 . S
C545 C544 1.374 . S
C546 C543 1.499 . S
C546 C547 1.373 1_565 S
C546 C548 1.376 1_565 S
C547 H526 0.950 1_545 S
C547 C546 1.373 1_545 S
C547 C563 1.377 . S
C548 C546 1.376 1_545 S
C548 C549 1.508 1_545 S
C548 C562 1.408 . S
C549 C548 1.508 1_565 S
C549 C550 1.397 . S
C549 C554 1.363 . S
C550 H527 0.950 . S
C550 C549 1.397 . S
C550 C551 1.334 . S
C551 H528 0.950 . S
C551 C550 1.334 . S
C551 C552 1.287 . S
C552 C551 1.287 . S
C552 C553 1.524 . S
C552 H571 0.913 . S
C553 H529 0.950 . S
C553 C552 1.524 . S
C553 C554 1.415 . S
C554 H530 0.950 1_565 S
C554 C549 1.363 . S
C554 C553 1.415 . S
C555 H531 0.951 . S
C555 C556 1.366 . S
C555 C557 1.388 . S
C556 C555 1.366 . S
C556 C560 1.385 . S
C557 H532 0.951 . S
C557 C555 1.388 . S
C557 C558 1.366 . S
C558 C557 1.366 . S
C558 C559 1.414 . S
C558 C561 1.499 . S
C559 H533 0.950 . S
C559 C558 1.414 . S
C559 C560 1.374 . S
C560 H534 0.950 . S
C560 C556 1.385 . S
C560 C559 1.374 . S
C561 C558 1.499 . S
C561 C562 1.373 . S
C561 C563 1.389 . S
C562 H535 0.950 . S
C562 C548 1.408 . S
C562 C561 1.373 . S
C563 C547 1.377 . S
C563 C561 1.389 . S
C563 C564 1.524 . S
C564 C563 1.524 . S
C564 C565 1.397 . S
C564 C569 1.363 . S
C565 H536 0.950 . S
C565 C564 1.397 . S
C565 C566 1.334 . S
C566 H537 0.950 . S
C566 C565 1.334 . S
C566 C567 1.287 . S
C567 C566 1.287 . S
C567 C568 1.524 . S
C567 H570 0.999 . S
C568 H538 0.950 . S
C568 C567 1.524 . S
C568 C569 1.415 . S
C569 H539 0.950 . S
C569 C564 1.363 . S
C569 C568 1.415 . S
H570 C567 0.999 . S
H571 C552 0.913 . S
H572 C590 0.951 . S
H573 C592 0.951 . S
H574 C594 0.950 . S
H575 C595 0.950 . S
H576 C597 0.950 . S
H577 C600 0.950 . S
H578 C601 0.950 . S
H579 C603 0.950 . S
H580 C604 0.950 . S
H581 C605 0.951 . S
H582 C607 0.951 . S
H583 C609 0.950 . S
H584 C610 0.950 . S
H585 C612 0.950 . S
H586 C615 0.950 . S
H587 C616 0.950 . S
H588 C618 0.950 1_545 S
H589 C619 0.950 1_545 S
C590 H572 0.951 . S
C590 C591 1.366 . S
C590 C592 1.388 . S
C591 C590 1.366 . S
C591 C595 1.385 . S
C592 H573 0.951 . S
C592 C590 1.388 . S
C592 C593 1.366 . S
C593 C592 1.366 . S
C593 C594 1.414 . S
C593 C596 1.499 . S
C594 H574 0.950 . S
C594 C593 1.414 . S
C594 C595 1.374 . S
C595 H575 0.950 . S
C595 C591 1.385 . S
C595 C594 1.374 . S
C596 C593 1.499 . S
C596 C597 1.373 . S
C596 C598 1.389 1_545 S
C597 H576 0.950 . S
C597 C596 1.373 . S
C597 C613 1.377 1_545 S
C598 C596 1.389 1_565 S
C598 C599 1.524 . S
C598 C612 1.377 . S
C599 C598 1.524 . S
C599 C600 1.397 1_565 S
C599 C604 1.363 . S
C600 H577 0.950 . S
C600 C599 1.397 1_545 S
C600 C601 1.334 . S
C601 H578 0.950 . S
C601 C600 1.334 . S
C601 C602 1.285 . S
C602 C601 1.285 . S
C602 C603 1.526 1_545 S
C602 H621 0.913 . S
C603 H579 0.950 . S
C603 C602 1.526 1_565 S
C603 C604 1.415 . S
C604 H580 0.950 . S
C604 C599 1.363 . S
C604 C603 1.415 . S
C605 H581 0.951 . S
C605 C606 1.366 . S
C605 C607 1.388 . S
C606 C605 1.366 . S
C606 C610 1.385 . S
C607 H582 0.951 . S
C607 C605 1.388 . S
C607 C608 1.366 . S
C608 C607 1.366 . S
C608 C609 1.414 . S
C608 C611 1.499 . S
C609 H583 0.950 . S
C609 C608 1.414 . S
C609 C610 1.374 . S
C610 H584 0.950 . S
C610 C606 1.385 . S
C610 C609 1.374 . S
C611 C608 1.499 . S
C611 C612 1.373 . S
C611 C613 1.389 . S
C612 H585 0.950 . S
C612 C598 1.377 . S
C612 C611 1.373 . S
C613 C597 1.377 1_565 S
C613 C611 1.389 . S
C613 C614 1.524 . S
C614 C613 1.524 . S
C614 C615 1.397 . S
C614 C619 1.363 . S
C615 H586 0.950 . S
C615 C614 1.397 . S
C615 C616 1.334 . S
C616 H587 0.950 . S
C616 C615 1.334 . S
C616 C617 1.287 1_655 S
C617 C616 1.287 1_455 S
C617 C618 1.524 . S
C617 H620 0.999 . S
C618 H588 0.950 1_565 S
C618 C617 1.524 . S
C618 C619 1.415 1_455 S
C619 H589 0.950 1_565 S
C619 C614 1.363 . S
C619 C618 1.415 1_655 S
H620 C617 0.999 . S
H621 C602 0.913 . S
H622 C640 0.951 . S
H623 C642 0.951 . S
H624 C644 0.950 . S
H625 C645 0.950 . S
H626 C647 0.950 . S
H627 C650 0.950 . S
H628 C651 0.950 . S
H629 C653 0.950 . S
H630 C654 0.950 . S
H631 C655 0.951 . S
H632 C657 0.951 . S
H633 C659 0.950 . S
H634 C660 0.950 . S
H635 C662 0.950 . S
H636 C665 0.950 . S
H637 C666 0.950 . S
H638 C668 0.950 . S
H639 C669 0.950 . S
C640 H622 0.951 . S
C640 C641 1.366 . S
C640 C642 1.388 . S
C641 C640 1.366 . S
C641 C645 1.385 . S
C642 H623 0.951 . S
C642 C640 1.388 . S
C642 C643 1.366 . S
C643 C642 1.366 . S
C643 C644 1.414 . S
C643 C646 1.499 . S
C644 H624 0.950 . S
C644 C643 1.414 . S
C644 C645 1.374 . S
C645 H625 0.950 . S
C645 C641 1.385 . S
C645 C644 1.374 . S
C646 C643 1.499 . S
C646 C647 1.373 . S
C646 C648 1.389 . S
C647 H626 0.950 . S
C647 C646 1.373 . S
C647 C663 1.377 . S
C648 C646 1.389 . S
C648 C649 1.524 . S
C648 C662 1.377 . S
C649 C648 1.524 . S
C649 C650 1.397 . S
C649 C654 1.363 . S
C650 H627 0.950 . S
C650 C649 1.397 . S
C650 C651 1.334 . S
C651 H628 0.950 . S
C651 C650 1.334 . S
C651 C652 1.287 . S
C652 C651 1.287 . S
C652 C653 1.524 . S
C652 H671 0.913 . S
C653 H629 0.950 . S
C653 C652 1.524 . S
C653 C654 1.415 . S
C654 H630 0.950 . S
C654 C649 1.363 . S
C654 C653 1.415 . S
C655 H631 0.951 . S
C655 C656 1.366 . S
C655 C657 1.388 . S
C656 C655 1.366 . S
C656 C660 1.385 . S
C657 H632 0.951 . S
C657 C655 1.388 . S
C657 C658 1.366 . S
C658 C657 1.366 . S
C658 C659 1.414 . S
C658 C661 1.499 . S
C659 H633 0.950 . S
C659 C658 1.414 . S
C659 C660 1.374 . S
C660 H634 0.950 . S
C660 C656 1.385 . S
C660 C659 1.374 . S
C661 C658 1.499 . S
C661 C662 1.373 . S
C661 C663 1.389 . S
C662 H635 0.950 . S
C662 C648 1.377 . S
C662 C661 1.373 . S
C663 C647 1.377 . S
C663 C661 1.389 . S
C663 C664 1.524 . S
C664 C663 1.524 . S
C664 C665 1.397 . S
C664 C669 1.363 . S
C665 H636 0.950 . S
C665 C664 1.397 . S
C665 C666 1.334 . S
C666 H637 0.950 . S
C666 C665 1.334 . S
C666 C667 1.287 . S
C667 C666 1.287 . S
C667 C668 1.524 . S
C667 H670 0.999 . S
C668 H638 0.950 . S
C668 C667 1.524 . S
C668 C669 1.415 . S
C669 H639 0.950 . S
C669 C664 1.363 . S
C669 C668 1.415 . S
H670 C667 0.999 . S
H671 C652 0.913 . S
H672 C690 0.951 . S
H673 C692 0.951 . S
H674 C694 0.950 . S
H675 C695 0.950 . S
H676 C697 0.950 . S
H677 C700 0.950 . S
H678 C701 0.950 . S
H679 C703 0.950 . S
H680 C704 0.950 . S
H681 C705 0.951 . S
H682 C707 0.951 . S
H683 C709 0.950 . S
H684 C710 0.950 . S
H685 C712 0.950 . S
H686 C715 0.950 . S
H687 C716 0.950 . S
H688 C718 0.950 . S
H689 C719 0.950 . S
C690 H672 0.951 . S
C690 C691 1.366 . S
C690 C692 1.388 . S
C691 C690 1.366 . S
C691 C695 1.385 . S
C692 H673 0.951 . S
C692 C690 1.388 . S
C692 C693 1.366 . S
C693 C692 1.366 . S
C693 C694 1.414 . S
C693 C696 1.499 . S
C694 H674 0.950 . S
C694 C693 1.414 . S
C694 C695 1.374 . S
C695 H675 0.950 . S
C695 C691 1.385 . S
C695 C694 1.374 . S
C696 C693 1.499 . S
C696 C697 1.373 . S
C696 C698 1.389 . S
C697 H676 0.950 . S
C697 C696 1.373 . S
C697 C713 1.377 . S
C698 C696 1.389 . S
C698 C699 1.524 . S
C698 C712 1.377 . S
C699 C698 1.524 . S
C699 C700 1.397 . S
C699 C704 1.363 . S
C700 H677 0.950 . S
C700 C699 1.397 . S
C700 C701 1.334 . S
C701 H678 0.950 . S
C701 C700 1.334 . S
C701 C702 1.287 . S
C702 C701 1.287 . S
C702 C703 1.524 . S
C702 H721 0.913 . S
C703 H679 0.950 . S
C703 C702 1.524 . S
C703 C704 1.415 . S
C704 H680 0.950 . S
C704 C699 1.363 . S
C704 C703 1.415 . S
C705 H681 0.951 . S
C705 C706 1.366 . S
C705 C707 1.388 . S
C706 C705 1.366 . S
C706 C710 1.385 . S
C707 H682 0.951 . S
C707 C705 1.388 . S
C707 C708 1.366 . S
C708 C707 1.366 . S
C708 C709 1.414 . S
C708 C711 1.499 . S
C709 H683 0.950 . S
C709 C708 1.414 . S
C709 C710 1.374 . S
C710 H684 0.950 . S
C710 C706 1.385 . S
C710 C709 1.374 . S
C711 C708 1.499 . S
C711 C712 1.373 . S
C711 C713 1.389 . S
C712 H685 0.950 . S
C712 C698 1.377 . S
C712 C711 1.373 . S
C713 C697 1.377 . S
C713 C711 1.389 . S
C713 C714 1.524 . S
C714 C713 1.524 . S
C714 C715 1.397 . S
C714 C719 1.363 . S
C715 H686 0.950 . S
C715 C714 1.397 . S
C715 C716 1.334 . S
C716 H687 0.950 . S
C716 C715 1.334 . S
C716 C717 1.287 . S
C717 C716 1.287 . S
C717 C718 1.524 . S
C717 H720 0.999 . S
C718 H688 0.950 . S
C718 C717 1.524 . S
C718 C719 1.415 . S
C719 H689 0.950 . S
C719 C714 1.363 . S
C719 C718 1.415 . S
H720 C717 0.999 . S
H721 C702 0.913 . S
H722 C740 0.951 . S
H723 C742 0.951 . S
H724 C744 0.950 . S
H725 C745 0.950 . S
H726 C747 0.950 1_545 S
H727 C750 0.950 . S
H728 C751 0.950 . S
H729 C753 0.950 . S
H730 C754 0.950 . S
H731 C755 0.951 . S
H732 C757 0.951 . S
H733 C759 0.950 . S
H734 C760 0.950 . S
H735 C762 0.950 . S
H736 C765 0.950 . S
H737 C766 0.950 . S
H738 C768 0.950 . S
H739 C769 0.950 . S
C740 H722 0.951 . S
C740 C741 1.366 . S
C740 C742 1.388 . S
C741 C740 1.366 . S
C741 C745 1.385 . S
C742 H723 0.951 . S
C742 C740 1.388 . S
C742 C743 1.366 . S
C743 C742 1.366 . S
C743 C744 1.414 . S
C743 C746 1.499 . S
C744 H724 0.950 . S
C744 C743 1.414 . S
C744 C745 1.374 . S
C745 H725 0.950 . S
C745 C741 1.385 . S
C745 C744 1.374 . S
C746 C743 1.499 . S
C746 C747 1.373 1_545 S
C746 C748 1.389 1_545 S
C747 H726 0.950 1_565 S
C747 C746 1.373 1_565 S
C747 C763 1.377 . S
C748 C746 1.389 1_565 S
C748 C749 1.524 1_565 S
C748 C762 1.377 . S
C749 C748 1.524 1_545 S
C749 C750 1.397 . S
C749 C754 1.363 . S
C750 H727 0.950 . S
C750 C749 1.397 . S
C750 C751 1.334 . S
C751 H728 0.950 . S
C751 C750 1.334 . S
C751 C752 1.287 . S
C752 C751 1.287 . S
C752 C753 1.524 . S
C752 H771 0.913 . S
C753 H729 0.950 . S
C753 C752 1.524 . S
C753 C754 1.415 . S
C754 H730 0.950 . S
C754 C749 1.363 . S
C754 C753 1.415 . S
C755 H731 0.951 . S
C755 C756 1.366 . S
C755 C757 1.388 . S
C756 C755 1.366 . S
C756 C760 1.385 . S
C757 H732 0.951 . S
C757 C755 1.388 . S
C757 C758 1.366 . S
C758 C757 1.366 . S
C758 C759 1.414 . S
C758 C761 1.499 . S
C759 H733 0.950 . S
C759 C758 1.414 . S
C759 C760 1.374 . S
C760 H734 0.950 . S
C760 C756 1.385 . S
C760 C759 1.374 . S
C761 C758 1.499 . S
C761 C762 1.373 . S
C761 C763 1.389 . S
C762 H735 0.950 . S
C762 C748 1.377 . S
C762 C761 1.373 . S
C763 C747 1.377 . S
C763 C761 1.389 . S
C763 C764 1.524 . S
C764 C763 1.524 . S
C764 C765 1.397 . S
C764 C769 1.363 . S
C765 H736 0.950 . S
C765 C764 1.397 . S
C765 C766 1.334 . S
C766 H737 0.950 . S
C766 C765 1.334 . S
C766 C767 1.287 . S
C767 C766 1.287 . S
C767 C768 1.524 . S
C767 H770 0.999 . S
C768 H738 0.950 . S
C768 C767 1.524 . S
C768 C769 1.415 . S
C769 H739 0.950 . S
C769 C764 1.363 . S
C769 C768 1.415 . S
H770 C767 0.999 . S
H771 C752 0.913 . S
H772 C790 0.951 1_556 S
H773 C792 0.951 . S
H774 C794 0.950 . S
H775 C795 0.950 . S
H776 C797 0.950 . S
H777 C800 0.950 . S
H778 C801 0.950 . S
H779 C803 0.950 1_655 S
H780 C804 0.950 . S
H781 C805 0.951 . S
H782 C807 0.951 . S
H783 C809 0.950 . S
H784 C810 0.950 . S
H785 C812 0.950 . S
H786 C815 0.950 . S
H787 C816 0.950 . S
H788 C818 0.950 . S
H789 C819 0.950 . S
C790 H772 0.951 1_554 S
C790 C791 1.366 . S
C790 C792 1.388 . S
C791 C790 1.366 . S
C791 C795 1.385 . S
C792 H773 0.951 . S
C792 C790 1.388 . S
C792 C793 1.366 . S
C793 C792 1.366 . S
C793 C794 1.414 . S
C793 C796 1.499 . S
C794 H774 0.950 . S
C794 C793 1.414 . S
C794 C795 1.374 . S
C795 H775 0.950 . S
C795 C791 1.385 . S
C795 C794 1.374 . S
C796 C793 1.499 . S
C796 C797 1.373 . S
C796 C798 1.389 . S
C797 H776 0.950 . S
C797 C796 1.373 . S
C797 C813 1.377 . S
C798 C796 1.389 . S
C798 C799 1.524 . S
C798 C812 1.377 . S
C799 C798 1.524 . S
C799 C800 1.397 . S
C799 C804 1.363 . S
C800 H777 0.950 . S
C800 C799 1.397 . S
C800 C801 1.334 . S
C801 H778 0.950 . S
C801 C800 1.334 . S
C801 C802 1.287 . S
C802 C801 1.287 . S
C802 C803 1.524 . S
C802 H821 0.913 . S
C803 H779 0.950 1_455 S
C803 C802 1.524 . S
C803 C804 1.415 . S
C804 H780 0.950 . S
C804 C799 1.363 . S
C804 C803 1.415 . S
C805 H781 0.951 . S
C805 C806 1.366 . S
C805 C807 1.388 . S
C806 C805 1.366 . S
C806 C810 1.385 . S
C807 H782 0.951 . S
C807 C805 1.388 . S
C807 C808 1.366 . S
C808 C807 1.366 . S
C808 C809 1.414 . S
C808 C811 1.499 . S
C809 H783 0.950 . S
C809 C808 1.414 . S
C809 C810 1.374 . S
C810 H784 0.950 . S
C810 C806 1.385 . S
C810 C809 1.374 . S
C811 C808 1.499 . S
C811 C812 1.373 . S
C811 C813 1.389 . S
C812 H785 0.950 . S
C812 C798 1.377 . S
C812 C811 1.373 . S
C813 C797 1.377 . S
C813 C811 1.389 . S
C813 C814 1.524 . S
C814 C813 1.524 . S
C814 C815 1.397 . S
C814 C819 1.363 . S
C815 H786 0.950 . S
C815 C814 1.397 . S
C815 C816 1.334 . S
C816 H787 0.950 . S
C816 C815 1.334 . S
C816 C817 1.287 . S
C817 C816 1.287 . S
C817 C818 1.524 . S
C817 H820 0.999 . S
C818 H788 0.950 . S
C818 C817 1.524 . S
C818 C819 1.415 . S
C819 H789 0.950 . S
C819 C814 1.363 . S
C819 C818 1.415 . S
H820 C817 0.999 . S
H821 C802 0.913 . S
H822 C840 0.951 . S
H823 C842 0.951 . S
H824 C844 0.950 . S
H825 C845 0.950 . S
H826 C847 0.950 . S
H827 C850 0.950 . S
H828 C851 0.950 . S
H829 C853 0.950 . S
H830 C854 0.950 . S
H831 C855 0.951 . S
H832 C857 0.951 . S
H833 C859 0.950 . S
H834 C860 0.950 . S
H835 C862 0.950 . S
H836 C865 0.950 . S
H837 C866 0.950 . S
H838 C868 0.950 . S
H839 C869 0.950 . S
C840 H822 0.951 . S
C840 C841 1.366 . S
C840 C842 1.388 . S
C841 C840 1.366 . S
C841 C845 1.385 . S
C842 H823 0.951 . S
C842 C840 1.388 . S
C842 C843 1.366 . S
C843 C842 1.366 . S
C843 C844 1.414 . S
C843 C846 1.499 . S
C844 H824 0.950 . S
C844 C843 1.414 . S
C844 C845 1.374 . S
C845 H825 0.950 . S
C845 C841 1.385 . S
C845 C844 1.374 . S
C846 C843 1.499 . S
C846 C847 1.373 . S
C846 C848 1.389 . S
C847 H826 0.950 . S
C847 C846 1.373 . S
C847 C863 1.377 . S
C848 C846 1.389 . S
C848 C849 1.524 . S
C848 C862 1.377 . S
C849 C848 1.524 . S
C849 C850 1.397 . S
C849 C854 1.363 . S
C850 H827 0.950 . S
C850 C849 1.397 . S
C850 C851 1.334 . S
C851 H828 0.950 . S
C851 C850 1.334 . S
C851 C852 1.287 . S
C852 C851 1.287 . S
C852 C853 1.524 . S
C852 H871 0.913 . S
C853 H829 0.950 . S
C853 C852 1.524 . S
C853 C854 1.415 . S
C854 H830 0.950 . S
C854 C849 1.363 . S
C854 C853 1.415 . S
C855 H831 0.951 . S
C855 C856 1.366 . S
C855 C857 1.388 . S
C856 C855 1.366 . S
C856 C860 1.385 . S
C857 H832 0.951 . S
C857 C855 1.388 . S
C857 C858 1.366 . S
C858 C857 1.366 . S
C858 C859 1.414 . S
C858 C861 1.499 . S
C859 H833 0.950 . S
C859 C858 1.414 . S
C859 C860 1.374 . S
C860 H834 0.950 . S
C860 C856 1.385 . S
C860 C859 1.374 . S
C861 C858 1.499 . S
C861 C862 1.373 . S
C861 C863 1.389 . S
C862 H835 0.950 . S
C862 C848 1.377 . S
C862 C861 1.373 . S
C863 C847 1.377 . S
C863 C861 1.389 . S
C863 C864 1.524 . S
C864 C863 1.524 . S
C864 C865 1.397 . S
C864 C869 1.363 . S
C865 H836 0.950 . S
C865 C864 1.397 . S
C865 C866 1.334 . S
C866 H837 0.950 . S
C866 C865 1.334 . S
C866 C867 1.287 . S
C867 C866 1.287 . S
C867 C868 1.524 . S
C867 H870 0.999 . S
C868 H838 0.950 . S
C868 C867 1.524 . S
C868 C869 1.415 . S
C869 H839 0.950 . S
C869 C864 1.363 . S
C869 C868 1.415 . S
H870 C867 0.999 . S
H871 C852 0.913 . S
H872 C890 0.951 1_554 S
H873 C892 0.951 . S
H874 C894 0.950 . S
H875 C895 0.950 . S
H876 C897 0.950 . S
H877 C900 0.950 . S
H878 C901 0.950 . S
H879 C903 0.950 . S
H880 C904 0.950 . S
H881 C905 0.951 . S
H882 C907 0.951 . S
H883 C909 0.950 . S
H884 C910 0.950 . S
H885 C912 0.950 . S
H886 C915 0.950 . S
H887 C916 0.950 . S
H888 C918 0.950 . S
H889 C919 0.950 . S
C890 H872 0.951 1_556 S
C890 C891 1.366 . S
C890 C892 1.388 . S
C891 C890 1.366 . S
C891 C895 1.385 . S
C892 H873 0.951 . S
C892 C890 1.388 . S
C892 C893 1.366 . S
C893 C892 1.366 . S
C893 C894 1.414 . S
C893 C896 1.499 . S
C894 H874 0.950 . S
C894 C893 1.414 . S
C894 C895 1.374 . S
C895 H875 0.950 . S
C895 C891 1.385 . S
C895 C894 1.374 . S
C896 C893 1.499 . S
C896 C897 1.373 . S
C896 C898 1.389 . S
C897 H876 0.950 . S
C897 C896 1.373 . S
C897 C913 1.377 . S
C898 C896 1.389 . S
C898 C899 1.524 . S
C898 C912 1.377 . S
C899 C898 1.524 . S
C899 C900 1.397 . S
C899 C904 1.363 . S
C900 H877 0.950 . S
C900 C899 1.397 . S
C900 C901 1.334 . S
C901 H878 0.950 . S
C901 C900 1.334 . S
C901 C902 1.287 . S
C902 C901 1.287 . S
C902 C903 1.524 . S
C902 H921 0.913 . S
C903 H879 0.950 . S
C903 C902 1.524 . S
C903 C904 1.415 . S
C904 H880 0.950 . S
C904 C899 1.363 . S
C904 C903 1.415 . S
C905 H881 0.951 . S
C905 C906 1.366 . S
C905 C907 1.388 . S
C906 C905 1.366 . S
C906 C910 1.385 . S
C907 H882 0.951 . S
C907 C905 1.388 . S
C907 C908 1.366 . S
C908 C907 1.366 . S
C908 C909 1.414 . S
C908 C911 1.499 . S
C909 H883 0.950 . S
C909 C908 1.414 . S
C909 C910 1.374 . S
C910 H884 0.950 . S
C910 C906 1.385 . S
C910 C909 1.374 . S
C911 C908 1.499 . S
C911 C912 1.373 . S
C911 C913 1.389 . S
C912 H885 0.950 . S
C912 C898 1.377 . S
C912 C911 1.373 . S
C913 C897 1.377 . S
C913 C911 1.389 . S
C913 C914 1.524 . S
C914 C913 1.524 . S
C914 C915 1.397 . S
C914 C919 1.363 . S
C915 H886 0.950 . S
C915 C914 1.397 . S
C915 C916 1.334 . S
C916 H887 0.950 . S
C916 C915 1.334 . S
C916 C917 1.287 . S
C917 C916 1.287 . S
C917 C918 1.524 . S
C917 H920 0.999 . S
C918 H888 0.950 . S
C918 C917 1.524 . S
C918 C919 1.415 . S
C919 H889 0.950 . S
C919 C914 1.363 . S
C919 C918 1.415 . S
H920 C917 0.999 . S
H921 C902 0.913 . S
H922 C940 0.951 . S
H923 C942 0.951 . S
H924 C944 0.950 . S
H925 C945 0.950 . S
H926 C947 0.950 . S
H927 C950 0.950 . S
H928 C951 0.950 . S
H929 C953 0.950 . S
H930 C954 0.950 . S
H931 C955 0.951 . S
H932 C957 0.951 . S
H933 C959 0.950 . S
H934 C960 0.950 . S
H935 C962 0.950 . S
H936 C965 0.950 . S
H937 C966 0.950 . S
H938 C968 0.950 . S
H939 C969 0.950 . S
C940 H922 0.951 . S
C940 C941 1.366 . S
C940 C942 1.388 . S
C941 C940 1.366 . S
C941 C945 1.385 . S
C942 H923 0.951 . S
C942 C940 1.388 . S
C942 C943 1.366 . S
C943 C942 1.366 . S
C943 C944 1.414 . S
C943 C946 1.499 . S
C944 H924 0.950 . S
C944 C943 1.414 . S
C944 C945 1.374 . S
C945 H925 0.950 . S
C945 C941 1.385 . S
C945 C944 1.374 . S
C946 C943 1.499 . S
C946 C947 1.373 . S
C946 C948 1.389 . S
C947 H926 0.950 . S
C947 C946 1.373 . S
C947 C963 1.377 . S
C948 C946 1.389 . S
C948 C949 1.524 . S
C948 C962 1.377 . S
C949 C948 1.524 . S
C949 C950 1.397 . S
C949 C954 1.363 . S
C950 H927 0.950 . S
C950 C949 1.397 . S
C950 C951 1.334 . S
C951 H928 0.950 . S
C951 C950 1.334 . S
C951 C952 1.287 . S
C952 C951 1.287 . S
C952 C953 1.524 . S
C952 H971 0.913 . S
C953 H929 0.950 . S
C953 C952 1.524 . S
C953 C954 1.415 . S
C954 H930 0.950 . S
C954 C949 1.363 . S
C954 C953 1.415 . S
C955 H931 0.951 . S
C955 C956 1.366 . S
C955 C957 1.388 . S
C956 C955 1.366 . S
C956 C960 1.385 . S
C957 H932 0.951 . S
C957 C955 1.388 . S
C957 C958 1.366 . S
C958 C957 1.366 . S
C958 C959 1.414 . S
C958 C961 1.499 . S
C959 H933 0.950 . S
C959 C958 1.414 . S
C959 C960 1.374 . S
C960 H934 0.950 . S
C960 C956 1.385 . S
C960 C959 1.374 . S
C961 C958 1.499 . S
C961 C962 1.373 . S
C961 C963 1.389 . S
C962 H935 0.950 . S
C962 C948 1.377 . S
C962 C961 1.373 . S
C963 C947 1.377 . S
C963 C961 1.389 . S
C963 C964 1.524 . S
C964 C963 1.524 . S
C964 C965 1.397 . S
C964 C969 1.363 . S
C965 H936 0.950 . S
C965 C964 1.397 . S
C965 C966 1.334 . S
C966 H937 0.950 . S
C966 C965 1.334 . S
C966 C967 1.287 . S
C967 C966 1.287 . S
C967 C968 1.524 . S
C967 H970 0.999 . S
C968 H938 0.950 . S
C968 C967 1.524 . S
C968 C969 1.415 . S
C969 H939 0.950 . S
C969 C964 1.363 . S
C969 C968 1.415 . S
H970 C967 0.999 . S
H971 C952 0.913 . S
H972 C990 0.951 . S
H973 C992 0.951 . S
H974 C994 0.950 . S
H975 C995 0.918 1_554 S
H976 C997 0.950 . S
H977 C1000 0.950 . S
H978 C1001 0.950 . S
H979 C1003 0.950 . S
H980 C1004 0.950 . S
H981 C1005 0.951 . S
H982 C1007 0.951 . S
H983 C1009 0.950 . S
H984 C1010 0.950 . S
H985 C1012 0.950 . S
H986 C1015 0.950 . S
H987 C1016 0.950 . S
H988 C1018 0.950 . S
H989 C1019 0.950 . S
C990 H972 0.951 . S
C990 C991 1.366 . S
C990 C992 1.388 . S
C991 C990 1.366 . S
C991 C995 1.385 . S
C992 H973 0.951 . S
C992 C990 1.388 . S
C992 C993 1.366 . S
C993 C992 1.366 . S
C993 C994 1.414 . S
C993 C996 1.499 . S
C994 H974 0.950 . S
C994 C993 1.414 . S
C994 C995 1.374 . S
C995 H975 0.918 1_556 S
C995 C991 1.385 . S
C995 C994 1.374 . S
C996 C993 1.499 . S
C996 C997 1.373 . S
C996 C998 1.389 . S
C997 H976 0.950 . S
C997 C996 1.373 . S
C997 C1013 1.377 . S
C998 C996 1.389 . S
C998 C999 1.524 . S
C998 C1012 1.377 . S
C999 C998 1.524 . S
C999 C1000 1.397 . S
C999 C1004 1.363 . S
C1000 H977 0.950 . S
C1000 C999 1.397 . S
C1000 C1001 1.334 . S
C1001 H978 0.950 . S
C1001 C1000 1.334 . S
C1001 C1002 1.287 . S
C1002 C1001 1.287 . S
C1002 C1003 1.524 . S
C1002 H1021 0.913 . S
C1003 H979 0.950 . S
C1003 C1002 1.524 . S
C1003 C1004 1.415 . S
C1004 H980 0.950 . S
C1004 C999 1.363 . S
C1004 C1003 1.415 . S
C1005 H981 0.951 . S
C1005 C1006 1.366 . S
C1005 C1007 1.388 . S
C1006 C1005 1.366 . S
C1006 C1010 1.385 . S
C1007 H982 0.951 . S
C1007 C1005 1.388 . S
C1007 C1008 1.366 . S
C1008 C1007 1.366 . S
C1008 C1009 1.414 . S
C1008 C1011 1.499 . S
C1009 H983 0.950 . S
C1009 C1008 1.414 . S
C1009 C1010 1.374 . S
C1010 H984 0.950 . S
C1010 C1006 1.385 . S
C1010 C1009 1.374 . S
C1011 C1008 1.499 . S
C1011 C1012 1.373 . S
C1011 C1013 1.389 . S
C1012 H985 0.950 . S
C1012 C998 1.377 . S
C1012 C1011 1.373 . S
C1013 C997 1.377 . S
C1013 C1011 1.389 . S
C1013 C1014 1.524 . S
C1014 C1013 1.524 . S
C1014 C1015 1.397 . S
C1014 C1019 1.363 . S
C1015 H986 0.950 . S
C1015 C1014 1.397 . S
C1015 C1016 1.334 . S
C1016 H987 0.950 . S
C1016 C1015 1.334 . S
C1016 C1017 1.287 . S
C1017 C1016 1.287 . S
C1017 C1018 1.524 . S
C1017 H1020 0.999 . S
C1018 H988 0.950 . S
C1018 C1017 1.524 . S
C1018 C1019 1.415 . S
C1019 H989 0.950 . S
C1019 C1014 1.363 . S
C1019 C1018 1.415 . S
H1020 C1017 0.999 . S
H1021 C1002 0.913 . S
H1022 C1040 0.951 . S
H1023 C1042 0.951 . S
H1024 C1044 0.950 . S
H1025 C1045 0.950 . S
H1026 C1047 0.950 . S
H1027 C1050 0.950 . S
H1028 C1051 0.950 . S
H1029 C1053 0.950 . S
H1030 C1054 0.950 . S
H1031 C1055 0.951 . S
H1032 C1057 0.951 . S
H1033 C1059 0.950 . S
H1034 C1060 0.950 . S
H1035 C1062 0.950 . S
H1036 C1065 0.950 . S
H1037 C1066 0.950 . S
H1038 C1068 0.950 . S
H1039 C1069 0.950 . S
C1040 H1022 0.951 . S
C1040 C1041 1.366 . S
C1040 C1042 1.388 . S
C1041 C1040 1.366 . S
C1041 C1045 1.385 . S
C1042 H1023 0.951 . S
C1042 C1040 1.388 . S
C1042 C1043 1.366 . S
C1043 C1042 1.366 . S
C1043 C1044 1.414 . S
C1043 C1046 1.499 . S
C1044 H1024 0.950 . S
C1044 C1043 1.414 . S
C1044 C1045 1.374 . S
C1045 H1025 0.950 . S
C1045 C1041 1.385 . S
C1045 C1044 1.374 . S
C1046 C1043 1.499 . S
C1046 C1047 1.373 . S
C1046 C1048 1.389 . S
C1047 H1026 0.950 . S
C1047 C1046 1.373 . S
C1047 C1063 1.377 . S
C1048 C1046 1.389 . S
C1048 C1049 1.524 . S
C1048 C1062 1.377 . S
C1049 C1048 1.524 . S
C1049 C1050 1.397 . S
C1049 C1054 1.363 . S
C1050 H1027 0.950 . S
C1050 C1049 1.397 . S
C1050 C1051 1.334 . S
C1051 H1028 0.950 . S
C1051 C1050 1.334 . S
C1051 C1052 1.287 . S
C1052 C1051 1.287 . S
C1052 C1053 1.524 . S
C1052 H1071 0.913 . S
C1053 H1029 0.950 . S
C1053 C1052 1.524 . S
C1053 C1054 1.415 . S
C1054 H1030 0.950 . S
C1054 C1049 1.363 . S
C1054 C1053 1.415 . S
C1055 H1031 0.951 . S
C1055 C1056 1.366 . S
C1055 C1057 1.388 . S
C1056 C1055 1.366 . S
C1056 C1060 1.385 . S
C1057 H1032 0.951 . S
C1057 C1055 1.388 . S
C1057 C1058 1.366 . S
C1058 C1057 1.366 . S
C1058 C1059 1.414 . S
C1058 C1061 1.499 . S
C1059 H1033 0.950 . S
C1059 C1058 1.414 . S
C1059 C1060 1.374 . S
C1060 H1034 0.950 . S
C1060 C1056 1.385 . S
C1060 C1059 1.374 . S
C1061 C1058 1.499 . S
C1061 C1062 1.373 . S
C1061 C1063 1.389 . S
C1062 H1035 0.950 . S
C1062 C1048 1.377 . S
C1062 C1061 1.373 . S
C1063 C1047 1.377 . S
C1063 C1061 1.389 . S
C1063 C1064 1.524 . S
C1064 C1063 1.524 . S
C1064 C1065 1.397 . S
C1064 C1069 1.363 . S
C1065 H1036 0.950 . S
C1065 C1064 1.397 . S
C1065 C1066 1.334 . S
C1066 H1037 0.950 . S
C1066 C1065 1.334 . S
C1066 C1067 1.287 . S
C1067 C1066 1.287 . S
C1067 C1068 1.524 . S
C1067 H1070 0.999 . S
C1068 H1038 0.950 . S
C1068 C1067 1.524 . S
C1068 C1069 1.415 . S
C1069 H1039 0.950 . S
C1069 C1064 1.363 . S
C1069 C1068 1.415 . S
H1070 C1067 0.999 . S
H1071 C1052 0.913 . S
H1072 C1090 0.951 . S
H1073 C1092 0.951 . S
H1074 C1094 0.950 . S
H1075 C1095 0.950 1_556 S
H1076 C1097 0.950 . S
H1077 C1100 0.950 . S
H1078 C1101 0.950 . S
H1079 C1103 0.950 . S
H1080 C1104 0.950 . S
H1081 C1105 0.951 . S
H1082 C1107 0.951 . S
H1083 C1109 0.950 . S
H1084 C1110 0.950 . S
H1085 C1112 0.950 . S
H1086 C1115 0.950 . S
H1087 C1116 0.950 . S
H1088 C1118 0.950 . S
H1089 C1119 0.950 . S
C1090 H1072 0.951 . S
C1090 C1091 1.366 . S
C1090 C1092 1.388 . S
C1091 C1090 1.366 . S
C1091 C1095 1.385 . S
C1092 H1073 0.951 . S
C1092 C1090 1.388 . S
C1092 C1093 1.366 . S
C1093 C1092 1.366 . S
C1093 C1094 1.414 . S
C1093 C1096 1.499 . S
C1094 H1074 0.950 . S
C1094 C1093 1.414 . S
C1094 C1095 1.374 . S
C1095 H1075 0.950 1_554 S
C1095 C1091 1.385 . S
C1095 C1094 1.374 . S
C1096 C1093 1.499 . S
C1096 C1097 1.373 . S
C1096 C1098 1.389 . S
C1097 H1076 0.950 . S
C1097 C1096 1.373 . S
C1097 C1113 1.377 . S
C1098 C1096 1.389 . S
C1098 C1099 1.524 . S
C1098 C1112 1.377 . S
C1099 C1098 1.524 . S
C1099 C1100 1.397 . S
C1099 C1104 1.363 . S
C1100 H1077 0.950 . S
C1100 C1099 1.397 . S
C1100 C1101 1.334 . S
C1101 H1078 0.950 . S
C1101 C1100 1.334 . S
C1101 C1102 1.287 . S
C1102 C1101 1.287 . S
C1102 C1103 1.524 . S
C1102 H1121 0.913 . S
C1103 H1079 0.950 . S
C1103 C1102 1.524 . S
C1103 C1104 1.415 . S
C1104 H1080 0.950 . S
C1104 C1099 1.363 . S
C1104 C1103 1.415 . S
C1105 H1081 0.951 . S
C1105 C1106 1.366 . S
C1105 C1107 1.388 . S
C1106 C1105 1.366 . S
C1106 C1110 1.385 . S
C1107 H1082 0.951 . S
C1107 C1105 1.388 . S
C1107 C1108 1.366 . S
C1108 C1107 1.366 . S
C1108 C1109 1.414 . S
C1108 C1111 1.499 . S
C1109 H1083 0.950 . S
C1109 C1108 1.414 . S
C1109 C1110 1.374 . S
C1110 H1084 0.950 . S
C1110 C1106 1.385 . S
C1110 C1109 1.374 . S
C1111 C1108 1.499 . S
C1111 C1112 1.373 . S
C1111 C1113 1.389 . S
C1112 H1085 0.950 . S
C1112 C1098 1.377 . S
C1112 C1111 1.373 . S
C1113 C1097 1.377 . S
C1113 C1111 1.389 . S
C1113 C1114 1.524 . S
C1114 C1113 1.524 . S
C1114 C1115 1.397 . S
C1114 C1119 1.363 . S
C1115 H1086 0.950 . S
C1115 C1114 1.397 . S
C1115 C1116 1.334 . S
C1116 H1087 0.950 . S
C1116 C1115 1.334 . S
C1116 C1117 1.287 . S
C1117 C1116 1.287 . S
C1117 C1118 1.524 . S
C1117 H1120 0.999 . S
C1118 H1088 0.950 . S
C1118 C1117 1.524 . S
C1118 C1119 1.415 . S
C1119 H1089 0.950 . S
C1119 C1114 1.363 . S
C1119 C1118 1.415 . S
H1120 C1117 0.999 . S
H1121 C1102 0.913 . S
H1122 C1140 0.951 . S
H1123 C1142 0.951 . S
H1124 C1144 0.950 . S
H1125 C1145 0.950 . S
H1126 C1147 0.950 . S
H1127 C1150 0.950 . S
H1128 C1151 0.950 . S
H1129 C1153 0.950 . S
H1130 C1154 0.950 . S
H1131 C1155 0.951 . S
H1132 C1157 0.951 . S
H1133 C1159 0.950 . S
H1134 C1160 0.950 . S
H1135 C1162 0.950 . S
H1136 C1165 0.950 . S
H1137 C1166 0.950 . S
H1138 C1168 0.950 . S
H1139 C1169 0.950 . S
C1140 H1122 0.951 . S
C1140 C1141 1.366 . S
C1140 C1142 1.388 . S
C1141 C1140 1.366 . S
C1141 C1145 1.385 . S
C1142 H1123 0.951 . S
C1142 C1140 1.388 . S
C1142 C1143 1.366 . S
C1143 C1142 1.366 . S
C1143 C1144 1.414 . S
C1143 C1146 1.499 . S
C1144 H1124 0.950 . S
C1144 C1143 1.414 . S
C1144 C1145 1.374 . S
C1145 H1125 0.950 . S
C1145 C1141 1.385 . S
C1145 C1144 1.374 . S
C1146 C1143 1.499 . S
C1146 C1147 1.373 . S
C1146 C1148 1.389 . S
C1147 H1126 0.950 . S
C1147 C1146 1.373 . S
C1147 C1163 1.377 . S
C1148 C1146 1.389 . S
C1148 C1149 1.524 . S
C1148 C1162 1.377 . S
C1149 C1148 1.524 . S
C1149 C1150 1.397 . S
C1149 C1154 1.363 . S
C1150 H1127 0.950 . S
C1150 C1149 1.397 . S
C1150 C1151 1.334 . S
C1151 H1128 0.950 . S
C1151 C1150 1.334 . S
C1151 C1152 1.287 . S
C1152 C1151 1.287 . S
C1152 C1153 1.524 . S
C1152 H1171 0.913 . S
C1153 H1129 0.950 . S
C1153 C1152 1.524 . S
C1153 C1154 1.415 . S
C1154 H1130 0.950 . S
C1154 C1149 1.363 . S
C1154 C1153 1.415 . S
C1155 H1131 0.951 . S
C1155 C1156 1.366 . S
C1155 C1157 1.388 . S
C1156 C1155 1.366 . S
C1156 C1160 1.385 . S
C1157 H1132 0.951 . S
C1157 C1155 1.388 . S
C1157 C1158 1.366 . S
C1158 C1157 1.366 . S
C1158 C1159 1.414 . S
C1158 C1161 1.499 . S
C1159 H1133 0.950 . S
C1159 C1158 1.414 . S
C1159 C1160 1.374 . S
C1160 H1134 0.950 . S
C1160 C1156 1.385 . S
C1160 C1159 1.374 . S
C1161 C1158 1.499 . S
C1161 C1162 1.373 . S
C1161 C1163 1.389 . S
C1162 H1135 0.950 . S
C1162 C1148 1.377 . S
C1162 C1161 1.373 . S
C1163 C1147 1.377 . S
C1163 C1161 1.389 . S
C1163 C1164 1.524 . S
C1164 C1163 1.524 . S
C1164 C1165 1.397 . S
C1164 C1169 1.363 . S
C1165 H1136 0.950 . S
C1165 C1164 1.397 . S
C1165 C1166 1.334 . S
C1166 H1137 0.950 . S
C1166 C1165 1.334 . S
C1166 C1167 1.287 . S
C1167 C1166 1.287 . S
C1167 C1168 1.524 . S
C1167 H1170 0.999 . S
C1168 H1138 0.950 . S
C1168 C1167 1.524 . S
C1168 C1169 1.415 . S
C1169 H1139 0.950 . S
C1169 C1164 1.363 . S
C1169 C1168 1.415 . S
H1170 C1167 0.999 . S
H1171 C1152 0.913 . S
H1172 C1190 0.951 . S
H1173 C1192 0.951 . S
H1174 C1194 0.950 . S
H1175 C1195 0.950 . S
H1176 C1197 0.950 . S
H1177 C1200 0.950 . S
H1178 C1201 0.950 . S
H1179 C1203 0.950 . S
H1180 C1204 0.950 . S
H1181 C1205 0.951 . S
H1182 C1207 0.951 . S
H1183 C1209 0.950 . S
H1184 C1210 0.950 . S
H1185 C1212 0.950 . S
H1186 C1215 0.950 . S
H1187 C1216 0.950 . S
H1188 C1218 0.950 . S
H1189 C1219 0.950 . S
C1190 H1172 0.951 . S
C1190 C1191 1.366 . S
C1190 C1192 1.388 . S
C1191 C1190 1.366 . S
C1191 C1195 1.385 . S
C1192 H1173 0.951 . S
C1192 C1190 1.388 . S
C1192 C1193 1.366 . S
C1193 C1192 1.366 . S
C1193 C1194 1.414 . S
C1193 C1196 1.499 . S
C1194 H1174 0.950 . S
C1194 C1193 1.414 . S
C1194 C1195 1.374 . S
C1195 H1175 0.950 . S
C1195 C1191 1.385 . S
C1195 C1194 1.374 . S
C1196 C1193 1.499 . S
C1196 C1197 1.373 . S
C1196 C1198 1.389 . S
C1197 H1176 0.950 . S
C1197 C1196 1.373 . S
C1197 C1213 1.377 . S
C1198 C1196 1.389 . S
C1198 C1199 1.524 . S
C1198 C1212 1.377 . S
C1199 C1198 1.524 . S
C1199 C1200 1.397 . S
C1199 C1204 1.363 . S
C1200 H1177 0.950 . S
C1200 C1199 1.397 . S
C1200 C1201 1.334 . S
C1201 H1178 0.950 . S
C1201 C1200 1.334 . S
C1201 C1202 1.287 . S
C1202 C1201 1.287 . S
C1202 C1203 1.524 . S
C1202 H1221 0.913 . S
C1203 H1179 0.950 . S
C1203 C1202 1.524 . S
C1203 C1204 1.415 . S
C1204 H1180 0.950 . S
C1204 C1199 1.363 . S
C1204 C1203 1.415 . S
C1205 H1181 0.951 . S
C1205 C1206 1.366 . S
C1205 C1207 1.388 . S
C1206 C1205 1.366 . S
C1206 C1210 1.385 . S
C1207 H1182 0.951 . S
C1207 C1205 1.388 . S
C1207 C1208 1.366 . S
C1208 C1207 1.366 . S
C1208 C1209 1.414 . S
C1208 C1211 1.499 . S
C1209 H1183 0.950 . S
C1209 C1208 1.414 . S
C1209 C1210 1.374 . S
C1210 H1184 0.950 . S
C1210 C1206 1.385 . S
C1210 C1209 1.374 . S
C1211 C1208 1.499 . S
C1211 C1212 1.373 . S
C1211 C1213 1.389 . S
C1212 H1185 0.950 . S
C1212 C1198 1.377 . S
C1212 C1211 1.373 . S
C1213 C1197 1.377 . S
C1213 C1211 1.389 . S
C1213 C1214 1.524 . S
C1214 C1213 1.524 . S
C1214 C1215 1.397 . S
C1214 C1219 1.363 . S
C1215 H1186 0.950 . S
C1215 C1214 1.397 . S
C1215 C1216 1.334 . S
C1216 H1187 0.950 . S
C1216 C1215 1.334 . S
C1216 C1217 1.287 . S
C1217 C1216 1.287 . S
C1217 C1218 1.524 . S
C1217 H1220 0.999 . S
C1218 H1188 0.950 . S
C1218 C1217 1.524 . S
C1218 C1219 1.415 . S
C1219 H1189 0.950 . S
C1219 C1214 1.363 . S
C1219 C1218 1.415 . S
H1220 C1217 0.999 . S
H1221 C1202 0.913 . S
H1222 C1240 0.951 . S
H1223 C1242 0.951 . S
H1224 C1244 0.950 . S
H1225 C1245 0.950 . S
H1226 C1247 0.950 . S
H1227 C1250 0.950 . S
H1228 C1251 0.950 . S
H1229 C1253 0.950 . S
H1230 C1254 0.950 . S
H1231 C1255 0.951 . S
H1232 C1257 0.951 . S
H1233 C1259 0.950 . S
H1234 C1260 0.950 . S
H1235 C1262 0.950 . S
H1236 C1265 0.950 . S
H1237 C1266 0.950 . S
H1238 C1268 0.950 . S
H1239 C1269 0.950 . S
C1240 H1222 0.951 . S
C1240 C1241 1.366 . S
C1240 C1242 1.388 . S
C1241 C1240 1.366 . S
C1241 C1245 1.385 . S
C1242 H1223 0.951 . S
C1242 C1240 1.388 . S
C1242 C1243 1.366 . S
C1243 C1242 1.366 . S
C1243 C1244 1.414 . S
C1243 C1246 1.499 . S
C1244 H1224 0.950 . S
C1244 C1243 1.414 . S
C1244 C1245 1.374 . S
C1245 H1225 0.950 . S
C1245 C1241 1.385 . S
C1245 C1244 1.374 . S
C1246 C1243 1.499 . S
C1246 C1247 1.373 . S
C1246 C1248 1.389 . S
C1247 H1226 0.950 . S
C1247 C1246 1.373 . S
C1247 C1263 1.377 . S
C1248 C1246 1.389 . S
C1248 C1249 1.524 . S
C1248 C1262 1.377 . S
C1249 C1248 1.524 . S
C1249 C1250 1.397 . S
C1249 C1254 1.363 . S
C1250 H1227 0.950 . S
C1250 C1249 1.397 . S
C1250 C1251 1.334 . S
C1251 H1228 0.950 . S
C1251 C1250 1.334 . S
C1251 C1252 1.287 . S
C1252 C1251 1.287 . S
C1252 C1253 1.524 . S
C1252 H1271 0.913 . S
C1253 H1229 0.950 . S
C1253 C1252 1.524 . S
C1253 C1254 1.415 . S
C1254 H1230 0.950 . S
C1254 C1249 1.363 . S
C1254 C1253 1.415 . S
C1255 H1231 0.951 . S
C1255 C1256 1.366 . S
C1255 C1257 1.388 . S
C1256 C1255 1.366 . S
C1256 C1260 1.385 . S
C1257 H1232 0.951 . S
C1257 C1255 1.388 . S
C1257 C1258 1.366 . S
C1258 C1257 1.366 . S
C1258 C1259 1.414 . S
C1258 C1261 1.499 . S
C1259 H1233 0.950 . S
C1259 C1258 1.414 . S
C1259 C1260 1.374 . S
C1260 H1234 0.950 . S
C1260 C1256 1.385 . S
C1260 C1259 1.374 . S
C1261 C1258 1.499 . S
C1261 C1262 1.373 . S
C1261 C1263 1.389 . S
C1262 H1235 0.950 . S
C1262 C1248 1.377 . S
C1262 C1261 1.373 . S
C1263 C1247 1.377 . S
C1263 C1261 1.389 . S
C1263 C1264 1.524 . S
C1264 C1263 1.524 . S
C1264 C1265 1.397 . S
C1264 C1269 1.363 . S
C1265 H1236 0.950 . S
C1265 C1264 1.397 . S
C1265 C1266 1.334 . S
C1266 H1237 0.950 . S
C1266 C1265 1.334 . S
C1266 C1267 1.287 . S
C1267 C1266 1.287 . S
C1267 C1268 1.524 . S
C1267 H1270 0.999 . S
C1268 H1238 0.950 . S
C1268 C1267 1.524 . S
C1268 C1269 1.415 . S
C1269 H1239 0.950 . S
C1269 C1264 1.363 . S
C1269 C1268 1.415 . S
H1270 C1267 0.999 . S
H1271 C1252 0.913 . S
H1272 C1290 0.951 . S
H1273 C1292 0.951 . S
H1274 C1294 0.950 . S
H1275 C1295 0.950 . S
H1276 C1297 0.950 . S
H1277 C1300 0.950 . S
H1278 C1301 0.950 . S
H1279 C1303 0.950 . S
H1280 C1304 0.950 . S
H1281 C1305 0.951 . S
H1282 C1307 0.951 . S
H1283 C1309 0.950 . S
H1284 C1310 0.950 . S
H1285 C1312 0.950 . S
H1286 C1315 0.950 . S
H1287 C1316 0.950 . S
H1288 C1318 0.950 . S
H1289 C1319 0.950 . S
C1290 H1272 0.951 . S
C1290 C1291 1.366 . S
C1290 C1292 1.388 . S
C1291 C1290 1.366 . S
C1291 C1295 1.385 . S
C1292 H1273 0.951 . S
C1292 C1290 1.388 . S
C1292 C1293 1.366 . S
C1293 C1292 1.366 . S
C1293 C1294 1.414 . S
C1293 C1296 1.499 . S
C1294 H1274 0.950 . S
C1294 C1293 1.414 . S
C1294 C1295 1.374 . S
C1295 H1275 0.950 . S
C1295 C1291 1.385 . S
C1295 C1294 1.374 . S
C1296 C1293 1.499 . S
C1296 C1297 1.373 . S
C1296 C1298 1.389 . S
C1297 H1276 0.950 . S
C1297 C1296 1.373 . S
C1297 C1313 1.377 . S
C1298 C1296 1.389 . S
C1298 C1299 1.524 . S
C1298 C1312 1.377 . S
C1299 C1298 1.524 . S
C1299 C1300 1.397 . S
C1299 C1304 1.363 . S
C1300 H1277 0.950 . S
C1300 C1299 1.397 . S
C1300 C1301 1.334 . S
C1301 H1278 0.950 . S
C1301 C1300 1.334 . S
C1301 C1302 1.287 . S
C1302 C1301 1.287 . S
C1302 C1303 1.524 . S
C1302 H1321 0.913 . S
C1303 H1279 0.950 . S
C1303 C1302 1.524 . S
C1303 C1304 1.415 . S
C1304 H1280 0.950 . S
C1304 C1299 1.363 . S
C1304 C1303 1.415 . S
C1305 H1281 0.951 . S
C1305 C1306 1.366 . S
C1305 C1307 1.388 . S
C1306 C1305 1.366 . S
C1306 C1310 1.385 . S
C1307 H1282 0.951 . S
C1307 C1305 1.388 . S
C1307 C1308 1.366 . S
C1308 C1307 1.366 . S
C1308 C1309 1.414 . S
C1308 C1311 1.499 . S
C1309 H1283 0.950 . S
C1309 C1308 1.414 . S
C1309 C1310 1.374 . S
C1310 H1284 0.950 . S
C1310 C1306 1.385 . S
C1310 C1309 1.374 . S
C1311 C1308 1.499 . S
C1311 C1312 1.373 . S
C1311 C1313 1.389 . S
C1312 H1285 0.950 . S
C1312 C1298 1.377 . S
C1312 C1311 1.373 . S
C1313 C1297 1.377 . S
C1313 C1311 1.389 . S
C1313 C1314 1.524 . S
C1314 C1313 1.524 . S
C1314 C1315 1.397 . S
C1314 C1319 1.363 . S
C1315 H1286 0.950 . S
C1315 C1314 1.397 . S
C1315 C1316 1.334 . S
C1316 H1287 0.950 . S
C1316 C1315 1.334 . S
C1316 C1317 1.287 . S
C1317 C1316 1.287 . S
C1317 C1318 1.524 . S
C1317 H1320 0.999 . S
C1318 H1288 0.950 . S
C1318 C1317 1.524 . S
C1318 C1319 1.415 . S
C1319 H1289 0.950 . S
C1319 C1314 1.363 . S
C1319 C1318 1.415 . S
H1320 C1317 0.999 . S
H1321 C1302 0.913 . S
H1322 C1340 0.951 . S
H1323 C1342 0.951 . S
H1324 C1344 0.950 . S
H1325 C1345 0.950 . S
H1326 C1347 0.950 . S
H1327 C1350 0.950 . S
H1328 C1351 0.950 . S
H1329 C1353 0.950 . S
H1330 C1354 0.950 . S
H1331 C1355 0.951 . S
H1332 C1357 0.951 . S
H1333 C1359 0.950 . S
H1334 C1360 0.950 . S
H1335 C1362 0.950 . S
H1336 C1365 0.950 . S
H1337 C1366 0.950 . S
H1338 C1368 0.950 . S
H1339 C1369 0.950 . S
C1340 H1322 0.951 . S
C1340 C1341 1.366 . S
C1340 C1342 1.388 . S
C1341 C1340 1.366 . S
C1341 C1345 1.385 . S
C1342 H1323 0.951 . S
C1342 C1340 1.388 . S
C1342 C1343 1.366 . S
C1343 C1342 1.366 . S
C1343 C1344 1.414 . S
C1343 C1346 1.499 . S
C1344 H1324 0.950 . S
C1344 C1343 1.414 . S
C1344 C1345 1.374 . S
C1345 H1325 0.950 . S
C1345 C1341 1.385 . S
C1345 C1344 1.374 . S
C1346 C1343 1.499 . S
C1346 C1347 1.373 . S
C1346 C1348 1.389 . S
C1347 H1326 0.950 . S
C1347 C1346 1.373 . S
C1347 C1363 1.377 . S
C1348 C1346 1.389 . S
C1348 C1349 1.524 . S
C1348 C1362 1.377 . S
C1349 C1348 1.524 . S
C1349 C1350 1.397 . S
C1349 C1354 1.363 . S
C1350 H1327 0.950 . S
C1350 C1349 1.397 . S
C1350 C1351 1.334 . S
C1351 H1328 0.950 . S
C1351 C1350 1.334 . S
C1351 C1352 1.287 . S
C1352 C1351 1.287 . S
C1352 C1353 1.524 . S
C1352 H1371 0.913 . S
C1353 H1329 0.950 . S
C1353 C1352 1.524 . S
C1353 C1354 1.415 . S
C1354 H1330 0.950 . S
C1354 C1349 1.363 . S
C1354 C1353 1.415 . S
C1355 H1331 0.951 . S
C1355 C1356 1.366 . S
C1355 C1357 1.388 . S
C1356 C1355 1.366 . S
C1356 C1360 1.385 . S
C1357 H1332 0.951 . S
C1357 C1355 1.388 . S
C1357 C1358 1.366 . S
C1358 C1357 1.366 . S
C1358 C1359 1.414 . S
C1358 C1361 1.499 . S
C1359 H1333 0.950 . S
C1359 C1358 1.414 . S
C1359 C1360 1.374 . S
C1360 H1334 0.950 . S
C1360 C1356 1.385 . S
C1360 C1359 1.374 . S
C1361 C1358 1.499 . S
C1361 C1362 1.373 . S
C1361 C1363 1.389 . S
C1362 H1335 0.950 . S
C1362 C1348 1.377 . S
C1362 C1361 1.373 . S
C1363 C1347 1.377 . S
C1363 C1361 1.389 . S
C1363 C1364 1.524 . S
C1364 C1363 1.524 . S
C1364 C1365 1.397 . S
C1364 C1369 1.363 . S
C1365 H1336 0.950 . S
C1365 C1364 1.397 . S
C1365 C1366 1.334 . S
C1366 H1337 0.950 . S
C1366 C1365 1.334 . S
C1366 C1367 1.287 . S
C1367 C1366 1.287 . S
C1367 C1368 1.524 . S
C1367 H1370 0.999 . S
C1368 H1338 0.950 . S
C1368 C1367 1.524 . S
C1368 C1369 1.415 . S
C1369 H1339 0.950 . S
C1369 C1364 1.363 . S
C1369 C1368 1.415 . S
H1370 C1367 0.999 . S
H1371 C1352 0.913 . S
H1372 C1390 0.951 . S
H1373 C1392 0.951 . S
H1374 C1394 0.950 . S
H1375 C1395 0.950 . S
H1376 C1397 0.950 . S
H1377 C1400 0.950 . S
H1378 C1401 0.950 . S
H1379 C1403 0.950 . S
H1380 C1404 0.950 . S
H1381 C1405 0.951 . S
H1382 C1407 0.951 . S
H1383 C1409 0.950 . S
H1384 C1410 0.950 . S
H1385 C1412 0.950 . S
H1386 C1415 0.950 . S
H1387 C1416 0.950 . S
H1388 C1418 0.950 . S
H1389 C1419 0.950 . S
C1390 H1372 0.951 . S
C1390 C1391 1.366 . S
C1390 C1392 1.388 . S
C1391 C1390 1.366 . S
C1391 C1395 1.385 . S
C1392 H1373 0.951 . S
C1392 C1390 1.388 . S
C1392 C1393 1.366 . S
C1393 C1392 1.366 . S
C1393 C1394 1.414 . S
C1393 C1396 1.499 . S
C1394 H1374 0.950 . S
C1394 C1393 1.414 . S
C1394 C1395 1.374 . S
C1395 H1375 0.950 . S
C1395 C1391 1.385 . S
C1395 C1394 1.374 . S
C1396 C1393 1.499 . S
C1396 C1397 1.373 . S
C1396 C1398 1.389 . S
C1397 H1376 0.950 . S
C1397 C1396 1.373 . S
C1397 C1413 1.377 . S
C1398 C1396 1.389 . S
C1398 C1399 1.524 . S
C1398 C1412 1.377 . S
C1399 C1398 1.524 . S
C1399 C1400 1.397 . S
C1399 C1404 1.363 . S
C1400 H1377 0.950 . S
C1400 C1399 1.397 . S
C1400 C1401 1.334 . S
C1401 H1378 0.950 . S
C1401 C1400 1.334 . S
C1401 C1402 1.287 . S
C1402 C1401 1.287 . S
C1402 C1403 1.524 . S
C1402 H1421 0.913 . S
C1403 H1379 0.950 . S
C1403 C1402 1.524 . S
C1403 C1404 1.415 . S
C1404 H1380 0.950 . S
C1404 C1399 1.363 . S
C1404 C1403 1.415 . S
C1405 H1381 0.951 . S
C1405 C1406 1.366 . S
C1405 C1407 1.388 . S
C1406 C1405 1.366 . S
C1406 C1410 1.385 . S
C1407 H1382 0.951 . S
C1407 C1405 1.388 . S
C1407 C1408 1.366 . S
C1408 C1407 1.366 . S
C1408 C1409 1.414 . S
C1408 C1411 1.499 . S
C1409 H1383 0.950 . S
C1409 C1408 1.414 . S
C1409 C1410 1.374 . S
C1410 H1384 0.950 . S
C1410 C1406 1.385 . S
C1410 C1409 1.374 . S
C1411 C1408 1.499 . S
C1411 C1412 1.373 . S
C1411 C1413 1.389 . S
C1412 H1385 0.950 . S
C1412 C1398 1.377 . S
C1412 C1411 1.373 . S
C1413 C1397 1.377 . S
C1413 C1411 1.389 . S
C1413 C1414 1.524 . S
C1414 C1413 1.524 . S
C1414 C1415 1.397 . S
C1414 C1419 1.363 . S
C1415 H1386 0.950 . S
C1415 C1414 1.397 . S
C1415 C1416 1.334 . S
C1416 H1387 0.950 . S
C1416 C1415 1.334 . S
C1416 C1417 1.287 . S
C1417 C1416 1.287 . S
C1417 C1418 1.524 . S
C1417 H1420 0.999 . S
C1418 H1388 0.950 . S
C1418 C1417 1.524 . S
C1418 C1419 1.415 . S
C1419 H1389 0.950 . S
C1419 C1414 1.363 . S
C1419 C1418 1.415 . S
H1420 C1417 0.999 . S
H1421 C1402 0.913 . S
H1422 C1440 0.951 . S
H1423 C1442 0.951 . S
H1424 C1444 0.950 . S
H1425 C1445 0.950 . S
H1426 C1447 0.950 . S
H1427 C1450 0.950 . S
H1428 C1451 0.950 . S
H1429 C1453 0.950 . S
H1430 C1454 0.950 . S
H1431 C1455 0.951 . S
H1432 C1457 0.951 . S
H1433 C1459 0.950 . S
H1434 C1460 0.950 . S
H1435 C1462 0.950 . S
H1436 C1465 0.950 . S
H1437 C1466 0.950 . S
H1438 C1468 0.950 . S
H1439 C1469 0.950 . S
C1440 H1422 0.951 . S
C1440 C1441 1.366 . S
C1440 C1442 1.388 . S
C1441 C1440 1.366 . S
C1441 C1445 1.385 . S
C1442 H1423 0.951 . S
C1442 C1440 1.388 . S
C1442 C1443 1.366 . S
C1443 C1442 1.366 . S
C1443 C1444 1.414 . S
C1443 C1446 1.499 . S
C1444 H1424 0.950 . S
C1444 C1443 1.414 . S
C1444 C1445 1.374 . S
C1445 H1425 0.950 . S
C1445 C1441 1.385 . S
C1445 C1444 1.374 . S
C1446 C1443 1.499 . S
C1446 C1447 1.373 . S
C1446 C1448 1.389 . S
C1447 H1426 0.950 . S
C1447 C1446 1.373 . S
C1447 C1463 1.377 . S
C1448 C1446 1.389 . S
C1448 C1449 1.524 . S
C1448 C1462 1.377 . S
C1449 C1448 1.524 . S
C1449 C1450 1.397 . S
C1449 C1454 1.363 . S
C1450 H1427 0.950 . S
C1450 C1449 1.397 . S
C1450 C1451 1.334 . S
C1451 H1428 0.950 . S
C1451 C1450 1.334 . S
C1451 C1452 1.287 . S
C1452 C1451 1.287 . S
C1452 C1453 1.524 . S
C1452 H1471 0.913 . S
C1453 H1429 0.950 . S
C1453 C1452 1.524 . S
C1453 C1454 1.415 . S
C1454 H1430 0.950 . S
C1454 C1449 1.363 . S
C1454 C1453 1.415 . S
C1455 H1431 0.951 . S
C1455 C1456 1.366 . S
C1455 C1457 1.388 . S
C1456 C1455 1.366 . S
C1456 C1460 1.385 . S
C1457 H1432 0.951 . S
C1457 C1455 1.388 . S
C1457 C1458 1.366 . S
C1458 C1457 1.366 . S
C1458 C1459 1.414 . S
C1458 C1461 1.499 . S
C1459 H1433 0.950 . S
C1459 C1458 1.414 . S
C1459 C1460 1.374 . S
C1460 H1434 0.950 . S
C1460 C1456 1.385 . S
C1460 C1459 1.374 . S
C1461 C1458 1.499 . S
C1461 C1462 1.373 . S
C1461 C1463 1.389 . S
C1462 H1435 0.950 . S
C1462 C1448 1.377 . S
C1462 C1461 1.373 . S
C1463 C1447 1.377 . S
C1463 C1461 1.389 . S
C1463 C1464 1.524 . S
C1464 C1463 1.524 . S
C1464 C1465 1.397 . S
C1464 C1469 1.363 . S
C1465 H1436 0.950 . S
C1465 C1464 1.397 . S
C1465 C1466 1.334 . S
C1466 H1437 0.950 . S
C1466 C1465 1.334 . S
C1466 C1467 1.287 . S
C1467 C1466 1.287 . S
C1467 C1468 1.524 . S
C1467 H1470 0.999 . S
C1468 H1438 0.950 . S
C1468 C1467 1.524 . S
C1468 C1469 1.415 . S
C1469 H1439 0.950 . S
C1469 C1464 1.363 . S
C1469 C1468 1.415 . S
H1470 C1467 0.999 . S
H1471 C1452 0.913 . S
H1472 C1490 0.951 . S
H1473 C1492 0.951 . S
H1474 C1494 0.950 . S
H1475 C1495 0.950 . S
H1476 C1497 0.950 . S
H1477 C1500 0.950 . S
H1478 C1501 0.950 . S
H1479 C1503 0.950 . S
H1480 C1504 0.950 . S
H1481 C1505 0.951 . S
H1482 C1507 0.951 . S
H1483 C1509 0.950 . S
H1484 C1510 0.950 . S
H1485 C1512 0.950 . S
H1486 C1515 0.950 . S
H1487 C1516 0.950 . S
H1488 C1518 0.950 . S
H1489 C1519 0.950 . S
C1490 H1472 0.951 . S
C1490 C1491 1.366 . S
C1490 C1492 1.388 . S
C1491 C1490 1.366 . S
C1491 C1495 1.385 . S
C1492 H1473 0.951 . S
C1492 C1490 1.388 . S
C1492 C1493 1.366 . S
C1493 C1492 1.366 . S
C1493 C1494 1.414 . S
C1493 C1496 1.499 . S
C1494 H1474 0.950 . S
C1494 C1493 1.414 . S
C1494 C1495 1.374 . S
C1495 H1475 0.950 . S
C1495 C1491 1.385 . S
C1495 C1494 1.374 . S
C1496 C1493 1.499 . S
C1496 C1497 1.373 . S
C1496 C1498 1.389 . S
C1497 H1476 0.950 . S
C1497 C1496 1.373 . S
C1497 C1513 1.377 . S
C1498 C1496 1.389 . S
C1498 C1499 1.524 . S
C1498 C1512 1.377 . S
C1499 C1498 1.524 . S
C1499 C1500 1.397 . S
C1499 C1504 1.363 . S
C1500 H1477 0.950 . S
C1500 C1499 1.397 . S
C1500 C1501 1.334 . S
C1501 H1478 0.950 . S
C1501 C1500 1.334 . S
C1501 C1502 1.287 . S
C1502 C1501 1.287 . S
C1502 C1503 1.524 . S
C1502 H1521 0.913 . S
C1503 H1479 0.950 . S
C1503 C1502 1.524 . S
C1503 C1504 1.415 . S
C1504 H1480 0.950 . S
C1504 C1499 1.363 . S
C1504 C1503 1.415 . S
C1505 H1481 0.951 . S
C1505 C1506 1.366 . S
C1505 C1507 1.388 . S
C1506 C1505 1.366 . S
C1506 C1510 1.385 . S
C1507 H1482 0.951 . S
C1507 C1505 1.388 . S
C1507 C1508 1.366 . S
C1508 C1507 1.366 . S
C1508 C1509 1.414 . S
C1508 C1511 1.499 . S
C1509 H1483 0.950 . S
C1509 C1508 1.414 . S
C1509 C1510 1.374 . S
C1510 H1484 0.950 . S
C1510 C1506 1.385 . S
C1510 C1509 1.374 . S
C1511 C1508 1.499 . S
C1511 C1512 1.373 . S
C1511 C1513 1.389 . S
C1512 H1485 0.950 . S
C1512 C1498 1.377 . S
C1512 C1511 1.373 . S
C1513 C1497 1.377 . S
C1513 C1511 1.389 . S
C1513 C1514 1.524 . S
C1514 C1513 1.524 . S
C1514 C1515 1.397 . S
C1514 C1519 1.363 . S
C1515 H1486 0.950 . S
C1515 C1514 1.397 . S
C1515 C1516 1.334 . S
C1516 H1487 0.950 . S
C1516 C1515 1.334 . S
C1516 C1517 1.287 . S
C1517 C1516 1.287 . S
C1517 C1518 1.524 . S
C1517 H1520 0.999 . S
C1518 H1488 0.950 . S
C1518 C1517 1.524 . S
C1518 C1519 1.415 . S
C1519 H1489 0.950 . S
C1519 C1514 1.363 . S
C1519 C1518 1.415 . S
H1520 C1517 0.999 . S
H1521 C1502 0.913 . S
H1522 C1540 0.951 . S
H1523 C1542 0.951 . S
H1524 C1544 0.950 . S
H1525 C1545 0.950 . S
H1526 C1547 0.950 . S
H1527 C1550 0.950 . S
H1528 C1551 0.950 . S
H1529 C1553 0.950 . S
H1530 C1554 0.950 . S
H1531 C1555 0.951 . S
H1532 C1557 0.951 . S
H1533 C1559 0.950 . S
H1534 C1560 0.950 . S
H1535 C1562 0.950 . S
H1536 C1565 0.950 . S
H1537 C1566 0.950 . S
H1538 C1568 0.950 . S
H1539 C1569 0.950 . S
C1540 H1522 0.951 . S
C1540 C1541 1.366 . S
C1540 C1542 1.388 . S
C1541 C1540 1.366 . S
C1541 C1545 1.385 . S
C1542 H1523 0.951 . S
C1542 C1540 1.388 . S
C1542 C1543 1.366 . S
C1543 C1542 1.366 . S
C1543 C1544 1.414 . S
C1543 C1546 1.499 . S
C1544 H1524 0.950 . S
C1544 C1543 1.414 . S
C1544 C1545 1.374 . S
C1545 H1525 0.950 . S
C1545 C1541 1.385 . S
C1545 C1544 1.374 . S
C1546 C1543 1.499 . S
C1546 C1547 1.373 . S
C1546 C1548 1.389 . S
C1547 H1526 0.950 . S
C1547 C1546 1.373 . S
C1547 C1563 1.377 . S
C1548 C1546 1.389 . S
C1548 C1549 1.524 . S
C1548 C1562 1.377 . S
C1549 C1548 1.524 . S
C1549 C1550 1.397 . S
C1549 C1554 1.363 . S
C1550 H1527 0.950 . S
C1550 C1549 1.397 . S
C1550 C1551 1.334 . S
C1551 H1528 0.950 . S
C1551 C1550 1.334 . S
C1551 C1552 1.287 . S
C1552 C1551 1.287 . S
C1552 C1553 1.524 . S
C1552 H1571 0.913 . S
C1553 H1529 0.950 . S
C1553 C1552 1.524 . S
C1553 C1554 1.415 . S
C1554 H1530 0.950 . S
C1554 C1549 1.363 . S
C1554 C1553 1.415 . S
C1555 H1531 0.951 . S
C1555 C1556 1.366 . S
C1555 C1557 1.388 . S
C1556 C1555 1.366 . S
C1556 C1560 1.385 . S
C1557 H1532 0.951 . S
C1557 C1555 1.388 . S
C1557 C1558 1.366 . S
C1558 C1557 1.366 . S
C1558 C1559 1.414 . S
C1558 C1561 1.499 . S
C1559 H1533 0.950 . S
C1559 C1558 1.414 . S
C1559 C1560 1.374 . S
C1560 H1534 0.950 . S
C1560 C1556 1.385 . S
C1560 C1559 1.374 . S
C1561 C1558 1.499 . S
C1561 C1562 1.373 . S
C1561 C1563 1.389 . S
C1562 H1535 0.950 . S
C1562 C1548 1.377 . S
C1562 C1561 1.373 . S
C1563 C1547 1.377 . S
C1563 C1561 1.389 . S
C1563 C1564 1.524 . S
C1564 C1563 1.524 . S
C1564 C1565 1.397 . S
C1564 C1569 1.363 . S
C1565 H1536 0.950 . S
C1565 C1564 1.397 . S
C1565 C1566 1.334 . S
C1566 H1537 0.950 . S
C1566 C1565 1.334 . S
C1566 C1567 1.287 . S
C1567 C1566 1.287 . S
C1567 C1568 1.524 . S
C1567 H1570 0.999 . S
C1568 H1538 0.950 . S
C1568 C1567 1.524 . S
C1568 C1569 1.415 . S
C1569 H1539 0.950 . S
C1569 C1564 1.363 . S
C1569 C1568 1.415 . S
H1570 C1567 0.999 . S
H1571 C1552 0.913 . S
C391 C247 1.350 . S
C406 C304 1.305 . S
C456 C312 1.303 . S
C441 C283 1.351 . S
C506 C316 1.286 . S
C491 C175 1.340 . S
C541 C211 1.340 . S
C556 C292 1.286 . S
C606 C333 1.304 . S
C591 C103 1.361 . S
C656 C367 1.304 . S
C641 C139 1.361 . S
C691 C31 1.351 . S
C706 C355 1.287 . S
C741 C67 1.351 . S
C756 C337 1.286 . S
C806 C291 1.266 . S
C791 C37 1.419 1_554 S
C856 C325 1.267 . S
C841 C1 1.418 . S
C906 C329 1.268 . S
C891 C109 1.423 1_556 S
C956 C307 1.268 . S
C941 C73 1.423 . S
C1006 C346 1.266 . S
C991 C181 1.411 1_556 S
C1041 C145 1.411 . S
C1056 C354 1.267 . S
C1106 C370 1.270 . S
C1091 C253 1.416 1_554 S
C1141 C217 1.417 . S
C1156 C350 1.268 . S
C1206 C295 1.311 . S
C1191 C25 1.492 . S
C1256 C313 1.311 . S
C1241 C61 1.492 . S
C1291 C97 1.476 . S
C1306 C328 1.305 . S
C1356 C308 1.303 . S
C1341 C133 1.476 . S
C1406 C334 1.311 . S
C1391 C169 1.481 . S
C1441 C205 1.482 . S
C1456 C358 1.310 . S
C1491 C241 1.468 . S
C1506 C371 1.303 . S
C1541 C277 1.468 . S
C1556 C349 1.305 . S
