# Generated by pormake.
# Topology ctn, (3,4)-cn, num edge types: 1
# Building blocks:
#     Node 0, Type 0, BuildingBlock: BELTOD_clean_linker_0, # of connection points: 3
#     Node 1, Type 0, BuildingBlock: BELTOD_clean_linker_0, # of connection points: 3
#     Node 2, Type 0, BuildingBlock: BELTOD_clean_linker_0, # of connection points: 3
#     Node 3, Type 0, BuildingBlock: BELTOD_clean_linker_0, # of connection points: 3
#     Node 4, Type 0, BuildingBlock: BELTOD_clean_linker_0, # of connection points: 3
#     Node 5, Type 0, BuildingBlock: BELTOD_clean_linker_0, # of connection points: 3
#     Node 6, Type 0, BuildingBlock: BELTOD_clean_linker_0, # of connection points: 3
#     Node 7, Type 0, BuildingBlock: BELTOD_clean_linker_0, # of connection points: 3
#     Node 8, Type 0, BuildingBlock: BELTOD_clean_linker_0, # of connection points: 3
#     Node 9, Type 0, BuildingBlock: BELTOD_clean_linker_0, # of connection points: 3
#     Node 10, Type 0, BuildingBlock: BELTOD_clean_linker_0, # of connection points: 3
#     Node 11, Type 0, BuildingBlock: BELTOD_clean_linker_0, # of connection points: 3
#     Node 12, Type 0, BuildingBlock: BELTOD_clean_linker_0, # of connection points: 3
#     Node 13, Type 0, BuildingBlock: BELTOD_clean_linker_0, # of connection points: 3
#     Node 14, Type 0, BuildingBlock: BELTOD_clean_linker_0, # of connection points: 3
#     Node 15, Type 0, BuildingBlock: BELTOD_clean_linker_0, # of connection points: 3
#     Node 16, Type 1, BuildingBlock: NAHDIM_clean_sbu_0, # of connection points: 4
#     Node 17, Type 1, BuildingBlock: NAHDIM_clean_sbu_0, # of connection points: 4
#     Node 18, Type 1, BuildingBlock: NAHDIM_clean_sbu_0, # of connection points: 4
#     Node 19, Type 1, BuildingBlock: NAHDIM_clean_sbu_0, # of connection points: 4
#     Node 20, Type 1, BuildingBlock: NAHDIM_clean_sbu_0, # of connection points: 4
#     Node 21, Type 1, BuildingBlock: NAHDIM_clean_sbu_0, # of connection points: 4
#     Node 22, Type 1, BuildingBlock: NAHDIM_clean_sbu_0, # of connection points: 4
#     Node 23, Type 1, BuildingBlock: NAHDIM_clean_sbu_0, # of connection points: 4
#     Node 24, Type 1, BuildingBlock: NAHDIM_clean_sbu_0, # of connection points: 4
#     Node 25, Type 1, BuildingBlock: NAHDIM_clean_sbu_0, # of connection points: 4
#     Node 26, Type 1, BuildingBlock: NAHDIM_clean_sbu_0, # of connection points: 4
#     Node 27, Type 1, BuildingBlock: NAHDIM_clean_sbu_0, # of connection points: 4
#     Edge 28, Type (0, 1), BuildingBlock: XIVTED_clean_linker_0, # of connection points: 2
#     Edge 29, Type (0, 1), BuildingBlock: XIVTED_clean_linker_0, # of connection points: 2
#     Edge 30, Type (0, 1), BuildingBlock: XIVTED_clean_linker_0, # of connection points: 2
#     Edge 31, Type (0, 1), BuildingBlock: XIVTED_clean_linker_0, # of connection points: 2
#     Edge 32, Type (0, 1), BuildingBlock: XIVTED_clean_linker_0, # of connection points: 2
#     Edge 33, Type (0, 1), BuildingBlock: XIVTED_clean_linker_0, # of connection points: 2
#     Edge 34, Type (0, 1), BuildingBlock: XIVTED_clean_linker_0, # of connection points: 2
#     Edge 35, Type (0, 1), BuildingBlock: XIVTED_clean_linker_0, # of connection points: 2
#     Edge 36, Type (0, 1), BuildingBlock: XIVTED_clean_linker_0, # of connection points: 2
#     Edge 37, Type (0, 1), BuildingBlock: XIVTED_clean_linker_0, # of connection points: 2
#     Edge 38, Type (0, 1), BuildingBlock: XIVTED_clean_linker_0, # of connection points: 2
#     Edge 39, Type (0, 1), BuildingBlock: XIVTED_clean_linker_0, # of connection points: 2
#     Edge 40, Type (0, 1), BuildingBlock: XIVTED_clean_linker_0, # of connection points: 2
#     Edge 41, Type (0, 1), BuildingBlock: XIVTED_clean_linker_0, # of connection points: 2
#     Edge 42, Type (0, 1), BuildingBlock: XIVTED_clean_linker_0, # of connection points: 2
#     Edge 43, Type (0, 1), BuildingBlock: XIVTED_clean_linker_0, # of connection points: 2
#     Edge 44, Type (0, 1), BuildingBlock: XIVTED_clean_linker_0, # of connection points: 2
#     Edge 45, Type (0, 1), BuildingBlock: XIVTED_clean_linker_0, # of connection points: 2
#     Edge 46, Type (0, 1), BuildingBlock: XIVTED_clean_linker_0, # of connection points: 2
#     Edge 47, Type (0, 1), BuildingBlock: XIVTED_clean_linker_0, # of connection points: 2
#     Edge 48, Type (0, 1), BuildingBlock: XIVTED_clean_linker_0, # of connection points: 2
#     Edge 49, Type (0, 1), BuildingBlock: XIVTED_clean_linker_0, # of connection points: 2
#     Edge 50, Type (0, 1), BuildingBlock: XIVTED_clean_linker_0, # of connection points: 2
#     Edge 51, Type (0, 1), BuildingBlock: XIVTED_clean_linker_0, # of connection points: 2
#     Edge 52, Type (0, 1), BuildingBlock: XIVTED_clean_linker_0, # of connection points: 2
#     Edge 53, Type (0, 1), BuildingBlock: XIVTED_clean_linker_0, # of connection points: 2
#     Edge 54, Type (0, 1), BuildingBlock: XIVTED_clean_linker_0, # of connection points: 2
#     Edge 55, Type (0, 1), BuildingBlock: XIVTED_clean_linker_0, # of connection points: 2
#     Edge 56, Type (0, 1), BuildingBlock: XIVTED_clean_linker_0, # of connection points: 2
#     Edge 57, Type (0, 1), BuildingBlock: XIVTED_clean_linker_0, # of connection points: 2
#     Edge 58, Type (0, 1), BuildingBlock: XIVTED_clean_linker_0, # of connection points: 2
#     Edge 59, Type (0, 1), BuildingBlock: XIVTED_clean_linker_0, # of connection points: 2
#     Edge 60, Type (0, 1), BuildingBlock: XIVTED_clean_linker_0, # of connection points: 2
#     Edge 61, Type (0, 1), BuildingBlock: XIVTED_clean_linker_0, # of connection points: 2
#     Edge 62, Type (0, 1), BuildingBlock: XIVTED_clean_linker_0, # of connection points: 2
#     Edge 63, Type (0, 1), BuildingBlock: XIVTED_clean_linker_0, # of connection points: 2
#     Edge 64, Type (0, 1), BuildingBlock: XIVTED_clean_linker_0, # of connection points: 2
#     Edge 65, Type (0, 1), BuildingBlock: XIVTED_clean_linker_0, # of connection points: 2
#     Edge 66, Type (0, 1), BuildingBlock: XIVTED_clean_linker_0, # of connection points: 2
#     Edge 67, Type (0, 1), BuildingBlock: XIVTED_clean_linker_0, # of connection points: 2
#     Edge 68, Type (0, 1), BuildingBlock: XIVTED_clean_linker_0, # of connection points: 2
#     Edge 69, Type (0, 1), BuildingBlock: XIVTED_clean_linker_0, # of connection points: 2
#     Edge 70, Type (0, 1), BuildingBlock: XIVTED_clean_linker_0, # of connection points: 2
#     Edge 71, Type (0, 1), BuildingBlock: XIVTED_clean_linker_0, # of connection points: 2
#     Edge 72, Type (0, 1), BuildingBlock: XIVTED_clean_linker_0, # of connection points: 2
#     Edge 73, Type (0, 1), BuildingBlock: XIVTED_clean_linker_0, # of connection points: 2
#     Edge 74, Type (0, 1), BuildingBlock: XIVTED_clean_linker_0, # of connection points: 2
#     Edge 75, Type (0, 1), BuildingBlock: XIVTED_clean_linker_0, # of connection points: 2
# Relax obj value: 0.002
# Max RMSD: 0.035
# Mean RMSD: 0.021
data_MOF--net-ctn--node1-NAHDIM_clean_sbu_0--node2-BELTOD_clean_linker_0--edge1-XIVTED_clean_linker_0
_symmetry_space_group_name_H-M    P1
_symmetry_Int_Tables_number       1
_symmetry_cell_setting            triclinic
loop_
_symmetry_equiv_pos_as_xyz
'x, y, z'
_cell_length_a     62.271472
_cell_length_b     63.056781
_cell_length_c     61.85686
_cell_angle_alpha  90.481703
_cell_angle_beta   90.142538
_cell_angle_gamma 92.959232
loop_
_atom_site_label
_atom_site_type_symbol
_atom_site_fract_x
_atom_site_fract_y
_atom_site_fract_z
_atom_type_partial_charge
P0 P 0.07339 0.08059 0.09026 0.0
H1 H 0.0689 0.0689 0.13559 0.0
H2 H 0.03865 0.05432 0.15677 0.0
H3 H 0.99928 0.05059 0.09908 0.0
H4 H 0.02963 0.06545 0.07804 0.0
H5 H 0.11945 0.0785 0.08303 0.0
H6 H 0.14146 0.05106 0.06801 0.0
H7 H 0.08422 0.01077 0.05663 0.0
H8 H 0.0623 0.03829 0.0719 0.0
H9 H 0.03958 0.11077 0.0903 0.0
H10 H 0.08663 0.08898 0.04533 0.0
O11 O 0.08875 0.09565 0.10709 0.0
H12 H 0.02711 0.13533 0.06333 0.0
H13 H 0.07483 0.11407 0.01852 0.0
C14 C 0.05131 0.06873 0.1054 0.0
C15 C 0.05376 0.06494 0.12751 0.0
C16 C 0.03649 0.05644 0.13956 0.0
C17 C 0.0165 0.05143 0.12963 0.0
C18 C 0.01435 0.05463 0.10727 0.0
C19 C 0.03168 0.06308 0.09523 0.0
C20 C 0.08931 0.06023 0.07901 0.0
C21 C 0.11164 0.06372 0.07741 0.0
C22 C 0.12419 0.04809 0.06863 0.0
C23 C 0.11459 0.02869 0.0612 0.0
C24 C 0.09212 0.02541 0.06252 0.0
C25 C 0.07957 0.04113 0.07122 0.0
C26 C 0.06368 0.0977 0.06967 0.0
C27 C 0.04713 0.11117 0.07454 0.0
C28 C 0.04018 0.12539 0.05916 0.0
C29 C 0.04996 0.12672 0.0387 0.0
C30 C 0.06666 0.11322 0.03394 0.0
C31 C 0.0735 0.09888 0.04932 0.0
P32 P 0.30816 0.68214 0.18362 0.0
H33 H 0.32496 0.72384 0.16969 0.0
H34 H 0.30994 0.75117 0.14721 0.0
H35 H 0.24982 0.71383 0.14323 0.0
H36 H 0.26517 0.68638 0.16493 0.0
H37 H 0.34728 0.66763 0.20311 0.0
H38 H 0.36871 0.67977 0.23432 0.0
H39 H 0.32454 0.72926 0.24615 0.0
H40 H 0.30343 0.71721 0.2145 0.0
H41 H 0.29845 0.63705 0.17423 0.0
H42 H 0.27322 0.686 0.21453 0.0
O43 O 0.32408 0.67008 0.16625 0.0
H44 H 0.27002 0.61194 0.18653 0.0
H45 H 0.24478 0.66084 0.22715 0.0
C46 C 0.29608 0.70327 0.16936 0.0
C47 C 0.30845 0.72172 0.16421 0.0
C48 C 0.2998 0.73736 0.15141 0.0
C49 C 0.27864 0.73473 0.1434 0.0
C50 C 0.26624 0.71629 0.14889 0.0
C51 C 0.27494 0.70064 0.16157 0.0
C52 C 0.32409 0.69184 0.20623 0.0
C53 C 0.34233 0.68122 0.2123 0.0
C54 C 0.35443 0.68804 0.23031 0.0
C55 C 0.34836 0.70551 0.24276 0.0
C56 C 0.32984 0.71596 0.23674 0.0
C57 C 0.31775 0.70909 0.21867 0.0
C58 C 0.28793 0.66335 0.19353 0.0
C59 C 0.28689 0.64235 0.18588 0.0
C60 C 0.27068 0.62798 0.193 0.0
C61 C 0.25516 0.63441 0.20783 0.0
C62 C 0.25637 0.65548 0.21557 0.0
C63 C 0.27268 0.66981 0.2085 0.0
P64 P 0.992 0.50219 0.00916 0.0
H65 H 0.00309 0.48912 0.96531 0.0
H66 H 0.00481 0.45429 0.94785 0.0
H67 H 0.98301 0.42415 0.00689 0.0
H68 H 0.98132 0.45904 0.02424 0.0
H69 H 0.97712 0.54515 0.01045 0.0
H70 H 0.94135 0.55933 0.01101 0.0
H71 H 0.91279 0.49536 0.00947 0.0
H72 H 0.94858 0.48138 0.00837 0.0
H73 H 0.03515 0.50081 0.02688 0.0
H74 H 0.97023 0.49773 0.05119 0.0
O75 O 0.00858 0.51922 0.99599 0.0
H76 H 0.04891 0.49698 0.0636 0.0
H77 H 0.98381 0.49355 0.08791 0.0
C78 C 0.99242 0.4766 0.99615 0.0
C79 C 0.99871 0.47502 0.9745 0.0
C80 C -0.00027 0.45512 0.96456 0.0
C81 C 0.99418 0.4365 0.97605 0.0
C82 C 0.98727 0.43821 0.99759 0.0
C83 C 0.98645 0.45812 0.00756 0.0
C84 C 0.9655 0.51226 0.00889 0.0
C85 C 0.96314 0.5342 0.01001 0.0
C86 C 0.94267 0.54227 0.01055 0.0
C87 C 0.92417 0.52848 0.01021 0.0
C88 C 0.92667 0.50644 0.00935 0.0
C89 C 0.94716 0.4984 0.00876 0.0
C90 C 0.00174 0.50003 0.03639 0.0
C91 C 0.02387 0.49942 0.04016 0.0
C92 C 0.03169 0.49701 0.06113 0.0
C93 C 0.01746 0.49501 0.0787 0.0
C94 C 0.99522 0.4954 0.07478 0.0
C95 C 0.98742 0.49778 0.05377 0.0
P96 P 0.67055 0.82434 0.18019 0.0
H97 H 0.67756 0.87032 0.1756 0.0
H98 H 0.70611 0.89545 0.18812 0.0
H99 H 0.73877 0.84397 0.2173 0.0
H100 H 0.71025 0.81884 0.20429 0.0
H101 H 0.68522 0.8189 0.13611 0.0
H102 H 0.70139 0.78965 0.11703 0.0
H103 H 0.69857 0.75259 0.17549 0.0
H104 H 0.68246 0.78205 0.19455 0.0
H105 H 0.66574 0.84174 0.224 0.0
H106 H 0.63839 0.78947 0.18581 0.0
O107 O 0.65476 0.83627 0.16272 0.0
H108 H 0.64173 0.83194 0.25372 0.0
H109 H 0.61406 0.77967 0.21554 0.0
C110 C 0.692 0.84271 0.18876 0.0
C111 C 0.69095 0.86441 0.18453 0.0
C112 C 0.7072 0.8788 0.19189 0.0
C113 C 0.72474 0.87173 0.20374 0.0
C114 C 0.72566 0.8499 0.20796 0.0
C115 C 0.70937 0.83553 0.20058 0.0
C116 C 0.68211 0.8024 0.16654 0.0
C117 C 0.68797 0.80443 0.14479 0.0
C118 C 0.69737 0.78778 0.13396 0.0
C119 C 0.70115 0.76879 0.14475 0.0
C120 C 0.69555 0.76692 0.16669 0.0
C121 C 0.68631 0.78371 0.17757 0.0
C122 C 0.6542 0.81603 0.20284 0.0
C123 C 0.65478 0.82797 0.22207 0.0
C124 C 0.64089 0.82246 0.23903 0.0
C125 C 0.62601 0.80501 0.237 0.0
C126 C 0.62556 0.793 0.21773 0.0
C127 C 0.63942 0.79859 0.20072 0.0
P128 P 0.05222 0.93771 0.42775 0.0
H129 H 0.09888 0.94433 0.42425 0.0
H130 H 0.12424 0.97209 0.43793 0.0
H131 H 0.07157 0.0049 0.46582 0.0
H132 H 0.04627 0.97682 0.45224 0.0
H133 H 0.0201 0.90271 0.4301 0.0
H134 H 0.00824 0.87899 0.45928 0.0
H135 H 0.05424 0.91106 0.50242 0.0
H136 H 0.06566 0.93491 0.47337 0.0
H137 H 0.04587 0.95342 0.38428 0.0
H138 H 0.00925 0.94784 0.44322 0.0
O139 O 0.06439 0.92279 0.40956 0.0
H140 H 0.01512 0.968 0.36603 0.0
H141 H 0.97836 0.96241 0.42506 0.0
C142 C 0.07069 0.95873 0.43696 0.0
C143 C 0.09276 0.95759 0.43312 0.0
C144 C 0.10724 0.97352 0.44091 0.0
C145 C 0.0999 0.99078 0.45285 0.0
C146 C 0.07773 0.99176 0.45678 0.0
C147 C 0.06325 0.97583 0.4489 0.0
C148 C 0.04352 0.92074 0.44962 0.0
C149 C 0.02751 0.90469 0.4459 0.0
C150 C 0.02086 0.89107 0.46255 0.0
C151 C 0.03026 0.89316 0.48321 0.0
C152 C 0.04641 0.90925 0.48682 0.0
C153 C 0.05302 0.92288 0.47014 0.0
C154 C 0.02962 0.94905 0.41489 0.0
C155 C 0.03118 0.95533 0.39328 0.0
C156 C 0.01365 0.96381 0.38293 0.0
C157 C 0.99427 0.96623 0.39409 0.0
C158 C 0.99297 0.96041 0.41596 0.0
C159 C 0.0106 0.95208 0.42634 0.0
P160 P 0.22425 0.75319 0.76172 0.0
H161 H 0.25566 0.78366 0.78091 0.0
H162 H 0.25684 0.80317 0.8152 0.0
H163 H 0.19623 0.77194 0.83346 0.0
H164 H 0.19541 0.75217 0.79921 0.0
H165 H 0.25784 0.73332 0.73702 0.0
H166 H 0.27444 0.69931 0.74006 0.0
H167 H 0.23416 0.68364 0.79506 0.0
H168 H 0.21729 0.71772 0.79162 0.0
H169 H 0.18923 0.78192 0.76066 0.0
H170 H 0.19973 0.71766 0.74043 0.0
O171 O 0.23796 0.76811 0.74378 0.0
H172 H 0.15299 0.77888 0.74534 0.0
H173 H 0.16369 0.71463 0.72471 0.0
C174 C 0.22522 0.76686 0.78736 0.0
C175 C 0.24261 0.78104 0.79228 0.0
C176 C 0.24321 0.79225 0.81186 0.0
C177 C 0.22648 0.78933 0.82695 0.0
C178 C 0.2094 0.77452 0.82222 0.0
C179 C 0.20883 0.76332 0.8026 0.0
C180 C 0.23655 0.72815 0.76429 0.0
C181 C 0.25263 0.72265 0.7498 0.0
C182 C 0.26219 0.7032 0.75162 0.0
C183 C 0.25577 0.68882 0.76793 0.0
C184 C 0.23939 0.6943 0.78226 0.0
C185 C 0.22986 0.71383 0.78042 0.0
C186 C 0.19701 0.7499 0.75206 0.0
C187 C 0.18363 0.76707 0.75313 0.0
C188 C 0.16299 0.76537 0.7442 0.0
C189 C 0.15544 0.74651 0.73379 0.0
C190 C 0.16888 0.72925 0.73291 0.0
C191 C 0.18954 0.73099 0.74187 0.0
P192 P -0.00023 0.4991 0.50746 0.0
H193 H 0.04324 0.495 0.49107 0.0
H194 H 0.05889 0.49865 0.45501 0.0
H195 H 0.99677 0.51301 0.42928 0.0
H196 H 0.98121 0.50932 0.46549 0.0
H197 H 0.02738 0.5223 0.5389 0.0
H198 H 0.02706 0.55827 0.55388 0.0
H199 H 0.9715 0.57024 0.51469 0.0
H200 H 0.97185 0.53411 0.49988 0.0
H201 H 0.97948 0.46587 0.47979 0.0
H202 H 0.96212 0.50331 0.53512 0.0
O203 O 0.01526 0.48437 0.52271 0.0
H204 H 0.9437 0.44805 0.47964 0.0
H205 H 0.92649 0.4853 0.53535 0.0
C206 C 0.01098 0.50133 0.48079 0.0
C207 C 0.03296 0.49878 0.47765 0.0
C208 C 0.04192 0.50106 0.45707 0.0
C209 C 0.02902 0.50601 0.4393 0.0
C210 C 0.00702 0.50887 0.4426 0.0
C211 C 0.99813 0.50677 0.46325 0.0
C212 C 0.99937 0.52547 0.51864 0.0
C213 C 0.01506 0.53262 0.53363 0.0
C214 C 0.01495 0.55323 0.54206 0.0
C215 C 0.99918 0.56705 0.53554 0.0
C216 C 0.98364 0.55985 0.52028 0.0
C217 C 0.98385 0.53927 0.51176 0.0
C218 C 0.9732 0.48645 0.50698 0.0
C219 C 0.96789 0.47043 0.49176 0.0
C220 C 0.94749 0.4601 0.49183 0.0
C221 C 0.93216 0.46539 0.50737 0.0
C222 C 0.93773 0.48119 0.52286 0.0
C223 C 0.95813 0.4915 0.52276 0.0
P224 P 0.80917 0.81105 0.82386 0.0
H225 H 0.84506 0.82977 0.79928 0.0
H226 H 0.86411 0.81801 0.76726 0.0
H227 H 0.81975 0.76316 0.76184 0.0
H228 H 0.80097 0.77494 0.79416 0.0
H229 H 0.79325 0.84689 0.84771 0.0
H230 H 0.76555 0.87178 0.84005 0.0
H231 H 0.75113 0.83903 0.77966 0.0
H232 H 0.77868 0.81386 0.78772 0.0
H233 H 0.82926 0.77268 0.8369 0.0
H234 H 0.76732 0.79954 0.84405 0.0
O235 O 0.82771 0.82385 0.83933 0.0
H236 H 0.81725 0.74266 0.85931 0.0
H237 H 0.75511 0.76944 0.86624 0.0
C238 C 0.82198 0.80294 0.79935 0.0
C239 C 0.83943 0.81523 0.79117 0.0
C240 C 0.85018 0.80857 0.77274 0.0
C241 C 0.84355 0.78955 0.76207 0.0
C242 C 0.8255 0.77768 0.76991 0.0
C243 C 0.81473 0.7844 0.78835 0.0
C244 C 0.78837 0.82891 0.81802 0.0
C245 C 0.78419 0.84511 0.83279 0.0
C246 C 0.76837 0.85936 0.82836 0.0
C247 C 0.75634 0.85758 0.80909 0.0
C248 C 0.76008 0.84081 0.79466 0.0
C249 C 0.77595 0.82653 0.79914 0.0
C250 C 0.79916 0.78822 0.83867 0.0
C251 C 0.81297 0.77194 0.84304 0.0
C252 C 0.80604 0.75474 0.85576 0.0
C253 C 0.7852 0.75364 0.86453 0.0
C254 C 0.77131 0.76992 0.85988 0.0
C255 C 0.77825 0.7871 0.84707 0.0
P256 P 0.31832 0.32007 0.32541 0.0
H257 H 0.35683 0.33684 0.30328 0.0
H258 H 0.37662 0.32447 0.27204 0.0
H259 H 0.32914 0.27264 0.26314 0.0
H260 H 0.30958 0.28499 0.29473 0.0
H261 H 0.28351 0.33401 0.35217 0.0
H262 H 0.25256 0.35512 0.34492 0.0
H263 H 0.27142 0.35997 0.27786 0.0
H264 H 0.30209 0.33839 0.28517 0.0
H265 H 0.34114 0.29804 0.35896 0.0
H266 H 0.27973 0.2914 0.3266 0.0
O267 O 0.33495 0.33623 0.33989 0.0
H268 H 0.33123 0.26738 0.38141 0.0
H269 H 0.26942 0.26107 0.34934 0.0
C270 C 0.33201 0.31157 0.30156 0.0
C271 C 0.35066 0.32283 0.29461 0.0
C272 C 0.36187 0.31583 0.2766 0.0
C273 C 0.35452 0.29749 0.26514 0.0
C274 C 0.33541 0.28661 0.27182 0.0
C275 C 0.32419 0.29367 0.28984 0.0
C276 C 0.29491 0.33443 0.31918 0.0
C277 C 0.28081 0.33941 0.33585 0.0
C278 C 0.26322 0.35161 0.33171 0.0
C279 C 0.25954 0.35929 0.31081 0.0
C280 C 0.27363 0.35405 0.29406 0.0
C281 C 0.29124 0.34178 0.29824 0.0
C282 C 0.31096 0.29726 0.34154 0.0
C283 C 0.32545 0.29006 0.35682 0.0
C284 C 0.31972 0.27258 0.36968 0.0
C285 C 0.29943 0.26192 0.36735 0.0
C286 C 0.28521 0.26884 0.3515 0.0
C287 C 0.29099 0.28631 0.33862 0.0
P288 P 0.49119 0.99501 0.51212 0.0
H289 H 0.52345 0.9737 0.48712 0.0
H290 H 0.52436 0.93813 0.47129 0.0
H291 H 0.46081 0.92275 0.49646 0.0
H292 H 0.45994 0.9585 0.512 0.0
H293 H 0.46821 0.02216 0.54205 0.0
H294 H 0.43333 0.03785 0.54007 0.0
H295 H 0.42098 0.00609 0.47872 0.0
H296 H 0.45632 0.99119 0.48043 0.0
H297 H 0.51872 0.02472 0.5375 0.0
H298 H 0.4849 0.96412 0.54705 0.0
O299 O 0.50723 0.01144 0.49766 0.0
H300 H 0.5318 0.02432 0.57478 0.0
H301 H 0.49785 0.96364 0.58438 0.0
C302 C 0.49144 0.96886 0.50027 0.0
C303 C 0.50965 0.96272 0.48908 0.0
C304 C 0.51022 0.94232 0.48021 0.0
C305 C 0.49261 0.92763 0.48253 0.0
C306 C 0.47448 0.9338 0.49405 0.0
C307 C 0.47397 0.95421 0.50296 0.0
C308 C 0.46466 0.00506 0.51163 0.0
C309 C 0.45792 0.01836 0.52829 0.0
C310 C 0.43787 0.02728 0.52717 0.0
C311 C 0.42422 0.02316 0.50929 0.0
C312 C 0.43111 0.00979 0.49263 0.0
C313 C 0.45123 0.00103 0.4937 0.0
C314 C 0.50124 0.99424 0.53938 0.0
C315 C 0.51424 0.01125 0.54757 0.0
C316 C 0.52155 0.01109 0.56893 0.0
C317 C 0.51591 0.9939 0.58249 0.0
C318 C 0.50273 0.97694 0.57423 0.0
C319 C 0.49531 0.97721 0.55289 0.0
P320 P 0.17091 0.32157 0.67786 0.0
H321 H 0.18777 0.35933 0.65563 0.0
H322 H 0.21547 0.38669 0.66488 0.0
H323 H 0.22775 0.35441 0.72472 0.0
H324 H 0.19948 0.32739 0.71552 0.0
H325 H 0.15491 0.29492 0.64201 0.0
H326 H 0.16971 0.26521 0.62251 0.0
H327 H 0.22682 0.27105 0.66243 0.0
H328 H 0.21198 0.30101 0.68166 0.0
H329 H 0.14896 0.3426 0.71277 0.0
H330 H 0.16189 0.27832 0.69454 0.0
O331 O 0.1528 0.33266 0.6622 0.0
H332 H 0.12744 0.32928 0.74326 0.0
H333 H 0.14084 0.26496 0.72512 0.0
C334 C 0.19132 0.34161 0.68508 0.0
C335 C 0.19632 0.35824 0.67081 0.0
C336 C 0.21233 0.37377 0.67605 0.0
C337 C 0.22386 0.37279 0.69558 0.0
C338 C 0.21895 0.35586 0.70973 0.0
C339 C 0.20285 0.34036 0.70447 0.0
C340 C 0.18257 0.30048 0.6629 0.0
C341 C 0.17072 0.28996 0.6464 0.0
C342 C 0.17911 0.27282 0.63543 0.0
C343 C 0.19947 0.26576 0.64091 0.0
C344 C 0.21124 0.27629 0.65761 0.0
C345 C 0.20278 0.29343 0.66861 0.0
C346 C 0.15708 0.31151 0.70143 0.0
C347 C 0.14742 0.32564 0.71552 0.0
C348 C 0.1352 0.318 0.73299 0.0
C349 C 0.13237 0.29603 0.7366 0.0
C350 C 0.14246 0.28195 0.72263 0.0
C351 C 0.15466 0.28961 0.70518 0.0
P352 P 0.80792 0.18121 0.69775 0.0
H353 H 0.82601 0.2057 0.66179 0.0
H354 H 0.81258 0.23453 0.64023 0.0
H355 H 0.7547 0.23328 0.67869 0.0
H356 H 0.76824 0.20441 0.70017 0.0
H357 H 0.82122 0.16063 0.73725 0.0
H358 H 0.84392 0.17265 0.76766 0.0
H359 H 0.85236 0.23462 0.73855 0.0
H360 H 0.82905 0.2227 0.7087 0.0
H361 H 0.78698 0.14443 0.6763 0.0
H362 H 0.7794 0.17974 0.73553 0.0
O363 O 0.8245 0.16777 0.68226 0.0
H364 H 0.75663 0.12039 0.6861 0.0
H365 H 0.74929 0.15545 0.74576 0.0
C366 C 0.79793 0.20263 0.68225 0.0
C367 C 0.8104 0.21159 0.66553 0.0
C368 C 0.80278 0.22817 0.65334 0.0
C369 C 0.78252 0.23608 0.6577 0.0
C370 C 0.77022 0.22728 0.67475 0.0
C371 C 0.77795 0.2108 0.68704 0.0
C372 C 0.82303 0.19088 0.72097 0.0
C373 C 0.82763 0.17692 0.73766 0.0
C374 C 0.84082 0.18377 0.75492 0.0
C375 C 0.84999 0.20463 0.75561 0.0
C376 C 0.84526 0.21858 0.73881 0.0
C377 C 0.83195 0.21174 0.72162 0.0
C378 C 0.78577 0.16347 0.70547 0.0
C379 C 0.77892 0.14684 0.69155 0.0
C380 C 0.76159 0.13309 0.6972 0.0
C381 C 0.75068 0.13585 0.71684 0.0
C382 C 0.75729 0.15293 0.7305 0.0
C383 C 0.77464 0.16668 0.72479 0.0
P384 P 0.569 0.57866 0.58348 0.0
H385 H 0.56685 0.5611 0.62671 0.0
H386 H 0.53702 0.54755 0.64917 0.0
H387 H 0.49261 0.55874 0.59718 0.0
H388 H 0.52248 0.57248 0.57496 0.0
H389 H 0.61257 0.57914 0.5669 0.0
H390 H 0.63521 0.55123 0.55387 0.0
H391 H 0.58309 0.50453 0.5644 0.0
H392 H 0.56063 0.53254 0.57763 0.0
H393 H 0.55916 0.62315 0.58005 0.0
H394 H 0.55767 0.56787 0.53848 0.0
O395 O 0.58449 0.59453 0.59945 0.0
H396 H 0.54649 0.64443 0.55022 0.0
H397 H 0.54533 0.58912 0.50839 0.0
C398 C 0.54683 0.56815 0.59937 0.0
C399 C 0.55067 0.56064 0.62019 0.0
C400 C 0.53363 0.55274 0.63293 0.0
C401 C 0.51241 0.55217 0.625 0.0
C402 C 0.50871 0.55929 0.60388 0.0
C403 C 0.5258 0.56712 0.59113 0.0
C404 C 0.58513 0.55784 0.57361 0.0
C405 C 0.60606 0.56287 0.56644 0.0
C406 C 0.61891 0.54692 0.55883 0.0
C407 C 0.61098 0.52563 0.55818 0.0
C408 C 0.58978 0.52072 0.56503 0.0
C409 C 0.57691 0.53673 0.57256 0.0
C410 C 0.55981 0.5941 0.5613 0.0
C411 C 0.5563 0.61565 0.56442 0.0
C412 C 0.54911 0.6278 0.54733 0.0
C413 C 0.54511 0.61852 0.52686 0.0
C414 C 0.54818 0.59673 0.52397 0.0
C415 C 0.55542 0.5846 0.54109 0.0
P416 P 0.55616 0.43463 0.925 0.0
H417 H 0.60254 0.43844 0.93121 0.0
H418 H 0.62687 0.46706 0.94501 0.0
H419 H 0.57277 0.50632 0.95483 0.0
H420 H 0.5486 0.47769 0.94059 0.0
H421 H 0.53757 0.39143 0.92569 0.0
H422 H 0.52636 0.36759 0.955 0.0
H423 H 0.54667 0.41598 0.00172 0.0
H424 H 0.55719 0.43985 0.97237 0.0
H425 H 0.55036 0.45574 0.88403 0.0
H426 H 0.51076 0.43613 0.93813 0.0
O427 O 0.56916 0.42068 0.90661 0.0
H428 H 0.51879 0.46845 0.86556 0.0
H429 H 0.47915 0.44889 0.91983 0.0
C430 C 0.57389 0.45616 0.93443 0.0
C431 C 0.59597 0.4533 0.93614 0.0
C432 C 0.60982 0.4696 0.94424 0.0
C433 C 0.60178 0.48901 0.95099 0.0
C434 C 0.57953 0.49171 0.94943 0.0
C435 C 0.56569 0.47536 0.94132 0.0
C436 C 0.54855 0.41722 0.94686 0.0
C437 C 0.53968 0.39682 0.94227 0.0
C438 C 0.53335 0.38321 0.95904 0.0
C439 C 0.53575 0.38981 0.98074 0.0
C440 C 0.54441 0.41044 0.98522 0.0
C441 C 0.55065 0.42406 0.96841 0.0
C442 C 0.53283 0.44466 0.91221 0.0
C443 C 0.53486 0.45423 0.89193 0.0
C444 C 0.51683 0.46161 0.88149 0.0
C445 C 0.49644 0.45957 0.8912 0.0
C446 C 0.49458 0.45039 0.9118 0.0
C447 C 0.51267 0.44311 0.92228 0.0
P448 P 0.73243 0.25962 0.27435 0.0
H449 H 0.76198 0.28495 0.30184 0.0
H450 H 0.7588 0.29983 0.33821 0.0
H451 H 0.69438 0.27127 0.34287 0.0
H452 H 0.69762 0.2567 0.30631 0.0
H453 H 0.76554 0.24103 0.24793 0.0
H454 H 0.78241 0.20699 0.24903 0.0
H455 H 0.74264 0.18843 0.30358 0.0
H456 H 0.72623 0.22284 0.30267 0.0
H457 H 0.70113 0.29072 0.26477 0.0
H458 H 0.70673 0.22337 0.25535 0.0
O459 O 0.74798 0.27669 0.2601 0.0
H460 H 0.66598 0.28838 0.24697 0.0
H461 H 0.67183 0.22095 0.23724 0.0
C462 C 0.72988 0.27016 0.30125 0.0
C463 C 0.74715 0.28198 0.31067 0.0
C464 C 0.74536 0.29032 0.33154 0.0
C465 C 0.72629 0.28681 0.34342 0.0
C466 C 0.70914 0.27456 0.33402 0.0
C467 C 0.71098 0.2662 0.31314 0.0
C468 C 0.74494 0.23458 0.27546 0.0
C469 C 0.76057 0.22971 0.26023 0.0
C470 C 0.77006 0.21013 0.26076 0.0
C471 C 0.76391 0.19495 0.27642 0.0
C472 C 0.74803 0.19987 0.29155 0.0
C473 C 0.73858 0.21951 0.29102 0.0
C474 C 0.70652 0.25727 0.26138 0.0
C475 C 0.69479 0.27544 0.25882 0.0
C476 C 0.67476 0.27408 0.24856 0.0
C477 C 0.66612 0.25448 0.24064 0.0
C478 C 0.67791 0.23624 0.24339 0.0
C479 C 0.69796 0.23764 0.25366 0.0
P480 P 0.49446 -7e-05 0.01537 0.0
H481 H 0.53743 0.9912 0.0004 0.0
H482 H 0.55455 0.99319 0.96498 0.0
H483 H 0.49524 0.0129 0.93689 0.0
H484 H 0.47812 0.01058 0.97248 0.0
H485 H 0.52156 0.02038 0.04913 0.0
H486 H 0.52379 0.05644 0.06408 0.0
H487 H 0.47474 0.07439 0.01922 0.0
H488 H 0.47248 0.03818 0.00448 0.0
H489 H 0.47119 0.96718 0.98934 0.0
H490 H 0.45722 0.01012 0.04147 0.0
O491 O 0.50789 0.98397 0.03132 0.0
H492 H 0.43417 0.95224 0.99043 0.0
H493 H 0.42016 0.99583 0.04222 0.0
C494 C 0.5064 0.00026 0.98893 0.0
C495 C 0.52804 0.99571 0.98658 0.0
C496 C 0.53787 0.99707 0.96635 0.0
C497 C 0.52626 0.0032 0.9481 0.0
C498 C 0.50453 0.00784 0.95056 0.0
C499 C 0.49474 0.00654 0.97088 0.0
C500 C 0.49663 0.0266 0.02593 0.0
C501 C 0.51128 0.03207 0.04252 0.0
C502 C 0.51263 0.05272 0.05096 0.0
C503 C 0.49935 0.06822 0.0429 0.0
C504 C 0.48494 0.06271 0.02598 0.0
C505 C 0.48371 0.04209 0.01748 0.0
C506 C 0.46679 0.99018 0.01487 0.0
C507 C 0.46004 0.97369 0.00071 0.0
C508 C 0.43885 0.9652 0.00133 0.0
C509 C 0.42414 0.9729 0.01636 0.0
C510 C 0.43108 0.98939 0.03057 0.0
C511 C 0.45225 0.99779 0.02997 0.0
C512 C 0.21545 0.91966 0.01066 0.0
O513 O 0.23155 0.92507 0.99783 0.0
O514 O 0.2304 0.86454 0.9839 0.0
Zn515 Zn 0.23713 0.88057 0.01165 0.0
O516 O 0.26572 0.8966 0.00848 0.0
C517 C 0.2319 0.84117 0.03566 0.0
O518 O 0.22027 0.83474 0.01887 0.0
O519 O 0.2142 0.90106 0.0185 0.0
C520 C 0.27495 0.90498 0.02502 0.0
O521 O 0.26539 0.90329 0.04389 0.0
C522 C 0.23527 0.87293 0.96584 0.0
O523 O 0.24408 0.89231 0.96556 0.0
O524 O 0.24009 0.86004 0.03614 0.0
C525 C 0.14648 0.46252 0.2794 0.0
O526 O 0.14644 0.47967 0.29159 0.0
O527 O 0.09897 0.49292 0.28263 0.0
Zn528 Zn 0.11752 0.48698 0.25667 0.0
O529 O 0.13929 0.51105 0.25133 0.0
C530 C 0.08202 0.49139 0.22716 0.0
O531 O 0.07486 0.50324 0.24288 0.0
O532 O 0.13448 0.4613 0.26274 0.0
C533 C 0.13469 0.52958 0.2456 0.0
O534 O 0.11445 0.53402 0.24327 0.0
C535 C 0.10436 0.5072 0.29654 0.0
O536 O 0.12216 0.51893 0.2937 0.0
O537 O 0.09963 0.48237 0.22972 0.0
C538 C 0.77903 0.59102 0.0101 0.0
O539 O 0.76338 0.58177 0.99861 0.0
O540 O 0.75045 0.64323 0.99111 0.0
Zn541 Zn 0.74786 0.62278 0.01589 0.0
O542 O 0.72392 0.60084 0.00984 0.0
C543 C 0.75361 0.65618 0.04646 0.0
O544 O 0.77026 0.66028 0.03388 0.0
O545 O 0.77601 0.60867 0.0194 0.0
C546 C 0.7069 0.60568 8e-05 0.0
O547 O 0.70469 0.6255 0.99445 0.0
C548 C 0.75577 0.6379 0.97209 0.0
O549 O 0.75966 0.618 0.96793 0.0
O550 O 0.74135 0.63988 0.04245 0.0
C551 C 0.83692 0.05647 0.27629 0.0
O552 O 0.8393 0.04602 0.29435 0.0
O553 O 0.87664 0.01763 0.28431 0.0
Zn554 Zn 0.85929 0.02158 0.25722 0.0
O555 O 0.83713 0.99754 0.25229 0.0
C556 C 0.89762 0.01373 0.23314 0.0
O557 O 0.90152 0.00215 0.25012 0.0
O558 O 0.84422 0.04903 0.25878 0.0
C559 C 0.84206 0.97874 0.24762 0.0
O560 O 0.86242 0.9744 0.24638 0.0
C561 C 0.87242 0.00413 0.29904 0.0
O562 O 0.85467 0.99198 0.2978 0.0
O563 O 0.88015 0.02331 0.23225 0.0
C564 C 0.28571 0.09745 0.49949 0.0
O565 O 0.27705 0.10007 0.48037 0.0
O566 O 0.25971 0.14508 0.48801 0.0
Zn567 Zn 0.25146 0.12306 0.5103 0.0
O568 O 0.22702 0.10378 0.49919 0.0
C569 C 0.25584 0.15316 0.54474 0.0
O570 O 0.27493 0.15605 0.53591 0.0
O571 O 0.27722 0.10586 0.51591 0.0
C572 C 0.21194 0.09645 0.51123 0.0
O573 O 0.21199 0.10165 0.53184 0.0
C574 C 0.25374 0.14425 0.46835 0.0
O575 O 0.24132 0.12809 0.4615 0.0
O576 O 0.24278 0.1389 0.53697 0.0
C577 C 0.32409 0.54807 0.76817 0.0
O578 O 0.31303 0.5302 0.77199 0.0
O579 O 0.37713 0.51488 0.78379 0.0
Zn580 Zn 0.35896 0.52055 0.75767 0.0
O581 O 0.33776 0.49593 0.75127 0.0
C582 C 0.39447 0.51273 0.72955 0.0
O583 O 0.39636 0.49649 0.74247 0.0
O584 O 0.34357 0.54752 0.76222 0.0
C585 C 0.33269 0.49102 0.73188 0.0
O586 O 0.34137 0.5022 0.71603 0.0
C587 C 0.37552 0.49792 0.79476 0.0
O588 O 0.36053 0.48328 0.78974 0.0
O589 O 0.37929 0.52511 0.73266 0.0
C590 C 0.71564 0.41602 0.5189 0.0
O591 O 0.72914 0.41968 0.50291 0.0
O592 O 0.73842 0.36369 0.49816 0.0
Zn593 Zn 0.74264 0.38127 0.52526 0.0
O594 O 0.76999 0.39923 0.52176 0.0
C595 C 0.7347 0.34593 0.55457 0.0
O596 O 0.71746 0.34195 0.54264 0.0
O597 O 0.71796 0.39996 0.53081 0.0
C598 C 0.78678 0.38954 0.51709 0.0
O599 O 0.78526 0.36878 0.51474 0.0
C600 C 0.72118 0.36104 0.48723 0.0
O601 O 0.70378 0.37014 0.4937 0.0
O602 O 0.74712 0.36195 0.55031 0.0
C603 C 0.64994 0.96746 0.77628 0.0
O604 O 0.65583 0.98733 0.78066 0.0
O605 O 0.59475 0.9932 0.78911 0.0
Zn606 Zn 0.61263 0.98793 0.76255 0.0
O607 O 0.63241 0.01322 0.75536 0.0
C608 C 0.58116 0.99621 0.73082 0.0
O609 O 0.58026 0.0135 0.74272 0.0
O610 O 0.63141 0.96321 0.76814 0.0
C611 C 0.63008 0.03277 0.75932 0.0
O612 O 0.6127 0.03862 0.76926 0.0
C613 C 0.60336 0.00159 0.80599 0.0
O614 O 0.62391 0.00743 0.80572 0.0
O615 O 0.59366 0.98196 0.73657 0.0
C616 C 0.00476 0.23323 0.92981 0.0
O617 O 0.9948 0.24992 0.9365 0.0
O618 O 0.9741 0.24316 0.87202 0.0
Zn619 Zn 0.00075 0.25335 0.88833 0.0
O620 O 0.99601 0.28118 0.90352 0.0
C621 C 0.02653 0.24714 0.84997 0.0
O622 O 0.01266 0.23107 0.84641 0.0
O623 O 0.00894 0.23123 0.90981 0.0
C624 C 0.01223 0.29369 0.9075 0.0
O625 O 0.03144 0.28793 0.90195 0.0
C626 C 0.96207 0.25626 0.86314 0.0
O627 O 0.96674 0.27671 0.86541 0.0
O628 O 0.02469 0.25844 0.8669 0.0
C629 C 0.49285 0.70918 0.40676 0.0
O630 O 0.47685 0.70278 0.39403 0.0
O631 O 0.46461 0.73959 0.36778 0.0
Zn632 Zn 0.49147 0.74974 0.38387 0.0
O633 O 0.48657 0.77658 0.40065 0.0
C634 C 0.51714 0.77417 0.35354 0.0
O635 O 0.50436 0.78901 0.35966 0.0
O636 O 0.50114 0.72791 0.4049 0.0
C637 C 0.50211 0.78446 0.41198 0.0
O638 O 0.52018 0.7746 0.41252 0.0
C639 C 0.4531 0.75297 0.35861 0.0
O640 O 0.45836 0.77332 0.36078 0.0
O641 O 0.51483 0.75582 0.36185 0.0
C642 C 0.99157 0.79041 0.60173 0.0
O643 O 0.99208 0.79691 0.62197 0.0
O644 O 0.95775 0.75683 0.63908 0.0
Zn645 Zn 0.98379 0.74993 0.62175 0.0
O646 O 0.98098 0.72048 0.60898 0.0
C647 C 0.01502 0.73739 0.65326 0.0
O648 O 0.00264 0.7199 0.65381 0.0
O649 O 0.98796 0.77079 0.5976 0.0
C650 C 0.99744 0.71381 0.59949 0.0
O651 O 0.01494 0.72634 0.59851 0.0
C652 C 0.94746 0.74302 0.65041 0.0
O653 O 0.95359 0.7234 0.6504 0.0
O654 O 0.00999 0.75239 0.64093 0.0
C655 C 0.4978 0.29276 0.10433 0.0
O656 O 0.49231 0.3003 0.12328 0.0
O657 O 0.4697 0.26083 0.14426 0.0
Zn658 Zn 0.49551 0.25299 0.12699 0.0
O659 O 0.49212 0.22316 0.11522 0.0
C660 C 0.52575 0.24197 0.16006 0.0
O661 O 0.51209 0.22562 0.16266 0.0
O662 O 0.49986 0.27293 0.10207 0.0
C663 C 0.50871 0.21509 0.10735 0.0
O664 O 0.52702 0.22642 0.10739 0.0
C665 C 0.45841 0.24735 0.15508 0.0
O666 O 0.46326 0.22732 0.15463 0.0
O667 O 0.52184 0.25576 0.14591 0.0
H668 H 0.23804 0.8315 0.83245 0.0
H669 H 0.21965 0.8317 0.96056 0.0
H670 H 0.21537 0.7761 0.86787 0.0
H671 H 0.24407 0.88617 0.92467 0.0
H672 H 0.21643 0.81139 0.92673 0.0
H673 H 0.23911 0.852 0.86606 0.0
C674 C 0.23339 0.8236 0.84733 0.0
C675 C 0.22675 0.80198 0.84733 0.0
C676 C 0.22242 0.8278 0.92626 0.0
C677 C 0.22768 0.8255 0.88595 0.0
C678 C 0.22424 0.83943 0.94557 0.0
C679 C 0.23222 0.86067 0.94547 0.0
C680 C 0.22861 0.83749 0.90672 0.0
C681 C 0.2379 0.86984 0.92556 0.0
C682 C 0.23387 0.83536 0.86652 0.0
C683 C 0.22045 0.79275 0.86706 0.0
N684 N 0.23604 0.85818 0.90702 0.0
N685 N 0.22114 0.80453 0.88559 0.0
H686 H 0.01273 0.48997 0.40099 0.0
H687 H 0.11403 0.53277 0.33151 0.0
H688 H 0.067 0.52661 0.42783 0.0
H689 H 0.06612 0.48649 0.30742 0.0
H690 H 0.09451 0.53425 0.3656 0.0
H691 H 0.02964 0.4921 0.36532 0.0
C692 C 0.02812 0.49862 0.39933 0.0
C693 C 0.03855 0.50802 0.41741 0.0
C694 C 0.08821 0.52384 0.35283 0.0
C695 C 0.05801 0.51044 0.37673 0.0
C696 C 0.09932 0.52302 0.33332 0.0
C697 C 0.09179 0.50936 0.31662 0.0
C698 C 0.06937 0.51097 0.35569 0.0
C699 C 0.07259 0.49715 0.3199 0.0
C700 C 0.03781 0.49973 0.37901 0.0
C701 C 0.05855 0.51887 0.41438 0.0
N702 N 0.06208 0.49819 0.33909 0.0
N703 N 0.06763 0.51976 0.39445 0.0
H704 H 0.76268 0.75618 0.90234 0.0
H705 H 0.77045 0.6331 0.93065 0.0
H706 H 0.79251 0.71122 0.8605 0.0
H707 H 0.74676 0.67983 0.97478 0.0
H708 H 0.77579 0.66075 0.9034 0.0
H709 H 0.75359 0.72757 0.92755 0.0
C710 C 0.7671 0.74024 0.89832 0.0
C711 C 0.77843 0.73611 0.87929 0.0
C712 C 0.76936 0.66492 0.91903 0.0
C713 C 0.76833 0.70328 0.90828 0.0
C714 C 0.76628 0.64914 0.93459 0.0
C715 C 0.75825 0.65417 0.95508 0.0
C716 C 0.76431 0.68587 0.92397 0.0
C717 C 0.75309 0.67523 0.95925 0.0
C718 C 0.76204 0.72392 0.91282 0.0
C719 C 0.78402 0.71517 0.87512 0.0
N720 N 0.75626 0.69029 0.94386 0.0
N721 N 0.77896 0.69955 0.88952 0.0
H722 H 0.9933 -0.00045 0.36609 0.0
H723 H 0.87065 0.9748 0.33167 0.0
H724 H 0.95226 0.95107 0.39601 0.0
H725 H 0.91129 0.02556 0.305 0.0
H726 H 0.89935 0.96736 0.3572 0.0
H727 H 0.96259 0.0107 0.34523 0.0
C728 C 0.97779 0.99129 0.3683 0.0
C729 C 0.97537 0.97425 0.38267 0.0
C730 C 0.90189 0.98024 0.34587 0.0
C731 C 0.94006 0.98694 0.35886 0.0
C732 C 0.88551 0.98452 0.33131 0.0
C733 C 0.88862 0.00072 0.31604 0.0
C734 C 0.92155 0.99221 0.3451 0.0
C735 C 0.90819 0.01282 0.31637 0.0
C736 C 0.96022 0.99772 0.35646 0.0
C737 C 0.95481 0.96435 0.38518 0.0
N738 N 0.92394 0.00821 0.33053 0.0
N739 N 0.93798 0.97071 0.37324 0.0
H740 H 0.17836 0.2285 0.62815 0.0
H741 H 0.27918 0.18625 0.56382 0.0
H742 H 0.24079 0.26154 0.62682 0.0
H743 H 0.21646 0.15371 0.56441 0.0
H744 H 0.26626 0.21241 0.58935 0.0
H745 H 0.19275 0.19964 0.60698 0.0
C746 C 0.1951 0.2297 0.62339 0.0
C747 C 0.20834 0.24757 0.62912 0.0
C748 C 0.25536 0.19947 0.58402 0.0
C749 C 0.225 0.21445 0.60501 0.0
C750 C 0.26274 0.18449 0.56945 0.0
C751 C 0.24884 0.16784 0.56181 0.0
C752 C 0.23389 0.19785 0.59098 0.0
C753 C 0.22772 0.16634 0.56977 0.0
C754 C 0.20335 0.21314 0.6114 0.0
C755 C 0.23003 0.24803 0.62288 0.0
N756 N 0.22085 0.18123 0.58379 0.0
N757 N 0.23763 0.23179 0.61105 0.0
H758 H 0.51025 0.51807 0.65235 0.0
H759 H 0.39494 0.54443 0.69951 0.0
H760 H 0.47314 0.56938 0.62954 0.0
H761 H 0.43078 0.49154 0.72063 0.0
H762 H 0.42277 0.55292 0.67275 0.0
H763 H 0.48079 0.50733 0.67659 0.0
C764 C 0.4959 0.52708 0.65244 0.0
C765 C 0.49421 0.54471 0.63895 0.0
C766 C 0.42451 0.53939 0.68316 0.0
C767 C 0.46035 0.53243 0.6666 0.0
C768 C 0.40861 0.53453 0.69846 0.0
C769 C 0.41057 0.5173 0.71243 0.0
C770 C 0.44258 0.52699 0.68184 0.0
C771 C 0.42862 0.505 0.71025 0.0
C772 C 0.47904 0.52088 0.66621 0.0
C773 C 0.47508 0.55557 0.6395 0.0
N774 N 0.44397 0.51015 0.69534 0.0
N775 N 0.45897 0.54933 0.65318 0.0
H776 H 0.74198 0.23893 0.64099 0.0
H777 H 0.77082 0.34809 0.57989 0.0
H778 H 0.80419 0.27231 0.64386 0.0
H779 H 0.71222 0.30998 0.5684 0.0
H780 H 0.78156 0.32239 0.60653 0.0
H781 H 0.72914 0.26673 0.61755 0.0
C782 C 0.75287 0.25221 0.63684 0.0
C783 C 0.77422 0.25327 0.64429 0.0
C784 C 0.76631 0.31967 0.59825 0.0
C785 C 0.7597 0.28502 0.61741 0.0
C786 C 0.76012 0.33438 0.58305 0.0
C787 C 0.74062 0.33113 0.57177 0.0
C788 C 0.75291 0.30156 0.6023 0.0
C789 C 0.72743 0.31308 0.57663 0.0
C790 C 0.74558 0.26799 0.62337 0.0
C791 C 0.78771 0.27071 0.63823 0.0
N792 N 0.73385 0.29892 0.59149 0.0
N793 N 0.78023 0.28588 0.62514 0.0
H794 H 0.51757 0.02663 0.61189 0.0
H795 H 0.579 0.96267 0.70216 0.0
H796 H 0.53217 0.96079 0.60465 0.0
H797 H 0.55659 0.02569 0.712 0.0
H798 H 0.5616 0.96133 0.66664 0.0
H799 H 0.53177 0.02643 0.64872 0.0
C800 C 0.52381 0.01213 0.61805 0.0
C801 C 0.52379 0.99373 0.60514 0.0
C802 C 0.56037 0.97539 0.67664 0.0
C803 C 0.53998 0.99333 0.64737 0.0
C804 C 0.5703 0.97616 0.69693 0.0
C805 C 0.56935 0.99437 0.71005 0.0
C806 C 0.54954 0.99299 0.66936 0.0
C807 C 0.55781 0.01135 0.70244 0.0
C808 C 0.53179 0.01198 0.63913 0.0
C809 C 0.53174 0.97529 0.61409 0.0
N810 N 0.5485 0.0103 0.68256 0.0
N811 N 0.53965 0.9756 0.63461 0.0
H812 H 0.88076 0.18163 0.77512 0.0
H813 H 0.93162 0.27965 0.84382 0.0
H814 H 0.85407 0.24349 0.7762 0.0
H815 H 0.95122 0.21534 0.85054 0.0
H816 H 0.90307 0.26681 0.81908 0.0
H817 H 0.9065 0.19368 0.80292 0.0
C818 C 0.88011 0.19768 0.78136 0.0
C819 C 0.86516 0.21155 0.77323 0.0
C820 C 0.91354 0.25549 0.82608 0.0
C821 C 0.895 0.2256 0.80486 0.0
C822 C 0.92986 0.26281 0.84019 0.0
C823 C 0.9439 0.24856 0.84921 0.0
C824 C 0.91132 0.23378 0.8208 0.0
C825 C 0.9408 0.22691 0.84396 0.0
C826 C 0.89493 0.20459 0.79717 0.0
C827 C 0.86547 0.23232 0.7817 0.0
N828 N 0.92494 0.22021 0.83 0.0
N829 N 0.88021 0.23873 0.79696 0.0
H830 H 0.46035 0.90463 0.46121 0.0
H831 H 0.53268 0.80585 0.43672 0.0
H832 H 0.52627 0.90128 0.48211 0.0
H833 H 0.46756 0.80974 0.41355 0.0
H834 H 0.53001 0.84018 0.4547 0.0
H835 H 0.46202 0.86924 0.44503 0.0
C836 C 0.47513 0.8964 0.46253 0.0
C837 C 0.49322 0.90598 0.47299 0.0
C838 C 0.51627 0.83352 0.44573 0.0
C839 C 0.49531 0.86553 0.45433 0.0
C840 C 0.51778 0.81389 0.43546 0.0
C841 C 0.50033 0.80491 0.42356 0.0
C842 C 0.49717 0.84432 0.44412 0.0
C843 C 0.48142 0.81607 0.42253 0.0
C844 C 0.47611 0.87624 0.45318 0.0
C845 C 0.51203 0.89466 0.47394 0.0
N846 N 0.48036 0.83522 0.43264 0.0
N847 N 0.51258 0.87506 0.46473 0.0
H848 H 0.12905 0.31164 0.77798 0.0
H849 H 0.0339 0.22785 0.811 0.0
H850 H 0.10337 0.26182 0.73555 0.0
H851 H 0.0576 0.27943 0.85235 0.0
H852 H 0.0608 0.23869 0.78403 0.0
H853 H 0.10437 0.29884 0.80622 0.0
C854 C 0.11822 0.29802 0.77459 0.0
C855 C 0.11826 0.28784 0.75432 0.0
C856 C 0.06017 0.24759 0.79904 0.0
C857 C 0.09004 0.27299 0.78665 0.0
C858 C 0.04482 0.24139 0.81447 0.0
C859 C 0.04341 0.2528 0.83394 0.0
C860 C 0.07423 0.26533 0.80309 0.0
C861 C 0.05803 0.2702 0.83754 0.0
C862 C 0.1042 0.29065 0.79076 0.0
C863 C 0.1041 0.27003 0.75099 0.0
N864 N 0.07276 0.27597 0.82224 0.0
N865 N 0.09052 0.26324 0.76694 0.0
H866 H 0.55965 0.65873 0.51602 0.0
H867 H 0.47883 0.66823 0.41597 0.0
H868 H 0.51434 0.60819 0.49606 0.0
H869 H 0.52508 0.71791 0.43613 0.0
H870 H 0.49186 0.64567 0.44469 0.0
H871 H 0.54729 0.6804 0.48646 0.0
C872 C 0.54701 0.65222 0.50547 0.0
C873 C 0.53795 0.63164 0.50861 0.0
C874 C 0.49918 0.66149 0.44278 0.0
C875 C 0.52382 0.65634 0.47449 0.0
C876 C 0.49175 0.67439 0.42638 0.0
C877 C 0.50084 0.69503 0.42364 0.0
C878 C 0.51579 0.6693 0.45655 0.0
C879 C 0.51755 0.70214 0.43762 0.0
C880 C 0.54004 0.66456 0.48849 0.0
C881 C 0.52191 0.6239 0.49414 0.0
N882 N 0.52443 0.68932 0.45346 0.0
N883 N 0.51531 0.63628 0.47776 0.0
H884 H 0.85437 0.74877 0.75332 0.0
H885 H 0.93083 0.78223 0.6543 0.0
H886 H 0.86143 0.81253 0.72853 0.0
H887 H 0.92377 0.71836 0.67887 0.0
H888 H 0.9033 0.793 0.67955 0.0
H889 H 0.87735 0.73671 0.72425 0.0
C890 C 0.86051 0.7602 0.7416 0.0
C891 C 0.85605 0.78174 0.74347 0.0
C892 C 0.90767 0.77659 0.67935 0.0
C893 C 0.88268 0.76806 0.7103 0.0
C894 C 0.9234 0.77042 0.66492 0.0
C895 C 0.92975 0.74938 0.66457 0.0
C896 C 0.89822 0.76165 0.69362 0.0
C897 C 0.91947 0.73478 0.67864 0.0
C898 C 0.87377 0.75331 0.72508 0.0
C899 C 0.86473 0.79585 0.72795 0.0
N900 N 0.90432 0.74122 0.69269 0.0
N901 N 0.87771 0.78879 0.71211 0.0
H902 H 0.02412 0.90247 0.52612 0.0
H903 H 0.99329 0.78198 0.55829 0.0
H904 H 0.02111 0.85021 0.48049 0.0
H905 H -2e-05 0.83343 0.60471 0.0
H906 H 0.00177 0.8071 0.52936 0.0
H907 H 0.0139 0.87772 0.55495 0.0
C908 C 0.02138 0.88578 0.52216 0.0
C909 C 0.02353 0.87842 0.50083 0.0
C910 C 0.00135 0.81291 0.54587 0.0
C911 C 0.0116 0.85002 0.53375 0.0
C912 C 0.99647 0.79857 0.56241 0.0
C913 C 0.99597 0.8056 0.58399 0.0
C914 C 0.00575 0.83446 0.55089 0.0
C915 C 0.00023 0.8273 0.58833 0.0
C916 C 0.01543 0.87168 0.53862 0.0
C917 C 0.0194 0.85667 0.49662 0.0
N918 N 0.00498 0.84095 0.57193 0.0
N919 N 0.01369 0.84325 0.51293 0.0
H920 H 0.12536 0.71304 0.73336 0.0
H921 H 0.04398 0.77147 0.65614 0.0
H922 H 0.13673 0.77685 0.70976 0.0
H923 H 0.03179 0.70776 0.67979 0.0
H924 H 0.07756 0.77398 0.67661 0.0
H925 H 0.09067 0.71095 0.71459 0.0
C926 C 0.12058 0.7266 0.72421 0.0
C927 C 0.13399 0.74515 0.72314 0.0
C928 C 0.06753 0.75946 0.67738 0.0
C929 C 0.09426 0.74292 0.70173 0.0
C930 C 0.04833 0.75801 0.66568 0.0
C931 C 0.03506 0.73935 0.66619 0.0
C932 C 0.07359 0.7421 0.68968 0.0
C933 C 0.04153 0.72245 0.67889 0.0
C934 C 0.10073 0.72543 0.71359 0.0
C935 C 0.12682 0.76233 0.71129 0.0
N936 N 0.06037 0.72421 0.69008 0.0
N937 N 0.1075 0.76077 0.70101 0.0
H938 H 0.03345 0.59531 0.54224 0.0
H939 H 0.96341 0.68451 0.59625 0.0
H940 H 0.96454 0.58848 0.54951 0.0
H941 H 0.03082 0.69392 0.58096 0.0
H942 H 0.96358 0.64883 0.58043 0.0
H943 H 0.03293 0.63103 0.55776 0.0
C944 C 0.01821 0.60131 0.54719 0.0
C945 C 0.99901 0.58889 0.54462 0.0
C946 C 0.97832 0.65873 0.58051 0.0
C947 C 0.99827 0.62983 0.56229 0.0
C948 C 0.97824 0.67909 0.58957 0.0
C949 C 0.99713 0.69223 0.58992 0.0
C950 C 0.99745 0.65142 0.57186 0.0
C951 C 0.01587 0.68437 0.58102 0.0
C952 C 0.01791 0.62175 0.55594 0.0
C953 C 0.97969 0.59759 0.55101 0.0
N954 N 0.01556 0.66447 0.5724 0.0
N955 N 0.97982 0.6175 0.55963 0.0
H956 H 0.72021 0.9113 0.2213 0.0
H957 H 0.84677 0.9374 0.2352 0.0
H958 H 0.76838 0.86726 0.20436 0.0
H959 H 0.79843 0.9823 0.24886 0.0
H960 H 0.81829 0.91078 0.22575 0.0
H961 H 0.74867 0.93687 0.23313 0.0
C962 C 0.73679 0.90703 0.21999 0.0
C963 C 0.7419 0.88713 0.21168 0.0
C964 C 0.81392 0.92644 0.23087 0.0
C965 C 0.77462 0.91631 0.22545 0.0
C966 C 0.83017 0.94165 0.2363 0.0
C967 C 0.825 0.96216 0.24275 0.0
C968 C 0.79231 0.93176 0.23191 0.0
C969 C 0.8032 0.96673 0.24391 0.0
C970 C 0.75303 0.9216 0.22687 0.0
C971 C 0.76366 0.88232 0.21081 0.0
N972 N 0.78768 0.95168 0.23848 0.0
N973 N 0.77921 0.89684 0.21753 0.0
H974 H 0.77609 0.17235 0.31183 0.0
H975 H 0.82688 0.0805 0.24141 0.0
H976 H 0.77481 0.16994 0.24206 0.0
H977 H 0.82162 0.07849 0.31096 0.0
H978 H 0.80866 0.11382 0.24153 0.0
H979 H 0.79328 0.13836 0.31204 0.0
C980 C 0.77927 0.16463 0.29655 0.0
C981 C 0.77403 0.1741 0.27689 0.0
C982 C 0.81145 0.10609 0.25677 0.0
C983 C 0.79398 0.13528 0.27702 0.0
C984 C 0.8219 0.08706 0.25673 0.0
C985 C 0.82581 0.07666 0.27621 0.0
C986 C 0.80491 0.11492 0.27646 0.0
C987 C 0.81894 0.08594 0.29555 0.0
C988 C 0.7892 0.14526 0.29669 0.0
C989 C 0.77887 0.16346 0.2576 0.0
N990 N 0.80886 0.10456 0.29518 0.0
N991 N 0.78859 0.14468 0.25817 0.0
H992 H 0.40031 0.96415 0.0527 0.0
H993 H 0.29875 0.91236 0.98836 0.0
H994 H 0.3971 0.95984 0.98306 0.0
H995 H 0.30026 0.92231 0.05751 0.0
H996 H 0.33482 0.9294 0.98597 0.0
H997 H 0.36372 0.94862 0.05466 0.0
C998 C 0.39186 0.9601 0.03779 0.0
C999 C 0.40183 0.96341 0.01767 0.0
C1000 C 0.32723 0.92791 0.00166 0.0
C1001 C 0.3599 0.94525 0.01983 0.0
C1002 C 0.30663 0.91817 0.00304 0.0
C1003 C 0.29648 0.91585 0.02319 0.0
C1004 C 0.33779 0.93532 0.02055 0.0
C1005 C 0.30746 0.92372 0.04164 0.0
C1006 C 0.37098 0.95111 0.03893 0.0
C1007 C 0.39018 0.95738 0.99893 0.0
N1008 N 0.32753 0.93304 0.03988 0.0
N1009 N 0.36985 0.94859 0.00047 0.0
H1010 H 0.24635 0.39154 0.33658 0.0
H1011 H 0.15471 0.42694 0.25537 0.0
H1012 H 0.2321 0.35954 0.27586 0.0
H1013 H 0.17227 0.4598 0.31485 0.0
H1014 H 0.18121 0.40065 0.26336 0.0
H1015 H 0.21749 0.41521 0.32968 0.0
C1016 C 0.237 0.38934 0.32187 0.0
C1017 C 0.24165 0.37346 0.30681 0.0
C1018 C 0.17917 0.41358 0.27468 0.0
C1019 C 0.20865 0.40084 0.2986 0.0
C1020 C 0.16402 0.42856 0.27016 0.0
C1021 C 0.16134 0.44567 0.28441 0.0
C1022 C 0.19167 0.41573 0.2936 0.0
C1023 C 0.17384 0.44697 0.30333 0.0
C1024 C 0.22058 0.40298 0.31786 0.0
C1025 C 0.22923 0.3717 0.28782 0.0
N1026 N 0.18847 0.43226 0.30732 0.0
N1027 N 0.2133 0.38523 0.28424 0.0
H1028 H 0.10047 0.00996 0.49284 0.0
H1029 H 0.208 0.08132 0.46973 0.0
H1030 H 0.13474 0.0096 0.43229 0.0
H1031 H 0.17682 0.07828 0.53198 0.0
H1032 H 0.18009 0.05656 0.45522 0.0
H1033 H 0.12695 0.03663 0.50687 0.0
C1034 C 0.11347 0.01561 0.48244 0.0
C1035 C 0.11543 0.00748 0.46138 0.0
C1036 C 0.17932 0.06132 0.47205 0.0
C1037 C 0.14591 0.03786 0.47739 0.0
C1038 C 0.19526 0.07549 0.48036 0.0
C1039 C 0.1948 0.08184 0.50214 0.0
C1040 C 0.16274 0.05343 0.48559 0.0
C1041 C 0.17786 0.07377 0.51511 0.0
C1042 C 0.12866 0.03075 0.4905 0.0
C1043 C 0.13276 0.0152 0.44872 0.0
N1044 N 0.16252 0.05996 0.50664 0.0
N1045 N 0.14732 0.02993 0.45692 0.0
H1046 H 0.74825 0.09265 0.71199 0.0
H1047 H 0.6314 0.07614 0.76506 0.0
H1048 H 0.71229 0.14454 0.73609 0.0
H1049 H 0.66805 0.02542 0.73937 0.0
H1050 H 0.66056 0.10164 0.75477 0.0
H1051 H 0.71868 0.06795 0.72202 0.0
C1052 C 0.73406 0.09888 0.71927 0.0
C1053 C 0.73274 0.12074 0.72311 0.0
C1054 C 0.66217 0.08492 0.75139 0.0
C1055 C 0.69879 0.09241 0.73493 0.0
C1056 C 0.64553 0.07037 0.75724 0.0
C1057 C 0.64726 0.0486 0.75307 0.0
C1058 C 0.68064 0.07763 0.74132 0.0
C1059 C 0.66596 0.04202 0.74291 0.0
C1060 C 0.7172 0.08473 0.72512 0.0
C1061 C 0.71409 0.12781 0.73301 0.0
N1062 N 0.68187 0.05646 0.73742 0.0
N1063 N 0.69782 0.11369 0.73856 0.0
H1064 H 0.40515 0.03894 0.47319 0.0
H1065 H 0.30651 0.08629 0.5366 0.0
H1066 H 0.39538 0.03076 0.54178 0.0
H1067 H 0.31002 0.08165 0.46703 0.0
H1068 H 0.33984 0.06745 0.53921 0.0
H1069 H 0.371 0.05597 0.47094 0.0
C1070 C 0.39575 0.04051 0.48777 0.0
C1071 C 0.40321 0.03329 0.50771 0.0
C1072 C 0.33324 0.0705 0.52339 0.0
C1073 C 0.36414 0.05326 0.50528 0.0
C1074 C 0.31425 0.08128 0.52189 0.0
C1075 C 0.30547 0.08558 0.50156 0.0
C1076 C 0.34361 0.06415 0.50444 0.0
C1077 C 0.31617 0.07868 0.48304 0.0
C1078 C 0.37627 0.05038 0.48648 0.0
C1079 C 0.39047 0.0363 0.52611 0.0
N1080 N 0.3347 0.06841 0.48493 0.0
N1081 N 0.3716 0.0461 0.52446 0.0
H1082 H 0.63882 0.52631 0.52388 0.0
H1083 H 0.685 0.41328 0.55066 0.0
H1084 H 0.61511 0.48625 0.57574 0.0
H1085 H 0.70756 0.45282 0.4979 0.0
H1086 H 0.65823 0.43907 0.55916 0.0
H1087 H 0.66316 0.49893 0.51328 0.0
C1088 C 0.63874 0.51175 0.53305 0.0
C1089 C 0.62497 0.50863 0.55081 0.0
C1090 C 0.66897 0.44206 0.54566 0.0
C1091 C 0.65274 0.47711 0.53867 0.0
C1092 C 0.68428 0.42733 0.5408 0.0
C1093 C 0.69863 0.43093 0.5236 0.0
C1094 C 0.66804 0.46057 0.53329 0.0
C1095 C 0.69688 0.4494 0.51135 0.0
C1096 C 0.65257 0.49607 0.52692 0.0
C1097 C 0.6253 0.48928 0.56184 0.0
N1098 N 0.68194 0.46357 0.51649 0.0
N1099 N 0.63905 0.47431 0.55567 0.0
H1100 H 0.69157 0.30558 0.36124 0.0
H1101 H 0.75396 0.33888 0.47058 0.0
H1102 H 0.7565 0.28929 0.37575 0.0
H1103 H 0.68848 0.35448 0.45761 0.0
H1104 H 0.75445 0.31942 0.43643 0.0
H1105 H 0.68934 0.32214 0.39701 0.0
C1106 C 0.70529 0.3053 0.37201 0.0
C1107 C 0.7243 0.29612 0.36542 0.0
C1108 C 0.73992 0.32703 0.44104 0.0
C1109 C 0.72192 0.31526 0.40629 0.0
C1110 C 0.73963 0.33817 0.46058 0.0
C1111 C 0.72117 0.34844 0.46695 0.0
C1112 C 0.72166 0.32615 0.42765 0.0
C1113 C 0.70308 0.34685 0.45332 0.0
C1114 C 0.70404 0.31487 0.39239 0.0
C1115 C 0.74165 0.29648 0.37998 0.0
N1116 N 0.70381 0.336 0.43426 0.0
N1117 N 0.74006 0.30594 0.39967 0.0
H1118 H 0.56658 0.02003 0.93902 0.0
H1119 H 0.56101 0.98938 0.81315 0.0
H1120 H 0.51026 0.99032 0.90841 0.0
H1121 H 0.6171 0.01856 0.84473 0.0
H1122 H 0.54137 0.99131 0.84727 0.0
H1123 H 0.58462 0.02118 0.90406 0.0
C1124 C 0.55802 0.01369 0.92493 0.0
C1125 C 0.53694 0.00489 0.92669 0.0
C1126 C 0.55794 0.99737 0.84669 0.0
C1127 C 0.55747 0.00631 0.88648 0.0
C1128 C 0.56917 0.9963 0.82721 0.0
C1129 C 0.59079 0.00371 0.82609 0.0
C1130 C 0.56841 0.00591 0.86519 0.0
C1131 C 0.6005 0.01255 0.84482 0.0
C1132 C 0.56829 0.01446 0.90494 0.0
C1133 C 0.52648 0.99734 0.90779 0.0
N1134 N 0.58928 0.01332 0.86359 0.0
N1135 N 0.5369 0.99811 0.88848 0.0
H1136 H 0.27699 0.22455 0.3568 0.0
H1137 H 0.27859 0.18019 0.47768 0.0
H1138 H 0.30698 0.25844 0.41078 0.0
H1139 H 0.24506 0.14744 0.42501 0.0
H1140 H 0.29002 0.20846 0.45298 0.0
H1141 H 0.26587 0.19568 0.38115 0.0
C1142 C 0.28118 0.22596 0.37377 0.0
C1143 C 0.29296 0.24397 0.38174 0.0
C1144 C 0.28016 0.1951 0.44679 0.0
C1145 C 0.28044 0.2109 0.40965 0.0
C1146 C 0.27363 0.17892 0.4609 0.0
C1147 C 0.26081 0.16141 0.45342 0.0
C1148 C 0.27389 0.19381 0.42498 0.0
C1149 C 0.2549 0.16066 0.43149 0.0
C1150 C 0.27491 0.20943 0.38764 0.0
C1151 C 0.29821 0.24476 0.40383 0.0
N1152 N 0.26149 0.17664 0.41804 0.0
N1153 N 0.29189 0.22849 0.41699 0.0
H1154 H 0.45678 0.43882 0.88797 0.0
H1155 H 0.41031 0.52362 0.80692 0.0
H1156 H 0.4922 0.49585 0.86779 0.0
H1157 H 0.37783 0.46313 0.82084 0.0
H1158 H 0.43856 0.51552 0.8325 0.0
H1159 H 0.4259 0.44935 0.86685 0.0
C1160 C 0.45798 0.45368 0.87929 0.0
C1161 C 0.47715 0.46642 0.87955 0.0
C1162 C 0.4252 0.50406 0.83005 0.0
C1163 C 0.44193 0.47846 0.85518 0.0
C1164 C 0.40901 0.50869 0.81548 0.0
C1165 C 0.39173 0.49395 0.81159 0.0
C1166 C 0.42414 0.48456 0.84088 0.0
C1167 C 0.39091 0.47491 0.82323 0.0
C1168 C 0.44039 0.45961 0.86713 0.0
C1169 C 0.47786 0.48538 0.86778 0.0
N1170 N 0.40695 0.47071 0.83726 0.0
N1171 N 0.46054 0.49079 0.85604 0.0
H1172 H 0.68857 0.7265 0.14555 0.0
H1173 H 0.77436 0.69428 0.05644 0.0
H1174 H 0.73536 0.77064 0.11705 0.0
H1175 H 0.72031 0.65304 0.07548 0.0
H1176 H 0.76333 0.72077 0.08256 0.0
H1177 H 0.70307 0.69782 0.12394 0.0
C1178 C 0.70205 0.7301 0.13492 0.0
C1179 C 0.71068 0.751 0.13295 0.0
C1180 C 0.75394 0.70588 0.08112 0.0
C1181 C 0.72725 0.71836 0.10816 0.0
C1182 C 0.76026 0.6907 0.06624 0.0
C1183 C 0.74814 0.67146 0.06362 0.0
C1184 C 0.73538 0.70182 0.09357 0.0
C1185 C 0.73006 0.66771 0.07685 0.0
C1186 C 0.71022 0.71377 0.12251 0.0
C1187 C 0.72801 0.75481 0.11882 0.0
N1188 N 0.72417 0.6828 0.09119 0.0
N1189 N 0.73569 0.73867 0.10693 0.0
H1190 H 0.97469 0.06282 0.12685 0.0
H1191 H 0.9367 0.99602 0.2306 0.0
H1192 H 0.01577 0.02239 0.16244 0.0
H1193 H 0.89614 0.0384 0.19685 0.0
H1194 H 0.96478 0.00312 0.20382 0.0
H1195 H 0.94471 0.05158 0.15022 0.0
C1196 C 0.97735 0.05138 0.13942 0.0
C1197 C 0.99782 0.04363 0.14276 0.0
C1198 C 0.9497 0.01079 0.20219 0.0
C1199 C 0.96361 0.03089 0.16977 0.0
C1200 C 0.93363 0.00673 0.21748 0.0
C1201 C 0.91407 0.01675 0.21608 0.0
C1202 C 0.94626 0.02502 0.18534 0.0
C1203 C 0.911 0.03039 0.19864 0.0
C1204 C 0.96025 0.04507 0.15285 0.0
C1205 C 0.00036 0.02904 0.15949 0.0
N1206 N 0.92698 0.03422 0.18402 0.0
N1207 N 0.9835 0.02323 0.17241 0.0
H1208 H 0.25329 0.72744 0.10751 0.0
H1209 H 0.2552 0.84931 0.07272 0.0
H1210 H 0.28413 0.7783 0.14528 0.0
H1211 H 0.21992 0.79884 0.03824 0.0
H1212 H 0.2651 0.8238 0.10004 0.0
H1213 H 0.24001 0.75356 0.08267 0.0
C1214 C 0.25708 0.74411 0.11076 0.0
C1215 C 0.26987 0.75063 0.12859 0.0
C1216 C 0.25509 0.81832 0.08657 0.0
C1217 C 0.25497 0.7807 0.09984 0.0
C1218 C 0.24942 0.83289 0.07095 0.0
C1219 C 0.23679 0.82619 0.05307 0.0
C1220 C 0.24818 0.79687 0.08428 0.0
C1221 C 0.22973 0.80472 0.05169 0.0
C1222 C 0.24959 0.75904 0.09645 0.0
C1223 C 0.27459 0.77249 0.13161 0.0
N1224 N 0.23562 0.79082 0.06701 0.0
N1225 N 0.2672 0.78672 0.11735 0.0
H1226 H 0.05033 0.47096 0.0922 0.0
H1227 H 0.04523 0.51041 0.21537 0.0
H1228 H 0.00368 0.51366 0.11607 0.0
H1229 H 0.09308 0.46933 0.19086 0.0
H1230 H 0.02827 0.50987 0.1797 0.0
H1231 H 0.06488 0.46852 0.12873 0.0
C1232 C 0.04317 0.47987 0.10512 0.0
C1233 C 0.02584 0.49265 0.10101 0.0
C1234 C 0.04241 0.50089 0.18216 0.0
C1235 C 0.04231 0.48976 0.14298 0.0
C1236 C 0.0521 0.50116 0.20254 0.0
C1237 C 0.07069 0.48999 0.2061 0.0
C1238 C 0.05138 0.48939 0.16517 0.0
C1239 C 0.07883 0.47825 0.18885 0.0
C1240 C 0.05141 0.47837 0.12601 0.0
C1241 C 0.01694 0.50348 0.11849 0.0
N1242 N 0.06919 0.47834 0.16913 0.0
N1243 N 0.02534 0.50188 0.13868 0.0
H1244 H 0.35914 0.74647 0.25561 0.0
H1245 H 0.43827 0.71211 0.34968 0.0
H1246 H 0.36761 0.68133 0.27321 0.0
H1247 H 0.42741 0.77732 0.33412 0.0
H1248 H 0.41084 0.70056 0.32319 0.0
H1249 H 0.38239 0.75813 0.28575 0.0
C1250 C 0.36569 0.73461 0.26594 0.0
C1251 C 0.36151 0.71287 0.26174 0.0
C1252 C 0.41435 0.7174 0.32567 0.0
C1253 C 0.38841 0.72612 0.29616 0.0
C1254 C 0.43001 0.72402 0.34082 0.0
C1255 C 0.43527 0.74573 0.34403 0.0
C1256 C 0.40391 0.73259 0.31357 0.0
C1257 C 0.42397 0.76042 0.33213 0.0
C1258 C 0.37907 0.74128 0.28309 0.0
C1259 C 0.3707 0.69824 0.27556 0.0
N1260 N 0.40894 0.75358 0.31733 0.0
N1261 N 0.38378 0.70512 0.29206 0.0
H1262 H 0.9656 0.40193 0.97734 0.0
H1263 H 0.04268 0.32604 0.91302 0.0
H1264 H 0.02735 0.42291 0.9516 0.0
H1265 H 0.9758 0.30911 0.92538 0.0
H1266 H 0.03809 0.36074 0.9296 0.0
H1267 H 0.96974 0.36693 0.96082 0.0
C1268 C 0.98003 0.39914 0.96824 0.0
C1269 C 0.99614 0.41534 0.9658 0.0
C1270 C 0.0244 0.34946 0.92867 0.0
C1271 C 0.001 0.37541 0.94691 0.0
C1272 C 0.02702 0.32959 0.91926 0.0
C1273 C 0.00959 0.31464 0.91779 0.0
C1274 C 0.00424 0.3544 0.93685 0.0
C1275 C 0.98966 0.32018 0.92613 0.0
C1276 C 0.98234 0.37922 0.95874 0.0
C1277 C 0.01444 0.41095 0.95368 0.0
N1278 N 0.98754 0.33961 0.93536 0.0
N1279 N 0.01641 0.39139 0.94478 0.0
H1280 H 0.61342 0.76584 0.25306 0.0
H1281 H 0.52814 0.81239 0.33511 0.0
H1282 H 0.60308 0.83262 0.26087 0.0
H1283 H 0.54379 0.74648 0.33393 0.0
H1284 H 0.55493 0.81976 0.30714 0.0
H1285 H 0.58723 0.75805 0.28177 0.0
C1286 C 0.60561 0.77885 0.26079 0.0
C1287 C 0.61048 0.79992 0.2546 0.0
C1288 C 0.55257 0.80369 0.31301 0.0
C1289 C 0.58058 0.79114 0.28745 0.0
C1290 C 0.53723 0.79945 0.32899 0.0
C1291 C 0.53369 0.77878 0.33688 0.0
C1292 C 0.56442 0.78712 0.30472 0.0
C1293 C 0.546 0.76266 0.32834 0.0
C1294 C 0.59076 0.7744 0.27724 0.0
C1295 C 0.60005 0.81617 0.26531 0.0
N1296 N 0.56078 0.76717 0.31266 0.0
N1297 N 0.58557 0.81143 0.28114 0.0
H1298 H 0.0383 0.16752 0.04615 0.0
H1299 H 0.02207 0.19488 0.92138 0.0
H1300 H 0.04609 0.12201 0.99456 0.0
H1301 H 0.00234 0.2349 0.97393 0.0
H1302 H 0.03296 0.16874 0.94772 0.0
H1303 H 0.02692 0.19309 0.0197 0.0
C1304 C 0.03746 0.1628 0.02928 0.0
C1305 C 0.04308 0.14247 0.02264 0.0
C1306 C 0.0262 0.18322 0.95346 0.0
C1307 C 0.03039 0.17196 0.99213 0.0
C1308 C 0.02002 0.19818 0.93844 0.0
C1309 C 0.01127 0.21712 0.94546 0.0
C1310 C 0.02378 0.18731 0.97566 0.0
C1311 C 0.00897 0.22052 0.96777 0.0
C1312 C 0.03106 0.1775 0.01415 0.0
C1313 C 0.04216 0.13754 0.00044 0.0
N1314 N 0.01524 0.20579 0.98205 0.0
N1315 N 0.03595 0.15218 0.98599 0.0
H1316 H 0.36305 0.25621 0.25565 0.0
H1317 H 0.44434 0.28755 0.15978 0.0
H1318 H 0.3752 0.32028 0.23306 0.0
H1319 H 0.43263 0.22341 0.1824 0.0
H1320 H 0.41703 0.29939 0.18472 0.0
H1321 H 0.38621 0.24346 0.22703 0.0
C1322 C 0.37036 0.26758 0.24451 0.0
C1323 C 0.36726 0.28937 0.24686 0.0
C1324 C 0.42034 0.2827 0.18416 0.0
C1325 C 0.39407 0.27491 0.21421 0.0
C1326 C 0.43594 0.27592 0.16991 0.0
C1327 C 0.4409 0.25446 0.1691 0.0
C1328 C 0.40961 0.26796 0.19779 0.0
C1329 C 0.42941 0.24011 0.18255 0.0
C1330 C 0.38371 0.2603 0.22825 0.0
C1331 C 0.37741 0.30338 0.23209 0.0
N1332 N 0.4144 0.24714 0.19642 0.0
N1333 N 0.39042 0.29592 0.21649 0.0
H1334 H 0.54134 0.34704 0.98332 0.0
H1335 H 0.49365 0.3358 0.10291 0.0
H1336 H 0.51582 0.3992 0.01899 0.0
H1337 H 0.51226 0.28268 0.06397 0.0
H1338 H 0.50217 0.35944 0.07266 0.0
H1339 H 0.53115 0.32334 0.01294 0.0
C1340 C 0.53344 0.3535 0.9973 0.0
C1341 C 0.52943 0.37519 0.99862 0.0
C1342 C 0.50433 0.3426 0.07072 0.0
C1343 C 0.51799 0.34811 0.03281 0.0
C1344 C 0.49948 0.32909 0.08799 0.0
C1345 C 0.50228 0.30722 0.086 0.0
C1346 C 0.51213 0.33421 0.05133 0.0
C1347 C 0.50986 0.29943 0.06626 0.0
C1348 C 0.52773 0.33996 0.01428 0.0
C1349 C 0.51951 0.38268 0.01737 0.0
N1350 N 0.51458 0.31291 0.04974 0.0
N1351 N 0.51416 0.36917 0.03373 0.0
H1352 H 0.65079 0.2822 0.21117 0.0
H1353 H 0.53977 0.215 0.191 0.0
H1354 H 0.63349 0.22367 0.24401 0.0
H1355 H 0.55761 0.27348 0.15827 0.0
H1356 H 0.57358 0.21822 0.21121 0.0
H1357 H 0.61626 0.27965 0.19236 0.0
C1358 C 0.63966 0.26888 0.21456 0.0
C1359 C 0.64506 0.25314 0.22923 0.0
C1360 C 0.57008 0.23036 0.19963 0.0
C1361 C 0.60552 0.24998 0.20751 0.0
C1362 C 0.55076 0.22854 0.18809 0.0
C1363 C 0.54585 0.24397 0.17288 0.0
C1364 C 0.58461 0.24773 0.19593 0.0
C1365 C 0.56071 0.26118 0.16981 0.0
C1366 C 0.61998 0.26737 0.2037 0.0
C1367 C 0.63013 0.23605 0.23265 0.0
N1368 N 0.57942 0.26257 0.1812 0.0
N1369 N 0.61104 0.23492 0.22188 0.0
H1370 H 0.46588 0.09292 0.05324 0.0
H1371 H 0.54179 0.19212 0.0926 0.0
H1372 H 0.53518 0.09305 0.05392 0.0
H1373 H 0.47288 0.18859 0.10089 0.0
H1374 H 0.53954 0.15645 0.07687 0.0
H1375 H 0.46797 0.1287 0.06893 0.0
C1376 C 0.48154 0.10054 0.05658 0.0
C1377 C 0.50039 0.08999 0.05226 0.0
C1378 C 0.52491 0.16345 0.08216 0.0
C1379 C 0.5029 0.13086 0.07036 0.0
C1380 C 0.52617 0.18385 0.09112 0.0
C1381 C 0.50749 0.19337 0.09806 0.0
C1382 C 0.5048 0.1525 0.07999 0.0
C1383 C 0.4877 0.18185 0.09577 0.0
C1384 C 0.48272 0.1209 0.06567 0.0
C1385 C 0.52024 0.10049 0.0572 0.0
N1386 N 0.48687 0.16204 0.08687 0.0
N1387 N 0.52097 0.12036 0.06593 0.0
H1388 H 0.25351 0.39226 0.66853 0.0
H1389 H 0.30884 0.46671 0.7606 0.0
H1390 H 0.23309 0.39127 0.73519 0.0
H1391 H 0.32119 0.47423 0.69237 0.0
H1392 H 0.28297 0.43725 0.75214 0.0
H1393 H 0.2803 0.42056 0.67752 0.0
C1394 C 0.25457 0.39804 0.68506 0.0
C1395 C 0.24086 0.38943 0.70109 0.0
C1396 C 0.29135 0.44535 0.73904 0.0
C1397 C 0.27181 0.42173 0.71157 0.0
C1398 C 0.30615 0.46215 0.74385 0.0
C1399 C 0.31717 0.473 0.72716 0.0
C1400 C 0.28764 0.43927 0.71739 0.0
C1401 C 0.31302 0.46639 0.70576 0.0
C1402 C 0.26997 0.41415 0.6902 0.0
C1403 C 0.24341 0.39727 0.72233 0.0
N1404 N 0.29862 0.44996 0.70151 0.0
N1405 N 0.25853 0.413 0.72693 0.0
H1406 H 0.29847 0.68131 0.7638 0.0
H1407 H 0.28215 0.55537 0.77819 0.0
H1408 H 0.23684 0.64942 0.77642 0.0
H1409 H 0.34272 0.58783 0.76227 0.0
H1410 H 0.2655 0.58967 0.77974 0.0
H1411 H 0.31517 0.64721 0.7652 0.0
C1412 C 0.28843 0.66711 0.76681 0.0
C1413 C 0.26618 0.66823 0.76982 0.0
C1414 C 0.28245 0.58927 0.77597 0.0
C1415 C 0.28527 0.62904 0.77165 0.0
C1416 C 0.29197 0.56969 0.7751 0.0
C1417 C 0.31386 0.56869 0.77 0.0
C1418 C 0.2949 0.60799 0.77174 0.0
C1419 C 0.32579 0.58779 0.76618 0.0
C1420 C 0.298 0.64764 0.76772 0.0
C1421 C 0.25406 0.64934 0.77414 0.0
N1422 N 0.31615 0.6066 0.76708 0.0
N1423 N 0.26375 0.6305 0.77482 0.0
H1424 H 0.92212 0.42297 0.50091 0.0
H1425 H 0.796 0.43239 0.52145 0.0
H1426 H 0.89305 0.48224 0.51478 0.0
H1427 H 0.82554 0.37337 0.50744 0.0
H1428 H 0.83121 0.45114 0.51826 0.0
H1429 H 0.88663 0.40474 0.50221 0.0
C1430 C 0.90825 0.43219 0.50406 0.0
C1431 C 0.91059 0.45418 0.50774 0.0
C1432 C 0.82997 0.43409 0.51584 0.0
C1433 C 0.86986 0.43334 0.50954 0.0
C1434 C 0.80987 0.42337 0.51767 0.0
C1435 C 0.80782 0.40126 0.51477 0.0
C1436 C 0.84815 0.42261 0.5111 0.0
C1437 C 0.82634 0.39042 0.50985 0.0
C1438 C 0.88798 0.42174 0.50493 0.0
C1439 C 0.89205 0.46523 0.51211 0.0
N1440 N 0.84571 0.40119 0.50822 0.0
N1441 N 0.87247 0.45469 0.5129 0.0
H1442 H 0.76067 0.90053 0.81511 0.0
H1443 H 0.64403 0.92434 0.76907 0.0
H1444 H 0.71597 0.85123 0.79107 0.0
H1445 H 0.69015 0.97213 0.79365 0.0
H1446 H 0.66972 0.89711 0.7767 0.0
H1447 H 0.73456 0.92679 0.80714 0.0
C1448 C 0.74527 0.8952 0.80828 0.0
C1449 C 0.74046 0.8736 0.80392 0.0
C1450 C 0.67416 0.91357 0.7804 0.0
C1451 C 0.71044 0.90376 0.79442 0.0
C1452 C 0.65951 0.92911 0.77606 0.0
C1453 C 0.66493 0.95056 0.78072 0.0
C1454 C 0.69432 0.91957 0.78946 0.0
C1455 C 0.68522 0.95582 0.78977 0.0
C1456 C 0.73039 0.91024 0.80359 0.0
C1457 C 0.72041 0.86772 0.79458 0.0
N1458 N 0.69912 0.94047 0.79382 0.0
N1459 N 0.70609 0.88272 0.79018 0.0
H1460 H 0.63618 0.48569 0.97829 0.0
H1461 H 0.66946 0.61008 0.97755 0.0
H1462 H 0.60109 0.53181 0.94339 0.0
H1463 H 0.70656 0.5632 0.00902 0.0
H1464 H 0.64307 0.58197 0.96664 0.0
H1465 H 0.66107 0.51418 0.99125 0.0
C1466 C 0.63374 0.5018 0.97328 0.0
C1467 C 0.61657 0.50632 0.95961 0.0
C1468 C 0.65695 0.57784 0.97599 0.0
C1469 C 0.64493 0.53912 0.97461 0.0
C1470 C 0.67202 0.5939 0.98226 0.0
C1471 C 0.6903 0.58899 0.99417 0.0
C1472 C 0.66016 0.55672 0.98168 0.0
C1473 C 0.69275 0.56773 -0.00019 0.0
C1474 C 0.64791 0.5181 0.98079 0.0
C1475 C 0.61398 0.52759 0.95404 0.0
N1476 N 0.67788 0.55239 0.99347 0.0
N1477 N 0.62805 0.54318 0.96149 0.0
H1478 H 0.25804 0.59278 0.21914 0.0
H1479 H 0.13118 0.57128 0.23434 0.0
H1480 H 0.21232 0.64148 0.21244 0.0
H1481 H 0.17804 0.52474 0.24691 0.0
H1482 H 0.1605 0.59733 0.22627 0.0
H1483 H 0.22874 0.56763 0.22924 0.0
C1484 C 0.24182 0.59817 0.21977 0.0
C1485 C 0.23761 0.61924 0.21487 0.0
C1486 C 0.16434 0.58143 0.23087 0.0
C1487 C 0.20395 0.59054 0.22653 0.0
C1488 C 0.14761 0.56654 0.23546 0.0
C1489 C 0.15215 0.54577 0.24125 0.0
C1490 C 0.18575 0.57546 0.23199 0.0
C1491 C 0.17376 0.54055 0.24247 0.0
C1492 C 0.2251 0.58383 0.22565 0.0
C1493 C 0.21631 0.62543 0.21628 0.0
N1494 N 0.18972 0.55526 0.23781 0.0
N1495 N 0.20026 0.61112 0.22187 0.0
H1496 H 0.88816 0.5144 0.9876 0.0
H1497 H 0.8149 0.60554 0.03266 0.0
H1498 H 0.91046 0.56217 0.03399 0.0
H1499 H 0.79144 0.55471 0.99025 0.0
H1500 H 0.85004 0.58997 0.03337 0.0
H1501 H 0.8526 0.52894 0.98846 0.0
C1502 C 0.88556 0.52785 0.99809 0.0
C1503 C 0.90238 0.53707 0.01073 0.0
C1504 C 0.83718 0.58219 0.02396 0.0
C1505 C 0.86168 0.554 0.01158 0.0
C1506 C 0.8171 0.59107 0.02355 0.0
C1507 C 0.80019 0.58144 0.01134 0.0
C1508 C 0.84041 0.56358 0.01202 0.0
C1509 C 0.804 0.56271 -0.00013 0.0
C1510 C 0.86526 0.53622 0.99848 0.0
C1511 C 0.89809 0.55473 0.02373 0.0
N1512 N 0.82371 0.55443 0.00044 0.0
N1513 N 0.87819 0.56262 0.02379 0.0
H1514 H 0.11104 0.98582 0.06861 0.0
H1515 H 0.21454 0.96103 0.99794 0.0
H1516 H 0.14891 0.03338 0.03371 0.0
H1517 H 0.1801 0.9141 0.03685 0.0
H1518 H 0.18905 0.98714 0.00891 0.0
H1519 H 0.13444 0.95873 0.05505 0.0
C1520 C 0.12416 0.99054 0.05794 0.0
C1521 C 0.12808 0.01192 0.05237 0.0
C1522 C 0.18701 0.97112 0.01502 0.0
C1523 C 0.15505 0.98103 0.03694 0.0
C1524 C 0.20157 0.95617 0.00874 0.0
C1525 C 0.19953 0.93534 0.01656 0.0
C1526 C 0.17023 0.96525 0.02923 0.0
C1527 C 0.18234 0.92999 0.03048 0.0
C1528 C 0.1376 0.97508 0.05031 0.0
C1529 C 0.14548 0.01715 0.03869 0.0
N1530 N 0.16839 0.94486 0.03641 0.0
N1531 N 0.15832 0.00183 0.03148 0.0
loop_
_geom_bond_atom_site_label_1
_geom_bond_atom_site_label_2
_geom_bond_distance
_geom_bond_site_symmetry_2
_ccdc_geom_bond_type
P0 O11 1.490 . S
P0 C14 1.812 . S
P0 C20 1.803 . S
P0 C26 1.819 . S
H1 C15 0.941 . S
H2 C16 0.939 . S
H3 C18 0.940 . S
H4 C19 0.940 . S
H5 C21 0.939 . S
H6 C22 0.942 . S
H7 C24 0.940 1_565 S
H8 C25 0.939 . S
H9 C27 0.941 . S
H10 C31 0.939 . S
O11 P0 1.490 . S
H12 C28 0.939 . S
H13 C30 0.940 1_556 S
C14 P0 1.812 . S
C14 C15 1.389 . S
C14 C19 1.391 . S
C15 H1 0.941 . S
C15 C14 1.389 . S
C15 C16 1.397 . S
C16 H2 0.939 . S
C16 C15 1.397 . S
C16 C17 1.378 1_455 S
C17 C16 1.378 1_655 S
C17 C18 1.378 . S
C18 H3 0.940 . S
C18 C17 1.378 . S
C18 C19 1.396 1_655 S
C19 H4 0.940 . S
C19 C14 1.391 . S
C19 C18 1.396 1_455 S
C20 P0 1.803 . S
C20 C21 1.378 . S
C20 C25 1.400 . S
C21 H5 0.939 . S
C21 C20 1.378 . S
C21 C22 1.361 . S
C22 H6 0.942 . S
C22 C21 1.361 . S
C22 C23 1.369 . S
C23 C22 1.369 . S
C23 C24 1.404 . S
C24 H7 0.940 1_545 S
C24 C23 1.404 . S
C24 C25 1.389 . S
C25 H8 0.939 . S
C25 C20 1.400 . S
C25 C24 1.389 . S
C26 P0 1.819 . S
C26 C27 1.391 . S
C26 C31 1.391 . S
C27 H9 0.941 . S
C27 C26 1.391 . S
C27 C28 1.396 . S
C28 H12 0.939 . S
C28 C27 1.396 . S
C28 C29 1.397 . S
C29 C28 1.397 . S
C29 C30 1.385 . S
C30 H13 0.940 1_554 S
C30 C29 1.385 . S
C30 C31 1.388 . S
C31 H10 0.939 . S
C31 C26 1.391 . S
C31 C30 1.388 . S
P32 O43 1.490 . S
P32 C46 1.812 . S
P32 C52 1.803 . S
P32 C58 1.819 . S
H33 C47 0.941 . S
H34 C48 0.939 . S
H35 C50 0.940 . S
H36 C51 0.940 . S
H37 C53 0.939 . S
H38 C54 0.942 . S
H39 C56 0.940 . S
H40 C57 0.939 . S
H41 C59 0.941 . S
H42 C63 0.939 . S
O43 P32 1.490 . S
H44 C60 0.939 . S
H45 C62 0.940 . S
C46 P32 1.812 . S
C46 C47 1.389 . S
C46 C51 1.391 . S
C47 H33 0.941 . S
C47 C46 1.389 . S
C47 C48 1.397 . S
C48 H34 0.939 . S
C48 C47 1.397 . S
C48 C49 1.378 . S
C49 C48 1.378 . S
C49 C50 1.378 . S
C50 H35 0.940 . S
C50 C49 1.378 . S
C50 C51 1.396 . S
C51 H36 0.940 . S
C51 C46 1.391 . S
C51 C50 1.396 . S
C52 P32 1.803 . S
C52 C53 1.378 . S
C52 C57 1.400 . S
C53 H37 0.939 . S
C53 C52 1.378 . S
C53 C54 1.361 . S
C54 H38 0.942 . S
C54 C53 1.361 . S
C54 C55 1.369 . S
C55 C54 1.369 . S
C55 C56 1.404 . S
C56 H39 0.940 . S
C56 C55 1.404 . S
C56 C57 1.389 . S
C57 H40 0.939 . S
C57 C52 1.400 . S
C57 C56 1.389 . S
C58 P32 1.819 . S
C58 C59 1.391 . S
C58 C63 1.391 . S
C59 H41 0.941 . S
C59 C58 1.391 . S
C59 C60 1.396 . S
C60 H44 0.939 . S
C60 C59 1.396 . S
C60 C61 1.397 . S
C61 C60 1.397 . S
C61 C62 1.385 . S
C62 H45 0.940 . S
C62 C61 1.385 . S
C62 C63 1.388 . S
C63 H42 0.939 . S
C63 C58 1.391 . S
C63 C62 1.388 . S
P64 O75 1.490 . S
P64 C78 1.812 . S
P64 C84 1.803 . S
P64 C90 1.819 . S
H65 C79 0.941 . S
H66 C80 0.939 . S
H67 C82 0.940 . S
H68 C83 0.940 . S
H69 C85 0.939 . S
H70 C86 0.942 . S
H71 C88 0.940 . S
H72 C89 0.939 . S
H73 C91 0.941 . S
H74 C95 0.939 . S
O75 P64 1.490 . S
H76 C92 0.939 . S
H77 C94 0.940 . S
C78 P64 1.812 . S
C78 C79 1.389 1_554 S
C78 C83 1.391 . S
C79 H65 0.941 . S
C79 C78 1.389 1_556 S
C79 C80 1.397 . S
C80 H66 0.939 . S
C80 C79 1.397 . S
C80 C81 1.378 . S
C81 C80 1.378 . S
C81 C82 1.378 1_556 S
C82 H67 0.940 . S
C82 C81 1.378 1_554 S
C82 C83 1.396 . S
C83 H68 0.940 . S
C83 C78 1.391 . S
C83 C82 1.396 . S
C84 P64 1.803 . S
C84 C85 1.378 . S
C84 C89 1.400 . S
C85 H69 0.939 . S
C85 C84 1.378 . S
C85 C86 1.361 . S
C86 H70 0.942 . S
C86 C85 1.361 . S
C86 C87 1.369 . S
C87 C86 1.369 . S
C87 C88 1.404 . S
C88 H71 0.940 . S
C88 C87 1.404 . S
C88 C89 1.389 . S
C89 H72 0.939 . S
C89 C84 1.400 . S
C89 C88 1.389 . S
C90 P64 1.819 . S
C90 C91 1.391 1_655 S
C90 C95 1.391 . S
C91 H73 0.941 . S
C91 C90 1.391 1_455 S
C91 C92 1.396 . S
C92 H76 0.939 . S
C92 C91 1.396 . S
C92 C93 1.397 . S
C93 C92 1.397 . S
C93 C94 1.385 1_455 S
C94 H77 0.940 . S
C94 C93 1.385 1_655 S
C94 C95 1.388 . S
C95 H74 0.939 . S
C95 C90 1.391 . S
C95 C94 1.388 . S
P96 O107 1.490 . S
P96 C110 1.812 . S
P96 C116 1.803 . S
P96 C122 1.819 . S
H97 C111 0.941 . S
H98 C112 0.939 . S
H99 C114 0.940 . S
H100 C115 0.940 . S
H101 C117 0.939 . S
H102 C118 0.942 . S
H103 C120 0.940 . S
H104 C121 0.939 . S
H105 C123 0.941 . S
H106 C127 0.939 . S
O107 P96 1.490 . S
H108 C124 0.939 . S
H109 C126 0.940 . S
C110 P96 1.812 . S
C110 C111 1.389 . S
C110 C115 1.391 . S
C111 H97 0.941 . S
C111 C110 1.389 . S
C111 C112 1.397 . S
C112 H98 0.939 . S
C112 C111 1.397 . S
C112 C113 1.378 . S
C113 C112 1.378 . S
C113 C114 1.378 . S
C114 H99 0.940 . S
C114 C113 1.378 . S
C114 C115 1.396 . S
C115 H100 0.940 . S
C115 C110 1.391 . S
C115 C114 1.396 . S
C116 P96 1.803 . S
C116 C117 1.378 . S
C116 C121 1.400 . S
C117 H101 0.939 . S
C117 C116 1.378 . S
C117 C118 1.361 . S
C118 H102 0.942 . S
C118 C117 1.361 . S
C118 C119 1.369 . S
C119 C118 1.369 . S
C119 C120 1.404 . S
C120 H103 0.940 . S
C120 C119 1.404 . S
C120 C121 1.389 . S
C121 H104 0.939 . S
C121 C116 1.400 . S
C121 C120 1.389 . S
C122 P96 1.819 . S
C122 C123 1.391 . S
C122 C127 1.391 . S
C123 H105 0.941 . S
C123 C122 1.391 . S
C123 C124 1.396 . S
C124 H108 0.939 . S
C124 C123 1.396 . S
C124 C125 1.397 . S
C125 C124 1.397 . S
C125 C126 1.385 . S
C126 H109 0.940 . S
C126 C125 1.385 . S
C126 C127 1.388 . S
C127 H106 0.939 . S
C127 C122 1.391 . S
C127 C126 1.388 . S
P128 O139 1.490 . S
P128 C142 1.812 . S
P128 C148 1.803 . S
P128 C154 1.819 . S
H129 C143 0.941 . S
H130 C144 0.939 . S
H131 C146 0.940 . S
H132 C147 0.940 . S
H133 C149 0.939 . S
H134 C150 0.942 . S
H135 C152 0.940 . S
H136 C153 0.939 . S
H137 C155 0.941 . S
H138 C159 0.939 . S
O139 P128 1.490 . S
H140 C156 0.939 . S
H141 C158 0.940 . S
C142 P128 1.812 . S
C142 C143 1.389 . S
C142 C147 1.391 . S
C143 H129 0.941 . S
C143 C142 1.389 . S
C143 C144 1.397 . S
C144 H130 0.939 . S
C144 C143 1.397 . S
C144 C145 1.378 1_565 S
C145 C144 1.378 1_545 S
C145 C146 1.378 . S
C146 H131 0.940 . S
C146 C145 1.378 . S
C146 C147 1.396 1_545 S
C147 H132 0.940 . S
C147 C142 1.391 . S
C147 C146 1.396 1_565 S
C148 P128 1.803 . S
C148 C149 1.378 . S
C148 C153 1.400 . S
C149 H133 0.939 . S
C149 C148 1.378 . S
C149 C150 1.361 . S
C150 H134 0.942 . S
C150 C149 1.361 . S
C150 C151 1.369 . S
C151 C150 1.369 . S
C151 C152 1.404 . S
C152 H135 0.940 . S
C152 C151 1.404 . S
C152 C153 1.389 . S
C153 H136 0.939 . S
C153 C148 1.400 . S
C153 C152 1.389 . S
C154 P128 1.819 . S
C154 C155 1.391 . S
C154 C159 1.391 . S
C155 H137 0.941 . S
C155 C154 1.391 . S
C155 C156 1.396 . S
C156 H140 0.939 . S
C156 C155 1.396 . S
C156 C157 1.397 1_455 S
C157 C156 1.397 1_655 S
C157 C158 1.385 . S
C158 H141 0.940 . S
C158 C157 1.385 . S
C158 C159 1.388 1_655 S
C159 H138 0.939 . S
C159 C154 1.391 . S
C159 C158 1.388 1_455 S
P160 O171 1.490 . S
P160 C174 1.812 . S
P160 C180 1.803 . S
P160 C186 1.819 . S
H161 C175 0.941 . S
H162 C176 0.939 . S
H163 C178 0.940 . S
H164 C179 0.940 . S
H165 C181 0.939 . S
H166 C182 0.942 . S
H167 C184 0.940 . S
H168 C185 0.939 . S
H169 C187 0.941 . S
H170 C191 0.939 . S
O171 P160 1.490 . S
H172 C188 0.939 . S
H173 C190 0.940 . S
C174 P160 1.812 . S
C174 C175 1.389 . S
C174 C179 1.391 . S
C175 H161 0.941 . S
C175 C174 1.389 . S
C175 C176 1.397 . S
C176 H162 0.939 . S
C176 C175 1.397 . S
C176 C177 1.378 . S
C177 C176 1.378 . S
C177 C178 1.378 . S
C178 H163 0.940 . S
C178 C177 1.378 . S
C178 C179 1.396 . S
C179 H164 0.940 . S
C179 C174 1.391 . S
C179 C178 1.396 . S
C180 P160 1.803 . S
C180 C181 1.378 . S
C180 C185 1.400 . S
C181 H165 0.939 . S
C181 C180 1.378 . S
C181 C182 1.361 . S
C182 H166 0.942 . S
C182 C181 1.361 . S
C182 C183 1.369 . S
C183 C182 1.369 . S
C183 C184 1.404 . S
C184 H167 0.940 . S
C184 C183 1.404 . S
C184 C185 1.389 . S
C185 H168 0.939 . S
C185 C180 1.400 . S
C185 C184 1.389 . S
C186 P160 1.819 . S
C186 C187 1.391 . S
C186 C191 1.391 . S
C187 H169 0.941 . S
C187 C186 1.391 . S
C187 C188 1.396 . S
C188 H172 0.939 . S
C188 C187 1.396 . S
C188 C189 1.397 . S
C189 C188 1.397 . S
C189 C190 1.385 . S
C190 H173 0.940 . S
C190 C189 1.385 . S
C190 C191 1.388 . S
C191 H170 0.939 . S
C191 C186 1.391 . S
C191 C190 1.388 . S
P192 O203 1.490 . S
P192 C206 1.812 . S
P192 C212 1.803 . S
P192 C218 1.819 . S
H193 C207 0.941 . S
H194 C208 0.939 . S
H195 C210 0.940 . S
H196 C211 0.940 . S
H197 C213 0.939 . S
H198 C214 0.942 . S
H199 C216 0.940 . S
H200 C217 0.939 . S
H201 C219 0.941 . S
H202 C223 0.939 . S
O203 P192 1.490 . S
H204 C220 0.939 . S
H205 C222 0.940 . S
C206 P192 1.812 . S
C206 C207 1.389 1_655 S
C206 C211 1.391 . S
C207 H193 0.941 . S
C207 C206 1.389 1_455 S
C207 C208 1.397 . S
C208 H194 0.939 . S
C208 C207 1.397 . S
C208 C209 1.378 . S
C209 C208 1.378 . S
C209 C210 1.378 1_455 S
C210 H195 0.940 . S
C210 C209 1.378 1_655 S
C210 C211 1.396 . S
C211 H196 0.940 . S
C211 C206 1.391 . S
C211 C210 1.396 . S
C212 P192 1.803 . S
C212 C213 1.378 . S
C212 C217 1.400 . S
C213 H197 0.939 . S
C213 C212 1.378 . S
C213 C214 1.361 . S
C214 H198 0.942 . S
C214 C213 1.361 . S
C214 C215 1.369 . S
C215 C214 1.369 . S
C215 C216 1.404 . S
C216 H199 0.940 . S
C216 C215 1.404 . S
C216 C217 1.389 . S
C217 H200 0.939 . S
C217 C212 1.400 . S
C217 C216 1.389 . S
C218 P192 1.819 . S
C218 C219 1.391 . S
C218 C223 1.391 . S
C219 H201 0.941 . S
C219 C218 1.391 . S
C219 C220 1.396 . S
C220 H204 0.939 . S
C220 C219 1.396 . S
C220 C221 1.397 . S
C221 C220 1.397 . S
C221 C222 1.385 . S
C222 H205 0.940 . S
C222 C221 1.385 . S
C222 C223 1.388 . S
C223 H202 0.939 . S
C223 C218 1.391 . S
C223 C222 1.388 . S
P224 O235 1.490 . S
P224 C238 1.812 . S
P224 C244 1.803 . S
P224 C250 1.819 . S
H225 C239 0.941 . S
H226 C240 0.939 . S
H227 C242 0.940 . S
H228 C243 0.940 . S
H229 C245 0.939 . S
H230 C246 0.942 . S
H231 C248 0.940 . S
H232 C249 0.939 . S
H233 C251 0.941 . S
H234 C255 0.939 . S
O235 P224 1.490 . S
H236 C252 0.939 . S
H237 C254 0.940 . S
C238 P224 1.812 . S
C238 C239 1.389 . S
C238 C243 1.391 . S
C239 H225 0.941 . S
C239 C238 1.389 . S
C239 C240 1.397 . S
C240 H226 0.939 . S
C240 C239 1.397 . S
C240 C241 1.378 . S
C241 C240 1.378 . S
C241 C242 1.378 . S
C242 H227 0.940 . S
C242 C241 1.378 . S
C242 C243 1.396 . S
C243 H228 0.940 . S
C243 C238 1.391 . S
C243 C242 1.396 . S
C244 P224 1.803 . S
C244 C245 1.378 . S
C244 C249 1.400 . S
C245 H229 0.939 . S
C245 C244 1.378 . S
C245 C246 1.361 . S
C246 H230 0.942 . S
C246 C245 1.361 . S
C246 C247 1.369 . S
C247 C246 1.369 . S
C247 C248 1.404 . S
C248 H231 0.940 . S
C248 C247 1.404 . S
C248 C249 1.389 . S
C249 H232 0.939 . S
C249 C244 1.400 . S
C249 C248 1.389 . S
C250 P224 1.819 . S
C250 C251 1.391 . S
C250 C255 1.391 . S
C251 H233 0.941 . S
C251 C250 1.391 . S
C251 C252 1.396 . S
C252 H236 0.939 . S
C252 C251 1.396 . S
C252 C253 1.397 . S
C253 C252 1.397 . S
C253 C254 1.385 . S
C254 H237 0.940 . S
C254 C253 1.385 . S
C254 C255 1.388 . S
C255 H234 0.939 . S
C255 C250 1.391 . S
C255 C254 1.388 . S
P256 O267 1.490 . S
P256 C270 1.812 . S
P256 C276 1.803 . S
P256 C282 1.819 . S
H257 C271 0.941 . S
H258 C272 0.939 . S
H259 C274 0.940 . S
H260 C275 0.940 . S
H261 C277 0.939 . S
H262 C278 0.942 . S
H263 C280 0.940 . S
H264 C281 0.939 . S
H265 C283 0.941 . S
H266 C287 0.939 . S
O267 P256 1.490 . S
H268 C284 0.939 . S
H269 C286 0.940 . S
C270 P256 1.812 . S
C270 C271 1.389 . S
C270 C275 1.391 . S
C271 H257 0.941 . S
C271 C270 1.389 . S
C271 C272 1.397 . S
C272 H258 0.939 . S
C272 C271 1.397 . S
C272 C273 1.378 . S
C273 C272 1.378 . S
C273 C274 1.378 . S
C274 H259 0.940 . S
C274 C273 1.378 . S
C274 C275 1.396 . S
C275 H260 0.940 . S
C275 C270 1.391 . S
C275 C274 1.396 . S
C276 P256 1.803 . S
C276 C277 1.378 . S
C276 C281 1.400 . S
C277 H261 0.939 . S
C277 C276 1.378 . S
C277 C278 1.361 . S
C278 H262 0.942 . S
C278 C277 1.361 . S
C278 C279 1.369 . S
C279 C278 1.369 . S
C279 C280 1.404 . S
C280 H263 0.940 . S
C280 C279 1.404 . S
C280 C281 1.389 . S
C281 H264 0.939 . S
C281 C276 1.400 . S
C281 C280 1.389 . S
C282 P256 1.819 . S
C282 C283 1.391 . S
C282 C287 1.391 . S
C283 H265 0.941 . S
C283 C282 1.391 . S
C283 C284 1.396 . S
C284 H268 0.939 . S
C284 C283 1.396 . S
C284 C285 1.397 . S
C285 C284 1.397 . S
C285 C286 1.385 . S
C286 H269 0.940 . S
C286 C285 1.385 . S
C286 C287 1.388 . S
C287 H266 0.939 . S
C287 C282 1.391 . S
C287 C286 1.388 . S
P288 O299 1.483 1_565 S
P288 C302 1.812 . S
P288 C308 1.803 . S
P288 C314 1.819 . S
H289 C303 0.941 . S
H290 C304 0.939 . S
H291 C306 0.940 . S
H292 C307 0.940 . S
H293 C309 0.939 . S
H294 C310 0.942 . S
H295 C312 0.940 . S
H296 C313 0.939 . S
H297 C315 0.941 . S
H298 C319 0.939 . S
O299 P288 1.483 1_545 S
H300 C316 0.939 . S
H301 C318 0.940 . S
C302 P288 1.812 . S
C302 C303 1.389 . S
C302 C307 1.391 . S
C303 H289 0.941 . S
C303 C302 1.389 . S
C303 C304 1.397 . S
C304 H290 0.939 . S
C304 C303 1.397 . S
C304 C305 1.378 . S
C305 C304 1.378 . S
C305 C306 1.378 . S
C306 H291 0.940 . S
C306 C305 1.378 . S
C306 C307 1.396 . S
C307 H292 0.940 . S
C307 C302 1.391 . S
C307 C306 1.396 . S
C308 P288 1.803 . S
C308 C309 1.378 1_565 S
C308 C313 1.400 . S
C309 H293 0.939 . S
C309 C308 1.378 1_545 S
C309 C310 1.361 . S
C310 H294 0.942 . S
C310 C309 1.361 . S
C310 C311 1.369 . S
C311 C310 1.369 . S
C311 C312 1.404 1_545 S
C312 H295 0.940 . S
C312 C311 1.404 1_565 S
C312 C313 1.389 . S
C313 H296 0.939 . S
C313 C308 1.400 . S
C313 C312 1.389 . S
C314 P288 1.819 . S
C314 C315 1.391 . S
C314 C319 1.391 . S
C315 H297 0.941 . S
C315 C314 1.391 . S
C315 C316 1.396 . S
C316 H300 0.939 . S
C316 C315 1.396 . S
C316 C317 1.397 . S
C317 C316 1.397 . S
C317 C318 1.385 . S
C318 H301 0.940 . S
C318 C317 1.385 . S
C318 C319 1.388 . S
C319 H298 0.939 . S
C319 C314 1.391 . S
C319 C318 1.388 . S
P320 O331 1.490 . S
P320 C334 1.812 . S
P320 C340 1.803 . S
P320 C346 1.819 . S
H321 C335 0.941 . S
H322 C336 0.939 . S
H323 C338 0.940 . S
H324 C339 0.940 . S
H325 C341 0.939 . S
H326 C342 0.942 . S
H327 C344 0.940 . S
H328 C345 0.939 . S
H329 C347 0.941 . S
H330 C351 0.939 . S
O331 P320 1.490 . S
H332 C348 0.939 . S
H333 C350 0.940 . S
C334 P320 1.812 . S
C334 C335 1.389 . S
C334 C339 1.391 . S
C335 H321 0.941 . S
C335 C334 1.389 . S
C335 C336 1.397 . S
C336 H322 0.939 . S
C336 C335 1.397 . S
C336 C337 1.378 . S
C337 C336 1.378 . S
C337 C338 1.378 . S
C338 H323 0.940 . S
C338 C337 1.378 . S
C338 C339 1.396 . S
C339 H324 0.940 . S
C339 C334 1.391 . S
C339 C338 1.396 . S
C340 P320 1.803 . S
C340 C341 1.378 . S
C340 C345 1.400 . S
C341 H325 0.939 . S
C341 C340 1.378 . S
C341 C342 1.361 . S
C342 H326 0.942 . S
C342 C341 1.361 . S
C342 C343 1.369 . S
C343 C342 1.369 . S
C343 C344 1.404 . S
C344 H327 0.940 . S
C344 C343 1.404 . S
C344 C345 1.389 . S
C345 H328 0.939 . S
C345 C340 1.400 . S
C345 C344 1.389 . S
C346 P320 1.819 . S
C346 C347 1.391 . S
C346 C351 1.391 . S
C347 H329 0.941 . S
C347 C346 1.391 . S
C347 C348 1.396 . S
C348 H332 0.939 . S
C348 C347 1.396 . S
C348 C349 1.397 . S
C349 C348 1.397 . S
C349 C350 1.385 . S
C350 H333 0.940 . S
C350 C349 1.385 . S
C350 C351 1.388 . S
C351 H330 0.939 . S
C351 C346 1.391 . S
C351 C350 1.388 . S
P352 O363 1.490 . S
P352 C366 1.812 . S
P352 C372 1.803 . S
P352 C378 1.819 . S
H353 C367 0.941 . S
H354 C368 0.939 . S
H355 C370 0.940 . S
H356 C371 0.940 . S
H357 C373 0.939 . S
H358 C374 0.942 . S
H359 C376 0.940 . S
H360 C377 0.939 . S
H361 C379 0.941 . S
H362 C383 0.939 . S
O363 P352 1.490 . S
H364 C380 0.939 . S
H365 C382 0.940 . S
C366 P352 1.812 . S
C366 C367 1.389 . S
C366 C371 1.391 . S
C367 H353 0.941 . S
C367 C366 1.389 . S
C367 C368 1.397 . S
C368 H354 0.939 . S
C368 C367 1.397 . S
C368 C369 1.378 . S
C369 C368 1.378 . S
C369 C370 1.378 . S
C370 H355 0.940 . S
C370 C369 1.378 . S
C370 C371 1.396 . S
C371 H356 0.940 . S
C371 C366 1.391 . S
C371 C370 1.396 . S
C372 P352 1.803 . S
C372 C373 1.378 . S
C372 C377 1.400 . S
C373 H357 0.939 . S
C373 C372 1.378 . S
C373 C374 1.361 . S
C374 H358 0.942 . S
C374 C373 1.361 . S
C374 C375 1.369 . S
C375 C374 1.369 . S
C375 C376 1.404 . S
C376 H359 0.940 . S
C376 C375 1.404 . S
C376 C377 1.389 . S
C377 H360 0.939 . S
C377 C372 1.400 . S
C377 C376 1.389 . S
C378 P352 1.819 . S
C378 C379 1.391 . S
C378 C383 1.391 . S
C379 H361 0.941 . S
C379 C378 1.391 . S
C379 C380 1.396 . S
C380 H364 0.939 . S
C380 C379 1.396 . S
C380 C381 1.397 . S
C381 C380 1.397 . S
C381 C382 1.385 . S
C382 H365 0.940 . S
C382 C381 1.385 . S
C382 C383 1.388 . S
C383 H362 0.939 . S
C383 C378 1.391 . S
C383 C382 1.388 . S
P384 O395 1.490 . S
P384 C398 1.812 . S
P384 C404 1.803 . S
P384 C410 1.819 . S
H385 C399 0.941 . S
H386 C400 0.939 . S
H387 C402 0.940 . S
H388 C403 0.940 . S
H389 C405 0.939 . S
H390 C406 0.942 . S
H391 C408 0.940 . S
H392 C409 0.939 . S
H393 C411 0.941 . S
H394 C415 0.939 . S
O395 P384 1.490 . S
H396 C412 0.939 . S
H397 C414 0.940 . S
C398 P384 1.812 . S
C398 C399 1.389 . S
C398 C403 1.391 . S
C399 H385 0.941 . S
C399 C398 1.389 . S
C399 C400 1.397 . S
C400 H386 0.939 . S
C400 C399 1.397 . S
C400 C401 1.378 . S
C401 C400 1.378 . S
C401 C402 1.378 . S
C402 H387 0.940 . S
C402 C401 1.378 . S
C402 C403 1.396 . S
C403 H388 0.940 . S
C403 C398 1.391 . S
C403 C402 1.396 . S
C404 P384 1.803 . S
C404 C405 1.378 . S
C404 C409 1.400 . S
C405 H389 0.939 . S
C405 C404 1.378 . S
C405 C406 1.361 . S
C406 H390 0.942 . S
C406 C405 1.361 . S
C406 C407 1.369 . S
C407 C406 1.369 . S
C407 C408 1.404 . S
C408 H391 0.940 . S
C408 C407 1.404 . S
C408 C409 1.389 . S
C409 H392 0.939 . S
C409 C404 1.400 . S
C409 C408 1.389 . S
C410 P384 1.819 . S
C410 C411 1.391 . S
C410 C415 1.391 . S
C411 H393 0.941 . S
C411 C410 1.391 . S
C411 C412 1.396 . S
C412 H396 0.939 . S
C412 C411 1.396 . S
C412 C413 1.397 . S
C413 C412 1.397 . S
C413 C414 1.385 . S
C414 H397 0.940 . S
C414 C413 1.385 . S
C414 C415 1.388 . S
C415 H394 0.939 . S
C415 C410 1.391 . S
C415 C414 1.388 . S
P416 O427 1.490 . S
P416 C430 1.812 . S
P416 C436 1.803 . S
P416 C442 1.819 . S
H417 C431 0.941 . S
H418 C432 0.939 . S
H419 C434 0.940 . S
H420 C435 0.940 . S
H421 C437 0.939 . S
H422 C438 0.942 . S
H423 C440 0.940 . S
H424 C441 0.939 . S
H425 C443 0.941 . S
H426 C447 0.939 . S
O427 P416 1.490 . S
H428 C444 0.939 . S
H429 C446 0.940 . S
C430 P416 1.812 . S
C430 C431 1.389 . S
C430 C435 1.391 . S
C431 H417 0.941 . S
C431 C430 1.389 . S
C431 C432 1.397 . S
C432 H418 0.939 . S
C432 C431 1.397 . S
C432 C433 1.378 . S
C433 C432 1.378 . S
C433 C434 1.378 . S
C434 H419 0.940 . S
C434 C433 1.378 . S
C434 C435 1.396 . S
C435 H420 0.940 . S
C435 C430 1.391 . S
C435 C434 1.396 . S
C436 P416 1.803 . S
C436 C437 1.378 . S
C436 C441 1.400 . S
C437 H421 0.939 . S
C437 C436 1.378 . S
C437 C438 1.361 . S
C438 H422 0.942 . S
C438 C437 1.361 . S
C438 C439 1.369 1_556 S
C439 C438 1.369 1_554 S
C439 C440 1.404 . S
C440 H423 0.940 . S
C440 C439 1.404 . S
C440 C441 1.389 1_554 S
C441 H424 0.939 . S
C441 C436 1.400 . S
C441 C440 1.389 1_556 S
C442 P416 1.819 . S
C442 C443 1.391 . S
C442 C447 1.391 . S
C443 H425 0.941 . S
C443 C442 1.391 . S
C443 C444 1.396 . S
C444 H428 0.939 . S
C444 C443 1.396 . S
C444 C445 1.397 . S
C445 C444 1.397 . S
C445 C446 1.385 . S
C446 H429 0.940 . S
C446 C445 1.385 . S
C446 C447 1.388 . S
C447 H426 0.939 . S
C447 C442 1.391 . S
C447 C446 1.388 . S
P448 O459 1.490 . S
P448 C462 1.812 . S
P448 C468 1.803 . S
P448 C474 1.819 . S
H449 C463 0.941 . S
H450 C464 0.939 . S
H451 C466 0.940 . S
H452 C467 0.940 . S
H453 C469 0.939 . S
H454 C470 0.942 . S
H455 C472 0.940 . S
H456 C473 0.939 . S
H457 C475 0.941 . S
H458 C479 0.939 . S
O459 P448 1.490 . S
H460 C476 0.939 . S
H461 C478 0.940 . S
C462 P448 1.812 . S
C462 C463 1.389 . S
C462 C467 1.391 . S
C463 H449 0.941 . S
C463 C462 1.389 . S
C463 C464 1.397 . S
C464 H450 0.939 . S
C464 C463 1.397 . S
C464 C465 1.378 . S
C465 C464 1.378 . S
C465 C466 1.378 . S
C466 H451 0.940 . S
C466 C465 1.378 . S
C466 C467 1.396 . S
C467 H452 0.940 . S
C467 C462 1.391 . S
C467 C466 1.396 . S
C468 P448 1.803 . S
C468 C469 1.378 . S
C468 C473 1.400 . S
C469 H453 0.939 . S
C469 C468 1.378 . S
C469 C470 1.361 . S
C470 H454 0.942 . S
C470 C469 1.361 . S
C470 C471 1.369 . S
C471 C470 1.369 . S
C471 C472 1.404 . S
C472 H455 0.940 . S
C472 C471 1.404 . S
C472 C473 1.389 . S
C473 H456 0.939 . S
C473 C468 1.400 . S
C473 C472 1.389 . S
C474 P448 1.819 . S
C474 C475 1.391 . S
C474 C479 1.391 . S
C475 H457 0.941 . S
C475 C474 1.391 . S
C475 C476 1.396 . S
C476 H460 0.939 . S
C476 C475 1.396 . S
C476 C477 1.397 . S
C477 C476 1.397 . S
C477 C478 1.385 . S
C478 H461 0.940 . S
C478 C477 1.385 . S
C478 C479 1.388 . S
C479 H458 0.939 . S
C479 C474 1.391 . S
C479 C478 1.388 . S
P480 O491 1.490 1_556 S
P480 C494 1.812 . S
P480 C500 1.803 . S
P480 C506 1.819 . S
H481 C495 0.941 . S
H482 C496 0.939 . S
H483 C498 0.940 . S
H484 C499 0.940 . S
H485 C501 0.939 . S
H486 C502 0.942 . S
H487 C504 0.940 . S
H488 C505 0.939 . S
H489 C507 0.941 . S
H490 C511 0.939 . S
O491 P480 1.490 1_554 S
H492 C508 0.939 . S
H493 C510 0.940 . S
C494 P480 1.812 . S
C494 C495 1.389 . S
C494 C499 1.391 . S
C495 H481 0.941 . S
C495 C494 1.389 . S
C495 C496 1.397 . S
C496 H482 0.939 . S
C496 C495 1.397 . S
C496 C497 1.378 . S
C497 C496 1.378 . S
C497 C498 1.378 . S
C498 H483 0.940 . S
C498 C497 1.378 . S
C498 C499 1.396 . S
C499 H484 0.940 . S
C499 C494 1.391 . S
C499 C498 1.396 . S
C500 P480 1.803 . S
C500 C501 1.378 1_556 S
C500 C505 1.400 . S
C501 H485 0.939 . S
C501 C500 1.378 1_554 S
C501 C502 1.361 . S
C502 H486 0.942 . S
C502 C501 1.361 . S
C502 C503 1.369 . S
C503 C502 1.369 . S
C503 C504 1.404 1_554 S
C504 H487 0.940 . S
C504 C503 1.404 1_556 S
C504 C505 1.389 . S
C505 H488 0.939 . S
C505 C500 1.400 . S
C505 C504 1.389 . S
C506 P480 1.819 . S
C506 C507 1.391 1_545 S
C506 C511 1.391 . S
C507 H489 0.941 . S
C507 C506 1.391 1_565 S
C507 C508 1.396 . S
C508 H492 0.939 . S
C508 C507 1.396 . S
C508 C509 1.397 . S
C509 C508 1.397 . S
C509 C510 1.385 1_565 S
C510 H493 0.940 . S
C510 C509 1.385 1_545 S
C510 C511 1.388 . S
C511 H490 0.939 . S
C511 C506 1.391 . S
C511 C510 1.388 . S
C512 O513 1.160 1_554 S
C512 O519 1.185 . S
O513 C512 1.160 1_556 S
O514 Zn515 1.899 1_556 S
O514 C522 1.284 . S
Zn515 O514 1.899 1_554 S
Zn515 O516 2.032 . S
Zn515 O519 2.086 . S
Zn515 O524 1.977 . S
O516 Zn515 2.032 . S
O516 C520 1.278 . S
C517 O518 1.203 . S
C517 O524 1.267 . S
O518 C517 1.203 . S
O519 C512 1.185 . S
O519 Zn515 2.086 . S
C520 O516 1.278 . S
C520 O521 1.211 . S
O521 C520 1.211 . S
C522 O514 1.284 . S
C522 O523 1.273 . S
O523 C522 1.273 . S
O524 Zn515 1.977 . S
O524 C517 1.267 . S
C525 O526 1.160 . S
C525 O532 1.185 . S
O526 C525 1.160 . S
O527 Zn528 1.899 . S
O527 C535 1.284 . S
Zn528 O527 1.899 . S
Zn528 O529 2.032 . S
Zn528 O532 2.086 . S
Zn528 O537 1.977 . S
O529 Zn528 2.032 . S
O529 C533 1.278 . S
C530 O531 1.203 . S
C530 O537 1.267 . S
O531 C530 1.203 . S
O532 C525 1.185 . S
O532 Zn528 2.086 . S
C533 O529 1.278 . S
C533 O534 1.211 . S
O534 C533 1.211 . S
C535 O527 1.284 . S
C535 O536 1.273 . S
O536 C535 1.273 . S
O537 Zn528 1.977 . S
O537 C530 1.267 . S
C538 O539 1.160 1_554 S
C538 O545 1.185 . S
O539 C538 1.160 1_556 S
O540 Zn541 1.899 1_556 S
O540 C548 1.284 . S
Zn541 O540 1.899 1_554 S
Zn541 O542 2.032 1_554 S
Zn541 O545 2.086 . S
Zn541 O550 1.977 . S
O542 Zn541 2.032 1_556 S
O542 C546 1.281 . S
C543 O544 1.203 . S
C543 O550 1.267 . S
O544 C543 1.203 . S
O545 C538 1.185 . S
O545 Zn541 2.086 . S
C546 O542 1.281 . S
C546 O547 1.201 1_556 S
O547 C546 1.201 1_554 S
C548 O540 1.284 . S
C548 O549 1.273 . S
O549 C548 1.273 . S
O550 Zn541 1.977 . S
O550 C543 1.267 . S
C551 O552 1.160 . S
C551 O558 1.185 . S
O552 C551 1.160 . S
O553 Zn554 1.899 . S
O553 C561 1.284 . S
Zn554 O553 1.899 . S
Zn554 O555 2.032 1_545 S
Zn554 O558 2.086 . S
Zn554 O563 1.977 . S
O555 Zn554 2.032 1_565 S
O555 C559 1.278 . S
C556 O557 1.203 . S
C556 O563 1.267 . S
O557 C556 1.203 . S
O558 C551 1.185 . S
O558 Zn554 2.086 . S
C559 O555 1.278 . S
C559 O560 1.211 . S
O560 C559 1.211 . S
C561 O553 1.284 . S
C561 O562 1.273 1_545 S
O562 C561 1.273 1_565 S
O563 Zn554 1.977 . S
O563 C556 1.267 . S
C564 O565 1.160 . S
C564 O571 1.185 . S
O565 C564 1.160 . S
O566 Zn567 1.899 . S
O566 C574 1.284 . S
Zn567 O566 1.899 . S
Zn567 O568 2.032 . S
Zn567 O571 2.086 . S
Zn567 O576 1.977 . S
O568 Zn567 2.032 . S
O568 C572 1.278 . S
C569 O570 1.203 . S
C569 O576 1.267 . S
O570 C569 1.203 . S
O571 C564 1.185 . S
O571 Zn567 2.086 . S
C572 O568 1.278 . S
C572 O573 1.211 . S
O573 C572 1.211 . S
C574 O566 1.284 . S
C574 O575 1.273 . S
O575 C574 1.273 . S
O576 Zn567 1.977 . S
O576 C569 1.267 . S
C577 O578 1.160 . S
C577 O584 1.185 . S
O578 C577 1.160 . S
O579 Zn580 1.899 . S
O579 C587 1.284 . S
Zn580 O579 1.899 . S
Zn580 O581 2.032 . S
Zn580 O584 2.086 . S
Zn580 O589 1.977 . S
O581 Zn580 2.032 . S
O581 C585 1.278 . S
C582 O583 1.203 . S
C582 O589 1.267 . S
O583 C582 1.203 . S
O584 C577 1.185 . S
O584 Zn580 2.086 . S
C585 O581 1.278 . S
C585 O586 1.211 . S
O586 C585 1.211 . S
C587 O579 1.284 . S
C587 O588 1.273 . S
O588 C587 1.273 . S
O589 Zn580 1.977 . S
O589 C582 1.267 . S
C590 O591 1.160 . S
C590 O597 1.185 . S
O591 C590 1.160 . S
O592 Zn593 1.899 . S
O592 C600 1.284 . S
Zn593 O592 1.899 . S
Zn593 O594 2.032 . S
Zn593 O597 2.086 . S
Zn593 O602 1.977 . S
O594 Zn593 2.032 . S
O594 C598 1.278 . S
C595 O596 1.203 . S
C595 O602 1.267 . S
O596 C595 1.203 . S
O597 C590 1.185 . S
O597 Zn593 2.086 . S
C598 O594 1.278 . S
C598 O599 1.211 . S
O599 C598 1.211 . S
C600 O592 1.284 . S
C600 O601 1.273 . S
O601 C600 1.273 . S
O602 Zn593 1.977 . S
O602 C595 1.267 . S
C603 O604 1.160 . S
C603 O610 1.185 . S
O604 C603 1.160 . S
O605 Zn606 1.899 . S
O605 C613 1.284 1_565 S
Zn606 O605 1.899 . S
Zn606 O607 2.032 1_565 S
Zn606 O610 2.086 . S
Zn606 O615 1.977 . S
O607 Zn606 2.032 1_545 S
O607 C611 1.278 . S
C608 O609 1.203 1_565 S
C608 O615 1.267 . S
O609 C608 1.203 1_545 S
O610 C603 1.185 . S
O610 Zn606 2.086 . S
C611 O607 1.278 . S
C611 O612 1.211 . S
O612 C611 1.211 . S
C613 O605 1.284 1_545 S
C613 O614 1.273 . S
O614 C613 1.273 . S
O615 Zn606 1.977 . S
O615 C608 1.267 . S
C616 O617 1.160 1_455 S
C616 O623 1.185 . S
O617 C616 1.160 1_655 S
O618 Zn619 1.899 1_655 S
O618 C626 1.284 . S
Zn619 O618 1.899 1_455 S
Zn619 O620 2.043 . S
Zn619 O623 2.086 . S
Zn619 O628 1.977 . S
O620 Zn619 2.043 . S
O620 C624 1.281 . S
C621 O622 1.203 . S
C621 O628 1.267 . S
O622 C621 1.203 . S
O623 C616 1.185 . S
O623 Zn619 2.086 . S
C624 O620 1.281 . S
C624 O625 1.211 . S
O625 C624 1.211 . S
C626 O618 1.284 . S
C626 O627 1.273 . S
O627 C626 1.273 . S
O628 Zn619 1.977 . S
O628 C621 1.267 . S
C629 O630 1.160 . S
C629 O636 1.185 . S
O630 C629 1.160 . S
O631 Zn632 1.899 . S
O631 C639 1.284 . S
Zn632 O631 1.899 . S
Zn632 O633 2.032 . S
Zn632 O636 2.086 . S
Zn632 O641 1.977 . S
O633 Zn632 2.032 . S
O633 C637 1.278 . S
C634 O635 1.203 . S
C634 O641 1.267 . S
O635 C634 1.203 . S
O636 C629 1.185 . S
O636 Zn632 2.086 . S
C637 O633 1.278 . S
C637 O638 1.211 . S
O638 C637 1.211 . S
C639 O631 1.284 . S
C639 O640 1.273 . S
O640 C639 1.273 . S
O641 Zn632 1.977 . S
O641 C634 1.267 . S
C642 O643 1.160 1_455 S
C642 O649 1.185 . S
O643 C642 1.160 1_655 S
O644 Zn645 1.899 1_655 S
O644 C652 1.284 . S
Zn645 O644 1.899 1_455 S
Zn645 O646 2.032 1_455 S
Zn645 O649 2.086 . S
Zn645 O654 1.977 . S
O646 Zn645 2.032 1_655 S
O646 C650 1.278 . S
C647 O648 1.203 . S
C647 O654 1.267 . S
O648 C647 1.203 . S
O649 C642 1.185 . S
O649 Zn645 2.086 . S
C650 O646 1.278 . S
C650 O651 1.211 1_655 S
O651 C650 1.211 1_455 S
C652 O644 1.284 . S
C652 O653 1.273 . S
O653 C652 1.273 . S
O654 Zn645 1.977 . S
O654 C647 1.267 . S
C655 O656 1.160 . S
C655 O662 1.185 . S
O656 C655 1.160 . S
O657 Zn658 1.899 . S
O657 C665 1.284 . S
Zn658 O657 1.899 . S
Zn658 O659 2.032 . S
Zn658 O662 2.086 . S
Zn658 O667 1.977 . S
O659 Zn658 2.032 . S
O659 C663 1.278 . S
C660 O661 1.203 . S
C660 O667 1.267 . S
O661 C660 1.203 . S
O662 C655 1.185 . S
O662 Zn658 2.086 . S
C663 O659 1.278 . S
C663 O664 1.211 . S
O664 C663 1.211 . S
C665 O657 1.284 . S
C665 O666 1.273 . S
O666 C665 1.273 . S
O667 Zn658 1.977 . S
O667 C660 1.267 . S
H668 C674 0.930 . S
H669 C678 0.930 . S
H670 C683 0.929 . S
H671 C681 0.929 . S
H672 C676 0.929 . S
H673 C682 0.929 . S
C674 H668 0.930 . S
C674 C675 1.367 . S
C674 C682 1.378 . S
C675 C674 1.367 . S
C675 C683 1.433 . S
C676 H672 0.929 . S
C676 C678 1.378 . S
C676 C680 1.350 . S
C677 C680 1.463 . S
C677 C682 1.350 . S
C677 N685 1.427 . S
C678 H669 0.930 . S
C678 C676 1.378 . S
C678 C679 1.367 . S
C679 C678 1.367 . S
C679 C681 1.433 . S
C680 C676 1.350 . S
C680 C677 1.463 . S
C680 N684 1.427 . S
C681 H671 0.929 . S
C681 C679 1.433 . S
C681 N684 1.384 . S
C682 H673 0.929 . S
C682 C674 1.378 . S
C682 C677 1.350 . S
C683 H670 0.929 . S
C683 C675 1.433 . S
C683 N685 1.384 . S
N684 C680 1.427 . S
N684 C681 1.384 . S
N685 C677 1.427 . S
N685 C683 1.384 . S
H686 C692 0.934 . S
H687 C696 0.930 . S
H688 C701 0.929 . S
H689 C699 0.929 . S
H690 C694 0.929 . S
H691 C700 0.929 . S
C692 H686 0.934 . S
C692 C693 1.367 . S
C692 C700 1.378 . S
C693 C692 1.367 . S
C693 C701 1.433 . S
C694 H690 0.929 . S
C694 C696 1.378 . S
C694 C698 1.350 . S
C695 C698 1.463 . S
C695 C700 1.350 . S
C695 N703 1.427 . S
C696 H687 0.930 . S
C696 C694 1.378 . S
C696 C697 1.367 . S
C697 C696 1.367 . S
C697 C699 1.433 . S
C698 C694 1.350 . S
C698 C695 1.463 . S
C698 N702 1.427 . S
C699 H689 0.929 . S
C699 C697 1.433 . S
C699 N702 1.384 . S
C700 H691 0.929 . S
C700 C692 1.378 . S
C700 C695 1.350 . S
C701 H688 0.929 . S
C701 C693 1.433 . S
C701 N703 1.384 . S
N702 C698 1.427 . S
N702 C699 1.384 . S
N703 C695 1.427 . S
N703 C701 1.384 . S
H704 C710 0.930 . S
H705 C714 0.930 . S
H706 C719 0.929 . S
H707 C717 0.929 . S
H708 C712 0.929 . S
H709 C718 0.929 . S
C710 H704 0.930 . S
C710 C711 1.367 . S
C710 C718 1.378 . S
C711 C710 1.367 . S
C711 C719 1.433 . S
C712 H708 0.929 . S
C712 C714 1.378 . S
C712 C716 1.350 . S
C713 C716 1.463 . S
C713 C718 1.350 . S
C713 N721 1.427 . S
C714 H705 0.930 . S
C714 C712 1.378 . S
C714 C715 1.367 . S
C715 C714 1.367 . S
C715 C717 1.433 . S
C716 C712 1.350 . S
C716 C713 1.463 . S
C716 N720 1.427 . S
C717 H707 0.929 . S
C717 C715 1.433 . S
C717 N720 1.384 . S
C718 H709 0.929 . S
C718 C710 1.378 . S
C718 C713 1.350 . S
C719 H706 0.929 . S
C719 C711 1.433 . S
C719 N721 1.384 . S
N720 C716 1.427 . S
N720 C717 1.384 . S
N721 C713 1.427 . S
N721 C719 1.384 . S
H722 C728 0.930 . S
H723 C732 0.930 . S
H724 C737 0.929 . S
H725 C735 0.929 . S
H726 C730 0.929 . S
H727 C736 0.929 . S
C728 H722 0.930 . S
C728 C729 1.367 1_545 S
C728 C736 1.378 . S
C729 C728 1.367 1_565 S
C729 C737 1.433 . S
C730 H726 0.929 . S
C730 C732 1.378 . S
C730 C734 1.350 . S
C731 C734 1.463 . S
C731 C736 1.350 1_565 S
C731 N739 1.427 . S
C732 H723 0.930 . S
C732 C730 1.378 . S
C732 C733 1.367 1_565 S
C733 C732 1.367 1_545 S
C733 C735 1.433 . S
C734 C730 1.350 . S
C734 C731 1.463 . S
C734 N738 1.427 1_565 S
C735 H725 0.929 . S
C735 C733 1.433 . S
C735 N738 1.384 . S
C736 H727 0.929 . S
C736 C728 1.378 . S
C736 C731 1.350 1_545 S
C737 H724 0.929 . S
C737 C729 1.433 . S
C737 N739 1.384 . S
N738 C734 1.427 1_545 S
N738 C735 1.384 . S
N739 C731 1.427 . S
N739 C737 1.384 . S
H740 C746 0.930 . S
H741 C750 0.930 . S
H742 C755 0.929 . S
H743 C753 0.929 . S
H744 C748 0.929 . S
H745 C754 0.929 . S
C746 H740 0.930 . S
C746 C747 1.367 . S
C746 C754 1.378 . S
C747 C746 1.367 . S
C747 C755 1.433 . S
C748 H744 0.929 . S
C748 C750 1.378 . S
C748 C752 1.350 . S
C749 C752 1.463 . S
C749 C754 1.350 . S
C749 N757 1.427 . S
C750 H741 0.930 . S
C750 C748 1.378 . S
C750 C751 1.367 . S
C751 C750 1.367 . S
C751 C753 1.433 . S
C752 C748 1.350 . S
C752 C749 1.463 . S
C752 N756 1.427 . S
C753 H743 0.929 . S
C753 C751 1.433 . S
C753 N756 1.384 . S
C754 H745 0.929 . S
C754 C746 1.378 . S
C754 C749 1.350 . S
C755 H742 0.929 . S
C755 C747 1.433 . S
C755 N757 1.384 . S
N756 C752 1.427 . S
N756 C753 1.384 . S
N757 C749 1.427 . S
N757 C755 1.384 . S
H758 C764 0.930 . S
H759 C768 0.930 . S
H760 C773 0.929 . S
H761 C771 0.929 . S
H762 C766 0.929 . S
H763 C772 0.929 . S
C764 H758 0.930 . S
C764 C765 1.367 . S
C764 C772 1.378 . S
C765 C764 1.367 . S
C765 C773 1.433 . S
C766 H762 0.929 . S
C766 C768 1.378 . S
C766 C770 1.350 . S
C767 C770 1.463 . S
C767 C772 1.350 . S
C767 N775 1.427 . S
C768 H759 0.930 . S
C768 C766 1.378 . S
C768 C769 1.367 . S
C769 C768 1.367 . S
C769 C771 1.433 . S
C770 C766 1.350 . S
C770 C767 1.463 . S
C770 N774 1.427 . S
C771 H761 0.929 . S
C771 C769 1.433 . S
C771 N774 1.384 . S
C772 H763 0.929 . S
C772 C764 1.378 . S
C772 C767 1.350 . S
C773 H760 0.929 . S
C773 C765 1.433 . S
C773 N775 1.384 . S
N774 C770 1.427 . S
N774 C771 1.384 . S
N775 C767 1.427 . S
N775 C773 1.384 . S
H776 C782 0.930 . S
H777 C786 0.930 . S
H778 C791 0.929 . S
H779 C789 0.929 . S
H780 C784 0.929 . S
H781 C790 0.929 . S
C782 H776 0.930 . S
C782 C783 1.367 . S
C782 C790 1.378 . S
C783 C782 1.367 . S
C783 C791 1.433 . S
C784 H780 0.929 . S
C784 C786 1.378 . S
C784 C788 1.350 . S
C785 C788 1.463 . S
C785 C790 1.350 . S
C785 N793 1.427 . S
C786 H777 0.930 . S
C786 C784 1.378 . S
C786 C787 1.367 . S
C787 C786 1.367 . S
C787 C789 1.433 . S
C788 C784 1.350 . S
C788 C785 1.463 . S
C788 N792 1.427 . S
C789 H779 0.929 . S
C789 C787 1.433 . S
C789 N792 1.384 . S
C790 H781 0.929 . S
C790 C782 1.378 . S
C790 C785 1.350 . S
C791 H778 0.929 . S
C791 C783 1.433 . S
C791 N793 1.384 . S
N792 C788 1.427 . S
N792 C789 1.384 . S
N793 C785 1.427 . S
N793 C791 1.384 . S
H794 C800 0.923 1_545 S
H795 C804 0.930 . S
H796 C809 0.929 . S
H797 C807 0.929 . S
H798 C802 0.929 . S
H799 C808 0.929 . S
C800 H794 0.923 1_565 S
C800 C801 1.375 . S
C800 C808 1.377 1_565 S
C801 C800 1.375 . S
C801 C809 1.433 . S
C802 H798 0.929 . S
C802 C804 1.378 . S
C802 C806 1.350 . S
C803 C806 1.463 . S
C803 C808 1.350 1_565 S
C803 N811 1.427 . S
C804 H795 0.930 . S
C804 C802 1.378 . S
C804 C805 1.367 . S
C805 C804 1.367 . S
C805 C807 1.433 1_565 S
C806 C802 1.350 . S
C806 C803 1.463 . S
C806 N810 1.427 1_565 S
C807 H797 0.929 . S
C807 C805 1.433 1_545 S
C807 N810 1.384 . S
C808 H799 0.929 . S
C808 C800 1.377 1_545 S
C808 C803 1.350 1_545 S
C809 H796 0.929 . S
C809 C801 1.433 . S
C809 N811 1.384 . S
N810 C806 1.427 1_545 S
N810 C807 1.384 . S
N811 C803 1.427 . S
N811 C809 1.384 . S
H812 C818 0.930 . S
H813 C822 0.930 . S
H814 C827 0.929 . S
H815 C825 0.929 . S
H816 C820 0.929 . S
H817 C826 0.929 . S
C818 H812 0.930 . S
C818 C819 1.367 . S
C818 C826 1.378 . S
C819 C818 1.367 . S
C819 C827 1.433 . S
C820 H816 0.929 . S
C820 C822 1.378 . S
C820 C824 1.350 . S
C821 C824 1.463 . S
C821 C826 1.350 . S
C821 N829 1.427 . S
C822 H813 0.930 . S
C822 C820 1.378 . S
C822 C823 1.367 . S
C823 C822 1.367 . S
C823 C825 1.433 . S
C824 C820 1.350 . S
C824 C821 1.463 . S
C824 N828 1.427 . S
C825 H815 0.929 . S
C825 C823 1.433 . S
C825 N828 1.384 . S
C826 H817 0.929 . S
C826 C818 1.378 . S
C826 C821 1.350 . S
C827 H814 0.929 . S
C827 C819 1.433 . S
C827 N829 1.384 . S
N828 C824 1.427 . S
N828 C825 1.384 . S
N829 C821 1.427 . S
N829 C827 1.384 . S
H830 C836 0.930 . S
H831 C840 0.930 . S
H832 C845 0.929 . S
H833 C843 0.929 . S
H834 C838 0.929 . S
H835 C844 0.929 . S
C836 H830 0.930 . S
C836 C837 1.367 . S
C836 C844 1.378 . S
C837 C836 1.367 . S
C837 C845 1.433 . S
C838 H834 0.929 . S
C838 C840 1.378 . S
C838 C842 1.350 . S
C839 C842 1.463 . S
C839 C844 1.350 . S
C839 N847 1.427 . S
C840 H831 0.930 . S
C840 C838 1.378 . S
C840 C841 1.367 . S
C841 C840 1.367 . S
C841 C843 1.433 . S
C842 C838 1.350 . S
C842 C839 1.463 . S
C842 N846 1.427 . S
C843 H833 0.929 . S
C843 C841 1.433 . S
C843 N846 1.384 . S
C844 H835 0.929 . S
C844 C836 1.378 . S
C844 C839 1.350 . S
C845 H832 0.929 . S
C845 C837 1.433 . S
C845 N847 1.384 . S
N846 C842 1.427 . S
N846 C843 1.384 . S
N847 C839 1.427 . S
N847 C845 1.384 . S
H848 C854 0.930 . S
H849 C858 0.930 . S
H850 C863 0.929 . S
H851 C861 0.929 . S
H852 C856 0.929 . S
H853 C862 0.929 . S
C854 H848 0.930 . S
C854 C855 1.367 . S
C854 C862 1.378 . S
C855 C854 1.367 . S
C855 C863 1.433 . S
C856 H852 0.929 . S
C856 C858 1.378 . S
C856 C860 1.350 . S
C857 C860 1.463 . S
C857 C862 1.350 . S
C857 N865 1.427 . S
C858 H849 0.930 . S
C858 C856 1.378 . S
C858 C859 1.367 . S
C859 C858 1.367 . S
C859 C861 1.433 . S
C860 C856 1.350 . S
C860 C857 1.463 . S
C860 N864 1.427 . S
C861 H851 0.929 . S
C861 C859 1.433 . S
C861 N864 1.384 . S
C862 H853 0.929 . S
C862 C854 1.378 . S
C862 C857 1.350 . S
C863 H850 0.929 . S
C863 C855 1.433 . S
C863 N865 1.384 . S
N864 C860 1.427 . S
N864 C861 1.384 . S
N865 C857 1.427 . S
N865 C863 1.384 . S
H866 C872 0.930 . S
H867 C876 0.930 . S
H868 C881 0.929 . S
H869 C879 0.929 . S
H870 C874 0.929 . S
H871 C880 0.929 . S
C872 H866 0.930 . S
C872 C873 1.367 . S
C872 C880 1.378 . S
C873 C872 1.367 . S
C873 C881 1.433 . S
C874 H870 0.929 . S
C874 C876 1.378 . S
C874 C878 1.350 . S
C875 C878 1.463 . S
C875 C880 1.350 . S
C875 N883 1.427 . S
C876 H867 0.930 . S
C876 C874 1.378 . S
C876 C877 1.367 . S
C877 C876 1.367 . S
C877 C879 1.433 . S
C878 C874 1.350 . S
C878 C875 1.463 . S
C878 N882 1.427 . S
C879 H869 0.929 . S
C879 C877 1.433 . S
C879 N882 1.384 . S
C880 H871 0.929 . S
C880 C872 1.378 . S
C880 C875 1.350 . S
C881 H868 0.929 . S
C881 C873 1.433 . S
C881 N883 1.384 . S
N882 C878 1.427 . S
N882 C879 1.384 . S
N883 C875 1.427 . S
N883 C881 1.384 . S
H884 C890 0.930 . S
H885 C894 0.930 . S
H886 C899 0.929 . S
H887 C897 0.929 . S
H888 C892 0.929 . S
H889 C898 0.929 . S
C890 H884 0.930 . S
C890 C891 1.367 . S
C890 C898 1.378 . S
C891 C890 1.367 . S
C891 C899 1.433 . S
C892 H888 0.929 . S
C892 C894 1.378 . S
C892 C896 1.350 . S
C893 C896 1.463 . S
C893 C898 1.350 . S
C893 N901 1.427 . S
C894 H885 0.930 . S
C894 C892 1.378 . S
C894 C895 1.367 . S
C895 C894 1.367 . S
C895 C897 1.433 . S
C896 C892 1.350 . S
C896 C893 1.463 . S
C896 N900 1.427 . S
C897 H887 0.929 . S
C897 C895 1.433 . S
C897 N900 1.384 . S
C898 H889 0.929 . S
C898 C890 1.378 . S
C898 C893 1.350 . S
C899 H886 0.929 . S
C899 C891 1.433 . S
C899 N901 1.384 . S
N900 C896 1.427 . S
N900 C897 1.384 . S
N901 C893 1.427 . S
N901 C899 1.384 . S
H902 C908 0.930 1_655 S
H903 C912 0.930 . S
H904 C917 0.929 . S
H905 C915 0.929 . S
H906 C910 0.929 . S
H907 C916 0.929 1_655 S
C908 H902 0.930 1_455 S
C908 C909 1.367 . S
C908 C916 1.378 . S
C909 C908 1.367 . S
C909 C917 1.433 . S
C910 H906 0.929 . S
C910 C912 1.378 . S
C910 C914 1.350 . S
C911 C914 1.463 . S
C911 C916 1.350 . S
C911 N919 1.427 . S
C912 H903 0.930 . S
C912 C910 1.378 . S
C912 C913 1.367 . S
C913 C912 1.367 . S
C913 C915 1.433 1_455 S
C914 C910 1.350 . S
C914 C911 1.463 . S
C914 N918 1.392 1_455 S
C915 H905 0.929 . S
C915 C913 1.433 1_655 S
C915 N918 1.388 . S
C916 H907 0.929 1_455 S
C916 C908 1.378 . S
C916 C911 1.350 . S
C917 H904 0.929 . S
C917 C909 1.433 . S
C917 N919 1.384 . S
N918 C914 1.392 1_655 S
N918 C915 1.388 . S
N919 C911 1.427 . S
N919 C917 1.384 . S
H920 C926 0.930 . S
H921 C930 0.930 . S
H922 C935 0.929 . S
H923 C933 0.929 . S
H924 C928 0.929 . S
H925 C934 0.929 . S
C926 H920 0.930 . S
C926 C927 1.367 . S
C926 C934 1.378 . S
C927 C926 1.367 . S
C927 C935 1.433 . S
C928 H924 0.929 . S
C928 C930 1.378 . S
C928 C932 1.350 . S
C929 C932 1.463 . S
C929 C934 1.350 . S
C929 N937 1.427 . S
C930 H921 0.930 . S
C930 C928 1.378 . S
C930 C931 1.367 . S
C931 C930 1.367 . S
C931 C933 1.433 . S
C932 C928 1.350 . S
C932 C929 1.463 . S
C932 N936 1.427 . S
C933 H923 0.929 . S
C933 C931 1.433 . S
C933 N936 1.384 . S
C934 H925 0.929 . S
C934 C926 1.378 . S
C934 C929 1.350 . S
C935 H922 0.929 . S
C935 C927 1.433 . S
C935 N937 1.384 . S
N936 C932 1.427 . S
N936 C933 1.384 . S
N937 C929 1.427 . S
N937 C935 1.384 . S
H938 C944 0.930 1_455 S
H939 C948 0.930 . S
H940 C953 0.929 . S
H941 C951 0.929 . S
H942 C946 0.929 . S
H943 C952 0.957 . S
C944 H938 0.930 1_655 S
C944 C945 1.367 . S
C944 C952 1.376 1_655 S
C945 C944 1.367 . S
C945 C953 1.433 . S
C946 H942 0.929 . S
C946 C948 1.378 . S
C946 C950 1.350 . S
C947 C950 1.463 . S
C947 C952 1.324 1_655 S
C947 N955 1.427 . S
C948 H939 0.930 . S
C948 C946 1.378 . S
C948 C949 1.367 . S
C949 C948 1.367 . S
C949 C951 1.433 1_655 S
C950 C946 1.350 . S
C950 C947 1.463 . S
C950 N954 1.427 1_655 S
C951 H941 0.929 . S
C951 C949 1.433 1_455 S
C951 N954 1.384 . S
C952 H943 0.957 . S
C952 C944 1.376 1_455 S
C952 C947 1.324 1_455 S
C953 H940 0.929 . S
C953 C945 1.433 . S
C953 N955 1.384 . S
N954 C950 1.427 1_455 S
N954 C951 1.384 . S
N955 C947 1.427 . S
N955 C953 1.384 . S
H956 C962 0.930 . S
H957 C966 0.930 . S
H958 C971 0.929 . S
H959 C969 0.929 . S
H960 C964 0.929 . S
H961 C970 0.929 . S
C962 H956 0.930 . S
C962 C963 1.367 . S
C962 C970 1.378 . S
C963 C962 1.367 . S
C963 C971 1.433 . S
C964 H960 0.929 . S
C964 C966 1.378 . S
C964 C968 1.350 . S
C965 C968 1.463 . S
C965 C970 1.350 . S
C965 N973 1.427 . S
C966 H957 0.930 . S
C966 C964 1.378 . S
C966 C967 1.367 . S
C967 C966 1.367 . S
C967 C969 1.433 . S
C968 C964 1.350 . S
C968 C965 1.463 . S
C968 N972 1.427 . S
C969 H959 0.929 . S
C969 C967 1.433 . S
C969 N972 1.384 . S
C970 H961 0.929 . S
C970 C962 1.378 . S
C970 C965 1.350 . S
C971 H958 0.929 . S
C971 C963 1.433 . S
C971 N973 1.384 . S
N972 C968 1.427 . S
N972 C969 1.384 . S
N973 C965 1.427 . S
N973 C971 1.384 . S
H974 C980 0.930 . S
H975 C984 0.930 . S
H976 C989 0.929 . S
H977 C987 0.929 . S
H978 C982 0.929 . S
H979 C988 0.929 . S
C980 H974 0.930 . S
C980 C981 1.367 . S
C980 C988 1.378 . S
C981 C980 1.367 . S
C981 C989 1.433 . S
C982 H978 0.929 . S
C982 C984 1.378 . S
C982 C986 1.350 . S
C983 C986 1.463 . S
C983 C988 1.350 . S
C983 N991 1.427 . S
C984 H975 0.930 . S
C984 C982 1.378 . S
C984 C985 1.367 . S
C985 C984 1.367 . S
C985 C987 1.433 . S
C986 C982 1.350 . S
C986 C983 1.463 . S
C986 N990 1.427 . S
C987 H977 0.929 . S
C987 C985 1.433 . S
C987 N990 1.384 . S
C988 H979 0.929 . S
C988 C980 1.378 . S
C988 C983 1.350 . S
C989 H976 0.929 . S
C989 C981 1.433 . S
C989 N991 1.384 . S
N990 C986 1.427 . S
N990 C987 1.384 . S
N991 C983 1.427 . S
N991 C989 1.384 . S
H992 C998 0.930 . S
H993 C1002 0.930 . S
H994 C1007 0.929 . S
H995 C1005 0.929 . S
H996 C1000 0.929 . S
H997 C1006 0.929 . S
C998 H992 0.930 . S
C998 C999 1.367 1_554 S
C998 C1006 1.378 . S
C999 C998 1.367 1_556 S
C999 C1007 1.433 . S
C1000 H996 0.929 . S
C1000 C1002 1.378 . S
C1000 C1004 1.350 . S
C1001 C1004 1.463 . S
C1001 C1006 1.350 1_556 S
C1001 N1009 1.427 . S
C1002 H993 0.930 . S
C1002 C1000 1.378 . S
C1002 C1003 1.367 1_556 S
C1003 C1002 1.367 1_554 S
C1003 C1005 1.433 . S
C1004 C1000 1.350 . S
C1004 C1001 1.463 . S
C1004 N1008 1.427 1_556 S
C1005 H995 0.929 . S
C1005 C1003 1.433 . S
C1005 N1008 1.384 . S
C1006 H997 0.929 . S
C1006 C998 1.378 . S
C1006 C1001 1.350 1_554 S
C1007 H994 0.929 . S
C1007 C999 1.433 . S
C1007 N1009 1.384 . S
N1008 C1004 1.427 1_554 S
N1008 C1005 1.384 . S
N1009 C1001 1.427 . S
N1009 C1007 1.384 . S
H1010 C1016 0.930 . S
H1011 C1020 0.930 . S
H1012 C1025 0.929 . S
H1013 C1023 0.929 . S
H1014 C1018 0.929 . S
H1015 C1024 0.929 . S
C1016 H1010 0.930 . S
C1016 C1017 1.367 . S
C1016 C1024 1.378 . S
C1017 C1016 1.367 . S
C1017 C1025 1.433 . S
C1018 H1014 0.929 . S
C1018 C1020 1.378 . S
C1018 C1022 1.350 . S
C1019 C1022 1.463 . S
C1019 C1024 1.350 . S
C1019 N1027 1.427 . S
C1020 H1011 0.930 . S
C1020 C1018 1.378 . S
C1020 C1021 1.367 . S
C1021 C1020 1.367 . S
C1021 C1023 1.433 . S
C1022 C1018 1.350 . S
C1022 C1019 1.463 . S
C1022 N1026 1.427 . S
C1023 H1013 0.929 . S
C1023 C1021 1.433 . S
C1023 N1026 1.384 . S
C1024 H1015 0.929 . S
C1024 C1016 1.378 . S
C1024 C1019 1.350 . S
C1025 H1012 0.929 . S
C1025 C1017 1.433 . S
C1025 N1027 1.384 . S
N1026 C1022 1.427 . S
N1026 C1023 1.384 . S
N1027 C1019 1.427 . S
N1027 C1025 1.384 . S
H1028 C1034 0.930 . S
H1029 C1038 0.930 . S
H1030 C1043 0.929 . S
H1031 C1041 0.929 . S
H1032 C1036 0.929 . S
H1033 C1042 0.929 . S
C1034 H1028 0.930 . S
C1034 C1035 1.367 . S
C1034 C1042 1.378 . S
C1035 C1034 1.367 . S
C1035 C1043 1.433 . S
C1036 H1032 0.929 . S
C1036 C1038 1.378 . S
C1036 C1040 1.350 . S
C1037 C1040 1.463 . S
C1037 C1042 1.350 . S
C1037 N1045 1.427 . S
C1038 H1029 0.930 . S
C1038 C1036 1.378 . S
C1038 C1039 1.367 . S
C1039 C1038 1.367 . S
C1039 C1041 1.433 . S
C1040 C1036 1.350 . S
C1040 C1037 1.463 . S
C1040 N1044 1.427 . S
C1041 H1031 0.929 . S
C1041 C1039 1.433 . S
C1041 N1044 1.384 . S
C1042 H1033 0.929 . S
C1042 C1034 1.378 . S
C1042 C1037 1.350 . S
C1043 H1030 0.929 . S
C1043 C1035 1.433 . S
C1043 N1045 1.384 . S
N1044 C1040 1.427 . S
N1044 C1041 1.384 . S
N1045 C1037 1.427 . S
N1045 C1043 1.384 . S
H1046 C1052 0.930 . S
H1047 C1056 0.930 . S
H1048 C1061 0.929 . S
H1049 C1059 0.929 . S
H1050 C1054 0.929 . S
H1051 C1060 0.929 . S
C1052 H1046 0.930 . S
C1052 C1053 1.367 . S
C1052 C1060 1.378 . S
C1053 C1052 1.367 . S
C1053 C1061 1.433 . S
C1054 H1050 0.929 . S
C1054 C1056 1.378 . S
C1054 C1058 1.350 . S
C1055 C1058 1.463 . S
C1055 C1060 1.350 . S
C1055 N1063 1.427 . S
C1056 H1047 0.930 . S
C1056 C1054 1.378 . S
C1056 C1057 1.367 . S
C1057 C1056 1.367 . S
C1057 C1059 1.433 . S
C1058 C1054 1.350 . S
C1058 C1055 1.463 . S
C1058 N1062 1.427 . S
C1059 H1049 0.929 . S
C1059 C1057 1.433 . S
C1059 N1062 1.384 . S
C1060 H1051 0.929 . S
C1060 C1052 1.378 . S
C1060 C1055 1.350 . S
C1061 H1048 0.929 . S
C1061 C1053 1.433 . S
C1061 N1063 1.384 . S
N1062 C1058 1.427 . S
N1062 C1059 1.384 . S
N1063 C1055 1.427 . S
N1063 C1061 1.384 . S
H1064 C1070 0.930 . S
H1065 C1074 0.930 . S
H1066 C1079 0.929 . S
H1067 C1077 0.929 . S
H1068 C1072 0.929 . S
H1069 C1078 0.929 . S
C1070 H1064 0.930 . S
C1070 C1071 1.367 . S
C1070 C1078 1.378 . S
C1071 C1070 1.367 . S
C1071 C1079 1.433 . S
C1072 H1068 0.929 . S
C1072 C1074 1.378 . S
C1072 C1076 1.350 . S
C1073 C1076 1.463 . S
C1073 C1078 1.350 . S
C1073 N1081 1.427 . S
C1074 H1065 0.930 . S
C1074 C1072 1.378 . S
C1074 C1075 1.367 . S
C1075 C1074 1.367 . S
C1075 C1077 1.433 . S
C1076 C1072 1.350 . S
C1076 C1073 1.463 . S
C1076 N1080 1.427 . S
C1077 H1067 0.929 . S
C1077 C1075 1.433 . S
C1077 N1080 1.384 . S
C1078 H1069 0.929 . S
C1078 C1070 1.378 . S
C1078 C1073 1.350 . S
C1079 H1066 0.929 . S
C1079 C1071 1.433 . S
C1079 N1081 1.384 . S
N1080 C1076 1.427 . S
N1080 C1077 1.384 . S
N1081 C1073 1.427 . S
N1081 C1079 1.384 . S
H1082 C1088 0.930 . S
H1083 C1092 0.930 . S
H1084 C1097 0.929 . S
H1085 C1095 0.929 . S
H1086 C1090 0.929 . S
H1087 C1096 0.929 . S
C1088 H1082 0.930 . S
C1088 C1089 1.367 . S
C1088 C1096 1.378 . S
C1089 C1088 1.367 . S
C1089 C1097 1.433 . S
C1090 H1086 0.929 . S
C1090 C1092 1.378 . S
C1090 C1094 1.350 . S
C1091 C1094 1.463 . S
C1091 C1096 1.350 . S
C1091 N1099 1.427 . S
C1092 H1083 0.930 . S
C1092 C1090 1.378 . S
C1092 C1093 1.367 . S
C1093 C1092 1.367 . S
C1093 C1095 1.433 . S
C1094 C1090 1.350 . S
C1094 C1091 1.463 . S
C1094 N1098 1.427 . S
C1095 H1085 0.929 . S
C1095 C1093 1.433 . S
C1095 N1098 1.384 . S
C1096 H1087 0.929 . S
C1096 C1088 1.378 . S
C1096 C1091 1.350 . S
C1097 H1084 0.929 . S
C1097 C1089 1.433 . S
C1097 N1099 1.384 . S
N1098 C1094 1.427 . S
N1098 C1095 1.384 . S
N1099 C1091 1.427 . S
N1099 C1097 1.384 . S
H1100 C1106 0.930 . S
H1101 C1110 0.930 . S
H1102 C1115 0.929 . S
H1103 C1113 0.929 . S
H1104 C1108 0.929 . S
H1105 C1114 0.929 . S
C1106 H1100 0.930 . S
C1106 C1107 1.367 . S
C1106 C1114 1.378 . S
C1107 C1106 1.367 . S
C1107 C1115 1.433 . S
C1108 H1104 0.929 . S
C1108 C1110 1.378 . S
C1108 C1112 1.350 . S
C1109 C1112 1.463 . S
C1109 C1114 1.350 . S
C1109 N1117 1.427 . S
C1110 H1101 0.930 . S
C1110 C1108 1.378 . S
C1110 C1111 1.367 . S
C1111 C1110 1.367 . S
C1111 C1113 1.433 . S
C1112 C1108 1.350 . S
C1112 C1109 1.463 . S
C1112 N1116 1.427 . S
C1113 H1103 0.929 . S
C1113 C1111 1.433 . S
C1113 N1116 1.384 . S
C1114 H1105 0.929 . S
C1114 C1106 1.378 . S
C1114 C1109 1.350 . S
C1115 H1102 0.929 . S
C1115 C1107 1.433 . S
C1115 N1117 1.384 . S
N1116 C1112 1.427 . S
N1116 C1113 1.384 . S
N1117 C1109 1.427 . S
N1117 C1115 1.384 . S
H1118 C1124 0.930 . S
H1119 C1128 0.930 . S
H1120 C1133 0.929 1_565 S
H1121 C1131 0.929 . S
H1122 C1126 0.929 . S
H1123 C1132 0.929 . S
C1124 H1118 0.930 . S
C1124 C1125 1.367 . S
C1124 C1132 1.378 . S
C1125 C1124 1.367 . S
C1125 C1133 1.433 . S
C1126 H1122 0.929 . S
C1126 C1128 1.378 . S
C1126 C1130 1.350 1_565 S
C1127 C1130 1.463 . S
C1127 C1132 1.350 . S
C1127 N1135 1.427 . S
C1128 H1119 0.930 . S
C1128 C1126 1.378 . S
C1128 C1129 1.367 1_565 S
C1129 C1128 1.367 1_545 S
C1129 C1131 1.433 . S
C1130 C1126 1.350 1_545 S
C1130 C1127 1.463 . S
C1130 N1134 1.427 . S
C1131 H1121 0.929 . S
C1131 C1129 1.433 . S
C1131 N1134 1.384 . S
C1132 H1123 0.929 . S
C1132 C1124 1.378 . S
C1132 C1127 1.350 . S
C1133 H1120 0.929 1_545 S
C1133 C1125 1.433 . S
C1133 N1135 1.384 . S
N1134 C1130 1.427 . S
N1134 C1131 1.384 . S
N1135 C1127 1.427 . S
N1135 C1133 1.384 . S
H1136 C1142 0.930 . S
H1137 C1146 0.930 . S
H1138 C1151 0.929 . S
H1139 C1149 0.929 . S
H1140 C1144 0.929 . S
H1141 C1150 0.929 . S
C1142 H1136 0.930 . S
C1142 C1143 1.367 . S
C1142 C1150 1.378 . S
C1143 C1142 1.367 . S
C1143 C1151 1.433 . S
C1144 H1140 0.929 . S
C1144 C1146 1.378 . S
C1144 C1148 1.350 . S
C1145 C1148 1.463 . S
C1145 C1150 1.350 . S
C1145 N1153 1.427 . S
C1146 H1137 0.930 . S
C1146 C1144 1.378 . S
C1146 C1147 1.367 . S
C1147 C1146 1.367 . S
C1147 C1149 1.433 . S
C1148 C1144 1.350 . S
C1148 C1145 1.463 . S
C1148 N1152 1.427 . S
C1149 H1139 0.929 . S
C1149 C1147 1.433 . S
C1149 N1152 1.384 . S
C1150 H1141 0.929 . S
C1150 C1142 1.378 . S
C1150 C1145 1.350 . S
C1151 H1138 0.929 . S
C1151 C1143 1.433 . S
C1151 N1153 1.384 . S
N1152 C1148 1.427 . S
N1152 C1149 1.384 . S
N1153 C1145 1.427 . S
N1153 C1151 1.384 . S
H1154 C1160 0.930 . S
H1155 C1164 0.930 . S
H1156 C1169 0.929 . S
H1157 C1167 0.929 . S
H1158 C1162 0.929 . S
H1159 C1168 0.929 . S
C1160 H1154 0.930 . S
C1160 C1161 1.367 . S
C1160 C1168 1.378 . S
C1161 C1160 1.367 . S
C1161 C1169 1.433 . S
C1162 H1158 0.929 . S
C1162 C1164 1.378 . S
C1162 C1166 1.350 . S
C1163 C1166 1.463 . S
C1163 C1168 1.350 . S
C1163 N1171 1.427 . S
C1164 H1155 0.930 . S
C1164 C1162 1.378 . S
C1164 C1165 1.367 . S
C1165 C1164 1.367 . S
C1165 C1167 1.433 . S
C1166 C1162 1.350 . S
C1166 C1163 1.463 . S
C1166 N1170 1.427 . S
C1167 H1157 0.929 . S
C1167 C1165 1.433 . S
C1167 N1170 1.384 . S
C1168 H1159 0.929 . S
C1168 C1160 1.378 . S
C1168 C1163 1.350 . S
C1169 H1156 0.929 . S
C1169 C1161 1.433 . S
C1169 N1171 1.384 . S
N1170 C1166 1.427 . S
N1170 C1167 1.384 . S
N1171 C1163 1.427 . S
N1171 C1169 1.384 . S
H1172 C1178 0.930 . S
H1173 C1182 0.930 . S
H1174 C1187 0.929 . S
H1175 C1185 0.929 . S
H1176 C1180 0.929 . S
H1177 C1186 0.929 . S
C1178 H1172 0.930 . S
C1178 C1179 1.367 . S
C1178 C1186 1.378 . S
C1179 C1178 1.367 . S
C1179 C1187 1.433 . S
C1180 H1176 0.929 . S
C1180 C1182 1.378 . S
C1180 C1184 1.350 . S
C1181 C1184 1.463 . S
C1181 C1186 1.350 . S
C1181 N1189 1.427 . S
C1182 H1173 0.930 . S
C1182 C1180 1.378 . S
C1182 C1183 1.367 . S
C1183 C1182 1.367 . S
C1183 C1185 1.433 . S
C1184 C1180 1.350 . S
C1184 C1181 1.463 . S
C1184 N1188 1.427 . S
C1185 H1175 0.929 . S
C1185 C1183 1.433 . S
C1185 N1188 1.384 . S
C1186 H1177 0.929 . S
C1186 C1178 1.378 . S
C1186 C1181 1.350 . S
C1187 H1174 0.929 . S
C1187 C1179 1.433 . S
C1187 N1189 1.384 . S
N1188 C1184 1.427 . S
N1188 C1185 1.384 . S
N1189 C1181 1.427 . S
N1189 C1187 1.384 . S
H1190 C1196 0.930 . S
H1191 C1200 0.930 1_565 S
H1192 C1205 0.929 . S
H1193 C1203 0.929 . S
H1194 C1198 0.929 1_565 S
H1195 C1204 0.929 . S
C1196 H1190 0.930 . S
C1196 C1197 1.367 . S
C1196 C1204 1.378 . S
C1197 C1196 1.367 . S
C1197 C1205 1.433 . S
C1198 H1194 0.929 1_545 S
C1198 C1200 1.378 . S
C1198 C1202 1.350 . S
C1199 C1202 1.463 . S
C1199 C1204 1.350 . S
C1199 N1207 1.427 . S
C1200 H1191 0.930 1_545 S
C1200 C1198 1.378 . S
C1200 C1201 1.367 . S
C1201 C1200 1.367 . S
C1201 C1203 1.433 . S
C1202 C1198 1.350 . S
C1202 C1199 1.463 . S
C1202 N1206 1.427 . S
C1203 H1193 0.929 . S
C1203 C1201 1.433 . S
C1203 N1206 1.384 . S
C1204 H1195 0.929 . S
C1204 C1196 1.378 . S
C1204 C1199 1.350 . S
C1205 H1192 0.929 . S
C1205 C1197 1.433 . S
C1205 N1207 1.384 . S
N1206 C1202 1.427 . S
N1206 C1203 1.384 . S
N1207 C1199 1.427 . S
N1207 C1205 1.384 . S
H1208 C1214 0.930 . S
H1209 C1218 0.930 . S
H1210 C1223 0.929 . S
H1211 C1221 0.929 . S
H1212 C1216 0.929 . S
H1213 C1222 0.929 . S
C1214 H1208 0.930 . S
C1214 C1215 1.367 . S
C1214 C1222 1.378 . S
C1215 C1214 1.367 . S
C1215 C1223 1.433 . S
C1216 H1212 0.929 . S
C1216 C1218 1.378 . S
C1216 C1220 1.350 . S
C1217 C1220 1.463 . S
C1217 C1222 1.350 . S
C1217 N1225 1.427 . S
C1218 H1209 0.930 . S
C1218 C1216 1.378 . S
C1218 C1219 1.367 . S
C1219 C1218 1.367 . S
C1219 C1221 1.433 . S
C1220 C1216 1.350 . S
C1220 C1217 1.463 . S
C1220 N1224 1.427 . S
C1221 H1211 0.929 . S
C1221 C1219 1.433 . S
C1221 N1224 1.384 . S
C1222 H1213 0.929 . S
C1222 C1214 1.378 . S
C1222 C1217 1.350 . S
C1223 H1210 0.929 . S
C1223 C1215 1.433 . S
C1223 N1225 1.384 . S
N1224 C1220 1.427 . S
N1224 C1221 1.384 . S
N1225 C1217 1.427 . S
N1225 C1223 1.384 . S
H1226 C1232 0.930 . S
H1227 C1236 0.930 . S
H1228 C1241 0.929 . S
H1229 C1239 0.929 . S
H1230 C1234 0.929 . S
H1231 C1240 0.929 . S
C1232 H1226 0.930 . S
C1232 C1233 1.367 . S
C1232 C1240 1.378 . S
C1233 C1232 1.367 . S
C1233 C1241 1.433 . S
C1234 H1230 0.929 . S
C1234 C1236 1.378 . S
C1234 C1238 1.350 . S
C1235 C1238 1.463 . S
C1235 C1240 1.350 . S
C1235 N1243 1.427 . S
C1236 H1227 0.930 . S
C1236 C1234 1.378 . S
C1236 C1237 1.367 . S
C1237 C1236 1.367 . S
C1237 C1239 1.433 . S
C1238 C1234 1.350 . S
C1238 C1235 1.463 . S
C1238 N1242 1.427 . S
C1239 H1229 0.929 . S
C1239 C1237 1.433 . S
C1239 N1242 1.384 . S
C1240 H1231 0.929 . S
C1240 C1232 1.378 . S
C1240 C1235 1.350 . S
C1241 H1228 0.929 . S
C1241 C1233 1.433 . S
C1241 N1243 1.384 . S
N1242 C1238 1.427 . S
N1242 C1239 1.384 . S
N1243 C1235 1.427 . S
N1243 C1241 1.384 . S
H1244 C1250 0.930 . S
H1245 C1254 0.930 . S
H1246 C1259 0.929 . S
H1247 C1257 0.929 . S
H1248 C1252 0.929 . S
H1249 C1258 0.929 . S
C1250 H1244 0.930 . S
C1250 C1251 1.367 . S
C1250 C1258 1.378 . S
C1251 C1250 1.367 . S
C1251 C1259 1.433 . S
C1252 H1248 0.929 . S
C1252 C1254 1.378 . S
C1252 C1256 1.350 . S
C1253 C1256 1.463 . S
C1253 C1258 1.350 . S
C1253 N1261 1.427 . S
C1254 H1245 0.930 . S
C1254 C1252 1.378 . S
C1254 C1255 1.367 . S
C1255 C1254 1.367 . S
C1255 C1257 1.433 . S
C1256 C1252 1.350 . S
C1256 C1253 1.463 . S
C1256 N1260 1.427 . S
C1257 H1247 0.929 . S
C1257 C1255 1.433 . S
C1257 N1260 1.384 . S
C1258 H1249 0.929 . S
C1258 C1250 1.378 . S
C1258 C1253 1.350 . S
C1259 H1246 0.929 . S
C1259 C1251 1.433 . S
C1259 N1261 1.384 . S
N1260 C1256 1.427 . S
N1260 C1257 1.384 . S
N1261 C1253 1.427 . S
N1261 C1259 1.384 . S
H1262 C1268 0.930 . S
H1263 C1272 0.930 . S
H1264 C1277 0.929 . S
H1265 C1275 0.929 . S
H1266 C1270 0.929 . S
H1267 C1276 0.929 . S
C1268 H1262 0.930 . S
C1268 C1269 1.367 . S
C1268 C1276 1.378 . S
C1269 C1268 1.367 . S
C1269 C1277 1.433 1_655 S
C1270 H1266 0.929 . S
C1270 C1272 1.378 . S
C1270 C1274 1.350 1_455 S
C1271 C1274 1.463 . S
C1271 C1276 1.350 . S
C1271 N1279 1.427 1_655 S
C1272 H1263 0.930 . S
C1272 C1270 1.378 . S
C1272 C1273 1.367 1_455 S
C1273 C1272 1.367 1_655 S
C1273 C1275 1.433 . S
C1274 C1270 1.350 1_655 S
C1274 C1271 1.463 . S
C1274 N1278 1.427 . S
C1275 H1265 0.929 . S
C1275 C1273 1.433 . S
C1275 N1278 1.384 . S
C1276 H1267 0.929 . S
C1276 C1268 1.378 . S
C1276 C1271 1.350 . S
C1277 H1264 0.929 . S
C1277 C1269 1.433 1_455 S
C1277 N1279 1.384 . S
N1278 C1274 1.427 . S
N1278 C1275 1.384 . S
N1279 C1271 1.427 1_455 S
N1279 C1277 1.384 . S
H1280 C1286 0.930 . S
H1281 C1290 0.930 . S
H1282 C1295 0.929 . S
H1283 C1293 0.929 . S
H1284 C1288 0.929 . S
H1285 C1294 0.929 . S
C1286 H1280 0.930 . S
C1286 C1287 1.367 . S
C1286 C1294 1.378 . S
C1287 C1286 1.367 . S
C1287 C1295 1.433 . S
C1288 H1284 0.929 . S
C1288 C1290 1.378 . S
C1288 C1292 1.350 . S
C1289 C1292 1.463 . S
C1289 C1294 1.350 . S
C1289 N1297 1.427 . S
C1290 H1281 0.930 . S
C1290 C1288 1.378 . S
C1290 C1291 1.367 . S
C1291 C1290 1.367 . S
C1291 C1293 1.433 . S
C1292 C1288 1.350 . S
C1292 C1289 1.463 . S
C1292 N1296 1.427 . S
C1293 H1283 0.929 . S
C1293 C1291 1.433 . S
C1293 N1296 1.384 . S
C1294 H1285 0.929 . S
C1294 C1286 1.378 . S
C1294 C1289 1.350 . S
C1295 H1282 0.929 . S
C1295 C1287 1.433 . S
C1295 N1297 1.384 . S
N1296 C1292 1.427 . S
N1296 C1293 1.384 . S
N1297 C1289 1.427 . S
N1297 C1295 1.384 . S
H1298 C1304 0.930 . S
H1299 C1308 0.930 . S
H1300 C1313 0.929 . S
H1301 C1311 0.929 . S
H1302 C1306 0.929 . S
H1303 C1312 0.929 . S
C1304 H1298 0.930 . S
C1304 C1305 1.367 1_554 S
C1304 C1312 1.378 1_554 S
C1305 C1304 1.367 1_556 S
C1305 C1313 1.433 . S
C1306 H1302 0.929 . S
C1306 C1308 1.378 . S
C1306 C1310 1.350 . S
C1307 C1310 1.463 . S
C1307 C1312 1.350 . S
C1307 N1315 1.427 . S
C1308 H1299 0.930 . S
C1308 C1306 1.378 . S
C1308 C1309 1.367 . S
C1309 C1308 1.367 . S
C1309 C1311 1.433 . S
C1310 C1306 1.350 . S
C1310 C1307 1.463 . S
C1310 N1314 1.427 . S
C1311 H1301 0.929 . S
C1311 C1309 1.433 . S
C1311 N1314 1.384 . S
C1312 H1303 0.929 . S
C1312 C1304 1.378 1_556 S
C1312 C1307 1.350 . S
C1313 H1300 0.929 . S
C1313 C1305 1.433 . S
C1313 N1315 1.384 . S
N1314 C1310 1.427 . S
N1314 C1311 1.384 . S
N1315 C1307 1.427 . S
N1315 C1313 1.384 . S
H1316 C1322 0.930 . S
H1317 C1326 0.930 . S
H1318 C1331 0.929 . S
H1319 C1329 0.929 . S
H1320 C1324 0.929 . S
H1321 C1330 0.929 . S
C1322 H1316 0.930 . S
C1322 C1323 1.367 . S
C1322 C1330 1.378 . S
C1323 C1322 1.367 . S
C1323 C1331 1.433 . S
C1324 H1320 0.929 . S
C1324 C1326 1.378 . S
C1324 C1328 1.350 . S
C1325 C1328 1.463 . S
C1325 C1330 1.350 . S
C1325 N1333 1.427 . S
C1326 H1317 0.930 . S
C1326 C1324 1.378 . S
C1326 C1327 1.367 . S
C1327 C1326 1.367 . S
C1327 C1329 1.433 . S
C1328 C1324 1.350 . S
C1328 C1325 1.463 . S
C1328 N1332 1.427 . S
C1329 H1319 0.929 . S
C1329 C1327 1.433 . S
C1329 N1332 1.384 . S
C1330 H1321 0.929 . S
C1330 C1322 1.378 . S
C1330 C1325 1.350 . S
C1331 H1318 0.929 . S
C1331 C1323 1.433 . S
C1331 N1333 1.384 . S
N1332 C1328 1.427 . S
N1332 C1329 1.384 . S
N1333 C1325 1.427 . S
N1333 C1331 1.384 . S
H1334 C1340 0.930 . S
H1335 C1344 0.930 . S
H1336 C1349 0.929 . S
H1337 C1347 0.929 . S
H1338 C1342 0.929 . S
H1339 C1348 0.929 . S
C1340 H1334 0.930 . S
C1340 C1341 1.367 . S
C1340 C1348 1.378 . S
C1341 C1340 1.367 . S
C1341 C1349 1.433 . S
C1342 H1338 0.929 . S
C1342 C1344 1.378 . S
C1342 C1346 1.350 . S
C1343 C1346 1.463 . S
C1343 C1348 1.350 . S
C1343 N1351 1.427 . S
C1344 H1335 0.930 . S
C1344 C1342 1.378 . S
C1344 C1345 1.367 . S
C1345 C1344 1.367 . S
C1345 C1347 1.433 . S
C1346 C1342 1.350 . S
C1346 C1343 1.463 . S
C1346 N1350 1.427 . S
C1347 H1337 0.929 . S
C1347 C1345 1.433 . S
C1347 N1350 1.384 . S
C1348 H1339 0.929 . S
C1348 C1340 1.378 . S
C1348 C1343 1.350 . S
C1349 H1336 0.929 . S
C1349 C1341 1.433 . S
C1349 N1351 1.384 . S
N1350 C1346 1.427 . S
N1350 C1347 1.384 . S
N1351 C1343 1.427 . S
N1351 C1349 1.384 . S
H1352 C1358 0.930 . S
H1353 C1362 0.930 . S
H1354 C1367 0.929 . S
H1355 C1365 0.929 . S
H1356 C1360 0.929 . S
H1357 C1366 0.929 . S
C1358 H1352 0.930 . S
C1358 C1359 1.367 . S
C1358 C1366 1.378 . S
C1359 C1358 1.367 . S
C1359 C1367 1.433 . S
C1360 H1356 0.929 . S
C1360 C1362 1.378 . S
C1360 C1364 1.350 . S
C1361 C1364 1.463 . S
C1361 C1366 1.350 . S
C1361 N1369 1.427 . S
C1362 H1353 0.930 . S
C1362 C1360 1.378 . S
C1362 C1363 1.367 . S
C1363 C1362 1.367 . S
C1363 C1365 1.433 . S
C1364 C1360 1.350 . S
C1364 C1361 1.463 . S
C1364 N1368 1.427 . S
C1365 H1355 0.929 . S
C1365 C1363 1.433 . S
C1365 N1368 1.384 . S
C1366 H1357 0.929 . S
C1366 C1358 1.378 . S
C1366 C1361 1.350 . S
C1367 H1354 0.929 . S
C1367 C1359 1.433 . S
C1367 N1369 1.384 . S
N1368 C1364 1.427 . S
N1368 C1365 1.384 . S
N1369 C1361 1.427 . S
N1369 C1367 1.384 . S
H1370 C1376 0.930 . S
H1371 C1380 0.930 . S
H1372 C1385 0.929 . S
H1373 C1383 0.929 . S
H1374 C1378 0.929 . S
H1375 C1384 0.929 . S
C1376 H1370 0.930 . S
C1376 C1377 1.367 . S
C1376 C1384 1.378 . S
C1377 C1376 1.367 . S
C1377 C1385 1.433 . S
C1378 H1374 0.929 . S
C1378 C1380 1.378 . S
C1378 C1382 1.350 . S
C1379 C1382 1.463 . S
C1379 C1384 1.350 . S
C1379 N1387 1.427 . S
C1380 H1371 0.930 . S
C1380 C1378 1.378 . S
C1380 C1381 1.367 . S
C1381 C1380 1.367 . S
C1381 C1383 1.433 . S
C1382 C1378 1.350 . S
C1382 C1379 1.463 . S
C1382 N1386 1.427 . S
C1383 H1373 0.929 . S
C1383 C1381 1.433 . S
C1383 N1386 1.384 . S
C1384 H1375 0.929 . S
C1384 C1376 1.378 . S
C1384 C1379 1.350 . S
C1385 H1372 0.929 . S
C1385 C1377 1.433 . S
C1385 N1387 1.384 . S
N1386 C1382 1.427 . S
N1386 C1383 1.384 . S
N1387 C1379 1.427 . S
N1387 C1385 1.384 . S
H1388 C1394 0.930 . S
H1389 C1398 0.930 . S
H1390 C1403 0.929 . S
H1391 C1401 0.929 . S
H1392 C1396 0.929 . S
H1393 C1402 0.929 . S
C1394 H1388 0.930 . S
C1394 C1395 1.367 . S
C1394 C1402 1.378 . S
C1395 C1394 1.367 . S
C1395 C1403 1.433 . S
C1396 H1392 0.929 . S
C1396 C1398 1.378 . S
C1396 C1400 1.350 . S
C1397 C1400 1.463 . S
C1397 C1402 1.350 . S
C1397 N1405 1.427 . S
C1398 H1389 0.930 . S
C1398 C1396 1.378 . S
C1398 C1399 1.367 . S
C1399 C1398 1.367 . S
C1399 C1401 1.433 . S
C1400 C1396 1.350 . S
C1400 C1397 1.463 . S
C1400 N1404 1.427 . S
C1401 H1391 0.929 . S
C1401 C1399 1.433 . S
C1401 N1404 1.384 . S
C1402 H1393 0.929 . S
C1402 C1394 1.378 . S
C1402 C1397 1.350 . S
C1403 H1390 0.929 . S
C1403 C1395 1.433 . S
C1403 N1405 1.384 . S
N1404 C1400 1.427 . S
N1404 C1401 1.384 . S
N1405 C1397 1.427 . S
N1405 C1403 1.384 . S
H1406 C1412 0.930 . S
H1407 C1416 0.930 . S
H1408 C1421 0.929 . S
H1409 C1419 0.929 . S
H1410 C1414 0.929 . S
H1411 C1420 0.929 . S
C1412 H1406 0.930 . S
C1412 C1413 1.367 . S
C1412 C1420 1.378 . S
C1413 C1412 1.367 . S
C1413 C1421 1.433 . S
C1414 H1410 0.929 . S
C1414 C1416 1.378 . S
C1414 C1418 1.350 . S
C1415 C1418 1.463 . S
C1415 C1420 1.350 . S
C1415 N1423 1.427 . S
C1416 H1407 0.930 . S
C1416 C1414 1.378 . S
C1416 C1417 1.367 . S
C1417 C1416 1.367 . S
C1417 C1419 1.433 . S
C1418 C1414 1.350 . S
C1418 C1415 1.463 . S
C1418 N1422 1.427 . S
C1419 H1409 0.929 . S
C1419 C1417 1.433 . S
C1419 N1422 1.384 . S
C1420 H1411 0.929 . S
C1420 C1412 1.378 . S
C1420 C1415 1.350 . S
C1421 H1408 0.929 . S
C1421 C1413 1.433 . S
C1421 N1423 1.384 . S
N1422 C1418 1.427 . S
N1422 C1419 1.384 . S
N1423 C1415 1.427 . S
N1423 C1421 1.384 . S
H1424 C1430 0.930 . S
H1425 C1434 0.930 . S
H1426 C1439 0.929 . S
H1427 C1437 0.929 . S
H1428 C1432 0.929 . S
H1429 C1438 0.929 . S
C1430 H1424 0.930 . S
C1430 C1431 1.367 . S
C1430 C1438 1.378 . S
C1431 C1430 1.367 . S
C1431 C1439 1.433 . S
C1432 H1428 0.929 . S
C1432 C1434 1.378 . S
C1432 C1436 1.350 . S
C1433 C1436 1.463 . S
C1433 C1438 1.350 . S
C1433 N1441 1.427 . S
C1434 H1425 0.930 . S
C1434 C1432 1.378 . S
C1434 C1435 1.367 . S
C1435 C1434 1.367 . S
C1435 C1437 1.433 . S
C1436 C1432 1.350 . S
C1436 C1433 1.463 . S
C1436 N1440 1.427 . S
C1437 H1427 0.929 . S
C1437 C1435 1.433 . S
C1437 N1440 1.384 . S
C1438 H1429 0.929 . S
C1438 C1430 1.378 . S
C1438 C1433 1.350 . S
C1439 H1426 0.929 . S
C1439 C1431 1.433 . S
C1439 N1441 1.384 . S
N1440 C1436 1.427 . S
N1440 C1437 1.384 . S
N1441 C1433 1.427 . S
N1441 C1439 1.384 . S
H1442 C1448 0.930 . S
H1443 C1452 0.930 . S
H1444 C1457 0.929 . S
H1445 C1455 0.929 . S
H1446 C1450 0.929 . S
H1447 C1456 0.929 . S
C1448 H1442 0.930 . S
C1448 C1449 1.367 . S
C1448 C1456 1.378 . S
C1449 C1448 1.367 . S
C1449 C1457 1.433 . S
C1450 H1446 0.929 . S
C1450 C1452 1.378 . S
C1450 C1454 1.350 . S
C1451 C1454 1.463 . S
C1451 C1456 1.350 . S
C1451 N1459 1.427 . S
C1452 H1443 0.930 . S
C1452 C1450 1.378 . S
C1452 C1453 1.367 . S
C1453 C1452 1.367 . S
C1453 C1455 1.433 . S
C1454 C1450 1.350 . S
C1454 C1451 1.463 . S
C1454 N1458 1.427 . S
C1455 H1445 0.929 . S
C1455 C1453 1.433 . S
C1455 N1458 1.384 . S
C1456 H1447 0.929 . S
C1456 C1448 1.378 . S
C1456 C1451 1.350 . S
C1457 H1444 0.929 . S
C1457 C1449 1.433 . S
C1457 N1459 1.384 . S
N1458 C1454 1.427 . S
N1458 C1455 1.384 . S
N1459 C1451 1.427 . S
N1459 C1457 1.384 . S
H1460 C1466 0.930 . S
H1461 C1470 0.930 . S
H1462 C1475 0.929 . S
H1463 C1473 0.929 . S
H1464 C1468 0.929 . S
H1465 C1474 0.929 . S
C1466 H1460 0.930 . S
C1466 C1467 1.367 . S
C1466 C1474 1.378 . S
C1467 C1466 1.367 . S
C1467 C1475 1.433 . S
C1468 H1464 0.929 . S
C1468 C1470 1.378 . S
C1468 C1472 1.350 . S
C1469 C1472 1.463 . S
C1469 C1474 1.350 . S
C1469 N1477 1.427 . S
C1470 H1461 0.930 . S
C1470 C1468 1.378 . S
C1470 C1471 1.367 . S
C1471 C1470 1.367 . S
C1471 C1473 1.433 . S
C1472 C1468 1.350 . S
C1472 C1469 1.463 . S
C1472 N1476 1.427 . S
C1473 H1463 0.929 . S
C1473 C1471 1.433 . S
C1473 N1476 1.384 . S
C1474 H1465 0.929 . S
C1474 C1466 1.378 . S
C1474 C1469 1.350 . S
C1475 H1462 0.929 . S
C1475 C1467 1.433 . S
C1475 N1477 1.384 . S
N1476 C1472 1.427 . S
N1476 C1473 1.384 . S
N1477 C1469 1.427 . S
N1477 C1475 1.384 . S
H1478 C1484 0.930 . S
H1479 C1488 0.930 . S
H1480 C1493 0.929 . S
H1481 C1491 0.929 . S
H1482 C1486 0.929 . S
H1483 C1492 0.929 . S
C1484 H1478 0.930 . S
C1484 C1485 1.367 . S
C1484 C1492 1.378 . S
C1485 C1484 1.367 . S
C1485 C1493 1.433 . S
C1486 H1482 0.929 . S
C1486 C1488 1.378 . S
C1486 C1490 1.350 . S
C1487 C1490 1.463 . S
C1487 C1492 1.350 . S
C1487 N1495 1.427 . S
C1488 H1479 0.930 . S
C1488 C1486 1.378 . S
C1488 C1489 1.367 . S
C1489 C1488 1.367 . S
C1489 C1491 1.433 . S
C1490 C1486 1.350 . S
C1490 C1487 1.463 . S
C1490 N1494 1.427 . S
C1491 H1481 0.929 . S
C1491 C1489 1.433 . S
C1491 N1494 1.384 . S
C1492 H1483 0.929 . S
C1492 C1484 1.378 . S
C1492 C1487 1.350 . S
C1493 H1480 0.929 . S
C1493 C1485 1.433 . S
C1493 N1495 1.384 . S
N1494 C1490 1.427 . S
N1494 C1491 1.384 . S
N1495 C1487 1.427 . S
N1495 C1493 1.384 . S
H1496 C1502 0.930 . S
H1497 C1506 0.930 . S
H1498 C1511 0.929 . S
H1499 C1509 0.929 1_556 S
H1500 C1504 0.929 . S
H1501 C1510 0.929 . S
C1502 H1496 0.930 . S
C1502 C1503 1.367 . S
C1502 C1510 1.378 . S
C1503 C1502 1.367 . S
C1503 C1511 1.433 . S
C1504 H1500 0.929 . S
C1504 C1506 1.378 . S
C1504 C1508 1.350 . S
C1505 C1508 1.463 . S
C1505 C1510 1.350 . S
C1505 N1513 1.427 . S
C1506 H1497 0.930 . S
C1506 C1504 1.378 . S
C1506 C1507 1.367 . S
C1507 C1506 1.367 . S
C1507 C1509 1.433 . S
C1508 C1504 1.350 . S
C1508 C1505 1.463 . S
C1508 N1512 1.427 . S
C1509 H1499 0.929 1_554 S
C1509 C1507 1.433 . S
C1509 N1512 1.384 . S
C1510 H1501 0.929 . S
C1510 C1502 1.378 . S
C1510 C1505 1.350 . S
C1511 H1498 0.929 . S
C1511 C1503 1.433 . S
C1511 N1513 1.384 . S
N1512 C1508 1.427 . S
N1512 C1509 1.384 . S
N1513 C1505 1.427 . S
N1513 C1511 1.384 . S
H1514 C1520 0.930 . S
H1515 C1524 0.930 1_556 S
H1516 C1529 0.929 . S
H1517 C1527 0.929 . S
H1518 C1522 0.929 1_556 S
H1519 C1528 0.929 . S
C1520 H1514 0.930 . S
C1520 C1521 1.367 . S
C1520 C1528 1.378 . S
C1521 C1520 1.367 . S
C1521 C1529 1.433 . S
C1522 H1518 0.929 1_554 S
C1522 C1524 1.378 . S
C1522 C1526 1.350 . S
C1523 C1526 1.463 . S
C1523 C1528 1.350 . S
C1523 N1531 1.427 . S
C1524 H1515 0.930 1_554 S
C1524 C1522 1.378 . S
C1524 C1525 1.367 . S
C1525 C1524 1.367 . S
C1525 C1527 1.433 . S
C1526 C1522 1.350 . S
C1526 C1523 1.463 . S
C1526 N1530 1.427 . S
C1527 H1517 0.929 . S
C1527 C1525 1.433 . S
C1527 N1530 1.384 . S
C1528 H1519 0.929 . S
C1528 C1520 1.378 . S
C1528 C1523 1.350 . S
C1529 H1516 0.929 . S
C1529 C1521 1.433 . S
C1529 N1531 1.384 . S
N1530 C1526 1.427 . S
N1530 C1527 1.384 . S
N1531 C1523 1.427 . S
N1531 C1529 1.384 . S
C679 C522 1.392 . S
C675 C177 1.359 . S
C697 C535 1.610 . S
C693 C209 1.608 . S
C711 C253 1.382 . S
C715 C548 1.405 . S
C733 C561 1.531 . S
C729 C157 1.511 . S
C751 C569 1.473 . S
C747 C343 1.490 . S
C769 C582 1.411 . S
C765 C401 1.402 . S
C783 C369 1.517 . S
C787 C595 1.518 . S
C805 C608 1.499 . S
C801 C317 1.486 . S
C819 C375 1.429 . S
C823 C626 1.443 . S
C841 C637 1.542 . S
C837 C305 1.566 . S
C855 C349 1.471 . S
C859 C621 1.457 . S
C877 C629 1.457 . S
C873 C413 1.450 . S
C891 C241 1.456 . S
C895 C652 1.471 . S
C909 C151 1.464 . S
C913 C642 1.465 . S
C927 C189 1.481 . S
C931 C647 1.494 . S
C945 C215 1.540 . S
C949 C650 1.538 . S
C963 C113 1.423 . S
C967 C559 1.418 . S
C981 C471 1.382 . S
C985 C551 1.403 . S
C1003 C520 1.553 . S
C999 C509 1.546 . S
C1021 C525 1.494 . S
C1017 C279 1.479 . S
C1035 C145 1.474 . S
C1039 C572 1.477 . S
C1057 C611 1.552 . S
C1053 C381 1.542 . S
C1075 C564 1.500 . S
C1071 C311 1.507 . S
C1093 C590 1.441 . S
C1089 C407 1.438 . S
C1111 C600 1.390 . S
C1107 C465 1.363 . S
C1125 C497 1.605 . S
C1129 C613 1.617 . S
C1143 C285 1.392 . S
C1147 C574 1.409 . S
C1165 C587 1.538 . S
C1161 C445 1.507 . S
C1179 C119 1.491 . S
C1183 C543 1.472 . S
C1201 C556 1.404 . S
C1197 C17 1.398 . S
C1219 C517 1.517 . S
C1215 C49 1.518 . S
C1237 C530 1.495 . S
C1233 C93 1.493 . S
C1251 C55 1.437 . S
C1255 C639 1.449 . S
C1269 C81 1.564 . S
C1273 C624 1.544 1_655 S
C1287 C125 1.472 . S
C1291 C634 1.457 . S
C1305 C29 1.452 1_556 S
C1309 C616 1.460 . S
C1327 C665 1.472 . S
C1323 C273 1.458 . S
C1345 C655 1.453 . S
C1341 C439 1.453 . S
C1363 C660 1.484 . S
C1359 C477 1.468 . S
C1377 C503 1.548 . S
C1381 C663 1.528 . S
C1395 C337 1.423 . S
C1399 C585 1.420 . S
C1417 C577 1.397 . S
C1413 C183 1.377 . S
C1435 C598 1.555 . S
C1431 C221 1.546 . S
C1453 C603 1.489 . S
C1449 C247 1.479 . S
C1467 C433 1.467 . S
C1471 C546 1.478 . S
C1489 C533 1.548 . S
C1485 C61 1.543 . S
C1503 C87 1.509 . S
C1507 C538 1.497 . S
C1525 C512 1.439 . S
C1521 C23 1.436 1_565 S
