# Generated by pormake.
# Topology zzz, (3,6)-cn, num edge types: 1
# Building blocks:
#     Node 0, Type 0, BuildingBlock: BELTOD_clean_linker_0, # of connection points: 3
#     Node 1, Type 0, BuildingBlock: BELTOD_clean_linker_0, # of connection points: 3
#     Node 2, Type 0, BuildingBlock: BELTOD_clean_linker_0, # of connection points: 3
#     Node 3, Type 0, BuildingBlock: BELTOD_clean_linker_0, # of connection points: 3
#     Node 4, Type 0, BuildingBlock: BELTOD_clean_linker_0, # of connection points: 3
#     Node 5, Type 0, BuildingBlock: BELTOD_clean_linker_0, # of connection points: 3
#     Node 6, Type 0, BuildingBlock: BELTOD_clean_linker_0, # of connection points: 3
#     Node 7, Type 0, BuildingBlock: BELTOD_clean_linker_0, # of connection points: 3
#     Node 8, Type 1, BuildingBlock: CUKXOW_clean_sbu_0, # of connection points: 6
#     Node 9, Type 1, BuildingBlock: CUKXOW_clean_sbu_0, # of connection points: 6
#     Node 10, Type 1, BuildingBlock: CUKXOW_clean_sbu_0, # of connection points: 6
#     Node 11, Type 1, BuildingBlock: CUKXOW_clean_sbu_0, # of connection points: 6
#     Edge 12, Type (0, 1), BuildingBlock: XIVTED_clean_linker_0, # of connection points: 2
#     Edge 13, Type (0, 1), BuildingBlock: XIVTED_clean_linker_0, # of connection points: 2
#     Edge 14, Type (0, 1), BuildingBlock: XIVTED_clean_linker_0, # of connection points: 2
#     Edge 15, Type (0, 1), BuildingBlock: XIVTED_clean_linker_0, # of connection points: 2
#     Edge 16, Type (0, 1), BuildingBlock: XIVTED_clean_linker_0, # of connection points: 2
#     Edge 17, Type (0, 1), BuildingBlock: XIVTED_clean_linker_0, # of connection points: 2
#     Edge 18, Type (0, 1), BuildingBlock: XIVTED_clean_linker_0, # of connection points: 2
#     Edge 19, Type (0, 1), BuildingBlock: XIVTED_clean_linker_0, # of connection points: 2
#     Edge 20, Type (0, 1), BuildingBlock: XIVTED_clean_linker_0, # of connection points: 2
#     Edge 21, Type (0, 1), BuildingBlock: XIVTED_clean_linker_0, # of connection points: 2
#     Edge 22, Type (0, 1), BuildingBlock: XIVTED_clean_linker_0, # of connection points: 2
#     Edge 23, Type (0, 1), BuildingBlock: XIVTED_clean_linker_0, # of connection points: 2
#     Edge 24, Type (0, 1), BuildingBlock: XIVTED_clean_linker_0, # of connection points: 2
#     Edge 25, Type (0, 1), BuildingBlock: XIVTED_clean_linker_0, # of connection points: 2
#     Edge 26, Type (0, 1), BuildingBlock: XIVTED_clean_linker_0, # of connection points: 2
#     Edge 27, Type (0, 1), BuildingBlock: XIVTED_clean_linker_0, # of connection points: 2
#     Edge 28, Type (0, 1), BuildingBlock: XIVTED_clean_linker_0, # of connection points: 2
#     Edge 29, Type (0, 1), BuildingBlock: XIVTED_clean_linker_0, # of connection points: 2
#     Edge 30, Type (0, 1), BuildingBlock: XIVTED_clean_linker_0, # of connection points: 2
#     Edge 31, Type (0, 1), BuildingBlock: XIVTED_clean_linker_0, # of connection points: 2
#     Edge 32, Type (0, 1), BuildingBlock: XIVTED_clean_linker_0, # of connection points: 2
#     Edge 33, Type (0, 1), BuildingBlock: XIVTED_clean_linker_0, # of connection points: 2
#     Edge 34, Type (0, 1), BuildingBlock: XIVTED_clean_linker_0, # of connection points: 2
#     Edge 35, Type (0, 1), BuildingBlock: XIVTED_clean_linker_0, # of connection points: 2
# Relax obj value: 0.195
# Max RMSD: 0.216
# Mean RMSD: 0.177
data_MOF--net-zzz--node1-CUKXOW_clean_sbu_0--node2-BELTOD_clean_linker_0--edge1-XIVTED_clean_linker_0
_symmetry_space_group_name_H-M    P1
_symmetry_Int_Tables_number       1
_symmetry_cell_setting            triclinic
loop_
_symmetry_equiv_pos_as_xyz
'x, y, z'
_cell_length_a     54.6442
_cell_length_b     53.706879
_cell_length_c     19.084117
_cell_angle_alpha  92.720877
_cell_angle_beta   88.083959
_cell_angle_gamma 95.532905
loop_
_atom_site_label
_atom_site_type_symbol
_atom_site_fract_x
_atom_site_fract_y
_atom_site_fract_z
_atom_type_partial_charge
P0 P 0.75542 0.38641 0.1057 0.0
H1 H 0.75175 0.36923 0.24996 0.0
H2 H 0.77043 0.38674 0.35866 0.0
H3 H 0.79858 0.45307 0.25118 0.0
H4 H 0.77979 0.43571 0.14399 0.0
H5 H 0.71319 0.36175 0.03231 0.0
H6 H 0.67874 0.37752 0.97676 0.0
H7 H 0.70496 0.45299 0.04627 0.0
H8 H 0.73816 0.4367 0.10614 0.0
H9 H 0.80106 0.36293 0.08221 0.0
H10 H 0.76751 0.42474 0.00116 0.0
O11 O 0.75033 0.35552 0.1139 0.0
H12 H 0.83962 0.37627 0.01936 0.0
H13 H 0.80589 0.43824 0.93986 0.0
C14 C 0.76451 0.40109 0.18874 0.0
C15 C 0.7615 0.38776 0.25033 0.0
C16 C 0.77228 0.39774 0.31234 0.0
C17 C 0.78613 0.42124 0.31358 0.0
C18 C 0.78778 0.43509 0.25259 0.0
C19 C 0.77709 0.42509 0.19087 0.0
C20 C 0.72823 0.398 0.07367 0.0
C21 C 0.71119 0.38163 0.03693 0.0
C22 C 0.69165 0.3908 0.00415 0.0
C23 C 0.68914 0.41669 0.00562 0.0
C24 C 0.70596 0.43294 0.04439 0.0
C25 C 0.72515 0.42364 0.0786 0.0
C26 C 0.78125 0.39261 0.0459 0.0
C27 C 0.80173 0.37891 0.04941 0.0
C28 C 0.82375 0.38657 0.01374 0.0
C29 C 0.82569 0.40837 0.9753 0.0
C30 C 0.80488 0.42147 0.96962 0.0
C31 C 0.78284 0.41362 0.00444 0.0
P32 P 0.95894 0.75184 0.18819 0.0
H33 H 0.97453 0.75702 0.33318 0.0
H34 H 0.96055 0.78313 0.43039 0.0
H35 H 0.89555 0.79446 0.31727 0.0
H36 H 0.91011 0.76831 0.21876 0.0
H37 H 0.95855 0.69871 0.2089 0.0
H38 H 0.94559 0.66208 0.13396 0.0
H39 H 0.91078 0.70909 0.99749 0.0
H40 H 0.92318 0.74571 0.0743 0.0
H41 H 0.96039 0.80582 0.22082 0.0
H42 H 0.96986 0.75732 0.03701 0.0
O43 O 0.9869 0.74422 0.206 0.0
H44 H 0.96668 0.84209 0.14967 0.0
H45 H 0.97552 0.79394 0.96436 0.0
C46 C 0.94348 0.76098 0.26852 0.0
C47 C 0.95677 0.7642 0.33024 0.0
C48 C 0.94863 0.77917 0.38624 0.0
C49 C 0.92711 0.79134 0.38122 0.0
C50 C 0.91241 0.7857 0.32228 0.0
C51 C 0.92056 0.77055 0.26627 0.0
C52 C 0.94276 0.72496 0.14526 0.0
C53 C 0.94748 0.70104 0.16407 0.0
C54 C 0.93989 0.68009 0.12144 0.0
C55 C 0.92758 0.68286 0.05923 0.0
C56 C 0.92056 0.70654 0.04468 0.0
C57 C 0.9278 0.72746 0.08821 0.0
C58 C 0.96333 0.77862 0.13389 0.0
C59 C 0.96315 0.80282 0.16479 0.0
C60 C 0.96676 0.8237 0.12381 0.0
C61 C 0.97096 0.82095 0.05091 0.0
C62 C 0.97212 0.79672 0.02027 0.0
C63 C 0.9686 0.77575 0.06164 0.0
P64 P 0.74843 0.09543 0.17142 0.0
H65 H 0.74663 0.12205 0.30892 0.0
H66 H 0.72363 0.1108 0.41643 0.0
H67 H 0.70777 0.03533 0.32994 0.0
H68 H 0.73136 0.04654 0.22387 0.0
H69 H 0.79881 0.11745 0.151 0.0
H70 H 0.83563 0.10116 0.09903 0.0
H71 H 0.79556 0.02822 0.06837 0.0
H72 H 0.75844 0.04496 0.11925 0.0
H73 H 0.69567 0.09343 0.20102 0.0
H74 H 0.74355 0.07884 0.02243 0.0
O75 O 0.75301 0.12663 0.17328 0.0
H76 H 0.65987 0.08159 0.13001 0.0
H77 H 0.70767 0.06645 0.95117 0.0
C78 C 0.74036 0.0852 0.25812 0.0
C79 C 0.73903 0.10284 0.31422 0.0
C80 C 0.72572 0.09642 0.37553 0.0
C81 C 0.71332 0.07235 0.38104 0.0
C82 C 0.71711 0.054 0.32773 0.0
C83 C 0.73061 0.0604 0.26675 0.0
C84 C 0.77585 0.08249 0.13809 0.0
C85 C 0.79793 0.09793 0.13338 0.0
C86 C 0.81906 0.08851 0.10411 0.0
C87 C 0.81854 0.06338 0.07941 0.0
C88 C 0.79648 0.04774 0.08609 0.0
C89 C 0.77531 0.05722 0.11559 0.0
C90 C 0.72233 0.08627 0.11767 0.0
C91 C 0.69852 0.08724 0.14678 0.0
C92 C 0.678 0.08034 0.10618 0.0
C93 C 0.68089 0.07271 0.0352 0.0
C94 C 0.70482 0.07221 0.00575 0.0
C95 C 0.72537 0.07911 0.04658 0.0
P96 P 0.53449 0.75013 0.20613 0.0
H97 H 0.52139 0.74144 0.35258 0.0
H98 H 0.54006 0.71749 0.43724 0.0
H99 H 0.60493 0.71521 0.30187 0.0
H100 H 0.58571 0.73916 0.21626 0.0
H101 H 0.52966 0.76244 0.06137 0.0
H102 H 0.54161 0.79982 0.99736 0.0
H103 H 0.57802 0.8342 0.18013 0.0
H104 H 0.56597 0.79611 0.24448 0.0
H105 H 0.4965 0.70793 0.19885 0.0
H106 H 0.5658 0.73004 0.09418 0.0
O107 O 0.50675 0.757 0.23585 0.0
H108 H 0.49261 0.66902 0.12619 0.0
H109 H 0.56208 0.69121 0.0215 0.0
C110 C 0.55214 0.74207 0.27806 0.0
C111 C 0.54003 0.73673 0.34217 0.0
C112 C 0.55084 0.72298 0.3909 0.0
C113 C 0.57393 0.71407 0.3761 0.0
C114 C 0.58698 0.72146 0.31445 0.0
C115 C 0.57612 0.73535 0.26573 0.0
C116 C 0.54759 0.77617 0.15701 0.0
C117 C 0.54096 0.7776 0.08717 0.0
C118 C 0.54782 0.79909 0.05047 0.0
C119 C 0.56103 0.81992 0.08333 0.0
C120 C 0.56792 0.8184 0.15334 0.0
C121 C 0.56121 0.79664 0.18997 0.0
C122 C 0.53104 0.72217 0.15027 0.0
C123 C 0.51073 0.70453 0.1597 0.0
C124 C 0.50866 0.68221 0.11866 0.0
C125 C 0.52695 0.67718 0.06778 0.0
C126 C 0.54748 0.69478 0.05937 0.0
C127 C 0.54962 0.71697 0.10081 0.0
P128 P 0.24871 0.51304 0.22883 0.0
H129 H 0.26119 0.49872 0.083 0.0
H130 H 0.24245 0.5085 0.97467 0.0
H131 H 0.20662 0.56735 0.08727 0.0
H132 H 0.22672 0.55856 0.19344 0.0
H133 H 0.25849 0.51719 0.37784 0.0
H134 H 0.29647 0.52222 0.44123 0.0
H135 H 0.33766 0.53489 0.24702 0.0
H136 H 0.29902 0.53077 0.18339 0.0
H137 H 0.20266 0.48131 0.24011 0.0
H138 H 0.23328 0.55254 0.32809 0.0
O139 O 0.25071 0.48251 0.21194 0.0
H140 H 0.16336 0.48716 0.29977 0.0
H141 H 0.19374 0.55875 0.38739 0.0
C142 C 0.24456 0.52724 0.14691 0.0
C143 C 0.2501 0.51439 0.08367 0.0
C144 C 0.2391 0.51985 0.02181 0.0
C145 C 0.22207 0.53797 0.02265 0.0
C146 C 0.21935 0.55307 0.08424 0.0
C147 C 0.23075 0.54789 0.14568 0.0
C148 C 0.27579 0.52431 0.27598 0.0
C149 C 0.27548 0.52223 0.34892 0.0
C150 C 0.29732 0.52471 0.38516 0.0
C151 C 0.32007 0.52861 0.34899 0.0
C152 C 0.32038 0.53209 0.27635 0.0
C153 C 0.29833 0.52979 0.23998 0.0
C154 C 0.22103 0.51621 0.28099 0.0
C155 C 0.20105 0.49803 0.27327 0.0
C156 C 0.1785 0.50154 0.30679 0.0
C157 C 0.17542 0.52349 0.348 0.0
C158 C 0.19563 0.54152 0.35669 0.0
C159 C 0.21822 0.53797 0.32296 0.0
P160 P 0.1438 0.25549 0.33727 0.0
H161 H 0.17717 0.23402 0.23257 0.0
H162 H 0.16908 0.20904 0.12378 0.0
H163 H 0.09255 0.2232 0.14261 0.0
H164 H 0.10081 0.24817 0.25017 0.0
H165 H 0.13676 0.28402 0.46752 0.0
H166 H 0.11721 0.32241 0.49723 0.0
H167 H 0.10303 0.32978 0.27834 0.0
H168 H 0.12337 0.29186 0.24846 0.0
H169 H 0.15951 0.2117 0.4025 0.0
H170 H 0.09227 0.24633 0.38203 0.0
O171 O 0.17358 0.25888 0.35605 0.0
H172 H 0.13629 0.17601 0.45706 0.0
H173 H 0.06898 0.21075 0.43614 0.0
C174 C 0.13968 0.24336 0.24871 0.0
C175 C 0.15885 0.23245 0.21189 0.0
C176 C 0.15417 0.218 0.15005 0.0
C177 C 0.13018 0.21412 0.12457 0.0
C178 C 0.11132 0.22618 0.1599 0.0
C179 C 0.11602 0.24049 0.22164 0.0
C180 C 0.13106 0.28481 0.35611 0.0
C181 C 0.12965 0.29402 0.42586 0.0
C182 C 0.11853 0.31593 0.44273 0.0
C183 C 0.10846 0.32885 0.39003 0.0
C184 C 0.11037 0.31991 0.31991 0.0
C185 C 0.12191 0.2982 0.30294 0.0
C186 C 0.12768 0.23188 0.38967 0.0
C187 C 0.13985 0.21192 0.41138 0.0
C188 C 0.12655 0.19151 0.44229 0.0
C189 C 0.10081 0.19059 0.45062 0.0
C190 C 0.08876 0.21086 0.42985 0.0
C191 C 0.1021 0.23132 0.39962 0.0
P192 P 0.27784 0.05379 0.23849 0.0
H193 H 0.26881 0.05766 0.08892 0.0
H194 H 0.28808 0.0388 0.98482 0.0
H195 H 0.32337 0.99048 0.11734 0.0
H196 H 0.30231 0.00778 0.21903 0.0
H197 H 0.24526 0.08029 0.33094 0.0
H198 H 0.20841 0.06666 0.39992 0.0
H199 H 0.21031 0.99156 0.3095 0.0
H200 H 0.24738 0.00543 0.24011 0.0
H201 H 0.33017 0.06811 0.22481 0.0
H202 H 0.28004 0.03465 0.38074 0.0
O203 O 0.27775 0.08343 0.21599 0.0
H204 H 0.36493 0.05773 0.29053 0.0
H205 H 0.31462 0.02545 0.44896 0.0
C206 C 0.28495 0.0348 0.16172 0.0
C207 C 0.28005 0.0424 0.09494 0.0
C208 C 0.29139 0.03176 0.03552 0.0
C209 C 0.30829 0.01381 0.04238 0.0
C210 C 0.31073 0.00429 0.10907 0.0
C211 C 0.29884 0.01445 0.16797 0.0
C212 C 0.24874 0.04397 0.27968 0.0
C213 C 0.23749 0.06101 0.3249 0.0
C214 C 0.21659 0.05314 0.36474 0.0
C215 C 0.20662 0.02801 0.36033 0.0
C216 C 0.21753 0.01106 0.31344 0.0
C217 C 0.23864 0.01897 0.2738 0.0
C218 C 0.30254 0.05216 0.29767 0.0
C219 C 0.32668 0.0593 0.27453 0.0
C220 C 0.34657 0.05335 0.31242 0.0
C221 C 0.34268 0.04039 0.37487 0.0
C222 C 0.31836 0.03482 0.40023 0.0
C223 C 0.29848 0.04041 0.3616 0.0
P224 P 0.35915 0.26648 0.2495 0.0
H225 H 0.33162 0.27614 0.12566 0.0
H226 H 0.34481 0.29581 0.0159 0.0
H227 H 0.4207 0.29503 0.0719 0.0
H228 H 0.40744 0.27536 0.18073 0.0
H229 H 0.34104 0.23591 0.36432 0.0
H230 H 0.35509 0.19871 0.41266 0.0
H231 H 0.40829 0.19417 0.24084 0.0
H232 H 0.39341 0.23072 0.19136 0.0
H233 H 0.35042 0.31801 0.28919 0.0
H234 H 0.40493 0.26756 0.32634 0.0
O235 O 0.32898 0.26843 0.26127 0.0
H236 H 0.37571 0.35224 0.34849 0.0
H237 H 0.43044 0.30159 0.38411 0.0
C238 C 0.36855 0.2742 0.16127 0.0
C239 C 0.3511 0.27953 0.11333 0.0
C240 C 0.35866 0.29092 0.05079 0.0
C241 C 0.3838 0.29714 0.03537 0.0
C242 C 0.40122 0.29021 0.08155 0.0
C243 C 0.39364 0.27896 0.14404 0.0
C244 C 0.36611 0.23609 0.27424 0.0
C245 C 0.35526 0.22648 0.33601 0.0
C246 C 0.36351 0.20536 0.364 0.0
C247 C 0.38308 0.19366 0.3312 0.0
C248 C 0.39307 0.20259 0.26721 0.0
C249 C 0.38466 0.22367 0.239 0.0
C250 C 0.37549 0.29013 0.30472 0.0
C251 C 0.36757 0.31418 0.31147 0.0
C252 C 0.38219 0.33378 0.34461 0.0
C253 C 0.40516 0.32968 0.37091 0.0
C254 C 0.41271 0.30534 0.36555 0.0
C255 C 0.39807 0.2858 0.33245 0.0
Tb256 Tb 0.99865 0.99082 0.68665 0.0
C257 C 0.05541 0.002 0.66205 0.0
Tb258 Tb 0.02697 0.02966 0.78762 0.0
O259 O 0.00547 0.01467 0.59647 0.0
O260 O 0.00503 0.03016 0.69901 0.0
O261 O 0.03609 0.98546 0.65033 0.0
C262 C 0.05311 0.06911 0.84676 0.0
O263 O 0.05485 0.0215 0.70747 0.0
C264 C 0.0155 0.98531 0.83599 0.0
C265 C 0.96979 0.02051 0.80742 0.0
O266 O 0.05968 0.04648 0.84172 0.0
O267 O 0.03175 0.06946 0.81941 0.0
O268 O 0.01844 0.00554 0.87601 0.0
O269 O 0.02151 0.99035 0.77373 0.0
O270 O 0.98968 0.03611 0.81938 0.0
O271 O 0.96963 0.00093 0.76201 0.0
C272 C 0.97281 0.94921 0.63879 0.0
O273 O 0.97112 0.9715 0.6169 0.0
O274 O 0.98921 0.95039 0.68665 0.0
C275 C 0.01008 0.03495 0.63573 0.0
Tb276 Tb 0.49886 0.04261 0.6533 0.0
C277 C 0.55227 0.0282 0.6232 0.0
Tb278 Tb 0.5147 0.99581 0.72294 0.0
O279 O 0.52478 0.06793 0.71237 0.0
O280 O 0.51095 0.03381 0.75273 0.0
O281 O 0.53409 0.03992 0.59933 0.0
C282 C 0.53565 0.96351 0.79828 0.0
O283 O 0.54916 0.01209 0.67441 0.0
C284 C 0.4878 0.98741 0.61073 0.0
C285 C 0.46129 0.01039 0.75262 0.0
O286 O 0.53332 0.96174 0.73067 0.0
O287 O 0.52614 0.98341 0.82335 0.0
O288 O 0.48761 0.97184 0.66091 0.0
O289 O 0.50393 0.00515 0.62345 0.0
O290 O 0.47934 0.99872 0.77729 0.0
O291 O 0.46465 0.02575 0.69999 0.0
C292 C 0.47539 0.07446 0.58338 0.0
O293 O 0.47747 0.07486 0.65095 0.0
O294 O 0.48699 0.05641 0.55481 0.0
C295 C 0.52679 0.05237 0.76149 0.0
Tb296 Tb 0.5283 0.51375 0.64063 0.0
C297 C 0.47261 0.50403 0.60619 0.0
Tb298 Tb 0.49663 0.47191 0.71677 0.0
O299 O 0.52307 0.49318 0.53945 0.0
O300 O 0.52249 0.47433 0.63229 0.0
O301 O 0.49183 0.5212 0.60909 0.0
C302 C 0.46723 0.4319 0.75483 0.0
O303 O 0.47206 0.48235 0.63738 0.0
C304 C 0.50532 0.51454 0.78798 0.0
C305 C 0.55298 0.47898 0.7441 0.0
O306 O 0.46301 0.45504 0.76808 0.0
O307 O 0.48802 0.43129 0.72034 0.0
O308 O 0.50196 0.49307 0.81712 0.0
O309 O 0.50167 0.51143 0.72338 0.0
O310 O 0.53274 0.46323 0.74516 0.0
O311 O 0.55461 0.50068 0.71238 0.0
C312 C 0.55519 0.55618 0.60882 0.0
O313 O 0.55556 0.53488 0.57383 0.0
O314 O 0.53985 0.55347 0.66179 0.0
C315 C 0.51895 0.47152 0.56745 0.0
Tb316 Tb 0.97341 0.49827 0.63598 0.0
C317 C 0.01918 0.46965 0.5943 0.0
Tb318 Tb 0.0215 0.51221 0.71581 0.0
O319 O 0.98974 0.51094 0.53642 0.0
O320 O 0.00363 0.52602 0.63091 0.0
O321 O 0.99472 0.468 0.59633 0.0
C322 C 0.06766 0.52093 0.75934 0.0
O323 O 0.03281 0.48758 0.62927 0.0
C324 C 0.98652 0.48477 0.78205 0.0
C325 C 0.9778 0.54413 0.74769 0.0
O326 O 0.05541 0.49917 0.75115 0.0
O327 O 0.05382 0.53812 0.74376 0.0
O328 O 0.0024 0.5005 0.81389 0.0
O329 O 0.99199 0.48382 0.71778 0.0
O330 O 0.00216 0.54476 0.74424 0.0
O331 O 0.96313 0.5257 0.718 0.0
C332 C 0.92743 0.48303 0.60046 0.0
O333 O 0.93865 0.50501 0.59007 0.0
O334 O 0.94214 0.46955 0.63065 0.0
C335 C 0.00757 0.52518 0.56533 0.0
H336 H 0.20165 0.03824 0.50054 0.0
H337 H 0.06235 0.97767 0.53351 0.0
H338 H 0.16419 0.99849 0.32741 0.0
H339 H 0.10113 0.022 0.69677 0.0
H340 H 0.1005 0.97986 0.46108 0.0
H341 H 0.16607 0.02737 0.57687 0.0
C342 C 0.18584 0.02719 0.47864 0.0
C343 C 0.18566 0.0196 0.40738 0.0
C344 C 0.10064 0.98884 0.5131 0.0
C345 C 0.1447 0.00697 0.49462 0.0
C346 C 0.07894 0.98749 0.55453 0.0
C347 C 0.07854 -0.0001 0.62091 0.0
C348 C 0.12197 0.00256 0.5387 0.0
C349 C 0.10049 0.01244 0.64553 0.0
C350 C 0.16554 0.02087 0.5223 0.0
C351 C 0.16497 0.00478 0.3821 0.0
N352 N 0.1212 0.01356 0.60434 0.0
N353 N 0.14513 0.99915 0.42558 0.0
H354 H 0.40108 0.15075 0.27334 0.0
H355 H 0.45112 0.11274 0.63959 0.0
H356 H 0.39173 0.19186 0.47087 0.0
H357 H 0.46644 0.07359 0.44284 0.0
H358 H 0.4268 0.14012 0.57826 0.0
H359 H 0.4226 0.12043 0.33405 0.0
C360 C 0.40345 0.15336 0.32941 0.0
C361 C 0.39451 0.17389 0.36701 0.0
C362 C 0.43545 0.12557 0.54826 0.0
C363 C 0.41906 0.13933 0.43664 0.0
C364 C 0.44938 0.10997 0.58331 0.0
C365 C 0.46093 0.09109 0.54601 0.0
C366 C 0.43302 0.12227 0.47526 0.0
C367 C 0.45794 0.08813 0.47328 0.0
C368 C 0.41568 0.13603 0.36401 0.0
C369 C 0.3979 0.17616 0.43973 0.0
N370 N 0.44428 0.10363 0.4401 0.0
N371 N 0.40995 0.15919 0.47195 0.0
H372 H 0.3279 0.49255 0.43829 0.0
H373 H 0.46576 0.5448 0.5288 0.0
H374 H 0.36461 0.55772 0.34257 0.0
H375 H 0.4298 0.47391 0.59232 0.0
H376 H 0.42905 0.55156 0.46405 0.0
H377 H 0.36509 0.4873 0.49965 0.0
C378 C 0.34378 0.50595 0.43072 0.0
C379 C 0.34303 0.52582 0.38597 0.0
C380 C 0.42931 0.53455 0.49217 0.0
C381 C 0.38612 0.51966 0.45562 0.0
C382 C 0.45021 0.53069 0.52926 0.0
C383 C 0.45086 0.5088 0.56643 0.0
C384 C 0.40897 0.51644 0.49267 0.0
C385 C 0.43021 0.49112 0.56484 0.0
C386 C 0.36515 0.50282 0.4654 0.0
C387 C 0.36443 0.54218 0.37673 0.0
N388 N 0.41018 0.49538 0.52885 0.0
N389 N 0.38515 0.53881 0.41162 0.0
H390 H 0.06266 0.33883 0.35237 0.0
H391 H 0.06872 0.46929 0.57286 0.0
H392 H 0.12509 0.36964 0.47125 0.0
H393 H -0.00021 0.42727 0.52055 0.0
H394 H 0.09066 0.4367 0.51379 0.0
H395 H 0.04054 0.37485 0.39281 0.0
C396 C 0.07177 0.35336 0.38625 0.0
C397 C 0.09563 0.35132 0.40896 0.0
C398 C 0.07074 0.43463 0.51501 0.0
C399 C 0.07064 0.3923 0.45487 0.0
C400 C 0.05812 0.45325 0.54876 0.0
C401 C 0.03229 0.45083 0.55282 0.0
C402 C 0.05753 0.4134 0.48457 0.0
C403 C 0.01969 0.42977 0.51933 0.0
C404 C 0.05913 0.37375 0.40954 0.0
C405 C 0.10662 0.37046 0.45318 0.0
N406 N 0.03247 0.41173 0.48688 0.0
N407 N 0.09404 0.39015 0.4747 0.0
H408 H 0.86643 0.07322 0.11788 0.0
H409 H 0.92289 0.99807 0.78834 0.0
H410 H 0.82135 0.03228 0.96146 0.0
H411 H 0.96482 0.053 0.92017 0.0
H412 H 0.88575 0.00606 0.85815 0.0
H413 H 0.90307 0.0612 0.05359 0.0
C414 C 0.86423 0.06167 0.07001 0.0
C415 C 0.84077 0.05401 0.0446 0.0
C416 C 0.90312 0.01632 0.87161 0.0
C417 C 0.88272 0.03999 0.97086 0.0
C418 C 0.92432 0.01178 0.83184 0.0
C419 C 0.947 0.02501 0.84805 0.0
C420 C 0.90472 0.03401 0.92831 0.0
C421 C 0.94775 0.0425 0.90518 0.0
C422 C 0.88517 0.05475 0.0334 0.0
C423 C 0.83906 0.03852 0.98316 0.0
N424 N 0.92695 0.04645 0.94318 0.0
N425 N 0.85977 0.03214 0.94809 0.0
H426 H 0.55508 0.86756 0.13489 0.0
H427 H 0.55553 0.92084 0.75189 0.0
H428 H 0.57585 0.82632 0.94617 0.0
H429 H 0.53809 0.96362 0.94084 0.0
H430 H 0.5681 0.88797 0.82355 0.0
H431 H 0.55447 0.90496 0.06704 0.0
C432 C 0.56006 0.8665 0.07949 0.0
C433 C 0.5652 0.84367 0.04597 0.0
C434 C 0.56177 0.90464 0.84947 0.0
C435 C 0.564 0.88628 0.96766 0.0
C436 C 0.55458 0.92338 0.80854 0.0
C437 C 0.54553 0.94476 0.84065 0.0
C438 C 0.55969 0.90725 0.92304 0.0
C439 C 0.54479 0.94726 0.91414 0.0
C440 C 0.5595 0.88782 0.04062 0.0
C441 C 0.57129 0.84339 0.97388 0.0
N442 N 0.55152 0.92859 0.95292 0.0
N443 N 0.57022 0.86426 0.93701 0.0
H444 H 0.67032 0.39828 0.87951 0.0
H445 H 0.58837 0.50867 0.8157 0.0
H446 H 0.66387 0.45831 0.03632 0.0
H447 H 0.56649 0.43192 0.75093 0.0
H448 H 0.62269 0.4944 0.87898 0.0
H449 H 0.63819 0.41428 0.81398 0.0
C450 C 0.66209 0.41466 0.90081 0.0
C451 C 0.66975 0.42666 0.96456 0.0
C452 C 0.61036 0.48081 0.85055 0.0
C453 C 0.63356 0.44564 0.88748 0.0
C454 C 0.59098 0.48891 0.81421 0.0
C455 C 0.57464 0.47139 0.77843 0.0
C456 C 0.61364 0.45517 0.84918 0.0
C457 C 0.57861 0.44598 0.77838 0.0
C458 C 0.6439 0.4239 0.86277 0.0
C459 C 0.65887 0.44848 0.98734 0.0
N460 N 0.59781 0.43864 0.81285 0.0
N461 N 0.64137 0.45732 0.94871 0.0
H462 H 0.91192 0.63303 0.07264 0.0
H463 H 0.99588 0.59302 0.75796 0.0
H464 H 0.94248 0.686 0.92267 0.0
H465 H 0.93449 0.5421 0.82431 0.0
H466 H 0.978 0.62709 0.82502 0.0
H467 H 0.92014 0.59868 0.98799 0.0
C468 C 0.91978 0.6374 0.0213 0.0
C469 C 0.92659 0.66233 0.00455 0.0
C470 C 0.96831 0.60851 0.8243 0.0
C471 C 0.9366 0.62341 0.90906 0.0
C472 C 0.97859 0.58907 0.7866 0.0
C473 C 0.96663 0.56481 0.78593 0.0
C474 C 0.94625 0.6035 0.8631 0.0
C475 C 0.94418 0.56065 0.82347 0.0
C476 C 0.92445 0.61786 0.97321 0.0
C477 C 0.93678 0.66705 0.93749 0.0
N478 N 0.93485 0.57978 0.86166 0.0
N479 N 0.94196 0.64776 0.89273 0.0
H480 H 0.05867 0.16563 0.39915 0.0
H481 H 0.04541 0.06643 0.69959 0.0
H482 H 0.11043 0.16434 0.56446 0.0
H483 H 0.0041 0.05623 0.51106 0.0
H484 H 0.06637 0.10494 0.65681 0.0
H485 H 0.03565 0.12807 0.44439 0.0
C486 C 0.06508 0.15753 0.44528 0.0
C487 C 0.08647 0.16812 0.47826 0.0
C488 C 0.05256 0.09449 0.62486 0.0
C489 C 0.06031 0.12517 0.52996 0.0
C490 C 0.04022 0.07271 0.65018 0.0
C491 C 0.02242 0.0586 0.61026 0.0
C492 C 0.04706 0.10229 0.55858 0.0
C493 C 0.01757 0.06679 0.54388 0.0
C494 C 0.05203 0.13602 0.47072 0.0
C495 C 0.09415 0.15667 0.53718 0.0
N496 N 0.02974 0.08822 0.52013 0.0
N497 N 0.08103 0.13587 0.56128 0.0
H498 H 0.34377 0.99639 0.44236 0.0
H499 H 0.48852 0.01206 0.49025 0.0
H500 H 0.38997 0.06296 0.38734 0.0
H501 H 0.43978 0.96845 0.62966 0.0
H502 H 0.45275 0.02427 0.43069 0.0
H503 H 0.37903 0.98058 0.49473 0.0
C504 C 0.36117 0.00787 0.44185 0.0
C505 C 0.36374 0.03117 0.41029 0.0
C506 C 0.44991 0.01185 0.47393 0.0
C507 C 0.40436 0.01253 0.46783 0.0
C508 C 0.47023 0.00482 0.50759 0.0
C509 C 0.46694 0.98977 0.56563 0.0
C510 C 0.42618 0.00332 0.49785 0.0
C511 C 0.44302 0.98024 0.58517 0.0
C512 C 0.38134 0.99864 0.47117 0.0
C513 C 0.38707 0.04475 0.4098 0.0
N514 N 0.42343 0.98737 0.55164 0.0
N515 N 0.40648 0.03515 0.43773 0.0
H516 H 0.41392 0.37702 0.32244 0.0
H517 H 0.51479 0.42324 0.60741 0.0
H518 H 0.43479 0.33061 0.48485 0.0
H519 H 0.49049 0.47054 0.45258 0.0
H520 H 0.48686 0.38842 0.56046 0.0
H521 H 0.44257 0.41116 0.36781 0.0
C522 C 0.42433 0.37407 0.36813 0.0
C523 C 0.42183 0.35089 0.40001 0.0
C524 C 0.48769 0.40638 0.53654 0.0
C525 C 0.45513 0.38985 0.45148 0.0
C526 C 0.50353 0.42622 0.56348 0.0
C527 C 0.50459 0.44975 0.53441 0.0
C528 C 0.47292 0.41016 0.4798 0.0
C529 C 0.49021 0.45261 0.47641 0.0
C530 C 0.44087 0.39353 0.39364 0.0
C531 C 0.43626 0.34805 0.45815 0.0
N532 N 0.47484 0.43307 0.45124 0.0
N533 N 0.45228 0.36729 0.48199 0.0
H534 H 0.16404 0.54264 0.48012 0.0
H535 H 0.01967 0.51346 0.42983 0.0
H536 H 0.13096 0.51453 0.28625 0.0
H537 H 0.04994 0.54961 0.61832 0.0
H538 H 0.06052 0.51656 0.37467 0.0
H539 H 0.12289 0.5477 0.53089 0.0
C540 C 0.14815 0.53773 0.44811 0.0
C541 C 0.15089 0.52782 0.37917 0.0
C542 C 0.05834 0.524 0.42801 0.0
C543 C 0.10392 0.5335 0.43676 0.0
C544 C 0.03496 0.52231 0.45947 0.0
C545 C 0.03159 0.53081 0.52933 0.0
C546 C 0.07861 0.53416 0.46676 0.0
C547 C 0.05198 0.54225 0.56505 0.0
C548 C 0.12469 0.54058 0.47711 0.0
C549 C 0.12969 0.52168 0.34011 0.0
N550 N 0.07478 0.54333 0.53368 0.0
N551 N 0.10715 0.52449 0.36956 0.0
H552 H 0.00382 0.83023 0.9404 0.0
H553 H 0.98629 0.97517 0.95023 0.0
H554 H 0.94666 0.86324 0.0641 0.0
H555 H 0.02458 0.93938 0.77809 0.0
H556 H 0.97267 0.93405 0.9947 0.0
H557 H 0.01232 0.86948 0.87991 0.0
C558 C 0.99282 0.84556 0.95422 0.0
C559 C 0.97474 0.84353 0.00828 0.0
C560 C 0.98386 0.93511 0.94681 0.0
C561 C 0.98471 0.88854 0.94022 0.0
C562 C 0.99172 0.95856 0.92174 0.0
C563 C 0.00649 0.9605 0.86058 0.0
C564 C 0.99124 0.91347 0.91117 0.0
C565 C 0.013 0.93851 0.82524 0.0
C566 C 0.99777 0.86799 0.91985 0.0
C567 C 0.96122 0.86413 0.02418 0.0
N568 N 0.00552 0.91581 0.85146 0.0
N569 N 0.96667 0.88582 0.99093 0.0
H570 H 0.67457 0.08586 0.9008 0.0
H571 H 0.5338 0.02847 0.88287 0.0
H572 H 0.63715 0.04582 0.07029 0.0
H573 H 0.57066 0.07791 0.73295 0.0
H574 H 0.57225 0.03036 0.94761 0.0
H575 H 0.63752 0.07831 0.83262 0.0
C576 C 0.65865 0.0752 0.92339 0.0
C577 C 0.65896 0.06658 0.99152 0.0
C578 C 0.57186 0.04069 0.90037 0.0
C579 C 0.61615 0.05824 0.91408 0.0
C580 C 0.55002 0.03949 0.8634 0.0
C581 C 0.54916 0.05298 0.80264 0.0
C582 C 0.59282 0.05542 0.87582 0.0
C583 C 0.57047 0.06738 0.77999 0.0
C584 C 0.63738 0.07107 0.88464 0.0
C585 C 0.63759 0.05316 0.01836 0.0
N586 N 0.59138 0.06818 0.81647 0.0
N587 N 0.61699 0.04948 0.97967 0.0
H588 H 0.53585 0.67144 0.92633 0.0
H589 H 0.5003 0.56044 0.7383 0.0
H590 H 0.51309 0.62951 0.10851 0.0
H591 H 0.51771 0.52414 0.92462 0.0
H592 H 0.50647 0.60095 0.80182 0.0
H593 H 0.53185 0.6326 0.85399 0.0
C594 C 0.52995 0.65404 0.95104 0.0
C595 C 0.52461 0.65371 0.02343 0.0
C596 C 0.50949 0.58423 0.82854 0.0
C597 C 0.51935 0.60926 0.94074 0.0
C598 C 0.50594 0.56109 0.79227 0.0
C599 C 0.50911 0.53905 0.8259 0.0
C600 C 0.51603 0.58528 0.89927 0.0
C601 C 0.51536 0.5408 0.89671 0.0
C602 C 0.52735 0.63191 0.90956 0.0
C603 C 0.517 0.63064 0.05271 0.0
N604 N 0.51852 0.56356 0.93125 0.0
N605 N 0.5147 0.6093 0.01128 0.0
H606 H 0.85873 0.38424 0.89213 0.0
H607 H 0.96198 0.50003 0.9005 0.0
H608 H 0.84741 0.45582 0.99384 0.0
H609 H 0.95966 0.44234 0.73524 0.0
H610 H 0.92288 0.48079 0.94892 0.0
H611 H 0.89886 0.4022 0.8463 0.0
C612 C 0.86474 0.4037 0.90474 0.0
C613 C 0.84977 0.41868 0.94618 0.0
C614 C 0.93097 0.47233 0.90213 0.0
C615 C 0.89547 0.43911 0.89525 0.0
C616 C 0.95328 0.48319 0.87486 0.0
C617 C 0.96381 0.47275 0.8138 0.0
C618 C 0.91943 0.45066 0.86864 0.0
C619 C 0.95186 0.45103 0.78212 0.0
C620 C 0.88752 0.41393 0.87853 0.0
C621 C 0.85832 0.44378 0.96122 0.0
N622 N 0.93029 0.44061 0.81004 0.0
N623 N 0.88067 0.45318 0.93607 0.0
H624 H 0.09877 0.21681 0.01646 0.0
H625 H 0.09691 0.07063 0.91225 0.0
H626 H 0.1468 0.16783 0.1039 0.0
H627 H 0.04252 0.11758 0.84943 0.0
H628 H 0.11988 0.10752 0.96703 0.0
H629 H 0.08281 0.18223 0.9378 0.0
C630 C 0.10619 0.19888 0.01843 0.0
C631 C 0.12392 0.19513 0.06744 0.0
C632 C 0.103 0.10977 0.94088 0.0
C633 C 0.10569 0.15548 0.97789 0.0
C634 C 0.0899 0.08875 0.90981 0.0
C635 C 0.0677 0.09114 0.87729 0.0
C636 C 0.09379 0.13328 0.93911 0.0
C637 C 0.05945 0.11497 0.87483 0.0
C638 C 0.09708 0.17915 0.97356 0.0
C639 C 0.13322 0.17163 0.06683 0.0
N640 N 0.07243 0.13513 0.90574 0.0
N641 N 0.12377 0.15261 0.02342 0.0
H642 H 0.33115 0.97032 0.0127 0.0
H643 H 0.42082 0.0328 0.71861 0.0
H644 H 0.32698 0.04465 0.93863 0.0
H645 H 0.44424 0.97916 0.85798 0.0
H646 H 0.38036 0.02918 0.77626 0.0
H647 H 0.36677 0.96586 0.93347 0.0
C648 C 0.33738 0.9856 0.97955 0.0
C649 C 0.32607 0.00814 0.98396 0.0
C650 C 0.39431 0.01807 0.79386 0.0
C651 C 0.36638 0.00267 0.89179 0.0
C652 C 0.41749 0.02012 0.76111 0.0
C653 C 0.43621 0.00662 0.7844 0.0
C654 C 0.38961 0.00228 0.85006 0.0
C655 C 0.43049 0.99021 0.83903 0.0
C656 C 0.35768 0.98292 0.93418 0.0
C657 C 0.33466 0.02682 0.93746 0.0
N658 N 0.40769 0.98861 0.87047 0.0
N659 N 0.35434 0.02371 0.89388 0.0
H660 H 0.36308 0.3384 0.99555 0.0
H661 H 0.47686 0.38293 0.74256 0.0
H662 H 0.42334 0.29385 0.94345 0.0
H663 H 0.42313 0.43107 0.82594 0.0
H664 H 0.45334 0.34732 0.79691 0.0
H665 H 0.38038 0.36925 0.91337 0.0
C666 C 0.37966 0.33479 0.96564 0.0
C667 C 0.39189 0.31357 0.97688 0.0
C668 C 0.44657 0.36563 0.80272 0.0
C669 C 0.41211 0.34919 0.88372 0.0
C670 C 0.45996 0.38591 0.7717 0.0
C671 C 0.45201 0.40994 0.78067 0.0
C672 C 0.42508 0.36947 0.84267 0.0
C673 C 0.42996 0.41284 0.81843 0.0
C674 C 0.38967 0.35258 0.91919 0.0
C675 C 0.41352 0.31014 0.93725 0.0
N676 N 0.41735 0.39287 0.8485 0.0
N677 N 0.42308 0.32789 0.89292 0.0
H678 H 0.2004 0.57786 0.97159 0.0
H679 H 0.09896 0.48561 0.77428 0.0
H680 H 0.2017 0.49766 0.94454 0.0
H681 H 0.094 0.56517 0.80041 0.0
H682 H 0.13981 0.4912 0.82304 0.0
H683 H 0.16482 0.57515 0.89579 0.0
C684 C 0.19352 0.55975 0.94908 0.0
C685 C 0.2041 0.53794 0.96542 0.0
C686 C 0.12996 0.50754 0.81785 0.0
C687 C 0.16341 0.53478 0.87843 0.0
C688 C 0.10658 0.50432 0.7901 0.0
C689 C 0.09304 0.52493 0.78416 0.0
C690 C 0.13988 0.53155 0.84074 0.0
C691 C 0.10387 0.54879 0.80466 0.0
C692 C 0.17322 0.55825 0.90567 0.0
C693 C 0.19457 0.5151 0.93337 0.0
N694 N 0.12661 0.55145 0.83288 0.0
N695 N 0.1747 0.51413 0.89228 0.0
H696 H 0.91227 0.83659 0.34923 0.0
H697 H 0.97234 0.90269 0.68942 0.0
H698 H 0.93369 0.79615 0.52393 0.0
H699 H 0.94255 0.94291 0.52684 0.0
H700 H 0.95303 0.86348 0.63756 0.0
H701 H 0.91655 0.87518 0.42167 0.0
C702 C 0.91713 0.83562 0.40351 0.0
C703 C 0.92305 0.81305 0.43006 0.0
C704 C 0.95042 0.88088 0.6136 0.0
C705 C 0.92884 0.85753 0.51272 0.0
C706 C 0.96152 0.90324 0.64305 0.0
C707 C 0.95928 0.92593 0.6116 0.0
C708 C 0.93722 0.8812 0.55174 0.0
C709 C 0.94488 0.92572 0.55217 0.0
C710 C 0.91986 0.85781 0.44472 0.0
C711 C 0.92954 0.8132 0.50068 0.0
N712 N 0.93466 0.90363 0.52353 0.0
N713 N 0.93273 0.83516 0.53912 0.0
H714 H 0.67961 0.10424 0.42593 0.0
H715 H 0.59328 0.00311 0.63627 0.0
H716 H 0.70008 0.02977 0.45453 0.0
H717 H 0.56864 0.06831 0.54641 0.0
H718 H 0.63495 0.01509 0.58977 0.0
H719 H 0.642 0.09431 0.49439 0.0
C720 C 0.67656 0.08597 0.44811 0.0
C721 C 0.69308 0.06777 0.43408 0.0
C722 C 0.62036 0.02671 0.58044 0.0
C723 C 0.64942 0.05604 0.51093 0.0
C724 C 0.5966 0.0199 0.60676 0.0
C725 C 0.57739 0.03458 0.59444 0.0
C726 C 0.62491 0.04854 0.54262 0.0
C727 C 0.58276 0.05622 0.55635 0.0
C728 C 0.65483 0.08021 0.48642 0.0
C729 C 0.68771 0.04425 0.46326 0.0
N730 N 0.60601 0.06255 0.53194 0.0
N731 N 0.66618 0.03895 0.49987 0.0
H732 H 0.59521 0.672 0.32917 0.0
H733 H 0.55396 0.602 0.67593 0.0
H734 H 0.57021 0.70959 0.5195 0.0
H735 H 0.58229 0.56547 0.48845 0.0
H736 H 0.56713 0.64266 0.62758 0.0
H737 H 0.59877 0.63471 0.39426 0.0
C738 C 0.59113 0.67273 0.3851 0.0
C739 C 0.58196 0.69393 0.41854 0.0
C740 C 0.57086 0.62579 0.59741 0.0
C741 C 0.58526 0.65079 0.49314 0.0
C742 C 0.56335 0.60258 0.62504 0.0
C743 C 0.56677 0.58043 0.58557 0.0
C744 C 0.58162 0.6268 0.52953 0.0
C745 C 0.57913 0.58216 0.52021 0.0
C746 C 0.59293 0.65124 0.4222 0.0
C747 C 0.57675 0.69348 0.4911 0.0
N748 N 0.58578 0.60497 0.49373 0.0
N749 N 0.57804 0.67211 0.52567 0.0
H750 H 0.79412 0.4692 0.37044 0.0
H751 H 0.9043 0.43569 0.60373 0.0
H752 H 0.81283 0.39391 0.39547 0.0
H753 H 0.89471 0.5101 0.54062 0.0
H754 H 0.86528 0.4204 0.54972 0.0
H755 H 0.82515 0.4846 0.45536 0.0
C756 C 0.80453 0.45586 0.39444 0.0
C757 C 0.80113 0.43026 0.37485 0.0
C758 C 0.87159 0.44012 0.5484 0.0
C759 C 0.83664 0.44776 0.47217 0.0
C760 C 0.8938 0.44883 0.57922 0.0
C761 C 0.90278 0.47409 0.57563 0.0
C762 C 0.85831 0.45685 0.51409 0.0
C763 C 0.88849 0.49042 0.54378 0.0
C764 C 0.82221 0.46466 0.44297 0.0
C765 C 0.81475 0.41379 0.40894 0.0
N766 N 0.86704 0.48148 0.51371 0.0
N767 N 0.83214 0.42286 0.45523 0.0
loop_
_geom_bond_atom_site_label_1
_geom_bond_atom_site_label_2
_geom_bond_distance
_geom_bond_site_symmetry_2
_ccdc_geom_bond_type
P0 O11 1.490 . S
P0 C14 1.812 . S
P0 C20 1.803 . S
P0 C26 1.819 . S
H1 C15 0.941 . S
H2 C16 0.939 . S
H3 C18 0.940 . S
H4 C19 0.940 . S
H5 C21 0.939 1_556 S
H6 C22 0.942 . S
H7 C24 0.940 . S
H8 C25 0.939 . S
H9 C27 0.941 1_554 S
H10 C31 0.939 . S
O11 P0 1.490 . S
H12 C28 0.939 . S
H13 C30 0.940 . S
C14 P0 1.812 . S
C14 C15 1.389 . S
C14 C19 1.391 . S
C15 H1 0.941 . S
C15 C14 1.389 . S
C15 C16 1.397 . S
C16 H2 0.939 . S
C16 C15 1.397 . S
C16 C17 1.378 . S
C17 C16 1.378 . S
C17 C18 1.378 . S
C18 H3 0.940 . S
C18 C17 1.378 . S
C18 C19 1.396 . S
C19 H4 0.940 . S
C19 C14 1.391 . S
C19 C18 1.396 . S
C20 P0 1.803 . S
C20 C21 1.378 . S
C20 C25 1.400 . S
C21 H5 0.939 1_554 S
C21 C20 1.378 . S
C21 C22 1.361 1_554 S
C22 H6 0.942 . S
C22 C21 1.361 1_556 S
C22 C23 1.369 1_556 S
C23 C22 1.369 1_554 S
C23 C24 1.404 . S
C24 H7 0.940 . S
C24 C23 1.404 . S
C24 C25 1.389 . S
C25 H8 0.939 . S
C25 C20 1.400 . S
C25 C24 1.389 . S
C26 P0 1.819 . S
C26 C27 1.391 1_554 S
C26 C31 1.391 1_554 S
C27 H9 0.941 1_556 S
C27 C26 1.391 1_556 S
C27 C28 1.396 . S
C28 H12 0.939 . S
C28 C27 1.396 . S
C28 C29 1.397 . S
C29 C28 1.397 . S
C29 C30 1.385 . S
C30 H13 0.940 . S
C30 C29 1.385 . S
C30 C31 1.388 . S
C31 H10 0.939 . S
C31 C26 1.391 1_556 S
C31 C30 1.388 . S
P32 O43 1.490 . S
P32 C46 1.812 . S
P32 C52 1.803 . S
P32 C58 1.819 1_554 S
H33 C47 0.941 . S
H34 C48 0.939 . S
H35 C50 0.940 . S
H36 C51 0.940 . S
H37 C53 0.939 . S
H38 C54 0.942 . S
H39 C56 0.940 . S
H40 C57 0.939 . S
H41 C59 0.934 1_554 S
H42 C63 0.939 . S
O43 P32 1.490 . S
H44 C60 0.939 . S
H45 C62 0.940 . S
C46 P32 1.812 . S
C46 C47 1.389 . S
C46 C51 1.391 . S
C47 H33 0.941 . S
C47 C46 1.389 . S
C47 C48 1.397 . S
C48 H34 0.939 . S
C48 C47 1.397 . S
C48 C49 1.378 . S
C49 C48 1.378 . S
C49 C50 1.378 . S
C50 H35 0.940 . S
C50 C49 1.378 . S
C50 C51 1.396 . S
C51 H36 0.940 . S
C51 C46 1.391 . S
C51 C50 1.396 . S
C52 P32 1.803 . S
C52 C53 1.378 1_554 S
C52 C57 1.400 . S
C53 H37 0.939 . S
C53 C52 1.378 1_556 S
C53 C54 1.361 . S
C54 H38 0.942 . S
C54 C53 1.361 . S
C54 C55 1.369 . S
C55 C54 1.369 . S
C55 C56 1.404 1_556 S
C56 H39 0.940 . S
C56 C55 1.404 1_554 S
C56 C57 1.389 . S
C57 H40 0.939 . S
C57 C52 1.400 . S
C57 C56 1.389 . S
C58 P32 1.819 1_556 S
C58 C59 1.391 . S
C58 C63 1.391 . S
C59 H41 0.934 1_556 S
C59 C58 1.391 . S
C59 C60 1.396 . S
C60 H44 0.939 . S
C60 C59 1.396 . S
C60 C61 1.397 . S
C61 C60 1.397 . S
C61 C62 1.385 . S
C62 H45 0.940 . S
C62 C61 1.385 . S
C62 C63 1.388 . S
C63 H42 0.939 . S
C63 C58 1.391 . S
C63 C62 1.388 . S
P64 O75 1.490 . S
P64 C78 1.812 . S
P64 C84 1.803 . S
P64 C90 1.819 . S
H65 C79 0.941 . S
H66 C80 0.939 . S
H67 C82 0.940 . S
H68 C83 0.949 . S
H69 C85 0.939 . S
H70 C86 0.942 . S
H71 C88 0.940 . S
H72 C89 0.958 . S
H73 C91 0.941 . S
H74 C95 0.926 1_565 S
O75 P64 1.490 . S
H76 C92 0.940 1_554 S
H77 C94 0.940 . S
C78 P64 1.812 . S
C78 C79 1.389 . S
C78 C83 1.376 1_545 S
C79 H65 0.941 . S
C79 C78 1.389 . S
C79 C80 1.397 . S
C80 H66 0.939 . S
C80 C79 1.397 . S
C80 C81 1.378 . S
C81 C80 1.378 . S
C81 C82 1.378 1_545 S
C82 H67 0.940 . S
C82 C81 1.378 1_565 S
C82 C83 1.403 . S
C83 H68 0.949 . S
C83 C78 1.376 1_565 S
C83 C82 1.403 . S
C84 P64 1.803 . S
C84 C85 1.378 . S
C84 C89 1.367 1_545 S
C85 H69 0.939 . S
C85 C84 1.378 . S
C85 C86 1.361 . S
C86 H70 0.942 . S
C86 C85 1.361 . S
C86 C87 1.369 . S
C87 C86 1.369 . S
C87 C88 1.404 1_545 S
C88 H71 0.940 . S
C88 C87 1.404 1_565 S
C88 C89 1.404 . S
C89 H72 0.958 . S
C89 C84 1.367 1_565 S
C89 C88 1.404 . S
C90 P64 1.819 . S
C90 C91 1.391 . S
C90 C95 1.391 1_554 S
C91 H73 0.941 . S
C91 C90 1.391 . S
C91 C92 1.390 1_554 S
C92 H76 0.940 1_556 S
C92 C91 1.390 1_556 S
C92 C93 1.403 . S
C93 C92 1.403 . S
C93 C94 1.385 1_545 S
C94 H77 0.940 . S
C94 C93 1.385 1_565 S
C94 C95 1.388 1_565 S
C95 H74 0.926 1_545 S
C95 C90 1.391 1_556 S
C95 C94 1.388 1_545 S
P96 O107 1.490 . S
P96 C110 1.812 . S
P96 C116 1.803 . S
P96 C122 1.819 . S
H97 C111 0.941 . S
H98 C112 0.939 . S
H99 C114 0.940 . S
H100 C115 0.940 . S
H101 C117 0.939 . S
H102 C118 0.942 1_556 S
H103 C120 0.940 . S
H104 C121 0.939 . S
H105 C123 0.941 . S
H106 C127 0.939 . S
O107 P96 1.490 . S
H108 C124 0.939 . S
H109 C126 0.940 . S
C110 P96 1.812 . S
C110 C111 1.389 . S
C110 C115 1.391 . S
C111 H97 0.941 . S
C111 C110 1.389 . S
C111 C112 1.397 . S
C112 H98 0.939 . S
C112 C111 1.397 . S
C112 C113 1.378 . S
C113 C112 1.378 . S
C113 C114 1.378 . S
C114 H99 0.940 . S
C114 C113 1.378 . S
C114 C115 1.396 . S
C115 H100 0.940 . S
C115 C110 1.391 . S
C115 C114 1.396 . S
C116 P96 1.803 . S
C116 C117 1.378 . S
C116 C121 1.400 . S
C117 H101 0.939 . S
C117 C116 1.378 . S
C117 C118 1.361 . S
C118 H102 0.942 1_554 S
C118 C117 1.361 . S
C118 C119 1.369 . S
C119 C118 1.369 . S
C119 C120 1.404 . S
C120 H103 0.940 . S
C120 C119 1.404 . S
C120 C121 1.389 . S
C121 H104 0.939 . S
C121 C116 1.400 . S
C121 C120 1.389 . S
C122 P96 1.819 . S
C122 C123 1.391 . S
C122 C127 1.391 1_554 S
C123 H105 0.941 . S
C123 C122 1.391 . S
C123 C124 1.396 1_554 S
C124 H108 0.939 . S
C124 C123 1.396 1_556 S
C124 C125 1.397 . S
C125 C124 1.397 . S
C125 C126 1.385 . S
C126 H109 0.940 . S
C126 C125 1.385 . S
C126 C127 1.388 . S
C127 H106 0.939 . S
C127 C122 1.391 1_556 S
C127 C126 1.388 . S
P128 O139 1.490 . S
P128 C142 1.812 . S
P128 C148 1.803 . S
P128 C154 1.819 . S
H129 C143 0.941 . S
H130 C144 0.939 . S
H131 C146 0.940 . S
H132 C147 0.940 . S
H133 C149 0.939 . S
H134 C150 0.942 . S
H135 C152 0.940 . S
H136 C153 0.939 . S
H137 C155 0.941 . S
H138 C159 0.939 . S
O139 P128 1.490 . S
H140 C156 0.939 . S
H141 C158 0.940 . S
C142 P128 1.812 . S
C142 C143 1.389 . S
C142 C147 1.391 . S
C143 H129 0.941 . S
C143 C142 1.389 . S
C143 C144 1.397 . S
C144 H130 0.939 . S
C144 C143 1.397 . S
C144 C145 1.378 . S
C145 C144 1.378 . S
C145 C146 1.378 . S
C146 H131 0.940 . S
C146 C145 1.378 . S
C146 C147 1.396 . S
C147 H132 0.940 . S
C147 C142 1.391 . S
C147 C146 1.396 . S
C148 P128 1.803 . S
C148 C149 1.378 . S
C148 C153 1.400 . S
C149 H133 0.939 . S
C149 C148 1.378 . S
C149 C150 1.361 . S
C150 H134 0.942 . S
C150 C149 1.361 . S
C150 C151 1.369 . S
C151 C150 1.369 . S
C151 C152 1.404 . S
C152 H135 0.940 . S
C152 C151 1.404 . S
C152 C153 1.389 . S
C153 H136 0.939 . S
C153 C148 1.400 . S
C153 C152 1.389 . S
C154 P128 1.819 . S
C154 C155 1.391 . S
C154 C159 1.391 . S
C155 H137 0.941 . S
C155 C154 1.391 . S
C155 C156 1.396 . S
C156 H140 0.939 . S
C156 C155 1.396 . S
C156 C157 1.397 . S
C157 C156 1.397 . S
C157 C158 1.385 . S
C158 H141 0.940 . S
C158 C157 1.385 . S
C158 C159 1.388 . S
C159 H138 0.939 . S
C159 C154 1.391 . S
C159 C158 1.388 . S
P160 O171 1.490 . S
P160 C174 1.812 . S
P160 C180 1.803 . S
P160 C186 1.819 . S
H161 C175 0.941 . S
H162 C176 0.939 . S
H163 C178 0.940 . S
H164 C179 0.940 . S
H165 C181 0.939 . S
H166 C182 0.942 . S
H167 C184 0.940 . S
H168 C185 0.939 . S
H169 C187 0.941 . S
H170 C191 0.939 . S
O171 P160 1.490 . S
H172 C188 0.939 . S
H173 C190 0.940 . S
C174 P160 1.812 . S
C174 C175 1.389 . S
C174 C179 1.391 . S
C175 H161 0.941 . S
C175 C174 1.389 . S
C175 C176 1.397 . S
C176 H162 0.939 . S
C176 C175 1.397 . S
C176 C177 1.378 . S
C177 C176 1.378 . S
C177 C178 1.378 . S
C178 H163 0.940 . S
C178 C177 1.378 . S
C178 C179 1.396 . S
C179 H164 0.940 . S
C179 C174 1.391 . S
C179 C178 1.396 . S
C180 P160 1.803 . S
C180 C181 1.378 . S
C180 C185 1.400 . S
C181 H165 0.939 . S
C181 C180 1.378 . S
C181 C182 1.361 . S
C182 H166 0.942 . S
C182 C181 1.361 . S
C182 C183 1.369 . S
C183 C182 1.369 . S
C183 C184 1.404 . S
C184 H167 0.940 . S
C184 C183 1.404 . S
C184 C185 1.389 . S
C185 H168 0.939 . S
C185 C180 1.400 . S
C185 C184 1.389 . S
C186 P160 1.819 . S
C186 C187 1.391 . S
C186 C191 1.391 . S
C187 H169 0.941 . S
C187 C186 1.391 . S
C187 C188 1.396 . S
C188 H172 0.939 . S
C188 C187 1.396 . S
C188 C189 1.397 . S
C189 C188 1.397 . S
C189 C190 1.385 . S
C190 H173 0.940 . S
C190 C189 1.385 . S
C190 C191 1.388 . S
C191 H170 0.939 . S
C191 C186 1.391 . S
C191 C190 1.388 . S
P192 O203 1.490 . S
P192 C206 1.812 . S
P192 C212 1.803 . S
P192 C218 1.819 . S
H193 C207 0.941 . S
H194 C208 0.939 . S
H195 C210 0.940 1_565 S
H196 C211 0.940 . S
H197 C213 0.939 . S
H198 C214 0.942 . S
H199 C216 0.940 1_565 S
H200 C217 0.939 . S
H201 C219 0.941 . S
H202 C223 0.939 . S
O203 P192 1.490 . S
H204 C220 0.939 . S
H205 C222 0.940 1_565 S
C206 P192 1.812 . S
C206 C207 1.389 . S
C206 C211 1.391 . S
C207 H193 0.941 . S
C207 C206 1.389 . S
C207 C208 1.397 . S
C208 H194 0.939 . S
C208 C207 1.397 . S
C208 C209 1.378 . S
C209 C208 1.378 . S
C209 C210 1.378 . S
C210 H195 0.940 1_545 S
C210 C209 1.378 . S
C210 C211 1.396 . S
C211 H196 0.940 . S
C211 C206 1.391 . S
C211 C210 1.396 . S
C212 P192 1.803 . S
C212 C213 1.378 . S
C212 C217 1.400 . S
C213 H197 0.939 . S
C213 C212 1.378 . S
C213 C214 1.361 . S
C214 H198 0.942 . S
C214 C213 1.361 . S
C214 C215 1.369 . S
C215 C214 1.369 . S
C215 C216 1.404 . S
C216 H199 0.940 1_545 S
C216 C215 1.404 . S
C216 C217 1.389 . S
C217 H200 0.939 . S
C217 C212 1.400 . S
C217 C216 1.389 . S
C218 P192 1.819 . S
C218 C219 1.391 . S
C218 C223 1.391 . S
C219 H201 0.941 . S
C219 C218 1.391 . S
C219 C220 1.396 . S
C220 H204 0.939 . S
C220 C219 1.396 . S
C220 C221 1.397 . S
C221 C220 1.397 . S
C221 C222 1.385 . S
C222 H205 0.940 1_545 S
C222 C221 1.385 . S
C222 C223 1.388 . S
C223 H202 0.939 . S
C223 C218 1.391 . S
C223 C222 1.388 . S
P224 O235 1.490 . S
P224 C238 1.812 . S
P224 C244 1.803 . S
P224 C250 1.819 . S
H225 C239 0.941 . S
H226 C240 0.939 . S
H227 C242 0.940 . S
H228 C243 0.940 . S
H229 C245 0.939 . S
H230 C246 0.942 . S
H231 C248 0.940 . S
H232 C249 0.939 . S
H233 C251 0.941 . S
H234 C255 0.939 . S
O235 P224 1.490 . S
H236 C252 0.939 . S
H237 C254 0.940 . S
C238 P224 1.812 . S
C238 C239 1.389 . S
C238 C243 1.391 . S
C239 H225 0.941 . S
C239 C238 1.389 . S
C239 C240 1.397 . S
C240 H226 0.939 . S
C240 C239 1.397 . S
C240 C241 1.378 . S
C241 C240 1.378 . S
C241 C242 1.378 . S
C242 H227 0.940 . S
C242 C241 1.378 . S
C242 C243 1.396 . S
C243 H228 0.940 . S
C243 C238 1.391 . S
C243 C242 1.396 . S
C244 P224 1.803 . S
C244 C245 1.378 . S
C244 C249 1.400 . S
C245 H229 0.939 . S
C245 C244 1.378 . S
C245 C246 1.361 . S
C246 H230 0.942 . S
C246 C245 1.361 . S
C246 C247 1.369 . S
C247 C246 1.369 . S
C247 C248 1.404 . S
C248 H231 0.940 . S
C248 C247 1.404 . S
C248 C249 1.389 . S
C249 H232 0.939 . S
C249 C244 1.400 . S
C249 C248 1.389 . S
C250 P224 1.819 . S
C250 C251 1.391 . S
C250 C255 1.391 . S
C251 H233 0.941 . S
C251 C250 1.391 . S
C251 C252 1.396 . S
C252 H236 0.939 . S
C252 C251 1.396 . S
C252 C253 1.397 . S
C253 C252 1.397 . S
C253 C254 1.385 . S
C254 H237 0.940 . S
C254 C253 1.385 . S
C254 C255 1.388 . S
C255 H234 0.939 . S
C255 C250 1.391 . S
C255 C254 1.388 . S
Tb256 O259 2.453 1_655 S
Tb256 O260 2.596 1_655 S
Tb256 O261 2.374 1_645 S
Tb256 O269 2.343 1_545 S
Tb256 O271 2.353 . S
Tb256 O273 2.427 1_545 S
Tb256 O274 2.513 1_545 S
C257 O261 1.251 1_545 S
C257 O263 1.263 . S
Tb258 O260 2.343 . S
Tb258 O263 2.353 . S
Tb258 O266 2.427 . S
Tb258 O267 2.513 . S
Tb258 O268 2.453 1_545 S
Tb258 O269 2.596 1_445 S
Tb258 O270 2.374 1_455 S
O259 Tb256 2.453 1_455 S
O259 C275 1.245 . S
O260 Tb256 2.596 1_455 S
O260 Tb258 2.343 . S
O260 C275 1.259 . S
O261 Tb256 2.374 1_465 S
O261 C257 1.251 1_565 S
C262 O266 1.275 . S
C262 O267 1.246 . S
O263 C257 1.263 . S
O263 Tb258 2.353 . S
C264 O268 1.245 1_655 S
C264 O269 1.259 . S
C265 O270 1.250 . S
C265 O271 1.263 . S
O266 Tb258 2.427 . S
O266 C262 1.275 . S
O267 Tb258 2.513 . S
O267 C262 1.246 . S
O268 Tb258 2.453 1_565 S
O268 C264 1.245 1_455 S
O269 Tb256 2.343 1_565 S
O269 Tb258 2.596 1_665 S
O269 C264 1.259 . S
O270 Tb258 2.374 1_655 S
O270 C265 1.250 . S
O271 Tb256 2.353 . S
O271 C265 1.263 . S
C272 O273 1.275 . S
C272 O274 1.246 . S
O273 Tb256 2.427 1_565 S
O273 C272 1.275 . S
O274 Tb256 2.513 1_565 S
O274 C272 1.246 . S
C275 O259 1.245 . S
C275 O260 1.259 . S
Tb276 O279 2.453 . S
Tb276 O280 2.596 . S
Tb276 O281 2.374 . S
Tb276 O289 2.343 . S
Tb276 O291 2.353 . S
Tb276 O293 2.427 . S
Tb276 O294 2.513 . S
C277 O281 1.251 . S
C277 O283 1.263 1_545 S
Tb278 O280 2.343 1_565 S
Tb278 O283 2.353 . S
Tb278 O286 2.427 . S
Tb278 O287 2.513 . S
Tb278 O288 2.453 . S
Tb278 O289 2.596 1_565 S
Tb278 O290 2.374 . S
O279 Tb276 2.453 . S
O279 C295 1.245 . S
O280 Tb276 2.596 . S
O280 Tb278 2.343 1_545 S
O280 C295 1.259 . S
O281 Tb276 2.374 . S
O281 C277 1.251 . S
C282 O286 1.275 . S
C282 O287 1.246 . S
O283 C277 1.263 1_565 S
O283 Tb278 2.353 . S
C284 O288 1.261 . S
C284 O289 1.252 1_565 S
C285 O290 1.250 1_545 S
C285 O291 1.263 . S
O286 Tb278 2.427 . S
O286 C282 1.275 . S
O287 Tb278 2.513 . S
O287 C282 1.246 . S
O288 Tb278 2.453 . S
O288 C284 1.261 . S
O289 Tb276 2.343 . S
O289 Tb278 2.596 1_545 S
O289 C284 1.252 1_545 S
O290 Tb278 2.374 . S
O290 C285 1.250 1_565 S
O291 Tb276 2.353 . S
O291 C285 1.263 . S
C292 O293 1.275 . S
C292 O294 1.246 . S
O293 Tb276 2.427 . S
O293 C292 1.275 . S
O294 Tb276 2.513 . S
O294 C292 1.246 . S
C295 O279 1.245 . S
C295 O280 1.259 . S
Tb296 O299 2.453 . S
Tb296 O300 2.596 . S
Tb296 O301 2.374 . S
Tb296 O309 2.343 . S
Tb296 O311 2.353 . S
Tb296 O313 2.427 . S
Tb296 O314 2.513 . S
C297 O301 1.251 . S
C297 O303 1.263 . S
Tb298 O300 2.343 . S
Tb298 O303 2.353 . S
Tb298 O306 2.427 . S
Tb298 O307 2.513 . S
Tb298 O308 2.453 . S
Tb298 O309 2.596 . S
Tb298 O310 2.374 . S
O299 Tb296 2.453 . S
O299 C315 1.245 . S
O300 Tb296 2.596 . S
O300 Tb298 2.343 . S
O300 C315 1.259 . S
O301 Tb296 2.374 . S
O301 C297 1.251 . S
C302 O306 1.275 . S
C302 O307 1.246 . S
O303 C297 1.263 . S
O303 Tb298 2.353 . S
C304 O308 1.245 . S
C304 O309 1.259 . S
C305 O310 1.250 . S
C305 O311 1.263 . S
O306 Tb298 2.427 . S
O306 C302 1.275 . S
O307 Tb298 2.513 . S
O307 C302 1.246 . S
O308 Tb298 2.453 . S
O308 C304 1.245 . S
O309 Tb296 2.343 . S
O309 Tb298 2.596 . S
O309 C304 1.259 . S
O310 Tb298 2.374 . S
O310 C305 1.250 . S
O311 Tb296 2.353 . S
O311 C305 1.263 . S
C312 O313 1.275 . S
C312 O314 1.246 . S
O313 Tb296 2.427 . S
O313 C312 1.275 . S
O314 Tb296 2.513 . S
O314 C312 1.246 . S
C315 O299 1.245 . S
C315 O300 1.259 . S
Tb316 O319 2.453 1_655 S
Tb316 O320 2.596 1_655 S
Tb316 O321 2.374 1_655 S
Tb316 O329 2.343 . S
Tb316 O331 2.353 . S
Tb316 O333 2.427 . S
Tb316 O334 2.513 . S
C317 O321 1.251 . S
C317 O323 1.263 . S
Tb318 O320 2.343 . S
Tb318 O323 2.353 . S
Tb318 O326 2.427 . S
Tb318 O327 2.513 . S
Tb318 O328 2.453 1_455 S
Tb318 O329 2.596 1_455 S
Tb318 O330 2.374 . S
O319 Tb316 2.453 1_455 S
O319 C335 1.245 . S
O320 Tb316 2.596 1_455 S
O320 Tb318 2.343 . S
O320 C335 1.259 . S
O321 Tb316 2.374 1_455 S
O321 C317 1.251 . S
C322 O326 1.275 . S
C322 O327 1.246 . S
O323 C317 1.263 . S
O323 Tb318 2.353 . S
C324 O328 1.245 . S
C324 O329 1.259 . S
C325 O330 1.250 1_655 S
C325 O331 1.263 . S
O326 Tb318 2.427 . S
O326 C322 1.275 . S
O327 Tb318 2.513 . S
O327 C322 1.246 . S
O328 Tb318 2.453 1_655 S
O328 C324 1.245 . S
O329 Tb316 2.343 . S
O329 Tb318 2.596 1_655 S
O329 C324 1.259 . S
O330 Tb318 2.374 . S
O330 C325 1.250 1_455 S
O331 Tb316 2.353 . S
O331 C325 1.263 . S
C332 O333 1.275 . S
C332 O334 1.246 . S
O333 Tb316 2.427 . S
O333 C332 1.275 . S
O334 Tb316 2.513 . S
O334 C332 1.246 . S
C335 O319 1.245 . S
C335 O320 1.259 . S
H336 C342 0.930 . S
H337 C346 0.930 . S
H338 C351 0.943 . S
H339 C349 0.929 . S
H340 C344 0.929 . S
H341 C350 0.929 . S
C342 H336 0.930 . S
C342 C343 1.367 . S
C342 C350 1.378 . S
C343 C342 1.367 . S
C343 C351 1.419 1_545 S
C344 H340 0.929 . S
C344 C346 1.378 . S
C344 C348 1.350 1_565 S
C345 C348 1.463 . S
C345 C350 1.350 . S
C345 N353 1.427 1_545 S
C346 H337 0.930 . S
C346 C344 1.378 . S
C346 C347 1.367 1_565 S
C347 C346 1.367 1_545 S
C347 C349 1.433 . S
C348 C344 1.350 1_545 S
C348 C345 1.463 . S
C348 N352 1.427 . S
C349 H339 0.929 . S
C349 C347 1.433 . S
C349 N352 1.384 . S
C350 H341 0.929 . S
C350 C342 1.378 . S
C350 C345 1.350 . S
C351 H338 0.943 . S
C351 C343 1.419 1_565 S
C351 N353 1.384 . S
N352 C348 1.427 . S
N352 C349 1.384 . S
N353 C345 1.427 1_565 S
N353 C351 1.384 . S
H354 C360 0.930 . S
H355 C364 0.930 . S
H356 C369 0.929 . S
H357 C367 0.929 . S
H358 C362 0.929 . S
H359 C368 0.929 . S
C360 H354 0.930 . S
C360 C361 1.367 . S
C360 C368 1.378 . S
C361 C360 1.367 . S
C361 C369 1.433 . S
C362 H358 0.929 . S
C362 C364 1.378 . S
C362 C366 1.350 . S
C363 C366 1.463 . S
C363 C368 1.350 . S
C363 N371 1.427 . S
C364 H355 0.930 . S
C364 C362 1.378 . S
C364 C365 1.367 . S
C365 C364 1.367 . S
C365 C367 1.433 . S
C366 C362 1.350 . S
C366 C363 1.463 . S
C366 N370 1.427 . S
C367 H357 0.929 . S
C367 C365 1.433 . S
C367 N370 1.384 . S
C368 H359 0.929 . S
C368 C360 1.378 . S
C368 C363 1.350 . S
C369 H356 0.929 . S
C369 C361 1.433 . S
C369 N371 1.384 . S
N370 C366 1.427 . S
N370 C367 1.384 . S
N371 C363 1.427 . S
N371 C369 1.384 . S
H372 C378 0.930 . S
H373 C382 0.930 . S
H374 C387 0.929 . S
H375 C385 0.929 . S
H376 C380 0.929 . S
H377 C386 0.929 . S
C378 H372 0.930 . S
C378 C379 1.367 . S
C378 C386 1.378 . S
C379 C378 1.367 . S
C379 C387 1.433 . S
C380 H376 0.929 . S
C380 C382 1.378 . S
C380 C384 1.350 . S
C381 C384 1.463 . S
C381 C386 1.350 . S
C381 N389 1.427 . S
C382 H373 0.930 . S
C382 C380 1.378 . S
C382 C383 1.367 . S
C383 C382 1.367 . S
C383 C385 1.433 . S
C384 C380 1.350 . S
C384 C381 1.463 . S
C384 N388 1.427 . S
C385 H375 0.929 . S
C385 C383 1.433 . S
C385 N388 1.384 . S
C386 H377 0.929 . S
C386 C378 1.378 . S
C386 C381 1.350 . S
C387 H374 0.929 . S
C387 C379 1.433 . S
C387 N389 1.384 . S
N388 C384 1.427 . S
N388 C385 1.384 . S
N389 C381 1.427 . S
N389 C387 1.384 . S
H390 C396 0.930 . S
H391 C400 0.930 . S
H392 C405 0.929 . S
H393 C403 0.929 . S
H394 C398 0.929 . S
H395 C404 0.929 . S
C396 H390 0.930 . S
C396 C397 1.367 . S
C396 C404 1.378 . S
C397 C396 1.367 . S
C397 C405 1.433 . S
C398 H394 0.929 . S
C398 C400 1.378 . S
C398 C402 1.350 . S
C399 C402 1.463 . S
C399 C404 1.350 . S
C399 N407 1.427 . S
C400 H391 0.930 . S
C400 C398 1.378 . S
C400 C401 1.367 . S
C401 C400 1.367 . S
C401 C403 1.433 . S
C402 C398 1.350 . S
C402 C399 1.463 . S
C402 N406 1.427 . S
C403 H393 0.929 . S
C403 C401 1.433 . S
C403 N406 1.384 . S
C404 H395 0.929 . S
C404 C396 1.378 . S
C404 C399 1.350 . S
C405 H392 0.929 . S
C405 C397 1.433 . S
C405 N407 1.384 . S
N406 C402 1.427 . S
N406 C403 1.384 . S
N407 C399 1.427 . S
N407 C405 1.384 . S
H408 C414 0.930 . S
H409 C418 0.930 . S
H410 C423 0.929 . S
H411 C421 0.937 . S
H412 C416 0.929 . S
H413 C422 0.929 1_554 S
C414 H408 0.930 . S
C414 C415 1.355 1_565 S
C414 C422 1.378 1_554 S
C415 C414 1.355 1_545 S
C415 C423 1.447 1_554 S
C416 H412 0.929 . S
C416 C418 1.378 . S
C416 C420 1.350 . S
C417 C420 1.463 . S
C417 C422 1.350 1_545 S
C417 N425 1.427 . S
C418 H409 0.930 . S
C418 C416 1.378 . S
C418 C419 1.367 . S
C419 C418 1.367 . S
C419 C421 1.433 . S
C420 C416 1.350 . S
C420 C417 1.463 . S
C420 N424 1.427 . S
C421 H411 0.937 . S
C421 C419 1.433 . S
C421 N424 1.384 . S
C422 H413 0.929 1_556 S
C422 C414 1.378 1_556 S
C422 C417 1.350 1_565 S
C423 H410 0.929 . S
C423 C415 1.447 1_556 S
C423 N425 1.384 . S
N424 C420 1.427 . S
N424 C421 1.384 . S
N425 C417 1.427 . S
N425 C423 1.384 . S
H426 C432 0.930 . S
H427 C436 0.930 . S
H428 C441 0.929 . S
H429 C439 0.929 . S
H430 C434 0.929 . S
H431 C440 0.929 1_554 S
C432 H426 0.930 . S
C432 C433 1.365 1_554 S
C432 C440 1.378 1_554 S
C433 C432 1.365 1_556 S
C433 C441 1.436 . S
C434 H430 0.929 . S
C434 C436 1.378 . S
C434 C438 1.350 . S
C435 C438 1.463 . S
C435 C440 1.350 . S
C435 N443 1.427 . S
C436 H427 0.930 . S
C436 C434 1.378 . S
C436 C437 1.367 . S
C437 C436 1.367 . S
C437 C439 1.433 . S
C438 C434 1.350 . S
C438 C435 1.463 . S
C438 N442 1.427 . S
C439 H429 0.929 . S
C439 C437 1.433 . S
C439 N442 1.384 . S
C440 H431 0.929 1_556 S
C440 C432 1.378 1_556 S
C440 C435 1.350 . S
C441 H428 0.929 . S
C441 C433 1.436 . S
C441 N443 1.384 . S
N442 C438 1.427 . S
N442 C439 1.384 . S
N443 C435 1.427 . S
N443 C441 1.384 . S
H444 C450 0.930 . S
H445 C454 0.930 . S
H446 C459 0.929 . S
H447 C457 0.929 . S
H448 C452 0.929 . S
H449 C458 0.929 . S
C450 H444 0.930 . S
C450 C451 1.367 . S
C450 C458 1.378 . S
C451 C450 1.367 . S
C451 C459 1.433 1_556 S
C452 H448 0.929 . S
C452 C454 1.378 . S
C452 C456 1.350 . S
C453 C456 1.463 . S
C453 C458 1.350 . S
C453 N461 1.427 . S
C454 H445 0.930 . S
C454 C452 1.378 . S
C454 C455 1.367 . S
C455 C454 1.367 . S
C455 C457 1.433 . S
C456 C452 1.350 . S
C456 C453 1.463 . S
C456 N460 1.427 . S
C457 H447 0.929 . S
C457 C455 1.433 . S
C457 N460 1.384 . S
C458 H449 0.929 . S
C458 C450 1.378 . S
C458 C453 1.350 . S
C459 H446 0.929 . S
C459 C451 1.433 1_554 S
C459 N461 1.384 1_554 S
N460 C456 1.427 . S
N460 C457 1.384 . S
N461 C453 1.427 . S
N461 C459 1.384 1_556 S
H462 C468 0.930 . S
H463 C472 0.930 . S
H464 C477 0.929 . S
H465 C475 0.929 . S
H466 C470 0.929 . S
H467 C476 0.929 . S
C468 H462 0.930 . S
C468 C469 1.367 . S
C468 C476 1.378 . S
C469 C468 1.367 . S
C469 C477 1.433 . S
C470 H466 0.929 . S
C470 C472 1.378 . S
C470 C474 1.350 . S
C471 C474 1.463 . S
C471 C476 1.350 . S
C471 N479 1.427 . S
C472 H463 0.930 . S
C472 C470 1.378 . S
C472 C473 1.367 . S
C473 C472 1.367 . S
C473 C475 1.433 . S
C474 C470 1.350 . S
C474 C471 1.463 . S
C474 N478 1.427 . S
C475 H465 0.929 . S
C475 C473 1.433 . S
C475 N478 1.384 . S
C476 H467 0.929 . S
C476 C468 1.378 . S
C476 C471 1.350 . S
C477 H464 0.929 . S
C477 C469 1.433 . S
C477 N479 1.384 . S
N478 C474 1.427 . S
N478 C475 1.384 . S
N479 C471 1.427 . S
N479 C477 1.384 . S
H480 C486 0.930 . S
H481 C490 0.930 . S
H482 C495 0.929 . S
H483 C493 0.929 . S
H484 C488 0.929 . S
H485 C494 0.929 . S
C486 H480 0.930 . S
C486 C487 1.367 . S
C486 C494 1.378 . S
C487 C486 1.367 . S
C487 C495 1.433 . S
C488 H484 0.929 . S
C488 C490 1.378 . S
C488 C492 1.350 . S
C489 C492 1.463 . S
C489 C494 1.350 . S
C489 N497 1.427 . S
C490 H481 0.930 . S
C490 C488 1.378 . S
C490 C491 1.367 . S
C491 C490 1.367 . S
C491 C493 1.433 . S
C492 C488 1.350 . S
C492 C489 1.463 . S
C492 N496 1.427 . S
C493 H483 0.929 . S
C493 C491 1.433 . S
C493 N496 1.384 . S
C494 H485 0.929 . S
C494 C486 1.378 . S
C494 C489 1.350 . S
C495 H482 0.929 . S
C495 C487 1.433 . S
C495 N497 1.384 . S
N496 C492 1.427 . S
N496 C493 1.384 . S
N497 C489 1.427 . S
N497 C495 1.384 . S
H498 C504 0.930 . S
H499 C508 0.930 . S
H500 C513 0.929 . S
H501 C511 0.929 . S
H502 C506 0.929 . S
H503 C512 0.929 . S
C504 H498 0.930 . S
C504 C505 1.367 1_565 S
C504 C512 1.378 . S
C505 C504 1.367 1_545 S
C505 C513 1.433 . S
C506 H502 0.929 . S
C506 C508 1.378 . S
C506 C510 1.350 . S
C507 C510 1.463 . S
C507 C512 1.350 1_545 S
C507 N515 1.427 . S
C508 H499 0.930 . S
C508 C506 1.378 . S
C508 C509 1.367 . S
C509 C508 1.367 . S
C509 C511 1.433 1_545 S
C510 C506 1.350 . S
C510 C507 1.463 . S
C510 N514 1.427 1_545 S
C511 H501 0.929 . S
C511 C509 1.433 1_565 S
C511 N514 1.384 . S
C512 H503 0.929 . S
C512 C504 1.378 . S
C512 C507 1.350 1_565 S
C513 H500 0.929 . S
C513 C505 1.433 . S
C513 N515 1.384 . S
N514 C510 1.427 1_565 S
N514 C511 1.384 . S
N515 C507 1.427 . S
N515 C513 1.384 . S
H516 C522 0.930 . S
H517 C526 0.930 . S
H518 C531 0.929 . S
H519 C529 0.929 . S
H520 C524 0.929 . S
H521 C530 0.929 . S
C522 H516 0.930 . S
C522 C523 1.367 . S
C522 C530 1.378 . S
C523 C522 1.367 . S
C523 C531 1.433 . S
C524 H520 0.929 . S
C524 C526 1.378 . S
C524 C528 1.350 . S
C525 C528 1.463 . S
C525 C530 1.350 . S
C525 N533 1.427 . S
C526 H517 0.930 . S
C526 C524 1.378 . S
C526 C527 1.367 . S
C527 C526 1.367 . S
C527 C529 1.433 . S
C528 C524 1.350 . S
C528 C525 1.463 . S
C528 N532 1.427 . S
C529 H519 0.929 . S
C529 C527 1.433 . S
C529 N532 1.384 . S
C530 H521 0.929 . S
C530 C522 1.378 . S
C530 C525 1.350 . S
C531 H518 0.929 . S
C531 C523 1.433 . S
C531 N533 1.384 . S
N532 C528 1.427 . S
N532 C529 1.384 . S
N533 C525 1.427 . S
N533 C531 1.384 . S
H534 C540 0.930 . S
H535 C544 0.930 . S
H536 C549 0.929 . S
H537 C547 0.929 . S
H538 C542 0.929 . S
H539 C548 0.929 . S
C540 H534 0.930 . S
C540 C541 1.367 . S
C540 C548 1.378 . S
C541 C540 1.367 . S
C541 C549 1.433 . S
C542 H538 0.929 . S
C542 C544 1.378 . S
C542 C546 1.350 . S
C543 C546 1.463 . S
C543 C548 1.350 . S
C543 N551 1.427 . S
C544 H535 0.930 . S
C544 C542 1.378 . S
C544 C545 1.367 . S
C545 C544 1.367 . S
C545 C547 1.433 . S
C546 C542 1.350 . S
C546 C543 1.463 . S
C546 N550 1.427 . S
C547 H537 0.929 . S
C547 C545 1.433 . S
C547 N550 1.384 . S
C548 H539 0.929 . S
C548 C540 1.378 . S
C548 C543 1.350 . S
C549 H536 0.929 . S
C549 C541 1.433 . S
C549 N551 1.384 . S
N550 C546 1.427 . S
N550 C547 1.384 . S
N551 C543 1.427 . S
N551 C549 1.384 . S
H552 C558 0.930 . S
H553 C562 0.930 . S
H554 C567 0.929 . S
H555 C565 0.929 1_455 S
H556 C560 0.929 . S
H557 C566 0.929 . S
C558 H552 0.930 . S
C558 C559 1.367 . S
C558 C566 1.378 . S
C559 C558 1.367 . S
C559 C567 1.433 . S
C560 H556 0.929 . S
C560 C562 1.378 . S
C560 C564 1.350 . S
C561 C564 1.463 . S
C561 C566 1.350 . S
C561 N569 1.427 . S
C562 H553 0.930 . S
C562 C560 1.378 . S
C562 C563 1.367 . S
C563 C562 1.367 . S
C563 C565 1.433 . S
C564 C560 1.350 . S
C564 C561 1.463 . S
C564 N568 1.427 . S
C565 H555 0.929 1_655 S
C565 C563 1.433 . S
C565 N568 1.384 . S
C566 H557 0.929 . S
C566 C558 1.378 . S
C566 C561 1.350 . S
C567 H554 0.929 . S
C567 C559 1.433 . S
C567 N569 1.384 . S
N568 C564 1.427 . S
N568 C565 1.384 . S
N569 C561 1.427 . S
N569 C567 1.384 . S
H570 C576 0.930 . S
H571 C580 0.930 . S
H572 C585 0.929 . S
H573 C583 0.929 . S
H574 C578 0.929 . S
H575 C584 0.929 . S
C576 H570 0.930 . S
C576 C577 1.386 . S
C576 C584 1.378 . S
C577 C576 1.386 . S
C577 C585 1.417 1_545 S
C578 H574 0.929 . S
C578 C580 1.378 . S
C578 C582 1.350 1_565 S
C579 C582 1.463 . S
C579 C584 1.350 . S
C579 N587 1.427 1_545 S
C580 H571 0.930 . S
C580 C578 1.378 . S
C580 C581 1.367 1_565 S
C581 C580 1.367 1_545 S
C581 C583 1.433 . S
C582 C578 1.350 1_545 S
C582 C579 1.463 . S
C582 N586 1.427 . S
C583 H573 0.929 . S
C583 C581 1.433 . S
C583 N586 1.384 . S
C584 H575 0.929 . S
C584 C576 1.378 . S
C584 C579 1.350 . S
C585 H572 0.929 . S
C585 C577 1.417 1_565 S
C585 N587 1.384 . S
N586 C582 1.427 . S
N586 C583 1.384 . S
N587 C579 1.427 1_565 S
N587 C585 1.384 . S
H588 C594 0.930 . S
H589 C598 0.930 . S
H590 C603 0.929 . S
H591 C601 0.929 . S
H592 C596 0.929 . S
H593 C602 0.929 . S
C594 H588 0.930 . S
C594 C595 1.367 . S
C594 C602 1.378 . S
C595 C594 1.367 . S
C595 C603 1.433 . S
C596 H592 0.929 . S
C596 C598 1.378 . S
C596 C600 1.350 . S
C597 C600 1.463 . S
C597 C602 1.350 . S
C597 N605 1.427 . S
C598 H589 0.930 . S
C598 C596 1.378 . S
C598 C599 1.367 . S
C599 C598 1.367 . S
C599 C601 1.433 . S
C600 C596 1.350 . S
C600 C597 1.463 . S
C600 N604 1.427 . S
C601 H591 0.929 . S
C601 C599 1.433 . S
C601 N604 1.384 . S
C602 H593 0.929 . S
C602 C594 1.378 . S
C602 C597 1.350 . S
C603 H590 0.929 . S
C603 C595 1.433 . S
C603 N605 1.384 . S
N604 C600 1.427 . S
N604 C601 1.384 . S
N605 C597 1.427 . S
N605 C603 1.384 . S
H606 C612 0.930 . S
H607 C616 0.930 . S
H608 C621 0.929 . S
H609 C619 0.929 . S
H610 C614 0.929 . S
H611 C620 0.929 . S
C612 H606 0.930 . S
C612 C613 1.367 . S
C612 C620 1.378 . S
C613 C612 1.367 . S
C613 C621 1.433 . S
C614 H610 0.929 . S
C614 C616 1.378 . S
C614 C618 1.350 . S
C615 C618 1.463 . S
C615 C620 1.350 . S
C615 N623 1.427 . S
C616 H607 0.930 . S
C616 C614 1.378 . S
C616 C617 1.367 . S
C617 C616 1.367 . S
C617 C619 1.433 . S
C618 C614 1.350 . S
C618 C615 1.463 . S
C618 N622 1.427 . S
C619 H609 0.929 . S
C619 C617 1.433 . S
C619 N622 1.384 . S
C620 H611 0.929 . S
C620 C612 1.378 . S
C620 C615 1.350 . S
C621 H608 0.929 . S
C621 C613 1.433 . S
C621 N623 1.384 . S
N622 C618 1.427 . S
N622 C619 1.384 . S
N623 C615 1.427 . S
N623 C621 1.384 . S
H624 C630 0.930 . S
H625 C634 0.930 . S
H626 C639 0.929 . S
H627 C637 0.929 . S
H628 C632 0.929 . S
H629 C638 0.929 . S
C630 H624 0.930 . S
C630 C631 1.367 . S
C630 C638 1.378 . S
C631 C630 1.367 . S
C631 C639 1.433 . S
C632 H628 0.929 . S
C632 C634 1.378 . S
C632 C636 1.350 . S
C633 C636 1.463 1_554 S
C633 C638 1.350 . S
C633 N641 1.427 1_554 S
C634 H625 0.930 . S
C634 C632 1.378 . S
C634 C635 1.367 . S
C635 C634 1.367 . S
C635 C637 1.433 . S
C636 C632 1.350 . S
C636 C633 1.463 1_556 S
C636 N640 1.427 . S
C637 H627 0.929 . S
C637 C635 1.433 . S
C637 N640 1.384 . S
C638 H629 0.929 . S
C638 C630 1.378 . S
C638 C633 1.350 . S
C639 H626 0.929 . S
C639 C631 1.433 . S
C639 N641 1.384 1_554 S
N640 C636 1.427 . S
N640 C637 1.384 . S
N641 C633 1.427 1_556 S
N641 C639 1.384 1_556 S
H642 C648 0.930 . S
H643 C652 0.930 . S
H644 C657 0.929 . S
H645 C655 0.929 . S
H646 C650 0.929 . S
H647 C656 0.929 . S
C648 H642 0.930 . S
C648 C649 1.367 1_565 S
C648 C656 1.378 1_554 S
C649 C648 1.367 1_545 S
C649 C657 1.433 . S
C650 H646 0.929 . S
C650 C652 1.378 . S
C650 C654 1.350 . S
C651 C654 1.463 . S
C651 C656 1.350 1_545 S
C651 N659 1.427 . S
C652 H643 0.930 . S
C652 C650 1.378 . S
C652 C653 1.367 . S
C653 C652 1.367 . S
C653 C655 1.433 1_545 S
C654 C650 1.350 . S
C654 C651 1.463 . S
C654 N658 1.427 1_545 S
C655 H645 0.929 . S
C655 C653 1.433 1_565 S
C655 N658 1.384 . S
C656 H647 0.929 . S
C656 C648 1.378 1_556 S
C656 C651 1.350 1_565 S
C657 H644 0.929 . S
C657 C649 1.433 . S
C657 N659 1.384 1_554 S
N658 C654 1.427 1_565 S
N658 C655 1.384 . S
N659 C651 1.427 . S
N659 C657 1.384 1_556 S
H660 C666 0.930 . S
H661 C670 0.930 . S
H662 C675 0.929 . S
H663 C673 0.929 . S
H664 C668 0.929 . S
H665 C674 0.929 . S
C666 H660 0.930 . S
C666 C667 1.367 . S
C666 C674 1.378 1_554 S
C667 C666 1.367 . S
C667 C675 1.433 . S
C668 H664 0.929 . S
C668 C670 1.378 . S
C668 C672 1.350 . S
C669 C672 1.463 . S
C669 C674 1.350 . S
C669 N677 1.427 1_556 S
C670 H661 0.930 . S
C670 C668 1.378 . S
C670 C671 1.367 . S
C671 C670 1.367 . S
C671 C673 1.433 . S
C672 C668 1.350 . S
C672 C669 1.463 . S
C672 N676 1.427 . S
C673 H663 0.929 . S
C673 C671 1.433 . S
C673 N676 1.384 . S
C674 H665 0.929 . S
C674 C666 1.378 1_556 S
C674 C669 1.350 . S
C675 H662 0.929 . S
C675 C667 1.433 . S
C675 N677 1.384 . S
N676 C672 1.427 . S
N676 C673 1.384 . S
N677 C669 1.427 1_554 S
N677 C675 1.384 . S
H678 C684 0.930 . S
H679 C688 0.930 . S
H680 C693 0.929 . S
H681 C691 0.929 . S
H682 C686 0.929 . S
H683 C692 0.929 . S
C684 H678 0.930 . S
C684 C685 1.367 . S
C684 C692 1.378 1_554 S
C685 C684 1.367 . S
C685 C693 1.433 . S
C686 H682 0.929 . S
C686 C688 1.378 . S
C686 C690 1.350 . S
C687 C690 1.463 . S
C687 C692 1.350 . S
C687 N695 1.427 1_556 S
C688 H679 0.930 . S
C688 C686 1.378 . S
C688 C689 1.367 . S
C689 C688 1.367 . S
C689 C691 1.433 . S
C690 C686 1.350 . S
C690 C687 1.463 . S
C690 N694 1.427 . S
C691 H681 0.929 . S
C691 C689 1.433 . S
C691 N694 1.384 . S
C692 H683 0.929 . S
C692 C684 1.378 1_556 S
C692 C687 1.350 . S
C693 H680 0.929 . S
C693 C685 1.433 . S
C693 N695 1.384 . S
N694 C690 1.427 . S
N694 C691 1.384 . S
N695 C687 1.427 1_554 S
N695 C693 1.384 . S
H696 C702 0.930 . S
H697 C706 0.930 . S
H698 C711 0.929 . S
H699 C709 0.929 . S
H700 C704 0.929 . S
H701 C710 0.929 . S
C702 H696 0.930 . S
C702 C703 1.367 . S
C702 C710 1.378 . S
C703 C702 1.367 . S
C703 C711 1.433 . S
C704 H700 0.929 . S
C704 C706 1.378 . S
C704 C708 1.350 . S
C705 C708 1.463 . S
C705 C710 1.350 . S
C705 N713 1.427 . S
C706 H697 0.930 . S
C706 C704 1.378 . S
C706 C707 1.367 . S
C707 C706 1.367 . S
C707 C709 1.433 . S
C708 C704 1.350 . S
C708 C705 1.463 . S
C708 N712 1.427 . S
C709 H699 0.929 . S
C709 C707 1.433 . S
C709 N712 1.384 . S
C710 H701 0.929 . S
C710 C702 1.378 . S
C710 C705 1.350 . S
C711 H698 0.929 . S
C711 C703 1.433 . S
C711 N713 1.384 . S
N712 C708 1.427 . S
N712 C709 1.384 . S
N713 C705 1.427 . S
N713 C711 1.384 . S
H714 C720 0.930 . S
H715 C724 0.930 . S
H716 C729 0.929 . S
H717 C727 0.929 . S
H718 C722 0.929 . S
H719 C728 0.929 . S
C720 H714 0.930 . S
C720 C721 1.397 . S
C720 C728 1.378 . S
C721 C720 1.397 . S
C721 C729 1.407 1_545 S
C722 H718 0.929 . S
C722 C724 1.378 . S
C722 C726 1.350 1_565 S
C723 C726 1.463 . S
C723 C728 1.350 . S
C723 N731 1.427 1_545 S
C724 H715 0.930 . S
C724 C722 1.378 . S
C724 C725 1.367 1_565 S
C725 C724 1.367 1_545 S
C725 C727 1.433 . S
C726 C722 1.350 1_545 S
C726 C723 1.463 . S
C726 N730 1.427 . S
C727 H717 0.929 . S
C727 C725 1.433 . S
C727 N730 1.384 . S
C728 H719 0.929 . S
C728 C720 1.378 . S
C728 C723 1.350 . S
C729 H716 0.929 . S
C729 C721 1.407 1_565 S
C729 N731 1.384 . S
N730 C726 1.427 . S
N730 C727 1.384 . S
N731 C723 1.427 1_565 S
N731 C729 1.384 . S
H732 C738 0.930 . S
H733 C742 0.930 . S
H734 C747 0.929 . S
H735 C745 0.929 . S
H736 C740 0.929 . S
H737 C746 0.929 . S
C738 H732 0.930 . S
C738 C739 1.367 . S
C738 C746 1.378 . S
C739 C738 1.367 . S
C739 C747 1.433 . S
C740 H736 0.929 . S
C740 C742 1.378 . S
C740 C744 1.350 . S
C741 C744 1.463 . S
C741 C746 1.350 . S
C741 N749 1.427 . S
C742 H733 0.930 . S
C742 C740 1.378 . S
C742 C743 1.367 . S
C743 C742 1.367 . S
C743 C745 1.433 . S
C744 C740 1.350 . S
C744 C741 1.463 . S
C744 N748 1.427 . S
C745 H735 0.929 . S
C745 C743 1.433 . S
C745 N748 1.384 . S
C746 H737 0.929 . S
C746 C738 1.378 . S
C746 C741 1.350 . S
C747 H734 0.929 . S
C747 C739 1.433 . S
C747 N749 1.384 . S
N748 C744 1.427 . S
N748 C745 1.384 . S
N749 C741 1.427 . S
N749 C747 1.384 . S
H750 C756 0.930 . S
H751 C760 0.930 . S
H752 C765 0.929 . S
H753 C763 0.929 . S
H754 C758 0.929 . S
H755 C764 0.929 . S
C756 H750 0.930 . S
C756 C757 1.367 . S
C756 C764 1.378 . S
C757 C756 1.367 . S
C757 C765 1.433 . S
C758 H754 0.929 . S
C758 C760 1.378 . S
C758 C762 1.350 . S
C759 C762 1.463 . S
C759 C764 1.350 . S
C759 N767 1.427 . S
C760 H751 0.930 . S
C760 C758 1.378 . S
C760 C761 1.367 . S
C761 C760 1.367 . S
C761 C763 1.433 . S
C762 C758 1.350 . S
C762 C759 1.463 . S
C762 N766 1.427 . S
C763 H753 0.929 . S
C763 C761 1.433 . S
C763 N766 1.384 . S
C764 H755 0.929 . S
C764 C756 1.378 . S
C764 C759 1.350 . S
C765 H752 0.929 . S
C765 C757 1.433 . S
C765 N767 1.384 . S
N766 C762 1.427 . S
N766 C763 1.384 . S
N767 C759 1.427 . S
N767 C765 1.384 . S
C343 C215 1.476 . S
C347 C257 1.500 . S
C365 C292 2.032 . S
C361 C247 2.001 . S
C383 C297 1.336 . S
C379 C151 1.285 . S
C401 C317 1.786 . S
C397 C183 1.769 . S
C419 C265 1.507 . S
C415 C87 1.476 . S
C433 C119 1.784 1_556 S
C437 C282 2.032 . S
C451 C23 1.341 1_556 S
C455 C305 1.339 . S
C469 C55 1.595 . S
C473 C325 1.787 . S
C491 C275 1.359 . S
C487 C189 1.340 . S
C509 C284 0.726 1_545 S
C505 C221 0.735 . S
C527 C315 1.501 . S
C523 C253 1.488 . S
C541 C157 0.854 . S
C545 C335 0.857 . S
C559 C61 1.144 . S
C563 C264 1.355 . S
C581 C295 0.736 . S
C577 C93 0.718 . S
C599 C304 1.499 . S
C595 C125 1.245 . S
C613 C29 0.879 . S
C617 C324 0.863 . S
C631 C177 1.922 . S
C635 C262 1.960 . S
C649 C209 1.592 . S
C653 C285 1.696 . S
C671 C302 2.077 . S
C667 C241 2.018 . S
C689 C322 1.855 . S
C685 C145 1.739 . S
C703 C49 1.775 . S
C707 C272 1.961 . S
C725 C277 1.697 . S
C721 C81 1.576 . S
C743 C312 2.079 . S
C739 C113 1.848 . S
C757 C17 1.798 . S
C761 C332 1.856 . S
