# Generated by pormake.
# Topology zzz, (3,6)-cn, num edge types: 1
# Building blocks:
#     Node 0, Type 0, BuildingBlock: BETDAH_clean_linker_0, # of connection points: 3
#     Node 1, Type 0, BuildingBlock: BETDAH_clean_linker_0, # of connection points: 3
#     Node 2, Type 0, BuildingBlock: BETDAH_clean_linker_0, # of connection points: 3
#     Node 3, Type 0, BuildingBlock: BETDAH_clean_linker_0, # of connection points: 3
#     Node 4, Type 0, BuildingBlock: BETDAH_clean_linker_0, # of connection points: 3
#     Node 5, Type 0, BuildingBlock: BETDAH_clean_linker_0, # of connection points: 3
#     Node 6, Type 0, BuildingBlock: BETDAH_clean_linker_0, # of connection points: 3
#     Node 7, Type 0, BuildingBlock: BETDAH_clean_linker_0, # of connection points: 3
#     Node 8, Type 1, BuildingBlock: BETGAK_clean_sbu_0, # of connection points: 6
#     Node 9, Type 1, BuildingBlock: BETGAK_clean_sbu_0, # of connection points: 6
#     Node 10, Type 1, BuildingBlock: BETGAK_clean_sbu_0, # of connection points: 6
#     Node 11, Type 1, BuildingBlock: BETGAK_clean_sbu_0, # of connection points: 6
#     Edge 12, Type (0, 1), BuildingBlock: UVAHIK_clean_linker_0, # of connection points: 2
#     Edge 13, Type (0, 1), BuildingBlock: UVAHIK_clean_linker_0, # of connection points: 2
#     Edge 14, Type (0, 1), BuildingBlock: UVAHIK_clean_linker_0, # of connection points: 2
#     Edge 15, Type (0, 1), BuildingBlock: UVAHIK_clean_linker_0, # of connection points: 2
#     Edge 16, Type (0, 1), BuildingBlock: UVAHIK_clean_linker_0, # of connection points: 2
#     Edge 17, Type (0, 1), BuildingBlock: UVAHIK_clean_linker_0, # of connection points: 2
#     Edge 18, Type (0, 1), BuildingBlock: UVAHIK_clean_linker_0, # of connection points: 2
#     Edge 19, Type (0, 1), BuildingBlock: UVAHIK_clean_linker_0, # of connection points: 2
#     Edge 20, Type (0, 1), BuildingBlock: UVAHIK_clean_linker_0, # of connection points: 2
#     Edge 21, Type (0, 1), BuildingBlock: UVAHIK_clean_linker_0, # of connection points: 2
#     Edge 22, Type (0, 1), BuildingBlock: UVAHIK_clean_linker_0, # of connection points: 2
#     Edge 23, Type (0, 1), BuildingBlock: UVAHIK_clean_linker_0, # of connection points: 2
#     Edge 24, Type (0, 1), BuildingBlock: UVAHIK_clean_linker_0, # of connection points: 2
#     Edge 25, Type (0, 1), BuildingBlock: UVAHIK_clean_linker_0, # of connection points: 2
#     Edge 26, Type (0, 1), BuildingBlock: UVAHIK_clean_linker_0, # of connection points: 2
#     Edge 27, Type (0, 1), BuildingBlock: UVAHIK_clean_linker_0, # of connection points: 2
#     Edge 28, Type (0, 1), BuildingBlock: UVAHIK_clean_linker_0, # of connection points: 2
#     Edge 29, Type (0, 1), BuildingBlock: UVAHIK_clean_linker_0, # of connection points: 2
#     Edge 30, Type (0, 1), BuildingBlock: UVAHIK_clean_linker_0, # of connection points: 2
#     Edge 31, Type (0, 1), BuildingBlock: UVAHIK_clean_linker_0, # of connection points: 2
#     Edge 32, Type (0, 1), BuildingBlock: UVAHIK_clean_linker_0, # of connection points: 2
#     Edge 33, Type (0, 1), BuildingBlock: UVAHIK_clean_linker_0, # of connection points: 2
#     Edge 34, Type (0, 1), BuildingBlock: UVAHIK_clean_linker_0, # of connection points: 2
#     Edge 35, Type (0, 1), BuildingBlock: UVAHIK_clean_linker_0, # of connection points: 2
# Relax obj value: 0.235
# Max RMSD: 0.179
# Mean RMSD: 0.160
data_MOF--net-zzz--node1-BETGAK_clean_sbu_0--node2-BETDAH_clean_linker_0--edge1-UVAHIK_clean_linker_0
_symmetry_space_group_name_H-M    P1
_symmetry_Int_Tables_number       1
_symmetry_cell_setting            triclinic
loop_
_symmetry_equiv_pos_as_xyz
'x, y, z'
_cell_length_a     68.488603
_cell_length_b     68.46307
_cell_length_c     17.274664
_cell_angle_alpha  89.989025
_cell_angle_beta   89.997204
_cell_angle_gamma 89.963336
loop_
_atom_site_label
_atom_site_type_symbol
_atom_site_fract_x
_atom_site_fract_y
_atom_site_fract_z
_atom_type_partial_charge
H0 H 0.79198 0.51643 0.23599 0.0
H1 H 0.73067 0.51635 0.18701 0.0
H2 H 0.75099 0.50851 0.42193 0.0
C3 C 0.77702 0.51556 0.25644 0.0
C4 C 0.77345 0.51225 0.33513 0.0
C5 C 0.76165 0.5172 0.20334 0.0
C6 C 0.74237 0.51541 0.22895 0.0
C7 C 0.73831 0.51252 0.3081 0.0
C8 C 0.75397 0.51106 0.36117 0.0
N9 N 0.71873 0.51075 0.33531 0.0
C10 C 0.70235 0.51151 0.28711 0.0
H11 H 0.0316 0.78928 0.26703 0.0
H12 H 0.01915 0.73146 0.18472 0.0
H13 H 0.99166 0.75286 0.393 0.0
C14 C 0.02449 0.77527 0.27492 0.0
C15 C 0.01178 0.77279 0.33771 0.0
C16 C 0.02716 0.76052 0.21943 0.0
C17 C 0.01712 0.74279 0.22771 0.0
C18 C 1.00439 0.73983 0.29071 0.0
C19 C 1.00162 0.75499 0.34503 0.0
N20 N 0.99403 0.72193 0.30029 0.0
C21 C 0.99547 0.70601 0.25003 0.0
H22 H 0.72166 0.0154 0.24038 0.0
H23 H 0.78286 0.00907 0.19603 0.0
H24 H 0.75882 0.99061 0.41553 0.0
C25 C 0.73606 0.0111 0.26028 0.0
C26 C 0.73814 1.00268 0.33374 0.0
C27 C 0.75213 0.0135 0.21102 0.0
C28 C 0.77063 1.0074 0.23522 0.0
C29 C 0.77327 0.99931 0.30948 0.0
C30 C 0.75695 0.99714 0.35888 0.0
N31 N 0.79203 0.99293 0.33491 0.0
C32 C 0.80866 0.99325 0.28805 0.0
H33 H 0.50301 0.72276 0.2474 0.0
H34 H 0.504 0.78327 0.18389 0.0
H35 H 0.51599 0.76607 0.4199 0.0
C36 C 0.50519 0.73794 0.26336 0.0
C37 C 0.50967 0.7426 0.34006 0.0
C38 C 0.50317 0.75255 0.2072 0.0
C39 C 0.50562 0.77216 0.22789 0.0
C40 C 0.51043 0.77724 0.30462 0.0
C41 C 0.51241 0.76231 0.36066 0.0
N42 N 0.51333 0.79709 0.32687 0.0
C43 C 0.51212 0.81296 0.27617 0.0
H44 H 0.22164 0.51864 0.16478 0.0
H45 H 0.28212 0.51203 0.22225 0.0
H46 H 0.26169 0.49714 0.99282 0.0
C47 C 0.23633 0.5146 0.1474 0.0
C48 C 0.23973 0.508 0.0719 0.0
C49 C 0.25152 0.51593 0.2013 0.0
C50 C 0.27053 0.51083 0.17988 0.0
C51 C 0.27436 0.50391 0.10451 0.0
C52 C 0.25883 0.50238 0.0509 0.0
N53 N 0.29357 0.49844 0.08132 0.0
C54 C 0.30983 0.4992 0.13005 0.0
H55 H 0.98946 0.22174 0.17524 0.0
H56 H 1.00152 0.28165 0.22881 0.0
H57 H 0.01441 0.259 1.00109 0.0
C58 C 0.9943 0.23608 0.15669 0.0
C59 C 1.00145 0.23845 0.08122 0.0
C60 C 0.99436 0.25153 0.21003 0.0
C61 C 1.00149 0.26981 0.18727 0.0
C62 C 0.0086 0.27271 0.11161 0.0
C63 C 0.00877 0.25688 0.05909 0.0
N64 N 0.01576 0.29129 0.08739 0.0
C65 C 0.01595 0.30782 0.13481 0.0
H66 H 0.29175 0.99123 0.17505 0.0
H67 H 0.23084 0.99404 0.23051 0.0
H68 H 0.25294 0.02355 0.02705 0.0
C69 C 0.27718 0.99635 0.16091 0.0
C70 C 0.27436 0.008 0.09536 0.0
C71 C 0.26156 0.99123 0.20891 0.0
C72 C 0.24274 0.99792 0.19215 0.0
C73 C 0.23947 0.0097 0.12638 0.0
C74 C 0.25534 0.01443 0.07743 0.0
N75 N 0.22056 0.0172 0.10896 0.0
C76 C 0.20448 0.01558 0.15832 0.0
H77 H 0.51149 0.29777 0.18771 0.0
H78 H 0.51332 0.23657 0.2387 0.0
H79 H 0.49612 0.25629 0.01095 0.0
C80 C 0.50918 0.2828 0.16921 0.0
C81 C 0.50317 0.27905 0.09313 0.0
C82 C 0.51286 0.2676 0.22142 0.0
C83 C 0.51043 0.2482 0.19778 0.0
C84 C 0.50413 0.24398 0.1219 0.0
C85 C 0.50088 0.25948 0.0694 0.0
N86 N 0.50079 0.2244 0.09727 0.0
C87 C 0.5011 0.20831 0.14692 0.0
La88 La 0.01568 0.99825 0.79015 0.0
La89 La 0.99585 0.01043 0.64928 0.0
C90 C 0.02643 0.97931 0.90725 0.0
C91 C 0.03296 0.95876 0.91307 0.0
C92 C 0.05293 0.95441 0.92117 0.0
C93 C 0.0596 0.93517 0.91418 0.0
C94 C 0.0464 0.91996 0.89874 0.0
C95 C 0.02637 0.9242 0.89442 0.0
C96 C 0.0197 0.94335 0.9018 0.0
C97 C 0.0396 0.00939 0.67856 0.0
C98 C 1.00295 0.96617 0.66182 0.0
C99 C 0.98649 0.03011 0.53257 0.0
C100 C 0.98695 0.05159 0.52364 0.0
C101 C 0.96975 0.06253 0.53304 0.0
C102 C 0.97054 0.08285 0.53988 0.0
C103 C 0.98855 0.09265 0.53689 0.0
C104 C 1.00563 0.08179 0.5233 0.0
C105 C 1.00485 0.0615 0.51668 0.0
C106 C 0.97204 0.99908 0.76084 0.0
C107 C 0.00821 0.04231 0.7766 0.0
O108 O 0.038 0.99087 0.86827 0.0
O109 O 0.00807 0.98217 0.88918 0.0
O110 O 0.04218 0.013 0.75133 0.0
O111 O 0.02437 0.99923 0.67067 0.0
O112 O 0.00818 0.97011 0.73415 0.0
O113 O 0.9991 0.98035 0.61235 0.0
O114 O 0.97378 0.02349 0.58258 0.0
O115 O 1.00342 0.02139 0.53984 0.0
O116 O 0.96942 0.99544 0.68792 0.0
O117 O 0.98718 0.00938 0.76874 0.0
O118 O 1.00518 0.03826 0.7026 0.0
O119 O 0.01009 0.02805 0.82754 0.0
H120 H 0.06347 0.96598 0.93017 0.0
H121 H 0.07511 0.93227 0.91846 0.0
H122 H 0.01581 0.91268 0.88462 0.0
H123 H 1.0042 0.9461 0.89587 0.0
H124 H 0.95573 0.05532 0.53819 0.0
H125 H 0.95706 0.09085 0.5483 0.0
H126 H 0.01976 0.08887 0.52105 0.0
H127 H 0.01842 0.05358 0.50957 0.0
La128 La 0.51214 0.01983 0.77848 0.0
La129 La 0.49764 1.00065 0.62706 0.0
C130 C 0.53265 0.02902 0.89298 0.0
C131 C 0.55416 0.0305 0.89793 0.0
C132 C 0.5633 0.04872 0.88827 0.0
C133 C 0.5835 0.04993 0.87897 0.0
C134 C 0.59507 0.03296 0.88001 0.0
C135 C 0.58603 0.01484 0.89357 0.0
C136 C 0.56581 0.01362 0.90239 0.0
C137 C 0.50013 0.0437 0.66845 0.0
C138 C 0.54292 1.00602 0.6472 0.0
C139 C 0.48026 0.99666 0.50083 0.0
C140 C 0.46115 0.98748 0.48557 0.0
C141 C 0.45967 0.97152 0.43484 0.0
C142 C 0.44205 0.96129 0.4279 0.0
C143 C 0.42577 0.96672 0.47259 0.0
C144 C 0.42716 0.98295 0.52178 0.0
C145 C 0.44459 0.9933 0.52778 0.0
C146 C 0.50141 0.97362 0.73722 0.0
C147 C 0.46778 0.01092 0.76621 0.0
O148 O 0.52423 0.04186 0.84782 0.0
O149 O 0.52541 0.01149 0.88294 0.0
O150 O 0.49729 0.0465 0.74187 0.0
O151 O 0.50984 0.02819 0.6592 0.0
O152 O 0.5395 0.01246 0.71841 0.0
O153 O 0.52865 1.00152 0.59853 0.0
O154 O 0.49406 0.9847 0.5241 0.0
O155 O 0.47987 0.01291 0.5413 0.0
O156 O 0.49583 0.97009 0.66702 0.0
O157 O 0.50465 0.99168 0.74072 0.0
O158 O 0.47062 1.00775 0.69101 0.0
O159 O 0.48244 0.01386 0.81498 0.0
H160 H 0.55473 0.062 0.88468 0.0
H161 H 0.58997 0.06411 0.86843 0.0
H162 H 0.59457 1.00155 0.89673 0.0
H163 H 0.55929 0.99934 0.9102 0.0
H164 H 0.47226 0.96671 0.40196 0.0
H165 H 0.44125 0.9489 0.38903 0.0
H166 H 0.41469 0.98776 0.55538 0.0
H167 H 0.44512 1.00566 0.56674 0.0
La168 La 0.49635 0.51474 0.7688 0.0
La169 La 0.51852 0.50375 0.63413 0.0
C170 C 0.48301 0.53272 0.88434 0.0
C171 C 0.47857 0.55367 0.89409 0.0
C172 C 0.4593 0.55967 0.90884 0.0
C173 C 0.45425 0.57946 0.90496 0.0
C174 C 0.46839 0.59345 0.88541 0.0
C175 C 0.4878 0.58754 0.8744 0.0
C176 C 0.49288 0.56786 0.879 0.0
C177 C 0.47441 0.5031 0.65162 0.0
C178 C 0.50927 0.54737 0.64564 0.0
C179 C 0.53207 0.48576 0.51938 0.0
C180 C 0.54162 0.46656 0.51734 0.0
C181 C 0.55139 0.4595 0.5832 0.0
C182 C 0.55814 0.44027 0.58565 0.0
C183 C 0.5551 0.42769 0.52256 0.0
C184 C 0.54583 0.43505 0.45577 0.0
C185 C 0.53915 0.45433 0.45326 0.0
C186 C 0.5405 0.51467 0.75284 0.0
C187 C 0.50546 0.47079 0.75701 0.0
O188 O 0.47205 0.5237 0.83396 0.0
O189 O 0.50144 0.52797 0.87669 0.0
O190 O 0.47135 0.49877 0.72348 0.0
O191 O 0.48926 0.51398 0.64705 0.0
O192 O 0.5053 0.54314 0.7188 0.0
O193 O 0.51204 0.53321 0.59511 0.0
O194 O 0.54158 0.4995 0.5559 0.0
O195 O 0.51361 0.48536 0.53875 0.0
O196 O 0.54405 0.5188 0.68121 0.0
O197 O 0.52544 0.50415 0.75575 0.0
O198 O 0.51144 0.47507 0.68607 0.0
O199 O 0.50068 0.48478 0.806 0.0
H200 H 0.44801 0.54898 0.92052 0.0
H201 H 0.43922 0.58376 0.91466 0.0
H202 H 0.49904 0.59817 0.86128 0.0
H203 H 0.50788 0.56376 0.86775 0.0
H204 H 0.55321 0.46864 0.63388 0.0
H205 H 0.56535 0.43514 0.63763 0.0
H206 H 0.5429 0.42568 0.40663 0.0
H207 H 0.53139 0.45945 0.40249 0.0
La208 La 1.00155 0.49691 0.76511 0.0
La209 La 0.01348 0.51654 0.62202 0.0
C210 C 0.98202 0.48909 0.8836 0.0
C211 C 0.96107 0.49316 0.8952 0.0
C212 C 0.94805 0.47767 0.90746 0.0
C213 C 0.92792 0.48065 0.90068 0.0
C214 C 0.92047 0.49919 0.88141 0.0
C215 C 0.93352 0.51489 0.87336 0.0
C216 C 0.95357 0.51192 0.88016 0.0
C217 C 0.01282 0.47278 0.65489 0.0
C218 C 0.96948 0.50928 0.63826 0.0
C219 C 0.03174 0.52657 0.5022 0.0
C220 C 0.05233 0.53246 0.49238 0.0
C221 C 0.05686 0.5516 0.46904 0.0
C222 C 0.07615 0.5583 0.47161 0.0
C223 C 0.0911 0.546 0.4983 0.0
C224 C 0.08671 0.52662 0.5179 0.0
C225 C 0.06754 0.51987 0.51475 0.0
C226 C 1.0021 0.54055 0.73305 0.0
C227 C 0.04586 0.50391 0.75008 0.0
O228 O 0.98579 0.47623 0.82967 0.0
O229 O 0.99348 0.50436 0.87859 0.0
O230 O 0.01617 0.47016 0.72811 0.0
O231 O 1.00266 0.48802 0.64601 0.0
O232 O 0.97371 0.50635 0.71216 0.0
O233 O 0.98355 0.51118 0.5866 0.0
O234 O 0.0211 0.5386 0.54309 0.0
O235 O 0.02855 0.50833 0.52131 0.0
O236 O 0.99859 0.54313 0.66012 0.0
O237 O 0.0124 0.52541 0.74092 0.0
O238 O 0.04172 0.50988 0.67874 0.0
O239 O 0.0319 0.49914 0.79929 0.0
H240 H 0.95348 0.46307 0.91855 0.0
H241 H 0.91822 0.46834 0.90898 0.0
H242 H 0.92834 0.52931 0.85773 0.0
H243 H 0.9632 0.52417 0.86916 0.0
H244 H 0.04539 0.56156 0.45147 0.0
H245 H 0.07929 0.57325 0.45522 0.0
H246 H 0.09812 0.51674 0.53691 0.0
H247 H 0.06461 0.50502 0.53287 0.0
C248 C 0.17049 1.00533 0.18531 0.0
C249 C 0.18772 0.01454 0.20942 0.0
C250 C 0.15414 1.00472 0.23419 0.0
C251 C 0.13954 0.01009 0.44084 0.0
H252 H 0.0876 0.01713 0.35591 0.0
C253 C 0.07272 0.02106 0.63924 0.0
C254 C 0.05534 0.01131 0.62002 0.0
C255 C 0.08836 0.0217 0.58721 0.0
C256 C 0.10197 0.01493 0.38054 0.0
H257 H 0.20162 0.03036 0.30255 0.0
H258 H 0.17311 0.02954 0.38797 0.0
H259 H 0.11588 0.01749 0.26983 0.0
H260 H 0.04052 0.99502 0.53007 0.0
H261 H 0.06793 0.99603 0.43888 0.0
H262 H 0.1257 1.00755 0.55145 0.0
C263 C 0.17214 0.02251 0.33197 0.0
C264 C 0.11823 0.01512 0.33109 0.0
C265 C 0.18846 0.02309 0.28303 0.0
C266 C 0.05373 1.00267 0.54649 0.0
C267 C 0.06943 1.0033 0.4942 0.0
C268 C 0.12332 0.00992 0.49018 0.0
C269 C 0.15471 0.01333 0.30827 0.0
C270 C 0.13727 0.01279 0.36059 0.0
C271 C 0.08709 0.01258 0.51437 0.0
C272 C 0.1043 0.01245 0.4609 0.0
H273 H 0.16965 0.99861 0.1286 0.0
H274 H 0.14113 0.9973 0.21421 0.0
H275 H 0.15388 1.00785 0.46569 0.0
H276 H 0.07436 0.028 0.69522 0.0
H277 H 0.10152 0.02934 0.60427 0.0
C278 C 0.50905 0.17373 0.17441 0.0
C279 C 0.50093 0.19154 0.19816 0.0
C280 C 0.50859 0.15742 0.22351 0.0
C281 C 0.50232 0.14339 0.43021 0.0
H282 H 0.49234 0.09188 0.34581 0.0
C283 C 0.48908 0.07711 0.62965 0.0
C284 C 0.49806 0.05937 0.60967 0.0
C285 C 0.48875 0.09277 0.57754 0.0
C286 C 0.49534 0.10612 0.37031 0.0
H287 H 0.48594 0.20654 0.29084 0.0
H288 H 0.48488 0.17809 0.3767 0.0
H289 H 0.49339 0.12011 0.25955 0.0
H290 H 0.51324 0.04389 0.51835 0.0
H291 H 0.51277 0.07127 0.42713 0.0
H292 H 0.5043 0.12946 0.54084 0.0
C293 C 0.49187 0.17662 0.32079 0.0
C294 C 0.49597 0.12235 0.32075 0.0
C295 C 0.49236 0.19291 0.27161 0.0
C296 C 0.50616 0.05739 0.53533 0.0
C297 C 0.50584 0.07308 0.48302 0.0
C298 C 0.50168 0.12719 0.47968 0.0
C299 C 0.49996 0.15862 0.29745 0.0
C300 C 0.49942 0.14123 0.35003 0.0
C301 C 0.49742 0.09111 0.50395 0.0
C302 C 0.49812 0.10832 0.45055 0.0
H303 H 0.51577 0.17241 0.11785 0.0
H304 H 0.5152 0.14394 0.20384 0.0
H305 H 0.5054 0.1576 0.45487 0.0
H306 H 0.4826 0.07906 0.68635 0.0
H307 H 0.48176 0.10624 0.59522 0.0
C308 C 0.32637 0.49008 0.252 0.0
C309 C 0.32672 0.49978 0.18062 0.0
C310 C 0.34273 0.49048 0.30077 0.0
C311 C 0.39632 0.49997 0.30154 0.0
H312 H 0.38866 0.50387 0.52326 0.0
C313 C 0.46032 0.51136 0.5207 0.0
C314 C 0.45896 0.50145 0.59175 0.0
C315 C 0.4447 0.51101 0.46795 0.0
C316 C 0.3911 0.50254 0.46155 0.0
H317 H 0.3441 0.51759 0.10363 0.0
H318 H 0.37267 0.51857 0.18898 0.0
H319 H 0.36048 0.50382 0.43754 0.0
H320 H 0.44052 0.48277 0.6618 0.0
H321 H 0.41355 0.48194 0.57008 0.0
H322 H 0.42703 0.49876 0.32595 0.0
C323 C 0.35996 0.51038 0.20726 0.0
C324 C 0.37488 0.50251 0.41223 0.0
C325 C 0.34358 0.50995 0.15854 0.0
C326 C 0.44197 0.4907 0.60782 0.0
C327 C 0.42642 0.49035 0.55538 0.0
C328 C 0.41259 0.50003 0.35099 0.0
C329 C 0.35978 0.50064 0.27916 0.0
C330 C 0.37722 0.50109 0.3315 0.0
C331 C 0.42739 0.50076 0.48525 0.0
C332 C 0.41019 0.50117 0.43177 0.0
H333 H 0.31348 0.4821 0.26997 0.0
H334 H 0.34208 0.48258 0.35501 0.0
H335 H 0.39874 0.49862 0.23982 0.0
H336 H 0.47323 0.5198 0.50676 0.0
H337 H 0.44595 0.51927 0.41472 0.0
C338 C 0.02447 0.32385 0.25857 0.0
C339 C 0.01609 0.32486 0.18468 0.0
C340 C 0.02465 0.34031 0.30685 0.0
C341 C 1.00037 0.3883 0.33789 0.0
H342 H 0.04606 0.39915 0.46309 0.0
C343 C 1.00692 0.45907 0.52172 0.0
C344 C 0.01489 0.45705 0.59627 0.0
C345 C 0.00773 0.44354 0.46871 0.0
C346 C 0.03309 0.39627 0.42915 0.0
H347 H 1.00127 0.34356 0.10268 0.0
H348 H 1.00164 0.37244 0.18651 0.0
H349 H 0.0459 0.37088 0.37737 0.0
H350 H 0.03033 0.43736 0.67305 0.0
H351 H 0.03163 0.41034 0.58138 0.0
H352 H 0.98749 0.41361 0.39013 0.0
C353 C 0.00794 0.35897 0.20791 0.0
C354 C 0.033 0.38 0.37989 0.0
C355 C 0.0078 0.34249 0.15965 0.0
C356 C 0.02407 0.43939 0.61601 0.0
C357 C 0.0249 0.4239 0.56314 0.0
C358 C 1.00045 0.40457 0.38724 0.0
C359 C 0.0164 0.35813 0.28222 0.0
C360 C 0.0166 0.37571 0.33381 0.0
C361 C 0.01658 0.42566 0.48893 0.0
C362 C 0.01677 0.40874 0.43394 0.0
H363 H 0.03084 0.31031 0.27909 0.0
H364 H 0.03104 0.33899 0.36396 0.0
H365 H 0.98737 0.38536 0.30418 0.0
H366 H 0.99978 0.47253 0.50475 0.0
H367 H 1.00142 0.44558 0.41181 0.0
C368 C 0.8431 1.00208 0.26204 0.0
C369 C 0.82559 0.99348 0.23765 0.0
C370 C 0.85945 1.00228 0.2131 0.0
C371 C 0.88049 0.97761 0.04022 0.0
H372 H 0.91317 0.02373 0.02824 0.0
C373 C 0.93891 0.98748 0.80118 0.0
C374 C 0.95649 0.99692 0.82006 0.0
C375 C 0.9236 0.98646 0.85476 0.0
C376 C 0.90439 0.01061 0.0316 0.0
H377 H 0.8111 0.9785 0.1437 0.0
H378 H 0.83954 0.97888 0.05769 0.0
H379 H 0.88519 0.02335 0.11563 0.0
H380 H 0.97198 0.01231 0.9107 0.0
H381 H 0.94532 0.01035 0.00488 0.0
H382 H 0.89962 0.96488 0.9561 0.0
C383 C 0.84089 0.98526 0.11479 0.0
C384 C 0.88829 0.0104 0.08177 0.0
C385 C 0.82456 0.98512 0.16374 0.0
C386 C 0.95858 1.00498 0.8944 0.0
C387 C 0.94323 1.00398 0.94813 0.0
C388 C 0.89659 0.97781 0.99016 0.0
C389 C 0.8586 0.99383 0.13878 0.0
C390 C 0.87603 0.99394 0.08647 0.0
C391 C 0.92545 0.99483 0.92883 0.0
C392 C 0.90872 0.99435 0.98469 0.0
H393 H 0.84417 0.00862 0.31901 0.0
H394 H 0.87284 0.00882 0.23397 0.0
H395 H 0.87164 0.96453 0.0432 0.0
H396 H 0.93683 0.98115 0.74431 0.0
H397 H 0.91011 0.97952 0.83721 0.0
C398 C 0.51821 0.848 0.25036 0.0
C399 C 0.51106 0.82986 0.22557 0.0
C400 C 0.5171 0.86441 0.20184 0.0
C401 C 0.49111 0.88308 0.02686 0.0
H402 H 0.5334 0.92067 0.01921 0.0
C403 C 0.49773 0.93921 0.78071 0.0
C404 C 0.50287 0.95855 0.79884 0.0
C405 C 0.49856 0.9245 0.83663 0.0
C406 C 0.52136 0.91044 0.02138 0.0
H407 H 0.49719 0.81447 0.1311 0.0
H408 H 0.49558 0.84282 0.0457 0.0
H409 H 0.53534 0.89297 0.10825 0.0
H410 H 0.51285 0.97753 0.89058 0.0
H411 H 0.51465 0.95167 0.98892 0.0
H412 H 0.47732 0.90031 0.93904 0.0
C413 C 0.50176 0.84465 0.10294 0.0
C414 C 0.52245 0.89452 0.07251 0.0
C415 C 0.50282 0.82831 0.15159 0.0
C416 C 0.50898 0.96281 0.87459 0.0
C417 C 0.51 0.94796 0.93083 0.0
C418 C 0.49009 0.89888 0.97561 0.0
C419 C 0.50881 0.863 0.12737 0.0
C420 C 0.50742 0.88047 0.07533 0.0
C421 C 0.50465 0.92863 0.91253 0.0
C422 C 0.50529 0.91265 0.97143 0.0
H423 H 0.52458 0.84953 0.30745 0.0
H424 H 0.52247 0.87827 0.22325 0.0
H425 H 0.47901 0.87291 0.02852 0.0
H426 H 0.49297 0.93536 0.72287 0.0
H427 H 0.49461 0.90976 0.82001 0.0
C428 C 0.6686 0.50152 0.2546 0.0
C429 C 0.68542 0.51226 0.23672 0.0
C430 C 0.65224 0.50221 0.2058 0.0
C431 C 0.62958 0.53193 0.04847 0.0
H432 H 0.59957 0.48492 0.01008 0.0
C433 C 0.5728 0.5265 0.80131 0.0
C434 C 0.55554 0.51593 0.81447 0.0
C435 C 0.58779 0.52666 0.85638 0.0
C436 C 0.60761 0.49826 0.02093 0.0
H437 H 0.69858 0.5321 0.15453 0.0
H438 H 0.67025 0.53312 0.06839 0.0
H439 H 0.62745 0.48379 0.09784 0.0
H440 H 0.54027 0.49756 0.8966 0.0
H441 H 0.56646 0.49787 0.99332 0.0
H442 H 0.60989 0.54633 0.97079 0.0
C443 C 0.6694 0.52438 0.12052 0.0
C444 C 0.62365 0.49761 0.07138 0.0
C445 C 0.68572 0.5237 0.16947 0.0
C446 C 0.55341 0.50583 0.8848 0.0
C447 C 0.56849 0.5059 0.93991 0.0
C448 C 0.6136 0.53256 0.9979 0.0
C449 C 0.65239 0.51366 0.13796 0.0
C450 C 0.63496 0.51441 0.08555 0.0
C451 C 0.58596 0.5162 0.92614 0.0
C452 C 0.60245 0.51571 0.98298 0.0
H453 H 0.66807 0.49262 0.30644 0.0
H454 H 0.63938 0.49396 0.22185 0.0
H455 H 0.63764 0.54527 0.05894 0.0
H456 H 0.57489 0.53442 0.74763 0.0
H457 H 0.60107 0.53457 0.84321 0.0
C458 C 0.98738 0.68958 0.1266 0.0
C459 C 0.99641 0.68915 0.19936 0.0
C460 C 0.98771 0.67305 0.07864 0.0
C461 C 0.01386 0.62606 0.04586 0.0
H462 H 0.96747 0.61286 0.92853 0.0
C463 C 0.0085 0.55456 0.86545 0.0
C464 C 0.99986 0.55617 0.79194 0.0
C465 C 1.00751 0.57011 0.91831 0.0
C466 C 0.98063 0.6164 0.96027 0.0
H467 H 0.01294 0.67143 0.27961 0.0
H468 H 0.01349 0.64245 0.19635 0.0
H469 H 0.96726 0.6414 0.01278 0.0
H470 H 0.983 0.57512 0.71697 0.0
H471 H 0.98136 0.60217 0.80833 0.0
H472 H 0.02726 0.60111 0.9929 0.0
C473 C 1.00631 0.65553 0.1755 0.0
C474 C 0.98052 0.63283 0.00865 0.0
C475 C 1.00593 0.67207 0.22341 0.0
C476 C 0.98981 0.57342 0.77319 0.0
C477 C 0.98878 0.58892 0.82589 0.0
C478 C 0.01398 0.60962 0.99739 0.0
C479 C 0.9971 0.65574 0.10253 0.0
C480 C 0.99717 0.63799 0.05182 0.0
C481 C 0.99778 0.5876 0.89896 0.0
C482 C 0.9974 0.60462 0.95347 0.0
H483 H 0.97998 0.70266 0.10691 0.0
H484 H 0.98072 0.67391 0.02251 0.0
H485 H 0.02705 0.62967 0.07736 0.0
H486 H 0.01633 0.54143 0.88161 0.0
H487 H 0.01439 0.56843 0.97436 0.0
C488 C 1.00104 0.25246 0.35252 0.0
C489 C 0.9885 0.24763 0.29112 0.0
C490 C 0.99864 0.24363 0.42496 0.0
C491 C 0.96899 0.20467 0.52569 0.0
H492 H 0.02025 0.18163 0.55181 0.0
C493 C 0.97789 0.12359 0.60349 0.0
C494 C 0.98958 0.11412 0.54788 0.0
C495 C 0.97833 0.14394 0.6109 0.0
C496 C 1.00584 0.18802 0.54632 0.0
H497 H 0.96192 0.23244 0.26012 0.0
H498 H 0.95809 0.21655 0.38404 0.0
H499 H 0.01738 0.21388 0.49607 0.0
H500 H 0.01115 0.11858 0.45773 0.0
H501 H 0.01187 0.15378 0.47011 0.0
H502 H 0.95748 0.17762 0.56751 0.0
C503 C 0.96976 0.22709 0.37799 0.0
C504 C 1.00414 0.20672 0.51515 0.0
C505 C 0.97207 0.23601 0.30612 0.0
C506 C 1.00216 0.12535 0.50183 0.0
C507 C 1.00266 0.14558 0.50938 0.0
C508 C 0.97069 0.18579 0.55585 0.0
C509 C 0.98383 0.22967 0.43658 0.0
C510 C 0.98562 0.2146 0.4984 0.0
C511 C 0.99055 0.15516 0.5631 0.0
C512 C 0.98908 0.17677 0.56051 0.0
H513 H 0.01372 0.26159 0.34278 0.0
H514 H 0.00941 0.24642 0.46949 0.0
H515 H 0.95452 0.2106 0.51637 0.0
H516 H 0.96833 0.11528 0.64102 0.0
H517 H 0.96889 0.15091 0.65293 0.0
C518 C 0.26635 0.95904 0.27192 0.0
C519 C 0.26591 0.97945 0.27788 0.0
C520 C 0.27779 0.94807 0.32307 0.0
C521 C 0.31449 0.95385 0.48434 0.0
H522 H 0.34683 0.92403 0.3432 0.0
C523 C 0.39649 0.95112 0.53315 0.0
C524 C 0.40696 0.95625 0.46622 0.0
C525 C 0.37725 0.94449 0.52765 0.0
C526 C 0.33797 0.93222 0.38373 0.0
H527 H 0.27505 1.00435 0.34538 0.0
H528 H 0.29517 0.98562 0.43343 0.0
H529 H 0.31316 0.93056 0.3099 0.0
H530 H 0.40615 0.95724 0.34111 0.0
H531 H 0.37253 0.94638 0.33105 0.0
H532 H 0.33997 0.9575 0.55359 0.0
C533 C 0.28661 0.97769 0.39117 0.0
C534 C 0.31843 0.93571 0.36531 0.0
C535 C 0.27506 0.98856 0.34059 0.0
C536 C 0.3984 0.9533 0.39352 0.0
C537 C 0.3791 0.94692 0.38798 0.0
C538 C 0.33414 0.95068 0.50202 0.0
C539 C 0.28924 0.95748 0.37961 0.0
C540 C 0.30683 0.94776 0.41278 0.0
C541 C 0.36802 0.94314 0.45513 0.0
C542 C 0.34643 0.94097 0.44922 0.0
H543 H 0.25945 0.95179 0.22334 0.0
H544 H 0.27905 0.93248 0.31371 0.0
H545 H 0.3058 0.96261 0.52359 0.0
H546 H 0.40294 0.95298 0.58994 0.0
H547 H 0.36934 0.94131 0.58044 0.0
C548 C 0.50871 0.28567 0.34454 0.0
C549 C 0.51972 0.27263 0.29982 0.0
C550 C 0.5172 0.29533 0.4069 0.0
C551 C 0.53748 0.3168 0.53352 0.0
H552 H 0.5851 0.33869 0.44919 0.0
C553 C 0.5562 0.39608 0.59649 0.0
C554 C 0.56006 0.40661 0.52818 0.0
C555 C 0.55783 0.37572 0.59772 0.0
C556 C 0.57187 0.33271 0.47404 0.0
H557 H 0.54744 0.2577 0.28946 0.0
H558 H 0.56243 0.27448 0.3998 0.0
H559 H 0.57353 0.30739 0.40256 0.0
H560 H 0.57047 0.40418 0.41013 0.0
H561 H 0.57242 0.36889 0.41075 0.0
H562 H 0.53455 0.34316 0.59808 0.0
C563 C 0.54729 0.27747 0.38606 0.0
C564 C 0.56536 0.31452 0.44819 0.0
C565 C 0.53871 0.26775 0.32339 0.0
C566 C 0.56698 0.39647 0.46312 0.0
C567 C 0.56843 0.37616 0.46409 0.0
C568 C 0.54378 0.33516 0.55828 0.0
C569 C 0.53698 0.29221 0.42566 0.0
C570 C 0.54733 0.30702 0.47353 0.0
C571 C 0.56318 0.36544 0.5305 0.0
C572 C 0.56032 0.34392 0.52465 0.0
H573 H 0.49401 0.28959 0.32725 0.0
H574 H 0.50874 0.30663 0.43513 0.0
H575 H 0.52387 0.31114 0.5562 0.0
H576 H 0.55083 0.40341 0.64778 0.0
H577 H 0.55399 0.36801 0.65029 0.0
C578 C 0.23468 0.51073 0.32591 0.0
C579 C 0.24678 0.52247 0.28015 0.0
C580 C 0.22483 0.51871 0.38887 0.0
C581 C 0.2027 0.56563 0.42865 0.0
H582 H 0.17628 0.53324 0.57956 0.0
C583 C 0.12094 0.56083 0.44037 0.0
C584 C 0.11141 0.55298 0.50494 0.0
C585 C 0.14104 0.56411 0.44238 0.0
C586 C 0.1836 0.54294 0.53949 0.0
H587 H 0.25982 0.55104 0.26764 0.0
H588 H 0.24273 0.56516 0.37915 0.0
H589 H 0.20901 0.5248 0.5387 0.0
H590 H 0.11471 0.54438 0.6248 0.0
H591 H 0.14981 0.55058 0.62943 0.0
H592 H 0.17715 0.58356 0.42831 0.0
C593 C 0.24065 0.54983 0.36604 0.0
C594 C 0.2024 0.53792 0.51536 0.0
C595 C 0.25055 0.54177 0.30273 0.0
C596 C 0.12192 0.55007 0.57377 0.0
C597 C 0.142 0.55361 0.57627 0.0
C598 C 0.18406 0.57088 0.45393 0.0
C599 C 0.22677 0.53869 0.40691 0.0
C600 C 0.21144 0.54824 0.45484 0.0
C601 C 0.15198 0.55982 0.50948 0.0
C602 C 0.17367 0.55867 0.50474 0.0
H603 H 0.23154 0.49582 0.30887 0.0
H604 H 0.21419 0.50963 0.41802 0.0
H605 H 0.20923 0.57415 0.38266 0.0
H606 H 0.1131 0.56316 0.38667 0.0
H607 H 0.14811 0.56862 0.38929 0.0
C608 C 0.03105 0.76161 0.07531 0.0
C609 C 0.03886 0.76492 0.14932 0.0
C610 C 0.03888 0.77119 0.01088 0.0
C611 C 0.04166 0.80909 0.9258 0.0
H612 H 0.09188 0.83515 0.92345 0.0
C613 C 0.06637 0.89128 0.94146 0.0
C614 C 0.05323 0.89959 0.88856 0.0
C615 C 0.0703 0.87127 0.93936 0.0
C616 C 0.07784 0.82789 0.92245 0.0
H617 H 0.0628 0.77813 0.21224 0.0
H618 H 0.07589 0.79543 0.10177 0.0
H619 H 0.0891 0.80255 0.97981 0.0
H620 H 0.03563 0.89404 0.78667 0.0
H621 H 0.04241 0.85902 0.7831 0.0
H622 H 0.03013 0.83472 0.87288 0.0
C623 C 0.06384 0.7855 0.09209 0.0
C624 C 0.07622 0.80922 0.95482 0.0
C625 C 0.05618 0.77575 0.15606 0.0
C626 C 0.04541 0.88787 0.82942 0.0
C627 C 0.04939 0.86787 0.8271 0.0
C628 C 0.04332 0.8276 0.89294 0.0
C629 C 0.05443 0.78446 0.01977 0.0
C630 C 0.05783 0.8002 0.96174 0.0
C631 C 0.0612 0.85921 0.88413 0.0
C632 C 0.06115 0.83771 0.89545 0.0
H633 H 0.01782 0.75314 0.0681 0.0
H634 H 0.03165 0.76954 0.95551 0.0
H635 H 0.0272 0.80281 0.92998 0.0
H636 H 0.07261 0.89998 0.98763 0.0
H637 H 0.07929 0.86507 0.98474 0.0
C638 C 0.75269 0.00927 0.06766 0.0
C639 C 0.74881 0.02109 0.13221 0.0
C640 C 0.74408 0.01357 0.99625 0.0
C641 C 0.70958 0.04833 0.89872 0.0
H642 H 0.67856 1.0014 0.87534 0.0
C643 C 0.62624 0.01969 0.82404 0.0
C644 C 0.61647 0.03412 0.8672 0.0
C645 C 0.64653 0.02012 0.81626 0.0
C646 C 0.68722 0.0146 0.87844 0.0
H647 H 0.73534 0.04789 0.17142 0.0
H648 H 0.72026 0.05541 0.04786 0.0
H649 H 0.71064 0.99923 0.93194 0.0
H650 H 0.62038 0.06059 0.93434 0.0
H651 H 0.65564 0.06097 0.92341 0.0
H652 H 0.68533 0.06385 0.85035 0.0
C653 C 0.72987 0.04287 0.05112 0.0
C654 C 0.7058 0.01333 0.91097 0.0
C655 C 0.73835 0.03851 0.12233 0.0
C656 C 0.62739 0.04938 0.89994 0.0
C657 C 0.64767 0.04968 0.89299 0.0
C658 C 0.69098 0.04959 0.8658 0.0
C659 C 0.73153 0.02974 0.98881 0.0
C660 C 0.71654 0.03036 0.92686 0.0
C661 C 0.65755 0.03478 0.85276 0.0
C662 C 0.67907 0.0329 0.86074 0.0
H663 H 0.7608 0.99577 0.07412 0.0
H664 H 0.74581 1.00332 0.94895 0.0
H665 H 0.71773 0.06165 0.90865 0.0
H666 H 0.61824 1.00785 0.79732 0.0
H667 H 0.65364 0.00855 0.78409 0.0
C668 C 0.50983 0.73306 0.0893 0.0
C669 C 0.49813 0.7468 0.12748 0.0
C670 C 0.50293 0.72356 0.02356 0.0
C671 C 0.4561 0.70601 0.95818 0.0
H672 H 0.49054 0.67741 0.82113 0.0
C673 C 0.45424 0.62414 0.93899 0.0
C674 C 0.46329 0.6143 0.87767 0.0
C675 C 0.45269 0.64447 0.93776 0.0
C676 C 0.48034 0.6854 0.85701 0.0
H677 H 0.47097 0.76293 0.12364 0.0
H678 H 0.45873 0.74624 0.00772 0.0
H679 H 0.50048 0.70902 0.86981 0.0
H680 H 0.47588 0.61746 0.76337 0.0
H681 H 0.47266 0.65298 0.75984 0.0
H682 H 0.43616 0.68218 0.94697 0.0
C683 C 0.47319 0.7427 0.02892 0.0
C684 C 0.4862 0.70353 0.88564 0.0
C685 C 0.4802 0.75232 0.09483 0.0
C686 C 0.46918 0.62487 0.81202 0.0
C687 C 0.46735 0.64518 0.81016 0.0
C688 C 0.45008 0.68802 0.92846 0.0
C689 C 0.48409 0.72752 0.9949 0.0
C690 C 0.47486 0.71323 0.94152 0.0
C691 C 0.45994 0.65533 0.87461 0.0
C692 C 0.46283 0.6768 0.88262 0.0
H693 H 0.52374 0.72866 0.1136 0.0
H694 H 0.51172 0.71185 0.99983 0.0
H695 H 0.44684 0.71314 1.00039 0.0
H696 H 0.44962 0.61627 0.99022 0.0
H697 H 0.44714 0.65164 0.98908 0.0
C698 C 0.77899 0.53465 0.09782 0.0
C699 C 0.76633 0.51965 0.12056 0.0
C700 C 0.78808 0.53398 0.02576 0.0
C701 C 0.80807 0.49506 0.91309 0.0
H702 H 0.83503 0.53879 0.81906 0.0
C703 C 0.88812 0.48787 0.82912 0.0
C704 C 0.89927 0.50212 0.8677 0.0
C705 C 0.86802 0.49038 0.81906 0.0
C706 C 0.82748 0.52634 0.84359 0.0
H707 H 0.75131 0.49347 0.08346 0.0
H708 H 0.76733 0.49218 0.95674 0.0
H709 H 0.80248 0.54353 0.87361 0.0
H710 H 0.89809 0.53045 0.92378 0.0
H711 H 0.86322 0.53471 0.90719 0.0
H712 H 0.83362 0.47827 0.88931 0.0
C713 C 0.77033 0.5044 0.99471 0.0
C714 C 0.80884 0.52904 0.87463 0.0
C715 C 0.76112 0.50516 0.06697 0.0
C716 C 0.89002 0.51926 0.89313 0.0
C717 C 0.87 0.52179 0.88296 0.0
C718 C 0.82666 0.49236 0.88193 0.0
C719 C 0.7848 0.51816 0.97541 0.0
C720 C 0.79964 0.51379 0.91518 0.0
C721 C 0.85869 0.5072 0.84738 0.0
C722 C 0.83711 0.50834 0.85232 0.0
H723 H 0.78307 0.54603 0.13827 0.0
H724 H 0.79919 0.54479 0.0134 0.0
H725 H 0.80145 0.48294 0.94366 0.0
H726 H 0.8949 0.47471 0.80698 0.0
H727 H 0.85969 0.47894 0.79108 0.0
C728 C 0.01884 0.21479 0.99222 0.0
C729 C 1.0016 0.22108 0.02883 0.0
C730 C 0.01971 0.19635 0.95633 0.0
C731 C 0.99583 0.14802 0.97023 0.0
H732 H 0.02408 0.13568 0.7821 0.0
C733 C 0.01088 0.068 0.88078 0.0
C734 C 0.00871 0.06312 0.80219 0.0
C735 C 0.01065 0.08758 0.90477 0.0
C736 C 0.01605 0.13888 0.83459 0.0
H737 H 0.97138 0.21363 0.05101 0.0
H738 H 0.97279 0.18183 0.98801 0.0
H739 H 0.02188 0.16966 0.82585 0.0
H740 H 1.00483 0.07522 0.68728 0.0
H741 H 1.00443 0.10925 0.72891 0.0
H742 H 0.98979 0.11744 0.97905 0.0
C743 C 0.98582 0.1908 0.98855 0.0
C744 C 0.01493 0.15836 0.85999 0.0
C745 C 0.98496 0.20911 0.02421 0.0
C746 C 1.00659 0.07839 0.74819 0.0
C747 C 1.00644 0.09797 0.77209 0.0
C748 C 0.99704 0.12861 0.94523 0.0
C749 C 1.00336 0.18384 0.95639 0.0
C750 C 1.00472 0.1632 0.92807 0.0
C751 C 0.00827 0.10286 0.85087 0.0
C752 C 1.00718 0.1237 0.87712 0.0
H753 H 0.03195 0.2236 0.9953 0.0
H754 H 0.03347 0.19149 0.9322 0.0
H755 H 0.98806 0.15109 0.02348 0.0
H756 H 0.01261 0.05669 0.92408 0.0
H757 H 0.01241 0.09073 0.96579 0.0
C758 C 0.30753 0.0228 0.08632 0.0
C759 C 0.29186 0.01345 0.04919 0.0
C760 C 0.32578 0.02419 0.05052 0.0
C761 C 0.3528 0.01854 0.86467 0.0
H762 H 0.39599 1.00657 0.00193 0.0
C763 C 0.43172 1.00438 0.7518 0.0
C764 C 0.44738 0.01151 0.79632 0.0
C765 C 0.4125 1.00516 0.77975 0.0
C766 C 0.38419 0.01022 0.96276 0.0
H767 H 0.28277 0.99897 0.94399 0.0
H768 H 0.31481 1.00139 0.88066 0.0
H769 H 0.36299 0.00792 0.05309 0.0
H770 H 0.45492 0.02513 0.9056 0.0
H771 H 0.42155 0.0267 0.95391 0.0
H772 H 0.37415 0.02078 0.77419 0.0
C773 C 0.31292 1.00782 0.93744 0.0
C774 C 0.36518 0.011 0.99222 0.0
C775 C 0.29453 1.00649 0.97343 0.0
C776 C 0.44329 0.01938 0.86976 0.0
C777 C 0.42409 0.02021 0.89765 0.0
C778 C 0.3719 0.0178 0.8351 0.0
C779 C 0.32896 0.01611 0.9767 0.0
C780 C 0.34919 0.0153 0.94384 0.0
C781 C 0.40838 0.01309 0.85317 0.0
C782 C 0.38791 0.01372 0.88386 0.0
H783 H 0.30587 0.02828 0.14481 0.0
H784 H 0.33759 0.03112 0.08185 0.0
H785 H 0.34089 0.02199 0.82573 0.0
H786 H 0.43429 0.99792 0.69564 0.0
H787 H 0.40091 0.99921 0.74424 0.0
C788 C 0.50857 0.29745 0.96789 0.0
C789 C 0.49954 0.29601 0.04074 0.0
C790 C 0.50773 0.31499 0.92552 0.0
C791 C 0.48196 0.36341 0.91731 0.0
H792 H 0.53005 0.38158 0.82342 0.0
C793 C 0.49562 0.44491 0.85265 0.0
C794 C 0.50448 0.44998 0.78202 0.0
C795 C 0.49431 0.42534 0.87577 0.0
C796 C 0.51643 0.37665 0.84857 0.0
H797 H 0.48158 0.31143 0.12396 0.0
H798 H 0.48027 0.34176 0.05157 0.0
H799 H 0.52827 0.34848 0.87589 0.0
H800 H 0.51909 0.43827 0.68064 0.0
H801 H 0.51696 0.40413 0.72156 0.0
H802 H 0.47033 0.39177 0.89224 0.0
C803 C 0.48793 0.3295 0.02616 0.0
C804 C 0.51537 0.35759 0.87844 0.0
C805 C 0.48879 0.31209 0.06819 0.0
C806 C 0.51217 0.43494 0.73543 0.0
C807 C 0.51103 0.41535 0.75899 0.0
C808 C 0.48308 0.38245 0.88814 0.0
C809 C 0.49771 0.33141 0.95492 0.0
C810 C 0.49822 0.35082 0.9147 0.0
C811 C 0.50195 0.41029 0.82926 0.0
C812 C 0.50043 0.38947 0.85472 0.0
H813 H 0.51705 0.28535 0.9454 0.0
H814 H 0.51522 0.31578 0.87042 0.0
H815 H 0.46834 0.35864 0.9429 0.0
H816 H 0.48955 0.45605 0.89008 0.0
H817 H 0.48747 0.42202 0.93075 0.0
C818 C 0.21095 0.52379 0.00836 0.0
C819 C 0.22289 0.50723 0.01734 0.0
C820 C 0.19315 0.5226 0.96897 0.0
C821 C 0.15453 0.48722 0.91956 0.0
H822 H 0.13433 0.5303 0.79777 0.0
C823 C 0.07195 0.49545 0.84812 0.0
C824 C 0.06669 0.50309 0.77539 0.0
C825 C 0.09157 0.49496 0.87165 0.0
C826 C 0.13973 0.51801 0.83094 0.0
H827 H 0.22582 0.47656 0.9897 0.0
H828 H 0.19462 0.47442 0.91989 0.0
H829 H 0.16797 0.53108 0.84316 0.0
H830 H 0.07817 0.5163 0.67115 0.0
H831 H 0.11222 0.51493 0.71063 0.0
H832 H 0.12627 0.47413 0.90715 0.0
C833 C 0.19902 0.48834 0.94395 0.0
C834 C 0.15904 0.51855 0.85766 0.0
C835 C 0.217 0.48959 0.98301 0.0
C836 C 0.08162 0.51014 0.72698 0.0
C837 C 0.1012 0.50957 0.75021 0.0
C838 C 0.13517 0.4867 0.89297 0.0
C839 C 0.18667 0.50477 0.93775 0.0
C840 C 0.16667 0.50329 0.90318 0.0
C841 C 0.1065 0.50208 0.82311 0.0
C842 C 0.1274 0.50219 0.84896 0.0
H843 H 0.21507 0.53757 0.0345 0.0
H844 H 0.18404 0.53552 0.96625 0.0
H845 H 0.15979 0.47528 0.955 0.0
H846 H 0.06089 0.48993 0.88722 0.0
H847 H 0.09498 0.48932 0.92863 0.0
C848 C 0.0252 0.79968 0.42072 0.0
C849 C 0.00889 0.78952 0.39194 0.0
C850 C 0.02297 0.81743 0.45987 0.0
C851 C 0.98909 0.85924 0.47336 0.0
H852 H 0.02375 0.87546 0.63877 0.0
C853 C 0.99922 0.9407 0.5573 0.0
C854 C 1.00196 0.94541 0.63581 0.0
C855 C 0.99871 0.92115 0.53292 0.0
C856 C 0.01379 0.87118 0.59313 0.0
H857 H 0.97735 0.78971 0.38466 0.0
H858 H 0.97335 0.82073 0.45405 0.0
H859 H 0.02475 0.84185 0.59241 0.0
H860 H 1.00578 0.93307 0.75024 0.0
H861 H 1.00469 0.89912 0.70822 0.0
H862 H 0.9781 0.88856 0.47418 0.0
C863 C 0.98793 0.81501 0.44553 0.0
C864 C 0.0145 0.85189 0.56597 0.0
C865 C 0.99018 0.7971 0.40666 0.0
C866 C 1.00391 0.93004 0.68931 0.0
C867 C 1.00336 0.91051 0.66505 0.0
C868 C 0.98841 0.87855 0.50039 0.0
C869 C 1.00434 0.82563 0.47116 0.0
C870 C 1.00234 0.84569 0.50502 0.0
C871 C 1.00087 0.90575 0.5864 0.0
C872 C 1.00091 0.88489 0.56005 0.0
H873 H 0.03981 0.79421 0.4103 0.0
H874 H 0.03597 0.82517 0.47797 0.0
H875 H 0.97963 0.85512 0.4259 0.0
H876 H 0.9977 0.95211 0.51428 0.0
H877 H 0.99703 0.91814 0.47176 0.0
C878 C 0.71777 1.00749 0.45436 0.0
C879 C 0.72017 0.99922 0.38054 0.0
C880 C 0.6995 1.00685 0.49163 0.0
C881 C 0.6507 0.98226 0.48609 0.0
H882 H 0.63189 0.03047 0.577 0.0
C883 C 0.56863 0.99434 0.55322 0.0
C884 C 0.56362 1.00465 0.62077 0.0
C885 C 0.58816 0.99305 0.52902 0.0
C886 C 0.63693 0.01677 0.55285 0.0
H887 H 0.70566 0.98299 0.28969 0.0
H888 H 0.6741 0.98173 0.35414 0.0
H889 H 0.66545 0.02842 0.53058 0.0
H890 H 0.57537 0.02206 0.71487 0.0
H891 H 0.60915 0.02015 0.67176 0.0
H892 H 0.62219 0.97063 0.50771 0.0
C893 C 0.68614 0.98871 0.38385 0.0
C894 C 0.65627 0.01559 0.5263 0.0
C895 C 0.70425 0.98948 0.34662 0.0
C896 C 0.57863 0.01384 0.66289 0.0
C897 C 0.59808 0.01278 0.63804 0.0
C898 C 0.6314 0.98343 0.51272 0.0
C899 C 0.68334 0.99773 0.45615 0.0
C900 C 0.66335 0.99841 0.49147 0.0
C901 C 0.60321 1.00221 0.57122 0.0
C902 C 0.6241 1.00078 0.54552 0.0
H903 H 0.72973 0.01521 0.4816 0.0
H904 H 0.69795 0.01378 0.54765 0.0
H905 H 0.65569 0.96866 0.46092 0.0
H906 H 0.55749 0.98714 0.51914 0.0
H907 H 0.5914 0.98508 0.47642 0.0
C908 C 0.4941 0.71759 0.42517 0.0
C909 C 0.51118 0.7263 0.39633 0.0
C910 C 0.49483 0.69936 0.46205 0.0
C911 C 0.52482 0.65451 0.46338 0.0
H912 H 0.49103 0.63919 0.63283 0.0
C913 C 0.5113 0.5732 0.5416 0.0
C914 C 0.51017 0.5682 0.62046 0.0
C915 C 0.51199 0.59284 0.51842 0.0
C916 C 0.50069 0.64323 0.58584 0.0
H917 H 0.54241 0.72302 0.38434 0.0
H918 H 0.54387 0.69132 0.45012 0.0
H919 H 0.49184 0.67327 0.59101 0.0
H920 H 0.50946 0.58009 0.73641 0.0
H921 H 0.51052 0.6142 0.69649 0.0
H922 H 0.5337 0.62453 0.45819 0.0
C923 C 0.52986 0.6985 0.44419 0.0
C924 C 0.50103 0.66278 0.5614 0.0
C925 C 0.52911 0.71679 0.4076 0.0
C926 C 0.5099 0.58337 0.67534 0.0
C927 C 0.51052 0.60298 0.65229 0.0
C928 C 0.52441 0.63497 0.48753 0.0
C929 C 0.51265 0.68927 0.47 0.0
C930 C 0.51305 0.66869 0.49954 0.0
C931 C 0.51156 0.60803 0.57346 0.0
C932 C 0.51225 0.629 0.54879 0.0
H933 H 0.48004 0.72442 0.41533 0.0
H934 H 0.48126 0.69268 0.48025 0.0
H935 H 0.53407 0.6584 0.41492 0.0
H936 H 0.51151 0.56194 0.49757 0.0
H937 H 0.51256 0.59612 0.45714 0.0
C938 C 0.80373 0.49408 0.37042 0.0
C939 C 0.79058 0.50927 0.38683 0.0
C940 C 0.82202 0.49331 0.40619 0.0
C941 C 0.85296 0.51372 0.56459 0.0
H942 H 0.89482 0.50073 0.42235 0.0
C943 C 0.93373 0.50359 0.66373 0.0
C944 C 0.94863 0.50994 0.61359 0.0
C945 C 0.91412 0.50381 0.64031 0.0
C946 C 0.8834 0.50459 0.46291 0.0
H947 H 0.78596 0.53519 0.45597 0.0
H948 H 0.81812 0.53397 0.51895 0.0
H949 H 0.86125 0.50016 0.37764 0.0
H950 H 0.95444 0.5217 0.49946 0.0
H951 H 0.92033 0.52231 0.45887 0.0
H952 H 0.87534 0.51852 0.64955 0.0
C953 C 0.81418 0.52247 0.47889 0.0
C954 C 0.86401 0.50396 0.43748 0.0
C955 C 0.79572 0.52316 0.44311 0.0
C956 C 0.94339 0.51661 0.53951 0.0
C957 C 0.92377 0.51687 0.51612 0.0
C958 C 0.87245 0.51431 0.59021 0.0
C959 C 0.82783 0.50788 0.45887 0.0
C960 C 0.84847 0.50847 0.48781 0.0
C961 C 0.90883 0.51034 0.56596 0.0
C962 C 0.88797 0.50981 0.53954 0.0
H963 H 0.80014 0.4832 0.32713 0.0
H964 H 0.83188 0.48158 0.39064 0.0
H965 H 0.84142 0.5172 0.60516 0.0
H966 H 0.93724 0.49801 0.72063 0.0
H967 H 0.90315 0.49836 0.67981 0.0
loop_
_geom_bond_atom_site_label_1
_geom_bond_atom_site_label_2
_geom_bond_distance
_geom_bond_site_symmetry_2
_ccdc_geom_bond_type
H0 C3 0.929 . S
H1 C6 0.929 . S
H2 C8 0.930 . S
C3 H0 0.929 . S
C3 C4 1.398 . S
C3 C5 1.396 . S
C4 C3 1.398 . S
C4 C8 1.407 . S
C5 C3 1.396 . S
C5 C6 1.394 . S
C6 H1 0.929 . S
C6 C5 1.394 . S
C6 C7 1.382 . S
C7 C6 1.382 . S
C7 C8 1.392 . S
C7 N9 1.420 . S
C8 H2 0.930 . S
C8 C4 1.407 . S
C8 C7 1.392 . S
N9 C7 1.420 . S
N9 C10 1.244 . S
C10 N9 1.244 . S
H11 C14 0.929 . S
H12 C17 0.929 . S
H13 C19 0.930 . S
C14 H11 0.929 . S
C14 C15 1.398 . S
C14 C16 1.398 . S
C15 C14 1.398 . S
C15 C19 1.407 1_655 S
C16 C14 1.398 . S
C16 C17 1.391 1_655 S
C17 H12 0.929 . S
C17 C16 1.391 1_455 S
C17 C18 1.382 . S
C18 C17 1.382 . S
C18 C19 1.392 . S
C18 N20 1.420 . S
C19 H13 0.930 . S
C19 C15 1.407 1_455 S
C19 C18 1.392 . S
N20 C18 1.420 . S
N20 C21 1.244 1_455 S
C21 N20 1.244 1_655 S
H22 C25 0.929 . S
H23 C28 0.929 . S
H24 C30 0.930 . S
C25 H22 0.929 . S
C25 C26 1.398 . S
C25 C27 1.398 . S
C26 C25 1.398 . S
C26 C30 1.407 1_565 S
C27 C25 1.398 . S
C27 C28 1.391 1_565 S
C28 H23 0.929 . S
C28 C27 1.391 1_545 S
C28 C29 1.382 . S
C29 C28 1.382 . S
C29 C30 1.392 . S
C29 N31 1.420 . S
C30 H24 0.930 . S
C30 C26 1.407 1_545 S
C30 C29 1.392 . S
N31 C29 1.420 . S
N31 C32 1.244 1_545 S
C32 N31 1.244 1_565 S
H33 C36 0.929 . S
H34 C39 0.929 . S
H35 C41 0.930 . S
C36 H33 0.929 . S
C36 C37 1.398 . S
C36 C38 1.396 . S
C37 C36 1.398 . S
C37 C41 1.407 . S
C38 C36 1.396 . S
C38 C39 1.394 . S
C39 H34 0.929 . S
C39 C38 1.394 . S
C39 C40 1.382 . S
C40 C39 1.382 . S
C40 C41 1.392 . S
C40 N42 1.420 . S
C41 H35 0.930 . S
C41 C37 1.407 . S
C41 C40 1.392 . S
N42 C40 1.420 . S
N42 C43 1.244 . S
C43 N42 1.244 . S
H44 C47 0.929 . S
H45 C50 0.929 . S
H46 C52 0.930 . S
C47 H44 0.929 . S
C47 C48 1.398 1_554 S
C47 C49 1.396 . S
C48 C47 1.398 1_556 S
C48 C52 1.407 . S
C49 C47 1.396 . S
C49 C50 1.394 . S
C50 H45 0.929 . S
C50 C49 1.394 . S
C50 C51 1.382 . S
C51 C50 1.382 . S
C51 C52 1.392 1_554 S
C51 N53 1.420 . S
C52 H46 0.930 . S
C52 C48 1.407 . S
C52 C51 1.392 1_556 S
N53 C51 1.420 . S
N53 C54 1.244 . S
C54 N53 1.244 . S
H55 C58 0.933 . S
H56 C61 0.929 . S
H57 C63 0.930 . S
C58 H55 0.933 . S
C58 C59 1.396 1_654 S
C58 C60 1.394 1_655 S
C59 C58 1.396 1_456 S
C59 C63 1.407 . S
C60 C58 1.394 1_455 S
C60 C61 1.394 . S
C61 H56 0.929 . S
C61 C60 1.394 . S
C61 C62 1.382 . S
C62 C61 1.382 . S
C62 C63 1.392 1_554 S
C62 N64 1.420 . S
C63 H57 0.930 . S
C63 C59 1.407 . S
C63 C62 1.392 1_556 S
N64 C62 1.420 . S
N64 C65 1.262 . S
C65 N64 1.262 . S
H66 C69 0.935 . S
H67 C72 0.929 . S
H68 C74 0.930 . S
C69 H66 0.935 . S
C69 C70 1.396 1_564 S
C69 C71 1.394 1_565 S
C70 C69 1.396 1_546 S
C70 C74 1.407 . S
C71 C69 1.394 1_545 S
C71 C72 1.394 . S
C72 H67 0.929 . S
C72 C71 1.394 . S
C72 C73 1.382 . S
C73 C72 1.382 . S
C73 C74 1.392 1_554 S
C73 N75 1.420 . S
C74 H68 0.930 . S
C74 C70 1.407 . S
C74 C73 1.392 1_556 S
N75 C73 1.420 . S
N75 C76 1.259 . S
C76 N75 1.259 . S
H77 C80 0.929 . S
H78 C83 0.929 . S
H79 C85 0.930 . S
C80 H77 0.929 . S
C80 C81 1.398 1_554 S
C80 C82 1.396 . S
C81 C80 1.398 1_556 S
C81 C85 1.407 . S
C82 C80 1.396 . S
C82 C83 1.394 . S
C83 H78 0.929 . S
C83 C82 1.394 . S
C83 C84 1.382 . S
C84 C83 1.382 . S
C84 C85 1.392 1_554 S
C84 N86 1.420 . S
C85 H79 0.930 . S
C85 C81 1.407 . S
C85 C84 1.392 1_556 S
N86 C84 1.420 . S
N86 C87 1.244 . S
C87 N86 1.244 . S
La88 C90 2.928 . S
La88 O108 2.521 . S
La88 O109 2.628 . S
La88 O110 2.554 . S
La88 O111 2.757 1_565 S
La88 O112 2.470 . S
La88 O117 2.482 1_455 S
La88 O119 2.503 1_565 S
La89 C99 2.928 . S
La89 O111 2.482 1_655 S
La89 O113 2.503 1_545 S
La89 O114 2.521 . S
La89 O115 2.626 1_655 S
La89 O116 2.554 . S
La89 O117 2.757 1_545 S
La89 O118 2.470 . S
C90 La88 2.928 . S
C90 C91 1.503 . S
C90 O108 1.261 . S
C90 O109 1.243 . S
C91 C90 1.503 . S
C91 C92 1.394 . S
C91 C96 1.373 . S
C92 C91 1.394 . S
C92 C93 1.380 . S
C92 H120 0.930 . S
C93 C92 1.380 . S
C93 C94 1.376 . S
C93 H121 0.930 . S
C94 C93 1.376 . S
C94 C95 1.370 . S
C95 C94 1.370 . S
C95 C96 1.396 . S
C95 H122 0.929 1_455 S
C96 C91 1.373 . S
C96 C95 1.396 . S
C96 H123 0.929 1_455 S
C97 O110 1.264 . S
C97 O111 1.275 1_565 S
C98 O112 1.258 1_655 S
C98 O113 1.256 . S
C99 La89 2.928 . S
C99 C100 1.503 . S
C99 O114 1.261 . S
C99 O115 1.238 1_655 S
C100 C99 1.503 . S
C100 C101 1.394 . S
C100 C105 1.373 . S
C101 C100 1.394 . S
C101 C102 1.380 . S
C101 H124 0.930 . S
C102 C101 1.380 . S
C102 C103 1.376 . S
C102 H125 0.930 . S
C103 C102 1.376 . S
C103 C104 1.370 . S
C104 C103 1.370 . S
C104 C105 1.396 . S
C104 H126 0.929 1_655 S
C105 C100 1.373 . S
C105 C104 1.396 . S
C105 H127 0.929 1_655 S
C106 O116 1.273 . S
C106 O117 1.270 1_545 S
C107 O118 1.258 1_455 S
C107 O119 1.256 . S
O108 La88 2.521 . S
O108 C90 1.261 . S
O109 La88 2.628 . S
O109 C90 1.243 . S
O110 La88 2.554 . S
O110 C97 1.264 . S
O111 La88 2.757 1_545 S
O111 La89 2.482 1_455 S
O111 C97 1.275 1_545 S
O112 La88 2.470 . S
O112 C98 1.258 1_455 S
O113 La89 2.503 1_565 S
O113 C98 1.256 . S
O114 La89 2.521 . S
O114 C99 1.261 . S
O115 La89 2.626 1_455 S
O115 C99 1.238 1_455 S
O116 La89 2.554 . S
O116 C106 1.273 . S
O117 La88 2.482 1_655 S
O117 La89 2.757 1_565 S
O117 C106 1.270 1_565 S
O118 La89 2.470 . S
O118 C107 1.258 1_655 S
O119 La88 2.503 1_545 S
O119 C107 1.256 . S
H120 C92 0.930 . S
H121 C93 0.930 . S
H122 C95 0.929 1_655 S
H123 C96 0.929 1_655 S
H124 C101 0.930 . S
H125 C102 0.930 . S
H126 C104 0.929 1_455 S
H127 C105 0.929 1_455 S
La128 C130 2.928 . S
La128 O148 2.521 . S
La128 O149 2.627 . S
La128 O150 2.554 . S
La128 O151 2.757 . S
La128 O152 2.470 . S
La128 O157 2.482 1_545 S
La128 O159 2.503 . S
La129 C139 2.928 . S
La129 O151 2.482 1_565 S
La129 O153 2.503 . S
La129 O154 2.521 . S
La129 O155 2.627 1_565 S
La129 O156 2.554 . S
La129 O157 2.757 . S
La129 O158 2.470 . S
C130 La128 2.928 . S
C130 C131 1.503 . S
C130 O148 1.261 . S
C130 O149 1.241 . S
C131 C130 1.503 . S
C131 C132 1.394 . S
C131 C136 1.373 . S
C132 C131 1.394 . S
C132 C133 1.380 . S
C132 H160 0.930 . S
C133 C132 1.380 . S
C133 C134 1.376 . S
C133 H161 0.930 . S
C134 C133 1.376 . S
C134 C135 1.370 . S
C135 C134 1.370 . S
C135 C136 1.396 . S
C135 H162 0.929 1_545 S
C136 C131 1.373 . S
C136 C135 1.396 . S
C136 H163 0.929 1_545 S
C137 O150 1.240 . S
C137 O151 1.289 . S
C138 O152 1.258 1_565 S
C138 O153 1.256 . S
C139 La129 2.928 . S
C139 C140 1.503 . S
C139 O154 1.261 . S
C139 O155 1.240 1_565 S
C140 C139 1.503 . S
C140 C141 1.394 . S
C140 C145 1.373 . S
C141 C140 1.394 . S
C141 C142 1.380 . S
C141 H164 0.930 . S
C142 C141 1.380 . S
C142 C143 1.376 . S
C142 H165 0.930 . S
C143 C142 1.376 . S
C143 C144 1.370 . S
C144 C143 1.370 . S
C144 C145 1.396 . S
C144 H166 0.929 1_565 S
C145 C140 1.373 . S
C145 C144 1.396 . S
C145 H167 0.929 1_565 S
C146 O156 1.240 . S
C146 O157 1.289 . S
C147 O158 1.258 1_545 S
C147 O159 1.256 . S
O148 La128 2.521 . S
O148 C130 1.261 . S
O149 La128 2.627 . S
O149 C130 1.241 . S
O150 La128 2.554 . S
O150 C137 1.240 . S
O151 La128 2.757 . S
O151 La129 2.482 1_545 S
O151 C137 1.289 . S
O152 La128 2.470 . S
O152 C138 1.258 1_545 S
O153 La129 2.503 . S
O153 C138 1.256 . S
O154 La129 2.521 . S
O154 C139 1.261 . S
O155 La129 2.627 1_545 S
O155 C139 1.240 1_545 S
O156 La129 2.554 . S
O156 C146 1.240 . S
O157 La128 2.482 1_565 S
O157 La129 2.757 . S
O157 C146 1.289 . S
O158 La129 2.470 . S
O158 C147 1.258 1_565 S
O159 La128 2.503 . S
O159 C147 1.256 . S
H160 C132 0.930 . S
H161 C133 0.930 . S
H162 C135 0.929 1_565 S
H163 C136 0.929 1_565 S
H164 C141 0.930 . S
H165 C142 0.930 . S
H166 C144 0.929 1_545 S
H167 C145 0.929 1_545 S
La168 C170 2.928 . S
La168 O188 2.521 . S
La168 O189 2.628 . S
La168 O190 2.554 . S
La168 O191 2.757 . S
La168 O192 2.470 . S
La168 O197 2.482 . S
La168 O199 2.503 . S
La169 C179 2.928 . S
La169 O191 2.482 . S
La169 O193 2.503 . S
La169 O194 2.521 . S
La169 O195 2.628 . S
La169 O196 2.554 . S
La169 O197 2.757 . S
La169 O198 2.470 . S
C170 La168 2.928 . S
C170 C171 1.503 . S
C170 O188 1.261 . S
C170 O189 1.243 . S
C171 C170 1.503 . S
C171 C172 1.394 . S
C171 C176 1.373 . S
C172 C171 1.394 . S
C172 C173 1.380 . S
C172 H200 0.930 . S
C173 C172 1.380 . S
C173 C174 1.376 . S
C173 H201 0.930 . S
C174 C173 1.376 . S
C174 C175 1.370 . S
C175 C174 1.370 . S
C175 C176 1.396 . S
C175 H202 0.929 . S
C176 C171 1.373 . S
C176 C175 1.396 . S
C176 H203 0.929 . S
C177 O190 1.240 . S
C177 O191 1.289 . S
C178 O192 1.258 . S
C178 O193 1.256 . S
C179 La169 2.928 . S
C179 C180 1.503 . S
C179 O194 1.261 . S
C179 O195 1.243 . S
C180 C179 1.503 . S
C180 C181 1.394 . S
C180 C185 1.373 . S
C181 C180 1.394 . S
C181 C182 1.380 . S
C181 H204 0.930 . S
C182 C181 1.380 . S
C182 C183 1.376 . S
C182 H205 0.930 . S
C183 C182 1.376 . S
C183 C184 1.370 . S
C184 C183 1.370 . S
C184 C185 1.396 . S
C184 H206 0.929 . S
C185 C180 1.373 . S
C185 C184 1.396 . S
C185 H207 0.929 . S
C186 O196 1.240 . S
C186 O197 1.289 . S
C187 O198 1.258 . S
C187 O199 1.256 . S
O188 La168 2.521 . S
O188 C170 1.261 . S
O189 La168 2.628 . S
O189 C170 1.243 . S
O190 La168 2.554 . S
O190 C177 1.240 . S
O191 La168 2.757 . S
O191 La169 2.482 . S
O191 C177 1.289 . S
O192 La168 2.470 . S
O192 C178 1.258 . S
O193 La169 2.503 . S
O193 C178 1.256 . S
O194 La169 2.521 . S
O194 C179 1.261 . S
O195 La169 2.628 . S
O195 C179 1.243 . S
O196 La169 2.554 . S
O196 C186 1.240 . S
O197 La168 2.482 . S
O197 La169 2.757 . S
O197 C186 1.289 . S
O198 La169 2.470 . S
O198 C187 1.258 . S
O199 La168 2.503 . S
O199 C187 1.256 . S
H200 C172 0.930 . S
H201 C173 0.930 . S
H202 C175 0.929 . S
H203 C176 0.929 . S
H204 C181 0.930 . S
H205 C182 0.930 . S
H206 C184 0.929 . S
H207 C185 0.929 . S
La208 C210 2.928 . S
La208 O228 2.521 . S
La208 O229 2.628 . S
La208 O230 2.554 . S
La208 O231 2.757 1_655 S
La208 O232 2.470 . S
La208 O237 2.482 . S
La208 O239 2.503 1_655 S
La209 C219 2.928 . S
La209 O231 2.482 . S
La209 O233 2.503 1_455 S
La209 O234 2.521 . S
La209 O235 2.628 . S
La209 O236 2.554 . S
La209 O237 2.757 1_455 S
La209 O238 2.470 . S
C210 La208 2.928 . S
C210 C211 1.503 . S
C210 O228 1.261 . S
C210 O229 1.243 . S
C211 C210 1.503 . S
C211 C212 1.394 . S
C211 C216 1.373 . S
C212 C211 1.394 . S
C212 C213 1.380 . S
C212 H240 0.930 . S
C213 C212 1.380 . S
C213 C214 1.376 . S
C213 H241 0.930 . S
C214 C213 1.376 . S
C214 C215 1.370 . S
C215 C214 1.370 . S
C215 C216 1.396 . S
C215 H242 0.929 . S
C216 C211 1.373 . S
C216 C215 1.396 . S
C216 H243 0.929 . S
C217 O230 1.263 . S
C217 O231 1.276 1_655 S
C218 O232 1.258 . S
C218 O233 1.256 . S
C219 La209 2.928 . S
C219 C220 1.503 . S
C219 O234 1.261 . S
C219 O235 1.243 . S
C220 C219 1.503 . S
C220 C221 1.394 . S
C220 C225 1.373 . S
C221 C220 1.394 . S
C221 C222 1.380 . S
C221 H244 0.930 . S
C222 C221 1.380 . S
C222 C223 1.376 . S
C222 H245 0.930 . S
C223 C222 1.376 . S
C223 C224 1.370 . S
C224 C223 1.370 . S
C224 C225 1.396 . S
C224 H246 0.929 . S
C225 C220 1.373 . S
C225 C224 1.396 . S
C225 H247 0.929 . S
C226 O236 1.273 . S
C226 O237 1.270 1_455 S
C227 O238 1.258 . S
C227 O239 1.256 . S
O228 La208 2.521 . S
O228 C210 1.261 . S
O229 La208 2.628 . S
O229 C210 1.243 . S
O230 La208 2.554 . S
O230 C217 1.263 . S
O231 La208 2.757 1_455 S
O231 La209 2.482 . S
O231 C217 1.276 1_455 S
O232 La208 2.470 . S
O232 C218 1.258 . S
O233 La209 2.503 1_655 S
O233 C218 1.256 . S
O234 La209 2.521 . S
O234 C219 1.261 . S
O235 La209 2.628 . S
O235 C219 1.243 . S
O236 La209 2.554 . S
O236 C226 1.273 . S
O237 La208 2.482 . S
O237 La209 2.757 1_655 S
O237 C226 1.270 1_655 S
O238 La209 2.470 . S
O238 C227 1.258 . S
O239 La208 2.503 1_455 S
O239 C227 1.256 . S
H240 C212 0.930 . S
H241 C213 0.930 . S
H242 C215 0.929 . S
H243 C216 0.929 . S
H244 C221 0.930 . S
H245 C222 0.930 . S
H246 C224 0.929 . S
H247 C225 0.929 . S
C248 C249 1.349 . S
C248 C250 1.327 . S
C248 H273 0.950 . S
C249 C248 1.349 . S
C249 C265 1.349 1_545 S
C250 C248 1.327 . S
C250 C269 1.429 . S
C250 H274 0.950 . S
C251 C268 1.574 . S
C251 C270 1.368 1_565 S
C251 H275 0.949 . S
H252 C256 0.949 . S
C253 C254 1.349 1_565 S
C253 C255 1.327 . S
C253 H276 0.950 . S
C254 C253 1.349 1_545 S
C254 C266 1.349 . S
C255 C253 1.327 . S
C255 C271 1.429 1_565 S
C255 H277 0.950 . S
C256 H252 0.949 . S
C256 C264 1.574 . S
C256 C272 1.368 . S
H257 C265 0.950 . S
H258 C263 0.950 . S
H259 C264 0.949 . S
H260 C266 0.950 . S
H261 C267 0.950 . S
H262 C268 0.949 . S
C263 H258 0.950 . S
C263 C265 1.327 . S
C263 C269 1.429 1_565 S
C264 C256 1.574 . S
C264 H259 0.949 . S
C264 C270 1.368 . S
C265 C249 1.349 1_565 S
C265 H257 0.950 . S
C265 C263 1.327 . S
C266 C254 1.349 . S
C266 H260 0.950 . S
C266 C267 1.327 . S
C267 H261 0.950 . S
C267 C266 1.327 . S
C267 C271 1.429 . S
C268 C251 1.574 . S
C268 H262 0.949 . S
C268 C272 1.368 1_565 S
C269 C250 1.429 . S
C269 C263 1.429 1_545 S
C269 C270 1.523 . S
C270 C251 1.368 1_545 S
C270 C264 1.368 . S
C270 C269 1.523 . S
C271 C255 1.429 1_545 S
C271 C267 1.429 . S
C271 C272 1.523 . S
C272 C256 1.368 . S
C272 C268 1.368 1_545 S
C272 C271 1.523 . S
H273 C248 0.950 . S
H274 C250 0.950 . S
H275 C251 0.949 . S
H276 C253 0.950 . S
H277 C255 0.950 . S
C278 C279 1.349 . S
C278 C280 1.327 . S
C278 H303 0.950 . S
C279 C278 1.349 . S
C279 C295 1.349 . S
C280 C278 1.327 . S
C280 C299 1.429 . S
C280 H304 0.950 . S
C281 C298 1.574 . S
C281 C300 1.368 . S
C281 H305 0.949 . S
H282 C286 0.949 . S
C283 C284 1.349 . S
C283 C285 1.327 . S
C283 H306 0.950 . S
C284 C283 1.349 . S
C284 C296 1.349 . S
C285 C283 1.327 . S
C285 C301 1.429 . S
C285 H307 0.950 . S
C286 H282 0.949 . S
C286 C294 1.574 . S
C286 C302 1.368 . S
H287 C295 0.950 . S
H288 C293 0.950 . S
H289 C294 0.949 . S
H290 C296 0.950 . S
H291 C297 0.950 . S
H292 C298 0.949 . S
C293 H288 0.950 . S
C293 C295 1.327 . S
C293 C299 1.429 . S
C294 C286 1.574 . S
C294 H289 0.949 . S
C294 C300 1.368 . S
C295 C279 1.349 . S
C295 H287 0.950 . S
C295 C293 1.327 . S
C296 C284 1.349 . S
C296 H290 0.950 . S
C296 C297 1.327 . S
C297 H291 0.950 . S
C297 C296 1.327 . S
C297 C301 1.429 . S
C298 C281 1.574 . S
C298 H292 0.949 . S
C298 C302 1.368 . S
C299 C280 1.429 . S
C299 C293 1.429 . S
C299 C300 1.523 . S
C300 C281 1.368 . S
C300 C294 1.368 . S
C300 C299 1.523 . S
C301 C285 1.429 . S
C301 C297 1.429 . S
C301 C302 1.523 . S
C302 C286 1.368 . S
C302 C298 1.368 . S
C302 C301 1.523 . S
H303 C278 0.950 . S
H304 C280 0.950 . S
H305 C281 0.949 . S
H306 C283 0.950 . S
H307 C285 0.950 . S
C308 C309 1.349 . S
C308 C310 1.327 . S
C308 H333 0.950 . S
C309 C308 1.349 . S
C309 C325 1.349 . S
C310 C308 1.327 . S
C310 C329 1.429 . S
C310 H334 0.950 . S
C311 C328 1.574 . S
C311 C330 1.368 . S
C311 H335 0.949 . S
H312 C316 0.949 . S
C313 C314 1.349 . S
C313 C315 1.327 . S
C313 H336 0.950 . S
C314 C313 1.349 . S
C314 C326 1.349 . S
C315 C313 1.327 . S
C315 C331 1.429 . S
C315 H337 0.950 . S
C316 H312 0.949 . S
C316 C324 1.574 . S
C316 C332 1.368 . S
H317 C325 0.950 . S
H318 C323 0.950 . S
H319 C324 0.949 . S
H320 C326 0.950 . S
H321 C327 0.950 . S
H322 C328 0.949 . S
C323 H318 0.950 . S
C323 C325 1.327 . S
C323 C329 1.429 . S
C324 C316 1.574 . S
C324 H319 0.949 . S
C324 C330 1.368 . S
C325 C309 1.349 . S
C325 H317 0.950 . S
C325 C323 1.327 . S
C326 C314 1.349 . S
C326 H320 0.950 . S
C326 C327 1.327 . S
C327 H321 0.950 . S
C327 C326 1.327 . S
C327 C331 1.429 . S
C328 C311 1.574 . S
C328 H322 0.949 . S
C328 C332 1.368 . S
C329 C310 1.429 . S
C329 C323 1.429 . S
C329 C330 1.523 . S
C330 C311 1.368 . S
C330 C324 1.368 . S
C330 C329 1.523 . S
C331 C315 1.429 . S
C331 C327 1.429 . S
C331 C332 1.523 . S
C332 C316 1.368 . S
C332 C328 1.368 . S
C332 C331 1.523 . S
H333 C308 0.950 . S
H334 C310 0.950 . S
H335 C311 0.949 . S
H336 C313 0.950 . S
H337 C315 0.950 . S
C338 C339 1.349 . S
C338 C340 1.327 . S
C338 H363 0.950 . S
C339 C338 1.349 . S
C339 C355 1.349 1_455 S
C340 C338 1.327 . S
C340 C359 1.429 . S
C340 H364 0.950 . S
C341 C358 1.574 . S
C341 C360 1.368 1_655 S
C341 H365 0.949 . S
H342 C346 0.949 . S
C343 C344 1.349 1_655 S
C343 C345 1.327 . S
C343 H366 0.950 . S
C344 C343 1.349 1_455 S
C344 C356 1.349 . S
C345 C343 1.327 . S
C345 C361 1.429 1_655 S
C345 H367 0.950 . S
C346 H342 0.949 . S
C346 C354 1.574 . S
C346 C362 1.368 . S
H347 C355 0.950 . S
H348 C353 0.950 . S
H349 C354 0.949 . S
H350 C356 0.950 . S
H351 C357 0.950 . S
H352 C358 0.949 . S
C353 H348 0.950 . S
C353 C355 1.327 . S
C353 C359 1.429 1_655 S
C354 C346 1.574 . S
C354 H349 0.949 . S
C354 C360 1.368 . S
C355 C339 1.349 1_655 S
C355 H347 0.950 . S
C355 C353 1.327 . S
C356 C344 1.349 . S
C356 H350 0.950 . S
C356 C357 1.327 . S
C357 H351 0.950 . S
C357 C356 1.327 . S
C357 C361 1.429 . S
C358 C341 1.574 . S
C358 H352 0.949 . S
C358 C362 1.368 1_655 S
C359 C340 1.429 . S
C359 C353 1.429 1_455 S
C359 C360 1.523 . S
C360 C341 1.368 1_455 S
C360 C354 1.368 . S
C360 C359 1.523 . S
C361 C345 1.429 1_455 S
C361 C357 1.429 . S
C361 C362 1.523 . S
C362 C346 1.368 . S
C362 C358 1.368 1_455 S
C362 C361 1.523 . S
H363 C338 0.950 . S
H364 C340 0.950 . S
H365 C341 0.949 . S
H366 C343 0.950 . S
H367 C345 0.950 . S
C368 C369 1.316 1_545 S
C368 C370 1.327 . S
C368 H393 0.950 . S
C369 C368 1.316 1_565 S
C369 C385 1.383 . S
C370 C368 1.327 . S
C370 C389 1.392 1_545 S
C370 H394 0.950 . S
C371 C388 1.574 1_554 S
C371 C390 1.412 . S
C371 H395 0.949 . S
H372 C376 0.949 . S
C373 C374 1.349 . S
C373 C375 1.327 . S
C373 H396 0.950 . S
C374 C373 1.349 . S
C374 C386 1.349 1_565 S
C375 C373 1.327 . S
C375 C391 1.429 . S
C375 H397 0.950 . S
C376 H372 0.949 . S
C376 C384 1.574 . S
C376 C392 1.377 1_545 S
H377 C385 0.950 . S
H378 C383 0.950 . S
H379 C384 0.949 . S
H380 C386 0.950 . S
H381 C387 0.950 . S
H382 C388 0.949 . S
C383 H378 0.950 . S
C383 C385 1.327 . S
C383 C389 1.466 . S
C384 C376 1.574 . S
C384 H379 0.949 . S
C384 C390 1.326 1_545 S
C385 C369 1.383 . S
C385 H377 0.950 . S
C385 C383 1.327 . S
C386 C374 1.349 1_545 S
C386 H380 0.950 . S
C386 C387 1.327 . S
C387 H381 0.950 . S
C387 C386 1.327 . S
C387 C391 1.429 1_545 S
C388 C371 1.574 1_556 S
C388 H382 0.949 . S
C388 C392 1.367 1_556 S
C389 C370 1.392 1_565 S
C389 C383 1.466 . S
C389 C390 1.523 . S
C390 C371 1.412 . S
C390 C384 1.326 1_565 S
C390 C389 1.523 . S
C391 C375 1.429 . S
C391 C387 1.429 1_565 S
C391 C392 1.514 1_556 S
C392 C376 1.377 1_565 S
C392 C388 1.367 1_554 S
C392 C391 1.514 1_554 S
H393 C368 0.950 . S
H394 C370 0.950 . S
H395 C371 0.949 . S
H396 C373 0.950 . S
H397 C375 0.950 . S
C398 C399 1.349 . S
C398 C400 1.327 . S
C398 H423 0.950 . S
C399 C398 1.349 . S
C399 C415 1.349 . S
C400 C398 1.327 . S
C400 C419 1.429 . S
C400 H424 0.950 . S
C401 C418 1.574 1_554 S
C401 C420 1.368 . S
C401 H425 0.949 . S
H402 C406 0.949 . S
C403 C404 1.349 . S
C403 C405 1.327 . S
C403 H426 0.950 . S
C404 C403 1.349 . S
C404 C416 1.349 . S
C405 C403 1.327 . S
C405 C421 1.429 . S
C405 H427 0.950 . S
C406 H402 0.949 . S
C406 C414 1.574 . S
C406 C422 1.378 . S
H407 C415 0.950 . S
H408 C413 0.950 . S
H409 C414 0.949 . S
H410 C416 0.950 . S
H411 C417 0.950 . S
H412 C418 0.949 . S
C413 H408 0.950 . S
C413 C415 1.327 . S
C413 C419 1.429 . S
C414 C406 1.574 . S
C414 H409 0.949 . S
C414 C420 1.368 . S
C415 C399 1.349 . S
C415 H407 0.950 . S
C415 C413 1.327 . S
C416 C404 1.349 . S
C416 H410 0.950 . S
C416 C417 1.327 . S
C417 H411 0.950 . S
C417 C416 1.327 . S
C417 C421 1.429 . S
C418 C401 1.574 1_556 S
C418 H412 0.949 . S
C418 C422 1.366 1_556 S
C419 C400 1.429 . S
C419 C413 1.429 . S
C419 C420 1.523 . S
C420 C401 1.368 . S
C420 C414 1.368 . S
C420 C419 1.523 . S
C421 C405 1.429 . S
C421 C417 1.429 . S
C421 C422 1.514 1_556 S
C422 C406 1.378 . S
C422 C418 1.366 1_554 S
C422 C421 1.514 1_554 S
H423 C398 0.950 . S
H424 C400 0.950 . S
H425 C401 0.949 . S
H426 C403 0.950 . S
H427 C405 0.950 . S
C428 C429 1.349 . S
C428 C430 1.327 . S
C428 H453 0.950 . S
C429 C428 1.349 . S
C429 C445 1.349 . S
C430 C428 1.327 . S
C430 C449 1.429 . S
C430 H454 0.950 . S
C431 C448 1.574 1_554 S
C431 C450 1.368 . S
C431 H455 0.949 . S
H432 C436 0.949 . S
C433 C434 1.349 . S
C433 C435 1.327 . S
C433 H456 0.950 . S
C434 C433 1.349 . S
C434 C446 1.349 . S
C435 C433 1.327 . S
C435 C451 1.429 . S
C435 H457 0.950 . S
C436 H432 0.949 . S
C436 C444 1.574 . S
C436 C452 1.376 . S
H437 C445 0.950 . S
H438 C443 0.950 . S
H439 C444 0.949 . S
H440 C446 0.950 . S
H441 C447 0.950 . S
H442 C448 0.949 . S
C443 H438 0.950 . S
C443 C445 1.327 . S
C443 C449 1.429 . S
C444 C436 1.574 . S
C444 H439 0.949 . S
C444 C450 1.368 . S
C445 C429 1.349 . S
C445 H437 0.950 . S
C445 C443 1.327 . S
C446 C434 1.349 . S
C446 H440 0.950 . S
C446 C447 1.327 . S
C447 H441 0.950 . S
C447 C446 1.327 . S
C447 C451 1.429 . S
C448 C431 1.574 1_556 S
C448 H442 0.949 . S
C448 C452 1.367 1_556 S
C449 C430 1.429 . S
C449 C443 1.429 . S
C449 C450 1.523 . S
C450 C431 1.368 . S
C450 C444 1.368 . S
C450 C449 1.523 . S
C451 C435 1.429 . S
C451 C447 1.429 . S
C451 C452 1.515 1_556 S
C452 C436 1.376 . S
C452 C448 1.367 1_554 S
C452 C451 1.515 1_554 S
H453 C428 0.950 . S
H454 C430 0.950 . S
H455 C431 0.949 . S
H456 C433 0.950 . S
H457 C435 0.950 . S
C458 C459 1.386 . S
C458 C460 1.327 . S
C458 H483 0.950 . S
C459 C458 1.386 . S
C459 C475 1.313 1_655 S
C460 C458 1.327 . S
C460 C479 1.469 . S
C460 H484 0.950 . S
C461 C478 1.574 . S
C461 C480 1.322 1_455 S
C461 H485 0.949 . S
H462 C466 0.949 . S
C463 C464 1.349 1_455 S
C463 C465 1.327 . S
C463 H486 0.950 . S
C464 C463 1.349 1_655 S
C464 C476 1.349 . S
C465 C463 1.327 . S
C465 C481 1.429 1_455 S
C465 H487 0.950 . S
C466 H462 0.949 . S
C466 C474 1.574 1_556 S
C466 C482 1.368 1_556 S
H467 C475 0.950 . S
H468 C473 0.950 . S
H469 C474 0.949 . S
H470 C476 0.950 . S
H471 C477 0.950 . S
H472 C478 0.949 . S
C473 H468 0.950 . S
C473 C475 1.327 . S
C473 C479 1.389 1_455 S
C474 C466 1.574 1_554 S
C474 H469 0.949 . S
C474 C480 1.415 . S
C475 C459 1.313 1_455 S
C475 H467 0.950 . S
C475 C473 1.327 . S
C476 C464 1.349 . S
C476 H470 0.950 . S
C476 C477 1.327 . S
C477 H471 0.950 . S
C477 C476 1.327 . S
C477 C481 1.429 . S
C478 C461 1.574 . S
C478 H472 0.949 . S
C478 C482 1.376 1_455 S
C479 C460 1.469 . S
C479 C473 1.389 1_655 S
C479 C480 1.523 . S
C480 C461 1.322 1_655 S
C480 C474 1.415 . S
C480 C479 1.523 . S
C481 C465 1.429 1_655 S
C481 C477 1.429 . S
C481 C482 1.514 1_556 S
C482 C466 1.368 1_554 S
C482 C478 1.376 1_655 S
C482 C481 1.514 1_554 S
H483 C458 0.950 . S
H484 C460 0.950 . S
H485 C461 0.949 . S
H486 C463 0.950 . S
H487 C465 0.950 . S
C488 C489 1.349 . S
C488 C490 1.327 . S
C488 H513 0.950 . S
C489 C488 1.349 . S
C489 C505 1.349 1_455 S
C490 C488 1.327 . S
C490 C509 1.429 1_455 S
C490 H514 0.950 . S
C491 C508 1.574 . S
C491 C510 1.368 . S
C491 H515 0.949 . S
H492 C496 0.949 . S
C493 C494 1.349 . S
C493 C495 1.327 . S
C493 H516 0.950 . S
C494 C493 1.349 . S
C494 C506 1.349 . S
C495 C493 1.327 . S
C495 C511 1.429 . S
C495 H517 0.950 . S
C496 H492 0.949 . S
C496 C504 1.574 . S
C496 C512 1.368 1_455 S
H497 C505 0.950 . S
H498 C503 0.950 . S
H499 C504 0.949 . S
H500 C506 0.950 . S
H501 C507 0.950 1_455 S
H502 C508 0.949 . S
C503 H498 0.950 . S
C503 C505 1.327 . S
C503 C509 1.429 . S
C504 C496 1.574 . S
C504 H499 0.949 . S
C504 C510 1.368 1_455 S
C505 C489 1.349 1_655 S
C505 H497 0.950 . S
C505 C503 1.327 . S
C506 C494 1.349 . S
C506 H500 0.950 . S
C506 C507 1.327 . S
C507 H501 0.950 1_655 S
C507 C506 1.327 . S
C507 C511 1.429 . S
C508 C491 1.574 . S
C508 H502 0.949 . S
C508 C512 1.368 . S
C509 C490 1.429 1_655 S
C509 C503 1.429 . S
C509 C510 1.523 . S
C510 C491 1.368 . S
C510 C504 1.368 1_655 S
C510 C509 1.523 . S
C511 C495 1.429 . S
C511 C507 1.429 . S
C511 C512 1.523 . S
C512 C496 1.368 1_655 S
C512 C508 1.368 . S
C512 C511 1.523 . S
H513 C488 0.950 . S
H514 C490 0.950 . S
H515 C491 0.949 . S
H516 C493 0.950 . S
H517 C495 0.950 . S
C518 C519 1.349 1_565 S
C518 C520 1.327 . S
C518 H543 0.950 . S
C519 C518 1.349 1_545 S
C519 C535 1.349 . S
C520 C518 1.327 . S
C520 C539 1.429 . S
C520 H544 0.950 . S
C521 C538 1.568 1_545 S
C521 C540 1.368 1_545 S
C521 H545 0.949 . S
H522 C526 0.949 . S
C523 C524 1.349 . S
C523 C525 1.327 . S
C523 H546 0.950 . S
C524 C523 1.349 . S
C524 C536 1.349 . S
C525 C523 1.327 . S
C525 C541 1.429 . S
C525 H547 0.950 1_565 S
C526 H522 0.949 . S
C526 C534 1.574 . S
C526 C542 1.368 . S
H527 C535 0.950 . S
H528 C533 0.950 . S
H529 C534 0.949 . S
H530 C536 0.950 . S
H531 C537 0.950 . S
H532 C538 0.931 1_545 S
C533 H528 0.950 . S
C533 C535 1.327 . S
C533 C539 1.429 1_545 S
C534 C526 1.574 . S
C534 H529 0.949 . S
C534 C540 1.368 . S
C535 C519 1.349 . S
C535 H527 0.950 . S
C535 C533 1.327 . S
C536 C524 1.349 . S
C536 H530 0.950 . S
C536 C537 1.327 . S
C537 H531 0.950 . S
C537 C536 1.327 . S
C537 C541 1.429 . S
C538 C521 1.568 1_565 S
C538 H532 0.931 1_565 S
C538 C542 1.396 . S
C539 C520 1.429 . S
C539 C533 1.429 1_565 S
C539 C540 1.523 . S
C540 C521 1.368 1_565 S
C540 C534 1.368 . S
C540 C539 1.523 . S
C541 C525 1.429 . S
C541 C537 1.429 . S
C541 C542 1.523 . S
C542 C526 1.368 . S
C542 C538 1.396 . S
C542 C541 1.523 . S
H543 C518 0.950 . S
H544 C520 0.950 . S
H545 C521 0.949 . S
H546 C523 0.950 . S
H547 C525 0.950 1_545 S
C548 C549 1.349 . S
C548 C550 1.327 . S
C548 H573 0.950 . S
C549 C548 1.349 . S
C549 C565 1.349 . S
C550 C548 1.327 . S
C550 C569 1.429 . S
C550 H574 0.950 . S
C551 C568 1.574 . S
C551 C570 1.368 . S
C551 H575 0.949 . S
H552 C556 0.949 . S
C553 C554 1.349 . S
C553 C555 1.327 . S
C553 H576 0.950 . S
C554 C553 1.349 . S
C554 C566 1.349 . S
C555 C553 1.327 . S
C555 C571 1.429 . S
C555 H577 0.950 . S
C556 H552 0.949 . S
C556 C564 1.574 . S
C556 C572 1.368 . S
H557 C565 0.950 . S
H558 C563 0.950 . S
H559 C564 0.949 . S
H560 C566 0.950 . S
H561 C567 0.950 . S
H562 C568 0.949 . S
C563 H558 0.950 . S
C563 C565 1.327 . S
C563 C569 1.429 . S
C564 C556 1.574 . S
C564 H559 0.949 . S
C564 C570 1.368 . S
C565 C549 1.349 . S
C565 H557 0.950 . S
C565 C563 1.327 . S
C566 C554 1.349 . S
C566 H560 0.950 . S
C566 C567 1.327 . S
C567 H561 0.950 . S
C567 C566 1.327 . S
C567 C571 1.429 . S
C568 C551 1.574 . S
C568 H562 0.949 . S
C568 C572 1.368 . S
C569 C550 1.429 . S
C569 C563 1.429 . S
C569 C570 1.523 . S
C570 C551 1.368 . S
C570 C564 1.368 . S
C570 C569 1.523 . S
C571 C555 1.429 . S
C571 C567 1.429 . S
C571 C572 1.523 . S
C572 C556 1.368 . S
C572 C568 1.368 . S
C572 C571 1.523 . S
H573 C548 0.950 . S
H574 C550 0.950 . S
H575 C551 0.949 . S
H576 C553 0.950 . S
H577 C555 0.950 . S
C578 C579 1.349 . S
C578 C580 1.327 . S
C578 H603 0.950 . S
C579 C578 1.349 . S
C579 C595 1.349 . S
C580 C578 1.327 . S
C580 C599 1.429 . S
C580 H604 0.950 . S
C581 C598 1.574 . S
C581 C600 1.368 . S
C581 H605 0.949 . S
H582 C586 0.949 . S
C583 C584 1.349 . S
C583 C585 1.327 . S
C583 H606 0.950 . S
C584 C583 1.349 . S
C584 C596 1.349 . S
C585 C583 1.327 . S
C585 C601 1.429 . S
C585 H607 0.950 . S
C586 H582 0.949 . S
C586 C594 1.574 . S
C586 C602 1.368 . S
H587 C595 0.950 . S
H588 C593 0.950 . S
H589 C594 0.949 . S
H590 C596 0.950 . S
H591 C597 0.950 . S
H592 C598 0.949 . S
C593 H588 0.950 . S
C593 C595 1.327 . S
C593 C599 1.429 . S
C594 C586 1.574 . S
C594 H589 0.949 . S
C594 C600 1.368 . S
C595 C579 1.349 . S
C595 H587 0.950 . S
C595 C593 1.327 . S
C596 C584 1.349 . S
C596 H590 0.950 . S
C596 C597 1.327 . S
C597 H591 0.950 . S
C597 C596 1.327 . S
C597 C601 1.429 . S
C598 C581 1.574 . S
C598 H592 0.949 . S
C598 C602 1.368 . S
C599 C580 1.429 . S
C599 C593 1.429 . S
C599 C600 1.523 . S
C600 C581 1.368 . S
C600 C594 1.368 . S
C600 C599 1.523 . S
C601 C585 1.429 . S
C601 C597 1.429 . S
C601 C602 1.523 . S
C602 C586 1.368 . S
C602 C598 1.368 . S
C602 C601 1.523 . S
H603 C578 0.950 . S
H604 C580 0.950 . S
H605 C581 0.949 . S
H606 C583 0.950 . S
H607 C585 0.950 . S
C608 C609 1.348 1_455 S
C608 C610 1.329 . S
C608 H633 0.948 1_455 S
C609 C608 1.348 1_655 S
C609 C625 1.353 . S
C610 C608 1.329 . S
C610 C629 1.429 . S
C610 H634 0.950 . S
C611 C628 1.574 . S
C611 C630 1.368 . S
C611 H635 0.949 . S
H612 C616 0.949 . S
C613 C614 1.349 1_554 S
C613 C615 1.327 . S
C613 H636 0.950 . S
C614 C613 1.349 1_556 S
C614 C626 1.349 . S
C615 C613 1.327 . S
C615 C631 1.429 . S
C615 H637 0.950 . S
C616 H612 0.949 . S
C616 C624 1.574 . S
C616 C632 1.368 . S
H617 C625 0.957 . S
H618 C623 0.950 . S
H619 C624 0.949 . S
H620 C626 0.950 . S
H621 C627 0.950 . S
H622 C628 0.949 . S
C623 H618 0.950 . S
C623 C625 1.319 1_455 S
C623 C629 1.429 . S
C624 C616 1.574 . S
C624 H619 0.949 . S
C624 C630 1.368 . S
C625 C609 1.353 . S
C625 H617 0.957 . S
C625 C623 1.319 1_655 S
C626 C614 1.349 . S
C626 H620 0.950 . S
C626 C627 1.327 . S
C627 H621 0.950 . S
C627 C626 1.327 . S
C627 C631 1.429 1_556 S
C628 C611 1.574 . S
C628 H622 0.949 . S
C628 C632 1.368 . S
C629 C610 1.429 . S
C629 C623 1.429 . S
C629 C630 1.523 . S
C630 C611 1.368 . S
C630 C624 1.368 . S
C630 C629 1.523 . S
C631 C615 1.429 . S
C631 C627 1.429 1_554 S
C631 C632 1.523 . S
C632 C616 1.368 . S
C632 C628 1.368 . S
C632 C631 1.523 . S
H633 C608 0.948 1_655 S
H634 C610 0.950 . S
H635 C611 0.949 . S
H636 C613 0.950 . S
H637 C615 0.950 . S
C638 C639 1.349 . S
C638 C640 1.327 . S
C638 H663 0.950 . S
C639 C638 1.349 . S
C639 C655 1.349 1_565 S
C640 C638 1.327 . S
C640 C659 1.429 1_565 S
C640 H664 0.950 . S
C641 C658 1.574 . S
C641 C660 1.368 . S
C641 H665 0.949 . S
H642 C646 0.987 . S
C643 C644 1.349 . S
C643 C645 1.327 1_556 S
C643 H666 0.950 . S
C644 C643 1.349 . S
C644 C656 1.349 1_556 S
C645 C643 1.327 1_554 S
C645 C661 1.429 . S
C645 H667 0.950 . S
C646 H642 0.987 . S
C646 C654 1.585 . S
C646 C662 1.318 1_565 S
H647 C655 0.950 . S
H648 C653 0.950 . S
H649 C654 0.949 . S
H650 C656 0.950 . S
H651 C657 0.950 1_565 S
H652 C658 0.949 . S
C653 H648 0.950 . S
C653 C655 1.327 . S
C653 C659 1.429 . S
C654 C646 1.585 . S
C654 H649 0.949 . S
C654 C660 1.368 1_565 S
C655 C639 1.349 1_545 S
C655 H647 0.950 . S
C655 C653 1.327 . S
C656 C644 1.349 1_554 S
C656 H650 0.950 . S
C656 C657 1.327 . S
C657 H651 0.950 1_545 S
C657 C656 1.327 . S
C657 C661 1.429 . S
C658 C641 1.574 . S
C658 H652 0.949 . S
C658 C662 1.368 . S
C659 C640 1.429 1_545 S
C659 C653 1.429 . S
C659 C660 1.523 . S
C660 C641 1.368 . S
C660 C654 1.368 1_545 S
C660 C659 1.523 . S
C661 C645 1.429 . S
C661 C657 1.429 . S
C661 C662 1.523 . S
C662 C646 1.318 1_545 S
C662 C658 1.368 . S
C662 C661 1.523 . S
H663 C638 0.950 . S
H664 C640 0.950 . S
H665 C641 0.949 . S
H666 C643 0.950 . S
H667 C645 0.950 . S
C668 C669 1.349 . S
C668 C670 1.327 . S
C668 H693 0.950 . S
C669 C668 1.349 . S
C669 C685 1.349 . S
C670 C668 1.327 . S
C670 C689 1.429 . S
C670 H694 0.950 . S
C671 C688 1.574 . S
C671 C690 1.368 . S
C671 H695 0.949 . S
H672 C676 0.949 . S
C673 C674 1.349 1_554 S
C673 C675 1.327 . S
C673 H696 0.950 . S
C674 C673 1.349 1_556 S
C674 C686 1.349 . S
C675 C673 1.327 . S
C675 C691 1.429 . S
C675 H697 0.950 . S
C676 H672 0.949 . S
C676 C684 1.574 . S
C676 C692 1.368 . S
H677 C685 0.950 . S
H678 C683 0.950 . S
H679 C684 0.949 . S
H680 C686 0.950 . S
H681 C687 0.950 . S
H682 C688 0.949 . S
C683 H678 0.950 . S
C683 C685 1.327 . S
C683 C689 1.429 . S
C684 C676 1.574 . S
C684 H679 0.949 . S
C684 C690 1.368 . S
C685 C669 1.349 . S
C685 H677 0.950 . S
C685 C683 1.327 . S
C686 C674 1.349 . S
C686 H680 0.950 . S
C686 C687 1.327 . S
C687 H681 0.950 . S
C687 C686 1.327 . S
C687 C691 1.429 1_556 S
C688 C671 1.574 . S
C688 H682 0.949 . S
C688 C692 1.368 . S
C689 C670 1.429 . S
C689 C683 1.429 . S
C689 C690 1.523 . S
C690 C671 1.368 . S
C690 C684 1.368 . S
C690 C689 1.523 . S
C691 C675 1.429 . S
C691 C687 1.429 1_554 S
C691 C692 1.523 . S
C692 C676 1.368 . S
C692 C688 1.368 . S
C692 C691 1.523 . S
H693 C668 0.950 . S
H694 C670 0.950 . S
H695 C671 0.949 . S
H696 C673 0.950 . S
H697 C675 0.950 . S
C698 C699 1.349 . S
C698 C700 1.327 . S
C698 H723 0.950 . S
C699 C698 1.349 . S
C699 C715 1.349 . S
C700 C698 1.327 . S
C700 C719 1.429 . S
C700 H724 0.950 . S
C701 C718 1.574 . S
C701 C720 1.368 . S
C701 H725 0.949 . S
H702 C706 0.949 . S
C703 C704 1.349 1_554 S
C703 C705 1.327 . S
C703 H726 0.950 1_554 S
C704 C703 1.349 1_556 S
C704 C716 1.349 1_556 S
C705 C703 1.327 . S
C705 C721 1.429 . S
C705 H727 0.950 . S
C706 H702 0.949 . S
C706 C714 1.574 . S
C706 C722 1.368 . S
H707 C715 0.950 . S
H708 C713 0.950 . S
H709 C714 0.949 . S
H710 C716 0.950 1_556 S
H711 C717 0.950 . S
H712 C718 0.949 . S
C713 H708 0.950 . S
C713 C715 1.327 . S
C713 C719 1.429 . S
C714 C706 1.574 . S
C714 H709 0.949 . S
C714 C720 1.368 . S
C715 C699 1.349 . S
C715 H707 0.950 . S
C715 C713 1.327 . S
C716 C704 1.349 1_554 S
C716 H710 0.950 1_554 S
C716 C717 1.327 . S
C717 H711 0.950 . S
C717 C716 1.327 . S
C717 C721 1.429 . S
C718 C701 1.574 . S
C718 H712 0.949 . S
C718 C722 1.368 . S
C719 C700 1.429 . S
C719 C713 1.429 . S
C719 C720 1.523 . S
C720 C701 1.368 . S
C720 C714 1.368 . S
C720 C719 1.523 . S
C721 C705 1.429 . S
C721 C717 1.429 . S
C721 C722 1.523 . S
C722 C706 1.368 . S
C722 C718 1.368 . S
C722 C721 1.523 . S
H723 C698 0.950 . S
H724 C700 0.950 . S
H725 C701 0.949 . S
H726 C703 0.950 1_556 S
H727 C705 0.950 . S
C728 C729 1.349 . S
C728 C730 1.327 . S
C728 H753 0.950 . S
C729 C728 1.349 . S
C729 C745 1.349 1_455 S
C730 C728 1.327 . S
C730 C749 1.429 . S
C730 H754 0.950 . S
C731 C748 1.574 . S
C731 C750 1.368 1_655 S
C731 H755 0.949 . S
H732 C736 0.949 . S
C733 C734 1.349 1_655 S
C733 C735 1.327 . S
C733 H756 0.950 . S
C734 C733 1.349 1_455 S
C734 C746 1.349 . S
C735 C733 1.327 . S
C735 C751 1.429 1_655 S
C735 H757 0.950 . S
C736 H732 0.949 . S
C736 C744 1.574 . S
C736 C752 1.368 . S
H737 C745 0.950 . S
H738 C743 0.950 . S
H739 C744 0.949 . S
H740 C746 0.950 . S
H741 C747 0.950 . S
H742 C748 0.949 . S
C743 H738 0.950 . S
C743 C745 1.327 . S
C743 C749 1.429 1_655 S
C744 C736 1.574 . S
C744 H739 0.949 . S
C744 C750 1.368 . S
C745 C729 1.349 1_655 S
C745 H737 0.950 . S
C745 C743 1.327 . S
C746 C734 1.349 . S
C746 H740 0.950 . S
C746 C747 1.327 . S
C747 H741 0.950 . S
C747 C746 1.327 . S
C747 C751 1.429 . S
C748 C731 1.574 . S
C748 H742 0.949 . S
C748 C752 1.368 1_655 S
C749 C730 1.429 . S
C749 C743 1.429 1_455 S
C749 C750 1.523 . S
C750 C731 1.368 1_455 S
C750 C744 1.368 . S
C750 C749 1.523 . S
C751 C735 1.429 1_455 S
C751 C747 1.429 . S
C751 C752 1.523 . S
C752 C736 1.368 . S
C752 C748 1.368 1_455 S
C752 C751 1.523 . S
H753 C728 0.950 . S
H754 C730 0.950 . S
H755 C731 0.949 . S
H756 C733 0.950 . S
H757 C735 0.950 . S
C758 C759 1.349 . S
C758 C760 1.327 . S
C758 H783 0.950 . S
C759 C758 1.349 . S
C759 C775 1.349 1_545 S
C760 C758 1.327 . S
C760 C779 1.429 . S
C760 H784 0.950 . S
C761 C778 1.577 . S
C761 C780 1.368 1_565 S
C761 H785 0.949 . S
H762 C766 0.949 . S
C763 C764 1.349 . S
C763 C765 1.327 . S
C763 H786 0.950 1_545 S
C764 C763 1.349 . S
C764 C776 1.349 . S
C765 C763 1.327 . S
C765 C781 1.429 . S
C765 H787 0.950 1_545 S
C766 H762 0.949 . S
C766 C774 1.574 . S
C766 C782 1.368 . S
H767 C775 0.950 . S
H768 C773 0.950 . S
H769 C774 0.949 . S
H770 C776 0.950 . S
H771 C777 0.950 . S
H772 C778 0.964 . S
C773 H768 0.950 . S
C773 C775 1.327 . S
C773 C779 1.429 1_565 S
C774 C766 1.574 . S
C774 H769 0.949 . S
C774 C780 1.368 . S
C775 C759 1.349 1_565 S
C775 H767 0.950 . S
C775 C773 1.327 . S
C776 C764 1.349 . S
C776 H770 0.950 . S
C776 C777 1.327 . S
C777 H771 0.950 . S
C777 C776 1.327 . S
C777 C781 1.429 . S
C778 C761 1.577 . S
C778 H772 0.964 . S
C778 C782 1.352 1_565 S
C779 C760 1.429 . S
C779 C773 1.429 1_545 S
C779 C780 1.523 . S
C780 C761 1.368 1_545 S
C780 C774 1.368 . S
C780 C779 1.523 . S
C781 C765 1.429 . S
C781 C777 1.429 . S
C781 C782 1.523 . S
C782 C766 1.368 . S
C782 C778 1.352 1_545 S
C782 C781 1.523 . S
H783 C758 0.950 . S
H784 C760 0.950 . S
H785 C761 0.949 . S
H786 C763 0.950 1_565 S
H787 C765 0.950 1_565 S
C788 C789 1.349 . S
C788 C790 1.327 . S
C788 H813 0.950 . S
C789 C788 1.349 . S
C789 C805 1.349 . S
C790 C788 1.327 . S
C790 C809 1.429 . S
C790 H814 0.950 . S
C791 C808 1.574 . S
C791 C810 1.368 . S
C791 H815 0.949 . S
H792 C796 0.949 . S
C793 C794 1.349 . S
C793 C795 1.327 . S
C793 H816 0.950 . S
C794 C793 1.349 . S
C794 C806 1.349 . S
C795 C793 1.327 . S
C795 C811 1.429 . S
C795 H817 0.950 . S
C796 H792 0.949 . S
C796 C804 1.574 . S
C796 C812 1.368 . S
H797 C805 0.950 1_554 S
H798 C803 0.950 . S
H799 C804 0.949 . S
H800 C806 0.950 . S
H801 C807 0.950 . S
H802 C808 0.949 . S
C803 H798 0.950 . S
C803 C805 1.327 . S
C803 C809 1.429 . S
C804 C796 1.574 . S
C804 H799 0.949 . S
C804 C810 1.368 . S
C805 C789 1.349 . S
C805 H797 0.950 1_556 S
C805 C803 1.327 . S
C806 C794 1.349 . S
C806 H800 0.950 . S
C806 C807 1.327 . S
C807 H801 0.950 . S
C807 C806 1.327 . S
C807 C811 1.429 . S
C808 C791 1.574 . S
C808 H802 0.949 . S
C808 C812 1.368 . S
C809 C790 1.429 . S
C809 C803 1.429 . S
C809 C810 1.523 . S
C810 C791 1.368 . S
C810 C804 1.368 . S
C810 C809 1.523 . S
C811 C795 1.429 . S
C811 C807 1.429 . S
C811 C812 1.523 . S
C812 C796 1.368 . S
C812 C808 1.368 . S
C812 C811 1.523 . S
H813 C788 0.950 . S
H814 C790 0.950 . S
H815 C791 0.949 . S
H816 C793 0.950 . S
H817 C795 0.950 . S
C818 C819 1.349 . S
C818 C820 1.327 . S
C818 H843 0.950 . S
C819 C818 1.349 . S
C819 C835 1.349 . S
C820 C818 1.327 . S
C820 C839 1.429 . S
C820 H844 0.950 . S
C821 C838 1.574 . S
C821 C840 1.368 . S
C821 H845 0.949 . S
H822 C826 0.949 . S
C823 C824 1.349 . S
C823 C825 1.327 . S
C823 H846 0.950 . S
C824 C823 1.349 . S
C824 C836 1.349 . S
C825 C823 1.327 . S
C825 C841 1.429 . S
C825 H847 0.950 . S
C826 H822 0.949 . S
C826 C834 1.574 . S
C826 C842 1.368 . S
H827 C835 0.950 . S
H828 C833 0.950 . S
H829 C834 0.949 . S
H830 C836 0.950 . S
H831 C837 0.950 . S
H832 C838 0.949 . S
C833 H828 0.950 . S
C833 C835 1.327 . S
C833 C839 1.429 . S
C834 C826 1.574 . S
C834 H829 0.949 . S
C834 C840 1.368 . S
C835 C819 1.349 . S
C835 H827 0.950 . S
C835 C833 1.327 . S
C836 C824 1.349 . S
C836 H830 0.950 . S
C836 C837 1.327 . S
C837 H831 0.950 . S
C837 C836 1.327 . S
C837 C841 1.429 . S
C838 C821 1.574 . S
C838 H832 0.949 . S
C838 C842 1.368 . S
C839 C820 1.429 . S
C839 C833 1.429 . S
C839 C840 1.523 . S
C840 C821 1.368 . S
C840 C834 1.368 . S
C840 C839 1.523 . S
C841 C825 1.429 . S
C841 C837 1.429 . S
C841 C842 1.523 . S
C842 C826 1.368 . S
C842 C838 1.368 . S
C842 C841 1.523 . S
H843 C818 0.950 . S
H844 C820 0.950 . S
H845 C821 0.949 . S
H846 C823 0.950 . S
H847 C825 0.950 . S
C848 C849 1.349 1_455 S
C848 C850 1.327 . S
C848 H873 0.950 . S
C849 C848 1.349 1_655 S
C849 C865 1.349 . S
C850 C848 1.327 . S
C850 C869 1.429 1_455 S
C850 H874 0.950 . S
C851 C868 1.574 . S
C851 C870 1.368 . S
C851 H875 0.949 . S
H852 C856 0.949 . S
C853 C854 1.349 . S
C853 C855 1.327 . S
C853 H876 0.950 . S
C854 C853 1.349 . S
C854 C866 1.349 1_655 S
C855 C853 1.327 . S
C855 C871 1.429 . S
C855 H877 0.950 . S
C856 H852 0.949 . S
C856 C864 1.574 . S
C856 C872 1.368 1_455 S
H857 C865 0.950 . S
H858 C863 0.950 . S
H859 C864 0.949 . S
H860 C866 0.950 . S
H861 C867 0.950 . S
H862 C868 0.949 . S
C863 H858 0.950 . S
C863 C865 1.327 . S
C863 C869 1.429 . S
C864 C856 1.574 . S
C864 H859 0.949 . S
C864 C870 1.368 1_455 S
C865 C849 1.349 . S
C865 H857 0.950 . S
C865 C863 1.327 . S
C866 C854 1.349 1_455 S
C866 H860 0.950 . S
C866 C867 1.327 . S
C867 H861 0.950 . S
C867 C866 1.327 . S
C867 C871 1.429 1_455 S
C868 C851 1.574 . S
C868 H862 0.949 . S
C868 C872 1.368 . S
C869 C850 1.429 1_655 S
C869 C863 1.429 . S
C869 C870 1.523 . S
C870 C851 1.368 . S
C870 C864 1.368 1_655 S
C870 C869 1.523 . S
C871 C855 1.429 . S
C871 C867 1.429 1_655 S
C871 C872 1.523 . S
C872 C856 1.368 1_655 S
C872 C868 1.368 . S
C872 C871 1.523 . S
H873 C848 0.950 . S
H874 C850 0.950 . S
H875 C851 0.949 . S
H876 C853 0.950 . S
H877 C855 0.950 . S
C878 C879 1.349 1_545 S
C878 C880 1.327 . S
C878 H903 0.950 . S
C879 C878 1.349 1_565 S
C879 C895 1.349 . S
C880 C878 1.327 . S
C880 C899 1.429 1_545 S
C880 H904 0.950 . S
C881 C898 1.574 . S
C881 C900 1.368 . S
C881 H905 0.949 . S
H882 C886 0.949 . S
C883 C884 1.349 . S
C883 C885 1.327 . S
C883 H906 0.950 . S
C884 C883 1.349 . S
C884 C896 1.349 1_565 S
C885 C883 1.327 . S
C885 C901 1.429 . S
C885 H907 0.950 . S
C886 H882 0.949 . S
C886 C894 1.574 . S
C886 C902 1.368 1_545 S
H887 C895 0.950 . S
H888 C893 0.950 . S
H889 C894 0.949 . S
H890 C896 0.950 . S
H891 C897 0.950 . S
H892 C898 0.949 . S
C893 H888 0.950 . S
C893 C895 1.327 . S
C893 C899 1.429 . S
C894 C886 1.574 . S
C894 H889 0.949 . S
C894 C900 1.368 1_545 S
C895 C879 1.349 . S
C895 H887 0.950 . S
C895 C893 1.327 . S
C896 C884 1.349 1_545 S
C896 H890 0.950 . S
C896 C897 1.327 . S
C897 H891 0.950 . S
C897 C896 1.327 . S
C897 C901 1.429 1_545 S
C898 C881 1.574 . S
C898 H892 0.949 . S
C898 C902 1.368 . S
C899 C880 1.429 1_565 S
C899 C893 1.429 . S
C899 C900 1.523 . S
C900 C881 1.368 . S
C900 C894 1.368 1_565 S
C900 C899 1.523 . S
C901 C885 1.429 . S
C901 C897 1.429 1_565 S
C901 C902 1.523 . S
C902 C886 1.368 1_565 S
C902 C898 1.368 . S
C902 C901 1.523 . S
H903 C878 0.950 . S
H904 C880 0.950 . S
H905 C881 0.949 . S
H906 C883 0.950 . S
H907 C885 0.950 . S
C908 C909 1.349 . S
C908 C910 1.327 . S
C908 H933 0.950 . S
C909 C908 1.349 . S
C909 C925 1.349 . S
C910 C908 1.327 . S
C910 C929 1.429 . S
C910 H934 0.950 . S
C911 C928 1.574 . S
C911 C930 1.368 . S
C911 H935 0.949 . S
H912 C916 0.949 . S
C913 C914 1.349 . S
C913 C915 1.327 . S
C913 H936 0.950 . S
C914 C913 1.349 . S
C914 C926 1.349 . S
C915 C913 1.327 . S
C915 C931 1.429 . S
C915 H937 0.950 . S
C916 H912 0.949 . S
C916 C924 1.574 . S
C916 C932 1.368 . S
H917 C925 0.950 . S
H918 C923 0.950 . S
H919 C924 0.949 . S
H920 C926 0.950 . S
H921 C927 0.950 . S
H922 C928 0.949 . S
C923 H918 0.950 . S
C923 C925 1.327 . S
C923 C929 1.429 . S
C924 C916 1.574 . S
C924 H919 0.949 . S
C924 C930 1.368 . S
C925 C909 1.349 . S
C925 H917 0.950 . S
C925 C923 1.327 . S
C926 C914 1.349 . S
C926 H920 0.950 . S
C926 C927 1.327 . S
C927 H921 0.950 . S
C927 C926 1.327 . S
C927 C931 1.429 . S
C928 C911 1.574 . S
C928 H922 0.949 . S
C928 C932 1.368 . S
C929 C910 1.429 . S
C929 C923 1.429 . S
C929 C930 1.523 . S
C930 C911 1.368 . S
C930 C924 1.368 . S
C930 C929 1.523 . S
C931 C915 1.429 . S
C931 C927 1.429 . S
C931 C932 1.523 . S
C932 C916 1.368 . S
C932 C928 1.368 . S
C932 C931 1.523 . S
H933 C908 0.950 . S
H934 C910 0.950 . S
H935 C911 0.949 . S
H936 C913 0.950 . S
H937 C915 0.950 . S
C938 C939 1.349 . S
C938 C940 1.327 . S
C938 H963 0.950 . S
C939 C938 1.349 . S
C939 C955 1.349 . S
C940 C938 1.327 . S
C940 C959 1.429 . S
C940 H964 0.950 . S
C941 C958 1.574 . S
C941 C960 1.368 . S
C941 H965 0.949 . S
H942 C946 0.949 . S
C943 C944 1.349 . S
C943 C945 1.327 . S
C943 H966 0.950 . S
C944 C943 1.349 . S
C944 C956 1.349 . S
C945 C943 1.327 . S
C945 C961 1.429 . S
C945 H967 0.950 . S
C946 H942 0.949 . S
C946 C954 1.574 . S
C946 C962 1.368 . S
H947 C955 0.950 . S
H948 C953 0.950 . S
H949 C954 0.949 . S
H950 C956 0.950 . S
H951 C957 0.950 . S
H952 C958 0.949 . S
C953 H948 0.950 . S
C953 C955 1.327 . S
C953 C959 1.429 . S
C954 C946 1.574 . S
C954 H949 0.949 . S
C954 C960 1.368 . S
C955 C939 1.349 . S
C955 H947 0.950 . S
C955 C953 1.327 . S
C956 C944 1.349 . S
C956 H950 0.950 . S
C956 C957 1.327 . S
C957 H951 0.950 . S
C957 C956 1.327 . S
C957 C961 1.429 . S
C958 C941 1.574 . S
C958 H952 0.949 . S
C958 C962 1.368 . S
C959 C940 1.429 . S
C959 C953 1.429 . S
C959 C960 1.523 . S
C960 C941 1.368 . S
C960 C954 1.368 . S
C960 C959 1.523 . S
C961 C945 1.429 . S
C961 C957 1.429 . S
C961 C962 1.523 . S
C962 C946 1.368 . S
C962 C958 1.368 . S
C962 C961 1.523 . S
H963 C938 0.950 . S
H964 C940 0.950 . S
H965 C941 0.949 . S
H966 C943 0.950 . S
H967 C945 0.950 . S
C249 C76 1.744 . S
C254 C97 1.822 1_545 S
C284 C137 1.825 . S
C279 C87 1.743 . S
C314 C177 1.825 . S
C309 C54 1.743 . S
C344 C217 1.822 1_455 S
C339 C65 1.744 . S
C374 C106 1.821 1_565 S
C369 C32 1.745 . S
C399 C43 1.743 . S
C404 C146 1.825 . S
C429 C10 1.743 . S
C434 C186 1.825 . S
C459 C21 1.745 . S
C464 C226 1.821 1_655 S
C494 C103 0.323 . S
C489 C60 0.381 . S
C524 C143 0.323 . S
C519 C71 0.381 . S
C554 C183 0.323 . S
C549 C82 0.381 . S
C579 C49 0.381 . S
C584 C223 0.323 . S
C609 C16 0.399 . S
C614 C94 0.323 . S
C644 C134 0.323 . S
C639 C27 0.399 . S
C674 C174 0.323 . S
C669 C38 0.393 . S
C699 C5 0.393 . S
C704 C214 0.323 . S
C729 C59 1.875 . S
C734 C107 2.057 . S
C759 C70 1.875 . S
C764 C147 2.057 . S
C794 C187 2.057 . S
C789 C81 1.875 . S
C824 C227 2.057 . S
C819 C48 1.875 . S
C849 C15 1.878 . S
C854 C98 2.057 . S
C884 C138 2.057 . S
C879 C26 1.878 . S
C914 C178 2.056 . S
C909 C37 1.877 . S
C939 C4 1.878 . S
C944 C218 2.057 . S
