# Generated by pormake.
# Topology zzz, (3,6)-cn, num edge types: 1
# Building blocks:
#     Node 0, Type 0, BuildingBlock: MIDCAF_clean_linker_0, # of connection points: 3
#     Node 1, Type 0, BuildingBlock: MIDCAF_clean_linker_0, # of connection points: 3
#     Node 2, Type 0, BuildingBlock: MIDCAF_clean_linker_0, # of connection points: 3
#     Node 3, Type 0, BuildingBlock: MIDCAF_clean_linker_0, # of connection points: 3
#     Node 4, Type 0, BuildingBlock: MIDCAF_clean_linker_0, # of connection points: 3
#     Node 5, Type 0, BuildingBlock: MIDCAF_clean_linker_0, # of connection points: 3
#     Node 6, Type 0, BuildingBlock: MIDCAF_clean_linker_0, # of connection points: 3
#     Node 7, Type 0, BuildingBlock: MIDCAF_clean_linker_0, # of connection points: 3
#     Node 8, Type 1, BuildingBlock: KUMBOL_clean_sbu_0, # of connection points: 6
#     Node 9, Type 1, BuildingBlock: KUMBOL_clean_sbu_0, # of connection points: 6
#     Node 10, Type 1, BuildingBlock: KUMBOL_clean_sbu_0, # of connection points: 6
#     Node 11, Type 1, BuildingBlock: KUMBOL_clean_sbu_0, # of connection points: 6
#     Edge 12, Type (0, 1), BuildingBlock: UVAHIK_clean_linker_0, # of connection points: 2
#     Edge 13, Type (0, 1), BuildingBlock: UVAHIK_clean_linker_0, # of connection points: 2
#     Edge 14, Type (0, 1), BuildingBlock: UVAHIK_clean_linker_0, # of connection points: 2
#     Edge 15, Type (0, 1), BuildingBlock: UVAHIK_clean_linker_0, # of connection points: 2
#     Edge 16, Type (0, 1), BuildingBlock: UVAHIK_clean_linker_0, # of connection points: 2
#     Edge 17, Type (0, 1), BuildingBlock: UVAHIK_clean_linker_0, # of connection points: 2
#     Edge 18, Type (0, 1), BuildingBlock: UVAHIK_clean_linker_0, # of connection points: 2
#     Edge 19, Type (0, 1), BuildingBlock: UVAHIK_clean_linker_0, # of connection points: 2
#     Edge 20, Type (0, 1), BuildingBlock: UVAHIK_clean_linker_0, # of connection points: 2
#     Edge 21, Type (0, 1), BuildingBlock: UVAHIK_clean_linker_0, # of connection points: 2
#     Edge 22, Type (0, 1), BuildingBlock: UVAHIK_clean_linker_0, # of connection points: 2
#     Edge 23, Type (0, 1), BuildingBlock: UVAHIK_clean_linker_0, # of connection points: 2
#     Edge 24, Type (0, 1), BuildingBlock: UVAHIK_clean_linker_0, # of connection points: 2
#     Edge 25, Type (0, 1), BuildingBlock: UVAHIK_clean_linker_0, # of connection points: 2
#     Edge 26, Type (0, 1), BuildingBlock: UVAHIK_clean_linker_0, # of connection points: 2
#     Edge 27, Type (0, 1), BuildingBlock: UVAHIK_clean_linker_0, # of connection points: 2
#     Edge 28, Type (0, 1), BuildingBlock: UVAHIK_clean_linker_0, # of connection points: 2
#     Edge 29, Type (0, 1), BuildingBlock: UVAHIK_clean_linker_0, # of connection points: 2
#     Edge 30, Type (0, 1), BuildingBlock: UVAHIK_clean_linker_0, # of connection points: 2
#     Edge 31, Type (0, 1), BuildingBlock: UVAHIK_clean_linker_0, # of connection points: 2
#     Edge 32, Type (0, 1), BuildingBlock: UVAHIK_clean_linker_0, # of connection points: 2
#     Edge 33, Type (0, 1), BuildingBlock: UVAHIK_clean_linker_0, # of connection points: 2
#     Edge 34, Type (0, 1), BuildingBlock: UVAHIK_clean_linker_0, # of connection points: 2
#     Edge 35, Type (0, 1), BuildingBlock: UVAHIK_clean_linker_0, # of connection points: 2
# Relax obj value: 0.276
# Max RMSD: 0.228
# Mean RMSD: 0.211
data_MOF--net-zzz--node1-KUMBOL_clean_sbu_0--node2-MIDCAF_clean_linker_0--edge1-UVAHIK_clean_linker_0
_symmetry_space_group_name_H-M    P1
_symmetry_Int_Tables_number       1
_symmetry_cell_setting            triclinic
loop_
_symmetry_equiv_pos_as_xyz
'x, y, z'
_cell_length_a     70.807643
_cell_length_b     70.773228
_cell_length_c     24.685791
_cell_angle_alpha  90.348921
_cell_angle_beta   90.136593
_cell_angle_gamma 89.964808
loop_
_atom_site_label
_atom_site_type_symbol
_atom_site_fract_x
_atom_site_fract_y
_atom_site_fract_z
_atom_type_partial_charge
C0 C 0.78305 0.5391 0.26328 0.0
C1 C 0.79874 0.52714 0.25481 0.0
C2 C 0.80085 0.5186 0.20354 0.0
C3 C 0.7885 0.52293 0.16107 0.0
H4 H 0.71032 0.52982 0.10575 0.0
H5 H 0.67827 0.52545 0.06937 0.0
H6 H 0.69259 0.56029 0.93243 0.0
H7 H 0.72375 0.56509 0.96872 0.0
H8 H 0.76181 0.58299 0.95032 0.0
H9 H 0.78404 0.59689 0.88657 0.0
H10 H 0.8305 0.57819 0.98688 0.0
H11 H 0.80848 0.56507 0.05096 0.0
H12 H 0.75942 0.55357 0.22723 0.0
H13 H 0.78084 0.54579 0.30232 0.0
H14 H 0.81282 0.50955 0.19498 0.0
H15 H 0.79139 0.51723 0.12109 0.0
N16 N 0.74636 0.5424 0.10658 0.0
N17 N 0.75172 0.56052 0.02842 0.0
N18 N 0.77661 0.5545 0.08782 0.0
C19 C 0.73967 0.55045 0.05993 0.0
C20 C 0.77013 0.56267 0.04201 0.0
C21 C 0.76497 0.54453 0.12043 0.0
C22 C 0.71978 0.54787 0.04058 0.0
C23 C 0.70652 0.53667 0.06818 0.0
C24 C 0.68816 0.53407 0.04709 0.0
C25 C 0.68266 0.54266 0.99804 0.0
C26 C 0.69598 0.5538 0.97086 0.0
C27 C 0.7141 0.55643 0.99177 0.0
C28 C 0.78333 0.57272 0.00559 0.0
C29 C 0.77677 0.58211 0.9591 0.0
C30 C 0.78953 0.59004 0.92242 0.0
C31 C 0.80912 0.58867 0.93129 0.0
C32 C 0.81555 0.57993 0.97895 0.0
C33 C 0.80286 0.57216 0.01566 0.0
C34 C 0.77354 0.53569 0.16872 0.0
C35 C 0.77056 0.54332 0.22061 0.0
C36 C 0.96325 0.8056 0.24161 0.0
C37 C 0.9813 0.80597 0.26536 0.0
C38 C 0.99453 0.79215 0.24885 0.0
C39 C 0.98996 0.77878 0.20835 0.0
H40 H 1.00278 0.72993 0.02763 0.0
H41 H 0.00918 0.69932 0.98463 0.0
H42 H 0.95776 0.6771 0.05323 0.0
H43 H 0.95171 0.70765 0.09667 0.0
H44 H 0.94457 0.7535 0.94534 0.0
H45 H 0.93235 0.77164 0.86928 0.0
H46 H 0.92673 0.82059 0.97347 0.0
H47 H 0.9384 0.80248 0.04944 0.0
H48 H 0.94494 0.79319 0.18241 0.0
H49 H 0.95273 0.81606 0.25256 0.0
H50 H 0.00854 0.7919 0.26655 0.0
H51 H 1.00062 0.7688 0.1951 0.0
N52 N 0.97478 0.74987 0.12518 0.0
N53 N 0.9597 0.74894 0.03989 0.0
N54 N 0.95713 0.77588 0.09437 0.0
C55 C 0.9704 0.74038 0.07828 0.0
C56 C 0.95303 0.76669 0.0475 0.0
C57 C 0.9679 0.76774 0.13343 0.0
C58 C 0.97703 0.72097 0.06664 0.0
C59 C 0.9933 0.71823 0.0352 0.0
C60 C 0.99675 0.70078 0.00979 0.0
C61 C 0.98389 0.68569 0.01478 0.0
C62 C 0.96812 0.68823 0.04879 0.0
C63 C 0.96468 0.70571 0.07407 0.0
C64 C 0.94284 0.77661 1.00341 0.0
C65 C 0.94037 0.76803 0.95231 0.0
C66 C 0.9334 0.77843 0.9086 0.0
C67 C 0.92874 0.79764 0.91501 0.0
C68 C 0.92997 0.8058 0.96699 0.0
C69 C 0.93689 0.79542 0.01063 0.0
C70 C 0.97216 0.77915 0.18294 0.0
C71 C 0.9588 0.79249 0.20099 0.0
C72 C 0.70876 0.95739 0.26272 0.0
C73 C 0.7094 0.97552 0.28619 0.0
C74 C 0.72321 0.98831 0.26766 0.0
C75 C 0.73551 0.98328 0.22521 0.0
H76 H 0.8027 0.96769 0.14378 0.0
H77 H 0.83383 0.97599 0.10613 0.0
H78 H 0.80769 0.98621 0.95071 0.0
H79 H 0.77716 0.97825 0.98801 0.0
H80 H 0.75519 0.92843 0.97128 0.0
H81 H 0.73673 0.91816 0.89308 0.0
H82 H 0.68551 0.93459 0.97625 0.0
H83 H 0.70385 0.94376 0.05487 0.0
H84 H 0.71932 0.93863 0.20184 0.0
H85 H 0.69825 0.94721 0.27525 0.0
H86 H 0.72423 1.00234 0.28515 0.0
H87 H 0.74542 0.99365 0.21028 0.0
N88 N 0.76136 0.96816 0.13603 0.0
N89 N 0.75943 0.9537 0.05005 0.0
N90 N 0.73452 0.95046 0.11086 0.0
C91 C 0.76917 0.96434 0.0865 0.0
C92 C 0.74219 0.94667 0.0618 0.0
C93 C 0.74392 0.96102 0.14837 0.0
C94 C 0.78752 0.97232 0.06885 0.0
C95 C 0.80368 0.97218 0.10201 0.0
C96 C 0.82148 0.97672 0.08025 0.0
C97 C 0.82332 0.98176 0.02527 0.0
C98 C 0.80691 0.98267 0.99327 0.0
C99 C 0.78935 0.97799 0.01466 0.0
C100 C 0.73099 0.93719 0.0189 0.0
C101 C 0.73994 0.92939 0.97317 0.0
C102 C 0.72934 0.9236 0.92819 0.0
C103 C 0.70959 0.92586 0.92752 0.0
C104 C 0.70062 0.93237 0.97501 0.0
C105 C 0.71119 0.93781 0.02029 0.0
C106 C 0.73403 0.96547 0.19999 0.0
C107 C 0.72083 0.95248 0.22025 0.0
C108 C 0.59764 0.69741 0.99714 0.0
C109 C 0.60116 0.7033 0.94377 0.0
C110 C 0.60044 0.72272 0.93222 0.0
C111 C 0.59482 0.73573 0.97188 0.0
H112 H 0.55928 0.78089 0.97523 0.0
H113 H 0.55095 0.81134 0.93795 0.0
H114 H 0.54703 0.83487 0.09928 0.0
H115 H 0.55552 0.80391 0.13738 0.0
H116 H 0.53213 0.75152 0.20174 0.0
H117 H 0.5214 0.73249 0.27875 0.0
H118 H 0.57633 0.70608 0.2872 0.0
H119 H 0.58689 0.72495 0.21129 0.0
H120 H 0.58865 0.70517 0.07669 0.0
H121 H 0.59784 0.68258 0.0076 0.0
H122 H 0.60343 0.7278 0.89185 0.0
H123 H 0.59355 0.75047 0.96081 0.0
N124 N 0.57482 0.75997 0.04698 0.0
N125 N 0.55993 0.76515 0.13091 0.0
N126 N 0.57618 0.73675 0.11347 0.0
C127 C 0.56459 0.77137 0.08035 0.0
C128 C 0.5659 0.74777 0.14765 0.0
C129 C 0.5807 0.74269 0.06311 0.0
C130 C 0.55813 0.78993 0.05942 0.0
C131 C 0.55659 0.79246 1.0031 0.0
C132 C 0.55167 0.80993 0.98159 0.0
C133 C 0.54826 0.82552 0.0156 0.0
C134 C 0.54965 0.8231 0.07207 0.0
C135 C 0.55436 0.80538 0.09386 0.0
C136 C 0.56033 0.73969 0.20049 0.0
C137 C 0.54201 0.74204 0.22123 0.0
C138 C 0.53582 0.73099 0.26488 0.0
C139 C 0.54797 0.71767 0.28904 0.0
C140 C 0.56663 0.7163 0.27015 0.0
C141 C 0.57268 0.72708 0.22638 0.0
C142 C 0.58991 0.72962 0.0241 0.0
C143 C 0.59217 0.71042 0.03685 0.0
C144 C 0.21975 0.45838 0.91612 0.0
C145 C 0.21935 0.47735 0.89953 0.0
C146 C 0.23189 0.49017 0.92489 0.0
C147 C 0.24371 0.48433 0.96763 0.0
H148 H 0.30715 0.47251 0.05407 0.0
H149 H 0.33843 0.47842 0.09436 0.0
H150 H 0.31483 0.47101 0.25392 0.0
H151 H 0.28412 0.46497 0.21437 0.0
H152 H 0.24866 0.44119 0.23211 0.0
H153 H 0.22417 0.42971 0.29242 0.0
H154 H 0.19133 0.4112 0.15425 0.0
H155 H 0.21557 0.4232 0.09376 0.0
H156 H 0.23051 0.4381 0.97203 0.0
H157 H 0.21024 0.44807 0.89841 0.0
H158 H 0.23216 0.50485 0.91281 0.0
H159 H 0.25241 0.4947 0.9883 0.0
N160 N 0.26843 0.46661 0.05753 0.0
N161 N 0.26349 0.45061 0.13972 0.0
N162 N 0.24081 0.44878 0.07132 0.0
C163 C 0.2746 0.46168 0.10819 0.0
C164 C 0.24666 0.44404 0.12162 0.0
C165 C 0.25139 0.46002 0.03901 0.0
C166 C 0.29313 0.46797 0.13079 0.0
C167 C 0.30866 0.4724 0.09773 0.0
C168 C 0.32658 0.47576 0.12086 0.0
C169 C 0.32928 0.47476 0.17743 0.0
C170 C 0.31349 0.47132 0.21022 0.0
C171 C 0.29577 0.46796 0.18734 0.0
C172 C 0.23386 0.43356 0.15807 0.0
C173 C 0.23643 0.43429 0.21453 0.0
C174 C 0.22241 0.42756 0.24923 0.0
C175 C 0.20562 0.41981 0.22815 0.0
C176 C 0.20391 0.41747 0.17175 0.0
C177 C 0.21782 0.42436 0.13708 0.0
C178 C 0.24307 0.4656 0.98613 0.0
C179 C 0.23138 0.45263 0.95871 0.0
C180 C 0.05261 0.21195 0.93008 0.0
C181 C 0.03455 0.21144 0.90639 0.0
C182 C 0.02131 0.22534 0.92238 0.0
C183 C 0.02589 0.23891 0.96241 0.0
H184 H 0.01328 0.29464 0.10488 0.0
H185 H 0.00752 0.32544 0.14817 0.0
H186 H 0.06737 0.33715 0.14404 0.0
H187 H 0.07297 0.30631 0.10272 0.0
H188 H 0.07842 0.26506 0.2166 0.0
H189 H 0.0888 0.24757 0.29608 0.0
H190 H 0.07656 0.19506 0.21256 0.0
H191 H 0.06712 0.21238 0.13311 0.0
H192 H 0.07093 0.22466 0.98866 0.0
H193 H 0.06314 0.20145 0.91971 0.0
H194 H 0.0073 0.22551 0.90473 0.0
H195 H 0.01523 0.24891 0.97548 0.0
N196 N 0.04272 0.26849 0.04388 0.0
N197 N 0.05783 0.2689 0.12922 0.0
N198 N 0.05779 0.24126 0.07736 0.0
C199 C 0.04794 0.27802 0.09007 0.0
C200 C 0.06265 0.2505 0.12347 0.0
C201 C 0.048 0.24998 0.03727 0.0
C202 C 0.04354 0.29821 0.09983 0.0
C203 C 0.02506 0.30415 0.11153 0.0
C204 C 0.02181 0.32176 0.13672 0.0
C205 C 0.03702 0.33373 0.15079 0.0
C206 C 0.05534 0.3282 0.13528 0.0
C207 C 0.05855 0.31064 0.11067 0.0
C208 C 0.07163 0.24014 0.16873 0.0
C209 C 0.07832 0.24976 0.21495 0.0
C210 C 0.08422 0.23972 0.26065 0.0
C211 C 0.08334 0.21985 0.26133 0.0
C212 C 0.07776 0.2103 0.21372 0.0
C213 C 0.07212 0.2203 0.16798 0.0
C214 C 0.0437 0.23866 0.9877 0.0
C215 C 0.05707 0.22527 0.97005 0.0
C216 C 0.30702 0.06162 0.91016 0.0
C217 C 0.30577 0.04344 0.88728 0.0
C218 C 0.29115 0.03141 0.90492 0.0
C219 C 0.27855 0.03727 0.94576 0.0
H220 H 0.22547 0.02639 0.07264 0.0
H221 H 0.19477 0.01836 0.11306 0.0
H222 H 0.18447 0.07752 0.14505 0.0
H223 H 0.21494 0.08535 0.10559 0.0
H224 H 0.25787 0.08712 0.20528 0.0
H225 H 0.27724 0.09747 0.28161 0.0
H226 H 0.32637 0.09789 0.17816 0.0
H227 H 0.30709 0.08805 0.10189 0.0
H228 H 0.29657 0.08123 0.96893 0.0
H229 H 0.31816 0.07121 0.8983 0.0
H230 H 0.2897 0.01735 0.88788 0.0
H231 H 0.26788 0.02751 0.95988 0.0
N232 N 0.2515 0.05534 0.02825 0.0
N233 N 0.25184 0.07193 0.11136 0.0
N234 N 0.27887 0.07127 0.05764 0.0
C235 C 0.2424 0.06134 0.07408 0.0
C236 C 0.27011 0.07682 0.10376 0.0
C237 C 0.26981 0.06069 0.01958 0.0
C238 C 0.22249 0.05649 0.08578 0.0
C239 C 0.21632 0.03765 0.08682 0.0
C240 C 0.19887 0.03307 0.11047 0.0
C241 C 0.18719 0.0473 0.13251 0.0
C242 C 0.19296 0.06622 0.12806 0.0
C243 C 0.21044 0.07072 0.10548 0.0
C244 C 0.28097 0.08636 0.14755 0.0
C245 C 0.27273 0.08982 0.19848 0.0
C246 C 0.28383 0.09571 0.24236 0.0
C247 C 0.3034 0.09828 0.23626 0.0
C248 C 0.31133 0.09622 0.18438 0.0
C249 C 0.30025 0.09036 0.14057 0.0
C250 C 0.28055 0.05513 0.97029 0.0
C251 C 0.29467 0.06733 0.95109 0.0
C252 C 0.40032 0.31038 0.1557 0.0
C253 C 0.40893 0.31289 0.20679 0.0
C254 C 0.42135 0.29872 0.22533 0.0
C255 C 0.42633 0.28353 0.19184 0.0
H256 H 0.42317 0.21645 0.13074 0.0
H257 H 0.4324 0.18604 0.16844 0.0
H258 H 0.48859 0.19311 0.10429 0.0
H259 H 0.47913 0.22361 0.0651 0.0
H260 H 0.47845 0.26218 0.96032 0.0
H261 H 0.49018 0.28189 0.88599 0.0
H262 H 0.43755 0.31281 0.88604 0.0
H263 H 0.42592 0.29319 0.95871 0.0
H264 H 0.40008 0.29481 0.08089 0.0
H265 H 0.39014 0.32048 0.14056 0.0
H266 H 0.4285 0.30001 0.26394 0.0
H267 H 0.43693 0.27364 0.20585 0.0
N268 N 0.43429 0.25228 0.11292 0.0
N269 N 0.45088 0.24928 0.03062 0.0
N270 N 0.43397 0.27702 0.05072 0.0
C271 C 0.44509 0.24175 0.07865 0.0
C272 C 0.44505 0.26696 0.01627 0.0
C273 C 0.42867 0.2699 0.09907 0.0
C274 C 0.45046 0.2224 0.09512 0.0
C275 C 0.43741 0.21138 0.12386 0.0
C276 C 0.44266 0.19392 0.1452 0.0
C277 C 0.4612 0.18722 0.13932 0.0
C278 C 0.47419 0.19798 0.10941 0.0
C279 C 0.46878 0.21534 0.08681 0.0
C280 C 0.45131 0.2762 0.96558 0.0
C281 C 0.46928 0.27289 0.94337 0.0
C282 C 0.47605 0.2843 0.90122 0.0
C283 C 0.46485 0.29902 0.88009 0.0
C284 C 0.44652 0.30153 0.90062 0.0
C285 C 0.43988 0.29032 0.94273 0.0
C286 C 0.41938 0.28243 0.13871 0.0
C287 C 0.4058 0.29554 0.1216 0.0
Gd288 Gd 0.99018 0.01075 0.53473 0.0
Gd289 Gd 0.02688 0.005 0.64169 0.0
C290 C 0.03827 0.05572 0.75497 0.0
C291 C 0.07037 0.06422 0.73113 0.0
C292 C 0.05494 0.03743 0.68727 0.0
C293 C 0.03876 0.0408 0.71663 0.0
C294 C 0.07115 0.04874 0.6954 0.0
C295 C 0.05394 0.06769 0.76095 0.0
C296 C 0.02216 0.05804 0.78682 0.0
C297 C 0.00725 0.0454 0.78101 0.0
N298 N 0.02375 0.02909 0.70923 0.0
C299 C 0.00831 0.03093 0.74233 0.0
H300 H 0.99635 0.0217 0.73924 0.0
C301 C 0.07214 0.01632 0.63211 0.0
N302 N 0.05531 0.02224 0.65367 0.0
C303 C 0.08849 0.02718 0.63818 0.0
C304 C 0.08791 0.04371 0.66912 0.0
H305 H 0.07283 1.00331 0.60905 0.0
H306 H 0.05366 0.07939 0.78946 0.0
H307 H 0.02129 0.9971 0.4339 0.0
H308 H 0.02122 0.06933 0.81654 0.0
H309 H 0.99479 0.04688 0.80601 0.0
H310 H 0.08257 0.07321 0.73731 0.0
H311 H 0.94414 0.00841 0.56865 0.0
H312 H 0.99984 0.94809 0.3559 0.0
H313 H 0.02444 0.9725 0.36634 0.0
H314 H 0.93974 0.93853 0.43838 0.0
H315 H 0.10156 0.0227 0.61938 0.0
H316 H 0.10063 0.05204 0.67428 0.0
H317 H 0.96865 0.93516 0.38428 0.0
H318 H 0.91729 0.98657 0.55932 0.0
N319 N 0.99484 0.98732 0.46565 0.0
C320 C 0.99822 0.95905 0.38636 0.0
C321 C 0.01211 0.97279 0.39217 0.0
C322 C 0.98222 0.95986 0.41916 0.0
C323 C 0.98077 0.97448 0.4583 0.0
C324 C 0.01016 0.98689 0.43166 0.0
N325 N 0.96314 0.99121 0.52308 0.0
C326 C 0.96457 0.9763 0.48867 0.0
C327 C 0.93059 0.98331 0.53985 0.0
C328 C 0.93241 0.96704 0.50825 0.0
C329 C 0.94596 0.99553 0.54556 0.0
C330 C 0.94934 0.96365 0.48085 0.0
H331 H 0.92042 0.95767 0.50335 0.0
O332 O 0.96673 0.02762 0.50539 0.0
O333 O 0.0087 0.0251 0.59588 0.0
O334 O 0.99825 0.99787 0.67696 0.0
O335 O 0.97503 1.00156 0.61042 0.0
O336 O 0.98087 0.03403 0.5916 0.0
O337 O 0.99402 0.02976 0.46695 0.0
O338 O 0.0485 0.98499 0.6657 0.0
O339 O 0.00811 0.99061 0.58099 0.0
O340 O 0.01891 0.01867 0.50107 0.0
O341 O 0.04192 0.01682 0.56902 0.0
O342 O 0.03609 0.98206 0.58362 0.0
O343 O 0.02338 0.98834 0.71451 0.0
C344 C 0.99701 0.03703 0.61429 0.0
C345 C 0.95117 0.94851 0.44431 0.0
C346 C 0.96758 0.94664 0.41338 0.0
C347 C 0.97731 0.03725 0.47271 0.0
C348 C 0.97631 0.05791 0.47958 0.0
C349 C 0.95869 0.06692 0.47694 0.0
C350 C 0.99252 0.06861 0.49213 0.0
C351 C 0.99118 0.08819 0.5012 0.0
C352 C 0.95721 0.08628 0.48683 0.0
C353 C 0.97331 0.09689 0.4988 0.0
C354 C 0.98048 0.99766 0.66032 0.0
C355 C 0.01985 0.97893 0.56172 0.0
C356 C 0.03842 0.97823 0.70491 0.0
C357 C 0.0361 0.95761 0.70408 0.0
C358 C 0.05165 0.94615 0.71632 0.0
C359 C 0.01887 0.94924 0.68864 0.0
C360 C 0.01697 0.92945 0.68714 0.0
C361 C 0.05002 0.92655 0.71382 0.0
C362 C 0.03282 0.91822 0.69971 0.0
C363 C 0.03655 0.02011 0.51865 0.0
H364 H 0.94603 0.0589 0.46785 0.0
H365 H 0.00616 0.06172 0.49518 0.0
H366 H 0.94356 0.09313 0.48475 0.0
H367 H 0.97182 0.11199 0.50457 0.0
H368 H 0.06508 0.9524 0.72755 0.0
H369 H 0.00699 0.95812 0.67792 0.0
H370 H 0.06205 0.91776 0.72359 0.0
H371 H 0.03186 0.90296 0.70039 0.0
Gd372 Gd 0.50558 0.98953 0.53403 0.0
Gd373 Gd 0.50935 0.02744 0.63937 0.0
C374 C 0.45754 0.03498 0.75021 0.0
C375 C 0.44604 0.0659 0.72397 0.0
C376 C 0.4743 0.05272 0.6821 0.0
C377 C 0.47246 0.03655 0.71248 0.0
C378 C 0.46141 0.06782 0.68865 0.0
C379 C 0.44413 0.04952 0.7548 0.0
C380 C 0.45659 0.01896 0.78272 0.0
C381 C 0.47043 0.00511 0.77783 0.0
N382 N 0.48548 0.02258 0.70624 0.0
C383 C 0.48482 0.00715 0.73965 0.0
H384 H 0.495 0.99598 0.73761 0.0
C385 C 0.49359 0.07133 0.62608 0.0
N386 N 0.48936 0.0542 0.6487 0.0
C387 C 0.48115 0.08659 0.63062 0.0
C388 C 0.46475 0.0847 0.66116 0.0
H389 H 0.50654 0.07315 0.60376 0.0
H390 H 0.43243 0.04836 0.78283 0.0
H391 H 0.5251 0.01876 0.43853 0.0
H392 H 0.4454 0.01725 0.81213 0.0
H393 H 0.46996 0.99271 0.80326 0.0
H394 H 0.43588 0.07723 0.72892 0.0
H395 H 0.50177 0.9443 0.57043 0.0
H396 H 0.57269 0.99125 0.36926 0.0
H397 H 0.55138 0.01879 0.37564 0.0
H398 H 0.57242 0.93016 0.45066 0.0
H399 H 0.48434 0.09984 0.61103 0.0
H400 H 0.45519 0.09659 0.6651 0.0
H401 H 0.58052 0.95833 0.39782 0.0
H402 H 0.51998 0.9146 0.56428 0.0
N403 N 0.53078 0.99119 0.47025 0.0
C404 C 0.56093 0.99101 0.39726 0.0
C405 C 0.54892 0.00654 0.4007 0.0
C406 C 0.55738 0.97519 0.42915 0.0
C407 C 0.54193 0.97565 0.46533 0.0
C408 C 0.53379 0.00635 0.437 0.0
N409 N 0.52186 0.96043 0.52651 0.0
C410 C 0.53744 0.95984 0.49492 0.0
C411 C 0.5252 0.92726 0.54505 0.0
C412 C 0.54204 0.92681 0.5159 0.0
C413 C 0.51501 0.94413 0.54874 0.0
C414 C 0.5481 0.94307 0.48916 0.0
H415 H 0.54984 0.91368 0.51255 0.0
O416 O 0.48519 0.96838 0.50876 0.0
O417 O 0.49035 0.00855 0.59194 0.0
O418 O 0.518 0.9992 0.67504 0.0
O419 O 0.518 0.97563 0.60795 0.0
O420 O 0.48226 0.98042 0.59019 0.0
O421 O 0.48992 0.99297 0.45896 0.0
O422 O 0.52671 0.05119 0.66443 0.0
O423 O 0.52441 0.00861 0.58119 0.0
O424 O 0.49986 0.01802 0.49575 0.0
O425 O 0.49891 0.0414 0.56318 0.0
O426 O 0.53318 0.03642 0.58434 0.0
O427 O 0.52658 0.02563 0.71205 0.0
C428 C 0.47866 0.99682 0.61057 0.0
C429 C 0.56397 0.94284 0.45521 0.0
C430 C 0.56855 0.95886 0.42508 0.0
C431 C 0.47926 0.97831 0.46809 0.0
C432 C 0.45871 0.98114 0.46591 0.0
C433 C 0.44708 0.96572 0.45341 0.0
C434 C 0.45054 0.99872 0.47881 0.0
C435 C 0.43079 1.00108 0.47744 0.0
C436 C 0.42751 0.96781 0.45315 0.0
C437 C 0.41939 0.98534 0.46472 0.0
C438 C 0.52054 0.98154 0.65839 0.0
C439 C 0.5365 0.02005 0.5633 0.0
C440 C 0.53501 0.04166 0.70246 0.0
C441 C 0.55575 0.04138 0.69935 0.0
C442 C 0.56577 0.05838 0.70427 0.0
C443 C 0.56553 0.0246 0.68694 0.0
C444 C 0.58523 0.02473 0.68018 0.0
C445 C 0.5853 0.05866 0.69683 0.0
C446 C 0.595 0.04197 0.68487 0.0
C447 C 0.49743 0.03568 0.51229 0.0
H448 H 0.45315 0.95202 0.44412 0.0
H449 H 0.45953 0.01052 0.48979 0.0
H450 H 0.41859 0.95586 0.4432 0.0
H451 H 0.40419 0.98664 0.46193 0.0
H452 H 0.55844 0.07148 0.71306 0.0
H453 H 0.55783 0.01147 0.68196 0.0
H454 H 0.59295 0.07183 0.70063 0.0
H455 H 0.61022 0.04251 0.6808 0.0
Gd456 Gd 0.48296 0.51124 0.61195 0.0
Gd457 Gd 0.53099 0.50533 0.55435 0.0
C458 C 0.58666 0.52011 0.638 0.0
C459 C 0.59629 0.54837 0.58996 0.0
C460 C 0.56712 0.53228 0.56553 0.0
C461 C 0.57012 0.51924 0.60609 0.0
C462 C 0.5803 0.54684 0.55643 0.0
C463 C 0.59951 0.53497 0.6305 0.0
C464 C 0.59001 0.50576 0.67557 0.0
C465 C 0.57714 0.49093 0.68011 0.0
N466 N 0.5573 0.50519 0.61273 0.0
C467 C 0.56084 0.4908 0.64796 0.0
H468 H 0.55104 0.47926 0.65199 0.0
C469 C 0.54934 0.54136 0.48875 0.0
N470 N 0.55172 0.5302 0.53332 0.0
C471 C 0.56185 0.55619 0.47855 0.0
C472 C 0.57729 0.5591 0.51293 0.0
H473 H 0.53737 0.5392 0.4622 0.0
H474 H 0.61216 0.53601 0.65512 0.0
H475 H 0.4626 0.53354 0.50743 0.0
H476 H 0.60258 0.50586 0.70068 0.0
H477 H 0.5797 0.47965 0.70859 0.0
H478 H 0.6065 0.55955 0.5839 0.0
H479 H 0.47732 0.48 0.71265 0.0
H480 H 0.41129 0.50481 0.46679 0.0
H481 H 0.43383 0.5309 0.45136 0.0
H482 H 0.40795 0.45556 0.59874 0.0
H483 H 0.55959 0.56536 0.44421 0.0
H484 H 0.58703 0.57052 0.50476 0.0
H485 H 0.40201 0.47642 0.52112 0.0
H486 H 0.45536 0.45454 0.73796 0.0
N487 N 0.45653 0.50911 0.55413 0.0
C488 C 0.42384 0.50597 0.49182 0.0
C489 C 0.43651 0.52072 0.48301 0.0
C490 C 0.42735 0.49308 0.53342 0.0
C491 C 0.44388 0.49525 0.5649 0.0
C492 C 0.45284 0.52212 0.51478 0.0
N493 N 0.46254 0.48696 0.64022 0.0
C494 C 0.44705 0.48372 0.60903 0.0
C495 C 0.45287 0.46262 0.70154 0.0
C496 C 0.43729 0.45861 0.66867 0.0
C497 C 0.46526 0.47712 0.68713 0.0
C498 C 0.43404 0.4694 0.62224 0.0
H499 H 0.42767 0.44743 0.68007 0.0
O500 O 0.47532 0.52383 0.6895 0.0
O501 O 0.5138 0.51389 0.62474 0.0
O502 O 0.52112 0.47954 0.60239 0.0
O503 O 0.48815 0.4802 0.59818 0.0
O504 O 0.49845 0.50641 0.69187 0.0
O505 O 0.46505 0.53597 0.6146 0.0
O506 O 0.54363 0.49792 0.47744 0.0
O507 O 0.50019 0.50258 0.54109 0.0
O508 O 0.49278 0.53655 0.56204 0.0
O509 O 0.5254 0.53608 0.57254 0.0
O510 O 0.51555 0.5104 0.47454 0.0
O511 O 0.54419 0.47791 0.54401 0.0
C512 C 0.51517 0.51001 0.67429 0.0
C513 C 0.41803 0.46658 0.58948 0.0
C514 C 0.41466 0.47844 0.54526 0.0
C515 C 0.46637 0.53786 0.66688 0.0
C516 C 0.47115 0.55695 0.68541 0.0
C517 C 0.45652 0.56956 0.69776 0.0
C518 C 0.48998 0.56319 0.68631 0.0
C519 C 0.49414 0.58215 0.69876 0.0
C520 C 0.46059 0.58833 0.71068 0.0
C521 C 0.47925 0.59464 0.71099 0.0
C522 C 0.50434 0.47116 0.60565 0.0
C523 C 0.49888 0.50629 0.49143 0.0
C524 C 0.54775 0.4808 0.49285 0.0
C525 C 0.54202 0.46582 0.4553 0.0
C526 C 0.55563 0.45748 0.42166 0.0
C527 C 0.52297 0.46052 0.45054 0.0
C528 C 0.51757 0.44725 0.41116 0.0
C529 C 0.55026 0.44406 0.38297 0.0
C530 C 0.53129 0.43905 0.37741 0.0
C531 C 0.50944 0.54516 0.56256 0.0
H532 H 0.44193 0.56496 0.69663 0.0
H533 H 0.50127 0.55346 0.67623 0.0
H534 H 0.44924 0.59805 0.7202 0.0
H535 H 0.48207 0.60924 0.72166 0.0
H536 H 0.57035 0.46153 0.42489 0.0
H537 H 0.51241 0.46696 0.47643 0.0
H538 H 0.56077 0.4377 0.35685 0.0
H539 H 0.52729 0.42876 0.34678 0.0
Gd540 Gd 0.00693 0.48722 0.61452 0.0
Gd541 Gd 0.0128 0.53357 0.54786 0.0
C542 C 0.99511 0.5908 0.61772 0.0
C543 C 0.96828 0.59897 0.56096 0.0
C544 C 0.98532 0.56957 0.54568 0.0
C545 C 0.99708 0.57362 0.58898 0.0
C546 C 0.97096 0.58233 0.5306 0.0
C547 C 0.98038 0.60323 0.60432 0.0
C548 C 0.00839 0.59526 0.65787 0.0
C549 C 0.02328 0.58285 0.66798 0.0
N550 N 0.01109 0.56125 0.6011 0.0
C551 C 0.0245 0.56589 0.63882 0.0
H552 H 0.03608 0.5564 0.64706 0.0
C553 C 0.9786 0.55 0.47005 0.0
N554 N 0.98847 0.55351 0.51677 0.0
C555 C 0.96408 0.56213 0.45382 0.0
C556 C 0.96008 0.57826 0.48459 0.0
H557 H 0.98149 0.53751 0.44618 0.0
H558 H 0.9785 0.61637 0.62642 0.0
H559 H 0.97844 0.4657 0.52342 0.0
H560 H 0.0075 0.6084 0.68046 0.0
H561 H 0.03377 0.58628 0.69843 0.0
H562 H 0.95722 0.60888 0.55029 0.0
H563 H 0.04139 0.48093 0.70545 0.0
H564 H 1.00261 0.41251 0.48026 0.0
H565 H 0.97715 0.4362 0.47107 0.0
H566 H 0.0575 0.40869 0.59345 0.0
H567 H 0.95596 0.55902 0.41765 0.0
H568 H 0.94888 0.58767 0.47178 0.0
H569 H 0.03289 0.40262 0.52495 0.0
H570 H 0.06675 0.45795 0.72535 0.0
N571 N 0.00471 0.45946 0.56135 0.0
C572 C 1.00329 0.42555 0.50343 0.0
C573 C 0.9889 0.43887 0.49818 0.0
C574 C 0.0182 0.42905 0.53934 0.0
C575 C 0.01837 0.44624 0.56867 0.0
C576 C 0.98974 0.45572 0.52797 0.0
N577 N 0.03106 0.46567 0.63703 0.0
C578 C 0.0321 0.44955 0.60734 0.0
C579 C 0.05715 0.45544 0.69189 0.0
C580 C 0.05905 0.43925 0.65974 0.0
C581 C 0.04277 0.46838 0.68059 0.0
C582 C 0.04621 0.43594 0.61755 0.0
H583 H 0.07013 0.42917 0.66875 0.0
O584 O 1.00107 0.4766 0.69475 0.0
O585 O 0.00417 0.5184 0.62224 0.0
O586 O 0.03842 0.52526 0.59925 0.0
O587 O 0.0379 0.49241 0.59765 0.0
O588 O 0.01386 0.50456 0.68986 0.0
O589 O 0.97889 0.47692 0.63373 0.0
O590 O 0.02397 0.5402 0.46825 0.0
O591 O 0.01571 0.50243 0.54108 0.0
O592 O 0.98098 0.49597 0.5643 0.0
O593 O 0.98173 0.52892 0.56224 0.0
O594 O 0.0075 0.51606 0.47154 0.0
O595 O 0.03798 0.55063 0.54069 0.0
C596 C 0.00905 0.52076 0.67097 0.0
C597 C 0.04667 0.41924 0.58657 0.0
C598 C 0.03266 0.41577 0.54762 0.0
C599 C 0.9831 0.47467 0.68487 0.0
C600 C 0.9707 0.48389 0.72443 0.0
C601 C 0.96761 0.47521 0.77447 0.0
C602 C 0.9632 0.50194 0.71454 0.0
C603 C 0.9526 0.51129 0.75455 0.0
C604 C 0.95713 0.48444 0.81439 0.0
C605 C 0.94967 0.50236 0.80465 0.0
C606 C 0.04689 0.50863 0.60486 0.0
C607 C 0.01147 0.49985 0.492 0.0
C608 C 0.03859 0.54906 0.48818 0.0
C609 C 0.05705 0.54393 0.46609 0.0
C610 C 0.06764 0.55769 0.43934 0.0
C611 C 0.06465 0.52583 0.47424 0.0
C612 C 0.08303 0.52157 0.45645 0.0
C613 C 0.08576 0.55349 0.4209 0.0
C614 C 0.09345 0.53559 0.42944 0.0
C615 C 0.97264 0.51266 0.55703 0.0
H616 H 0.97353 0.4614 0.78286 0.0
H617 H 0.96583 0.5088 0.67617 0.0
H618 H 0.95476 0.47768 0.853 0.0
H619 H 0.94126 0.50905 0.83594 0.0
H620 H 0.06195 0.57173 0.43314 0.0
H621 H 0.05641 0.51525 0.49507 0.0
H622 H 0.0939 0.56414 0.40006 0.0
H623 H 0.10747 0.53265 0.41405 0.0
C624 C 0.15337 0.05339 0.15963 0.0
C625 C 0.17001 0.04263 0.16474 0.0
C626 C 0.13815 0.05066 0.19495 0.0
C627 C 0.12837 0.03451 0.33313 0.0
H628 H 0.07594 0.03317 0.28776 0.0
C629 C 0.06929 0.01568 0.48321 0.0
C630 C 0.05149 0.02426 0.47832 0.0
C631 C 0.08323 0.0184 0.44406 0.0
C632 C 0.09047 0.03382 0.30134 0.0
H633 H 0.18341 0.02023 0.2103 0.0
H634 H 0.15688 0.01546 0.27184 0.0
H635 H 0.10085 0.03624 0.21996 0.0
H636 H 0.03428 0.04235 0.42785 0.0
H637 H 0.05885 0.04764 0.35983 0.0
H638 H 0.11823 0.03257 0.41432 0.0
C639 C 0.15564 0.02606 0.24056 0.0
C640 C 0.10477 0.03548 0.26233 0.0
C641 C 0.17077 0.02863 0.20486 0.0
C642 C 0.04792 0.03564 0.43295 0.0
C643 C 0.06198 0.03854 0.39378 0.0
C644 C 0.11413 0.03308 0.37208 0.0
C645 C 0.13928 0.03728 0.2367 0.0
C646 C 0.12391 0.03564 0.27774 0.0
C647 C 0.07987 0.0299 0.39873 0.0
C648 C 0.09495 0.03248 0.35685 0.0
H649 H 0.15229 0.06423 0.12899 0.0
H650 H 0.12578 0.05957 0.19091 0.0
H651 H 0.14294 0.03501 0.34654 0.0
H652 H 0.07227 0.0062 0.51626 0.0
H653 H 0.09651 0.011 0.44879 0.0
C654 C 0.45605 0.15332 0.16525 0.0
C655 C 0.46708 0.16982 0.16828 0.0
C656 C 0.46018 0.13777 0.19808 0.0
C657 C 0.47961 0.12722 0.33028 0.0
H658 H 0.48366 0.07531 0.2806 0.0
C659 C 0.50136 0.06844 0.47726 0.0
C660 C 0.4938 0.05025 0.47072 0.0
C661 C 0.49829 0.08234 0.43835 0.0
C662 C 0.48226 0.08966 0.29542 0.0
H663 H 0.49129 0.18282 0.20714 0.0
H664 H 0.49831 0.15577 0.26527 0.0
H665 H 0.47834 0.10055 0.21506 0.0
H666 H 0.47774 0.03208 0.41695 0.0
H667 H 0.47138 0.05664 0.35002 0.0
H668 H 0.48267 0.11661 0.4105 0.0
C669 C 0.48658 0.15484 0.23712 0.0
C670 C 0.47935 0.10413 0.2577 0.0
C671 C 0.48267 0.17024 0.20359 0.0
C672 C 0.48344 0.04611 0.42356 0.0
C673 C 0.47999 0.06017 0.38491 0.0
C674 C 0.48215 0.11279 0.368 0.0
C675 C 0.47519 0.13857 0.23535 0.0
C676 C 0.47822 0.12307 0.27476 0.0
C677 C 0.48733 0.07856 0.39188 0.0
C678 C 0.48377 0.09379 0.35122 0.0
H679 H 0.44396 0.15262 0.13834 0.0
H680 H 0.45114 0.12544 0.19603 0.0
H681 H 0.4784 0.14166 0.34469 0.0
H682 H 0.5102 0.07182 0.51173 0.0
H683 H 0.50483 0.09601 0.44452 0.0
C684 C 0.35357 0.46478 0.24619 0.0
C685 C 0.34839 0.47663 0.20298 0.0
C686 C 0.37091 0.46701 0.27278 0.0
C687 C 0.40855 0.50228 0.29872 0.0
H688 H 0.43596 0.45892 0.35298 0.0
C689 C 0.47983 0.51232 0.40826 0.0
C690 C 0.48324 0.50125 0.45418 0.0
C691 C 0.46474 0.50814 0.37343 0.0
C692 C 0.42857 0.47123 0.3383 0.0
H693 H 0.35782 0.49986 0.15314 0.0
H694 H 0.38829 0.50361 0.19911 0.0
H695 H 0.4075 0.45417 0.2994 0.0
H696 H 0.47508 0.47575 0.49604 0.0
H697 H 0.44841 0.46864 0.43642 0.0
H698 H 0.42937 0.51936 0.33829 0.0
C699 C 0.37872 0.49273 0.21292 0.0
C700 C 0.4121 0.46849 0.30758 0.0
C701 C 0.36133 0.49047 0.18613 0.0
C702 C 0.47226 0.48498 0.46216 0.0
C703 C 0.45713 0.48076 0.4273 0.0
C704 C 0.42503 0.50501 0.32932 0.0
C705 C 0.38369 0.48113 0.25698 0.0
C706 C 0.40179 0.48399 0.28749 0.0
C707 C 0.45276 0.49264 0.3833 0.0
C708 C 0.43536 0.48953 0.34953 0.0
H709 H 0.34414 0.45376 0.2598 0.0
H710 H 0.37406 0.4579 0.30672 0.0
H711 H 0.40083 0.51459 0.2851 0.0
H712 H 0.48852 0.52457 0.40016 0.0
H713 H 0.46235 0.51726 0.33903 0.0
C714 C 0.01839 0.36298 0.1781 0.0
C715 C 0.03419 0.35113 0.18496 0.0
C716 C 0.01592 0.3791 0.21092 0.0
C717 C 0.03143 0.4005 0.34254 0.0
H718 H 0.01236 0.44692 0.2805 0.0
C719 C 0.02975 0.4707 0.466 0.0
C720 C 0.01407 0.48256 0.4587 0.0
C721 C 0.03257 0.45497 0.43196 0.0
C722 C 0.0175 0.43404 0.29883 0.0
H723 H 0.05948 0.34693 0.23334 0.0
H724 H 0.05542 0.37501 0.28908 0.0
H725 H 0.01598 0.41899 0.22331 0.0
H726 H 0.98954 0.48786 0.40876 0.0
H727 H 0.99391 0.46014 0.35076 0.0
H728 H 0.03303 0.41552 0.41796 0.0
C729 C 0.04483 0.37186 0.25863 0.0
C730 C 0.01957 0.41795 0.26585 0.0
C731 C 0.04731 0.35583 0.2259 0.0
C732 C 1.00159 0.47875 0.41578 0.0
C733 C 0.00424 0.46294 0.38218 0.0
C734 C 0.02937 0.41659 0.37549 0.0
C735 C 0.0291 0.38377 0.25178 0.0
C736 C 0.02657 0.40092 0.28716 0.0
C737 C 0.01975 0.45074 0.38976 0.0
C738 C 0.02233 0.43362 0.35425 0.0
H739 H 0.00801 0.35991 0.14702 0.0
H740 H 1.00351 0.38778 0.20469 0.0
H741 H 0.03659 0.38762 0.36082 0.0
H742 H 0.03988 0.47362 0.49791 0.0
H743 H 0.04486 0.44619 0.43869 0.0
C744 C 0.85753 0.97302 0.00967 0.0
C745 C 0.84211 0.98507 0.99951 0.0
C746 C 0.87425 0.97457 0.97952 0.0
C747 C 0.89962 0.00645 0.88283 0.0
H748 H 0.92367 0.96009 0.83453 0.0
C749 C 0.94809 1.00387 0.6965 0.0
C750 C 0.96554 0.99456 0.70145 0.0
C751 C 0.93438 1.00237 0.73686 0.0
C752 C 0.91723 0.97316 0.84816 0.0
H753 H 0.83275 0.00892 0.95172 0.0
H754 H 0.86139 0.0113 0.89862 0.0
H755 H 0.89765 0.9587 0.89937 0.0
H756 H 0.98226 0.97633 0.75296 0.0
H757 H 0.95793 0.97325 0.82322 0.0
H758 H 0.91872 0.0208 0.82995 0.0
C759 C 0.86081 1.00073 0.93006 0.0
C760 C 0.90234 0.9724 0.88557 0.0
C761 C 0.8442 0.99923 0.96024 0.0
C762 C 0.96887 0.9835 0.74769 0.0
C763 C 0.95496 0.98174 0.78785 0.0
C764 C 0.91429 0.00716 0.84505 0.0
C765 C 0.876 0.98823 0.93848 0.0
C766 C 0.89308 0.98904 0.90277 0.0
C767 C 0.93766 0.9914 0.78319 0.0
C768 C 0.92307 0.99052 0.82658 0.0
H769 H 0.8564 0.96188 0.03936 0.0
H770 H 0.88571 0.96488 0.9879 0.0
H771 H 0.89327 0.01961 0.89597 0.0
H772 H 0.94525 0.01294 0.66235 0.0
H773 H 0.92117 0.0099 0.73188 0.0
C774 C 0.55316 0.86069 0.00705 0.0
C775 C 0.54365 0.84413 0.99103 0.0
C776 C 0.5504 0.87764 0.9788 0.0
C777 C 0.51804 0.90088 0.88011 0.0
H778 H 0.56234 0.92941 0.83799 0.0
C779 C 0.51734 0.94899 0.69529 0.0
C780 C 0.52507 0.96718 0.69992 0.0
C781 C 0.51994 0.9357 0.7361 0.0
C782 C 0.54982 0.92175 0.85006 0.0
H783 H 0.52309 0.8326 0.9347 0.0
H784 H 0.51838 0.86186 0.88552 0.0
H785 H 0.56554 0.90325 0.90191 0.0
H786 H 0.54175 0.98571 0.75126 0.0
H787 H 0.54663 0.96217 0.8229 0.0
H788 H 0.50243 0.91889 0.827 0.0
C789 C 0.52793 0.86194 0.91986 0.0
C790 C 0.55162 0.90678 0.88679 0.0
C791 C 0.53075 0.84508 0.94779 0.0
C792 C 0.53573 0.97174 0.74636 0.0
C793 C 0.53855 0.95828 0.78725 0.0
C794 C 0.51627 0.91569 0.84332 0.0
C795 C 0.53792 0.8784 0.93434 0.0
C796 C 0.5358 0.89585 0.90118 0.0
C797 C 0.53037 0.94021 0.78286 0.0
C798 C 0.53219 0.926 0.82679 0.0
H799 H 0.56327 0.86037 0.04002 0.0
H800 H 0.55818 0.89009 0.99138 0.0
H801 H 0.50548 0.8931 0.89123 0.0
H802 H 0.50855 0.94519 0.66118 0.0
H803 H 0.5136 0.92186 0.73121 0.0
C804 C 0.65459 0.55479 0.94557 0.0
C805 C 0.6634 0.53992 0.97376 0.0
C806 C 0.63772 0.55188 0.91715 0.0
C807 C 0.59593 0.52128 0.90329 0.0
H808 H 0.5955 0.53919 0.75526 0.0
C809 C 0.53541 0.50171 0.75366 0.0
C810 C 0.53137 0.5139 0.71056 0.0
C811 C 0.55072 0.50529 0.78835 0.0
C812 C 0.59508 0.53434 0.7967 0.0
H813 H 0.66056 0.51046 0.99596 0.0
H814 H 0.63073 0.50554 0.94736 0.0
H815 H 0.62311 0.5445 0.81166 0.0
H816 H 0.53891 0.54037 0.67307 0.0
H817 H 0.5652 0.54702 0.73395 0.0
H818 H 0.56775 0.51152 0.88906 0.0
C819 C 0.63713 0.51943 0.94702 0.0
C820 C 0.61107 0.53734 0.82907 0.0
C821 C 0.65421 0.52228 0.97508 0.0
C822 C 0.54215 0.53038 0.70479 0.0
C823 C 0.55725 0.53416 0.73998 0.0
C824 C 0.57978 0.5185 0.87111 0.0
C825 C 0.62894 0.53409 0.91665 0.0
C826 C 0.61174 0.53082 0.88272 0.0
C827 C 0.56206 0.52151 0.7818 0.0
C828 C 0.5791 0.52491 0.81708 0.0
H829 H 0.66087 0.56873 0.94475 0.0
H830 H 0.63158 0.56358 0.89516 0.0
H831 H 0.59592 0.51626 0.94465 0.0
H832 H 0.52706 0.48906 0.75947 0.0
H833 H 0.55392 0.495 0.81927 0.0
C834 C 0.9921 0.6689 0.92729 0.0
C835 C 0.98608 0.66799 0.98156 0.0
C836 C 0.99326 0.65256 0.89506 0.0
C837 C 0.9966 0.60022 0.90253 0.0
H838 H 0.98213 0.60254 0.75117 0.0
C839 C 0.98838 0.54802 0.69995 0.0
C840 C 0.0048 0.53712 0.70667 0.0
C841 C 0.98452 0.56323 0.7351 0.0
C842 C 0.98613 0.60153 0.79338 0.0
H843 H 0.97681 0.64883 0.0443 0.0
H844 H 0.9787 0.62037 0.98806 0.0
H845 H 0.97865 0.63043 0.80866 0.0
H846 H 0.0294 0.53277 0.75712 0.0
H847 H 0.0231 0.55944 0.81734 0.0
H848 H 0.00391 0.57131 0.88754 0.0
C849 C 0.98264 0.63378 0.97047 0.0
C850 C 0.98432 0.61765 0.82636 0.0
C851 C 0.98141 0.65016 1.00269 0.0
C852 C 0.0168 0.54115 0.75055 0.0
C853 C 0.01304 0.55637 0.7854 0.0
C854 C 0.99849 0.58413 0.86953 0.0
C855 C 0.98848 0.63475 0.91603 0.0
C856 C 0.98972 0.61731 0.88131 0.0
C857 C 0.99692 0.56777 0.77809 0.0
C858 C 0.99355 0.58458 0.8142 0.0
H859 H 0.99556 0.68235 0.90914 0.0
H860 H 0.99806 0.6539 0.85364 0.0
H861 H 1.00098 0.59936 0.9445 0.0
H862 H 0.97856 0.54483 0.66746 0.0
H863 H 0.9718 0.5714 0.72854 0.0
C864 C 0.07836 0.21651 0.36157 0.0
C865 C 0.08557 0.20913 0.31275 0.0
C866 C 0.07569 0.20481 0.40625 0.0
C867 C 0.07979 0.15438 0.4531 0.0
H868 H 0.02793 0.16348 0.49577 0.0
C869 C 0.02427 0.09676 0.47547 0.0
C870 C 0.00842 0.09989 0.50851 0.0
C871 C 0.03889 0.10997 0.47389 0.0
C872 C 0.04258 0.16081 0.48585 0.0
H873 H 0.09834 0.18434 0.27582 0.0
H874 H 0.09252 0.16373 0.35192 0.0
H875 H 0.04544 0.18824 0.4524 0.0
H876 H 0.99662 0.11805 0.57089 0.0
H877 H 0.02203 0.1413 0.56745 0.0
H878 H 0.07612 0.12627 0.48327 0.0
C879 C 0.08904 0.17855 0.35629 0.0
C880 C 0.05275 0.17514 0.46083 0.0
C881 C 0.09208 0.19035 0.31202 0.0
C882 C 0.00838 0.11556 0.54376 0.0
C883 C 0.02297 0.12881 0.54201 0.0
C884 C 0.06951 0.13994 0.47793 0.0
C885 C 0.07974 0.18538 0.40278 0.0
C886 C 0.07119 0.17187 0.44179 0.0
C887 C 0.03796 0.12659 0.50525 0.0
C888 C 0.05051 0.14276 0.49232 0.0
H889 H 0.07329 0.23092 0.36417 0.0
H890 H 0.0691 0.21072 0.44209 0.0
H891 H 0.0941 0.15149 0.44016 0.0
H892 H 0.02476 0.08486 0.44771 0.0
H893 H 0.05012 0.10786 0.44473 0.0
C894 C 0.31295 0.08902 0.33011 0.0
C895 C 0.31596 0.10034 0.28431 0.0
C896 C 0.32694 0.08725 0.3697 0.0
C897 C 0.35886 0.08568 0.45182 0.0
H898 H 0.40387 0.07133 0.37278 0.0
C899 C 0.40395 0.02212 0.50643 0.0
C900 C 0.42206 0.02012 0.48387 0.0
C901 C 0.39379 0.03888 0.49986 0.0
C902 C 0.39179 0.07574 0.39648 0.0
H903 H 0.33507 0.12046 0.24762 0.0
H904 H 0.35961 0.11723 0.31668 0.0
H905 H 0.37973 0.08947 0.32802 0.0
H906 H 0.44463 0.03519 0.44356 0.0
H907 H 0.42747 0.06464 0.43511 0.0
H908 H 0.37067 0.07107 0.51966 0.0
C909 C 0.34653 0.10949 0.32141 0.0
C910 C 0.37781 0.08622 0.37047 0.0
C911 C 0.3325 0.11129 0.28179 0.0
C912 C 0.43069 0.03608 0.46109 0.0
C913 C 0.42069 0.05297 0.4555 0.0
C914 C 0.37297 0.07531 0.47813 0.0
C915 C 0.34427 0.09672 0.36433 0.0
C916 C 0.36079 0.09049 0.39692 0.0
C917 C 0.40165 0.05415 0.4714 0.0
C918 C 0.38918 0.06936 0.44984 0.0
H919 H 0.30048 0.08026 0.33327 0.0
H920 H 0.32478 0.07716 0.40189 0.0
H921 H 0.346 0.08905 0.47353 0.0
H922 H 0.39713 0.01034 0.52617 0.0
H923 H 0.37924 0.03918 0.51323 0.0
C924 C 0.406 0.34834 0.20696 0.0
C925 C 0.40759 0.33138 0.23628 0.0
C926 C 0.4095 0.36573 0.23187 0.0
C927 C 0.42316 0.38942 0.36259 0.0
H928 H 0.45899 0.4143 0.26855 0.0
C929 C 0.48923 0.42875 0.43778 0.0
C930 C 0.49766 0.44202 0.40361 0.0
C931 C 0.47211 0.42031 0.42297 0.0
C932 C 0.44868 0.40804 0.29531 0.0
H933 H 0.41141 0.32002 0.31715 0.0
H934 H 0.41888 0.35018 0.35949 0.0
H935 H 0.439 0.38993 0.23219 0.0
H936 H 0.49428 0.45854 0.33089 0.0
H937 H 0.46416 0.44429 0.30551 0.0
H938 H 0.43383 0.40716 0.42649 0.0
C939 C 0.41474 0.35003 0.31724 0.0
C940 C 0.4371 0.39392 0.27425 0.0
C941 C 0.41079 0.33261 0.29257 0.0
C942 C 0.48802 0.44813 0.35736 0.0
C943 C 0.47086 0.43986 0.34282 0.0
C944 C 0.43481 0.40369 0.38381 0.0
C945 C 0.41518 0.36667 0.28638 0.0
C946 C 0.42459 0.38399 0.3078 0.0
C947 C 0.4632 0.42511 0.37384 0.0
C948 C 0.44815 0.41276 0.35068 0.0
H949 H 0.40357 0.34829 0.1637 0.0
H950 H 0.4091 0.37834 0.20726 0.0
H951 H 0.4135 0.38223 0.38944 0.0
H952 H 0.49655 0.42393 0.47373 0.0
H953 H 0.46675 0.40896 0.44781 0.0
C954 C 0.19089 0.41059 0.31722 0.0
C955 C 0.18896 0.41722 0.26387 0.0
C956 C 0.17581 0.41196 0.3537 0.0
C957 C 0.12503 0.42781 0.36301 0.0
H958 H 0.14265 0.45191 0.49493 0.0
C959 C 0.08056 0.48617 0.45328 0.0
C960 C 0.09126 0.50247 0.46399 0.0
C961 C 0.08927 0.46844 0.45058 0.0
C962 C 0.13741 0.44525 0.45828 0.0
H963 H 0.16927 0.42942 0.20635 0.0
H964 H 0.14348 0.43208 0.26899 0.0
H965 H 0.16427 0.43284 0.442 0.0
H966 H 0.11898 0.51273 0.48691 0.0
H967 H 0.13439 0.48244 0.47873 0.0
H968 H 0.09894 0.44208 0.37529 0.0
C969 C 0.15631 0.42537 0.2831 0.0
C970 C 0.14979 0.43394 0.42822 0.0
C971 C 0.17126 0.4239 0.24679 0.0
C972 C 0.11046 0.50048 0.47692 0.0
C973 C 0.11923 0.48289 0.47323 0.0
C974 C 0.11282 0.43954 0.39217 0.0
C975 C 0.15855 0.42013 0.33766 0.0
C976 C 0.14412 0.42621 0.37813 0.0
C977 C 0.10896 0.46673 0.45728 0.0
C978 C 0.1193 0.44953 0.43811 0.0
H979 H 0.20428 0.40509 0.33137 0.0
H980 H 0.17797 0.40742 0.39506 0.0
H981 H 0.1199 0.42137 0.3259 0.0
H982 H 0.06573 0.48727 0.4432 0.0
H983 H 0.08072 0.4563 0.43991 0.0
C984 C 0.93672 0.80797 0.821 0.0
C985 C 0.92528 0.80987 0.8672 0.0
C986 C 0.93703 0.82209 0.78176 0.0
C987 C 0.93568 0.85429 0.70126 0.0
H988 H 0.94678 0.89972 0.78352 0.0
C989 C 0.99699 0.90253 0.65294 0.0
C990 C 0.99824 0.9204 0.67786 0.0
C991 C 0.98053 0.8918 0.6572 0.0
C992 C 0.94323 0.88752 0.75888 0.0
H993 H 0.90341 0.8269 0.90481 0.0
H994 H 0.90414 0.85171 0.83647 0.0
H995 H 0.93018 0.87421 0.82632 0.0
H996 H 0.98205 0.94216 0.71928 0.0
H997 H 0.95312 0.92397 0.72388 0.0
H998 H 0.94964 0.86739 0.63444 0.0
C999 C 0.91308 0.83942 0.83113 0.0
C1000 C 0.93364 0.87275 0.78378 0.0
C1001 C 0.91272 0.82525 0.87036 0.0
C1002 C 0.98179 0.92835 0.70026 0.0
C1003 C 0.96519 0.91777 0.70355 0.0
C1004 C 0.94513 0.8692 0.67603 0.0
C1005 C 0.92595 0.83845 0.78792 0.0
C1006 C 0.9307 0.85558 0.75626 0.0
C1007 C 0.96479 0.89885 0.68565 0.0
C1008 C 0.95001 0.88559 0.70556 0.0
H1009 H 0.94667 0.79642 0.81728 0.0
H1010 H 0.94724 0.82094 0.7493 0.0
H1011 H 0.93329 0.84133 0.67871 0.0
H1012 H 0.00916 0.89627 0.63327 0.0
H1013 H 0.98086 0.8774 0.64223 0.0
C1014 C 0.70665 0.9303 0.82689 0.0
C1015 C 0.69866 0.92419 0.87594 0.0
C1016 C 0.6953 0.93339 0.78147 0.0
C1017 C 0.64506 0.93226 0.73147 0.0
H1018 H 0.65772 0.98297 0.68578 0.0
C1019 C 0.59142 0.99102 0.70446 0.0
C1020 C 0.59581 0.00681 0.67265 0.0
C1021 C 0.60353 0.97548 0.70586 0.0
C1022 C 0.65405 0.96861 0.69642 0.0
H1023 H 0.67285 0.91394 0.91278 0.0
H1024 H 0.65293 0.92051 0.83513 0.0
H1025 H 0.68102 0.96433 0.73224 0.0
H1026 H 0.61498 0.01765 0.61197 0.0
H1027 H 0.6361 0.99039 0.614 0.0
H1028 H 0.61747 0.93737 0.6987 0.0
C1029 C 0.66798 0.92276 0.83128 0.0
C1030 C 0.66754 0.9578 0.72331 0.0
C1031 C 0.67941 0.9193 0.87639 0.0
C1032 C 0.61155 0.00592 0.63814 0.0
C1033 C 0.62359 0.99027 0.63914 0.0
C1034 C 0.63148 0.94316 0.70461 0.0
C1035 C 0.67563 0.93088 0.78428 0.0
C1036 C 0.66296 0.93984 0.74357 0.0
C1037 C 0.62027 0.97535 0.67529 0.0
C1038 C 0.63558 0.96182 0.68919 0.0
H1039 H 0.7214 0.93419 0.82444 0.0
H1040 H 0.70178 0.93909 0.74539 0.0
H1041 H 0.64118 0.91831 0.74536 0.0
H1042 H 0.57941 0.99125 0.73157 0.0
H1043 H 0.60054 0.96434 0.73447 0.0
C1044 C 0.61149 0.67146 0.90835 0.0
C1045 C 0.6027 0.68901 0.89947 0.0
C1046 C 0.60884 0.65648 0.87187 0.0
C1047 C 0.58688 0.64302 0.73921 0.0
H1048 H 0.56428 0.60311 0.82397 0.0
C1049 C 0.51865 0.60658 0.67914 0.0
C1050 C 0.51391 0.58894 0.70093 0.0
C1051 C 0.53631 0.61458 0.68935 0.0
C1052 C 0.57096 0.6137 0.79901 0.0
H1053 H 0.58574 0.70501 0.8424 0.0
H1054 H 0.58133 0.67915 0.77915 0.0
H1055 H 0.58477 0.62581 0.86777 0.0
H1056 H 0.52445 0.56511 0.74656 0.0
H1057 H 0.55551 0.57888 0.7636 0.0
H1058 H 0.57217 0.63138 0.67088 0.0
C1059 C 0.59033 0.67688 0.81405 0.0
C1060 C 0.58278 0.62681 0.82436 0.0
C1061 C 0.59287 0.69179 0.85058 0.0
C1062 C 0.52774 0.57872 0.72919 0.0
C1063 C 0.54547 0.58669 0.7393 0.0
C1064 C 0.57514 0.62979 0.71367 0.0
C1065 C 0.59747 0.65882 0.82562 0.0
C1066 C 0.59003 0.6422 0.7954 0.0
C1067 C 0.54967 0.60509 0.72161 0.0
C1068 C 0.56618 0.61561 0.74396 0.0
H1069 H 0.61954 0.66897 0.94497 0.0
H1070 H 0.61477 0.64279 0.88143 0.0
H1071 H 0.59255 0.65456 0.71565 0.0
H1072 H 0.50837 0.61459 0.65618 0.0
H1073 H 0.53889 0.62879 0.67518 0.0
C1074 C 0.8193 0.59062 0.83393 0.0
C1075 C 0.82296 0.59433 0.88901 0.0
C1076 C 0.83385 0.59144 0.79583 0.0
C1077 C 0.88638 0.59951 0.78256 0.0
H1078 H 0.88324 0.55157 0.70654 0.0
C1079 C 0.94309 0.5438 0.78404 0.0
C1080 C 0.94357 0.52978 0.74358 0.0
C1081 C 0.93106 0.55931 0.77905 0.0
C1082 C 0.8844 0.5653 0.72591 0.0
H1083 H 0.84415 0.60456 0.94558 0.0
H1084 H 0.86964 0.60476 0.88056 0.0
H1085 H 0.85487 0.56599 0.74062 0.0
H1086 H 0.93369 0.52219 0.66313 0.0
H1087 H 0.91259 0.54931 0.65445 0.0
H1088 H 0.91638 0.5976 0.77185 0.0
C1089 C 0.85559 0.60139 0.86605 0.0
C1090 C 0.86797 0.57368 0.74565 0.0
C1091 C 0.84098 0.60094 0.90385 0.0
C1092 C 0.93345 0.53267 0.69528 0.0
C1093 C 0.92133 0.54818 0.69035 0.0
C1094 C 0.90291 0.59097 0.76324 0.0
C1095 C 0.85247 0.59557 0.81213 0.0
C1096 C 0.86884 0.59031 0.77715 0.0
C1097 C 0.91919 0.56103 0.73361 0.0
C1098 C 0.90215 0.57322 0.7375 0.0
H1099 H 0.80558 0.58564 0.82068 0.0
H1100 H 0.83074 0.58749 0.75432 0.0
H1101 H 0.88756 0.61264 0.80506 0.0
H1102 H 0.95119 0.5422 0.82102 0.0
H1103 H 0.92984 0.56894 0.81314 0.0
C1104 C 0.0429 0.18848 0.83117 0.0
C1105 C 0.02951 0.19563 0.86816 0.0
C1106 C 0.03917 0.17221 0.80025 0.0
C1107 C 0.00839 0.1295 0.79947 0.0
H1108 H 0.02813 0.12245 0.65452 0.0
C1109 C 0.98741 0.06448 0.67143 0.0
C1110 C 1.00134 0.05554 0.64009 0.0
C1111 C 0.99087 0.08199 0.69611 0.0
C1112 C 0.02256 0.12412 0.69498 0.0
H1113 H 1.00129 0.19138 0.89963 0.0
H1114 H 0.99455 0.16341 0.84469 0.0
H1115 H 0.03326 0.15237 0.70181 0.0
H1116 H 0.02909 0.05887 0.60493 0.0
H1117 H 0.03542 0.08945 0.64883 0.0
H1118 H 0.99774 0.1013 0.79276 0.0
C1119 C 0.00818 0.17016 0.84044 0.0
C1120 C 0.02556 0.14132 0.72237 0.0
C1121 C 0.01194 0.18644 0.87148 0.0
C1122 C 0.01838 0.06513 0.63067 0.0
C1123 C 0.02187 0.08277 0.65531 0.0
C1124 C 0.00531 0.11238 0.77199 0.0
C1125 C 0.02189 0.16255 0.8051 0.0
C1126 C 0.01845 0.14433 0.77504 0.0
C1127 C 0.00829 0.09126 0.6895 0.0
C1128 C 0.01218 0.10946 0.71908 0.0
H1129 H 0.05651 0.19527 0.82677 0.0
H1130 H 0.05016 0.16685 0.77387 0.0
H1131 H 1.00312 0.13095 0.84043 0.0
H1132 H 0.97389 0.0577 0.67786 0.0
H1133 H 0.9798 0.08826 0.72048 0.0
C1134 C 0.32795 0.04924 0.80917 0.0
C1135 C 0.32062 0.0369 0.84842 0.0
C1136 C 0.34366 0.04412 0.7779 0.0
C1137 C 0.38526 0.01261 0.78338 0.0
H1138 H 0.39203 0.02684 0.63319 0.0
C1139 C 0.45051 0.98796 0.66481 0.0
C1140 C 0.45972 1.00128 0.63244 0.0
C1141 C 0.43267 0.99178 0.68636 0.0
C1142 C 0.39044 0.02291 0.67527 0.0
H1143 H 0.32375 0.00909 0.88366 0.0
H1144 H 0.35088 1.00002 0.82852 0.0
H1145 H 0.36225 0.03403 0.67905 0.0
H1146 H 0.45664 0.02815 0.59184 0.0
H1147 H 0.42543 0.03509 0.63017 0.0
H1148 H 0.41339 1.00174 0.78015 0.0
C1149 C 0.34465 0.01383 0.82252 0.0
C1150 C 0.37333 0.02701 0.70158 0.0
C1151 C 0.3289 0.01893 0.8537 0.0
C1152 C 0.45012 0.01795 0.61848 0.0
C1153 C 0.43214 0.02178 0.63988 0.0
C1154 C 0.40229 0.00856 0.7572 0.0
C1155 C 0.35253 0.02652 0.78507 0.0
C1156 C 0.37049 0.02184 0.75601 0.0
C1157 C 0.42341 0.00894 0.67535 0.0
C1158 C 0.40513 0.01354 0.70271 0.0
H1159 H 0.3218 0.06311 0.8035 0.0
H1160 H 0.34931 0.05431 0.74968 0.0
H1161 H 0.38383 0.00883 0.82561 0.0
H1162 H 0.45737 0.97472 0.67469 0.0
H1163 H 0.42619 0.98129 0.71208 0.0
C1164 C 0.46074 0.32001 0.79891 0.0
C1165 C 0.47243 0.31278 0.84004 0.0
C1166 C 0.46672 0.33505 0.76671 0.0
C1167 C 0.49989 0.37539 0.77097 0.0
H1168 H 0.48329 0.38221 0.62258 0.0
C1169 C 0.51852 0.44264 0.65031 0.0
C1170 C 0.50336 0.45112 0.62277 0.0
C1171 C 0.51677 0.42438 0.67135 0.0
C1172 C 0.48798 0.38054 0.66407 0.0
H1173 H 0.50008 0.31517 0.8774 0.0
H1174 H 0.51075 0.34102 0.82017 0.0
H1175 H 0.4771 0.35236 0.66827 0.0
H1176 H 0.47483 0.44664 0.59312 0.0
H1177 H 0.47177 0.41493 0.62994 0.0
H1178 H 0.51058 0.40364 0.76694 0.0
C1179 C 0.49674 0.33533 0.81363 0.0
C1180 C 0.48442 0.36343 0.69034 0.0
C1181 C 0.49072 0.32029 0.846 0.0
C1182 C 0.48673 0.44061 0.61462 0.0
C1183 C 0.48502 0.42234 0.63537 0.0
C1184 C 0.50354 0.39245 0.7446 0.0
C1185 C 0.48463 0.34324 0.77449 0.0
C1186 C 0.49004 0.36071 0.7445 0.0
C1187 C 0.49989 0.41412 0.66487 0.0
C1188 C 0.49738 0.39536 0.69111 0.0
H1189 H 0.44667 0.31441 0.79263 0.0
H1190 H 0.45692 0.34077 0.73735 0.0
H1191 H 0.50417 0.37402 0.8129 0.0
H1192 H 0.53154 0.4503 0.65723 0.0
H1193 H 0.52858 0.41838 0.69325 0.0
C1194 C 0.19923 0.47181 0.81612 0.0
C1195 C 0.20477 0.48368 0.85934 0.0
C1196 C 0.18378 0.47642 0.78315 0.0
C1197 C 0.14006 0.50569 0.785 0.0
H1198 H 0.13656 0.49022 0.63435 0.0
C1199 C 0.07424 0.52302 0.65524 0.0
C1200 C 0.06676 0.50802 0.62444 0.0
C1201 C 0.09216 0.52155 0.67912 0.0
C1202 C 0.13727 0.49455 0.67647 0.0
H1203 H 0.19864 0.51028 0.8997 0.0
H1204 H 0.17223 0.51866 0.84113 0.0
H1205 H 0.16603 0.48547 0.68408 0.0
H1206 H 0.07274 0.48017 0.59172 0.0
H1207 H 0.10402 0.47761 0.63314 0.0
H1208 H 0.11131 0.51474 0.77738 0.0
C1209 C 0.17954 0.50547 0.83355 0.0
C1210 C 0.15419 0.4918 0.70514 0.0
C1211 C 0.19495 0.5008 0.86675 0.0
C1212 C 0.07801 0.4919 0.61576 0.0
C1213 C 0.09601 0.49049 0.63924 0.0
C1214 C 0.12322 0.50857 0.75626 0.0
C1215 C 0.17342 0.49314 0.79203 0.0
C1216 C 0.1558 0.49716 0.76007 0.0
C1217 C 0.10315 0.50512 0.6723 0.0
C1218 C 0.12152 0.50289 0.70173 0.0
H1219 H 0.20658 0.45864 0.80844 0.0
H1220 H 0.17955 0.46645 0.75199 0.0
H1221 H 0.14048 0.50968 0.82739 0.0
H1222 H 0.06598 0.53565 0.66266 0.0
H1223 H 0.09732 0.53322 0.70356 0.0
C1224 C 0.00385 0.83093 0.30038 0.0
C1225 C 0.9864 0.82154 0.30426 0.0
C1226 C 0.00771 0.84696 0.33233 0.0
C1227 C 0.99203 0.87426 0.45452 0.0
H1228 H 0.01673 0.91582 0.38184 0.0
C1229 C 0.99896 0.95031 0.54823 0.0
C1230 C 0.01555 0.96036 0.5363 0.0
C1231 C 0.99549 0.9326 0.52397 0.0
C1232 C 0.01004 0.90431 0.40319 0.0
H1233 H 0.95974 0.82124 0.34733 0.0
H1234 H 0.9664 0.84917 0.40254 0.0
H1235 H 0.01102 0.88646 0.33297 0.0
H1236 H 0.04229 0.95898 0.49438 0.0
H1237 H 0.03634 0.92836 0.45204 0.0
H1238 H 0.99102 0.89229 0.52481 0.0
C1239 C 0.97714 0.84418 0.37477 0.0
C1240 C 0.00677 0.88738 0.37502 0.0
C1241 C 0.97325 0.8282 0.34267 0.0
C1242 C 0.0291 0.95183 0.50279 0.0
C1243 C 0.02563 0.93428 0.47837 0.0
C1244 C 0.99534 0.89125 0.48285 0.0
C1245 C 0.99428 0.85404 0.36932 0.0
C1246 C 0.99782 0.87204 0.40023 0.0
C1247 C 0.0086 0.92456 0.48752 0.0
C1248 C 0.00453 0.90648 0.45767 0.0
H1249 H 0.01429 0.82636 0.2711 0.0
H1250 H 0.0212 0.85395 0.32752 0.0
H1251 H 0.98521 0.86275 0.4755 0.0
H1252 H 0.98859 0.95626 0.57567 0.0
H1253 H 0.98227 0.92553 0.53241 0.0
C1254 C 0.68827 0.96832 0.36572 0.0
C1255 C 0.69473 0.98122 0.32672 0.0
C1256 C 0.67283 0.97268 0.39894 0.0
C1257 C 0.64215 0.01221 0.44715 0.0
H1258 H 0.60483 0.97266 0.46379 0.0
C1259 C 0.56563 0.02852 0.51256 0.0
C1260 C 0.55549 0.01514 0.54242 0.0
C1261 C 0.58367 0.02436 0.49284 0.0
C1262 C 0.61514 0.98384 0.46026 0.0
H1263 H 0.69021 0.00918 0.29371 0.0
H1264 H 0.66339 0.01683 0.35169 0.0
H1265 H 0.63437 0.96577 0.41766 0.0
H1266 H 0.55696 0.98756 0.57961 0.0
H1267 H 0.58858 0.98019 0.54546 0.0
H1268 H 0.62284 0.03032 0.48933 0.0
C1269 C 0.67037 1.00334 0.35692 0.0
C1270 C 0.63219 0.97987 0.43378 0.0
C1271 C 0.68582 0.99897 0.32363 0.0
C1272 C 0.56419 0.99786 0.55491 0.0
C1273 C 0.58233 0.99368 0.53532 0.0
C1274 C 0.62511 0.01617 0.4737 0.0
C1275 C 0.66339 0.9901 0.39426 0.0
C1276 C 0.64583 0.99407 0.42606 0.0
C1277 C 0.59226 0.00681 0.50344 0.0
C1278 C 0.61117 1.00214 0.4797 0.0
H1279 H 0.69496 0.95464 0.37 0.0
H1280 H 0.66815 0.96228 0.42796 0.0
H1281 H 0.65245 0.02341 0.44302 0.0
H1282 H 0.55937 0.0421 0.50325 0.0
H1283 H 0.59066 0.03478 0.46802 0.0
C1284 C 0.55274 0.69871 0.37391 0.0
C1285 C 0.54109 0.704 0.33032 0.0
C1286 C 0.54776 0.68367 0.40746 0.0
C1287 C 0.50862 0.65142 0.44669 0.0
H1288 H 0.54955 0.61612 0.47194 0.0
C1289 C 0.49677 0.57392 0.51557 0.0
C1290 C 0.51072 0.56538 0.54775 0.0
C1291 C 0.49931 0.59232 0.49613 0.0
C1292 C 0.53797 0.62594 0.46634 0.0
H1293 H 0.51454 0.69811 0.28968 0.0
H1294 H 0.5058 0.6719 0.34838 0.0
H1295 H 0.55587 0.6457 0.42625 0.0
H1296 H 0.5375 0.56995 0.58853 0.0
H1297 H 0.54173 0.60202 0.55579 0.0
H1298 H 0.49068 0.63143 0.4864 0.0
C1299 C 0.51877 0.67947 0.3568 0.0
C1300 C 0.54162 0.64296 0.43995 0.0
C1301 C 0.52377 0.69456 0.32316 0.0
C1302 C 0.52668 0.57599 0.5628 0.0
C1303 C 0.52915 0.59437 0.54375 0.0
C1304 C 0.50497 0.63437 0.47341 0.0
C1305 C 0.53098 0.67348 0.39837 0.0
C1306 C 0.527 0.65589 0.42941 0.0
C1307 C 0.51577 0.60262 0.50887 0.0
C1308 C 0.51959 0.62132 0.48326 0.0
H1309 H 0.56602 0.70589 0.38119 0.0
H1310 H 0.55729 0.67973 0.43985 0.0
H1311 H 0.49705 0.66113 0.43967 0.0
H1312 H 0.48431 0.5661 0.50335 0.0
H1313 H 0.48874 0.59811 0.46915 0.0
C1314 C 0.82011 0.54055 0.32759 0.0
C1315 C 0.81386 0.52491 0.29691 0.0
C1316 C 0.83576 0.53906 0.36224 0.0
C1317 C 0.8675 0.50434 0.43116 0.0
H1318 H 0.90324 0.5458 0.42951 0.0
C1319 C 0.94427 0.49752 0.51259 0.0
C1320 C 0.9527 0.51332 0.53757 0.0
C1321 C 0.92629 0.49883 0.48895 0.0
C1322 C 0.89331 0.53419 0.43124 0.0
H1323 H 0.81886 0.49515 0.28107 0.0
H1324 H 0.84623 0.49263 0.34064 0.0
H1325 H 0.87389 0.54826 0.37848 0.0
H1326 H 0.94812 0.54262 0.56027 0.0
H1327 H 0.91684 0.5449 0.51933 0.0
H1328 H 0.88712 0.49017 0.48332 0.0
C1329 C 0.83898 0.50607 0.3382 0.0
C1330 C 0.8764 0.5356 0.40186 0.0
C1331 C 0.82333 0.50756 0.30351 0.0
C1332 C 0.94227 0.53024 0.54044 0.0
C1333 C 0.92431 0.53157 0.51677 0.0
C1334 C 0.88443 0.50292 0.46053 0.0
C1335 C 0.84565 0.52188 0.36736 0.0
C1336 C 0.86328 0.52066 0.40102 0.0
C1337 C 0.91618 0.51598 0.48977 0.0
C1338 C 0.89766 0.51778 0.46071 0.0
H1339 H 0.81336 0.55419 0.32331 0.0
H1340 H 0.84025 0.55149 0.38459 0.0
H1341 H 0.85766 0.49264 0.43228 0.0
H1342 H 0.9518 0.48428 0.50942 0.0
H1343 H 0.92062 0.48655 0.46824 0.0
loop_
_geom_bond_atom_site_label_1
_geom_bond_atom_site_label_2
_geom_bond_distance
_geom_bond_site_symmetry_2
_ccdc_geom_bond_type
C0 C1 1.384 . S
C0 H13 0.947 . S
C0 C35 1.382 . S
C1 C0 1.384 . S
C1 C2 1.378 . S
C2 C1 1.378 . S
C2 C3 1.378 . S
C2 H14 0.952 . S
C3 C2 1.378 . S
C3 H15 0.950 . S
C3 C34 1.383 . S
H4 C23 0.947 . S
H5 C24 0.946 . S
H6 C26 0.953 . S
H7 C27 0.945 . S
H8 C29 0.952 1_556 S
H9 C30 0.949 . S
H10 C32 0.950 . S
H11 C33 0.948 . S
H12 C35 0.951 . S
H13 C0 0.947 . S
H14 C2 0.952 . S
H15 C3 0.950 . S
N16 C19 1.382 . S
N16 C21 1.363 . S
N17 C19 1.371 . S
N17 C20 1.372 . S
N18 C20 1.361 . S
N18 C21 1.377 . S
C19 N16 1.382 . S
C19 N17 1.371 . S
C19 C22 1.480 . S
C20 N17 1.372 . S
C20 N18 1.361 . S
C20 C28 1.457 . S
C21 N16 1.363 . S
C21 N18 1.377 . S
C21 C34 1.479 . S
C22 C19 1.480 . S
C22 C23 1.383 . S
C22 C27 1.385 . S
C23 H4 0.947 . S
C23 C22 1.383 . S
C23 C24 1.388 . S
C24 H5 0.946 . S
C24 C23 1.388 . S
C24 C25 1.384 . S
C25 C24 1.384 . S
C25 C26 1.377 . S
C26 H6 0.953 . S
C26 C25 1.377 . S
C26 C27 1.369 . S
C27 H7 0.945 . S
C27 C22 1.385 . S
C27 C26 1.369 . S
C28 C20 1.457 . S
C28 C29 1.372 . S
C28 C33 1.364 . S
C29 H8 0.952 1_554 S
C29 C28 1.372 . S
C29 C30 1.389 1_554 S
C30 H9 0.949 . S
C30 C29 1.389 1_556 S
C30 C31 1.387 . S
C31 C30 1.387 . S
C31 C32 1.372 1_556 S
C32 H10 0.950 . S
C32 C31 1.372 1_554 S
C32 C33 1.379 . S
C33 H11 0.948 . S
C33 C28 1.364 . S
C33 C32 1.379 . S
C34 C3 1.383 . S
C34 C21 1.479 . S
C34 C35 1.398 . S
C35 C0 1.382 . S
C35 H12 0.951 . S
C35 C34 1.398 . S
C36 C37 1.384 . S
C36 H49 0.947 . S
C36 C71 1.382 . S
C37 C36 1.384 . S
C37 C38 1.378 . S
C38 C37 1.378 . S
C38 C39 1.378 . S
C38 H50 0.952 . S
C39 C38 1.378 . S
C39 H51 0.950 . S
C39 C70 1.383 . S
H40 C59 0.947 . S
H41 C60 0.946 . S
H42 C62 0.953 . S
H43 C63 0.945 . S
H44 C65 0.952 . S
H45 C66 0.949 . S
H46 C68 0.950 . S
H47 C69 0.948 . S
H48 C71 0.951 . S
H49 C36 0.947 . S
H50 C38 0.952 . S
H51 C39 0.950 . S
N52 C55 1.382 . S
N52 C57 1.363 . S
N53 C55 1.371 . S
N53 C56 1.372 . S
N54 C56 1.361 . S
N54 C57 1.377 . S
C55 N52 1.382 . S
C55 N53 1.371 . S
C55 C58 1.480 . S
C56 N53 1.372 . S
C56 N54 1.361 . S
C56 C64 1.457 . S
C57 N52 1.363 . S
C57 N54 1.377 . S
C57 C70 1.479 . S
C58 C55 1.480 . S
C58 C59 1.383 . S
C58 C63 1.385 . S
C59 H40 0.947 . S
C59 C58 1.383 . S
C59 C60 1.388 . S
C60 H41 0.946 . S
C60 C59 1.388 . S
C60 C61 1.384 . S
C61 C60 1.384 . S
C61 C62 1.377 . S
C62 H42 0.953 . S
C62 C61 1.377 . S
C62 C63 1.369 . S
C63 H43 0.945 . S
C63 C58 1.385 . S
C63 C62 1.369 . S
C64 C56 1.457 . S
C64 C65 1.372 . S
C64 C69 1.364 . S
C65 H44 0.952 . S
C65 C64 1.372 . S
C65 C66 1.389 1_554 S
C66 H45 0.949 . S
C66 C65 1.389 1_556 S
C66 C67 1.387 . S
C67 C66 1.387 . S
C67 C68 1.372 1_556 S
C68 H46 0.950 . S
C68 C67 1.372 1_554 S
C68 C69 1.379 . S
C69 H47 0.948 . S
C69 C64 1.364 . S
C69 C68 1.379 . S
C70 C39 1.383 . S
C70 C57 1.479 . S
C70 C71 1.398 . S
C71 C36 1.382 . S
C71 H48 0.951 . S
C71 C70 1.398 . S
C72 C73 1.384 . S
C72 H85 0.947 . S
C72 C107 1.382 . S
C73 C72 1.384 . S
C73 C74 1.378 . S
C74 C73 1.378 . S
C74 C75 1.378 . S
C74 H86 0.952 . S
C75 C74 1.378 . S
C75 H87 0.950 . S
C75 C106 1.383 . S
H76 C95 0.947 . S
H77 C96 0.946 . S
H78 C98 0.953 . S
H79 C99 0.945 . S
H80 C101 0.952 . S
H81 C102 0.949 . S
H82 C104 0.950 . S
H83 C105 0.948 . S
H84 C107 0.951 . S
H85 C72 0.947 . S
H86 C74 0.952 . S
H87 C75 0.950 . S
N88 C91 1.382 . S
N88 C93 1.363 . S
N89 C91 1.371 . S
N89 C92 1.372 . S
N90 C92 1.361 . S
N90 C93 1.377 . S
C91 N88 1.382 . S
C91 N89 1.371 . S
C91 C94 1.480 . S
C92 N89 1.372 . S
C92 N90 1.361 . S
C92 C100 1.457 . S
C93 N88 1.363 . S
C93 N90 1.377 . S
C93 C106 1.479 . S
C94 C91 1.480 . S
C94 C95 1.383 . S
C94 C99 1.385 . S
C95 H76 0.947 . S
C95 C94 1.383 . S
C95 C96 1.388 . S
C96 H77 0.946 . S
C96 C95 1.388 . S
C96 C97 1.384 . S
C97 C96 1.384 . S
C97 C98 1.377 . S
C98 H78 0.953 . S
C98 C97 1.377 . S
C98 C99 1.369 . S
C99 H79 0.945 . S
C99 C94 1.385 . S
C99 C98 1.369 . S
C100 C92 1.457 . S
C100 C101 1.372 . S
C100 C105 1.364 . S
C101 H80 0.952 . S
C101 C100 1.372 . S
C101 C102 1.389 1_554 S
C102 H81 0.949 . S
C102 C101 1.389 1_556 S
C102 C103 1.387 . S
C103 C102 1.387 . S
C103 C104 1.372 1_556 S
C104 H82 0.950 . S
C104 C103 1.372 1_554 S
C104 C105 1.379 . S
C105 H83 0.948 . S
C105 C100 1.364 . S
C105 C104 1.379 . S
C106 C75 1.383 . S
C106 C93 1.479 . S
C106 C107 1.398 . S
C107 C72 1.382 . S
C107 H84 0.951 . S
C107 C106 1.398 . S
C108 C109 1.384 1_554 S
C108 H121 0.947 . S
C108 C143 1.382 . S
C109 C108 1.384 1_556 S
C109 C110 1.378 . S
C110 C109 1.378 . S
C110 C111 1.378 1_556 S
C110 H122 0.952 . S
C111 C110 1.378 1_554 S
C111 H123 0.950 1_554 S
C111 C142 1.383 . S
H112 C131 0.947 . S
H113 C132 0.946 . S
H114 C134 0.953 . S
H115 C135 0.945 . S
H116 C137 0.952 . S
H117 C138 0.949 . S
H118 C140 0.950 . S
H119 C141 0.948 . S
H120 C143 0.951 . S
H121 C108 0.947 . S
H122 C110 0.952 . S
H123 C111 0.950 1_556 S
N124 C127 1.382 . S
N124 C129 1.363 . S
N125 C127 1.371 . S
N125 C128 1.372 . S
N126 C128 1.361 . S
N126 C129 1.377 . S
C127 N124 1.382 . S
C127 N125 1.371 . S
C127 C130 1.480 . S
C128 N125 1.372 . S
C128 N126 1.361 . S
C128 C136 1.457 . S
C129 N124 1.363 . S
C129 N126 1.377 . S
C129 C142 1.479 . S
C130 C127 1.480 . S
C130 C131 1.383 . S
C130 C135 1.385 . S
C131 H112 0.947 . S
C131 C130 1.383 . S
C131 C132 1.388 . S
C132 H113 0.946 . S
C132 C131 1.388 . S
C132 C133 1.384 . S
C133 C132 1.384 . S
C133 C134 1.377 . S
C134 H114 0.953 . S
C134 C133 1.377 . S
C134 C135 1.369 . S
C135 H115 0.945 . S
C135 C130 1.385 . S
C135 C134 1.369 . S
C136 C128 1.457 . S
C136 C137 1.372 . S
C136 C141 1.364 . S
C137 H116 0.952 . S
C137 C136 1.372 . S
C137 C138 1.389 . S
C138 H117 0.949 . S
C138 C137 1.389 . S
C138 C139 1.387 . S
C139 C138 1.387 . S
C139 C140 1.372 . S
C140 H118 0.950 . S
C140 C139 1.372 . S
C140 C141 1.379 . S
C141 H119 0.948 . S
C141 C136 1.364 . S
C141 C140 1.379 . S
C142 C111 1.383 . S
C142 C129 1.479 . S
C142 C143 1.398 . S
C143 C108 1.382 . S
C143 H120 0.951 . S
C143 C142 1.398 . S
C144 C145 1.384 . S
C144 H157 0.947 . S
C144 C179 1.382 . S
C145 C144 1.384 . S
C145 C146 1.378 . S
C146 C145 1.378 . S
C146 C147 1.378 . S
C146 H158 0.952 . S
C147 C146 1.378 . S
C147 H159 0.950 . S
C147 C178 1.383 . S
H148 C167 0.947 1_556 S
H149 C168 0.946 1_556 S
H150 C170 0.953 . S
H151 C171 0.945 . S
H152 C173 0.952 . S
H153 C174 0.949 . S
H154 C176 0.950 . S
H155 C177 0.948 . S
H156 C179 0.951 . S
H157 C144 0.947 . S
H158 C146 0.952 . S
H159 C147 0.950 . S
N160 C163 1.382 1_556 S
N160 C165 1.363 . S
N161 C163 1.371 . S
N161 C164 1.372 . S
N162 C164 1.361 . S
N162 C165 1.377 1_554 S
C163 N160 1.382 1_554 S
C163 N161 1.371 . S
C163 C166 1.480 . S
C164 N161 1.372 . S
C164 N162 1.361 . S
C164 C172 1.457 . S
C165 N160 1.363 . S
C165 N162 1.377 1_556 S
C165 C178 1.479 . S
C166 C163 1.480 . S
C166 C167 1.383 . S
C166 C171 1.385 . S
C167 H148 0.947 1_554 S
C167 C166 1.383 . S
C167 C168 1.388 . S
C168 H149 0.946 1_554 S
C168 C167 1.388 . S
C168 C169 1.384 . S
C169 C168 1.384 . S
C169 C170 1.377 . S
C170 H150 0.953 . S
C170 C169 1.377 . S
C170 C171 1.369 . S
C171 H151 0.945 . S
C171 C166 1.385 . S
C171 C170 1.369 . S
C172 C164 1.457 . S
C172 C173 1.372 . S
C172 C177 1.364 . S
C173 H152 0.952 . S
C173 C172 1.372 . S
C173 C174 1.389 . S
C174 H153 0.949 . S
C174 C173 1.389 . S
C174 C175 1.387 . S
C175 C174 1.387 . S
C175 C176 1.372 . S
C176 H154 0.950 . S
C176 C175 1.372 . S
C176 C177 1.379 . S
C177 H155 0.948 . S
C177 C172 1.364 . S
C177 C176 1.379 . S
C178 C147 1.383 . S
C178 C165 1.479 . S
C178 C179 1.398 . S
C179 C144 1.382 . S
C179 H156 0.951 . S
C179 C178 1.398 . S
C180 C181 1.384 . S
C180 H193 0.947 . S
C180 C215 1.382 . S
C181 C180 1.384 . S
C181 C182 1.378 . S
C182 C181 1.378 . S
C182 C183 1.378 . S
C182 H194 0.952 . S
C183 C182 1.378 . S
C183 H195 0.950 . S
C183 C214 1.383 . S
H184 C203 0.947 . S
H185 C204 0.946 1_556 S
H186 C206 0.953 . S
H187 C207 0.945 . S
H188 C209 0.952 . S
H189 C210 0.949 . S
H190 C212 0.950 . S
H191 C213 0.948 . S
H192 C215 0.951 . S
H193 C180 0.947 . S
H194 C182 0.952 . S
H195 C183 0.950 . S
N196 C199 1.382 1_556 S
N196 C201 1.363 . S
N197 C199 1.371 . S
N197 C200 1.372 . S
N198 C200 1.373 . S
N198 C201 1.367 1_554 S
C199 N196 1.382 1_554 S
C199 N197 1.371 . S
C199 C202 1.480 . S
C200 N197 1.372 . S
C200 N198 1.373 . S
C200 C208 1.457 . S
C201 N196 1.363 . S
C201 N198 1.367 1_556 S
C201 C214 1.479 . S
C202 C199 1.480 . S
C202 C203 1.383 1_554 S
C202 C207 1.385 . S
C203 H184 0.947 . S
C203 C202 1.383 1_556 S
C203 C204 1.388 1_556 S
C204 H185 0.946 1_554 S
C204 C203 1.388 1_554 S
C204 C205 1.384 . S
C205 C204 1.384 . S
C205 C206 1.377 . S
C206 H186 0.953 . S
C206 C205 1.377 . S
C206 C207 1.369 . S
C207 H187 0.945 . S
C207 C202 1.385 . S
C207 C206 1.369 . S
C208 C200 1.457 . S
C208 C209 1.372 . S
C208 C213 1.364 . S
C209 H188 0.952 . S
C209 C208 1.372 . S
C209 C210 1.389 . S
C210 H189 0.949 . S
C210 C209 1.389 . S
C210 C211 1.387 . S
C211 C210 1.387 . S
C211 C212 1.372 . S
C212 H190 0.950 . S
C212 C211 1.372 . S
C212 C213 1.379 . S
C213 H191 0.948 . S
C213 C208 1.364 . S
C213 C212 1.379 . S
C214 C183 1.383 . S
C214 C201 1.479 . S
C214 C215 1.398 . S
C215 C180 1.382 . S
C215 H192 0.951 . S
C215 C214 1.398 . S
C216 C217 1.384 . S
C216 H229 0.947 . S
C216 C251 1.382 . S
C217 C216 1.384 . S
C217 C218 1.378 . S
C218 C217 1.378 . S
C218 C219 1.378 . S
C218 H230 0.952 . S
C219 C218 1.378 . S
C219 H231 0.950 . S
C219 C250 1.383 . S
H220 C239 0.947 . S
H221 C240 0.946 1_556 S
H222 C242 0.953 . S
H223 C243 0.945 . S
H224 C245 0.952 . S
H225 C246 0.949 . S
H226 C248 0.950 . S
H227 C249 0.948 . S
H228 C251 0.951 . S
H229 C216 0.947 . S
H230 C218 0.952 . S
H231 C219 0.950 . S
N232 C235 1.382 1_556 S
N232 C237 1.363 . S
N233 C235 1.371 . S
N233 C236 1.372 . S
N234 C236 1.349 1_556 S
N234 C237 1.386 . S
C235 N232 1.382 1_554 S
C235 N233 1.371 . S
C235 C238 1.480 . S
C236 N233 1.372 . S
C236 N234 1.349 1_554 S
C236 C244 1.457 . S
C237 N232 1.363 . S
C237 N234 1.386 . S
C237 C250 1.479 . S
C238 C235 1.480 . S
C238 C239 1.383 1_554 S
C238 C243 1.385 . S
C239 H220 0.947 . S
C239 C238 1.383 1_556 S
C239 C240 1.388 1_556 S
C240 H221 0.946 1_554 S
C240 C239 1.388 1_554 S
C240 C241 1.384 . S
C241 C240 1.384 . S
C241 C242 1.377 . S
C242 H222 0.953 . S
C242 C241 1.377 . S
C242 C243 1.369 . S
C243 H223 0.945 . S
C243 C238 1.385 . S
C243 C242 1.369 . S
C244 C236 1.457 . S
C244 C245 1.372 . S
C244 C249 1.364 . S
C245 H224 0.952 . S
C245 C244 1.372 . S
C245 C246 1.389 . S
C246 H225 0.949 . S
C246 C245 1.389 . S
C246 C247 1.387 . S
C247 C246 1.387 . S
C247 C248 1.372 . S
C248 H226 0.950 . S
C248 C247 1.372 . S
C248 C249 1.379 . S
C249 H227 0.948 . S
C249 C244 1.364 . S
C249 C248 1.379 . S
C250 C219 1.383 . S
C250 C237 1.479 . S
C250 C251 1.398 . S
C251 C216 1.382 . S
C251 H228 0.951 . S
C251 C250 1.398 . S
C252 C253 1.384 . S
C252 H265 0.947 . S
C252 C287 1.382 . S
C253 C252 1.384 . S
C253 C254 1.378 . S
C254 C253 1.378 . S
C254 C255 1.378 . S
C254 H266 0.952 . S
C255 C254 1.378 . S
C255 H267 0.950 . S
C255 C286 1.383 . S
H256 C275 0.947 . S
H257 C276 0.946 . S
H258 C278 0.953 1_556 S
H259 C279 0.945 . S
H260 C281 0.952 . S
H261 C282 0.949 . S
H262 C284 0.950 . S
H263 C285 0.948 . S
H264 C287 0.951 . S
H265 C252 0.947 . S
H266 C254 0.952 . S
H267 C255 0.950 . S
N268 C271 1.382 . S
N268 C273 1.363 . S
N269 C271 1.371 1_556 S
N269 C272 1.372 . S
N270 C272 1.366 . S
N270 C273 1.370 1_556 S
C271 N268 1.382 . S
C271 N269 1.371 1_554 S
C271 C274 1.480 . S
C272 N269 1.372 . S
C272 N270 1.366 . S
C272 C280 1.457 . S
C273 N268 1.363 . S
C273 N270 1.370 1_554 S
C273 C286 1.479 . S
C274 C271 1.480 . S
C274 C275 1.383 . S
C274 C279 1.385 1_554 S
C275 H256 0.947 . S
C275 C274 1.383 . S
C275 C276 1.388 . S
C276 H257 0.946 . S
C276 C275 1.388 . S
C276 C277 1.384 . S
C277 C276 1.384 . S
C277 C278 1.377 . S
C278 H258 0.953 1_554 S
C278 C277 1.377 . S
C278 C279 1.369 1_554 S
C279 H259 0.945 . S
C279 C274 1.385 1_556 S
C279 C278 1.369 1_556 S
C280 C272 1.457 . S
C280 C281 1.372 . S
C280 C285 1.364 . S
C281 H260 0.952 . S
C281 C280 1.372 . S
C281 C282 1.389 . S
C282 H261 0.949 . S
C282 C281 1.389 . S
C282 C283 1.387 . S
C283 C282 1.387 . S
C283 C284 1.372 . S
C284 H262 0.950 . S
C284 C283 1.372 . S
C284 C285 1.379 . S
C285 H263 0.948 . S
C285 C280 1.364 . S
C285 C284 1.379 . S
C286 C255 1.383 . S
C286 C273 1.479 . S
C286 C287 1.398 . S
C287 C252 1.382 . S
C287 H264 0.951 . S
C287 C286 1.398 . S
Gd288 N319 2.661 . S
Gd288 N325 2.601 . S
Gd288 O332 2.545 . S
Gd288 O333 2.606 1_655 S
Gd288 O335 2.429 . S
Gd288 O336 2.545 1_655 S
Gd288 O337 2.412 . S
Gd288 O339 2.362 1_545 S
Gd288 O340 2.324 1_655 S
Gd288 C347 2.828 . S
Gd289 N298 2.661 1_565 S
Gd289 N302 2.601 . S
Gd289 O333 2.362 1_565 S
Gd289 O334 2.324 1_455 S
Gd289 O338 2.545 . S
Gd289 O339 2.606 1_455 S
Gd289 O341 2.429 . S
Gd289 O342 2.545 . S
Gd289 O343 2.412 . S
Gd289 C356 2.828 . S
C290 C293 1.417 . S
C290 C295 1.431 . S
C290 C296 1.412 . S
C291 C294 1.437 . S
C291 C295 1.317 . S
C291 H310 0.929 . S
C292 C293 1.426 . S
C292 C294 1.413 . S
C292 N302 1.359 1_545 S
C293 C290 1.417 . S
C293 C292 1.426 . S
C293 N298 1.350 . S
C294 C291 1.437 . S
C294 C292 1.413 . S
C294 C304 1.391 1_545 S
C295 C290 1.431 . S
C295 C291 1.317 . S
C295 H306 0.930 . S
C296 C290 1.412 . S
C296 C297 1.355 . S
C296 H308 0.930 . S
C297 C296 1.355 . S
C297 C299 1.402 . S
C297 H309 0.930 1_455 S
N298 Gd289 2.661 1_545 S
N298 C293 1.350 . S
N298 C299 1.307 . S
C299 C297 1.402 . S
C299 N298 1.307 . S
C299 H300 0.930 1_455 S
H300 C299 0.930 1_655 S
C301 N302 1.334 . S
C301 C303 1.394 . S
C301 H305 0.930 . S
N302 Gd289 2.601 . S
N302 C292 1.359 1_565 S
N302 C301 1.334 . S
C303 C301 1.394 . S
C303 C304 1.359 . S
C303 H315 0.930 . S
C304 C294 1.391 1_565 S
C304 C303 1.359 . S
C304 H316 0.929 . S
H305 C301 0.930 . S
H306 C295 0.930 . S
H307 C324 0.930 . S
H308 C296 0.930 . S
H309 C297 0.930 1_655 S
H310 C291 0.929 . S
H311 C329 0.930 . S
H312 C320 0.930 . S
H313 C321 0.930 . S
H314 C345 0.929 . S
H315 C303 0.930 . S
H316 C304 0.929 . S
H317 C346 0.930 . S
H318 C327 0.930 . S
N319 Gd288 2.661 . S
N319 C323 1.345 1_545 S
N319 C324 1.307 1_645 S
C320 H312 0.930 . S
C320 C321 1.355 1_655 S
C320 C322 1.412 . S
C321 H313 0.930 . S
C321 C320 1.355 1_455 S
C321 C324 1.402 . S
C322 C320 1.412 . S
C322 C323 1.437 . S
C322 C346 1.431 . S
C323 N319 1.345 1_565 S
C323 C322 1.437 . S
C323 C326 1.413 1_565 S
C324 H307 0.930 . S
C324 N319 1.307 1_465 S
C324 C321 1.402 . S
N325 Gd288 2.601 . S
N325 C326 1.359 . S
N325 C329 1.334 . S
C326 C323 1.413 1_545 S
C326 N325 1.359 . S
C326 C330 1.413 . S
C327 H318 0.930 . S
C327 C328 1.359 . S
C327 C329 1.394 . S
C328 C327 1.359 . S
C328 C330 1.391 . S
C328 H331 0.929 . S
C329 H311 0.930 . S
C329 N325 1.334 . S
C329 C327 1.394 . S
C330 C326 1.413 . S
C330 C328 1.391 . S
C330 C345 1.437 1_545 S
H331 C328 0.929 . S
O332 Gd288 2.545 . S
O332 C347 1.258 . S
O333 Gd288 2.606 1_455 S
O333 Gd289 2.362 1_545 S
O333 C344 1.284 . S
O334 Gd289 2.324 1_655 S
O334 C354 1.254 1_565 S
O335 Gd288 2.429 . S
O335 C354 1.268 . S
O336 Gd288 2.545 1_455 S
O336 C344 1.250 . S
O337 Gd288 2.412 . S
O337 C347 1.252 . S
O338 Gd289 2.545 . S
O338 C356 1.258 . S
O339 Gd288 2.362 1_565 S
O339 Gd289 2.606 1_655 S
O339 C355 1.284 . S
O340 Gd288 2.324 1_455 S
O340 C363 1.254 . S
O341 Gd289 2.429 . S
O341 C363 1.268 1_565 S
O342 Gd289 2.545 . S
O342 C355 1.250 1_455 S
O343 Gd289 2.412 . S
O343 C356 1.252 . S
C344 O333 1.284 . S
C344 O336 1.250 . S
C345 H314 0.929 . S
C345 C330 1.437 1_565 S
C345 C346 1.317 . S
C346 H317 0.930 . S
C346 C322 1.431 . S
C346 C345 1.317 . S
C347 Gd288 2.828 . S
C347 O332 1.258 . S
C347 O337 1.252 . S
C347 C348 1.497 . S
C348 C347 1.497 . S
C348 C349 1.395 . S
C348 C350 1.380 . S
C349 C348 1.395 . S
C349 C352 1.398 . S
C349 H364 0.930 . S
C350 C348 1.380 . S
C350 C351 1.391 . S
C350 H365 0.930 1_655 S
C351 C350 1.391 . S
C351 C353 1.387 . S
C352 C349 1.398 . S
C352 C353 1.380 . S
C352 H366 0.930 . S
C353 C351 1.387 . S
C353 C352 1.380 . S
C353 H367 0.930 . S
C354 O334 1.254 1_545 S
C354 O335 1.268 . S
C355 O339 1.284 . S
C355 O342 1.250 1_655 S
C356 Gd289 2.828 . S
C356 O338 1.258 . S
C356 O343 1.252 . S
C356 C357 1.497 . S
C357 C356 1.497 . S
C357 C358 1.395 . S
C357 C359 1.380 . S
C358 C357 1.395 . S
C358 C361 1.398 . S
C358 H368 0.930 . S
C359 C357 1.380 . S
C359 C360 1.391 . S
C359 H369 0.930 1_455 S
C360 C359 1.391 . S
C360 C362 1.387 . S
C361 C358 1.398 . S
C361 C362 1.380 . S
C361 H370 0.930 . S
C362 C360 1.387 . S
C362 C361 1.380 . S
C362 H371 0.930 . S
C363 O340 1.254 . S
C363 O341 1.268 1_545 S
H364 C349 0.930 . S
H365 C350 0.930 1_455 S
H366 C352 0.930 . S
H367 C353 0.930 . S
H368 C358 0.930 . S
H369 C359 0.930 1_655 S
H370 C361 0.930 . S
H371 C362 0.930 . S
Gd372 N403 2.661 . S
Gd372 N409 2.601 . S
Gd372 O416 2.545 . S
Gd372 O417 2.606 1_565 S
Gd372 O419 2.429 . S
Gd372 O420 2.545 1_565 S
Gd372 O421 2.412 . S
Gd372 O423 2.362 . S
Gd372 O424 2.324 1_565 S
Gd372 C431 2.828 . S
Gd373 N382 2.661 . S
Gd373 N386 2.601 . S
Gd373 O417 2.362 . S
Gd373 O418 2.324 1_545 S
Gd373 O422 2.545 . S
Gd373 O423 2.606 1_545 S
Gd373 O425 2.429 . S
Gd373 O426 2.545 . S
Gd373 O427 2.412 . S
Gd373 C440 2.828 . S
C374 C377 1.417 . S
C374 C379 1.431 . S
C374 C380 1.412 . S
C375 C378 1.437 . S
C375 C379 1.317 . S
C375 H394 0.929 . S
C376 C377 1.426 . S
C376 C378 1.413 . S
C376 N386 1.359 . S
C377 C374 1.417 . S
C377 C376 1.426 . S
C377 N382 1.350 . S
C378 C375 1.437 . S
C378 C376 1.413 . S
C378 C388 1.391 . S
C379 C374 1.431 . S
C379 C375 1.317 . S
C379 H390 0.930 . S
C380 C374 1.412 . S
C380 C381 1.355 . S
C380 H392 0.930 . S
C381 C380 1.355 . S
C381 C383 1.402 . S
C381 H393 0.930 1_545 S
N382 Gd373 2.661 . S
N382 C377 1.350 . S
N382 C383 1.307 . S
C383 C381 1.402 . S
C383 N382 1.307 . S
C383 H384 0.930 1_545 S
H384 C383 0.930 1_565 S
C385 N386 1.334 . S
C385 C387 1.394 . S
C385 H389 0.930 . S
N386 Gd373 2.601 . S
N386 C376 1.359 . S
N386 C385 1.334 . S
C387 C385 1.394 . S
C387 C388 1.359 . S
C387 H399 0.930 . S
C388 C378 1.391 . S
C388 C387 1.359 . S
C388 H400 0.929 . S
H389 C385 0.930 . S
H390 C379 0.930 . S
H391 C408 0.930 . S
H392 C380 0.930 . S
H393 C381 0.930 1_565 S
H394 C375 0.929 . S
H395 C413 0.930 . S
H396 C404 0.930 . S
H397 C405 0.930 . S
H398 C429 0.929 . S
H399 C387 0.930 . S
H400 C388 0.929 . S
H401 C430 0.930 . S
H402 C411 0.930 . S
N403 Gd372 2.661 . S
N403 C407 1.350 . S
N403 C408 1.307 1_565 S
C404 H396 0.930 . S
C404 C405 1.355 1_565 S
C404 C406 1.412 . S
C405 H397 0.930 . S
C405 C404 1.355 1_545 S
C405 C408 1.402 . S
C406 C404 1.412 . S
C406 C407 1.417 . S
C406 C430 1.431 . S
C407 N403 1.350 . S
C407 C406 1.417 . S
C407 C410 1.426 . S
C408 H391 0.930 . S
C408 N403 1.307 1_545 S
C408 C405 1.402 . S
N409 Gd372 2.601 . S
N409 C410 1.359 . S
N409 C413 1.334 . S
C410 C407 1.426 . S
C410 N409 1.359 . S
C410 C414 1.413 . S
C411 H402 0.930 . S
C411 C412 1.359 . S
C411 C413 1.394 . S
C412 C411 1.359 . S
C412 C414 1.391 . S
C412 H415 0.929 . S
C413 H395 0.930 . S
C413 N409 1.334 . S
C413 C411 1.394 . S
C414 C410 1.413 . S
C414 C412 1.391 . S
C414 C429 1.437 . S
H415 C412 0.929 . S
O416 Gd372 2.545 . S
O416 C431 1.258 . S
O417 Gd372 2.606 1_545 S
O417 Gd373 2.362 . S
O417 C428 1.284 . S
O418 Gd373 2.324 1_565 S
O418 C438 1.254 . S
O419 Gd372 2.429 . S
O419 C438 1.268 . S
O420 Gd372 2.545 1_545 S
O420 C428 1.250 . S
O421 Gd372 2.412 . S
O421 C431 1.252 . S
O422 Gd373 2.545 . S
O422 C440 1.258 . S
O423 Gd372 2.362 . S
O423 Gd373 2.606 1_565 S
O423 C439 1.284 . S
O424 Gd372 2.324 1_545 S
O424 C447 1.254 . S
O425 Gd373 2.429 . S
O425 C447 1.268 . S
O426 Gd373 2.545 . S
O426 C439 1.250 1_545 S
O427 Gd373 2.412 . S
O427 C440 1.252 . S
C428 O417 1.284 . S
C428 O420 1.250 . S
C429 H398 0.929 . S
C429 C414 1.437 . S
C429 C430 1.317 . S
C430 H401 0.930 . S
C430 C406 1.431 . S
C430 C429 1.317 . S
C431 Gd372 2.828 . S
C431 O416 1.258 . S
C431 O421 1.252 . S
C431 C432 1.497 . S
C432 C431 1.497 . S
C432 C433 1.395 . S
C432 C434 1.424 . S
C433 C432 1.395 . S
C433 C436 1.398 . S
C433 H448 0.930 . S
C434 C432 1.424 . S
C434 C435 1.395 . S
C434 H449 0.883 1_565 S
C435 C434 1.395 . S
C435 C437 1.387 . S
C436 C433 1.398 . S
C436 C437 1.380 . S
C436 H450 0.930 . S
C437 C435 1.387 . S
C437 C436 1.380 . S
C437 H451 0.930 . S
C438 O418 1.254 . S
C438 O419 1.268 . S
C439 O423 1.284 . S
C439 O426 1.250 1_565 S
C440 Gd373 2.828 . S
C440 O422 1.258 . S
C440 O427 1.252 . S
C440 C441 1.497 . S
C441 C440 1.497 . S
C441 C442 1.395 . S
C441 C443 1.380 . S
C442 C441 1.395 . S
C442 C445 1.398 . S
C442 H452 0.930 . S
C443 C441 1.380 . S
C443 C444 1.391 . S
C443 H453 0.936 1_545 S
C444 C443 1.391 . S
C444 C446 1.387 . S
C445 C442 1.398 . S
C445 C446 1.380 . S
C445 H454 0.930 . S
C446 C444 1.387 . S
C446 C445 1.380 . S
C446 H455 0.930 . S
C447 O424 1.254 . S
C447 O425 1.268 . S
H448 C433 0.930 . S
H449 C434 0.883 1_545 S
H450 C436 0.930 . S
H451 C437 0.930 . S
H452 C442 0.930 . S
H453 C443 0.936 1_565 S
H454 C445 0.930 . S
H455 C446 0.930 . S
Gd456 N487 2.661 . S
Gd456 N493 2.601 . S
Gd456 O500 2.545 . S
Gd456 O501 2.606 . S
Gd456 O503 2.429 . S
Gd456 O504 2.545 . S
Gd456 O505 2.412 . S
Gd456 O507 2.362 . S
Gd456 O508 2.324 . S
Gd456 C515 2.828 . S
Gd457 N466 2.661 . S
Gd457 N470 2.601 . S
Gd457 O501 2.362 . S
Gd457 O502 2.324 . S
Gd457 O506 2.545 . S
Gd457 O507 2.606 . S
Gd457 O509 2.429 . S
Gd457 O510 2.545 . S
Gd457 O511 2.412 . S
Gd457 C524 2.828 . S
C458 C461 1.417 . S
C458 C463 1.431 . S
C458 C464 1.412 . S
C459 C462 1.437 . S
C459 C463 1.317 . S
C459 H478 0.929 . S
C460 C461 1.426 . S
C460 C462 1.413 . S
C460 N470 1.359 . S
C461 C458 1.417 . S
C461 C460 1.426 . S
C461 N466 1.350 . S
C462 C459 1.437 . S
C462 C460 1.413 . S
C462 C472 1.391 . S
C463 C458 1.431 . S
C463 C459 1.317 . S
C463 H474 0.930 . S
C464 C458 1.412 . S
C464 C465 1.355 . S
C464 H476 0.930 . S
C465 C464 1.355 . S
C465 C467 1.402 . S
C465 H477 0.930 . S
N466 Gd457 2.661 . S
N466 C461 1.350 . S
N466 C467 1.307 . S
C467 C465 1.402 . S
C467 N466 1.307 . S
C467 H468 0.930 . S
H468 C467 0.930 . S
C469 N470 1.334 . S
C469 C471 1.394 . S
C469 H473 0.930 . S
N470 Gd457 2.601 . S
N470 C460 1.359 . S
N470 C469 1.334 . S
C471 C469 1.394 . S
C471 C472 1.359 . S
C471 H483 0.930 . S
C472 C462 1.391 . S
C472 C471 1.359 . S
C472 H484 0.929 . S
H473 C469 0.930 . S
H474 C463 0.930 . S
H475 C492 0.930 . S
H476 C464 0.930 . S
H477 C465 0.930 . S
H478 C459 0.929 . S
H479 C497 0.930 . S
H480 C488 0.930 . S
H481 C489 0.930 . S
H482 C513 0.929 . S
H483 C471 0.930 . S
H484 C472 0.929 . S
H485 C514 0.930 . S
H486 C495 0.930 . S
N487 Gd456 2.661 . S
N487 C491 1.350 . S
N487 C492 1.307 . S
C488 H480 0.930 . S
C488 C489 1.355 . S
C488 C490 1.412 . S
C489 H481 0.930 . S
C489 C488 1.355 . S
C489 C492 1.402 . S
C490 C488 1.412 . S
C490 C491 1.417 . S
C490 C514 1.431 . S
C491 N487 1.350 . S
C491 C490 1.417 . S
C491 C494 1.426 . S
C492 H475 0.930 . S
C492 N487 1.307 . S
C492 C489 1.402 . S
N493 Gd456 2.601 . S
N493 C494 1.359 . S
N493 C497 1.334 . S
C494 C491 1.426 . S
C494 N493 1.359 . S
C494 C498 1.413 . S
C495 H486 0.930 . S
C495 C496 1.359 . S
C495 C497 1.394 . S
C496 C495 1.359 . S
C496 C498 1.391 . S
C496 H499 0.929 . S
C497 H479 0.930 . S
C497 N493 1.334 . S
C497 C495 1.394 . S
C498 C494 1.413 . S
C498 C496 1.391 . S
C498 C513 1.437 . S
H499 C496 0.929 . S
O500 Gd456 2.545 . S
O500 C515 1.258 . S
O501 Gd456 2.606 . S
O501 Gd457 2.362 . S
O501 C512 1.284 . S
O502 Gd457 2.324 . S
O502 C522 1.254 . S
O503 Gd456 2.429 . S
O503 C522 1.268 . S
O504 Gd456 2.545 . S
O504 C512 1.250 . S
O505 Gd456 2.412 . S
O505 C515 1.252 . S
O506 Gd457 2.545 . S
O506 C524 1.258 . S
O507 Gd456 2.362 . S
O507 Gd457 2.606 . S
O507 C523 1.284 . S
O508 Gd456 2.324 . S
O508 C531 1.254 . S
O509 Gd457 2.429 . S
O509 C531 1.268 . S
O510 Gd457 2.545 . S
O510 C523 1.250 . S
O511 Gd457 2.412 . S
O511 C524 1.252 . S
C512 O501 1.284 . S
C512 O504 1.250 . S
C513 H482 0.929 . S
C513 C498 1.437 . S
C513 C514 1.317 . S
C514 H485 0.930 . S
C514 C490 1.431 . S
C514 C513 1.317 . S
C515 Gd456 2.828 . S
C515 O500 1.258 . S
C515 O505 1.252 . S
C515 C516 1.497 . S
C516 C515 1.497 . S
C516 C517 1.395 . S
C516 C518 1.380 . S
C517 C516 1.395 . S
C517 C520 1.398 . S
C517 H532 0.930 . S
C518 C516 1.380 . S
C518 C519 1.391 . S
C518 H533 0.930 . S
C519 C518 1.391 . S
C519 C521 1.387 . S
C520 C517 1.398 . S
C520 C521 1.380 . S
C520 H534 0.930 . S
C521 C519 1.387 . S
C521 C520 1.380 . S
C521 H535 0.930 . S
C522 O502 1.254 . S
C522 O503 1.268 . S
C523 O507 1.284 . S
C523 O510 1.250 . S
C524 Gd457 2.828 . S
C524 O506 1.258 . S
C524 O511 1.252 . S
C524 C525 1.497 . S
C525 C524 1.497 . S
C525 C526 1.395 . S
C525 C527 1.380 . S
C526 C525 1.395 . S
C526 C529 1.398 . S
C526 H536 0.930 . S
C527 C525 1.380 . S
C527 C528 1.391 . S
C527 H537 0.930 . S
C528 C527 1.391 . S
C528 C530 1.387 . S
C529 C526 1.398 . S
C529 C530 1.380 . S
C529 H538 0.930 . S
C530 C528 1.387 . S
C530 C529 1.380 . S
C530 H539 0.930 . S
C531 O508 1.254 . S
C531 O509 1.268 . S
H532 C517 0.930 . S
H533 C518 0.930 . S
H534 C520 0.930 . S
H535 C521 0.930 . S
H536 C526 0.930 . S
H537 C527 0.930 . S
H538 C529 0.930 . S
H539 C530 0.930 . S
Gd540 N571 2.661 . S
Gd540 N577 2.601 . S
Gd540 O584 2.545 . S
Gd540 O585 2.587 1_655 S
Gd540 O587 2.429 1_655 S
Gd540 O588 2.545 . S
Gd540 O589 2.412 . S
Gd540 O591 2.362 1_655 S
Gd540 O592 2.324 . S
Gd540 C599 2.828 . S
Gd541 N550 2.661 . S
Gd541 N554 2.601 . S
Gd541 O585 2.393 . S
Gd541 O586 2.324 . S
Gd541 O590 2.545 . S
Gd541 O591 2.606 . S
Gd541 O593 2.429 1_455 S
Gd541 O594 2.545 . S
Gd541 O595 2.412 . S
Gd541 C608 2.828 . S
C542 C545 1.417 . S
C542 C547 1.431 . S
C542 C548 1.412 . S
C543 C546 1.437 . S
C543 C547 1.317 . S
C543 H562 0.929 . S
C544 C545 1.426 . S
C544 C546 1.413 . S
C544 N554 1.359 . S
C545 C542 1.417 . S
C545 C544 1.426 . S
C545 N550 1.350 . S
C546 C543 1.437 . S
C546 C544 1.413 . S
C546 C556 1.391 . S
C547 C542 1.431 . S
C547 C543 1.317 . S
C547 H558 0.930 . S
C548 C542 1.412 . S
C548 C549 1.355 . S
C548 H560 0.930 . S
C549 C548 1.355 . S
C549 C551 1.402 . S
C549 H561 0.930 . S
N550 Gd541 2.661 . S
N550 C545 1.350 . S
N550 C551 1.307 . S
C551 C549 1.402 . S
C551 N550 1.307 . S
C551 H552 0.930 . S
H552 C551 0.930 . S
C553 N554 1.334 . S
C553 C555 1.394 . S
C553 H557 0.930 1_455 S
N554 Gd541 2.601 . S
N554 C544 1.359 . S
N554 C553 1.334 . S
C555 C553 1.394 . S
C555 C556 1.359 . S
C555 H567 0.930 1_455 S
C556 C546 1.391 . S
C556 C555 1.359 . S
C556 H568 0.929 . S
H557 C553 0.930 1_655 S
H558 C547 0.930 . S
H559 C576 0.930 . S
H560 C548 0.930 . S
H561 C549 0.930 . S
H562 C543 0.929 . S
H563 C581 0.930 . S
H564 C572 0.930 . S
H565 C573 0.930 . S
H566 C597 0.929 . S
H567 C555 0.930 1_655 S
H568 C556 0.929 . S
H569 C598 0.930 . S
H570 C579 0.930 . S
N571 Gd540 2.661 . S
N571 C575 1.350 . S
N571 C576 1.307 . S
C572 H564 0.930 . S
C572 C573 1.355 . S
C572 C574 1.412 . S
C573 H565 0.930 . S
C573 C572 1.355 . S
C573 C576 1.402 . S
C574 C572 1.412 . S
C574 C575 1.417 . S
C574 C598 1.431 . S
C575 N571 1.350 . S
C575 C574 1.417 . S
C575 C578 1.426 . S
C576 H559 0.930 . S
C576 N571 1.307 . S
C576 C573 1.402 . S
N577 Gd540 2.601 . S
N577 C578 1.359 . S
N577 C581 1.334 1_655 S
C578 C575 1.426 . S
C578 N577 1.359 . S
C578 C582 1.413 . S
C579 H570 0.930 . S
C579 C580 1.359 1_455 S
C579 C581 1.394 . S
C580 C579 1.359 1_655 S
C580 C582 1.391 . S
C580 H583 0.929 . S
C581 H563 0.930 . S
C581 N577 1.334 1_455 S
C581 C579 1.394 . S
C582 C578 1.413 . S
C582 C580 1.391 . S
C582 C597 1.437 . S
H583 C580 0.929 . S
O584 Gd540 2.545 . S
O584 C599 1.258 . S
O585 Gd540 2.587 1_455 S
O585 Gd541 2.393 . S
O585 C596 1.263 1_455 S
O586 Gd541 2.324 . S
O586 C606 1.254 . S
O587 Gd540 2.429 1_455 S
O587 C606 1.268 . S
O588 Gd540 2.545 . S
O588 C596 1.250 . S
O589 Gd540 2.412 . S
O589 C599 1.252 . S
O590 Gd541 2.545 . S
O590 C608 1.258 . S
O591 Gd540 2.362 1_455 S
O591 Gd541 2.606 . S
O591 C607 1.284 . S
O592 Gd540 2.324 . S
O592 C615 1.254 . S
O593 Gd541 2.429 1_655 S
O593 C615 1.268 . S
O594 Gd541 2.545 . S
O594 C607 1.250 . S
O595 Gd541 2.412 . S
O595 C608 1.252 . S
C596 O585 1.263 1_655 S
C596 O588 1.250 . S
C597 H566 0.929 . S
C597 C582 1.437 . S
C597 C598 1.317 . S
C598 H569 0.930 . S
C598 C574 1.431 . S
C598 C597 1.317 . S
C599 Gd540 2.828 . S
C599 O584 1.258 . S
C599 O589 1.252 . S
C599 C600 1.497 . S
C600 C599 1.497 . S
C600 C601 1.395 . S
C600 C602 1.380 . S
C601 C600 1.395 . S
C601 C604 1.398 . S
C601 H616 0.930 . S
C602 C600 1.380 . S
C602 C603 1.391 . S
C602 H617 0.930 . S
C603 C602 1.391 . S
C603 C605 1.387 . S
C604 C601 1.398 . S
C604 C605 1.380 . S
C604 H618 0.930 . S
C605 C603 1.387 . S
C605 C604 1.380 . S
C605 H619 0.930 . S
C606 O586 1.254 . S
C606 O587 1.268 . S
C607 O591 1.284 . S
C607 O594 1.250 . S
C608 Gd541 2.828 . S
C608 O590 1.258 . S
C608 O595 1.252 . S
C608 C609 1.497 . S
C609 C608 1.497 . S
C609 C610 1.395 . S
C609 C611 1.380 . S
C610 C609 1.395 . S
C610 C613 1.398 . S
C610 H620 0.930 . S
C611 C609 1.380 . S
C611 C612 1.391 . S
C611 H621 0.930 . S
C612 C611 1.391 . S
C612 C614 1.387 . S
C613 C610 1.398 . S
C613 C614 1.380 . S
C613 H622 0.930 . S
C614 C612 1.387 . S
C614 C613 1.380 . S
C614 H623 0.930 . S
C615 O592 1.254 . S
C615 O593 1.268 . S
H616 C601 0.930 . S
H617 C602 0.930 . S
H618 C604 0.930 . S
H619 C605 0.930 . S
H620 C610 0.930 . S
H621 C611 0.930 . S
H622 C613 0.930 . S
H623 C614 0.930 . S
C624 C625 1.349 . S
C624 C626 1.327 . S
C624 H649 0.950 . S
C625 C624 1.349 . S
C625 C641 1.349 . S
C626 C624 1.327 . S
C626 C645 1.429 . S
C626 H650 0.950 . S
C627 C644 1.574 . S
C627 C646 1.368 . S
C627 H651 0.949 . S
H628 C632 0.949 . S
C629 C630 1.349 . S
C629 C631 1.327 . S
C629 H652 0.950 . S
C630 C629 1.349 . S
C630 C642 1.349 . S
C631 C629 1.327 . S
C631 C647 1.429 . S
C631 H653 0.950 . S
C632 H628 0.949 . S
C632 C640 1.574 . S
C632 C648 1.368 . S
H633 C641 0.950 . S
H634 C639 0.950 . S
H635 C640 0.949 . S
H636 C642 0.950 . S
H637 C643 0.950 . S
H638 C644 0.949 . S
C639 H634 0.950 . S
C639 C641 1.327 . S
C639 C645 1.429 . S
C640 C632 1.574 . S
C640 H635 0.949 . S
C640 C646 1.368 . S
C641 C625 1.349 . S
C641 H633 0.950 . S
C641 C639 1.327 . S
C642 C630 1.349 . S
C642 H636 0.950 . S
C642 C643 1.327 . S
C643 H637 0.950 . S
C643 C642 1.327 . S
C643 C647 1.429 . S
C644 C627 1.574 . S
C644 H638 0.949 . S
C644 C648 1.368 . S
C645 C626 1.429 . S
C645 C639 1.429 . S
C645 C646 1.523 . S
C646 C627 1.368 . S
C646 C640 1.368 . S
C646 C645 1.523 . S
C647 C631 1.429 . S
C647 C643 1.429 . S
C647 C648 1.523 . S
C648 C632 1.368 . S
C648 C644 1.368 . S
C648 C647 1.523 . S
H649 C624 0.950 . S
H650 C626 0.950 . S
H651 C627 0.949 . S
H652 C629 0.950 . S
H653 C631 0.950 . S
C654 C655 1.349 . S
C654 C656 1.327 . S
C654 H679 0.950 . S
C655 C654 1.349 . S
C655 C671 1.349 . S
C656 C654 1.327 . S
C656 C675 1.429 . S
C656 H680 0.950 . S
C657 C674 1.574 . S
C657 C676 1.368 . S
C657 H681 0.949 . S
H658 C662 0.949 . S
C659 C660 1.349 . S
C659 C661 1.327 . S
C659 H682 0.950 . S
C660 C659 1.349 . S
C660 C672 1.349 . S
C661 C659 1.327 . S
C661 C677 1.429 . S
C661 H683 0.950 . S
C662 H658 0.949 . S
C662 C670 1.574 . S
C662 C678 1.368 . S
H663 C671 0.950 . S
H664 C669 0.950 . S
H665 C670 0.949 . S
H666 C672 0.950 . S
H667 C673 0.950 . S
H668 C674 0.949 . S
C669 H664 0.950 . S
C669 C671 1.327 . S
C669 C675 1.429 . S
C670 C662 1.574 . S
C670 H665 0.949 . S
C670 C676 1.368 . S
C671 C655 1.349 . S
C671 H663 0.950 . S
C671 C669 1.327 . S
C672 C660 1.349 . S
C672 H666 0.950 . S
C672 C673 1.327 . S
C673 H667 0.950 . S
C673 C672 1.327 . S
C673 C677 1.429 . S
C674 C657 1.574 . S
C674 H668 0.949 . S
C674 C678 1.368 . S
C675 C656 1.429 . S
C675 C669 1.429 . S
C675 C676 1.523 . S
C676 C657 1.368 . S
C676 C670 1.368 . S
C676 C675 1.523 . S
C677 C661 1.429 . S
C677 C673 1.429 . S
C677 C678 1.523 . S
C678 C662 1.368 . S
C678 C674 1.368 . S
C678 C677 1.523 . S
H679 C654 0.950 . S
H680 C656 0.950 . S
H681 C657 0.949 . S
H682 C659 0.950 . S
H683 C661 0.950 . S
C684 C685 1.349 . S
C684 C686 1.327 . S
C684 H709 0.950 . S
C685 C684 1.349 . S
C685 C701 1.349 . S
C686 C684 1.327 . S
C686 C705 1.429 . S
C686 H710 0.950 . S
C687 C704 1.574 . S
C687 C706 1.368 . S
C687 H711 0.949 . S
H688 C692 0.949 . S
C689 C690 1.349 . S
C689 C691 1.327 . S
C689 H712 0.950 . S
C690 C689 1.349 . S
C690 C702 1.349 . S
C691 C689 1.327 . S
C691 C707 1.429 . S
C691 H713 0.950 . S
C692 H688 0.949 . S
C692 C700 1.574 . S
C692 C708 1.368 . S
H693 C701 0.950 . S
H694 C699 0.950 . S
H695 C700 0.949 . S
H696 C702 0.950 . S
H697 C703 0.950 . S
H698 C704 0.949 . S
C699 H694 0.950 . S
C699 C701 1.327 . S
C699 C705 1.429 . S
C700 C692 1.574 . S
C700 H695 0.949 . S
C700 C706 1.368 . S
C701 C685 1.349 . S
C701 H693 0.950 . S
C701 C699 1.327 . S
C702 C690 1.349 . S
C702 H696 0.950 . S
C702 C703 1.327 . S
C703 H697 0.950 . S
C703 C702 1.327 . S
C703 C707 1.429 . S
C704 C687 1.574 . S
C704 H698 0.949 . S
C704 C708 1.368 . S
C705 C686 1.429 . S
C705 C699 1.429 . S
C705 C706 1.523 . S
C706 C687 1.368 . S
C706 C700 1.368 . S
C706 C705 1.523 . S
C707 C691 1.429 . S
C707 C703 1.429 . S
C707 C708 1.523 . S
C708 C692 1.368 . S
C708 C704 1.368 . S
C708 C707 1.523 . S
H709 C684 0.950 . S
H710 C686 0.950 . S
H711 C687 0.949 . S
H712 C689 0.950 . S
H713 C691 0.950 . S
C714 C715 1.349 . S
C714 C716 1.327 . S
C714 H739 0.950 . S
C715 C714 1.349 . S
C715 C731 1.349 . S
C716 C714 1.327 . S
C716 C735 1.429 . S
C716 H740 0.950 . S
C717 C734 1.574 . S
C717 C736 1.368 . S
C717 H741 0.949 . S
H718 C722 0.949 . S
C719 C720 1.349 . S
C719 C721 1.327 . S
C719 H742 0.950 . S
C720 C719 1.349 . S
C720 C732 1.349 . S
C721 C719 1.327 . S
C721 C737 1.429 . S
C721 H743 0.950 . S
C722 H718 0.949 . S
C722 C730 1.574 . S
C722 C738 1.368 . S
H723 C731 0.950 . S
H724 C729 0.950 . S
H725 C730 0.949 . S
H726 C732 0.950 . S
H727 C733 0.950 . S
H728 C734 0.949 . S
C729 H724 0.950 . S
C729 C731 1.327 . S
C729 C735 1.429 . S
C730 C722 1.574 . S
C730 H725 0.949 . S
C730 C736 1.368 . S
C731 C715 1.349 . S
C731 H723 0.950 . S
C731 C729 1.327 . S
C732 C720 1.349 . S
C732 H726 0.950 . S
C732 C733 1.327 . S
C733 H727 0.950 . S
C733 C732 1.327 . S
C733 C737 1.429 . S
C734 C717 1.574 . S
C734 H728 0.949 . S
C734 C738 1.368 . S
C735 C716 1.429 . S
C735 C729 1.429 . S
C735 C736 1.523 . S
C736 C717 1.368 . S
C736 C730 1.368 . S
C736 C735 1.523 . S
C737 C721 1.429 . S
C737 C733 1.429 . S
C737 C738 1.523 . S
C738 C722 1.368 . S
C738 C734 1.368 . S
C738 C737 1.523 . S
H739 C714 0.950 . S
H740 C716 0.950 . S
H741 C717 0.949 . S
H742 C719 0.950 . S
H743 C721 0.950 . S
C744 C745 1.349 1_556 S
C744 C746 1.327 . S
C744 H769 0.950 . S
C745 C744 1.349 1_554 S
C745 C761 1.349 . S
C746 C744 1.327 . S
C746 C765 1.429 . S
C746 H770 0.950 . S
C747 C764 1.574 . S
C747 C766 1.368 . S
C747 H771 0.949 . S
H748 C752 0.949 . S
C749 C750 1.365 . S
C749 C751 1.337 . S
C749 H772 0.925 1_565 S
C750 C749 1.365 . S
C750 C762 1.349 . S
C751 C749 1.337 . S
C751 C767 1.429 . S
C751 H773 0.925 1_565 S
C752 H748 0.949 . S
C752 C760 1.574 . S
C752 C768 1.368 . S
H753 C761 0.950 . S
H754 C759 0.950 . S
H755 C760 0.949 . S
H756 C762 0.950 . S
H757 C763 0.950 . S
H758 C764 0.949 . S
C759 H754 0.950 . S
C759 C761 1.327 . S
C759 C765 1.429 1_554 S
C760 C752 1.574 . S
C760 H755 0.949 . S
C760 C766 1.368 . S
C761 C745 1.349 . S
C761 H753 0.950 . S
C761 C759 1.327 . S
C762 C750 1.349 . S
C762 H756 0.950 . S
C762 C763 1.327 . S
C763 H757 0.950 . S
C763 C762 1.327 . S
C763 C767 1.429 . S
C764 C747 1.574 . S
C764 H758 0.949 . S
C764 C768 1.368 . S
C765 C746 1.429 . S
C765 C759 1.429 1_556 S
C765 C766 1.523 . S
C766 C747 1.368 . S
C766 C760 1.368 . S
C766 C765 1.523 . S
C767 C751 1.429 . S
C767 C763 1.429 . S
C767 C768 1.523 . S
C768 C752 1.368 . S
C768 C764 1.368 . S
C768 C767 1.523 . S
H769 C744 0.950 . S
H770 C746 0.950 . S
H771 C747 0.949 . S
H772 C749 0.925 1_545 S
H773 C751 0.925 1_545 S
C774 C775 1.349 1_556 S
C774 C776 1.327 . S
C774 H799 0.950 . S
C775 C774 1.349 1_554 S
C775 C791 1.349 . S
C776 C774 1.327 . S
C776 C795 1.429 . S
C776 H800 0.950 . S
C777 C794 1.574 . S
C777 C796 1.368 . S
C777 H801 0.949 . S
H778 C782 0.949 . S
C779 C780 1.349 . S
C779 C781 1.327 . S
C779 H802 0.950 . S
C780 C779 1.349 . S
C780 C792 1.349 . S
C781 C779 1.327 . S
C781 C797 1.429 . S
C781 H803 0.950 . S
C782 H778 0.949 . S
C782 C790 1.574 . S
C782 C798 1.368 . S
H783 C791 0.950 . S
H784 C789 0.950 . S
H785 C790 0.949 . S
H786 C792 0.950 . S
H787 C793 0.950 . S
H788 C794 0.949 . S
C789 H784 0.950 . S
C789 C791 1.328 . S
C789 C795 1.428 1_554 S
C790 C782 1.574 . S
C790 H785 0.949 . S
C790 C796 1.368 . S
C791 C775 1.349 . S
C791 H783 0.950 . S
C791 C789 1.328 . S
C792 C780 1.349 . S
C792 H786 0.950 . S
C792 C793 1.327 . S
C793 H787 0.950 . S
C793 C792 1.327 . S
C793 C797 1.429 . S
C794 C777 1.574 . S
C794 H788 0.949 . S
C794 C798 1.368 . S
C795 C776 1.429 . S
C795 C789 1.428 1_556 S
C795 C796 1.523 . S
C796 C777 1.368 . S
C796 C790 1.368 . S
C796 C795 1.523 . S
C797 C781 1.429 . S
C797 C793 1.429 . S
C797 C798 1.523 . S
C798 C782 1.368 . S
C798 C794 1.368 . S
C798 C797 1.523 . S
H799 C774 0.950 . S
H800 C776 0.950 . S
H801 C777 0.949 . S
H802 C779 0.950 . S
H803 C781 0.950 . S
C804 C805 1.349 1_556 S
C804 C806 1.327 . S
C804 H829 0.950 . S
C805 C804 1.349 1_554 S
C805 C821 1.349 . S
C806 C804 1.327 . S
C806 C825 1.429 . S
C806 H830 0.950 . S
C807 C824 1.574 . S
C807 C826 1.368 . S
C807 H831 0.949 . S
H808 C812 0.949 . S
C809 C810 1.349 . S
C809 C811 1.327 . S
C809 H832 0.950 . S
C810 C809 1.349 . S
C810 C822 1.349 . S
C811 C809 1.327 . S
C811 C827 1.429 . S
C811 H833 0.950 . S
C812 H808 0.949 . S
C812 C820 1.574 . S
C812 C828 1.368 . S
H813 C821 0.950 . S
H814 C819 0.947 1_554 S
H815 C820 0.949 . S
H816 C822 0.950 . S
H817 C823 0.950 . S
H818 C824 0.949 . S
C819 H814 0.947 1_556 S
C819 C821 1.313 1_556 S
C819 C825 1.445 . S
C820 C812 1.574 . S
C820 H815 0.949 . S
C820 C826 1.368 . S
C821 C805 1.349 . S
C821 H813 0.950 . S
C821 C819 1.313 1_554 S
C822 C810 1.349 . S
C822 H816 0.950 . S
C822 C823 1.327 . S
C823 H817 0.950 . S
C823 C822 1.327 . S
C823 C827 1.429 . S
C824 C807 1.574 . S
C824 H818 0.949 . S
C824 C828 1.368 . S
C825 C806 1.429 . S
C825 C819 1.445 . S
C825 C826 1.523 . S
C826 C807 1.368 . S
C826 C820 1.368 . S
C826 C825 1.523 . S
C827 C811 1.429 . S
C827 C823 1.429 . S
C827 C828 1.523 . S
C828 C812 1.368 . S
C828 C824 1.368 . S
C828 C827 1.523 . S
H829 C804 0.950 . S
H830 C806 0.950 . S
H831 C807 0.949 . S
H832 C809 0.950 . S
H833 C811 0.950 . S
C834 C835 1.349 . S
C834 C836 1.327 1_554 S
C834 H859 0.950 . S
C835 C834 1.349 . S
C835 C851 1.349 . S
C836 C834 1.327 1_556 S
C836 C855 1.429 . S
C836 H860 0.950 . S
C837 C854 1.574 . S
C837 C856 1.368 . S
C837 H861 0.949 . S
H838 C842 0.949 . S
C839 C840 1.349 . S
C839 C841 1.327 . S
C839 H862 0.950 . S
C840 C839 1.349 . S
C840 C852 1.349 . S
C841 C839 1.327 . S
C841 C857 1.429 . S
C841 H863 0.950 . S
C842 H838 0.949 . S
C842 C850 1.574 . S
C842 C858 1.368 . S
H843 C851 0.950 . S
H844 C849 0.950 . S
H845 C850 0.949 . S
H846 C852 0.950 1_455 S
H847 C853 0.958 . S
H848 C854 0.949 . S
C849 H844 0.950 . S
C849 C851 1.327 1_556 S
C849 C855 1.429 . S
C850 C842 1.574 . S
C850 H845 0.949 . S
C850 C856 1.368 . S
C851 C835 1.349 . S
C851 H843 0.950 . S
C851 C849 1.327 1_554 S
C852 C840 1.349 . S
C852 H846 0.950 1_655 S
C852 C853 1.327 . S
C853 H847 0.958 . S
C853 C852 1.327 . S
C853 C857 1.429 . S
C854 C837 1.574 . S
C854 H848 0.949 . S
C854 C858 1.368 . S
C855 C836 1.429 . S
C855 C849 1.429 . S
C855 C856 1.523 . S
C856 C837 1.368 . S
C856 C850 1.368 . S
C856 C855 1.523 . S
C857 C841 1.429 . S
C857 C853 1.429 . S
C857 C858 1.523 . S
C858 C842 1.368 . S
C858 C854 1.368 . S
C858 C857 1.523 . S
H859 C834 0.950 . S
H860 C836 0.950 . S
H861 C837 0.949 . S
H862 C839 0.950 . S
H863 C841 0.950 . S
C864 C865 1.349 . S
C864 C866 1.327 . S
C864 H889 0.950 . S
C865 C864 1.349 . S
C865 C881 1.349 . S
C866 C864 1.327 . S
C866 C885 1.429 . S
C866 H890 0.950 . S
C867 C884 1.574 . S
C867 C886 1.368 . S
C867 H891 0.949 . S
H868 C872 0.949 . S
C869 C870 1.349 . S
C869 C871 1.327 . S
C869 H892 0.950 . S
C870 C869 1.349 . S
C870 C882 1.349 1_455 S
C871 C869 1.327 . S
C871 C887 1.429 . S
C871 H893 0.950 . S
C872 H868 0.949 . S
C872 C880 1.574 . S
C872 C888 1.368 . S
H873 C881 0.950 . S
H874 C879 0.950 . S
H875 C880 0.949 . S
H876 C882 0.950 . S
H877 C883 0.950 1_655 S
H878 C884 0.949 . S
C879 H874 0.950 . S
C879 C881 1.327 . S
C879 C885 1.429 . S
C880 C872 1.574 . S
C880 H875 0.949 . S
C880 C886 1.368 . S
C881 C865 1.349 . S
C881 H873 0.950 . S
C881 C879 1.327 . S
C882 C870 1.349 1_655 S
C882 H876 0.950 . S
C882 C883 1.327 1_655 S
C883 H877 0.950 1_455 S
C883 C882 1.327 1_455 S
C883 C887 1.429 . S
C884 C867 1.574 . S
C884 H878 0.949 . S
C884 C888 1.368 . S
C885 C866 1.429 . S
C885 C879 1.429 . S
C885 C886 1.523 . S
C886 C867 1.368 . S
C886 C880 1.368 . S
C886 C885 1.523 . S
C887 C871 1.429 . S
C887 C883 1.429 . S
C887 C888 1.523 . S
C888 C872 1.368 . S
C888 C884 1.368 . S
C888 C887 1.523 . S
H889 C864 0.950 . S
H890 C866 0.950 . S
H891 C867 0.949 . S
H892 C869 0.950 . S
H893 C871 0.950 . S
C894 C895 1.349 . S
C894 C896 1.327 . S
C894 H919 0.950 . S
C895 C894 1.349 . S
C895 C911 1.349 . S
C896 C894 1.327 . S
C896 C915 1.429 . S
C896 H920 0.950 . S
C897 C914 1.574 . S
C897 C916 1.368 . S
C897 H921 0.949 . S
H898 C902 0.949 . S
C899 C900 1.349 . S
C899 C901 1.327 . S
C899 H922 0.950 . S
C900 C899 1.349 . S
C900 C912 1.349 1_545 S
C901 C899 1.327 . S
C901 C917 1.429 . S
C901 H923 0.950 . S
C902 H898 0.949 . S
C902 C910 1.574 . S
C902 C918 1.368 . S
H903 C911 0.950 . S
H904 C909 0.950 . S
H905 C910 0.949 . S
H906 C912 0.950 . S
H907 C913 0.950 . S
H908 C914 0.949 . S
C909 H904 0.950 . S
C909 C911 1.327 . S
C909 C915 1.429 . S
C910 C902 1.574 . S
C910 H905 0.949 . S
C910 C916 1.368 . S
C911 C895 1.349 . S
C911 H903 0.950 . S
C911 C909 1.327 . S
C912 C900 1.349 1_565 S
C912 H906 0.950 . S
C912 C913 1.327 1_565 S
C913 H907 0.950 . S
C913 C912 1.327 1_545 S
C913 C917 1.429 . S
C914 C897 1.574 . S
C914 H908 0.949 . S
C914 C918 1.368 . S
C915 C896 1.429 . S
C915 C909 1.429 . S
C915 C916 1.523 . S
C916 C897 1.368 . S
C916 C910 1.368 . S
C916 C915 1.523 . S
C917 C901 1.429 . S
C917 C913 1.429 . S
C917 C918 1.523 . S
C918 C902 1.368 . S
C918 C914 1.368 . S
C918 C917 1.523 . S
H919 C894 0.950 . S
H920 C896 0.950 . S
H921 C897 0.949 . S
H922 C899 0.950 . S
H923 C901 0.950 . S
C924 C925 1.349 . S
C924 C926 1.327 . S
C924 H949 0.950 . S
C925 C924 1.349 . S
C925 C941 1.349 . S
C926 C924 1.327 . S
C926 C945 1.429 . S
C926 H950 0.950 . S
C927 C944 1.574 . S
C927 C946 1.368 . S
C927 H951 0.949 . S
H928 C932 0.949 . S
C929 C930 1.349 . S
C929 C931 1.327 . S
C929 H952 0.950 . S
C930 C929 1.349 . S
C930 C942 1.349 . S
C931 C929 1.327 . S
C931 C947 1.429 . S
C931 H953 0.950 . S
C932 H928 0.949 . S
C932 C940 1.574 . S
C932 C948 1.368 . S
H933 C941 0.950 . S
H934 C939 0.950 . S
H935 C940 0.949 . S
H936 C942 0.950 . S
H937 C943 0.950 . S
H938 C944 0.949 . S
C939 H934 0.950 . S
C939 C941 1.327 . S
C939 C945 1.429 . S
C940 C932 1.574 . S
C940 H935 0.949 . S
C940 C946 1.368 . S
C941 C925 1.349 . S
C941 H933 0.950 . S
C941 C939 1.327 . S
C942 C930 1.349 . S
C942 H936 0.950 . S
C942 C943 1.327 . S
C943 H937 0.950 . S
C943 C942 1.327 . S
C943 C947 1.429 . S
C944 C927 1.574 . S
C944 H938 0.949 . S
C944 C948 1.368 . S
C945 C926 1.429 . S
C945 C939 1.429 . S
C945 C946 1.523 . S
C946 C927 1.368 . S
C946 C940 1.368 . S
C946 C945 1.523 . S
C947 C931 1.429 . S
C947 C943 1.429 . S
C947 C948 1.523 . S
C948 C932 1.368 . S
C948 C944 1.368 . S
C948 C947 1.523 . S
H949 C924 0.950 . S
H950 C926 0.950 . S
H951 C927 0.949 . S
H952 C929 0.950 . S
H953 C931 0.950 . S
C954 C955 1.349 . S
C954 C956 1.327 . S
C954 H979 0.950 . S
C955 C954 1.349 . S
C955 C971 1.349 . S
C956 C954 1.327 . S
C956 C975 1.429 . S
C956 H980 0.950 . S
C957 C974 1.574 . S
C957 C976 1.368 . S
C957 H981 0.949 . S
H958 C962 0.949 . S
C959 C960 1.349 . S
C959 C961 1.327 . S
C959 H982 0.950 . S
C960 C959 1.349 . S
C960 C972 1.349 . S
C961 C959 1.327 . S
C961 C977 1.429 . S
C961 H983 0.950 . S
C962 H958 0.949 . S
C962 C970 1.574 . S
C962 C978 1.368 . S
H963 C971 0.950 . S
H964 C969 0.950 . S
H965 C970 0.949 . S
H966 C972 0.950 . S
H967 C973 0.950 . S
H968 C974 0.949 . S
C969 H964 0.950 . S
C969 C971 1.327 . S
C969 C975 1.429 . S
C970 C962 1.574 . S
C970 H965 0.949 . S
C970 C976 1.368 . S
C971 C955 1.349 . S
C971 H963 0.950 . S
C971 C969 1.327 . S
C972 C960 1.349 . S
C972 H966 0.950 . S
C972 C973 1.327 . S
C973 H967 0.950 . S
C973 C972 1.327 . S
C973 C977 1.429 . S
C974 C957 1.574 . S
C974 H968 0.949 . S
C974 C978 1.368 . S
C975 C956 1.429 . S
C975 C969 1.429 . S
C975 C976 1.523 . S
C976 C957 1.368 . S
C976 C970 1.368 . S
C976 C975 1.523 . S
C977 C961 1.429 . S
C977 C973 1.429 . S
C977 C978 1.523 . S
C978 C962 1.368 . S
C978 C974 1.368 . S
C978 C977 1.523 . S
H979 C954 0.950 . S
H980 C956 0.950 . S
H981 C957 0.949 . S
H982 C959 0.950 . S
H983 C961 0.950 . S
C984 C985 1.349 . S
C984 C986 1.327 . S
C984 H1009 0.950 1_556 S
C985 C984 1.349 . S
C985 C1001 1.349 . S
C986 C984 1.327 . S
C986 C1005 1.429 . S
C986 H1010 0.950 . S
C987 C1004 1.574 . S
C987 C1006 1.368 . S
C987 H1011 0.949 . S
H988 C992 0.949 . S
C989 C990 1.349 1_655 S
C989 C991 1.327 . S
C989 H1012 0.950 . S
C990 C989 1.349 1_455 S
C990 C1002 1.349 . S
C991 C989 1.327 . S
C991 C1007 1.429 . S
C991 H1013 0.950 . S
C992 H988 0.949 . S
C992 C1000 1.574 . S
C992 C1008 1.368 . S
H993 C1001 0.950 . S
H994 C999 0.950 . S
H995 C1000 0.949 . S
H996 C1002 0.950 . S
H997 C1003 0.944 1_455 S
H998 C1004 0.949 . S
C999 H994 0.950 . S
C999 C1001 1.327 . S
C999 C1005 1.429 . S
C1000 C992 1.574 . S
C1000 H995 0.949 . S
C1000 C1006 1.368 . S
C1001 C985 1.349 . S
C1001 H993 0.950 . S
C1001 C999 1.327 . S
C1002 C990 1.349 . S
C1002 H996 0.950 . S
C1002 C1003 1.327 1_455 S
C1003 H997 0.944 1_655 S
C1003 C1002 1.327 1_655 S
C1003 C1007 1.429 . S
C1004 C987 1.574 . S
C1004 H998 0.949 . S
C1004 C1008 1.368 . S
C1005 C986 1.429 . S
C1005 C999 1.429 . S
C1005 C1006 1.523 . S
C1006 C987 1.368 . S
C1006 C1000 1.368 . S
C1006 C1005 1.523 . S
C1007 C991 1.429 . S
C1007 C1003 1.429 . S
C1007 C1008 1.523 . S
C1008 C992 1.368 . S
C1008 C1004 1.368 . S
C1008 C1007 1.523 . S
H1009 C984 0.950 1_554 S
H1010 C986 0.950 . S
H1011 C987 0.949 . S
H1012 C989 0.950 . S
H1013 C991 0.950 . S
C1014 C1015 1.349 . S
C1014 C1016 1.327 . S
C1014 H1039 0.950 . S
C1015 C1014 1.349 . S
C1015 C1031 1.349 . S
C1016 C1014 1.327 . S
C1016 C1035 1.429 . S
C1016 H1040 0.950 . S
C1017 C1034 1.574 . S
C1017 C1036 1.368 . S
C1017 H1041 0.949 . S
H1018 C1022 0.949 1_545 S
C1019 C1020 1.349 1_565 S
C1019 C1021 1.327 . S
C1019 H1042 0.950 . S
C1020 C1019 1.349 1_545 S
C1020 C1032 1.349 . S
C1021 C1019 1.327 . S
C1021 C1037 1.429 . S
C1021 H1043 0.950 . S
C1022 H1018 0.949 1_565 S
C1022 C1030 1.574 . S
C1022 C1038 1.368 . S
H1023 C1031 0.950 . S
H1024 C1029 0.950 . S
H1025 C1030 0.949 . S
H1026 C1032 0.950 . S
H1027 C1033 0.950 . S
H1028 C1034 0.949 . S
C1029 H1024 0.950 . S
C1029 C1031 1.327 . S
C1029 C1035 1.429 . S
C1030 C1022 1.574 . S
C1030 H1025 0.949 . S
C1030 C1036 1.368 . S
C1031 C1015 1.349 . S
C1031 H1023 0.950 . S
C1031 C1029 1.327 . S
C1032 C1020 1.349 . S
C1032 H1026 0.950 . S
C1032 C1033 1.327 . S
C1033 H1027 0.950 . S
C1033 C1032 1.327 . S
C1033 C1037 1.429 1_545 S
C1034 C1017 1.574 . S
C1034 H1028 0.949 . S
C1034 C1038 1.368 . S
C1035 C1016 1.429 . S
C1035 C1029 1.429 . S
C1035 C1036 1.523 . S
C1036 C1017 1.368 . S
C1036 C1030 1.368 . S
C1036 C1035 1.523 . S
C1037 C1021 1.429 . S
C1037 C1033 1.429 1_565 S
C1037 C1038 1.523 . S
C1038 C1022 1.368 . S
C1038 C1034 1.368 . S
C1038 C1037 1.523 . S
H1039 C1014 0.950 . S
H1040 C1016 0.950 . S
H1041 C1017 0.949 . S
H1042 C1019 0.950 . S
H1043 C1021 0.950 . S
C1044 C1045 1.349 . S
C1044 C1046 1.327 . S
C1044 H1069 0.950 1_556 S
C1045 C1044 1.349 . S
C1045 C1061 1.349 . S
C1046 C1044 1.327 . S
C1046 C1065 1.429 . S
C1046 H1070 0.950 . S
C1047 C1064 1.574 . S
C1047 C1066 1.368 . S
C1047 H1071 0.949 . S
H1048 C1052 0.949 . S
C1049 C1050 1.349 . S
C1049 C1051 1.327 . S
C1049 H1072 0.950 . S
C1050 C1049 1.349 . S
C1050 C1062 1.349 . S
C1051 C1049 1.327 . S
C1051 C1067 1.429 . S
C1051 H1073 0.950 . S
C1052 H1048 0.949 . S
C1052 C1060 1.574 . S
C1052 C1068 1.368 . S
H1053 C1061 0.950 . S
H1054 C1059 0.950 . S
H1055 C1060 0.949 . S
H1056 C1062 0.950 . S
H1057 C1063 0.950 . S
H1058 C1064 0.949 . S
C1059 H1054 0.950 . S
C1059 C1061 1.327 . S
C1059 C1065 1.429 . S
C1060 C1052 1.574 . S
C1060 H1055 0.949 . S
C1060 C1066 1.368 . S
C1061 C1045 1.349 . S
C1061 H1053 0.950 . S
C1061 C1059 1.327 . S
C1062 C1050 1.349 . S
C1062 H1056 0.950 . S
C1062 C1063 1.327 . S
C1063 H1057 0.950 . S
C1063 C1062 1.327 . S
C1063 C1067 1.429 . S
C1064 C1047 1.574 . S
C1064 H1058 0.949 . S
C1064 C1068 1.368 . S
C1065 C1046 1.429 . S
C1065 C1059 1.429 . S
C1065 C1066 1.523 . S
C1066 C1047 1.368 . S
C1066 C1060 1.368 . S
C1066 C1065 1.523 . S
C1067 C1051 1.429 . S
C1067 C1063 1.429 . S
C1067 C1068 1.523 . S
C1068 C1052 1.368 . S
C1068 C1064 1.368 . S
C1068 C1067 1.523 . S
H1069 C1044 0.950 1_554 S
H1070 C1046 0.950 . S
H1071 C1047 0.949 . S
H1072 C1049 0.950 . S
H1073 C1051 0.950 . S
C1074 C1075 1.349 . S
C1074 C1076 1.327 . S
C1074 H1099 0.950 . S
C1075 C1074 1.349 . S
C1075 C1091 1.349 . S
C1076 C1074 1.327 . S
C1076 C1095 1.429 . S
C1076 H1100 0.950 . S
C1077 C1094 1.574 . S
C1077 C1096 1.368 . S
C1077 H1101 0.949 . S
H1078 C1082 0.949 . S
C1079 C1080 1.349 . S
C1079 C1081 1.327 . S
C1079 H1102 0.950 . S
C1080 C1079 1.349 . S
C1080 C1092 1.349 . S
C1081 C1079 1.327 . S
C1081 C1097 1.429 . S
C1081 H1103 0.950 . S
C1082 H1078 0.949 . S
C1082 C1090 1.574 . S
C1082 C1098 1.368 . S
H1083 C1091 0.950 . S
H1084 C1089 0.950 . S
H1085 C1090 0.949 . S
H1086 C1092 0.950 . S
H1087 C1093 0.950 . S
H1088 C1094 0.949 . S
C1089 H1084 0.950 . S
C1089 C1091 1.327 . S
C1089 C1095 1.429 . S
C1090 C1082 1.574 . S
C1090 H1085 0.949 . S
C1090 C1096 1.368 . S
C1091 C1075 1.349 . S
C1091 H1083 0.950 . S
C1091 C1089 1.327 . S
C1092 C1080 1.349 . S
C1092 H1086 0.950 . S
C1092 C1093 1.327 . S
C1093 H1087 0.950 . S
C1093 C1092 1.327 . S
C1093 C1097 1.429 . S
C1094 C1077 1.574 . S
C1094 H1088 0.949 . S
C1094 C1098 1.368 . S
C1095 C1076 1.429 . S
C1095 C1089 1.429 . S
C1095 C1096 1.523 . S
C1096 C1077 1.368 . S
C1096 C1090 1.368 . S
C1096 C1095 1.523 . S
C1097 C1081 1.429 . S
C1097 C1093 1.429 . S
C1097 C1098 1.523 . S
C1098 C1082 1.368 . S
C1098 C1094 1.368 . S
C1098 C1097 1.523 . S
H1099 C1074 0.950 . S
H1100 C1076 0.950 . S
H1101 C1077 0.949 . S
H1102 C1079 0.950 . S
H1103 C1081 0.950 . S
C1104 C1105 1.349 . S
C1104 C1106 1.327 . S
C1104 H1129 0.950 . S
C1105 C1104 1.349 . S
C1105 C1121 1.349 . S
C1106 C1104 1.327 . S
C1106 C1125 1.429 . S
C1106 H1130 0.950 . S
C1107 C1124 1.574 . S
C1107 C1126 1.368 . S
C1107 H1131 0.949 . S
H1108 C1112 0.949 . S
C1109 C1110 1.349 . S
C1109 C1111 1.327 . S
C1109 H1132 0.950 . S
C1110 C1109 1.349 . S
C1110 C1122 1.349 . S
C1111 C1109 1.327 . S
C1111 C1127 1.429 . S
C1111 H1133 0.950 . S
C1112 H1108 0.949 . S
C1112 C1120 1.574 . S
C1112 C1128 1.368 . S
H1113 C1121 0.950 . S
H1114 C1119 0.950 . S
H1115 C1120 0.949 . S
H1116 C1122 0.950 . S
H1117 C1123 0.950 . S
H1118 C1124 0.949 . S
C1119 H1114 0.950 . S
C1119 C1121 1.327 . S
C1119 C1125 1.429 . S
C1120 C1112 1.574 . S
C1120 H1115 0.949 . S
C1120 C1126 1.368 . S
C1121 C1105 1.349 . S
C1121 H1113 0.950 . S
C1121 C1119 1.327 . S
C1122 C1110 1.349 . S
C1122 H1116 0.950 . S
C1122 C1123 1.327 . S
C1123 H1117 0.950 . S
C1123 C1122 1.327 . S
C1123 C1127 1.429 . S
C1124 C1107 1.574 . S
C1124 H1118 0.949 . S
C1124 C1128 1.368 . S
C1125 C1106 1.429 . S
C1125 C1119 1.429 . S
C1125 C1126 1.523 . S
C1126 C1107 1.368 . S
C1126 C1120 1.368 . S
C1126 C1125 1.523 . S
C1127 C1111 1.429 . S
C1127 C1123 1.429 . S
C1127 C1128 1.523 . S
C1128 C1112 1.368 . S
C1128 C1124 1.368 . S
C1128 C1127 1.523 . S
H1129 C1104 0.950 . S
H1130 C1106 0.950 . S
H1131 C1107 0.949 . S
H1132 C1109 0.950 . S
H1133 C1111 0.950 . S
C1134 C1135 1.349 . S
C1134 C1136 1.327 . S
C1134 H1159 0.950 . S
C1135 C1134 1.349 . S
C1135 C1151 1.349 . S
C1136 C1134 1.327 . S
C1136 C1155 1.429 . S
C1136 H1160 0.950 . S
C1137 C1154 1.574 . S
C1137 C1156 1.368 . S
C1137 H1161 0.949 . S
H1138 C1142 0.949 . S
C1139 C1140 1.349 . S
C1139 C1141 1.327 . S
C1139 H1162 0.950 . S
C1140 C1139 1.349 . S
C1140 C1152 1.349 . S
C1141 C1139 1.327 . S
C1141 C1157 1.429 . S
C1141 H1163 0.950 . S
C1142 H1138 0.949 . S
C1142 C1150 1.574 . S
C1142 C1158 1.368 . S
H1143 C1151 0.950 . S
H1144 C1149 0.950 . S
H1145 C1150 0.949 . S
H1146 C1152 0.950 . S
H1147 C1153 0.950 . S
H1148 C1154 0.949 . S
C1149 H1144 0.950 . S
C1149 C1151 1.327 . S
C1149 C1155 1.429 . S
C1150 C1142 1.574 . S
C1150 H1145 0.949 . S
C1150 C1156 1.368 . S
C1151 C1135 1.349 . S
C1151 H1143 0.950 . S
C1151 C1149 1.327 . S
C1152 C1140 1.349 . S
C1152 H1146 0.950 . S
C1152 C1153 1.327 . S
C1153 H1147 0.950 . S
C1153 C1152 1.327 . S
C1153 C1157 1.429 . S
C1154 C1137 1.574 . S
C1154 H1148 0.949 . S
C1154 C1158 1.368 . S
C1155 C1136 1.429 . S
C1155 C1149 1.429 . S
C1155 C1156 1.523 . S
C1156 C1137 1.368 . S
C1156 C1150 1.368 . S
C1156 C1155 1.523 . S
C1157 C1141 1.429 . S
C1157 C1153 1.429 . S
C1157 C1158 1.523 . S
C1158 C1142 1.368 . S
C1158 C1154 1.368 . S
C1158 C1157 1.523 . S
H1159 C1134 0.950 . S
H1160 C1136 0.950 . S
H1161 C1137 0.949 . S
H1162 C1139 0.950 . S
H1163 C1141 0.950 . S
C1164 C1165 1.349 . S
C1164 C1166 1.327 . S
C1164 H1189 0.950 . S
C1165 C1164 1.349 . S
C1165 C1181 1.349 . S
C1166 C1164 1.327 . S
C1166 C1185 1.429 . S
C1166 H1190 0.950 . S
C1167 C1184 1.574 . S
C1167 C1186 1.368 . S
C1167 H1191 0.949 . S
H1168 C1172 0.949 . S
C1169 C1170 1.349 . S
C1169 C1171 1.327 . S
C1169 H1192 0.950 . S
C1170 C1169 1.349 . S
C1170 C1182 1.349 . S
C1171 C1169 1.327 . S
C1171 C1187 1.429 . S
C1171 H1193 0.950 . S
C1172 H1168 0.949 . S
C1172 C1180 1.574 . S
C1172 C1188 1.368 . S
H1173 C1181 0.950 . S
H1174 C1179 0.950 . S
H1175 C1180 0.949 . S
H1176 C1182 0.950 . S
H1177 C1183 0.950 . S
H1178 C1184 0.949 . S
C1179 H1174 0.950 . S
C1179 C1181 1.327 . S
C1179 C1185 1.429 . S
C1180 C1172 1.574 . S
C1180 H1175 0.949 . S
C1180 C1186 1.368 . S
C1181 C1165 1.349 . S
C1181 H1173 0.950 . S
C1181 C1179 1.327 . S
C1182 C1170 1.349 . S
C1182 H1176 0.950 . S
C1182 C1183 1.327 . S
C1183 H1177 0.950 . S
C1183 C1182 1.327 . S
C1183 C1187 1.429 . S
C1184 C1167 1.574 . S
C1184 H1178 0.949 . S
C1184 C1188 1.368 . S
C1185 C1166 1.429 . S
C1185 C1179 1.429 . S
C1185 C1186 1.523 . S
C1186 C1167 1.368 . S
C1186 C1180 1.368 . S
C1186 C1185 1.523 . S
C1187 C1171 1.429 . S
C1187 C1183 1.429 . S
C1187 C1188 1.523 . S
C1188 C1172 1.368 . S
C1188 C1184 1.368 . S
C1188 C1187 1.523 . S
H1189 C1164 0.950 . S
H1190 C1166 0.950 . S
H1191 C1167 0.949 . S
H1192 C1169 0.950 . S
H1193 C1171 0.950 . S
C1194 C1195 1.349 . S
C1194 C1196 1.327 . S
C1194 H1219 0.950 . S
C1195 C1194 1.349 . S
C1195 C1211 1.349 . S
C1196 C1194 1.327 . S
C1196 C1215 1.429 . S
C1196 H1220 0.950 . S
C1197 C1214 1.574 . S
C1197 C1216 1.368 . S
C1197 H1221 0.949 . S
H1198 C1202 0.949 . S
C1199 C1200 1.349 . S
C1199 C1201 1.327 . S
C1199 H1222 0.950 . S
C1200 C1199 1.349 . S
C1200 C1212 1.349 . S
C1201 C1199 1.327 . S
C1201 C1217 1.429 . S
C1201 H1223 0.950 . S
C1202 H1198 0.949 . S
C1202 C1210 1.574 . S
C1202 C1218 1.368 . S
H1203 C1211 0.950 . S
H1204 C1209 0.950 . S
H1205 C1210 0.949 . S
H1206 C1212 0.950 . S
H1207 C1213 0.950 . S
H1208 C1214 0.949 . S
C1209 H1204 0.950 . S
C1209 C1211 1.327 . S
C1209 C1215 1.429 . S
C1210 C1202 1.574 . S
C1210 H1205 0.949 . S
C1210 C1216 1.368 . S
C1211 C1195 1.349 . S
C1211 H1203 0.950 . S
C1211 C1209 1.327 . S
C1212 C1200 1.349 . S
C1212 H1206 0.950 . S
C1212 C1213 1.327 . S
C1213 H1207 0.950 . S
C1213 C1212 1.327 . S
C1213 C1217 1.429 . S
C1214 C1197 1.574 . S
C1214 H1208 0.949 . S
C1214 C1218 1.368 . S
C1215 C1196 1.429 . S
C1215 C1209 1.429 . S
C1215 C1216 1.523 . S
C1216 C1197 1.368 . S
C1216 C1210 1.368 . S
C1216 C1215 1.523 . S
C1217 C1201 1.429 . S
C1217 C1213 1.429 . S
C1217 C1218 1.523 . S
C1218 C1202 1.368 . S
C1218 C1214 1.368 . S
C1218 C1217 1.523 . S
H1219 C1194 0.950 . S
H1220 C1196 0.950 . S
H1221 C1197 0.949 . S
H1222 C1199 0.950 . S
H1223 C1201 0.950 . S
C1224 C1225 1.349 . S
C1224 C1226 1.327 . S
C1224 H1249 0.950 . S
C1225 C1224 1.349 . S
C1225 C1241 1.349 . S
C1226 C1224 1.327 . S
C1226 C1245 1.429 . S
C1226 H1250 0.950 . S
C1227 C1244 1.574 . S
C1227 C1246 1.368 . S
C1227 H1251 0.949 . S
H1228 C1232 0.949 . S
C1229 C1230 1.349 . S
C1229 C1231 1.327 . S
C1229 H1252 0.950 . S
C1230 C1229 1.349 . S
C1230 C1242 1.349 . S
C1231 C1229 1.327 . S
C1231 C1247 1.429 . S
C1231 H1253 0.950 . S
C1232 H1228 0.949 . S
C1232 C1240 1.574 . S
C1232 C1248 1.368 . S
H1233 C1241 0.950 . S
H1234 C1239 0.950 . S
H1235 C1240 0.949 . S
H1236 C1242 0.950 1_455 S
H1237 C1243 0.950 . S
H1238 C1244 0.949 . S
C1239 H1234 0.950 . S
C1239 C1241 1.327 . S
C1239 C1245 1.429 . S
C1240 C1232 1.574 . S
C1240 H1235 0.949 . S
C1240 C1246 1.368 . S
C1241 C1225 1.349 . S
C1241 H1233 0.950 . S
C1241 C1239 1.327 . S
C1242 C1230 1.349 . S
C1242 H1236 0.950 1_655 S
C1242 C1243 1.327 . S
C1243 H1237 0.950 . S
C1243 C1242 1.327 . S
C1243 C1247 1.429 . S
C1244 C1227 1.574 . S
C1244 H1238 0.949 . S
C1244 C1248 1.368 . S
C1245 C1226 1.429 . S
C1245 C1239 1.429 . S
C1245 C1246 1.523 . S
C1246 C1227 1.368 . S
C1246 C1240 1.368 . S
C1246 C1245 1.523 . S
C1247 C1231 1.429 . S
C1247 C1243 1.429 . S
C1247 C1248 1.523 . S
C1248 C1232 1.368 . S
C1248 C1244 1.368 . S
C1248 C1247 1.523 . S
H1249 C1224 0.950 . S
H1250 C1226 0.950 . S
H1251 C1227 0.949 . S
H1252 C1229 0.950 . S
H1253 C1231 0.950 . S
C1254 C1255 1.349 . S
C1254 C1256 1.327 . S
C1254 H1279 0.950 . S
C1255 C1254 1.349 . S
C1255 C1271 1.349 . S
C1256 C1254 1.327 . S
C1256 C1275 1.429 . S
C1256 H1280 0.950 . S
C1257 C1274 1.574 . S
C1257 C1276 1.368 . S
C1257 H1281 0.949 . S
H1258 C1262 0.949 . S
C1259 C1260 1.349 . S
C1259 C1261 1.327 . S
C1259 H1282 0.950 1_565 S
C1260 C1259 1.349 . S
C1260 C1272 1.349 . S
C1261 C1259 1.327 . S
C1261 C1277 1.429 . S
C1261 H1283 0.950 1_565 S
C1262 H1258 0.949 . S
C1262 C1270 1.574 . S
C1262 C1278 1.368 . S
H1263 C1271 0.950 . S
H1264 C1269 0.950 . S
H1265 C1270 0.949 . S
H1266 C1272 0.950 . S
H1267 C1273 0.950 . S
H1268 C1274 0.949 . S
C1269 H1264 0.950 . S
C1269 C1271 1.327 . S
C1269 C1275 1.429 . S
C1270 C1262 1.574 . S
C1270 H1265 0.949 . S
C1270 C1276 1.368 . S
C1271 C1255 1.349 . S
C1271 H1263 0.950 . S
C1271 C1269 1.327 . S
C1272 C1260 1.349 . S
C1272 H1266 0.950 . S
C1272 C1273 1.327 . S
C1273 H1267 0.950 . S
C1273 C1272 1.327 . S
C1273 C1277 1.429 . S
C1274 C1257 1.574 . S
C1274 H1268 0.949 . S
C1274 C1278 1.368 . S
C1275 C1256 1.429 . S
C1275 C1269 1.429 . S
C1275 C1276 1.523 . S
C1276 C1257 1.368 . S
C1276 C1270 1.368 . S
C1276 C1275 1.523 . S
C1277 C1261 1.429 . S
C1277 C1273 1.429 . S
C1277 C1278 1.523 . S
C1278 C1262 1.368 . S
C1278 C1274 1.368 . S
C1278 C1277 1.523 . S
H1279 C1254 0.950 . S
H1280 C1256 0.950 . S
H1281 C1257 0.949 . S
H1282 C1259 0.950 1_545 S
H1283 C1261 0.950 1_545 S
C1284 C1285 1.349 . S
C1284 C1286 1.327 . S
C1284 H1309 0.950 . S
C1285 C1284 1.349 . S
C1285 C1301 1.349 . S
C1286 C1284 1.327 . S
C1286 C1305 1.429 . S
C1286 H1310 0.950 . S
C1287 C1304 1.574 . S
C1287 C1306 1.368 . S
C1287 H1311 0.949 . S
H1288 C1292 0.949 . S
C1289 C1290 1.349 . S
C1289 C1291 1.327 . S
C1289 H1312 0.950 . S
C1290 C1289 1.349 . S
C1290 C1302 1.349 . S
C1291 C1289 1.327 . S
C1291 C1307 1.429 . S
C1291 H1313 0.950 . S
C1292 H1288 0.949 . S
C1292 C1300 1.574 . S
C1292 C1308 1.368 . S
H1293 C1301 0.950 . S
H1294 C1299 0.950 . S
H1295 C1300 0.949 . S
H1296 C1302 0.950 . S
H1297 C1303 0.950 . S
H1298 C1304 0.949 . S
C1299 H1294 0.950 . S
C1299 C1301 1.327 . S
C1299 C1305 1.429 . S
C1300 C1292 1.574 . S
C1300 H1295 0.949 . S
C1300 C1306 1.368 . S
C1301 C1285 1.349 . S
C1301 H1293 0.950 . S
C1301 C1299 1.327 . S
C1302 C1290 1.349 . S
C1302 H1296 0.950 . S
C1302 C1303 1.327 . S
C1303 H1297 0.950 . S
C1303 C1302 1.327 . S
C1303 C1307 1.429 . S
C1304 C1287 1.574 . S
C1304 H1298 0.949 . S
C1304 C1308 1.368 . S
C1305 C1286 1.429 . S
C1305 C1299 1.429 . S
C1305 C1306 1.523 . S
C1306 C1287 1.368 . S
C1306 C1300 1.368 . S
C1306 C1305 1.523 . S
C1307 C1291 1.429 . S
C1307 C1303 1.429 . S
C1307 C1308 1.523 . S
C1308 C1292 1.368 . S
C1308 C1304 1.368 . S
C1308 C1307 1.523 . S
H1309 C1284 0.950 . S
H1310 C1286 0.950 . S
H1311 C1287 0.949 . S
H1312 C1289 0.950 . S
H1313 C1291 0.950 . S
C1314 C1315 1.349 . S
C1314 C1316 1.327 . S
C1314 H1339 0.950 . S
C1315 C1314 1.349 . S
C1315 C1331 1.349 . S
C1316 C1314 1.327 . S
C1316 C1335 1.429 . S
C1316 H1340 0.950 . S
C1317 C1334 1.574 . S
C1317 C1336 1.368 . S
C1317 H1341 0.949 . S
H1318 C1322 0.949 . S
C1319 C1320 1.349 . S
C1319 C1321 1.327 . S
C1319 H1342 0.950 . S
C1320 C1319 1.349 . S
C1320 C1332 1.349 . S
C1321 C1319 1.327 . S
C1321 C1337 1.429 . S
C1321 H1343 0.950 . S
C1322 H1318 0.949 . S
C1322 C1330 1.574 . S
C1322 C1338 1.368 . S
H1323 C1331 0.950 . S
H1324 C1329 0.950 . S
H1325 C1330 0.949 . S
H1326 C1332 0.950 . S
H1327 C1333 0.950 . S
H1328 C1334 0.949 . S
C1329 H1324 0.950 . S
C1329 C1331 1.327 . S
C1329 C1335 1.429 . S
C1330 C1322 1.574 . S
C1330 H1325 0.949 . S
C1330 C1336 1.368 . S
C1331 C1315 1.349 . S
C1331 H1323 0.950 . S
C1331 C1329 1.327 . S
C1332 C1320 1.349 . S
C1332 H1326 0.950 . S
C1332 C1333 1.327 . S
C1333 H1327 0.950 . S
C1333 C1332 1.327 . S
C1333 C1337 1.429 . S
C1334 C1317 1.574 . S
C1334 H1328 0.949 . S
C1334 C1338 1.368 . S
C1335 C1316 1.429 . S
C1335 C1329 1.429 . S
C1335 C1336 1.523 . S
C1336 C1317 1.368 . S
C1336 C1330 1.368 . S
C1336 C1335 1.523 . S
C1337 C1321 1.429 . S
C1337 C1333 1.429 . S
C1337 C1338 1.523 . S
C1338 C1322 1.368 . S
C1338 C1334 1.368 . S
C1338 C1337 1.523 . S
H1339 C1314 0.950 . S
H1340 C1316 0.950 . S
H1341 C1317 0.949 . S
H1342 C1319 0.950 . S
H1343 C1321 0.950 . S
C625 C241 2.043 . S
C630 C363 2.106 . S
C660 C447 2.148 . S
C655 C277 2.081 . S
C690 C523 2.103 . S
C685 C169 2.208 . S
C720 C607 2.087 . S
C715 C205 2.191 . S
C750 C354 2.105 1_565 S
C745 C97 1.997 . S
C775 C133 2.129 . S
C780 C438 2.148 . S
C805 C25 2.156 . S
C810 C512 2.104 . S
C835 C61 2.141 . S
C840 C596 2.087 . S
C870 C351 0.429 1_455 S
C865 C211 0.421 . S
C900 C435 0.406 1_545 S
C895 C247 0.381 . S
C930 C528 0.445 . S
C925 C253 0.455 . S
C955 C175 0.405 . S
C960 C612 0.455 . S
C985 C67 0.510 . S
C990 C360 0.429 . S
C1020 C444 0.406 . S
C1015 C103 0.485 . S
C1050 C519 0.445 . S
C1045 C109 0.351 . S
C1075 C31 0.510 . S
C1080 C603 0.455 . S
C1105 C181 2.625 . S
C1110 C344 2.694 . S
C1135 C217 2.569 . S
C1140 C428 2.638 . S
C1170 C522 2.655 . S
C1165 C283 2.352 . S
C1200 C606 2.686 . S
C1195 C145 2.481 . S
C1225 C37 2.591 . S
C1230 C355 2.693 . S
C1260 C439 2.638 . S
C1255 C73 2.538 . S
C1290 C531 2.655 . S
C1285 C139 2.397 . S
C1315 C1 2.445 . S
C1320 C615 2.685 . S
