# Generated by pormake.
# Topology anh, (6,3)-cn, num edge types: 1
# Building blocks:
#     Node 0, Type 0, BuildingBlock: CUWYAW_clean_sbu_0, # of connection points: 6
#     Node 1, Type 0, BuildingBlock: CUWYAW_clean_sbu_0, # of connection points: 6
#     Node 2, Type 0, BuildingBlock: CUWYAW_clean_sbu_0, # of connection points: 6
#     Node 3, Type 1, BuildingBlock: BETDAH_clean_linker_0, # of connection points: 3
#     Node 4, Type 1, BuildingBlock: BETDAH_clean_linker_0, # of connection points: 3
#     Node 5, Type 1, BuildingBlock: BETDAH_clean_linker_0, # of connection points: 3
#     Node 6, Type 1, BuildingBlock: BETDAH_clean_linker_0, # of connection points: 3
#     Node 7, Type 1, BuildingBlock: BETDAH_clean_linker_0, # of connection points: 3
#     Node 8, Type 1, BuildingBlock: BETDAH_clean_linker_0, # of connection points: 3
#     Edge 9, Type (0, 1), BuildingBlock: OJICUG_clean_linker_0, # of connection points: 2
#     Edge 10, Type (0, 1), BuildingBlock: OJICUG_clean_linker_0, # of connection points: 2
#     Edge 11, Type (0, 1), BuildingBlock: OJICUG_clean_linker_0, # of connection points: 2
#     Edge 12, Type (0, 1), BuildingBlock: OJICUG_clean_linker_0, # of connection points: 2
#     Edge 13, Type (0, 1), BuildingBlock: OJICUG_clean_linker_0, # of connection points: 2
#     Edge 14, Type (0, 1), BuildingBlock: OJICUG_clean_linker_0, # of connection points: 2
#     Edge 15, Type (0, 1), BuildingBlock: OJICUG_clean_linker_0, # of connection points: 2
#     Edge 16, Type (0, 1), BuildingBlock: OJICUG_clean_linker_0, # of connection points: 2
#     Edge 17, Type (0, 1), BuildingBlock: OJICUG_clean_linker_0, # of connection points: 2
#     Edge 18, Type (0, 1), BuildingBlock: OJICUG_clean_linker_0, # of connection points: 2
#     Edge 19, Type (0, 1), BuildingBlock: OJICUG_clean_linker_0, # of connection points: 2
#     Edge 20, Type (0, 1), BuildingBlock: OJICUG_clean_linker_0, # of connection points: 2
#     Edge 21, Type (0, 1), BuildingBlock: OJICUG_clean_linker_0, # of connection points: 2
#     Edge 22, Type (0, 1), BuildingBlock: OJICUG_clean_linker_0, # of connection points: 2
#     Edge 23, Type (0, 1), BuildingBlock: OJICUG_clean_linker_0, # of connection points: 2
#     Edge 24, Type (0, 1), BuildingBlock: OJICUG_clean_linker_0, # of connection points: 2
#     Edge 25, Type (0, 1), BuildingBlock: OJICUG_clean_linker_0, # of connection points: 2
#     Edge 26, Type (0, 1), BuildingBlock: OJICUG_clean_linker_0, # of connection points: 2
# Relax obj value: 0.386
# Max RMSD: 0.162
# Mean RMSD: 0.123
data_MOF--net-anh--node1-CUWYAW_clean_sbu_0--node2-BETDAH_clean_linker_0--edge1-OJICUG_clean_linker_0
_symmetry_space_group_name_H-M    P1
_symmetry_Int_Tables_number       1
_symmetry_cell_setting            triclinic
loop_
_symmetry_equiv_pos_as_xyz
'x, y, z'
_cell_length_a     22.882937
_cell_length_b     22.878969
_cell_length_c     36.53731
_cell_angle_alpha  92.983113
_cell_angle_beta   91.49822
_cell_angle_gamma 119.83204
loop_
_atom_site_label
_atom_site_type_symbol
_atom_site_fract_x
_atom_site_fract_y
_atom_site_fract_z
_atom_type_partial_charge
C0 C 1.05615 0.42199 0.13338 0.0
Eu1 Eu 1.14626 0.54899 0.1404 0.0
C2 C 0.98347 0.39695 0.13746 0.0
C3 C 0.95893 0.38722 0.17277 0.0
C4 C 0.90273 0.39329 0.18027 0.0
C5 C 0.86945 0.40814 0.15252 0.0
C6 C 0.88732 0.40694 0.11616 0.0
C7 C 0.94405 0.40147 0.10865 0.0
C8 C 0.187 0.61539 0.20887 0.0
C9 C 1.04999 0.62166 0.13264 0.0
C10 C 0.28996 0.82024 0.1422 0.0
Eu11 Eu 0.21076 0.69043 0.13593 0.0
C12 C 0.35698 0.86986 0.13063 0.0
C13 C 0.36293 0.90218 0.09809 0.0
C14 C 0.4233 0.95992 0.09148 0.0
C15 C 0.47792 0.987 0.11775 0.0
C16 C 0.47464 0.94895 0.14754 0.0
C17 C 0.41452 0.8912 0.15406 0.0
C18 C 0.16557 0.61964 0.06994 0.0
C19 C 0.30727 0.61726 0.12986 0.0
O20 O 1.08151 0.45751 0.1052 0.0
O21 O 1.0952 0.45052 0.16323 0.0
O22 O 0.19434 0.56505 0.19731 0.0
O23 O 0.1592 0.63056 0.18328 0.0
O24 O 1.05519 0.56647 0.12668 0.0
O25 O 1.10582 0.67884 0.14334 0.0
O26 O 0.28735 0.78094 0.16772 0.0
O27 O 0.24219 0.78894 0.11625 0.0
O28 O 0.15979 0.67178 0.07914 0.0
O29 O 0.19692 0.60932 0.09514 0.0
O30 O 0.30476 0.67426 0.13514 0.0
O31 O 0.24938 0.55881 0.12817 0.0
H32 H 0.98698 0.38183 0.19542 0.0
H33 H 0.88775 0.39024 0.20831 0.0
H34 H 0.86106 0.41581 0.09398 0.0
H35 H 0.96069 0.40766 0.0809 0.0
H36 H 0.31962 0.88611 0.0791 0.0
H37 H 0.42475 0.98737 0.06791 0.0
H38 H 0.51555 0.96787 0.16846 0.0
H39 H 0.41184 0.86674 0.17907 0.0
C40 C 0.54381 0.23946 0.46262 0.0
Eu41 Eu 0.61957 0.18642 0.47417 0.0
C42 C 0.56138 0.30663 0.45118 0.0
C43 C 0.54458 0.34727 0.47322 0.0
C44 C 0.58086 0.41725 0.47193 0.0
C45 C 0.63468 0.44741 0.44858 0.0
C46 C 0.64299 0.40568 0.42213 0.0
C47 C 0.60714 0.33568 0.42372 0.0
C48 C 0.66485 0.17408 0.54157 0.0
C49 C 0.78181 0.28258 0.46519 0.0
C50 C 0.7763 1.07356 0.47678 0.0
Eu51 Eu 0.68861 0.11317 0.46766 0.0
C52 C 0.79782 1.03001 0.49377 0.0
C53 C 0.82033 0.99478 0.47117 0.0
C54 C 0.85393 0.96426 0.48647 0.0
C55 C 0.86612 0.96892 0.52472 0.0
C56 C 0.84048 1.00134 0.54743 0.0
C57 C 0.80659 1.03165 0.53209 0.0
C58 C 0.6524 0.14049 0.40225 0.0
C59 C 0.52701 1.01631 0.46359 0.0
O60 O 0.54965 0.19901 0.43828 0.0
O61 O 0.56917 0.23966 0.49515 0.0
O62 O 0.6684 0.22859 0.53057 0.0
O63 O 0.63663 0.12617 0.51632 0.0
O64 O 0.72266 0.28074 0.46361 0.0
O65 O 0.7807 0.22427 0.46881 0.0
O66 O 0.77452 0.12034 0.49803 0.0
O67 O 0.72925 1.04799 0.4501 0.0
O68 O 0.64642 1.0823 0.40771 0.0
O69 O 0.67823 0.17971 0.4303 0.0
O70 O 0.58469 1.017 0.47027 0.0
O71 O 0.52929 1.07554 0.46215 0.0
H72 H 0.5089 0.32571 0.4943 0.0
H73 H 0.5722 0.44724 0.49263 0.0
H74 H 0.68249 0.42716 0.40302 0.0
H75 H 0.62021 0.30524 0.40588 0.0
H76 H 0.8145 0.99331 0.44154 0.0
H77 H 0.8715 0.9381 0.46829 0.0
H78 H 0.84905 1.00579 0.57699 0.0
H79 H 0.79001 1.05886 0.55018 0.0
C80 C 0.9012 0.73037 0.78824 0.0
Eu81 Eu 0.77747 0.68568 0.80614 0.0
C82 C 0.93804 0.69346 0.78214 0.0
C83 C 0.99321 0.70835 0.80613 0.0
C84 C 1.01448 0.66125 0.80939 0.0
C85 C 0.98095 0.59866 0.78854 0.0
C86 C 0.93238 0.58827 0.76082 0.0
C87 C 0.91075 0.63518 0.75772 0.0
C88 C 0.73919 0.67179 0.87706 0.0
C89 C 0.7044 0.51603 0.7991 0.0
C90 C 0.50882 0.54677 0.82938 0.0
Eu91 Eu 0.63182 0.60577 0.81018 0.0
C92 C 0.4386 0.51301 0.84009 0.0
C93 C 0.38544 0.47402 0.81375 0.0
C94 C 0.32003 0.43319 0.82459 0.0
C95 C 0.30668 0.43039 0.86198 0.0
C96 C 0.35967 0.47131 0.88817 0.0
C97 C 0.42496 0.51234 0.87731 0.0
C98 C 0.67434 0.62005 0.7413 0.0
C99 C 0.701 0.77413 0.80235 0.0
O100 O 0.8515 0.71587 0.76444 0.0
O101 O 0.88495 0.73374 0.82201 0.0
O102 O 0.78562 0.72724 0.86473 0.0
O103 O 0.71446 0.62517 0.85124 0.0
O104 O 0.75687 0.57532 0.79189 0.0
O105 O 0.65051 0.51561 0.81193 0.0
O106 O 0.55988 0.58734 0.85233 0.0
O107 O 0.52437 0.54136 0.79567 0.0
O108 O 0.62647 0.56332 0.75155 0.0
O109 O 0.69475 0.66509 0.76715 0.0
O110 O 0.64642 0.71584 0.80967 0.0
O111 O 0.75882 0.77465 0.79802 0.0
H112 H 1.01541 0.75323 0.82495 0.0
H113 H 1.05215 0.67109 0.83105 0.0
H114 H 0.90695 0.54121 0.74377 0.0
H115 H 0.86873 0.62272 0.73842 0.0
H116 H 0.39464 0.47348 0.78484 0.0
H117 H 0.28005 0.40346 0.80369 0.0
H118 H 0.35124 0.47 0.91721 0.0
H119 H 0.46517 0.54135 0.89822 0.0
H120 H 0.60093 0.15309 0.23523 0.0
H121 H 0.60456 0.32471 0.29224 0.0
H122 H 0.58379 0.29975 0.17451 0.0
C123 C 0.59875 0.19928 0.23479 0.0
C124 C 0.59235 0.22244 0.20098 0.0
C125 C 0.60179 0.23459 0.268 0.0
C126 C 0.59982 0.29518 0.26704 0.0
C127 C 0.59528 0.31971 0.23332 0.0
C128 C 0.58918 0.28181 0.20051 0.0
N129 N 0.60736 0.38667 0.23207 0.0
C130 C 0.65757 0.42819 0.20986 0.0
H131 H 0.73802 0.59525 0.57758 0.0
H132 H 0.92357 0.72601 0.64094 0.0
H133 H 0.92363 0.70184 0.52362 0.0
C134 C 0.79229 0.62853 0.579 0.0
C135 C 0.82681 0.64431 0.54658 0.0
C136 C 0.8267 0.65705 0.61315 0.0
C137 C 0.89679 0.70085 0.61488 0.0
C138 C 0.93193 0.71649 0.58271 0.0
C139 C 0.89689 0.68746 0.54858 0.0
N140 N 0.99726 0.77356 0.58387 0.0
C141 C 0.99953 0.83332 0.57656 0.0
H142 H 1.02429 0.50801 0.91715 0.0
H143 H 0.99987 0.33542 0.9713 0.0
H144 H 0.94961 0.3172 0.8556 0.0
C145 C 1.00697 0.45436 0.91665 0.0
C146 C 0.98386 0.41529 0.88317 0.0
C147 C 1.01215 0.42616 0.94882 0.0
C148 C 0.9924 0.35723 0.94723 0.0
C149 C 0.96948 0.31766 0.91368 0.0
C150 C 0.96376 0.3466 0.88182 0.0
N151 N 0.97284 0.25771 0.90992 0.0
C152 C 1.03559 0.26697 0.90198 0.0
H153 H 0.2934 0.77418 0.36636 0.0
H154 H 1.10705 0.58844 0.37827 0.0
H155 H 0.22165 0.71886 0.4741 0.0
C156 C 0.25586 0.73995 0.38393 0.0
C157 C 0.26632 0.75559 0.42233 0.0
C158 C 0.19933 0.67991 0.36775 0.0
C159 C 1.15026 0.63414 0.3906 0.0
C160 C 0.15638 0.64716 0.42911 0.0
C161 C 0.21546 0.70823 0.44459 0.0
N162 N 1.10577 0.60115 0.45306 0.0
C163 C 1.04309 0.53845 0.44601 0.0
H164 H 0.69365 0.27638 0.70084 0.0
H165 H 0.6871 1.08615 0.7118 0.0
H166 H 0.69604 0.20929 0.80832 0.0
C167 C 0.69426 0.2398 0.71829 0.0
C168 C 0.69662 0.25272 0.75663 0.0
C169 C 0.69085 0.18062 0.7016 0.0
C170 C 0.68912 0.13114 0.72428 0.0
C171 C 0.69131 0.14032 0.76306 0.0
C172 C 0.69424 0.20135 0.77874 0.0
N173 N 0.69092 1.09092 0.7872 0.0
C174 C 0.69121 1.02847 0.78059 0.0
H175 H 0.82562 0.63094 0.03383 0.0
H176 H 0.63819 0.63092 0.04449 0.0
H177 H 0.74554 0.61852 0.14042 0.0
C178 C 0.7869 0.62863 0.05117 0.0
C179 C 0.7939 0.62342 0.08924 0.0
C180 C 0.73173 0.63184 0.03482 0.0
C181 C 0.68023 0.62838 0.05701 0.0
C182 C 0.68399 0.62395 0.09536 0.0
C183 C 0.74181 0.62209 0.11111 0.0
N184 N 0.63227 0.62184 0.11894 0.0
C185 C 0.5705 0.62249 0.11155 0.0
C186 C 0.37891 0.55922 0.11775 0.0
C187 C 0.37528 0.61905 0.12421 0.0
H188 H 0.44059 0.51293 0.10854 0.0
C189 C 0.43798 0.68034 0.12487 0.0
H190 H 0.33309 0.51059 0.11686 0.0
C191 C 0.50044 0.68157 0.11979 0.0
C192 C 0.5038 0.62166 0.11352 0.0
H193 H 0.4391 0.728 0.12963 0.0
H194 H 0.54661 0.72999 0.12128 0.0
C195 C 0.44132 0.56051 0.11268 0.0
C196 C 0.85202 0.41112 0.45499 0.0
C197 C 0.84907 0.34853 0.45964 0.0
H198 H 0.91268 0.51799 0.447 0.0
C199 C 0.91184 0.35013 0.45832 0.0
H200 H 0.80602 0.41344 0.45572 0.0
C201 C 0.97368 0.41063 0.45296 0.0
C202 C 0.97649 0.4731 0.44843 0.0
H203 H 0.91349 0.30421 0.46161 0.0
H204 H 1.01989 0.40847 0.45281 0.0
C205 C 0.9139 0.47169 0.44969 0.0
C206 C 0.63706 0.8422 0.79867 0.0
C207 C 0.69736 0.83919 0.79641 0.0
H208 H 0.58734 0.90169 0.79539 0.0
C209 C 0.75486 0.89997 0.78743 0.0
H210 H 0.59118 0.79777 0.80531 0.0
C211 C 0.75246 0.96004 0.78143 0.0
C212 C 0.69233 0.96298 0.78377 0.0
H213 H 0.80267 0.90151 0.78515 0.0
H214 H 0.7985 1.00486 0.7753 0.0
C215 C 0.63471 0.90244 0.79264 0.0
C216 C 0.96618 0.66759 0.1406 0.0
C217 C 0.98218 0.61994 0.12421 0.0
H218 H 0.89596 0.70537 0.1441 0.0
C219 C 0.93298 0.57176 0.09791 0.0
H220 H 1.00183 0.70622 0.16074 0.0
C221 C 0.8722 0.57173 0.08803 0.0
C222 C 0.85601 0.61928 0.1042 0.0
H223 H 0.94269 0.53509 0.08365 0.0
H224 H 0.83786 0.5345 0.06691 0.0
C225 C 0.90447 0.66681 0.13116 0.0
C226 C 0.39744 0.94716 0.44693 0.0
C227 C 0.45898 0.94871 0.45599 0.0
H228 H 0.29095 0.8881 0.43002 0.0
C229 C 0.45426 0.88439 0.456 0.0
H230 H 0.39716 0.99425 0.44612 0.0
C231 C 0.39216 0.8226 0.44697 0.0
C232 C 0.33098 0.82133 0.43755 0.0
H233 H 0.49923 0.88158 0.46236 0.0
H234 H 0.39253 0.77542 0.44641 0.0
C235 C 0.33551 0.88543 0.43778 0.0
C236 C 0.74814 0.4442 0.76537 0.0
C237 C 0.7048 0.44891 0.79076 0.0
H238 H 0.78058 0.38249 0.7356 0.0
C239 C 0.66069 0.38776 0.80668 0.0
H240 H 0.78246 0.48855 0.75185 0.0
C241 C 0.66002 0.32559 0.79754 0.0
C242 C 0.70244 0.32078 0.77136 0.0
H243 H 0.62595 0.38767 0.82625 0.0
H244 H 0.62425 0.28055 0.8101 0.0
C245 C 0.74672 0.38223 0.75583 0.0
C246 C 0.88671 0.9057 0.57259 0.0
C247 C 0.90628 0.94085 0.54068 0.0
H248 H 0.90317 0.84475 0.60939 0.0
C249 C 0.96335 0.94718 0.52346 0.0
H250 H 0.84265 0.89925 0.58625 0.0
C251 C 0.99784 0.91585 0.53678 0.0
C252 C 0.97624 0.87883 0.56772 0.0
H253 H 0.98038 0.97499 0.4992 0.0
H254 H 1.03928 0.91808 0.52203 0.0
C255 C 0.92147 0.87487 0.58596 0.0
C256 C 1.04662 0.55009 0.81692 0.0
C257 C 0.98522 0.54069 0.80181 0.0
H258 H 1.09403 0.51607 0.85493 0.0
C259 C 0.92518 0.48041 0.80722 0.0
H260 H 1.09373 0.59543 0.81276 0.0
C261 C 0.92549 0.43478 0.83101 0.0
C262 C 0.98578 0.44912 0.84972 0.0
H263 H 0.87697 0.47186 0.79633 0.0
H264 H 0.87794 0.39212 0.83752 0.0
C265 C 1.04683 0.50476 0.84092 0.0
C266 C 0.58976 1.08553 0.13956 0.0
C267 C 0.52595 1.06074 0.12152 0.0
H268 H 0.66225 0.15881 0.17986 0.0
C269 C 0.49907 0.10416 0.11963 0.0
H270 H 0.61301 1.0543 0.14031 0.0
C271 C 0.52682 0.16349 0.14243 0.0
C272 C 0.58219 0.18027 0.16676 0.0
H273 H 0.45072 1.08771 0.10537 0.0
H274 H 0.49933 0.19063 0.14453 0.0
C275 C 0.61756 0.14498 0.16244 0.0
C276 C 0.67906 0.56427 0.47797 0.0
C277 C 0.69156 0.51635 0.45969 0.0
H278 H 0.71361 0.64378 0.5207 0.0
C279 C 0.75765 0.52659 0.4622 0.0
H280 H 0.62959 0.55955 0.47554 0.0
C281 C 0.8057 0.57482 0.48797 0.0
C282 C 0.78837 0.61379 0.51111 0.0
H283 H 0.77001 0.49196 0.44794 0.0
H284 H 0.85323 0.57593 0.49263 0.0
C285 C 0.72703 0.61233 0.50386 0.0
C286 C 0.21214 0.40728 0.90235 0.0
C287 C 0.23782 0.38507 0.87372 0.0
H288 H 1.12752 0.38532 0.93406 0.0
C289 C 0.19692 0.31986 0.85626 0.0
H290 H 0.24164 0.45749 0.91592 0.0
C291 C 1.13097 0.27867 0.8666 0.0
C292 C 1.10583 0.30199 0.89478 0.0
H293 H 0.21561 0.30097 0.83442 0.0
H294 H 1.09928 0.22973 0.852 0.0
C295 C 1.14683 0.36597 0.91279 0.0
C296 C 0.83059 0.46994 0.19459 0.0
C297 C 0.8193 0.4285 0.1623 0.0
H298 H 0.78625 0.50455 0.23489 0.0
C299 C 0.75858 0.4041 0.14102 0.0
H300 H 0.87799 0.49184 0.2108 0.0
C301 C 0.70714 0.41405 0.15421 0.0
C302 C 0.71575 0.44763 0.18886 0.0
H303 H 0.74874 0.37291 0.11576 0.0
H304 H 0.65845 0.38934 0.13913 0.0
C305 C 0.77889 0.47895 0.20793 0.0
C306 C 1.07306 0.57258 0.02076 0.0
C307 C 1.12561 0.56946 0.0395 0.0
H308 H 0.99412 0.52794 0.9782 0.0
C309 C 1.13759 0.51627 0.03006 0.0
H310 H 1.06201 0.61244 0.02801 0.0
C311 C 1.09859 0.46771 0.00168 0.0
C312 C 1.04694 0.4716 0.98224 0.0
H313 H 0.17762 0.51263 0.04435 0.0
H314 H 1.11053 0.42861 -0.00582 0.0
C315 C 1.03395 0.52399 -0.00753 0.0
C316 C 0.59341 0.11663 0.33999 0.0
C317 C 0.63895 0.16275 0.3676 0.0
H318 H 0.54337 0.10332 0.28735 0.0
C319 C 0.67042 0.2323 0.36291 0.0
H320 H 0.56792 1.06285 0.34328 0.0
C321 C 0.65717 0.25559 0.33103 0.0
C322 C 0.61169 0.20981 0.30314 0.0
H323 H 0.70608 0.26903 0.38382 0.0
H324 H 0.68395 0.30942 0.32791 0.0
C325 C 0.57945 0.13999 0.30811 0.0
C326 C 0.75836 0.69365 0.69876 0.0
C327 C 0.7102 0.62849 0.70745 0.0
H328 H 0.83377 0.75349 0.6624 0.0
C329 C 0.70014 0.57234 0.68491 0.0
H330 H 0.76663 0.73783 0.71559 0.0
C331 C 0.7386 0.58138 0.65437 0.0
C332 C 0.78792 0.64662 0.64624 0.0
H333 H 0.66349 0.52158 0.6912 0.0
H334 H 0.73033 0.53746 0.63731 0.0
C335 C 0.79721 0.70263 0.6686 0.0
C336 C 0.72436 0.2282 0.60251 0.0
C337 C 0.67746 0.16897 0.58153 0.0
H338 H 0.76718 0.27752 0.65559 0.0
C339 C 0.63955 0.11019 0.60016 0.0
H340 H 0.755 0.27429 0.58923 0.0
C341 C 0.64573 0.11232 0.63904 0.0
C342 C 0.69014 0.17318 0.66009 0.0
H343 H 0.60269 1.06371 0.58496 0.0
H344 H 0.61339 1.06726 0.65267 0.0
C345 C 0.73101 0.23016 0.64084 0.0
C346 C 0.67933 0.60519 0.93149 0.0
C347 C 0.73456 0.66097 0.9174 0.0
H348 H 0.634 0.55295 0.97957 0.0
C349 C 0.78721 0.70734 0.94249 0.0
H350 H 0.63782 0.56852 0.9131 0.0
C351 C 0.7857 0.69766 0.9802 0.0
C352 C 0.7307 0.64219 -0.00556 0.0
H353 H 0.83067 0.75086 0.93289 0.0
H354 H 0.82782 0.73396 -0.0016 0.0
C355 C 0.67702 0.59641 0.96961 0.0
C356 C 0.19643 0.69528 0.26314 0.0
C357 C 0.18787 0.63276 0.24923 0.0
H358 H 0.20798 0.75983 0.31127 0.0
C359 C 0.18141 0.58585 0.27466 0.0
H360 H 0.20176 0.73269 0.24449 0.0
C361 C 0.1833 0.6006 0.31266 0.0
C362 C 0.19345 0.66353 0.32678 0.0
H363 H 0.17454 0.53706 0.26517 0.0
H364 H 0.17848 0.56312 0.33114 0.0
C365 C 0.20016 0.71083 0.30144 0.0
loop_
_geom_bond_atom_site_label_1
_geom_bond_atom_site_label_2
_geom_bond_distance
_geom_bond_site_symmetry_2
_ccdc_geom_bond_type
C0 Eu1 2.835 . S
C0 C2 1.500 . S
C0 O20 1.257 . S
C0 O21 1.260 . S
Eu1 C0 2.835 . S
Eu1 O20 2.473 . S
Eu1 O21 2.480 . S
Eu1 O22 2.430 . S
Eu1 O23 2.670 1_655 S
Eu1 O24 2.394 . S
Eu1 O29 2.355 . S
Eu1 O31 2.374 1_655 S
C2 C0 1.500 . S
C2 C3 1.377 . S
C2 C7 1.377 . S
C3 C2 1.377 . S
C3 C4 1.395 . S
C3 H32 0.931 . S
C4 C3 1.395 . S
C4 C5 1.383 . S
C4 H33 0.931 . S
C5 C4 1.383 . S
C5 C6 1.394 . S
C6 C5 1.394 . S
C6 C7 1.378 . S
C6 H34 0.931 . S
C7 C2 1.377 . S
C7 C6 1.378 . S
C7 H35 0.931 . S
C8 O22 1.259 1_455 S
C8 O23 1.270 . S
C9 O24 1.251 . S
C9 O25 1.251 . S
C10 Eu11 2.835 . S
C10 C12 1.500 . S
C10 O26 1.257 . S
C10 O27 1.260 . S
Eu11 C10 2.835 . S
Eu11 O23 2.355 . S
Eu11 O25 2.374 1_455 S
Eu11 O26 2.473 . S
Eu11 O27 2.480 . S
Eu11 O28 2.430 . S
Eu11 O29 2.670 1_455 S
Eu11 O30 2.394 . S
C12 C10 1.500 . S
C12 C13 1.377 . S
C12 C17 1.377 . S
C13 C12 1.377 . S
C13 C14 1.395 . S
C13 H36 0.931 . S
C14 C13 1.395 . S
C14 C15 1.383 . S
C14 H37 0.931 . S
C15 C14 1.383 . S
C15 C16 1.394 . S
C16 C15 1.394 . S
C16 C17 1.378 . S
C16 H38 0.931 . S
C17 C12 1.377 . S
C17 C16 1.378 . S
C17 H39 0.931 . S
C18 O28 1.259 . S
C18 O29 1.270 1_455 S
C19 O30 1.251 . S
C19 O31 1.251 . S
O20 C0 1.257 . S
O20 Eu1 2.473 . S
O21 C0 1.260 . S
O21 Eu1 2.480 . S
O22 Eu1 2.430 . S
O22 C8 1.259 1_655 S
O23 Eu1 2.670 1_455 S
O23 C8 1.270 . S
O23 Eu11 2.355 . S
O24 Eu1 2.394 . S
O24 C9 1.251 . S
O25 C9 1.251 . S
O25 Eu11 2.374 1_655 S
O26 C10 1.257 . S
O26 Eu11 2.473 . S
O27 C10 1.260 . S
O27 Eu11 2.480 . S
O28 Eu11 2.430 . S
O28 C18 1.259 . S
O29 Eu1 2.355 . S
O29 Eu11 2.670 1_655 S
O29 C18 1.270 1_655 S
O30 Eu11 2.394 . S
O30 C19 1.251 . S
O31 Eu1 2.374 1_455 S
O31 C19 1.251 . S
H32 C3 0.931 . S
H33 C4 0.931 . S
H34 C6 0.931 . S
H35 C7 0.931 . S
H36 C13 0.931 . S
H37 C14 0.931 . S
H38 C16 0.931 . S
H39 C17 0.931 . S
C40 Eu41 2.835 . S
C40 C42 1.500 . S
C40 O60 1.257 . S
C40 O61 1.260 . S
Eu41 C40 2.835 . S
Eu41 O60 2.473 . S
Eu41 O61 2.480 . S
Eu41 O62 2.430 . S
Eu41 O63 2.670 . S
Eu41 O64 2.394 . S
Eu41 O69 2.355 . S
Eu41 O71 2.374 1_545 S
C42 C40 1.500 . S
C42 C43 1.377 . S
C42 C47 1.377 . S
C43 C42 1.377 . S
C43 C44 1.395 . S
C43 H72 0.931 . S
C44 C43 1.395 . S
C44 C45 1.383 . S
C44 H73 0.931 . S
C45 C44 1.383 . S
C45 C46 1.394 . S
C46 C45 1.394 . S
C46 C47 1.378 . S
C46 H74 0.931 . S
C47 C42 1.377 . S
C47 C46 1.378 . S
C47 H75 0.931 . S
C48 O62 1.259 . S
C48 O63 1.270 . S
C49 O64 1.251 . S
C49 O65 1.251 . S
C50 Eu51 2.836 1_565 S
C50 C52 1.500 . S
C50 O66 1.257 . S
C50 O67 1.260 . S
Eu51 C50 2.836 1_545 S
Eu51 O63 2.355 . S
Eu51 O65 2.373 . S
Eu51 O66 2.473 1_545 S
Eu51 O67 2.480 1_545 S
Eu51 O68 2.430 . S
Eu51 O69 2.670 . S
Eu51 O70 2.394 1_545 S
C52 C50 1.500 . S
C52 C53 1.377 . S
C52 C57 1.377 . S
C53 C52 1.377 . S
C53 C54 1.395 . S
C53 H76 0.931 . S
C54 C53 1.395 . S
C54 C55 1.383 . S
C54 H77 0.931 . S
C55 C54 1.383 . S
C55 C56 1.394 . S
C56 C55 1.394 . S
C56 C57 1.378 . S
C56 H78 0.931 . S
C57 C52 1.377 . S
C57 C56 1.378 . S
C57 H79 0.931 . S
C58 O68 1.259 . S
C58 O69 1.270 . S
C59 O70 1.251 . S
C59 O71 1.251 . S
O60 C40 1.257 . S
O60 Eu41 2.473 . S
O61 C40 1.260 . S
O61 Eu41 2.480 . S
O62 Eu41 2.430 . S
O62 C48 1.259 . S
O63 Eu41 2.670 . S
O63 C48 1.270 . S
O63 Eu51 2.355 . S
O64 Eu41 2.394 . S
O64 C49 1.251 . S
O65 C49 1.251 . S
O65 Eu51 2.373 . S
O66 C50 1.257 . S
O66 Eu51 2.473 1_565 S
O67 C50 1.260 . S
O67 Eu51 2.480 1_565 S
O68 Eu51 2.430 . S
O68 C58 1.259 . S
O69 Eu41 2.355 . S
O69 Eu51 2.670 . S
O69 C58 1.270 . S
O70 Eu51 2.394 1_565 S
O70 C59 1.251 . S
O71 Eu41 2.374 1_565 S
O71 C59 1.251 . S
H72 C43 0.931 . S
H73 C44 0.931 . S
H74 C46 0.931 . S
H75 C47 0.931 . S
H76 C53 0.931 . S
H77 C54 0.931 . S
H78 C56 0.931 . S
H79 C57 0.931 . S
C80 Eu81 2.835 . S
C80 C82 1.500 . S
C80 O100 1.257 . S
C80 O101 1.260 . S
Eu81 C80 2.835 . S
Eu81 O100 2.473 . S
Eu81 O101 2.480 . S
Eu81 O102 2.430 . S
Eu81 O103 2.670 . S
Eu81 O104 2.394 . S
Eu81 O109 2.355 . S
Eu81 O111 2.374 . S
C82 C80 1.500 . S
C82 C83 1.377 . S
C82 C87 1.377 . S
C83 C82 1.377 . S
C83 C84 1.395 . S
C83 H112 0.931 . S
C84 C83 1.395 . S
C84 C85 1.383 . S
C84 H113 0.931 . S
C85 C84 1.383 . S
C85 C86 1.394 . S
C86 C85 1.394 . S
C86 C87 1.378 . S
C86 H114 0.931 . S
C87 C82 1.377 . S
C87 C86 1.378 . S
C87 H115 0.931 . S
C88 O102 1.259 . S
C88 O103 1.270 . S
C89 O104 1.251 . S
C89 O105 1.251 . S
C90 Eu91 2.835 . S
C90 C92 1.500 . S
C90 O106 1.257 . S
C90 O107 1.260 . S
Eu91 C90 2.835 . S
Eu91 O103 2.355 . S
Eu91 O105 2.374 . S
Eu91 O106 2.473 . S
Eu91 O107 2.480 . S
Eu91 O108 2.430 . S
Eu91 O109 2.670 . S
Eu91 O110 2.394 . S
C92 C90 1.500 . S
C92 C93 1.377 . S
C92 C97 1.377 . S
C93 C92 1.377 . S
C93 C94 1.395 . S
C93 H116 0.931 . S
C94 C93 1.395 . S
C94 C95 1.383 . S
C94 H117 0.931 . S
C95 C94 1.383 . S
C95 C96 1.394 . S
C96 C95 1.394 . S
C96 C97 1.378 . S
C96 H118 0.931 . S
C97 C92 1.377 . S
C97 C96 1.378 . S
C97 H119 0.931 . S
C98 O108 1.259 . S
C98 O109 1.270 . S
C99 O110 1.251 . S
C99 O111 1.251 . S
O100 C80 1.257 . S
O100 Eu81 2.473 . S
O101 C80 1.260 . S
O101 Eu81 2.480 . S
O102 Eu81 2.430 . S
O102 C88 1.259 . S
O103 Eu81 2.670 . S
O103 C88 1.270 . S
O103 Eu91 2.355 . S
O104 Eu81 2.394 . S
O104 C89 1.251 . S
O105 C89 1.251 . S
O105 Eu91 2.374 . S
O106 C90 1.257 . S
O106 Eu91 2.473 . S
O107 C90 1.260 . S
O107 Eu91 2.480 . S
O108 Eu91 2.430 . S
O108 C98 1.259 . S
O109 Eu81 2.355 . S
O109 Eu91 2.670 . S
O109 C98 1.270 . S
O110 Eu91 2.394 . S
O110 C99 1.251 . S
O111 Eu81 2.374 . S
O111 C99 1.251 . S
H112 C83 0.931 . S
H113 C84 0.931 . S
H114 C86 0.931 . S
H115 C87 0.931 . S
H116 C93 0.931 . S
H117 C94 0.931 . S
H118 C96 0.931 . S
H119 C97 0.931 . S
H120 C123 0.929 1_565 S
H121 C126 0.929 . S
H122 C128 0.930 . S
C123 H120 0.929 1_545 S
C123 C124 1.398 1_545 S
C123 C125 1.396 . S
C124 C123 1.398 1_565 S
C124 C128 1.407 1_565 S
C125 C123 1.396 . S
C125 C126 1.394 . S
C126 H121 0.929 . S
C126 C125 1.394 . S
C126 C127 1.382 . S
C127 C126 1.382 . S
C127 C128 1.392 . S
C127 N129 1.420 . S
C128 H122 0.930 . S
C128 C124 1.407 1_545 S
C128 C127 1.392 . S
N129 C127 1.420 . S
N129 C130 1.244 . S
C130 N129 1.244 . S
H131 C134 0.929 . S
H132 C137 0.929 . S
H133 C139 0.930 . S
C134 H131 0.929 . S
C134 C135 1.398 . S
C134 C136 1.396 . S
C135 C134 1.398 . S
C135 C139 1.407 . S
C136 C134 1.396 . S
C136 C137 1.394 . S
C137 H132 0.929 . S
C137 C136 1.394 . S
C137 C138 1.382 . S
C138 C137 1.382 . S
C138 C139 1.392 . S
C138 N140 1.420 . S
C139 H133 0.930 . S
C139 C135 1.407 . S
C139 C138 1.392 . S
N140 C138 1.420 . S
N140 C141 1.244 . S
C141 N140 1.244 . S
H142 C145 0.929 . S
H143 C148 0.929 . S
H144 C150 0.930 . S
C145 H142 0.929 . S
C145 C146 1.398 . S
C145 C147 1.396 . S
C146 C145 1.398 . S
C146 C150 1.407 . S
C147 C145 1.396 . S
C147 C148 1.394 1_655 S
C148 H143 0.929 . S
C148 C147 1.394 1_455 S
C148 C149 1.382 . S
C149 C148 1.382 . S
C149 C150 1.392 1_455 S
C149 N151 1.420 . S
C150 H144 0.930 . S
C150 C146 1.407 . S
C150 C149 1.392 1_655 S
N151 C149 1.420 . S
N151 C152 1.244 . S
C152 N151 1.244 . S
H153 C156 0.929 . S
H154 C159 0.929 1_655 S
H155 C161 0.930 . S
C156 H153 0.929 . S
C156 C157 1.398 . S
C156 C158 1.396 . S
C157 C156 1.398 . S
C157 C161 1.407 . S
C158 C156 1.396 . S
C158 C159 1.394 . S
C159 H154 0.929 1_455 S
C159 C158 1.394 . S
C159 C160 1.382 . S
C160 C159 1.382 . S
C160 C161 1.392 . S
C160 N162 1.420 1_455 S
C161 H155 0.930 . S
C161 C157 1.407 . S
C161 C160 1.392 . S
N162 C160 1.420 1_655 S
N162 C163 1.244 . S
C163 N162 1.244 . S
H164 C167 0.929 . S
H165 C170 0.929 . S
H166 C172 0.930 . S
C167 H164 0.929 . S
C167 C168 1.398 . S
C167 C169 1.396 . S
C168 C167 1.398 . S
C168 C172 1.407 . S
C169 C167 1.396 . S
C169 C170 1.394 1_545 S
C170 H165 0.929 . S
C170 C169 1.394 1_565 S
C170 C171 1.382 1_565 S
C171 C170 1.382 1_545 S
C171 C172 1.392 . S
C171 N173 1.420 1_545 S
C172 H166 0.930 . S
C172 C168 1.407 . S
C172 C171 1.392 . S
N173 C171 1.420 1_565 S
N173 C174 1.244 . S
C174 N173 1.244 . S
H175 C178 0.929 . S
H176 C181 0.929 . S
H177 C183 0.930 . S
C178 H175 0.929 . S
C178 C179 1.398 . S
C178 C180 1.396 . S
C179 C178 1.398 . S
C179 C183 1.407 . S
C180 C178 1.396 . S
C180 C181 1.394 . S
C181 H176 0.929 . S
C181 C180 1.394 . S
C181 C182 1.382 . S
C182 C181 1.382 . S
C182 C183 1.392 . S
C182 N184 1.420 . S
C183 H177 0.930 . S
C183 C179 1.407 . S
C183 C182 1.392 . S
N184 C182 1.420 . S
N184 C185 1.244 . S
C185 N184 1.244 . S
C186 C187 1.387 . S
C186 H190 0.950 . S
C186 C195 1.390 . S
C187 C186 1.387 . S
C187 C189 1.387 . S
H188 C195 0.950 . S
C189 C187 1.387 . S
C189 C191 1.390 . S
C189 H193 0.950 . S
H190 C186 0.950 . S
C191 C189 1.390 . S
C191 C192 1.387 . S
C191 H194 0.950 . S
C192 C191 1.387 . S
C192 C195 1.387 . S
H193 C189 0.950 . S
H194 C191 0.950 . S
C195 C186 1.390 . S
C195 H188 0.950 . S
C195 C192 1.387 . S
C196 C197 1.387 . S
C196 H200 0.950 . S
C196 C205 1.390 . S
C197 C196 1.387 . S
C197 C199 1.387 . S
H198 C205 0.950 . S
C199 C197 1.387 . S
C199 C201 1.390 . S
C199 H203 0.950 . S
H200 C196 0.950 . S
C201 C199 1.390 . S
C201 C202 1.387 . S
C201 H204 0.950 . S
C202 C201 1.387 . S
C202 C205 1.387 . S
H203 C199 0.950 . S
H204 C201 0.950 . S
C205 C196 1.390 . S
C205 H198 0.950 . S
C205 C202 1.387 . S
C206 C207 1.387 . S
C206 H210 0.950 . S
C206 C215 1.390 . S
C207 C206 1.387 . S
C207 C209 1.387 . S
H208 C215 0.950 . S
C209 C207 1.387 . S
C209 C211 1.390 . S
C209 H213 0.950 . S
H210 C206 0.950 . S
C211 C209 1.390 . S
C211 C212 1.387 . S
C211 H214 0.950 . S
C212 C211 1.387 . S
C212 C215 1.387 . S
H213 C209 0.950 . S
H214 C211 0.950 . S
C215 C206 1.390 . S
C215 H208 0.950 . S
C215 C212 1.387 . S
C216 C217 1.387 . S
C216 H220 0.950 . S
C216 C225 1.390 . S
C217 C216 1.387 . S
C217 C219 1.387 . S
H218 C225 0.950 . S
C219 C217 1.387 . S
C219 C221 1.390 . S
C219 H223 0.950 . S
H220 C216 0.950 . S
C221 C219 1.390 . S
C221 C222 1.387 . S
C221 H224 0.950 . S
C222 C221 1.387 . S
C222 C225 1.387 . S
H223 C219 0.950 . S
H224 C221 0.950 . S
C225 C216 1.390 . S
C225 H218 0.950 . S
C225 C222 1.387 . S
C226 C227 1.387 . S
C226 H230 0.950 . S
C226 C235 1.390 . S
C227 C226 1.387 . S
C227 C229 1.387 . S
H228 C235 0.950 . S
C229 C227 1.387 . S
C229 C231 1.390 . S
C229 H233 0.950 . S
H230 C226 0.950 . S
C231 C229 1.390 . S
C231 C232 1.387 . S
C231 H234 0.950 . S
C232 C231 1.387 . S
C232 C235 1.387 . S
H233 C229 0.950 . S
H234 C231 0.950 . S
C235 C226 1.390 . S
C235 H228 0.950 . S
C235 C232 1.387 . S
C236 C237 1.387 . S
C236 H240 0.950 . S
C236 C245 1.390 . S
C237 C236 1.387 . S
C237 C239 1.387 . S
H238 C245 0.950 . S
C239 C237 1.387 . S
C239 C241 1.390 . S
C239 H243 0.950 . S
H240 C236 0.950 . S
C241 C239 1.390 . S
C241 C242 1.387 . S
C241 H244 0.950 . S
C242 C241 1.387 . S
C242 C245 1.387 . S
H243 C239 0.950 . S
H244 C241 0.950 . S
C245 C236 1.390 . S
C245 H238 0.950 . S
C245 C242 1.387 . S
C246 C247 1.387 . S
C246 H250 0.950 . S
C246 C255 1.390 . S
C247 C246 1.387 . S
C247 C249 1.387 . S
H248 C255 0.950 . S
C249 C247 1.387 . S
C249 C251 1.390 . S
C249 H253 0.950 . S
H250 C246 0.950 . S
C251 C249 1.390 . S
C251 C252 1.387 . S
C251 H254 0.950 . S
C252 C251 1.387 . S
C252 C255 1.387 . S
H253 C249 0.950 . S
H254 C251 0.950 . S
C255 C246 1.390 . S
C255 H248 0.950 . S
C255 C252 1.387 . S
C256 C257 1.387 . S
C256 H260 0.950 . S
C256 C265 1.390 . S
C257 C256 1.387 . S
C257 C259 1.387 . S
H258 C265 0.950 . S
C259 C257 1.387 . S
C259 C261 1.390 . S
C259 H263 0.950 . S
H260 C256 0.950 . S
C261 C259 1.390 . S
C261 C262 1.387 . S
C261 H264 0.950 . S
C262 C261 1.387 . S
C262 C265 1.387 . S
H263 C259 0.950 . S
H264 C261 0.950 . S
C265 C256 1.390 . S
C265 H258 0.950 . S
C265 C262 1.387 . S
C266 C267 1.387 . S
C266 H270 0.950 . S
C266 C275 1.390 . S
C267 C266 1.387 . S
C267 C269 1.387 . S
H268 C275 0.950 . S
C269 C267 1.387 . S
C269 C271 1.390 . S
C269 H273 0.950 . S
H270 C266 0.950 . S
C271 C269 1.390 . S
C271 C272 1.387 . S
C271 H274 0.950 1_565 S
C272 C271 1.387 . S
C272 C275 1.387 . S
H273 C269 0.950 . S
H274 C271 0.950 1_545 S
C275 C266 1.390 . S
C275 H268 0.950 . S
C275 C272 1.387 . S
C276 C277 1.387 . S
C276 H280 0.950 . S
C276 C285 1.390 . S
C277 C276 1.387 . S
C277 C279 1.387 . S
H278 C285 0.950 . S
C279 C277 1.387 . S
C279 C281 1.390 . S
C279 H283 0.950 . S
H280 C276 0.950 . S
C281 C279 1.390 . S
C281 C282 1.387 . S
C281 H284 0.950 . S
C282 C281 1.387 . S
C282 C285 1.387 . S
H283 C279 0.950 . S
H284 C281 0.950 . S
C285 C276 1.390 . S
C285 H278 0.950 . S
C285 C282 1.387 . S
C286 C287 1.387 . S
C286 H290 0.950 . S
C286 C295 1.390 . S
C287 C286 1.387 . S
C287 C289 1.387 . S
H288 C295 0.950 . S
C289 C287 1.387 . S
C289 C291 1.390 . S
C289 H293 0.950 . S
H290 C286 0.950 . S
C291 C289 1.390 . S
C291 C292 1.387 . S
C291 H294 0.950 . S
C292 C291 1.387 . S
C292 C295 1.387 . S
H293 C289 0.950 . S
H294 C291 0.950 . S
C295 C286 1.390 . S
C295 H288 0.950 . S
C295 C292 1.387 . S
C296 C297 1.387 . S
C296 H300 0.950 . S
C296 C305 1.390 . S
C297 C296 1.387 . S
C297 C299 1.387 . S
H298 C305 0.950 . S
C299 C297 1.387 . S
C299 C301 1.390 . S
C299 H303 0.950 . S
H300 C296 0.950 . S
C301 C299 1.390 . S
C301 C302 1.387 . S
C301 H304 0.950 . S
C302 C301 1.387 . S
C302 C305 1.387 . S
H303 C299 0.950 . S
H304 C301 0.950 . S
C305 C296 1.390 . S
C305 H298 0.950 . S
C305 C302 1.387 . S
C306 C307 1.373 1_655 S
C306 H310 0.950 . S
C306 C315 1.390 1_554 S
C307 C306 1.373 1_455 S
C307 C309 1.406 . S
H308 C315 0.950 . S
C309 C307 1.406 . S
C309 C311 1.390 . S
C309 H313 0.950 . S
H310 C306 0.950 . S
C311 C309 1.390 . S
C311 C312 1.387 1_454 S
C311 H314 0.950 1_554 S
C312 C311 1.387 1_656 S
C312 C315 1.387 . S
H313 C309 0.950 . S
H314 C311 0.950 1_556 S
C315 C306 1.390 1_556 S
C315 H308 0.950 . S
C315 C312 1.387 . S
C316 C317 1.387 . S
C316 H320 0.950 . S
C316 C325 1.390 . S
C317 C316 1.387 . S
C317 C319 1.387 . S
H318 C325 0.950 . S
C319 C317 1.387 . S
C319 C321 1.390 . S
C319 H323 0.950 . S
H320 C316 0.950 . S
C321 C319 1.390 . S
C321 C322 1.387 . S
C321 H324 0.950 . S
C322 C321 1.387 . S
C322 C325 1.387 . S
H323 C319 0.950 . S
H324 C321 0.950 . S
C325 C316 1.390 . S
C325 H318 0.950 . S
C325 C322 1.387 . S
C326 C327 1.387 . S
C326 H330 0.950 . S
C326 C335 1.390 . S
C327 C326 1.387 . S
C327 C329 1.387 . S
H328 C335 0.950 . S
C329 C327 1.387 . S
C329 C331 1.390 . S
C329 H333 0.950 . S
H330 C326 0.950 . S
C331 C329 1.390 . S
C331 C332 1.387 . S
C331 H334 0.950 . S
C332 C331 1.387 . S
C332 C335 1.387 . S
H333 C329 0.950 . S
H334 C331 0.950 . S
C335 C326 1.390 . S
C335 H328 0.950 . S
C335 C332 1.387 . S
C336 C337 1.387 . S
C336 H340 0.950 . S
C336 C345 1.390 . S
C337 C336 1.387 . S
C337 C339 1.387 1_545 S
H338 C345 0.950 . S
C339 C337 1.387 1_565 S
C339 C341 1.390 . S
C339 H343 0.950 . S
H340 C336 0.950 . S
C341 C339 1.390 . S
C341 C342 1.387 1_565 S
C341 H344 0.950 . S
C342 C341 1.387 1_545 S
C342 C345 1.387 . S
H343 C339 0.950 . S
H344 C341 0.950 . S
C345 C336 1.390 . S
C345 H338 0.950 . S
C345 C342 1.387 . S
C346 C347 1.387 . S
C346 H350 0.950 . S
C346 C355 1.383 1_556 S
C347 C346 1.387 . S
C347 C349 1.387 . S
H348 C355 0.955 . S
C349 C347 1.387 . S
C349 C351 1.390 . S
C349 H353 0.950 . S
H350 C346 0.950 . S
C351 C349 1.390 . S
C351 C352 1.387 1_556 S
C351 H354 0.950 1_556 S
C352 C351 1.387 1_554 S
C352 C355 1.390 . S
H353 C349 0.950 . S
H354 C351 0.950 1_554 S
C355 C346 1.383 1_554 S
C355 H348 0.955 . S
C355 C352 1.390 . S
C356 C357 1.387 1_655 S
C356 H360 0.950 . S
C356 C365 1.390 . S
C357 C356 1.387 1_455 S
C357 C359 1.387 . S
H358 C365 0.950 . S
C359 C357 1.387 . S
C359 C361 1.390 . S
C359 H363 0.950 . S
H360 C356 0.950 . S
C361 C359 1.390 . S
C361 C362 1.387 . S
C361 H364 0.950 . S
C362 C361 1.387 . S
C362 C365 1.387 1_455 S
H363 C359 0.950 . S
H364 C361 0.950 . S
C365 C356 1.390 . S
C365 H358 0.950 . S
C365 C362 1.387 1_655 S
C187 C19 3.086 . S
C192 C185 3.030 . S
C197 C49 3.157 . S
C202 C163 3.084 . S
C207 C99 3.077 . S
C212 C174 3.016 . S
C217 C9 3.049 . S
C222 C179 3.005 . S
C232 C157 2.963 . S
C227 C59 2.998 . S
C242 C168 3.016 . S
C237 C89 3.057 . S
C247 C55 0.828 . S
C252 C141 0.847 . S
C257 C85 0.719 . S
C262 C146 0.677 . S
C267 C15 0.506 . S
C272 C124 0.426 . S
C282 C135 0.718 . S
C277 C45 0.734 . S
C292 C152 0.734 . S
C287 C95 0.735 . S
C297 C5 0.750 . S
C302 C130 0.756 . S
C312 C147 1.178 . S
C307 C18 1.190 . S
C317 C58 1.051 . S
C322 C125 1.091 . S
C327 C98 1.144 . S
C332 C136 1.145 . S
C342 C169 1.769 . S
C337 C48 1.721 . S
C352 C180 1.799 . S
C347 C88 1.720 . S
C357 C8 1.716 . S
C362 C158 1.848 . S
