# Generated by pormake.
# Topology zzz, (3,6)-cn, num edge types: 1
# Building blocks:
#     Node 0, Type 0, BuildingBlock: BETDAH_clean_linker_0, # of connection points: 3
#     Node 1, Type 0, BuildingBlock: BETDAH_clean_linker_0, # of connection points: 3
#     Node 2, Type 0, BuildingBlock: BETDAH_clean_linker_0, # of connection points: 3
#     Node 3, Type 0, BuildingBlock: BETDAH_clean_linker_0, # of connection points: 3
#     Node 4, Type 0, BuildingBlock: BETDAH_clean_linker_0, # of connection points: 3
#     Node 5, Type 0, BuildingBlock: BETDAH_clean_linker_0, # of connection points: 3
#     Node 6, Type 0, BuildingBlock: BETDAH_clean_linker_0, # of connection points: 3
#     Node 7, Type 0, BuildingBlock: BETDAH_clean_linker_0, # of connection points: 3
#     Node 8, Type 1, BuildingBlock: PAMTOO_clean_sbu_0, # of connection points: 6
#     Node 9, Type 1, BuildingBlock: PAMTOO_clean_sbu_0, # of connection points: 6
#     Node 10, Type 1, BuildingBlock: PAMTOO_clean_sbu_0, # of connection points: 6
#     Node 11, Type 1, BuildingBlock: PAMTOO_clean_sbu_0, # of connection points: 6
#     Edge 12, Type (0, 1), BuildingBlock: XIVTED_clean_linker_0, # of connection points: 2
#     Edge 13, Type (0, 1), BuildingBlock: XIVTED_clean_linker_0, # of connection points: 2
#     Edge 14, Type (0, 1), BuildingBlock: XIVTED_clean_linker_0, # of connection points: 2
#     Edge 15, Type (0, 1), BuildingBlock: XIVTED_clean_linker_0, # of connection points: 2
#     Edge 16, Type (0, 1), BuildingBlock: XIVTED_clean_linker_0, # of connection points: 2
#     Edge 17, Type (0, 1), BuildingBlock: XIVTED_clean_linker_0, # of connection points: 2
#     Edge 18, Type (0, 1), BuildingBlock: XIVTED_clean_linker_0, # of connection points: 2
#     Edge 19, Type (0, 1), BuildingBlock: XIVTED_clean_linker_0, # of connection points: 2
#     Edge 20, Type (0, 1), BuildingBlock: XIVTED_clean_linker_0, # of connection points: 2
#     Edge 21, Type (0, 1), BuildingBlock: XIVTED_clean_linker_0, # of connection points: 2
#     Edge 22, Type (0, 1), BuildingBlock: XIVTED_clean_linker_0, # of connection points: 2
#     Edge 23, Type (0, 1), BuildingBlock: XIVTED_clean_linker_0, # of connection points: 2
#     Edge 24, Type (0, 1), BuildingBlock: XIVTED_clean_linker_0, # of connection points: 2
#     Edge 25, Type (0, 1), BuildingBlock: XIVTED_clean_linker_0, # of connection points: 2
#     Edge 26, Type (0, 1), BuildingBlock: XIVTED_clean_linker_0, # of connection points: 2
#     Edge 27, Type (0, 1), BuildingBlock: XIVTED_clean_linker_0, # of connection points: 2
#     Edge 28, Type (0, 1), BuildingBlock: XIVTED_clean_linker_0, # of connection points: 2
#     Edge 29, Type (0, 1), BuildingBlock: XIVTED_clean_linker_0, # of connection points: 2
#     Edge 30, Type (0, 1), BuildingBlock: XIVTED_clean_linker_0, # of connection points: 2
#     Edge 31, Type (0, 1), BuildingBlock: XIVTED_clean_linker_0, # of connection points: 2
#     Edge 32, Type (0, 1), BuildingBlock: XIVTED_clean_linker_0, # of connection points: 2
#     Edge 33, Type (0, 1), BuildingBlock: XIVTED_clean_linker_0, # of connection points: 2
#     Edge 34, Type (0, 1), BuildingBlock: XIVTED_clean_linker_0, # of connection points: 2
#     Edge 35, Type (0, 1), BuildingBlock: XIVTED_clean_linker_0, # of connection points: 2
# Relax obj value: 0.220
# Max RMSD: 0.237
# Mean RMSD: 0.126
data_MOF--net-zzz--node1-PAMTOO_clean_sbu_0--node2-BETDAH_clean_linker_0--edge1-XIVTED_clean_linker_0
_symmetry_space_group_name_H-M    P1
_symmetry_Int_Tables_number       1
_symmetry_cell_setting            triclinic
loop_
_symmetry_equiv_pos_as_xyz
'x, y, z'
_cell_length_a     57.593498
_cell_length_b     49.65469
_cell_length_c     15.814215
_cell_angle_alpha  92.066571
_cell_angle_beta   79.832222
_cell_angle_gamma 85.920558
loop_
_atom_site_label
_atom_site_type_symbol
_atom_site_fract_x
_atom_site_fract_y
_atom_site_fract_z
_atom_type_partial_charge
H0 H 0.8319 0.5583 0.47206 0.0
H1 H 0.76329 0.54123 0.42653 0.0
H2 H 0.79029 0.50676 0.64006 0.0
C3 C 0.81549 0.54901 0.49185 0.0
C4 C 0.8136 0.53231 0.56214 0.0
C5 C 0.79786 0.55151 0.44095 0.0
C6 C 0.77674 0.53938 0.46638 0.0
C7 C 0.77364 0.52347 0.53881 0.0
C8 C 0.79216 0.52002 0.58678 0.0
N9 N 0.75284 0.50928 0.56013 0.0
C10 C 0.7357 0.50812 0.50759 0.0
H11 H 0.99965 0.78349 0.39994 0.0
H12 H 0.99188 0.69981 0.3523 0.0
H13 H 0.99552 0.73003 0.60964 0.0
C14 C 0.99759 0.76351 0.42468 0.0
C15 C 0.99809 0.75954 0.51154 0.0
C16 C 0.99543 0.74205 0.36797 0.0
C17 C 0.99318 0.71617 0.39791 0.0
C18 C 0.99287 0.71159 0.48572 0.0
C19 C 0.99514 0.7335 0.54263 0.0
N20 N 0.99115 0.68508 0.51675 0.0
C21 C 0.99232 0.66238 0.46114 0.0
H22 H 0.70847 0.99206 0.26938 0.0
H23 H 0.78315 0.99374 0.18927 0.0
H24 H 0.75269 0.99921 0.46053 0.0
C25 C 0.72584 0.99306 0.28658 0.0
C26 C 0.72784 0.9961 0.37322 0.0
C27 C 0.74563 0.99229 0.22096 0.0
C28 C 0.76813 0.99391 0.24108 0.0
C29 C 0.77099 0.99593 0.32771 0.0
C30 C 0.7507 0.99695 0.39387 0.0
N31 N 0.79388 0.99761 0.34961 0.0
C32 C 0.8149 0.99766 0.2895 0.0
H33 H 0.52235 0.66641 0.27031 0.0
H34 H 0.51905 0.74299 0.15246 0.0
H35 H 0.56084 0.73039 0.35137 0.0
C36 C 0.52714 0.68713 0.26564 0.0
C37 C 0.54256 0.69635 0.31702 0.0
C38 C 0.51826 0.70381 0.20722 0.0
C39 C 0.52538 0.73027 0.19915 0.0
C40 C 0.54075 0.74005 0.25159 0.0
C41 C 0.54906 0.723 0.31098 0.0
N42 N 0.5485 0.76661 0.246 0.0
C43 C 0.54193 0.78604 0.19136 0.0
H44 H 0.18865 0.51177 0.19329 0.0
H45 H 0.26192 0.50502 0.20905 0.0
H46 H 0.24034 0.48545 0.96753 0.0
C47 C 0.20678 0.50697 0.16109 0.0
C48 C 0.21185 0.49911 0.07289 0.0
C49 C 0.22482 0.50942 0.20892 0.0
C50 C 0.24829 0.50285 0.17059 0.0
C51 C 0.25408 0.49345 0.08396 0.0
C52 C 0.23579 0.49184 0.03499 0.0
N53 N 0.27811 0.48593 0.04536 0.0
C54 C 0.29681 0.48673 0.09094 0.0
H55 H 0.05645 0.20972 0.14907 0.0
H56 H 0.04994 0.2929 0.23584 0.0
H57 H 0.02178 0.26852 0.01133 0.0
C58 C 0.05151 0.23072 0.13898 0.0
C59 C 0.039 0.23663 0.07295 0.0
C60 C 0.05509 0.25079 0.19856 0.0
C61 C 0.04749 0.27765 0.1883 0.0
C62 C 0.03595 0.28441 0.11931 0.0
C63 C 0.03177 0.26371 0.06153 0.0
N64 N 0.02696 0.31144 0.11062 0.0
C65 C 0.02633 0.3319 0.17389 0.0
H66 H 0.32713 0.98002 0.25223 0.0
H67 H 0.25411 0.98759 0.37522 0.0
H68 H 0.27655 0.0279 0.14004 0.0
C69 C 0.30898 0.9878 0.25285 0.0
C70 C 0.30408 0.00459 0.18837 0.0
C71 C 0.2911 0.98156 0.31974 0.0
C72 C 0.26775 0.99219 0.32247 0.0
C73 C 0.26223 0.00871 0.25686 0.0
C74 C 0.28058 0.01491 0.18998 0.0
N75 N 0.23866 0.01961 0.25651 0.0
C76 C 0.21879 0.01529 0.31794 0.0
H77 H 0.52372 0.32962 0.33876 0.0
H78 H 0.51287 0.2513 0.43637 0.0
H79 H 0.48888 0.2732 0.20212 0.0
C80 C 0.51754 0.30966 0.33134 0.0
C81 C 0.50558 0.30407 0.26407 0.0
C82 C 0.51996 0.29101 0.3938 0.0
C83 C 0.51159 0.26536 0.38635 0.0
C84 C 0.50108 0.25843 0.31503 0.0
C85 C 0.49796 0.27802 0.25451 0.0
N86 N 0.49257 0.23254 0.30402 0.0
C87 C 0.49454 0.21128 0.35826 0.0
Dy88 Dy 1.00416 0.00934 0.71391 0.0
Dy89 Dy 0.02885 0.98754 0.87038 0.0
C90 C 0.05988 1.0017 0.69306 0.0
O91 O 1.01302 0.96486 0.68528 0.0
O92 O 1.0117 0.9524 0.82336 0.0
O93 O 1.00307 0.00824 0.57797 0.0
O94 O 0.97831 0.03556 0.66589 0.0
O95 O 0.99157 0.00241 0.92871 0.0
O96 O 0.9741 0.99656 0.81091 0.0
O97 O 0.03431 0.03158 0.87666 0.0
O98 O 1.00723 0.04646 0.79405 0.0
O99 O 0.02752 0.97835 0.00361 0.0
O100 O 0.0596 0.96841 0.91142 0.0
C101 C 1.01138 0.94622 0.74245 0.0
O102 O 0.04211 0.01844 0.68284 0.0
O103 O 0.05668 0.98325 0.75039 0.0
C104 C 0.99914 0.05402 0.54363 0.0
C105 C 0.01982 0.10285 0.50251 0.0
C106 C 0.03404 0.07862 0.50126 0.0
C107 C 0.02384 0.05451 0.52099 0.0
C108 C 0.98479 0.07791 0.54128 0.0
C109 C 0.99503 0.1021 0.52049 0.0
C110 C 0.98911 0.03047 0.58654 0.0
C111 C 0.97257 0.99953 0.89478 0.0
C112 C 0.0219 0.05113 0.84675 0.0
C113 C 0.04657 0.93499 0.00766 0.0
C114 C 0.03668 0.88059 0.02711 0.0
C115 C 0.02467 0.90095 0.08608 0.0
C116 C 0.02966 0.92785 0.07677 0.0
C117 C 0.05963 0.91437 0.95171 0.0
C118 C 0.05475 0.88738 0.96156 0.0
C119 C 0.04762 0.96368 0.98655 0.0
H120 H 0.05316 0.07835 0.48856 0.0
H121 H 0.03548 0.03653 0.52294 0.0
H122 H 0.96573 0.07811 0.55941 0.0
H123 H 0.98351 0.12028 0.52 0.0
H124 H 1.0111 0.89611 0.13877 0.0
H125 H 0.01945 0.94321 0.12124 0.0
H126 H 0.07286 0.91913 0.89785 0.0
H127 H 0.06442 0.872 0.91584 0.0
Dy128 Dy 0.50812 0.98034 0.69941 0.0
Dy129 Dy 0.52249 0.0161 0.85514 0.0
C130 C 0.50699 0.04452 0.6926 0.0
O131 O 0.54505 0.99132 0.64942 0.0
O132 O 0.55589 0.99445 0.78096 0.0
O133 O 0.49752 0.97529 0.57528 0.0
O134 O 0.50201 0.94074 0.65149 0.0
O135 O 0.51472 0.97575 0.90617 0.0
O136 O 0.52574 0.95155 0.77904 0.0
O137 O 0.48303 0.02431 0.87624 0.0
O138 O 0.47561 0.98609 0.80235 0.0
O139 O 0.52598 0.02223 0.98841 0.0
O140 O 0.54011 0.05013 0.89472 0.0
C141 C 0.56159 0.9924 0.69679 0.0
O142 O 0.49629 0.02297 0.67591 0.0
O143 O 0.5211 0.04437 0.74922 0.0
C144 C 0.46962 0.94284 0.57979 0.0
C145 C 0.42245 0.93435 0.5677 0.0
C146 C 0.42902 0.93795 0.64849 0.0
C147 C 0.4524 0.94211 0.65444 0.0
C148 C 0.46334 0.93845 0.49916 0.0
C149 C 0.43995 0.93415 0.49309 0.0
C150 C 0.4936 0.95002 0.58618 0.0
C151 C 0.52146 0.95264 0.86336 0.0
C152 C 0.46827 0.00699 0.85658 0.0
C153 C 0.56495 0.03386 0.98504 0.0
C154 C 0.61375 0.02201 0.98091 0.0
C155 C 0.59976 0.00211 0.95632 0.0
C156 C 0.57565 0.0079 0.95916 0.0
C157 C 0.57861 0.05381 0.0107 0.0
C158 C 0.60282 0.04787 0.00945 0.0
C159 C 0.54086 0.04068 0.96995 0.0
H160 H 0.41601 0.93801 0.70705 0.0
H161 H 0.45691 0.94533 0.71743 0.0
H162 H 0.47637 0.93909 0.4409 0.0
H163 H 0.43537 0.93186 0.42982 0.0
H164 H 0.60747 0.98216 0.93254 0.0
H165 H 0.56552 0.99225 0.93779 0.0
H166 H 0.57072 0.07408 0.02946 0.0
H167 H 0.61294 0.06356 0.03051 0.0
Dy168 Dy 0.54599 0.50131 0.81756 0.0
Dy169 Dy 0.49157 0.50202 0.75864 0.0
C170 C 0.50611 0.46634 0.90942 0.0
O171 O 0.54469 0.46354 0.73861 0.0
O172 O 0.5175 0.47834 0.65715 0.0
O173 O 0.57568 0.47913 0.85727 0.0
O174 O 0.57599 0.52224 0.84412 0.0
O175 O 0.51026 0.53578 0.69635 0.0
O176 O 0.54951 0.52132 0.69089 0.0
O177 O 0.48688 0.52803 0.8802 0.0
O178 O 0.5253 0.53969 0.86814 0.0
O179 O 0.45991 0.52348 0.72956 0.0
O180 O 0.46342 0.47979 0.7237 0.0
C181 C 0.53325 0.45991 0.67485 0.0
O182 O 0.52128 0.48386 0.92372 0.0
O183 O 0.49537 0.46763 0.84296 0.0
C184 C 0.59847 0.50313 0.94429 0.0
C185 C 0.62535 0.50566 0.07893 0.0
C186 C 0.60972 0.48525 0.07463 0.0
C187 C 0.59646 0.48398 0.0082 0.0
C188 C 0.61371 0.52377 0.94946 0.0
C189 C 0.6269 0.52508 0.01582 0.0
C190 C 0.58683 0.50061 0.86762 0.0
C191 C 0.53294 0.53813 0.66954 0.0
C192 C 0.50247 0.54493 0.89495 0.0
C193 C 0.43849 0.50102 0.63492 0.0
C194 C 0.41123 0.49817 0.50173 0.0
C195 C 0.43093 0.4796 0.50197 0.0
C196 C 0.4444 0.481 0.56775 0.0
C197 C 0.41919 0.51985 0.63379 0.0
C198 C 0.40577 0.51849 0.5682 0.0
C199 C 0.45058 0.50139 0.71062 0.0
H200 H 0.60775 0.47014 0.12251 0.0
H201 H 0.58498 0.46771 0.00617 0.0
H202 H 0.61592 0.53858 0.90058 0.0
H203 H 0.63893 0.54087 0.01584 0.0
H204 H 0.43593 0.46389 0.45144 0.0
H205 H 0.45916 0.46612 0.56674 0.0
H206 H 0.41405 0.53528 0.68523 0.0
H207 H 0.39059 0.53291 0.57134 0.0
Dy208 Dy 0.02475 0.52679 0.73901 0.0
Dy209 Dy 1.007 0.4788 0.86387 0.0
C210 C 0.02295 0.46684 0.66305 0.0
O211 O 0.98538 0.53097 0.7452 0.0
O212 O 0.97468 0.49188 0.81055 0.0
O213 O 0.04465 0.54116 0.6233 0.0
O214 O 0.02513 0.56976 0.72191 0.0
O215 O 0.99382 0.51794 0.93656 0.0
O216 O 0.02485 0.54036 0.87515 0.0
O217 O 0.04358 0.48542 0.88679 0.0
O218 O 0.05841 0.50459 0.76102 0.0
O219 O 1.00749 0.45856 0.98239 0.0
O220 O 0.98677 0.44404 0.89143 0.0
C221 C 0.96957 0.51365 0.77048 0.0
O222 O 0.01842 0.49266 0.65215 0.0
O223 O 0.02484 0.45806 0.73916 0.0
C224 C 0.0636 0.57875 0.65731 0.0
C225 C 0.11195 0.58612 0.644 0.0
C226 C 0.09978 0.59372 0.57756 0.0
C227 C 0.07576 0.5899 0.58408 0.0
C228 C 0.07495 0.57424 0.7278 0.0
C229 C 0.09895 0.57803 0.72135 0.0
C230 C 0.04152 0.56626 0.65314 0.0
C231 C 1.00765 0.53761 0.93957 0.0
C232 C 0.06154 0.49335 0.83259 0.0
C233 C 0.96711 0.45339 0.03357 0.0
C234 C 0.92439 0.48461 0.09878 0.0
C235 C 0.94571 0.49096 0.12373 0.0
C236 C 0.96669 0.47533 0.09271 0.0
C237 C 0.94553 0.44507 0.01652 0.0
C238 C 0.92434 0.46047 0.04914 0.0
C239 C 0.9892 0.44554 0.97197 0.0
H240 H 0.10925 0.59978 0.51671 0.0
H241 H 0.0673 0.5933 0.52898 0.0
H242 H 0.06583 0.56548 0.78492 0.0
H243 H 0.10777 0.57226 0.77382 0.0
H244 H 0.94681 0.50911 0.16211 0.0
H245 H 0.9829 0.4823 0.10834 0.0
H246 H 0.94526 0.42809 0.97179 0.0
H247 H 0.90815 0.45408 0.0318 0.0
H248 H 0.20776 0.97668 0.43381 0.0
H249 H 0.07354 0.04031 0.57882 0.0
H250 H 0.17914 0.04861 0.33268 0.0
H251 H 0.10075 0.96822 0.68444 0.0
H252 H 0.11226 0.04355 0.48964 0.0
H253 H 0.16919 0.97312 0.52762 0.0
C254 C 0.19334 0.99174 0.43176 0.0
C255 C 0.1965 0.01299 0.3759 0.0
C256 C 0.10984 0.02697 0.5322 0.0
C257 C 0.15242 0.00909 0.48219 0.0
C258 C 0.08761 0.02505 0.58316 0.0
C259 C 0.08368 0.00383 0.63914 0.0
C260 C 0.12853 0.00758 0.53676 0.0
C261 C 0.10286 0.98491 0.64227 0.0
C262 C 0.17134 0.98972 0.48509 0.0
C263 C 0.17735 0.03195 0.37516 0.0
N264 N 0.12439 0.9872 0.59182 0.0
N265 N 0.15617 0.02956 0.42729 0.0
H266 H 0.52025 0.20352 0.48479 0.0
H267 H 0.4798 0.05363 0.5679 0.0
H268 H 0.47172 0.16601 0.34801 0.0
H269 H 0.52698 0.0925 0.70871 0.0
H270 H 0.47604 0.09465 0.48823 0.0
H271 H 0.52251 0.16313 0.56908 0.0
C272 C 0.51003 0.18675 0.47291 0.0
C273 C 0.49577 0.18791 0.40989 0.0
C274 C 0.48717 0.09421 0.53674 0.0
C275 C 0.49825 0.14168 0.50523 0.0
C276 C 0.48931 0.07076 0.58235 0.0
C277 C 0.50377 0.06948 0.6452 0.0
C278 C 0.49959 0.11659 0.55383 0.0
C279 C 0.51565 0.09242 0.6609 0.0
C280 C 0.5113 0.1637 0.52083 0.0
C281 C 0.4829 0.16574 0.39638 0.0
N282 N 0.51334 0.11491 0.61553 0.0
N283 N 0.48446 0.14349 0.44354 0.0
H284 H 0.31246 0.53219 0.15294 0.0
H285 H 0.39774 0.45211 0.42677 0.0
H286 H 0.32165 0.44536 0.15123 0.0
H287 H 0.38946 0.53911 0.42319 0.0
H288 H 0.37122 0.44909 0.32238 0.0
H289 H 0.34152 0.53508 0.24881 0.0
C290 C 0.3208 0.51374 0.17239 0.0
C291 C 0.31488 0.48852 0.14405 0.0
C292 C 0.37526 0.46885 0.34421 0.0
C293 C 0.34795 0.49153 0.25427 0.0
C294 C 0.39058 0.47061 0.40356 0.0
C295 C 0.39593 0.49594 0.43456 0.0
C296 C 0.36508 0.49256 0.31514 0.0
C297 C 0.38566 0.51913 0.4026 0.0
C298 C 0.33734 0.51536 0.22723 0.0
C299 C 0.32592 0.46519 0.17151 0.0
N300 N 0.37077 0.51688 0.34509 0.0
N301 N 0.34189 0.46723 0.22521 0.0
H302 H 0.02142 0.32197 0.34218 0.0
H303 H 0.02367 0.47736 0.49342 0.0
H304 H 0.03027 0.38591 0.16504 0.0
H305 H 0.02627 0.4114 0.66294 0.0
H306 H 0.02483 0.44465 0.37315 0.0
H307 H 0.0216 0.35481 0.46143 0.0
C308 C 0.02343 0.343 0.32866 0.0
C309 C 0.02593 0.35141 0.24427 0.0
C310 C 0.02524 0.43733 0.43659 0.0
C311 C 0.02602 0.3891 0.37981 0.0
C312 C 0.02458 0.456 0.50543 0.0
C313 C 0.02485 0.44716 0.5887 0.0
C314 C 0.02601 0.40956 0.45096 0.0
C315 C 0.02606 0.4192 0.60002 0.0
C316 C 0.02355 0.36173 0.39658 0.0
C317 C 0.02832 0.37878 0.22964 0.0
N318 N 0.02648 0.40145 0.53212 0.0
N319 N 0.02827 0.39673 0.29689 0.0
H320 H 0.82266 0.99459 0.11404 0.0
H321 H 0.96303 0.00373 0.07128 0.0
H322 H 0.85821 1.00137 0.3308 0.0
H323 H 0.92842 0.99527 0.85205 0.0
H324 H 0.92477 0.00332 0.16636 0.0
H325 H 0.86089 0.99517 0.01673 0.0
C326 C 0.83854 0.99619 0.14111 0.0
C327 C 0.83735 0.99793 0.23048 0.0
C328 C 0.92548 1.00157 0.09748 0.0
C329 C 0.88119 0.99863 0.11965 0.0
C330 C 0.9474 1.00183 0.04286 0.0
C331 C 0.94911 0.99956 0.95303 0.0
C332 C 0.90487 0.99904 0.06264 0.0
C333 C 0.92807 0.99709 0.92067 0.0
C334 C 0.86038 0.99653 0.08553 0.0
C335 C 0.85842 0.99999 0.26216 0.0
N336 N 0.9069 0.9969 0.97529 0.0
N337 N 0.87944 1.00028 0.20694 0.0
H338 H 0.54932 0.78802 0.01709 0.0
H339 H 0.51338 0.94772 0.03779 0.0
H340 H 0.52402 0.83592 0.252 0.0
H341 H 0.53516 0.90048 0.79875 0.0
H342 H 0.51707 0.90672 0.11621 0.0
H343 H 0.54378 0.82842 0.9347 0.0
C344 C 0.54235 0.80704 0.05102 0.0
C345 C 0.53694 0.80883 0.14101 0.0
C346 C 0.52103 0.90524 0.0466 0.0
C347 C 0.53087 0.85501 0.04813 0.0
C348 C 0.51897 0.92873 0.00159 0.0
C349 C 0.52398 0.92766 0.91127 0.0
C350 C 0.52823 0.88031 0.00137 0.0
C351 C 0.53113 0.90234 0.86829 0.0
C352 C 0.53927 0.83008 0.00422 0.0
C353 C 0.52823 0.83381 0.18246 0.0
N354 N 0.53307 0.8797 0.91367 0.0
N355 N 0.52553 0.85594 0.13577 0.0
H356 H 0.721 0.46371 0.43402 0.0
H357 H 0.63791 0.54997 0.16613 0.0
H358 H 0.71236 0.55068 0.44803 0.0
H359 H 0.64776 0.46284 0.14737 0.0
H360 H 0.66416 0.55058 0.27186 0.0
H361 H 0.69332 0.46284 0.3322 0.0
C362 C 0.71313 0.48261 0.41581 0.0
C363 C 0.71878 0.5073 0.44943 0.0
C364 C 0.66055 0.53131 0.24482 0.0
C365 C 0.68722 0.50659 0.33281 0.0
C366 C 0.6456 0.53093 0.18391 0.0
C367 C 0.64053 0.50631 0.14698 0.0
C368 C 0.67068 0.5069 0.26952 0.0
C369 C 0.65081 0.48233 0.17438 0.0
C370 C 0.69737 0.48215 0.35764 0.0
C371 C 0.7083 0.53124 0.42364 0.0
N372 N 0.66539 0.48325 0.23349 0.0
N373 N 0.69305 0.53031 0.36688 0.0
H374 H 0.96096 0.62582 0.43471 0.0
H375 H 0.03749 0.57508 0.97531 0.0
H376 H 0.02891 0.65328 0.33025 0.0
H377 H 0.97242 0.54126 0.08306 0.0
H378 H 0.03413 0.6039 0.10541 0.0
H379 H 0.96449 0.59423 0.30849 0.0
C380 C 0.97674 0.62486 0.38555 0.0
C381 C 0.9948 0.6418 0.39248 0.0
C382 C 0.02056 0.59016 0.10096 0.0
C383 C 0.99883 0.60638 0.24812 0.0
C384 C 0.02242 0.57372 0.02631 0.0
C385 C 1.0052 0.55563 0.01812 0.0
C386 C 1.00128 0.58873 0.16837 0.0
C387 C 0.98615 0.55479 0.08679 0.0
C388 C 0.97872 0.60699 0.31353 0.0
C389 C 1.01474 0.64026 0.32715 0.0
N390 N 0.98466 0.57113 0.15899 0.0
N391 N 0.01619 0.62294 0.25755 0.0
H392 H 0.09407 0.21943 0.22308 0.0
H393 H 1.00512 0.15343 0.5784 0.0
H394 H 0.02869 0.25981 0.35832 0.0
H395 H 0.06021 0.11133 0.3889 0.0
H396 H 0.0218 0.19618 0.53902 0.0
H397 H 0.09156 0.18557 0.33187 0.0
C398 C 0.07987 0.22197 0.27836 0.0
C399 C 0.06112 0.24176 0.28045 0.0
C400 C 0.03046 0.17747 0.50749 0.0
C401 C 0.05762 0.20278 0.40253 0.0
C402 C 0.02076 0.15309 0.52889 0.0
C403 C 0.03089 0.12872 0.48543 0.0
C404 C 0.05048 0.17746 0.4424 0.0
C405 C 0.05168 0.1295 0.42419 0.0
C406 C 0.07821 0.20241 0.3397 0.0
C407 C 0.04323 0.24442 0.35358 0.0
N408 N 0.06057 0.15347 0.40383 0.0
N409 N 0.0414 0.22447 0.41035 0.0
H410 H 0.3077 0.92884 0.30894 0.0
H411 H 0.38416 0.96519 0.65803 0.0
H412 H 0.29273 0.99907 0.48312 0.0
H413 H 0.40321 0.90124 0.46052 0.0
H414 H 0.344 0.96877 0.62735 0.0
H415 H 0.33449 0.90927 0.39823 0.0
C416 C 0.30929 0.93954 0.36833 0.0
C417 C 0.29826 0.9656 0.38877 0.0
C418 C 0.35682 0.95357 0.59192 0.0
C419 C 0.32958 0.94409 0.48876 0.0
C420 C 0.37976 0.95143 0.6096 0.0
C421 C 0.3972 0.93325 0.56043 0.0
C422 C 0.35133 0.93751 0.52436 0.0
C423 C 0.39047 0.91602 0.49836 0.0
C424 C 0.32479 0.92857 0.41872 0.0
C425 C 0.30099 0.97889 0.46555 0.0
N426 N 0.36817 0.91886 0.48119 0.0
N427 N 0.31691 0.9683 0.5118 0.0
H428 H 0.56389 0.30343 0.41622 0.0
H429 H 0.49796 0.43618 0.61432 0.0
H430 H 0.49119 0.30639 0.54353 0.0
H431 H 0.56974 0.42025 0.65482 0.0
H432 H 0.49693 0.38838 0.57466 0.0
H433 H 0.5692 0.34404 0.5014 0.0
C434 C 0.54948 0.31165 0.46605 0.0
C435 C 0.52701 0.3018 0.47257 0.0
C436 C 0.5129 0.39537 0.59235 0.0
C437 C 0.53253 0.34877 0.56563 0.0
C438 C 0.51367 0.42272 0.61323 0.0
C439 C 0.53407 0.43223 0.63684 0.0
C440 C 0.53282 0.37744 0.59324 0.0
C441 C 0.55374 0.4137 0.63624 0.0
C442 C 0.55238 0.33511 0.51335 0.0
C443 C 0.50876 0.31345 0.53668 0.0
N444 N 0.55275 0.38713 0.61374 0.0
N445 N 0.51162 0.33701 0.57842 0.0
H446 H 0.23273 0.55911 0.26965 0.0
H447 H 0.1374 0.54138 0.68387 0.0
H448 H 0.20279 0.48499 0.34849 0.0
H449 H 0.14573 0.61602 0.55392 0.0
H450 H 0.17544 0.5232 0.60286 0.0
H451 H 0.21442 0.58086 0.41004 0.0
C452 C 0.22291 0.54727 0.31784 0.0
C453 C 0.21884 0.52049 0.29816 0.0
C454 C 0.16932 0.54389 0.59421 0.0
C455 C 0.19815 0.54489 0.45724 0.0
C456 C 0.14764 0.55448 0.64114 0.0
C457 C 0.13796 0.58 0.62338 0.0
C458 C 0.18125 0.55887 0.52904 0.0
C459 C 0.15221 0.5959 0.56731 0.0
C460 C 0.21252 0.55961 0.39753 0.0
C461 C 0.20602 0.50581 0.3617 0.0
N462 N 0.17291 0.58479 0.52012 0.0
N463 N 0.19584 0.51833 0.43829 0.0
H464 H 0.9622 0.76477 0.28481 0.0
H465 H 0.06601 0.83432 0.0202 0.0
H466 H 0.0351 0.73344 0.2473 0.0
H467 H 0.9924 0.8629 0.0506 0.0
H468 H 0.0542 0.78959 0.06136 0.0
H469 H 0.97134 0.79105 0.15724 0.0
C470 C 0.97992 0.76251 0.24699 0.0
C471 C 0.99802 0.74731 0.27625 0.0
C472 C 0.0406 0.80546 0.05718 0.0
C473 C 1.00898 0.77832 0.13405 0.0
C474 C 0.04736 0.83098 0.03371 0.0
C475 C 0.03011 0.85245 0.03507 0.0
C476 C 0.01645 0.80161 0.08283 0.0
C477 C 1.00622 0.84704 0.05198 0.0
C478 C 0.98525 0.77772 0.17475 0.0
C479 C 0.02075 0.74513 0.22629 0.0
N480 N 1.00008 0.82229 0.07687 0.0
N481 N 0.0258 0.76118 0.15882 0.0
H482 H 0.73554 0.94989 0.12486 0.0
H483 H 0.65044 0.05486 0.94079 0.0
H484 H 0.74352 0.03539 0.12184 0.0
H485 H 0.63599 0.97393 0.01466 0.0
H486 H 0.69187 0.0446 0.95338 0.0
H487 H 0.70875 0.9548 0.0217 0.0
C488 C 0.73263 0.96945 0.09861 0.0
C489 C 0.74132 0.99235 0.13224 0.0
C490 C 0.67965 0.02898 0.96485 0.0
C491 C 0.70988 0.99843 0.01878 0.0
C492 C 0.65593 0.03491 0.95897 0.0
C493 C 0.63946 0.01546 0.97858 0.0
C494 C 0.68695 0.0034 0.99012 0.0
C495 C 0.64786 0.98965 0.99872 0.0
C496 C 0.71706 0.97237 0.04086 0.0
C497 C 0.73693 0.01733 0.09737 0.0
N498 N 0.6709 0.98452 0.00493 0.0
N499 N 0.72082 0.01993 0.04438 0.0
H500 H 0.52481 0.70339 0.03191 0.0
H501 H 0.46771 0.56292 0.03375 0.0
H502 H 0.47942 0.67528 0.25222 0.0
H503 H 0.52005 0.59014 0.83207 0.0
H504 H 0.46135 0.60943 0.09859 0.0
H505 H 0.51126 0.66923 0.94101 0.0
C506 C 0.51129 0.69071 0.06061 0.0
C507 C 0.50374 0.69156 0.14983 0.0
C508 C 0.4738 0.60526 0.03896 0.0
C509 C 0.48889 0.65172 0.04731 0.0
C510 C 0.4774 0.57879 0.00225 0.0
C511 C 0.49478 0.57275 0.92886 0.0
C512 C 0.48753 0.62554 0.00095 0.0
C513 C 0.50681 0.59393 0.8898 0.0
C514 C 0.50375 0.67093 0.00895 0.0
C515 C 0.48613 0.67469 0.1837 0.0
N516 N 0.50315 0.61923 0.92671 0.0
N517 N 0.47981 0.65488 0.13285 0.0
H518 H 0.8226 0.59482 0.38271 0.0
H519 H 0.88773 0.49346 0.00809 0.0
H520 H 0.78954 0.52684 0.29251 0.0
H521 H 0.91163 0.52059 0.2392 0.0
H522 H 0.85158 0.52347 0.05159 0.0
H523 H 0.85346 0.58856 0.25474 0.0
C524 C 0.82103 0.57955 0.33379 0.0
C525 C 0.80468 0.55993 0.35138 0.0
C526 C 0.86527 0.52327 0.09061 0.0
C527 C 0.83937 0.55306 0.20565 0.0
C528 C 0.88566 0.50569 0.06737 0.0
C529 C 0.90284 0.50381 0.12079 0.0
C530 C 0.86246 0.53972 0.16599 0.0
C531 C 0.89936 0.52121 0.19479 0.0
C532 C 0.83869 0.57597 0.26085 0.0
C533 C 0.80268 0.54151 0.28393 0.0
N534 N 0.87958 0.53825 0.21514 0.0
N535 N 0.82056 0.53767 0.21517 0.0
H536 H 0.04878 0.22126 0.89948 0.0
H537 H 0.03075 0.0701 0.00093 0.0
H538 H 1.01202 0.19843 0.14482 0.0
H539 H 0.01743 0.09661 0.75583 0.0
H540 H 0.0318 0.11739 0.04894 0.0
H541 H 0.04325 0.17621 0.83714 0.0
C542 C 0.039 0.20709 0.93938 0.0
C543 C 0.03095 0.21339 0.02735 0.0
C544 C 0.02868 0.1128 0.98458 0.0
C545 C 0.0255 0.16209 0.95821 0.0
C546 C 0.02825 0.08587 0.95704 0.0
C547 C 0.02388 0.07949 0.87461 0.0
C548 C 0.02531 0.1335 0.92864 0.0
C549 C 0.02065 0.10077 0.82029 0.0
C550 C 0.03605 0.18143 0.90419 0.0
C551 C 0.01864 0.19423 0.07681 0.0
N552 N 0.02163 0.12691 0.84797 0.0
N553 N 0.01674 0.16931 0.04211 0.0
H554 H 0.32089 0.9786 0.03237 0.0
H555 H 0.44572 0.04462 0.98301 0.0
H556 H 0.33458 0.04343 0.20021 0.0
H557 H 0.43224 0.97691 0.82476 0.0
H558 H 0.40401 0.04803 0.05313 0.0
H559 H 0.36005 0.98176 0.9436 0.0
C560 C 0.33187 0.99413 0.04866 0.0
C561 C 0.32434 0.01119 0.12244 0.0
C562 C 0.41018 0.03251 0.00271 0.0
C563 C 0.3696 0.01429 0.02348 0.0
C564 C 0.43405 0.03054 0.9626 0.0
C565 C 0.44274 0.01029 0.89806 0.0
C566 C 0.39475 0.01416 0.97819 0.0
C567 C 0.42658 0.99272 0.87445 0.0
C568 C 0.35436 0.99572 0.99876 0.0
C569 C 0.33958 0.03032 0.14268 0.0
N570 N 0.40352 0.99499 0.91455 0.0
N571 N 0.36151 0.03124 0.09397 0.0
H572 H 0.48769 0.35513 0.3187 0.0
H573 H 0.49477 0.41666 0.85948 0.0
H574 H 0.5111 0.30493 0.08662 0.0
H575 H 0.51105 0.46121 0.07823 0.0
H576 H 0.49157 0.37623 0.94368 0.0
H577 H 0.48608 0.39471 0.23245 0.0
C578 C 0.4923 0.35239 0.24931 0.0
C579 C 0.50012 0.32672 0.20981 0.0
C580 C 0.49569 0.39491 0.9732 0.0
C581 C 0.49787 0.37207 0.11083 0.0
C582 C 0.49737 0.41805 0.92566 0.0
C583 C 0.50305 0.44243 0.96227 0.0
C584 C 0.49919 0.39626 0.05858 0.0
C585 C 0.50662 0.44288 0.04766 0.0
C586 C 0.49141 0.37503 0.20036 0.0
C587 C 0.50514 0.32432 0.11963 0.0
N588 N 0.50445 0.42016 0.09321 0.0
N589 N 0.50408 0.34682 0.07293 0.0
H590 H 0.17216 0.53462 0.09376 0.0
H591 H 0.10574 0.49378 0.72921 0.0
H592 H 0.20545 0.46475 0.93618 0.0
H593 H 0.07169 0.49105 0.99434 0.0
H594 H 0.14435 0.49442 0.77703 0.0
H595 H 0.137 0.53137 0.02946 0.0
C596 C 0.17221 0.51847 0.04587 0.0
C597 C 0.1918 0.4993 0.02312 0.0
C598 C 0.12836 0.49336 0.82413 0.0
C599 C 0.15153 0.49661 0.9456 0.0
C600 C 0.10636 0.49308 0.79716 0.0
C601 C 0.08538 0.49211 0.85778 0.0
C602 C 0.12923 0.49355 0.91233 0.0
C603 C 0.0873 0.49149 0.9451 0.0
C604 C 0.1521 0.51689 0.00867 0.0
C605 C 0.19086 0.47986 0.95672 0.0
N606 N 0.1087 0.49266 0.96968 0.0
N607 N 0.171 0.47893 0.92042 0.0
H608 H 0.97275 0.78146 0.66695 0.0
H609 H 0.02457 0.92261 0.58094 0.0
H610 H 0.03432 0.79162 0.4753 0.0
H611 H 0.99532 0.9045 0.84125 0.0
H612 H 0.02335 0.87519 0.53651 0.0
H613 H 0.97691 0.82646 0.73219 0.0
C614 C 0.98743 0.79282 0.64003 0.0
C615 C 1.00304 0.78299 0.56504 0.0
C616 C 0.01723 0.88158 0.60345 0.0
C617 C 1.00741 0.83439 0.63699 0.0
C618 C 0.01776 0.9087 0.62871 0.0
C619 C 1.01001 0.91758 0.71487 0.0
C620 C 1.00844 0.86315 0.66423 0.0
C621 C 1.0015 0.89849 0.77409 0.0
C622 C 0.98969 0.81851 0.67673 0.0
C623 C 0.02167 0.79863 0.53228 0.0
N624 N 1.00072 0.87217 0.74756 0.0
N625 N 0.02306 0.82366 0.56733 0.0
H626 H 0.68962 0.03108 0.36948 0.0
H627 H 0.60139 0.97997 0.76693 0.0
H628 H 0.71424 0.9686 0.52209 0.0
H629 H 0.57979 0.00537 0.53269 0.0
H630 H 0.64302 0.98247 0.69853 0.0
H631 H 0.64978 0.03018 0.45248 0.0
C632 C 0.68672 0.01744 0.42162 0.0
C633 C 0.70533 0.9996 0.4379 0.0
C634 C 0.62913 0.98737 0.66228 0.0
C635 C 0.65939 0.99854 0.53387 0.0
C636 C 0.60536 0.986 0.70114 0.0
C637 C 0.58697 0.99236 0.65538 0.0
C638 C 0.63454 0.99583 0.57777 0.0
C639 C 0.59326 1.00006 0.57035 0.0
C640 C 0.66389 0.01683 0.46858 0.0
C641 C 0.70047 0.98268 0.50726 0.0
N642 N 0.6164 1.00182 0.5348 0.0
N643 N 0.67789 0.98241 0.55248 0.0
H644 H 0.57191 0.6504 0.27897 0.0
H645 H 0.50716 0.58622 0.68683 0.0
H646 H 0.52982 0.69834 0.49119 0.0
H647 H 0.57287 0.54675 0.5493 0.0
H648 H 0.51585 0.62718 0.61272 0.0
H649 H 0.57467 0.6126 0.37366 0.0
C650 C 0.56404 0.65324 0.34647 0.0
C651 C 0.55075 0.67749 0.37783 0.0
C652 C 0.52856 0.60973 0.59903 0.0
C653 C 0.55299 0.63419 0.48505 0.0
C654 C 0.5235 0.58614 0.64078 0.0
C655 C 0.53922 0.56285 0.62369 0.0
C656 C 0.54923 0.61011 0.53744 0.0
C657 C 0.56024 0.56422 0.56405 0.0
C658 C 0.56549 0.63165 0.40021 0.0
C659 C 0.54042 0.68007 0.465 0.0
N660 N 0.56446 0.58737 0.52166 0.0
N661 N 0.54134 0.65848 0.51517 0.0
H662 H 0.81789 0.52762 0.73451 0.0
H663 H 0.95663 0.54102 0.63695 0.0
H664 H 0.85935 0.5224 0.47808 0.0
H665 H 0.9276 0.49521 0.85187 0.0
H666 H 0.91796 0.54407 0.5924 0.0
H667 H 0.85515 0.52305 0.79249 0.0
C668 C 0.83466 0.52538 0.69044 0.0
C669 C 0.83531 0.52621 0.60115 0.0
C670 C 0.92002 0.5335 0.64967 0.0
C671 C 0.87781 0.52169 0.66703 0.0
C672 C 0.94206 0.53191 0.67551 0.0
C673 C 0.94549 0.51773 0.74805 0.0
C674 C 0.90093 0.52136 0.69748 0.0
C675 C 0.92583 0.50617 0.79508 0.0
C676 C 0.85588 0.52291 0.72358 0.0
C677 C 0.85773 0.523 0.54738 0.0
N678 N 0.90436 0.50833 0.76928 0.0
N679 N 0.87788 0.52137 0.58099 0.0
loop_
_geom_bond_atom_site_label_1
_geom_bond_atom_site_label_2
_geom_bond_distance
_geom_bond_site_symmetry_2
_ccdc_geom_bond_type
H0 C3 0.929 . S
H1 C6 0.929 . S
H2 C8 0.930 . S
C3 H0 0.929 . S
C3 C4 1.398 . S
C3 C5 1.396 . S
C4 C3 1.398 . S
C4 C8 1.407 . S
C5 C3 1.396 . S
C5 C6 1.394 . S
C6 H1 0.929 . S
C6 C5 1.394 . S
C6 C7 1.382 . S
C7 C6 1.382 . S
C7 C8 1.392 . S
C7 N9 1.420 . S
C8 H2 0.930 . S
C8 C4 1.407 . S
C8 C7 1.392 . S
N9 C7 1.420 . S
N9 C10 1.244 . S
C10 N9 1.244 . S
H11 C14 0.929 . S
H12 C17 0.932 1_455 S
H13 C19 0.934 . S
C14 H11 0.929 . S
C14 C15 1.398 . S
C14 C16 1.396 . S
C15 C14 1.398 . S
C15 C19 1.406 1_655 S
C16 C14 1.396 . S
C16 C17 1.396 . S
C17 H12 0.932 1_655 S
C17 C16 1.396 . S
C17 C18 1.372 1_655 S
C18 C17 1.372 1_455 S
C18 C19 1.398 . S
C18 N20 1.423 . S
C19 H13 0.934 . S
C19 C15 1.406 1_455 S
C19 C18 1.398 . S
N20 C18 1.423 . S
N20 C21 1.244 1_455 S
C21 N20 1.244 1_655 S
H22 C25 0.929 . S
H23 C28 0.929 . S
H24 C30 0.930 . S
C25 H22 0.929 . S
C25 C26 1.395 1_565 S
C25 C27 1.393 1_565 S
C26 C25 1.395 1_545 S
C26 C30 1.416 . S
C27 C25 1.393 1_545 S
C27 C28 1.398 . S
C28 H23 0.929 . S
C28 C27 1.398 . S
C28 C29 1.382 . S
C29 C28 1.382 . S
C29 C30 1.392 . S
C29 N31 1.420 . S
C30 H24 0.930 . S
C30 C26 1.416 . S
C30 C29 1.392 . S
N31 C29 1.420 . S
N31 C32 1.234 1_545 S
C32 N31 1.234 1_565 S
H33 C36 0.929 . S
H34 C39 0.929 . S
H35 C41 0.930 . S
C36 H33 0.929 . S
C36 C37 1.398 . S
C36 C38 1.396 . S
C37 C36 1.398 . S
C37 C41 1.407 . S
C38 C36 1.396 . S
C38 C39 1.394 . S
C39 H34 0.929 . S
C39 C38 1.394 . S
C39 C40 1.382 . S
C40 C39 1.382 . S
C40 C41 1.392 . S
C40 N42 1.420 . S
C41 H35 0.930 . S
C41 C37 1.407 . S
C41 C40 1.392 . S
N42 C40 1.420 . S
N42 C43 1.244 . S
C43 N42 1.244 . S
H44 C47 0.929 . S
H45 C50 0.929 . S
H46 C52 0.930 . S
C47 H44 0.929 . S
C47 C48 1.398 . S
C47 C49 1.396 1_556 S
C48 C47 1.398 . S
C48 C52 1.407 . S
C49 C47 1.396 1_554 S
C49 C50 1.394 . S
C50 H45 0.929 . S
C50 C49 1.394 . S
C50 C51 1.382 1_554 S
C51 C50 1.382 1_556 S
C51 C52 1.392 . S
C51 N53 1.420 . S
C52 H46 0.930 . S
C52 C48 1.407 . S
C52 C51 1.392 . S
N53 C51 1.420 . S
N53 C54 1.244 1_556 S
C54 N53 1.244 1_554 S
H55 C58 0.929 . S
H56 C61 0.929 . S
H57 C63 0.930 1_556 S
C58 H55 0.929 . S
C58 C59 1.398 . S
C58 C60 1.396 . S
C59 C58 1.398 . S
C59 C63 1.407 . S
C60 C58 1.396 . S
C60 C61 1.394 . S
C61 H56 0.929 . S
C61 C60 1.394 . S
C61 C62 1.382 . S
C62 C61 1.382 . S
C62 C63 1.392 . S
C62 N64 1.420 . S
C63 H57 0.930 1_554 S
C63 C59 1.407 . S
C63 C62 1.392 . S
N64 C62 1.420 . S
N64 C65 1.244 . S
C65 N64 1.244 . S
H66 C69 0.929 . S
H67 C72 0.929 . S
H68 C74 0.930 . S
C69 H66 0.929 . S
C69 C70 1.395 1_565 S
C69 C71 1.396 1_565 S
C70 C69 1.395 1_545 S
C70 C74 1.412 . S
C71 C69 1.396 1_545 S
C71 C72 1.396 . S
C72 H67 0.929 . S
C72 C71 1.396 . S
C72 C73 1.382 . S
C73 C72 1.382 . S
C73 C74 1.392 . S
C73 N75 1.420 . S
C74 H68 0.930 . S
C74 C70 1.412 . S
C74 C73 1.392 . S
N75 C73 1.420 . S
N75 C76 1.235 1_545 S
C76 N75 1.235 1_565 S
H77 C80 0.929 . S
H78 C83 0.929 . S
H79 C85 0.930 . S
C80 H77 0.929 . S
C80 C81 1.398 . S
C80 C82 1.396 . S
C81 C80 1.398 . S
C81 C85 1.407 . S
C82 C80 1.396 . S
C82 C83 1.394 . S
C83 H78 0.929 . S
C83 C82 1.394 . S
C83 C84 1.382 . S
C84 C83 1.382 . S
C84 C85 1.392 . S
C84 N86 1.420 . S
C85 H79 0.930 . S
C85 C81 1.407 . S
C85 C84 1.392 . S
N86 C84 1.420 . S
N86 C87 1.244 . S
C87 N86 1.244 . S
Dy88 O91 2.307 1_545 S
Dy88 O93 2.395 1_655 S
Dy88 O94 2.379 . S
Dy88 O96 2.339 . S
Dy88 O98 2.298 . S
Dy88 O102 2.275 1_655 S
Dy88 C110 2.738 . S
Dy89 O92 2.298 . S
Dy89 O95 2.275 1_455 S
Dy89 O97 2.307 1_565 S
Dy89 O99 2.395 1_455 S
Dy89 O100 2.379 . S
Dy89 O103 2.339 . S
Dy89 C119 2.738 . S
C90 O102 1.254 1_565 S
C90 O103 1.257 . S
O91 Dy88 2.307 1_565 S
O91 C101 1.266 . S
O92 Dy89 2.298 . S
O92 C101 1.236 1_455 S
O93 Dy88 2.395 1_455 S
O93 C110 1.255 1_455 S
O94 Dy88 2.379 . S
O94 C110 1.249 . S
O95 Dy89 2.275 1_655 S
O95 C111 1.254 1_565 S
O96 Dy88 2.339 . S
O96 C111 1.257 . S
O97 Dy89 2.307 1_545 S
O97 C112 1.266 . S
O98 Dy88 2.298 . S
O98 C112 1.236 1_655 S
O99 Dy89 2.395 1_655 S
O99 C119 1.255 1_655 S
O100 Dy89 2.379 . S
O100 C119 1.249 . S
C101 O91 1.266 . S
C101 O92 1.236 1_655 S
O102 Dy88 2.275 1_455 S
O102 C90 1.254 1_545 S
O103 Dy89 2.339 . S
O103 C90 1.257 . S
C104 C107 1.344 1_655 S
C104 C108 1.328 . S
C104 C110 1.516 . S
C105 C106 1.304 1_655 S
C105 C109 1.323 . S
C106 C105 1.304 1_455 S
C106 C107 1.371 . S
C106 H120 0.930 . S
C107 C104 1.344 1_455 S
C107 C106 1.371 . S
C107 H121 0.931 . S
C108 C104 1.328 . S
C108 C109 1.433 . S
C108 H122 0.931 . S
C109 C105 1.323 . S
C109 C108 1.433 . S
C109 H123 0.933 . S
C110 Dy88 2.738 . S
C110 O93 1.255 1_655 S
C110 O94 1.249 . S
C110 C104 1.516 . S
C111 O95 1.254 1_545 S
C111 O96 1.257 . S
C112 O97 1.266 . S
C112 O98 1.236 1_455 S
C113 C116 1.344 1_455 S
C113 C117 1.328 . S
C113 C119 1.516 1_554 S
C114 C115 1.304 1_455 S
C114 C118 1.323 . S
C115 C114 1.304 1_655 S
C115 C116 1.371 . S
C115 H124 0.930 . S
C116 C113 1.344 1_655 S
C116 C115 1.371 . S
C116 H125 0.931 . S
C117 C113 1.328 . S
C117 C118 1.433 . S
C117 H126 0.931 . S
C118 C114 1.323 . S
C118 C117 1.433 . S
C118 H127 0.933 . S
C119 Dy89 2.738 . S
C119 O99 1.255 1_455 S
C119 O100 1.249 . S
C119 C113 1.516 1_556 S
H120 C106 0.930 . S
H121 C107 0.931 . S
H122 C108 0.931 . S
H123 C109 0.933 . S
H124 C115 0.930 . S
H125 C116 0.931 . S
H126 C117 0.931 . S
H127 C118 0.933 . S
Dy128 O131 2.307 . S
Dy128 O133 2.395 1_565 S
Dy128 O134 2.379 . S
Dy128 O136 2.339 . S
Dy128 O138 2.298 . S
Dy128 O142 2.275 1_565 S
Dy128 C150 2.738 . S
Dy129 O132 2.298 . S
Dy129 O135 2.275 1_545 S
Dy129 O137 2.307 . S
Dy129 O139 2.395 1_545 S
Dy129 O140 2.379 . S
Dy129 O143 2.339 . S
Dy129 C159 2.738 . S
C130 O142 1.254 . S
C130 O143 1.257 . S
O131 Dy128 2.307 . S
O131 C141 1.266 . S
O132 Dy129 2.298 . S
O132 C141 1.236 1_545 S
O133 Dy128 2.395 1_545 S
O133 C150 1.255 1_545 S
O134 Dy128 2.379 . S
O134 C150 1.249 . S
O135 Dy129 2.275 1_565 S
O135 C151 1.254 . S
O136 Dy128 2.339 . S
O136 C151 1.257 . S
O137 Dy129 2.307 . S
O137 C152 1.266 . S
O138 Dy128 2.298 . S
O138 C152 1.236 1_565 S
O139 Dy129 2.395 1_565 S
O139 C159 1.255 1_565 S
O140 Dy129 2.379 . S
O140 C159 1.249 . S
C141 O131 1.266 . S
C141 O132 1.236 1_565 S
O142 Dy128 2.275 1_545 S
O142 C130 1.254 . S
O143 Dy129 2.339 . S
O143 C130 1.257 . S
C144 C147 1.344 1_565 S
C144 C148 1.328 . S
C144 C150 1.516 . S
C145 C146 1.304 1_565 S
C145 C149 1.323 . S
C146 C145 1.304 1_545 S
C146 C147 1.371 . S
C146 H160 0.930 . S
C147 C144 1.344 1_545 S
C147 C146 1.371 . S
C147 H161 0.931 . S
C148 C144 1.328 . S
C148 C149 1.433 . S
C148 H162 0.931 . S
C149 C145 1.323 . S
C149 C148 1.433 . S
C149 H163 0.933 . S
C150 Dy128 2.738 . S
C150 O133 1.255 1_565 S
C150 O134 1.249 . S
C150 C144 1.516 . S
C151 O135 1.254 . S
C151 O136 1.257 . S
C152 O137 1.266 . S
C152 O138 1.236 1_545 S
C153 C156 1.344 1_545 S
C153 C157 1.328 . S
C153 C159 1.516 1_554 S
C154 C155 1.304 1_545 S
C154 C158 1.323 . S
C155 C154 1.304 1_565 S
C155 C156 1.371 . S
C155 H164 0.930 . S
C156 C153 1.344 1_565 S
C156 C155 1.371 . S
C156 H165 0.931 1_554 S
C157 C153 1.328 . S
C157 C158 1.433 . S
C157 H166 0.931 . S
C158 C154 1.323 . S
C158 C157 1.433 . S
C158 H167 0.933 . S
C159 Dy129 2.738 . S
C159 O139 1.255 1_545 S
C159 O140 1.249 . S
C159 C153 1.516 1_556 S
H160 C146 0.930 . S
H161 C147 0.931 . S
H162 C148 0.931 . S
H163 C149 0.933 . S
H164 C155 0.930 . S
H165 C156 0.931 1_556 S
H166 C157 0.931 . S
H167 C158 0.933 . S
Dy168 O171 2.307 . S
Dy168 O173 2.395 . S
Dy168 O174 2.379 . S
Dy168 O176 2.339 . S
Dy168 O178 2.298 . S
Dy168 O182 2.275 . S
Dy168 C190 2.738 . S
Dy169 O172 2.298 . S
Dy169 O175 2.275 . S
Dy169 O177 2.307 . S
Dy169 O179 2.395 . S
Dy169 O180 2.379 . S
Dy169 O183 2.339 . S
Dy169 C199 2.738 . S
C170 O182 1.254 . S
C170 O183 1.257 . S
O171 Dy168 2.307 . S
O171 C181 1.266 . S
O172 Dy169 2.298 . S
O172 C181 1.236 . S
O173 Dy168 2.395 . S
O173 C190 1.255 . S
O174 Dy168 2.379 . S
O174 C190 1.249 . S
O175 Dy169 2.275 . S
O175 C191 1.254 . S
O176 Dy168 2.339 . S
O176 C191 1.257 . S
O177 Dy169 2.307 . S
O177 C192 1.266 . S
O178 Dy168 2.298 . S
O178 C192 1.236 . S
O179 Dy169 2.395 . S
O179 C199 1.255 . S
O180 Dy169 2.379 . S
O180 C199 1.249 . S
C181 O171 1.266 . S
C181 O172 1.236 . S
O182 Dy168 2.275 . S
O182 C170 1.254 . S
O183 Dy169 2.339 . S
O183 C170 1.257 . S
C184 C187 1.344 1_556 S
C184 C188 1.328 . S
C184 C190 1.516 . S
C185 C186 1.304 . S
C185 C189 1.323 1_554 S
C186 C185 1.304 . S
C186 C187 1.371 . S
C186 H200 0.930 . S
C187 C184 1.344 1_554 S
C187 C186 1.371 . S
C187 H201 0.931 . S
C188 C184 1.328 . S
C188 C189 1.433 . S
C188 H202 0.931 . S
C189 C185 1.323 1_556 S
C189 C188 1.433 . S
C189 H203 0.933 . S
C190 Dy168 2.738 . S
C190 O173 1.255 . S
C190 O174 1.249 . S
C190 C184 1.516 . S
C191 O175 1.254 . S
C191 O176 1.257 . S
C192 O177 1.266 . S
C192 O178 1.236 . S
C193 C196 1.344 . S
C193 C197 1.328 . S
C193 C199 1.516 . S
C194 C195 1.304 . S
C194 C198 1.323 . S
C195 C194 1.304 . S
C195 C196 1.371 . S
C195 H204 0.930 . S
C196 C193 1.344 . S
C196 C195 1.371 . S
C196 H205 0.931 . S
C197 C193 1.328 . S
C197 C198 1.433 . S
C197 H206 0.931 . S
C198 C194 1.323 . S
C198 C197 1.433 . S
C198 H207 0.933 . S
C199 Dy169 2.738 . S
C199 O179 1.255 . S
C199 O180 1.249 . S
C199 C193 1.516 . S
H200 C186 0.930 . S
H201 C187 0.931 . S
H202 C188 0.931 . S
H203 C189 0.933 . S
H204 C195 0.930 . S
H205 C196 0.931 . S
H206 C197 0.931 . S
H207 C198 0.933 . S
Dy208 O211 2.307 1_455 S
Dy208 O213 2.395 . S
Dy208 O214 2.379 . S
Dy208 O216 2.339 . S
Dy208 O218 2.298 . S
Dy208 O222 2.275 . S
Dy208 C230 2.738 . S
Dy209 O212 2.298 . S
Dy209 O215 2.275 . S
Dy209 O217 2.307 1_655 S
Dy209 O219 2.395 . S
Dy209 O220 2.379 . S
Dy209 O223 2.339 . S
Dy209 C239 2.739 . S
C210 O222 1.254 . S
C210 O223 1.257 1_455 S
O211 Dy208 2.307 1_655 S
O211 C221 1.266 . S
O212 Dy209 2.298 . S
O212 C221 1.236 . S
O213 Dy208 2.395 . S
O213 C230 1.255 . S
O214 Dy208 2.379 . S
O214 C230 1.249 . S
O215 Dy209 2.275 . S
O215 C231 1.254 1_655 S
O216 Dy208 2.339 . S
O216 C231 1.257 . S
O217 Dy209 2.307 1_455 S
O217 C232 1.266 . S
O218 Dy208 2.298 . S
O218 C232 1.236 . S
O219 Dy209 2.395 . S
O219 C239 1.255 . S
O220 Dy209 2.379 . S
O220 C239 1.251 . S
C221 O211 1.266 . S
C221 O212 1.236 . S
O222 Dy208 2.275 . S
O222 C210 1.254 . S
O223 Dy209 2.339 . S
O223 C210 1.257 1_655 S
C224 C227 1.344 . S
C224 C228 1.328 . S
C224 C230 1.516 . S
C225 C226 1.304 . S
C225 C229 1.323 . S
C226 C225 1.304 . S
C226 C227 1.371 . S
C226 H240 0.930 . S
C227 C224 1.344 . S
C227 C226 1.371 . S
C227 H241 0.931 . S
C228 C224 1.328 . S
C228 C229 1.433 . S
C228 H242 0.931 . S
C229 C225 1.323 . S
C229 C228 1.433 . S
C229 H243 0.933 . S
C230 Dy208 2.738 . S
C230 O213 1.255 . S
C230 O214 1.249 . S
C230 C224 1.516 . S
C231 O215 1.254 1_455 S
C231 O216 1.257 . S
C232 O217 1.266 . S
C232 O218 1.236 . S
C233 C236 1.344 . S
C233 C237 1.328 . S
C233 C239 1.514 1_554 S
C234 C235 1.304 . S
C234 C238 1.323 . S
C235 C234 1.304 . S
C235 C236 1.371 . S
C235 H244 0.930 . S
C236 C233 1.344 . S
C236 C235 1.371 . S
C236 H245 0.931 . S
C237 C233 1.328 . S
C237 C238 1.433 . S
C237 H246 0.931 . S
C238 C234 1.323 . S
C238 C237 1.433 . S
C238 H247 0.933 . S
C239 Dy209 2.739 . S
C239 O219 1.255 . S
C239 O220 1.251 . S
C239 C233 1.514 1_556 S
H240 C226 0.930 . S
H241 C227 0.931 . S
H242 C228 0.931 . S
H243 C229 0.933 . S
H244 C235 0.930 . S
H245 C236 0.931 . S
H246 C237 0.931 . S
H247 C238 0.933 . S
H248 C254 0.930 . S
H249 C258 0.930 . S
H250 C263 0.929 . S
H251 C261 0.929 . S
H252 C256 0.929 . S
H253 C262 0.929 . S
C254 H248 0.930 . S
C254 C255 1.372 . S
C254 C262 1.378 . S
C255 C254 1.372 . S
C255 C263 1.429 1_565 S
C256 H252 0.929 . S
C256 C258 1.378 . S
C256 C260 1.350 . S
C257 C260 1.463 1_565 S
C257 C262 1.352 . S
C257 N265 1.425 1_565 S
C258 H249 0.930 . S
C258 C256 1.378 . S
C258 C259 1.367 . S
C259 C258 1.367 . S
C259 C261 1.433 1_545 S
C260 C256 1.350 . S
C260 C257 1.463 1_545 S
C260 N264 1.427 1_545 S
C261 H251 0.929 . S
C261 C259 1.433 1_565 S
C261 N264 1.384 . S
C262 H253 0.929 . S
C262 C254 1.378 . S
C262 C257 1.352 . S
C263 H250 0.929 . S
C263 C255 1.429 1_545 S
C263 N265 1.384 . S
N264 C260 1.427 1_565 S
N264 C261 1.384 . S
N265 C257 1.425 1_545 S
N265 C263 1.384 . S
H266 C272 0.930 . S
H267 C276 0.930 . S
H268 C281 0.929 . S
H269 C279 0.929 . S
H270 C274 0.929 . S
H271 C280 0.929 . S
C272 H266 0.930 . S
C272 C273 1.367 . S
C272 C280 1.378 . S
C273 C272 1.367 . S
C273 C281 1.433 . S
C274 H270 0.929 . S
C274 C276 1.378 . S
C274 C278 1.350 . S
C275 C278 1.463 . S
C275 C280 1.350 . S
C275 N283 1.427 . S
C276 H267 0.930 . S
C276 C274 1.378 . S
C276 C277 1.367 . S
C277 C276 1.367 . S
C277 C279 1.433 . S
C278 C274 1.350 . S
C278 C275 1.463 . S
C278 N282 1.427 . S
C279 H269 0.929 . S
C279 C277 1.433 . S
C279 N282 1.384 . S
C280 H271 0.929 . S
C280 C272 1.378 . S
C280 C275 1.350 . S
C281 H268 0.929 . S
C281 C273 1.433 . S
C281 N283 1.384 . S
N282 C278 1.427 . S
N282 C279 1.384 . S
N283 C275 1.427 . S
N283 C281 1.384 . S
H284 C290 0.930 . S
H285 C294 0.930 . S
H286 C299 0.929 . S
H287 C297 0.929 . S
H288 C292 0.929 . S
H289 C298 0.929 . S
C290 H284 0.930 . S
C290 C291 1.367 . S
C290 C298 1.378 . S
C291 C290 1.367 . S
C291 C299 1.433 . S
C292 H288 0.929 . S
C292 C294 1.378 . S
C292 C296 1.350 . S
C293 C296 1.463 . S
C293 C298 1.350 . S
C293 N301 1.427 . S
C294 H285 0.930 . S
C294 C292 1.378 . S
C294 C295 1.367 . S
C295 C294 1.367 . S
C295 C297 1.433 . S
C296 C292 1.350 . S
C296 C293 1.463 . S
C296 N300 1.427 . S
C297 H287 0.929 . S
C297 C295 1.433 . S
C297 N300 1.384 . S
C298 H289 0.929 . S
C298 C290 1.378 . S
C298 C293 1.350 . S
C299 H286 0.929 . S
C299 C291 1.433 . S
C299 N301 1.384 . S
N300 C296 1.427 . S
N300 C297 1.384 . S
N301 C293 1.427 . S
N301 C299 1.384 . S
H302 C308 0.930 . S
H303 C312 0.932 . S
H304 C317 0.929 1_655 S
H305 C315 0.929 . S
H306 C310 0.922 1_655 S
H307 C316 0.929 . S
C308 H302 0.930 . S
C308 C309 1.367 . S
C308 C316 1.378 . S
C309 C308 1.367 . S
C309 C317 1.433 . S
C310 H306 0.922 1_455 S
C310 C312 1.382 1_455 S
C310 C314 1.354 . S
C311 C314 1.463 . S
C311 C316 1.350 . S
C311 N319 1.427 . S
C312 H303 0.932 . S
C312 C310 1.382 1_655 S
C312 C313 1.364 1_655 S
C313 C312 1.364 1_455 S
C313 C315 1.433 . S
C314 C310 1.354 . S
C314 C311 1.463 . S
C314 N318 1.427 . S
C315 H305 0.929 . S
C315 C313 1.433 . S
C315 N318 1.384 . S
C316 H307 0.929 . S
C316 C308 1.378 . S
C316 C311 1.350 . S
C317 H304 0.929 1_455 S
C317 C309 1.433 . S
C317 N319 1.384 . S
N318 C314 1.427 . S
N318 C315 1.384 . S
N319 C311 1.427 . S
N319 C317 1.384 . S
H320 C326 0.930 . S
H321 C330 0.930 . S
H322 C335 0.929 . S
H323 C333 0.929 . S
H324 C328 0.929 . S
H325 C334 0.929 . S
C326 H320 0.930 . S
C326 C327 1.373 . S
C326 C334 1.378 . S
C327 C326 1.373 . S
C327 C335 1.426 1_565 S
C328 H324 0.929 . S
C328 C330 1.378 . S
C328 C332 1.351 1_545 S
C329 C332 1.458 . S
C329 C334 1.370 . S
C329 N337 1.411 1_565 S
C330 H321 0.930 . S
C330 C328 1.378 . S
C330 C331 1.358 1_544 S
C331 C330 1.358 1_566 S
C331 C333 1.444 . S
C332 C328 1.351 1_565 S
C332 C329 1.458 . S
C332 N336 1.426 1_554 S
C333 H323 0.929 . S
C333 C331 1.444 . S
C333 N336 1.384 . S
C334 H325 0.929 . S
C334 C326 1.378 . S
C334 C329 1.370 . S
C335 H322 0.929 . S
C335 C327 1.426 1_545 S
C335 N337 1.384 . S
N336 C332 1.426 1_556 S
N336 C333 1.384 . S
N337 C329 1.411 1_545 S
N337 C335 1.384 . S
H338 C344 0.930 . S
H339 C348 0.930 . S
H340 C353 0.929 . S
H341 C351 0.929 . S
H342 C346 0.929 1_554 S
H343 C352 0.929 . S
C344 H338 0.930 . S
C344 C345 1.367 . S
C344 C352 1.378 1_554 S
C345 C344 1.367 . S
C345 C353 1.433 . S
C346 H342 0.929 1_556 S
C346 C348 1.378 . S
C346 C350 1.350 . S
C347 C350 1.463 1_554 S
C347 C352 1.350 1_554 S
C347 N355 1.427 . S
C348 H339 0.930 . S
C348 C346 1.378 . S
C348 C349 1.367 . S
C349 C348 1.367 . S
C349 C351 1.433 . S
C350 C346 1.350 . S
C350 C347 1.463 1_556 S
C350 N354 1.427 . S
C351 H341 0.929 . S
C351 C349 1.433 . S
C351 N354 1.384 . S
C352 H343 0.929 . S
C352 C344 1.378 1_556 S
C352 C347 1.350 1_556 S
C353 H340 0.929 . S
C353 C345 1.433 . S
C353 N355 1.384 . S
N354 C350 1.427 . S
N354 C351 1.384 . S
N355 C347 1.427 . S
N355 C353 1.384 . S
H356 C362 0.930 . S
H357 C366 0.930 . S
H358 C371 0.929 . S
H359 C369 0.929 . S
H360 C364 0.929 . S
H361 C370 0.929 . S
C362 H356 0.930 . S
C362 C363 1.367 . S
C362 C370 1.378 . S
C363 C362 1.367 . S
C363 C371 1.433 . S
C364 H360 0.929 . S
C364 C366 1.378 . S
C364 C368 1.350 . S
C365 C368 1.463 . S
C365 C370 1.350 . S
C365 N373 1.427 . S
C366 H357 0.930 . S
C366 C364 1.378 . S
C366 C367 1.367 . S
C367 C366 1.367 . S
C367 C369 1.433 . S
C368 C364 1.350 . S
C368 C365 1.463 . S
C368 N372 1.427 . S
C369 H359 0.929 . S
C369 C367 1.433 . S
C369 N372 1.384 . S
C370 H361 0.929 . S
C370 C362 1.378 . S
C370 C365 1.350 . S
C371 H358 0.929 . S
C371 C363 1.433 . S
C371 N373 1.384 . S
N372 C368 1.427 . S
N372 C369 1.384 . S
N373 C365 1.427 . S
N373 C371 1.384 . S
H374 C380 0.930 . S
H375 C384 0.930 . S
H376 C389 0.929 . S
H377 C387 0.929 . S
H378 C382 0.929 . S
H379 C388 0.929 . S
C380 H374 0.930 . S
C380 C381 1.367 . S
C380 C388 1.378 . S
C381 C380 1.367 . S
C381 C389 1.433 1_655 S
C382 H378 0.929 . S
C382 C384 1.378 1_554 S
C382 C386 1.350 1_455 S
C383 C386 1.463 . S
C383 C388 1.350 . S
C383 N391 1.427 1_655 S
C384 H375 0.930 . S
C384 C382 1.378 1_556 S
C384 C385 1.342 1_455 S
C385 C384 1.342 1_655 S
C385 C387 1.453 1_556 S
C386 C382 1.350 1_655 S
C386 C383 1.463 . S
C386 N390 1.427 . S
C387 H377 0.929 . S
C387 C385 1.453 1_554 S
C387 N390 1.384 . S
C388 H379 0.929 . S
C388 C380 1.378 . S
C388 C383 1.350 . S
C389 H376 0.929 . S
C389 C381 1.433 1_455 S
C389 N391 1.384 . S
N390 C386 1.427 . S
N390 C387 1.384 . S
N391 C383 1.427 1_455 S
N391 C389 1.384 . S
H392 C398 0.930 . S
H393 C402 0.930 . S
H394 C407 0.929 . S
H395 C405 0.929 . S
H396 C400 0.929 . S
H397 C406 0.929 . S
C398 H392 0.930 . S
C398 C399 1.367 . S
C398 C406 1.378 . S
C399 C398 1.367 . S
C399 C407 1.433 1_455 S
C400 H396 0.929 . S
C400 C402 1.378 . S
C400 C404 1.350 . S
C401 C404 1.463 1_455 S
C401 C406 1.350 . S
C401 N409 1.427 1_455 S
C402 H393 0.930 . S
C402 C400 1.378 . S
C402 C403 1.367 . S
C403 C402 1.367 . S
C403 C405 1.433 1_655 S
C404 C400 1.350 . S
C404 C401 1.463 1_655 S
C404 N408 1.427 1_655 S
C405 H395 0.929 . S
C405 C403 1.433 1_455 S
C405 N408 1.384 . S
C406 H397 0.929 . S
C406 C398 1.378 . S
C406 C401 1.350 . S
C407 H394 0.929 . S
C407 C399 1.433 1_655 S
C407 N409 1.384 . S
N408 C404 1.427 1_455 S
N408 C405 1.384 . S
N409 C401 1.427 1_655 S
N409 C407 1.384 . S
H410 C416 0.930 . S
H411 C420 0.930 . S
H412 C425 0.929 . S
H413 C423 0.929 . S
H414 C418 0.929 . S
H415 C424 0.929 . S
C416 H410 0.930 . S
C416 C417 1.379 . S
C416 C424 1.378 . S
C417 C416 1.379 . S
C417 C425 1.423 1_565 S
C418 H414 0.929 . S
C418 C420 1.378 . S
C418 C422 1.350 1_545 S
C419 C422 1.463 . S
C419 C424 1.350 . S
C419 N427 1.427 1_565 S
C420 H411 0.930 . S
C420 C418 1.378 . S
C420 C421 1.367 1_545 S
C421 C420 1.367 1_565 S
C421 C423 1.433 . S
C422 C418 1.350 1_565 S
C422 C419 1.463 . S
C422 N426 1.427 . S
C423 H413 0.929 . S
C423 C421 1.433 . S
C423 N426 1.384 . S
C424 H415 0.929 . S
C424 C416 1.378 . S
C424 C419 1.350 . S
C425 H412 0.929 . S
C425 C417 1.423 1_545 S
C425 N427 1.384 . S
N426 C422 1.427 . S
N426 C423 1.384 . S
N427 C419 1.427 1_545 S
N427 C425 1.384 . S
H428 C434 0.930 . S
H429 C438 0.930 . S
H430 C443 0.929 . S
H431 C441 0.929 . S
H432 C436 0.929 . S
H433 C442 0.929 . S
C434 H428 0.930 . S
C434 C435 1.367 . S
C434 C442 1.378 . S
C435 C434 1.367 . S
C435 C443 1.433 . S
C436 H432 0.929 . S
C436 C438 1.378 . S
C436 C440 1.350 . S
C437 C440 1.463 . S
C437 C442 1.350 . S
C437 N445 1.427 . S
C438 H429 0.930 . S
C438 C436 1.378 . S
C438 C439 1.367 . S
C439 C438 1.367 . S
C439 C441 1.433 . S
C440 C436 1.350 . S
C440 C437 1.463 . S
C440 N444 1.427 . S
C441 H431 0.929 . S
C441 C439 1.433 . S
C441 N444 1.384 . S
C442 H433 0.929 . S
C442 C434 1.378 . S
C442 C437 1.350 . S
C443 H430 0.929 . S
C443 C435 1.433 . S
C443 N445 1.384 . S
N444 C440 1.427 . S
N444 C441 1.384 . S
N445 C437 1.427 . S
N445 C443 1.384 . S
H446 C452 0.930 . S
H447 C456 0.930 . S
H448 C461 0.929 . S
H449 C459 0.929 . S
H450 C454 0.929 . S
H451 C460 0.929 . S
C452 H446 0.930 . S
C452 C453 1.367 . S
C452 C460 1.378 . S
C453 C452 1.367 . S
C453 C461 1.433 . S
C454 H450 0.929 . S
C454 C456 1.378 . S
C454 C458 1.350 . S
C455 C458 1.463 . S
C455 C460 1.350 . S
C455 N463 1.427 . S
C456 H447 0.930 . S
C456 C454 1.378 . S
C456 C457 1.367 . S
C457 C456 1.367 . S
C457 C459 1.433 . S
C458 C454 1.350 . S
C458 C455 1.463 . S
C458 N462 1.427 . S
C459 H449 0.929 . S
C459 C457 1.433 . S
C459 N462 1.384 . S
C460 H451 0.929 . S
C460 C452 1.378 . S
C460 C455 1.350 . S
C461 H448 0.929 . S
C461 C453 1.433 . S
C461 N463 1.384 . S
N462 C458 1.427 . S
N462 C459 1.384 . S
N463 C455 1.427 . S
N463 C461 1.384 . S
H464 C470 0.930 . S
H465 C474 0.930 . S
H466 C479 0.929 . S
H467 C477 0.929 . S
H468 C472 0.929 . S
H469 C478 0.929 . S
C470 H464 0.930 . S
C470 C471 1.367 . S
C470 C478 1.378 . S
C471 C470 1.367 . S
C471 C479 1.433 1_655 S
C472 H468 0.929 . S
C472 C474 1.378 . S
C472 C476 1.350 . S
C473 C476 1.463 . S
C473 C478 1.350 1_455 S
C473 N481 1.427 . S
C474 H465 0.930 . S
C474 C472 1.378 . S
C474 C475 1.367 . S
C475 C474 1.367 . S
C475 C477 1.433 . S
C476 C472 1.350 . S
C476 C473 1.463 . S
C476 N480 1.427 . S
C477 H467 0.929 . S
C477 C475 1.433 . S
C477 N480 1.384 . S
C478 H469 0.929 . S
C478 C470 1.378 . S
C478 C473 1.350 1_655 S
C479 H466 0.929 . S
C479 C471 1.433 1_455 S
C479 N481 1.384 . S
N480 C476 1.427 . S
N480 C477 1.384 . S
N481 C473 1.427 . S
N481 C479 1.384 . S
H482 C488 0.930 . S
H483 C492 0.930 . S
H484 C497 0.929 . S
H485 C495 0.929 . S
H486 C490 0.929 . S
H487 C496 0.929 . S
C488 H482 0.930 . S
C488 C489 1.383 . S
C488 C496 1.378 . S
C489 C488 1.383 . S
C489 C497 1.414 1_565 S
C490 H486 0.929 . S
C490 C492 1.378 . S
C490 C494 1.350 . S
C491 C494 1.463 . S
C491 C496 1.350 1_545 S
C491 N499 1.427 . S
C492 H483 0.930 . S
C492 C490 1.378 . S
C492 C493 1.367 . S
C493 C492 1.367 . S
C493 C495 1.433 1_545 S
C494 C490 1.350 . S
C494 C491 1.463 . S
C494 N498 1.427 1_545 S
C495 H485 0.929 . S
C495 C493 1.433 1_565 S
C495 N498 1.384 . S
C496 H487 0.929 . S
C496 C488 1.378 . S
C496 C491 1.350 1_565 S
C497 H484 0.929 . S
C497 C489 1.414 1_545 S
C497 N499 1.384 . S
N498 C494 1.427 1_565 S
N498 C495 1.384 . S
N499 C491 1.427 . S
N499 C497 1.384 . S
H500 C506 0.930 1_556 S
H501 C510 0.930 . S
H502 C515 0.929 . S
H503 C513 0.929 . S
H504 C508 0.929 . S
H505 C514 0.929 . S
C506 H500 0.930 1_554 S
C506 C507 1.367 . S
C506 C514 1.378 1_554 S
C507 C506 1.367 . S
C507 C515 1.433 . S
C508 H504 0.929 . S
C508 C510 1.378 . S
C508 C512 1.350 . S
C509 C512 1.463 . S
C509 C514 1.350 1_554 S
C509 N517 1.427 . S
C510 H501 0.930 . S
C510 C508 1.378 . S
C510 C511 1.367 1_554 S
C511 C510 1.367 1_556 S
C511 C513 1.433 . S
C512 C508 1.350 . S
C512 C509 1.463 . S
C512 N516 1.427 1_554 S
C513 H503 0.929 . S
C513 C511 1.433 . S
C513 N516 1.384 . S
C514 H505 0.929 . S
C514 C506 1.378 1_556 S
C514 C509 1.350 1_556 S
C515 H502 0.929 . S
C515 C507 1.433 . S
C515 N517 1.384 . S
N516 C512 1.427 1_556 S
N516 C513 1.384 . S
N517 C509 1.427 . S
N517 C515 1.384 . S
H518 C524 0.930 . S
H519 C528 0.930 . S
H520 C533 0.929 . S
H521 C531 0.929 . S
H522 C526 0.929 . S
H523 C532 0.929 . S
C524 H518 0.930 . S
C524 C525 1.367 . S
C524 C532 1.378 . S
C525 C524 1.367 . S
C525 C533 1.433 . S
C526 H522 0.929 . S
C526 C528 1.378 . S
C526 C530 1.350 . S
C527 C530 1.463 . S
C527 C532 1.350 . S
C527 N535 1.427 . S
C528 H519 0.930 . S
C528 C526 1.378 . S
C528 C529 1.367 . S
C529 C528 1.367 . S
C529 C531 1.433 . S
C530 C526 1.350 . S
C530 C527 1.463 . S
C530 N534 1.427 . S
C531 H521 0.929 . S
C531 C529 1.433 . S
C531 N534 1.384 . S
C532 H523 0.929 . S
C532 C524 1.378 . S
C532 C527 1.350 . S
C533 H520 0.929 . S
C533 C525 1.433 . S
C533 N535 1.384 . S
N534 C530 1.427 . S
N534 C531 1.384 . S
N535 C527 1.427 . S
N535 C533 1.384 . S
H536 C542 0.930 . S
H537 C546 0.930 1_554 S
H538 C551 0.929 . S
H539 C549 0.929 . S
H540 C544 0.929 1_554 S
H541 C550 0.929 . S
C542 H536 0.930 . S
C542 C543 1.367 . S
C542 C550 1.378 . S
C543 C542 1.367 . S
C543 C551 1.433 1_456 S
C544 H540 0.929 1_556 S
C544 C546 1.378 . S
C544 C548 1.350 1_655 S
C545 C548 1.463 . S
C545 C550 1.350 . S
C545 N553 1.427 1_456 S
C546 H537 0.930 1_556 S
C546 C544 1.378 . S
C546 C547 1.367 1_655 S
C547 C546 1.367 1_455 S
C547 C549 1.433 . S
C548 C544 1.350 1_455 S
C548 C545 1.463 . S
C548 N552 1.427 . S
C549 H539 0.929 . S
C549 C547 1.433 . S
C549 N552 1.384 . S
C550 H541 0.929 . S
C550 C542 1.378 . S
C550 C545 1.350 . S
C551 H538 0.929 . S
C551 C543 1.433 1_654 S
C551 N553 1.384 . S
N552 C548 1.427 . S
N552 C549 1.384 . S
N553 C545 1.427 1_654 S
N553 C551 1.384 . S
H554 C560 0.930 . S
H555 C564 0.930 1_554 S
H556 C569 0.929 . S
H557 C567 0.929 . S
H558 C562 0.929 . S
H559 C568 0.929 . S
C560 H554 0.930 . S
C560 C561 1.367 1_566 S
C560 C568 1.378 . S
C561 C560 1.367 1_544 S
C561 C569 1.433 . S
C562 H558 0.929 . S
C562 C564 1.378 1_554 S
C562 C566 1.350 1_554 S
C563 C566 1.463 1_554 S
C563 C568 1.350 1_544 S
C563 N571 1.427 . S
C564 H555 0.930 1_556 S
C564 C562 1.378 1_556 S
C564 C565 1.367 . S
C565 C564 1.367 . S
C565 C567 1.433 1_545 S
C566 C562 1.350 1_556 S
C566 C563 1.463 1_556 S
C566 N570 1.427 1_545 S
C567 H557 0.929 . S
C567 C565 1.433 1_565 S
C567 N570 1.384 . S
C568 H559 0.929 . S
C568 C560 1.378 . S
C568 C563 1.350 1_566 S
C569 H556 0.929 . S
C569 C561 1.433 . S
C569 N571 1.384 . S
N570 C566 1.427 1_565 S
N570 C567 1.384 . S
N571 C563 1.427 . S
N571 C569 1.384 . S
H572 C578 0.930 . S
H573 C582 0.930 . S
H574 C587 0.929 . S
H575 C585 0.929 . S
H576 C580 0.924 1_556 S
H577 C586 0.929 . S
C578 H572 0.930 . S
C578 C579 1.367 . S
C578 C586 1.378 . S
C579 C578 1.367 . S
C579 C587 1.433 . S
C580 H576 0.924 1_554 S
C580 C582 1.372 1_554 S
C580 C584 1.361 . S
C581 C584 1.463 . S
C581 C586 1.350 . S
C581 N589 1.427 . S
C582 H573 0.930 . S
C582 C580 1.372 1_556 S
C582 C583 1.367 . S
C583 C582 1.367 . S
C583 C585 1.433 1_556 S
C584 C580 1.361 . S
C584 C581 1.463 . S
C584 N588 1.427 . S
C585 H575 0.929 . S
C585 C583 1.433 1_554 S
C585 N588 1.384 . S
C586 H577 0.929 . S
C586 C578 1.378 . S
C586 C581 1.350 . S
C587 H574 0.929 . S
C587 C579 1.433 . S
C587 N589 1.384 . S
N588 C584 1.427 . S
N588 C585 1.384 . S
N589 C581 1.427 . S
N589 C587 1.384 . S
H590 C596 0.930 . S
H591 C600 0.930 . S
H592 C605 0.929 . S
H593 C603 0.929 . S
H594 C598 0.929 . S
H595 C604 0.929 . S
C596 H590 0.930 . S
C596 C597 1.367 . S
C596 C604 1.378 . S
C597 C596 1.367 . S
C597 C605 1.433 . S
C598 H594 0.929 . S
C598 C600 1.378 . S
C598 C602 1.350 . S
C599 C602 1.463 . S
C599 C604 1.350 . S
C599 N607 1.427 . S
C600 H591 0.930 . S
C600 C598 1.378 . S
C600 C601 1.367 . S
C601 C600 1.367 . S
C601 C603 1.433 . S
C602 C598 1.350 . S
C602 C599 1.463 . S
C602 N606 1.427 . S
C603 H593 0.929 . S
C603 C601 1.433 . S
C603 N606 1.384 . S
C604 H595 0.929 . S
C604 C596 1.378 . S
C604 C599 1.350 . S
C605 H592 0.929 . S
C605 C597 1.433 . S
C605 N607 1.384 . S
N606 C602 1.427 . S
N606 C603 1.384 . S
N607 C599 1.427 . S
N607 C605 1.384 . S
H608 C614 0.930 . S
H609 C618 0.930 . S
H610 C623 0.929 . S
H611 C621 0.929 . S
H612 C616 0.929 . S
H613 C622 0.929 . S
C614 H608 0.930 . S
C614 C615 1.367 1_455 S
C614 C622 1.378 . S
C615 C614 1.367 1_655 S
C615 C623 1.433 . S
C616 H612 0.929 . S
C616 C618 1.378 . S
C616 C620 1.350 . S
C617 C620 1.463 . S
C617 C622 1.350 1_655 S
C617 N625 1.427 . S
C618 H609 0.930 . S
C618 C616 1.378 . S
C618 C619 1.367 . S
C619 C618 1.367 . S
C619 C621 1.433 1_655 S
C620 C616 1.350 . S
C620 C617 1.463 . S
C620 N624 1.427 1_655 S
C621 H611 0.929 . S
C621 C619 1.433 1_455 S
C621 N624 1.384 . S
C622 H613 0.929 . S
C622 C614 1.378 . S
C622 C617 1.350 1_455 S
C623 H610 0.929 . S
C623 C615 1.433 . S
C623 N625 1.384 . S
N624 C620 1.427 1_455 S
N624 C621 1.384 . S
N625 C617 1.427 . S
N625 C623 1.384 . S
H626 C632 0.930 . S
H627 C636 0.930 . S
H628 C641 0.929 . S
H629 C639 0.929 . S
H630 C634 0.929 . S
H631 C640 0.929 . S
C632 H626 0.930 . S
C632 C633 1.345 1_545 S
C632 C640 1.378 . S
C633 C632 1.345 1_565 S
C633 C641 1.461 . S
C634 H630 0.929 . S
C634 C636 1.378 . S
C634 C638 1.350 . S
C635 C638 1.463 . S
C635 C640 1.350 1_565 S
C635 N643 1.427 . S
C636 H627 0.930 . S
C636 C634 1.378 . S
C636 C637 1.367 . S
C637 C636 1.367 . S
C637 C639 1.433 1_565 S
C638 C634 1.350 . S
C638 C635 1.463 . S
C638 N642 1.427 1_565 S
C639 H629 0.929 . S
C639 C637 1.433 1_545 S
C639 N642 1.384 . S
C640 H631 0.929 . S
C640 C632 1.378 . S
C640 C635 1.350 1_545 S
C641 H628 0.929 . S
C641 C633 1.461 . S
C641 N643 1.384 . S
N642 C638 1.427 1_545 S
N642 C639 1.384 . S
N643 C635 1.427 . S
N643 C641 1.384 . S
H644 C650 0.930 . S
H645 C654 0.930 . S
H646 C659 0.929 . S
H647 C657 0.929 . S
H648 C652 0.929 . S
H649 C658 0.929 . S
C650 H644 0.930 . S
C650 C651 1.367 . S
C650 C658 1.378 . S
C651 C650 1.367 . S
C651 C659 1.433 . S
C652 H648 0.929 . S
C652 C654 1.378 . S
C652 C656 1.350 . S
C653 C656 1.463 . S
C653 C658 1.350 . S
C653 N661 1.427 . S
C654 H645 0.930 . S
C654 C652 1.378 . S
C654 C655 1.367 . S
C655 C654 1.367 . S
C655 C657 1.433 . S
C656 C652 1.350 . S
C656 C653 1.463 . S
C656 N660 1.427 . S
C657 H647 0.929 . S
C657 C655 1.433 . S
C657 N660 1.384 . S
C658 H649 0.929 . S
C658 C650 1.378 . S
C658 C653 1.350 . S
C659 H646 0.929 . S
C659 C651 1.433 . S
C659 N661 1.384 . S
N660 C656 1.427 . S
N660 C657 1.384 . S
N661 C653 1.427 . S
N661 C659 1.384 . S
H662 C668 0.930 . S
H663 C672 0.930 . S
H664 C677 0.929 . S
H665 C675 0.929 . S
H666 C670 0.929 . S
H667 C676 0.929 . S
C668 H662 0.930 . S
C668 C669 1.367 . S
C668 C676 1.378 . S
C669 C668 1.367 . S
C669 C677 1.433 . S
C670 H666 0.929 . S
C670 C672 1.378 . S
C670 C674 1.350 . S
C671 C674 1.463 . S
C671 C676 1.350 . S
C671 N679 1.427 . S
C672 H663 0.930 . S
C672 C670 1.378 . S
C672 C673 1.367 . S
C673 C672 1.367 . S
C673 C675 1.433 . S
C674 C670 1.350 . S
C674 C671 1.463 . S
C674 N678 1.427 . S
C675 H665 0.929 . S
C675 C673 1.433 . S
C675 N678 1.384 . S
C676 H667 0.929 . S
C676 C668 1.378 . S
C676 C671 1.350 . S
C677 H664 0.929 . S
C677 C669 1.433 . S
C677 N679 1.384 . S
N678 C674 1.427 . S
N678 C675 1.384 . S
N679 C671 1.427 . S
N679 C677 1.384 . S
C255 C76 1.981 . S
C259 C90 2.047 1_545 S
C277 C130 2.047 . S
C273 C87 2.006 . S
C295 C194 1.895 . S
C291 C54 1.782 . S
C313 C210 1.645 . S
C309 C65 1.482 . S
C331 C111 2.040 1_565 S
C327 C32 1.977 . S
C345 C43 2.020 . S
C349 C151 2.049 . S
C363 C10 1.797 . S
C367 C185 1.900 . S
C381 C21 1.503 . S
C385 C231 1.651 1_655 S
C403 C105 0.449 . S
C399 C60 0.424 . S
C421 C145 0.715 . S
C417 C71 0.723 1_565 S
C439 C181 0.738 . S
C435 C82 0.740 . S
C453 C49 0.578 . S
C457 C225 0.616 . S
C471 C16 0.462 . S
C475 C114 0.455 . S
C493 C154 0.735 . S
C489 C27 0.726 1_565 S
C511 C192 0.739 . S
C507 C38 0.742 . S
C525 C5 0.593 . S
C529 C234 0.626 . S
C543 C59 1.821 1_556 S
C547 C112 2.019 . S
C561 C70 1.881 . S
C565 C152 2.043 . S
C583 C170 1.623 . S
C579 C81 1.603 . S
C601 C232 2.421 . S
C597 C48 2.162 . S
C615 C15 1.823 . S
C619 C101 2.032 . S
C637 C141 2.042 . S
C633 C26 1.859 1_565 S
C655 C191 1.626 . S
C651 C37 1.599 . S
C669 C4 2.173 . S
C673 C221 2.423 . S
